
 OpenBabel10282417183D

 47 46  0  0  0  0  0  0  0  0999 V2000
   -1.9204   -5.6981   -0.4853 O   0  0  0  0  0  0  0  0  0  0  0  0
   -2.3304   -4.5889    0.2536 N   0  0  0  0  0  0  0  0  0  0  0  0
   -1.4520   -3.6187    0.2220 C   0  0  0  0  0  0  0  0  0  0  0  0
   -1.7984   -2.3614    1.0415 C   0  0  1  0  0  0  0  0  0  0  0  0
   -1.4133   -2.5828    2.5026 C   0  0  0  0  0  0  0  0  0  0  0  0
   -0.1344   -3.6838   -0.5282 C   0  0  0  0  0  0  0  0  0  0  0  0
   -1.1395   -1.1829    0.4694 N   0  0  0  0  0  0  0  0  0  0  0  0
   -1.4981    0.0469    1.1862 C   0  0  0  0  0  0  0  0  0  0  0  0
   -0.8167    1.2889    0.5941 C   0  0  0  0  0  0  0  0  0  0  0  0
   -1.2308    1.4847   -0.8784 C   0  0  0  0  0  0  0  0  0  0  0  0
   -1.2564    2.5383    1.3873 C   0  0  0  0  0  0  0  0  0  0  0  0
    0.7186    1.1421    0.6650 C   0  0  0  0  0  0  0  0  0  0  0  0
    1.2431    1.0382    2.0338 N   0  0  0  0  0  0  0  0  0  0  0  0
    2.7088    0.8614    2.0874 C   0  0  1  0  0  0  0  0  0  0  0  0
    3.4324    2.0890    1.4730 C   0  0  0  0  0  0  0  0  0  0  0  0
    4.2775    2.9918    2.3379 C   0  0  0  0  0  0  0  0  0  0  0  0
    3.2792    2.3227    0.1966 N   0  0  0  0  0  0  0  0  0  0  0  0
    3.8331    3.5423   -0.1972 O   0  0  0  0  0  0  0  0  0  0  0  0
    3.0564    0.6045    3.5538 C   0  0  0  0  0  0  0  0  0  0  0  0
   -2.6540   -6.3251   -0.3425 H   0  0  0  0  0  0  0  0  0  0  0  0
   -2.8838   -2.2195    0.9661 H   0  0  0  0  0  0  0  0  0  0  0  0
   -1.7219   -1.7473    3.1393 H   0  0  0  0  0  0  0  0  0  0  0  0
   -1.9092   -3.4696    2.9052 H   0  0  0  0  0  0  0  0  0  0  0  0
   -0.3314   -2.7124    2.6138 H   0  0  0  0  0  0  0  0  0  0  0  0
   -0.1046   -2.8983   -1.2899 H   0  0  0  0  0  0  0  0  0  0  0  0
    0.6936   -3.5375    0.1705 H   0  0  0  0  0  0  0  0  0  0  0  0
    0.0169   -4.6348   -1.0424 H   0  0  0  0  0  0  0  0  0  0  0  0
   -1.4099   -1.0969   -0.5087 H   0  0  0  0  0  0  0  0  0  0  0  0
   -2.5864    0.1775    1.1715 H   0  0  0  0  0  0  0  0  0  0  0  0
   -1.1926   -0.0156    2.2350 H   0  0  0  0  0  0  0  0  0  0  0  0
   -2.3185    1.5767   -0.9659 H   0  0  0  0  0  0  0  0  0  0  0  0
   -0.7786    2.3891   -1.2989 H   0  0  0  0  0  0  0  0  0  0  0  0
   -0.9107    0.6500   -1.5109 H   0  0  0  0  0  0  0  0  0  0  0  0
   -1.0033    2.4618    2.4504 H   0  0  0  0  0  0  0  0  0  0  0  0
   -0.7688    3.4387    0.9960 H   0  0  0  0  0  0  0  0  0  0  0  0
   -2.3390    2.6843    1.3285 H   0  0  0  0  0  0  0  0  0  0  0  0
    1.0492    0.2756    0.0779 H   0  0  0  0  0  0  0  0  0  0  0  0
    1.0979    2.0377    0.1759 H   0  0  0  0  0  0  0  0  0  0  0  0
    0.9781    1.8542    2.5779 H   0  0  0  0  0  0  0  0  0  0  0  0
    2.9924   -0.0262    1.5086 H   0  0  0  0  0  0  0  0  0  0  0  0
    5.2763    3.0436    1.8952 H   0  0  0  0  0  0  0  0  0  0  0  0
    3.8326    3.9888    2.3746 H   0  0  0  0  0  0  0  0  0  0  0  0
    4.3935    2.6327    3.3573 H   0  0  0  0  0  0  0  0  0  0  0  0
    3.4863    3.6389   -1.1051 H   0  0  0  0  0  0  0  0  0  0  0  0
    2.5522   -0.2866    3.9433 H   0  0  0  0  0  0  0  0  0  0  0  0
    4.1339    0.4528    3.6750 H   0  0  0  0  0  0  0  0  0  0  0  0
    2.7583    1.4477    4.1908 H   0  0  0  0  0  0  0  0  0  0  0  0
  1  2  1  0  0  0  0
  1 20  1  0  0  0  0
  2  3  2  0  0  0  0
  3  6  1  0  0  0  0
  4  5  1  0  0  0  0
  4 21  1  6  0  0  0
  4  3  1  0  0  0  0
  4  7  1  0  0  0  0
  5 22  1  0  0  0  0
  5 23  1  0  0  0  0
  5 24  1  0  0  0  0
  6 25  1  0  0  0  0
  6 26  1  0  0  0  0
  6 27  1  0  0  0  0
  7  8  1  0  0  0  0
  7 28  1  0  0  0  0
  8  9  1  0  0  0  0
  8 29  1  0  0  0  0
  8 30  1  0  0  0  0
  9 10  1  0  0  0  0
  9 11  1  0  0  0  0
  9 12  1  0  0  0  0
 10 31  1  0  0  0  0
 10 32  1  0  0  0  0
 10 33  1  0  0  0  0
 11 34  1  0  0  0  0
 11 35  1  0  0  0  0
 11 36  1  0  0  0  0
 12 13  1  0  0  0  0
 12 37  1  0  0  0  0
 12 38  1  0  0  0  0
 13 14  1  0  0  0  0
 13 39  1  0  0  0  0
 14 15  1  0  0  0  0
 14 19  1  0  0  0  0
 14 40  1  6  0  0  0
 15 16  1  0  0  0  0
 15 17  2  0  0  0  0
 16 41  1  0  0  0  0
 16 42  1  0  0  0  0
 16 43  1  0  0  0  0
 17 18  1  0  0  0  0
 18 44  1  0  0  0  0
 19 45  1  0  0  0  0
 19 46  1  0  0  0  0
 19 47  1  0  0  0  0
M  END
>  <DRUGBANK_ID>
DB11179

>  <COMMON_NAME>
Exametazime

>  <CAS_NUMBER>
105613-48-7

>  <UNII>
G29272NCKL

>  <SYNONYMS>
Exametazima; Exametazime

$$$$
