5281800
 OpenBabel10282417203D

 80 83  0  0  1  0  0  0  0  0999 V2000
    2.8909    0.3206   -1.3933 O   0  0  0  0  0  0  0  0  0  0  0  0
    7.1066    0.2196   -0.3812 O   0  0  0  0  0  0  0  0  0  0  0  0
    1.9608    0.6490    1.0186 O   0  0  0  0  0  0  0  0  0  0  0  0
    4.7270    2.9802   -1.6390 O   0  0  0  0  0  0  0  0  0  0  0  0
    6.8913   -2.2044   -0.5895 O   0  0  0  0  0  0  0  0  0  0  0  0
    4.9160   -1.6823   -2.9636 O   0  0  0  0  0  0  0  0  0  0  0  0
    1.9814   -2.5645   -0.6363 O   0  0  0  0  0  0  0  0  0  0  0  0
    1.0020   -2.5323    1.9752 O   0  0  0  0  0  0  0  0  0  0  0  0
    4.0037   -1.1696    3.2123 O   0  0  0  0  0  0  0  0  0  0  0  0
    6.7282    3.8589    1.5629 O   0  0  0  0  0  0  0  0  0  0  0  0
    6.2418    3.1881   -3.2620 O   0  0  0  0  0  0  0  0  0  0  0  0
    3.3718    1.9833    0.1862 O   0  0  0  0  0  0  0  0  0  0  0  0
    4.3905    3.4722    1.6403 O   0  0  0  0  0  0  0  0  0  0  0  0
    2.7324    9.2611   -4.5260 O   0  0  0  0  0  0  0  0  0  0  0  0
    2.7745   11.0423   -2.4362 O   0  0  0  0  0  0  0  0  0  0  0  0
    4.4404    0.4363   -1.7522 C   0  0  1  0  0  0  0  0  0  0  0  0
    5.3683    1.7643   -1.2650 C   0  0  1  0  0  0  0  0  0  0  0  0
    5.1289   -0.9308   -1.7528 C   0  0  2  0  0  0  0  0  0  0  0  0
    6.7818    1.6480   -0.6097 C   0  0  1  0  0  0  0  0  0  0  0  0
    2.1241   -0.2322   -0.0941 C   0  0  2  0  0  0  0  0  0  0  0  0
    2.4761   -1.6354    0.3129 C   0  0  1  0  0  0  0  0  0  0  0  0
    6.6063   -0.8941   -1.2181 C   0  0  1  0  0  0  0  0  0  0  0  0
    2.3260   -2.0734    1.7716 C   0  0  1  0  0  0  0  0  0  0  0  0
    2.6401   -1.0379    2.8488 C   0  0  2  0  0  0  0  0  0  0  0  0
    2.1094    0.3428    2.4225 C   0  0  2  0  0  0  0  0  0  0  0  0
    7.2734    2.7571    0.7634 C   0  0  0  0  0  0  0  0  0  0  0  0
    0.6671    0.5447    2.7613 C   0  0  0  0  0  0  0  0  0  0  0  0
    6.1631   -2.6423    0.5816 C   0  0  0  0  0  0  0  0  0  0  0  0
    5.4298    3.6660   -2.5325 C   0  0  0  0  0  0  0  0  0  0  0  0
    6.4980   -1.8247    1.8348 C   0  0  0  0  0  0  0  0  0  0  0  0
    4.9915    5.0726   -2.4559 C   0  0  0  0  0  0  0  0  0  0  0  0
    5.9568   -0.4038    1.8907 C   0  0  0  0  0  0  0  0  0  0  0  0
    4.2180    5.6948   -1.5470 C   0  0  0  0  0  0  0  0  0  0  0  0
    4.9007    0.0476    1.0704 C   0  0  0  0  0  0  0  0  0  0  0  0
    6.3681    0.4951    2.8255 C   0  0  0  0  0  0  0  0  0  0  0  0
    4.2291    1.2793    1.0953 C   0  0  0  0  0  0  0  0  0  0  0  0
    5.7145    1.7446    2.8791 C   0  0  0  0  0  0  0  0  0  0  0  0
    3.8523    7.0980   -1.7732 C   0  0  0  0  0  0  0  0  0  0  0  0
    4.6854    2.1505    1.9954 C   0  0  0  0  0  0  0  0  0  0  0  0
    3.4532    7.5051   -3.0574 C   0  0  0  0  0  0  0  0  0  0  0  0
    3.8666    8.0211   -0.7200 C   0  0  0  0  0  0  0  0  0  0  0  0
    3.1062    8.8274   -3.2851 C   0  0  0  0  0  0  0  0  0  0  0  0
    3.5145    9.3506   -0.9584 C   0  0  0  0  0  0  0  0  0  0  0  0
    3.1334    9.7408   -2.2361 C   0  0  0  0  0  0  0  0  0  0  0  0
    5.0412   -1.1190   -3.7358 H   0  0  0  0  0  0  0  0  0  0  0  0
    1.0271   -2.4155   -0.7048 H   0  0  0  0  0  0  0  0  0  0  0  0
    0.4275   -1.8226    1.6548 H   0  0  0  0  0  0  0  0  0  0  0  0
    4.2670   -0.6088    3.9642 H   0  0  0  0  0  0  0  0  0  0  0  0
    5.8117    3.8313    1.9118 H   0  0  0  0  0  0  0  0  0  0  0  0
    3.0554    1.5765   -0.6604 H   0  0  0  0  0  0  0  0  0  0  0  0
    4.1517    3.4626    0.6630 H   0  0  0  0  0  0  0  0  0  0  0  0
    2.7755    8.5085   -5.1426 H   0  0  0  0  0  0  0  0  0  0  0  0
    2.5269   11.0997   -3.3789 H   0  0  0  0  0  0  0  0  0  0  0  0
    4.3569    0.6918   -2.8194 H   0  0  0  0  0  0  0  0  0  0  0  0
    5.1616    2.1069   -0.3188 H   0  0  0  0  0  0  0  0  0  0  0  0
    4.5701   -1.6336   -1.1674 H   0  0  0  0  0  0  0  0  0  0  0  0
    7.5091    1.9860   -1.3296 H   0  0  0  0  0  0  0  0  0  0  0  0
    1.0902   -0.2045   -0.4633 H   0  0  0  0  0  0  0  0  0  0  0  0
    3.5059   -1.7365    0.1916 H   0  0  0  0  0  0  0  0  0  0  0  0
    7.2309   -0.8866   -2.1118 H   0  0  0  0  0  0  0  0  0  0  0  0
    3.0183   -2.9179    1.8980 H   0  0  0  0  0  0  0  0  0  0  0  0
    2.1850   -1.2959    3.8022 H   0  0  0  0  0  0  0  0  0  0  0  0
    2.6621    1.1331    2.9681 H   0  0  0  0  0  0  0  0  0  0  0  0
    7.9066    2.1841    1.4526 H   0  0  0  0  0  0  0  0  0  0  0  0
    7.9129    3.4551    0.2394 H   0  0  0  0  0  0  0  0  0  0  0  0
    0.4402    0.2299    3.7710 H   0  0  0  0  0  0  0  0  0  0  0  0
    0.4106    1.5973    2.5884 H   0  0  0  0  0  0  0  0  0  0  0  0
    0.0785   -0.0071    2.0276 H   0  0  0  0  0  0  0  0  0  0  0  0
    5.0885   -2.7368    0.4211 H   0  0  0  0  0  0  0  0  0  0  0  0
    6.4221   -3.6962    0.7820 H   0  0  0  0  0  0  0  0  0  0  0  0
    6.0639   -2.3465    2.7001 H   0  0  0  0  0  0  0  0  0  0  0  0
    7.5849   -1.8415    1.9687 H   0  0  0  0  0  0  0  0  0  0  0  0
    5.3924    5.5951   -3.3094 H   0  0  0  0  0  0  0  0  0  0  0  0
    3.7899    5.2590   -0.6433 H   0  0  0  0  0  0  0  0  0  0  0  0
    4.7410   -0.6538    0.3227 H   0  0  0  0  0  0  0  0  0  0  0  0
    7.2377    0.2811    3.4387 H   0  0  0  0  0  0  0  0  0  0  0  0
    6.2531    2.4733    3.4619 H   0  0  0  0  0  0  0  0  0  0  0  0
    3.4186    6.7781   -3.8637 H   0  0  0  0  0  0  0  0  0  0  0  0
    4.1617    7.7253    0.2852 H   0  0  0  0  0  0  0  0  0  0  0  0
    3.5367   10.0800   -0.1548 H   0  0  0  0  0  0  0  0  0  0  0  0
  2 19  1  0  0  0  0
  2 22  1  0  0  0  0
  3 20  1  0  0  0  0
  3 25  1  0  0  0  0
  4 29  1  0  0  0  0
  5 28  1  0  0  0  0
  6 45  1  0  0  0  0
  7 46  1  0  0  0  0
  8 47  1  0  0  0  0
  9 48  1  0  0  0  0
 10 26  1  0  0  0  0
 10 49  1  0  0  0  0
 11 29  2  0  0  0  0
 12 36  1  0  0  0  0
 12 50  1  0  0  0  0
 13 39  1  0  0  0  0
 13 51  1  0  0  0  0
 14 42  1  0  0  0  0
 14 52  1  0  0  0  0
 15 44  1  0  0  0  0
 15 53  1  0  0  0  0
 16  1  1  0  0  0  0
 16 17  1  0  0  0  0
 16 18  1  0  0  0  0
 16 54  1  6  0  0  0
 17  4  1  0  0  0  0
 17 19  1  0  0  0  0
 17 55  1  1  0  0  0
 18  6  1  0  0  0  0
 18 22  1  0  0  0  0
 18 56  1  1  0  0  0
 19 57  1  6  0  0  0
 19 26  1  0  0  0  0
 20 21  1  0  0  0  0
 20 58  1  6  0  0  0
 20  1  1  0  0  0  0
 21  7  1  0  0  0  0
 21 23  1  0  0  0  0
 21 59  1  6  0  0  0
 22  5  1  0  0  0  0
 22 60  1  6  0  0  0
 23  8  1  0  0  0  0
 23 24  1  0  0  0  0
 23 61  1  1  0  0  0
 24 25  1  0  0  0  0
 24 62  1  1  0  0  0
 24  9  1  0  0  0  0
 25 27  1  0  0  0  0
 25 63  1  1  0  0  0
 26 64  1  0  0  0  0
 26 65  1  0  0  0  0
 27 66  1  0  0  0  0
 27 67  1  0  0  0  0
 27 68  1  0  0  0  0
 28 30  1  0  0  0  0
 28 69  1  0  0  0  0
 28 70  1  0  0  0  0
 29 31  1  0  0  0  0
 30 32  1  0  0  0  0
 30 71  1  0  0  0  0
 30 72  1  0  0  0  0
 31 33  2  0  0  0  0
 31 73  1  0  0  0  0
 32 34  2  0  0  0  0
 32 35  1  0  0  0  0
 33 38  1  0  0  0  0
 33 74  1  0  0  0  0
 34 36  1  0  0  0  0
 34 75  1  0  0  0  0
 35 37  2  0  0  0  0
 35 76  1  0  0  0  0
 36 39  2  0  0  0  0
 37 39  1  0  0  0  0
 37 77  1  0  0  0  0
 38 40  2  0  0  0  0
 38 41  1  0  0  0  0
 40 42  1  0  0  0  0
 40 78  1  0  0  0  0
 41 43  2  0  0  0  0
 41 79  1  0  0  0  0
 42 44  2  0  0  0  0
 43 44  1  0  0  0  0
 43 80  1  0  0  0  0
M  END
>  <DRUGBANK_ID>
DB12996

>  <COMMON_NAME>
Acteoside

>  <CAS_NUMBER>
61276-17-3

>  <UNII>
3TGX09BD5B

$$$$
