
 OpenBabel10282417113D

 41 45  0  0  0  0  0  0  0  0999 V2000
    0.9834    3.0176   -6.5124 C   0  0  2  0  0  0  0  0  0  0  0  0
    1.0367    2.6480   -4.8369 C   0  0  0  0  0  0  0  0  0  0  0  0
   -0.4404    4.0917   -7.3271 C   0  0  2  0  0  0  0  0  0  0  0  0
    2.0567    1.7584   -4.6518 C   0  0  0  0  0  0  0  0  0  0  0  0
    2.4324    3.0728   -6.7180 C   0  0  1  0  0  0  0  0  0  0  0  0
    2.8781    1.7806   -5.8244 O   0  0  0  0  0  0  0  0  0  0  0  0
   -1.7146    4.2738   -5.9976 C   0  0  1  0  0  0  0  0  0  0  0  0
   -0.0842    2.8829   -3.8657 C   0  0  0  0  0  0  0  0  0  0  0  0
    0.1787    4.9287   -8.3648 C   0  0  0  0  0  0  0  0  0  0  0  0
   -1.5476    3.6248   -4.3629 C   0  0  0  0  0  0  0  0  0  0  0  0
   -0.4089    4.2778   -5.6242 N   0  0  0  0  0  0  0  0  0  0  0  0
    0.3849    1.8029   -7.0626 C   0  0  0  0  0  0  0  0  0  0  0  0
    1.2691    4.0521   -9.0292 C   0  0  0  0  0  0  0  0  0  0  0  0
    2.4247    3.1230   -8.2820 C   0  0  0  0  0  0  0  0  0  0  0  0
    1.9257    1.0026   -3.4469 C   0  0  0  0  0  0  0  0  0  0  0  0
   -0.7625    2.3835   -6.2782 C   0  0  0  0  0  0  0  0  0  0  0  0
   -0.0746    2.2730   -2.6396 C   0  0  0  0  0  0  0  0  0  0  0  0
    0.9101    1.3056   -2.4459 C   0  0  0  0  0  0  0  0  0  0  0  0
    2.6732   -0.0863   -3.0634 O   0  0  0  0  0  0  0  0  0  0  0  0
   -0.0185    5.8652   -5.8259 C   0  0  0  0  0  0  0  0  0  0  0  0
    3.0349    3.8865   -6.2915 H   0  0  0  0  0  0  0  0  0  0  0  0
   -1.1016    3.5420   -8.0319 H   0  0  0  0  0  0  0  0  0  0  0  0
   -2.3091    5.1686   -6.0387 H   0  0  0  0  0  0  0  0  0  0  0  0
   -0.4423    5.4045   -9.1404 H   0  0  0  0  0  0  0  0  0  0  0  0
    0.3675    5.8670   -7.9264 H   0  0  0  0  0  0  0  0  0  0  0  0
   -1.7752    4.3779   -3.6008 H   0  0  0  0  0  0  0  0  0  0  0  0
   -2.2573    2.7951   -4.3065 H   0  0  0  0  0  0  0  0  0  0  0  0
    0.2583    1.8052   -8.1560 H   0  0  0  0  0  0  0  0  0  0  0  0
    0.9354    0.8771   -6.8272 H   0  0  0  0  0  0  0  0  0  0  0  0
    1.7348    4.7050   -9.7619 H   0  0  0  0  0  0  0  0  0  0  0  0
    0.6761    3.3327   -9.6199 H   0  0  0  0  0  0  0  0  0  0  0  0
    3.3583    3.3507   -8.8007 H   0  0  0  0  0  0  0  0  0  0  0  0
    2.3180    2.0668   -8.5614 H   0  0  0  0  0  0  0  0  0  0  0  0
   -1.6420    2.3088   -6.9348 H   0  0  0  0  0  0  0  0  0  0  0  0
   -1.0639    1.6865   -5.5128 H   0  0  0  0  0  0  0  0  0  0  0  0
   -0.8559    2.4890   -1.9176 H   0  0  0  0  0  0  0  0  0  0  0  0
    0.8605    0.7544   -1.5018 H   0  0  0  0  0  0  0  0  0  0  0  0
    2.7828   -0.6771   -3.8235 H   0  0  0  0  0  0  0  0  0  0  0  0
   -0.8971    6.4772   -6.1492 H   0  0  0  0  0  0  0  0  0  0  0  0
    0.3116    6.3927   -4.9097 H   0  0  0  0  0  0  0  0  0  0  0  0
    0.8533    6.2032   -6.4262 H   0  0  0  0  0  0  0  0  0  0  0  0
  1  2  1  6  0  0  0
  1 12  1  0  0  0  0
  3  1  1  0  0  0  0
  3 22  1  1  0  0  0
  4  2  2  0  0  0  0
  4  6  1  0  0  0  0
  5  1  1  0  0  0  0
  5 21  1  1  0  0  0
  6  5  1  0  0  0  0
  7  3  1  0  0  0  0
  7 11  1  0  0  0  0
  7 23  1  1  0  0  0
  8  2  1  0  0  0  0
  8 10  1  0  0  0  0
  9  3  1  0  0  0  0
  9 13  1  0  0  0  0
  9 24  1  0  0  0  0
  9 25  1  0  0  0  0
 10  7  1  0  0  0  0
 10 26  1  0  0  0  0
 10 27  1  0  0  0  0
 11 16  1  0  0  0  0
 12 28  1  0  0  0  0
 12 29  1  0  0  0  0
 13 14  1  0  0  0  0
 13 30  1  0  0  0  0
 13 31  1  0  0  0  0
 14  5  1  0  0  0  0
 14 32  1  0  0  0  0
 14 33  1  0  0  0  0
 15  4  1  0  0  0  0
 16 12  1  0  0  0  0
 16 34  1  0  0  0  0
 16 35  1  0  0  0  0
 17  8  2  0  0  0  0
 17 36  1  0  0  0  0
 18 17  1  0  0  0  0
 18 15  2  0  0  0  0
 18 37  1  0  0  0  0
 19 38  1  0  0  0  0
 19 15  1  0  0  0  0
 20 39  1  0  0  0  0
 20 40  1  0  0  0  0
 20 41  1  0  0  0  0
 20 11  1  0  0  0  0
M  END
>  <DRUGBANK_ID>
DB01531

>  <COMMON_NAME>
Desomorphine

>  <CAS_NUMBER>
427-00-9

>  <UNII>
7OP86J5E33

>  <SYNONYMS>
4,5-epoxy-3-hydroxy-n-methylmorphinan; 6-deoxy-7,8-dihydromorphine; Deoxydihydromorphine D; Desomorphine; Dihydrodeoxymorphine; Dihydrodesoxymorphine D

$$$$
