
 OpenBabel10282417123D

 12 11  0  0  0  0  0  0  0  0999 V2000
    0.7817   -0.0382    0.0104 O   0  0  0  0  0  0  0  0  0  0  0  0
    0.2399    1.1343    0.3865 C   0  0  0  0  0  0  0  0  0  0  0  0
    0.9440    2.1061    0.5802 O   0  0  0  0  0  0  0  0  0  0  0  0
   -1.3047    1.1093    0.3839 C   0  0  0  0  0  0  0  0  0  0  0  0
   -1.8910    0.1195   -0.0558 O   0  0  0  0  0  0  0  0  0  0  0  0
   -2.0122    2.3759    0.7462 C   0  0  0  0  0  0  0  0  0  0  0  0
   -1.6465    2.7807    2.1509 C   0  0  0  0  0  0  0  0  0  0  0  0
   -1.2039    3.9552    2.2739 O   0  5  0  0  0  0  0  0  0  0  0  0
   -1.8654    1.9099    3.0372 O   0  0  0  0  0  0  0  0  0  0  0  0
    1.7434    0.1311    0.0305 H   0  0  0  0  0  0  0  0  0  0  0  0
   -1.7628    3.1503    0.0142 H   0  0  0  0  0  0  0  0  0  0  0  0
   -3.0935    2.2055    0.6990 H   0  0  0  0  0  0  0  0  0  0  0  0
  1  2  1  0  0  0  0
  1 10  1  0  0  0  0
  2  3  2  0  0  0  0
  2  4  1  0  0  0  0
  4  5  2  0  0  0  0
  4  6  1  0  0  0  0
  6  7  1  0  0  0  0
  6 11  1  0  0  0  0
  6 12  1  0  0  0  0
  7  8  1  0  0  0  0
  7  9  2  0  0  0  0
M  CHG  1   8  -1
M  END
>  <DRUGBANK_ID>
DB02637

>  <SECONDARY_ACCESSION_NUMBERS>
EXPT02406

>  <COMMON_NAME>
Oxaloacetate Ion

$$$$
