
 OpenBabel10282417133D

 60 62  0  0  1  0  0  0  0  0999 V2000
    0.9920   -0.0979   -0.0190 P   0  0  1  0  0  0  0  0  0  0  0  0
   -0.0828    0.7848   -0.5547 P   0  0  2  0  0  0  0  0  0  0  0  0
    1.9613    2.4332    2.0033 O   0  0  0  0  0  0  0  0  0  0  0  0
    2.8367   -2.8489   -1.1010 O   0  0  0  0  0  0  0  0  0  0  0  0
   -0.1473    4.8768    2.2937 O   0  0  0  0  0  0  0  0  0  0  0  0
    2.1186    5.8211    3.2787 O   0  0  0  0  0  0  0  0  0  0  0  0
    1.0532   -1.7457    0.2771 O   0  0  0  0  0  0  0  0  0  0  0  0
    5.7299   -0.0832    0.7732 O   0  0  0  0  0  0  0  0  0  0  0  0
    5.2167   -1.2249   -1.9153 O   0  0  0  0  0  0  0  0  0  0  0  0
    0.4641    2.2752   -1.0893 O   0  0  0  0  0  0  0  0  0  0  0  0
    3.3689   -1.6121    2.4341 O   0  0  0  0  0  0  0  0  0  0  0  0
    0.9920    0.1187   -1.7354 O   0  0  0  0  0  0  0  0  0  0  0  0
    1.0601   -2.1405   -3.5737 O   0  0  0  0  0  0  0  0  0  0  0  0
    4.4848    3.3073    1.0389 O   0  0  0  0  0  0  0  0  0  0  0  0
   -0.7380   -0.0979   -0.0190 O   0  0  0  0  0  0  0  0  0  0  0  0
   -1.2051    0.6882   -1.9160 O   0  0  0  0  0  0  0  0  0  0  0  0
    2.5404   -0.0979   -0.0190 O   0  0  0  0  0  0  0  0  0  0  0  0
   -1.0448    1.3809    0.5020 O   0  0  0  0  0  0  0  0  0  0  0  0
    7.5068    1.6921    3.9334 O   0  0  0  0  0  0  0  0  0  0  0  0
    3.8447    3.0872    3.2556 N   0  0  0  0  0  0  0  0  0  0  0  0
    6.0530    2.7878    2.5696 N   0  0  0  0  0  0  0  0  0  0  0  0
    1.0088    4.6012    1.4837 C   0  0  1  0  0  0  0  0  0  0  0  0
    2.2625    4.7957    2.3021 C   0  0  2  0  0  0  0  0  0  0  0  0
    1.0828    3.1362    1.1021 C   0  0  1  0  0  0  0  0  0  0  0  0
    2.4669    3.4106    2.9365 C   0  0  1  0  0  0  0  0  0  0  0  0
    4.4308   -0.5169    0.3988 C   0  0  1  0  0  0  0  0  0  0  0  0
    4.0711   -0.6224   -1.3569 C   0  0  2  0  0  0  0  0  0  0  0  0
    3.7308   -1.8106    1.0535 C   0  0  2  0  0  0  0  0  0  0  0  0
    2.8251   -1.6388   -1.8692 C   0  0  1  0  0  0  0  0  0  0  0  0
    2.4238   -2.4495    0.2646 C   0  0  2  0  0  0  0  0  0  0  0  0
    1.4947    2.9214   -0.3609 C   0  0  0  0  0  0  0  0  0  0  0  0
    2.3832   -1.5603   -3.3669 C   0  0  0  0  0  0  0  0  0  0  0  0
    4.7699    3.0754    2.2201 C   0  0  0  0  0  0  0  0  0  0  0  0
    4.2085    2.7540    4.5491 C   0  0  0  0  0  0  0  0  0  0  0  0
    5.4199    2.2777    4.8301 C   0  0  0  0  0  0  0  0  0  0  0  0
    6.4325    2.2027    3.7532 C   0  0  0  0  0  0  0  0  0  0  0  0
   -0.2760    4.1698    2.9486 H   0  0  0  0  0  0  0  0  0  0  0  0
    1.2070    5.7571    3.6236 H   0  0  0  0  0  0  0  0  0  0  0  0
    6.2218    0.0286   -0.0514 H   0  0  0  0  0  0  0  0  0  0  0  0
    5.0628   -2.1574   -1.6699 H   0  0  0  0  0  0  0  0  0  0  0  0
    2.6607   -0.9471    2.4689 H   0  0  0  0  0  0  0  0  0  0  0  0
    1.0685   -3.0395   -3.2052 H   0  0  0  0  0  0  0  0  0  0  0  0
   -1.2304   -0.9641   -0.1928 H   0  0  0  0  0  0  0  0  0  0  0  0
   -1.1394   -0.2163   -2.2883 H   0  0  0  0  0  0  0  0  0  0  0  0
    6.7136    2.7255    1.8142 H   0  0  0  0  0  0  0  0  0  0  0  0
    0.9423    5.2531    0.6091 H   0  0  0  0  0  0  0  0  0  0  0  0
    3.0769    5.0682    1.6295 H   0  0  0  0  0  0  0  0  0  0  0  0
    0.1207    2.7285    1.3519 H   0  0  0  0  0  0  0  0  0  0  0  0
    1.8554    3.3238    3.8462 H   0  0  0  0  0  0  0  0  0  0  0  0
    3.9522    0.3315    0.9734 H   0  0  0  0  0  0  0  0  0  0  0  0
    3.9046    0.3966   -1.7745 H   0  0  0  0  0  0  0  0  0  0  0  0
    4.5241   -2.5569    1.0166 H   0  0  0  0  0  0  0  0  0  0  0  0
    1.8212   -1.4733   -1.5901 H   0  0  0  0  0  0  0  0  0  0  0  0
    2.1918   -3.3795    0.7939 H   0  0  0  0  0  0  0  0  0  0  0  0
    2.3994    2.3233   -0.4786 H   0  0  0  0  0  0  0  0  0  0  0  0
    1.6695    3.8655   -0.8810 H   0  0  0  0  0  0  0  0  0  0  0  0
    2.2378   -0.5087   -3.6682 H   0  0  0  0  0  0  0  0  0  0  0  0
    3.0770   -2.0398   -4.0391 H   0  0  0  0  0  0  0  0  0  0  0  0
    3.4632    2.8656    5.3339 H   0  0  0  0  0  0  0  0  0  0  0  0
    5.7246    1.9364    5.8108 H   0  0  0  0  0  0  0  0  0  0  0  0
  1 15  1  0  0  0  0
  1 17  2  1  0  0  0
  1 12  1  0  0  0  0
  1  7  1  0  0  0  0
  2 10  1  0  0  0  0
  2 12  1  0  0  0  0
  2 16  1  0  0  0  0
  2 18  2  1  0  0  0
  3 24  1  0  0  0  0
  3 25  1  0  0  0  0
  4 29  1  0  0  0  0
  4 30  1  0  0  0  0
  5 37  1  0  0  0  0
  6 38  1  0  0  0  0
  8 39  1  0  0  0  0
  9 40  1  0  0  0  0
 10 31  1  0  0  0  0
 11 41  1  0  0  0  0
 13 32  1  0  0  0  0
 13 42  1  0  0  0  0
 14 33  2  0  0  0  0
 15 43  1  0  0  0  0
 16 44  1  0  0  0  0
 19 36  2  0  0  0  0
 20 33  1  0  0  0  0
 20 34  1  0  0  0  0
 21 33  1  0  0  0  0
 21 36  1  0  0  0  0
 21 45  1  0  0  0  0
 22  5  1  0  0  0  0
 22 23  1  0  0  0  0
 22 24  1  0  0  0  0
 22 46  1  6  0  0  0
 23  6  1  0  0  0  0
 23 25  1  0  0  0  0
 23 47  1  6  0  0  0
 24 31  1  0  0  0  0
 24 48  1  1  0  0  0
 25 49  1  1  0  0  0
 25 20  1  0  0  0  0
 26  8  1  0  0  0  0
 26 27  1  0  0  0  0
 26 28  1  0  0  0  0
 26 50  1  1  0  0  0
 27  9  1  0  0  0  0
 27 29  1  0  0  0  0
 27 51  1  6  0  0  0
 28 11  1  0  0  0  0
 28 30  1  0  0  0  0
 28 52  1  1  0  0  0
 29 32  1  0  0  0  0
 29 53  1  1  0  0  0
 30  7  1  0  0  0  0
 30 54  1  1  0  0  0
 31 55  1  0  0  0  0
 31 56  1  0  0  0  0
 32 57  1  0  0  0  0
 32 58  1  0  0  0  0
 34 35  2  0  0  0  0
 34 59  1  0  0  0  0
 35 36  1  0  0  0  0
 35 60  1  0  0  0  0
M  END
>  <DRUGBANK_ID>
DB03501

>  <SECONDARY_ACCESSION_NUMBERS>
EXPT01576

>  <COMMON_NAME>
Galactose-uridine-5'-diphosphate

>  <CAS_NUMBER>
2956-16-3

>  <UNII>
O2HY4WY2W1

>  <SYNONYMS>
UDP galactose; UDP-alpha-D-galactose; UDP-D-galactopyranose; UDP-galactose; UDP-α-D-galactopyranose; UDP-α-D-galactose; UDPgal; Uridine diphosphate galactose; Uridine diphosphategalactose; Uridine diphosphogalactose; Uridine pyrophosphogalactose; Uridinediphosphogalactose

$$$$
