
 OpenBabel10282417143D

  6  5  0  0  0  0  0  0  0  0999 V2000
    0.9338   -0.0639    0.0391 O   0  0  0  0  0  0  0  0  0  0  0  0
    0.2005    0.9099    1.8704 Mo  0  0  0  0  0  0  0  0  0  0  0  0
    1.6301    1.6949    3.3469 O   0  0  0  0  0  0  0  0  0  0  0  0
   -1.7354    1.0788    2.1881 O   0  0  0  0  0  0  0  0  0  0  0  0
    1.9338   -0.0639    0.0391 H   0  0  0  0  0  0  0  0  0  0  0  0
    2.5633    1.5262    3.0296 H   0  0  0  0  0  0  0  0  0  0  0  0
  1  2  1  0  0  0  0
  1  5  1  0  0  0  0
  2  3  1  0  0  0  0
  2  4  2  0  0  0  0
  3  6  1  0  0  0  0
M  CHG  1   2   6
M  END
>  <DRUGBANK_ID>
DB04494

>  <SECONDARY_ACCESSION_NUMBERS>
EXPT02435

>  <COMMON_NAME>
Dihydroxy(oxo)molybdenum(6+)

$$$$
