
 OpenBabel10282417113D

 33 33  0  0  0  0  0  0  0  0999 V2000
   -0.0609    0.9432   -0.1833 C   0  0  2  0  0  0  0  0  0  0  0  0
    0.7254   -0.2520   -0.3326 O   0  0  0  0  0  0  0  0  0  0  0  0
   -0.6908   -0.4194   -0.1444 C   0  0  2  0  0  0  0  0  0  0  0  0
   -0.0517    1.8251   -1.3697 C   0  0  0  0  0  0  0  0  0  0  0  0
   -1.4511   -0.9834   -1.2917 C   0  0  0  0  0  0  0  0  0  0  0  0
    0.0002    3.0364   -1.2385 O   0  0  0  0  0  0  0  0  0  0  0  0
   -0.8535   -1.4340   -2.2673 O   0  0  0  0  0  0  0  0  0  0  0  0
   -4.1241    1.2804    3.5385 C   0  0  0  0  0  0  0  0  0  0  0  0
   -4.2247   -0.6701    2.0507 C   0  0  0  0  0  0  0  0  0  0  0  0
   -4.9342    1.7062    4.5166 C   0  0  0  0  0  0  0  0  0  0  0  0
   -0.1205    1.2315   -2.5960 N   0  0  0  0  0  0  0  0  0  0  0  0
   -3.3792   -1.2623    1.2017 C   0  0  0  0  0  0  0  0  0  0  0  0
   -3.7400   -0.1553    3.3766 C   0  0  0  0  0  0  0  0  0  0  0  0
   -2.9621   -0.8516   -1.2743 C   0  0  0  0  0  0  0  0  0  0  0  0
   -3.6569   -1.6960   -0.2036 C   0  0  0  0  0  0  0  0  0  0  0  0
   -5.3611    3.1245    4.6681 C   0  0  0  0  0  0  0  0  0  0  0  0
   -0.9152   -0.8291    0.8176 H   0  0  0  0  0  0  0  0  0  0  0  0
   -0.0244    1.4696    0.7669 H   0  0  0  0  0  0  0  0  0  0  0  0
   -3.7272    1.9882    2.8118 H   0  0  0  0  0  0  0  0  0  0  0  0
   -5.2685   -0.5230    1.7870 H   0  0  0  0  0  0  0  0  0  0  0  0
   -5.3236    0.9932    5.2399 H   0  0  0  0  0  0  0  0  0  0  0  0
   -0.0640    0.2219   -2.7244 H   0  0  0  0  0  0  0  0  0  0  0  0
   -0.1157    1.8112   -3.4202 H   0  0  0  0  0  0  0  0  0  0  0  0
   -2.4045   -1.4819    1.6138 H   0  0  0  0  0  0  0  0  0  0  0  0
   -4.1461   -0.7801    4.1778 H   0  0  0  0  0  0  0  0  0  0  0  0
   -2.6452   -0.2120    3.4537 H   0  0  0  0  0  0  0  0  0  0  0  0
   -3.2328    0.2087   -1.2084 H   0  0  0  0  0  0  0  0  0  0  0  0
   -3.3184   -1.1948   -2.2574 H   0  0  0  0  0  0  0  0  0  0  0  0
   -4.7367   -1.6620   -0.3864 H   0  0  0  0  0  0  0  0  0  0  0  0
   -3.3428   -2.7403   -0.3040 H   0  0  0  0  0  0  0  0  0  0  0  0
   -6.4509    3.1871    4.6012 H   0  0  0  0  0  0  0  0  0  0  0  0
   -5.0448    3.5042    5.6430 H   0  0  0  0  0  0  0  0  0  0  0  0
   -4.9329    3.7655    3.8912 H   0  0  0  0  0  0  0  0  0  0  0  0
  1 18  1  1  0  0  0
  1  4  1  0  0  0  0
  2  1  1  0  0  0  0
  3  1  1  0  0  0  0
  3  2  1  0  0  0  0
  3 17  1  1  0  0  0
  3  5  1  0  0  0  0
  6  4  2  0  0  0  0
  7  5  2  0  0  0  0
  8 13  1  0  0  0  0
  8 19  1  0  0  0  0
  9 12  2  0  0  0  0
  9 20  1  0  0  0  0
 10  8  2  0  0  0  0
 10 21  1  0  0  0  0
 11  4  1  0  0  0  0
 11 22  1  0  0  0  0
 11 23  1  0  0  0  0
 12 15  1  0  0  0  0
 12 24  1  0  0  0  0
 13  9  1  0  0  0  0
 13 25  1  0  0  0  0
 13 26  1  0  0  0  0
 14  5  1  0  0  0  0
 14 27  1  0  0  0  0
 14 28  1  0  0  0  0
 15 14  1  0  0  0  0
 15 29  1  0  0  0  0
 15 30  1  0  0  0  0
 16 10  1  0  0  0  0
 16 31  1  0  0  0  0
 16 32  1  0  0  0  0
 16 33  1  0  0  0  0
M  END
>  <DRUGBANK_ID>
DB01034

>  <SECONDARY_ACCESSION_NUMBERS>
APRD00703

>  <COMMON_NAME>
Cerulenin

>  <CAS_NUMBER>
17397-89-6

>  <UNII>
MF286Y830Q

>  <SYNONYMS>
(2R,3S)-3-((4E,7E)-Nona-4,7-dienoyl)-oxirane-2-carboxylic acid amide; (2R,3S)-3-((4E,7E)-nona-4,7-dienoyl)oxirane-2-carboxamide; Cerulenin

$$$$
