
 OpenBabel10282417143D

 15 14  0  0  0  0  0  0  0  0999 V2000
    1.1914    0.0182    0.0498 C   0  0  0  0  0  0  0  0  0  0  0  0
    0.1873   -0.8839   -0.5795 C   0  0  0  0  0  0  0  0  0  0  0  0
    0.7815    1.0601    0.7766 O   0  0  0  0  0  0  0  0  0  0  0  0
    2.3854   -0.2055   -0.1063 O   0  0  0  0  0  0  0  0  0  0  0  0
   -1.1656   -0.9635   -0.6350 C   0  0  0  0  0  0  0  0  0  0  0  0
   -2.0338    0.0243    0.0541 C   0  0  0  0  0  0  0  0  0  0  0  0
   -3.3621   -0.1068   -0.0374 O   0  0  0  0  0  0  0  0  0  0  0  0
   -1.5786    0.9569    0.7046 O   0  0  0  0  0  0  0  0  0  0  0  0
   -1.7821   -2.0944   -1.4239 C   0  0  0  0  0  0  0  0  0  0  0  0
    0.7481   -1.6563   -1.1183 H   0  0  0  0  0  0  0  0  0  0  0  0
   -0.1918    1.1820    0.8617 H   0  0  0  0  0  0  0  0  0  0  0  0
   -3.7681   -0.8277   -0.5403 H   0  0  0  0  0  0  0  0  0  0  0  0
   -1.4847   -2.0495   -2.4778 H   0  0  0  0  0  0  0  0  0  0  0  0
   -1.4847   -3.0680   -1.0178 H   0  0  0  0  0  0  0  0  0  0  0  0
   -2.8706   -2.0940   -1.4236 H   0  0  0  0  0  0  0  0  0  0  0  0
  1  2  1  0  0  0  0
  1  3  1  0  0  0  0
  1  4  2  0  0  0  0
  2  5  2  0  0  0  0
  2 10  1  0  0  0  0
  3 11  1  0  0  0  0
  5  6  1  0  0  0  0
  5  9  1  0  0  0  0
  6  7  1  0  0  0  0
  6  8  2  0  0  0  0
  7 12  1  0  0  0  0
  9 13  1  0  0  0  0
  9 14  1  0  0  0  0
  9 15  1  0  0  0  0
M  END
>  <DRUGBANK_ID>
DB04734

>  <COMMON_NAME>
Citraconic acid

>  <CAS_NUMBER>
498-23-7

>  <UNII>
0RQ6CXO9KD

>  <SYNONYMS>
(Z)-2-Methyl-2-butenedioic acid; 2-Methyl-2-butenedioic acid; 2-methylmaleic acid; cis-2-methylbutenedioic acid; cis-Methylbutenedioic acid; citraconate; Citraconsäure; Methyl-maleinsäure; Methylmaleic acid; α-methylmaleic acid

$$$$
