
 OpenBabel10282417213D

 38 38  0  0  0  0  0  0  0  0999 V2000
    1.3753   -0.2021    0.1347 C   0  0  0  0  0  0  0  0  0  0  0  0
   -0.8536   -1.1353    0.0458 C   0  0  0  0  0  0  0  0  0  0  0  0
    0.5529   -1.3216    0.0637 C   0  0  0  0  0  0  0  0  0  0  0  0
   -1.4780    0.1315    0.0067 C   0  0  0  0  0  0  0  0  0  0  0  0
    0.7441    1.0672    0.1791 C   0  0  0  0  0  0  0  0  0  0  0  0
   -0.6502    1.2520    0.1321 C   0  0  0  0  0  0  0  0  0  0  0  0
    2.8858   -0.1808    0.2455 C   0  0  0  0  0  0  0  0  0  0  0  0
   -3.2406    0.3294   -0.2973 S   0  0  0  0  0  0  0  0  0  0  0  0
    0.8722   -2.6552   -0.0011 O   0  0  0  0  0  0  0  0  0  0  0  0
   -0.9770    2.5868    0.2169 O   0  0  0  0  0  0  0  0  0  0  0  0
    3.5174    1.6688   -1.2853 N   0  0  0  0  0  0  0  0  0  0  0  0
    3.6430    0.2312   -1.0334 C   0  0  3  0  0  0  0  0  0  0  0  0
   -3.9952   -1.2953   -0.4053 C   0  0  0  0  0  0  0  0  0  0  0  0
   -2.3055    2.9599    0.5570 C   0  0  0  0  0  0  0  0  0  0  0  0
    2.2205   -3.0837   -0.0588 C   0  0  0  0  0  0  0  0  0  0  0  0
    5.1233   -0.1225   -0.8719 C   0  0  0  0  0  0  0  0  0  0  0  0
   -3.5777   -1.9879   -1.6832 C   0  0  0  0  0  0  0  0  0  0  0  0
   -1.4525   -2.0377    0.0594 H   0  0  0  0  0  0  0  0  0  0  0  0
    1.3590    1.9616    0.2674 H   0  0  0  0  0  0  0  0  0  0  0  0
    3.1615    0.4655    1.0891 H   0  0  0  0  0  0  0  0  0  0  0  0
    3.2824   -1.1351    0.5695 H   0  0  0  0  0  0  0  0  0  0  0  0
    4.0622    1.9343   -2.1027 H   0  0  0  0  0  0  0  0  0  0  0  0
    2.5467    1.8701   -1.5312 H   0  0  0  0  0  0  0  0  0  0  0  0
    3.2501   -0.3123   -1.9017 H   0  0  0  0  0  0  0  0  0  0  0  0
   -3.8001   -1.8729    0.5012 H   0  0  0  0  0  0  0  0  0  0  0  0
   -5.0758   -1.1112   -0.4450 H   0  0  0  0  0  0  0  0  0  0  0  0
   -2.9402    2.9150   -0.3333 H   0  0  0  0  0  0  0  0  0  0  0  0
   -2.6977    2.3727    1.3959 H   0  0  0  0  0  0  0  0  0  0  0  0
   -2.3186    4.0048    0.8750 H   0  0  0  0  0  0  0  0  0  0  0  0
    2.7560   -2.6225   -0.8953 H   0  0  0  0  0  0  0  0  0  0  0  0
    2.7079   -2.9255    0.9077 H   0  0  0  0  0  0  0  0  0  0  0  0
    2.2473   -4.1641   -0.2275 H   0  0  0  0  0  0  0  0  0  0  0  0
    5.2505   -1.2091   -0.7976 H   0  0  0  0  0  0  0  0  0  0  0  0
    5.7157    0.2199   -1.7262 H   0  0  0  0  0  0  0  0  0  0  0  0
    5.5410    0.3228    0.0384 H   0  0  0  0  0  0  0  0  0  0  0  0
   -2.5119   -2.2181   -1.7105 H   0  0  0  0  0  0  0  0  0  0  0  0
   -4.1163   -2.9320   -1.7805 H   0  0  0  0  0  0  0  0  0  0  0  0
   -3.7974   -1.3699   -2.5602 H   0  0  0  0  0  0  0  0  0  0  0  0
  2  3  1  0  0  0  0
  2  4  2  0  0  0  0
  2 18  1  0  0  0  0
  3  1  2  0  0  0  0
  4  6  1  0  0  0  0
  5  1  1  0  0  0  0
  5 19  1  0  0  0  0
  6  5  2  0  0  0  0
  7  1  1  0  0  0  0
  7 20  1  0  0  0  0
  7 21  1  0  0  0  0
  8  4  1  0  0  0  0
  9  3  1  0  0  0  0
 10  6  1  0  0  0  0
 11 12  1  0  0  0  0
 11 22  1  0  0  0  0
 11 23  1  0  0  0  0
 12  7  1  0  0  0  0
 12 24  1  0  0  0  0
 13  8  1  0  0  0  0
 13 25  1  0  0  0  0
 13 26  1  0  0  0  0
 14 10  1  0  0  0  0
 14 27  1  0  0  0  0
 14 28  1  0  0  0  0
 14 29  1  0  0  0  0
 15  9  1  0  0  0  0
 15 30  1  0  0  0  0
 15 31  1  0  0  0  0
 15 32  1  0  0  0  0
 16 12  1  0  0  0  0
 16 33  1  0  0  0  0
 16 34  1  0  0  0  0
 16 35  1  0  0  0  0
 17 13  1  0  0  0  0
 17 36  1  0  0  0  0
 17 37  1  0  0  0  0
 17 38  1  0  0  0  0
M  END
>  <DRUGBANK_ID>
DB13940

>  <COMMON_NAME>
2,5-Dimethoxy-4-ethylthioamphetamine

>  <CAS_NUMBER>
185562-00-9

>  <UNII>
Z1I419DRZZ

>  <SYNONYMS>
2,5-Dimethoxy-4-ethylthioamphetamine; 4-(Ethylthio)-2,5-dimethoxy-alpha-methylbenzeneethanamine; ALEPH-2

$$$$
