
 OpenBabel10282417243D

 39 40  0  0  1  0  0  0  0  0999 V2000
    1.3371    2.2955   -0.5456 C   0  0  0  0  0  0  0  0  0  0  0  0
    0.5678    1.3211    0.3730 C   0  0  2  0  0  0  0  0  0  0  0  0
    1.0446   -0.0162    0.0774 O   0  0  0  0  0  0  0  0  0  0  0  0
    0.3161   -1.1003    0.4936 C   0  0  0  0  0  0  0  0  0  0  0  0
   -0.7560   -1.0381    1.3773 C   0  0  0  0  0  0  0  0  0  0  0  0
   -1.8062   -1.9541    1.2955 C   0  0  0  0  0  0  0  0  0  0  0  0
   -1.5706   -3.1536    0.6426 C   0  0  0  0  0  0  0  0  0  0  0  0
   -0.3692   -3.3507   -0.0555 C   0  0  0  0  0  0  0  0  0  0  0  0
    0.5776   -2.3118   -0.1306 C   0  0  0  0  0  0  0  0  0  0  0  0
   -0.1714   -4.6274   -0.8224 C   0  0  0  0  0  0  0  0  0  0  0  0
   -0.0337   -4.4051   -2.1565 F   0  0  0  0  0  0  0  0  0  0  0  0
    0.9276   -5.3163   -0.4240 F   0  0  0  0  0  0  0  0  0  0  0  0
   -1.2241   -5.4838   -0.6954 F   0  0  0  0  0  0  0  0  0  0  0  0
   -3.1796   -1.6016    1.8122 C   0  0  0  0  0  0  0  0  0  0  0  0
   -4.1668   -1.8676    0.9082 F   0  0  0  0  0  0  0  0  0  0  0  0
   -3.4989   -2.2783    2.9407 F   0  0  0  0  0  0  0  0  0  0  0  0
   -3.3168   -0.2741    2.1021 F   0  0  0  0  0  0  0  0  0  0  0  0
   -0.9906    1.5397    0.2278 C   0  0  0  0  0  0  0  0  0  0  0  0
   -1.4988    1.7445   -1.1919 C   0  0  0  0  0  0  0  0  0  0  0  0
   -1.2076    3.1503   -1.6247 C   0  0  0  0  0  0  0  0  0  0  0  0
   -0.6941    3.3884   -2.7108 O   0  0  0  0  0  0  0  0  0  0  0  0
   -1.6008    4.2287   -0.6420 C   0  0  0  0  0  0  0  0  0  0  0  0
   -1.1010    3.9175    0.7513 C   0  0  0  0  0  0  0  0  0  0  0  0
   -0.4182    4.6735    1.4144 O   0  0  0  0  0  0  0  0  0  0  0  0
   -1.4859    2.5599    1.2536 C   0  0  0  0  0  0  0  0  0  0  0  0
    1.2632    1.9741   -1.5908 H   0  0  0  0  0  0  0  0  0  0  0  0
    2.4003    2.3753   -0.3132 H   0  0  0  0  0  0  0  0  0  0  0  0
    0.9607    3.3172   -0.4678 H   0  0  0  0  0  0  0  0  0  0  0  0
    0.8905    1.5330    1.4012 H   0  0  0  0  0  0  0  0  0  0  0  0
   -0.8958   -0.1678    2.0115 H   0  0  0  0  0  0  0  0  0  0  0  0
   -2.3300   -3.9349    0.6716 H   0  0  0  0  0  0  0  0  0  0  0  0
    1.4973   -2.4393   -0.7007 H   0  0  0  0  0  0  0  0  0  0  0  0
   -1.5844    0.6744    0.4593 H   0  0  0  0  0  0  0  0  0  0  0  0
   -1.0557    0.9995   -1.8627 H   0  0  0  0  0  0  0  0  0  0  0  0
   -2.5864    1.6017   -1.2196 H   0  0  0  0  0  0  0  0  0  0  0  0
   -1.1864    5.1830   -0.9636 H   0  0  0  0  0  0  0  0  0  0  0  0
   -2.6914    4.2696   -0.6081 H   0  0  0  0  0  0  0  0  0  0  0  0
   -2.5751    2.5151    1.3600 H   0  0  0  0  0  0  0  0  0  0  0  0
   -1.0617    2.3748    2.2495 H   0  0  0  0  0  0  0  0  0  0  0  0
  1 26  1  0  0  0  0
  1 27  1  0  0  0  0
  1 28  1  0  0  0  0
  2 18  1  0  0  0  0
  2 29  1  1  0  0  0
  2  3  1  0  0  0  0
  2  1  1  0  0  0  0
  3  4  1  0  0  0  0
  4  5  2  0  0  0  0
  4  9  1  0  0  0  0
  5  6  1  0  0  0  0
  5 30  1  0  0  0  0
  6  7  2  0  0  0  0
  6 14  1  0  0  0  0
  7  8  1  0  0  0  0
  7 31  1  0  0  0  0
  8  9  2  0  0  0  0
  8 10  1  0  0  0  0
  9 32  1  0  0  0  0
 10 11  1  0  0  0  0
 10 12  1  0  0  0  0
 10 13  1  0  0  0  0
 14 15  1  0  0  0  0
 14 16  1  0  0  0  0
 14 17  1  0  0  0  0
 18 19  1  0  0  0  0
 18 25  1  0  0  0  0
 18 33  1  0  0  0  0
 19 20  1  0  0  0  0
 19 34  1  0  0  0  0
 19 35  1  0  0  0  0
 20 21  2  0  0  0  0
 20 22  1  0  0  0  0
 22 23  1  0  0  0  0
 22 36  1  0  0  0  0
 22 37  1  0  0  0  0
 23 24  2  0  0  0  0
 23 25  1  0  0  0  0
 25 38  1  0  0  0  0
 25 39  1  0  0  0  0
M  END
>  <DRUGBANK_ID>
DB18061

>  <COMMON_NAME>
AKV-9

>  <CAS_NUMBER>
1307262-15-2

>  <UNII>
SSZ5C8U4KQ

>  <SYNONYMS>
1,3-Cyclohexanedione, 5-[(1S)-1-[3,5-bis(trifluoromethyl)phenoxy]ethyl]-; 5-((S)-1-(3,5-bis(trifluoromethyl)phenoxy)ethyl)-3-hydroxycyclohex-2-en-1-one; 5-[(1S)-1-[3,5-Bis(trifluoromethyl)phenoxy]ethyl]-1,3-cyclohexanedione

$$$$
