
 OpenBabel10282417143D

 78 81  0  0  1  0  0  0  0  0999 V2000
    1.3347   -2.8481   -0.2814 C   0  0  0  0  0  0  0  0  0  0  0  0
    0.6203   -4.1048   -0.4412 N   0  0  0  0  0  0  0  0  0  0  0  0
   -0.8264   -3.9326   -0.7350 C   0  0  1  0  0  0  0  0  0  0  0  0
   -1.3939   -5.1280   -1.5001 C   0  0  1  0  0  0  0  0  0  0  0  0
   -1.0025   -6.3570   -0.8897 O   0  0  0  0  0  0  0  0  0  0  0  0
   -2.9307   -4.9603   -1.6579 C   0  0  1  0  0  0  0  0  0  0  0  0
   -3.4845   -6.0809   -2.3084 O   0  0  0  0  0  0  0  0  0  0  0  0
   -4.8210   -6.0259   -2.7243 C   0  0  2  0  0  0  0  0  0  0  0  0
   -4.9468   -5.1090   -3.7877 O   0  0  0  0  0  0  0  0  0  0  0  0
   -4.1350   -5.4471   -4.9644 C   0  0  2  0  0  0  0  0  0  0  0  0
   -4.6380   -6.6612   -5.8080 C   0  0  1  0  0  0  0  0  0  0  0  0
   -4.2212   -6.5718   -7.2255 N   0  0  0  0  0  0  0  0  0  0  0  0
   -4.0955   -8.0124   -5.3069 C   0  0  0  0  0  0  0  0  0  0  0  0
   -2.5619   -8.0973   -5.1776 C   0  0  1  0  0  0  0  0  0  0  0  0
   -1.8354   -8.1148   -6.4466 N   0  0  0  0  0  0  0  0  0  0  0  0
   -1.9918   -6.9749   -4.3259 C   0  0  2  0  0  0  0  0  0  0  0  0
   -2.0505   -7.5709   -3.0398 O   0  0  0  0  0  0  0  0  0  0  0  0
   -2.5882   -5.5542   -4.7431 C   0  0  1  0  0  0  0  0  0  0  0  0
   -1.9409   -5.1700   -5.9864 O   0  0  0  0  0  0  0  0  0  0  0  0
   -5.6509   -5.9096   -1.4366 C   0  0  2  0  0  0  0  0  0  0  0  0
   -7.0777   -6.0069   -1.7156 N   0  0  0  0  0  0  0  0  0  0  0  0
   -5.1574   -4.7184   -0.5969 C   0  0  0  0  0  0  0  0  0  0  0  0
   -3.6290   -4.8502   -0.3312 C   0  0  2  0  0  0  0  0  0  0  0  0
   -3.1261   -3.7329    0.3563 O   0  0  0  0  0  0  0  0  0  0  0  0
   -1.7043   -3.6947    0.5481 C   0  0  2  0  0  0  0  0  0  0  0  0
   -1.3962   -2.4445    1.1610 O   0  0  0  0  0  0  0  0  0  0  0  0
   -1.6921   -1.3281    0.3253 C   0  0  1  0  0  0  0  0  0  0  0  0
   -3.0949   -1.2281    0.1008 O   0  0  0  0  0  0  0  0  0  0  0  0
   -3.5277   -0.1338   -0.7182 C   0  0  2  0  0  0  0  0  0  0  0  0
   -3.1264   -0.2856   -2.2006 C   0  0  0  0  0  0  0  0  0  0  0  0
   -3.7259   -1.4527   -2.7576 O   0  0  0  0  0  0  0  0  0  0  0  0
   -3.0755    1.1760   -0.0467 C   0  0  1  0  0  0  0  0  0  0  0  0
   -3.8077    1.3289    1.2328 N   0  0  0  0  0  0  0  0  0  0  0  0
   -1.5384    1.1618    0.1782 C   0  0  2  0  0  0  0  0  0  0  0  0
   -0.8770    1.2576   -1.0969 O   0  0  0  0  0  0  0  0  0  0  0  0
   -1.0818   -0.0726    0.9693 C   0  0  1  0  0  0  0  0  0  0  0  0
   -1.4209    0.0376    2.3555 O   0  0  0  0  0  0  0  0  0  0  0  0
    0.9570   -2.2772    0.5675 H   0  0  0  0  0  0  0  0  0  0  0  0
    1.2717   -2.2316   -1.1845 H   0  0  0  0  0  0  0  0  0  0  0  0
    2.3923   -3.0358   -0.0742 H   0  0  0  0  0  0  0  0  0  0  0  0
    1.0641   -4.6712   -1.1683 H   0  0  0  0  0  0  0  0  0  0  0  0
   -0.9261   -3.1114   -1.4514 H   0  0  0  0  0  0  0  0  0  0  0  0
   -0.9206   -5.1418   -2.4902 H   0  0  0  0  0  0  0  0  0  0  0  0
   -1.4110   -6.4536   -0.0196 H   0  0  0  0  0  0  0  0  0  0  0  0
   -3.0923   -4.0515   -2.2481 H   0  0  0  0  0  0  0  0  0  0  0  0
   -5.1049   -6.9931   -3.1186 H   0  0  0  0  0  0  0  0  0  0  0  0
   -4.3083   -4.5592   -5.5950 H   0  0  0  0  0  0  0  0  0  0  0  0
   -5.7337   -6.6777   -5.7894 H   0  0  0  0  0  0  0  0  0  0  0  0
   -3.2292   -6.8377   -7.2760 H   0  0  0  0  0  0  0  0  0  0  0  0
   -4.2147   -5.5970   -7.5286 H   0  0  0  0  0  0  0  0  0  0  0  0
   -4.5437   -8.2746   -4.3454 H   0  0  0  0  0  0  0  0  0  0  0  0
   -4.4378   -8.8189   -5.9655 H   0  0  0  0  0  0  0  0  0  0  0  0
   -2.3649   -9.0568   -4.6778 H   0  0  0  0  0  0  0  0  0  0  0  0
   -2.3549   -8.7124   -7.0902 H   0  0  0  0  0  0  0  0  0  0  0  0
   -0.9711   -8.6365   -6.2527 H   0  0  0  0  0  0  0  0  0  0  0  0
   -0.9081   -6.8670   -4.4465 H   0  0  0  0  0  0  0  0  0  0  0  0
   -2.9309   -7.3767   -2.6553 H   0  0  0  0  0  0  0  0  0  0  0  0
   -2.2943   -4.7545   -4.0668 H   0  0  0  0  0  0  0  0  0  0  0  0
   -1.6164   -5.9972   -6.4015 H   0  0  0  0  0  0  0  0  0  0  0  0
   -5.3974   -6.8082   -0.8500 H   0  0  0  0  0  0  0  0  0  0  0  0
   -7.6346   -5.9123   -0.8721 H   0  0  0  0  0  0  0  0  0  0  0  0
   -7.3573   -5.2910   -2.3836 H   0  0  0  0  0  0  0  0  0  0  0  0
   -5.3621   -3.7837   -1.1328 H   0  0  0  0  0  0  0  0  0  0  0  0
   -5.6881   -4.6633    0.3585 H   0  0  0  0  0  0  0  0  0  0  0  0
   -3.4561   -5.7550    0.2636 H   0  0  0  0  0  0  0  0  0  0  0  0
   -1.4592   -4.4783    1.2762 H   0  0  0  0  0  0  0  0  0  0  0  0
   -1.1993   -1.4429   -0.6368 H   0  0  0  0  0  0  0  0  0  0  0  0
   -4.6239   -0.1923   -0.6972 H   0  0  0  0  0  0  0  0  0  0  0  0
   -3.4633    0.5746   -2.7852 H   0  0  0  0  0  0  0  0  0  0  0  0
   -2.0584   -0.4180   -2.3625 H   0  0  0  0  0  0  0  0  0  0  0  0
   -3.5142   -2.1739   -2.1447 H   0  0  0  0  0  0  0  0  0  0  0  0
   -3.3393    2.0201   -0.6906 H   0  0  0  0  0  0  0  0  0  0  0  0
   -3.8339    0.4242    1.7094 H   0  0  0  0  0  0  0  0  0  0  0  0
   -4.7889    1.5332    1.0473 H   0  0  0  0  0  0  0  0  0  0  0  0
   -1.2512    2.0625    0.7289 H   0  0  0  0  0  0  0  0  0  0  0  0
   -0.5049    0.4021   -1.3660 H   0  0  0  0  0  0  0  0  0  0  0  0
    0.0103   -0.1618    0.9376 H   0  0  0  0  0  0  0  0  0  0  0  0
   -2.2537   -0.4487    2.4872 H   0  0  0  0  0  0  0  0  0  0  0  0
  1  2  1  0  0  0  0
  1 38  1  0  0  0  0
  1 39  1  0  0  0  0
  1 40  1  0  0  0  0
  2 41  1  0  0  0  0
  3  2  1  0  0  0  0
  3  4  1  0  0  0  0
  3 25  1  0  0  0  0
  3 42  1  6  0  0  0
  4  6  1  0  0  0  0
  4 43  1  6  0  0  0
  4  5  1  0  0  0  0
  5 44  1  0  0  0  0
  6  7  1  0  0  0  0
  6 23  1  0  0  0  0
  6 45  1  6  0  0  0
  7  8  1  0  0  0  0
  8 20  1  0  0  0  0
  8 46  1  6  0  0  0
  8  9  1  0  0  0  0
 10  9  1  0  0  0  0
 10 11  1  0  0  0  0
 10 18  1  0  0  0  0
 10 47  1  6  0  0  0
 11 13  1  0  0  0  0
 11 48  1  1  0  0  0
 11 12  1  0  0  0  0
 12 49  1  0  0  0  0
 12 50  1  0  0  0  0
 13 14  1  0  0  0  0
 13 51  1  0  0  0  0
 13 52  1  0  0  0  0
 14 16  1  0  0  0  0
 14 53  1  1  0  0  0
 14 15  1  0  0  0  0
 15 54  1  0  0  0  0
 15 55  1  0  0  0  0
 16 17  1  0  0  0  0
 16 18  1  0  0  0  0
 16 56  1  6  0  0  0
 17 57  1  0  0  0  0
 18 19  1  0  0  0  0
 18 58  1  1  0  0  0
 19 59  1  0  0  0  0
 20 21  1  0  0  0  0
 20 22  1  0  0  0  0
 20 60  1  1  0  0  0
 21 61  1  0  0  0  0
 21 62  1  0  0  0  0
 22 63  1  0  0  0  0
 22 64  1  0  0  0  0
 23 22  1  0  0  0  0
 23 24  1  0  0  0  0
 23 65  1  1  0  0  0
 24 25  1  0  0  0  0
 25 26  1  0  0  0  0
 25 66  1  1  0  0  0
 27 28  1  0  0  0  0
 27 36  1  0  0  0  0
 27 67  1  6  0  0  0
 27 26  1  0  0  0  0
 28 29  1  0  0  0  0
 29 30  1  0  0  0  0
 29 32  1  0  0  0  0
 29 68  1  1  0  0  0
 30 31  1  0  0  0  0
 30 69  1  0  0  0  0
 30 70  1  0  0  0  0
 31 71  1  0  0  0  0
 32 34  1  0  0  0  0
 32 72  1  6  0  0  0
 32 33  1  0  0  0  0
 33 73  1  0  0  0  0
 33 74  1  0  0  0  0
 34 35  1  0  0  0  0
 34 36  1  0  0  0  0
 34 75  1  1  0  0  0
 35 76  1  0  0  0  0
 36 37  1  0  0  0  0
 36 77  1  6  0  0  0
 37 78  1  0  0  0  0
M  END
>  <DRUGBANK_ID>
DB04626

>  <COMMON_NAME>
Apramycin

>  <CAS_NUMBER>
37321-09-8

>  <UNII>
388K3TR36Z

>  <SYNONYMS>
4-O-((8R)-2-amino-8-O-(4-amino-4-deoxy-α-D-glucopyranosyl)-2,3,7-trideoxy-7-(methylamino)-D-glycero-α-D-allo-octodialdo-1,5:8,4-dipyranos-1-yl)-2-deoxy-D-streptamine; 4-O-(3α-amino-6α-((4-amino-4-deoxy-α-D-glucopyranosyl)oxy)-2,3,4,5aβ,6,7,8,8aα-octahydro-8β-hydroxy-7β-(methylamino)pyrano(3,2-b)pyran-2α-yl)-2-deoxy-D-streptamine; Apramicina; Apramycin; Apramycine; Apramycinum; Nebramycin II

$$$$
