
 OpenBabel10282417183D

  2  1  0  0  0  0  0  0  0  0999 V2000
    1.0491    0.0862    0.0124 Zn  0  0  0  0  0  0  0  0  0  0  0  0
    2.7317    0.0862    0.0124 O   0  0  0  0  0  0  0  0  0  0  0  0
  1  2  2  0  0  0  0
M  END
>  <DRUGBANK_ID>
DB09321

>  <COMMON_NAME>
Zinc oxide

>  <CAS_NUMBER>
1314-13-2

>  <UNII>
SOI2LOH54Z

>  <SYNONYMS>
óxido de cinc; oxyde de zinc; Zinc (as oxide); Zinc (as zinc oxide); Zinc oxide; Zinc óxido; Zinc white; Zinci oxydum; Zincum oxydatum; Zinkoxid

$$$$
