PCQ
 OpenBabel10282417133D

 24 25  0  0  0  0  0  0  0  0999 V2000
   -2.6832    0.6181    0.0008 Cl  0  0  0  0  0  0  0  0  0  0  0  0
    2.7471    0.4881   -0.0002 Cl  0  0  0  0  0  0  0  0  0  0  0  0
    0.0703    1.8000    0.0001 O   0  0  0  0  0  0  0  0  0  0  0  0
   -0.0367   -2.4071   -0.0100 C   0  0  0  0  0  0  0  0  0  0  0  0
   -1.2262   -1.6573   -0.0118 C   0  0  0  0  0  0  0  0  0  0  0  0
   -1.1939   -0.2560   -0.0068 C   0  0  0  0  0  0  0  0  0  0  0  0
    0.0227    0.4298   -0.0037 C   0  0  0  0  0  0  0  0  0  0  0  0
    1.2110   -0.3006   -0.0039 C   0  0  0  0  0  0  0  0  0  0  0  0
    1.1803   -1.7011   -0.0061 C   0  0  0  0  0  0  0  0  0  0  0  0
   -1.4296   -6.8998   -2.2639 Cl  0  0  0  0  0  0  0  0  0  0  0  0
    1.3426   -6.7865    2.4059 Cl  0  0  0  0  0  0  0  0  0  0  0  0
   -0.0368   -8.0902    0.1073 O   0  0  0  0  0  0  0  0  0  0  0  0
   -0.0530   -3.8829    0.0083 C   0  0  0  0  0  0  0  0  0  0  0  0
   -0.6697   -4.6284   -1.0121 C   0  0  0  0  0  0  0  0  0  0  0  0
   -0.6644   -6.0300   -0.9831 C   0  0  0  0  0  0  0  0  0  0  0  0
   -0.0485   -6.7199    0.0634 C   0  0  0  0  0  0  0  0  0  0  0  0
    0.5660   -5.9935    1.0833 C   0  0  0  0  0  0  0  0  0  0  0  0
    0.5639   -4.5932    1.0542 C   0  0  0  0  0  0  0  0  0  0  0  0
   -0.8426    2.1434    0.0004 H   0  0  0  0  0  0  0  0  0  0  0  0
   -2.1884   -2.1668    0.0014 H   0  0  0  0  0  0  0  0  0  0  0  0
    2.1230   -2.2469   -0.0112 H   0  0  0  0  0  0  0  0  0  0  0  0
   -0.5058   -8.4312   -0.6768 H   0  0  0  0  0  0  0  0  0  0  0  0
   -1.1461   -4.1160   -1.8466 H   0  0  0  0  0  0  0  0  0  0  0  0
    1.0445   -4.0503    1.8671 H   0  0  0  0  0  0  0  0  0  0  0  0
  1  6  1  0  0  0  0
  2  8  1  0  0  0  0
  3  7  1  0  0  0  0
  3 19  1  0  0  0  0
  4  5  2  0  0  0  0
  4  9  1  0  0  0  0
  4 13  1  0  0  0  0
  5  6  1  0  0  0  0
  5 20  1  0  0  0  0
  6  7  2  0  0  0  0
  7  8  1  0  0  0  0
  8  9  2  0  0  0  0
  9 21  1  0  0  0  0
 10 15  1  0  0  0  0
 11 17  1  0  0  0  0
 12 16  1  0  0  0  0
 12 22  1  0  0  0  0
 13 14  2  0  0  0  0
 13 18  1  0  0  0  0
 14 15  1  0  0  0  0
 14 23  1  0  0  0  0
 15 16  2  0  0  0  0
 16 17  1  0  0  0  0
 17 18  2  0  0  0  0
 18 24  1  0  0  0  0
M  END
>  <DRUGBANK_ID>
DB03346

>  <SECONDARY_ACCESSION_NUMBERS>
EXPT02524

>  <COMMON_NAME>
3,3',5,5'-tetrachlorobiphenyl-4,4'-diol

>  <CAS_NUMBER>
13049-13-3

>  <UNII>
OHS8K6J04I

>  <SYNONYMS>
3,3',5,5'-Tetrachloro-4,4'-biphenyldiol

$$$$
