VC3
 OpenBabel10282417173D

 21 22  0  0  0  0  0  0  0  0999 V2000
    0.9384   -0.0633    0.0036 N   0  3  0  0  0  0  0  0  0  0  0  0
   -2.1293    5.3702   -1.6468 N   0  0  0  0  0  0  0  0  0  0  0  0
   -2.0684    4.2018   -2.3060 C   0  0  0  0  0  0  0  0  0  0  0  0
   -2.8190    6.1829   -2.4629 N   0  0  0  0  0  0  0  0  0  0  0  0
    0.1829    1.0328   -0.5903 C   0  0  0  0  0  0  0  0  0  0  0  0
   -2.7670    4.2838   -3.5377 C   0  0  0  0  0  0  0  0  0  0  0  0
    0.2832   -0.9628    0.5557 O   0  5  0  0  0  0  0  0  0  0  0  0
    2.1696   -0.0308   -0.0905 O   0  0  0  0  0  0  0  0  0  0  0  0
   -1.3360    3.0661   -1.7540 C   0  0  0  0  0  0  0  0  0  0  0  0
   -3.2382    5.5736   -3.6068 C   0  0  0  0  0  0  0  0  0  0  0  0
    0.5318    1.5061   -1.8601 C   0  0  0  0  0  0  0  0  0  0  0  0
   -0.9109    1.5560    0.1044 C   0  0  0  0  0  0  0  0  0  0  0  0
   -0.2355    2.5254   -2.4395 C   0  0  0  0  0  0  0  0  0  0  0  0
   -1.6860    2.5518   -0.4960 C   0  0  0  0  0  0  0  0  0  0  0  0
   -2.9676    7.1449   -2.1734 H   0  0  0  0  0  0  0  0  0  0  0  0
   -2.9076    3.5043   -4.2720 H   0  0  0  0  0  0  0  0  0  0  0  0
   -3.8167    6.1016   -4.3516 H   0  0  0  0  0  0  0  0  0  0  0  0
    1.3869    1.0996   -2.3954 H   0  0  0  0  0  0  0  0  0  0  0  0
   -1.1574    1.2076    1.1049 H   0  0  0  0  0  0  0  0  0  0  0  0
    0.0425    2.9114   -3.4183 H   0  0  0  0  0  0  0  0  0  0  0  0
   -2.5651    2.9324    0.0205 H   0  0  0  0  0  0  0  0  0  0  0  0
  1  5  1  0  0  0  0
  1  7  1  0  0  0  0
  1  8  2  0  0  0  0
  2  3  2  0  0  0  0
  2  4  1  0  0  0  0
  3  6  1  0  0  0  0
  3  9  1  0  0  0  0
  4 10  1  0  0  0  0
  4 15  1  0  0  0  0
  5 11  1  0  0  0  0
  5 12  2  0  0  0  0
  6 10  2  0  0  0  0
  6 16  1  0  0  0  0
  9 13  1  0  0  0  0
  9 14  2  0  0  0  0
 10 17  1  0  0  0  0
 11 13  2  0  0  0  0
 11 18  1  0  0  0  0
 12 14  1  0  0  0  0
 12 19  1  0  0  0  0
 13 20  1  0  0  0  0
 14 21  1  0  0  0  0
M  CHG  2   1   1   7  -1
M  END
>  <DRUGBANK_ID>
DB08695

>  <COMMON_NAME>
3-(4-nitrophenyl)-1H-pyrazole

>  <UNII>
K0B6P40GV5

$$$$
