C16
 OpenBabel10282417163D

 30 32  0  0  0  0  0  0  0  0999 V2000
   -3.0075    0.0011    0.0264 N   0  0  0  0  0  0  0  0  0  0  0  0
   -1.8523    0.0122   -0.0226 C   0  0  0  0  0  0  0  0  0  0  0  0
   -0.4047    0.0163   -0.0332 C   0  0  0  0  0  0  0  0  0  0  0  0
    0.3125   -1.1773   -0.0381 C   0  0  0  0  0  0  0  0  0  0  0  0
    1.7315   -1.1704    0.0511 C   0  0  0  0  0  0  0  0  0  0  0  0
    0.3212    1.2101    0.0065 C   0  0  0  0  0  0  0  0  0  0  0  0
    1.7440    1.2127    0.1303 C   0  0  0  0  0  0  0  0  0  0  0  0
    2.4865    0.0206    0.1930 C   0  0  0  0  0  0  0  0  0  0  0  0
    3.9408   -0.0148    0.2381 N   0  0  0  0  0  0  0  0  0  0  0  0
    4.8266    0.5392    1.1656 C   0  0  0  0  0  0  0  0  0  0  0  0
    4.5956    1.1555    2.1914 O   0  0  0  0  0  0  0  0  0  0  0  0
    6.2292    0.1841    0.7245 C   0  0  0  0  0  0  0  0  0  0  0  0
    7.5254    0.4012    1.2240 C   0  0  0  0  0  0  0  0  0  0  0  0
    8.6409   -0.0904    0.4951 C   0  0  0  0  0  0  0  0  0  0  0  0
    4.6526   -0.6541   -0.7452 C   0  0  0  0  0  0  0  0  0  0  0  0
    4.2417   -1.2121   -1.7471 O   0  0  0  0  0  0  0  0  0  0  0  0
    6.0849   -0.5225   -0.4522 C   0  0  0  0  0  0  0  0  0  0  0  0
    7.1690   -1.0033   -1.1976 C   0  0  0  0  0  0  0  0  0  0  0  0
    6.9609   -1.7341   -2.4850 C   0  0  0  0  0  0  0  0  0  0  0  0
    8.4607   -0.7796   -0.7110 C   0  0  0  0  0  0  0  0  0  0  0  0
   -0.2259   -2.1252   -0.0988 H   0  0  0  0  0  0  0  0  0  0  0  0
    2.2265   -2.1397    0.0366 H   0  0  0  0  0  0  0  0  0  0  0  0
   -0.2194    2.1565   -0.0543 H   0  0  0  0  0  0  0  0  0  0  0  0
    2.2436    2.1771    0.1063 H   0  0  0  0  0  0  0  0  0  0  0  0
    7.7236    0.9309    2.1537 H   0  0  0  0  0  0  0  0  0  0  0  0
    9.6652    0.0559    0.8493 H   0  0  0  0  0  0  0  0  0  0  0  0
    6.3706   -2.6368   -2.3044 H   0  0  0  0  0  0  0  0  0  0  0  0
    6.4482   -1.0833   -3.1997 H   0  0  0  0  0  0  0  0  0  0  0  0
    7.9097   -2.0402   -2.9350 H   0  0  0  0  0  0  0  0  0  0  0  0
    9.3259   -1.1447   -1.2692 H   0  0  0  0  0  0  0  0  0  0  0  0
  2  1  3  0  0  0  0
  2  3  1  0  0  0  0
  3  4  1  0  0  0  0
  4  5  2  0  0  0  0
  4 21  1  0  0  0  0
  5 22  1  0  0  0  0
  6  3  2  0  0  0  0
  6  7  1  0  0  0  0
  6 23  1  0  0  0  0
  7  8  2  0  0  0  0
  7 24  1  0  0  0  0
  8  5  1  0  0  0  0
  8  9  1  0  0  0  0
  9 15  1  0  0  0  0
 10  9  1  0  0  0  0
 10 12  1  0  0  0  0
 11 10  2  0  0  0  0
 12 13  2  0  0  0  0
 12 17  1  0  0  0  0
 13 14  1  0  0  0  0
 13 25  1  0  0  0  0
 14 20  2  0  0  0  0
 14 26  1  0  0  0  0
 15 16  2  0  0  0  0
 15 17  1  0  0  0  0
 17 18  2  0  0  0  0
 18 20  1  0  0  0  0
 18 19  1  0  0  0  0
 19 27  1  0  0  0  0
 19 28  1  0  0  0  0
 19 29  1  0  0  0  0
 20 30  1  0  0  0  0
M  END
>  <DRUGBANK_ID>
DB07511

>  <COMMON_NAME>
4-(4-methyl-1,3-dioxo-1,3-dihydro-2H-isoindol-2-yl)benzonitrile

$$$$
