
 OpenBabel10282417183D

 17 16  0  0  0  0  0  0  0  0999 V2000
    0.8962   -0.0700    0.0508 C   0  0  0  0  0  0  0  0  0  0  0  0
    0.3911   -0.8671   -1.1384 C   0  0  0  0  0  0  0  0  0  0  0  0
    0.4240   -0.5935    1.3848 C   0  0  0  0  0  0  0  0  0  0  0  0
    0.8710   -2.3075   -1.1502 C   0  0  0  0  0  0  0  0  0  0  0  0
    0.8980    0.3012    2.5131 C   0  0  0  0  0  0  0  0  0  0  0  0
    0.4773    1.2249   -0.0977 F   0  0  0  0  0  0  0  0  0  0  0  0
    2.2562   -0.0097    0.0222 F   0  0  0  0  0  0  0  0  0  0  0  0
   -0.9709   -0.8193   -1.1975 F   0  0  0  0  0  0  0  0  0  0  0  0
    0.8214   -0.2461   -2.2843 F   0  0  0  0  0  0  0  0  0  0  0  0
   -0.9328   -0.6992    1.3905 F   0  0  0  0  0  0  0  0  0  0  0  0
    0.9036   -1.8480    1.5981 F   0  0  0  0  0  0  0  0  0  0  0  0
    0.3252   -3.0466   -0.1608 F   0  0  0  0  0  0  0  0  0  0  0  0
    0.5362   -2.9313   -2.3067 F   0  0  0  0  0  0  0  0  0  0  0  0
    2.2150   -2.3928   -1.0274 F   0  0  0  0  0  0  0  0  0  0  0  0
    0.4441    1.5664    2.4130 F   0  0  0  0  0  0  0  0  0  0  0  0
    0.4760   -0.1775    3.7115 F   0  0  0  0  0  0  0  0  0  0  0  0
    2.2501    0.3566    2.5732 F   0  0  0  0  0  0  0  0  0  0  0  0
  2  1  1  0  0  0  0
  3  1  1  0  0  0  0
  4  2  1  0  0  0  0
  5  3  1  0  0  0  0
  6  1  1  0  0  0  0
  7  1  1  0  0  0  0
  8  2  1  0  0  0  0
  9  2  1  0  0  0  0
 10  3  1  0  0  0  0
 11  3  1  0  0  0  0
 12  4  1  0  0  0  0
 13  4  1  0  0  0  0
 14  4  1  0  0  0  0
 15  5  1  0  0  0  0
 16  5  1  0  0  0  0
 17  5  1  0  0  0  0
M  END
>  <DRUGBANK_ID>
DB11625

>  <COMMON_NAME>
Perflenapent

>  <CAS_NUMBER>
678-26-2

>  <UNII>
483AU1Y5CZ

>  <SYNONYMS>
Dodecafluoropentane; dodecafluoropentane emulsion (DDFPe); Perfluoropentane

$$$$
