BIH
 OpenBabel10282417143D

 26 27  0  0  0  0  0  0  0  0999 V2000
    1.0276   -0.0325   -0.0267 O   0  0  0  0  0  0  0  0  0  0  0  0
    2.4671    0.0462    0.0900 S   0  0  0  0  0  0  0  0  0  0  0  0
    3.1062    0.2420    1.3726 O   0  0  0  0  0  0  0  0  0  0  0  0
    3.0402   -1.3469   -0.4892 O   0  0  0  0  0  0  0  0  0  0  0  0
    3.0205    1.3328   -1.0043 C   0  0  0  0  0  0  0  0  0  0  0  0
    3.6293    1.0483   -2.2248 C   0  0  0  0  0  0  0  0  0  0  0  0
    3.9296    2.1015   -3.1042 C   0  0  0  0  0  0  0  0  0  0  0  0
    3.6139    3.4398   -2.7888 C   0  0  0  0  0  0  0  0  0  0  0  0
    3.8353    4.5008   -3.6968 C   0  0  0  0  0  0  0  0  0  0  0  0
    3.0377    3.7188   -1.5256 C   0  0  0  0  0  0  0  0  0  0  0  0
    2.7641    2.6600   -0.6372 C   0  0  0  0  0  0  0  0  0  0  0  0
    2.7191    5.0491   -1.1975 C   0  0  0  0  0  0  0  0  0  0  0  0
    2.9361    6.0925   -2.1035 C   0  0  0  0  0  0  0  0  0  0  0  0
    3.4889    5.8141   -3.3524 C   0  0  0  0  0  0  0  0  0  0  0  0
    3.7572    7.1373   -4.5162 S   0  0  0  0  0  0  0  0  0  0  0  0
    5.3476    7.0768   -4.7988 O   0  0  0  0  0  0  0  0  0  0  0  0
    3.0667    6.7915   -5.7406 O   0  0  0  0  0  0  0  0  0  0  0  0
    3.5230    8.3871   -3.8293 O   0  0  0  0  0  0  0  0  0  0  0  0
    2.7092   -2.0679    0.0897 H   0  0  0  0  0  0  0  0  0  0  0  0
    3.8514    0.0249   -2.5190 H   0  0  0  0  0  0  0  0  0  0  0  0
    4.3937    1.8670   -4.0613 H   0  0  0  0  0  0  0  0  0  0  0  0
    4.2484    4.3002   -4.6850 H   0  0  0  0  0  0  0  0  0  0  0  0
    2.3150    2.8610    0.3348 H   0  0  0  0  0  0  0  0  0  0  0  0
    2.2733    5.2829   -0.2319 H   0  0  0  0  0  0  0  0  0  0  0  0
    2.6543    7.1070   -1.8279 H   0  0  0  0  0  0  0  0  0  0  0  0
    5.8277    7.4695   -4.0411 H   0  0  0  0  0  0  0  0  0  0  0  0
  1  2  2  0  0  0  0
  2  3  2  0  0  0  0
  2  4  1  0  0  0  0
  2  5  1  0  0  0  0
  4 19  1  0  0  0  0
  5  6  2  0  0  0  0
  5 11  1  0  0  0  0
  6  7  1  0  0  0  0
  6 20  1  0  0  0  0
  7  8  2  0  0  0  0
  7 21  1  0  0  0  0
  8  9  1  0  0  0  0
  8 10  1  0  0  0  0
  9 14  2  0  0  0  0
  9 22  1  0  0  0  0
 10 11  2  0  0  0  0
 10 12  1  0  0  0  0
 11 23  1  0  0  0  0
 12 13  2  0  0  0  0
 12 24  1  0  0  0  0
 13 14  1  0  0  0  0
 13 25  1  0  0  0  0
 14 15  1  0  0  0  0
 15 16  1  0  0  0  0
 15 17  2  0  0  0  0
 15 18  2  0  0  0  0
 16 26  1  0  0  0  0
M  END
>  <DRUGBANK_ID>
DB04640

>  <COMMON_NAME>
Naphthalene-2,6-disulfonic acid

>  <CAS_NUMBER>
581-75-9

>  <UNII>
BOR133U3TN

>  <SYNONYMS>
2,6-naphthalenedisulfonic acid; Ebert-Merz beta-acid; naphthalene-2,6-disulphonic acid

$$$$
