1444
 OpenBabel10282417113D

 34 35  0  0  1  0  0  0  0  0999 V2000
   -1.0571    0.0445    0.0075 S   0  0  0  0  0  0  0  0  0  0  0  0
    1.3304    4.7375    1.2833 S   0  0  0  0  0  0  0  0  0  0  0  0
   -2.6064    4.9704   -1.2572 N   0  0  0  0  0  0  0  0  0  0  0  0
   -1.8319    4.6555   -0.0307 C   0  0  3  0  0  0  0  0  0  0  0  0
   -1.3988    3.1950    0.0281 C   0  0  0  0  0  0  0  0  0  0  0  0
   -0.1346    2.7186    0.0510 C   0  0  0  0  0  0  0  0  0  0  0  0
   -2.6168    4.9589    1.2566 C   0  0  0  0  0  0  0  0  0  0  0  0
   -2.9077    6.4116   -1.3089 C   0  0  0  0  0  0  0  0  0  0  0  0
   -1.8249    4.6377   -2.4613 C   0  0  0  0  0  0  0  0  0  0  0  0
    0.1471    1.2883    0.0372 C   0  0  0  0  0  0  0  0  0  0  0  0
    0.9573    3.6659   -0.0208 C   0  0  0  0  0  0  0  0  0  0  0  0
    1.4042    0.6891    0.0359 C   0  0  0  0  0  0  0  0  0  0  0  0
    1.8871    3.8109   -1.0384 C   0  0  0  0  0  0  0  0  0  0  0  0
    1.3825   -0.7310    0.0081 C   0  0  0  0  0  0  0  0  0  0  0  0
    2.8419    4.8339   -0.7857 C   0  0  0  0  0  0  0  0  0  0  0  0
    0.0984   -1.2134   -0.0036 C   0  0  0  0  0  0  0  0  0  0  0  0
    2.6081    5.4659    0.4127 C   0  0  0  0  0  0  0  0  0  0  0  0
   -0.9658    5.3189   -0.0339 H   0  0  0  0  0  0  0  0  0  0  0  0
   -2.2491    2.5117    0.0277 H   0  0  0  0  0  0  0  0  0  0  0  0
   -2.0440    4.6654    2.1439 H   0  0  0  0  0  0  0  0  0  0  0  0
   -2.8151    6.0298    1.3664 H   0  0  0  0  0  0  0  0  0  0  0  0
   -3.5763    4.4303    1.2821 H   0  0  0  0  0  0  0  0  0  0  0  0
   -1.9943    7.0195   -1.2775 H   0  0  0  0  0  0  0  0  0  0  0  0
   -3.4550    6.6630   -2.2233 H   0  0  0  0  0  0  0  0  0  0  0  0
   -3.5546    6.7217   -0.4833 H   0  0  0  0  0  0  0  0  0  0  0  0
   -0.8693    5.1755   -2.4916 H   0  0  0  0  0  0  0  0  0  0  0  0
   -1.6192    3.5643   -2.5275 H   0  0  0  0  0  0  0  0  0  0  0  0
   -2.3882    4.8887   -3.3668 H   0  0  0  0  0  0  0  0  0  0  0  0
    2.3264    1.2582    0.0527 H   0  0  0  0  0  0  0  0  0  0  0  0
    1.8818    3.1889   -1.9269 H   0  0  0  0  0  0  0  0  0  0  0  0
    2.2662   -1.3566    0.0029 H   0  0  0  0  0  0  0  0  0  0  0  0
    3.6518    5.0964   -1.4543 H   0  0  0  0  0  0  0  0  0  0  0  0
   -0.2141   -2.2488   -0.0174 H   0  0  0  0  0  0  0  0  0  0  0  0
    3.1539    6.2958    0.8398 H   0  0  0  0  0  0  0  0  0  0  0  0
  1 10  1  0  0  0  0
  1 16  1  0  0  0  0
  2 11  1  0  0  0  0
  2 17  1  0  0  0  0
  3  4  1  0  0  0  0
  3  8  1  0  0  0  0
  3  9  1  0  0  0  0
  4  5  1  0  0  0  0
  4  7  1  0  0  0  0
  4 18  1  0  0  0  0
  5  6  2  0  0  0  0
  5 19  1  0  0  0  0
  6 10  1  0  0  0  0
  6 11  1  0  0  0  0
  7 20  1  0  0  0  0
  7 21  1  0  0  0  0
  7 22  1  0  0  0  0
  8 23  1  0  0  0  0
  8 24  1  0  0  0  0
  8 25  1  0  0  0  0
  9 26  1  0  0  0  0
  9 27  1  0  0  0  0
  9 28  1  0  0  0  0
 10 12  2  0  0  0  0
 11 13  2  0  0  0  0
 12 14  1  0  0  0  0
 12 29  1  0  0  0  0
 13 15  1  0  0  0  0
 13 30  1  0  0  0  0
 14 16  2  0  0  0  0
 14 31  1  0  0  0  0
 15 17  2  0  0  0  0
 15 32  1  0  0  0  0
 16 33  1  0  0  0  0
 17 34  1  0  0  0  0
M  END
>  <DRUGBANK_ID>
DB01444

>  <COMMON_NAME>
Dimethylthiambutene

>  <CAS_NUMBER>
524-84-5

>  <UNII>
915D88LM9O

>  <SYNONYMS>
3-dimethylamino-1,1-bis(2-thienyl)-1-butene; 3-dimethylamino-1,1-di-(2'-thienyl)-1-butene; Dimethibutin; Dimethylthiambutene; Dimethylthiambutenum; Dimetiltiambutene; Dimetiltiambuteno; N,N-dimethyl-4,4-di(2-thienyl)-3-buten-2-amine; N,N,1-trimethyl-3,3-di-2-thienylallylamine; N,N,1-trimethyl-3,3-di(2-thienyl)-2-propenylamine; Ohton

$$$$
