
 OpenBabel10282417133D

143148  0  0  1  0  0  0  0  0999 V2000
    2.9213    1.0069    0.9439 C   0  0  0  0  0  0  0  0  0  0  0  0
    2.3393    3.7166    8.1357 C   0  0  0  0  0  0  0  0  0  0  0  0
    3.9873    1.0100   12.0305 C   0  0  0  0  0  0  0  0  0  0  0  0
   -1.3435    4.8550    7.2446 C   0  0  0  0  0  0  0  0  0  0  0  0
   -2.2107   -1.5400    8.6844 C   0  0  0  0  0  0  0  0  0  0  0  0
   -0.5320   -0.5812    6.6285 C   0  0  0  0  0  0  0  0  0  0  0  0
    0.0690    8.8227   -0.6801 C   0  0  0  0  0  0  0  0  0  0  0  0
    0.5190    8.5314    8.3073 C   0  0  0  0  0  0  0  0  0  0  0  0
    1.6473   -1.2460    7.9623 C   0  0  0  0  0  0  0  0  0  0  0  0
   -1.6618   -0.6794   11.1146 C   0  0  0  0  0  0  0  0  0  0  0  0
    2.6341    0.8685    2.4448 C   0  0  0  0  0  0  0  0  0  0  0  0
   -2.5805    4.3568    3.9641 C   0  0  0  0  0  0  0  0  0  0  0  0
   -1.3203    3.7235    3.4541 C   0  0  0  0  0  0  0  0  0  0  0  0
   -2.9049    3.9073    5.3291 C   0  0  0  0  0  0  0  0  0  0  0  0
    2.7261    5.5610    5.8043 C   0  0  0  0  0  0  0  0  0  0  0  0
    1.3210    8.2633    3.4874 C   0  0  0  0  0  0  0  0  0  0  0  0
    0.8371    8.2556    2.2140 C   0  0  0  0  0  0  0  0  0  0  0  0
    3.0458    6.9163    5.2937 C   0  0  0  0  0  0  0  0  0  0  0  0
    1.4756   11.6085    1.1823 C   0  0  0  0  0  0  0  0  0  0  0  0
   -1.4893    2.2605    3.6712 C   0  0  0  0  0  0  0  0  0  0  0  0
    0.9146   11.0738    0.0444 C   0  0  0  0  0  0  0  0  0  0  0  0
    0.7004    4.2599    6.2842 C   0  0  0  0  0  0  0  0  0  0  0  0
    2.5146    2.4791    5.1788 C   0  0  0  0  0  0  0  0  0  0  0  0
    3.0587    0.8337   10.0259 C   0  0  0  0  0  0  0  0  0  0  0  0
    0.2524   -2.3964    9.6588 C   0  0  0  0  0  0  0  0  0  0  0  0
    0.6413    6.4102    6.6444 C   0  0  0  0  0  0  0  0  0  0  0  0
    1.9956   10.5374    3.4883 C   0  0  0  0  0  0  0  0  0  0  0  0
    1.5041   -0.0610    4.8181 C   0  0  0  0  0  0  0  0  0  0  0  0
    2.8995    2.7588    7.1348 C   0  0  0  0  0  0  0  0  0  0  0  0
    3.0966    1.8266   10.9719 C   0  0  2  0  0  0  0  0  0  0  0  0
   -0.2491    3.9146    7.0957 C   0  0  0  0  0  0  0  0  0  0  0  0
   -0.6535   -1.4882    8.7580 C   0  0  2  0  0  0  0  0  0  0  0  0
    0.1429    1.2423    6.6928 C   0  0  2  0  0  0  0  0  0  0  0  0
    1.2168    5.4419    5.7372 C   0  0  1  0  0  0  0  0  0  0  0  0
    1.6460    1.6048    3.4931 C   0  0  2  0  0  0  0  0  0  0  0  0
    1.5212   10.5888    2.1597 C   0  0  0  0  0  0  0  0  0  0  0  0
    1.9057    9.3424    4.1617 C   0  0  0  0  0  0  0  0  0  0  0  0
    0.9650    9.4501    1.5612 C   0  0  0  0  0  0  0  0  0  0  0  0
   -2.9409    2.5096    5.6475 C   0  0  1  0  0  0  0  0  0  0  0  0
    1.3404    0.8963    5.9328 C   0  0  1  0  0  0  0  0  0  0  0  0
    0.6967    0.3303    3.7136 C   0  0  0  0  0  0  0  0  0  0  0  0
    2.2498    8.0031    6.0359 C   0  0  2  0  0  0  0  0  0  0  0  0
    0.7609    7.7458    6.1538 C   0  0  2  0  0  0  0  0  0  0  0  0
    2.4262   -0.4489   10.1656 C   0  0  1  0  0  0  0  0  0  0  0  0
    0.4477   -1.6098   10.9440 C   0  0  1  0  0  0  0  0  0  0  0  0
    3.4067    2.7240    9.1949 C   0  0  2  0  0  0  0  0  0  0  0  0
   -0.3609    2.5989    7.6315 C   0  0  2  0  0  0  0  0  0  0  0  0
    1.0178   -0.2118   10.7751 C   0  0  2  0  0  0  0  0  0  0  0  0
   -1.6127    0.7761    7.7662 C   0  0  0  0  0  0  0  0  0  0  0  0
   -1.6898    0.7995    5.7558 C   0  0  0  0  0  0  0  0  0  0  0  0
   -3.0309    2.4996    7.1658 C   0  0  0  0  0  0  0  0  0  0  0  0
   -0.0823    0.4228    8.8450 C   0  0  1  0  0  0  0  0  0  0  0  0
    0.6178    9.7629    0.2748 N   0  0  0  0  0  0  0  0  0  0  0  0
   -1.9127    1.9036    5.0341 N   0  0  0  0  0  0  0  0  0  0  0  0
    2.6791    0.6790    6.3311 O   0  0  0  0  0  0  0  0  0  0  0  0
   -0.3930   -0.0692    3.2222 O   0  0  0  0  0  0  0  0  0  0  0  0
    3.1069    3.8456   10.7392 O   0  0  0  0  0  0  0  0  0  0  0  0
   -2.5454    0.8671    8.5410 O   0  0  0  0  0  0  0  0  0  0  0  0
   -0.8489    0.2669    5.0528 O   0  0  0  0  0  0  0  0  0  0  0  0
   -4.1344    2.2414    7.6468 O   0  0  0  0  0  0  0  0  0  0  0  0
    1.5020    0.9853    8.3820 O   0  0  0  0  0  0  0  0  0  0  0  0
    0.0225    8.6027    6.9915 O   0  0  0  0  0  0  0  0  0  0  0  0
    2.7059   -1.0934    8.8268 O   0  0  0  0  0  0  0  0  0  0  0  0
   -0.7362   -1.5092   11.7381 O   0  0  0  0  0  0  0  0  0  0  0  0
    2.4133    9.2796    5.4395 O   0  0  0  0  0  0  0  0  0  0  0  0
   -1.8426    2.7520    7.9907 O   0  0  0  0  0  0  0  0  0  0  0  0
    0.2060    0.7936   10.1442 O   0  0  0  0  0  0  0  0  0  0  0  0
    1.4111    3.6111    6.0481 H   0  0  0  0  0  0  0  0  0  0  0  0
    1.6717    3.0131    4.2370 H   0  0  0  0  0  0  0  0  0  0  0  0
    2.1046    1.9624   11.5549 H   0  0  0  0  0  0  0  0  0  0  0  0
   -0.4722   -2.1216    7.8002 H   0  0  0  0  0  0  0  0  0  0  0  0
   -0.3835    1.9932    6.0776 H   0  0  0  0  0  0  0  0  0  0  0  0
    0.8046    5.3964    4.7496 H   0  0  0  0  0  0  0  0  0  0  0  0
    0.9343    0.9079    2.4364 H   0  0  0  0  0  0  0  0  0  0  0  0
   -3.7290    2.0555    5.1208 H   0  0  0  0  0  0  0  0  0  0  0  0
    1.0916    1.9248    5.8729 H   0  0  0  0  0  0  0  0  0  0  0  0
    2.6703    7.9923    7.0504 H   0  0  0  0  0  0  0  0  0  0  0  0
    0.1708    7.7207    5.2430 H   0  0  0  0  0  0  0  0  0  0  0  0
    3.0426   -1.0283   10.7849 H   0  0  0  0  0  0  0  0  0  0  0  0
    1.1627   -2.1481   11.5330 H   0  0  0  0  0  0  0  0  0  0  0  0
    4.4408    3.0217    9.6253 H   0  0  0  0  0  0  0  0  0  0  0  0
    0.1625    2.4627    8.5387 H   0  0  0  0  0  0  0  0  0  0  0  0
    1.0406    0.2405   11.7600 H   0  0  0  0  0  0  0  0  0  0  0  0
    2.5702    0.1885    0.2832 H   0  0  0  0  0  0  0  0  0  0  0  0
    4.0198    0.9711    0.8761 H   0  0  0  0  0  0  0  0  0  0  0  0
    2.5772    1.9483    0.5304 H   0  0  0  0  0  0  0  0  0  0  0  0
    3.4115    4.0427    8.0308 H   0  0  0  0  0  0  0  0  0  0  0  0
    1.7016    2.9910    8.6908 H   0  0  0  0  0  0  0  0  0  0  0  0
    1.7337    4.5735    8.3287 H   0  0  0  0  0  0  0  0  0  0  0  0
    4.9871    0.8428   11.6464 H   0  0  0  0  0  0  0  0  0  0  0  0
    4.0491    1.4115   13.0532 H   0  0  0  0  0  0  0  0  0  0  0  0
    3.5723   -0.0090   12.2494 H   0  0  0  0  0  0  0  0  0  0  0  0
   -1.1052    5.5550    7.9841 H   0  0  0  0  0  0  0  0  0  0  0  0
   -1.4778    5.3075    6.2318 H   0  0  0  0  0  0  0  0  0  0  0  0
   -2.2875    4.4654    7.5502 H   0  0  0  0  0  0  0  0  0  0  0  0
   -2.5819   -0.7866    9.3399 H   0  0  0  0  0  0  0  0  0  0  0  0
   -2.8470   -1.0238    7.9677 H   0  0  0  0  0  0  0  0  0  0  0  0
   -2.4669   -2.5079    9.0271 H   0  0  0  0  0  0  0  0  0  0  0  0
   -0.1052   -0.5888    7.4604 H   0  0  0  0  0  0  0  0  0  0  0  0
   -1.5803   -0.8023    6.8559 H   0  0  0  0  0  0  0  0  0  0  0  0
   -0.1940   -1.3800    6.0161 H   0  0  0  0  0  0  0  0  0  0  0  0
    0.7869    8.0115   -0.8408 H   0  0  0  0  0  0  0  0  0  0  0  0
   -0.8674    8.4087   -0.2933 H   0  0  0  0  0  0  0  0  0  0  0  0
   -0.1193    9.3340   -1.6239 H   0  0  0  0  0  0  0  0  0  0  0  0
    0.3755    7.5378    8.7344 H   0  0  0  0  0  0  0  0  0  0  0  0
    1.5753    8.7833    8.3205 H   0  0  0  0  0  0  0  0  0  0  0  0
   -0.0220    9.2335    8.9115 H   0  0  0  0  0  0  0  0  0  0  0  0
    1.0253   -0.9694    8.7249 H   0  0  0  0  0  0  0  0  0  0  0  0
    1.2907   -0.3457    7.5321 H   0  0  0  0  0  0  0  0  0  0  0  0
    1.5562   -1.3376    6.9084 H   0  0  0  0  0  0  0  0  0  0  0  0
   -1.4695    0.2707   10.6116 H   0  0  0  0  0  0  0  0  0  0  0  0
   -1.5075   -1.3576   10.3626 H   0  0  0  0  0  0  0  0  0  0  0  0
   -2.7379   -0.7789   11.1386 H   0  0  0  0  0  0  0  0  0  0  0  0
    2.8196   -0.2021    2.6599 H   0  0  0  0  0  0  0  0  0  0  0  0
    3.2550    1.5593    2.9023 H   0  0  0  0  0  0  0  0  0  0  0  0
   -2.4697    5.4322    3.9273 H   0  0  0  0  0  0  0  0  0  0  0  0
   -3.4211    3.9765    3.4177 H   0  0  0  0  0  0  0  0  0  0  0  0
   -1.1731    3.9005    2.3917 H   0  0  0  0  0  0  0  0  0  0  0  0
   -0.4119    4.0767    3.9563 H   0  0  0  0  0  0  0  0  0  0  0  0
   -1.9367    3.9150    5.7050 H   0  0  0  0  0  0  0  0  0  0  0  0
   -3.6196    4.4682    5.9183 H   0  0  0  0  0  0  0  0  0  0  0  0
    3.2205    4.8005    5.2011 H   0  0  0  0  0  0  0  0  0  0  0  0
    3.1170    5.4941    6.8206 H   0  0  0  0  0  0  0  0  0  0  0  0
    1.1896    7.2897    3.9208 H   0  0  0  0  0  0  0  0  0  0  0  0
    0.4117    7.3501    1.8066 H   0  0  0  0  0  0  0  0  0  0  0  0
    4.0985    7.1394    5.3045 H   0  0  0  0  0  0  0  0  0  0  0  0
    2.8359    6.8628    4.2367 H   0  0  0  0  0  0  0  0  0  0  0  0
    1.8214   12.6279    1.2838 H   0  0  0  0  0  0  0  0  0  0  0  0
   -2.2103    1.7642    3.0492 H   0  0  0  0  0  0  0  0  0  0  0  0
   -0.5280    1.9486    3.3472 H   0  0  0  0  0  0  0  0  0  0  0  0
    0.7225   11.5449   -0.9034 H   0  0  0  0  0  0  0  0  0  0  0  0
    3.9606    0.8931    9.4062 H   0  0  0  0  0  0  0  0  0  0  0  0
    2.2263    1.4898    9.8032 H   0  0  0  0  0  0  0  0  0  0  0  0
   -0.1176   -3.3960    9.6079 H   0  0  0  0  0  0  0  0  0  0  0  0
    1.2682   -2.6415    9.2458 H   0  0  0  0  0  0  0  0  0  0  0  0
    1.0105    6.2475    7.6529 H   0  0  0  0  0  0  0  0  0  0  0  0
   -0.4075    6.4078    6.6031 H   0  0  0  0  0  0  0  0  0  0  0  0
    2.4331   11.4042    3.9654 H   0  0  0  0  0  0  0  0  0  0  0  0
    1.4117   -1.0460    5.1192 H   0  0  0  0  0  0  0  0  0  0  0  0
    2.5673    0.0894    4.4761 H   0  0  0  0  0  0  0  0  0  0  0  0
    2.5634    0.1901    7.0802 H   0  0  0  0  0  0  0  0  0  0  0  0
    3.0221    3.6312   11.8820 H   0  0  0  0  0  0  0  0  0  0  0  0
    2.3346    0.3492    8.4532 H   0  0  0  0  0  0  0  0  0  0  0  0
  1 84  1  0  0  0  0
  1 85  1  0  0  0  0
  1 86  1  0  0  0  0
  2 87  1  0  0  0  0
  2 88  1  0  0  0  0
  2 89  1  0  0  0  0
  3 90  1  0  0  0  0
  3 91  1  0  0  0  0
  3 92  1  0  0  0  0
  4 93  1  0  0  0  0
  4 94  1  0  0  0  0
  4 95  1  0  0  0  0
  5 96  1  0  0  0  0
  5 97  1  0  0  0  0
  5 98  1  0  0  0  0
  6 99  1  0  0  0  0
  6100  1  0  0  0  0
  6101  1  0  0  0  0
  7102  1  0  0  0  0
  7103  1  0  0  0  0
  7104  1  0  0  0  0
  8105  1  0  0  0  0
  8106  1  0  0  0  0
  8107  1  0  0  0  0
  9108  1  0  0  0  0
  9109  1  0  0  0  0
  9110  1  0  0  0  0
 10111  1  0  0  0  0
 10112  1  0  0  0  0
 10113  1  0  0  0  0
 11  1  1  0  0  0  0
 11114  1  0  0  0  0
 11115  1  0  0  0  0
 12116  1  0  0  0  0
 12117  1  0  0  0  0
 13 12  1  0  0  0  0
 13118  1  0  0  0  0
 13119  1  0  0  0  0
 14 12  1  0  0  0  0
 14120  1  0  0  0  0
 14121  1  0  0  0  0
 15122  1  0  0  0  0
 15123  1  0  0  0  0
 16124  1  0  0  0  0
 17 16  1  0  0  0  0
 17125  1  0  0  0  0
 18 15  1  0  0  0  0
 18126  1  0  0  0  0
 18127  1  0  0  0  0
 19128  1  0  0  0  0
 20 13  1  0  0  0  0
 20129  1  0  0  0  0
 20130  1  0  0  0  0
 21 19  2  0  0  0  0
 21131  1  0  0  0  0
 24132  1  0  0  0  0
 24133  1  0  0  0  0
 25134  1  0  0  0  0
 25135  1  0  0  0  0
 26136  1  0  0  0  0
 26137  1  0  0  0  0
 27138  1  0  0  0  0
 28139  1  0  0  0  0
 28140  1  0  0  0  0
 29  2  1  0  0  0  0
 29 23  2  0  0  0  0
 30  3  1  0  0  0  0
 30 24  1  0  0  0  0
 30 70  1  1  0  0  0
 31  4  1  0  0  0  0
 31 22  2  0  0  0  0
 32 25  1  0  0  0  0
 32 71  1  6  0  0  0
 32  5  1  0  0  0  0
 33  6  1  0  0  0  0
 33 72  1  6  0  0  0
 34 15  1  0  0  0  0
 34 22  1  0  0  0  0
 34 26  1  0  0  0  0
 34 73  1  6  0  0  0
 35 23  1  0  0  0  0
 35 74  1  6  0  0  0
 35 11  1  0  0  0  0
 36 19  1  0  0  0  0
 36 27  2  0  0  0  0
 37 16  2  0  0  0  0
 37 27  1  0  0  0  0
 38 17  2  0  0  0  0
 38 36  1  0  0  0  0
 39 14  1  0  0  0  0
 39 75  1  1  0  0  0
 40 28  1  0  0  0  0
 40 33  1  0  0  0  0
 40 55  1  0  0  0  0
 40 76  1  6  0  0  0
 41 28  1  0  0  0  0
 41 35  1  0  0  0  0
 42 18  1  0  0  0  0
 42 77  1  1  0  0  0
 42 65  1  0  0  0  0
 43 26  1  0  0  0  0
 43 42  1  0  0  0  0
 43 62  1  0  0  0  0
 43 78  1  6  0  0  0
 44 24  1  0  0  0  0
 44 79  1  1  0  0  0
 44 63  1  0  0  0  0
 45 25  1  0  0  0  0
 45 64  1  0  0  0  0
 45 80  1  1  0  0  0
 46 29  1  0  0  0  0
 46 30  1  0  0  0  0
 46 57  1  0  0  0  0
 46 81  1  6  0  0  0
 47 31  1  0  0  0  0
 47 33  1  0  0  0  0
 47 82  1  1  0  0  0
 48 44  1  0  0  0  0
 48 45  1  0  0  0  0
 48 83  1  1  0  0  0
 50 49  1  0  0  0  0
 51 39  1  0  0  0  0
 52 32  1  0  0  0  0
 52 49  1  0  0  0  0
 52 61  1  1  0  0  0
 53  7  1  0  0  0  0
 53 21  1  0  0  0  0
 53 38  1  0  0  0  0
 54 20  1  0  0  0  0
 54 39  1  0  0  0  0
 54 50  1  0  0  0  0
 55141  1  0  0  0  0
 56 41  2  0  0  0  0
 57142  1  0  0  0  0
 58 49  2  0  0  0  0
 59 50  2  0  0  0  0
 60 51  2  0  0  0  0
 61143  1  0  0  0  0
 62  8  1  0  0  0  0
 63  9  1  0  0  0  0
 64 10  1  0  0  0  0
 65 37  1  0  0  0  0
 66 47  1  0  0  0  0
 66 51  1  0  0  0  0
 67 48  1  0  0  0  0
 67 52  1  0  0  0  0
 68 22  1  0  0  0  0
 69 23  1  0  0  0  0
M  END
>  <DRUGBANK_ID>
DB03621

>  <SECONDARY_ACCESSION_NUMBERS>
EXPT00237

>  <COMMON_NAME>
L-709,587

$$$$
