
 OpenBabel10282417123D

 85 88  0  0  0  0  0  0  0  0999 V2000
    1.7135   -2.5446   -0.5618 C   0  0  0  0  0  0  0  0  0  0  0  0
    1.2298   -3.6556    0.4445 C   0  0  0  0  0  0  0  0  0  0  0  0
   -2.5630   -1.5266   -0.1120 C   0  0  0  0  0  0  0  0  0  0  0  0
   -2.1715   -0.2242   -0.7047 C   0  0  0  0  0  0  0  0  0  0  0  0
    0.9089   -1.4624    0.1719 C   0  0  2  0  0  0  0  0  0  0  0  0
    1.9669    2.0170   -0.0050 C   0  0  0  0  0  0  0  0  0  0  0  0
   -1.3987    2.5855   -0.3307 C   0  0  0  0  0  0  0  0  0  0  0  0
    2.5474   -1.6299    1.2190 C   0  0  0  0  0  0  0  0  0  0  0  0
    0.5121    0.0382   -0.0631 C   0  0  1  0  0  0  0  0  0  0  0  0
    0.7524    0.1106   -1.1349 H   0  0  0  0  0  0  0  0  0  0  0  0
   -1.5015    0.5815    0.3581 C   0  0  1  0  0  0  0  0  0  0  0  0
   -1.2122    1.9444    0.9136 C   0  0  2  0  0  0  0  0  0  0  0  0
    0.6228    2.5670    0.6009 C   0  0  2  0  0  0  0  0  0  0  0  0
   -3.3809    0.6841    0.1766 C   0  0  0  0  0  0  0  0  0  0  0  0
    1.0519    3.1170    1.4919 H   0  0  0  0  0  0  0  0  0  0  0  0
   -3.0199    2.5915    1.3657 C   0  0  0  0  0  0  0  0  0  0  0  0
   -0.9258   -2.1567   -0.2020 C   0  0  2  0  0  0  0  0  0  0  0  0
   -1.1064   -2.3489   -1.3037 H   0  0  0  0  0  0  0  0  0  0  0  0
   -0.0760   -3.9172   -0.1351 C   0  0  1  0  0  0  0  0  0  0  0  0
   -0.3560   -5.1478   -0.7269 O   0  0  0  0  0  0  0  0  0  0  0  0
   -1.0344   -3.1277    0.8288 C   0  0  1  0  0  0  0  0  0  0  0  0
   -0.8547   -1.8823    1.8992 C   0  0  0  0  0  0  0  0  0  0  0  0
   -0.8090    3.9126   -0.0894 C   0  0  2  0  0  0  0  0  0  0  0  0
   -1.4606    5.0746    0.1820 O   0  0  0  0  0  0  0  0  0  0  0  0
   -1.7053    4.1147    2.6692 C   0  0  0  0  0  0  0  0  0  0  0  0
   -1.9008    5.1813    1.5024 C   0  0  0  0  0  0  0  0  0  0  0  0
   -2.6995    6.0853    1.7205 O   0  0  0  0  0  0  0  0  0  0  0  0
    0.4653    3.5687   -0.7105 C   0  0  0  0  0  0  0  0  0  0  0  0
    1.9862    0.7624    0.6570 C   0  0  2  0  0  0  0  0  0  0  0  0
    0.5806    3.1001   -2.0264 C   0  0  0  0  0  0  0  0  0  0  0  0
   -1.8080    2.5948   -2.6889 O   0  0  0  0  0  0  0  0  0  0  0  0
   -0.6842    3.0536   -2.8677 C   0  0  0  0  0  0  0  0  0  0  0  0
   -0.5458    3.6084   -4.0487 O   0  0  0  0  0  0  0  0  0  0  0  0
    1.8922    2.7741   -2.7751 C   0  0  0  0  0  0  0  0  0  0  0  0
    2.0275    1.5332   -3.6945 C   0  0  0  0  0  0  0  0  0  0  0  0
    1.0207    1.5810   -4.7799 C   0  0  0  0  0  0  0  0  0  0  0  0
    0.1380    2.4552   -6.9055 C   0  0  0  0  0  0  0  0  0  0  0  0
    1.2652    2.0940   -5.9912 C   0  0  0  0  0  0  0  0  0  0  0  0
    2.6758    2.2970   -6.4343 C   0  0  0  0  0  0  0  0  0  0  0  0
    2.0182    0.8544    2.0521 O   0  0  0  0  0  0  0  0  0  0  0  0
    2.6749   -2.9129   -0.9620 H   0  0  0  0  0  0  0  0  0  0  0  0
    1.3864   -2.2057   -1.5343 H   0  0  0  0  0  0  0  0  0  0  0  0
    1.7829   -4.4755    0.8851 H   0  0  0  0  0  0  0  0  0  0  0  0
    1.0543   -3.1640    1.4309 H   0  0  0  0  0  0  0  0  0  0  0  0
   -3.5007   -2.0524   -0.4362 H   0  0  0  0  0  0  0  0  0  0  0  0
   -2.9465   -1.3173    0.9059 H   0  0  0  0  0  0  0  0  0  0  0  0
   -2.4840    0.1273   -1.7279 H   0  0  0  0  0  0  0  0  0  0  0  0
   -1.2689   -0.5058   -0.4529 H   0  0  0  0  0  0  0  0  0  0  0  0
    2.9084    2.6534   -0.0770 H   0  0  0  0  0  0  0  0  0  0  0  0
    2.0275    1.5669   -0.9984 H   0  0  0  0  0  0  0  0  0  0  0  0
   -2.2943    2.3883   -0.8503 H   0  0  0  0  0  0  0  0  0  0  0  0
   -0.6592    1.8999   -0.7723 H   0  0  0  0  0  0  0  0  0  0  0  0
    3.1839   -2.5735    1.1849 H   0  0  0  0  0  0  0  0  0  0  0  0
    3.4509   -1.0399    0.8632 H   0  0  0  0  0  0  0  0  0  0  0  0
    2.5011   -1.4793    2.3062 H   0  0  0  0  0  0  0  0  0  0  0  0
   -4.1484    0.0525   -0.4248 H   0  0  0  0  0  0  0  0  0  0  0  0
   -3.8936    0.4605    1.1562 H   0  0  0  0  0  0  0  0  0  0  0  0
   -3.8621    1.6001   -0.3400 H   0  0  0  0  0  0  0  0  0  0  0  0
   -4.0553    2.1455    1.3060 H   0  0  0  0  0  0  0  0  0  0  0  0
   -3.2889    2.5123    2.4320 H   0  0  0  0  0  0  0  0  0  0  0  0
   -3.3945    3.4577    0.7522 H   0  0  0  0  0  0  0  0  0  0  0  0
    0.0629   -3.4665   -1.1540 H   0  0  0  0  0  0  0  0  0  0  0  0
   -0.1001   -5.0218   -1.6792 H   0  0  0  0  0  0  0  0  0  0  0  0
   -1.9699   -3.6093    1.0731 H   0  0  0  0  0  0  0  0  0  0  0  0
   -0.2336   -2.0810    2.7368 H   0  0  0  0  0  0  0  0  0  0  0  0
   -0.3761   -0.9809    1.5326 H   0  0  0  0  0  0  0  0  0  0  0  0
   -1.7350   -1.2688    2.1398 H   0  0  0  0  0  0  0  0  0  0  0  0
   -0.4699    3.9226    0.9226 H   0  0  0  0  0  0  0  0  0  0  0  0
   -1.8711    4.1494    3.7418 H   0  0  0  0  0  0  0  0  0  0  0  0
   -2.7880    4.0688    2.6317 H   0  0  0  0  0  0  0  0  0  0  0  0
   -1.3532    3.0678    2.5827 H   0  0  0  0  0  0  0  0  0  0  0  0
    3.0858    0.5818    0.3742 H   0  0  0  0  0  0  0  0  0  0  0  0
   -1.4332    3.3242   -4.3724 H   0  0  0  0  0  0  0  0  0  0  0  0
    2.0945    3.7200   -3.2696 H   0  0  0  0  0  0  0  0  0  0  0  0
    2.8066    2.6851   -2.1779 H   0  0  0  0  0  0  0  0  0  0  0  0
    3.0543    1.5555   -4.0854 H   0  0  0  0  0  0  0  0  0  0  0  0
    1.9484    0.5644   -3.1877 H   0  0  0  0  0  0  0  0  0  0  0  0
    0.0031    1.3485   -4.4895 H   0  0  0  0  0  0  0  0  0  0  0  0
    0.2222    3.4933   -7.2463 H   0  0  0  0  0  0  0  0  0  0  0  0
    0.1395    1.7809   -7.7601 H   0  0  0  0  0  0  0  0  0  0  0  0
   -0.8377    2.3668   -6.4093 H   0  0  0  0  0  0  0  0  0  0  0  0
    3.1903    3.0527   -5.8292 H   0  0  0  0  0  0  0  0  0  0  0  0
    3.2011    1.3402   -6.3136 H   0  0  0  0  0  0  0  0  0  0  0  0
    2.7328    2.5754   -7.4845 H   0  0  0  0  0  0  0  0  0  0  0  0
    2.8025    0.3153    2.2716 H   0  0  0  0  0  0  0  0  0  0  0  0
  1 41  1  0  0  0  0
  1 42  1  0  0  0  0
  2  1  1  0  0  0  0
  2 43  1  0  0  0  0
  2 44  1  0  0  0  0
  3  4  1  0  0  0  0
  3 45  1  0  0  0  0
  3 46  1  0  0  0  0
  4 47  1  0  0  0  0
  4 48  1  0  0  0  0
  5 17  1  0  0  0  0
  5  1  1  0  0  0  0
  5  8  1  6  0  0  0
  6 49  1  0  0  0  0
  6 50  1  0  0  0  0
  7 51  1  0  0  0  0
  7 52  1  0  0  0  0
  8 53  1  0  0  0  0
  8 54  1  0  0  0  0
  8 55  1  0  0  0  0
  9 29  1  0  0  0  0
  9  5  1  0  0  0  0
  9 10  1  6  0  0  0
 11  9  1  0  0  0  0
 11  4  1  0  0  0  0
 11 14  1  1  0  0  0
 12 13  1  0  0  0  0
 12 11  1  0  0  0  0
 12  7  1  0  0  0  0
 12 16  1  6  0  0  0
 13 28  1  0  0  0  0
 13  6  1  0  0  0  0
 13 15  1  1  0  0  0
 14 56  1  0  0  0  0
 14 57  1  0  0  0  0
 14 58  1  0  0  0  0
 16 59  1  0  0  0  0
 16 60  1  0  0  0  0
 16 61  1  0  0  0  0
 17 21  1  0  0  0  0
 17  3  1  0  0  0  0
 17 18  1  1  0  0  0
 19 21  1  0  0  0  0
 19  2  1  0  0  0  0
 19 20  1  0  0  0  0
 19 62  1  6  0  0  0
 20 63  1  0  0  0  0
 21 64  1  1  0  0  0
 21 22  1  0  0  0  0
 22 65  1  0  0  0  0
 22 66  1  0  0  0  0
 22 67  1  0  0  0  0
 23 28  1  0  0  0  0
 23  7  1  0  0  0  0
 23 24  1  0  0  0  0
 23 68  1  1  0  0  0
 24 26  1  0  0  0  0
 25 69  1  0  0  0  0
 25 70  1  0  0  0  0
 25 71  1  0  0  0  0
 26 25  1  0  0  0  0
 26 27  2  0  0  0  0
 28 30  2  0  0  0  0
 29  6  1  0  0  0  0
 29 72  1  6  0  0  0
 29 40  1  0  0  0  0
 30 34  1  0  0  0  0
 30 32  1  0  0  0  0
 32 31  2  0  0  0  0
 32 33  1  0  0  0  0
 33 73  1  0  0  0  0
 34 35  1  0  0  0  0
 34 74  1  0  0  0  0
 34 75  1  0  0  0  0
 35 36  1  0  0  0  0
 35 76  1  0  0  0  0
 35 77  1  0  0  0  0
 36 38  2  0  0  0  0
 36 78  1  0  0  0  0
 37 79  1  0  0  0  0
 37 80  1  0  0  0  0
 37 81  1  0  0  0  0
 38 37  1  0  0  0  0
 38 39  1  0  0  0  0
 39 82  1  0  0  0  0
 39 83  1  0  0  0  0
 39 84  1  0  0  0  0
 40 85  1  0  0  0  0
M  END
>  <DRUGBANK_ID>
DB02703

>  <SECONDARY_ACCESSION_NUMBERS>
EXPT01507

>  <COMMON_NAME>
Fusidic acid

>  <CAS_NUMBER>
6990-06-3

>  <UNII>
59XE10C19C

>  <SYNONYMS>
Acide fusidique; Acido fusidico; Acidum fusidicum; Fucidate; Fucidin acid; Fusidate; Fusidic acid; Fusidine; Ramycin

$$$$
