
 OpenBabel10282417133D

117116  0  0  1  0  0  0  0  0999 V2000
  -15.6701  -28.1832  -11.6900 C   0  0  0  0  0  0  0  0  0  0  0  0
   -4.5064  -28.2171   -9.5501 C   0  0  0  0  0  0  0  0  0  0  0  0
  -14.2029  -27.9193  -11.6807 C   0  0  0  0  0  0  0  0  0  0  0  0
   -4.1939  -26.8708  -10.1906 C   0  0  0  0  0  0  0  0  0  0  0  0
  -13.6735  -26.8243  -11.1230 C   0  0  0  0  0  0  0  0  0  0  0  0
   -5.4577  -26.1293  -10.6290 C   0  0  0  0  0  0  0  0  0  0  0  0
  -12.2087  -26.4926  -11.1395 C   0  0  0  0  0  0  0  0  0  0  0  0
   -6.3531  -25.8360   -9.4667 C   0  0  0  0  0  0  0  0  0  0  0  0
  -11.9285  -25.2013  -11.9124 C   0  0  0  0  0  0  0  0  0  0  0  0
   -6.6863  -24.6030   -9.0691 C   0  0  0  0  0  0  0  0  0  0  0  0
  -12.6304  -24.0306  -11.2996 C   0  0  0  0  0  0  0  0  0  0  0  0
   -7.5166  -24.3647   -7.8499 C   0  0  0  0  0  0  0  0  0  0  0  0
  -11.9892  -22.9672  -10.8191 C   0  0  0  0  0  0  0  0  0  0  0  0
   -6.7215  -23.6034   -6.8433 C   0  0  0  0  0  0  0  0  0  0  0  0
  -12.7082  -21.8643  -10.0999 C   0  0  0  0  0  0  0  0  0  0  0  0
   -7.1219  -22.4496   -6.3132 C   0  0  0  0  0  0  0  0  0  0  0  0
  -12.2827  -21.7966   -8.6422 C   0  0  0  0  0  0  0  0  0  0  0  0
  -10.8414  -21.5112   -8.6445 C   0  0  0  0  0  0  0  0  0  0  0  0
   -6.2618  -21.6600   -5.3425 C   0  0  0  0  0  0  0  0  0  0  0  0
  -10.4451  -20.2954   -8.3218 C   0  0  0  0  0  0  0  0  0  0  0  0
   -9.0300  -20.0039   -8.4239 C   0  0  0  0  0  0  0  0  0  0  0  0
   -5.8219  -20.3056   -5.8854 C   0  0  0  0  0  0  0  0  0  0  0  0
   -8.6208  -18.7989   -9.2474 C   0  0  0  0  0  0  0  0  0  0  0  0
   -7.0992  -19.6156   -6.1542 C   0  0  0  0  0  0  0  0  0  0  0  0
   -9.3194  -17.5319   -8.7986 C   0  0  0  0  0  0  0  0  0  0  0  0
   -8.0303  -19.3195   -4.9703 C   0  0  0  0  0  0  0  0  0  0  0  0
   -8.7844  -17.2070   -7.4666 C   0  0  0  0  0  0  0  0  0  0  0  0
   -7.3415  -18.4553   -3.8841 C   0  0  0  0  0  0  0  0  0  0  0  0
   -7.2933  -16.8464   -7.4732 C   0  0  0  0  0  0  0  0  0  0  0  0
   -6.9731  -17.0156   -4.2102 C   0  0  0  0  0  0  0  0  0  0  0  0
   -6.8284  -15.5450   -8.0085 C   0  0  0  0  0  0  0  0  0  0  0  0
   -8.2514  -16.3463   -4.6352 C   0  0  0  0  0  0  0  0  0  0  0  0
  -10.4516   -9.6018   -6.0606 C   0  0  0  0  0  0  0  0  0  0  0  0
   -9.1279   -9.3737   -6.8853 C   0  0  0  0  0  0  0  0  0  0  0  0
   -9.6218  -13.8703   -6.2190 C   0  0  0  0  0  0  0  0  0  0  0  0
   -7.6426  -13.4238   -4.4887 C   0  0  0  0  0  0  0  0  0  0  0  0
   -9.1610  -13.6830   -4.7064 C   0  0  2  0  0  0  0  0  0  0  0  0
   -7.5371  -14.3975   -7.4255 C   0  0  0  0  0  0  0  0  0  0  0  0
   -9.3329  -15.9567   -3.7187 C   0  0  0  0  0  0  0  0  0  0  0  0
  -10.3012   -9.9191   -4.6172 N   0  0  0  0  0  0  0  0  0  0  0  0
   -6.9537  -13.3004   -7.2399 O   0  0  0  0  0  0  0  0  0  0  0  0
   -9.9806  -16.7962   -3.0791 O   0  0  0  0  0  0  0  0  0  0  0  0
   -8.8166  -11.3450   -5.3956 O   0  0  0  0  0  0  0  0  0  0  0  0
   -6.7240   -9.8563   -5.5061 O   0  0  0  0  0  0  0  0  0  0  0  0
   -8.7899  -14.6789   -7.0640 O   0  0  0  0  0  0  0  0  0  0  0  0
   -8.4013  -10.6422   -7.1603 O   0  0  0  0  0  0  0  0  0  0  0  0
   -7.1894  -12.1256   -4.7526 O   0  0  0  0  0  0  0  0  0  0  0  0
   -9.7162  -14.6810   -3.7916 O   0  0  0  0  0  0  0  0  0  0  0  0
   -7.3504  -11.1248   -5.9972 P   0  0  3  0  0  0  0  0  0  0  0  0
  -13.5571  -28.6498  -12.1602 H   0  0  0  0  0  0  0  0  0  0  0  0
  -14.3358  -26.1076  -10.6405 H   0  0  0  0  0  0  0  0  0  0  0  0
   -6.7310  -26.6836   -8.8986 H   0  0  0  0  0  0  0  0  0  0  0  0
   -6.3255  -23.7339   -9.6148 H   0  0  0  0  0  0  0  0  0  0  0  0
  -13.7121  -24.0623  -11.2118 H   0  0  0  0  0  0  0  0  0  0  0  0
  -10.9048  -22.9187  -10.9071 H   0  0  0  0  0  0  0  0  0  0  0  0
   -5.7657  -24.0031   -6.5258 H   0  0  0  0  0  0  0  0  0  0  0  0
   -8.1044  -22.0772   -6.6212 H   0  0  0  0  0  0  0  0  0  0  0  0
  -10.1188  -22.2285   -9.0269 H   0  0  0  0  0  0  0  0  0  0  0  0
  -11.1032  -19.5822   -7.8313 H   0  0  0  0  0  0  0  0  0  0  0  0
   -9.7120  -12.8373   -4.2872 H   0  0  0  0  0  0  0  0  0  0  0  0
  -16.2354  -27.3732  -11.2162 H   0  0  0  0  0  0  0  0  0  0  0  0
  -15.8828  -29.1100  -11.1521 H   0  0  0  0  0  0  0  0  0  0  0  0
  -16.0215  -28.2812  -12.7210 H   0  0  0  0  0  0  0  0  0  0  0  0
   -5.0688  -28.8497  -10.2440 H   0  0  0  0  0  0  0  0  0  0  0  0
   -3.5853  -28.7344   -9.2715 H   0  0  0  0  0  0  0  0  0  0  0  0
   -5.0993  -28.1026   -8.6376 H   0  0  0  0  0  0  0  0  0  0  0  0
   -3.5554  -27.0316  -11.0671 H   0  0  0  0  0  0  0  0  0  0  0  0
   -3.6205  -26.2545   -9.4867 H   0  0  0  0  0  0  0  0  0  0  0  0
   -6.0138  -26.7323  -11.3551 H   0  0  0  0  0  0  0  0  0  0  0  0
   -5.1696  -25.2011  -11.1370 H   0  0  0  0  0  0  0  0  0  0  0  0
  -11.8556  -26.4015  -10.1044 H   0  0  0  0  0  0  0  0  0  0  0  0
  -11.6352  -27.3047  -11.6006 H   0  0  0  0  0  0  0  0  0  0  0  0
  -10.8436  -25.0354  -11.9334 H   0  0  0  0  0  0  0  0  0  0  0  0
  -12.2588  -25.2931  -12.9522 H   0  0  0  0  0  0  0  0  0  0  0  0
   -7.8275  -25.3048   -7.3819 H   0  0  0  0  0  0  0  0  0  0  0  0
   -8.4305  -23.8405   -8.1521 H   0  0  0  0  0  0  0  0  0  0  0  0
  -12.4871  -20.9197  -10.6159 H   0  0  0  0  0  0  0  0  0  0  0  0
  -13.7913  -22.0010  -10.1228 H   0  0  0  0  0  0  0  0  0  0  0  0
  -12.8279  -20.9849   -8.1435 H   0  0  0  0  0  0  0  0  0  0  0  0
  -12.4599  -22.7147   -8.0795 H   0  0  0  0  0  0  0  0  0  0  0  0
   -5.3746  -22.2054   -5.0465 H   0  0  0  0  0  0  0  0  0  0  0  0
   -6.8674  -21.5153   -4.4446 H   0  0  0  0  0  0  0  0  0  0  0  0
   -8.9609  -19.8502   -7.3627 H   0  0  0  0  0  0  0  0  0  0  0  0
   -8.4027  -20.8603   -8.7008 H   0  0  0  0  0  0  0  0  0  0  0  0
   -5.2810  -20.3959   -6.8412 H   0  0  0  0  0  0  0  0  0  0  0  0
   -5.2163  -19.6812   -5.2296 H   0  0  0  0  0  0  0  0  0  0  0  0
   -7.5326  -18.7022   -9.1533 H   0  0  0  0  0  0  0  0  0  0  0  0
   -8.8199  -18.9621  -10.2988 H   0  0  0  0  0  0  0  0  0  0  0  0
   -7.4672  -20.2788   -6.9055 H   0  0  0  0  0  0  0  0  0  0  0  0
   -6.9053  -18.7781   -6.7493 H   0  0  0  0  0  0  0  0  0  0  0  0
   -9.1501  -16.6678   -9.4354 H   0  0  0  0  0  0  0  0  0  0  0  0
  -10.3976  -17.6717   -8.6734 H   0  0  0  0  0  0  0  0  0  0  0  0
   -8.3821  -20.2521   -4.5263 H   0  0  0  0  0  0  0  0  0  0  0  0
   -9.0124  -18.9176   -5.2503 H   0  0  0  0  0  0  0  0  0  0  0  0
   -9.4789  -16.5234   -6.9882 H   0  0  0  0  0  0  0  0  0  0  0  0
   -8.9687  -18.0632   -6.8467 H   0  0  0  0  0  0  0  0  0  0  0  0
   -6.4372  -18.9628   -3.5659 H   0  0  0  0  0  0  0  0  0  0  0  0
   -8.0309  -18.3979   -3.0453 H   0  0  0  0  0  0  0  0  0  0  0  0
   -7.0026  -16.8827   -6.4569 H   0  0  0  0  0  0  0  0  0  0  0  0
   -6.5921  -17.5539   -7.9257 H   0  0  0  0  0  0  0  0  0  0  0  0
   -6.1650  -17.0252   -4.9612 H   0  0  0  0  0  0  0  0  0  0  0  0
   -6.4961  -16.4278   -3.4227 H   0  0  0  0  0  0  0  0  0  0  0  0
   -5.7690  -15.4776   -7.7114 H   0  0  0  0  0  0  0  0  0  0  0  0
   -6.9224  -15.5613   -9.0870 H   0  0  0  0  0  0  0  0  0  0  0  0
   -8.8349  -17.0062   -5.2386 H   0  0  0  0  0  0  0  0  0  0  0  0
   -7.9887  -15.5604   -5.2965 H   0  0  0  0  0  0  0  0  0  0  0  0
  -11.0760   -8.7168   -6.0712 H   0  0  0  0  0  0  0  0  0  0  0  0
  -10.9897  -10.4240   -6.5529 H   0  0  0  0  0  0  0  0  0  0  0  0
   -8.4795   -8.6473   -6.3826 H   0  0  0  0  0  0  0  0  0  0  0  0
   -9.4001   -8.9350   -7.8515 H   0  0  0  0  0  0  0  0  0  0  0  0
   -9.7016  -13.0017   -6.8587 H   0  0  0  0  0  0  0  0  0  0  0  0
  -10.6402  -14.2787   -6.2221 H   0  0  0  0  0  0  0  0  0  0  0  0
   -7.3728  -13.6773   -3.4536 H   0  0  0  0  0  0  0  0  0  0  0  0
   -6.9794  -14.0519   -5.0670 H   0  0  0  0  0  0  0  0  0  0  0  0
  -10.8762  -10.7236   -4.3598 H   0  0  0  0  0  0  0  0  0  0  0  0
   -9.3556  -10.3579   -4.5220 H   0  0  0  0  0  0  0  0  0  0  0  0
   -9.4924  -11.6391   -6.0295 H   0  0  0  0  0  0  0  0  0  0  0  0
  1 61  1  0  0  0  0
  1 62  1  0  0  0  0
  1 63  1  0  0  0  0
  2 64  1  0  0  0  0
  2 65  1  0  0  0  0
  2 66  1  0  0  0  0
  3  1  1  0  0  0  0
  4  2  1  0  0  0  0
  4 67  1  0  0  0  0
  4 68  1  0  0  0  0
  5  3  2  0  0  0  0
  6  4  1  0  0  0  0
  6 69  1  0  0  0  0
  6 70  1  0  0  0  0
  7  5  1  0  0  0  0
  7 71  1  0  0  0  0
  7 72  1  0  0  0  0
  8  6  1  0  0  0  0
  9  7  1  0  0  0  0
  9 73  1  0  0  0  0
  9 74  1  0  0  0  0
 10  8  2  0  0  0  0
 11  9  1  0  0  0  0
 12 10  1  0  0  0  0
 12 75  1  0  0  0  0
 12 76  1  0  0  0  0
 13 11  2  3  0  0  0
 13 55  1  0  0  0  0
 14 12  1  0  0  0  0
 15 13  1  0  0  0  0
 15 77  1  0  0  0  0
 15 78  1  0  0  0  0
 16 14  2  0  0  0  0
 17 15  1  0  0  0  0
 17 79  1  0  0  0  0
 17 80  1  0  0  0  0
 18 17  1  0  0  0  0
 19 16  1  0  0  0  0
 19 81  1  0  0  0  0
 19 82  1  0  0  0  0
 20 18  2  0  0  0  0
 21 20  1  0  0  0  0
 21 83  1  0  0  0  0
 21 84  1  0  0  0  0
 22 19  1  0  0  0  0
 22 85  1  0  0  0  0
 22 86  1  0  0  0  0
 23 21  1  0  0  0  0
 23 87  1  0  0  0  0
 23 88  1  0  0  0  0
 24 22  1  0  0  0  0
 24 89  1  0  0  0  0
 24 90  1  0  0  0  0
 25 23  1  0  0  0  0
 25 91  1  0  0  0  0
 25 92  1  0  0  0  0
 26 24  1  0  0  0  0
 26 93  1  0  0  0  0
 26 94  1  0  0  0  0
 27 25  1  0  0  0  0
 27 95  1  0  0  0  0
 27 96  1  0  0  0  0
 28 26  1  0  0  0  0
 28 97  1  0  0  0  0
 28 98  1  0  0  0  0
 29 27  1  0  0  0  0
 29 99  1  0  0  0  0
 29100  1  0  0  0  0
 30 28  1  0  0  0  0
 30101  1  0  0  0  0
 30102  1  0  0  0  0
 31 29  1  0  0  0  0
 31103  1  0  0  0  0
 31104  1  0  0  0  0
 32 30  1  0  0  0  0
 32105  1  0  0  0  0
 32106  1  0  0  0  0
 33107  1  0  0  0  0
 33108  1  0  0  0  0
 34 33  1  0  0  0  0
 34109  1  0  0  0  0
 34110  1  0  0  0  0
 35111  1  0  0  0  0
 35112  1  0  0  0  0
 36113  1  0  0  0  0
 36114  1  0  0  0  0
 37 48  1  0  0  0  0
 37 60  1  1  0  0  0
 37 36  1  0  0  0  0
 37 35  1  0  0  0  0
 38 31  1  0  0  0  0
 39 32  1  0  0  0  0
 40 33  1  0  0  0  0
 40115  1  0  0  0  0
 40116  1  0  0  0  0
 41 38  2  0  0  0  0
 42 39  2  0  0  0  0
 43117  1  0  0  0  0
 45 35  1  0  0  0  0
 45 38  1  0  0  0  0
 46 34  1  0  0  0  0
 47 36  1  0  0  0  0
 48 39  1  0  0  0  0
 49 43  1  0  0  0  0
 49 44  2  0  0  0  0
 49 46  1  0  0  0  0
 49 47  1  0  0  0  0
 50  3  1  0  0  0  0
 51  5  1  0  0  0  0
 52  8  1  0  0  0  0
 53 10  1  0  0  0  0
 54 11  1  0  0  0  0
 56 14  1  0  0  0  0
 57 16  1  0  0  0  0
 58 18  1  0  0  0  0
 59 20  1  0  0  0  0
M  END
>  <DRUGBANK_ID>
DB03047

>  <SECONDARY_ACCESSION_NUMBERS>
EXPT01352

>  <COMMON_NAME>
L-Alpha-Phosphatidyl-Beta-Oleoyl-Gamma-Palmitoyl-Phosphatidylethanolamine

$$$$
