
 OpenBabel10282417123D

 14 14  0  0  0  0  0  0  0  0999 V2000
    0.7400    0.0507   -0.3512 N   0  0  0  0  0  0  0  0  0  0  0  0
    0.5533    0.0503    1.1271 C   0  0  0  0  0  0  0  0  0  0  0  0
   -0.7473   -0.5169    1.6904 C   0  0  0  0  0  0  0  0  0  0  0  0
   -0.5808    0.9667    1.5964 C   0  0  0  0  0  0  0  0  0  0  0  0
    1.8541   -0.1029    1.9274 C   0  0  0  0  0  0  0  0  0  0  0  0
    3.0052   -0.2541    1.1975 O   0  0  0  0  0  0  0  0  0  0  0  0
    1.8883   -0.0589    3.1418 O   0  0  0  0  0  0  0  0  0  0  0  0
    0.3087    0.9001   -0.7229 H   0  0  0  0  0  0  0  0  0  0  0  0
    1.7090    0.2249   -0.5731 H   0  0  0  0  0  0  0  0  0  0  0  0
   -1.4487   -0.9987    1.0169 H   0  0  0  0  0  0  0  0  0  0  0  0
   -0.7905   -0.9263    2.6969 H   0  0  0  0  0  0  0  0  0  0  0  0
   -0.5341    1.5171    2.5293 H   0  0  0  0  0  0  0  0  0  0  0  0
   -1.1696    1.4871    0.8437 H   0  0  0  0  0  0  0  0  0  0  0  0
    2.9627   -0.5114    0.2619 H   0  0  0  0  0  0  0  0  0  0  0  0
  1  2  1  0  0  0  0
  1  8  1  0  0  0  0
  1  9  1  0  0  0  0
  2  3  1  0  0  0  0
  2  4  1  0  0  0  0
  2  5  1  0  0  0  0
  3  4  1  0  0  0  0
  3 10  1  0  0  0  0
  3 11  1  0  0  0  0
  4 12  1  0  0  0  0
  4 13  1  0  0  0  0
  5  6  1  0  0  0  0
  5  7  2  0  0  0  0
  6 14  1  0  0  0  0
M  END
>  <DRUGBANK_ID>
DB02085

>  <SECONDARY_ACCESSION_NUMBERS>
EXPT00065

>  <COMMON_NAME>
1-Aminocyclopropanecarboxylic Acid

>  <CAS_NUMBER>
22059-21-8

>  <UNII>
3K9EJ633GL

$$$$
