
 OpenBabel10282417183D

 62 64  0  0  0  0  0  0  0  0999 V2000
    0.8881    0.0039   -0.0151 C   0  0  0  0  0  0  0  0  0  0  0  0
    0.1428    1.2891   -0.0551 C   0  0  0  0  0  0  0  0  0  0  0  0
    0.2954    2.1636   -1.1406 C   0  0  0  0  0  0  0  0  0  0  0  0
   -0.4494    3.3360   -1.2082 C   0  0  0  0  0  0  0  0  0  0  0  0
   -1.3927    3.6133   -0.2214 C   0  0  0  0  0  0  0  0  0  0  0  0
   -1.5771    2.7314    0.8435 C   0  0  0  0  0  0  0  0  0  0  0  0
   -0.7834    1.5911    0.9505 C   0  0  0  0  0  0  0  0  0  0  0  0
    0.1203   -1.2596   -0.0014 C   0  0  0  0  0  0  0  0  0  0  0  0
    0.2076   -2.1229    1.0846 C   0  0  0  0  0  0  0  0  0  0  0  0
   -0.5675   -3.2759    1.1211 C   0  0  0  0  0  0  0  0  0  0  0  0
   -1.4475   -3.6325    0.0851 C   0  0  0  0  0  0  0  0  0  0  0  0
   -1.5767   -2.6899   -0.9462 C   0  0  0  0  0  0  0  0  0  0  0  0
   -0.7738   -1.5500   -1.0250 C   0  0  0  0  0  0  0  0  0  0  0  0
    2.2486   -0.0227   -0.0287 C   0  0  0  0  0  0  0  0  0  0  0  0
    3.0293    1.2033    0.0500 C   0  0  0  0  0  0  0  0  0  0  0  0
    4.3344    1.2097   -0.2542 C   0  0  0  0  0  0  0  0  0  0  0  0
    5.0054   -0.0507   -0.7139 C   0  0  0  0  0  0  0  0  0  0  0  0
    4.2998   -1.3088   -0.3457 C   0  0  0  0  0  0  0  0  0  0  0  0
    2.9957   -1.2734   -0.0460 C   0  0  0  0  0  0  0  0  0  0  0  0
   -3.0883   -5.2160   -0.9600 C   0  0  0  0  0  0  0  0  0  0  0  0
   -1.8558   -5.8570    1.1309 C   0  0  0  0  0  0  0  0  0  0  0  0
    6.8423   -1.3076   -1.8033 C   0  0  0  0  0  0  0  0  0  0  0  0
    6.8005    1.2499   -1.7774 C   0  0  0  0  0  0  0  0  0  0  0  0
   -2.1064   -4.8564    0.0765 N   0  0  0  0  0  0  0  0  0  0  0  0
    6.1219   -0.0437   -1.3899 N   0  3  0  0  0  0  0  0  0  0  0  0
   -2.6476   -6.4381   -1.7516 C   0  0  0  0  0  0  0  0  0  0  0  0
   -0.4247   -6.3994    1.0884 C   0  0  0  0  0  0  0  0  0  0  0  0
    5.9541    2.0353   -2.7724 C   0  0  0  0  0  0  0  0  0  0  0  0
    6.9641   -1.4027   -3.3092 C   0  0  0  0  0  0  0  0  0  0  0  0
    1.0008    1.9350   -1.9352 H   0  0  0  0  0  0  0  0  0  0  0  0
   -0.3114    4.0180   -2.0422 H   0  0  0  0  0  0  0  0  0  0  0  0
   -1.9941    4.5160   -0.2863 H   0  0  0  0  0  0  0  0  0  0  0  0
   -2.3506    2.9244    1.5826 H   0  0  0  0  0  0  0  0  0  0  0  0
   -0.9064    0.9345    1.8099 H   0  0  0  0  0  0  0  0  0  0  0  0
    0.8990   -1.9289    1.9007 H   0  0  0  0  0  0  0  0  0  0  0  0
   -0.4462   -3.8927    2.0050 H   0  0  0  0  0  0  0  0  0  0  0  0
   -2.3140   -2.7918   -1.7322 H   0  0  0  0  0  0  0  0  0  0  0  0
   -0.8734   -0.8969   -1.8886 H   0  0  0  0  0  0  0  0  0  0  0  0
    2.5534    2.1331    0.3494 H   0  0  0  0  0  0  0  0  0  0  0  0
    4.8590    2.1547   -0.2080 H   0  0  0  0  0  0  0  0  0  0  0  0
    4.7780   -2.2758   -0.3272 H   0  0  0  0  0  0  0  0  0  0  0  0
    2.5209   -2.2197    0.1793 H   0  0  0  0  0  0  0  0  0  0  0  0
   -4.0626   -5.3945   -0.4912 H   0  0  0  0  0  0  0  0  0  0  0  0
   -3.2697   -4.4264   -1.6904 H   0  0  0  0  0  0  0  0  0  0  0  0
   -2.0946   -5.4407    2.1170 H   0  0  0  0  0  0  0  0  0  0  0  0
   -2.5359   -6.7092    1.0124 H   0  0  0  0  0  0  0  0  0  0  0  0
    7.8134   -1.3059   -1.2997 H   0  0  0  0  0  0  0  0  0  0  0  0
    6.3085   -2.1928   -1.4623 H   0  0  0  0  0  0  0  0  0  0  0  0
    7.0019    1.8089   -0.8579 H   0  0  0  0  0  0  0  0  0  0  0  0
    7.7710    1.0091   -2.2220 H   0  0  0  0  0  0  0  0  0  0  0  0
   -2.5976   -7.3313   -1.1231 H   0  0  0  0  0  0  0  0  0  0  0  0
   -3.3630   -6.6401   -2.5549 H   0  0  0  0  0  0  0  0  0  0  0  0
   -1.6616   -6.2812   -2.2005 H   0  0  0  0  0  0  0  0  0  0  0  0
    0.3402   -5.6374    1.2567 H   0  0  0  0  0  0  0  0  0  0  0  0
   -0.2825   -7.1501    1.8705 H   0  0  0  0  0  0  0  0  0  0  0  0
   -0.1989   -6.8461    0.1167 H   0  0  0  0  0  0  0  0  0  0  0  0
    4.9755    2.3283   -2.3829 H   0  0  0  0  0  0  0  0  0  0  0  0
    6.4627    2.9645   -3.0433 H   0  0  0  0  0  0  0  0  0  0  0  0
    5.7619    1.4577   -3.6810 H   0  0  0  0  0  0  0  0  0  0  0  0
    7.5969   -0.6118   -3.7192 H   0  0  0  0  0  0  0  0  0  0  0  0
    7.4198   -2.3611   -3.5788 H   0  0  0  0  0  0  0  0  0  0  0  0
    5.9836   -1.3448   -3.7932 H   0  0  0  0  0  0  0  0  0  0  0  0
  1  2  1  0  0  0  0
  1  8  1  0  0  0  0
  1 14  2  0  0  0  0
  2  3  1  0  0  0  0
  2  7  2  0  0  0  0
  3  4  2  0  0  0  0
  3 30  1  0  0  0  0
  4  5  1  0  0  0  0
  4 31  1  0  0  0  0
  5  6  2  0  0  0  0
  5 32  1  0  0  0  0
  6  7  1  0  0  0  0
  6 33  1  0  0  0  0
  7 34  1  0  0  0  0
  8  9  1  0  0  0  0
  8 13  2  0  0  0  0
  9 10  2  0  0  0  0
  9 35  1  0  0  0  0
 10 11  1  0  0  0  0
 10 36  1  0  0  0  0
 11 12  2  0  0  0  0
 11 24  1  0  0  0  0
 12 13  1  0  0  0  0
 12 37  1  0  0  0  0
 13 38  1  0  0  0  0
 14 15  1  0  0  0  0
 14 19  1  0  0  0  0
 15 16  2  0  0  0  0
 15 39  1  0  0  0  0
 16 17  1  0  0  0  0
 16 40  1  0  0  0  0
 17 18  1  0  0  0  0
 17 25  2  0  0  0  0
 18 19  2  0  0  0  0
 18 41  1  0  0  0  0
 19 42  1  0  0  0  0
 20 24  1  0  0  0  0
 20 26  1  0  0  0  0
 20 43  1  0  0  0  0
 20 44  1  0  0  0  0
 21 24  1  0  0  0  0
 21 27  1  0  0  0  0
 21 45  1  0  0  0  0
 21 46  1  0  0  0  0
 22 25  1  0  0  0  0
 22 29  1  0  0  0  0
 22 47  1  0  0  0  0
 22 48  1  0  0  0  0
 23 25  1  0  0  0  0
 23 28  1  0  0  0  0
 23 49  1  0  0  0  0
 23 50  1  0  0  0  0
 26 51  1  0  0  0  0
 26 52  1  0  0  0  0
 26 53  1  0  0  0  0
 27 54  1  0  0  0  0
 27 55  1  0  0  0  0
 27 56  1  0  0  0  0
 28 57  1  0  0  0  0
 28 58  1  0  0  0  0
 28 59  1  0  0  0  0
 29 60  1  0  0  0  0
 29 61  1  0  0  0  0
 29 62  1  0  0  0  0
M  CHG  1  25   1
M  END
>  <DRUGBANK_ID>
DB11279

>  <COMMON_NAME>
Brilliant green cation

>  <CAS_NUMBER>
18198-35-1

>  <UNII>
S85JD8CLBH

>  <SYNONYMS>
Brilliant green ion; Brilliant green, free form; Brilliant green(1+)

$$$$
