
 OpenBabel10282417193D

 83 87  0  0  1  0  0  0  0  0999 V2000
    0.9984    0.0644   -0.0482 C   0  0  0  0  0  0  0  0  0  0  0  0
    0.4768    0.1041    1.3791 C   0  0  0  0  0  0  0  0  0  0  0  0
    0.9055    1.3822    2.0371 C   0  0  0  0  0  0  0  0  0  0  0  0
    1.8439    1.4227    3.0557 C   0  0  0  0  0  0  0  0  0  0  0  0
    2.2320    2.6011    3.5950 N   0  0  0  0  0  0  0  0  0  0  0  0
    1.6513    3.7646    3.1826 C   0  0  0  0  0  0  0  0  0  0  0  0
    0.7653    3.6990    2.1034 C   0  0  0  0  0  0  0  0  0  0  0  0
    0.3559    2.5191    1.5382 N   0  0  0  0  0  0  0  0  0  0  0  0
    0.3019    4.8931    1.3493 C   0  0  0  0  0  0  0  0  0  0  0  0
    0.9837    5.8963    1.1453 O   0  0  0  0  0  0  0  0  0  0  0  0
   -0.9046    4.8229    0.7158 N   0  0  0  0  0  0  0  0  0  0  0  0
    1.9323    4.9025    3.9737 N   0  0  0  0  0  0  0  0  0  0  0  0
    1.4980    6.2338    3.8019 C   0  0  0  0  0  0  0  0  0  0  0  0
    0.1354    6.5458    3.8371 C   0  0  0  0  0  0  0  0  0  0  0  0
   -0.3393    7.7622    3.3131 C   0  0  0  0  0  0  0  0  0  0  0  0
    0.5137    8.7400    2.7724 C   0  0  0  0  0  0  0  0  0  0  0  0
    1.8861    8.4663    2.8466 C   0  0  0  0  0  0  0  0  0  0  0  0
    2.3738    7.2243    3.3341 C   0  0  0  0  0  0  0  0  0  0  0  0
   -0.0268    9.8781    2.1972 N   0  0  0  0  0  0  0  0  0  0  0  0
    0.3261   10.4470    0.8945 C   0  0  0  0  0  0  0  0  0  0  0  0
    1.0119   11.8138    1.0484 C   0  0  0  0  0  0  0  0  0  0  0  0
    0.2371   12.7629    1.9843 C   0  0  3  0  0  0  0  0  0  0  0  0
   -0.2988   12.0021    3.2345 C   0  0  0  0  0  0  0  0  0  0  0  0
   -0.9699   10.6757    2.9670 C   0  0  0  0  0  0  0  0  0  0  0  0
    0.9584   13.9774    2.4370 N   0  0  0  0  0  0  0  0  0  0  0  0
    1.5458   14.9366    1.4723 C   0  0  0  0  0  0  0  0  0  0  0  0
    3.0802   14.8034    1.1971 C   0  0  0  0  0  0  0  0  0  0  0  0
    3.8508   14.6747    2.4510 N   0  0  0  0  0  0  0  0  0  0  0  0
    3.3375   13.5103    3.1645 C   0  0  0  0  0  0  0  0  0  0  0  0
    1.8888   13.7685    3.5563 C   0  0  0  0  0  0  0  0  0  0  0  0
    5.2789   14.5221    2.2371 C   0  0  0  0  0  0  0  0  0  0  0  0
    2.3436    0.2240    3.5247 O   0  0  0  0  0  0  0  0  0  0  0  0
    3.1898    0.1600    4.6810 C   0  0  2  0  0  0  0  0  0  0  0  0
    2.4726    0.5016    5.9820 C   0  0  0  0  0  0  0  0  0  0  0  0
    2.8262    1.9436    6.2123 C   0  0  0  0  0  0  0  0  0  0  0  0
    4.1522    2.1137    5.6384 N   0  0  0  0  0  0  0  0  0  0  0  0
    4.4266    1.0651    4.6469 C   0  0  0  0  0  0  0  0  0  0  0  0
    5.0736    3.0892    5.9159 C   0  0  0  0  0  0  0  0  0  0  0  0
    6.2163    3.0644    5.4563 O   0  0  0  0  0  0  0  0  0  0  0  0
    4.7269    4.2079    6.8525 C   0  0  0  0  0  0  0  0  0  0  0  0
    3.5415    4.5926    7.3456 C   0  0  0  0  0  0  0  0  0  0  0  0
    0.6497    0.9309   -0.6217 H   0  0  0  0  0  0  0  0  0  0  0  0
    0.6520   -0.8394   -0.5552 H   0  0  0  0  0  0  0  0  0  0  0  0
    2.0940    0.0760   -0.0655 H   0  0  0  0  0  0  0  0  0  0  0  0
   -0.6185    0.0697    1.3816 H   0  0  0  0  0  0  0  0  0  0  0  0
    0.8193   -0.7820    1.9242 H   0  0  0  0  0  0  0  0  0  0  0  0
   -1.0318    3.9616    0.1956 H   0  0  0  0  0  0  0  0  0  0  0  0
   -1.0574    5.6747    0.1900 H   0  0  0  0  0  0  0  0  0  0  0  0
    2.7478    4.7643    4.5603 H   0  0  0  0  0  0  0  0  0  0  0  0
   -0.5883    5.7885    4.1270 H   0  0  0  0  0  0  0  0  0  0  0  0
   -1.4149    7.8902    3.2211 H   0  0  0  0  0  0  0  0  0  0  0  0
    2.6056    9.1989    2.4928 H   0  0  0  0  0  0  0  0  0  0  0  0
    3.4267    6.9874    3.1922 H   0  0  0  0  0  0  0  0  0  0  0  0
   -0.6107   10.6003    0.3385 H   0  0  0  0  0  0  0  0  0  0  0  0
    0.9344    9.7704    0.2857 H   0  0  0  0  0  0  0  0  0  0  0  0
    1.1215   12.2806    0.0590 H   0  0  0  0  0  0  0  0  0  0  0  0
    2.0173   11.6369    1.4273 H   0  0  0  0  0  0  0  0  0  0  0  0
   -0.6511   13.1051    1.4286 H   0  0  0  0  0  0  0  0  0  0  0  0
    0.5264   11.6754    3.8683 H   0  0  0  0  0  0  0  0  0  0  0  0
   -0.9366   12.6584    3.8365 H   0  0  0  0  0  0  0  0  0  0  0  0
   -1.1876   10.2223    3.9427 H   0  0  0  0  0  0  0  0  0  0  0  0
   -1.9132   10.8042    2.4323 H   0  0  0  0  0  0  0  0  0  0  0  0
    1.4194   15.9314    1.9301 H   0  0  0  0  0  0  0  0  0  0  0  0
    0.9920   14.9973    0.5271 H   0  0  0  0  0  0  0  0  0  0  0  0
    3.4282   15.6937    0.6580 H   0  0  0  0  0  0  0  0  0  0  0  0
    3.2510   13.9365    0.5470 H   0  0  0  0  0  0  0  0  0  0  0  0
    3.4344   12.6053    2.5526 H   0  0  0  0  0  0  0  0  0  0  0  0
    3.8973   13.3177    4.0854 H   0  0  0  0  0  0  0  0  0  0  0  0
    1.8054   14.6379    4.2161 H   0  0  0  0  0  0  0  0  0  0  0  0
    1.6425   12.9489    4.2162 H   0  0  0  0  0  0  0  0  0  0  0  0
    5.7855   14.3891    3.2020 H   0  0  0  0  0  0  0  0  0  0  0  0
    5.5114   13.6569    1.6089 H   0  0  0  0  0  0  0  0  0  0  0  0
    5.6947   15.4254    1.7848 H   0  0  0  0  0  0  0  0  0  0  0  0
    3.5068   -0.8904    4.7472 H   0  0  0  0  0  0  0  0  0  0  0  0
    2.9054   -0.0525    6.8237 H   0  0  0  0  0  0  0  0  0  0  0  0
    1.3923    0.3407    5.9661 H   0  0  0  0  0  0  0  0  0  0  0  0
    2.1077    2.6101    5.7342 H   0  0  0  0  0  0  0  0  0  0  0  0
    2.8033    2.1581    7.2767 H   0  0  0  0  0  0  0  0  0  0  0  0
    5.3350    0.5279    4.9444 H   0  0  0  0  0  0  0  0  0  0  0  0
    4.6027    1.4877    3.6506 H   0  0  0  0  0  0  0  0  0  0  0  0
    5.6031    4.7896    7.1335 H   0  0  0  0  0  0  0  0  0  0  0  0
    3.4597    5.4043    8.0580 H   0  0  0  0  0  0  0  0  0  0  0  0
    2.5949    4.1423    7.0939 H   0  0  0  0  0  0  0  0  0  0  0  0
  1  2  1  0  0  0  0
  1 42  1  0  0  0  0
  1 43  1  0  0  0  0
  1 44  1  0  0  0  0
  2  3  1  0  0  0  0
  2 45  1  0  0  0  0
  2 46  1  0  0  0  0
  3  4  2  0  0  0  0
  3  8  1  0  0  0  0
  4  5  1  0  0  0  0
  4 32  1  0  0  0  0
  5  6  2  0  0  0  0
  6  7  1  0  0  0  0
  6 12  1  0  0  0  0
  7  8  2  0  0  0  0
  7  9  1  0  0  0  0
  9 10  2  0  0  0  0
  9 11  1  0  0  0  0
 11 47  1  0  0  0  0
 11 48  1  0  0  0  0
 12 13  1  0  0  0  0
 12 49  1  0  0  0  0
 13 14  2  0  0  0  0
 13 18  1  0  0  0  0
 14 15  1  0  0  0  0
 14 50  1  0  0  0  0
 15 16  2  0  0  0  0
 15 51  1  0  0  0  0
 16 17  1  0  0  0  0
 16 19  1  0  0  0  0
 17 18  2  0  0  0  0
 17 52  1  0  0  0  0
 18 53  1  0  0  0  0
 19 20  1  0  0  0  0
 19 24  1  0  0  0  0
 20 21  1  0  0  0  0
 20 54  1  0  0  0  0
 20 55  1  0  0  0  0
 21 22  1  0  0  0  0
 21 56  1  0  0  0  0
 21 57  1  0  0  0  0
 22 23  1  0  0  0  0
 22 25  1  0  0  0  0
 22 58  1  0  0  0  0
 23 24  1  0  0  0  0
 23 59  1  0  0  0  0
 23 60  1  0  0  0  0
 24 61  1  0  0  0  0
 24 62  1  0  0  0  0
 25 26  1  0  0  0  0
 25 30  1  0  0  0  0
 26 27  1  0  0  0  0
 26 63  1  0  0  0  0
 26 64  1  0  0  0  0
 27 28  1  0  0  0  0
 27 65  1  0  0  0  0
 27 66  1  0  0  0  0
 28 29  1  0  0  0  0
 28 31  1  0  0  0  0
 29 30  1  0  0  0  0
 29 67  1  0  0  0  0
 29 68  1  0  0  0  0
 30 69  1  0  0  0  0
 30 70  1  0  0  0  0
 31 71  1  0  0  0  0
 31 72  1  0  0  0  0
 31 73  1  0  0  0  0
 33 32  1  0  0  0  0
 33 34  1  0  0  0  0
 33 37  1  0  0  0  0
 33 74  1  1  0  0  0
 34 35  1  0  0  0  0
 34 75  1  0  0  0  0
 34 76  1  0  0  0  0
 35 36  1  0  0  0  0
 35 77  1  0  0  0  0
 35 78  1  0  0  0  0
 36 37  1  0  0  0  0
 36 38  1  0  0  0  0
 37 79  1  0  0  0  0
 37 80  1  0  0  0  0
 38 39  2  0  0  0  0
 38 40  1  0  0  0  0
 40 41  2  0  0  0  0
 40 81  1  0  0  0  0
 41 82  1  0  0  0  0
 41 83  1  0  0  0  0
M  END
>  <DRUGBANK_ID>
DB12036

>  <COMMON_NAME>
Naquotinib

>  <CAS_NUMBER>
1448232-80-1

>  <UNII>
47DD4548PB

>  <SYNONYMS>
Naquotinib

$$$$
