H23
 OpenBabel10282417163D

 49 48  0  0  0  0  0  0  0  0999 V2000
    1.1055   -0.1750   -0.0583 C   0  0  0  0  0  0  0  0  0  0  0  0
    0.6734    0.0964    1.3731 C   0  0  0  0  0  0  0  0  0  0  0  0
    1.1768    1.4669    1.8270 C   0  0  0  0  0  0  0  0  0  0  0  0
    0.6153    2.5839    0.9398 C   0  0  0  0  0  0  0  0  0  0  0  0
   -0.9155    2.5781    0.9821 C   0  0  0  0  0  0  0  0  0  0  0  0
   -1.3797    2.7943    2.4249 C   0  0  0  0  0  0  0  0  0  0  0  0
   -0.8375    4.1379    2.9290 C   0  0  0  0  0  0  0  0  0  0  0  0
   -1.3903    5.2521    2.0480 C   0  0  0  0  0  0  0  0  0  0  0  0
   -2.9089    5.1703    2.1229 C   0  0  0  0  0  0  0  0  0  0  0  0
   -3.3241    5.4668    3.5764 C   0  0  0  0  0  0  0  0  0  0  0  0
   -2.9593    6.9089    4.0018 C   0  0  0  0  0  0  0  0  0  0  0  0
   -3.4778    7.9841    3.0410 C   0  0  0  0  0  0  0  0  0  0  0  0
   -5.3078    7.9841    3.0410 P   0  0  0  0  0  0  0  0  0  0  0  0
   -5.5221    6.4284    2.6273 O   0  0  0  0  0  0  0  0  0  0  0  0
   -5.3257    8.7551    1.7097 O   0  0  0  0  0  0  0  0  0  0  0  0
   -7.0378    7.9841    3.0410 O   0  0  0  0  0  0  0  0  0  0  0  0
   -2.7658    9.7154    3.2412 P   0  0  0  0  0  0  0  0  0  0  0  0
   -1.3453    9.8844    2.7646 O   0  0  0  0  0  0  0  0  0  0  0  0
   -3.7659   10.6380    2.3888 O   0  0  0  0  0  0  0  0  0  0  0  0
   -3.0563   10.3614    4.6664 O   0  0  0  0  0  0  0  0  0  0  0  0
   -3.0495    7.7524    1.6703 O   0  0  0  0  0  0  0  0  0  0  0  0
    0.6991    0.5623   -0.7587 H   0  0  0  0  0  0  0  0  0  0  0  0
    0.7534   -1.1515   -0.3907 H   0  0  0  0  0  0  0  0  0  0  0  0
    2.1964   -0.1379   -0.1276 H   0  0  0  0  0  0  0  0  0  0  0  0
   -0.4189    0.0274    1.4481 H   0  0  0  0  0  0  0  0  0  0  0  0
    1.0599   -0.6764    2.0424 H   0  0  0  0  0  0  0  0  0  0  0  0
    0.9045    1.6227    2.8786 H   0  0  0  0  0  0  0  0  0  0  0  0
    2.2692    1.5017    1.8123 H   0  0  0  0  0  0  0  0  0  0  0  0
    1.0260    3.5468    1.2614 H   0  0  0  0  0  0  0  0  0  0  0  0
    0.9591    2.4991   -0.0926 H   0  0  0  0  0  0  0  0  0  0  0  0
   -1.3061    3.3411    0.2995 H   0  0  0  0  0  0  0  0  0  0  0  0
   -1.3427    1.6524    0.5890 H   0  0  0  0  0  0  0  0  0  0  0  0
   -2.4703    2.7204    2.4733 H   0  0  0  0  0  0  0  0  0  0  0  0
   -1.0704    1.9945    3.0989 H   0  0  0  0  0  0  0  0  0  0  0  0
   -1.0939    4.2706    3.9815 H   0  0  0  0  0  0  0  0  0  0  0  0
    0.2512    4.1884    2.9503 H   0  0  0  0  0  0  0  0  0  0  0  0
   -1.0056    6.2229    2.3738 H   0  0  0  0  0  0  0  0  0  0  0  0
   -1.0572    5.1875    1.0075 H   0  0  0  0  0  0  0  0  0  0  0  0
   -3.3302    5.8047    1.3488 H   0  0  0  0  0  0  0  0  0  0  0  0
   -3.3327    4.2226    1.7851 H   0  0  0  0  0  0  0  0  0  0  0  0
   -4.3679    5.2074    3.7570 H   0  0  0  0  0  0  0  0  0  0  0  0
   -2.8730    4.7643    4.2791 H   0  0  0  0  0  0  0  0  0  0  0  0
   -3.3628    7.0829    5.0051 H   0  0  0  0  0  0  0  0  0  0  0  0
   -1.8730    6.9909    4.0985 H   0  0  0  0  0  0  0  0  0  0  0  0
   -5.1168    6.2049    1.7699 H   0  0  0  0  0  0  0  0  0  0  0  0
   -7.3098    7.2421    2.4673 H   0  0  0  0  0  0  0  0  0  0  0  0
   -4.5528   10.1872    1.9828 H   0  0  0  0  0  0  0  0  0  0  0  0
   -2.7896   11.3108    4.6029 H   0  0  0  0  0  0  0  0  0  0  0  0
   -3.4196    8.4832    1.1291 H   0  0  0  0  0  0  0  0  0  0  0  0
  1  2  1  0  0  0  0
  1 22  1  0  0  0  0
  1 23  1  0  0  0  0
  1 24  1  0  0  0  0
  2  3  1  0  0  0  0
  2 25  1  0  0  0  0
  2 26  1  0  0  0  0
  3  4  1  0  0  0  0
  3 27  1  0  0  0  0
  3 28  1  0  0  0  0
  4  5  1  0  0  0  0
  4 29  1  0  0  0  0
  4 30  1  0  0  0  0
  5  6  1  0  0  0  0
  5 31  1  0  0  0  0
  5 32  1  0  0  0  0
  6  7  1  0  0  0  0
  6 33  1  0  0  0  0
  6 34  1  0  0  0  0
  7  8  1  0  0  0  0
  7 35  1  0  0  0  0
  7 36  1  0  0  0  0
  8  9  1  0  0  0  0
  8 37  1  0  0  0  0
  8 38  1  0  0  0  0
  9 10  1  0  0  0  0
  9 39  1  0  0  0  0
  9 40  1  0  0  0  0
 10 11  1  0  0  0  0
 10 41  1  0  0  0  0
 10 42  1  0  0  0  0
 11 12  1  0  0  0  0
 11 43  1  0  0  0  0
 11 44  1  0  0  0  0
 12 13  1  0  0  0  0
 12 17  1  0  0  0  0
 12 21  1  0  0  0  0
 13 15  2  0  0  0  0
 13 14  1  0  0  0  0
 13 16  1  0  0  0  0
 14 45  1  0  0  0  0
 16 46  1  0  0  0  0
 17 18  2  0  0  0  0
 17 19  1  0  0  0  0
 17 20  1  0  0  0  0
 19 47  1  0  0  0  0
 20 48  1  0  0  0  0
 21 49  1  0  0  0  0
M  END
>  <DRUGBANK_ID>
DB07873

>  <COMMON_NAME>
Lauryl alcohol diphosphonic acid

>  <CAS_NUMBER>
16610-63-2

>  <UNII>
S888WM4024

$$$$
