
 OpenBabel10282417183D

 44 48  0  0  0  0  0  0  0  0999 V2000
   -1.5438    0.2669    2.1460 C   0  0  2  0  0  0  0  0  0  0  0  0
   -1.0446    1.6234    2.4868 C   0  0  0  0  0  0  0  0  0  0  0  0
   -1.5607   -0.7745    3.2273 C   0  0  2  0  0  0  0  0  0  0  0  0
   -2.0192    2.5998    2.4096 C   0  0  0  0  0  0  0  0  0  0  0  0
   -3.0317    0.7161    2.1888 C   0  0  1  0  0  0  0  0  0  0  0  0
   -3.2405    2.1325    2.1209 O   0  0  0  0  0  0  0  0  0  0  0  0
   -0.0072   -0.9497    3.3114 C   0  0  2  0  0  0  0  0  0  0  0  0
    0.1916    1.9010    2.7974 C   0  0  0  0  0  0  0  0  0  0  0  0
   -2.6875   -1.8127    2.5793 C   0  0  0  0  0  0  0  0  0  0  0  0
    0.1954   -2.1988    2.4949 N   0  0  0  0  0  0  0  0  0  0  0  0
    0.9353    0.6005    2.9343 C   0  0  0  0  0  0  0  0  0  0  0  0
   -0.6665   -0.5925    0.8604 C   0  0  0  0  0  0  0  0  0  0  0  0
   -3.3246   -1.4403    1.4123 C   0  0  0  0  0  0  0  0  0  0  0  0
   -3.6455   -0.0055    1.0587 C   0  0  2  0  0  0  0  0  0  0  0  0
   -1.6996    3.9368    2.5478 C   0  0  0  0  0  0  0  0  0  0  0  0
   -0.3654   -2.1142    1.1454 C   0  0  0  0  0  0  0  0  0  0  0  0
    0.6074    3.2713    2.7898 C   0  0  0  0  0  0  0  0  0  0  0  0
   -0.3843    4.2914    2.6686 C   0  0  0  0  0  0  0  0  0  0  0  0
    2.4791   -1.7098    2.7346 C   0  0  0  0  0  0  0  0  0  0  0  0
    2.8461   -1.2597    3.9558 C   0  0  0  0  0  0  0  0  0  0  0  0
    1.5036   -2.8147    2.5904 C   0  0  0  0  0  0  0  0  0  0  0  0
   -2.7150    4.8422    2.5117 O   0  0  0  0  0  0  0  0  0  0  0  0
   -3.0413    0.4073   -0.1701 O   0  0  0  0  0  0  0  0  0  0  0  0
    0.2151   -1.1984    4.3575 H   0  0  0  0  0  0  0  0  0  0  0  0
   -3.5032    0.4330    3.1525 H   0  0  0  0  0  0  0  0  0  0  0  0
   -1.9110   -0.4968    4.2289 H   0  0  0  0  0  0  0  0  0  0  0  0
   -2.5989   -2.8843    2.7744 H   0  0  0  0  0  0  0  0  0  0  0  0
    1.4010    0.5208    1.9494 H   0  0  0  0  0  0  0  0  0  0  0  0
    1.7443    0.8263    3.6136 H   0  0  0  0  0  0  0  0  0  0  0  0
    0.3545   -0.2283    0.7321 H   0  0  0  0  0  0  0  0  0  0  0  0
   -1.0292   -0.4426   -0.1513 H   0  0  0  0  0  0  0  0  0  0  0  0
   -2.9544   -1.9328    0.5055 H   0  0  0  0  0  0  0  0  0  0  0  0
   -4.7113    0.1845    0.9869 H   0  0  0  0  0  0  0  0  0  0  0  0
    0.2405   -2.5921    0.3604 H   0  0  0  0  0  0  0  0  0  0  0  0
   -1.2317   -2.7870    1.0866 H   0  0  0  0  0  0  0  0  0  0  0  0
    1.6384    3.5939    2.8446 H   0  0  0  0  0  0  0  0  0  0  0  0
   -0.1181    5.3540    2.6625 H   0  0  0  0  0  0  0  0  0  0  0  0
    2.5562   -1.0980    1.8390 H   0  0  0  0  0  0  0  0  0  0  0  0
    3.2175   -0.2508    4.0975 H   0  0  0  0  0  0  0  0  0  0  0  0
    2.5114   -1.7651    4.8549 H   0  0  0  0  0  0  0  0  0  0  0  0
    1.5312   -3.4873    3.4557 H   0  0  0  0  0  0  0  0  0  0  0  0
    1.7423   -3.4289    1.7130 H   0  0  0  0  0  0  0  0  0  0  0  0
   -3.5281    4.3021    2.4686 H   0  0  0  0  0  0  0  0  0  0  0  0
   -2.3196    1.0416    0.0319 H   0  0  0  0  0  0  0  0  0  0  0  0
  1  2  1  6  0  0  0
  1 12  1  0  0  0  0
  3  1  1  0  0  0  0
  3 26  1  1  0  0  0
  4  2  1  0  0  0  0
  4  6  1  0  0  0  0
  5  1  1  0  0  0  0
  5 25  1  1  0  0  0
  6  5  1  0  0  0  0
  7  3  1  0  0  0  0
  7 24  1  6  0  0  0
  7 10  1  0  0  0  0
  8  2  2  0  0  0  0
  8 11  1  0  0  0  0
  9  3  1  0  0  0  0
  9 13  2  0  0  0  0
  9 27  1  0  0  0  0
 10 16  1  0  0  0  0
 11  7  1  0  0  0  0
 11 28  1  0  0  0  0
 11 29  1  0  0  0  0
 12 30  1  0  0  0  0
 12 31  1  0  0  0  0
 13 14  1  0  0  0  0
 13 32  1  0  0  0  0
 14  5  1  0  0  0  0
 14 33  1  6  0  0  0
 14 23  1  0  0  0  0
 15  4  2  0  0  0  0
 15 18  1  0  0  0  0
 16 12  1  0  0  0  0
 16 34  1  0  0  0  0
 16 35  1  0  0  0  0
 17  8  1  0  0  0  0
 17 36  1  0  0  0  0
 18 17  2  0  0  0  0
 18 37  1  0  0  0  0
 19 21  1  0  0  0  0
 19 38  1  0  0  0  0
 20 19  2  0  0  0  0
 20 39  1  0  0  0  0
 20 40  1  0  0  0  0
 21 10  1  0  0  0  0
 21 41  1  0  0  0  0
 21 42  1  0  0  0  0
 22 15  1  0  0  0  0
 22 43  1  0  0  0  0
 23 44  1  0  0  0  0
M  END
>  <DRUGBANK_ID>
DB11490

>  <COMMON_NAME>
Nalorphine

>  <CAS_NUMBER>
62-67-9

>  <UNII>
U59WB2WRY2

>  <SYNONYMS>
Nalorfina; Nalorphine; Nalorphinum

$$$$
