
 OpenBabel10282417173D

 46 48  0  0  0  0  0  0  0  0999 V2000
    0.7377   -1.3878    1.0220 S   0  0  0  0  0  0  0  0  0  0  0  0
   -2.1027   -0.1000    1.1061 S   0  0  0  0  0  0  0  0  0  0  0  0
   -0.4360    1.6053   -1.7330 O   0  0  0  0  0  0  0  0  0  0  0  0
    5.4162   -0.1674   -0.2226 O   0  0  0  0  0  0  0  0  0  0  0  0
    0.4733    3.5740   -1.8774 O   0  0  0  0  0  0  0  0  0  0  0  0
    1.9398    1.7705   -1.5636 N   0  0  0  0  0  0  0  0  0  0  0  0
    3.2106   -0.5297    0.1791 N   0  0  0  0  0  0  0  0  0  0  0  0
    1.6041    1.0303    0.8648 N   0  0  0  0  0  0  0  0  0  0  0  0
    0.2667    1.1286    1.0829 N   0  0  0  0  0  0  0  0  0  0  0  0
    3.2889    2.3641   -1.3420 C   0  0  2  0  0  0  0  0  0  0  0  0
    4.0817    1.8156   -0.1214 C   0  0  0  0  0  0  0  0  0  0  0  0
    3.2066    3.8527   -1.1482 C   0  0  0  0  0  0  0  0  0  0  0  0
    2.2666    4.3466   -0.2259 C   0  0  0  0  0  0  0  0  0  0  0  0
    3.9761    4.7438   -1.8871 C   0  0  0  0  0  0  0  0  0  0  0  0
    4.2880    0.3125   -0.0841 C   0  0  0  0  0  0  0  0  0  0  0  0
    0.6872    2.4026   -1.7224 C   0  0  0  0  0  0  0  0  0  0  0  0
    1.8873    5.6721   -0.2549 C   0  0  0  0  0  0  0  0  0  0  0  0
    3.7496    6.1079   -1.7261 C   0  0  0  0  0  0  0  0  0  0  0  0
    2.6513    6.5621   -0.9881 C   0  0  0  0  0  0  0  0  0  0  0  0
   -0.4484    0.1921   -1.8060 C   0  0  0  0  0  0  0  0  0  0  0  0
    0.1440   -0.4078   -3.0077 C   0  0  0  0  0  0  0  0  0  0  0  0
    1.9748   -0.1923    0.7044 C   0  0  0  0  0  0  0  0  0  0  0  0
    0.8915    0.4038   -3.8534 C   0  0  0  0  0  0  0  0  0  0  0  0
    0.1661   -1.7970   -3.0982 C   0  0  0  0  0  0  0  0  0  0  0  0
    1.7436   -0.1456   -4.7571 C   0  0  0  0  0  0  0  0  0  0  0  0
    0.9549   -2.3513   -4.0815 C   0  0  0  0  0  0  0  0  0  0  0  0
    1.7131   -1.5196   -4.9199 C   0  0  0  0  0  0  0  0  0  0  0  0
   -0.4380   -0.0473    1.1420 C   0  0  0  0  0  0  0  0  0  0  0  0
    1.9679    0.7708   -1.5987 H   0  0  0  0  0  0  0  0  0  0  0  0
    3.4544   -1.5068    0.0687 H   0  0  0  0  0  0  0  0  0  0  0  0
   -0.1880    1.9711    0.7147 H   0  0  0  0  0  0  0  0  0  0  0  0
    3.8642    2.1057   -2.2442 H   0  0  0  0  0  0  0  0  0  0  0  0
    3.6656    2.1291    0.8415 H   0  0  0  0  0  0  0  0  0  0  0  0
    5.0830    2.2818   -0.1237 H   0  0  0  0  0  0  0  0  0  0  0  0
    1.6661    3.6526    0.3574 H   0  0  0  0  0  0  0  0  0  0  0  0
    4.7305    4.3912   -2.5863 H   0  0  0  0  0  0  0  0  0  0  0  0
    0.9731    5.9692    0.2495 H   0  0  0  0  0  0  0  0  0  0  0  0
    4.4076    6.8242   -2.2037 H   0  0  0  0  0  0  0  0  0  0  0  0
    2.3826    7.6114   -0.9852 H   0  0  0  0  0  0  0  0  0  0  0  0
    0.2415   -0.1601   -1.0718 H   0  0  0  0  0  0  0  0  0  0  0  0
   -1.4453   -0.2093   -1.6200 H   0  0  0  0  0  0  0  0  0  0  0  0
    0.8920    1.4831   -3.7689 H   0  0  0  0  0  0  0  0  0  0  0  0
   -0.4032   -2.4176   -2.4020 H   0  0  0  0  0  0  0  0  0  0  0  0
    2.3781    0.5314   -5.3159 H   0  0  0  0  0  0  0  0  0  0  0  0
    0.9868   -3.4283   -4.1942 H   0  0  0  0  0  0  0  0  0  0  0  0
    2.2658   -1.9390   -5.7463 H   0  0  0  0  0  0  0  0  0  0  0  0
  1 22  1  0  0  0  0
  1 28  1  0  0  0  0
  2 28  2  0  0  0  0
  3 16  1  0  0  0  0
  3 20  1  0  0  0  0
  4 15  2  0  0  0  0
  5 16  2  0  0  0  0
  6 16  1  0  0  0  0
  6 29  1  0  0  0  0
  7 15  1  0  0  0  0
  7 22  1  0  0  0  0
  7 30  1  0  0  0  0
  8  9  1  0  0  0  0
  8 22  2  0  0  0  0
  9 28  1  0  0  0  0
  9 31  1  0  0  0  0
 10  6  1  0  0  0  0
 10 11  1  0  0  0  0
 10 12  1  0  0  0  0
 10 32  1  6  0  0  0
 11 15  1  0  0  0  0
 11 33  1  0  0  0  0
 11 34  1  0  0  0  0
 12 13  2  0  0  0  0
 12 14  1  0  0  0  0
 13 17  1  0  0  0  0
 13 35  1  0  0  0  0
 14 18  2  0  0  0  0
 14 36  1  0  0  0  0
 17 19  2  0  0  0  0
 17 37  1  0  0  0  0
 18 19  1  0  0  0  0
 18 38  1  0  0  0  0
 19 39  1  0  0  0  0
 20 21  1  0  0  0  0
 20 40  1  0  0  0  0
 20 41  1  0  0  0  0
 21 23  2  0  0  0  0
 21 24  1  0  0  0  0
 23 25  1  0  0  0  0
 23 42  1  0  0  0  0
 24 26  2  0  0  0  0
 24 43  1  0  0  0  0
 25 27  2  0  0  0  0
 25 44  1  0  0  0  0
 26 27  1  0  0  0  0
 26 45  1  0  0  0  0
 27 46  1  0  0  0  0
M  END
>  <DRUGBANK_ID>
DB07987

>  <COMMON_NAME>
[2-(5-Mercapto-[1,3,4]thiadiazol-2-ylcarbamoyl)-1-phenyl-ethyl]-carbamic acid benzyl ester

$$$$
