
 OpenBabel10282417153D

 60 65  0  0  0  0  0  0  0  0999 V2000
    0.3029   -3.0068   -0.2577 C   0  0  1  0  0  0  0  0  0  0  0  0
    0.0283   -1.8089   -1.0334 O   0  0  0  0  0  0  0  0  0  0  0  0
   -0.8565   -3.2217    0.7295 C   0  0  2  0  0  0  0  0  0  0  0  0
    0.3261   -4.2290   -1.2031 C   0  0  0  0  0  0  0  0  0  0  0  0
   -0.2775   -0.6143   -0.2767 C   0  0  2  0  0  0  0  0  0  0  0  0
   -0.9974   -2.0205    1.6693 C   0  0  1  0  0  0  0  0  0  0  0  0
   -0.6838   -4.4024    1.5083 O   0  0  0  0  0  0  0  0  0  0  0  0
    1.4429   -4.9995   -1.1884 O   0  0  0  0  0  0  0  0  0  0  0  0
   -0.6164   -4.5156   -1.9328 O   0  0  0  0  0  0  0  0  0  0  0  0
   -1.1484   -0.7604    0.9057 C   0  0  1  0  0  0  0  0  0  0  0  0
   -2.1878   -2.1253    2.4615 O   0  0  0  0  0  0  0  0  0  0  0  0
   -1.0573    0.4124    1.7302 O   0  0  0  0  0  0  0  0  0  0  0  0
   -5.5864   -0.5171   -2.7595 C   0  0  2  0  0  0  0  0  0  0  0  0
   -5.6507    0.4146   -3.7825 C   0  0  0  0  0  0  0  0  0  0  0  0
   -4.2916   -1.1007   -3.3068 C   0  0  2  0  0  0  0  0  0  0  0  0
   -4.7373    0.3891   -1.4961 C   0  0  1  0  0  0  0  0  0  0  0  0
   -7.1198   -1.4520   -3.3500 C   0  0  0  0  0  0  0  0  0  0  0  0
   -6.0803    1.7490   -2.9958 C   0  0  0  0  0  0  0  0  0  0  0  0
   -5.2429   -0.3553   -4.9761 C   0  0  0  0  0  0  0  0  0  0  0  0
   -4.8921   -2.4544   -2.5937 C   0  0  1  0  0  0  0  0  0  0  0  0
   -3.0870   -0.2572   -3.2283 C   0  0  0  0  0  0  0  0  0  0  0  0
   -5.6047    1.6542   -1.6427 O   0  0  0  0  0  0  0  0  0  0  0  0
   -2.7075    0.5319   -1.4413 C   0  0  2  0  0  0  0  0  0  0  0  0
   -7.1147   -2.8665   -2.7119 C   0  0  0  0  0  0  0  0  0  0  0  0
   -6.3399    2.9609   -3.5577 C   0  0  0  0  0  0  0  0  0  0  0  0
   -4.5645   -2.1412   -3.9703 C   0  0  0  0  0  0  0  0  0  0  0  0
   -5.3608    1.2351   -5.3744 C   0  0  0  0  0  0  0  0  0  0  0  0
   -5.8512   -3.4837   -3.0135 N   0  0  0  0  0  0  0  0  0  0  0  0
   -2.3558   -0.6155   -2.2233 C   0  0  0  0  0  0  0  0  0  0  0  0
   -1.1478    0.5045   -0.8644 O   0  0  0  0  0  0  0  0  0  0  0  0
   -5.9222    2.7973   -4.8381 C   0  0  0  0  0  0  0  0  0  0  0  0
   -6.6561    4.1465   -2.9830 O   0  0  0  0  0  0  0  0  0  0  0  0
   -3.6109   -1.1548   -4.7186 H   0  0  0  0  0  0  0  0  0  0  0  0
   -5.6333   -4.8135   -2.4178 C   0  0  0  0  0  0  0  0  0  0  0  0
    1.2677   -2.9483    0.2716 H   0  0  0  0  0  0  0  0  0  0  0  0
   -1.7920   -3.3270    0.1633 H   0  0  0  0  0  0  0  0  0  0  0  0
    0.7384   -0.2960    0.0919 H   0  0  0  0  0  0  0  0  0  0  0  0
   -0.1494   -1.9462    2.3534 H   0  0  0  0  0  0  0  0  0  0  0  0
    0.0776   -4.2937    2.1011 H   0  0  0  0  0  0  0  0  0  0  0  0
    2.1963   -4.7601   -0.6201 H   0  0  0  0  0  0  0  0  0  0  0  0
   -2.1528   -0.7600    0.4898 H   0  0  0  0  0  0  0  0  0  0  0  0
   -2.9547   -2.0478    1.8596 H   0  0  0  0  0  0  0  0  0  0  0  0
   -0.1719    0.4590    2.1272 H   0  0  0  0  0  0  0  0  0  0  0  0
   -5.2445   -0.2093   -0.7271 H   0  0  0  0  0  0  0  0  0  0  0  0
   -8.1884   -1.3113   -3.7277 H   0  0  0  0  0  0  0  0  0  0  0  0
   -6.9925   -1.3898   -4.4792 H   0  0  0  0  0  0  0  0  0  0  0  0
   -4.7321   -2.3466   -1.4799 H   0  0  0  0  0  0  0  0  0  0  0  0
   -3.2963    0.7853   -3.5156 H   0  0  0  0  0  0  0  0  0  0  0  0
   -2.3490    1.3889   -2.0687 H   0  0  0  0  0  0  0  0  0  0  0  0
   -8.0071   -3.4978   -2.8474 H   0  0  0  0  0  0  0  0  0  0  0  0
   -7.0927   -2.7064   -1.6415 H   0  0  0  0  0  0  0  0  0  0  0  0
   -3.9518   -3.0337   -4.3361 H   0  0  0  0  0  0  0  0  0  0  0  0
   -3.2462   -2.3586   -3.3467 H   0  0  0  0  0  0  0  0  0  0  0  0
   -5.4151    1.5207   -6.4560 H   0  0  0  0  0  0  0  0  0  0  0  0
   -2.1908   -1.5892   -1.7897 H   0  0  0  0  0  0  0  0  0  0  0  0
   -6.0728    3.7200   -5.4738 H   0  0  0  0  0  0  0  0  0  0  0  0
   -7.5523    4.1479   -2.5876 H   0  0  0  0  0  0  0  0  0  0  0  0
   -4.7424   -4.8713   -1.7788 H   0  0  0  0  0  0  0  0  0  0  0  0
   -6.4879   -5.1500   -1.8201 H   0  0  0  0  0  0  0  0  0  0  0  0
   -5.4861   -5.5821   -3.1961 H   0  0  0  0  0  0  0  0  0  0  0  0
  1  2  1  0  0  0  0
  1  3  1  0  0  0  0
  1  4  1  0  0  0  0
  1 35  1  1  0  0  0
  2  5  1  0  0  0  0
  3  6  1  0  0  0  0
  3  7  1  0  0  0  0
  3 36  1  6  0  0  0
  4  8  1  0  0  0  0
  4  9  2  0  0  0  0
  5 10  1  0  0  0  0
  5 30  1  0  0  0  0
  5 37  1  1  0  0  0
  6 11  1  0  0  0  0
  6 10  1  0  0  0  0
  6 38  1  1  0  0  0
  7 39  1  0  0  0  0
  8 40  1  0  0  0  0
 10 12  1  0  0  0  0
 10 41  1  6  0  0  0
 11 42  1  0  0  0  0
 12 43  1  0  0  0  0
 13 14  1  1  0  0  0
 13 15  1  0  0  0  0
 13 16  1  0  0  0  0
 13 17  1  0  0  0  0
 14 18  2  0  0  0  0
 14 19  1  0  0  0  0
 15 20  1  0  0  0  0
 15 21  1  0  0  0  0
 15 33  1  6  0  0  0
 16 22  1  0  0  0  0
 16 23  1  0  0  0  0
 16 44  1  6  0  0  0
 17 24  1  0  0  0  0
 17 45  1  0  0  0  0
 17 46  1  0  0  0  0
 18 25  1  0  0  0  0
 18 22  1  0  0  0  0
 19 26  1  0  0  0  0
 19 27  2  0  0  0  0
 20 28  1  0  0  0  0
 20 26  1  0  0  0  0
 20 47  1  6  0  0  0
 21 29  2  0  0  0  0
 21 48  1  0  0  0  0
 23 29  1  0  0  0  0
 23 49  1  6  0  0  0
 23 30  1  0  0  0  0
 24 28  1  0  0  0  0
 24 50  1  0  0  0  0
 24 51  1  0  0  0  0
 25 31  2  0  0  0  0
 25 32  1  0  0  0  0
 26 52  1  0  0  0  0
 26 53  1  0  0  0  0
 27 31  1  0  0  0  0
 27 54  1  0  0  0  0
 28 34  1  0  0  0  0
 29 55  1  0  0  0  0
 31 56  1  0  0  0  0
 32 57  1  0  0  0  0
 34 58  1  0  0  0  0
 34 59  1  0  0  0  0
 34 60  1  0  0  0  0
M  END
>  <DRUGBANK_ID>
DB06409

>  <COMMON_NAME>
Morphine glucuronide

>  <CAS_NUMBER>
20290-10-2

>  <UNII>
64Y9KYM60R

>  <SYNONYMS>
M6G; Morphine 6-beta-D-glucopyranosiduronide; Morphine 6-glucuronide; Morphine glucuronide; Morphine-6-glucuronide

$$$$
