
 OpenBabel10282417123D

 21 20  0  0  1  0  0  0  0  0999 V2000
    0.9164    0.4007   -0.1855 N   0  0  0  0  0  0  0  0  0  0  0  0
    0.4663   -0.1031   -1.5018 C   0  0  1  0  0  0  0  0  0  0  0  0
    1.0423   -1.4831   -1.9260 C   0  0  0  0  0  0  0  0  0  0  0  0
    0.5752   -2.5977   -1.0899 N   0  0  0  0  0  0  0  0  0  0  0  0
    0.9735   -2.7478    0.1235 C   0  0  0  0  0  0  0  0  0  0  0  0
    1.9455   -2.0372    0.7501 N   0  0  0  0  0  0  0  0  0  0  0  0
    0.4262   -3.6777    0.9573 N   0  0  0  0  0  0  0  0  0  0  0  0
   -0.3659   -4.6650    0.3818 O   0  0  0  0  0  0  0  0  0  0  0  0
   -1.0784   -0.1480   -1.4856 C   0  0  0  0  0  0  0  0  0  0  0  0
   -1.6647    0.8098   -2.2479 O   0  0  0  0  0  0  0  0  0  0  0  0
   -1.7468   -0.9050   -0.8026 O   0  0  0  0  0  0  0  0  0  0  0  0
    0.6312   -0.3090    0.4984 H   0  0  0  0  0  0  0  0  0  0  0  0
    1.9252    0.5026   -0.1554 H   0  0  0  0  0  0  0  0  0  0  0  0
    0.8030    0.6393   -2.2342 H   0  0  0  0  0  0  0  0  0  0  0  0
    0.6995   -1.6804   -2.9513 H   0  0  0  0  0  0  0  0  0  0  0  0
    2.1380   -1.4609   -1.9817 H   0  0  0  0  0  0  0  0  0  0  0  0
    1.8033   -1.8078    1.7257 H   0  0  0  0  0  0  0  0  0  0  0  0
    2.3417   -1.2831    0.2127 H   0  0  0  0  0  0  0  0  0  0  0  0
    0.6854   -3.7884    1.9271 H   0  0  0  0  0  0  0  0  0  0  0  0
   -0.4912   -4.3376   -0.5356 H   0  0  0  0  0  0  0  0  0  0  0  0
   -1.0463    1.4459   -2.6473 H   0  0  0  0  0  0  0  0  0  0  0  0
  1 12  1  0  0  0  0
  1 13  1  0  0  0  0
  2  1  1  0  0  0  0
  2  3  1  0  0  0  0
  2  9  1  0  0  0  0
  2 14  1  6  0  0  0
  3  4  1  0  0  0  0
  3 15  1  0  0  0  0
  3 16  1  0  0  0  0
  4  5  2  0  0  0  0
  5  6  1  0  0  0  0
  5  7  1  0  0  0  0
  6 17  1  0  0  0  0
  6 18  1  0  0  0  0
  7  8  1  0  0  0  0
  7 19  1  0  0  0  0
  8 20  1  0  0  0  0
  9 10  1  0  0  0  0
  9 11  2  0  0  0  0
 10 21  1  0  0  0  0
M  END
>  <DRUGBANK_ID>
DB02499

>  <SECONDARY_ACCESSION_NUMBERS>
EXPT01209

>  <COMMON_NAME>
Dinor-N(Omega)-Hydroxy-L-Arginine

$$$$
