194
 OpenBabel10282417133D

 45 47  0  0  0  0  0  0  0  0999 V2000
    1.4105   -0.1155   -0.0861 C   0  0  0  0  0  0  0  0  0  0  0  0
    0.5762   -1.2261   -0.1276 C   0  0  0  0  0  0  0  0  0  0  0  0
   -0.8025   -1.0685   -0.1031 C   0  0  0  0  0  0  0  0  0  0  0  0
   -1.3321    0.2250   -0.0097 C   0  0  0  0  0  0  0  0  0  0  0  0
   -0.4872    1.3614    0.0785 C   0  0  0  0  0  0  0  0  0  0  0  0
    0.8920    1.1920   -0.0967 C   0  0  0  0  0  0  0  0  0  0  0  0
    1.8958    2.2507   -0.3881 C   0  0  0  0  0  0  0  0  0  0  0  0
    1.4512    3.4691   -0.7323 O   0  0  0  0  0  0  0  0  0  0  0  0
    3.1022    2.0188   -0.3379 O   0  0  0  0  0  0  0  0  0  0  0  0
   -1.1619    2.6378    0.4504 C   0  0  0  0  0  0  0  0  0  0  0  0
   -0.3804    3.6619    0.8460 O   0  0  0  0  0  0  0  0  0  0  0  0
   -2.3736    2.7602    0.4076 O   0  0  0  0  0  0  0  0  0  0  0  0
   -1.6963   -2.1160   -0.1079 O   0  0  0  0  0  0  0  0  0  0  0  0
   -1.2514   -3.4113    0.0898 C   0  0  0  0  0  0  0  0  0  0  0  0
   -0.5850   -3.8647    1.2431 C   0  0  0  0  0  0  0  0  0  0  0  0
   -0.4019   -5.2413    1.3612 C   0  0  0  0  0  0  0  0  0  0  0  0
   -0.5828   -6.1270    0.3124 C   0  0  0  0  0  0  0  0  0  0  0  0
   -1.2547   -5.6888   -0.8056 C   0  0  0  0  0  0  0  0  0  0  0  0
   -1.6103   -4.3395   -0.9098 C   0  0  0  0  0  0  0  0  0  0  0  0
   -0.0658   -2.9831    2.2291 N   0  0  0  0  0  0  0  0  0  0  0  0
    0.8813   -3.1761    3.2266 C   0  0  0  0  0  0  0  0  0  0  0  0
    1.1786   -2.2498    3.9795 O   0  0  0  0  0  0  0  0  0  0  0  0
    1.5793   -4.4743    3.4211 C   0  0  0  0  0  0  0  0  0  0  0  0
    2.2260   -5.1241    2.3560 C   0  0  0  0  0  0  0  0  0  0  0  0
    2.5998   -6.4692    2.5003 C   0  0  0  0  0  0  0  0  0  0  0  0
    2.4937   -7.1065    3.7423 C   0  0  0  0  0  0  0  0  0  0  0  0
    1.9914   -6.3969    4.8372 C   0  0  0  0  0  0  0  0  0  0  0  0
    1.4725   -5.1092    4.6650 C   0  0  0  0  0  0  0  0  0  0  0  0
    2.9972   -7.2421    1.3135 N   0  3  0  0  0  0  0  0  0  0  0  0
    3.3928   -8.4028    1.4865 O   0  5  0  0  0  0  0  0  0  0  0  0
    2.8791   -6.6975    0.2067 O   0  0  0  0  0  0  0  0  0  0  0  0
    2.4862   -0.2924   -0.0563 H   0  0  0  0  0  0  0  0  0  0  0  0
    1.0351   -2.2096   -0.1628 H   0  0  0  0  0  0  0  0  0  0  0  0
   -2.4172    0.3518    0.0142 H   0  0  0  0  0  0  0  0  0  0  0  0
    0.4988    3.6506   -0.8946 H   0  0  0  0  0  0  0  0  0  0  0  0
    0.5745    3.5415    1.0427 H   0  0  0  0  0  0  0  0  0  0  0  0
   -0.1026   -5.6859    2.2959 H   0  0  0  0  0  0  0  0  0  0  0  0
   -0.2277   -7.1500    0.4084 H   0  0  0  0  0  0  0  0  0  0  0  0
   -1.5442   -6.4184   -1.5560 H   0  0  0  0  0  0  0  0  0  0  0  0
   -2.1568   -4.0165   -1.7912 H   0  0  0  0  0  0  0  0  0  0  0  0
   -0.3293   -2.0057    2.1548 H   0  0  0  0  0  0  0  0  0  0  0  0
    2.2620   -4.6434    1.3800 H   0  0  0  0  0  0  0  0  0  0  0  0
    2.7803   -8.1494    3.8702 H   0  0  0  0  0  0  0  0  0  0  0  0
    1.9792   -6.8591    5.8221 H   0  0  0  0  0  0  0  0  0  0  0  0
    0.9506   -4.6219    5.4882 H   0  0  0  0  0  0  0  0  0  0  0  0
  1  2  2  0  0  0  0
  1  6  1  0  0  0  0
  1 32  1  0  0  0  0
  2  3  1  0  0  0  0
  2 33  1  0  0  0  0
  3  4  2  0  0  0  0
  3 13  1  0  0  0  0
  4  5  1  0  0  0  0
  4 34  1  0  0  0  0
  5  6  2  0  0  0  0
  5 10  1  0  0  0  0
  6  7  1  0  0  0  0
  7  8  1  0  0  0  0
  7  9  2  0  0  0  0
  8 35  1  0  0  0  0
 10 11  1  0  0  0  0
 10 12  2  0  0  0  0
 11 36  1  0  0  0  0
 13 14  1  0  0  0  0
 14 15  2  0  0  0  0
 14 19  1  0  0  0  0
 15 16  1  0  0  0  0
 15 20  1  0  0  0  0
 16 17  2  0  0  0  0
 16 37  1  0  0  0  0
 17 18  1  0  0  0  0
 17 38  1  0  0  0  0
 18 19  2  0  0  0  0
 18 39  1  0  0  0  0
 19 40  1  0  0  0  0
 20 21  1  0  0  0  0
 20 41  1  0  0  0  0
 21 22  2  0  0  0  0
 21 23  1  0  0  0  0
 23 24  2  0  0  0  0
 23 28  1  0  0  0  0
 24 25  1  0  0  0  0
 24 42  1  0  0  0  0
 25 26  2  0  0  0  0
 25 29  1  0  0  0  0
 26 27  1  0  0  0  0
 26 43  1  0  0  0  0
 27 28  2  0  0  0  0
 27 44  1  0  0  0  0
 28 45  1  0  0  0  0
 29 30  1  0  0  0  0
 29 31  2  0  0  0  0
M  CHG  2  29   1  30  -1
M  END
>  <DRUGBANK_ID>
DB04044

>  <SECONDARY_ACCESSION_NUMBERS>
EXPT00061

>  <COMMON_NAME>
4-{2-[(3-Nitrobenzoyl)Amino]Phenoxy}Phthalic Acid

$$$$
