W03
 OpenBabel10282417173D

 46 48  0  0  0  0  0  0  0  0999 V2000
   -0.9364    0.7472    0.2352 O   0  0  0  0  0  0  0  0  0  0  0  0
    0.3441    1.1984   -0.0363 N   0  0  0  0  0  0  0  0  0  0  0  0
    1.0911    0.0904   -0.0178 C   0  0  0  0  0  0  0  0  0  0  0  0
    2.5425    0.1299   -0.0441 C   0  0  0  0  0  0  0  0  0  0  0  0
    0.3630   -1.0754    0.1344 C   0  0  0  0  0  0  0  0  0  0  0  0
   -0.8677   -0.5772    0.4864 C   0  0  0  0  0  0  0  0  0  0  0  0
   -2.0528   -1.3584    0.5967 C   0  0  0  0  0  0  0  0  0  0  0  0
   -3.1971   -1.0307    1.5232 C   0  0  0  0  0  0  0  0  0  0  0  0
   -3.8540    0.2923    1.1334 C   0  0  0  0  0  0  0  0  0  0  0  0
   -4.7411    0.2300   -0.0318 O   0  0  0  0  0  0  0  0  0  0  0  0
   -4.2143    0.0512   -1.2970 C   0  0  0  0  0  0  0  0  0  0  0  0
   -3.7925   -1.2253   -1.7701 C   0  0  0  0  0  0  0  0  0  0  0  0
   -3.9829   -2.5748   -1.0735 C   0  0  0  0  0  0  0  0  0  0  0  0
   -2.9828   -1.2538   -2.9313 C   0  0  0  0  0  0  0  0  0  0  0  0
   -2.8595   -0.1561   -3.7829 C   0  0  0  0  0  0  0  0  0  0  0  0
   -3.5098    1.0263   -3.4388 C   0  0  0  0  0  0  0  0  0  0  0  0
   -4.1679    1.1575   -2.1918 C   0  0  0  0  0  0  0  0  0  0  0  0
   -4.8505    2.4747   -1.9169 C   0  0  0  0  0  0  0  0  0  0  0  0
   -2.1663   -0.3090   -5.0448 C   0  0  0  0  0  0  0  0  0  0  0  0
   -1.1938    0.5136   -5.5611 C   0  0  0  0  0  0  0  0  0  0  0  0
   -2.4138   -1.3408   -5.9230 N   0  0  0  0  0  0  0  0  0  0  0  0
   -1.6274   -1.0805   -6.9475 C   0  0  0  0  0  0  0  0  0  0  0  0
   -1.4994   -1.8101   -8.2265 C   0  0  0  0  0  0  0  0  0  0  0  0
   -0.8405    0.0295   -6.7889 O   0  0  0  0  0  0  0  0  0  0  0  0
    2.8878    0.6510   -0.9325 H   0  0  0  0  0  0  0  0  0  0  0  0
    2.8705    0.6237    0.8733 H   0  0  0  0  0  0  0  0  0  0  0  0
    2.9254   -0.8959   -0.0381 H   0  0  0  0  0  0  0  0  0  0  0  0
    0.6243   -2.1128    0.0738 H   0  0  0  0  0  0  0  0  0  0  0  0
   -2.3444   -1.1018   -0.3876 H   0  0  0  0  0  0  0  0  0  0  0  0
   -1.7945   -2.4238    0.5724 H   0  0  0  0  0  0  0  0  0  0  0  0
   -4.0043   -1.7756    1.4647 H   0  0  0  0  0  0  0  0  0  0  0  0
   -2.8390   -1.0914    2.5533 H   0  0  0  0  0  0  0  0  0  0  0  0
   -4.5049    0.5501    1.9795 H   0  0  0  0  0  0  0  0  0  0  0  0
   -3.1243    1.1060    1.0769 H   0  0  0  0  0  0  0  0  0  0  0  0
   -3.5667   -2.7552   -0.0915 H   0  0  0  0  0  0  0  0  0  0  0  0
   -5.0300   -2.7989   -0.9053 H   0  0  0  0  0  0  0  0  0  0  0  0
   -3.4268   -3.3525   -1.6104 H   0  0  0  0  0  0  0  0  0  0  0  0
   -2.4023   -2.1470   -3.1625 H   0  0  0  0  0  0  0  0  0  0  0  0
   -3.5208    1.8506   -4.1522 H   0  0  0  0  0  0  0  0  0  0  0  0
   -5.9054    2.3097   -1.6794 H   0  0  0  0  0  0  0  0  0  0  0  0
   -4.3616    3.0243   -1.1092 H   0  0  0  0  0  0  0  0  0  0  0  0
   -4.8370    3.1240   -2.8055 H   0  0  0  0  0  0  0  0  0  0  0  0
   -0.6801    1.4032   -5.2287 H   0  0  0  0  0  0  0  0  0  0  0  0
   -1.7560   -1.1609   -9.0694 H   0  0  0  0  0  0  0  0  0  0  0  0
   -0.4773   -2.1734   -8.3668 H   0  0  0  0  0  0  0  0  0  0  0  0
   -2.1734   -2.6724   -8.2478 H   0  0  0  0  0  0  0  0  0  0  0  0
  1  2  1  0  0  0  0
  1  6  1  0  0  0  0
  2  3  2  0  0  0  0
  3  4  1  0  0  0  0
  3  5  1  0  0  0  0
  4 25  1  0  0  0  0
  4 26  1  0  0  0  0
  4 27  1  0  0  0  0
  5  6  2  0  0  0  0
  5 28  1  0  0  0  0
  6  7  1  0  0  0  0
  7  8  1  0  0  0  0
  7 29  1  0  0  0  0
  7 30  1  0  0  0  0
  8  9  1  0  0  0  0
  8 31  1  0  0  0  0
  8 32  1  0  0  0  0
  9 10  1  0  0  0  0
  9 33  1  0  0  0  0
  9 34  1  0  0  0  0
 10 11  1  0  0  0  0
 11 12  2  0  0  0  0
 11 17  1  0  0  0  0
 12 13  1  0  0  0  0
 12 14  1  0  0  0  0
 13 35  1  0  0  0  0
 13 36  1  0  0  0  0
 13 37  1  0  0  0  0
 14 15  2  0  0  0  0
 14 38  1  0  0  0  0
 15 16  1  0  0  0  0
 15 19  1  0  0  0  0
 16 17  2  0  0  0  0
 16 39  1  0  0  0  0
 17 18  1  0  0  0  0
 18 40  1  0  0  0  0
 18 41  1  0  0  0  0
 18 42  1  0  0  0  0
 19 20  2  0  0  0  0
 19 21  1  0  0  0  0
 20 24  1  0  0  0  0
 20 43  1  0  0  0  0
 21 22  2  0  0  0  0
 22 23  1  0  0  0  0
 22 24  1  0  0  0  0
 23 44  1  0  0  0  0
 23 45  1  0  0  0  0
 23 46  1  0  0  0  0
M  END
>  <DRUGBANK_ID>
DB08715

>  <COMMON_NAME>
2,6-DIMETHYL-1-(3-[3-METHYL-5-ISOXAZOLYL]-PROPANYL)-4-[2-METHYL-4-ISOXAZOLYL]-PHENOL

$$$$
