
 OpenBabel10282417223D

 88 93  0  0  0  0  0  0  0  0999 V2000
    0.9918   -0.0200    0.1080 O   0  0  0  0  0  0  0  0  0  0  0  0
    0.4084    1.1159    0.5089 C   0  0  0  0  0  0  0  0  0  0  0  0
    0.9780    2.1008    0.9292 O   0  0  0  0  0  0  0  0  0  0  0  0
   -1.0084    0.9383    0.2559 C   0  0  0  0  0  0  0  0  0  0  0  0
   -1.6341   -0.2383    0.8218 C   0  0  0  0  0  0  0  0  0  0  0  0
   -2.9645   -0.4356    0.8994 C   0  0  0  0  0  0  0  0  0  0  0  0
   -3.5644    0.7099    0.6156 C   0  0  0  0  0  0  0  0  0  0  0  0
   -4.7541    0.8247    2.0708 C   0  0  0  0  0  0  0  0  0  0  0  0
   -5.8116    2.4142    2.8568 C   0  0  0  0  0  0  0  0  0  0  0  0
   -5.7266    3.6299    1.0746 C   0  0  0  0  0  0  0  0  0  0  0  0
   -5.6701    2.4204   -0.4493 C   0  0  0  0  0  0  0  0  0  0  0  0
   -5.7313    0.5743   -0.2628 C   0  0  0  0  0  0  0  0  0  0  0  0
   -5.9943   -0.9349   -0.7403 C   0  0  0  0  0  0  0  0  0  0  0  0
   -7.3229   -1.0833   -1.5570 C   0  0  0  0  0  0  0  0  0  0  0  0
   -7.6873    0.1419   -2.1584 N   0  0  0  0  0  0  0  0  0  0  0  0
   -8.7985    0.6906   -3.1227 S   0  0  0  0  0  0  0  0  0  0  0  0
  -10.0099    0.3785   -2.4131 O   0  0  0  0  0  0  0  0  0  0  0  0
   -8.3901    2.0766   -3.1590 O   0  0  0  0  0  0  0  0  0  0  0  0
   -8.4501   -0.4002   -4.5688 C   0  0  0  0  0  0  0  0  0  0  0  0
   -7.1380   -0.2407   -5.3319 C   0  0  0  0  0  0  0  0  0  0  0  0
   -6.7167    1.0034   -5.8261 C   0  0  0  0  0  0  0  0  0  0  0  0
   -5.4668    1.0817   -6.4991 C   0  0  0  0  0  0  0  0  0  0  0  0
   -4.6178   -0.0052   -6.6581 C   0  0  0  0  0  0  0  0  0  0  0  0
   -5.0633   -1.2390   -6.2336 C   0  0  0  0  0  0  0  0  0  0  0  0
   -6.3551   -1.3718   -5.6878 C   0  0  0  0  0  0  0  0  0  0  0  0
   -7.5664    2.2468   -5.6328 C   0  0  0  0  0  0  0  0  0  0  0  0
   -7.1784    3.1239   -4.6840 F   0  0  0  0  0  0  0  0  0  0  0  0
   -7.6620    2.9864   -6.7566 F   0  0  0  0  0  0  0  0  0  0  0  0
   -8.8602    1.9115   -5.3685 F   0  0  0  0  0  0  0  0  0  0  0  0
   -6.6397    1.4648   -0.2246 N   0  0  0  0  0  0  0  0  0  0  0  0
   -6.2554    1.9951    1.2541 C   0  0  0  0  0  0  0  0  0  0  0  0
   -4.3533    2.8981    1.8643 C   0  0  0  0  0  0  0  0  0  0  0  0
   -4.1666    4.6040    2.0368 C   0  0  0  0  0  0  0  0  0  0  0  0
   -3.0785    5.3503    1.7261 C   0  0  0  0  0  0  0  0  0  0  0  0
   -1.9527    4.6275    1.7412 C   0  0  0  0  0  0  0  0  0  0  0  0
   -1.9669    3.3038    2.1938 C   0  0  0  0  0  0  0  0  0  0  0  0
   -3.0913    2.4736    2.3392 C   0  0  0  0  0  0  0  0  0  0  0  0
   -7.6887    3.1728    0.9722 C   0  0  0  0  0  0  0  0  0  0  0  0
   -8.8086    2.5173    1.1821 C   0  0  0  0  0  0  0  0  0  0  0  0
   -9.7759    3.4370    1.2406 C   0  0  0  0  0  0  0  0  0  0  0  0
   -9.5422    4.8695    1.2987 C   0  0  0  0  0  0  0  0  0  0  0  0
   -8.3327    5.4842    1.2709 C   0  0  0  0  0  0  0  0  0  0  0  0
   -7.5489    4.6748    0.5927 C   0  0  0  0  0  0  0  0  0  0  0  0
   -5.7953    1.6089   -1.6750 C   0  0  0  0  0  0  0  0  0  0  0  0
   -5.5291    2.8802   -1.6652 C   0  0  0  0  0  0  0  0  0  0  0  0
   -5.3156    3.6661   -2.7126 C   0  0  0  0  0  0  0  0  0  0  0  0
   -4.9319    2.8506   -3.7710 C   0  0  0  0  0  0  0  0  0  0  0  0
   -4.6096    3.7558   -5.1867 Cl  0  0  0  0  0  0  0  0  0  0  0  0
   -4.8734    1.4404   -3.7050 C   0  0  0  0  0  0  0  0  0  0  0  0
   -5.2663    0.7599   -2.6311 C   0  0  0  0  0  0  0  0  0  0  0  0
   -3.0139    1.8665   -0.2349 C   0  0  0  0  0  0  0  0  0  0  0  0
   -1.6758    1.9806   -0.3610 C   0  0  0  0  0  0  0  0  0  0  0  0
    1.9542    0.1084    0.1474 H   0  0  0  0  0  0  0  0  0  0  0  0
   -1.0792   -0.9615    1.3813 H   0  0  0  0  0  0  0  0  0  0  0  0
   -3.5189   -1.0713    1.5743 H   0  0  0  0  0  0  0  0  0  0  0  0
   -4.7271    1.3094    1.1014 H   0  0  0  0  0  0  0  0  0  0  0  0
   -5.3633   -0.0877    1.9570 H   0  0  0  0  0  0  0  0  0  0  0  0
   -6.9627    2.2241    3.0739 H   0  0  0  0  0  0  0  0  0  0  0  0
   -5.2789    2.4228    3.8036 H   0  0  0  0  0  0  0  0  0  0  0  0
   -6.2023    4.2815    1.8509 H   0  0  0  0  0  0  0  0  0  0  0  0
   -4.8471    3.9771    0.4036 H   0  0  0  0  0  0  0  0  0  0  0  0
   -5.0435   -1.2522   -1.2144 H   0  0  0  0  0  0  0  0  0  0  0  0
   -6.0014   -1.7953   -0.0330 H   0  0  0  0  0  0  0  0  0  0  0  0
   -7.1681   -1.8033   -2.3603 H   0  0  0  0  0  0  0  0  0  0  0  0
   -8.1462   -1.2812   -0.8815 H   0  0  0  0  0  0  0  0  0  0  0  0
   -7.6428    1.0031   -1.6448 H   0  0  0  0  0  0  0  0  0  0  0  0
   -8.4879   -1.4097   -4.1457 H   0  0  0  0  0  0  0  0  0  0  0  0
   -9.2811   -0.2540   -5.2423 H   0  0  0  0  0  0  0  0  0  0  0  0
   -5.0309    2.0352   -6.7571 H   0  0  0  0  0  0  0  0  0  0  0  0
   -3.6300    0.1517   -7.0853 H   0  0  0  0  0  0  0  0  0  0  0  0
   -4.3872   -2.0835   -6.3206 H   0  0  0  0  0  0  0  0  0  0  0  0
   -6.7460   -2.3809   -5.5676 H   0  0  0  0  0  0  0  0  0  0  0  0
   -6.7396    1.0680    1.8509 H   0  0  0  0  0  0  0  0  0  0  0  0
   -4.9496    5.3550    1.7305 H   0  0  0  0  0  0  0  0  0  0  0  0
   -3.2318    6.3711    1.3814 H   0  0  0  0  0  0  0  0  0  0  0  0
   -1.0283    5.0813    1.4480 H   0  0  0  0  0  0  0  0  0  0  0  0
   -1.0347    2.7616    2.1670 H   0  0  0  0  0  0  0  0  0  0  0  0
   -2.7545    1.4557    2.3754 H   0  0  0  0  0  0  0  0  0  0  0  0
   -8.7778    1.4430    1.2085 H   0  0  0  0  0  0  0  0  0  0  0  0
  -10.7443    3.0017    1.2847 H   0  0  0  0  0  0  0  0  0  0  0  0
  -10.3695    5.5333    1.2022 H   0  0  0  0  0  0  0  0  0  0  0  0
   -8.0124    6.5012    1.4632 H   0  0  0  0  0  0  0  0  0  0  0  0
   -6.6114    5.2091    0.2803 H   0  0  0  0  0  0  0  0  0  0  0  0
   -5.2492    4.7317   -2.7295 H   0  0  0  0  0  0  0  0  0  0  0  0
   -4.7320    0.6701   -4.4248 H   0  0  0  0  0  0  0  0  0  0  0  0
   -5.3902   -0.3003   -2.6917 H   0  0  0  0  0  0  0  0  0  0  0  0
   -3.4688    2.8636   -0.3585 H   0  0  0  0  0  0  0  0  0  0  0  0
   -1.2627    2.9742   -0.5673 H   0  0  0  0  0  0  0  0  0  0  0  0
  1  2  1  0  0  0  0
  1 53  1  0  0  0  0
  2  3  2  0  0  0  0
  2  4  1  0  0  0  0
  4  5  2  0  0  0  0
  4 52  1  0  0  0  0
  5  6  1  0  0  0  0
  5 54  1  0  0  0  0
  6  7  2  0  0  0  0
  6 55  1  0  0  0  0
  7  8  1  0  0  0  0
  7 51  1  0  0  0  0
  8  9  1  0  0  0  0
  8 56  1  0  0  0  0
  8 57  1  0  0  0  0
  9 10  1  0  0  0  0
  9 58  1  0  0  0  0
  9 59  1  0  0  0  0
 10 11  1  0  0  0  0
 10 60  1  0  0  0  0
 10 61  1  0  0  0  0
 11 12  2  0  0  0  0
 11 45  1  0  0  0  0
 12 13  1  0  0  0  0
 12 30  1  0  0  0  0
 13 14  1  0  0  0  0
 13 62  1  0  0  0  0
 13 63  1  0  0  0  0
 14 15  1  0  0  0  0
 14 64  1  0  0  0  0
 14 65  1  0  0  0  0
 15 16  1  0  0  0  0
 15 66  1  0  0  0  0
 16 17  2  0  0  0  0
 16 18  2  0  0  0  0
 16 19  1  0  0  0  0
 19 20  1  0  0  0  0
 19 67  1  0  0  0  0
 19 68  1  0  0  0  0
 20 21  2  0  0  0  0
 20 25  1  0  0  0  0
 21 22  1  0  0  0  0
 21 26  1  0  0  0  0
 22 23  2  0  0  0  0
 22 69  1  0  0  0  0
 23 24  1  0  0  0  0
 23 70  1  0  0  0  0
 24 25  2  0  0  0  0
 24 71  1  0  0  0  0
 25 72  1  0  0  0  0
 26 27  1  0  0  0  0
 26 28  1  0  0  0  0
 26 29  1  0  0  0  0
 30 31  1  0  0  0  0
 30 44  1  0  0  0  0
 31 32  1  0  0  0  0
 31 38  1  0  0  0  0
 31 73  1  0  0  0  0
 32 33  2  0  0  0  0
 32 37  1  0  0  0  0
 33 34  1  0  0  0  0
 33 74  1  0  0  0  0
 34 35  2  0  0  0  0
 34 75  1  0  0  0  0
 35 36  1  0  0  0  0
 35 76  1  0  0  0  0
 36 37  2  0  0  0  0
 36 77  1  0  0  0  0
 37 78  1  0  0  0  0
 38 39  2  0  0  0  0
 38 43  1  0  0  0  0
 39 40  1  0  0  0  0
 39 79  1  0  0  0  0
 40 41  2  0  0  0  0
 40 80  1  0  0  0  0
 41 42  1  0  0  0  0
 41 81  1  0  0  0  0
 42 43  2  0  0  0  0
 42 82  1  0  0  0  0
 43 83  1  0  0  0  0
 44 45  2  0  0  0  0
 44 50  1  0  0  0  0
 45 46  1  0  0  0  0
 46 47  2  0  0  0  0
 46 84  1  0  0  0  0
 47 48  1  0  0  0  0
 47 49  1  0  0  0  0
 49 50  2  0  0  0  0
 49 85  1  0  0  0  0
 50 86  1  0  0  0  0
 51 52  2  0  0  0  0
 51 87  1  0  0  0  0
 52 88  1  0  0  0  0
M  END
>  <DRUGBANK_ID>
DB15426

>  <COMMON_NAME>
Giripladib

>  <CAS_NUMBER>
865200-20-0

>  <UNII>
1W10Q5H7WD

>  <SYNONYMS>
Giripladib

$$$$
