
 OpenBabel10282417153D

 43 46  0  0  0  0  0  0  0  0999 V2000
    1.0333   -1.0071    0.7224 C   0  0  0  0  0  0  0  0  0  0  0  0
    1.8128    0.1422    0.8060 C   0  0  0  0  0  0  0  0  0  0  0  0
    1.4671    1.3044    0.1765 C   0  0  0  0  0  0  0  0  0  0  0  0
    0.0996    1.4231   -0.0933 C   0  0  0  0  0  0  0  0  0  0  0  0
   -0.7192    0.2610   -0.1049 C   0  0  0  0  0  0  0  0  0  0  0  0
   -0.1893   -0.9920    0.1198 C   0  0  0  0  0  0  0  0  0  0  0  0
   -2.4309    0.3421   -0.2430 Cl  0  0  0  0  0  0  0  0  0  0  0  0
    2.4580    2.2960   -0.0562 N   0  0  0  0  0  0  0  0  0  0  0  0
    3.8334    2.2626   -0.0710 C   0  0  0  0  0  0  0  0  0  0  0  0
    4.4211    3.3707   -0.0294 O   0  0  0  0  0  0  0  0  0  0  0  0
    4.6263    1.1603   -0.0227 N   0  0  0  0  0  0  0  0  0  0  0  0
    4.3652   -0.1209   -0.4532 C   0  0  0  0  0  0  0  0  0  0  0  0
    3.6018   -0.5072   -1.4388 N   0  0  0  0  0  0  0  0  0  0  0  0
    3.1391   -1.7911   -1.1927 C   0  0  0  0  0  0  0  0  0  0  0  0
    3.5790   -2.3942   -0.0261 C   0  0  0  0  0  0  0  0  0  0  0  0
    4.8308   -1.3743    0.6470 S   0  0  0  0  0  0  0  0  0  0  0  0
    3.0234   -3.6621    0.6365 C   0  0  0  0  0  0  0  0  0  0  0  0
    4.0377   -4.7853    0.5301 C   0  0  0  0  0  0  0  0  0  0  0  0
    5.2253   -4.3705    1.2505 N   0  0  0  0  0  0  0  0  0  0  0  0
    5.6732   -5.1006    2.3210 C   0  0  0  0  0  0  0  0  0  0  0  0
    6.0714   -4.5174    3.5307 C   0  0  0  0  0  0  0  0  0  0  0  0
    6.7746   -5.2962    4.4412 C   0  0  0  0  0  0  0  0  0  0  0  0
    7.1420   -4.5641    5.6082 C   0  0  0  0  0  0  0  0  0  0  0  0
    6.6788   -3.2682    5.5885 C   0  0  0  0  0  0  0  0  0  0  0  0
    5.8475   -2.9165    4.1357 S   0  0  0  0  0  0  0  0  0  0  0  0
    7.0820   -6.5940    4.2050 N   0  0  0  0  0  0  0  0  0  0  0  0
    6.5995   -7.0665    3.0519 C   0  0  0  0  0  0  0  0  0  0  0  0
    5.8897   -6.4089    2.1327 N   0  0  0  0  0  0  0  0  0  0  0  0
    1.4121   -1.9417    1.0855 H   0  0  0  0  0  0  0  0  0  0  0  0
    2.7600    0.1025    1.3126 H   0  0  0  0  0  0  0  0  0  0  0  0
   -0.3655    2.3855   -0.2695 H   0  0  0  0  0  0  0  0  0  0  0  0
   -0.7208   -1.9288   -0.0158 H   0  0  0  0  0  0  0  0  0  0  0  0
    2.1167    3.2420   -0.1838 H   0  0  0  0  0  0  0  0  0  0  0  0
    5.5986    1.3536    0.1765 H   0  0  0  0  0  0  0  0  0  0  0  0
    2.3165   -2.1619   -1.7905 H   0  0  0  0  0  0  0  0  0  0  0  0
    2.7327   -3.5060    1.6908 H   0  0  0  0  0  0  0  0  0  0  0  0
    2.0923   -3.9700    0.1320 H   0  0  0  0  0  0  0  0  0  0  0  0
    3.6072   -5.7346    0.8756 H   0  0  0  0  0  0  0  0  0  0  0  0
    4.2843   -4.8963   -0.5298 H   0  0  0  0  0  0  0  0  0  0  0  0
    5.3277   -3.3690    1.3779 H   0  0  0  0  0  0  0  0  0  0  0  0
    7.7138   -4.9853    6.4242 H   0  0  0  0  0  0  0  0  0  0  0  0
    6.8006   -2.5120    6.3537 H   0  0  0  0  0  0  0  0  0  0  0  0
    6.8223   -8.0996    2.8135 H   0  0  0  0  0  0  0  0  0  0  0  0
  1  2  2  0  0  0  0
  1  6  1  0  0  0  0
  1 29  1  0  0  0  0
  2  3  1  0  0  0  0
  2 30  1  0  0  0  0
  3  4  2  0  0  0  0
  3  8  1  0  0  0  0
  4  5  1  0  0  0  0
  4 31  1  0  0  0  0
  5  6  2  0  0  0  0
  5  7  1  0  0  0  0
  6 32  1  0  0  0  0
  8  9  1  0  0  0  0
  8 33  1  0  0  0  0
  9 10  2  0  0  0  0
  9 11  1  0  0  0  0
 11 12  1  0  0  0  0
 11 34  1  0  0  0  0
 12 13  2  0  0  0  0
 12 16  1  0  0  0  0
 13 14  1  0  0  0  0
 14 15  2  0  0  0  0
 14 35  1  0  0  0  0
 15 16  1  0  0  0  0
 15 17  1  0  0  0  0
 17 18  1  0  0  0  0
 17 36  1  0  0  0  0
 17 37  1  0  0  0  0
 18 19  1  0  0  0  0
 18 38  1  0  0  0  0
 18 39  1  0  0  0  0
 19 20  1  0  0  0  0
 19 40  1  0  0  0  0
 20 21  2  0  0  0  0
 20 28  1  0  0  0  0
 21 22  1  0  0  0  0
 21 25  1  0  0  0  0
 22 23  1  0  0  0  0
 22 26  2  0  0  0  0
 23 24  2  0  0  0  0
 23 41  1  0  0  0  0
 24 25  1  0  0  0  0
 24 42  1  0  0  0  0
 26 27  1  0  0  0  0
 27 28  2  0  0  0  0
 27 43  1  0  0  0  0
M  END
>  <DRUGBANK_ID>
DB06134

>  <SECONDARY_ACCESSION_NUMBERS>
DB07361

>  <COMMON_NAME>
SNS-314

>  <CAS_NUMBER>
1057249-41-8

>  <UNII>
802IFJ0Z8X

>  <SYNONYMS>
1-(3-chlorophenyl)-3-{5-[2-(thieno[3,2-d]pyrimidin-4-ylamino)ethyl]-1,3-thiazol-2-yl}urea

$$$$
