
 OpenBabel10282417233D

 59 65  0  0  1  0  0  0  0  0999 V2000
   -4.6967    3.6596    0.9378 H   0  0  0  0  0  0  0  0  0  0  0  0
   -4.3451    3.8194   -0.1000 C   0  0  2  0  0  0  0  0  0  0  0  0
   -2.5792    3.4525    0.2728 C   0  0  0  0  0  0  0  0  0  0  0  0
   -2.5239    4.7182    1.0114 C   0  0  2  0  0  0  0  0  0  0  0  0
   -1.7209    5.4241    0.1303 O   0  0  0  0  0  0  0  0  0  0  0  0
   -2.8524    6.2664    0.0862 C   0  0  1  0  0  0  0  0  0  0  0  0
   -2.2791    7.7601    0.8593 C   0  0  2  0  0  0  0  0  0  0  0  0
   -1.8414    9.1681    0.3738 O   0  0  0  0  0  0  0  0  0  0  0  0
   -1.8929    9.6847   -1.0007 C   0  0  0  0  0  0  0  0  0  0  0  0
   -1.3711    8.9053   -2.0749 O   0  0  0  0  0  0  0  0  0  0  0  0
   -0.2116    7.8284   -1.8180 P   0  0  0  0  0  0  0  0  0  0  0  0
    0.2120    8.2064   -0.3262 O   0  0  0  0  0  0  0  0  0  0  0  0
   -1.0459    6.4703   -1.8656 O   0  0  0  0  0  0  0  0  0  0  0  0
    0.9801    7.8466   -2.6965 O   0  0  0  0  0  0  0  0  0  0  0  0
   -3.6869    8.0038    0.7531 C   0  0  1  0  0  0  0  0  0  0  0  0
   -3.3842    8.1379   -0.8276 O   0  0  0  0  0  0  0  0  0  0  0  0
   -4.4687    8.6670   -0.2996 C   0  0  1  0  0  0  0  0  0  0  0  0
   -5.3207    7.7733   -0.9916 C   0  0  2  0  0  0  0  0  0  0  0  0
   -4.7470    7.0818   -2.1108 O   0  0  0  0  0  0  0  0  0  0  0  0
   -4.4598    6.2540   -0.9495 C   0  0  2  0  0  0  0  0  0  0  0  0
   -5.4423    5.1985   -0.9880 C   0  0  2  0  0  0  0  0  0  0  0  0
   -7.1243    6.1133   -1.0859 C   0  0  0  0  0  0  0  0  0  0  0  0
   -5.9821    4.7203   -2.4538 C   0  0  0  0  0  0  0  0  0  0  0  0
   -6.6512    3.5548   -1.8585 C   0  0  0  0  0  0  0  0  0  0  0  0
   -5.6192    2.4981   -1.7229 C   0  0  0  0  0  0  0  0  0  0  0  0
   -4.6046    2.5663   -0.8394 C   0  0  0  0  0  0  0  0  0  0  0  0
   -4.5299    1.2733   -0.0550 C   0  0  0  0  0  0  0  0  0  0  0  0
   -5.1771    0.4568   -0.9904 O   0  0  0  0  0  0  0  0  0  0  0  0
   -6.1747    1.2956   -1.2201 C   0  0  0  0  0  0  0  0  0  0  0  0
   -7.2238    1.3976   -0.4625 O   0  0  0  0  0  0  0  0  0  0  0  0
   -4.4486    6.9073    1.6764 C   0  0  0  0  0  0  0  0  0  0  0  0
   -3.4834    6.5971    2.8590 C   0  0  0  0  0  0  0  0  0  0  0  0
   -5.6857    7.4807    2.2776 C   0  0  0  0  0  0  0  0  0  0  0  0
   -1.4510    3.5549    0.5853 H   0  0  0  0  0  0  0  0  0  0  0  0
   -2.3914    2.4258    0.7067 H   0  0  0  0  0  0  0  0  0  0  0  0
   -2.1848    4.5463    2.0681 H   0  0  0  0  0  0  0  0  0  0  0  0
   -1.4281    7.3717    0.3644 H   0  0  0  0  0  0  0  0  0  0  0  0
   -2.8889   10.1003   -1.2596 H   0  0  0  0  0  0  0  0  0  0  0  0
   -1.3207   10.5997   -0.9734 H   0  0  0  0  0  0  0  0  0  0  0  0
    0.2413    9.1813   -0.2497 H   0  0  0  0  0  0  0  0  0  0  0  0
   -1.9649    6.5134   -2.2036 H   0  0  0  0  0  0  0  0  0  0  0  0
   -4.6181    9.7117   -0.2122 H   0  0  0  0  0  0  0  0  0  0  0  0
   -6.3249    8.1126   -0.8476 H   0  0  0  0  0  0  0  0  0  0  0  0
   -8.0137    5.7089   -1.6461 H   0  0  0  0  0  0  0  0  0  0  0  0
   -7.5767    6.7821   -0.3227 H   0  0  0  0  0  0  0  0  0  0  0  0
   -7.0277    6.8963   -1.9415 H   0  0  0  0  0  0  0  0  0  0  0  0
   -6.8024    5.2876   -3.0034 H   0  0  0  0  0  0  0  0  0  0  0  0
   -5.3414    4.5563   -3.3162 H   0  0  0  0  0  0  0  0  0  0  0  0
   -7.7510    3.5752   -1.8456 H   0  0  0  0  0  0  0  0  0  0  0  0
   -6.7473    3.7171   -0.7695 H   0  0  0  0  0  0  0  0  0  0  0  0
   -5.1750    1.3815    0.8371 H   0  0  0  0  0  0  0  0  0  0  0  0
   -3.6418    0.7832    0.3483 H   0  0  0  0  0  0  0  0  0  0  0  0
   -4.7667    5.9318    1.2706 H   0  0  0  0  0  0  0  0  0  0  0  0
   -3.1601    7.5294    3.3103 H   0  0  0  0  0  0  0  0  0  0  0  0
   -3.8674    5.8386    3.5403 H   0  0  0  0  0  0  0  0  0  0  0  0
   -2.5079    6.2282    2.5660 H   0  0  0  0  0  0  0  0  0  0  0  0
   -6.4685    7.6099    1.5316 H   0  0  0  0  0  0  0  0  0  0  0  0
   -6.0436    6.7955    3.0505 H   0  0  0  0  0  0  0  0  0  0  0  0
   -5.3948    8.4352    2.7053 H   0  0  0  0  0  0  0  0  0  0  0  0
  2  3  1  0  0  0  0
  2 26  1  0  0  0  0
  2  1  1  6  0  0  0
  3 34  1  0  0  0  0
  3 35  1  0  0  0  0
  4  3  1  0  0  0  0
  4  5  1  0  0  0  0
  4 36  1  6  0  0  0
  6  5  1  1  0  0  0
  6  4  1  0  0  0  0
  6  7  1  0  0  0  0
  6 20  1  0  0  0  0
  7 15  1  0  0  0  0
  7  8  1  0  0  0  0
  7 37  1  6  0  0  0
  8  9  1  0  0  0  0
  9 10  1  0  0  0  0
  9 38  1  0  0  0  0
  9 39  1  0  0  0  0
 10 11  1  0  0  0  0
 11 12  1  0  0  0  0
 11 13  1  0  0  0  0
 11 14  2  0  0  0  0
 12 40  1  0  0  0  0
 13 41  1  0  0  0  0
 15 16  1  0  0  0  0
 15 17  1  0  0  0  0
 15 31  1  6  0  0  0
 17 16  1  0  0  0  0
 17 42  1  1  0  0  0
 18 17  1  0  0  0  0
 18 19  1  0  0  0  0
 18 43  1  6  0  0  0
 20 19  1  1  0  0  0
 20 18  1  0  0  0  0
 20 21  1  0  0  0  0
 21  2  1  0  0  0  0
 21 23  1  0  0  0  0
 21 22  1  1  0  0  0
 22 44  1  0  0  0  0
 22 45  1  0  0  0  0
 22 46  1  0  0  0  0
 23 24  1  0  0  0  0
 23 47  1  0  0  0  0
 23 48  1  0  0  0  0
 24 25  1  0  0  0  0
 24 49  1  0  0  0  0
 24 50  1  0  0  0  0
 25 26  2  0  0  0  0
 25 29  1  0  0  0  0
 26 27  1  0  0  0  0
 27 28  1  0  0  0  0
 27 51  1  0  0  0  0
 27 52  1  0  0  0  0
 28 29  1  0  0  0  0
 29 30  2  0  0  0  0
 31 32  1  0  0  0  0
 31 33  1  0  0  0  0
 31 53  1  0  0  0  0
 32 54  1  0  0  0  0
 32 55  1  0  0  0  0
 32 56  1  0  0  0  0
 33 57  1  0  0  0  0
 33 58  1  0  0  0  0
 33 59  1  0  0  0  0
M  END
>  <DRUGBANK_ID>
DB17260

>  <COMMON_NAME>
Minnelide free acid

>  <CAS_NUMBER>
1254885-39-6

>  <UNII>
15OP6DI2OA

>  <SYNONYMS>
Trisoxireno(4b,5:6,7:8a,9)phenanthro(1,2-c)furan-1(3h)-one, 3b,4,4a,6,6a,7a,7b,8b,9,10-decahydro-8b-methyl-6a-(1-methylethyl)-6-((phosphonooxy)methoxy)-, (3bs,4as,5ar,6r,6as,7as,7bs,8as,8bs)-

$$$$
