
 OpenBabel10282417133D

 45 47  0  0  0  0  0  0  0  0999 V2000
   -2.0815   -0.0051   -0.0050 Cl  0  0  0  0  0  0  0  0  0  0  0  0
   -1.1120    2.4604    8.9564 S   0  0  0  0  0  0  0  0  0  0  0  0
    3.5923    2.5651    0.8807 N   0  0  0  0  0  0  0  0  0  0  0  0
   -0.0644    4.6464    5.9989 N   0  0  0  0  0  0  0  0  0  0  0  0
   -0.1044    2.2219    6.0607 N   0  0  0  0  0  0  0  0  0  0  0  0
    3.0395    5.1264    1.1558 C   0  0  0  0  0  0  0  0  0  0  0  0
    4.0696    3.9452    1.0827 C   0  0  0  0  0  0  0  0  0  0  0  0
    2.1408    5.0974    2.3712 C   0  0  0  0  0  0  0  0  0  0  0  0
    2.5304    2.4672   -0.1200 C   0  0  0  0  0  0  0  0  0  0  0  0
    1.7521    1.1770   -0.0275 C   0  0  0  0  0  0  0  0  0  0  0  0
    1.7519    3.8796    2.8844 C   0  0  0  0  0  0  0  0  0  0  0  0
    1.7221    6.2259    3.0781 C   0  0  0  0  0  0  0  0  0  0  0  0
    1.2835    3.7523    4.1637 C   0  0  0  0  0  0  0  0  0  0  0  0
    1.0169    6.0803    4.3045 C   0  0  0  0  0  0  0  0  0  0  0  0
    0.7537    4.8129    4.8594 C   0  0  0  0  0  0  0  0  0  0  0  0
    0.3448    1.1844   -0.0211 C   0  0  0  0  0  0  0  0  0  0  0  0
    2.4260   -0.0482   -0.0035 C   0  0  0  0  0  0  0  0  0  0  0  0
   -0.3601   -0.0187   -0.0105 C   0  0  0  0  0  0  0  0  0  0  0  0
    1.7161   -1.2465    0.0029 C   0  0  0  0  0  0  0  0  0  0  0  0
    0.3215   -1.2333   -0.0092 C   0  0  0  0  0  0  0  0  0  0  0  0
   -0.4327    3.4910    6.5080 C   0  0  0  0  0  0  0  0  0  0  0  0
   -1.3330    3.5621    7.6574 C   0  0  0  0  0  0  0  0  0  0  0  0
   -2.4513    4.3484    7.8453 C   0  0  0  0  0  0  0  0  0  0  0  0
   -3.1212    4.0480    9.0693 C   0  0  0  0  0  0  0  0  0  0  0  0
   -2.4839    3.0550    9.7792 C   0  0  0  0  0  0  0  0  0  0  0  0
    3.3130    2.1492    1.7675 H   0  0  0  0  0  0  0  0  0  0  0  0
   -0.6032    1.4687    6.5237 H   0  0  0  0  0  0  0  0  0  0  0  0
   -0.1809    2.0963    5.0602 H   0  0  0  0  0  0  0  0  0  0  0  0
    3.6290    6.0511    1.1756 H   0  0  0  0  0  0  0  0  0  0  0  0
    2.4359    5.1766    0.2441 H   0  0  0  0  0  0  0  0  0  0  0  0
    4.6723    3.9499    2.0026 H   0  0  0  0  0  0  0  0  0  0  0  0
    4.7681    4.1420    0.2644 H   0  0  0  0  0  0  0  0  0  0  0  0
    2.9869    2.5420   -1.1099 H   0  0  0  0  0  0  0  0  0  0  0  0
    1.7969    3.2725   -0.0349 H   0  0  0  0  0  0  0  0  0  0  0  0
    1.8370    2.9486    2.3623 H   0  0  0  0  0  0  0  0  0  0  0  0
    1.9266    7.2208    2.6862 H   0  0  0  0  0  0  0  0  0  0  0  0
    1.3898    2.7599    4.5612 H   0  0  0  0  0  0  0  0  0  0  0  0
    0.7148    6.9755    4.8433 H   0  0  0  0  0  0  0  0  0  0  0  0
   -0.2048    2.1243   -0.0339 H   0  0  0  0  0  0  0  0  0  0  0  0
    3.5145   -0.0612    0.0033 H   0  0  0  0  0  0  0  0  0  0  0  0
    2.2564   -2.1887    0.0078 H   0  0  0  0  0  0  0  0  0  0  0  0
   -0.2248   -2.1718   -0.0202 H   0  0  0  0  0  0  0  0  0  0  0  0
   -2.7899    5.0797    7.1205 H   0  0  0  0  0  0  0  0  0  0  0  0
   -4.0247    4.5354    9.4133 H   0  0  0  0  0  0  0  0  0  0  0  0
   -2.7608    2.6396   10.7382 H   0  0  0  0  0  0  0  0  0  0  0  0
  1 18  1  0  0  0  0
  2 22  1  0  0  0  0
  2 25  1  0  0  0  0
  3  7  1  0  0  0  0
  3  9  1  0  0  0  0
  3 26  1  0  0  0  0
  4 15  1  0  0  0  0
  4 21  2  0  0  0  0
  5 21  1  0  0  0  0
  5 27  1  0  0  0  0
  5 28  1  0  0  0  0
  6  7  1  0  0  0  0
  6  8  1  0  0  0  0
  6 29  1  0  0  0  0
  6 30  1  0  0  0  0
  7 31  1  0  0  0  0
  7 32  1  0  0  0  0
  8 11  2  0  0  0  0
  8 12  1  0  0  0  0
  9 10  1  0  0  0  0
  9 33  1  0  0  0  0
  9 34  1  0  0  0  0
 10 16  2  0  0  0  0
 10 17  1  0  0  0  0
 11 13  1  0  0  0  0
 11 35  1  0  0  0  0
 12 14  2  0  0  0  0
 12 36  1  0  0  0  0
 13 15  2  0  0  0  0
 13 37  1  0  0  0  0
 14 15  1  0  0  0  0
 14 38  1  0  0  0  0
 16 18  1  0  0  0  0
 16 39  1  0  0  0  0
 17 19  2  0  0  0  0
 17 40  1  0  0  0  0
 18 20  2  0  0  0  0
 19 20  1  0  0  0  0
 19 41  1  0  0  0  0
 20 42  1  0  0  0  0
 21 22  1  0  0  0  0
 22 23  2  0  0  0  0
 23 24  1  0  0  0  0
 23 43  1  0  0  0  0
 24 25  2  0  0  0  0
 24 44  1  0  0  0  0
 25 45  1  0  0  0  0
M  END
>  <DRUGBANK_ID>
DB03449

>  <SECONDARY_ACCESSION_NUMBERS>
EXPT00560

>  <COMMON_NAME>
N-(4-{2-[(3-chlorobenzyl)amino]ethyl}phenyl)thiophene-2-carboximidamide

$$$$
