
 OpenBabel10282417183D

174184  0  0  0  0  0  0  0  0999 V2000
    0.1966   -1.0266   -0.2916 C   0  0  1  0  0  0  0  0  0  0  0  0
   -1.1723   -1.3504    0.2644 C   0  0  3  0  0  0  0  0  0  0  0  0
   -1.0048   -0.0840   -0.1170 O   0  0  0  0  0  0  0  0  0  0  0  0
   -1.3102    1.8917    0.0856 C   0  0  1  0  0  0  0  0  0  0  0  0
   -0.1788    2.1887   -0.3415 C   0  0  2  0  0  0  0  0  0  0  0  0
    0.8117    0.3083   -0.2872 C   0  0  2  0  0  0  0  0  0  0  0  0
    0.5111    3.5414    0.8498 O   0  0  0  0  0  0  0  0  0  0  0  0
    0.7059    3.7782    2.7123 C   0  0  0  0  0  0  0  0  0  0  0  0
    0.8297    2.1142    3.9597 C   0  0  0  0  0  0  0  0  0  0  0  0
    0.6707    0.4670    3.8714 C   0  0  0  0  0  0  0  0  0  0  0  0
   -0.2373   -0.6316    3.6783 C   0  0  0  0  0  0  0  0  0  0  0  0
   -0.8647   -0.3928    4.7158 C   0  0  0  0  0  0  0  0  0  0  0  0
   -0.9950    1.0235    4.9302 C   0  0  0  0  0  0  0  0  0  0  0  0
   -0.2275    2.1920    4.5868 C   0  0  0  0  0  0  0  0  0  0  0  0
    0.5476   -1.9384    2.8785 O   0  0  0  0  0  0  0  0  0  0  0  0
    1.6485   -3.2632    1.8780 C   0  0  0  0  0  0  0  0  0  0  0  0
    2.8270   -2.8270    1.3370 C   0  0  0  0  0  0  0  0  0  0  0  0
    1.5393   -4.8082    1.8355 O   0  0  0  0  0  0  0  0  0  0  0  0
    3.8987   -1.5359    2.1413 C   0  0  0  0  0  0  0  0  0  0  0  0
    5.1475   -0.8131    0.8020 C   0  0  0  0  0  0  0  0  0  0  0  0
    4.4828   -0.7769   -1.0707 C   0  0  0  0  0  0  0  0  0  0  0  0
    3.7963   -1.7503   -1.6968 C   0  0  0  0  0  0  0  0  0  0  0  0
    3.1579   -2.8481   -0.6391 C   0  0  0  0  0  0  0  0  0  0  0  0
    5.7704    1.1736    1.4687 O   0  0  0  0  0  0  0  0  0  0  0  0
    5.2661    0.8358   -2.1920 O   0  0  0  0  0  0  0  0  0  0  0  0
    3.6164   -1.8134   -3.0208 O   0  0  0  0  0  0  0  0  0  0  0  0
   -1.3266   -1.4188    5.3601 O   0  0  0  0  0  0  0  0  0  0  0  0
   -1.8905    1.4465    5.7547 O   0  0  0  0  0  0  0  0  0  0  0  0
    1.5661    4.4024    3.2965 O   0  0  0  0  0  0  0  0  0  0  0  0
    2.8239    0.9465   -0.5633 O   0  0  0  0  0  0  0  0  0  0  0  0
    4.4309    0.6633    0.5984 C   0  0  0  0  0  0  0  0  0  0  0  0
    4.8082   -0.0091    2.7852 C   0  0  0  0  0  0  0  0  0  0  0  0
    4.1625   -1.3050    4.0083 C   0  0  0  0  0  0  0  0  0  0  0  0
    3.2720   -1.0551    4.9274 C   0  0  0  0  0  0  0  0  0  0  0  0
    3.6179    0.2089    5.1725 C   0  0  0  0  0  0  0  0  0  0  0  0
    4.6584    1.0488    4.5885 C   0  0  0  0  0  0  0  0  0  0  0  0
    5.5228    0.7975    3.6050 C   0  0  0  0  0  0  0  0  0  0  0  0
    1.9917   -1.6925    5.2159 O   0  0  0  0  0  0  0  0  0  0  0  0
    1.3042   -2.8878    4.8220 C   0  0  0  0  0  0  0  0  0  0  0  0
    1.0699   -3.4692    3.5717 C   0  0  0  0  0  0  0  0  0  0  0  0
    2.8699   -4.1428    2.8684 C   0  0  0  0  0  0  0  0  0  0  0  0
    3.0408   -4.6907    0.9372 C   0  0  0  0  0  0  0  0  0  0  0  0
    1.3546   -4.5037    0.0151 C   0  0  0  0  0  0  0  0  0  0  0  0
   -0.5160   -4.0520    0.7650 C   0  0  0  0  0  0  0  0  0  0  0  0
   -0.7818   -3.1208    2.5911 C   0  0  0  0  0  0  0  0  0  0  0  0
    1.4865   -4.2786   -1.8490 O   0  0  0  0  0  0  0  0  0  0  0  0
   -1.5519   -3.7910   -0.1724 O   0  0  0  0  0  0  0  0  0  0  0  0
    4.2851   -4.3540   -0.1037 O   0  0  0  0  0  0  0  0  0  0  0  0
    0.1885   -3.3185    5.0929 O   0  0  0  0  0  0  0  0  0  0  0  0
    3.4640    0.3139    6.4918 O   0  0  0  0  0  0  0  0  0  0  0  0
    5.2242    2.1139    5.1681 O   0  0  0  0  0  0  0  0  0  0  0  0
    5.4732    0.7601   -0.0721 O   0  0  0  0  0  0  0  0  0  0  0  0
    1.7213   -2.2165   -0.0181 O   0  0  0  0  0  0  0  0  0  0  0  0
    3.4774   -1.5699    0.5188 C   0  0  0  0  0  0  0  0  0  0  0  0
    2.8226    0.0786    1.5495 C   0  0  0  0  0  0  0  0  0  0  0  0
    3.8477    0.9133    1.8986 C   0  0  0  0  0  0  0  0  0  0  0  0
    4.2511    2.8052    1.6593 C   0  0  0  0  0  0  0  0  0  0  0  0
    2.9057    3.5481    1.9782 C   0  0  0  0  0  0  0  0  0  0  0  0
    1.3849    2.2544    2.1636 C   0  0  0  0  0  0  0  0  0  0  0  0
    1.6571    0.6662    2.0118 C   0  0  0  0  0  0  0  0  0  0  0  0
    4.5669   -2.6215    0.9006 O   0  0  0  0  0  0  0  0  0  0  0  0
   -0.4064    2.5773    2.3413 O   0  0  0  0  0  0  0  0  0  0  0  0
    2.8612    4.7169    1.4859 O   0  0  0  0  0  0  0  0  0  0  0  0
    5.3181    3.0211    0.6459 O   0  0  0  0  0  0  0  0  0  0  0  0
    6.5980    2.2681    0.0185 C   0  0  0  0  0  0  0  0  0  0  0  0
    7.2002    0.5830   -0.6485 C   0  0  0  0  0  0  0  0  0  0  0  0
    6.1954   -0.3761   -1.4778 C   0  0  0  0  0  0  0  0  0  0  0  0
    6.0229   -1.9753   -1.5223 C   0  0  0  0  0  0  0  0  0  0  0  0
    6.5437   -2.5494   -0.4975 C   0  0  0  0  0  0  0  0  0  0  0  0
    7.4197   -1.7279    0.1995 C   0  0  0  0  0  0  0  0  0  0  0  0
    7.6300   -0.2841    0.3184 C   0  0  0  0  0  0  0  0  0  0  0  0
    7.4453    3.0986   -0.0669 O   0  0  0  0  0  0  0  0  0  0  0  0
    6.4459   -3.8737   -0.7010 O   0  0  0  0  0  0  0  0  0  0  0  0
    5.2175   -2.9925   -2.2798 O   0  0  0  0  0  0  0  0  0  0  0  0
    8.5462   -2.4257    0.4394 O   0  0  0  0  0  0  0  0  0  0  0  0
   -2.1625   -1.8725   -0.5751 O   0  0  0  0  0  0  0  0  0  0  0  0
   -1.9431   -2.2253   -1.9180 C   0  0  0  0  0  0  0  0  0  0  0  0
   -1.0458   -1.7483   -3.0354 C   0  0  0  0  0  0  0  0  0  0  0  0
    0.1518   -1.1190   -3.2929 C   0  0  0  0  0  0  0  0  0  0  0  0
    1.0023   -0.3821   -4.0714 C   0  0  0  0  0  0  0  0  0  0  0  0
    0.2927    0.0696   -5.0127 C   0  0  0  0  0  0  0  0  0  0  0  0
   -0.9965   -0.4526   -5.0608 C   0  0  0  0  0  0  0  0  0  0  0  0
   -1.6442   -1.3473   -4.1167 C   0  0  0  0  0  0  0  0  0  0  0  0
    2.0862    0.3478   -3.8814 O   0  0  0  0  0  0  0  0  0  0  0  0
    2.8576    0.1198   -2.8697 C   0  0  0  0  0  0  0  0  0  0  0  0
    2.0534   -0.7859   -1.7187 C   0  0  0  0  0  0  0  0  0  0  0  0
    1.3516   -2.0673   -1.9104 C   0  0  0  0  0  0  0  0  0  0  0  0
    0.2918   -2.9521   -0.8015 C   0  0  0  0  0  0  0  0  0  0  0  0
    0.2810   -2.5319    1.0471 C   0  0  0  0  0  0  0  0  0  0  0  0
    1.4104   -1.3478    1.3677 C   0  0  0  0  0  0  0  0  0  0  0  0
    2.2037   -0.7013   -0.3139 C   0  0  0  0  0  0  0  0  0  0  0  0
    0.9106    0.9396   -5.8131 O   0  0  0  0  0  0  0  0  0  0  0  0
   -1.6994   -0.0237   -6.0859 O   0  0  0  0  0  0  0  0  0  0  0  0
   -2.2825   -3.3508   -2.3004 O   0  0  0  0  0  0  0  0  0  0  0  0
    3.7658    0.8409   -3.0761 O   0  0  0  0  0  0  0  0  0  0  0  0
    0.2117   -4.1857    2.2471 O   0  0  0  0  0  0  0  0  0  0  0  0
   -0.1831   -4.6418   -1.1726 O   0  0  0  0  0  0  0  0  0  0  0  0
    2.0168   -1.1477    2.9266 O   0  0  0  0  0  0  0  0  0  0  0  0
   -1.9703    2.9683   -0.4729 C   0  0  0  0  0  0  0  0  0  0  0  0
   -1.8827    2.8313   -1.8920 O   0  0  0  0  0  0  0  0  0  0  0  0
   -0.8495    3.2029   -2.7947 C   0  0  0  0  0  0  0  0  0  0  0  0
    0.5191    3.7838   -2.4213 C   0  0  0  0  0  0  0  0  0  0  0  0
   -0.9590    2.8255   -3.9512 O   0  0  0  0  0  0  0  0  0  0  0  0
    1.4991    3.4164   -1.6299 C   0  0  0  0  0  0  0  0  0  0  0  0
    2.7195    3.4801   -1.0861 C   0  0  0  0  0  0  0  0  0  0  0  0
    3.3494    4.4768   -1.4735 C   0  0  0  0  0  0  0  0  0  0  0  0
    2.6036    5.0811   -2.4155 C   0  0  0  0  0  0  0  0  0  0  0  0
    1.2695    4.7032   -2.8939 C   0  0  0  0  0  0  0  0  0  0  0  0
    3.3204    2.7351   -0.1941 O   0  0  0  0  0  0  0  0  0  0  0  0
    2.6345    2.1143    0.8765 C   0  0  0  0  0  0  0  0  0  0  0  0
    1.3529    1.7655    0.2595 C   0  0  0  0  0  0  0  0  0  0  0  0
    0.9931    1.2958   -1.6316 C   0  0  0  0  0  0  0  0  0  0  0  0
   -0.7890    0.7423   -1.7955 C   0  0  0  0  0  0  0  0  0  0  0  0
   -2.3849    0.6497   -0.7273 C   0  0  0  0  0  0  0  0  0  0  0  0
   -2.0197    0.6028    1.1419 C   0  0  0  0  0  0  0  0  0  0  0  0
   -0.2146    1.0615    1.2775 C   0  0  0  0  0  0  0  0  0  0  0  0
   -3.4399    0.0758   -1.0979 O   0  0  0  0  0  0  0  0  0  0  0  0
   -2.4380    0.0739    2.2451 O   0  0  0  0  0  0  0  0  0  0  0  0
   -0.9725    0.8302   -3.0456 O   0  0  0  0  0  0  0  0  0  0  0  0
    2.9222    2.0070    2.5719 O   0  0  0  0  0  0  0  0  0  0  0  0
    4.5569    4.7226   -0.9990 O   0  0  0  0  0  0  0  0  0  0  0  0
    3.2212    6.1038   -2.9473 O   0  0  0  0  0  0  0  0  0  0  0  0
   -0.0603   -1.1467   -1.2486 H   0  0  0  0  0  0  0  0  0  0  0  0
   -1.1780   -1.2825    1.3346 H   0  0  0  0  0  0  0  0  0  0  0  0
   -1.4131    2.2651    1.0859 H   0  0  0  0  0  0  0  0  0  0  0  0
   -0.2149    2.3456   -1.3661 H   0  0  0  0  0  0  0  0  0  0  0  0
    1.0434    0.0924    0.5979 H   0  0  0  0  0  0  0  0  0  0  0  0
    0.8325   -0.1349    3.1125 H   0  0  0  0  0  0  0  0  0  0  0  0
   -0.4089    3.1811    4.2492 H   0  0  0  0  0  0  0  0  0  0  0  0
    3.2788   -0.3705    3.0059 H   0  0  0  0  0  0  0  0  0  0  0  0
    2.6999   -3.5788   -1.0455 H   0  0  0  0  0  0  0  0  0  0  0  0
    4.9928    1.7064    2.3430 H   0  0  0  0  0  0  0  0  0  0  0  0
    5.3826    1.6043   -1.3482 H   0  0  0  0  0  0  0  0  0  0  0  0
    3.1001   -2.5793   -3.1810 H   0  0  0  0  0  0  0  0  0  0  0  0
   -0.9617   -2.2579    4.9760 H   0  0  0  0  0  0  0  0  0  0  0  0
   -1.7115    2.3937    5.6760 H   0  0  0  0  0  0  0  0  0  0  0  0
    3.1530   -2.1155    3.5583 H   0  0  0  0  0  0  0  0  0  0  0  0
    6.0206    1.7331    3.1756 H   0  0  0  0  0  0  0  0  0  0  0  0
    3.7946   -3.3438    2.9617 H   0  0  0  0  0  0  0  0  0  0  0  0
   -1.6987   -2.5061    2.5444 H   0  0  0  0  0  0  0  0  0  0  0  0
    2.1331   -3.6758   -2.3001 H   0  0  0  0  0  0  0  0  0  0  0  0
   -1.1323   -3.7149   -1.1819 H   0  0  0  0  0  0  0  0  0  0  0  0
    4.5516   -3.4038   -0.5269 H   0  0  0  0  0  0  0  0  0  0  0  0
    2.8937   -0.4553    6.6752 H   0  0  0  0  0  0  0  0  0  0  0  0
    5.8633    2.5071    4.5326 H   0  0  0  0  0  0  0  0  0  0  0  0
    5.3422    0.0897    1.7156 H   0  0  0  0  0  0  0  0  0  0  0  0
    0.4516   -0.2266    1.8481 H   0  0  0  0  0  0  0  0  0  0  0  0
   -1.0112    1.9563    2.7984 H   0  0  0  0  0  0  0  0  0  0  0  0
    2.1198    4.7935    2.0760 H   0  0  0  0  0  0  0  0  0  0  0  0
    4.7014    0.5202   -1.1439 H   0  0  0  0  0  0  0  0  0  0  0  0
    8.2260    0.1709    1.0613 H   0  0  0  0  0  0  0  0  0  0  0  0
    5.5967   -4.0574   -1.2017 H   0  0  0  0  0  0  0  0  0  0  0  0
    4.2556   -3.3597   -2.1920 H   0  0  0  0  0  0  0  0  0  0  0  0
    8.3457   -3.3073    0.0632 H   0  0  0  0  0  0  0  0  0  0  0  0
    0.5027   -0.5502   -2.5186 H   0  0  0  0  0  0  0  0  0  0  0  0
   -2.6718   -1.5676   -4.0758 H   0  0  0  0  0  0  0  0  0  0  0  0
    1.5732   -2.2907   -2.8977 H   0  0  0  0  0  0  0  0  0  0  0  0
    3.0232   -0.2858   -0.0176 H   0  0  0  0  0  0  0  0  0  0  0  0
    1.8193    1.1550   -5.4842 H   0  0  0  0  0  0  0  0  0  0  0  0
   -2.5551   -0.4470   -6.0685 H   0  0  0  0  0  0  0  0  0  0  0  0
   -0.0475   -5.0001    1.9750 H   0  0  0  0  0  0  0  0  0  0  0  0
   -0.0628   -5.2605   -0.2667 H   0  0  0  0  0  0  0  0  0  0  0  0
    1.5192   -1.2709    3.8001 H   0  0  0  0  0  0  0  0  0  0  0  0
   -2.7103    2.4556    0.1597 H   0  0  0  0  0  0  0  0  0  0  0  0
   -1.3386    3.7375   -0.0128 H   0  0  0  0  0  0  0  0  0  0  0  0
    1.1964    2.8778   -0.9360 H   0  0  0  0  0  0  0  0  0  0  0  0
    0.7383    5.1566   -3.6474 H   0  0  0  0  0  0  0  0  0  0  0  0
    1.8108    1.4382   -2.2350 H   0  0  0  0  0  0  0  0  0  0  0  0
   -0.2973    0.8683    2.2916 H   0  0  0  0  0  0  0  0  0  0  0  0
   -2.9654   -0.2877   -1.8398 H   0  0  0  0  0  0  0  0  0  0  0  0
   -3.1275   -0.2904    1.7028 H   0  0  0  0  0  0  0  0  0  0  0  0
   -1.7498    0.3208   -3.0098 H   0  0  0  0  0  0  0  0  0  0  0  0
    4.8498    4.1337   -0.2679 H   0  0  0  0  0  0  0  0  0  0  0  0
    2.6487    6.4542   -3.6208 H   0  0  0  0  0  0  0  0  0  0  0  0
  1  2  1  0  0  0  0
  1  6  1  0  0  0  0
  1123  1  6  0  0  0
  1 53  1  0  0  0  0
  2  3  1  0  0  0  0
  2 76  1  0  0  0  0
  2124  1  0  0  0  0
  3  4  1  0  0  0  0
  4  5  1  0  0  0  0
  4125  1  1  0  0  0
  4 99  1  0  0  0  0
  5  6  1  0  0  0  0
  5  7  1  0  0  0  0
  5126  1  6  0  0  0
  6127  1  1  0  0  0
  6 30  1  0  0  0  0
  7  8  1  0  0  0  0
  8  9  1  0  0  0  0
  8 29  2  0  0  0  0
  9 10  2  0  0  0  0
  9 14  1  0  0  0  0
 10 11  1  0  0  0  0
 10128  1  0  0  0  0
 11 12  2  0  0  0  0
 11 15  1  0  0  0  0
 12 13  1  0  0  0  0
 12 27  1  0  0  0  0
 13 14  2  0  0  0  0
 13 28  1  0  0  0  0
 14129  1  0  0  0  0
 15 16  1  0  0  0  0
 16 17  1  0  0  0  0
 16 18  2  0  0  0  0
 17 19  2  0  0  0  0
 17 23  1  0  0  0  0
 19 20  1  0  0  0  0
 19130  1  0  0  0  0
 20 21  2  0  0  0  0
 20 24  1  0  0  0  0
 21 22  1  0  0  0  0
 21 25  1  0  0  0  0
 22 23  2  0  0  0  0
 22 26  1  0  0  0  0
 23131  1  0  0  0  0
 24132  1  0  0  0  0
 25133  1  0  0  0  0
 26134  1  0  0  0  0
 27135  1  0  0  0  0
 28136  1  0  0  0  0
 30 31  1  0  0  0  0
 31 32  1  0  0  0  0
 31 52  2  0  0  0  0
 32 33  2  0  0  0  0
 32 37  1  0  0  0  0
 33 34  1  0  0  0  0
 33137  1  0  0  0  0
 34 35  2  0  0  0  0
 34 38  1  0  0  0  0
 35 36  1  0  0  0  0
 35 50  1  0  0  0  0
 36 37  2  0  0  0  0
 36 51  1  0  0  0  0
 37138  1  0  0  0  0
 38 39  1  0  0  0  0
 39 40  1  0  0  0  0
 39 49  2  0  0  0  0
 40 41  2  0  0  0  0
 40 45  1  0  0  0  0
 41 42  1  0  0  0  0
 41139  1  0  0  0  0
 42 43  2  0  0  0  0
 42 48  1  0  0  0  0
 43 44  1  0  0  0  0
 43 46  1  0  0  0  0
 44 45  2  0  0  0  0
 44 47  1  0  0  0  0
 45140  1  0  0  0  0
 46141  1  0  0  0  0
 47142  1  0  0  0  0
 48143  1  0  0  0  0
 50144  1  0  0  0  0
 51145  1  0  0  0  0
 53 54  1  0  0  0  0
 54 55  1  0  0  0  0
 54 61  2  0  0  0  0
 55 56  2  0  0  0  0
 55 60  1  0  0  0  0
 56 57  1  0  0  0  0
 56146  1  0  0  0  0
 57 58  2  0  0  0  0
 57 64  1  0  0  0  0
 58 59  1  0  0  0  0
 58 63  1  0  0  0  0
 59 60  2  0  0  0  0
 59 62  1  0  0  0  0
 60147  1  0  0  0  0
 62148  1  0  0  0  0
 63149  1  0  0  0  0
 64 65  1  0  0  0  0
 65 66  1  0  0  0  0
 65 72  2  0  0  0  0
 66 67  2  0  0  0  0
 66 71  1  0  0  0  0
 67 68  1  0  0  0  0
 67150  1  0  0  0  0
 68 69  2  0  0  0  0
 68 74  1  0  0  0  0
 69 70  1  0  0  0  0
 69 73  1  0  0  0  0
 70 71  2  0  0  0  0
 70 75  1  0  0  0  0
 71151  1  0  0  0  0
 73152  1  0  0  0  0
 74153  1  0  0  0  0
 75154  1  0  0  0  0
 76 77  1  0  0  0  0
 77 78  1  0  0  0  0
 77 94  2  0  0  0  0
 78 79  2  0  0  0  0
 78 83  1  0  0  0  0
 79 80  1  0  0  0  0
 79155  1  0  0  0  0
 80 81  2  0  0  0  0
 80 84  1  0  0  0  0
 81 82  1  0  0  0  0
 81 92  1  0  0  0  0
 82 83  2  0  0  0  0
 82 93  1  0  0  0  0
 83156  1  0  0  0  0
 84 85  1  0  0  0  0
 85 86  1  0  0  0  0
 85 95  2  0  0  0  0
 86 87  2  0  0  0  0
 86 91  1  0  0  0  0
 87 88  1  0  0  0  0
 87157  1  0  0  0  0
 88 89  2  0  0  0  0
 88 97  1  0  0  0  0
 89 90  1  0  0  0  0
 89 96  1  0  0  0  0
 90 91  2  0  0  0  0
 90 98  1  0  0  0  0
 91158  1  0  0  0  0
 92159  1  0  0  0  0
 93160  1  0  0  0  0
 96161  1  0  0  0  0
 97162  1  0  0  0  0
 98163  1  0  0  0  0
 99100  1  0  0  0  0
 99164  1  0  0  0  0
 99165  1  0  0  0  0
100101  1  0  0  0  0
101102  1  0  0  0  0
101103  2  0  0  0  0
102104  2  0  0  0  0
102108  1  0  0  0  0
104105  1  0  0  0  0
104166  1  0  0  0  0
105106  2  0  0  0  0
105109  1  0  0  0  0
106107  1  0  0  0  0
106121  1  0  0  0  0
107108  2  0  0  0  0
107122  1  0  0  0  0
108167  1  0  0  0  0
109110  1  0  0  0  0
110111  1  0  0  0  0
110120  2  0  0  0  0
111112  2  0  0  0  0
111116  1  0  0  0  0
112113  1  0  0  0  0
112168  1  0  0  0  0
113114  2  0  0  0  0
113119  1  0  0  0  0
114115  1  0  0  0  0
114117  1  0  0  0  0
115116  2  0  0  0  0
115118  1  0  0  0  0
116169  1  0  0  0  0
117170  1  0  0  0  0
118171  1  0  0  0  0
119172  1  0  0  0  0
121173  1  0  0  0  0
122174  1  0  0  0  0
M  END
>  <DRUGBANK_ID>
DB09372

>  <COMMON_NAME>
Tannic acid

>  <CAS_NUMBER>
1401-55-4

>  <UNII>
28F9E0DJY6

>  <SYNONYMS>
ácido tánico; Gallotannic acid; Gallotannin; Tannic acid

$$$$
