
 OpenBabel10282417133D

 65 69  0  0  0  0  0  0  0  0999 V2000
    1.0219   -0.0690    0.0848 C   0  0  0  0  0  0  0  0  0  0  0  0
    4.4894   -9.6525    2.9838 C   0  0  0  0  0  0  0  0  0  0  0  0
    5.2005   -8.9018   -2.0838 C   0  0  0  0  0  0  0  0  0  0  0  0
    5.0862   -9.5778   -3.2410 C   0  0  0  0  0  0  0  0  0  0  0  0
    5.4872  -11.4272   -4.5289 C   0  0  0  0  0  0  0  0  0  0  0  0
    5.9922  -12.7217   -4.8695 C   0  0  0  0  0  0  0  0  0  0  0  0
    0.8417   -6.6981   -0.6976 C   0  0  0  0  0  0  0  0  0  0  0  0
    0.9373   -7.2731    0.5717 C   0  0  0  0  0  0  0  0  0  0  0  0
    0.1756   -4.2175   -2.2709 C   0  0  0  0  0  0  0  0  0  0  0  0
    2.6273   -3.5997   -2.0516 C   0  0  0  0  0  0  0  0  0  0  0  0
   -0.1829   -2.7581   -2.2013 C   0  0  0  0  0  0  0  0  0  0  0  0
    2.1741   -2.1394   -1.9747 C   0  0  0  0  0  0  0  0  0  0  0  0
    6.1749  -10.8541   -1.0879 C   0  0  0  0  0  0  0  0  0  0  0  0
    5.5140  -13.2266   -2.9958 C   0  0  0  0  0  0  0  0  0  0  0  0
    3.2167   -6.8271   -0.9703 C   0  0  0  0  0  0  0  0  0  0  0  0
    5.6608   -8.6560    0.3237 C   0  0  0  0  0  0  0  0  0  0  0  0
    0.5117   -1.4670   -0.2093 C   0  0  0  0  0  0  0  0  0  0  0  0
    3.7366   -8.8688    1.9752 C   0  0  0  0  0  0  0  0  0  0  0  0
    5.7297   -9.4951   -0.9491 C   0  0  0  0  0  0  0  0  0  0  0  0
    5.4484  -10.8901   -3.2969 C   0  0  0  0  0  0  0  0  0  0  0  0
    5.1676  -13.7062   -4.4894 C   0  0  0  0  0  0  0  0  0  0  0  0
    5.7656  -11.7475   -2.2751 C   0  0  0  0  0  0  0  0  0  0  0  0
    1.5944   -4.4818   -2.7626 C   0  0  0  0  0  0  0  0  0  0  0  0
    1.9733   -6.4443   -1.4551 C   0  0  0  0  0  0  0  0  0  0  0  0
    2.1626   -7.8192    0.9724 C   0  0  0  0  0  0  0  0  0  0  0  0
    3.2899   -7.6390    0.1743 C   0  0  0  0  0  0  0  0  0  0  0  0
    4.4783  -13.5701   -6.1065 C   0  0  0  0  0  0  0  0  0  0  0  0
   -0.2730   -2.0500    0.6425 N   0  0  0  0  0  0  0  0  0  0  0  0
    4.1220  -12.4226   -6.6916 N   0  3  0  0  0  0  0  0  0  0  0  0
    4.5081  -14.4440   -7.1419 N   0  0  0  0  0  0  0  0  0  0  0  0
    2.4675   -8.5367    2.0913 N   0  0  0  0  0  0  0  0  0  0  0  0
    0.8281   -2.0531   -1.4203 N   0  0  0  0  0  0  0  0  0  0  0  0
    4.2797   -8.3949    0.7917 N   0  0  0  0  0  0  0  0  0  0  0  0
    1.9429   -5.8840   -2.7079 O   0  0  0  0  0  0  0  0  0  0  0  0
   -0.4183   -1.4658    1.4741 H   0  0  0  0  0  0  0  0  0  0  0  0
    0.6489    0.3037    1.0441 H   0  0  0  0  0  0  0  0  0  0  0  0
    0.6573    0.6025   -0.7000 H   0  0  0  0  0  0  0  0  0  0  0  0
    2.1122   -0.0437    0.0985 H   0  0  0  0  0  0  0  0  0  0  0  0
    4.8504  -10.5890    2.5501 H   0  0  0  0  0  0  0  0  0  0  0  0
    5.3402   -9.0761    3.3585 H   0  0  0  0  0  0  0  0  0  0  0  0
    3.8472   -9.8974    3.8357 H   0  0  0  0  0  0  0  0  0  0  0  0
    4.8586   -7.9014   -2.1494 H   0  0  0  0  0  0  0  0  0  0  0  0
    4.6869   -9.0299   -4.1056 H   0  0  0  0  0  0  0  0  0  0  0  0
    4.6780  -10.8882   -5.0232 H   0  0  0  0  0  0  0  0  0  0  0  0
    6.9382  -13.2224   -4.5866 H   0  0  0  0  0  0  0  0  0  0  0  0
   -0.1464   -6.4144   -1.0359 H   0  0  0  0  0  0  0  0  0  0  0  0
    0.0594   -7.3350    1.2038 H   0  0  0  0  0  0  0  0  0  0  0  0
   -0.5409   -4.7958   -2.8659 H   0  0  0  0  0  0  0  0  0  0  0  0
    0.0888   -4.5324   -1.2358 H   0  0  0  0  0  0  0  0  0  0  0  0
    2.8002   -3.9775   -1.0386 H   0  0  0  0  0  0  0  0  0  0  0  0
    3.5926   -3.6764   -2.5698 H   0  0  0  0  0  0  0  0  0  0  0  0
   -0.2280   -2.3319   -3.2066 H   0  0  0  0  0  0  0  0  0  0  0  0
   -1.1789   -2.6667   -1.7536 H   0  0  0  0  0  0  0  0  0  0  0  0
    2.9015   -1.5749   -1.3854 H   0  0  0  0  0  0  0  0  0  0  0  0
    2.1582   -1.7123   -2.9829 H   0  0  0  0  0  0  0  0  0  0  0  0
    6.7707  -11.2564   -0.2571 H   0  0  0  0  0  0  0  0  0  0  0  0
    6.1802  -13.9033   -2.3708 H   0  0  0  0  0  0  0  0  0  0  0  0
    4.0825   -6.4818   -1.5116 H   0  0  0  0  0  0  0  0  0  0  0  0
    6.1137   -7.6659    0.1797 H   0  0  0  0  0  0  0  0  0  0  0  0
    6.2060   -9.1551    1.1269 H   0  0  0  0  0  0  0  0  0  0  0  0
    1.6289   -4.2279   -3.8340 H   0  0  0  0  0  0  0  0  0  0  0  0
    3.8719  -12.2789   -7.6590 H   0  0  0  0  0  0  0  0  0  0  0  0
    4.1569  -11.5176   -6.2879 H   0  0  0  0  0  0  0  0  0  0  0  0
    4.8257  -15.3967   -7.2403 H   0  0  0  0  0  0  0  0  0  0  0  0
    4.1889  -14.1192   -8.0633 H   0  0  0  0  0  0  0  0  0  0  0  0
  1 36  1  0  0  0  0
  1 37  1  0  0  0  0
  1 38  1  0  0  0  0
  2 39  1  0  0  0  0
  2 40  1  0  0  0  0
  2 41  1  0  0  0  0
  3 42  1  0  0  0  0
  4  3  2  0  0  0  0
  4 43  1  0  0  0  0
  5 44  1  0  0  0  0
  6  5  2  0  0  0  0
  6 45  1  0  0  0  0
  7 46  1  0  0  0  0
  8  7  2  0  0  0  0
  8 47  1  0  0  0  0
  9 48  1  0  0  0  0
  9 49  1  0  0  0  0
 10 50  1  0  0  0  0
 10 51  1  0  0  0  0
 11  9  1  0  0  0  0
 11 52  1  0  0  0  0
 11 53  1  0  0  0  0
 12 10  1  0  0  0  0
 12 54  1  0  0  0  0
 12 55  1  0  0  0  0
 13 56  1  0  0  0  0
 14 57  1  0  0  0  0
 15 58  1  0  0  0  0
 16 59  1  0  0  0  0
 16 60  1  0  0  0  0
 17  1  1  0  0  0  0
 18  2  1  0  0  0  0
 19  3  1  0  0  0  0
 19 13  2  0  0  0  0
 19 16  1  0  0  0  0
 20  4  1  0  0  0  0
 20  5  1  0  0  0  0
 21  6  1  0  0  0  0
 21 14  2  0  0  0  0
 22 13  1  0  0  0  0
 22 14  1  0  0  0  0
 22 20  2  0  0  0  0
 23  9  1  0  0  0  0
 23 10  1  0  0  0  0
 23 61  1  0  0  0  0
 24  7  1  0  0  0  0
 24 15  2  0  0  0  0
 25  8  1  0  0  0  0
 26 15  1  0  0  0  0
 26 25  2  0  0  0  0
 27 21  1  0  0  0  0
 28 17  2  0  0  0  0
 29 27  2  0  0  0  0
 29 62  1  0  0  0  0
 29 63  1  0  0  0  0
 30 27  1  0  0  0  0
 30 64  1  0  0  0  0
 30 65  1  0  0  0  0
 31 18  2  0  0  0  0
 31 25  1  0  0  0  0
 32 11  1  0  0  0  0
 32 12  1  0  0  0  0
 32 17  1  0  0  0  0
 33 16  1  0  0  0  0
 33 18  1  0  0  0  0
 33 26  1  0  0  0  0
 34 23  1  0  0  0  0
 34 24  1  0  0  0  0
 35 28  1  0  0  0  0
M  CHG  1  29   1
M  END
>  <DRUGBANK_ID>
DB03373

>  <SECONDARY_ACCESSION_NUMBERS>
EXPT00295

>  <COMMON_NAME>
ZK-806711

$$$$
