
 OpenBabel10282417153D

 68 69  0  0  0  0  0  0  0  0999 V2000
    1.3361   -0.1623   -0.3983 C   0  0  0  0  0  0  0  0  0  0  0  0
    0.8749   -0.5102    1.0068 C   0  0  0  0  0  0  0  0  0  0  0  0
    1.3281    0.4480    2.1770 C   0  0  0  0  0  0  0  0  0  0  0  0
    0.2300    1.5127    2.6213 C   0  0  0  0  0  0  0  0  0  0  0  0
   -0.4630    1.9844    1.3059 C   0  0  0  0  0  0  0  0  0  0  0  0
    0.5377    2.8655    0.4958 C   0  0  0  0  0  0  0  0  0  0  0  0
    0.6299    4.2336    1.1446 C   0  0  0  0  0  0  0  0  0  0  0  0
    1.2504    3.9476    2.5190 C   0  0  0  0  0  0  0  0  0  0  0  0
    0.5528    2.8916    3.3170 C   0  0  0  0  0  0  0  0  0  0  0  0
   -0.6779    5.0004    1.1812 C   0  0  0  0  0  0  0  0  0  0  0  0
   -0.2674    6.4691    1.1465 C   0  0  0  0  0  0  0  0  0  0  0  0
    0.8871    6.5064    0.2845 N   0  0  0  0  0  0  0  0  0  0  0  0
    1.4865    5.1786    0.3211 C   0  0  0  0  0  0  0  0  0  0  0  0
    1.8629    7.5797    0.5045 C   0  0  0  0  0  0  0  0  0  0  0  0
    2.6523    7.6530    1.8363 C   0  0  0  0  0  0  0  0  0  0  0  0
    3.6182    6.5167    2.2953 C   0  0  0  0  0  0  0  0  0  0  0  0
    4.7699    6.0270    1.5105 N   0  0  0  0  0  0  0  0  0  0  0  0
    5.5068    4.9157    2.1382 C   0  0  0  0  0  0  0  0  0  0  0  0
    4.8298    3.5538    2.1720 C   0  0  0  0  0  0  0  0  0  0  0  0
    4.7420    5.9324    0.0491 C   0  0  0  0  0  0  0  0  0  0  0  0
    4.1781    4.6961   -0.6718 C   0  0  0  0  0  0  0  0  0  0  0  0
   -0.4603    0.9029    3.8931 C   0  0  0  0  0  0  0  0  0  0  0  0
   -1.3437   -0.3147    3.9003 C   0  0  0  0  0  0  0  0  0  0  0  0
   -0.7005   -1.6355    3.5540 C   0  0  0  0  0  0  0  0  0  0  0  0
    0.9849    0.8069   -0.7414 H   0  0  0  0  0  0  0  0  0  0  0  0
    0.9178   -0.8801   -1.1132 H   0  0  0  0  0  0  0  0  0  0  0  0
    2.4236   -0.1855   -0.4603 H   0  0  0  0  0  0  0  0  0  0  0  0
   -0.2177   -0.5981    0.9631 H   0  0  0  0  0  0  0  0  0  0  0  0
    1.2282   -1.5291    1.2091 H   0  0  0  0  0  0  0  0  0  0  0  0
    1.5276   -0.2201    3.0268 H   0  0  0  0  0  0  0  0  0  0  0  0
    2.3044    0.8872    1.9571 H   0  0  0  0  0  0  0  0  0  0  0  0
   -0.8058    1.1915    0.6480 H   0  0  0  0  0  0  0  0  0  0  0  0
   -1.3697    2.5524    1.5147 H   0  0  0  0  0  0  0  0  0  0  0  0
    1.5555    2.4327    0.4859 H   0  0  0  0  0  0  0  0  0  0  0  0
    0.2622    2.9480   -0.5612 H   0  0  0  0  0  0  0  0  0  0  0  0
    2.2204    3.5077    2.3636 H   0  0  0  0  0  0  0  0  0  0  0  0
    1.3315    4.8387    3.1424 H   0  0  0  0  0  0  0  0  0  0  0  0
   -0.4150    3.3621    3.5651 H   0  0  0  0  0  0  0  0  0  0  0  0
    1.0699    2.7709    4.2775 H   0  0  0  0  0  0  0  0  0  0  0  0
   -1.2501    4.7469    0.2751 H   0  0  0  0  0  0  0  0  0  0  0  0
   -1.2867    4.7795    2.0525 H   0  0  0  0  0  0  0  0  0  0  0  0
   -1.0739    7.0843    0.7384 H   0  0  0  0  0  0  0  0  0  0  0  0
   -0.0323    6.8041    2.1636 H   0  0  0  0  0  0  0  0  0  0  0  0
    2.4170    5.2377    0.8023 H   0  0  0  0  0  0  0  0  0  0  0  0
    1.5952    4.8276   -0.7121 H   0  0  0  0  0  0  0  0  0  0  0  0
    2.5551    7.6008   -0.3351 H   0  0  0  0  0  0  0  0  0  0  0  0
    1.3209    8.5334    0.3885 H   0  0  0  0  0  0  0  0  0  0  0  0
    3.2191    8.5922    1.8423 H   0  0  0  0  0  0  0  0  0  0  0  0
    1.9066    7.7777    2.6358 H   0  0  0  0  0  0  0  0  0  0  0  0
    4.0166    6.8696    3.2603 H   0  0  0  0  0  0  0  0  0  0  0  0
    3.0113    5.6794    2.6145 H   0  0  0  0  0  0  0  0  0  0  0  0
    6.4739    4.8046    1.6388 H   0  0  0  0  0  0  0  0  0  0  0  0
    5.7319    5.1844    3.1766 H   0  0  0  0  0  0  0  0  0  0  0  0
    4.6440    3.1092    1.1939 H   0  0  0  0  0  0  0  0  0  0  0  0
    5.4034    2.8119    2.7280 H   0  0  0  0  0  0  0  0  0  0  0  0
    3.9093    3.6614    2.7176 H   0  0  0  0  0  0  0  0  0  0  0  0
    4.3148    6.8395   -0.3739 H   0  0  0  0  0  0  0  0  0  0  0  0
    5.7834    5.9926   -0.2847 H   0  0  0  0  0  0  0  0  0  0  0  0
    3.5206    4.0707   -0.0706 H   0  0  0  0  0  0  0  0  0  0  0  0
    3.6028    5.0026   -1.5527 H   0  0  0  0  0  0  0  0  0  0  0  0
    4.9585    4.0056   -0.9920 H   0  0  0  0  0  0  0  0  0  0  0  0
    0.3569    0.7104    4.6174 H   0  0  0  0  0  0  0  0  0  0  0  0
   -1.0596    1.6720    4.4036 H   0  0  0  0  0  0  0  0  0  0  0  0
   -1.6983   -0.4083    4.9367 H   0  0  0  0  0  0  0  0  0  0  0  0
   -2.2108   -0.1139    3.2721 H   0  0  0  0  0  0  0  0  0  0  0  0
    0.2347   -1.8108    4.0961 H   0  0  0  0  0  0  0  0  0  0  0  0
   -1.3898   -2.4547    3.7586 H   0  0  0  0  0  0  0  0  0  0  0  0
   -0.5053   -1.7056    2.4966 H   0  0  0  0  0  0  0  0  0  0  0  0
  1  2  1  0  0  0  0
  1 25  1  0  0  0  0
  1 26  1  0  0  0  0
  1 27  1  0  0  0  0
  2  3  1  0  0  0  0
  2 28  1  0  0  0  0
  2 29  1  0  0  0  0
  3  4  1  0  0  0  0
  3 30  1  0  0  0  0
  3 31  1  0  0  0  0
  4  5  1  0  0  0  0
  4  9  1  0  0  0  0
  4 22  1  0  0  0  0
  5  6  1  0  0  0  0
  5 32  1  0  0  0  0
  5 33  1  0  0  0  0
  6  7  1  0  0  0  0
  6 34  1  0  0  0  0
  6 35  1  0  0  0  0
  7  8  1  0  0  0  0
  7 10  1  0  0  0  0
  7 13  1  0  0  0  0
  8  9  1  0  0  0  0
  8 36  1  0  0  0  0
  8 37  1  0  0  0  0
  9 38  1  0  0  0  0
  9 39  1  0  0  0  0
 10 11  1  0  0  0  0
 10 40  1  0  0  0  0
 10 41  1  0  0  0  0
 11 12  1  0  0  0  0
 11 42  1  0  0  0  0
 11 43  1  0  0  0  0
 12 13  1  0  0  0  0
 12 14  1  0  0  0  0
 13 44  1  0  0  0  0
 13 45  1  0  0  0  0
 14 15  1  0  0  0  0
 14 46  1  0  0  0  0
 14 47  1  0  0  0  0
 15 16  1  0  0  0  0
 15 48  1  0  0  0  0
 15 49  1  0  0  0  0
 16 17  1  0  0  0  0
 16 50  1  0  0  0  0
 16 51  1  0  0  0  0
 17 18  1  0  0  0  0
 17 20  1  0  0  0  0
 18 19  1  0  0  0  0
 18 52  1  0  0  0  0
 18 53  1  0  0  0  0
 19 54  1  0  0  0  0
 19 55  1  0  0  0  0
 19 56  1  0  0  0  0
 20 21  1  0  0  0  0
 20 57  1  0  0  0  0
 20 58  1  0  0  0  0
 21 59  1  0  0  0  0
 21 60  1  0  0  0  0
 21 61  1  0  0  0  0
 22 23  1  0  0  0  0
 22 62  1  0  0  0  0
 22 63  1  0  0  0  0
 23 24  1  0  0  0  0
 23 64  1  0  0  0  0
 23 65  1  0  0  0  0
 24 66  1  0  0  0  0
 24 67  1  0  0  0  0
 24 68  1  0  0  0  0
M  END
>  <DRUGBANK_ID>
DB05513

>  <COMMON_NAME>
Atiprimod

>  <CAS_NUMBER>
123018-47-3

>  <UNII>
MG7D3QD743

>  <SYNONYMS>
Atiprimod; Azaspirane; N,N-Diethyl-8,8-dipropyl-2-azaspiro(4.5)decane-2-propanamine

$$$$
