
 OpenBabel10282417183D

 67 70  0  0  0  0  0  0  0  0999 V2000
    0.9561   -0.0048   -0.1247 N   0  0  0  0  0  0  0  0  0  0  0  0
   -3.0489    2.3938   -3.6348 N   0  0  0  0  0  0  0  0  0  0  0  0
   -2.5102    3.4992   -3.2195 C   0  0  0  0  0  0  0  0  0  0  0  0
   -1.5031    3.5282   -2.2791 N   0  0  0  0  0  0  0  0  0  0  0  0
   -1.3258    2.4239   -1.4996 C   0  0  0  0  0  0  0  0  0  0  0  0
   -1.7997    1.1576   -2.0393 C   0  0  0  0  0  0  0  0  0  0  0  0
   -2.6157    1.2170   -3.1043 C   0  0  0  0  0  0  0  0  0  0  0  0
   -0.5931    4.5998   -1.9065 C   0  0  0  0  0  0  0  0  0  0  0  0
    0.1947    5.1963   -3.0272 C   0  0  0  0  0  0  0  0  0  0  0  0
   -0.3694    5.6695   -4.2192 C   0  0  0  0  0  0  0  0  0  0  0  0
    0.3125    6.0766   -5.3120 C   0  0  0  0  0  0  0  0  0  0  0  0
    1.6308    6.3211   -5.0863 C   0  0  0  0  0  0  0  0  0  0  0  0
    2.1846    6.2228   -3.7919 C   0  0  0  0  0  0  0  0  0  0  0  0
    1.4864    5.5998   -2.7766 C   0  0  0  0  0  0  0  0  0  0  0  0
    2.4401    6.5484   -6.2405 C   0  0  0  0  0  0  0  0  0  0  0  0
    3.4181    5.5927   -6.5648 C   0  0  0  0  0  0  0  0  0  0  0  0
    4.2430    5.8611   -7.6427 C   0  0  0  0  0  0  0  0  0  0  0  0
    4.1314    7.0771   -8.3250 C   0  0  0  0  0  0  0  0  0  0  0  0
    3.1046    7.9762   -8.0400 C   0  0  0  0  0  0  0  0  0  0  0  0
    2.2045    7.6748   -7.0404 C   0  0  0  0  0  0  0  0  0  0  0  0
    3.6417    4.3919   -5.7540 C   0  0  0  0  0  0  0  0  0  0  0  0
    4.7121    4.1306   -5.0277 N   0  0  0  0  0  0  0  0  0  0  0  0
    4.4726    2.9388   -4.3912 N   0  0  0  0  0  0  0  0  0  0  0  0
    3.2798    2.4621   -4.7099 N   0  0  0  0  0  0  0  0  0  0  0  0
    2.7414    3.3795   -5.5265 N   0  0  0  0  0  0  0  0  0  0  0  0
   -0.7595    2.4462   -0.3825 O   0  0  0  0  0  0  0  0  0  0  0  0
   -3.0430    4.7304   -3.9322 C   0  0  0  0  0  0  0  0  0  0  0  0
   -3.5657    5.9376   -3.1071 C   0  0  0  0  0  0  0  0  0  0  0  0
   -2.9197    6.4881   -1.8155 C   0  0  0  0  0  0  0  0  0  0  0  0
   -1.6990    7.4214   -1.9694 C   0  0  0  0  0  0  0  0  0  0  0  0
   -3.1526   -0.0279   -3.7396 C   0  0  0  0  0  0  0  0  0  0  0  0
   -1.2716   -0.0590   -1.3584 C   0  0  0  0  0  0  0  0  0  0  0  0
    0.2763   -0.0457   -1.3478 C   0  0  0  0  0  0  0  0  0  0  0  0
    1.0380   -0.1042   -2.8690 S   0  0  0  0  0  0  0  0  0  0  0  0
    0.3042    0.0469    1.1876 C   0  0  0  0  0  0  0  0  0  0  0  0
    2.4196    0.0486   -0.0462 C   0  0  0  0  0  0  0  0  0  0  0  0
   -1.0631    5.3252   -1.2739 H   0  0  0  0  0  0  0  0  0  0  0  0
    0.1352    4.2426   -1.1665 H   0  0  0  0  0  0  0  0  0  0  0  0
   -1.3533    6.1085   -4.2419 H   0  0  0  0  0  0  0  0  0  0  0  0
   -0.2051    6.2855   -6.2450 H   0  0  0  0  0  0  0  0  0  0  0  0
    3.1968    6.5585   -3.5965 H   0  0  0  0  0  0  0  0  0  0  0  0
    1.9200    5.4803   -1.7873 H   0  0  0  0  0  0  0  0  0  0  0  0
    4.9995    5.1365   -7.9241 H   0  0  0  0  0  0  0  0  0  0  0  0
    4.8629    7.3260   -9.0844 H   0  0  0  0  0  0  0  0  0  0  0  0
    3.0150    8.9158   -8.5754 H   0  0  0  0  0  0  0  0  0  0  0  0
    1.3506    8.3267   -6.8535 H   0  0  0  0  0  0  0  0  0  0  0  0
    1.7923    3.2517   -5.8557 H   0  0  0  0  0  0  0  0  0  0  0  0
   -2.3634    4.8860   -4.7683 H   0  0  0  0  0  0  0  0  0  0  0  0
   -3.8796    4.4471   -4.5895 H   0  0  0  0  0  0  0  0  0  0  0  0
   -3.7274    6.7851   -3.7813 H   0  0  0  0  0  0  0  0  0  0  0  0
   -4.5557    5.5995   -2.7820 H   0  0  0  0  0  0  0  0  0  0  0  0
   -3.6414    7.0808   -1.2464 H   0  0  0  0  0  0  0  0  0  0  0  0
   -2.7960    5.6316   -1.1439 H   0  0  0  0  0  0  0  0  0  0  0  0
   -1.9268    8.3791   -2.4325 H   0  0  0  0  0  0  0  0  0  0  0  0
   -1.1059    7.5387   -1.0527 H   0  0  0  0  0  0  0  0  0  0  0  0
   -0.9623    7.0598   -2.6435 H   0  0  0  0  0  0  0  0  0  0  0  0
   -2.3416   -0.7009   -4.0369 H   0  0  0  0  0  0  0  0  0  0  0  0
   -3.8033   -0.5408   -3.0248 H   0  0  0  0  0  0  0  0  0  0  0  0
   -3.7416    0.1918   -4.6354 H   0  0  0  0  0  0  0  0  0  0  0  0
   -1.5968   -0.9808   -1.8454 H   0  0  0  0  0  0  0  0  0  0  0  0
   -1.7382   -0.0731   -0.3780 H   0  0  0  0  0  0  0  0  0  0  0  0
    0.6079   -0.8351    1.7585 H   0  0  0  0  0  0  0  0  0  0  0  0
    0.6240    0.9511    1.7154 H   0  0  0  0  0  0  0  0  0  0  0  0
   -0.7806    0.0581    1.1626 H   0  0  0  0  0  0  0  0  0  0  0  0
    2.9149    0.0639   -1.0164 H   0  0  0  0  0  0  0  0  0  0  0  0
    2.7163    0.9541    0.4932 H   0  0  0  0  0  0  0  0  0  0  0  0
    2.7667   -0.8333    0.4995 H   0  0  0  0  0  0  0  0  0  0  0  0
  1 35  1  0  0  0  0
  1 36  1  0  0  0  0
  2  3  2  0  0  0  0
  3  4  1  0  0  0  0
  3 27  1  0  0  0  0
  4  5  1  0  0  0  0
  4  8  1  0  0  0  0
  5  6  1  0  0  0  0
  5 26  2  0  0  0  0
  6  7  2  0  0  0  0
  6 32  1  0  0  0  0
  7  2  1  0  0  0  0
  7 31  1  0  0  0  0
  8  9  1  0  0  0  0
  8 37  1  0  0  0  0
  8 38  1  0  0  0  0
  9 10  2  0  0  0  0
 10 11  1  0  0  0  0
 10 39  1  0  0  0  0
 11 12  2  0  0  0  0
 11 40  1  0  0  0  0
 12 13  1  0  0  0  0
 12 15  1  0  0  0  0
 13 14  2  0  0  0  0
 13 41  1  0  0  0  0
 14  9  1  0  0  0  0
 14 42  1  0  0  0  0
 15 16  2  0  0  0  0
 16 17  1  0  0  0  0
 16 21  1  0  0  0  0
 17 18  2  0  0  0  0
 17 43  1  0  0  0  0
 18 19  1  0  0  0  0
 18 44  1  0  0  0  0
 19 20  2  0  0  0  0
 19 45  1  0  0  0  0
 20 15  1  0  0  0  0
 20 46  1  0  0  0  0
 21 22  2  0  0  0  0
 22 23  1  0  0  0  0
 23 24  2  0  0  0  0
 24 25  1  0  0  0  0
 25 21  1  0  0  0  0
 25 47  1  0  0  0  0
 27 28  1  0  0  0  0
 27 48  1  0  0  0  0
 27 49  1  0  0  0  0
 28 29  1  0  0  0  0
 28 50  1  0  0  0  0
 28 51  1  0  0  0  0
 29 30  1  0  0  0  0
 29 52  1  0  0  0  0
 29 53  1  0  0  0  0
 30 54  1  0  0  0  0
 30 55  1  0  0  0  0
 30 56  1  0  0  0  0
 31 57  1  0  0  0  0
 31 58  1  0  0  0  0
 31 59  1  0  0  0  0
 32 33  1  0  0  0  0
 32 60  1  0  0  0  0
 32 61  1  0  0  0  0
 33  1  1  0  0  0  0
 33 34  2  0  0  0  0
 35 62  1  0  0  0  0
 35 63  1  0  0  0  0
 35 64  1  0  0  0  0
 36 65  1  0  0  0  0
 36 66  1  0  0  0  0
 36 67  1  0  0  0  0
M  END
>  <DRUGBANK_ID>
DB09279

>  <COMMON_NAME>
Fimasartan

>  <CAS_NUMBER>
247257-48-3

>  <UNII>
P58222188P

>  <SYNONYMS>
Fimasartan

$$$$
