
 OpenBabel10282417203D

 51 53  0  0  0  0  0  0  0  0999 V2000
    0.6189    1.2507   -0.0840 C   0  0  0  0  0  0  0  0  0  0  0  0
    1.2913    2.5577   -0.2710 C   0  0  0  0  0  0  0  0  0  0  0  0
    0.5775    3.7281   -0.0552 N   0  0  0  0  0  0  0  0  0  0  0  0
    1.1881    5.0706   -0.0129 C   0  0  3  0  0  0  0  0  0  0  0  0
    0.8057    5.8174    1.2783 C   0  0  0  0  0  0  0  0  0  0  0  0
    1.2318    5.1007    2.5629 C   0  0  0  0  0  0  0  0  0  0  0  0
   -0.7568    1.1128   -0.0213 C   0  0  0  0  0  0  0  0  0  0  0  0
   -1.3977   -0.0803    0.0347 N   0  0  0  0  0  0  0  0  0  0  0  0
   -0.6256   -1.1896    0.0282 C   0  0  0  0  0  0  0  0  0  0  0  0
    0.7578   -1.1643    0.0111 C   0  0  0  0  0  0  0  0  0  0  0  0
    1.3875    0.0770   -0.0303 C   0  0  0  0  0  0  0  0  0  0  0  0
    2.4825    2.5286   -0.5888 O   0  0  0  0  0  0  0  0  0  0  0  0
    0.7663    5.8900   -1.2235 C   0  0  0  0  0  0  0  0  0  0  0  0
    2.6984    4.9918    2.6673 N   0  0  0  0  0  0  0  0  0  0  0  0
    3.2151    3.6851    2.1804 C   0  0  0  0  0  0  0  0  0  0  0  0
    2.7822    2.4435    2.9831 C   0  0  0  0  0  0  0  0  0  0  0  0
    3.1511    2.6457    4.3776 N   0  0  0  0  0  0  0  0  0  0  0  0
    2.7185    3.9228    4.9640 C   0  0  0  0  0  0  0  0  0  0  0  0
    3.1580    5.1056    4.0646 C   0  0  0  0  0  0  0  0  0  0  0  0
    3.9532    1.7771    5.0739 C   0  0  0  0  0  0  0  0  0  0  0  0
    5.1991    1.3360    4.6007 C   0  0  0  0  0  0  0  0  0  0  0  0
    6.0048    0.4913    5.3773 C   0  0  0  0  0  0  0  0  0  0  0  0
    5.5529    0.0645    6.6192 C   0  0  0  0  0  0  0  0  0  0  0  0
    4.3132    0.4597    7.0954 C   0  0  0  0  0  0  0  0  0  0  0  0
    3.5257    1.3130    6.3244 C   0  0  0  0  0  0  0  0  0  0  0  0
    6.3212   -0.7368    7.3688 F   0  0  0  0  0  0  0  0  0  0  0  0
   -0.4218    3.7036    0.0758 H   0  0  0  0  0  0  0  0  0  0  0  0
    2.2762    4.9887   -0.0738 H   0  0  0  0  0  0  0  0  0  0  0  0
    1.2484    6.8236    1.2757 H   0  0  0  0  0  0  0  0  0  0  0  0
   -0.2827    5.9695    1.3135 H   0  0  0  0  0  0  0  0  0  0  0  0
    0.8373    5.6963    3.3977 H   0  0  0  0  0  0  0  0  0  0  0  0
    0.7110    4.1396    2.6297 H   0  0  0  0  0  0  0  0  0  0  0  0
   -1.4265    1.9626   -0.0393 H   0  0  0  0  0  0  0  0  0  0  0  0
   -1.1684   -2.1303    0.0322 H   0  0  0  0  0  0  0  0  0  0  0  0
    1.3309   -2.0858    0.0087 H   0  0  0  0  0  0  0  0  0  0  0  0
    2.4760    0.1209   -0.0465 H   0  0  0  0  0  0  0  0  0  0  0  0
   -0.3169    6.0421   -1.2443 H   0  0  0  0  0  0  0  0  0  0  0  0
    1.2517    6.8726   -1.2052 H   0  0  0  0  0  0  0  0  0  0  0  0
    1.0623    5.3816   -2.1454 H   0  0  0  0  0  0  0  0  0  0  0  0
    2.9266    3.5730    1.1619 H   0  0  0  0  0  0  0  0  0  0  0  0
    4.3099    3.7193    2.1332 H   0  0  0  0  0  0  0  0  0  0  0  0
    1.6918    2.3189    2.9435 H   0  0  0  0  0  0  0  0  0  0  0  0
    3.1925    1.5243    2.5493 H   0  0  0  0  0  0  0  0  0  0  0  0
    1.6250    3.9101    5.0401 H   0  0  0  0  0  0  0  0  0  0  0  0
    3.1216    4.0793    5.9683 H   0  0  0  0  0  0  0  0  0  0  0  0
    4.2553    5.1580    4.0409 H   0  0  0  0  0  0  0  0  0  0  0  0
    2.8211    6.0607    4.4809 H   0  0  0  0  0  0  0  0  0  0  0  0
    5.5792    1.6811    3.6418 H   0  0  0  0  0  0  0  0  0  0  0  0
    6.9830    0.1742    5.0291 H   0  0  0  0  0  0  0  0  0  0  0  0
    3.9618    0.1095    8.0587 H   0  0  0  0  0  0  0  0  0  0  0  0
    2.5442    1.6052    6.6877 H   0  0  0  0  0  0  0  0  0  0  0  0
  1  7  2  0  0  0  0
  1  2  1  0  0  0  0
  2  3  1  0  0  0  0
  2 12  2  0  0  0  0
  3  4  1  0  0  0  0
  3 27  1  0  0  0  0
  4 13  1  0  0  0  0
  4  5  1  0  0  0  0
  4 28  1  0  0  0  0
  5  6  1  0  0  0  0
  5 29  1  0  0  0  0
  5 30  1  0  0  0  0
  6 14  1  0  0  0  0
  6 31  1  0  0  0  0
  6 32  1  0  0  0  0
  7  8  1  0  0  0  0
  7 33  1  0  0  0  0
  8  9  2  0  0  0  0
  9 10  1  0  0  0  0
  9 34  1  0  0  0  0
 10 11  2  0  0  0  0
 10 35  1  0  0  0  0
 11  1  1  0  0  0  0
 11 36  1  0  0  0  0
 13 37  1  0  0  0  0
 13 38  1  0  0  0  0
 13 39  1  0  0  0  0
 14 15  1  0  0  0  0
 14 19  1  0  0  0  0
 15 16  1  0  0  0  0
 15 40  1  0  0  0  0
 15 41  1  0  0  0  0
 16 17  1  0  0  0  0
 16 42  1  0  0  0  0
 16 43  1  0  0  0  0
 17 18  1  0  0  0  0
 17 20  1  0  0  0  0
 18 19  1  0  0  0  0
 18 44  1  0  0  0  0
 18 45  1  0  0  0  0
 19 46  1  0  0  0  0
 19 47  1  0  0  0  0
 20 21  2  0  0  0  0
 21 22  1  0  0  0  0
 21 48  1  0  0  0  0
 22 23  2  0  0  0  0
 22 49  1  0  0  0  0
 23 24  1  0  0  0  0
 23 26  1  0  0  0  0
 24 25  2  0  0  0  0
 24 50  1  0  0  0  0
 25 20  1  0  0  0  0
 25 51  1  0  0  0  0
M  END
>  <DRUGBANK_ID>
DB13687

>  <COMMON_NAME>
Niaprazine

>  <CAS_NUMBER>
27367-90-4

>  <UNII>
R2H3YN6E3L

>  <SYNONYMS>
Niaprazina; Niaprazine; Niaprazinum

$$$$
