
 OpenBabel10282417143D

 37 39  0  0  1  0  0  0  0  0999 V2000
    1.0382   -0.2047   -0.0123 N   0  0  0  0  0  0  0  0  0  0  0  0
    0.2930   -1.0912    0.7380 C   0  0  0  0  0  0  0  0  0  0  0  0
    0.7762   -1.9624    1.5548 N   0  0  0  0  0  0  0  0  0  0  0  0
   -0.0634   -2.9868    2.0166 C   0  0  0  0  0  0  0  0  0  0  0  0
    0.3772   -3.8137    2.8398 O   0  0  0  0  0  0  0  0  0  0  0  0
   -1.4682   -3.0740    1.4646 C   0  0  0  0  0  0  0  0  0  0  0  0
   -1.9376   -2.0760    0.5934 C   0  0  0  0  0  0  0  0  0  0  0  0
   -0.9707   -1.1113    0.1950 N   0  0  0  0  0  0  0  0  0  0  0  0
   -3.1125   -2.7349   -0.1872 N   0  0  0  0  0  0  0  0  0  0  0  0
   -3.1550   -4.0447    0.4128 C   0  0  0  0  0  0  0  0  0  0  0  0
   -2.2788   -4.2168    1.3986 N   0  0  0  0  0  0  0  0  0  0  0  0
   -3.7769   -2.5453   -1.7379 C   0  0  1  0  0  0  0  0  0  0  0  0
   -4.2607   -1.1339   -1.8963 C   0  0  0  0  0  0  0  0  0  0  0  0
   -4.0112   -0.7089   -3.3741 C   0  0  2  0  0  0  0  0  0  0  0  0
   -5.1160   -1.2470   -4.1130 O   0  0  0  0  0  0  0  0  0  0  0  0
   -2.8442   -1.4585   -3.9573 C   0  0  1  0  0  0  0  0  0  0  0  0
   -1.3648   -0.8172   -3.9708 C   0  0  0  0  0  0  0  0  0  0  0  0
   -0.4644   -1.9042   -3.7021 O   0  0  0  0  0  0  0  0  0  0  0  0
   -0.9242   -2.7697   -2.2765 P   0  0  0  0  0  0  0  0  0  0  0  0
   -1.7911   -1.4656   -1.9401 O   0  0  0  0  0  0  0  0  0  0  0  0
   -1.2943   -3.9567   -3.3091 O   0  0  0  0  0  0  0  0  0  0  0  0
   -1.3357   -3.5444   -1.0005 O   0  0  0  0  0  0  0  0  0  0  0  0
   -3.1102   -2.7639   -3.1697 O   0  0  0  0  0  0  0  0  0  0  0  0
    0.5992    0.6941   -0.1970 H   0  0  0  0  0  0  0  0  0  0  0  0
    2.0178   -0.0730    0.2417 H   0  0  0  0  0  0  0  0  0  0  0  0
   -0.5293   -1.3074   -0.7076 H   0  0  0  0  0  0  0  0  0  0  0  0
   -3.6439   -4.8702   -0.1083 H   0  0  0  0  0  0  0  0  0  0  0  0
   -4.4571   -3.4034   -1.7671 H   0  0  0  0  0  0  0  0  0  0  0  0
   -3.7102   -0.4860   -1.2122 H   0  0  0  0  0  0  0  0  0  0  0  0
   -5.3006   -1.1378   -1.5931 H   0  0  0  0  0  0  0  0  0  0  0  0
   -3.9310    0.3703   -3.5039 H   0  0  0  0  0  0  0  0  0  0  0  0
   -4.9535   -2.2177   -4.1416 H   0  0  0  0  0  0  0  0  0  0  0  0
   -2.9367   -1.7539   -5.0117 H   0  0  0  0  0  0  0  0  0  0  0  0
   -1.0707   -0.3287   -4.9081 H   0  0  0  0  0  0  0  0  0  0  0  0
   -1.1584   -0.0125   -3.2337 H   0  0  0  0  0  0  0  0  0  0  0  0
   -1.7722   -0.7847   -1.2332 H   0  0  0  0  0  0  0  0  0  0  0  0
   -1.9443   -3.6871   -3.9718 H   0  0  0  0  0  0  0  0  0  0  0  0
  1  2  1  0  0  0  0
  1 24  1  0  0  0  0
  1 25  1  0  0  0  0
  2  3  2  0  0  0  0
  2  8  1  0  0  0  0
  3  4  1  0  0  0  0
  4  5  2  0  0  0  0
  4  6  1  0  0  0  0
  6  7  2  0  0  0  0
  6 11  1  0  0  0  0
  7  8  1  0  0  0  0
  7  9  1  0  0  0  0
  8 26  1  0  0  0  0
  9 10  1  0  0  0  0
 10 11  2  0  0  0  0
 10 27  1  0  0  0  0
 12  9  1  0  0  0  0
 12 13  1  0  0  0  0
 12 23  1  0  0  0  0
 12 28  1  6  0  0  0
 13 14  1  0  0  0  0
 13 29  1  0  0  0  0
 13 30  1  0  0  0  0
 14 15  1  0  0  0  0
 14 16  1  0  0  0  0
 14 31  1  6  0  0  0
 15 32  1  0  0  0  0
 16 23  1  0  0  0  0
 16 33  1  6  0  0  0
 16 17  1  0  0  0  0
 17 18  1  0  0  0  0
 17 34  1  0  0  0  0
 17 35  1  0  0  0  0
 18 19  1  0  0  0  0
 19 20  1  0  0  0  0
 19 21  1  0  0  0  0
 19 22  2  0  0  0  0
 20 36  1  0  0  0  0
 21 37  1  0  0  0  0
M  END
>  <DRUGBANK_ID>
DB04457

>  <SECONDARY_ACCESSION_NUMBERS>
EXPT01182

>  <COMMON_NAME>
2'-Deoxyguanosine-5'-Monophosphate

>  <CAS_NUMBER>
902-04-5

>  <UNII>
7EAM4TG712

$$$$
