
 OpenBabel10282417203D

104109  0  0  1  0  0  0  0  0999 V2000
    0.5863   -0.0807   -0.3402 C   0  0  0  0  0  0  0  0  0  0  0  0
    0.2812    1.3563   -0.7080 C   0  0  0  0  0  0  0  0  0  0  0  0
    0.9966    1.7983   -1.9280 N   0  0  0  0  0  0  0  0  0  0  0  0
    0.4544    3.0545   -2.4591 C   0  0  0  0  0  0  0  0  0  0  0  0
    0.7701    4.2529   -1.6297 C   0  0  0  0  0  0  0  0  0  0  0  0
    2.4855    1.7863   -1.8708 C   0  0  0  0  0  0  0  0  0  0  0  0
    3.2928    2.5867   -0.8154 C   0  0  0  0  0  0  0  0  0  0  0  0
    2.8645    2.3685    0.5475 N   0  0  0  0  0  0  0  0  0  0  0  0
    2.9140    1.1443    1.2236 C   0  0  0  0  0  0  0  0  0  0  0  0
    3.3999   -0.1129    0.8521 C   0  0  0  0  0  0  0  0  0  0  0  0
    2.9905   -1.2123    1.6255 C   0  0  0  0  0  0  0  0  0  0  0  0
    2.3391   -1.0457    2.8488 C   0  0  0  0  0  0  0  0  0  0  0  0
    1.9990    0.2184    3.2915 C   0  0  0  0  0  0  0  0  0  0  0  0
    2.2162    1.2852    2.4216 C   0  0  0  0  0  0  0  0  0  0  0  0
    1.9959    2.6349    2.5346 C   0  0  0  0  0  0  0  0  0  0  0  0
    2.2532    3.2914    1.3542 C   0  0  0  0  0  0  0  0  0  0  0  0
    2.1332    4.8138    1.3008 C   0  0  1  0  0  0  0  0  0  0  0  0
    0.6352    5.1192    1.1955 C   0  0  0  0  0  0  0  0  0  0  0  0
   -0.0902    6.0690    2.1084 C   0  0  1  0  0  0  0  0  0  0  0  0
    0.8974    7.0575    2.7149 C   0  0  2  0  0  0  0  0  0  0  0  0
    1.5028    7.9977    1.6921 C   0  0  0  0  0  0  0  0  0  0  0  0
    0.4292    8.7140    0.9042 C   0  0  2  0  0  0  0  0  0  0  0  0
   -0.6317    7.7656    0.2712 C   0  0  1  0  0  0  0  0  0  0  0  0
   -1.2234    6.7390    1.2860 C   0  0  1  0  0  0  0  0  0  0  0  0
   -2.1377    5.6824    0.6039 C   0  0  0  0  0  0  0  0  0  0  0  0
   -2.3156    4.5477    1.0354 O   0  0  0  0  0  0  0  0  0  0  0  0
   -2.7884    6.1695   -0.4841 O   0  0  0  0  0  0  0  0  0  0  0  0
   -3.6874    5.2642   -1.1332 C   0  0  0  0  0  0  0  0  0  0  0  0
   -1.6380    8.5467   -0.3861 O   0  0  0  0  0  0  0  0  0  0  0  0
   -2.4855    9.2614    0.4891 C   0  0  0  0  0  0  0  0  0  0  0  0
    1.0408    9.6186   -0.0605 O   0  0  0  0  0  0  0  0  0  0  0  0
    1.7430    9.0567   -1.0686 C   0  0  0  0  0  0  0  0  0  0  0  0
    1.9334    7.8424   -1.2374 O   0  0  0  0  0  0  0  0  0  0  0  0
    2.2974   10.0278   -2.0248 C   0  0  0  0  0  0  0  0  0  0  0  0
    2.8766   11.2324   -1.6193 C   0  0  0  0  0  0  0  0  0  0  0  0
    3.5495   12.0274   -2.5590 C   0  0  0  0  0  0  0  0  0  0  0  0
    3.6333   11.6236   -3.9128 C   0  0  0  0  0  0  0  0  0  0  0  0
    3.0280   10.4156   -4.3159 C   0  0  0  0  0  0  0  0  0  0  0  0
    2.3658    9.6324   -3.3662 C   0  0  0  0  0  0  0  0  0  0  0  0
    3.0165    9.8616   -5.5765 O   0  0  0  0  0  0  0  0  0  0  0  0
    3.6824   10.5663   -6.6205 C   0  0  0  0  0  0  0  0  0  0  0  0
    4.2815   12.3168   -4.8989 O   0  0  0  0  0  0  0  0  0  0  0  0
    4.9370   13.5416   -4.6457 C   0  0  0  0  0  0  0  0  0  0  0  0
    4.1762   13.1973   -2.2396 O   0  0  0  0  0  0  0  0  0  0  0  0
    4.1562   13.6798   -0.9145 C   0  0  0  0  0  0  0  0  0  0  0  0
    2.0241    6.2970    3.3734 C   0  0  0  0  0  0  0  0  0  0  0  0
    2.8136    5.4334    2.4831 N   0  0  3  0  0  0  0  0  0  0  0  0
    3.2976    4.3503    3.3665 C   0  0  0  0  0  0  0  0  0  0  0  0
    2.0170    3.4638    3.7268 C   0  0  0  0  0  0  0  0  0  0  0  0
    3.1736   -2.4239    1.0094 O   0  0  0  0  0  0  0  0  0  0  0  0
    2.9162   -3.5491    1.8340 C   0  0  0  0  0  0  0  0  0  0  0  0
    0.0833   -0.8246   -0.9502 H   0  0  0  0  0  0  0  0  0  0  0  0
    0.3705   -0.2646    0.7187 H   0  0  0  0  0  0  0  0  0  0  0  0
    1.6287   -0.2809   -0.5231 H   0  0  0  0  0  0  0  0  0  0  0  0
   -0.8072    1.4413   -0.8051 H   0  0  0  0  0  0  0  0  0  0  0  0
    0.4932    1.9972    0.1440 H   0  0  0  0  0  0  0  0  0  0  0  0
    0.8156    3.2370   -3.4700 H   0  0  0  0  0  0  0  0  0  0  0  0
   -0.6376    2.9806   -2.4982 H   0  0  0  0  0  0  0  0  0  0  0  0
    1.8019    4.5915   -1.6786 H   0  0  0  0  0  0  0  0  0  0  0  0
    0.1520    5.1239   -1.8428 H   0  0  0  0  0  0  0  0  0  0  0  0
    0.5423    3.9121   -0.6380 H   0  0  0  0  0  0  0  0  0  0  0  0
    2.8178    0.7457   -1.8142 H   0  0  0  0  0  0  0  0  0  0  0  0
    2.8540    2.0920   -2.8588 H   0  0  0  0  0  0  0  0  0  0  0  0
    4.3603    2.3406   -0.8563 H   0  0  0  0  0  0  0  0  0  0  0  0
    3.2790    3.6554   -1.0195 H   0  0  0  0  0  0  0  0  0  0  0  0
    3.8409   -0.2751   -0.1248 H   0  0  0  0  0  0  0  0  0  0  0  0
    2.0322   -1.8776    3.4694 H   0  0  0  0  0  0  0  0  0  0  0  0
    1.4839    0.3674    4.2353 H   0  0  0  0  0  0  0  0  0  0  0  0
    2.6269    5.1903    0.3955 H   0  0  0  0  0  0  0  0  0  0  0  0
    0.5443    5.5817    0.2232 H   0  0  0  0  0  0  0  0  0  0  0  0
    0.0434    4.1953    1.2049 H   0  0  0  0  0  0  0  0  0  0  0  0
   -0.5565    5.4778    2.9111 H   0  0  0  0  0  0  0  0  0  0  0  0
    0.3737    7.6290    3.4913 H   0  0  0  0  0  0  0  0  0  0  0  0
    2.1624    7.4534    1.0145 H   0  0  0  0  0  0  0  0  0  0  0  0
    2.1604    8.7195    2.1905 H   0  0  0  0  0  0  0  0  0  0  0  0
   -0.0778    9.3552    1.6321 H   0  0  0  0  0  0  0  0  0  0  0  0
   -0.1722    7.2162   -0.5540 H   0  0  0  0  0  0  0  0  0  0  0  0
   -1.8565    7.2372    2.0230 H   0  0  0  0  0  0  0  0  0  0  0  0
   -3.1464    4.4041   -1.5402 H   0  0  0  0  0  0  0  0  0  0  0  0
   -4.4723    4.9399   -0.4429 H   0  0  0  0  0  0  0  0  0  0  0  0
   -4.1623    5.7959   -1.9639 H   0  0  0  0  0  0  0  0  0  0  0  0
   -2.9976    8.5956    1.1853 H   0  0  0  0  0  0  0  0  0  0  0  0
   -1.9162   10.0121    1.0361 H   0  0  0  0  0  0  0  0  0  0  0  0
   -3.2467    9.7559   -0.1088 H   0  0  0  0  0  0  0  0  0  0  0  0
    2.8367   11.5112   -0.5722 H   0  0  0  0  0  0  0  0  0  0  0  0
    1.9197    8.6847   -3.6676 H   0  0  0  0  0  0  0  0  0  0  0  0
    3.2165   11.5439   -6.7909 H   0  0  0  0  0  0  0  0  0  0  0  0
    4.7573   10.6447   -6.4180 H   0  0  0  0  0  0  0  0  0  0  0  0
    3.5805   10.0053   -7.5523 H   0  0  0  0  0  0  0  0  0  0  0  0
    4.2238   14.3002   -4.3117 H   0  0  0  0  0  0  0  0  0  0  0  0
    5.7721   13.3990   -3.9537 H   0  0  0  0  0  0  0  0  0  0  0  0
    5.3598   13.8923   -5.5908 H   0  0  0  0  0  0  0  0  0  0  0  0
    3.1320   13.8831   -0.5941 H   0  0  0  0  0  0  0  0  0  0  0  0
    4.6713   12.9885   -0.2434 H   0  0  0  0  0  0  0  0  0  0  0  0
    4.7065   14.6261   -0.9127 H   0  0  0  0  0  0  0  0  0  0  0  0
    2.7199    6.9759    3.8766 H   0  0  0  0  0  0  0  0  0  0  0  0
    1.5675    5.7473    4.2023 H   0  0  0  0  0  0  0  0  0  0  0  0
    4.0587    3.8029    2.7704 H   0  0  0  0  0  0  0  0  0  0  0  0
    3.8723    4.7532    4.1960 H   0  0  0  0  0  0  0  0  0  0  0  0
    1.0433    3.9784    3.7279 H   0  0  0  0  0  0  0  0  0  0  0  0
    2.0729    2.8990    4.6514 H   0  0  0  0  0  0  0  0  0  0  0  0
    3.5354   -3.4928    2.7343 H   0  0  0  0  0  0  0  0  0  0  0  0
    1.8521   -3.6320    2.0887 H   0  0  0  0  0  0  0  0  0  0  0  0
    3.2001   -4.4438    1.2790 H   0  0  0  0  0  0  0  0  0  0  0  0
  1  2  1  0  0  0  0
  1 52  1  0  0  0  0
  1 53  1  0  0  0  0
  1 54  1  0  0  0  0
  2  3  1  0  0  0  0
  2 55  1  0  0  0  0
  2 56  1  0  0  0  0
  3  4  1  0  0  0  0
  3  6  1  0  0  0  0
  4  5  1  0  0  0  0
  4 57  1  0  0  0  0
  4 58  1  0  0  0  0
  5 59  1  0  0  0  0
  5 60  1  0  0  0  0
  5 61  1  0  0  0  0
  6  7  1  0  0  0  0
  6 62  1  0  0  0  0
  6 63  1  0  0  0  0
  7  8  1  0  0  0  0
  7 64  1  0  0  0  0
  7 65  1  0  0  0  0
  8  9  1  0  0  0  0
  8 16  1  0  0  0  0
  9 10  2  0  0  0  0
  9 14  1  0  0  0  0
 10 11  1  0  0  0  0
 10 66  1  0  0  0  0
 11 12  2  0  0  0  0
 11 50  1  0  0  0  0
 12 13  1  0  0  0  0
 12 67  1  0  0  0  0
 13 14  2  0  0  0  0
 13 68  1  0  0  0  0
 14 15  1  0  0  0  0
 15 16  2  0  0  0  0
 15 49  1  0  0  0  0
 17 16  1  0  0  0  0
 17 18  1  0  0  0  0
 17 47  1  0  0  0  0
 17 69  1  6  0  0  0
 18 70  1  0  0  0  0
 18 71  1  0  0  0  0
 19 18  1  0  0  0  0
 19 20  1  0  0  0  0
 19 24  1  0  0  0  0
 19 72  1  1  0  0  0
 20 21  1  0  0  0  0
 20 46  1  0  0  0  0
 20 73  1  1  0  0  0
 21 22  1  0  0  0  0
 21 74  1  0  0  0  0
 21 75  1  0  0  0  0
 22 23  1  0  0  0  0
 22 31  1  0  0  0  0
 22 76  1  1  0  0  0
 23 24  1  0  0  0  0
 23 29  1  0  0  0  0
 23 77  1  6  0  0  0
 24 78  1  1  0  0  0
 24 25  1  0  0  0  0
 25 26  2  0  0  0  0
 25 27  1  0  0  0  0
 27 28  1  0  0  0  0
 28 79  1  0  0  0  0
 28 80  1  0  0  0  0
 28 81  1  0  0  0  0
 29 30  1  0  0  0  0
 30 82  1  0  0  0  0
 30 83  1  0  0  0  0
 30 84  1  0  0  0  0
 31 32  1  0  0  0  0
 32 33  2  0  0  0  0
 32 34  1  0  0  0  0
 34 35  2  0  0  0  0
 34 39  1  0  0  0  0
 35 36  1  0  0  0  0
 35 85  1  0  0  0  0
 36 37  2  0  0  0  0
 36 44  1  0  0  0  0
 37 38  1  0  0  0  0
 37 42  1  0  0  0  0
 38 39  2  0  0  0  0
 38 40  1  0  0  0  0
 39 86  1  0  0  0  0
 40 41  1  0  0  0  0
 41 87  1  0  0  0  0
 41 88  1  0  0  0  0
 41 89  1  0  0  0  0
 42 43  1  0  0  0  0
 43 90  1  0  0  0  0
 43 91  1  0  0  0  0
 43 92  1  0  0  0  0
 44 45  1  0  0  0  0
 45 93  1  0  0  0  0
 45 94  1  0  0  0  0
 45 95  1  0  0  0  0
 46 47  1  0  0  0  0
 46 96  1  0  0  0  0
 46 97  1  0  0  0  0
 47 48  1  0  0  0  0
 48 49  1  0  0  0  0
 48 98  1  0  0  0  0
 48 99  1  0  0  0  0
 49100  1  0  0  0  0
 49101  1  0  0  0  0
 50 51  1  0  0  0  0
 51102  1  0  0  0  0
 51103  1  0  0  0  0
 51104  1  0  0  0  0
M  END
>  <DRUGBANK_ID>
DB13575

>  <COMMON_NAME>
Bietaserpine

>  <CAS_NUMBER>
53-18-9

>  <UNII>
0P5B94FVD5

>  <SYNONYMS>
Bietaserpine

$$$$
