
 OpenBabel10282417163D

 31 33  0  0  0  0  0  0  0  0999 V2000
    2.4996   -0.6244   -0.3148 C   0  0  0  0  0  0  0  0  0  0  0  0
    2.4383    0.7280    0.3882 C   0  0  0  0  0  0  0  0  0  0  0  0
    1.2065    1.5506   -0.0435 C   0  0  3  0  0  0  0  0  0  0  0  0
    1.0645    2.7575    0.9038 C   0  0  0  0  0  0  0  0  0  0  0  0
    0.0575    2.8793    1.7334 N   0  0  0  0  0  0  0  0  0  0  0  0
    0.2441    4.1953    2.3856 C   0  0  0  0  0  0  0  0  0  0  0  0
    1.7256    4.5118    2.1984 C   0  0  0  0  0  0  0  0  0  0  0  0
    1.9826    3.7847    0.9743 N   0  0  0  0  0  0  0  0  0  0  0  0
   -0.0660    0.6983   -0.1009 C   0  0  0  0  0  0  0  0  0  0  0  0
   -1.3284    1.3212   -0.1813 C   0  0  0  0  0  0  0  0  0  0  0  0
   -2.5097    0.5905   -0.0768 C   0  0  0  0  0  0  0  0  0  0  0  0
   -2.4543   -0.7914    0.0273 C   0  0  0  0  0  0  0  0  0  0  0  0
   -1.2185   -1.4357    0.0244 C   0  0  0  0  0  0  0  0  0  0  0  0
   -0.0191   -0.7056   -0.0436 C   0  0  0  0  0  0  0  0  0  0  0  0
    1.2788   -1.4640    0.0388 C   0  0  0  0  0  0  0  0  0  0  0  0
    2.5633   -0.4840   -1.4011 H   0  0  0  0  0  0  0  0  0  0  0  0
    3.4042   -1.1669   -0.0127 H   0  0  0  0  0  0  0  0  0  0  0  0
    2.4193    0.5626    1.4736 H   0  0  0  0  0  0  0  0  0  0  0  0
    3.3593    1.2865    0.1787 H   0  0  0  0  0  0  0  0  0  0  0  0
    1.3867    1.9366   -1.0565 H   0  0  0  0  0  0  0  0  0  0  0  0
   -0.0529    4.1419    3.4350 H   0  0  0  0  0  0  0  0  0  0  0  0
   -0.3865    4.9357    1.8770 H   0  0  0  0  0  0  0  0  0  0  0  0
    1.9222    5.5827    2.1171 H   0  0  0  0  0  0  0  0  0  0  0  0
    2.3024    4.0884    3.0294 H   0  0  0  0  0  0  0  0  0  0  0  0
    2.9024    3.7429    0.5660 H   0  0  0  0  0  0  0  0  0  0  0  0
   -1.4044    2.4063   -0.2353 H   0  0  0  0  0  0  0  0  0  0  0  0
   -3.4631    1.1099   -0.0452 H   0  0  0  0  0  0  0  0  0  0  0  0
   -3.3705   -1.3661    0.1198 H   0  0  0  0  0  0  0  0  0  0  0  0
   -1.1895   -2.5195    0.1048 H   0  0  0  0  0  0  0  0  0  0  0  0
    1.2397   -2.3310   -0.6319 H   0  0  0  0  0  0  0  0  0  0  0  0
    1.3874   -1.8416    1.0632 H   0  0  0  0  0  0  0  0  0  0  0  0
  1  2  1  0  0  0  0
  1 15  1  0  0  0  0
  1 16  1  0  0  0  0
  1 17  1  0  0  0  0
  2  3  1  0  0  0  0
  2 18  1  0  0  0  0
  2 19  1  0  0  0  0
  3  4  1  0  0  0  0
  3  9  1  0  0  0  0
  3 20  1  0  0  0  0
  4  5  2  0  0  0  0
  4  8  1  0  0  0  0
  5  6  1  0  0  0  0
  6  7  1  0  0  0  0
  6 21  1  0  0  0  0
  6 22  1  0  0  0  0
  7  8  1  0  0  0  0
  7 23  1  0  0  0  0
  7 24  1  0  0  0  0
  8 25  1  0  0  0  0
  9 10  2  0  0  0  0
  9 14  1  0  0  0  0
 10 11  1  0  0  0  0
 10 26  1  0  0  0  0
 11 12  2  0  0  0  0
 11 27  1  0  0  0  0
 12 13  1  0  0  0  0
 12 28  1  0  0  0  0
 13 14  2  0  0  0  0
 13 29  1  0  0  0  0
 14 15  1  0  0  0  0
 15 30  1  0  0  0  0
 15 31  1  0  0  0  0
M  END
>  <DRUGBANK_ID>
DB06764

>  <COMMON_NAME>
Tetryzoline

>  <CAS_NUMBER>
84-22-0

>  <UNII>
S9U025Y077

>  <SYNONYMS>
(RS)-2-(1,2,3,4-tetrahydronaphthalen-1-yl)-4,5-dihydro-1H-imidazole; 2-(1,2,3,4-Tetrahydro-1-naphthyl)-2-imidazoline; 2-Tetralin-1-yl-4,5-dihydro-1H-imidazole; 4,5-dihydro-2-(1,2,3,4-tetrahydro-1-naphthalenyl)-1H-imidazole; Tetrahydrozoline; Tetrizolina; Tetryzolin; Tetryzolina; TÃ©tryzoline; Tetryzoline; Tetryzolinum

$$$$
