
 OpenBabel10282417143D

 33 35  0  0  1  0  0  0  0  0999 V2000
   -2.0852   -0.7411   -0.0030 C   0  0  0  0  0  0  0  0  0  0  0  0
   -2.0311    0.6484   -0.0187 C   0  0  0  0  0  0  0  0  0  0  0  0
   -0.2330    4.8829    0.9487 C   0  0  0  0  0  0  0  0  0  0  0  0
    2.3154   -0.0229    0.0349 C   0  0  0  0  0  0  0  0  0  0  0  0
   -0.9006   -1.4793    0.0093 C   0  0  0  0  0  0  0  0  0  0  0  0
    1.2370    4.5650    0.6227 C   0  0  2  0  0  0  0  0  0  0  0  0
    0.3019   -0.7386    0.0278 C   0  0  0  0  0  0  0  0  0  0  0  0
    1.5788    4.6357   -0.8691 C   0  0  2  0  0  0  0  0  0  0  0  0
    1.5555    3.1812   -1.3158 C   0  0  2  0  0  0  0  0  0  0  0  0
    0.2136    0.6527    0.0177 C   0  0  0  0  0  0  0  0  0  0  0  0
    1.9964    2.4507   -0.0527 C   0  0  2  0  0  0  0  0  0  0  0  0
   -0.9257   -2.8663   -0.0409 N   0  0  0  0  0  0  0  0  0  0  0  0
   -0.9002    1.3927   -0.0380 N   0  0  0  0  0  0  0  0  0  0  0  0
    1.6191   -1.1423    0.0323 N   0  0  0  0  0  0  0  0  0  0  0  0
    1.5108    1.0880    0.0467 N   0  0  0  0  0  0  0  0  0  0  0  0
   -1.2064    4.0769    0.3115 O   0  0  0  0  0  0  0  0  0  0  0  0
    2.8909    5.1845   -1.0857 O   0  0  0  0  0  0  0  0  0  0  0  0
    2.4160    2.9194   -2.4234 O   0  0  0  0  0  0  0  0  0  0  0  0
    1.5869    3.2370    1.0817 O   0  0  0  0  0  0  0  0  0  0  0  0
    1.8584    5.2695    1.1915 H   0  0  0  0  0  0  0  0  0  0  0  0
    0.8816    5.2643   -1.4314 H   0  0  0  0  0  0  0  0  0  0  0  0
    0.5436    2.9017   -1.6151 H   0  0  0  0  0  0  0  0  0  0  0  0
    3.0927    2.3982   -0.0164 H   0  0  0  0  0  0  0  0  0  0  0  0
   -3.0492   -1.2393   -0.0000 H   0  0  0  0  0  0  0  0  0  0  0  0
   -2.9514    1.2272   -0.0170 H   0  0  0  0  0  0  0  0  0  0  0  0
   -0.3987    4.7691    2.0249 H   0  0  0  0  0  0  0  0  0  0  0  0
   -0.4596    5.9169    0.6759 H   0  0  0  0  0  0  0  0  0  0  0  0
    3.3941    0.0402    0.0143 H   0  0  0  0  0  0  0  0  0  0  0  0
   -0.0357   -3.3493    0.0028 H   0  0  0  0  0  0  0  0  0  0  0  0
   -1.7866   -3.3863    0.0312 H   0  0  0  0  0  0  0  0  0  0  0  0
   -0.9748    3.8867   -0.6094 H   0  0  0  0  0  0  0  0  0  0  0  0
    3.5335    4.7515   -0.4987 H   0  0  0  0  0  0  0  0  0  0  0  0
    3.2373    3.4290   -2.2956 H   0  0  0  0  0  0  0  0  0  0  0  0
  1 24  1  0  0  0  0
  2  1  2  0  0  0  0
  2 25  1  0  0  0  0
  3 26  1  0  0  0  0
  3 27  1  0  0  0  0
  4 28  1  0  0  0  0
  5  1  1  0  0  0  0
  6 20  1  1  0  0  0
  6  3  1  0  0  0  0
  7  5  2  0  0  0  0
  8  6  1  0  0  0  0
  8 17  1  0  0  0  0
  8 21  1  6  0  0  0
  9  8  1  0  0  0  0
  9 18  1  0  0  0  0
  9 22  1  6  0  0  0
 10  7  1  0  0  0  0
 11  9  1  0  0  0  0
 11 15  1  0  0  0  0
 11 23  1  6  0  0  0
 12  5  1  0  0  0  0
 12 29  1  0  0  0  0
 12 30  1  0  0  0  0
 13  2  1  0  0  0  0
 13 10  2  0  0  0  0
 14  4  2  0  0  0  0
 14  7  1  0  0  0  0
 15  4  1  0  0  0  0
 15 10  1  0  0  0  0
 16  3  1  0  0  0  0
 16 31  1  0  0  0  0
 17 32  1  0  0  0  0
 18 33  1  0  0  0  0
 19  6  1  0  0  0  0
 19 11  1  0  0  0  0
M  END
>  <DRUGBANK_ID>
DB04218

>  <SECONDARY_ACCESSION_NUMBERS>
EXPT00071

>  <COMMON_NAME>
1-Deaza-Adenosine

$$$$
