
 OpenBabel10282417183D

106111  0  0  0  0  0  0  0  0999 V2000
   -2.8519    1.3868    3.2777 O   0  0  0  0  0  0  0  0  0  0  0  0
   -1.6340    1.3069    2.7366 C   0  0  0  0  0  0  0  0  0  0  0  0
   -0.7388    1.1977    3.5587 O   0  0  0  0  0  0  0  0  0  0  0  0
   -1.3759    1.4457    1.2509 C   0  0  1  0  0  0  0  0  0  0  0  0
   -2.4980    0.3806    0.4767 C   0  0  0  0  0  0  0  0  0  0  0  0
   -2.2208    1.7483    0.0974 C   0  0  1  0  0  0  0  0  0  0  0  0
   -3.2771    2.6743    0.0460 C   0  0  0  0  0  0  0  0  0  0  0  0
   -3.1632    3.6693   -0.8328 C   0  0  0  0  0  0  0  0  0  0  0  0
    0.2363    1.6634    1.0024 N   0  0  0  0  0  0  0  0  0  0  0  0
    1.0034    1.8309   -0.2154 C   0  0  0  0  0  0  0  0  0  0  0  0
    0.6406    2.3953   -1.2526 O   0  0  0  0  0  0  0  0  0  0  0  0
    2.3370    0.8834   -0.2920 C   0  0  2  0  0  0  0  0  0  0  0  0
    3.2001    1.8775   -1.0423 C   0  0  0  0  0  0  0  0  0  0  0  0
    4.5624    1.2730   -1.2475 C   0  0  2  0  0  0  0  0  0  0  0  0
    4.3395   -0.2335   -1.4715 C   0  0  0  0  0  0  0  0  0  0  0  0
    2.9181   -0.4723   -1.0947 N   0  0  0  0  0  0  0  0  0  0  0  0
    2.4228   -1.8197   -1.3441 C   0  0  0  0  0  0  0  0  0  0  0  0
    3.1334   -2.7310   -1.7829 O   0  0  0  0  0  0  0  0  0  0  0  0
    0.9584   -2.2031   -1.0061 C   0  0  2  0  0  0  0  0  0  0  0  0
   -0.1503   -1.4653   -1.6248 C   0  0  0  0  0  0  0  0  0  0  0  0
   -0.0854   -1.4254   -3.0853 C   0  0  0  0  0  0  0  0  0  0  0  0
   -1.5170   -1.8168   -1.1720 C   0  0  0  0  0  0  0  0  0  0  0  0
    0.0537   -0.0547   -1.3913 C   0  0  0  0  0  0  0  0  0  0  0  0
    1.2106   -1.7159    0.2585 N   0  0  0  0  0  0  0  0  0  0  0  0
    0.4889   -1.0777    1.1308 C   0  0  0  0  0  0  0  0  0  0  0  0
   -0.6704   -0.7262    1.1304 O   0  0  0  0  0  0  0  0  0  0  0  0
    1.2069   -1.0503    2.2476 O   0  0  0  0  0  0  0  0  0  0  0  0
    1.6520   -2.0560    4.0316 C   0  0  0  0  0  0  0  0  0  0  0  0
    0.9224   -1.5095    5.5643 C   0  0  0  0  0  0  0  0  0  0  0  0
    1.4118   -2.7234    6.2953 C   0  0  0  0  0  0  0  0  0  0  0  0
    1.4466   -3.9902    5.4658 C   0  0  0  0  0  0  0  0  0  0  0  0
    1.1980   -3.5656    4.1400 C   0  0  0  0  0  0  0  0  0  0  0  0
    5.4505    1.6560   -0.1784 O   0  0  0  0  0  0  0  0  0  0  0  0
    5.2722    1.1661    1.0783 C   0  0  0  0  0  0  0  0  0  0  0  0
    4.4491    0.1531    1.4073 C   0  0  0  0  0  0  0  0  0  0  0  0
    4.0823   -0.0792    2.6975 C   0  0  0  0  0  0  0  0  0  0  0  0
    4.6617    0.3595    3.7623 N   0  0  0  0  0  0  0  0  0  0  0  0
    5.6658    1.1353    3.4861 C   0  0  0  0  0  0  0  0  0  0  0  0
    5.9618    1.6220    2.1686 C   0  0  0  0  0  0  0  0  0  0  0  0
    6.9562    2.5296    1.9838 C   0  0  0  0  0  0  0  0  0  0  0  0
    7.4532    3.1192    3.1175 C   0  0  0  0  0  0  0  0  0  0  0  0
    7.3239    2.5000    4.3698 C   0  0  0  0  0  0  0  0  0  0  0  0
    6.4355    1.4661    4.5481 C   0  0  0  0  0  0  0  0  0  0  0  0
    6.2564    0.5320    6.2051 Br  0  0  0  0  0  0  0  0  0  0  0  0
    8.0573    2.8373    5.4633 O   0  0  0  0  0  0  0  0  0  0  0  0
    9.0182    3.8493    5.2520 C   0  0  0  0  0  0  0  0  0  0  0  0
    2.8741   -0.6939    2.9174 C   0  0  0  0  0  0  0  0  0  0  0  0
    1.5328    0.0086    3.7118 C   0  0  0  0  0  0  0  0  0  0  0  0
   -0.3419   -1.3941    3.4519 S   0  0  0  0  0  0  0  0  0  0  0  0
    1.0548   -2.8723    2.2002 C   0  0  0  0  0  0  0  0  0  0  0  0
    2.5632   -2.3261    2.1510 N   0  0  0  0  0  0  0  0  0  0  0  0
    0.6245   -4.0259    1.5711 N   0  0  0  0  0  0  0  0  0  0  0  0
   -0.5205   -4.7288    1.8398 C   0  0  0  0  0  0  0  0  0  0  0  0
   -0.6320   -5.8355    1.3021 O   0  0  0  0  0  0  0  0  0  0  0  0
   -1.6831   -4.1711    2.7763 C   0  0  0  0  0  0  0  0  0  0  0  0
   -2.1959   -2.9218    2.1095 C   0  0  0  0  0  0  0  0  0  0  0  0
   -1.5272   -4.1355    4.3513 C   0  0  0  0  0  0  0  0  0  0  0  0
   -2.4957    1.2932    4.2001 H   0  0  0  0  0  0  0  0  0  0  0  0
   -2.6829   -0.1833   -0.4091 H   0  0  0  0  0  0  0  0  0  0  0  0
   -3.3006   -0.1751    0.9684 H   0  0  0  0  0  0  0  0  0  0  0  0
   -1.5884    1.9026   -0.7646 H   0  0  0  0  0  0  0  0  0  0  0  0
   -4.1192    2.4913    0.6977 H   0  0  0  0  0  0  0  0  0  0  0  0
   -3.9157    4.4219   -0.8985 H   0  0  0  0  0  0  0  0  0  0  0  0
   -2.2782    3.7162   -1.4796 H   0  0  0  0  0  0  0  0  0  0  0  0
    0.6920    1.1100    1.7329 H   0  0  0  0  0  0  0  0  0  0  0  0
    2.4970    0.7894    0.7725 H   0  0  0  0  0  0  0  0  0  0  0  0
    2.7533    1.9865   -2.0425 H   0  0  0  0  0  0  0  0  0  0  0  0
    3.1759    2.8365   -0.5240 H   0  0  0  0  0  0  0  0  0  0  0  0
    4.9639    1.7176   -2.1661 H   0  0  0  0  0  0  0  0  0  0  0  0
    4.4821   -0.5698   -2.4991 H   0  0  0  0  0  0  0  0  0  0  0  0
    5.0561   -0.8133   -0.8643 H   0  0  0  0  0  0  0  0  0  0  0  0
    0.7304   -3.2694   -0.9064 H   0  0  0  0  0  0  0  0  0  0  0  0
   -0.4244   -2.4017   -3.3662 H   0  0  0  0  0  0  0  0  0  0  0  0
   -0.7473   -0.6059   -3.4033 H   0  0  0  0  0  0  0  0  0  0  0  0
    0.9405   -1.1777   -3.3706 H   0  0  0  0  0  0  0  0  0  0  0  0
   -1.6282   -1.7782   -0.1095 H   0  0  0  0  0  0  0  0  0  0  0  0
   -2.1018   -1.0564   -1.6868 H   0  0  0  0  0  0  0  0  0  0  0  0
   -1.9250   -2.7896   -1.3474 H   0  0  0  0  0  0  0  0  0  0  0  0
    0.1007    0.1094   -0.3698 H   0  0  0  0  0  0  0  0  0  0  0  0
    1.0100    0.1824   -1.8113 H   0  0  0  0  0  0  0  0  0  0  0  0
   -0.7057    0.6344   -1.6686 H   0  0  0  0  0  0  0  0  0  0  0  0
    2.0631   -2.0666    0.6827 H   0  0  0  0  0  0  0  0  0  0  0  0
    2.7245   -2.0328    4.2430 H   0  0  0  0  0  0  0  0  0  0  0  0
    1.2635   -0.5248    5.9280 H   0  0  0  0  0  0  0  0  0  0  0  0
   -0.1935   -1.3986    5.6850 H   0  0  0  0  0  0  0  0  0  0  0  0
    0.7897   -2.8926    7.1582 H   0  0  0  0  0  0  0  0  0  0  0  0
    2.4500   -2.4782    6.4692 H   0  0  0  0  0  0  0  0  0  0  0  0
    0.7010   -4.7449    5.6861 H   0  0  0  0  0  0  0  0  0  0  0  0
    2.4126   -4.4164    5.1876 H   0  0  0  0  0  0  0  0  0  0  0  0
    0.2142   -3.5518    3.7782 H   0  0  0  0  0  0  0  0  0  0  0  0
    1.4648   -4.4125    3.5077 H   0  0  0  0  0  0  0  0  0  0  0  0
    3.9209   -0.4453    0.7197 H   0  0  0  0  0  0  0  0  0  0  0  0
    7.3021    2.7808    0.9884 H   0  0  0  0  0  0  0  0  0  0  0  0
    7.9579    4.0629    2.9915 H   0  0  0  0  0  0  0  0  0  0  0  0
    9.7276    3.5801    4.4600 H   0  0  0  0  0  0  0  0  0  0  0  0
    8.5122    4.7922    5.0277 H   0  0  0  0  0  0  0  0  0  0  0  0
    9.5690    3.9634    6.1832 H   0  0  0  0  0  0  0  0  0  0  0  0
    1.3730    0.8842    4.3068 H   0  0  0  0  0  0  0  0  0  0  0  0
    1.3825   -4.5075    1.0639 H   0  0  0  0  0  0  0  0  0  0  0  0
   -2.5126   -4.8568    2.6712 H   0  0  0  0  0  0  0  0  0  0  0  0
   -2.6840   -3.0332    1.1499 H   0  0  0  0  0  0  0  0  0  0  0  0
   -2.6905   -2.2001    2.7654 H   0  0  0  0  0  0  0  0  0  0  0  0
   -1.3141   -2.4887    1.7112 H   0  0  0  0  0  0  0  0  0  0  0  0
   -0.8515   -3.4659    4.8831 H   0  0  0  0  0  0  0  0  0  0  0  0
   -2.2806   -3.5846    4.9056 H   0  0  0  0  0  0  0  0  0  0  0  0
   -1.0765   -5.0867    4.6625 H   0  0  0  0  0  0  0  0  0  0  0  0
  1  2  1  0  0  0  0
  1 58  1  0  0  0  0
  2  3  2  0  0  0  0
  4  5  1  0  0  0  0
  4  6  1  0  0  0  0
  4  9  1  0  0  0  0
  4  2  1  1  0  0  0
  5  6  1  0  0  0  0
  5 59  1  0  0  0  0
  5 60  1  0  0  0  0
  6  7  1  0  0  0  0
  6 61  1  6  0  0  0
  7  8  2  0  0  0  0
  7 62  1  0  0  0  0
  8 63  1  0  0  0  0
  8 64  1  0  0  0  0
  9 10  1  0  0  0  0
  9 65  1  0  0  0  0
 10 11  2  0  0  0  0
 12 10  1  0  0  0  0
 12 13  1  0  0  0  0
 12 16  1  0  0  0  0
 12 66  1  1  0  0  0
 13 14  1  0  0  0  0
 13 67  1  0  0  0  0
 13 68  1  0  0  0  0
 14 15  1  0  0  0  0
 14 69  1  6  0  0  0
 14 33  1  0  0  0  0
 15 16  1  0  0  0  0
 15 70  1  0  0  0  0
 15 71  1  0  0  0  0
 16 17  1  0  0  0  0
 17 18  2  0  0  0  0
 17 19  1  0  0  0  0
 19 24  1  0  0  0  0
 19 20  1  0  0  0  0
 19 72  1  6  0  0  0
 20 21  1  0  0  0  0
 20 22  1  0  0  0  0
 20 23  1  0  0  0  0
 21 73  1  0  0  0  0
 21 74  1  0  0  0  0
 21 75  1  0  0  0  0
 22 76  1  0  0  0  0
 22 77  1  0  0  0  0
 22 78  1  0  0  0  0
 23 79  1  0  0  0  0
 23 80  1  0  0  0  0
 23 81  1  0  0  0  0
 24 25  1  0  0  0  0
 24 82  1  0  0  0  0
 25 27  1  0  0  0  0
 25 26  2  0  0  0  0
 27 28  1  0  0  0  0
 28 32  1  0  0  0  0
 28 29  1  0  0  0  0
 28 83  1  0  0  0  0
 29 30  1  0  0  0  0
 29 84  1  0  0  0  0
 29 85  1  0  0  0  0
 30 31  1  0  0  0  0
 30 86  1  0  0  0  0
 30 87  1  0  0  0  0
 31 32  1  0  0  0  0
 31 88  1  0  0  0  0
 31 89  1  0  0  0  0
 32 90  1  0  0  0  0
 32 91  1  0  0  0  0
 33 34  1  0  0  0  0
 34 35  2  0  0  0  0
 34 39  1  0  0  0  0
 35 36  1  0  0  0  0
 35 92  1  0  0  0  0
 36 37  2  0  0  0  0
 36 47  1  0  0  0  0
 37 38  1  0  0  0  0
 38 43  1  0  0  0  0
 38 39  2  0  0  0  0
 39 40  1  0  0  0  0
 40 41  2  0  0  0  0
 40 93  1  0  0  0  0
 41 42  1  0  0  0  0
 41 94  1  0  0  0  0
 42 43  2  0  0  0  0
 42 45  1  0  0  0  0
 43 44  1  0  0  0  0
 45 46  1  0  0  0  0
 46 95  1  0  0  0  0
 46 96  1  0  0  0  0
 46 97  1  0  0  0  0
 47 48  2  0  0  0  0
 47 51  1  0  0  0  0
 48 49  1  0  0  0  0
 48 98  1  0  0  0  0
 49 50  1  0  0  0  0
 50 51  2  0  0  0  0
 50 52  1  0  0  0  0
 52 53  1  0  0  0  0
 52 99  1  0  0  0  0
 53 54  2  0  0  0  0
 53 55  1  0  0  0  0
 55 57  1  0  0  0  0
 55 56  1  0  0  0  0
 55100  1  0  0  0  0
 56101  1  0  0  0  0
 56102  1  0  0  0  0
 56103  1  0  0  0  0
 57104  1  0  0  0  0
 57105  1  0  0  0  0
 57106  1  0  0  0  0
M  END
>  <DRUGBANK_ID>
DB11808

>  <COMMON_NAME>
Faldaprevir

>  <CAS_NUMBER>
801283-95-4

>  <UNII>
958X4J301A

>  <SYNONYMS>
Faldaprévir; Faldaprevir; Faldaprevirum

$$$$
