
 OpenBabel10282417233D

 42 44  0  0  1  0  0  0  0  0999 V2000
    0.1045    0.7814   -0.1491 C   0  0  1  0  0  0  0  0  0  0  0  0
    0.8323   -0.4934    0.1344 C   0  0  1  0  0  0  0  0  0  0  0  0
   -0.6560   -0.5084   -0.0801 C   0  0  0  0  0  0  0  0  0  0  0  0
    0.0066    1.7910    0.9004 N   0  0  0  0  0  0  0  0  0  0  0  0
    1.8230   -1.0060   -0.8632 C   0  0  0  0  0  0  0  0  0  0  0  0
    3.0440   -0.3404   -1.0418 C   0  0  0  0  0  0  0  0  0  0  0  0
    4.0772   -0.9045   -1.7890 C   0  0  0  0  0  0  0  0  0  0  0  0
    3.8924   -2.1554   -2.3777 C   0  0  0  0  0  0  0  0  0  0  0  0
    2.6749   -2.8111   -2.2487 C   0  0  0  0  0  0  0  0  0  0  0  0
    1.6336   -2.2283   -1.5254 C   0  0  0  0  0  0  0  0  0  0  0  0
   -1.0559    2.7153    0.5710 C   0  0  0  0  0  0  0  0  0  0  0  0
   -2.9873    2.4321    2.2492 C   0  0  0  0  0  0  0  0  0  0  0  0
   -2.4815    2.1624    0.8258 C   0  0  3  0  0  0  0  0  0  0  0  0
   -3.4139    2.8258   -0.1902 C   0  0  0  0  0  0  0  0  0  0  0  0
   -3.3783    4.3376    0.0061 C   0  0  0  0  0  0  0  0  0  0  0  0
   -3.7534    4.7158    1.4479 C   0  0  3  0  0  0  0  0  0  0  0  0
   -3.0062    3.9302    2.5460 C   0  0  0  0  0  0  0  0  0  0  0  0
   -3.5396    6.1494    1.6200 N   0  0  0  0  0  0  0  0  0  0  0  0
    0.1989    1.1988   -1.1531 H   0  0  0  0  0  0  0  0  0  0  0  0
    1.1456   -0.6384    1.1661 H   0  0  0  0  0  0  0  0  0  0  0  0
   -1.2579   -0.7459    0.7895 H   0  0  0  0  0  0  0  0  0  0  0  0
   -1.0942   -0.8387   -1.0147 H   0  0  0  0  0  0  0  0  0  0  0  0
   -0.0981    1.4209    1.8421 H   0  0  0  0  0  0  0  0  0  0  0  0
    3.2095    0.6165   -0.5441 H   0  0  0  0  0  0  0  0  0  0  0  0
    5.0284   -0.3926   -1.8732 H   0  0  0  0  0  0  0  0  0  0  0  0
    4.7079   -2.6191   -2.9259 H   0  0  0  0  0  0  0  0  0  0  0  0
    2.5385   -3.8017   -2.6780 H   0  0  0  0  0  0  0  0  0  0  0  0
    0.6878   -2.7509   -1.4311 H   0  0  0  0  0  0  0  0  0  0  0  0
   -0.8677    3.6398    1.1203 H   0  0  0  0  0  0  0  0  0  0  0  0
   -0.9487    3.0038   -0.4830 H   0  0  0  0  0  0  0  0  0  0  0  0
   -4.0086    2.0391    2.3542 H   0  0  0  0  0  0  0  0  0  0  0  0
   -2.3766    1.8988    2.9877 H   0  0  0  0  0  0  0  0  0  0  0  0
   -2.5375    1.0833    0.6570 H   0  0  0  0  0  0  0  0  0  0  0  0
   -4.4366    2.4446   -0.0845 H   0  0  0  0  0  0  0  0  0  0  0  0
   -3.0891    2.5649   -1.2064 H   0  0  0  0  0  0  0  0  0  0  0  0
   -4.0538    4.8107   -0.7142 H   0  0  0  0  0  0  0  0  0  0  0  0
   -2.3797    4.7226   -0.2419 H   0  0  0  0  0  0  0  0  0  0  0  0
   -4.8217    4.5053    1.5674 H   0  0  0  0  0  0  0  0  0  0  0  0
   -1.9772    4.2904    2.6666 H   0  0  0  0  0  0  0  0  0  0  0  0
   -3.4780    4.1016    3.5211 H   0  0  0  0  0  0  0  0  0  0  0  0
   -3.7827    6.4186    2.5711 H   0  0  0  0  0  0  0  0  0  0  0  0
   -2.5476    6.3642    1.5108 H   0  0  0  0  0  0  0  0  0  0  0  0
  1  2  1  0  0  0  0
  1  3  1  0  0  0  0
  1  4  1  0  0  0  0
  1 19  1  6  0  0  0
  2  3  1  0  0  0  0
  2  5  1  0  0  0  0
  2 20  1  1  0  0  0
  3 21  1  0  0  0  0
  3 22  1  0  0  0  0
  4 11  1  0  0  0  0
  4 23  1  0  0  0  0
  5  6  1  0  0  0  0
  5 10  2  0  0  0  0
  6  7  2  0  0  0  0
  6 24  1  0  0  0  0
  7  8  1  0  0  0  0
  7 25  1  0  0  0  0
  8  9  2  0  0  0  0
  8 26  1  0  0  0  0
  9 10  1  0  0  0  0
  9 27  1  0  0  0  0
 10 28  1  0  0  0  0
 11 13  1  0  0  0  0
 11 29  1  0  0  0  0
 11 30  1  0  0  0  0
 12 13  1  0  0  0  0
 12 17  1  0  0  0  0
 12 31  1  0  0  0  0
 12 32  1  0  0  0  0
 13 14  1  0  0  0  0
 13 33  1  0  0  0  0
 14 15  1  0  0  0  0
 14 34  1  0  0  0  0
 14 35  1  0  0  0  0
 15 16  1  0  0  0  0
 15 36  1  0  0  0  0
 15 37  1  0  0  0  0
 16 17  1  0  0  0  0
 16 18  1  0  0  0  0
 16 38  1  0  0  0  0
 17 39  1  0  0  0  0
 17 40  1  0  0  0  0
 18 41  1  0  0  0  0
 18 42  1  0  0  0  0
M  END
>  <DRUGBANK_ID>
DB16848

>  <COMMON_NAME>
ORY-1001

>  <CAS_NUMBER>
1401966-39-9

>  <UNII>
XC0UT08SNJ

>  <SYNONYMS>
Iadademstat

$$$$
