
 OpenBabel10282417233D

 82 86  0  0  0  0  0  0  0  0999 V2000
   -4.0729   -7.5410    7.9951 C   0  0  1  0  0  0  0  0  0  0  0  0
   -2.6125   -7.3947    7.8133 C   0  0  1  0  0  0  0  0  0  0  0  0
   -0.8156   -9.5550    6.6136 C   0  0  2  0  0  0  0  0  0  0  0  0
   -4.5353   -9.3990    7.9380 C   0  0  1  0  0  0  0  0  0  0  0  0
   -2.1772   -9.2856    7.1875 C   0  0  1  0  0  0  0  0  0  0  0  0
   -0.3800   -7.6840    6.2973 C   0  0  2  0  0  0  0  0  0  0  0  0
   -5.7559   -9.8256    8.7210 C   0  0  1  0  0  0  0  0  0  0  0  0
    0.9333   -7.7690    5.7656 C   0  0  0  0  0  0  0  0  0  0  0  0
   -6.7144  -10.8000    9.3817 C   0  0  2  0  0  0  0  0  0  0  0  0
   -5.3501   -8.8937    9.8396 C   0  0  1  0  0  0  0  0  0  0  0  0
   -2.1958   -6.3540    6.7490 C   0  0  0  0  0  0  0  0  0  0  0  0
   -4.4667   -7.0232    9.4056 C   0  0  0  0  0  0  0  0  0  0  0  0
   -4.2522  -10.6720    7.0451 C   0  0  0  0  0  0  0  0  0  0  0  0
   -0.5769  -10.5341    5.0967 C   0  0  0  0  0  0  0  0  0  0  0  0
   -2.8589  -10.9875    7.4196 C   0  0  0  0  0  0  0  0  0  0  0  0
   -0.7367   -6.5570    7.1676 C   0  0  0  0  0  0  0  0  0  0  0  0
   -7.2235  -11.7338   10.5000 C   0  0  0  0  0  0  0  0  0  0  0  0
   -7.5053   -9.4690    9.6924 C   0  0  0  0  0  0  0  0  0  0  0  0
    0.1228   -8.5309    4.6248 C   0  0  2  0  0  0  0  0  0  0  0  0
   -5.6717   -7.6793    8.9783 C   0  0  0  0  0  0  0  0  0  0  0  0
   -6.5758   -8.6995   10.7523 C   0  0  0  0  0  0  0  0  0  0  0  0
    0.7011   -9.8417    4.8297 C   0  0  0  0  0  0  0  0  0  0  0  0
   -8.3147  -11.5359   11.2685 C   0  0  0  0  0  0  0  0  0  0  0  0
   -4.7307   -5.7815    7.6320 C   0  0  0  0  0  0  0  0  0  0  0  0
   -2.2272   -5.9820    9.0025 C   0  0  0  0  0  0  0  0  0  0  0  0
   -0.3243  -10.9759    7.4806 C   0  0  0  0  0  0  0  0  0  0  0  0
    2.0827   -6.9101    5.3020 C   0  0  0  0  0  0  0  0  0  0  0  0
    1.4719   -8.2132    7.1659 C   0  0  0  0  0  0  0  0  0  0  0  0
   -0.1320   -8.0310    3.3375 O   0  0  0  0  0  0  0  0  0  0  0  0
   -3.4998   -9.2041   10.3612 C   0  0  0  0  0  0  0  0  0  0  0  0
   -2.5557  -10.1870    9.8346 O   0  0  0  0  0  0  0  0  0  0  0  0
   -6.4824  -13.0452   10.6269 C   0  0  0  0  0  0  0  0  0  0  0  0
   -6.3179   -9.7417    7.7757 H   0  0  0  0  0  0  0  0  0  0  0  0
   -4.0304   -9.9826    8.7123 H   0  0  0  0  0  0  0  0  0  0  0  0
   -2.6657   -9.2359    6.2092 H   0  0  0  0  0  0  0  0  0  0  0  0
   -0.8530   -7.0970    5.4460 H   0  0  0  0  0  0  0  0  0  0  0  0
   -5.7273  -11.1819    9.7064 H   0  0  0  0  0  0  0  0  0  0  0  0
   -2.3785   -5.2414    6.7999 H   0  0  0  0  0  0  0  0  0  0  0  0
   -2.6661   -6.4823    5.7626 H   0  0  0  0  0  0  0  0  0  0  0  0
   -4.8418   -6.1344    9.9431 H   0  0  0  0  0  0  0  0  0  0  0  0
   -3.7656   -7.2122   10.2062 H   0  0  0  0  0  0  0  0  0  0  0  0
   -4.8765  -11.5881    7.1221 H   0  0  0  0  0  0  0  0  0  0  0  0
   -4.2576  -10.4061    6.0081 H   0  0  0  0  0  0  0  0  0  0  0  0
   -0.0831  -11.4811    4.7856 H   0  0  0  0  0  0  0  0  0  0  0  0
   -1.4732  -10.5111    4.4638 H   0  0  0  0  0  0  0  0  0  0  0  0
   -2.6709  -11.9351    6.8151 H   0  0  0  0  0  0  0  0  0  0  0  0
   -2.5892  -11.5904    8.3301 H   0  0  0  0  0  0  0  0  0  0  0  0
   -0.1362   -5.6531    7.3528 H   0  0  0  0  0  0  0  0  0  0  0  0
   -0.6197   -7.0498    8.1220 H   0  0  0  0  0  0  0  0  0  0  0  0
   -8.5551   -9.4882    9.9605 H   0  0  0  0  0  0  0  0  0  0  0  0
   -7.6984   -8.9754    8.7057 H   0  0  0  0  0  0  0  0  0  0  0  0
   -1.0370   -8.6271    4.7993 H   0  0  0  0  0  0  0  0  0  0  0  0
   -6.5949   -7.0948    9.0140 H   0  0  0  0  0  0  0  0  0  0  0  0
   -5.8765   -7.8649    7.8650 H   0  0  0  0  0  0  0  0  0  0  0  0
   -7.4561   -8.1082   11.0833 H   0  0  0  0  0  0  0  0  0  0  0  0
   -6.3857   -7.5851   10.7801 H   0  0  0  0  0  0  0  0  0  0  0  0
    1.5304  -10.0386    4.1784 H   0  0  0  0  0  0  0  0  0  0  0  0
    1.1993  -10.0106    5.8017 H   0  0  0  0  0  0  0  0  0  0  0  0
   -8.7193  -12.2989   11.9187 H   0  0  0  0  0  0  0  0  0  0  0  0
   -8.9148  -10.6343   11.2698 H   0  0  0  0  0  0  0  0  0  0  0  0
   -5.2698   -5.6290    6.7149 H   0  0  0  0  0  0  0  0  0  0  0  0
   -5.3369   -5.2782    8.4509 H   0  0  0  0  0  0  0  0  0  0  0  0
   -3.9858   -4.9594    7.6724 H   0  0  0  0  0  0  0  0  0  0  0  0
   -2.0696   -4.9812    8.4755 H   0  0  0  0  0  0  0  0  0  0  0  0
   -3.0594   -5.4819    9.5546 H   0  0  0  0  0  0  0  0  0  0  0  0
   -1.3420   -5.9349    9.6454 H   0  0  0  0  0  0  0  0  0  0  0  0
   -0.6932  -10.9696    8.5017 H   0  0  0  0  0  0  0  0  0  0  0  0
   -0.8081  -11.8989    7.0194 H   0  0  0  0  0  0  0  0  0  0  0  0
    0.6893  -11.3921    7.4978 H   0  0  0  0  0  0  0  0  0  0  0  0
    2.9124   -6.9981    6.0267 H   0  0  0  0  0  0  0  0  0  0  0  0
    2.5237   -7.3755    4.4175 H   0  0  0  0  0  0  0  0  0  0  0  0
    1.9406   -5.8370    5.2168 H   0  0  0  0  0  0  0  0  0  0  0  0
    2.3444   -8.8293    7.0345 H   0  0  0  0  0  0  0  0  0  0  0  0
    1.6952   -7.3110    7.7645 H   0  0  0  0  0  0  0  0  0  0  0  0
    0.7769   -8.7412    7.8288 H   0  0  0  0  0  0  0  0  0  0  0  0
   -0.8759   -7.3924    3.4638 H   0  0  0  0  0  0  0  0  0  0  0  0
   -2.7871   -8.4462    9.9738 H   0  0  0  0  0  0  0  0  0  0  0  0
   -3.3317   -9.3975   11.4010 H   0  0  0  0  0  0  0  0  0  0  0  0
   -2.9496  -11.0626    9.8553 H   0  0  0  0  0  0  0  0  0  0  0  0
   -6.3927  -13.5023    9.6379 H   0  0  0  0  0  0  0  0  0  0  0  0
   -5.4733  -12.8863   11.0290 H   0  0  0  0  0  0  0  0  0  0  0  0
   -7.0003  -13.7425   11.2892 H   0  0  0  0  0  0  0  0  0  0  0  0
  1 24  1  6  0  0  0
  2  1  1  0  0  0  0
  2 25  1  1  0  0  0
  3  5  1  0  0  0  0
  3  6  1  0  0  0  0
  3 26  1  1  0  0  0
  4  1  1  0  0  0  0
  4 34  1  1  0  0  0
  5  2  1  0  0  0  0
  5 15  1  0  0  0  0
  5 35  1  6  0  0  0
  6 16  1  0  0  0  0
  6 36  1  6  0  0  0
  7  4  1  0  0  0  0
  7 10  1  0  0  0  0
  7 33  1  6  0  0  0
  8  6  1  0  0  0  0
  9  7  1  0  0  0  0
  9 17  1  0  0  0  0
  9 37  1  1  0  0  0
 10 20  1  0  0  0  0
 10 30  1  1  0  0  0
 11  2  1  0  0  0  0
 11 38  1  0  0  0  0
 11 39  1  0  0  0  0
 12  1  1  0  0  0  0
 12 40  1  0  0  0  0
 12 41  1  0  0  0  0
 13  4  1  0  0  0  0
 13 42  1  0  0  0  0
 13 43  1  0  0  0  0
 14  3  1  0  0  0  0
 14 44  1  0  0  0  0
 14 45  1  0  0  0  0
 15 13  1  0  0  0  0
 15 46  1  0  0  0  0
 15 47  1  0  0  0  0
 16 11  1  0  0  0  0
 16 48  1  0  0  0  0
 16 49  1  0  0  0  0
 18  9  1  0  0  0  0
 18 50  1  0  0  0  0
 18 51  1  0  0  0  0
 19  8  1  0  0  0  0
 19 29  1  0  0  0  0
 19 52  1  1  0  0  0
 20 12  1  0  0  0  0
 20 53  1  0  0  0  0
 20 54  1  0  0  0  0
 21 10  1  0  0  0  0
 21 18  1  0  0  0  0
 21 55  1  0  0  0  0
 21 56  1  0  0  0  0
 22 14  1  0  0  0  0
 22 19  1  0  0  0  0
 22 57  1  0  0  0  0
 22 58  1  0  0  0  0
 23 17  2  0  0  0  0
 23 59  1  0  0  0  0
 23 60  1  0  0  0  0
 24 61  1  0  0  0  0
 24 62  1  0  0  0  0
 24 63  1  0  0  0  0
 25 64  1  0  0  0  0
 25 65  1  0  0  0  0
 25 66  1  0  0  0  0
 26 67  1  0  0  0  0
 26 68  1  0  0  0  0
 26 69  1  0  0  0  0
 27 70  1  0  0  0  0
 27 71  1  0  0  0  0
 27 72  1  0  0  0  0
 27  8  1  0  0  0  0
 28 73  1  0  0  0  0
 28 74  1  0  0  0  0
 28 75  1  0  0  0  0
 28  8  1  0  0  0  0
 29 76  1  0  0  0  0
 30 77  1  0  0  0  0
 30 78  1  0  0  0  0
 31 30  1  0  0  0  0
 31 79  1  0  0  0  0
 32 17  1  0  0  0  0
 32 80  1  0  0  0  0
 32 81  1  0  0  0  0
 32 82  1  0  0  0  0
M  END
>  <DRUGBANK_ID>
DB16890

>  <COMMON_NAME>
Betulin

>  <CAS_NUMBER>
473-98-3

>  <UNII>
6W70HN7X7O

>  <SYNONYMS>
Betuline; Betulinic alcohol; Betulinol

$$$$
