
 OpenBabel10282417183D

 71 75  0  0  0  0  0  0  0  0999 V2000
   -0.1174    4.1024   -1.7656 C   0  0  0  0  0  0  0  0  0  0  0  0
    0.0115    2.9517   -2.5621 C   0  0  0  0  0  0  0  0  0  0  0  0
    0.0600    1.6797   -1.9820 C   0  0  0  0  0  0  0  0  0  0  0  0
   -0.0220    1.5805   -0.6010 C   0  0  0  0  0  0  0  0  0  0  0  0
   -0.1238    2.7234    0.1718 C   0  0  0  0  0  0  0  0  0  0  0  0
   -0.1799    3.9957   -0.3759 C   0  0  0  0  0  0  0  0  0  0  0  0
   -0.1459    2.3359    1.5714 C   0  0  0  0  0  0  0  0  0  0  0  0
   -0.2129    3.0928    2.5324 O   0  0  0  0  0  0  0  0  0  0  0  0
   -0.0657    0.9782    1.6189 O   0  0  0  0  0  0  0  0  0  0  0  0
   -0.0125    0.3751    0.2909 C   0  0  0  0  0  0  0  0  0  0  0  0
   -1.2347   -0.5031    0.1466 C   0  0  0  0  0  0  0  0  0  0  0  0
   -2.5200    0.0258    0.2674 C   0  0  0  0  0  0  0  0  0  0  0  0
   -3.6590   -0.7861    0.1552 C   0  0  0  0  0  0  0  0  0  0  0  0
   -3.5071   -2.1507   -0.0696 C   0  0  0  0  0  0  0  0  0  0  0  0
   -2.2416   -2.6947   -0.2032 C   0  0  0  0  0  0  0  0  0  0  0  0
   -1.1155   -1.8723   -0.0963 C   0  0  0  0  0  0  0  0  0  0  0  0
    0.0846   -2.5089   -0.2508 O   0  0  0  0  0  0  0  0  0  0  0  0
    1.2333   -1.7874   -0.0746 C   0  0  0  0  0  0  0  0  0  0  0  0
    1.2670   -0.4180    0.1991 C   0  0  0  0  0  0  0  0  0  0  0  0
    2.5124    0.1976    0.3768 C   0  0  0  0  0  0  0  0  0  0  0  0
    3.6994   -0.5373    0.2759 C   0  0  0  0  0  0  0  0  0  0  0  0
    3.6292   -1.9085    0.0084 C   0  0  0  0  0  0  0  0  0  0  0  0
    2.4065   -2.5270   -0.1777 C   0  0  0  0  0  0  0  0  0  0  0  0
    4.7127   -2.7357   -0.0636 O   0  0  0  0  0  0  0  0  0  0  0  0
    5.0019    0.1840    0.4511 C   0  0  0  0  0  0  0  0  0  0  0  0
    5.2886    1.1736   -0.5929 N   0  0  0  0  0  0  0  0  0  0  0  0
    6.5368    1.9312   -0.3092 C   0  0  0  0  0  0  0  0  0  0  0  0
    7.8372    1.1214   -0.3127 C   0  0  0  0  0  0  0  0  0  0  0  0
    8.8593    1.4038   -0.9194 O   0  0  0  0  0  0  0  0  0  0  0  0
    7.7803   -0.0319    0.3884 O   0  0  0  0  0  0  0  0  0  0  0  0
    5.1752    0.6624   -1.9837 C   0  0  0  0  0  0  0  0  0  0  0  0
    6.1514   -0.4520   -2.3364 C   0  0  0  0  0  0  0  0  0  0  0  0
    5.9585   -1.6526   -2.2455 O   0  0  0  0  0  0  0  0  0  0  0  0
    7.3800    0.0152   -2.6200 O   0  0  0  0  0  0  0  0  0  0  0  0
   -4.5769   -2.9888   -0.1905 O   0  0  0  0  0  0  0  0  0  0  0  0
   -4.9997   -0.1175    0.2297 C   0  0  0  0  0  0  0  0  0  0  0  0
   -5.7579   -0.2260   -1.0224 N   0  0  0  0  0  0  0  0  0  0  0  0
   -7.1551    0.2650   -0.8838 C   0  0  0  0  0  0  0  0  0  0  0  0
   -7.3220    1.7429   -0.5280 C   0  0  0  0  0  0  0  0  0  0  0  0
   -8.0325    2.5485   -1.1096 O   0  0  0  0  0  0  0  0  0  0  0  0
   -6.5469    2.1511    0.4992 O   0  0  0  0  0  0  0  0  0  0  0  0
   -5.0324    0.3220   -2.2049 C   0  0  0  0  0  0  0  0  0  0  0  0
   -4.6801    1.8027   -2.1108 C   0  0  0  0  0  0  0  0  0  0  0  0
   -3.6389    2.2860   -1.6987 O   0  0  0  0  0  0  0  0  0  0  0  0
   -5.7309    2.5882   -2.4120 O   0  0  0  0  0  0  0  0  0  0  0  0
   -0.1701    5.0804   -2.2392 H   0  0  0  0  0  0  0  0  0  0  0  0
    0.0657    3.0522   -3.6440 H   0  0  0  0  0  0  0  0  0  0  0  0
    0.1570    0.7932   -2.6016 H   0  0  0  0  0  0  0  0  0  0  0  0
   -0.2723    4.8768    0.2517 H   0  0  0  0  0  0  0  0  0  0  0  0
   -2.6446    1.0965    0.4279 H   0  0  0  0  0  0  0  0  0  0  0  0
   -2.1279   -3.7572   -0.3960 H   0  0  0  0  0  0  0  0  0  0  0  0
    2.5709    1.2654    0.5866 H   0  0  0  0  0  0  0  0  0  0  0  0
    2.3727   -3.5895   -0.4001 H   0  0  0  0  0  0  0  0  0  0  0  0
    5.5129   -2.2368   -0.2975 H   0  0  0  0  0  0  0  0  0  0  0  0
    5.0022    0.6558    1.4430 H   0  0  0  0  0  0  0  0  0  0  0  0
    5.7724   -0.5705    0.4879 H   0  0  0  0  0  0  0  0  0  0  0  0
    6.6283    2.7382   -1.0459 H   0  0  0  0  0  0  0  0  0  0  0  0
    6.4634    2.4198    0.6703 H   0  0  0  0  0  0  0  0  0  0  0  0
    8.5712   -0.5615    0.1665 H   0  0  0  0  0  0  0  0  0  0  0  0
    4.1649    0.2768   -2.1693 H   0  0  0  0  0  0  0  0  0  0  0  0
    5.2852    1.4817   -2.7033 H   0  0  0  0  0  0  0  0  0  0  0  0
    8.0264   -0.6945   -2.4232 H   0  0  0  0  0  0  0  0  0  0  0  0
   -5.3836   -2.4429   -0.2323 H   0  0  0  0  0  0  0  0  0  0  0  0
   -5.5569   -0.5722    1.0588 H   0  0  0  0  0  0  0  0  0  0  0  0
   -4.8144    0.9195    0.5026 H   0  0  0  0  0  0  0  0  0  0  0  0
   -7.6872    0.0695   -1.8227 H   0  0  0  0  0  0  0  0  0  0  0  0
   -7.6766   -0.3146   -0.1126 H   0  0  0  0  0  0  0  0  0  0  0  0
   -6.5362    3.1283    0.5066 H   0  0  0  0  0  0  0  0  0  0  0  0
   -4.0911   -0.2195   -2.3614 H   0  0  0  0  0  0  0  0  0  0  0  0
   -5.6013    0.1392   -3.1239 H   0  0  0  0  0  0  0  0  0  0  0  0
   -5.6219    3.4410   -1.9427 H   0  0  0  0  0  0  0  0  0  0  0  0
  1  2  2  0  0  0  0
  1  6  1  0  0  0  0
  1 46  1  0  0  0  0
  2  3  1  0  0  0  0
  2 47  1  0  0  0  0
  3  4  2  0  0  0  0
  3 48  1  0  0  0  0
  4  5  1  0  0  0  0
  4 10  1  0  0  0  0
  5  6  2  0  0  0  0
  5  7  1  0  0  0  0
  6 49  1  0  0  0  0
  7  8  2  0  0  0  0
  7  9  1  0  0  0  0
  9 10  1  0  0  0  0
 10 11  1  0  0  0  0
 10 19  1  0  0  0  0
 11 12  2  0  0  0  0
 11 16  1  0  0  0  0
 12 13  1  0  0  0  0
 12 50  1  0  0  0  0
 13 14  2  0  0  0  0
 13 36  1  0  0  0  0
 14 15  1  0  0  0  0
 14 35  1  0  0  0  0
 15 16  2  0  0  0  0
 15 51  1  0  0  0  0
 16 17  1  0  0  0  0
 17 18  1  0  0  0  0
 18 19  2  0  0  0  0
 18 23  1  0  0  0  0
 19 20  1  0  0  0  0
 20 21  2  0  0  0  0
 20 52  1  0  0  0  0
 21 22  1  0  0  0  0
 21 25  1  0  0  0  0
 22 23  2  0  0  0  0
 22 24  1  0  0  0  0
 23 53  1  0  0  0  0
 24 54  1  0  0  0  0
 25 26  1  0  0  0  0
 25 55  1  0  0  0  0
 25 56  1  0  0  0  0
 26 27  1  0  0  0  0
 26 31  1  0  0  0  0
 27 28  1  0  0  0  0
 27 57  1  0  0  0  0
 27 58  1  0  0  0  0
 28 29  2  0  0  0  0
 28 30  1  0  0  0  0
 30 59  1  0  0  0  0
 31 32  1  0  0  0  0
 31 60  1  0  0  0  0
 31 61  1  0  0  0  0
 32 33  2  0  0  0  0
 32 34  1  0  0  0  0
 34 62  1  0  0  0  0
 35 63  1  0  0  0  0
 36 37  1  0  0  0  0
 36 64  1  0  0  0  0
 36 65  1  0  0  0  0
 37 38  1  0  0  0  0
 37 42  1  0  0  0  0
 38 39  1  0  0  0  0
 38 66  1  0  0  0  0
 38 67  1  0  0  0  0
 39 40  2  0  0  0  0
 39 41  1  0  0  0  0
 41 68  1  0  0  0  0
 42 43  1  0  0  0  0
 42 69  1  0  0  0  0
 42 70  1  0  0  0  0
 43 44  2  0  0  0  0
 43 45  1  0  0  0  0
 45 71  1  0  0  0  0
M  END
>  <DRUGBANK_ID>
DB11184

>  <COMMON_NAME>
Oftasceine

>  <CAS_NUMBER>
1461-15-0

>  <UNII>
V0YM2B16TS

>  <SYNONYMS>
oftasce√≠na; Oftasceine

$$$$
