
 OpenBabel10282417133D

 41 40  0  0  1  0  0  0  0  0999 V2000
    1.1382   -0.0105    0.1467 C   0  0  0  0  0  0  0  0  0  0  0  0
    0.5726    0.4475   -1.2309 C   0  0  0  0  0  0  0  0  0  0  0  0
    0.7442   -1.4596    0.4802 C   0  0  0  0  0  0  0  0  0  0  0  0
    1.0611   -0.3441   -2.4561 C   0  0  0  0  0  0  0  0  0  0  0  0
    0.5551   -1.1773    2.9090 C   0  0  0  0  0  0  0  0  0  0  0  0
   -1.7593   -6.5457    0.4980 C   0  0  0  0  0  0  0  0  0  0  0  0
   -0.9247   -0.8791    2.6279 C   0  0  0  0  0  0  0  0  0  0  0  0
   -2.2763   -6.1192    1.8922 C   0  0  0  0  0  0  0  0  0  0  0  0
   -1.1443   -3.3197    0.7192 C   0  0  0  0  0  0  0  0  0  0  0  0
    1.0343   -2.1769    1.9194 C   0  0  1  0  0  0  0  0  0  0  0  0
    0.5149   -1.7341   -2.6710 C   0  0  0  0  0  0  0  0  0  0  0  0
   -1.8120   -3.1502   -0.5265 N   0  0  0  0  0  0  0  0  0  0  0  0
   -0.3553   -6.7039    0.4456 O   0  0  0  0  0  0  0  0  0  0  0  0
   -0.5183   -2.0266   -3.2916 O   0  0  0  0  0  0  0  0  0  0  0  0
    1.2190   -2.7069   -2.0770 O   0  0  0  0  0  0  0  0  0  0  0  0
   -2.0769   -2.2040    2.0118 S   0  0  0  0  0  0  0  0  0  0  0  0
   -1.4339   -4.9409    3.2638 S   0  0  0  0  0  0  0  0  0  0  0  0
    0.6432   -4.1659    2.7737 S   0  0  0  0  0  0  0  0  0  0  0  0
    2.1209   -2.3017    1.8960 H   0  0  0  0  0  0  0  0  0  0  0  0
    0.7483    0.6996    0.8868 H   0  0  0  0  0  0  0  0  0  0  0  0
    2.2241    0.0649    0.1438 H   0  0  0  0  0  0  0  0  0  0  0  0
   -0.5274    0.4815   -1.2113 H   0  0  0  0  0  0  0  0  0  0  0  0
    0.8869    1.4939   -1.3660 H   0  0  0  0  0  0  0  0  0  0  0  0
   -0.3077   -1.4123    0.1936 H   0  0  0  0  0  0  0  0  0  0  0  0
    1.2922   -2.0673   -0.2024 H   0  0  0  0  0  0  0  0  0  0  0  0
    0.7637    0.2141   -3.3523 H   0  0  0  0  0  0  0  0  0  0  0  0
    2.1545   -0.3750   -2.4648 H   0  0  0  0  0  0  0  0  0  0  0  0
    0.7801   -1.5204    3.9187 H   0  0  0  0  0  0  0  0  0  0  0  0
    1.1503   -0.2564    2.7866 H   0  0  0  0  0  0  0  0  0  0  0  0
   -2.1876   -7.5339    0.2866 H   0  0  0  0  0  0  0  0  0  0  0  0
   -2.1052   -5.9257   -0.3434 H   0  0  0  0  0  0  0  0  0  0  0  0
   -1.3209   -0.3468    3.5030 H   0  0  0  0  0  0  0  0  0  0  0  0
   -1.0562   -0.1641    1.8125 H   0  0  0  0  0  0  0  0  0  0  0  0
   -2.1886   -7.0228    2.4836 H   0  0  0  0  0  0  0  0  0  0  0  0
   -3.3699   -5.9375    1.7981 H   0  0  0  0  0  0  0  0  0  0  0  0
   -0.0656   -3.4229    0.5282 H   0  0  0  0  0  0  0  0  0  0  0  0
   -1.3025   -4.3430    0.9559 H   0  0  0  0  0  0  0  0  0  0  0  0
   -1.5683   -3.9239   -1.1361 H   0  0  0  0  0  0  0  0  0  0  0  0
   -2.7789   -3.2773   -0.2421 H   0  0  0  0  0  0  0  0  0  0  0  0
    0.0570   -5.8467    0.2567 H   0  0  0  0  0  0  0  0  0  0  0  0
    0.5343   -3.3486   -1.7932 H   0  0  0  0  0  0  0  0  0  0  0  0
  1 20  1  0  0  0  0
  1 21  1  0  0  0  0
  2  1  1  0  0  0  0
  2 22  1  0  0  0  0
  2 23  1  0  0  0  0
  3  1  1  0  0  0  0
  3 24  1  0  0  0  0
  3 25  1  0  0  0  0
  4  2  1  0  0  0  0
  4 26  1  0  0  0  0
  4 27  1  0  0  0  0
  5 28  1  0  0  0  0
  5 29  1  0  0  0  0
  6 30  1  0  0  0  0
  6 31  1  0  0  0  0
  7  5  1  0  0  0  0
  7 32  1  0  0  0  0
  7 33  1  0  0  0  0
  8  6  1  0  0  0  0
  8 34  1  0  0  0  0
  8 35  1  0  0  0  0
  9 36  1  0  0  0  0
  9 37  1  0  0  0  0
 10  3  1  0  0  0  0
 10  5  1  0  0  0  0
 10 18  1  0  0  0  0
 10 19  1  1  0  0  0
 11  4  1  0  0  0  0
 12  9  1  0  0  0  0
 12 38  1  0  0  0  0
 12 39  1  0  0  0  0
 13  6  1  0  0  0  0
 13 40  1  0  0  0  0
 14 11  2  0  0  0  0
 15 11  1  0  0  0  0
 15 41  1  0  0  0  0
 16  7  1  0  0  0  0
 16  9  1  0  0  0  0
 17  8  1  0  0  0  0
 18 17  1  0  0  0  0
M  END
>  <DRUGBANK_ID>
DB03187

>  <SECONDARY_ACCESSION_NUMBERS>
EXPT02450

>  <COMMON_NAME>
6-(Hydroxyethyldithio)-8-(Aminomethylthio)Octanoic Acid

$$$$
