AAZ
 OpenBabel10282417163D

 52 55  0  0  0  0  0  0  0  0999 V2000
    1.0004    0.1058    0.0585 O   0  0  0  0  0  0  0  0  0  0  0  0
    2.4438   -0.0059    0.0494 S   0  0  0  0  0  0  0  0  0  0  0  0
    3.0767   -1.3175    0.0751 O   0  0  0  0  0  0  0  0  0  0  0  0
    3.0554    0.8122   -1.4103 C   0  0  0  0  0  0  0  0  0  0  0  0
    2.5533    2.2239   -1.6372 C   0  0  0  0  0  0  0  0  0  0  0  0
    3.0109    0.8777    1.4916 C   0  0  0  0  0  0  0  0  0  0  0  0
    2.8744    2.2547    1.5681 C   0  0  0  0  0  0  0  0  0  0  0  0
    3.1513    2.9454    2.7396 C   0  0  0  0  0  0  0  0  0  0  0  0
    3.4387    2.2575    3.9147 C   0  0  0  0  0  0  0  0  0  0  0  0
    3.6536    2.9008    5.1128 O   0  0  0  0  0  0  0  0  0  0  0  0
    3.7171    4.3331    5.0501 C   0  0  0  0  0  0  0  0  0  0  0  0
    3.4557    0.8407    3.8894 C   0  0  0  0  0  0  0  0  0  0  0  0
    3.3670    0.1753    2.6401 C   0  0  0  0  0  0  0  0  0  0  0  0
    3.4247    0.0955    5.0974 N   0  0  0  0  0  0  0  0  0  0  0  0
    3.5106   -1.2483    5.1476 C   0  0  0  0  0  0  0  0  0  0  0  0
    4.4471   -1.9918    4.5972 N   0  0  0  0  0  0  0  0  0  0  0  0
    4.0226   -3.2697    4.7851 C   0  0  0  0  0  0  0  0  0  0  0  0
    2.8154   -3.2862    5.4387 C   0  0  0  0  0  0  0  0  0  0  0  0
    2.4777   -1.9754    5.7132 O   0  0  0  0  0  0  0  0  0  0  0  0
    2.0150   -4.3829    5.9576 C   0  0  0  0  0  0  0  0  0  0  0  0
    2.6409   -5.2976    6.8224 C   0  0  0  0  0  0  0  0  0  0  0  0
    1.9488   -6.3807    7.3571 C   0  0  0  0  0  0  0  0  0  0  0  0
    0.6057   -6.5480    7.0509 C   0  0  0  0  0  0  0  0  0  0  0  0
   -0.0592   -5.6343    6.2128 C   0  0  0  0  0  0  0  0  0  0  0  0
    0.6778   -4.5981    5.6035 C   0  0  0  0  0  0  0  0  0  0  0  0
   -1.5214   -5.6742    6.1379 C   0  0  0  0  0  0  0  0  0  0  0  0
   -2.2728   -5.5092    7.3063 C   0  0  0  0  0  0  0  0  0  0  0  0
   -3.6580   -5.5398    7.2354 C   0  0  0  0  0  0  0  0  0  0  0  0
   -4.2574   -5.7321    5.9997 C   0  0  0  0  0  0  0  0  0  0  0  0
   -3.4410   -5.8777    4.8865 C   0  0  0  0  0  0  0  0  0  0  0  0
   -2.0886   -5.8500    4.9245 N   0  0  0  0  0  0  0  0  0  0  0  0
    4.1472    0.7793   -1.3872 H   0  0  0  0  0  0  0  0  0  0  0  0
    2.7190    0.1957   -2.2530 H   0  0  0  0  0  0  0  0  0  0  0  0
    3.0445    2.9317   -0.9729 H   0  0  0  0  0  0  0  0  0  0  0  0
    2.8145    2.5841   -2.6346 H   0  0  0  0  0  0  0  0  0  0  0  0
    1.4681    2.2972   -1.5086 H   0  0  0  0  0  0  0  0  0  0  0  0
    2.4728    2.8468    0.7679 H   0  0  0  0  0  0  0  0  0  0  0  0
    3.0367    4.0230    2.7020 H   0  0  0  0  0  0  0  0  0  0  0  0
    4.4762    4.6826    4.3369 H   0  0  0  0  0  0  0  0  0  0  0  0
    2.7354    4.7546    4.8014 H   0  0  0  0  0  0  0  0  0  0  0  0
    3.9988    4.7155    6.0347 H   0  0  0  0  0  0  0  0  0  0  0  0
    3.4542   -0.9086    2.5851 H   0  0  0  0  0  0  0  0  0  0  0  0
    3.3276    0.6507    5.9379 H   0  0  0  0  0  0  0  0  0  0  0  0
    4.6019   -4.1187    4.4583 H   0  0  0  0  0  0  0  0  0  0  0  0
    3.6878   -5.1674    7.0874 H   0  0  0  0  0  0  0  0  0  0  0  0
    2.4438   -7.0676    8.0375 H   0  0  0  0  0  0  0  0  0  0  0  0
    0.0582   -7.3800    7.4923 H   0  0  0  0  0  0  0  0  0  0  0  0
    0.1873   -3.9561    4.8729 H   0  0  0  0  0  0  0  0  0  0  0  0
   -1.7778   -5.3434    8.2592 H   0  0  0  0  0  0  0  0  0  0  0  0
   -4.2541   -5.4091    8.1334 H   0  0  0  0  0  0  0  0  0  0  0  0
   -5.3364   -5.7618    5.9046 H   0  0  0  0  0  0  0  0  0  0  0  0
   -3.8707   -6.0231    3.8997 H   0  0  0  0  0  0  0  0  0  0  0  0
  1  2  2  0  0  0  0
  2  3  2  0  0  0  0
  2  4  1  0  0  0  0
  2  6  1  0  0  0  0
  4  5  1  0  0  0  0
  4 32  1  0  0  0  0
  4 33  1  0  0  0  0
  5 34  1  0  0  0  0
  5 35  1  0  0  0  0
  5 36  1  0  0  0  0
  6  7  2  0  0  0  0
  6 13  1  0  0  0  0
  7  8  1  0  0  0  0
  7 37  1  0  0  0  0
  8  9  2  0  0  0  0
  8 38  1  0  0  0  0
  9 10  1  0  0  0  0
  9 12  1  0  0  0  0
 10 11  1  0  0  0  0
 11 39  1  0  0  0  0
 11 40  1  0  0  0  0
 11 41  1  0  0  0  0
 12 13  2  0  0  0  0
 12 14  1  0  0  0  0
 13 42  1  0  0  0  0
 14 15  1  0  0  0  0
 14 43  1  0  0  0  0
 15 16  2  0  0  0  0
 15 19  1  0  0  0  0
 16 17  1  0  0  0  0
 17 18  2  0  0  0  0
 17 44  1  0  0  0  0
 18 19  1  0  0  0  0
 18 20  1  0  0  0  0
 20 21  2  0  0  0  0
 20 25  1  0  0  0  0
 21 22  1  0  0  0  0
 21 45  1  0  0  0  0
 22 23  2  0  0  0  0
 22 46  1  0  0  0  0
 23 24  1  0  0  0  0
 23 47  1  0  0  0  0
 24 25  2  0  0  0  0
 24 26  1  0  0  0  0
 25 48  1  0  0  0  0
 26 27  2  0  0  0  0
 26 31  1  0  0  0  0
 27 28  1  0  0  0  0
 27 49  1  0  0  0  0
 28 29  2  0  0  0  0
 28 50  1  0  0  0  0
 29 30  1  0  0  0  0
 29 51  1  0  0  0  0
 30 31  2  0  0  0  0
 30 52  1  0  0  0  0
M  END
>  <DRUGBANK_ID>
DB07334

>  <COMMON_NAME>
N-[5-(ETHYLSULFONYL)-2-METHOXYPHENYL]-5-[3-(2-PYRIDINYL)PHENYL]-1,3-OXAZOL-2-AMINE

$$$$
