
 OpenBabel10282417143D

 19 19  0  0  0  0  0  0  0  0999 V2000
    1.0573   -0.0515   -0.0771 F   0  0  0  0  0  0  0  0  0  0  0  0
    2.4123    0.0509   -0.1021 C   0  0  0  0  0  0  0  0  0  0  0  0
    2.8429   -0.3556    1.1219 F   0  0  0  0  0  0  0  0  0  0  0  0
    2.8629   -0.8653   -0.9960 F   0  0  0  0  0  0  0  0  0  0  0  0
    2.8892    1.4555   -0.4335 C   0  0  0  0  0  0  0  0  0  0  0  0
    2.1260    2.3864   -0.7136 O   0  0  0  0  0  0  0  0  0  0  0  0
    4.3693    1.6913   -0.3927 C   0  0  0  0  0  0  0  0  0  0  0  0
    5.0236    1.3990    0.9356 C   0  0  0  0  0  0  0  0  0  0  0  0
    5.9726    0.6079    0.9554 O   0  0  0  0  0  0  0  0  0  0  0  0
    4.5322    2.0891    2.1242 C   0  0  0  0  0  0  0  0  0  0  0  0
    3.2427    2.4442    2.4768 C   0  0  0  0  0  0  0  0  0  0  0  0
    3.1583    3.0097    3.7791 C   0  0  0  0  0  0  0  0  0  0  0  0
    4.3948    3.1346    4.3645 C   0  0  0  0  0  0  0  0  0  0  0  0
    5.6416    2.5346    3.3579 S   0  0  0  0  0  0  0  0  0  0  0  0
    4.8265    1.0675   -1.1704 H   0  0  0  0  0  0  0  0  0  0  0  0
    4.5818    2.7330   -0.6614 H   0  0  0  0  0  0  0  0  0  0  0  0
    2.3576    2.2633    1.8854 H   0  0  0  0  0  0  0  0  0  0  0  0
    2.2297    3.2986    4.2566 H   0  0  0  0  0  0  0  0  0  0  0  0
    4.6191    3.5358    5.3436 H   0  0  0  0  0  0  0  0  0  0  0  0
  1  2  1  0  0  0  0
  2  3  1  0  0  0  0
  2  4  1  0  0  0  0
  2  5  1  0  0  0  0
  5  6  2  0  0  0  0
  5  7  1  0  0  0  0
  7  8  1  0  0  0  0
  7 15  1  0  0  0  0
  7 16  1  0  0  0  0
  8  9  2  0  0  0  0
  8 10  1  0  0  0  0
 10 11  2  0  0  0  0
 10 14  1  0  0  0  0
 11 12  1  0  0  0  0
 11 17  1  0  0  0  0
 12 13  2  0  0  0  0
 12 18  1  0  0  0  0
 13 14  1  0  0  0  0
 13 19  1  0  0  0  0
M  END
>  <DRUGBANK_ID>
DB04795

>  <COMMON_NAME>
Thenoyltrifluoroacetone

>  <CAS_NUMBER>
326-91-0

>  <UNII>
MYQ9MNW7NI

>  <SYNONYMS>
1-Thenoyl-3,3,3-trifluoroacetone; 1,1,1-Trifluoro-3-(2-thenoyl)acetone; 2-Thenoyltrifluoroacetone; alpha-Thenoyltrifluoroacetone; Perfluoroacetyl(2-thenoyl)methane

$$$$
