4BS
 OpenBabel10282417163D

 41 42  0  0  0  0  0  0  0  0999 V2000
    1.2889    0.6033    0.0701 N   0  0  0  0  0  0  0  0  0  0  0  0
    1.2232    1.2525    1.3674 C   0  0  0  0  0  0  0  0  0  0  0  0
    1.1856    2.7078    1.1366 C   0  0  0  0  0  0  0  0  0  0  0  0
    0.3671    3.0395   -0.1232 C   0  0  0  0  0  0  0  0  0  0  0  0
   -1.1647    2.7756   -0.1529 C   0  0  0  0  0  0  0  0  0  0  0  0
   -1.8930    3.8068   -0.0113 O   0  0  0  0  0  0  0  0  0  0  0  0
   -1.8404    1.5970   -0.4940 N   0  0  0  0  0  0  0  0  0  0  0  0
   -1.5599    0.2073   -0.2151 C   0  0  0  0  0  0  0  0  0  0  0  0
   -1.1578   -0.1722    1.0435 C   0  0  0  0  0  0  0  0  0  0  0  0
   -0.3341   -1.3321    1.2712 C   0  0  0  0  0  0  0  0  0  0  0  0
   -0.1212   -2.2550    0.2679 C   0  0  0  0  0  0  0  0  0  0  0  0
   -1.0135   -2.1088   -0.8084 C   0  0  0  0  0  0  0  0  0  0  0  0
   -1.6965   -0.8666   -1.0876 C   0  0  0  0  0  0  0  0  0  0  0  0
    0.8269   -3.2542    0.2072 O   0  0  0  0  0  0  0  0  0  0  0  0
    2.0396   -3.3611    1.0401 C   0  0  0  0  0  0  0  0  0  0  0  0
    3.2606   -2.4964    0.6866 C   0  0  0  0  0  0  0  0  0  0  0  0
    3.1244   -1.1533    0.9249 C   0  0  0  0  0  0  0  0  0  0  0  0
    4.0559   -0.1488    0.6124 C   0  0  0  0  0  0  0  0  0  0  0  0
    5.2751   -0.5058    0.1231 C   0  0  0  0  0  0  0  0  0  0  0  0
    5.5427   -1.8679    0.0378 C   0  0  0  0  0  0  0  0  0  0  0  0
    4.5404   -2.8576    0.2781 C   0  0  0  0  0  0  0  0  0  0  0  0
    0.5591    0.7304   -0.6188 H   0  0  0  0  0  0  0  0  0  0  0  0
    2.1656    0.5119   -0.4202 H   0  0  0  0  0  0  0  0  0  0  0  0
    0.3782    1.0754    2.0218 H   0  0  0  0  0  0  0  0  0  0  0  0
    1.9800    0.8935    2.0728 H   0  0  0  0  0  0  0  0  0  0  0  0
    0.7674    3.1894    2.0282 H   0  0  0  0  0  0  0  0  0  0  0  0
    2.2358    3.0054    1.0485 H   0  0  0  0  0  0  0  0  0  0  0  0
    0.5430    4.1140   -0.2617 H   0  0  0  0  0  0  0  0  0  0  0  0
    0.8025    2.6167   -1.0377 H   0  0  0  0  0  0  0  0  0  0  0  0
   -2.8368    1.7906   -0.4191 H   0  0  0  0  0  0  0  0  0  0  0  0
   -1.2991    0.5908    1.7998 H   0  0  0  0  0  0  0  0  0  0  0  0
    0.2590   -1.3574    2.1797 H   0  0  0  0  0  0  0  0  0  0  0  0
   -1.1808   -2.9683   -1.4536 H   0  0  0  0  0  0  0  0  0  0  0  0
   -2.2925   -0.7856   -1.9924 H   0  0  0  0  0  0  0  0  0  0  0  0
    1.7799   -3.2084    2.0973 H   0  0  0  0  0  0  0  0  0  0  0  0
    2.3693   -4.4070    0.9764 H   0  0  0  0  0  0  0  0  0  0  0  0
    2.1655   -0.9084    1.3290 H   0  0  0  0  0  0  0  0  0  0  0  0
    3.8006    0.9055    0.7092 H   0  0  0  0  0  0  0  0  0  0  0  0
    5.9828    0.2712   -0.1502 H   0  0  0  0  0  0  0  0  0  0  0  0
    6.5575   -2.1579   -0.2120 H   0  0  0  0  0  0  0  0  0  0  0  0
    4.8081   -3.8998    0.1505 H   0  0  0  0  0  0  0  0  0  0  0  0
  1  2  1  0  0  0  0
  1 22  1  0  0  0  0
  1 23  1  0  0  0  0
  2  3  1  0  0  0  0
  2 24  1  0  0  0  0
  2 25  1  0  0  0  0
  3  4  1  0  0  0  0
  3 26  1  0  0  0  0
  3 27  1  0  0  0  0
  4  5  1  0  0  0  0
  4 28  1  0  0  0  0
  4 29  1  0  0  0  0
  5  6  2  0  0  0  0
  5  7  1  0  0  0  0
  7  8  1  0  0  0  0
  7 30  1  0  0  0  0
  8  9  2  0  0  0  0
  8 13  1  0  0  0  0
  9 10  1  0  0  0  0
  9 31  1  0  0  0  0
 10 11  2  0  0  0  0
 10 32  1  0  0  0  0
 11 12  1  0  0  0  0
 11 14  1  0  0  0  0
 12 13  2  0  0  0  0
 12 33  1  0  0  0  0
 13 34  1  0  0  0  0
 14 15  1  0  0  0  0
 15 16  1  0  0  0  0
 15 35  1  0  0  0  0
 15 36  1  0  0  0  0
 16 17  2  0  0  0  0
 16 21  1  0  0  0  0
 17 18  1  0  0  0  0
 17 37  1  0  0  0  0
 18 19  2  0  0  0  0
 18 38  1  0  0  0  0
 19 20  1  0  0  0  0
 19 39  1  0  0  0  0
 20 21  2  0  0  0  0
 20 40  1  0  0  0  0
 21 41  1  0  0  0  0
M  END
>  <DRUGBANK_ID>
DB07104

>  <COMMON_NAME>
4-amino-N-[4-(benzyloxy)phenyl]butanamide

>  <UNII>
2SXE223PVW

$$$$
