
 OpenBabel10282417133D

 57 59  0  0  0  0  0  0  0  0999 V2000
    1.0424   -0.0692    0.0584 P   0  0  3  0  0  0  0  0  0  0  0  0
    2.6735   -2.2669   -0.6422 P   0  0  3  0  0  0  0  0  0  0  0  0
   -0.1653    4.0011    0.8784 O   0  0  0  0  0  0  0  0  0  0  0  0
   -2.4313    1.7508    0.4782 O   0  0  0  0  0  0  0  0  0  0  0  0
   -3.3683    3.9680   -0.8806 O   0  0  0  0  0  0  0  0  0  0  0  0
    2.4301   -3.0054   -4.3349 O   0  0  0  0  0  0  0  0  0  0  0  0
    0.9294    1.0602   -1.1242 O   0  0  0  0  0  0  0  0  0  0  0  0
    2.6482   -1.8459   -2.1954 O   0  0  0  0  0  0  0  0  0  0  0  0
    4.1039   -6.2204   -2.1395 O   0  0  0  0  0  0  0  0  0  0  0  0
    2.1263   -4.6333   -0.9664 O   0  0  0  0  0  0  0  0  0  0  0  0
    5.5476   -5.0253   -4.4193 O   0  0  0  0  0  0  0  0  0  0  0  0
    1.0424   -1.7174   -0.4670 O   0  0  0  0  0  0  0  0  0  0  0  0
   -2.9769    6.6337    1.3987 O   0  0  0  0  0  0  0  0  0  0  0  0
   -0.6876   -0.0692    0.0584 O   0  0  0  0  0  0  0  0  0  0  0  0
    3.0285   -1.8795    0.8890 O   0  0  0  0  0  0  0  0  0  0  0  0
    2.5908   -0.0692    0.0584 O   0  0  0  0  0  0  0  0  0  0  0  0
    4.1333   -2.7586   -0.7989 O   0  0  0  0  0  0  0  0  0  0  0  0
   -1.1362    6.0338    0.1861 N   0  0  0  0  0  0  0  0  0  0  0  0
   -2.1252    8.1867   -0.0154 N   0  0  0  0  0  0  0  0  0  0  0  0
   -1.4605    9.6106   -1.6638 N   0  0  0  0  0  0  0  0  0  0  0  0
   -1.5199    2.4607   -0.3830 C   0  0  1  0  0  0  0  0  0  0  0  0
   -1.9678    3.8640   -0.6917 C   0  0  2  0  0  0  0  0  0  0  0  0
   -0.1954    2.6682    0.3619 C   0  0  1  0  0  0  0  0  0  0  0  0
   -1.3948    4.6445    0.5110 C   0  0  1  0  0  0  0  0  0  0  0  0
    1.0117    2.3877   -0.5435 C   0  0  0  0  0  0  0  0  0  0  0  0
    3.8797   -4.8992   -2.6525 C   0  0  2  0  0  0  0  0  0  0  0  0
    2.4322   -4.4658   -2.3621 C   0  0  2  0  0  0  0  0  0  0  0  0
    4.1654   -4.7808   -4.1431 C   0  0  1  0  0  0  0  0  0  0  0  0
    2.1192   -3.0121   -2.9320 C   0  0  2  0  0  0  0  0  0  0  0  0
    3.7742   -3.3795   -4.6344 C   0  0  0  0  0  0  0  0  0  0  0  0
   -0.2604    6.3197   -0.8385 C   0  0  0  0  0  0  0  0  0  0  0  0
   -2.1303    6.9421    0.5765 C   0  0  0  0  0  0  0  0  0  0  0  0
   -0.4581    7.3887   -1.6054 C   0  0  0  0  0  0  0  0  0  0  0  0
   -1.3900    8.3927   -1.0589 C   0  0  0  0  0  0  0  0  0  0  0  0
   -2.7373    2.3221    1.2014 H   0  0  0  0  0  0  0  0  0  0  0  0
   -3.8260    3.5301   -0.1428 H   0  0  0  0  0  0  0  0  0  0  0  0
    3.4735   -6.8281   -2.5588 H   0  0  0  0  0  0  0  0  0  0  0  0
    2.9921   -4.6930   -0.4970 H   0  0  0  0  0  0  0  0  0  0  0  0
    6.0786   -4.4245   -3.8638 H   0  0  0  0  0  0  0  0  0  0  0  0
   -1.2134    0.3895    0.7419 H   0  0  0  0  0  0  0  0  0  0  0  0
    3.3212   -0.9433    0.8972 H   0  0  0  0  0  0  0  0  0  0  0  0
   -0.8237    9.8845   -2.3980 H   0  0  0  0  0  0  0  0  0  0  0  0
   -1.9504   10.3450   -1.1672 H   0  0  0  0  0  0  0  0  0  0  0  0
   -1.4171    1.8699   -1.3007 H   0  0  0  0  0  0  0  0  0  0  0  0
   -1.4870    4.1734   -1.6279 H   0  0  0  0  0  0  0  0  0  0  0  0
   -0.1387    2.0204    1.2466 H   0  0  0  0  0  0  0  0  0  0  0  0
   -2.0905    4.5515    1.3530 H   0  0  0  0  0  0  0  0  0  0  0  0
    1.9295    2.4845    0.0566 H   0  0  0  0  0  0  0  0  0  0  0  0
    1.0832    3.1399   -1.3329 H   0  0  0  0  0  0  0  0  0  0  0  0
    4.6231   -4.3036   -2.1317 H   0  0  0  0  0  0  0  0  0  0  0  0
    1.7687   -5.1786   -2.8700 H   0  0  0  0  0  0  0  0  0  0  0  0
    3.5943   -5.5540   -4.6681 H   0  0  0  0  0  0  0  0  0  0  0  0
    1.0302   -2.8921   -2.8767 H   0  0  0  0  0  0  0  0  0  0  0  0
    3.8970   -3.3574   -5.7236 H   0  0  0  0  0  0  0  0  0  0  0  0
    4.4484   -2.6153   -4.2345 H   0  0  0  0  0  0  0  0  0  0  0  0
    0.4968    5.5810   -1.0807 H   0  0  0  0  0  0  0  0  0  0  0  0
    0.0467    7.5579   -2.5430 H   0  0  0  0  0  0  0  0  0  0  0  0
  1  7  1  0  0  0  0
  1 12  1  0  0  0  0
  1 14  1  0  0  0  0
  1 16  2  0  0  0  0
  2  8  1  0  0  0  0
  2 12  1  0  0  0  0
  2 15  1  0  0  0  0
  2 17  2  0  0  0  0
  3 23  1  0  0  0  0
  3 24  1  0  0  0  0
  4 35  1  0  0  0  0
  5 36  1  0  0  0  0
  6 29  1  0  0  0  0
  6 30  1  0  0  0  0
  7 25  1  0  0  0  0
  9 37  1  0  0  0  0
 10 38  1  0  0  0  0
 11 39  1  0  0  0  0
 13 32  2  0  0  0  0
 14 40  1  0  0  0  0
 15 41  1  0  0  0  0
 18 31  1  0  0  0  0
 18 32  1  0  0  0  0
 19 32  1  0  0  0  0
 19 34  2  0  0  0  0
 20 34  1  0  0  0  0
 20 42  1  0  0  0  0
 20 43  1  0  0  0  0
 21  4  1  0  0  0  0
 21 22  1  0  0  0  0
 21 23  1  0  0  0  0
 21 44  1  6  0  0  0
 22  5  1  0  0  0  0
 22 24  1  0  0  0  0
 22 45  1  6  0  0  0
 23 25  1  0  0  0  0
 23 46  1  1  0  0  0
 24 47  1  1  0  0  0
 24 18  1  0  0  0  0
 25 48  1  0  0  0  0
 25 49  1  0  0  0  0
 26  9  1  0  0  0  0
 26 27  1  0  0  0  0
 26 28  1  0  0  0  0
 26 50  1  1  0  0  0
 27 10  1  0  0  0  0
 27 29  1  0  0  0  0
 27 51  1  6  0  0  0
 28 11  1  0  0  0  0
 28 30  1  0  0  0  0
 28 52  1  6  0  0  0
 29  8  1  0  0  0  0
 29 53  1  1  0  0  0
 30 54  1  0  0  0  0
 30 55  1  0  0  0  0
 31 33  2  0  0  0  0
 31 56  1  0  0  0  0
 33 34  1  0  0  0  0
 33 57  1  0  0  0  0
M  END
>  <DRUGBANK_ID>
DB03069

>  <SECONDARY_ACCESSION_NUMBERS>
EXPT01072

>  <COMMON_NAME>
Cytidine-5'-diphospho-beta-D-xylose

$$$$
