808
 OpenBabel10282417113D

 40 42  0  0  1  0  0  0  0  0999 V2000
   -2.1932   -0.3997    0.1241 Cl  0  0  0  0  0  0  0  0  0  0  0  0
   -0.7989    2.6804   -0.3434 S   0  0  0  0  0  0  0  0  0  0  0  0
    4.4700   -0.9716   -0.0321 O   0  0  0  0  0  0  0  0  0  0  0  0
   -0.8421    3.3841    0.9184 O   0  0  0  0  0  0  0  0  0  0  0  0
   -0.4091    3.3454   -1.5559 O   0  0  0  0  0  0  0  0  0  0  0  0
    4.1192    2.5349    0.1858 N   0  0  0  0  0  0  0  0  0  0  0  0
    4.5826    1.2700   -0.0919 N   0  0  0  0  0  0  0  0  0  0  0  0
   -2.4420    2.3895   -0.3969 N   0  0  0  0  0  0  0  0  0  0  0  0
    4.2678    3.6775   -0.7211 C   0  0  3  0  0  0  0  0  0  0  0  0
    3.1940    4.7238   -0.2517 C   0  0  0  0  0  0  0  0  0  0  0  0
    2.5909    4.0648    0.9724 C   0  0  0  0  0  0  0  0  0  0  0  0
    3.1886    2.8201    1.1894 C   0  0  0  0  0  0  0  0  0  0  0  0
    5.7116    4.1722   -0.6215 C   0  0  0  0  0  0  0  0  0  0  0  0
    1.4944    4.4229    1.7409 C   0  0  0  0  0  0  0  0  0  0  0  0
    2.6910    1.9198    2.1342 C   0  0  0  0  0  0  0  0  0  0  0  0
    0.9752    3.4923    2.6764 C   0  0  0  0  0  0  0  0  0  0  0  0
    1.5202    2.2179    2.8101 C   0  0  0  0  0  0  0  0  0  0  0  0
    3.8459    0.0886   -0.1509 C   0  0  0  0  0  0  0  0  0  0  0  0
    2.3281    0.0326   -0.2681 C   0  0  0  0  0  0  0  0  0  0  0  0
    1.4827    1.1475   -0.4695 C   0  0  0  0  0  0  0  0  0  0  0  0
    0.0840    1.1286   -0.2277 C   0  0  0  0  0  0  0  0  0  0  0  0
    1.7014   -1.1984   -0.0668 C   0  0  0  0  0  0  0  0  0  0  0  0
   -0.5047   -0.1109   -0.0341 C   0  0  0  0  0  0  0  0  0  0  0  0
    0.3022   -1.2654   -0.0062 C   0  0  0  0  0  0  0  0  0  0  0  0
    5.5724    1.1534    0.1167 H   0  0  0  0  0  0  0  0  0  0  0  0
   -2.6464    1.8747    0.4712 H   0  0  0  0  0  0  0  0  0  0  0  0
   -2.8679    3.3088   -0.2277 H   0  0  0  0  0  0  0  0  0  0  0  0
    4.0770    3.3845   -1.7643 H   0  0  0  0  0  0  0  0  0  0  0  0
    3.6263    5.6994   -0.0120 H   0  0  0  0  0  0  0  0  0  0  0  0
    2.4538    4.8676   -1.0542 H   0  0  0  0  0  0  0  0  0  0  0  0
    6.4086    3.3653   -0.8840 H   0  0  0  0  0  0  0  0  0  0  0  0
    5.9093    5.0078   -1.2991 H   0  0  0  0  0  0  0  0  0  0  0  0
    5.9529    4.4819    0.4006 H   0  0  0  0  0  0  0  0  0  0  0  0
    0.9055    5.3108    1.5167 H   0  0  0  0  0  0  0  0  0  0  0  0
    3.0860    0.9132    2.2055 H   0  0  0  0  0  0  0  0  0  0  0  0
    0.0103    3.6842    3.1508 H   0  0  0  0  0  0  0  0  0  0  0  0
    0.9829    1.4301    3.3370 H   0  0  0  0  0  0  0  0  0  0  0  0
    1.9275    2.0874   -0.7614 H   0  0  0  0  0  0  0  0  0  0  0  0
    2.2817   -2.1171    0.0358 H   0  0  0  0  0  0  0  0  0  0  0  0
   -0.1708   -2.2433    0.0637 H   0  0  0  0  0  0  0  0  0  0  0  0
  1 23  1  0  0  0  0
  2  4  2  0  0  0  0
  2  5  2  0  0  0  0
  2  8  1  0  0  0  0
  2 21  1  0  0  0  0
  3 18  2  0  0  0  0
  6  7  1  0  0  0  0
  6  9  1  0  0  0  0
  6 12  1  0  0  0  0
  7 18  1  0  0  0  0
  7 25  1  0  0  0  0
  8 26  1  0  0  0  0
  8 27  1  0  0  0  0
  9 10  1  0  0  0  0
  9 13  1  0  0  0  0
  9 28  1  0  0  0  0
 10 11  1  0  0  0  0
 10 29  1  0  0  0  0
 10 30  1  0  0  0  0
 11 12  1  0  0  0  0
 11 14  2  0  0  0  0
 12 15  2  0  0  0  0
 13 31  1  0  0  0  0
 13 32  1  0  0  0  0
 13 33  1  0  0  0  0
 14 16  1  0  0  0  0
 14 34  1  0  0  0  0
 15 17  1  0  0  0  0
 15 35  1  0  0  0  0
 16 17  2  0  0  0  0
 16 36  1  0  0  0  0
 17 37  1  0  0  0  0
 18 19  1  0  0  0  0
 19 20  2  0  0  0  0
 19 22  1  0  0  0  0
 20 21  1  0  0  0  0
 20 38  1  0  0  0  0
 21 23  2  0  0  0  0
 22 24  2  0  0  0  0
 22 39  1  0  0  0  0
 23 24  1  0  0  0  0
 24 40  1  0  0  0  0
M  END
>  <DRUGBANK_ID>
DB00808

>  <SECONDARY_ACCESSION_NUMBERS>
APRD01031

>  <COMMON_NAME>
Indapamide

>  <CAS_NUMBER>
26807-65-8

>  <UNII>
F089I0511L

>  <SYNONYMS>
Indapamid; Indapamida; Indapamide; Indapamidum; Metindamide

$$$$
