
 OpenBabel10282417143D

 50 49  0  0  0  0  0  0  0  0999 V2000
    1.0010   -0.0399   -0.0660 C   0  0  0  0  0  0  0  0  0  0  0  0
    0.5115   -1.1596   -0.9624 C   0  0  0  0  0  0  0  0  0  0  0  0
    0.8736   -2.5080   -0.4023 C   0  0  0  0  0  0  0  0  0  0  0  0
    0.0060   -3.4517   -0.0051 C   0  0  0  0  0  0  0  0  0  0  0  0
   -1.4230   -3.2863   -0.0641 C   0  0  0  0  0  0  0  0  0  0  0  0
   -2.3150   -4.1979    0.3285 C   0  0  0  0  0  0  0  0  0  0  0  0
   -3.7227   -3.9168    0.2177 C   0  0  0  0  0  0  0  0  0  0  0  0
   -4.6481   -4.7876    0.6183 C   0  0  0  0  0  0  0  0  0  0  0  0
   -6.1155   -4.5518    0.4412 C   0  0  0  0  0  0  0  0  0  0  0  0
   -6.7145   -5.6392   -0.4519 C   0  0  0  0  0  0  0  0  0  0  0  0
   -6.5272   -7.0341    0.1580 C   0  0  0  0  0  0  0  0  0  0  0  0
   -7.1840   -7.1177    1.5411 C   0  0  0  0  0  0  0  0  0  0  0  0
   -8.6926   -6.8737    1.4356 C   0  0  0  0  0  0  0  0  0  0  0  0
   -9.3369   -7.9269    0.5304 C   0  0  0  0  0  0  0  0  0  0  0  0
   -9.1059   -9.3320    1.0983 C   0  0  0  0  0  0  0  0  0  0  0  0
   -9.7809   -9.4950    2.4653 C   0  0  0  0  0  0  0  0  0  0  0  0
  -11.2883   -9.2466    2.3969 C   0  0  0  0  0  0  0  0  0  0  0  0
  -11.9628  -10.2121    1.4460 C   0  0  0  0  0  0  0  0  0  0  0  0
  -12.8797  -11.0108    2.0204 O   0  0  0  0  0  0  0  0  0  0  0  0
  -11.7231  -10.2849    0.2446 O   0  0  0  0  0  0  0  0  0  0  0  0
    0.6236   -0.1581    0.9560 H   0  0  0  0  0  0  0  0  0  0  0  0
    0.6398    0.9198   -0.4482 H   0  0  0  0  0  0  0  0  0  0  0  0
    2.0935   -0.0123   -0.0334 H   0  0  0  0  0  0  0  0  0  0  0  0
   -0.5654   -1.0264   -1.0777 H   0  0  0  0  0  0  0  0  0  0  0  0
    0.9268   -1.0642   -1.9701 H   0  0  0  0  0  0  0  0  0  0  0  0
    1.9387   -2.7212   -0.3186 H   0  0  0  0  0  0  0  0  0  0  0  0
    0.3900   -4.3918    0.3881 H   0  0  0  0  0  0  0  0  0  0  0  0
   -1.8175   -2.3543   -0.4519 H   0  0  0  0  0  0  0  0  0  0  0  0
   -1.9972   -5.1580    0.7235 H   0  0  0  0  0  0  0  0  0  0  0  0
   -4.0388   -2.9718   -0.2190 H   0  0  0  0  0  0  0  0  0  0  0  0
   -4.3289   -5.7276    1.0626 H   0  0  0  0  0  0  0  0  0  0  0  0
   -6.5892   -4.5356    1.4286 H   0  0  0  0  0  0  0  0  0  0  0  0
   -6.3235   -3.5700    0.0050 H   0  0  0  0  0  0  0  0  0  0  0  0
   -7.7784   -5.4255   -0.6110 H   0  0  0  0  0  0  0  0  0  0  0  0
   -6.2662   -5.6115   -1.4509 H   0  0  0  0  0  0  0  0  0  0  0  0
   -6.9275   -7.7887   -0.5267 H   0  0  0  0  0  0  0  0  0  0  0  0
   -5.4689   -7.2969    0.2384 H   0  0  0  0  0  0  0  0  0  0  0  0
   -6.9613   -8.0887    1.9931 H   0  0  0  0  0  0  0  0  0  0  0  0
   -6.7451   -6.4071    2.2467 H   0  0  0  0  0  0  0  0  0  0  0  0
   -9.1374   -6.8757    2.4353 H   0  0  0  0  0  0  0  0  0  0  0  0
   -8.9145   -5.8725    1.0527 H   0  0  0  0  0  0  0  0  0  0  0  0
  -10.3999   -7.7037    0.4049 H   0  0  0  0  0  0  0  0  0  0  0  0
   -8.9442   -7.8751   -0.4901 H   0  0  0  0  0  0  0  0  0  0  0  0
   -9.4559  -10.0819    0.3870 H   0  0  0  0  0  0  0  0  0  0  0  0
   -8.0390   -9.5609    1.1865 H   0  0  0  0  0  0  0  0  0  0  0  0
   -9.5720  -10.4945    2.8582 H   0  0  0  0  0  0  0  0  0  0  0  0
   -9.3337   -8.8019    3.1906 H   0  0  0  0  0  0  0  0  0  0  0  0
  -11.7143   -9.3183    3.4018 H   0  0  0  0  0  0  0  0  0  0  0  0
  -11.5207   -8.2279    2.0652 H   0  0  0  0  0  0  0  0  0  0  0  0
  -13.0294  -10.8447    2.9677 H   0  0  0  0  0  0  0  0  0  0  0  0
  1  2  1  0  0  0  0
  1 21  1  0  0  0  0
  1 22  1  0  0  0  0
  1 23  1  0  0  0  0
  2  3  1  0  0  0  0
  2 24  1  0  0  0  0
  2 25  1  0  0  0  0
  3  4  2  0  0  0  0
  3 26  1  0  0  0  0
  4  5  1  0  0  0  0
  4 27  1  0  0  0  0
  5  6  2  0  0  0  0
  5 28  1  0  0  0  0
  6  7  1  0  0  0  0
  6 29  1  0  0  0  0
  7  8  2  0  0  0  0
  7 30  1  0  0  0  0
  8  9  1  0  0  0  0
  8 31  1  0  0  0  0
  9 10  1  0  0  0  0
  9 32  1  0  0  0  0
  9 33  1  0  0  0  0
 10 11  1  0  0  0  0
 10 34  1  0  0  0  0
 10 35  1  0  0  0  0
 11 12  1  0  0  0  0
 11 36  1  0  0  0  0
 11 37  1  0  0  0  0
 12 13  1  0  0  0  0
 12 38  1  0  0  0  0
 12 39  1  0  0  0  0
 13 14  1  0  0  0  0
 13 40  1  0  0  0  0
 13 41  1  0  0  0  0
 14 15  1  0  0  0  0
 14 42  1  0  0  0  0
 14 43  1  0  0  0  0
 15 16  1  0  0  0  0
 15 44  1  0  0  0  0
 15 45  1  0  0  0  0
 16 17  1  0  0  0  0
 16 46  1  0  0  0  0
 16 47  1  0  0  0  0
 17 18  1  0  0  0  0
 17 48  1  0  0  0  0
 17 49  1  0  0  0  0
 18 19  1  0  0  0  0
 18 20  2  0  0  0  0
 19 50  1  0  0  0  0
M  END
>  <DRUGBANK_ID>
DB04747

>  <COMMON_NAME>
11-TRANS-13-TRANS-15-CIS-OCTADECATRIENOIC ACID

$$$$
