
 OpenBabel10282417203D

 42 43  0  0  0  0  0  0  0  0999 V2000
    1.3827   -0.1840    0.1424 C   0  0  0  0  0  0  0  0  0  0  0  0
   -0.5309    1.2815    0.0745 C   0  0  0  0  0  0  0  0  0  0  0  0
    0.1364   -5.1045    1.2365 C   0  0  0  0  0  0  0  0  0  0  0  0
   -0.9359   -5.6152   -0.8916 C   0  0  0  0  0  0  0  0  0  0  0  0
    0.5381   -1.2802    0.0579 C   0  0  0  0  0  0  0  0  0  0  0  0
   -1.3821    0.1698    0.0534 C   0  0  0  0  0  0  0  0  0  0  0  0
   -0.4509   -3.8404    1.2168 C   0  0  0  0  0  0  0  0  0  0  0  0
   -1.5093   -4.3417   -0.9104 C   0  0  0  0  0  0  0  0  0  0  0  0
    1.0609    4.2666   -1.6366 C   0  0  0  0  0  0  0  0  0  0  0  0
    2.0253    5.1842   -2.4191 C   0  0  0  0  0  0  0  0  0  0  0  0
    1.7864    2.2511   -0.3029 C   0  0  0  0  0  0  0  0  0  0  0  0
    0.8595    1.1078    0.0424 C   0  0  0  0  0  0  0  0  0  0  0  0
   -0.1488   -6.0048    0.2021 C   0  0  0  0  0  0  0  0  0  0  0  0
   -0.8498   -1.1211    0.0444 C   0  0  0  0  0  0  0  0  0  0  0  0
   -1.2419   -3.4484    0.1268 C   0  0  0  0  0  0  0  0  0  0  0  0
    1.8951    0.6793   -2.9017 C   0  0  0  0  0  0  0  0  0  0  0  0
    1.3994    2.1201   -2.8136 C   0  0  0  0  0  0  0  0  0  0  0  0
    0.5858   -0.3576   -3.5005 Cl  0  0  0  0  0  0  0  0  0  0  0  0
    3.3118    0.6088   -3.9751 Cl  0  0  0  0  0  0  0  0  0  0  0  0
    1.4565    2.8421   -1.6133 N   0  0  0  0  0  0  0  0  0  0  0  0
    0.2969   -7.3982    0.3210 N   0  0  0  0  0  0  0  0  0  0  0  0
    2.1105    4.9517   -3.8162 O   0  0  0  0  0  0  0  0  0  0  0  0
    0.9905    2.6827   -3.8439 O   0  0  0  0  0  0  0  0  0  0  0  0
   -0.0384   -8.1873   -0.5771 O   0  0  0  0  0  0  0  0  0  0  0  0
    0.9464   -7.7124    1.3255 O   0  0  0  0  0  0  0  0  0  0  0  0
   -1.7482   -2.1713    0.0132 O   0  0  0  0  0  0  0  0  0  0  0  0
    2.4562   -0.3658    0.1451 H   0  0  0  0  0  0  0  0  0  0  0  0
   -0.9584    2.2819    0.0606 H   0  0  0  0  0  0  0  0  0  0  0  0
    0.8035   -5.3684    2.0543 H   0  0  0  0  0  0  0  0  0  0  0  0
   -1.1123   -6.2880   -1.7286 H   0  0  0  0  0  0  0  0  0  0  0  0
    1.0050   -2.2550   -0.0365 H   0  0  0  0  0  0  0  0  0  0  0  0
   -2.4580    0.3208   -0.0037 H   0  0  0  0  0  0  0  0  0  0  0  0
   -0.2409   -3.1393    2.0222 H   0  0  0  0  0  0  0  0  0  0  0  0
   -2.1523   -4.0434   -1.7351 H   0  0  0  0  0  0  0  0  0  0  0  0
    0.0448    4.3302   -2.0425 H   0  0  0  0  0  0  0  0  0  0  0  0
    1.0223    4.6395   -0.6053 H   0  0  0  0  0  0  0  0  0  0  0  0
    1.6933    6.2213   -2.3116 H   0  0  0  0  0  0  0  0  0  0  0  0
    3.0360    5.1022   -2.0126 H   0  0  0  0  0  0  0  0  0  0  0  0
    1.7404    3.0023    0.4929 H   0  0  0  0  0  0  0  0  0  0  0  0
    2.8265    1.9106   -0.3645 H   0  0  0  0  0  0  0  0  0  0  0  0
    2.2600    0.2877   -1.9698 H   0  0  0  0  0  0  0  0  0  0  0  0
    2.0291    3.9905   -3.9798 H   0  0  0  0  0  0  0  0  0  0  0  0
  1 27  1  0  0  0  0
  2 28  1  0  0  0  0
  3 29  1  0  0  0  0
  4 30  1  0  0  0  0
  5  1  1  0  0  0  0
  5 31  1  0  0  0  0
  6  2  2  0  0  0  0
  6 32  1  0  0  0  0
  7  3  1  0  0  0  0
  7 33  1  0  0  0  0
  8  4  2  0  0  0  0
  8 34  1  0  0  0  0
  9 35  1  0  0  0  0
  9 36  1  0  0  0  0
 10  9  1  0  0  0  0
 10 37  1  0  0  0  0
 10 38  1  0  0  0  0
 11 39  1  0  0  0  0
 11 40  1  0  0  0  0
 12  1  2  0  0  0  0
 12  2  1  0  0  0  0
 12 11  1  0  0  0  0
 13  3  2  0  0  0  0
 13  4  1  0  0  0  0
 14  5  2  0  0  0  0
 14  6  1  0  0  0  0
 15  7  2  0  0  0  0
 15  8  1  0  0  0  0
 16 41  1  0  0  0  0
 17 16  1  0  0  0  0
 18 16  1  0  0  0  0
 19 16  1  0  0  0  0
 20  9  1  0  0  0  0
 20 11  1  0  0  0  0
 20 17  1  0  0  0  0
 21 13  1  0  0  0  0
 22 10  1  0  0  0  0
 22 42  1  0  0  0  0
 23 17  2  0  0  0  0
 24 21  2  0  0  0  0
 25 21  2  0  0  0  0
 26 14  1  0  0  0  0
 26 15  1  0  0  0  0
M  END
>  <DRUGBANK_ID>
DB13512

>  <COMMON_NAME>
Clefamide

>  <CAS_NUMBER>
3576-64-5

>  <UNII>
4AZ2V8K4EK

>  <SYNONYMS>
Clefamide

$$$$
