1555
 OpenBabel10282417113D

 57 58  0  0  1  0  0  0  0  0999 V2000
   -0.1335   -4.0681   -2.2444 O   0  0  0  0  0  0  0  0  0  0  0  0
   -2.0750   -2.9647   -2.4772 O   0  0  0  0  0  0  0  0  0  0  0  0
    2.2561   -0.2567   -2.6859 N   0  0  0  0  0  0  0  0  0  0  0  0
    2.1707   -4.1362   -3.4192 C   0  0  0  0  0  0  0  0  0  0  0  0
    2.2198   -2.6138   -3.8591 C   0  0  0  0  0  0  0  0  0  0  0  0
    1.3009   -4.3842   -2.0690 C   0  0  1  0  0  0  0  0  0  0  0  0
    2.8698   -1.5680   -2.8738 C   0  0  1  0  0  0  0  0  0  0  0  0
    3.6393   -4.6239   -3.2536 C   0  0  0  0  0  0  0  0  0  0  0  0
    1.4209   -4.9531   -4.5522 C   0  0  0  0  0  0  0  0  0  0  0  0
    1.8036   -3.8481   -0.7173 C   0  0  0  0  0  0  0  0  0  0  0  0
    4.3430   -1.4108   -3.1918 C   0  0  0  0  0  0  0  0  0  0  0  0
    4.4301   -4.1406   -2.1953 C   0  0  0  0  0  0  0  0  0  0  0  0
    1.3507   -6.3572   -4.4543 C   0  0  0  0  0  0  0  0  0  0  0  0
    4.3155   -5.3862   -4.2113 C   0  0  0  0  0  0  0  0  0  0  0  0
    0.7851   -4.3574   -5.6645 C   0  0  0  0  0  0  0  0  0  0  0  0
    1.1254   -4.2670    0.5532 C   0  0  0  0  0  0  0  0  0  0  0  0
    2.2847    0.7212   -3.7392 C   0  0  0  0  0  0  0  0  0  0  0  0
    2.0708    0.2828   -1.3411 C   0  0  0  0  0  0  0  0  0  0  0  0
    5.8070   -4.2487   -2.1434 C   0  0  0  0  0  0  0  0  0  0  0  0
    0.7020   -7.1219   -5.4231 C   0  0  0  0  0  0  0  0  0  0  0  0
    5.6852   -5.6393   -4.0818 C   0  0  0  0  0  0  0  0  0  0  0  0
    0.0618   -5.1167   -6.5855 C   0  0  0  0  0  0  0  0  0  0  0  0
   -0.8327   -2.9258   -2.3481 C   0  0  0  0  0  0  0  0  0  0  0  0
    6.4398   -5.0029   -3.0988 C   0  0  0  0  0  0  0  0  0  0  0  0
    0.0491   -6.5006   -6.4822 C   0  0  0  0  0  0  0  0  0  0  0  0
   -0.1896   -1.6015   -2.2878 C   0  0  0  0  0  0  0  0  0  0  0  0
    2.6933   -2.4920   -4.8420 H   0  0  0  0  0  0  0  0  0  0  0  0
    1.1894   -2.4046   -4.1026 H   0  0  0  0  0  0  0  0  0  0  0  0
    1.3056   -5.4763   -1.9179 H   0  0  0  0  0  0  0  0  0  0  0  0
    2.8089   -2.0054   -1.8980 H   0  0  0  0  0  0  0  0  0  0  0  0
    2.8170   -4.1635   -0.5097 H   0  0  0  0  0  0  0  0  0  0  0  0
    1.7371   -2.7739   -0.6836 H   0  0  0  0  0  0  0  0  0  0  0  0
    4.8708   -1.0776   -2.2941 H   0  0  0  0  0  0  0  0  0  0  0  0
    4.7852   -2.3434   -3.5172 H   0  0  0  0  0  0  0  0  0  0  0  0
    4.5237   -0.7642   -4.0433 H   0  0  0  0  0  0  0  0  0  0  0  0
    4.0653   -3.4142   -1.4884 H   0  0  0  0  0  0  0  0  0  0  0  0
    1.8456   -6.8750   -3.6350 H   0  0  0  0  0  0  0  0  0  0  0  0
    3.8187   -5.7601   -5.1048 H   0  0  0  0  0  0  0  0  0  0  0  0
    0.8157   -3.2902   -5.8644 H   0  0  0  0  0  0  0  0  0  0  0  0
    1.3086   -5.3249    0.7485 H   0  0  0  0  0  0  0  0  0  0  0  0
    1.6022   -3.6900    1.3590 H   0  0  0  0  0  0  0  0  0  0  0  0
    0.0657   -4.0307    0.5320 H   0  0  0  0  0  0  0  0  0  0  0  0
    1.3048    1.2058   -3.7866 H   0  0  0  0  0  0  0  0  0  0  0  0
    3.0471    1.4875   -3.5671 H   0  0  0  0  0  0  0  0  0  0  0  0
    2.4638    0.2601   -4.7137 H   0  0  0  0  0  0  0  0  0  0  0  0
    1.0796    0.7549   -1.2922 H   0  0  0  0  0  0  0  0  0  0  0  0
    2.0616   -0.4887   -0.5597 H   0  0  0  0  0  0  0  0  0  0  0  0
    2.8146    1.0246   -1.0411 H   0  0  0  0  0  0  0  0  0  0  0  0
    6.3404   -3.6327   -1.4241 H   0  0  0  0  0  0  0  0  0  0  0  0
    0.7025   -8.2043   -5.3385 H   0  0  0  0  0  0  0  0  0  0  0  0
    6.1741   -6.2961   -4.7918 H   0  0  0  0  0  0  0  0  0  0  0  0
   -0.4897   -4.6179   -7.3793 H   0  0  0  0  0  0  0  0  0  0  0  0
    7.5207   -5.0478   -3.1007 H   0  0  0  0  0  0  0  0  0  0  0  0
   -0.4674   -7.0932   -7.2302 H   0  0  0  0  0  0  0  0  0  0  0  0
    0.4501   -1.5608   -1.4208 H   0  0  0  0  0  0  0  0  0  0  0  0
    0.2695   -1.3170   -3.2200 H   0  0  0  0  0  0  0  0  0  0  0  0
   -0.8960   -0.7788   -2.1932 H   0  0  0  0  0  0  0  0  0  0  0  0
  1 23  1  0  0  0  0
  2 23  2  0  0  0  0
  3 17  1  0  0  0  0
  3 18  1  0  0  0  0
  4  5  1  0  0  0  0
  4  6  1  0  0  0  0
  4  8  1  0  0  0  0
  4  9  1  0  0  0  0
  5 27  1  0  0  0  0
  5 28  1  0  0  0  0
  6  1  1  0  0  0  0
  6 10  1  0  0  0  0
  6 29  1  1  0  0  0
  7 11  1  0  0  0  0
  7 30  1  1  0  0  0
  7  5  1  0  0  0  0
  7  3  1  0  0  0  0
  8 12  2  0  0  0  0
  8 14  1  0  0  0  0
  9 13  2  0  0  0  0
  9 15  1  0  0  0  0
 10 16  1  0  0  0  0
 10 31  1  0  0  0  0
 10 32  1  0  0  0  0
 11 33  1  0  0  0  0
 11 34  1  0  0  0  0
 11 35  1  0  0  0  0
 12 19  1  0  0  0  0
 12 36  1  0  0  0  0
 13 20  1  0  0  0  0
 13 37  1  0  0  0  0
 14 21  2  0  0  0  0
 14 38  1  0  0  0  0
 15 22  2  0  0  0  0
 15 39  1  0  0  0  0
 16 40  1  0  0  0  0
 16 41  1  0  0  0  0
 16 42  1  0  0  0  0
 17 43  1  0  0  0  0
 17 44  1  0  0  0  0
 17 45  1  0  0  0  0
 18 46  1  0  0  0  0
 18 47  1  0  0  0  0
 18 48  1  0  0  0  0
 19 24  2  0  0  0  0
 19 49  1  0  0  0  0
 20 25  2  0  0  0  0
 20 50  1  0  0  0  0
 21 24  1  0  0  0  0
 21 51  1  0  0  0  0
 22 25  1  0  0  0  0
 22 52  1  0  0  0  0
 23 26  1  0  0  0  0
 24 53  1  0  0  0  0
 25 54  1  0  0  0  0
 26 55  1  0  0  0  0
 26 56  1  0  0  0  0
 26 57  1  0  0  0  0
M  END
>  <DRUGBANK_ID>
DB01555

>  <COMMON_NAME>
Alphacetylmethadol

>  <CAS_NUMBER>
17199-58-5

>  <UNII>
BXF83S0HEL

>  <SYNONYMS>
Alphacetylmethadol

$$$$
