
 OpenBabel10282417233D

 35 37  0  0  0  0  0  0  0  0999 V2000
    0.5785   -0.1152    0.0636 O   0  0  0  0  0  0  0  0  0  0  0  0
    0.1713    0.9601    0.8301 C   0  0  0  0  0  0  0  0  0  0  0  0
    0.9923    1.8078    1.4831 C   0  0  0  0  0  0  0  0  0  0  0  0
    2.4933    1.8427    1.5340 C   0  0  0  0  0  0  0  0  0  0  0  0
    3.0149    2.5665    2.3848 O   0  0  0  0  0  0  0  0  0  0  0  0
    3.2477    1.0383    0.5935 C   0  0  0  0  0  0  0  0  0  0  0  0
    3.0771    0.8507   -0.7663 C   0  0  0  0  0  0  0  0  0  0  0  0
    3.8944   -0.2331   -1.1387 C   0  0  0  0  0  0  0  0  0  0  0  0
    4.6491   -0.5504   -0.0330 C   0  0  0  0  0  0  0  0  0  0  0  0
    5.7672   -1.5246    0.1391 C   0  0  0  0  0  0  0  0  0  0  0  0
    7.0915   -0.8516    0.4168 C   0  0  0  0  0  0  0  0  0  0  0  0
    7.2800   -0.1631    1.6258 C   0  0  0  0  0  0  0  0  0  0  0  0
    8.4736    0.5063    1.8812 C   0  0  0  0  0  0  0  0  0  0  0  0
    9.4919    0.4681    0.9388 C   0  0  0  0  0  0  0  0  0  0  0  0
   10.6416    1.1088    1.1865 F   0  0  0  0  0  0  0  0  0  0  0  0
    9.3367   -0.2226   -0.2579 C   0  0  0  0  0  0  0  0  0  0  0  0
    8.1342   -0.8801   -0.5242 C   0  0  0  0  0  0  0  0  0  0  0  0
    4.2396    0.1990    1.0410 O   0  0  0  0  0  0  0  0  0  0  0  0
   -1.2609    1.0608    0.8563 C   0  0  0  0  0  0  0  0  0  0  0  0
   -2.0093    2.1731    0.8170 N   0  0  0  0  0  0  0  0  0  0  0  0
   -3.2528    1.6590    0.7899 N   0  0  0  0  0  0  0  0  0  0  0  0
   -3.2328    0.3048    0.8639 C   0  0  0  0  0  0  0  0  0  0  0  0
   -1.9913   -0.1069    0.9009 N   0  0  0  0  0  0  0  0  0  0  0  0
    1.4277   -0.4526    0.3827 H   0  0  0  0  0  0  0  0  0  0  0  0
    0.5477    2.5860    2.1033 H   0  0  0  0  0  0  0  0  0  0  0  0
    2.3457    1.3585   -1.3799 H   0  0  0  0  0  0  0  0  0  0  0  0
    3.9504   -0.7183   -2.1020 H   0  0  0  0  0  0  0  0  0  0  0  0
    5.5475   -2.2578    0.9235 H   0  0  0  0  0  0  0  0  0  0  0  0
    5.8540   -2.1030   -0.7918 H   0  0  0  0  0  0  0  0  0  0  0  0
    6.4798   -0.1239    2.3629 H   0  0  0  0  0  0  0  0  0  0  0  0
    8.6047    1.0618    2.8033 H   0  0  0  0  0  0  0  0  0  0  0  0
   10.1496   -0.2361   -0.9769 H   0  0  0  0  0  0  0  0  0  0  0  0
    8.0172   -1.4037   -1.4707 H   0  0  0  0  0  0  0  0  0  0  0  0
   -4.0506    2.2804    0.7276 H   0  0  0  0  0  0  0  0  0  0  0  0
   -4.1175   -0.3149    0.8843 H   0  0  0  0  0  0  0  0  0  0  0  0
  1  2  1  0  0  0  0
  1 24  1  0  0  0  0
  2  3  2  0  0  0  0
  2 19  1  0  0  0  0
  3  4  1  0  0  0  0
  3 25  1  0  0  0  0
  4  5  2  0  0  0  0
  4  6  1  0  0  0  0
  6  7  2  0  0  0  0
  6 18  1  0  0  0  0
  7  8  1  0  0  0  0
  7 26  1  0  0  0  0
  8  9  2  0  0  0  0
  8 27  1  0  0  0  0
  9 10  1  0  0  0  0
  9 18  1  0  0  0  0
 10 11  1  0  0  0  0
 10 28  1  0  0  0  0
 10 29  1  0  0  0  0
 11 12  2  0  0  0  0
 11 17  1  0  0  0  0
 12 13  1  0  0  0  0
 12 30  1  0  0  0  0
 13 14  2  0  0  0  0
 13 31  1  0  0  0  0
 14 15  1  0  0  0  0
 14 16  1  0  0  0  0
 16 17  2  0  0  0  0
 16 32  1  0  0  0  0
 17 33  1  0  0  0  0
 19 20  2  0  0  0  0
 19 23  1  0  0  0  0
 20 21  1  0  0  0  0
 21 22  1  0  0  0  0
 21 34  1  0  0  0  0
 22 23  2  0  0  0  0
 22 35  1  0  0  0  0
M  END
>  <DRUGBANK_ID>
DB16032

>  <COMMON_NAME>
GW810781

>  <CAS_NUMBER>
280571-30-4

>  <UNII>
W7KQU075CV

$$$$
