
 OpenBabel10282417233D

 58 62  0  0  1  0  0  0  0  0999 V2000
    0.8513   -0.0010   -0.0868 H   0  0  0  0  0  0  0  0  0  0  0  0
    1.9502   -0.0251   -0.1140 C   0  0  2  0  0  0  0  0  0  0  0  0
    2.3741   -0.1018   -1.5812 C   0  0  0  0  0  0  0  0  0  0  0  0
    1.9031    1.1352   -2.3261 C   0  0  0  0  0  0  0  0  0  0  0  0
    2.4847    2.4184   -1.7261 C   0  0  1  0  0  0  0  0  0  0  0  0
    1.9545    3.6170   -2.5158 C   0  0  0  0  0  0  0  0  0  0  0  0
    2.1354    2.5412   -0.2239 C   0  0  2  0  0  0  0  0  0  0  0  0
    1.0479    2.6852   -0.1420 H   0  0  0  0  0  0  0  0  0  0  0  0
    2.7868    3.8080    0.3778 C   0  0  0  0  0  0  0  0  0  0  0  0
    2.7680    3.8893    1.9050 C   0  0  0  0  0  0  0  0  0  0  0  0
    3.4781    2.6992    2.5693 C   0  0  1  0  0  0  0  0  0  0  0  0
    4.1476    3.1446    3.8687 C   0  0  0  0  0  0  0  0  0  0  0  0
    2.5422    1.6796    2.9303 O   0  0  0  0  0  0  0  0  0  0  0  0
    1.6804    1.3862    1.7903 O   0  0  0  0  0  0  0  0  0  0  0  0
    2.4716    1.2606    0.5786 C   0  0  1  0  0  0  0  0  0  0  0  0
    3.9881    1.1399    0.8644 C   0  0  2  0  0  0  0  0  0  0  0  0
    4.5691    1.1832   -0.0622 H   0  0  0  0  0  0  0  0  0  0  0  0
    4.3299   -0.0686    1.5010 O   0  0  0  0  0  0  0  0  0  0  0  0
    3.8866   -1.2822    0.9449 C   0  0  2  0  0  0  0  0  0  0  0  0
    2.3692   -1.2617    0.7075 C   0  0  2  0  0  0  0  0  0  0  0  0
    1.8899   -2.5935    0.1288 C   0  0  0  0  0  0  0  0  0  0  0  0
    4.2656   -2.3882    1.8476 N   0  0  0  0  0  0  0  0  0  0  0  0
    3.6296   -2.3172    3.1842 C   0  0  0  0  0  0  0  0  0  0  0  0
    4.0005   -1.0930    4.0013 C   0  0  0  0  0  0  0  0  0  0  0  0
    5.7597   -1.0795    4.2435 S   0  0  0  0  0  0  0  0  0  0  0  0
    6.1569    0.2508    4.6799 O   0  0  0  0  0  0  0  0  0  0  0  0
    6.0855   -2.2317    5.0588 O   0  0  0  0  0  0  0  0  0  0  0  0
    6.4426   -1.3574    2.6198 C   0  0  0  0  0  0  0  0  0  0  0  0
    5.7278   -2.5278    1.9594 C   0  0  0  0  0  0  0  0  0  0  0  0
    4.4917    2.1916    1.6968 O   0  0  0  0  0  0  0  0  0  0  0  0
    1.9245   -0.9797   -2.0567 H   0  0  0  0  0  0  0  0  0  0  0  0
    3.4601   -0.2048   -1.6849 H   0  0  0  0  0  0  0  0  0  0  0  0
    0.8067    1.1746   -2.2925 H   0  0  0  0  0  0  0  0  0  0  0  0
    2.1884    1.0483   -3.3802 H   0  0  0  0  0  0  0  0  0  0  0  0
    3.5765    2.3897   -1.8438 H   0  0  0  0  0  0  0  0  0  0  0  0
    2.3936    4.5562   -2.1694 H   0  0  0  0  0  0  0  0  0  0  0  0
    2.1979    3.5205   -3.5776 H   0  0  0  0  0  0  0  0  0  0  0  0
    0.8660    3.6932   -2.4177 H   0  0  0  0  0  0  0  0  0  0  0  0
    3.8292    3.8797    0.0364 H   0  0  0  0  0  0  0  0  0  0  0  0
    2.2828    4.6992   -0.0073 H   0  0  0  0  0  0  0  0  0  0  0  0
    3.2736    4.8243    2.1751 H   0  0  0  0  0  0  0  0  0  0  0  0
    1.7344    3.9706    2.2622 H   0  0  0  0  0  0  0  0  0  0  0  0
    4.6131    2.2926    4.3729 H   0  0  0  0  0  0  0  0  0  0  0  0
    4.9378    3.8800    3.6852 H   0  0  0  0  0  0  0  0  0  0  0  0
    3.4188    3.5649    4.5708 H   0  0  0  0  0  0  0  0  0  0  0  0
    4.4051   -1.4271   -0.0119 H   0  0  0  0  0  0  0  0  0  0  0  0
    1.8595   -1.1282    1.6687 H   0  0  0  0  0  0  0  0  0  0  0  0
    2.1210   -3.4238    0.8061 H   0  0  0  0  0  0  0  0  0  0  0  0
    0.8063   -2.5833   -0.0087 H   0  0  0  0  0  0  0  0  0  0  0  0
    2.3741   -2.8168   -0.8261 H   0  0  0  0  0  0  0  0  0  0  0  0
    3.8896   -3.2221    3.7471 H   0  0  0  0  0  0  0  0  0  0  0  0
    2.5395   -2.3829    3.0946 H   0  0  0  0  0  0  0  0  0  0  0  0
    3.4971   -1.0761    4.9701 H   0  0  0  0  0  0  0  0  0  0  0  0
    3.7129   -0.1646    3.5286 H   0  0  0  0  0  0  0  0  0  0  0  0
    6.3848   -0.4351    2.0388 H   0  0  0  0  0  0  0  0  0  0  0  0
    7.5101   -1.5601    2.7300 H   0  0  0  0  0  0  0  0  0  0  0  0
    5.9460   -3.4474    2.5183 H   0  0  0  0  0  0  0  0  0  0  0  0
    6.1456   -2.7002    0.9593 H   0  0  0  0  0  0  0  0  0  0  0  0
  2  1  1  1  0  0  0
  2  3  1  0  0  0  0
  2 20  1  0  0  0  0
  3  4  1  0  0  0  0
  3 31  1  0  0  0  0
  3 32  1  0  0  0  0
  4 33  1  0  0  0  0
  4 34  1  0  0  0  0
  5  4  1  0  0  0  0
  5  6  1  0  0  0  0
  5 35  1  6  0  0  0
  6 36  1  0  0  0  0
  6 37  1  0  0  0  0
  6 38  1  0  0  0  0
  7  5  1  0  0  0  0
  7  8  1  1  0  0  0
  7  9  1  0  0  0  0
  9 10  1  0  0  0  0
  9 39  1  0  0  0  0
  9 40  1  0  0  0  0
 10 41  1  0  0  0  0
 10 42  1  0  0  0  0
 11 10  1  0  0  0  0
 11 12  1  1  0  0  0
 11 13  1  0  0  0  0
 11 30  1  0  0  0  0
 12 43  1  0  0  0  0
 12 44  1  0  0  0  0
 12 45  1  0  0  0  0
 13 14  1  0  0  0  0
 15 14  1  1  0  0  0
 15  2  1  0  0  0  0
 15  7  1  0  0  0  0
 15 16  1  0  0  0  0
 16 17  1  6  0  0  0
 16 18  1  0  0  0  0
 16 30  1  0  0  0  0
 19 18  1  0  0  0  0
 19 46  1  6  0  0  0
 19 22  1  0  0  0  0
 20 19  1  0  0  0  0
 20 21  1  0  0  0  0
 20 47  1  1  0  0  0
 21 48  1  0  0  0  0
 21 49  1  0  0  0  0
 21 50  1  0  0  0  0
 22 23  1  0  0  0  0
 22 29  1  0  0  0  0
 23 24  1  0  0  0  0
 23 51  1  0  0  0  0
 23 52  1  0  0  0  0
 24 25  1  0  0  0  0
 24 53  1  0  0  0  0
 24 54  1  0  0  0  0
 25 26  2  0  0  0  0
 25 27  2  0  0  0  0
 25 28  1  0  0  0  0
 28 29  1  0  0  0  0
 28 55  1  0  0  0  0
 28 56  1  0  0  0  0
 29 57  1  0  0  0  0
 29 58  1  0  0  0  0
M  END
>  <DRUGBANK_ID>
DB16097

>  <COMMON_NAME>
Artemisone

>  <CAS_NUMBER>
255730-18-8

>  <UNII>
796LMW5BUZ

>  <SYNONYMS>
Artemifone; Artemisone

$$$$
