836
 OpenBabel10282417113D

 67 70  0  0  0  0  0  0  0  0999 V2000
   -2.2067    0.0290   -0.0092 Cl  0  0  0  0  0  0  0  0  0  0  0  0
    4.0624    0.7144    1.0229 O   0  0  0  0  0  0  0  0  0  0  0  0
    6.3592    0.4634    1.4225 O   0  0  0  0  0  0  0  0  0  0  0  0
    6.2662   -0.7484   -1.7394 N   0  0  0  0  0  0  0  0  0  0  0  0
    6.0868   -1.5187    2.5360 N   0  0  0  0  0  0  0  0  0  0  0  0
    3.7961    0.0252   -0.1880 C   0  0  0  0  0  0  0  0  0  0  0  0
    4.3492    0.8218   -1.3705 C   0  0  0  0  0  0  0  0  0  0  0  0
    4.2575   -1.4275   -0.3603 C   0  0  0  0  0  0  0  0  0  0  0  0
    5.8590    0.6447   -1.5716 C   0  0  0  0  0  0  0  0  0  0  0  0
    5.6402   -1.6730   -0.8420 C   0  0  0  0  0  0  0  0  0  0  0  0
    7.7251   -0.9508   -1.6819 C   0  0  0  0  0  0  0  0  0  0  0  0
    8.4861   -0.4167   -0.4363 C   0  0  0  0  0  0  0  0  0  0  0  0
    8.2292   -1.0892    0.9895 C   0  0  0  0  0  0  0  0  0  0  0  0
    2.2821    0.0143   -0.1034 C   0  0  0  0  0  0  0  0  0  0  0  0
    8.5407   -2.6176    0.8076 C   0  0  0  0  0  0  0  0  0  0  0  0
    9.1439   -0.3607    2.0303 C   0  0  0  0  0  0  0  0  0  0  0  0
    6.8001   -0.6811    1.6752 C   0  0  0  0  0  0  0  0  0  0  0  0
    1.5913    1.2307   -0.0553 C   0  0  0  0  0  0  0  0  0  0  0  0
    1.5540   -1.1865   -0.0031 C   0  0  0  0  0  0  0  0  0  0  0  0
    9.8854   -3.0230    0.8251 C   0  0  0  0  0  0  0  0  0  0  0  0
    9.0392    1.0409    2.1517 C   0  0  0  0  0  0  0  0  0  0  0  0
    7.5866   -3.6489    0.6690 C   0  0  0  0  0  0  0  0  0  0  0  0
    9.7311   -1.0734    3.0857 C   0  0  0  0  0  0  0  0  0  0  0  0
    0.2053    1.2365   -0.0199 C   0  0  0  0  0  0  0  0  0  0  0  0
    0.1756   -1.1845   -0.0007 C   0  0  0  0  0  0  0  0  0  0  0  0
   -0.4925    0.0295   -0.0143 C   0  0  0  0  0  0  0  0  0  0  0  0
   10.2337   -4.3667    0.9398 C   0  0  0  0  0  0  0  0  0  0  0  0
    9.4296    1.6761    3.3200 C   0  0  0  0  0  0  0  0  0  0  0  0
    7.9382   -4.9972    0.6785 C   0  0  0  0  0  0  0  0  0  0  0  0
   10.0840   -0.4454    4.2627 C   0  0  0  0  0  0  0  0  0  0  0  0
    6.7938   -2.3645    3.4511 C   0  0  0  0  0  0  0  0  0  0  0  0
    4.6962   -1.2733    2.9640 C   0  0  0  0  0  0  0  0  0  0  0  0
    9.2626   -5.3555    0.8492 C   0  0  0  0  0  0  0  0  0  0  0  0
    9.9534    0.9304    4.3706 C   0  0  0  0  0  0  0  0  0  0  0  0
    5.0211    0.8736    1.1262 H   0  0  0  0  0  0  0  0  0  0  0  0
    3.8388    0.4827   -2.2760 H   0  0  0  0  0  0  0  0  0  0  0  0
    4.1572    1.8924   -1.2427 H   0  0  0  0  0  0  0  0  0  0  0  0
    4.1286   -2.0332    0.5348 H   0  0  0  0  0  0  0  0  0  0  0  0
    3.6570   -1.9098   -1.1328 H   0  0  0  0  0  0  0  0  0  0  0  0
    6.1488    1.1775   -2.4827 H   0  0  0  0  0  0  0  0  0  0  0  0
    6.3782    1.1605   -0.7617 H   0  0  0  0  0  0  0  0  0  0  0  0
    5.6999   -2.6961   -1.2270 H   0  0  0  0  0  0  0  0  0  0  0  0
    6.2066   -1.7110    0.0428 H   0  0  0  0  0  0  0  0  0  0  0  0
    7.9527   -2.0177   -1.8170 H   0  0  0  0  0  0  0  0  0  0  0  0
    8.1420   -0.4752   -2.5780 H   0  0  0  0  0  0  0  0  0  0  0  0
    9.5572   -0.5141   -0.6738 H   0  0  0  0  0  0  0  0  0  0  0  0
    8.3307    0.6654   -0.4091 H   0  0  0  0  0  0  0  0  0  0  0  0
    2.1450    2.1685   -0.0204 H   0  0  0  0  0  0  0  0  0  0  0  0
    2.0324   -2.1604    0.0592 H   0  0  0  0  0  0  0  0  0  0  0  0
   10.6785   -2.2784    0.8846 H   0  0  0  0  0  0  0  0  0  0  0  0
    8.4992    1.6383    1.4156 H   0  0  0  0  0  0  0  0  0  0  0  0
    6.5192   -3.4863    0.6052 H   0  0  0  0  0  0  0  0  0  0  0  0
    9.8057   -2.1563    3.0814 H   0  0  0  0  0  0  0  0  0  0  0  0
   -0.3155    2.1861   -0.0054 H   0  0  0  0  0  0  0  0  0  0  0  0
   -0.3442   -2.1358    0.0038 H   0  0  0  0  0  0  0  0  0  0  0  0
   11.2672   -4.6274    1.1425 H   0  0  0  0  0  0  0  0  0  0  0  0
    9.2471    2.7404    3.4291 H   0  0  0  0  0  0  0  0  0  0  0  0
    7.1585   -5.7521    0.6075 H   0  0  0  0  0  0  0  0  0  0  0  0
   10.3969   -1.0572    5.1019 H   0  0  0  0  0  0  0  0  0  0  0  0
    6.8013   -1.8556    4.4180 H   0  0  0  0  0  0  0  0  0  0  0  0
    6.2965   -3.3316    3.5003 H   0  0  0  0  0  0  0  0  0  0  0  0
    7.8097   -2.5278    3.1547 H   0  0  0  0  0  0  0  0  0  0  0  0
    4.4421   -0.2182    3.0113 H   0  0  0  0  0  0  0  0  0  0  0  0
    3.9896   -1.8037    2.3258 H   0  0  0  0  0  0  0  0  0  0  0  0
    4.5163   -1.7164    3.9465 H   0  0  0  0  0  0  0  0  0  0  0  0
    9.5338   -6.4029    0.9161 H   0  0  0  0  0  0  0  0  0  0  0  0
   10.2410    1.4190    5.2919 H   0  0  0  0  0  0  0  0  0  0  0  0
  1 26  1  0  0  0  0
  2  6  1  0  0  0  0
  2 35  1  0  0  0  0
  3 17  2  0  0  0  0
  4  9  1  0  0  0  0
  4 10  1  0  0  0  0
  4 11  1  0  0  0  0
  5 17  1  0  0  0  0
  5 31  1  0  0  0  0
  5 32  1  0  0  0  0
  6  7  1  0  0  0  0
  6  8  1  0  0  0  0
  6 14  1  0  0  0  0
  7  9  1  0  0  0  0
  7 36  1  0  0  0  0
  7 37  1  0  0  0  0
  8 10  1  0  0  0  0
  8 38  1  0  0  0  0
  8 39  1  0  0  0  0
  9 40  1  0  0  0  0
  9 41  1  0  0  0  0
 10 42  1  0  0  0  0
 10 43  1  0  0  0  0
 11 12  1  0  0  0  0
 11 44  1  0  0  0  0
 11 45  1  0  0  0  0
 12 13  1  0  0  0  0
 12 46  1  0  0  0  0
 12 47  1  0  0  0  0
 13 15  1  0  0  0  0
 13 16  1  0  0  0  0
 13 17  1  0  0  0  0
 14 18  2  0  0  0  0
 14 19  1  0  0  0  0
 15 20  2  0  0  0  0
 15 22  1  0  0  0  0
 16 21  2  0  0  0  0
 16 23  1  0  0  0  0
 18 24  1  0  0  0  0
 18 48  1  0  0  0  0
 19 25  2  0  0  0  0
 19 49  1  0  0  0  0
 20 27  1  0  0  0  0
 20 50  1  0  0  0  0
 21 28  1  0  0  0  0
 21 51  1  0  0  0  0
 22 29  2  0  0  0  0
 22 52  1  0  0  0  0
 23 30  2  0  0  0  0
 23 53  1  0  0  0  0
 24 26  2  0  0  0  0
 24 54  1  0  0  0  0
 25 26  1  0  0  0  0
 25 55  1  0  0  0  0
 27 33  2  0  0  0  0
 27 56  1  0  0  0  0
 28 34  2  0  0  0  0
 28 57  1  0  0  0  0
 29 33  1  0  0  0  0
 29 58  1  0  0  0  0
 30 34  1  0  0  0  0
 30 59  1  0  0  0  0
 31 60  1  0  0  0  0
 31 61  1  0  0  0  0
 31 62  1  0  0  0  0
 32 63  1  0  0  0  0
 32 64  1  0  0  0  0
 32 65  1  0  0  0  0
 33 66  1  0  0  0  0
 34 67  1  0  0  0  0
M  END
>  <DRUGBANK_ID>
DB00836

>  <SECONDARY_ACCESSION_NUMBERS>
APRD00275

>  <COMMON_NAME>
Loperamide

>  <CAS_NUMBER>
53179-11-6

>  <UNII>
6X9OC3H4II

>  <SYNONYMS>
Loperamid; Loperamida; LopÃ©ramide; Loperamide; Loperamidum

$$$$
