
 OpenBabel10282417223D

189193  0  0  0  0  0  0  0  0999 V2000
  -19.0220  -15.7985    7.1810 N   0  0  0  0  0  0  0  0  0  0  0  0
  -19.7158  -15.2624    8.1919 C   0  0  0  0  0  0  0  0  0  0  0  0
  -18.6438  -13.6908    8.2300 C   0  0  0  0  0  0  0  0  0  0  0  0
  -16.5550  -12.8548    8.0961 C   0  0  0  0  0  0  0  0  0  0  0  0
  -17.7167  -14.2836    6.9952 C   0  0  0  0  0  0  0  0  0  0  0  0
  -14.6510  -11.3111    9.0143 C   0  0  0  0  0  0  0  0  0  0  0  0
  -12.4708  -10.0915   10.4077 C   0  0  2  0  0  0  0  0  0  0  0  0
  -10.4004   -8.9584   12.0313 C   0  0  0  0  0  0  0  0  0  0  0  0
   -9.3034   -7.9220   13.0181 O   0  0  0  0  0  0  0  0  0  0  0  0
   -8.6587   -7.6711   13.4350 N   0  0  0  0  0  0  0  0  0  0  0  0
   -7.5131   -6.1652   15.0785 C   0  0  1  0  0  0  0  0  0  0  0  0
   -6.9701   -4.4949   16.6673 C   0  0  0  0  0  0  0  0  0  0  0  0
   -8.3418   -3.9645   16.9181 C   0  0  0  0  0  0  0  0  0  0  0  0
   -9.0661   -5.2331   17.2980 C   0  0  0  0  0  0  0  0  0  0  0  0
   -8.6884   -5.6563   18.6993 C   0  0  0  0  0  0  0  0  0  0  0  0
   -9.0510   -4.6076   19.6399 N   0  0  0  0  0  0  0  0  0  0  0  0
   -6.8537   -4.8611   14.4738 C   0  0  0  0  0  0  0  0  0  0  0  0
   -6.2621   -3.8631   14.1977 O   0  0  0  0  0  0  0  0  0  0  0  0
   -7.8439   -5.4794   13.7687 N   0  0  0  0  0  0  0  0  0  0  0  0
   -8.1421   -5.2570   12.4251 C   0  0  1  0  0  0  0  0  0  0  0  0
   -7.4236   -3.9931   12.0666 C   0  0  1  0  0  0  0  0  0  0  0  0
   -7.7838   -3.5803   10.6892 C   0  0  0  0  0  0  0  0  0  0  0  0
   -7.8018   -2.9337   12.9703 O   0  0  0  0  0  0  0  0  0  0  0  0
   -7.7304   -6.3924   11.4575 C   0  0  0  0  0  0  0  0  0  0  0  0
   -6.5462   -6.7394   11.3687 O   0  0  0  0  0  0  0  0  0  0  0  0
   -8.7186   -6.9743   10.6697 N   0  0  0  0  0  0  0  0  0  0  0  0
   -8.4033   -8.0335    9.7504 C   0  0  2  0  0  0  0  0  0  0  0  0
   -8.6204   -7.5797    8.2791 C   0  0  0  0  0  0  0  0  0  0  0  0
   -9.3637   -6.6518    7.9914 O   0  0  0  0  0  0  0  0  0  0  0  0
   -8.0014   -8.1672    7.1830 N   0  0  0  0  0  0  0  0  0  0  0  0
   -7.3617   -9.4596    7.4089 C   0  0  2  0  0  0  0  0  0  0  0  0
   -6.6284   -9.9553    6.1782 C   0  0  0  0  0  0  0  0  0  0  0  0
   -5.7597   -9.2902    5.6303 O   0  0  0  0  0  0  0  0  0  0  0  0
   -7.0515  -11.1656    5.6641 O   0  0  0  0  0  0  0  0  0  0  0  0
   -8.3697  -10.5007    7.7520 C   0  0  1  0  0  0  0  0  0  0  0  0
   -7.7579  -11.7864    8.1893 C   0  0  0  0  0  0  0  0  0  0  0  0
   -9.0804   -9.8352    8.5833 O   0  0  0  0  0  0  0  0  0  0  0  0
   -9.1179   -9.2662   10.3301 C   0  0  0  0  0  0  0  0  0  0  0  0
  -10.6065   -9.1830   10.1939 S   0  0  0  0  0  0  0  0  0  0  0  0
  -11.5765   -7.4980   11.5827 S   0  0  0  0  0  0  0  0  0  0  0  0
  -13.2596   -7.2746   11.4379 C   0  0  0  0  0  0  0  0  0  0  0  0
  -13.8454   -6.3873   10.4796 C   0  0  2  0  0  0  0  0  0  0  0  0
  -15.4186   -6.4751    9.8915 N   0  0  0  0  0  0  0  0  0  0  0  0
  -16.1210   -7.7186    9.6991 C   0  0  0  0  0  0  0  0  0  0  0  0
  -17.2959   -7.5858    9.5199 O   0  0  0  0  0  0  0  0  0  0  0  0
  -15.5365   -9.1689    9.6794 C   0  0  1  0  0  0  0  0  0  0  0  0
  -14.8073   -9.4098    8.5434 C   0  0  0  0  0  0  0  0  0  0  0  0
  -13.0936   -8.5456    7.9128 C   0  0  0  0  0  0  0  0  0  0  0  0
  -13.6683   -6.8915    8.7510 C   0  0  0  0  0  0  0  0  0  0  0  0
  -12.1379   -6.4469    9.6025 C   0  0  0  0  0  0  0  0  0  0  0  0
  -11.0635   -6.6705    9.0814 C   0  0  0  0  0  0  0  0  0  0  0  0
  -11.0893   -7.5767    7.9792 C   0  0  0  0  0  0  0  0  0  0  0  0
  -12.2310   -8.0505    7.2340 C   0  0  0  0  0  0  0  0  0  0  0  0
  -14.7523   -9.5815   10.7567 N   0  0  0  0  0  0  0  0  0  0  0  0
  -15.1076  -10.6723   11.5121 C   0  0  0  0  0  0  0  0  0  0  0  0
  -14.3146  -11.0073   12.7826 C   0  0  0  0  0  0  0  0  0  0  0  0
  -15.1263  -11.0096   13.9870 N   0  0  0  0  0  0  0  0  0  0  0  0
  -14.4113  -10.4876   15.1030 C   0  0  0  0  0  0  0  0  0  0  0  0
  -14.3137   -8.9885   15.2508 C   0  0  0  0  0  0  0  0  0  0  0  0
  -15.3956   -8.3865   16.0085 N   0  0  0  0  0  0  0  0  0  0  0  0
  -15.0360   -7.0399   16.3826 C   0  0  0  0  0  0  0  0  0  0  0  0
  -14.7951   -6.1436   15.1529 C   0  0  0  0  0  0  0  0  0  0  0  0
  -15.4643   -5.1326   14.9668 O   0  0  0  0  0  0  0  0  0  0  0  0
  -13.7841   -6.5215   14.2759 O   0  0  0  0  0  0  0  0  0  0  0  0
  -16.6001   -8.2642   15.2437 C   0  0  0  0  0  0  0  0  0  0  0  0
  -17.8849   -8.3536   16.0613 C   0  0  0  0  0  0  0  0  0  0  0  0
  -18.3575   -9.7496   16.2946 N   0  0  0  0  0  0  0  0  0  0  0  0
  -19.1900   -9.7396   17.4817 C   0  0  0  0  0  0  0  0  0  0  0  0
  -20.4097   -8.7653   17.3064 C   0  0  0  0  0  0  0  0  0  0  0  0
  -21.5533   -9.3225   17.3983 O   0  0  0  0  0  0  0  0  0  0  0  0
  -20.1967   -7.5161   17.0989 O   0  5  0  0  0  0  0  0  0  0  0  0
  -19.2428  -10.2422   15.2236 C   0  0  0  0  0  0  0  0  0  0  0  0
  -19.2717  -11.6986   14.9816 C   0  0  0  0  0  0  0  0  0  0  0  0
  -18.1582  -12.2808   14.2299 N   0  0  0  0  0  0  0  0  0  0  0  0
  -17.9033  -11.4152   13.0616 C   0  0  0  0  0  0  0  0  0  0  0  0
  -17.4528   -9.9530   13.4064 C   0  0  0  0  0  0  0  0  0  0  0  0
  -16.3364   -9.5555   12.9907 O   0  0  0  0  0  0  0  0  0  0  0  0
  -18.1217   -8.9542   13.9479 O   0  5  0  0  0  0  0  0  0  0  0  0
  -16.9419  -12.3404   15.0418 C   0  0  0  0  0  0  0  0  0  0  0  0
  -15.6813  -12.3142   14.1990 C   0  0  0  0  0  0  0  0  0  0  0  0
  -16.0563  -11.3585   11.1583 O   0  0  0  0  0  0  0  0  0  0  0  0
  -13.1641   -8.2009    9.5104 C   0  0  0  0  0  0  0  0  0  0  0  0
  -12.0331   -8.6444    9.2081 O   0  0  0  0  0  0  0  0  0  0  0  0
  -14.5125   -7.9598    7.8127 N   0  0  0  0  0  0  0  0  0  0  0  0
  -13.9635   -9.7128    6.8142 C   0  0  1  0  0  0  0  0  0  0  0  0
  -12.1953  -10.2155    7.1305 C   0  0  0  0  0  0  0  0  0  0  0  0
  -11.9959  -11.1037    6.1445 C   0  0  0  0  0  0  0  0  0  0  0  0
  -11.0437  -10.7806    5.2598 C   0  0  0  0  0  0  0  0  0  0  0  0
  -10.5747  -11.7896    4.4746 C   0  0  0  0  0  0  0  0  0  0  0  0
  -11.1037  -13.0479    4.5257 C   0  0  0  0  0  0  0  0  0  0  0  0
  -12.0352  -13.2802    5.5101 C   0  0  0  0  0  0  0  0  0  0  0  0
  -12.6255  -12.2797    6.2205 C   0  0  0  0  0  0  0  0  0  0  0  0
  -10.7604  -14.0471    3.6419 O   0  0  0  0  0  0  0  0  0  0  0  0
  -15.0254  -11.0068    7.4793 C   0  0  0  0  0  0  0  0  0  0  0  0
  -15.8801  -11.8021    8.9477 O   0  0  0  0  0  0  0  0  0  0  0  0
  -13.4853  -11.0202    8.5154 N   0  0  0  0  0  0  0  0  0  0  0  0
  -19.8561  -13.1278    9.1420 C   0  0  0  0  0  0  0  0  0  0  0  0
  -20.8859  -13.5831   10.0181 C   0  0  0  0  0  0  0  0  0  0  0  0
  -21.3182  -14.8895   10.0003 C   0  0  0  0  0  0  0  0  0  0  0  0
  -20.7955  -15.7947    9.0965 C   0  0  0  0  0  0  0  0  0  0  0  0
    0.9846    0.0314    0.0952 Cu  0  2  0  0  0  0  0  0  0  0  0  0
  -19.2519  -16.9526    6.8770 H   0  0  0  0  0  0  0  0  0  0  0  0
  -17.7611  -15.1436    5.7135 H   0  0  0  0  0  0  0  0  0  0  0  0
  -15.9981  -11.7492    7.6805 H   0  0  0  0  0  0  0  0  0  0  0  0
  -16.3105  -11.2076    7.9995 H   0  0  0  0  0  0  0  0  0  0  0  0
  -13.3260  -11.1466    9.6433 H   0  0  0  0  0  0  0  0  0  0  0  0
   -7.1257   -7.1669   14.1209 H   0  0  0  0  0  0  0  0  0  0  0  0
   -6.9530   -6.3062   16.2689 H   0  0  0  0  0  0  0  0  0  0  0  0
   -6.5545   -4.5216   17.9478 H   0  0  0  0  0  0  0  0  0  0  0  0
   -6.3138   -3.3227   16.6976 H   0  0  0  0  0  0  0  0  0  0  0  0
   -8.5958   -3.1703   17.6080 H   0  0  0  0  0  0  0  0  0  0  0  0
   -8.6086   -3.6550   15.9214 H   0  0  0  0  0  0  0  0  0  0  0  0
  -10.1295   -5.0757   17.2296 H   0  0  0  0  0  0  0  0  0  0  0  0
   -8.8158   -6.0282   16.6042 H   0  0  0  0  0  0  0  0  0  0  0  0
   -9.1982   -6.5759   18.9517 H   0  0  0  0  0  0  0  0  0  0  0  0
   -7.6180   -5.8415   18.7514 H   0  0  0  0  0  0  0  0  0  0  0  0
   -8.7933   -4.8808   20.5838 H   0  0  0  0  0  0  0  0  0  0  0  0
   -8.5601   -3.7445   19.4059 H   0  0  0  0  0  0  0  0  0  0  0  0
   -8.3333   -6.4078   14.1440 H   0  0  0  0  0  0  0  0  0  0  0  0
   -9.2090   -5.1158   12.4089 H   0  0  0  0  0  0  0  0  0  0  0  0
   -6.3406   -4.1623   12.1305 H   0  0  0  0  0  0  0  0  0  0  0  0
   -8.8526   -3.4096   10.6327 H   0  0  0  0  0  0  0  0  0  0  0  0
   -7.2673   -2.6677   10.4276 H   0  0  0  0  0  0  0  0  0  0  0  0
   -7.5117   -4.3567    9.9865 H   0  0  0  0  0  0  0  0  0  0  0  0
   -8.7533   -2.8234   12.9649 H   0  0  0  0  0  0  0  0  0  0  0  0
   -9.7191   -6.7454   10.7742 H   0  0  0  0  0  0  0  0  0  0  0  0
   -7.3396   -8.2454    9.7749 H   0  0  0  0  0  0  0  0  0  0  0  0
   -8.2811   -7.8834    6.2274 H   0  0  0  0  0  0  0  0  0  0  0  0
   -6.6557   -9.3159    8.2432 H   0  0  0  0  0  0  0  0  0  0  0  0
   -6.6366  -11.5229    4.8467 H   0  0  0  0  0  0  0  0  0  0  0  0
   -9.1245  -10.6181    7.0423 H   0  0  0  0  0  0  0  0  0  0  0  0
   -7.0393  -11.6562    8.9915 H   0  0  0  0  0  0  0  0  0  0  0  0
   -8.4985  -12.5114    8.4901 H   0  0  0  0  0  0  0  0  0  0  0  0
   -7.2357  -12.1709    7.3314 H   0  0  0  0  0  0  0  0  0  0  0  0
   -8.0799   -9.7830    9.4634 H   0  0  0  0  0  0  0  0  0  0  0  0
   -8.8283   -9.6805   11.1642 H   0  0  0  0  0  0  0  0  0  0  0  0
   -8.9508  -10.6250    9.8767 H   0  0  0  0  0  0  0  0  0  0  0  0
  -13.5192   -6.5100   12.0254 H   0  0  0  0  0  0  0  0  0  0  0  0
  -13.7757   -8.0817   11.6753 H   0  0  0  0  0  0  0  0  0  0  0  0
  -13.4035   -5.5752    9.5831 H   0  0  0  0  0  0  0  0  0  0  0  0
  -15.5609   -5.5453    9.8529 H   0  0  0  0  0  0  0  0  0  0  0  0
  -16.2838   -9.8674    9.3927 H   0  0  0  0  0  0  0  0  0  0  0  0
  -13.9242   -9.6757    8.6369 H   0  0  0  0  0  0  0  0  0  0  0  0
  -15.3648   -9.2205    7.3492 H   0  0  0  0  0  0  0  0  0  0  0  0
  -14.4106   -7.6173    9.8332 H   0  0  0  0  0  0  0  0  0  0  0  0
  -12.2349   -5.8483   10.6339 H   0  0  0  0  0  0  0  0  0  0  0  0
  -10.3026   -6.1177    9.4565 H   0  0  0  0  0  0  0  0  0  0  0  0
  -10.2169   -8.2262    7.9273 H   0  0  0  0  0  0  0  0  0  0  0  0
  -12.5665   -8.7155    6.4960 H   0  0  0  0  0  0  0  0  0  0  0  0
  -13.9177   -9.1272   10.9125 H   0  0  0  0  0  0  0  0  0  0  0  0
  -13.9091  -12.0090   12.6974 H   0  0  0  0  0  0  0  0  0  0  0  0
  -13.5013  -10.3095   12.9075 H   0  0  0  0  0  0  0  0  0  0  0  0
  -14.8940  -10.8485   15.9918 H   0  0  0  0  0  0  0  0  0  0  0  0
  -13.4053  -10.8789   14.9898 H   0  0  0  0  0  0  0  0  0  0  0  0
  -13.4075   -8.7901   15.8255 H   0  0  0  0  0  0  0  0  0  0  0  0
  -14.2486   -8.5468   14.2685 H   0  0  0  0  0  0  0  0  0  0  0  0
  -15.8409   -6.6051   16.9841 H   0  0  0  0  0  0  0  0  0  0  0  0
  -14.1483   -7.0749   17.0006 H   0  0  0  0  0  0  0  0  0  0  0  0
  -13.6438   -5.9592   13.4873 H   0  0  0  0  0  0  0  0  0  0  0  0
  -16.6359   -7.3738   14.6235 H   0  0  0  0  0  0  0  0  0  0  0  0
  -16.5539   -9.0872   14.6404 H   0  0  0  0  0  0  0  0  0  0  0  0
  -17.6459   -7.9098   16.9994 H   0  0  0  0  0  0  0  0  0  0  0  0
  -18.6680   -7.7763   15.5524 H   0  0  0  0  0  0  0  0  0  0  0  0
  -19.5209  -10.7627   17.6636 H   0  0  0  0  0  0  0  0  0  0  0  0
  -18.5894   -9.4255   18.3236 H   0  0  0  0  0  0  0  0  0  0  0  0
  -20.2023   -9.8207   15.2984 H   0  0  0  0  0  0  0  0  0  0  0  0
  -19.0962  -10.1078   14.2117 H   0  0  0  0  0  0  0  0  0  0  0  0
  -19.2850  -12.1197   15.9550 H   0  0  0  0  0  0  0  0  0  0  0  0
  -20.1880  -11.9067   14.4271 H   0  0  0  0  0  0  0  0  0  0  0  0
  -17.1393  -11.8979   12.4838 H   0  0  0  0  0  0  0  0  0  0  0  0
  -18.7728  -11.3698   12.4340 H   0  0  0  0  0  0  0  0  0  0  0  0
  -16.9087  -11.5061   15.7223 H   0  0  0  0  0  0  0  0  0  0  0  0
  -16.9486  -13.2700   15.6063 H   0  0  0  0  0  0  0  0  0  0  0  0
  -15.9108  -12.7638   13.2392 H   0  0  0  0  0  0  0  0  0  0  0  0
  -14.9046  -12.8791   14.6761 H   0  0  0  0  0  0  0  0  0  0  0  0
  -15.4147   -8.0836    8.1147 H   0  0  0  0  0  0  0  0  0  0  0  0
  -14.1977   -9.3573    5.9419 H   0  0  0  0  0  0  0  0  0  0  0  0
  -11.1819   -9.2960    6.9288 H   0  0  0  0  0  0  0  0  0  0  0  0
  -12.0410  -10.2877    8.1774 H   0  0  0  0  0  0  0  0  0  0  0  0
  -10.6627   -9.7768    5.1823 H   0  0  0  0  0  0  0  0  0  0  0  0
   -9.7659  -11.5856    3.8173 H   0  0  0  0  0  0  0  0  0  0  0  0
  -12.2837  -14.2900    5.7286 H   0  0  0  0  0  0  0  0  0  0  0  0
  -13.5120  -12.4505    6.8181 H   0  0  0  0  0  0  0  0  0  0  0  0
  -10.1060  -13.8455    2.9370 H   0  0  0  0  0  0  0  0  0  0  0  0
  -14.4357  -11.1413    7.1827 H   0  0  0  0  0  0  0  0  0  0  0  0
  -19.5742  -12.1171    9.1994 H   0  0  0  0  0  0  0  0  0  0  0  0
  -21.2896  -12.8843   10.7387 H   0  0  0  0  0  0  0  0  0  0  0  0
  -22.0862  -15.1902   10.6989 H   0  0  0  0  0  0  0  0  0  0  0  0
  -21.1490  -16.8361    9.1002 H   0  0  0  0  0  0  0  0  0  0  0  0
  1  5  1  0  0  0  0
  1102  1  0  0  0  0
  2  1  1  0  0  0  0
  2100  1  0  0  0  0
  3  2  2  0  0  0  0
  4  3  1  0  0  0  0
  5  4  2  0  0  0  0
  5103  1  0  0  0  0
  6  4  1  0  0  0  0
  6104  1  0  0  0  0
  6105  1  0  0  0  0
  7  6  1  0  0  0  0
  7  8  1  0  0  0  0
  7106  1  1  0  0  0
  8  9  2  0  0  0  0
 10  8  1  0  0  0  0
 10 11  1  0  0  0  0
 10107  1  0  0  0  0
 11 12  1  0  0  0  0
 11 17  1  0  0  0  0
 11108  1  6  0  0  0
 12 13  1  0  0  0  0
 12109  1  0  0  0  0
 12110  1  0  0  0  0
 13 14  1  0  0  0  0
 13111  1  0  0  0  0
 13112  1  0  0  0  0
 14 15  1  0  0  0  0
 14113  1  0  0  0  0
 14114  1  0  0  0  0
 15 16  1  0  0  0  0
 15115  1  0  0  0  0
 15116  1  0  0  0  0
 16117  1  0  0  0  0
 16118  1  0  0  0  0
 17 18  2  0  0  0  0
 19 17  1  0  0  0  0
 19119  1  0  0  0  0
 20 19  1  0  0  0  0
 20 21  1  0  0  0  0
 20 24  1  0  0  0  0
 20120  1  6  0  0  0
 21 22  1  0  0  0  0
 21 23  1  0  0  0  0
 21121  1  1  0  0  0
 22122  1  0  0  0  0
 22123  1  0  0  0  0
 22124  1  0  0  0  0
 23125  1  0  0  0  0
 24 25  2  0  0  0  0
 26 24  1  0  0  0  0
 26 27  1  0  0  0  0
 26126  1  0  0  0  0
 27 38  1  0  0  0  0
 27127  1  1  0  0  0
 27 28  1  0  0  0  0
 28 29  2  0  0  0  0
 30 28  1  0  0  0  0
 30128  1  0  0  0  0
 31 35  1  0  0  0  0
 31129  1  1  0  0  0
 31 32  1  0  0  0  0
 31 30  1  0  0  0  0
 32 33  2  0  0  0  0
 32 34  1  0  0  0  0
 34130  1  0  0  0  0
 35 36  1  0  0  0  0
 35 37  1  0  0  0  0
 35131  1  6  0  0  0
 36132  1  0  0  0  0
 36133  1  0  0  0  0
 36134  1  0  0  0  0
 37135  1  0  0  0  0
 38 39  1  0  0  0  0
 38136  1  0  0  0  0
 38137  1  0  0  0  0
 39 40  1  0  0  0  0
 41 40  1  0  0  0  0
 41138  1  0  0  0  0
 41139  1  0  0  0  0
 42 41  1  0  0  0  0
 42 82  1  0  0  0  0
 42140  1  6  0  0  0
 42 43  1  0  0  0  0
 43 44  1  0  0  0  0
 43141  1  0  0  0  0
 44 45  2  0  0  0  0
 46 44  1  0  0  0  0
 46 47  1  0  0  0  0
 46 54  1  0  0  0  0
 46142  1  6  0  0  0
 47 48  1  0  0  0  0
 47143  1  0  0  0  0
 47144  1  0  0  0  0
 48 53  1  0  0  0  0
 49 48  2  0  0  0  0
 49145  1  0  0  0  0
 50 49  1  0  0  0  0
 50146  1  0  0  0  0
 51 50  2  0  0  0  0
 51147  1  0  0  0  0
 52 51  1  0  0  0  0
 52148  1  0  0  0  0
 53 52  2  0  0  0  0
 53149  1  0  0  0  0
 54150  1  0  0  0  0
 55 54  1  0  0  0  0
 55 81  2  0  0  0  0
 56 55  1  0  0  0  0
 56151  1  0  0  0  0
 56152  1  0  0  0  0
 57 56  1  0  0  0  0
 57 58  1  0  0  0  0
 57 80  1  0  0  0  0
 58 59  1  0  0  0  0
 58153  1  0  0  0  0
 58154  1  0  0  0  0
 59 60  1  0  0  0  0
 59155  1  0  0  0  0
 59156  1  0  0  0  0
 60 61  1  0  0  0  0
 60 65  1  0  0  0  0
 61 62  1  0  0  0  0
 61157  1  0  0  0  0
 61158  1  0  0  0  0
 62 63  2  0  0  0  0
 62 64  1  0  0  0  0
 64159  1  0  0  0  0
 65 66  1  0  0  0  0
 65160  1  0  0  0  0
 65161  1  0  0  0  0
 66 67  1  0  0  0  0
 66162  1  0  0  0  0
 66163  1  0  0  0  0
 67 68  1  0  0  0  0
 67 72  1  0  0  0  0
 68 69  1  0  0  0  0
 68164  1  0  0  0  0
 68165  1  0  0  0  0
 69 70  2  0  0  0  0
 69 71  1  0  0  0  0
 72 73  1  0  0  0  0
 72166  1  0  0  0  0
 72167  1  0  0  0  0
 73 74  1  0  0  0  0
 73168  1  0  0  0  0
 73169  1  0  0  0  0
 74 75  1  0  0  0  0
 74 79  1  0  0  0  0
 75 76  1  0  0  0  0
 75170  1  0  0  0  0
 75171  1  0  0  0  0
 76 77  2  0  0  0  0
 76 78  1  0  0  0  0
 79 80  1  0  0  0  0
 79172  1  0  0  0  0
 79173  1  0  0  0  0
 80174  1  0  0  0  0
 80175  1  0  0  0  0
 82 83  2  0  0  0  0
 84 82  1  0  0  0  0
 84 85  1  0  0  0  0
 84176  1  0  0  0  0
 85 86  1  0  0  0  0
 85 94  1  0  0  0  0
 85177  1  6  0  0  0
 86 87  1  0  0  0  0
 86178  1  0  0  0  0
 86179  1  0  0  0  0
 87 92  1  0  0  0  0
 88 87  2  0  0  0  0
 88180  1  0  0  0  0
 89 88  1  0  0  0  0
 89181  1  0  0  0  0
 90 89  2  0  0  0  0
 90 93  1  0  0  0  0
 91 90  1  0  0  0  0
 91182  1  0  0  0  0
 92 91  2  0  0  0  0
 92183  1  0  0  0  0
 93184  1  0  0  0  0
 94 95  2  0  0  0  0
 96 94  1  0  0  0  0
 96  7  1  0  0  0  0
 96185  1  0  0  0  0
 97  3  1  0  0  0  0
 97186  1  0  0  0  0
 98 97  2  0  0  0  0
 98187  1  0  0  0  0
 99 98  1  0  0  0  0
 99188  1  0  0  0  0
100 99  2  0  0  0  0
100189  1  0  0  0  0
M  ISO  1 101  64
M  CHG  3  71  -1  78  -1 101   2
M  END
>  <DRUGBANK_ID>
DB15873

>  <COMMON_NAME>
Copper oxodotreotide Cu-64

>  <CAS_NUMBER>
1426155-87-4

>  <UNII>
N3858377KC

>  <SYNONYMS>
64Cu-dotatate; Copper 64-DOTA-tate; Copper Cu-64 dotatate; Copper dotatate Cu-64; Copper oxodotreotide Cu-64

$$$$
