
 OpenBabel10282417133D

 22 21  0  0  0  0  0  0  0  0999 V2000
    0.9960    0.1190   -0.1675 C   0  0  0  0  0  0  0  0  0  0  0  0
    0.4846   -0.2447    1.2557 C   0  0  0  0  0  0  0  0  0  0  0  0
    0.6265    1.4947   -0.6951 C   0  0  0  0  0  0  0  0  0  0  0  0
    0.5173   -0.9196   -1.1522 C   0  0  0  0  0  0  0  0  0  0  0  0
    0.5995    2.1070    2.4994 C   0  0  0  0  0  0  0  0  0  0  0  0
    0.9885    0.6047    2.4539 C   0  0  1  0  0  0  0  0  0  0  0  0
   -0.4164    1.6000   -1.5420 O   0  0  0  0  0  0  0  0  0  0  0  0
    1.4668   -1.5528   -1.8643 O   0  0  0  0  0  0  0  0  0  0  0  0
   -0.4710    2.4095    3.2753 O   0  0  0  0  0  0  0  0  0  0  0  0
    0.5435   -0.0414    3.7163 N   0  0  0  0  0  0  0  0  0  0  0  0
    1.3003    2.4793   -0.4446 O   0  0  0  0  0  0  0  0  0  0  0  0
   -0.6743   -1.0821   -1.3942 O   0  0  0  0  0  0  0  0  0  0  0  0
    1.2438    2.9907    1.9857 O   0  0  0  0  0  0  0  0  0  0  0  0
    2.0926    0.0811   -0.1474 H   0  0  0  0  0  0  0  0  0  0  0  0
   -0.6105   -0.3125    1.2667 H   0  0  0  0  0  0  0  0  0  0  0  0
    0.8270   -1.2818    1.4409 H   0  0  0  0  0  0  0  0  0  0  0  0
    2.0843    0.5674    2.4659 H   0  0  0  0  0  0  0  0  0  0  0  0
   -0.7959    0.7728   -1.9134 H   0  0  0  0  0  0  0  0  0  0  0  0
    2.3970   -1.3061   -1.6969 H   0  0  0  0  0  0  0  0  0  0  0  0
   -0.6146    1.7747    3.9943 H   0  0  0  0  0  0  0  0  0  0  0  0
    0.9039    0.4813    4.5166 H   0  0  0  0  0  0  0  0  0  0  0  0
   -0.4708   -0.1135    3.7619 H   0  0  0  0  0  0  0  0  0  0  0  0
  1 14  1  0  0  0  0
  2  1  1  0  0  0  0
  2 15  1  0  0  0  0
  2 16  1  0  0  0  0
  3  1  1  0  0  0  0
  4  1  1  0  0  0  0
  6  2  1  0  0  0  0
  6  5  1  0  0  0  0
  6 10  1  0  0  0  0
  6 17  1  6  0  0  0
  7  3  1  0  0  0  0
  7 18  1  0  0  0  0
  8  4  1  0  0  0  0
  8 19  1  0  0  0  0
  9  5  1  0  0  0  0
  9 20  1  0  0  0  0
 10 21  1  0  0  0  0
 10 22  1  0  0  0  0
 11  3  2  0  0  0  0
 12  4  2  0  0  0  0
 13  5  2  0  0  0  0
M  END
>  <DRUGBANK_ID>
DB03847

>  <SECONDARY_ACCESSION_NUMBERS>
EXPT00902

>  <COMMON_NAME>
gamma-carboxy-L-glutamic acid

>  <CAS_NUMBER>
53861-57-7

>  <UNII>
16FQV4RZKL

>  <SYNONYMS>
(3S)-3-amino-1,1,3-propanetricarboxylic acid; gamma-carboxy-glutamic acid; gamma-Carboxyglutamic acid; Î³-carboxy-L-glutamic acid

$$$$
