
 OpenBabel10282417133D

 36 36  0  0  1  0  0  0  0  0999 V2000
    1.0582    0.0868    0.0005 C   0  0  0  0  0  0  0  0  0  0  0  0
    0.5999    0.8492   -1.2367 C   0  0  0  0  0  0  0  0  0  0  0  0
    3.8551   -4.2087   -3.1911 C   0  0  0  0  0  0  0  0  0  0  0  0
    0.5299   -1.3577    0.0456 C   0  0  1  0  0  0  0  0  0  0  0  0
    2.9185   -2.9867   -3.1714 C   0  0  2  0  0  0  0  0  0  0  0  0
    0.8893    0.0594   -2.4747 C   0  0  0  0  0  0  0  0  0  0  0  0
    1.8014   -3.0075   -4.2230 C   0  0  2  0  0  0  0  0  0  0  0  0
    1.0224   -2.0700    1.3052 C   0  0  0  0  0  0  0  0  0  0  0  0
    2.7128   -0.7858   -3.8785 C   0  0  2  0  0  0  0  0  0  0  0  0
    1.7982   -1.5968   -4.8288 C   0  0  1  0  0  0  0  0  0  0  0  0
    2.4709   -1.6962   -6.0227 F   0  0  0  0  0  0  0  0  0  0  0  0
   -0.9457   -1.3551   -0.0046 N   0  0  0  0  0  0  0  0  0  0  0  0
    4.1504   -4.6571   -4.5112 O   0  0  0  0  0  0  0  0  0  0  0  0
   -0.0227   -0.4935   -3.0800 O   0  0  0  0  0  0  0  0  0  0  0  0
    0.5665   -3.4332   -3.6485 O   0  0  0  0  0  0  0  0  0  0  0  0
    0.3253   -2.5728    2.1728 O   0  0  0  0  0  0  0  0  0  0  0  0
    2.3673   -2.1392    1.3750 O   0  0  0  0  0  0  0  0  0  0  0  0
    0.5535   -1.0924   -5.2495 O   0  0  0  0  0  0  0  0  0  0  0  0
    3.6653   -1.7717   -3.3843 O   0  0  0  0  0  0  0  0  0  0  0  0
    2.2050   -0.0430   -2.7416 O   0  0  0  0  0  0  0  0  0  0  0  0
    0.8898   -1.9407   -0.8091 H   0  0  0  0  0  0  0  0  0  0  0  0
    2.5147   -2.9111   -2.1533 H   0  0  0  0  0  0  0  0  0  0  0  0
    2.0143   -3.6991   -5.0395 H   0  0  0  0  0  0  0  0  0  0  0  0
    3.3083   -0.0739   -4.4608 H   0  0  0  0  0  0  0  0  0  0  0  0
    0.7248    0.6313    0.8929 H   0  0  0  0  0  0  0  0  0  0  0  0
    2.1550    0.0813    0.0313 H   0  0  0  0  0  0  0  0  0  0  0  0
   -0.4893    0.9801   -1.2048 H   0  0  0  0  0  0  0  0  0  0  0  0
    1.0216    1.8570   -1.3021 H   0  0  0  0  0  0  0  0  0  0  0  0
    4.8082   -3.9357   -2.7290 H   0  0  0  0  0  0  0  0  0  0  0  0
    3.4465   -5.0577   -2.6274 H   0  0  0  0  0  0  0  0  0  0  0  0
   -1.2814   -2.3188    0.0381 H   0  0  0  0  0  0  0  0  0  0  0  0
   -1.3093   -0.9097    0.8382 H   0  0  0  0  0  0  0  0  0  0  0  0
    3.5091   -5.3438   -4.7646 H   0  0  0  0  0  0  0  0  0  0  0  0
    0.5861   -4.4079   -3.6398 H   0  0  0  0  0  0  0  0  0  0  0  0
    2.5529   -2.5940    2.2234 H   0  0  0  0  0  0  0  0  0  0  0  0
   -0.1161   -1.5325   -4.6849 H   0  0  0  0  0  0  0  0  0  0  0  0
  1 25  1  0  0  0  0
  1 26  1  0  0  0  0
  2  1  1  0  0  0  0
  2 27  1  0  0  0  0
  2 28  1  0  0  0  0
  3 29  1  0  0  0  0
  3 30  1  0  0  0  0
  4  1  1  0  0  0  0
  4 12  1  0  0  0  0
  4 21  1  6  0  0  0
  5 22  1  1  0  0  0
  5  3  1  0  0  0  0
  6  2  1  0  0  0  0
  7  5  1  0  0  0  0
  7 23  1  6  0  0  0
  7 15  1  0  0  0  0
  8  4  1  0  0  0  0
  9 20  1  0  0  0  0
  9 24  1  6  0  0  0
 10  7  1  0  0  0  0
 10  9  1  0  0  0  0
 10 11  1  6  0  0  0
 10 18  1  0  0  0  0
 12 31  1  0  0  0  0
 12 32  1  0  0  0  0
 13  3  1  0  0  0  0
 13 33  1  0  0  0  0
 14  6  2  0  0  0  0
 15 34  1  0  0  0  0
 16  8  2  0  0  0  0
 17  8  1  0  0  0  0
 17 35  1  0  0  0  0
 18 36  1  0  0  0  0
 19  5  1  0  0  0  0
 19  9  1  0  0  0  0
 20  6  1  0  0  0  0
M  END
>  <DRUGBANK_ID>
DB03371

>  <SECONDARY_ACCESSION_NUMBERS>
EXPT00553

>  <COMMON_NAME>
Modified Ribosylated Glutamyl Ester

$$$$
