
 OpenBabel10282417133D

 19 18  0  0  1  0  0  0  0  0999 V2000
    0.9646   -0.1230   -0.1398 C   0  0  0  0  0  0  0  0  0  0  0  0
    0.5746    0.3769    1.2524 C   0  0  0  0  0  0  0  0  0  0  0  0
    1.1224    1.7811    1.5780 C   0  0  1  0  0  0  0  0  0  0  0  0
    0.5961    2.8017    0.5528 C   0  0  0  0  0  0  0  0  0  0  0  0
    0.6015    2.1707    2.9151 N   0  0  0  0  0  0  0  0  0  0  0  0
    2.6804    1.8829    1.6392 C   0  0  0  0  0  0  0  0  0  0  0  0
    3.3919    0.7404    1.5352 O   0  0  0  0  0  0  0  0  0  0  0  0
    3.2613    2.9549    1.8029 O   0  0  0  0  0  0  0  0  0  0  0  0
    0.5319    0.5044   -0.9226 H   0  0  0  0  0  0  0  0  0  0  0  0
    0.6049   -1.1434   -0.2899 H   0  0  0  0  0  0  0  0  0  0  0  0
    2.0449   -0.1306   -0.3031 H   0  0  0  0  0  0  0  0  0  0  0  0
   -0.5233    0.3830    1.3095 H   0  0  0  0  0  0  0  0  0  0  0  0
    0.9058   -0.3448    2.0113 H   0  0  0  0  0  0  0  0  0  0  0  0
   -0.5006    2.7995    0.5156 H   0  0  0  0  0  0  0  0  0  0  0  0
    0.9209    3.8220    0.7838 H   0  0  0  0  0  0  0  0  0  0  0  0
    0.9652    2.5837   -0.4544 H   0  0  0  0  0  0  0  0  0  0  0  0
    0.9463    3.1153    3.1220 H   0  0  0  0  0  0  0  0  0  0  0  0
   -0.4142    2.2587    2.8860 H   0  0  0  0  0  0  0  0  0  0  0  0
    2.8911   -0.0931    1.5028 H   0  0  0  0  0  0  0  0  0  0  0  0
  1  2  1  0  0  0  0
  1  9  1  0  0  0  0
  1 10  1  0  0  0  0
  1 11  1  0  0  0  0
  2  3  1  0  0  0  0
  2 12  1  0  0  0  0
  2 13  1  0  0  0  0
  3  4  1  0  0  0  0
  3  5  1  0  0  0  0
  3  6  1  1  0  0  0
  4 14  1  0  0  0  0
  4 15  1  0  0  0  0
  4 16  1  0  0  0  0
  5 17  1  0  0  0  0
  5 18  1  0  0  0  0
  6  7  1  0  0  0  0
  6  8  2  0  0  0  0
  7 19  1  0  0  0  0
M  END
>  <DRUGBANK_ID>
DB04171

>  <SECONDARY_ACCESSION_NUMBERS>
EXPT01211

>  <COMMON_NAME>
D-Isovaline

>  <UNII>
IF7U5GXQ28

$$$$
