
 OpenBabel10282417243D

 87 93  0  0  1  0  0  0  0  0999 V2000
    2.4486    0.4367   -0.0072 C   0  0  0  0  0  0  0  0  0  0  0  0
    0.9796    0.2156    0.0360 C   0  0  0  0  0  0  0  0  0  0  0  0
    0.1883    1.3644   -0.0382 C   0  0  0  0  0  0  0  0  0  0  0  0
   -1.2010    1.3144   -0.0340 C   0  0  0  0  0  0  0  0  0  0  0  0
   -1.8010    0.0517   -0.0256 C   0  0  0  0  0  0  0  0  0  0  0  0
   -1.0299   -1.1154    0.0134 C   0  0  0  0  0  0  0  0  0  0  0  0
    0.3686   -1.0352    0.0713 C   0  0  0  0  0  0  0  0  0  0  0  0
    1.0183   -2.2240    0.0444 O   0  0  0  0  0  0  0  0  0  0  0  0
    2.2839   -2.4214    0.6894 C   0  0  0  0  0  0  0  0  0  0  0  0
    3.6399   -2.0234    0.0159 C   0  0  2  0  0  0  0  0  0  0  0  0
    4.5617   -3.0809    0.7116 C   0  0  0  0  0  0  0  0  0  0  0  0
    5.5070   -3.6281   -0.2324 O   0  0  0  0  0  0  0  0  0  0  0  0
    4.8873   -3.3282   -1.4982 C   0  0  2  0  0  0  0  0  0  0  0  0
    5.8450   -3.4846   -2.6652 C   0  0  0  0  0  0  0  0  0  0  0  0
    5.1181   -3.2452   -3.8960 N   0  0  0  0  0  0  0  0  0  0  0  0
    4.3783   -4.1510   -4.5960 C   0  0  0  0  0  0  0  0  0  0  0  0
    3.6570   -3.5263   -5.4957 N   0  0  0  0  0  0  0  0  0  0  0  0
    3.9852   -2.2171   -5.2964 C   0  0  0  0  0  0  0  0  0  0  0  0
    4.8592   -1.9916   -4.3127 N   0  0  0  0  0  0  0  0  0  0  0  0
    4.6339   -1.8514   -1.1338 C   0  0  0  0  0  0  0  0  0  0  0  0
    3.6704   -4.3303   -1.6309 C   0  0  0  0  0  0  0  0  0  0  0  0
    2.3310   -3.9424   -1.8819 C   0  0  0  0  0  0  0  0  0  0  0  0
    1.2533   -4.7902   -1.6093 C   0  0  0  0  0  0  0  0  0  0  0  0
    1.4974   -6.1198   -1.3537 C   0  0  0  0  0  0  0  0  0  0  0  0
    0.4645   -6.9587   -1.2123 F   0  0  0  0  0  0  0  0  0  0  0  0
    2.8008   -6.5887   -1.2813 C   0  0  0  0  0  0  0  0  0  0  0  0
    3.8685   -5.6927   -1.3680 C   0  0  0  0  0  0  0  0  0  0  0  0
    5.1105   -6.1642   -1.1929 F   0  0  0  0  0  0  0  0  0  0  0  0
   -1.9195    2.4763    0.0846 N   0  0  0  0  0  0  0  0  0  0  0  0
   -1.8397    3.6024   -0.8590 C   0  0  0  0  0  0  0  0  0  0  0  0
   -1.8276    4.9483   -0.0868 C   0  0  0  0  0  0  0  0  0  0  0  0
   -2.8804    5.0067    0.9509 N   0  0  0  0  0  0  0  0  0  0  0  0
   -2.9440    3.8557    1.8519 C   0  0  0  0  0  0  0  0  0  0  0  0
   -3.0294    2.5420    1.0383 C   0  0  0  0  0  0  0  0  0  0  0  0
   -3.8134    6.0093    0.9932 C   0  0  0  0  0  0  0  0  0  0  0  0
   -4.5038    6.3491   -0.1515 C   0  0  0  0  0  0  0  0  0  0  0  0
   -5.3079    7.4797   -0.1739 C   0  0  0  0  0  0  0  0  0  0  0  0
   -5.7075    8.1578    0.9708 C   0  0  0  0  0  0  0  0  0  0  0  0
   -5.0159    7.8353    2.1409 C   0  0  0  0  0  0  0  0  0  0  0  0
   -4.0622    6.7858    2.1366 C   0  0  0  0  0  0  0  0  0  0  0  0
   -6.7941    9.2195    0.9629 C   0  0  0  0  0  0  0  0  0  0  0  0
   -6.9263    9.9405    1.9287 O   0  0  0  0  0  0  0  0  0  0  0  0
   -7.6166    9.4400   -0.1564 N   0  0  0  0  0  0  0  0  0  0  0  0
   -7.7761    8.6836   -1.3297 C   0  0  0  0  0  0  0  0  0  0  0  0
   -7.8883    7.2857   -1.2790 C   0  0  0  0  0  0  0  0  0  0  0  0
   -7.6829    6.5249   -2.4319 C   0  0  0  0  0  0  0  0  0  0  0  0
   -7.5356    7.1659   -3.6536 C   0  0  0  0  0  0  0  0  0  0  0  0
   -7.3011    6.4392   -4.7537 F   0  0  0  0  0  0  0  0  0  0  0  0
   -7.5834    8.5544   -3.7409 C   0  0  0  0  0  0  0  0  0  0  0  0
   -7.6638    9.3220   -2.5717 C   0  0  0  0  0  0  0  0  0  0  0  0
    2.9224   -0.0187    0.8641 H   0  0  0  0  0  0  0  0  0  0  0  0
    2.8042    0.0619   -0.9677 H   0  0  0  0  0  0  0  0  0  0  0  0
    2.7475    1.4815    0.0338 H   0  0  0  0  0  0  0  0  0  0  0  0
    0.6902    2.3269   -0.0333 H   0  0  0  0  0  0  0  0  0  0  0  0
   -2.8850   -0.0314   -0.0473 H   0  0  0  0  0  0  0  0  0  0  0  0
   -1.5375   -2.0798    0.0126 H   0  0  0  0  0  0  0  0  0  0  0  0
    2.2918   -1.9926    1.6888 H   0  0  0  0  0  0  0  0  0  0  0  0
    2.2598   -3.5079    0.8110 H   0  0  0  0  0  0  0  0  0  0  0  0
    3.0198   -2.0046   -0.8861 H   0  0  0  0  0  0  0  0  0  0  0  0
    4.0580   -3.9592    1.1179 H   0  0  0  0  0  0  0  0  0  0  0  0
    5.0858   -2.5898    1.5338 H   0  0  0  0  0  0  0  0  0  0  0  0
    6.6916   -2.7889   -2.6147 H   0  0  0  0  0  0  0  0  0  0  0  0
    6.2633   -4.4960   -2.7005 H   0  0  0  0  0  0  0  0  0  0  0  0
    4.3565   -5.2080   -4.3668 H   0  0  0  0  0  0  0  0  0  0  0  0
    3.5723   -1.4053   -5.8801 H   0  0  0  0  0  0  0  0  0  0  0  0
    4.4266   -1.1770   -1.9745 H   0  0  0  0  0  0  0  0  0  0  0  0
    5.4889   -1.3291   -0.6488 H   0  0  0  0  0  0  0  0  0  0  0  0
    2.0388   -2.9307   -2.1595 H   0  0  0  0  0  0  0  0  0  0  0  0
    0.2414   -4.3898   -1.5663 H   0  0  0  0  0  0  0  0  0  0  0  0
    2.9844   -7.6437   -1.1319 H   0  0  0  0  0  0  0  0  0  0  0  0
   -0.9651    3.5457   -1.5194 H   0  0  0  0  0  0  0  0  0  0  0  0
   -2.7285    3.5666   -1.5021 H   0  0  0  0  0  0  0  0  0  0  0  0
   -0.8658    5.0409    0.4318 H   0  0  0  0  0  0  0  0  0  0  0  0
   -1.8867    5.7887   -0.7897 H   0  0  0  0  0  0  0  0  0  0  0  0
   -2.0268    3.8551    2.4524 H   0  0  0  0  0  0  0  0  0  0  0  0
   -3.7987    3.9071    2.5330 H   0  0  0  0  0  0  0  0  0  0  0  0
   -3.9663    2.4923    0.4731 H   0  0  0  0  0  0  0  0  0  0  0  0
   -3.0049    1.7036    1.7429 H   0  0  0  0  0  0  0  0  0  0  0  0
   -4.4179    5.7578   -1.0586 H   0  0  0  0  0  0  0  0  0  0  0  0
   -5.6105    7.7945   -1.1568 H   0  0  0  0  0  0  0  0  0  0  0  0
   -5.1675    8.4170    3.0490 H   0  0  0  0  0  0  0  0  0  0  0  0
   -3.4737    6.6083    3.0335 H   0  0  0  0  0  0  0  0  0  0  0  0
   -8.0824   10.3415   -0.1196 H   0  0  0  0  0  0  0  0  0  0  0  0
   -7.9641    6.7788   -0.3192 H   0  0  0  0  0  0  0  0  0  0  0  0
   -7.5674    5.4473   -2.3646 H   0  0  0  0  0  0  0  0  0  0  0  0
   -7.5006    9.0262   -4.7155 H   0  0  0  0  0  0  0  0  0  0  0  0
   -7.5168   10.3980   -2.6411 H   0  0  0  0  0  0  0  0  0  0  0  0
  1  2  1  0  0  0  0
  1 51  1  0  0  0  0
  1 52  1  0  0  0  0
  1 53  1  0  0  0  0
  2  3  2  0  0  0  0
  2  7  1  0  0  0  0
  3  4  1  0  0  0  0
  3 54  1  0  0  0  0
  4  5  2  0  0  0  0
  4 29  1  0  0  0  0
  5  6  1  0  0  0  0
  5 55  1  0  0  0  0
  6  7  2  0  0  0  0
  6 56  1  0  0  0  0
  7  8  1  0  0  0  0
  8  9  1  0  0  0  0
  9 57  1  0  0  0  0
  9 58  1  0  0  0  0
 10  9  1  0  0  0  0
 10 11  1  0  0  0  0
 10 20  1  0  0  0  0
 10 59  1  6  0  0  0
 11 12  1  0  0  0  0
 11 60  1  0  0  0  0
 11 61  1  0  0  0  0
 13 12  1  0  0  0  0
 13 14  1  6  0  0  0
 13 20  1  0  0  0  0
 13 21  1  0  0  0  0
 14 15  1  0  0  0  0
 14 62  1  0  0  0  0
 14 63  1  0  0  0  0
 15 16  1  0  0  0  0
 15 19  1  0  0  0  0
 16 17  2  0  0  0  0
 16 64  1  0  0  0  0
 17 18  1  0  0  0  0
 18 19  2  0  0  0  0
 18 65  1  0  0  0  0
 20 66  1  0  0  0  0
 20 67  1  0  0  0  0
 21 22  2  0  0  0  0
 21 27  1  0  0  0  0
 22 23  1  0  0  0  0
 22 68  1  0  0  0  0
 23 24  2  0  0  0  0
 23 69  1  0  0  0  0
 24 25  1  0  0  0  0
 24 26  1  0  0  0  0
 26 27  2  0  0  0  0
 26 70  1  0  0  0  0
 27 28  1  0  0  0  0
 29 30  1  0  0  0  0
 29 34  1  0  0  0  0
 30 31  1  0  0  0  0
 30 71  1  0  0  0  0
 30 72  1  0  0  0  0
 31 32  1  0  0  0  0
 31 73  1  0  0  0  0
 31 74  1  0  0  0  0
 32 33  1  0  0  0  0
 32 35  1  0  0  0  0
 33 34  1  0  0  0  0
 33 75  1  0  0  0  0
 33 76  1  0  0  0  0
 34 77  1  0  0  0  0
 34 78  1  0  0  0  0
 35 36  2  0  0  0  0
 35 40  1  0  0  0  0
 36 37  1  0  0  0  0
 36 79  1  0  0  0  0
 37 38  2  0  0  0  0
 37 80  1  0  0  0  0
 38 39  1  0  0  0  0
 38 41  1  0  0  0  0
 39 40  2  0  0  0  0
 39 81  1  0  0  0  0
 40 82  1  0  0  0  0
 41 42  2  0  0  0  0
 41 43  1  0  0  0  0
 43 44  1  0  0  0  0
 43 83  1  0  0  0  0
 44 45  2  0  0  0  0
 44 50  1  0  0  0  0
 45 46  1  0  0  0  0
 45 84  1  0  0  0  0
 46 47  2  0  0  0  0
 46 85  1  0  0  0  0
 47 48  1  0  0  0  0
 47 49  1  0  0  0  0
 49 50  2  0  0  0  0
 49 86  1  0  0  0  0
 50 87  1  0  0  0  0
M  END
>  <DRUGBANK_ID>
DB18251

>  <COMMON_NAME>
Opelconazole

>  <CAS_NUMBER>
1931946-73-4

>  <UNII>
45LU8Q6ASU

>  <SYNONYMS>
D-threo-pentitol, 2,5-anhydro-1,3,4-trideoxy-2-c-(2,4-difluorophenyl)-4-((4-(4-(4-(((4-fluorophenyl)amino)carbonyl)phenyl)-1-piperazinyl)-2-methylphenoxy)methyl)-1-(1h-1,2,4-triazol-1-yl)-; Opelconazole(inn)

$$$$
