1622
 OpenBabel10282417123D

 60 63  0  0  0  0  0  0  0  0999 V2000
    0.0608    1.7796    0.4654 S   0  0  0  0  0  0  0  0  0  0  0  0
    4.8170   -2.2306   -0.8086 S   0  0  0  0  0  0  0  0  0  0  0  0
    5.2223   -2.7641    0.4691 O   0  0  0  0  0  0  0  0  0  0  0  0
    4.3706   -3.1105   -1.8781 O   0  0  0  0  0  0  0  0  0  0  0  0
   -2.8508   -2.4019    2.2279 N   0  0  0  0  0  0  0  0  0  0  0  0
   -4.5333   -4.6014    1.2115 N   0  0  0  0  0  0  0  0  0  0  0  0
    0.0382   -1.2432    0.7559 N   0  0  0  0  0  0  0  0  0  0  0  0
    6.1464   -1.3153   -1.4065 N   0  0  0  0  0  0  0  0  0  0  0  0
   -2.7379   -3.7408    2.7896 C   0  0  0  0  0  0  0  0  0  0  0  0
   -4.2124   -2.1323    1.7654 C   0  0  0  0  0  0  0  0  0  0  0  0
   -2.2233   -1.3218    2.9710 C   0  0  0  0  0  0  0  0  0  0  0  0
   -3.1689   -4.7973    1.7472 C   0  0  0  0  0  0  0  0  0  0  0  0
   -4.6635   -3.2180    0.7313 C   0  0  0  0  0  0  0  0  0  0  0  0
   -0.7238   -1.5825    3.1617 C   0  0  0  0  0  0  0  0  0  0  0  0
   -0.0041   -2.1548    1.9166 C   0  0  0  0  0  0  0  0  0  0  0  0
   -5.5399   -4.8145    2.2356 C   0  0  0  0  0  0  0  0  0  0  0  0
    1.2897   -0.7277    0.3957 C   0  0  0  0  0  0  0  0  0  0  0  0
   -1.1163   -0.7078    0.1588 C   0  0  0  0  0  0  0  0  0  0  0  0
    1.4091    0.6508    0.1243 C   0  0  0  0  0  0  0  0  0  0  0  0
   -1.2743    0.6857    0.0062 C   0  0  0  0  0  0  0  0  0  0  0  0
    2.3535   -1.5918    0.1119 C   0  0  0  0  0  0  0  0  0  0  0  0
    3.4976   -1.0874   -0.5018 C   0  0  0  0  0  0  0  0  0  0  0  0
   -2.1082   -1.5152   -0.3840 C   0  0  0  0  0  0  0  0  0  0  0  0
    2.5496    1.1426   -0.4859 C   0  0  0  0  0  0  0  0  0  0  0  0
    3.5673    0.2645   -0.8450 C   0  0  0  0  0  0  0  0  0  0  0  0
   -2.4614    1.2388   -0.4949 C   0  0  0  0  0  0  0  0  0  0  0  0
   -3.2858   -0.9533   -0.9125 C   0  0  0  0  0  0  0  0  0  0  0  0
   -3.4947    0.4137   -0.9016 C   0  0  0  0  0  0  0  0  0  0  0  0
    6.6861   -0.2987   -0.4684 C   0  0  0  0  0  0  0  0  0  0  0  0
    7.2610   -2.2163   -1.8219 C   0  0  0  0  0  0  0  0  0  0  0  0
   -1.7130   -3.9850    3.0813 H   0  0  0  0  0  0  0  0  0  0  0  0
   -3.3431   -3.8023    3.6960 H   0  0  0  0  0  0  0  0  0  0  0  0
   -4.8941   -2.1030    2.6178 H   0  0  0  0  0  0  0  0  0  0  0  0
   -4.2948   -1.1336    1.3278 H   0  0  0  0  0  0  0  0  0  0  0  0
   -2.3236   -0.3686    2.4378 H   0  0  0  0  0  0  0  0  0  0  0  0
   -2.7226   -1.1655    3.9320 H   0  0  0  0  0  0  0  0  0  0  0  0
   -2.4514   -4.7925    0.9094 H   0  0  0  0  0  0  0  0  0  0  0  0
   -3.0834   -5.7927    2.1933 H   0  0  0  0  0  0  0  0  0  0  0  0
   -4.0721   -3.2272   -0.1850 H   0  0  0  0  0  0  0  0  0  0  0  0
   -5.6827   -2.9954    0.3930 H   0  0  0  0  0  0  0  0  0  0  0  0
   -0.6084   -2.2931    3.9935 H   0  0  0  0  0  0  0  0  0  0  0  0
   -0.2277   -0.6624    3.4953 H   0  0  0  0  0  0  0  0  0  0  0  0
   -0.4088   -3.1216    1.6040 H   0  0  0  0  0  0  0  0  0  0  0  0
    1.0123   -2.3992    2.2634 H   0  0  0  0  0  0  0  0  0  0  0  0
   -5.4548   -4.1094    3.0664 H   0  0  0  0  0  0  0  0  0  0  0  0
   -6.5325   -4.6894    1.7933 H   0  0  0  0  0  0  0  0  0  0  0  0
   -5.4611   -5.8262    2.6312 H   0  0  0  0  0  0  0  0  0  0  0  0
    2.2518   -2.6641    0.2768 H   0  0  0  0  0  0  0  0  0  0  0  0
   -2.0076   -2.5950   -0.2910 H   0  0  0  0  0  0  0  0  0  0  0  0
    2.6253    2.1980   -0.7259 H   0  0  0  0  0  0  0  0  0  0  0  0
    4.3991    0.6715   -1.4038 H   0  0  0  0  0  0  0  0  0  0  0  0
   -2.5859    2.3128   -0.5720 H   0  0  0  0  0  0  0  0  0  0  0  0
   -4.1179   -1.5760   -1.2257 H   0  0  0  0  0  0  0  0  0  0  0  0
   -4.4587    0.8124   -1.2026 H   0  0  0  0  0  0  0  0  0  0  0  0
    7.0692   -0.7673    0.4384 H   0  0  0  0  0  0  0  0  0  0  0  0
    7.4894    0.2549   -0.9654 H   0  0  0  0  0  0  0  0  0  0  0  0
    5.9534    0.4490   -0.1762 H   0  0  0  0  0  0  0  0  0  0  0  0
    7.6636   -2.7409   -0.9482 H   0  0  0  0  0  0  0  0  0  0  0  0
    6.9362   -2.9451   -2.5687 H   0  0  0  0  0  0  0  0  0  0  0  0
    8.0693   -1.6263   -2.2663 H   0  0  0  0  0  0  0  0  0  0  0  0
  1 19  1  0  0  0  0
  1 20  1  0  0  0  0
  2  3  2  0  0  0  0
  2  4  2  0  0  0  0
  2  8  1  0  0  0  0
  2 22  1  0  0  0  0
  5  9  1  0  0  0  0
  5 10  1  0  0  0  0
  5 11  1  0  0  0  0
  6 12  1  0  0  0  0
  6 13  1  0  0  0  0
  6 16  1  0  0  0  0
  7 15  1  0  0  0  0
  7 17  1  0  0  0  0
  7 18  1  0  0  0  0
  8 29  1  0  0  0  0
  8 30  1  0  0  0  0
  9 12  1  0  0  0  0
  9 31  1  0  0  0  0
  9 32  1  0  0  0  0
 10 13  1  0  0  0  0
 10 33  1  0  0  0  0
 10 34  1  0  0  0  0
 11 14  1  0  0  0  0
 11 35  1  0  0  0  0
 11 36  1  0  0  0  0
 12 37  1  0  0  0  0
 12 38  1  0  0  0  0
 13 39  1  0  0  0  0
 13 40  1  0  0  0  0
 14 15  1  0  0  0  0
 14 41  1  0  0  0  0
 14 42  1  0  0  0  0
 15 43  1  0  0  0  0
 15 44  1  0  0  0  0
 16 45  1  0  0  0  0
 16 46  1  0  0  0  0
 16 47  1  0  0  0  0
 17 19  2  0  0  0  0
 17 21  1  0  0  0  0
 18 20  1  0  0  0  0
 18 23  2  0  0  0  0
 19 24  1  0  0  0  0
 20 26  2  0  0  0  0
 21 22  2  0  0  0  0
 21 48  1  0  0  0  0
 22 25  1  0  0  0  0
 23 27  1  0  0  0  0
 23 49  1  0  0  0  0
 24 25  2  0  0  0  0
 24 50  1  0  0  0  0
 25 51  1  0  0  0  0
 26 28  1  0  0  0  0
 26 52  1  0  0  0  0
 27 28  2  0  0  0  0
 27 53  1  0  0  0  0
 28 54  1  0  0  0  0
 29 55  1  0  0  0  0
 29 56  1  0  0  0  0
 29 57  1  0  0  0  0
 30 58  1  0  0  0  0
 30 59  1  0  0  0  0
 30 60  1  0  0  0  0
M  END
>  <DRUGBANK_ID>
DB01622

>  <COMMON_NAME>
Thioproperazine

>  <CAS_NUMBER>
316-81-4

>  <UNII>
YJ050AQ56X

>  <SYNONYMS>
(Thioproperazine)-2-dimethylsulfamido-(10-(3-1-methylpiperazinyl-4)propyl)-phenothiazine; 2-dimethylsulfamido-(10-(3-1-methylpiperazinyl-4)propyl)-phenothiazine; N,N-Dimethyl-10-[3-(4-methyl-1-piperazinyl)propyl]-10H-phenothiazine-2-sulfonamide; N,N-Dimethyl-10-[3-(4-methyl-1-piperazinyl)propyl]phenothiazine-2-sulfonamide; Thioperazine; Thioproperazin; Thioproperazine; Thioproperazinum; Tioproferazina; Tioproperazina

$$$$
