1105
 OpenBabel10282417113D

 45 46  0  0  1  0  0  0  0  0999 V2000
   -2.3480    0.1867   -0.0508 Cl  0  0  0  0  0  0  0  0  0  0  0  0
    3.7796   -2.4036    0.8808 N   0  0  0  0  0  0  0  0  0  0  0  0
    3.8922    0.0200    0.0946 C   0  0  0  0  0  0  0  0  0  0  0  0
    4.6283    0.7573    1.3188 C   0  0  0  0  0  0  0  0  0  0  0  0
    4.6281    1.2003   -0.7486 C   0  0  0  0  0  0  0  0  0  0  0  0
    4.3000   -1.4903   -0.1888 C   0  0  3  0  0  0  0  0  0  0  0  0
    5.6702    1.3051    0.3519 C   0  0  0  0  0  0  0  0  0  0  0  0
    2.2122    0.0975    0.1149 C   0  0  0  0  0  0  0  0  0  0  0  0
    3.7420   -1.8999   -1.6277 C   0  0  0  0  0  0  0  0  0  0  0  0
    4.2955   -1.1003   -2.8043 C   0  0  0  0  0  0  0  0  0  0  0  0
    1.5137    1.3023    0.0603 C   0  0  0  0  0  0  0  0  0  0  0  0
    1.3803   -1.0620    0.1380 C   0  0  0  0  0  0  0  0  0  0  0  0
    3.8615   -3.8303    0.6240 C   0  0  0  0  0  0  0  0  0  0  0  0
    4.1477   -2.0918    2.2514 C   0  0  0  0  0  0  0  0  0  0  0  0
    5.8032   -1.2976   -2.8578 C   0  0  0  0  0  0  0  0  0  0  0  0
    3.6204   -1.4712   -4.1194 C   0  0  0  0  0  0  0  0  0  0  0  0
    0.1099    1.3366    0.0103 C   0  0  0  0  0  0  0  0  0  0  0  0
   -0.0018   -1.0549    0.0536 C   0  0  0  0  0  0  0  0  0  0  0  0
   -0.6349    0.1535    0.0050 C   0  0  0  0  0  0  0  0  0  0  0  0
    4.0184    1.5303    1.7992 H   0  0  0  0  0  0  0  0  0  0  0  0
    5.1323    0.1879    2.0982 H   0  0  0  0  0  0  0  0  0  0  0  0
    5.1388    1.0299   -1.6933 H   0  0  0  0  0  0  0  0  0  0  0  0
    4.0410    2.1157   -0.8774 H   0  0  0  0  0  0  0  0  0  0  0  0
    5.3881   -1.5924   -0.1801 H   0  0  0  0  0  0  0  0  0  0  0  0
    6.0472    2.3097    0.5576 H   0  0  0  0  0  0  0  0  0  0  0  0
    6.5273    0.6363    0.2038 H   0  0  0  0  0  0  0  0  0  0  0  0
    3.9353   -2.9574   -1.8310 H   0  0  0  0  0  0  0  0  0  0  0  0
    2.6570   -1.8026   -1.7049 H   0  0  0  0  0  0  0  0  0  0  0  0
    4.0172   -0.0554   -2.6902 H   0  0  0  0  0  0  0  0  0  0  0  0
    2.0596    2.2431    0.0481 H   0  0  0  0  0  0  0  0  0  0  0  0
    1.7833   -2.0632    0.1571 H   0  0  0  0  0  0  0  0  0  0  0  0
    4.8955   -4.1704    0.5514 H   0  0  0  0  0  0  0  0  0  0  0  0
    3.3548   -4.3866    1.4225 H   0  0  0  0  0  0  0  0  0  0  0  0
    3.3132   -4.1121   -0.2790 H   0  0  0  0  0  0  0  0  0  0  0  0
    5.2318   -2.1038    2.3922 H   0  0  0  0  0  0  0  0  0  0  0  0
    3.7276   -1.1330    2.5634 H   0  0  0  0  0  0  0  0  0  0  0  0
    3.6929   -2.7891    2.9630 H   0  0  0  0  0  0  0  0  0  0  0  0
    6.0369   -2.3581   -2.9958 H   0  0  0  0  0  0  0  0  0  0  0  0
    6.2543   -0.7175   -3.6626 H   0  0  0  0  0  0  0  0  0  0  0  0
    6.2881   -0.9813   -1.9292 H   0  0  0  0  0  0  0  0  0  0  0  0
    2.5481   -1.2422   -4.0727 H   0  0  0  0  0  0  0  0  0  0  0  0
    4.0429   -0.8737   -4.9342 H   0  0  0  0  0  0  0  0  0  0  0  0
    3.7391   -2.5308   -4.3511 H   0  0  0  0  0  0  0  0  0  0  0  0
   -0.3918    2.2921   -0.0325 H   0  0  0  0  0  0  0  0  0  0  0  0
   -0.5208   -2.0108    0.0190 H   0  0  0  0  0  0  0  0  0  0  0  0
  1 19  1  0  0  0  0
  2  6  1  0  0  0  0
  2 13  1  0  0  0  0
  2 14  1  0  0  0  0
  3  4  1  0  0  0  0
  3  5  1  0  0  0  0
  3  6  1  0  0  0  0
  3  8  1  0  0  0  0
  4  7  1  0  0  0  0
  4 20  1  0  0  0  0
  4 21  1  0  0  0  0
  5  7  1  0  0  0  0
  5 22  1  0  0  0  0
  5 23  1  0  0  0  0
  6  9  1  0  0  0  0
  6 24  1  0  0  0  0
  7 25  1  0  0  0  0
  7 26  1  0  0  0  0
  8 11  2  0  0  0  0
  8 12  1  0  0  0  0
  9 10  1  0  0  0  0
  9 27  1  0  0  0  0
  9 28  1  0  0  0  0
 10 15  1  0  0  0  0
 10 16  1  0  0  0  0
 10 29  1  0  0  0  0
 11 17  1  0  0  0  0
 11 30  1  0  0  0  0
 12 18  2  0  0  0  0
 12 31  1  0  0  0  0
 13 32  1  0  0  0  0
 13 33  1  0  0  0  0
 13 34  1  0  0  0  0
 14 35  1  0  0  0  0
 14 36  1  0  0  0  0
 14 37  1  0  0  0  0
 15 38  1  0  0  0  0
 15 39  1  0  0  0  0
 15 40  1  0  0  0  0
 16 41  1  0  0  0  0
 16 42  1  0  0  0  0
 16 43  1  0  0  0  0
 17 19  2  0  0  0  0
 17 44  1  0  0  0  0
 18 19  1  0  0  0  0
 18 45  1  0  0  0  0
M  END
>  <DRUGBANK_ID>
DB01105

>  <SECONDARY_ACCESSION_NUMBERS>
APRD00456

>  <COMMON_NAME>
Sibutramine

>  <CAS_NUMBER>
106650-56-0

>  <UNII>
WV5EC51866

>  <SYNONYMS>
Sibutramina; Sibutramine; Sibutraminum

$$$$
