
 OpenBabel10282417153D

 40 41  0  0  0  0  0  0  0  0999 V2000
    0.9601   -0.0583    0.0348 C   0  0  0  0  0  0  0  0  0  0  0  0
    0.4345   -0.8675   -1.1534 C   0  0  3  0  0  0  0  0  0  0  0  0
    0.9425   -2.3287   -0.9258 C   0  0  0  0  0  0  0  0  0  0  0  0
    0.4736   -2.9570    0.4017 C   0  0  0  0  0  0  0  0  0  0  0  0
    0.5937   -4.3196    0.6085 C   0  0  0  0  0  0  0  0  0  0  0  0
    0.3195   -4.8488    1.8750 C   0  0  0  0  0  0  0  0  0  0  0  0
    0.0328   -4.0191    2.9647 C   0  0  0  0  0  0  0  0  0  0  0  0
   -0.1303   -2.6724    2.7653 C   0  0  0  0  0  0  0  0  0  0  0  0
   -0.0969   -2.2238    1.4633 C   0  0  0  0  0  0  0  0  0  0  0  0
   -1.1121   -0.8751   -1.2777 C   0  0  0  0  0  0  0  0  0  0  0  0
   -1.8602   -2.0776   -1.2934 C   0  0  0  0  0  0  0  0  0  0  0  0
   -3.2371   -2.0956   -1.0997 C   0  0  0  0  0  0  0  0  0  0  0  0
   -3.9181   -0.8996   -0.9585 C   0  0  0  0  0  0  0  0  0  0  0  0
   -3.2209    0.3048   -1.0235 C   0  0  0  0  0  0  0  0  0  0  0  0
   -1.8383    0.3192   -1.2274 C   0  0  0  0  0  0  0  0  0  0  0  0
    1.0178   -0.2472   -2.3811 N   0  0  0  0  0  0  0  0  0  0  0  0
    1.7504    0.9059   -2.6022 C   0  0  0  0  0  0  0  0  0  0  0  0
    2.0347    1.1597   -3.7682 O   0  0  0  0  0  0  0  0  0  0  0  0
    2.2912    1.8498   -1.4765 C   0  0  0  0  0  0  0  0  0  0  0  0
    1.3005    2.7563   -0.8600 N   0  0  0  0  0  0  0  0  0  0  0  0
    0.8408   -0.2855    1.0810 H   0  0  0  0  0  0  0  0  0  0  0  0
    0.4598    0.8923    0.0186 H   0  0  0  0  0  0  0  0  0  0  0  0
    2.0459   -0.0944    0.0050 H   0  0  0  0  0  0  0  0  0  0  0  0
    0.6647   -2.9725   -1.7749 H   0  0  0  0  0  0  0  0  0  0  0  0
    2.0425   -2.3306   -0.9344 H   0  0  0  0  0  0  0  0  0  0  0  0
    0.8495   -4.9752   -0.2185 H   0  0  0  0  0  0  0  0  0  0  0  0
    0.3516   -5.9211    2.0222 H   0  0  0  0  0  0  0  0  0  0  0  0
   -0.1300   -4.4198    3.9571 H   0  0  0  0  0  0  0  0  0  0  0  0
   -0.3429   -1.9725    3.5692 H   0  0  0  0  0  0  0  0  0  0  0  0
   -0.5774   -1.2590    1.3306 H   0  0  0  0  0  0  0  0  0  0  0  0
   -1.3933   -3.0567   -1.3612 H   0  0  0  0  0  0  0  0  0  0  0  0
   -3.7519   -3.0496   -1.0154 H   0  0  0  0  0  0  0  0  0  0  0  0
   -4.9916   -0.9082   -0.8022 H   0  0  0  0  0  0  0  0  0  0  0  0
   -3.7517    1.2412   -0.8794 H   0  0  0  0  0  0  0  0  0  0  0  0
   -1.3356    1.2770   -1.2990 H   0  0  0  0  0  0  0  0  0  0  0  0
    0.7622   -0.6878   -3.2606 H   0  0  0  0  0  0  0  0  0  0  0  0
    2.8884    1.3024   -0.7445 H   0  0  0  0  0  0  0  0  0  0  0  0
    3.0325    2.5084   -1.9269 H   0  0  0  0  0  0  0  0  0  0  0  0
    1.2053    2.5717    0.1415 H   0  0  0  0  0  0  0  0  0  0  0  0
    0.3823    2.6409   -1.2819 H   0  0  0  0  0  0  0  0  0  0  0  0
  1  2  1  0  0  0  0
  1 21  1  0  0  0  0
  1 22  1  0  0  0  0
  1 23  1  0  0  0  0
  2  3  1  0  0  0  0
  2 10  1  0  0  0  0
  2 16  1  0  0  0  0
  3  4  1  0  0  0  0
  3 24  1  0  0  0  0
  3 25  1  0  0  0  0
  4  5  2  0  0  0  0
  4  9  1  0  0  0  0
  5  6  1  0  0  0  0
  5 26  1  0  0  0  0
  6  7  2  0  0  0  0
  6 27  1  0  0  0  0
  7  8  1  0  0  0  0
  7 28  1  0  0  0  0
  8  9  2  0  0  0  0
  8 29  1  0  0  0  0
  9 30  1  0  0  0  0
 10 11  2  0  0  0  0
 10 15  1  0  0  0  0
 11 12  1  0  0  0  0
 11 31  1  0  0  0  0
 12 13  2  0  0  0  0
 12 32  1  0  0  0  0
 13 14  1  0  0  0  0
 13 33  1  0  0  0  0
 14 15  2  0  0  0  0
 14 34  1  0  0  0  0
 15 35  1  0  0  0  0
 16 17  1  0  0  0  0
 16 36  1  0  0  0  0
 17 18  2  0  0  0  0
 17 19  1  0  0  0  0
 19 20  1  0  0  0  0
 19 37  1  0  0  0  0
 19 38  1  0  0  0  0
 20 39  1  0  0  0  0
 20 40  1  0  0  0  0
M  END
>  <DRUGBANK_ID>
DB06458

>  <COMMON_NAME>
Remacemide

>  <CAS_NUMBER>
128298-28-2

>  <UNII>
EH6763C1IC

>  <SYNONYMS>
Remacemide

$$$$
