AO5
 OpenBabel10282417163D

 45 45  0  0  0  0  0  0  0  0999 V2000
   -0.5598    5.5258   -1.1134 C   0  0  0  0  0  0  0  0  0  0  0  0
   -1.9952    5.0230   -0.9102 C   0  0  0  0  0  0  0  0  0  0  0  0
   -0.3125    6.0935   -2.5002 C   0  0  0  0  0  0  0  0  0  0  0  0
    0.8821    4.5364   -0.6008 S   0  0  0  0  0  0  0  0  0  0  0  0
    1.0636    3.3842   -1.9432 C   0  0  0  0  0  0  0  0  0  0  0  0
   -0.0547    2.4193   -1.8905 C   0  0  0  0  0  0  0  0  0  0  0  0
   -1.4299    2.5458   -2.4474 C   0  0  1  0  0  0  0  0  0  0  0  0
   -1.4936    3.2208   -3.7459 N   0  0  0  0  0  0  0  0  0  0  0  0
   -2.0470    1.1358   -2.4336 C   0  0  2  0  0  0  0  0  0  0  0  0
   -1.9610    0.5636   -1.1265 O   0  0  0  0  0  0  0  0  0  0  0  0
   -1.4184    0.2961   -3.5918 C   0  0  0  0  0  0  0  0  0  0  0  0
   -2.1772   -0.0698   -4.5056 O   0  0  0  0  0  0  0  0  0  0  0  0
   -0.0505    0.0057   -3.7496 N   0  0  0  0  0  0  0  0  0  0  0  0
    1.0983    0.0435   -2.7874 N   0  0  0  0  0  0  0  0  0  0  0  0
    2.3693    0.5651   -3.1150 C   0  0  0  0  0  0  0  0  0  0  0  0
    3.1150    1.1299   -2.3491 O   0  0  0  0  0  0  0  0  0  0  0  0
    2.9339    0.1751   -4.3894 C   0  0  0  0  0  0  0  0  0  0  0  0
    2.3285    0.4934   -5.5949 C   0  0  0  0  0  0  0  0  0  0  0  0
    2.8184   -0.1131   -6.7367 C   0  0  0  0  0  0  0  0  0  0  0  0
    3.9308   -0.9633   -6.6490 C   0  0  0  0  0  0  0  0  0  0  0  0
    4.5584   -1.2121   -5.4261 C   0  0  0  0  0  0  0  0  0  0  0  0
    4.0655   -0.6342   -4.2792 C   0  0  0  0  0  0  0  0  0  0  0  0
    5.9127   -2.2601   -5.3203 Cl  0  0  0  0  0  0  0  0  0  0  0  0
   -1.9534    3.0183   -1.6515 H   0  0  0  0  0  0  0  0  0  0  0  0
   -3.1267    1.2855   -2.6153 H   0  0  0  0  0  0  0  0  0  0  0  0
   -0.4773    6.3280   -0.3861 H   0  0  0  0  0  0  0  0  0  0  0  0
   -2.6891    5.8390   -0.7133 H   0  0  0  0  0  0  0  0  0  0  0  0
   -2.4609    4.6485   -1.8243 H   0  0  0  0  0  0  0  0  0  0  0  0
   -2.0808    4.2964   -0.0884 H   0  0  0  0  0  0  0  0  0  0  0  0
    0.6121    6.6759   -2.5154 H   0  0  0  0  0  0  0  0  0  0  0  0
   -0.1971    5.3487   -3.2856 H   0  0  0  0  0  0  0  0  0  0  0  0
   -1.1488    6.7279   -2.7923 H   0  0  0  0  0  0  0  0  0  0  0  0
    1.2578    3.7200   -2.9715 H   0  0  0  0  0  0  0  0  0  0  0  0
    1.9484    2.8048   -1.6821 H   0  0  0  0  0  0  0  0  0  0  0  0
    0.2870    1.8136   -2.6702 H   0  0  0  0  0  0  0  0  0  0  0  0
   -0.0597    1.8951   -0.9249 H   0  0  0  0  0  0  0  0  0  0  0  0
   -2.1796    3.9758   -3.7720 H   0  0  0  0  0  0  0  0  0  0  0  0
   -0.6054    3.6453   -4.0104 H   0  0  0  0  0  0  0  0  0  0  0  0
   -2.0975    1.2731   -0.4675 H   0  0  0  0  0  0  0  0  0  0  0  0
    0.1535   -0.4131   -4.6505 H   0  0  0  0  0  0  0  0  0  0  0  0
    0.8776    0.2951   -1.8257 H   0  0  0  0  0  0  0  0  0  0  0  0
    1.4750    1.1660   -5.6346 H   0  0  0  0  0  0  0  0  0  0  0  0
    2.3257    0.0638   -7.6879 H   0  0  0  0  0  0  0  0  0  0  0  0
    4.3131   -1.4296   -7.5498 H   0  0  0  0  0  0  0  0  0  0  0  0
    4.5107   -0.8241   -3.3028 H   0  0  0  0  0  0  0  0  0  0  0  0
  1  2  1  0  0  0  0
  1  3  1  0  0  0  0
  1  4  1  0  0  0  0
  1 26  1  0  0  0  0
  2 27  1  0  0  0  0
  2 28  1  0  0  0  0
  2 29  1  0  0  0  0
  3 30  1  0  0  0  0
  3 31  1  0  0  0  0
  3 32  1  0  0  0  0
  4  5  1  0  0  0  0
  5  6  1  0  0  0  0
  5 33  1  0  0  0  0
  5 34  1  0  0  0  0
  6  7  1  0  0  0  0
  6 35  1  0  0  0  0
  6 36  1  0  0  0  0
  7  8  1  0  0  0  0
  7 24  1  1  0  0  0
  8 37  1  0  0  0  0
  8 38  1  0  0  0  0
  9 11  1  0  0  0  0
  9 25  1  6  0  0  0
  9 10  1  0  0  0  0
  9  7  1  0  0  0  0
 10 39  1  0  0  0  0
 11 12  2  0  0  0  0
 11 13  1  0  0  0  0
 13 14  1  0  0  0  0
 13 40  1  0  0  0  0
 14 15  1  0  0  0  0
 14 41  1  0  0  0  0
 15 16  2  0  0  0  0
 15 17  1  0  0  0  0
 17 18  1  0  0  0  0
 17 22  2  0  0  0  0
 18 19  2  0  0  0  0
 18 42  1  0  0  0  0
 19 20  1  0  0  0  0
 19 43  1  0  0  0  0
 20 21  2  0  0  0  0
 20 44  1  0  0  0  0
 21 22  1  0  0  0  0
 21 23  1  0  0  0  0
 22 45  1  0  0  0  0
M  END
>  <DRUGBANK_ID>
DB07377

>  <COMMON_NAME>
N'-((2S,3R)-3-AMINO-2-HYDROXY-5-(ISOPROPYLSULFANYL)PENTANOYL)-N-3-CHLOROBENZOYL HYDRAZIDE

$$$$
