
 OpenBabel10282417183D

 41 42  0  0  1  0  0  0  0  0999 V2000
   -1.2831    1.1677   -0.9955 C   0  0  0  0  0  0  0  0  0  0  0  0
    0.1966    1.3035   -1.2899 C   0  0  2  0  0  0  0  0  0  0  0  0
    0.7762    2.8836   -1.1159 C   0  0  2  0  0  0  0  0  0  0  0  0
    2.4345    3.0295   -1.4541 C   0  0  1  0  0  0  0  0  0  0  0  0
    2.7721    2.1535   -2.6734 C   0  0  2  0  0  0  0  0  0  0  0  0
    2.1467    0.7010   -2.5766 C   0  0  2  0  0  0  0  0  0  0  0  0
    0.6916    0.7584   -2.5079 O   0  0  0  0  0  0  0  0  0  0  0  0
    2.8329   -0.2815   -1.6527 O   0  0  0  0  0  0  0  0  0  0  0  0
    3.0850   -0.2481   -0.2913 C   0  0  0  0  0  0  0  0  0  0  0  0
    2.6946    0.6329    0.6320 C   0  0  0  0  0  0  0  0  0  0  0  0
    2.9905    0.5867    2.0050 C   0  0  2  0  0  0  0  0  0  0  0  0
    3.6945   -0.6354    1.9830 O   0  0  0  0  0  0  0  0  0  0  0  0
    3.6998   -1.1717    0.6801 C   0  0  0  0  0  0  0  0  0  0  0  0
    4.1497   -2.2676    0.4004 O   0  0  0  0  0  0  0  0  0  0  0  0
    1.6147    0.7236    2.7511 C   0  0  2  0  0  0  0  0  0  0  0  0
    1.8838    1.3217    4.1310 C   0  0  0  0  0  0  0  0  0  0  0  0
    1.1958    2.5664    4.3151 O   0  0  0  0  0  0  0  0  0  0  0  0
    0.9250   -0.5231    2.6848 O   0  0  0  0  0  0  0  0  0  0  0  0
    1.9273    1.6232    0.4004 O   0  0  0  0  0  0  0  0  0  0  0  0
    4.1849    2.0564   -2.8828 O   0  0  0  0  0  0  0  0  0  0  0  0
    2.9229    4.3609   -1.4308 O   0  0  0  0  0  0  0  0  0  0  0  0
    0.4743    3.3948    0.2051 O   0  0  0  0  0  0  0  0  0  0  0  0
   -1.9656    2.0511   -1.8462 O   0  0  0  0  0  0  0  0  0  0  0  0
   -1.4617    1.3983    0.0672 H   0  0  0  0  0  0  0  0  0  0  0  0
   -1.6350    0.1406   -1.1680 H   0  0  0  0  0  0  0  0  0  0  0  0
    0.4808    0.5230   -0.5628 H   0  0  0  0  0  0  0  0  0  0  0  0
    0.2446    3.5419   -1.7964 H   0  0  0  0  0  0  0  0  0  0  0  0
    3.1556    2.6652   -0.7062 H   0  0  0  0  0  0  0  0  0  0  0  0
    2.3537    2.6990   -3.5253 H   0  0  0  0  0  0  0  0  0  0  0  0
    2.3292    0.2733   -3.5747 H   0  0  0  0  0  0  0  0  0  0  0  0
    3.5912    1.5024    2.1654 H   0  0  0  0  0  0  0  0  0  0  0  0
    0.8909    1.4253    2.2935 H   0  0  0  0  0  0  0  0  0  0  0  0
    1.5496    0.6435    4.9106 H   0  0  0  0  0  0  0  0  0  0  0  0
    2.9469    1.5383    4.2587 H   0  0  0  0  0  0  0  0  0  0  0  0
    1.5167    3.2282    3.6733 H   0  0  0  0  0  0  0  0  0  0  0  0
    0.7289   -0.8254    3.5830 H   0  0  0  0  0  0  0  0  0  0  0  0
    1.9154    1.3965   -0.5273 H   0  0  0  0  0  0  0  0  0  0  0  0
    4.5720    1.4680   -2.2089 H   0  0  0  0  0  0  0  0  0  0  0  0
    2.3267    4.9270   -1.9296 H   0  0  0  0  0  0  0  0  0  0  0  0
    0.9697    2.8318    0.8377 H   0  0  0  0  0  0  0  0  0  0  0  0
   -1.5662    1.8925   -2.7202 H   0  0  0  0  0  0  0  0  0  0  0  0
  1 23  1  0  0  0  0
  1 24  1  0  0  0  0
  1 25  1  0  0  0  0
  2  3  1  0  0  0  0
  2  7  1  0  0  0  0
  2 26  1  1  0  0  0
  2  1  1  0  0  0  0
  3  4  1  0  0  0  0
  3 22  1  0  0  0  0
  3 27  1  6  0  0  0
  4  5  1  0  0  0  0
  4 21  1  0  0  0  0
  4 28  1  1  0  0  0
  5  6  1  0  0  0  0
  5 20  1  0  0  0  0
  5 29  1  6  0  0  0
  6  7  1  0  0  0  0
  6 30  1  6  0  0  0
  6  8  1  0  0  0  0
  8  9  1  0  0  0  0
  9 10  2  0  0  0  0
  9 13  1  0  0  0  0
 10 11  1  0  0  0  0
 10 19  1  0  0  0  0
 11 12  1  0  0  0  0
 11 31  1  1  0  0  0
 11 15  1  0  0  0  0
 12 13  1  0  0  0  0
 13 14  2  0  0  0  0
 15 32  1  6  0  0  0
 15 18  1  0  0  0  0
 15 16  1  0  0  0  0
 16 17  1  0  0  0  0
 16 33  1  0  0  0  0
 16 34  1  0  0  0  0
 17 35  1  0  0  0  0
 18 36  1  0  0  0  0
 19 37  1  0  0  0  0
 20 38  1  0  0  0  0
 21 39  1  0  0  0  0
 22 40  1  0  0  0  0
 23 41  1  0  0  0  0
M  END
>  <DRUGBANK_ID>
DB11335

>  <COMMON_NAME>
Ascorbyl glucoside

>  <CAS_NUMBER>
129499-78-1

>  <UNII>
2V52R0NHXW

>  <SYNONYMS>
AA-2G; AA2G; Ascorbic acid 2-O-glucoside

$$$$
