
 OpenBabel10282417213D

 80 83  0  0  0  0  0  0  0  0999 V2000
  -13.6675   -5.1296   -2.0071 C   0  0  0  0  0  0  0  0  0  0  0  0
  -14.4893   -6.4033   -1.8694 C   0  0  0  0  0  0  0  0  0  0  0  0
  -13.5807   -7.6302   -1.8350 C   0  0  1  0  0  0  0  0  0  0  0  0
  -12.5137   -7.5262   -0.7409 C   0  0  0  0  0  0  0  0  0  0  0  0
  -11.7556   -6.2349   -0.8165 C   0  0  0  0  0  0  0  0  0  0  0  0
  -10.3955   -6.2278   -0.8289 C   0  0  0  0  0  0  0  0  0  0  0  0
  -12.6044   -4.9759   -0.8766 C   0  0  2  0  0  0  0  0  0  0  0  0
  -12.5429   -2.4638   -0.9828 C   0  0  0  0  0  0  0  0  0  0  0  0
  -11.6603   -1.2720   -1.0807 C   0  0  0  0  0  0  0  0  0  0  0  0
  -10.3157   -1.2281   -0.3433 C   0  0  1  0  0  0  0  0  0  0  0  0
   -9.5597   -2.4910   -0.7869 C   0  0  1  0  0  0  0  0  0  0  0  0
   -8.1543   -2.3219   -0.2137 C   0  0  0  0  0  0  0  0  0  0  0  0
   -7.8557   -0.8238   -0.3237 C   0  0  0  0  0  0  0  0  0  0  0  0
   -9.1960   -0.1555   -0.7145 C   0  0  2  0  0  0  0  0  0  0  0  0
  -10.7393   -1.1624    1.1172 C   0  0  0  0  0  0  0  0  0  0  0  0
  -13.3091   -4.7717    0.4892 C   0  0  0  0  0  0  0  0  0  0  0  0
   -9.4295   -2.4705   -1.8849 H   0  0  0  0  0  0  0  0  0  0  0  0
   -9.0787   -0.1274   -1.8017 H   0  0  0  0  0  0  0  0  0  0  0  0
  -14.3774   -8.7909   -1.6174 O   0  0  0  0  0  0  0  0  0  0  0  0
  -11.7295   -3.7443   -1.2066 C   0  0  1  0  0  0  0  0  0  0  0  0
  -11.4780   -3.7818   -2.2832 H   0  0  0  0  0  0  0  0  0  0  0  0
   -9.2029    1.4574    1.2942 C   0  0  0  0  0  0  0  0  0  0  0  0
  -10.3594   -3.7506   -0.4602 C   0  0  1  0  0  0  0  0  0  0  0  0
  -10.5459   -3.7725    0.6180 H   0  0  0  0  0  0  0  0  0  0  0  0
   -9.5603   -4.9946   -0.8340 C   0  0  0  0  0  0  0  0  0  0  0  0
  -10.5589    2.5967   -2.2169 C   0  0  0  0  0  0  0  0  0  0  0  0
  -10.2821    1.5949   -3.3837 C   0  0  2  0  0  0  0  0  0  0  0  0
  -10.5882    2.0804   -4.7865 C   0  0  0  0  0  0  0  0  0  0  0  0
  -11.9925    2.6710   -4.8719 C   0  0  0  0  0  0  0  0  0  0  0  0
  -10.5414    2.0925   -0.7488 C   0  0  0  0  0  0  0  0  0  0  0  0
   -9.2980    1.3251   -0.2398 C   0  0  2  0  0  0  0  0  0  0  0  0
   -9.4680    2.9719   -5.2481 C   0  0  0  0  0  0  0  0  0  0  0  0
  -11.1211    0.3603   -3.2589 C   0  0  0  0  0  0  0  0  0  0  0  0
  -10.7122   -0.8590   -4.1029 C   0  0  0  0  0  0  0  0  0  0  0  0
  -13.1719   -5.1419   -2.9894 H   0  0  0  0  0  0  0  0  0  0  0  0
  -14.3546   -4.2748   -2.0264 H   0  0  0  0  0  0  0  0  0  0  0  0
  -15.1979   -6.4848   -2.7021 H   0  0  0  0  0  0  0  0  0  0  0  0
  -15.1094   -6.3578   -0.9660 H   0  0  0  0  0  0  0  0  0  0  0  0
  -13.0913   -7.7420   -2.8099 H   0  0  0  0  0  0  0  0  0  0  0  0
  -12.9861   -7.5970    0.2473 H   0  0  0  0  0  0  0  0  0  0  0  0
  -11.8455   -8.3917   -0.8011 H   0  0  0  0  0  0  0  0  0  0  0  0
   -9.8528   -7.1633   -0.8124 H   0  0  0  0  0  0  0  0  0  0  0  0
  -13.3009   -2.3784   -1.7781 H   0  0  0  0  0  0  0  0  0  0  0  0
  -13.0724   -2.3863   -0.0404 H   0  0  0  0  0  0  0  0  0  0  0  0
  -11.4111   -1.4405   -2.0983 H   0  0  0  0  0  0  0  0  0  0  0  0
  -12.2741   -0.3771   -0.9454 H   0  0  0  0  0  0  0  0  0  0  0  0
   -8.1141   -2.6289    0.8336 H   0  0  0  0  0  0  0  0  0  0  0  0
   -7.4135   -2.9061   -0.7711 H   0  0  0  0  0  0  0  0  0  0  0  0
   -7.4339   -0.4361    0.6058 H   0  0  0  0  0  0  0  0  0  0  0  0
   -7.1053   -0.6369   -1.1073 H   0  0  0  0  0  0  0  0  0  0  0  0
   -9.9121   -1.3601    1.7942 H   0  0  0  0  0  0  0  0  0  0  0  0
  -11.1871   -0.1801    1.3091 H   0  0  0  0  0  0  0  0  0  0  0  0
  -11.5255   -1.8770    1.3653 H   0  0  0  0  0  0  0  0  0  0  0  0
  -12.5814   -4.5477    1.2768 H   0  0  0  0  0  0  0  0  0  0  0  0
  -14.0374   -3.9541    0.4616 H   0  0  0  0  0  0  0  0  0  0  0  0
  -13.8885   -5.6380    0.8061 H   0  0  0  0  0  0  0  0  0  0  0  0
  -14.8115   -8.6904   -0.7527 H   0  0  0  0  0  0  0  0  0  0  0  0
   -9.1965    0.5045    1.8151 H   0  0  0  0  0  0  0  0  0  0  0  0
   -8.2593    1.9231    1.5863 H   0  0  0  0  0  0  0  0  0  0  0  0
  -10.0273    2.0415    1.7148 H   0  0  0  0  0  0  0  0  0  0  0  0
   -8.7443   -5.1133   -0.1103 H   0  0  0  0  0  0  0  0  0  0  0  0
   -9.0961   -4.8839   -1.8229 H   0  0  0  0  0  0  0  0  0  0  0  0
  -11.5595    3.0269   -2.3347 H   0  0  0  0  0  0  0  0  0  0  0  0
   -9.8565    3.4345   -2.2990 H   0  0  0  0  0  0  0  0  0  0  0  0
   -9.2222    1.3152   -3.3061 H   0  0  0  0  0  0  0  0  0  0  0  0
  -10.5661    1.2291   -5.4751 H   0  0  0  0  0  0  0  0  0  0  0  0
  -12.0731    3.5888   -4.2880 H   0  0  0  0  0  0  0  0  0  0  0  0
  -12.2599    2.8783   -5.9057 H   0  0  0  0  0  0  0  0  0  0  0  0
  -12.7539    1.9785   -4.4889 H   0  0  0  0  0  0  0  0  0  0  0  0
  -11.4446    1.5102   -0.5497 H   0  0  0  0  0  0  0  0  0  0  0  0
  -10.6710    2.9953   -0.1337 H   0  0  0  0  0  0  0  0  0  0  0  0
   -8.4236    1.8600   -0.6395 H   0  0  0  0  0  0  0  0  0  0  0  0
   -8.5192    2.4204   -5.1881 H   0  0  0  0  0  0  0  0  0  0  0  0
   -9.6301    3.2500   -6.2884 H   0  0  0  0  0  0  0  0  0  0  0  0
   -9.3899    3.8584   -4.6195 H   0  0  0  0  0  0  0  0  0  0  0  0
  -10.8932    0.2041   -2.2433 H   0  0  0  0  0  0  0  0  0  0  0  0
  -12.2045    0.5081   -3.2499 H   0  0  0  0  0  0  0  0  0  0  0  0
   -9.6712   -1.1308   -3.8992 H   0  0  0  0  0  0  0  0  0  0  0  0
  -11.3203   -1.7479   -3.8897 H   0  0  0  0  0  0  0  0  0  0  0  0
  -10.8550   -0.7058   -5.1676 H   0  0  0  0  0  0  0  0  0  0  0  0
  1  7  1  0  0  0  0
  1 35  1  0  0  0  0
  1 36  1  0  0  0  0
  2  1  1  0  0  0  0
  2 37  1  0  0  0  0
  2 38  1  0  0  0  0
  3  4  1  0  0  0  0
  3  2  1  0  0  0  0
  3 19  1  0  0  0  0
  3 39  1  6  0  0  0
  4  5  1  0  0  0  0
  4 40  1  0  0  0  0
  4 41  1  0  0  0  0
  5  7  1  0  0  0  0
  6 25  1  0  0  0  0
  6  5  2  0  0  0  0
  6 42  1  0  0  0  0
  7 20  1  0  0  0  0
  7 16  1  1  0  0  0
  8 20  1  0  0  0  0
  8  9  1  0  0  0  0
  8 43  1  0  0  0  0
  8 44  1  0  0  0  0
  9 10  1  0  0  0  0
  9 45  1  0  0  0  0
  9 46  1  0  0  0  0
 10 15  1  1  0  0  0
 11 10  1  0  0  0  0
 11 17  1  6  0  0  0
 12 11  1  0  0  0  0
 12 47  1  0  0  0  0
 12 48  1  0  0  0  0
 13 14  1  0  0  0  0
 13 12  1  0  0  0  0
 13 49  1  0  0  0  0
 13 50  1  0  0  0  0
 14 10  1  0  0  0  0
 14 18  1  6  0  0  0
 14 31  1  0  0  0  0
 15 51  1  0  0  0  0
 15 52  1  0  0  0  0
 15 53  1  0  0  0  0
 16 54  1  0  0  0  0
 16 55  1  0  0  0  0
 16 56  1  0  0  0  0
 19 57  1  0  0  0  0
 20 21  1  6  0  0  0
 22 58  1  0  0  0  0
 22 59  1  0  0  0  0
 22 60  1  0  0  0  0
 23 11  1  0  0  0  0
 23 20  1  0  0  0  0
 23 24  1  1  0  0  0
 25 23  1  0  0  0  0
 25 61  1  0  0  0  0
 25 62  1  0  0  0  0
 26 63  1  0  0  0  0
 26 64  1  0  0  0  0
 27 33  1  0  0  0  0
 27 65  1  1  0  0  0
 27 28  1  0  0  0  0
 27 26  1  0  0  0  0
 28 66  1  0  0  0  0
 29 28  1  0  0  0  0
 29 67  1  0  0  0  0
 29 68  1  0  0  0  0
 29 69  1  0  0  0  0
 30 26  1  0  0  0  0
 30 70  1  0  0  0  0
 30 71  1  0  0  0  0
 31 72  1  6  0  0  0
 31 30  1  0  0  0  0
 31 22  1  0  0  0  0
 32 28  1  0  0  0  0
 32 73  1  0  0  0  0
 32 74  1  0  0  0  0
 32 75  1  0  0  0  0
 33 34  1  0  0  0  0
 33 76  1  0  0  0  0
 33 77  1  0  0  0  0
 34 78  1  0  0  0  0
 34 79  1  0  0  0  0
 34 80  1  0  0  0  0
M  END
>  <DRUGBANK_ID>
DB14038

>  <COMMON_NAME>
beta-Sitosterol

>  <CAS_NUMBER>
83-46-5

>  <UNII>
S347WMO6M4

>  <SYNONYMS>
(-)-β-Sitosterol; (24R)-Ethylcholest-5-en-3beta-ol; (24R)-ethylcholest-5-en-3β-ol; (24R)-Stigmast-5-en-3beta-ol; (3β)-Stigmast-5-en-3-ol; 22,23-Dihydrostigmasterol; 24α-Ethylcholesterol; Azuprostat; Cupreol; Nimbosterol; Sitosterol; Triastonal; α-Dihydrofucosterol; β-Sitosterin

$$$$
