32A
 OpenBabel10282417163D

 36 36  0  0  0  0  0  0  0  0999 V2000
   -0.3230   -1.1581    0.0051 C   0  0  0  0  0  0  0  0  0  0  0  0
   -0.7415   -2.5776    0.0124 C   0  0  0  0  0  0  0  0  0  0  0  0
    0.9093   -5.9475    0.0301 C   0  0  0  0  0  0  0  0  0  0  0  0
    0.9838    0.6562   -0.0055 C   0  0  0  0  0  0  0  0  0  0  0  0
   -1.1419   -0.0334    0.0006 C   0  0  0  0  0  0  0  0  0  0  0  0
    2.2040    1.4105   -0.0271 C   0  0  0  0  0  0  0  0  0  0  0  0
    3.1710    2.1435   -0.0482 C   0  0  0  0  0  0  0  0  0  0  0  0
    0.2356   -3.5687    0.0164 N   0  0  0  0  0  0  0  0  0  0  0  0
   -0.1081   -4.9908    0.0260 N   0  0  0  0  0  0  0  0  0  0  0  0
    0.4864   -7.2732    0.0390 N   0  0  0  0  0  0  0  0  0  0  0  0
    4.3500    3.0546   -0.0490 C   0  0  0  0  0  0  0  0  0  0  0  0
   -0.3139    1.1152    0.0009 C   0  0  0  0  0  0  0  0  0  0  0  0
   -1.9340   -2.9004    0.0157 O   0  0  0  0  0  0  0  0  0  0  0  0
    1.3759   -8.4476    0.0444 C   0  0  0  0  0  0  0  0  0  0  0  0
    2.5286   -5.4900    0.0243 S   0  0  0  0  0  0  0  0  0  0  0  0
    1.0014   -0.7264    0.0008 O   0  0  0  0  0  0  0  0  0  0  0  0
    4.0263    4.4862    0.4142 C   0  0  0  0  0  0  0  0  0  0  0  0
    3.4677    4.5352    1.8378 C   0  0  0  0  0  0  0  0  0  0  0  0
    4.4641    3.9955    2.8534 C   0  0  0  0  0  0  0  0  0  0  0  0
   -2.2247   -0.0521   -0.0020 H   0  0  0  0  0  0  0  0  0  0  0  0
    1.2284   -3.3480    0.0140 H   0  0  0  0  0  0  0  0  0  0  0  0
   -1.1049   -5.2062    0.0294 H   0  0  0  0  0  0  0  0  0  0  0  0
   -0.5039   -7.4866    0.0421 H   0  0  0  0  0  0  0  0  0  0  0  0
    5.1399    2.6408    0.5890 H   0  0  0  0  0  0  0  0  0  0  0  0
    4.7921    3.1088   -1.0504 H   0  0  0  0  0  0  0  0  0  0  0  0
   -0.6307    2.1510   -0.0009 H   0  0  0  0  0  0  0  0  0  0  0  0
    1.1834   -9.0494    0.9385 H   0  0  0  0  0  0  0  0  0  0  0  0
    1.1800   -9.0602   -0.8417 H   0  0  0  0  0  0  0  0  0  0  0  0
    2.4332   -8.1783    0.0407 H   0  0  0  0  0  0  0  0  0  0  0  0
    4.9366    5.1041    0.3734 H   0  0  0  0  0  0  0  0  0  0  0  0
    3.3128    4.9538   -0.2758 H   0  0  0  0  0  0  0  0  0  0  0  0
    3.2071    5.5680    2.0989 H   0  0  0  0  0  0  0  0  0  0  0  0
    2.5393    3.9569    1.8883 H   0  0  0  0  0  0  0  0  0  0  0  0
    5.3780    4.5982    2.8537 H   0  0  0  0  0  0  0  0  0  0  0  0
    4.0336    4.0073    3.8570 H   0  0  0  0  0  0  0  0  0  0  0  0
    4.7422    2.9601    2.6377 H   0  0  0  0  0  0  0  0  0  0  0  0
  1  2  1  0  0  0  0
  1  5  2  0  0  0  0
  1 16  1  0  0  0  0
  2  8  1  0  0  0  0
  2 13  2  0  0  0  0
  3  9  1  0  0  0  0
  3 10  1  0  0  0  0
  3 15  2  0  0  0  0
  4  6  1  0  0  0  0
  4 12  2  0  0  0  0
  4 16  1  0  0  0  0
  5 12  1  0  0  0  0
  5 20  1  0  0  0  0
  6  7  3  0  0  0  0
  7 11  1  0  0  0  0
  8  9  1  0  0  0  0
  8 21  1  0  0  0  0
  9 22  1  0  0  0  0
 10 14  1  0  0  0  0
 10 23  1  0  0  0  0
 11 17  1  0  0  0  0
 11 24  1  0  0  0  0
 11 25  1  0  0  0  0
 12 26  1  0  0  0  0
 14 27  1  0  0  0  0
 14 28  1  0  0  0  0
 14 29  1  0  0  0  0
 17 18  1  0  0  0  0
 17 30  1  0  0  0  0
 17 31  1  0  0  0  0
 18 19  1  0  0  0  0
 18 32  1  0  0  0  0
 18 33  1  0  0  0  0
 19 34  1  0  0  0  0
 19 35  1  0  0  0  0
 19 36  1  0  0  0  0
M  END
>  <DRUGBANK_ID>
DB07004

>  <COMMON_NAME>
2-[(5-hex-1-yn-1-ylfuran-2-yl)carbonyl]-N-methylhydrazinecarbothioamide

$$$$
