513
 OpenBabel10282417103D

 22 21  0  0  0  0  0  0  0  0999 V2000
    1.0447   -0.0451   -0.2562 O   0  0  0  0  0  0  0  0  0  0  0  0
    1.1374   -2.1511   -0.9884 O   0  0  0  0  0  0  0  0  0  0  0  0
   -3.7466    1.6579    2.0402 N   0  0  0  0  0  0  0  0  0  0  0  0
   -1.1550    0.3048    1.5309 C   0  0  0  0  0  0  0  0  0  0  0  0
   -1.5520   -1.0280    0.8834 C   0  0  0  0  0  0  0  0  0  0  0  0
   -1.6780    1.5122    0.7378 C   0  0  0  0  0  0  0  0  0  0  0  0
   -1.0441   -1.1687   -0.5529 C   0  0  0  0  0  0  0  0  0  0  0  0
   -3.2057    1.5517    0.6904 C   0  0  0  0  0  0  0  0  0  0  0  0
    0.4601   -1.1970   -0.6309 C   0  0  0  0  0  0  0  0  0  0  0  0
    2.0057   -0.2221   -0.1977 H   0  0  0  0  0  0  0  0  0  0  0  0
   -4.7609    1.5997    2.0115 H   0  0  0  0  0  0  0  0  0  0  0  0
   -3.4430    0.8607    2.5985 H   0  0  0  0  0  0  0  0  0  0  0  0
   -1.5105    0.3322    2.5656 H   0  0  0  0  0  0  0  0  0  0  0  0
   -0.0702    0.3738    1.6406 H   0  0  0  0  0  0  0  0  0  0  0  0
   -2.6450   -1.1300    0.8875 H   0  0  0  0  0  0  0  0  0  0  0  0
   -1.1817   -1.8556    1.4985 H   0  0  0  0  0  0  0  0  0  0  0  0
   -1.2870    2.4363    1.1781 H   0  0  0  0  0  0  0  0  0  0  0  0
   -1.2900    1.5016   -0.2884 H   0  0  0  0  0  0  0  0  0  0  0  0
   -1.4246   -0.3810   -1.2116 H   0  0  0  0  0  0  0  0  0  0  0  0
   -1.4256   -2.1057   -0.9733 H   0  0  0  0  0  0  0  0  0  0  0  0
   -3.5372    2.4025    0.0890 H   0  0  0  0  0  0  0  0  0  0  0  0
   -3.6047    0.6550    0.2028 H   0  0  0  0  0  0  0  0  0  0  0  0
  1  9  1  0  0  0  0
  1 10  1  0  0  0  0
  2  9  2  0  0  0  0
  3  8  1  0  0  0  0
  3 11  1  0  0  0  0
  3 12  1  0  0  0  0
  4  5  1  0  0  0  0
  4  6  1  0  0  0  0
  4 13  1  0  0  0  0
  4 14  1  0  0  0  0
  5  7  1  0  0  0  0
  5 15  1  0  0  0  0
  5 16  1  0  0  0  0
  6  8  1  0  0  0  0
  6 17  1  0  0  0  0
  6 18  1  0  0  0  0
  7  9  1  0  0  0  0
  7 19  1  0  0  0  0
  7 20  1  0  0  0  0
  8 21  1  0  0  0  0
  8 22  1  0  0  0  0
M  END
>  <DRUGBANK_ID>
DB00513

>  <SECONDARY_ACCESSION_NUMBERS>
APRD00791; EXPT00408; EXPT00461; DB04134

>  <COMMON_NAME>
Aminocaproic acid

>  <CAS_NUMBER>
60-32-2

>  <UNII>
U6F3787206

>  <SYNONYMS>
6-Aminocaproic acid; 6-aminohexanoic acid; Acide aminocaproïque; Ácido aminocapróico; acidum aminocaproicum; Aminocaproic acid; Aminocapronsäure; EACA; EACS; Epsilcapramine; Epsilon Aminocaproic Acid; Epsilon-Aminocaproic acid; epsilon-Aminohexanoic acid; omega-Aminocaproic acid; omega-Aminohexanoic acid

$$$$
