744
 OpenBabel10282417113D

 28 29  0  0  1  0  0  0  0  0999 V2000
    1.7350    0.7503   -0.0359 S   0  0  0  0  0  0  0  0  0  0  0  0
    4.0376   -3.5855    1.2431 O   0  0  0  0  0  0  0  0  0  0  0  0
    3.3969   -0.4328    2.7259 O   0  0  0  0  0  0  0  0  0  0  0  0
    3.7162   -2.2080    1.2792 N   0  0  0  0  0  0  0  0  0  0  0  0
    3.8218   -2.4523    3.5770 N   0  0  0  0  0  0  0  0  0  0  0  0
    3.5151   -1.4387    0.0181 C   0  0  3  0  0  0  0  0  0  0  0  0
    2.0937   -0.9222    0.0020 C   0  0  0  0  0  0  0  0  0  0  0  0
   -0.2484   -0.8989   -0.0033 C   0  0  0  0  0  0  0  0  0  0  0  0
    0.9437   -1.6782    0.0124 C   0  0  0  0  0  0  0  0  0  0  0  0
    0.0318    0.4689   -0.0075 C   0  0  0  0  0  0  0  0  0  0  0  0
    3.7489   -2.2399   -1.2720 C   0  0  0  0  0  0  0  0  0  0  0  0
   -1.5952   -1.3197   -0.0089 C   0  0  0  0  0  0  0  0  0  0  0  0
   -1.0053    1.4230    0.0026 C   0  0  0  0  0  0  0  0  0  0  0  0
   -2.6249   -0.3810   -0.0102 C   0  0  0  0  0  0  0  0  0  0  0  0
   -2.3317    0.9760    0.0017 C   0  0  0  0  0  0  0  0  0  0  0  0
    3.6338   -1.6214    2.5211 C   0  0  0  0  0  0  0  0  0  0  0  0
    4.1215   -3.8172    0.3063 H   0  0  0  0  0  0  0  0  0  0  0  0
    4.0413   -3.4259    3.4294 H   0  0  0  0  0  0  0  0  0  0  0  0
    3.7345   -2.0656    4.5045 H   0  0  0  0  0  0  0  0  0  0  0  0
    4.2254   -0.6023    0.0500 H   0  0  0  0  0  0  0  0  0  0  0  0
    0.9567   -2.7599    0.0366 H   0  0  0  0  0  0  0  0  0  0  0  0
    3.5784   -1.6218   -2.1609 H   0  0  0  0  0  0  0  0  0  0  0  0
    4.7689   -2.6317   -1.3209 H   0  0  0  0  0  0  0  0  0  0  0  0
    3.0584   -3.0910   -1.3440 H   0  0  0  0  0  0  0  0  0  0  0  0
   -1.8233   -2.3818   -0.0113 H   0  0  0  0  0  0  0  0  0  0  0  0
   -0.7841    2.4866    0.0111 H   0  0  0  0  0  0  0  0  0  0  0  0
   -3.6566   -0.7214   -0.0167 H   0  0  0  0  0  0  0  0  0  0  0  0
   -3.1434    1.6993    0.0094 H   0  0  0  0  0  0  0  0  0  0  0  0
  1  7  1  0  0  0  0
  1 10  1  0  0  0  0
  2  4  1  0  0  0  0
  2 17  1  0  0  0  0
  3 16  2  0  0  0  0
  4  6  1  0  0  0  0
  4 16  1  0  0  0  0
  5 16  1  0  0  0  0
  5 18  1  0  0  0  0
  5 19  1  0  0  0  0
  6  7  1  0  0  0  0
  6 11  1  0  0  0  0
  6 20  1  0  0  0  0
  7  9  2  0  0  0  0
  8  9  1  0  0  0  0
  8 10  1  0  0  0  0
  8 12  2  0  0  0  0
  9 21  1  0  0  0  0
 10 13  2  0  0  0  0
 11 22  1  0  0  0  0
 11 23  1  0  0  0  0
 11 24  1  0  0  0  0
 12 14  1  0  0  0  0
 12 25  1  0  0  0  0
 13 15  1  0  0  0  0
 13 26  1  0  0  0  0
 14 15  2  0  0  0  0
 14 27  1  0  0  0  0
 15 28  1  0  0  0  0
M  END
>  <DRUGBANK_ID>
DB00744

>  <SECONDARY_ACCESSION_NUMBERS>
APRD00265

>  <COMMON_NAME>
Zileuton

>  <CAS_NUMBER>
111406-87-2

>  <UNII>
V1L22WVE2S

>  <SYNONYMS>
(±)-1-(1-Benzo[b]thien-2-ylethyl)-1-hydroxyurea; Leutrol; N-(1-Benzo(b)thien-2-ylethyl)-N-hydroxyurea; N-[1-(benzo[b]thiophen-2-yl)ethyl]-N-hydroxyurea; Zileuton; Zileutón; Zileutonum

$$$$
