1041
 OpenBabel10282417113D

 29 31  0  0  1  0  0  0  0  0999 V2000
   -2.2041   -1.0328   -0.2144 O   0  0  0  0  0  0  0  0  0  0  0  0
   -4.0248    0.6305    1.2104 O   0  0  0  0  0  0  0  0  0  0  0  0
   -1.7713    3.3787   -1.7175 O   0  0  0  0  0  0  0  0  0  0  0  0
    2.2850   -0.9854    0.0125 O   0  0  0  0  0  0  0  0  0  0  0  0
   -2.5046    1.7714   -0.1613 N   0  0  0  0  0  0  0  0  0  0  0  0
    0.0272   -0.9189   -0.0357 N   0  0  0  0  0  0  0  0  0  0  0  0
   -1.2498    1.1715    0.3052 C   0  0  3  0  0  0  0  0  0  0  0  0
   -0.0170    1.8239   -0.3239 C   0  0  0  0  0  0  0  0  0  0  0  0
    1.2807    1.1847    0.1147 C   0  0  0  0  0  0  0  0  0  0  0  0
   -1.2147   -0.3300   -0.0253 C   0  0  0  0  0  0  0  0  0  0  0  0
   -3.7360    1.4393    0.3555 C   0  0  0  0  0  0  0  0  0  0  0  0
   -2.6172    2.7844   -1.0772 C   0  0  0  0  0  0  0  0  0  0  0  0
   -4.7142    2.2992   -0.3112 C   0  0  0  0  0  0  0  0  0  0  0  0
   -4.0236    3.1238   -1.1733 C   0  0  0  0  0  0  0  0  0  0  0  0
    1.2554   -0.3170    0.0110 C   0  0  0  0  0  0  0  0  0  0  0  0
   -6.0825    2.3906   -0.1724 C   0  0  0  0  0  0  0  0  0  0  0  0
   -4.6399    4.0916   -1.9400 C   0  0  0  0  0  0  0  0  0  0  0  0
   -6.7384    3.3615   -0.9393 C   0  0  0  0  0  0  0  0  0  0  0  0
   -6.0232    4.2053   -1.8154 C   0  0  0  0  0  0  0  0  0  0  0  0
    0.0288   -1.9213   -0.1686 H   0  0  0  0  0  0  0  0  0  0  0  0
   -1.2181    1.2668    1.3995 H   0  0  0  0  0  0  0  0  0  0  0  0
   -0.0780    1.7351   -1.4169 H   0  0  0  0  0  0  0  0  0  0  0  0
    0.0177    2.8916   -0.0748 H   0  0  0  0  0  0  0  0  0  0  0  0
    2.0778    1.5532   -0.5424 H   0  0  0  0  0  0  0  0  0  0  0  0
    1.5192    1.4636    1.1441 H   0  0  0  0  0  0  0  0  0  0  0  0
   -6.6222    1.7375    0.5051 H   0  0  0  0  0  0  0  0  0  0  0  0
   -4.0664    4.7313   -2.6035 H   0  0  0  0  0  0  0  0  0  0  0  0
   -7.8179    3.4713   -0.8589 H   0  0  0  0  0  0  0  0  0  0  0  0
   -6.5551    4.9524   -2.4008 H   0  0  0  0  0  0  0  0  0  0  0  0
  1 10  2  0  0  0  0
  2 11  2  0  0  0  0
  3 12  2  0  0  0  0
  4 15  2  0  0  0  0
  5  7  1  0  0  0  0
  5 11  1  0  0  0  0
  5 12  1  0  0  0  0
  6 10  1  0  0  0  0
  6 15  1  0  0  0  0
  6 20  1  0  0  0  0
  7  8  1  0  0  0  0
  7 10  1  0  0  0  0
  7 21  1  0  0  0  0
  8  9  1  0  0  0  0
  8 22  1  0  0  0  0
  8 23  1  0  0  0  0
  9 15  1  0  0  0  0
  9 24  1  0  0  0  0
  9 25  1  0  0  0  0
 11 13  1  0  0  0  0
 12 14  1  0  0  0  0
 13 14  1  0  0  0  0
 13 16  2  0  0  0  0
 14 17  2  0  0  0  0
 16 18  1  0  0  0  0
 16 26  1  0  0  0  0
 17 19  1  0  0  0  0
 17 27  1  0  0  0  0
 18 19  2  0  0  0  0
 18 28  1  0  0  0  0
 19 29  1  0  0  0  0
M  END
>  <DRUGBANK_ID>
DB01041

>  <SECONDARY_ACCESSION_NUMBERS>
APRD01251

>  <COMMON_NAME>
Thalidomide

>  <CAS_NUMBER>
50-35-1

>  <UNII>
4Z8R6ORS6L

>  <SYNONYMS>
(+-)-N-(2,6-dioxo-3-Piperidyl)phthalimide; (+-)-Thalidomide; (±)-N-(2,6-dioxo-3-piperidyl)phthalimide; (±)-thalidomide; 1,3-dioxo-2-(2,6-dioxopiperidin-3-yl)isoindoline; 2,6-dioxo-3-phthalimidopiperidine; 3-Phthalimidoglutarimide; alpha-(N-Phthalimido)glutarimide; alpha-N-Phthalylglutaramide; N-(2,6-dioxo-3-piperidyl)phthalimide; N-Phthaloylglutamimide; N-Phthalyl-glutaminsaeure-imid; N-Phthalylglutamic acid imide; Talidomida; Thalidomide; Thalidomidum; α-(N-phthalimido)glutarimide; α-N-phthalylglutaramide; α-phthalimidoglutarimide

$$$$
