CRI
 OpenBabel10282417163D

 54 56  0  0  0  0  0  0  0  0999 V2000
    1.0024   -0.0193    0.0676 N   0  0  0  0  0  0  0  0  0  0  0  0
    0.3198   -0.8981    0.9261 O   0  0  0  0  0  0  0  0  0  0  0  0
    0.9691    1.3740   -1.7205 O   0  0  0  0  0  0  0  0  0  0  0  0
    0.3459    0.7135   -0.8738 C   0  0  0  0  0  0  0  0  0  0  0  0
   -1.8405    0.8988    0.2982 C   0  0  0  0  0  0  0  0  0  0  0  0
   -1.1238    0.7483   -0.8921 C   0  0  0  0  0  0  0  0  0  0  0  0
   -1.7829    0.7183   -2.1293 C   0  0  0  0  0  0  0  0  0  0  0  0
   -3.1651    0.7627   -2.1717 C   0  0  0  0  0  0  0  0  0  0  0  0
   -3.8796    0.8121   -0.9777 C   0  0  0  0  0  0  0  0  0  0  0  0
   -3.2202    0.9623    0.2524 C   0  0  0  0  0  0  0  0  0  0  0  0
   -5.3021    0.5680   -0.9833 C   0  0  0  0  0  0  0  0  0  0  0  0
   -5.7974   -0.6880   -1.4630 C   0  0  0  0  0  0  0  0  0  0  0  0
   -7.1445   -0.9603   -1.3600 C   0  0  0  0  0  0  0  0  0  0  0  0
   -7.8683    0.0337   -0.7320 C   0  0  0  0  0  0  0  0  0  0  0  0
   -7.4261    1.1990   -0.1041 C   0  0  0  0  0  0  0  0  0  0  0  0
   -6.1283    1.5224   -0.3692 C   0  0  0  0  0  0  0  0  0  0  0  0
   -8.2335    2.0817    0.8229 C   0  0  0  0  0  0  0  0  0  0  0  0
   -7.7926    3.2285    1.0631 O   0  0  0  0  0  0  0  0  0  0  0  0
   -9.3715    1.6480    1.4815 N   0  0  0  0  0  0  0  0  0  0  0  0
  -10.0084    0.4210    1.2479 C   0  0  0  0  0  0  0  0  0  0  0  0
  -10.2937    2.5729    2.1353 C   0  0  0  0  0  0  0  0  0  0  0  0
   -7.7682   -2.1629   -1.8127 N   0  0  0  0  0  0  0  0  0  0  0  0
   -9.0960   -2.6472   -1.7634 C   0  0  0  0  0  0  0  0  0  0  0  0
   -9.2901   -3.8371   -2.0350 O   0  0  0  0  0  0  0  0  0  0  0  0
  -10.6313   -0.6045   -1.9196 C   0  0  0  0  0  0  0  0  0  0  0  0
  -11.5958    0.2241   -1.2848 C   0  0  0  0  0  0  0  0  0  0  0  0
  -12.3656   -0.2306   -0.1665 C   0  0  0  0  0  0  0  0  0  0  0  0
  -12.1201   -1.5379    0.2872 C   0  0  0  0  0  0  0  0  0  0  0  0
  -11.1427   -2.3509   -0.3326 C   0  0  0  0  0  0  0  0  0  0  0  0
  -10.3294   -1.8636   -1.3794 C   0  0  0  0  0  0  0  0  0  0  0  0
  -13.0560    0.7405    0.8116 C   0  0  0  0  0  0  0  0  0  0  0  0
    2.0153   -0.0483    0.0311 H   0  0  0  0  0  0  0  0  0  0  0  0
    1.0314   -1.3060    1.4514 H   0  0  0  0  0  0  0  0  0  0  0  0
   -1.3389    0.9428    1.2591 H   0  0  0  0  0  0  0  0  0  0  0  0
   -1.2287    0.6294   -3.0585 H   0  0  0  0  0  0  0  0  0  0  0  0
   -3.6975    0.7233   -3.1195 H   0  0  0  0  0  0  0  0  0  0  0  0
   -3.7822    1.0774    1.1793 H   0  0  0  0  0  0  0  0  0  0  0  0
   -5.0999   -1.3986   -1.9073 H   0  0  0  0  0  0  0  0  0  0  0  0
   -8.8990   -0.0736   -0.8211 H   0  0  0  0  0  0  0  0  0  0  0  0
   -5.7445    2.4909   -0.0544 H   0  0  0  0  0  0  0  0  0  0  0  0
  -10.4350   -0.0581    2.1206 H   0  0  0  0  0  0  0  0  0  0  0  0
  -10.7562    0.8621    0.6303 H   0  0  0  0  0  0  0  0  0  0  0  0
   -9.5211   -0.3569    0.7123 H   0  0  0  0  0  0  0  0  0  0  0  0
   -9.9448    2.7293    3.1485 H   0  0  0  0  0  0  0  0  0  0  0  0
  -10.4564    3.4739    1.5394 H   0  0  0  0  0  0  0  0  0  0  0  0
  -11.2877    2.1154    2.2462 H   0  0  0  0  0  0  0  0  0  0  0  0
   -7.1356   -2.8913   -2.1420 H   0  0  0  0  0  0  0  0  0  0  0  0
   -9.9363   -0.1554   -2.6371 H   0  0  0  0  0  0  0  0  0  0  0  0
  -11.4589    1.3039   -1.4461 H   0  0  0  0  0  0  0  0  0  0  0  0
  -12.5103   -1.8482    1.2610 H   0  0  0  0  0  0  0  0  0  0  0  0
  -10.9471   -3.3337    0.0925 H   0  0  0  0  0  0  0  0  0  0  0  0
  -14.1360    0.6234    0.8491 H   0  0  0  0  0  0  0  0  0  0  0  0
  -12.6968    0.5697    1.8446 H   0  0  0  0  0  0  0  0  0  0  0  0
  -12.8157    1.7913    0.5920 H   0  0  0  0  0  0  0  0  0  0  0  0
  1  2  1  0  0  0  0
  1  4  1  0  0  0  0
  1 32  1  0  0  0  0
  2 33  1  0  0  0  0
  3  4  2  0  0  0  0
  4  6  1  0  0  0  0
  5  6  2  0  0  0  0
  5 10  1  0  0  0  0
  5 34  1  0  0  0  0
  6  7  1  0  0  0  0
  7  8  2  0  0  0  0
  7 35  1  0  0  0  0
  8  9  1  0  0  0  0
  8 36  1  0  0  0  0
  9 10  2  0  0  0  0
  9 11  1  0  0  0  0
 10 37  1  0  0  0  0
 11 12  2  0  0  0  0
 11 16  1  0  0  0  0
 12 13  1  0  0  0  0
 12 38  1  0  0  0  0
 13 14  2  0  0  0  0
 13 22  1  0  0  0  0
 14 15  1  0  0  0  0
 14 39  1  0  0  0  0
 15 16  2  0  0  0  0
 15 17  1  0  0  0  0
 16 40  1  0  0  0  0
 17 18  2  0  0  0  0
 17 19  1  0  0  0  0
 19 20  1  0  0  0  0
 19 21  1  0  0  0  0
 20 41  1  0  0  0  0
 20 42  1  0  0  0  0
 20 43  1  0  0  0  0
 21 44  1  0  0  0  0
 21 45  1  0  0  0  0
 21 46  1  0  0  0  0
 22 23  1  0  0  0  0
 22 47  1  0  0  0  0
 23 24  2  0  0  0  0
 23 30  1  0  0  0  0
 25 26  2  0  0  0  0
 25 30  1  0  0  0  0
 25 48  1  0  0  0  0
 26 27  1  0  0  0  0
 26 49  1  0  0  0  0
 27 28  2  0  0  0  0
 27 31  1  0  0  0  0
 28 29  1  0  0  0  0
 28 50  1  0  0  0  0
 29 30  2  0  0  0  0
 29 51  1  0  0  0  0
 31 52  1  0  0  0  0
 31 53  1  0  0  0  0
 31 54  1  0  0  0  0
M  END
>  <DRUGBANK_ID>
DB07586

>  <COMMON_NAME>
5-(4-METHYL-BENZOYLAMINO)-BIPHENYL-3,4'-DICARBOXYLIC ACID 3-DIMETHYLAMIDE-4'-HYDROXYAMIDE

$$$$
