
 OpenBabel10282417193D

 80 84  0  0  0  0  0  0  0  0999 V2000
    0.8545   -0.3077   -0.0032 C   0  0  0  0  0  0  0  0  0  0  0  0
    0.4439   -0.3275    1.4747 C   0  0  0  0  0  0  0  0  0  0  0  0
    0.9405    0.7647    2.4275 C   0  0  0  0  0  0  0  0  0  0  0  0
    0.3268    2.3919    2.0972 S   0  0  0  0  0  0  0  0  0  0  0  0
   -1.1105    2.3471    1.8211 O   0  0  0  0  0  0  0  0  0  0  0  0
    0.8435    3.2904    3.0842 O   0  0  0  0  0  0  0  0  0  0  0  0
    1.0715    2.7349    0.6599 N   0  0  0  0  0  0  0  0  0  0  0  0
    2.3779    2.1358    0.2702 C   0  0  0  0  0  0  0  0  0  0  0  0
    3.5438    2.7865    0.9609 C   0  0  0  0  0  0  0  0  0  0  0  0
    3.6443    4.2013    0.6307 N   0  0  0  0  0  0  0  0  0  0  0  0
    2.3564    4.8625    0.9422 C   0  0  0  0  0  0  0  0  0  0  0  0
    1.0902    4.1675    0.3769 C   0  0  0  0  0  0  0  0  0  0  0  0
    4.1571    4.4685   -0.7282 C   0  0  0  0  0  0  0  0  0  0  0  0
    3.2686    4.1909   -1.9281 C   0  0  0  0  0  0  0  0  0  0  0  0
    2.0922    4.9080   -2.2213 C   0  0  0  0  0  0  0  0  0  0  0  0
    1.0413    4.2863   -2.9522 C   0  0  0  0  0  0  0  0  0  0  0  0
    1.3330    3.2029   -3.7518 C   0  0  0  0  0  0  0  0  0  0  0  0
    2.6699    2.8551   -3.7884 C   0  0  0  0  0  0  0  0  0  0  0  0
    3.5543    3.1327   -2.7578 C   0  0  0  0  0  0  0  0  0  0  0  0
    0.3378    2.5249   -4.4988 N   0  0  0  0  0  0  0  0  0  0  0  0
    0.4512    1.4661   -5.3944 C   0  0  0  0  0  0  0  0  0  0  0  0
   -0.4726    1.1849   -6.1561 O   0  0  0  0  0  0  0  0  0  0  0  0
    1.6667    0.6282   -5.4718 C   0  0  0  0  0  0  0  0  0  0  0  0
    2.2596    0.1428   -4.2950 C   0  0  0  0  0  0  0  0  0  0  0  0
    3.5701   -0.2908   -4.3341 C   0  0  0  0  0  0  0  0  0  0  0  0
    4.1938   -0.4463   -5.5662 C   0  0  0  0  0  0  0  0  0  0  0  0
    3.4943   -0.2420   -6.7609 C   0  0  0  0  0  0  0  0  0  0  0  0
    2.2841    0.4346   -6.7115 C   0  0  0  0  0  0  0  0  0  0  0  0
    5.5917   -0.7850   -5.5881 C   0  0  0  0  0  0  0  0  0  0  0  0
    5.8955   -2.0596   -4.9880 C   0  0  0  0  0  0  0  0  0  0  0  0
    7.1081   -2.6194   -5.2267 C   0  0  0  0  0  0  0  0  0  0  0  0
    7.8257   -1.9130   -6.1299 C   0  0  0  0  0  0  0  0  0  0  0  0
    7.7094   -0.6309   -6.5848 C   0  0  0  0  0  0  0  0  0  0  0  0
    6.5676    0.0053   -6.2580 C   0  0  0  0  0  0  0  0  0  0  0  0
    6.6089    1.2780   -6.7295 O   0  0  0  0  0  0  0  0  0  0  0  0
    5.5597    2.1582   -6.4372 C   0  0  0  0  0  0  0  0  0  0  0  0
    4.5298    1.9083   -7.2566 F   0  0  0  0  0  0  0  0  0  0  0  0
    5.2136    2.0821   -5.1416 F   0  0  0  0  0  0  0  0  0  0  0  0
    5.9448    3.4267   -6.6900 F   0  0  0  0  0  0  0  0  0  0  0  0
    7.5944   -3.8550   -4.7786 N   0  0  0  0  0  0  0  0  0  0  0  0
    8.8463   -4.4763   -4.9413 C   0  0  0  0  0  0  0  0  0  0  0  0
    8.9286   -5.6225   -4.4884 O   0  0  0  0  0  0  0  0  0  0  0  0
   10.1424   -3.9359   -5.5897 C   0  0  0  0  0  0  0  0  0  0  0  0
   10.5566   -2.5284   -5.9562 C   0  0  0  0  0  0  0  0  0  0  0  0
   10.1872   -3.5367   -7.0610 C   0  0  0  0  0  0  0  0  0  0  0  0
    0.5680    0.6257   -0.4976 H   0  0  0  0  0  0  0  0  0  0  0  0
    0.3776   -1.0950   -0.5851 H   0  0  0  0  0  0  0  0  0  0  0  0
    1.9290   -0.4971   -0.1217 H   0  0  0  0  0  0  0  0  0  0  0  0
   -0.6473   -0.3278    1.5044 H   0  0  0  0  0  0  0  0  0  0  0  0
    0.8050   -1.2734    1.8846 H   0  0  0  0  0  0  0  0  0  0  0  0
    0.6163    0.5706    3.4528 H   0  0  0  0  0  0  0  0  0  0  0  0
    2.0329    0.8258    2.4811 H   0  0  0  0  0  0  0  0  0  0  0  0
    2.4938    1.1088    0.5461 H   0  0  0  0  0  0  0  0  0  0  0  0
    2.4391    2.0941   -0.8181 H   0  0  0  0  0  0  0  0  0  0  0  0
    3.3802    2.6603    2.0403 H   0  0  0  0  0  0  0  0  0  0  0  0
    4.4561    2.2179    0.7426 H   0  0  0  0  0  0  0  0  0  0  0  0
    2.2700    4.8937    2.0337 H   0  0  0  0  0  0  0  0  0  0  0  0
    2.4127    5.9102    0.6375 H   0  0  0  0  0  0  0  0  0  0  0  0
    1.0762    4.0632   -0.6744 H   0  0  0  0  0  0  0  0  0  0  0  0
    0.1657    4.7295    0.5278 H   0  0  0  0  0  0  0  0  0  0  0  0
    4.4548    5.5165   -0.7749 H   0  0  0  0  0  0  0  0  0  0  0  0
    5.0914    3.8947   -0.8351 H   0  0  0  0  0  0  0  0  0  0  0  0
    1.8479    5.7821   -1.6201 H   0  0  0  0  0  0  0  0  0  0  0  0
    0.0142    4.6187   -2.7941 H   0  0  0  0  0  0  0  0  0  0  0  0
    3.0661    2.2905   -4.6044 H   0  0  0  0  0  0  0  0  0  0  0  0
    4.4232    2.4911   -2.6249 H   0  0  0  0  0  0  0  0  0  0  0  0
   -0.6140    2.8759   -4.4485 H   0  0  0  0  0  0  0  0  0  0  0  0
    1.8164    0.3418   -3.3251 H   0  0  0  0  0  0  0  0  0  0  0  0
    4.1470   -0.4032   -3.4168 H   0  0  0  0  0  0  0  0  0  0  0  0
    3.9833   -0.4185   -7.7209 H   0  0  0  0  0  0  0  0  0  0  0  0
    1.9084    0.9068   -7.6179 H   0  0  0  0  0  0  0  0  0  0  0  0
    5.1302   -2.6012   -4.4359 H   0  0  0  0  0  0  0  0  0  0  0  0
    8.5459   -2.4547   -6.6215 H   0  0  0  0  0  0  0  0  0  0  0  0
    8.4963   -0.2303   -7.2181 H   0  0  0  0  0  0  0  0  0  0  0  0
    6.9508   -4.4402   -4.2503 H   0  0  0  0  0  0  0  0  0  0  0  0
   10.9875   -4.5244   -5.2431 H   0  0  0  0  0  0  0  0  0  0  0  0
    9.9924   -1.6969   -5.5441 H   0  0  0  0  0  0  0  0  0  0  0  0
   11.5814   -2.1702   -5.9685 H   0  0  0  0  0  0  0  0  0  0  0  0
   10.9706   -3.7805   -7.7641 H   0  0  0  0  0  0  0  0  0  0  0  0
    9.2527   -3.6203   -7.6262 H   0  0  0  0  0  0  0  0  0  0  0  0
  1  2  1  0  0  0  0
  1 46  1  0  0  0  0
  1 47  1  0  0  0  0
  1 48  1  0  0  0  0
  2  3  1  0  0  0  0
  2 49  1  0  0  0  0
  2 50  1  0  0  0  0
  3  4  1  0  0  0  0
  3 51  1  0  0  0  0
  3 52  1  0  0  0  0
  4  5  2  0  0  0  0
  4  6  2  0  0  0  0
  4  7  1  0  0  0  0
  7  8  1  0  0  0  0
  7 12  1  0  0  0  0
  8  9  1  0  0  0  0
  8 53  1  0  0  0  0
  8 54  1  0  0  0  0
  9 10  1  0  0  0  0
  9 55  1  0  0  0  0
  9 56  1  0  0  0  0
 10 11  1  0  0  0  0
 10 13  1  0  0  0  0
 11 12  1  0  0  0  0
 11 57  1  0  0  0  0
 11 58  1  0  0  0  0
 12 59  1  0  0  0  0
 12 60  1  0  0  0  0
 13 14  1  0  0  0  0
 13 61  1  0  0  0  0
 13 62  1  0  0  0  0
 14 15  2  0  0  0  0
 14 19  1  0  0  0  0
 15 16  1  0  0  0  0
 15 63  1  0  0  0  0
 16 17  2  0  0  0  0
 16 64  1  0  0  0  0
 17 18  1  0  0  0  0
 17 20  1  0  0  0  0
 18 19  2  0  0  0  0
 18 65  1  0  0  0  0
 19 66  1  0  0  0  0
 20 21  1  0  0  0  0
 20 67  1  0  0  0  0
 21 22  2  0  0  0  0
 21 23  1  0  0  0  0
 23 24  2  0  0  0  0
 23 28  1  0  0  0  0
 24 25  1  0  0  0  0
 24 68  1  0  0  0  0
 25 26  2  0  0  0  0
 25 69  1  0  0  0  0
 26 27  1  0  0  0  0
 26 29  1  0  0  0  0
 27 28  2  0  0  0  0
 27 70  1  0  0  0  0
 28 71  1  0  0  0  0
 29 30  2  0  0  0  0
 29 34  1  0  0  0  0
 30 31  1  0  0  0  0
 30 72  1  0  0  0  0
 31 32  2  0  0  0  0
 31 40  1  0  0  0  0
 32 33  1  0  0  0  0
 32 73  1  0  0  0  0
 33 34  2  0  0  0  0
 33 74  1  0  0  0  0
 34 35  1  0  0  0  0
 35 36  1  0  0  0  0
 36 37  1  0  0  0  0
 36 38  1  0  0  0  0
 36 39  1  0  0  0  0
 40 41  1  0  0  0  0
 40 75  1  0  0  0  0
 41 42  2  0  0  0  0
 41 43  1  0  0  0  0
 43 44  1  0  0  0  0
 43 45  1  0  0  0  0
 43 76  1  0  0  0  0
 44 45  1  0  0  0  0
 44 77  1  0  0  0  0
 44 78  1  0  0  0  0
 45 79  1  0  0  0  0
 45 80  1  0  0  0  0
M  END
>  <DRUGBANK_ID>
DB12724

>  <COMMON_NAME>
AZD-7295

>  <CAS_NUMBER>
929890-64-2

>  <UNII>
102MC1467J

$$$$
