
 OpenBabel10282417123D

 17 16  0  0  1  0  0  0  0  0999 V2000
    1.0696   -0.0652    0.0303 P   0  0  0  0  0  0  0  0  0  0  0  0
   -0.6604   -0.0652    0.0303 O   0  0  0  0  0  0  0  0  0  0  0  0
   -0.8735    0.5652    2.5049 C   0  0  2  0  0  0  0  0  0  0  0  0
   -1.1690    0.8932    0.9939 C   0  0  0  0  0  0  0  0  0  0  0  0
    2.7996   -0.0652    0.0303 O   0  0  0  0  0  0  0  0  0  0  0  0
   -1.3270    1.7429    3.3394 C   0  0  0  0  0  0  0  0  0  0  0  0
   -0.8996    2.7283    3.0535 H   0  0  0  0  0  0  0  0  0  0  0  0
    0.4366    0.3238    3.0448 O   0  0  0  0  0  0  0  0  0  0  0  0
    1.2573    1.1403    0.9473 O   0  0  0  0  0  0  0  0  0  0  0  0
   -2.0518    1.6330    4.3096 O   0  0  0  0  0  0  0  0  0  0  0  0
    1.1670    0.5768   -1.4568 O   0  0  0  0  0  0  0  0  0  0  0  0
   -1.4109   -0.3436    2.7569 H   0  0  0  0  0  0  0  0  0  0  0  0
   -0.8286    1.8960    0.6867 H   0  0  0  0  0  0  0  0  0  0  0  0
   -2.2546    0.9280    0.8621 H   0  0  0  0  0  0  0  0  0  0  0  0
    3.1075    0.0177    0.9527 H   0  0  0  0  0  0  0  0  0  0  0  0
    1.1025    0.3158    2.3448 H   0  0  0  0  0  0  0  0  0  0  0  0
    1.7545    1.3551   -1.3776 H   0  0  0  0  0  0  0  0  0  0  0  0
  1 11  1  0  0  0  0
  2  1  1  0  0  0  0
  2  4  1  0  0  0  0
  3  8  1  0  0  0  0
  3  4  1  0  0  0  0
  3  6  1  0  0  0  0
  3 12  1  1  0  0  0
  4 13  1  0  0  0  0
  4 14  1  0  0  0  0
  5  1  1  0  0  0  0
  5 15  1  0  0  0  0
  6 10  2  0  0  0  0
  6  7  1  0  0  0  0
  8 16  1  0  0  0  0
  9  1  2  0  0  0  0
 11 17  1  0  0  0  0
M  END
>  <DRUGBANK_ID>
DB02263

>  <SECONDARY_ACCESSION_NUMBERS>
EXPT01530

>  <COMMON_NAME>
D-glyceraldehyde 3-phosphate

>  <CAS_NUMBER>
591-57-1

>  <UNII>
TD9ZNF8JPW

>  <SYNONYMS>
(2R)-2-Hydroxy-3-(phosphonooxy)-propanal; D-Glyceraldehyde 3-phosphate; Glyceraldehyde-3-phosphate

$$$$
