
 OpenBabel10282417183D

 51 54  0  0  0  0  0  0  0  0999 V2000
   -2.1149   -0.0208   -0.0441 C   0  0  0  0  0  0  0  0  0  0  0  0
   -0.6727   -0.0770    0.0207 N   0  0  0  0  0  0  0  0  0  0  0  0
    0.1406   -1.1857    0.0579 C   0  0  0  0  0  0  0  0  0  0  0  0
    1.4297   -0.6913    0.0044 C   0  0  0  0  0  0  0  0  0  0  0  0
    1.2923    0.7027   -0.0186 C   0  0  0  0  0  0  0  0  0  0  0  0
    0.0152    1.0864    0.0030 N   0  0  0  0  0  0  0  0  0  0  0  0
   -0.2868   -2.5743    0.0689 C   0  0  0  0  0  0  0  0  0  0  0  0
   -1.0896   -3.0720   -0.9561 C   0  0  0  0  0  0  0  0  0  0  0  0
   -1.4288   -4.4209   -0.9889 C   0  0  0  0  0  0  0  0  0  0  0  0
   -0.9375   -5.3068   -0.0279 C   0  0  0  0  0  0  0  0  0  0  0  0
   -0.0953   -4.8122    0.9744 C   0  0  0  0  0  0  0  0  0  0  0  0
    0.1894   -3.4477    1.0508 C   0  0  0  0  0  0  0  0  0  0  0  0
   -1.3551   -7.0319    0.0363 S   0  0  0  0  0  0  0  0  0  0  0  0
   -2.4548   -7.3007   -1.3362 C   0  0  0  0  0  0  0  0  0  0  0  0
   -2.0170   -7.2013   -2.6516 C   0  0  0  0  0  0  0  0  0  0  0  0
   -2.8755   -7.5204   -3.6958 C   0  0  0  0  0  0  0  0  0  0  0  0
   -4.1348   -8.0543   -3.4212 C   0  0  0  0  0  0  0  0  0  0  0  0
   -4.5728   -8.2624   -2.0957 C   0  0  0  0  0  0  0  0  0  0  0  0
   -3.7520   -7.7464   -1.0820 C   0  0  0  0  0  0  0  0  0  0  0  0
   -5.8620   -9.0973   -1.8100 C   0  0  0  0  0  0  0  0  0  0  0  0
   -5.7031  -10.4840   -2.5025 C   0  0  0  0  0  0  0  0  0  0  0  0
   -7.0130  -11.2535   -2.5858 C   0  0  0  0  0  0  0  0  0  0  0  0
   -8.0764  -10.4671   -3.1189 O   0  0  0  0  0  0  0  0  0  0  0  0
   -8.2991   -9.1877   -2.5295 C   0  0  0  0  0  0  0  0  0  0  0  0
   -7.0373   -8.3519   -2.4743 C   0  0  0  0  0  0  0  0  0  0  0  0
   -6.1309   -9.3719   -0.2677 C   0  0  0  0  0  0  0  0  0  0  0  0
   -5.3903   -9.0638    0.6702 O   0  0  0  0  0  0  0  0  0  0  0  0
   -7.2302  -10.0467    0.1535 N   0  0  0  0  0  0  0  0  0  0  0  0
   -2.4820    0.5899    0.7835 H   0  0  0  0  0  0  0  0  0  0  0  0
   -2.3910    0.4239   -1.0043 H   0  0  0  0  0  0  0  0  0  0  0  0
   -2.5448   -1.0199    0.0320 H   0  0  0  0  0  0  0  0  0  0  0  0
    2.3395   -1.2737   -0.0362 H   0  0  0  0  0  0  0  0  0  0  0  0
    2.0724    1.4512   -0.0607 H   0  0  0  0  0  0  0  0  0  0  0  0
   -1.4580   -2.4221   -1.7452 H   0  0  0  0  0  0  0  0  0  0  0  0
   -2.0762   -4.7490   -1.7931 H   0  0  0  0  0  0  0  0  0  0  0  0
    0.3466   -5.4844    1.7079 H   0  0  0  0  0  0  0  0  0  0  0  0
    0.7878   -3.0747    1.8790 H   0  0  0  0  0  0  0  0  0  0  0  0
   -1.0131   -6.8483   -2.8636 H   0  0  0  0  0  0  0  0  0  0  0  0
   -2.5453   -7.4030   -4.7235 H   0  0  0  0  0  0  0  0  0  0  0  0
   -4.7559   -8.3326   -4.2710 H   0  0  0  0  0  0  0  0  0  0  0  0
   -4.0704   -7.7028   -0.0486 H   0  0  0  0  0  0  0  0  0  0  0  0
   -5.3526  -10.3694   -3.5374 H   0  0  0  0  0  0  0  0  0  0  0  0
   -4.9396  -11.0875   -1.9942 H   0  0  0  0  0  0  0  0  0  0  0  0
   -6.8882  -12.1272   -3.2350 H   0  0  0  0  0  0  0  0  0  0  0  0
   -7.2945  -11.6902   -1.6271 H   0  0  0  0  0  0  0  0  0  0  0  0
   -8.7661   -9.2779   -1.5494 H   0  0  0  0  0  0  0  0  0  0  0  0
   -9.0498   -8.6708   -3.1358 H   0  0  0  0  0  0  0  0  0  0  0  0
   -7.2210   -7.3929   -1.9767 H   0  0  0  0  0  0  0  0  0  0  0  0
   -6.7961   -8.1093   -3.5195 H   0  0  0  0  0  0  0  0  0  0  0  0
   -7.9479  -10.4782   -0.4021 H   0  0  0  0  0  0  0  0  0  0  0  0
   -7.2753  -10.2177    1.1498 H   0  0  0  0  0  0  0  0  0  0  0  0
  1  2  1  0  0  0  0
  1 29  1  0  0  0  0
  1 30  1  0  0  0  0
  1 31  1  0  0  0  0
  2  3  1  0  0  0  0
  2  6  1  0  0  0  0
  3  4  2  0  0  0  0
  3  7  1  0  0  0  0
  4  5  1  0  0  0  0
  4 32  1  0  0  0  0
  5  6  2  0  0  0  0
  5 33  1  0  0  0  0
  7  8  2  0  0  0  0
  7 12  1  0  0  0  0
  8  9  1  0  0  0  0
  8 34  1  0  0  0  0
  9 10  2  0  0  0  0
  9 35  1  0  0  0  0
 10 11  1  0  0  0  0
 10 13  1  0  0  0  0
 11 12  2  0  0  0  0
 11 36  1  0  0  0  0
 12 37  1  0  0  0  0
 13 14  1  0  0  0  0
 14 15  2  0  0  0  0
 14 19  1  0  0  0  0
 15 16  1  0  0  0  0
 15 38  1  0  0  0  0
 16 17  2  0  0  0  0
 16 39  1  0  0  0  0
 17 18  1  0  0  0  0
 17 40  1  0  0  0  0
 18 19  2  0  0  0  0
 18 20  1  0  0  0  0
 19 41  1  0  0  0  0
 20 21  1  0  0  0  0
 20 25  1  0  0  0  0
 20 26  1  0  0  0  0
 21 22  1  0  0  0  0
 21 42  1  0  0  0  0
 21 43  1  0  0  0  0
 22 23  1  0  0  0  0
 22 44  1  0  0  0  0
 22 45  1  0  0  0  0
 23 24  1  0  0  0  0
 24 25  1  0  0  0  0
 24 46  1  0  0  0  0
 24 47  1  0  0  0  0
 25 48  1  0  0  0  0
 25 49  1  0  0  0  0
 26 27  2  0  0  0  0
 26 28  1  0  0  0  0
 28 50  1  0  0  0  0
 28 51  1  0  0  0  0
M  END
>  <DRUGBANK_ID>
DB11645

>  <COMMON_NAME>
PF-4191834

>  <CAS_NUMBER>
1029317-21-2

>  <UNII>
YX55DXP4T1

$$$$
