
 OpenBabel10282417213D

145154  0  0  0  0  0  0  0  0999 V2000
  -18.2416   10.3025  -10.0497 N   0  0  0  0  0  0  0  0  0  0  0  0
  -18.9133   10.8741  -11.2447 C   0  0  2  0  0  0  0  0  0  0  0  0
  -18.1596   10.1550  -12.3685 C   0  0  0  0  0  0  0  0  0  0  0  0
  -16.7127   10.1918  -11.8974 C   0  0  0  0  0  0  0  0  0  0  0  0
  -16.7921   10.0161  -10.3583 C   0  0  2  0  0  0  0  0  0  0  0  0
  -16.2905    8.5833  -10.1741 C   0  0  0  0  0  0  0  0  0  0  0  0
  -18.7697   12.3911  -11.3564 C   0  0  0  0  0  0  0  0  0  0  0  0
  -18.1967   13.1671  -10.3318 C   0  0  0  0  0  0  0  0  0  0  0  0
  -18.1171   14.5594  -10.4474 C   0  0  0  0  0  0  0  0  0  0  0  0
  -18.6108   15.1705  -11.5893 C   0  0  0  0  0  0  0  0  0  0  0  0
  -19.1634   14.4539  -12.6532 C   0  0  0  0  0  0  0  0  0  0  0  0
  -19.2305   13.0609  -12.5020 C   0  0  0  0  0  0  0  0  0  0  0  0
  -15.3716    5.8577   -9.8420 C   0  0  0  0  0  0  0  0  0  0  0  0
  -16.7152    6.1454   -9.8206 C   0  0  0  0  0  0  0  0  0  0  0  0
  -17.1543    7.5164   -9.9401 C   0  0  0  0  0  0  0  0  0  0  0  0
  -14.9431    8.2277  -10.2930 C   0  0  0  0  0  0  0  0  0  0  0  0
  -14.4555    6.8927  -10.1220 C   0  0  0  0  0  0  0  0  0  0  0  0
  -18.4193   16.5080  -11.3518 N   0  0  0  0  0  0  0  0  0  0  0  0
  -17.8436   16.6550  -10.1042 C   0  0  0  0  0  0  0  0  0  0  0  0
  -17.5966   15.4749   -9.5716 N   0  0  0  0  0  0  0  0  0  0  0  0
  -15.2927    4.5767   -9.2293 N   0  0  0  0  0  0  0  0  0  0  0  0
  -16.5492    4.2736   -8.6680 C   0  0  0  0  0  0  0  0  0  0  0  0
  -17.3739    5.0064   -9.3933 N   0  0  0  0  0  0  0  0  0  0  0  0
  -17.5387   17.9946   -9.5183 C   0  0  1  0  0  0  0  0  0  0  0  0
  -16.9766    3.1676   -7.6255 C   0  0  2  0  0  0  0  0  0  0  0  0
  -18.0850   18.2859   -8.1697 N   0  0  0  0  0  0  0  0  0  0  0  0
  -17.2356   19.2990   -7.5380 C   0  0  0  0  0  0  0  0  0  0  0  0
  -15.9506   19.3748   -8.3752 C   0  0  0  0  0  0  0  0  0  0  0  0
  -16.0284   18.1650   -9.2949 C   0  0  0  0  0  0  0  0  0  0  0  0
  -19.2788   17.7567   -7.6557 C   0  0  0  0  0  0  0  0  0  0  0  0
  -19.7876   18.1874   -6.2143 C   0  0  1  0  0  0  0  0  0  0  0  0
  -19.9932   17.0201   -8.3429 O   0  0  0  0  0  0  0  0  0  0  0  0
  -21.2191   18.6441   -6.2829 N   0  0  0  0  0  0  0  0  0  0  0  0
  -19.5800   17.1939   -5.0388 C   0  0  2  0  0  0  0  0  0  0  0  0
  -18.7088   17.7218   -4.0169 O   0  0  0  0  0  0  0  0  0  0  0  0
  -19.4929   18.1683   -2.8910 C   0  0  0  0  0  0  0  0  0  0  0  0
  -19.2540   15.7662   -5.4212 C   0  0  0  0  0  0  0  0  0  0  0  0
  -22.3188   17.9669   -5.7730 C   0  0  0  0  0  0  0  0  0  0  0  0
  -23.5062   18.6218   -5.7833 O   0  0  0  0  0  0  0  0  0  0  0  0
  -22.3123   16.8633   -5.2451 O   0  0  0  0  0  0  0  0  0  0  0  0
  -23.7450   19.7796   -6.5647 C   0  0  0  0  0  0  0  0  0  0  0  0
  -19.7616   12.3548  -13.5129 F   0  0  0  0  0  0  0  0  0  0  0  0
  -18.9114   10.1697   -8.8461 C   0  0  0  0  0  0  0  0  0  0  0  0
  -20.0625    9.3726   -8.7393 C   0  0  0  0  0  0  0  0  0  0  0  0
  -20.6860    9.0986   -7.4968 C   0  0  0  0  0  0  0  0  0  0  0  0
  -20.2682    9.6806   -6.3011 C   0  0  0  0  0  0  0  0  0  0  0  0
  -19.1664   10.5377   -6.4291 C   0  0  0  0  0  0  0  0  0  0  0  0
  -18.4841   10.7478   -7.6505 C   0  0  0  0  0  0  0  0  0  0  0  0
  -21.6778    8.1880   -7.4779 F   0  0  0  0  0  0  0  0  0  0  0  0
  -18.6826   11.1499   -5.3352 F   0  0  0  0  0  0  0  0  0  0  0  0
  -20.8778    9.4270   -5.0851 N   0  0  0  0  0  0  0  0  0  0  0  0
  -21.5539   10.4820   -4.3469 C   0  0  0  0  0  0  0  0  0  0  0  0
  -20.9425   10.6056   -2.9544 C   0  0  0  0  0  0  0  0  0  0  0  0
  -20.9117    9.2532   -2.2014 C   0  0  3  0  0  0  0  0  0  0  0  0
  -20.3180    8.1566   -3.1223 C   0  0  0  0  0  0  0  0  0  0  0  0
  -20.9621    8.0964   -4.5049 C   0  0  0  0  0  0  0  0  0  0  0  0
  -20.1284    9.4107   -0.8931 C   0  0  0  0  0  0  0  0  0  0  0  0
  -20.5019   10.3806    0.0543 C   0  0  0  0  0  0  0  0  0  0  0  0
  -19.6310   10.7184    1.0945 C   0  0  0  0  0  0  0  0  0  0  0  0
  -18.4648    9.9874    1.2806 C   0  0  0  0  0  0  0  0  0  0  0  0
  -18.1687    8.9084    0.4683 C   0  0  0  0  0  0  0  0  0  0  0  0
  -18.9700    8.6556   -0.6388 C   0  0  0  0  0  0  0  0  0  0  0  0
  -17.6097   10.3299    2.2521 F   0  0  0  0  0  0  0  0  0  0  0  0
  -14.0479    9.2010  -10.5249 F   0  0  0  0  0  0  0  0  0  0  0  0
  -18.1452    2.4043   -8.2869 C   0  0  0  0  0  0  0  0  0  0  0  0
  -18.7364    1.5057   -7.2156 C   0  0  0  0  0  0  0  0  0  0  0  0
  -18.5682    2.3024   -5.9325 C   0  0  0  0  0  0  0  0  0  0  0  0
  -17.6327    3.4013   -6.2539 N   0  0  0  0  0  0  0  0  0  0  0  0
  -17.5203    4.4140   -5.3025 C   0  0  0  0  0  0  0  0  0  0  0  0
  -18.1567    4.4010   -4.2392 O   0  0  0  0  0  0  0  0  0  0  0  0
  -16.6587    5.6281   -5.6174 C   0  0  1  0  0  0  0  0  0  0  0  0
  -15.2152    5.0550   -5.9005 N   0  0  0  0  0  0  0  0  0  0  0  0
  -14.1428    5.3546   -6.7129 C   0  0  0  0  0  0  0  0  0  0  0  0
  -13.4261    4.2455   -7.0267 O   0  0  0  0  0  0  0  0  0  0  0  0
  -13.8298    6.3864   -7.3216 O   0  0  0  0  0  0  0  0  0  0  0  0
  -12.5312    3.9113   -5.9886 C   0  0  0  0  0  0  0  0  0  0  0  0
  -17.4979    6.5629   -6.6237 C   0  0  2  0  0  0  0  0  0  0  0  0
  -18.4666    5.7522   -7.3382 O   0  0  0  0  0  0  0  0  0  0  0  0
  -19.3592    6.0547   -8.4131 C   0  0  0  0  0  0  0  0  0  0  0  0
  -16.3130    7.2753   -7.1890 C   0  0  0  0  0  0  0  0  0  0  0  0
  -19.9811   10.6244  -11.2782 H   0  0  0  0  0  0  0  0  0  0  0  0
  -18.5041    9.1136  -12.4309 H   0  0  0  0  0  0  0  0  0  0  0  0
  -18.2578   10.5921  -13.3638 H   0  0  0  0  0  0  0  0  0  0  0  0
  -16.1438    9.3987  -12.3981 H   0  0  0  0  0  0  0  0  0  0  0  0
  -16.2296   11.1367  -12.1628 H   0  0  0  0  0  0  0  0  0  0  0  0
  -16.1604   10.7618   -9.8518 H   0  0  0  0  0  0  0  0  0  0  0  0
  -17.8082   12.7272   -9.4272 H   0  0  0  0  0  0  0  0  0  0  0  0
  -19.5415   14.9301  -13.5497 H   0  0  0  0  0  0  0  0  0  0  0  0
  -18.1074    7.8226   -9.5198 H   0  0  0  0  0  0  0  0  0  0  0  0
  -13.3916    6.7356  -10.0191 H   0  0  0  0  0  0  0  0  0  0  0  0
  -18.6855   17.2543  -11.9771 H   0  0  0  0  0  0  0  0  0  0  0  0
  -14.4280    4.1680   -8.9128 H   0  0  0  0  0  0  0  0  0  0  0  0
  -17.8869   18.7908  -10.1930 H   0  0  0  0  0  0  0  0  0  0  0  0
  -16.1391    2.4938   -7.4101 H   0  0  0  0  0  0  0  0  0  0  0  0
  -17.0337   19.0379   -6.4985 H   0  0  0  0  0  0  0  0  0  0  0  0
  -17.7482   20.2691   -7.5722 H   0  0  0  0  0  0  0  0  0  0  0  0
  -15.0495   19.3660   -7.7521 H   0  0  0  0  0  0  0  0  0  0  0  0
  -15.9195   20.2968   -8.9702 H   0  0  0  0  0  0  0  0  0  0  0  0
  -15.6082   17.2923   -8.7762 H   0  0  0  0  0  0  0  0  0  0  0  0
  -15.4591   18.2999  -10.2214 H   0  0  0  0  0  0  0  0  0  0  0  0
  -19.2436   19.1036   -5.9628 H   0  0  0  0  0  0  0  0  0  0  0  0
  -21.3776   19.4459   -6.8670 H   0  0  0  0  0  0  0  0  0  0  0  0
  -20.5031   17.0814   -4.4971 H   0  0  0  0  0  0  0  0  0  0  0  0
  -20.1229   19.0196   -3.1778 H   0  0  0  0  0  0  0  0  0  0  0  0
  -20.1346   17.3612   -2.5092 H   0  0  0  0  0  0  0  0  0  0  0  0
  -18.8228   18.4717   -2.0864 H   0  0  0  0  0  0  0  0  0  0  0  0
  -19.3045   15.1285   -4.5304 H   0  0  0  0  0  0  0  0  0  0  0  0
  -19.9917   15.3800   -6.1351 H   0  0  0  0  0  0  0  0  0  0  0  0
  -18.2521   15.6841   -5.8394 H   0  0  0  0  0  0  0  0  0  0  0  0
  -23.1727   20.6197   -6.1671 H   0  0  0  0  0  0  0  0  0  0  0  0
  -23.5062   19.5706   -7.6089 H   0  0  0  0  0  0  0  0  0  0  0  0
  -24.8112   20.0028   -6.4809 H   0  0  0  0  0  0  0  0  0  0  0  0
  -20.4229    8.8232   -9.6076 H   0  0  0  0  0  0  0  0  0  0  0  0
  -17.6208   11.4037   -7.6294 H   0  0  0  0  0  0  0  0  0  0  0  0
  -22.6131   10.2098   -4.2470 H   0  0  0  0  0  0  0  0  0  0  0  0
  -21.5214   11.4448   -4.8673 H   0  0  0  0  0  0  0  0  0  0  0  0
  -21.5148   11.3488   -2.3853 H   0  0  0  0  0  0  0  0  0  0  0  0
  -19.9204   10.9959   -3.0429 H   0  0  0  0  0  0  0  0  0  0  0  0
  -21.9411    8.9647   -1.9437 H   0  0  0  0  0  0  0  0  0  0  0  0
  -19.2498    8.3610   -3.2801 H   0  0  0  0  0  0  0  0  0  0  0  0
  -20.4010    7.1779   -2.6340 H   0  0  0  0  0  0  0  0  0  0  0  0
  -20.4398    7.3421   -5.1038 H   0  0  0  0  0  0  0  0  0  0  0  0
  -22.0094    7.7898   -4.4089 H   0  0  0  0  0  0  0  0  0  0  0  0
  -21.4454   10.9153   -0.0356 H   0  0  0  0  0  0  0  0  0  0  0  0
  -19.8450   11.5553    1.7509 H   0  0  0  0  0  0  0  0  0  0  0  0
  -17.3020    8.2883    0.6648 H   0  0  0  0  0  0  0  0  0  0  0  0
  -18.6381    7.8740   -1.3149 H   0  0  0  0  0  0  0  0  0  0  0  0
  -18.9325    3.1093   -8.5896 H   0  0  0  0  0  0  0  0  0  0  0  0
  -17.8232    1.8618   -9.1746 H   0  0  0  0  0  0  0  0  0  0  0  0
  -19.7865    1.2584   -7.4178 H   0  0  0  0  0  0  0  0  0  0  0  0
  -18.1824    0.5637   -7.1675 H   0  0  0  0  0  0  0  0  0  0  0  0
  -19.5285    2.6788   -5.5497 H   0  0  0  0  0  0  0  0  0  0  0  0
  -18.1487    1.6594   -5.1449 H   0  0  0  0  0  0  0  0  0  0  0  0
  -16.5166    6.2304   -4.7110 H   0  0  0  0  0  0  0  0  0  0  0  0
  -14.8983    4.5026   -5.1137 H   0  0  0  0  0  0  0  0  0  0  0  0
  -12.4226    4.7326   -5.2729 H   0  0  0  0  0  0  0  0  0  0  0  0
  -12.9618    3.0329   -5.5133 H   0  0  0  0  0  0  0  0  0  0  0  0
  -11.5510    3.6792   -6.4114 H   0  0  0  0  0  0  0  0  0  0  0  0
  -18.0891    7.3246   -6.1178 H   0  0  0  0  0  0  0  0  0  0  0  0
  -19.8711    6.9732   -8.2632 H   0  0  0  0  0  0  0  0  0  0  0  0
  -18.9981    6.1517   -9.4398 H   0  0  0  0  0  0  0  0  0  0  0  0
  -20.0243    5.2011   -8.6063 H   0  0  0  0  0  0  0  0  0  0  0  0
  -16.3800    8.0768   -7.8858 H   0  0  0  0  0  0  0  0  0  0  0  0
  -15.5999    7.6453   -6.4401 H   0  0  0  0  0  0  0  0  0  0  0  0
  -15.8411    6.4708   -7.6966 H   0  0  0  0  0  0  0  0  0  0  0  0
  1  2  1  0  0  0  0
  1  5  1  0  0  0  0
  1 43  1  0  0  0  0
  2  3  1  0  0  0  0
  2  7  1  0  0  0  0
  2 81  1  6  0  0  0
  3  4  1  0  0  0  0
  3 82  1  0  0  0  0
  3 83  1  0  0  0  0
  4  5  1  0  0  0  0
  4 84  1  0  0  0  0
  4 85  1  0  0  0  0
  5  6  1  0  0  0  0
  5 86  1  1  0  0  0
  6 16  1  0  0  0  0
  7  8  2  0  0  0  0
  8  9  1  0  0  0  0
  8 87  1  0  0  0  0
  9 10  2  0  0  0  0
  9 20  1  0  0  0  0
 10 11  1  0  0  0  0
 10 18  1  0  0  0  0
 11 12  2  0  0  0  0
 11 88  1  0  0  0  0
 12  7  1  0  0  0  0
 12 42  1  0  0  0  0
 13 21  1  0  0  0  0
 14 15  1  0  0  0  0
 14 13  2  0  0  0  0
 14 23  1  0  0  0  0
 15  6  2  0  0  0  0
 15 89  1  0  0  0  0
 16 17  2  0  0  0  0
 16 64  1  0  0  0  0
 17 13  1  0  0  0  0
 17 90  1  0  0  0  0
 18 19  1  0  0  0  0
 18 91  1  0  0  0  0
 19 20  2  0  0  0  0
 21 22  1  0  0  0  0
 21 92  1  0  0  0  0
 22 23  2  0  0  0  0
 24 19  1  0  0  0  0
 24 26  1  0  0  0  0
 24 29  1  0  0  0  0
 24 93  1  6  0  0  0
 25 22  1  0  0  0  0
 25 65  1  0  0  0  0
 25 68  1  0  0  0  0
 25 94  1  1  0  0  0
 26 27  1  0  0  0  0
 26 30  1  0  0  0  0
 27 28  1  0  0  0  0
 27 95  1  0  0  0  0
 27 96  1  0  0  0  0
 28 29  1  0  0  0  0
 28 97  1  0  0  0  0
 28 98  1  0  0  0  0
 29 99  1  0  0  0  0
 29100  1  0  0  0  0
 30 31  1  0  0  0  0
 30 32  2  0  0  0  0
 31 33  1  0  0  0  0
 31101  1  1  0  0  0
 33 38  1  0  0  0  0
 33102  1  0  0  0  0
 34 37  1  0  0  0  0
 34103  1  1  0  0  0
 34 35  1  0  0  0  0
 34 31  1  0  0  0  0
 35 36  1  0  0  0  0
 36104  1  0  0  0  0
 36105  1  0  0  0  0
 36106  1  0  0  0  0
 37107  1  0  0  0  0
 37108  1  0  0  0  0
 37109  1  0  0  0  0
 38 39  1  0  0  0  0
 38 40  2  0  0  0  0
 39 41  1  0  0  0  0
 41110  1  0  0  0  0
 41111  1  0  0  0  0
 41112  1  0  0  0  0
 43 44  1  0  0  0  0
 43 48  2  0  0  0  0
 44 45  2  0  0  0  0
 44113  1  0  0  0  0
 45 46  1  0  0  0  0
 45 49  1  0  0  0  0
 46 47  2  0  0  0  0
 46 51  1  0  0  0  0
 47 48  1  0  0  0  0
 47 50  1  0  0  0  0
 48114  1  0  0  0  0
 51 52  1  0  0  0  0
 52 53  1  0  0  0  0
 52115  1  0  0  0  0
 52116  1  0  0  0  0
 53 54  1  0  0  0  0
 53117  1  0  0  0  0
 53118  1  0  0  0  0
 54 55  1  0  0  0  0
 54 57  1  0  0  0  0
 54119  1  0  0  0  0
 55 56  1  0  0  0  0
 55120  1  0  0  0  0
 55121  1  0  0  0  0
 56 51  1  0  0  0  0
 56122  1  0  0  0  0
 56123  1  0  0  0  0
 57 58  1  0  0  0  0
 57 62  2  0  0  0  0
 58 59  2  0  0  0  0
 58124  1  0  0  0  0
 59 60  1  0  0  0  0
 59125  1  0  0  0  0
 60 61  2  0  0  0  0
 60 63  1  0  0  0  0
 61 62  1  0  0  0  0
 61126  1  0  0  0  0
 62127  1  0  0  0  0
 65 66  1  0  0  0  0
 65128  1  0  0  0  0
 65129  1  0  0  0  0
 66 67  1  0  0  0  0
 66130  1  0  0  0  0
 66131  1  0  0  0  0
 67 68  1  0  0  0  0
 67132  1  0  0  0  0
 67133  1  0  0  0  0
 68 69  1  0  0  0  0
 69 70  2  0  0  0  0
 69 71  1  0  0  0  0
 71 72  1  0  0  0  0
 71134  1  1  0  0  0
 72 73  1  0  0  0  0
 72135  1  0  0  0  0
 73 74  1  0  0  0  0
 73 75  2  0  0  0  0
 74 76  1  0  0  0  0
 76136  1  0  0  0  0
 76137  1  0  0  0  0
 76138  1  0  0  0  0
 77 80  1  0  0  0  0
 77139  1  1  0  0  0
 77 78  1  0  0  0  0
 77 71  1  0  0  0  0
 78 79  1  0  0  0  0
 79140  1  0  0  0  0
 79141  1  0  0  0  0
 79142  1  0  0  0  0
 80143  1  0  0  0  0
 80144  1  0  0  0  0
 80145  1  0  0  0  0
M  END
>  <DRUGBANK_ID>
DB13878

>  <COMMON_NAME>
Pibrentasvir

>  <CAS_NUMBER>
1353900-92-1

>  <UNII>
2WU922TK3L

>  <SYNONYMS>
Pibrentasvir

$$$$
