THK
 OpenBabel10282417173D

 56 59  0  0  0  0  0  0  0  0999 V2000
    1.6467    0.3958    0.1375 N   0  0  0  0  0  0  0  0  0  0  0  0
    0.7854    1.5365    0.3491 C   0  0  0  0  0  0  0  0  0  0  0  0
   -0.3489    1.4847   -0.6801 C   0  0  0  0  0  0  0  0  0  0  0  0
   -1.1637    0.1609   -0.6619 C   0  0  0  0  0  0  0  0  0  0  0  0
   -1.9213    0.0576    0.5567 O   0  0  0  0  0  0  0  0  0  0  0  0
   -0.2216   -1.0116   -0.7840 C   0  0  0  0  0  0  0  0  0  0  0  0
    0.8457   -0.7914    0.2091 C   0  0  0  0  0  0  0  0  0  0  0  0
    2.7587    0.3070    1.0908 C   0  0  0  0  0  0  0  0  0  0  0  0
    2.3956   -0.0514    2.5431 C   0  0  0  0  0  0  0  0  0  0  0  0
    1.8366   -1.4828    2.8767 C   0  0  0  0  0  0  0  0  0  0  0  0
    2.6634   -2.7400    2.4103 C   0  0  0  0  0  0  0  0  0  0  0  0
    2.9634   -3.0465    0.9017 C   0  0  0  0  0  0  0  0  0  0  0  0
    1.9713   -3.5655    0.0054 C   0  0  0  0  0  0  0  0  0  0  0  0
    2.0903   -3.4118   -1.3893 C   0  0  0  0  0  0  0  0  0  0  0  0
    3.2513   -2.8535   -1.9303 C   0  0  0  0  0  0  0  0  0  0  0  0
    3.3175   -2.5739   -3.2269 F   0  0  0  0  0  0  0  0  0  0  0  0
    4.3024   -2.5164   -1.0871 C   0  0  0  0  0  0  0  0  0  0  0  0
    4.1728   -2.6327    0.2966 C   0  0  0  0  0  0  0  0  0  0  0  0
   -2.1669    0.0854   -1.7858 C   0  0  0  0  0  0  0  0  0  0  0  0
   -3.1152    1.1049   -1.8904 C   0  0  0  0  0  0  0  0  0  0  0  0
   -4.0105    1.1122   -2.9454 C   0  0  0  0  0  0  0  0  0  0  0  0
   -3.9811    0.0917   -3.8957 C   0  0  0  0  0  0  0  0  0  0  0  0
   -5.0965    0.1031   -5.1977 Cl  0  0  0  0  0  0  0  0  0  0  0  0
   -3.0637   -0.9457   -3.7978 C   0  0  0  0  0  0  0  0  0  0  0  0
   -2.1756   -0.9557   -2.7399 C   0  0  0  0  0  0  0  0  0  0  0  0
    1.8318   -4.2689    3.0707 S   0  0  0  0  0  0  0  0  0  0  0  0
    3.3970   -5.0334    3.5273 C   0  0  0  0  0  0  0  0  0  0  0  0
    4.0103   -4.0024    4.4441 C   0  0  0  0  0  0  0  0  0  0  0  0
    4.2160   -2.5289    3.4351 S   0  0  0  0  0  0  0  0  0  0  0  0
    1.3708    2.4514    0.2244 H   0  0  0  0  0  0  0  0  0  0  0  0
    0.3728    1.5332    1.3633 H   0  0  0  0  0  0  0  0  0  0  0  0
    0.0883    1.6099   -1.6799 H   0  0  0  0  0  0  0  0  0  0  0  0
   -0.9932    2.3414   -0.4750 H   0  0  0  0  0  0  0  0  0  0  0  0
   -1.3244    0.0714    1.3215 H   0  0  0  0  0  0  0  0  0  0  0  0
   -0.7284   -1.9624   -0.5449 H   0  0  0  0  0  0  0  0  0  0  0  0
    0.2423   -1.1070   -1.7720 H   0  0  0  0  0  0  0  0  0  0  0  0
    1.5438   -1.5496    0.0613 H   0  0  0  0  0  0  0  0  0  0  0  0
    0.3385   -0.8903    1.1490 H   0  0  0  0  0  0  0  0  0  0  0  0
    3.4830   -0.4133    0.7231 H   0  0  0  0  0  0  0  0  0  0  0  0
    3.3315    1.2405    1.0561 H   0  0  0  0  0  0  0  0  0  0  0  0
    3.2995    0.1125    3.1406 H   0  0  0  0  0  0  0  0  0  0  0  0
    1.6917    0.7025    2.9183 H   0  0  0  0  0  0  0  0  0  0  0  0
    1.7405   -1.4830    3.9766 H   0  0  0  0  0  0  0  0  0  0  0  0
    0.7784   -1.6000    2.6340 H   0  0  0  0  0  0  0  0  0  0  0  0
    0.9723   -3.8249    0.3773 H   0  0  0  0  0  0  0  0  0  0  0  0
    1.2355   -3.5472   -2.0496 H   0  0  0  0  0  0  0  0  0  0  0  0
    5.1924   -2.0578   -1.5167 H   0  0  0  0  0  0  0  0  0  0  0  0
    4.9879   -2.2376    0.8994 H   0  0  0  0  0  0  0  0  0  0  0  0
   -3.1428    1.8918   -1.1384 H   0  0  0  0  0  0  0  0  0  0  0  0
   -4.7262    1.9235   -3.0185 H   0  0  0  0  0  0  0  0  0  0  0  0
   -3.0224   -1.7449   -4.5323 H   0  0  0  0  0  0  0  0  0  0  0  0
   -1.4851   -1.7971   -2.6965 H   0  0  0  0  0  0  0  0  0  0  0  0
    3.2345   -5.9911    4.0164 H   0  0  0  0  0  0  0  0  0  0  0  0
    4.0164   -5.1990    2.6346 H   0  0  0  0  0  0  0  0  0  0  0  0
    3.3659   -3.7893    5.3076 H   0  0  0  0  0  0  0  0  0  0  0  0
    4.9930   -4.2932    4.8087 H   0  0  0  0  0  0  0  0  0  0  0  0
  1  2  1  0  0  0  0
  1  7  1  0  0  0  0
  1  8  1  0  0  0  0
  2  3  1  0  0  0  0
  2 30  1  0  0  0  0
  2 31  1  0  0  0  0
  3  4  1  0  0  0  0
  3 32  1  0  0  0  0
  3 33  1  0  0  0  0
  4  5  1  0  0  0  0
  4  6  1  0  0  0  0
  4 19  1  0  0  0  0
  5 34  1  0  0  0  0
  6  7  1  0  0  0  0
  6 35  1  0  0  0  0
  6 36  1  0  0  0  0
  7 37  1  0  0  0  0
  7 38  1  0  0  0  0
  8  9  1  0  0  0  0
  8 39  1  0  0  0  0
  8 40  1  0  0  0  0
  9 10  1  0  0  0  0
  9 41  1  0  0  0  0
  9 42  1  0  0  0  0
 10 11  1  0  0  0  0
 10 43  1  0  0  0  0
 10 44  1  0  0  0  0
 11 12  1  0  0  0  0
 11 26  1  0  0  0  0
 11 29  1  0  0  0  0
 12 13  2  0  0  0  0
 12 18  1  0  0  0  0
 13 14  1  0  0  0  0
 13 45  1  0  0  0  0
 14 15  2  0  0  0  0
 14 46  1  0  0  0  0
 15 16  1  0  0  0  0
 15 17  1  0  0  0  0
 17 18  2  0  0  0  0
 17 47  1  0  0  0  0
 18 48  1  0  0  0  0
 19 20  2  0  0  0  0
 19 25  1  0  0  0  0
 20 21  1  0  0  0  0
 20 49  1  0  0  0  0
 21 22  2  0  0  0  0
 21 50  1  0  0  0  0
 22 23  1  0  0  0  0
 22 24  1  0  0  0  0
 24 25  2  0  0  0  0
 24 51  1  0  0  0  0
 25 52  1  0  0  0  0
 26 27  1  0  0  0  0
 27 28  1  0  0  0  0
 27 53  1  0  0  0  0
 27 54  1  0  0  0  0
 28 29  1  0  0  0  0
 28 55  1  0  0  0  0
 28 56  1  0  0  0  0
M  END
>  <DRUGBANK_ID>
DB08622

>  <COMMON_NAME>
4-(4-CHLORO-PHENYL)-1-{3-[2-(4-FLUORO-PHENYL)-[1,3]DITHIOLAN-2-YL]-PROPYL}-PIPERIDIN-4-OL

$$$$
