
 OpenBabel10282417173D

 46 49  0  0  0  0  0  0  0  0999 V2000
   -0.7568    1.2599    0.2401 C   0  0  0  0  0  0  0  0  0  0  0  0
    0.6870    1.1613   -0.2743 C   0  0  0  0  0  0  0  0  0  0  0  0
    1.3370   -0.0303    0.1958 O   0  0  0  0  0  0  0  0  0  0  0  0
    0.6214   -1.1879   -0.2678 C   0  0  0  0  0  0  0  0  0  0  0  0
   -0.8245   -1.2182    0.2657 C   0  0  0  0  0  0  0  0  0  0  0  0
   -1.5256    0.0383   -0.0288 N   0  0  0  0  0  0  0  0  0  0  0  0
   -2.6034    0.0250   -0.8845 C   0  0  0  0  0  0  0  0  0  0  0  0
   -2.5475    0.6210   -2.1273 C   0  0  0  0  0  0  0  0  0  0  0  0
   -3.6333    0.5591   -2.9984 C   0  0  0  0  0  0  0  0  0  0  0  0
   -3.8060   -0.6138   -0.5479 C   0  0  0  0  0  0  0  0  0  0  0  0
   -4.9093   -0.6652   -1.4373 C   0  0  0  0  0  0  0  0  0  0  0  0
   -4.8615   -0.0371   -2.6884 C   0  0  0  0  0  0  0  0  0  0  0  0
   -6.0309   -0.0028   -3.5083 N   0  0  0  0  0  0  0  0  0  0  0  0
   -6.1113    0.6448   -4.6384 C   0  0  0  0  0  0  0  0  0  0  0  0
   -5.0192    1.2638   -5.1486 N   0  0  0  0  0  0  0  0  0  0  0  0
   -7.3155    0.6400   -5.2955 N   0  0  0  0  0  0  0  0  0  0  0  0
   -7.4651    1.5188   -6.2373 C   0  0  0  0  0  0  0  0  0  0  0  0
   -6.4427    2.5567   -6.5992 C   0  0  0  0  0  0  0  0  0  0  0  0
   -5.1204    2.1886   -6.0398 C   0  0  0  0  0  0  0  0  0  0  0  0
   -3.8893    2.7828   -6.5114 C   0  0  0  0  0  0  0  0  0  0  0  0
   -3.5754    4.4643   -6.4315 S   0  0  0  0  0  0  0  0  0  0  0  0
   -2.7729    2.1314   -7.0105 C   0  0  0  0  0  0  0  0  0  0  0  0
   -2.6177    0.6729   -7.2474 C   0  0  0  0  0  0  0  0  0  0  0  0
   -1.7141    2.9574   -7.3516 N   0  0  0  0  0  0  0  0  0  0  0  0
   -2.0011    4.2064   -7.0872 C   0  0  0  0  0  0  0  0  0  0  0  0
   -1.1399    5.2039   -7.3246 N   0  0  0  0  0  0  0  0  0  0  0  0
   -0.7281    1.3617    1.3308 H   0  0  0  0  0  0  0  0  0  0  0  0
   -1.2414    2.1597   -0.1554 H   0  0  0  0  0  0  0  0  0  0  0  0
    0.7282    1.1784   -1.3693 H   0  0  0  0  0  0  0  0  0  0  0  0
    1.2658    2.0165    0.0917 H   0  0  0  0  0  0  0  0  0  0  0  0
    1.1650   -2.0705    0.0857 H   0  0  0  0  0  0  0  0  0  0  0  0
    0.6480   -1.2002   -1.3641 H   0  0  0  0  0  0  0  0  0  0  0  0
   -0.7969   -1.3142    1.3557 H   0  0  0  0  0  0  0  0  0  0  0  0
   -1.3432   -2.0947   -0.1393 H   0  0  0  0  0  0  0  0  0  0  0  0
   -1.6566    1.1284   -2.4803 H   0  0  0  0  0  0  0  0  0  0  0  0
   -3.4216    1.0136   -3.9492 H   0  0  0  0  0  0  0  0  0  0  0  0
   -3.9075   -1.0420    0.4472 H   0  0  0  0  0  0  0  0  0  0  0  0
   -5.8043   -1.2024   -1.1286 H   0  0  0  0  0  0  0  0  0  0  0  0
   -8.4122    1.5398   -6.8013 H   0  0  0  0  0  0  0  0  0  0  0  0
   -6.7642    3.5284   -6.2169 H   0  0  0  0  0  0  0  0  0  0  0  0
   -6.3640    2.6094   -7.6896 H   0  0  0  0  0  0  0  0  0  0  0  0
   -2.4623    0.4882   -8.3144 H   0  0  0  0  0  0  0  0  0  0  0  0
   -1.7587    0.2866   -6.6920 H   0  0  0  0  0  0  0  0  0  0  0  0
   -3.5025    0.1095   -6.9408 H   0  0  0  0  0  0  0  0  0  0  0  0
   -0.2150    4.9829   -7.6765 H   0  0  0  0  0  0  0  0  0  0  0  0
   -1.3197    6.1656   -7.0747 H   0  0  0  0  0  0  0  0  0  0  0  0
  1  2  1  0  0  0  0
  1  6  1  0  0  0  0
  1 27  1  0  0  0  0
  1 28  1  0  0  0  0
  2  3  1  0  0  0  0
  2 29  1  0  0  0  0
  2 30  1  0  0  0  0
  3  4  1  0  0  0  0
  4  5  1  0  0  0  0
  4 31  1  0  0  0  0
  4 32  1  0  0  0  0
  5  6  1  0  0  0  0
  5 33  1  0  0  0  0
  5 34  1  0  0  0  0
  6  7  1  0  0  0  0
  7  8  2  0  0  0  0
  7 10  1  0  0  0  0
  8  9  1  0  0  0  0
  8 35  1  0  0  0  0
  9 12  2  0  0  0  0
  9 36  1  0  0  0  0
 10 11  2  0  0  0  0
 10 37  1  0  0  0  0
 11 12  1  0  0  0  0
 11 38  1  0  0  0  0
 12 13  1  0  0  0  0
 13 14  2  0  0  0  0
 14 15  1  0  0  0  0
 14 16  1  0  0  0  0
 15 19  2  0  0  0  0
 16 17  2  0  0  0  0
 17 18  1  0  0  0  0
 17 39  1  0  0  0  0
 18 19  1  0  0  0  0
 18 40  1  0  0  0  0
 18 41  1  0  0  0  0
 19 20  1  0  0  0  0
 20 21  1  0  0  0  0
 20 22  2  0  0  0  0
 21 25  1  0  0  0  0
 22 23  1  0  0  0  0
 22 24  1  0  0  0  0
 23 42  1  0  0  0  0
 23 43  1  0  0  0  0
 23 44  1  0  0  0  0
 24 25  2  0  0  0  0
 25 26  1  0  0  0  0
 26 45  1  0  0  0  0
 26 46  1  0  0  0  0
M  END
>  <DRUGBANK_ID>
DB08219

>  <COMMON_NAME>
4-Methyl-5-[(2Z)-2-{[4-(4-morpholinyl)phenyl]imino}-2,5-dihydro-4-pyrimidinyl]-1,3-thiazol-2-amine

>  <CAS_NUMBER>
1059105-22-4

$$$$
