
 OpenBabel10282417203D

 46 46  0  0  0  0  0  0  0  0999 V2000
    1.4247   -0.1190    0.1760 C   0  0  0  0  0  0  0  0  0  0  0  0
    0.6581   -1.2598    0.1018 C   0  0  0  0  0  0  0  0  0  0  0  0
    0.7308    1.1107    0.2641 C   0  0  0  0  0  0  0  0  0  0  0  0
    2.9052   -0.3947    0.2210 C   0  0  0  0  0  0  0  0  0  0  0  0
   -0.7074   -1.1371    0.2289 C   0  0  0  0  0  0  0  0  0  0  0  0
   -0.6404    1.2313    0.1333 C   0  0  0  0  0  0  0  0  0  0  0  0
    3.8112    0.6130    0.1656 O   0  0  0  0  0  0  0  0  0  0  0  0
    3.2939   -1.5439    0.2936 O   0  0  0  0  0  0  0  0  0  0  0  0
   -1.3661    0.0767    0.0912 C   0  0  0  0  0  0  0  0  0  0  0  0
    3.4646    1.9855    0.0053 C   0  0  0  0  0  0  0  0  0  0  0  0
   -2.7458    0.2755   -0.0267 O   0  0  0  0  0  0  0  0  0  0  0  0
    2.8470    2.2331   -1.3754 C   0  0  0  0  0  0  0  0  0  0  0  0
   -3.7277   -0.6137   -0.4085 C   0  0  0  0  0  0  0  0  0  0  0  0
   -3.3698   -2.0715   -0.4337 C   0  0  0  0  0  0  0  0  0  0  0  0
   -4.8677   -0.2164   -0.6343 O   0  0  0  0  0  0  0  0  0  0  0  0
   -3.8572   -2.7458    0.8461 C   0  0  0  0  0  0  0  0  0  0  0  0
   -5.3745   -2.8980    0.7583 C   0  0  0  0  0  0  0  0  0  0  0  0
   -5.7758   -3.6547   -0.5157 C   0  0  0  0  0  0  0  0  0  0  0  0
   -5.1852   -5.0603   -0.5457 C   0  0  0  0  0  0  0  0  0  0  0  0
   -5.7607   -5.8520    0.5204 N   0  0  0  0  0  0  0  0  0  0  0  0
   -6.5099   -6.9379    0.2684 C   0  0  0  0  0  0  0  0  0  0  0  0
   -7.0280   -7.5264    1.3535 N   0  0  0  0  0  0  0  0  0  0  0  0
   -6.6992   -7.3815   -0.9208 N   0  0  0  0  0  0  0  0  0  0  0  0
    1.0869   -2.2595    0.0566 H   0  0  0  0  0  0  0  0  0  0  0  0
    1.1760    2.0789    0.3825 H   0  0  0  0  0  0  0  0  0  0  0  0
   -1.1732   -2.0532    0.5412 H   0  0  0  0  0  0  0  0  0  0  0  0
   -1.1056    2.2148    0.1351 H   0  0  0  0  0  0  0  0  0  0  0  0
    2.8845    2.2877    0.8849 H   0  0  0  0  0  0  0  0  0  0  0  0
    4.3716    2.5802    0.1051 H   0  0  0  0  0  0  0  0  0  0  0  0
    2.0755    1.5150   -1.6784 H   0  0  0  0  0  0  0  0  0  0  0  0
    2.3968    3.2273   -1.4256 H   0  0  0  0  0  0  0  0  0  0  0  0
    3.6047    2.1118   -2.1483 H   0  0  0  0  0  0  0  0  0  0  0  0
   -3.7536   -2.4778   -1.3630 H   0  0  0  0  0  0  0  0  0  0  0  0
   -2.3520   -2.3232   -0.6589 H   0  0  0  0  0  0  0  0  0  0  0  0
   -3.3731   -3.7227    0.9688 H   0  0  0  0  0  0  0  0  0  0  0  0
   -3.5820   -2.1851    1.7509 H   0  0  0  0  0  0  0  0  0  0  0  0
   -5.7592   -3.3985    1.6511 H   0  0  0  0  0  0  0  0  0  0  0  0
   -5.8431   -1.9090    0.7596 H   0  0  0  0  0  0  0  0  0  0  0  0
   -6.8628   -3.6686   -0.6127 H   0  0  0  0  0  0  0  0  0  0  0  0
   -5.4514   -3.1278   -1.4187 H   0  0  0  0  0  0  0  0  0  0  0  0
   -5.3667   -5.4877   -1.5365 H   0  0  0  0  0  0  0  0  0  0  0  0
   -4.0948   -5.0626   -0.4402 H   0  0  0  0  0  0  0  0  0  0  0  0
   -5.6464   -5.5180    1.4651 H   0  0  0  0  0  0  0  0  0  0  0  0
   -7.6068   -8.3459    1.2535 H   0  0  0  0  0  0  0  0  0  0  0  0
   -6.9062   -7.1610    2.2846 H   0  0  0  0  0  0  0  0  0  0  0  0
   -7.2816   -8.2126   -0.8928 H   0  0  0  0  0  0  0  0  0  0  0  0
  1  2  2  0  0  0  0
  1  3  1  0  0  0  0
  1  4  1  0  0  0  0
  2  5  1  0  0  0  0
  2 24  1  0  0  0  0
  3  6  2  0  0  0  0
  3 25  1  0  0  0  0
  4  7  1  0  0  0  0
  4  8  2  0  0  0  0
  5  9  2  0  0  0  0
  5 26  1  0  0  0  0
  6  9  1  0  0  0  0
  6 27  1  0  0  0  0
  7 10  1  0  0  0  0
  9 11  1  0  0  0  0
 10 12  1  0  0  0  0
 10 28  1  0  0  0  0
 10 29  1  0  0  0  0
 11 13  1  0  0  0  0
 12 30  1  0  0  0  0
 12 31  1  0  0  0  0
 12 32  1  0  0  0  0
 13 14  1  0  0  0  0
 13 15  2  0  0  0  0
 14 16  1  0  0  0  0
 14 33  1  0  0  0  0
 14 34  1  0  0  0  0
 16 17  1  0  0  0  0
 16 35  1  0  0  0  0
 16 36  1  0  0  0  0
 17 18  1  0  0  0  0
 17 37  1  0  0  0  0
 17 38  1  0  0  0  0
 18 19  1  0  0  0  0
 18 39  1  0  0  0  0
 18 40  1  0  0  0  0
 19 20  1  0  0  0  0
 19 41  1  0  0  0  0
 19 42  1  0  0  0  0
 20 21  1  0  0  0  0
 20 43  1  0  0  0  0
 21 22  1  0  0  0  0
 21 23  2  0  0  0  0
 22 44  1  0  0  0  0
 22 45  1  0  0  0  0
 23 46  1  0  0  0  0
M  END
>  <DRUGBANK_ID>
DB12831

>  <COMMON_NAME>
Gabexate

>  <CAS_NUMBER>
39492-01-8

>  <UNII>
4V7M9137X9

>  <SYNONYMS>
Gabexate; Gabexato; Gabexatum

$$$$
