
 OpenBabel10282417143D

 14 15  0  0  0  0  0  0  0  0999 V2000
    1.2969   -0.0147   -0.0152 Br  0  0  0  0  0  0  0  0  0  0  0  0
    3.1684    0.0204   -0.0191 C   0  0  0  0  0  0  0  0  0  0  0  0
    3.7443    1.1815   -0.0234 N   0  0  0  0  0  0  0  0  0  0  0  0
    5.1391    1.1085   -0.0280 C   0  0  0  0  0  0  0  0  0  0  0  0
    6.0164    2.1518   -0.0314 N   0  0  0  0  0  0  0  0  0  0  0  0
    7.2103    1.5933   -0.0372 C   0  0  0  0  0  0  0  0  0  0  0  0
    7.1299    0.2260   -0.0378 N   0  0  0  0  0  0  0  0  0  0  0  0
    5.8034   -0.0858   -0.0314 C   0  0  0  0  0  0  0  0  0  0  0  0
    5.1535   -1.3413   -0.0284 C   0  0  0  0  0  0  0  0  0  0  0  0
    5.7197   -2.4269   -0.0350 O   0  0  0  0  0  0  0  0  0  0  0  0
    3.7920   -1.2063   -0.0181 N   0  0  0  0  0  0  0  0  0  0  0  0
    8.1579    2.1169   -0.0413 H   0  0  0  0  0  0  0  0  0  0  0  0
    7.9015   -0.4287   -0.0420 H   0  0  0  0  0  0  0  0  0  0  0  0
    3.2408   -2.0498   -0.0145 H   0  0  0  0  0  0  0  0  0  0  0  0
  1  2  1  0  0  0  0
  2  3  2  0  0  0  0
  2 11  1  0  0  0  0
  3  4  1  0  0  0  0
  4  5  1  0  0  0  0
  4  8  2  0  0  0  0
  5  6  2  0  0  0  0
  6  7  1  0  0  0  0
  6 12  1  0  0  0  0
  7  8  1  0  0  0  0
  7 13  1  0  0  0  0
  8  9  1  0  0  0  0
  9 10  2  0  0  0  0
  9 11  1  0  0  0  0
 11 14  1  0  0  0  0
M  END
>  <DRUGBANK_ID>
DB04283

>  <SECONDARY_ACCESSION_NUMBERS>
EXPT00735

>  <COMMON_NAME>
2-Bromohypoxanthine

>  <CAS_NUMBER>
87781-93-9

>  <UNII>
6XXT2WA2NQ

$$$$
