
 OpenBabel10282417133D

 32 33  0  0  0  0  0  0  0  0999 V2000
    1.1419   -0.0887    0.0071 Br  0  0  0  0  0  0  0  0  0  0  0  0
    8.4860   -1.6741   -1.0626 O   0  0  0  0  0  0  0  0  0  0  0  0
    9.1910    0.5572    0.7651 O   0  0  0  0  0  0  0  0  0  0  0  0
    9.5344   -1.4747   -3.9831 O   0  0  0  0  0  0  0  0  0  0  0  0
    5.3398    1.8757    2.5749 O   0  0  0  0  0  0  0  0  0  0  0  0
   11.5198   -0.5435   -0.4083 O   0  0  0  0  0  0  0  0  0  0  0  0
    7.3022    0.3367   -0.5700 N   0  0  0  0  0  0  0  0  0  0  0  0
    7.2783    1.4588    1.4777 N   0  0  0  0  0  0  0  0  0  0  0  0
    7.9906   -0.4380   -1.6086 C   0  0  1  0  0  0  0  0  0  0  0  0
    8.0015    0.7598    0.5506 C   0  0  0  0  0  0  0  0  0  0  0  0
    9.8147   -1.9295   -1.5956 C   0  0  1  0  0  0  0  0  0  0  0  0
    5.9278    0.5141   -0.6517 C   0  0  0  0  0  0  0  0  0  0  0  0
   10.0034   -0.9393   -2.7424 C   0  0  2  0  0  0  0  0  0  0  0  0
    9.1463    0.2401   -2.3297 C   0  0  0  0  0  0  0  0  0  0  0  0
    5.1881    0.9767    0.3709 C   0  0  0  0  0  0  0  0  0  0  0  0
    5.9206    1.4765    1.5664 C   0  0  0  0  0  0  0  0  0  0  0  0
   10.8818   -1.8156   -0.4856 C   0  0  0  0  0  0  0  0  0  0  0  0
    3.7369    0.9976    0.3704 C   0  0  0  0  0  0  0  0  0  0  0  0
    2.9933   -0.0417   -0.0294 C   0  0  0  0  0  0  0  0  0  0  0  0
    8.6497   -1.8552   -3.8568 H   0  0  0  0  0  0  0  0  0  0  0  0
   12.0217   -0.3783   -1.2209 H   0  0  0  0  0  0  0  0  0  0  0  0
    7.7914    1.7569    2.2926 H   0  0  0  0  0  0  0  0  0  0  0  0
    7.2500   -0.7317   -2.3649 H   0  0  0  0  0  0  0  0  0  0  0  0
    9.7972   -2.9688   -1.9454 H   0  0  0  0  0  0  0  0  0  0  0  0
    5.4520    0.2020   -1.5777 H   0  0  0  0  0  0  0  0  0  0  0  0
   11.0462   -0.6701   -2.9219 H   0  0  0  0  0  0  0  0  0  0  0  0
    9.7026    0.9026   -1.6614 H   0  0  0  0  0  0  0  0  0  0  0  0
    8.7953    0.8340   -3.1781 H   0  0  0  0  0  0  0  0  0  0  0  0
   10.4443   -2.0246    0.4960 H   0  0  0  0  0  0  0  0  0  0  0  0
   11.6757   -2.5487   -0.6629 H   0  0  0  0  0  0  0  0  0  0  0  0
    3.2622    1.8785    0.8015 H   0  0  0  0  0  0  0  0  0  0  0  0
    3.4280   -0.9657   -0.3951 H   0  0  0  0  0  0  0  0  0  0  0  0
  1 19  1  0  0  0  0
  2  9  1  0  0  0  0
  2 11  1  0  0  0  0
  3 10  2  0  0  0  0
  4 20  1  0  0  0  0
  5 16  2  0  0  0  0
  6 17  1  0  0  0  0
  6 21  1  0  0  0  0
  7 10  1  0  0  0  0
  7 12  1  0  0  0  0
  8 10  1  0  0  0  0
  8 16  1  0  0  0  0
  8 22  1  0  0  0  0
  9  7  1  0  0  0  0
  9 14  1  0  0  0  0
  9 23  1  6  0  0  0
 11 13  1  0  0  0  0
 11 24  1  6  0  0  0
 11 17  1  0  0  0  0
 12 15  2  0  0  0  0
 12 25  1  0  0  0  0
 13  4  1  0  0  0  0
 13 14  1  0  0  0  0
 13 26  1  6  0  0  0
 14 27  1  0  0  0  0
 14 28  1  0  0  0  0
 15 16  1  0  0  0  0
 15 18  1  0  0  0  0
 17 29  1  0  0  0  0
 17 30  1  0  0  0  0
 18 19  2  0  0  0  0
 18 31  1  0  0  0  0
 19 32  1  0  0  0  0
M  END
>  <DRUGBANK_ID>
DB03312

>  <SECONDARY_ACCESSION_NUMBERS>
EXPT00783; DB05041

>  <COMMON_NAME>
Brivudine

>  <CAS_NUMBER>
69304-47-8

>  <UNII>
2M3055079H

>  <SYNONYMS>
(E)-5-(2-Bromovinyl)-deoxyuridine; Brivudina; Brivudine; Brivudinum; BVdU

$$$$
