
 OpenBabel10282417243D

 71 73  0  0  0  0  0  0  0  0999 V2000
    0.9668    0.1484   -0.1756 C   0  0  0  0  0  0  0  0  0  0  0  0
    0.5618   -1.1626   -0.8454 C   0  0  0  0  0  0  0  0  0  0  0  0
    0.9463   -2.3404    0.0175 C   0  0  0  0  0  0  0  0  0  0  0  0
    0.3713   -2.2524    1.4204 C   0  0  0  0  0  0  0  0  0  0  0  0
   -1.1858   -2.3440    1.6103 C   0  0  0  0  0  0  0  0  0  0  0  0
   -1.4832   -2.5325    3.0841 C   0  0  0  0  0  0  0  0  0  0  0  0
   -1.0851   -3.8494    3.7348 C   0  0  0  0  0  0  0  0  0  0  0  0
    0.3762   -3.9821    4.0294 C   0  0  0  0  0  0  0  0  0  0  0  0
    0.8524   -2.7252    4.7317 C   0  0  0  0  0  0  0  0  0  0  0  0
   -1.8987   -3.4872    0.7860 C   0  0  0  0  0  0  0  0  0  0  0  0
   -3.4274   -3.5767    0.9098 N   0  0  0  0  0  0  0  0  0  0  0  0
   -4.0521   -4.5320    1.7837 C   0  0  0  0  0  0  0  0  0  0  0  0
   -3.8936   -4.5369    3.1846 C   0  0  0  0  0  0  0  0  0  0  0  0
   -4.3538   -5.4992    4.0966 C   0  0  0  0  0  0  0  0  0  0  0  0
   -5.2651   -6.4170    3.6634 C   0  0  0  0  0  0  0  0  0  0  0  0
   -5.6421   -6.3541    2.3253 C   0  0  0  0  0  0  0  0  0  0  0  0
   -4.9999   -5.4803    1.3917 C   0  0  0  0  0  0  0  0  0  0  0  0
   -4.0947   -2.6530    0.0397 C   0  0  0  0  0  0  0  0  0  0  0  0
   -4.9160   -3.0923   -1.0069 C   0  0  0  0  0  0  0  0  0  0  0  0
   -5.6504   -2.2027   -1.8306 C   0  0  0  0  0  0  0  0  0  0  0  0
   -7.0143   -2.8771   -2.8165 S   0  0  0  0  0  0  0  0  0  0  0  0
   -6.4611   -4.5257   -3.3294 C   0  0  0  0  0  0  0  0  0  0  0  0
   -5.3411   -0.8221   -1.7856 C   0  0  0  0  0  0  0  0  0  0  0  0
   -5.6600    0.1951   -2.6441 O   0  0  0  0  0  0  0  0  0  0  0  0
   -6.2112   -0.1248   -3.9044 C   0  0  0  0  0  0  0  0  0  0  0  0
   -5.2871   -0.8512   -4.8911 C   0  0  0  0  0  0  0  0  0  0  0  0
   -4.4095   -2.0229   -4.4803 C   0  0  0  0  0  0  0  0  0  0  0  0
   -4.7149   -3.1817   -5.1132 O   0  0  0  0  0  0  0  0  0  0  0  0
   -3.4613   -1.9657   -3.7106 O   0  0  0  0  0  0  0  0  0  0  0  0
   -4.5215   -0.3594   -0.7740 C   0  0  0  0  0  0  0  0  0  0  0  0
   -3.9976   -1.2536    0.1598 C   0  0  0  0  0  0  0  0  0  0  0  0
   -3.2846   -0.5045    1.5688 S   0  0  0  0  0  0  0  0  0  0  0  0
   -3.2614    0.9403    1.3721 O   0  0  0  0  0  0  0  0  0  0  0  0
   -3.9139   -1.0510    2.7323 O   0  0  0  0  0  0  0  0  0  0  0  0
   -1.6951   -0.9749    1.2942 N   0  0  0  0  0  0  0  0  0  0  0  0
    0.5649    0.2764    0.8353 H   0  0  0  0  0  0  0  0  0  0  0  0
    0.6096    1.0022   -0.7494 H   0  0  0  0  0  0  0  0  0  0  0  0
    2.0561    0.1922   -0.0812 H   0  0  0  0  0  0  0  0  0  0  0  0
   -0.5071   -1.2084   -1.0623 H   0  0  0  0  0  0  0  0  0  0  0  0
    1.0446   -1.2519   -1.8205 H   0  0  0  0  0  0  0  0  0  0  0  0
    0.6481   -3.2915   -0.4355 H   0  0  0  0  0  0  0  0  0  0  0  0
    2.0433   -2.3844    0.0957 H   0  0  0  0  0  0  0  0  0  0  0  0
    0.9077   -3.0541    1.8869 H   0  0  0  0  0  0  0  0  0  0  0  0
    0.7557   -1.3718    1.9575 H   0  0  0  0  0  0  0  0  0  0  0  0
   -1.2754   -1.6433    3.6873 H   0  0  0  0  0  0  0  0  0  0  0  0
   -2.5431   -2.5091    3.1063 H   0  0  0  0  0  0  0  0  0  0  0  0
   -1.6258   -3.9288    4.6855 H   0  0  0  0  0  0  0  0  0  0  0  0
   -1.3909   -4.7045    3.1260 H   0  0  0  0  0  0  0  0  0  0  0  0
    0.5403   -4.8702    4.6384 H   0  0  0  0  0  0  0  0  0  0  0  0
    0.9172   -4.2296    3.1204 H   0  0  0  0  0  0  0  0  0  0  0  0
    0.3791   -2.6808    5.7167 H   0  0  0  0  0  0  0  0  0  0  0  0
    1.9338   -2.7174    4.8190 H   0  0  0  0  0  0  0  0  0  0  0  0
    0.5874   -1.7910    4.2242 H   0  0  0  0  0  0  0  0  0  0  0  0
   -1.6406   -3.3590   -0.2774 H   0  0  0  0  0  0  0  0  0  0  0  0
   -1.4323   -4.4511    1.0399 H   0  0  0  0  0  0  0  0  0  0  0  0
   -3.4997   -3.7094    3.7337 H   0  0  0  0  0  0  0  0  0  0  0  0
   -4.0522   -5.4389    5.1416 H   0  0  0  0  0  0  0  0  0  0  0  0
   -5.7093   -7.1087    4.3731 H   0  0  0  0  0  0  0  0  0  0  0  0
   -6.4642   -6.9871    2.0048 H   0  0  0  0  0  0  0  0  0  0  0  0
   -5.2964   -5.5779    0.3568 H   0  0  0  0  0  0  0  0  0  0  0  0
   -4.9736   -4.1534   -1.2078 H   0  0  0  0  0  0  0  0  0  0  0  0
   -5.3789   -4.6581   -3.4156 H   0  0  0  0  0  0  0  0  0  0  0  0
   -6.8491   -5.2319   -2.6020 H   0  0  0  0  0  0  0  0  0  0  0  0
   -6.9011   -4.7448   -4.3104 H   0  0  0  0  0  0  0  0  0  0  0  0
   -7.2032   -0.5569   -3.7642 H   0  0  0  0  0  0  0  0  0  0  0  0
   -6.4655    0.8349   -4.3793 H   0  0  0  0  0  0  0  0  0  0  0  0
   -5.9015   -1.1605   -5.7435 H   0  0  0  0  0  0  0  0  0  0  0  0
   -4.5610   -0.1294   -5.2749 H   0  0  0  0  0  0  0  0  0  0  0  0
   -5.5968   -3.1889   -5.5301 H   0  0  0  0  0  0  0  0  0  0  0  0
   -4.3171    0.7110   -0.6923 H   0  0  0  0  0  0  0  0  0  0  0  0
   -1.5011   -0.6859    0.3406 H   0  0  0  0  0  0  0  0  0  0  0  0
  1  2  1  0  0  0  0
  1 36  1  0  0  0  0
  1 37  1  0  0  0  0
  1 38  1  0  0  0  0
  2  3  1  0  0  0  0
  2 39  1  0  0  0  0
  2 40  1  0  0  0  0
  3  4  1  0  0  0  0
  3 41  1  0  0  0  0
  3 42  1  0  0  0  0
  4  5  1  0  0  0  0
  4 43  1  0  0  0  0
  4 44  1  0  0  0  0
  5  6  1  0  0  0  0
  5 10  1  0  0  0  0
  5 35  1  0  0  0  0
  6  7  1  0  0  0  0
  6 45  1  0  0  0  0
  6 46  1  0  0  0  0
  7  8  1  0  0  0  0
  7 47  1  0  0  0  0
  7 48  1  0  0  0  0
  8  9  1  0  0  0  0
  8 49  1  0  0  0  0
  8 50  1  0  0  0  0
  9 51  1  0  0  0  0
  9 52  1  0  0  0  0
  9 53  1  0  0  0  0
 10 11  1  0  0  0  0
 10 54  1  0  0  0  0
 10 55  1  0  0  0  0
 11 12  1  0  0  0  0
 11 18  1  0  0  0  0
 12 13  2  0  0  0  0
 12 17  1  0  0  0  0
 13 14  1  0  0  0  0
 13 56  1  0  0  0  0
 14 15  2  0  0  0  0
 14 57  1  0  0  0  0
 15 16  1  0  0  0  0
 15 58  1  0  0  0  0
 16 17  2  0  0  0  0
 16 59  1  0  0  0  0
 17 60  1  0  0  0  0
 18 19  2  0  0  0  0
 18 31  1  0  0  0  0
 19 20  1  0  0  0  0
 19 61  1  0  0  0  0
 20 21  1  0  0  0  0
 20 23  2  0  0  0  0
 21 22  1  0  0  0  0
 22 62  1  0  0  0  0
 22 63  1  0  0  0  0
 22 64  1  0  0  0  0
 23 24  1  0  0  0  0
 23 30  1  0  0  0  0
 24 25  1  0  0  0  0
 25 26  1  0  0  0  0
 25 65  1  0  0  0  0
 25 66  1  0  0  0  0
 26 27  1  0  0  0  0
 26 67  1  0  0  0  0
 26 68  1  0  0  0  0
 27 28  1  0  0  0  0
 27 29  2  0  0  0  0
 28 69  1  0  0  0  0
 30 31  2  0  0  0  0
 30 70  1  0  0  0  0
 31 32  1  0  0  0  0
 32 33  2  0  0  0  0
 32 34  2  0  0  0  0
 32 35  1  0  0  0  0
 35 71  1  0  0  0  0
M  END
>  <DRUGBANK_ID>
DB18030

>  <COMMON_NAME>
Ritivixibat

>  <CAS_NUMBER>
2460667-52-9

>  <UNII>
3U7H6NE2KE

>  <SYNONYMS>
3-([3,3-dibutyl-7-(methylsulfanyl)-1,1-dioxo-5-phenyl-2,3,4,5-tetrahydro-1H-1Lambda6,2,5-benzothiadiazepin-8-yl]oxy)propanoic acid

$$$$
