
 OpenBabel10282417123D

 23 23  0  0  1  0  0  0  0  0999 V2000
   -0.5033    1.8026   -0.0384 C   0  0  0  0  0  0  0  0  0  0  0  0
    1.8400    2.8847   -0.3454 C   0  0  0  0  0  0  0  0  0  0  0  0
    0.9653    1.6390   -0.3895 C   0  0  1  0  0  0  0  0  0  0  0  0
   -1.1679    0.4422   -0.2802 C   0  0  1  0  0  0  0  0  0  0  0  0
   -0.4845   -0.6754    0.5380 C   0  0  2  0  0  0  0  0  0  0  0  0
    1.0500   -0.6042    0.4047 C   0  0  1  0  0  0  0  0  0  0  0  0
    3.2005    2.4332   -0.3873 O   0  0  0  0  0  0  0  0  0  0  0  0
   -2.5639    0.5391   -0.0068 O   0  0  0  0  0  0  0  0  0  0  0  0
   -0.9547   -1.9603    0.1133 O   0  0  0  0  0  0  0  0  0  0  0  0
    1.5083   -1.1773   -0.8148 O   0  0  0  0  0  0  0  0  0  0  0  0
    1.5505    0.7134    0.5465 O   0  0  0  0  0  0  0  0  0  0  0  0
    1.0622    1.2357   -1.4048 H   0  0  0  0  0  0  0  0  0  0  0  0
   -1.0951    0.1902   -1.3449 H   0  0  0  0  0  0  0  0  0  0  0  0
   -0.7652   -0.5596    1.5915 H   0  0  0  0  0  0  0  0  0  0  0  0
    1.5057   -1.2041    1.2003 H   0  0  0  0  0  0  0  0  0  0  0  0
   -0.9957    2.5801   -0.6326 H   0  0  0  0  0  0  0  0  0  0  0  0
   -0.6282    2.0818    1.0170 H   0  0  0  0  0  0  0  0  0  0  0  0
    1.6701    3.5323   -1.2107 H   0  0  0  0  0  0  0  0  0  0  0  0
    1.7111    3.4580    0.5749 H   0  0  0  0  0  0  0  0  0  0  0  0
    3.1987    1.6034    0.1404 H   0  0  0  0  0  0  0  0  0  0  0  0
   -2.6945    0.5670    0.9560 H   0  0  0  0  0  0  0  0  0  0  0  0
   -0.4122   -2.2281   -0.6531 H   0  0  0  0  0  0  0  0  0  0  0  0
    0.9915   -0.8006   -1.5494 H   0  0  0  0  0  0  0  0  0  0  0  0
  1 16  1  0  0  0  0
  1 17  1  0  0  0  0
  2 18  1  0  0  0  0
  2 19  1  0  0  0  0
  3  1  1  0  0  0  0
  3 12  1  6  0  0  0
  3  2  1  0  0  0  0
  4  1  1  0  0  0  0
  4  8  1  0  0  0  0
  4 13  1  6  0  0  0
  5  4  1  0  0  0  0
  5  9  1  0  0  0  0
  5 14  1  1  0  0  0
  6  5  1  0  0  0  0
  6 10  1  0  0  0  0
  6 15  1  1  0  0  0
  7  2  1  0  0  0  0
  7 20  1  0  0  0  0
  8 21  1  0  0  0  0
  9 22  1  0  0  0  0
 10 23  1  0  0  0  0
 11  3  1  0  0  0  0
 11  6  1  0  0  0  0
M  END
>  <DRUGBANK_ID>
DB02670

>  <SECONDARY_ACCESSION_NUMBERS>
EXPT01533

>  <COMMON_NAME>
4-Deoxy-Alpha-D-Glucose

$$$$
