
 OpenBabel10282417123D

 47 47  0  0  1  0  0  0  0  0999 V2000
    3.3068   -3.5933   -4.8874 C   0  0  0  0  0  0  0  0  0  0  0  0
   -0.0787   -1.5218   -2.5425 C   0  0  0  0  0  0  0  0  0  0  0  0
    2.2325   -7.7909   -6.2754 C   0  0  0  0  0  0  0  0  0  0  0  0
    1.9362   -3.7378   -3.8186 C   0  0  0  0  0  0  0  0  0  0  0  0
    0.6511   -4.6795   -5.7304 C   0  0  0  0  0  0  0  0  0  0  0  0
    0.2628   -6.0374   -1.7970 C   0  0  0  0  0  0  0  0  0  0  0  0
    0.2784   -2.9844   -3.9912 C   0  0  0  0  0  0  0  0  0  0  0  0
    0.6080   -3.3938   -2.2656 C   0  0  1  0  0  0  0  0  0  0  0  0
    1.5980   -6.7416   -5.4456 C   0  0  0  0  0  0  0  0  0  0  0  0
    0.1309   -4.7504   -4.4229 C   0  0  0  0  0  0  0  0  0  0  0  0
    0.4415   -5.9399   -3.4573 C   0  0  0  0  0  0  0  0  0  0  0  0
    0.2930   -3.6202   -0.7863 C   0  0  2  0  0  0  0  0  0  0  0  0
    1.1373   -6.9675   -4.1156 C   0  0  0  0  0  0  0  0  0  0  0  0
    0.7306   -2.3020    0.0817 C   0  0  0  0  0  0  0  0  0  0  0  0
    1.4345   -5.6226   -6.2056 N   0  0  0  0  0  0  0  0  0  0  0  0
    0.7559   -5.0687   -0.6737 N   0  0  0  0  0  0  0  0  0  0  0  0
    1.4227   -8.1774   -3.5545 O   0  0  0  0  0  0  0  0  0  0  0  0
    0.2316   -1.9225    1.1281 O   0  0  0  0  0  0  0  0  0  0  0  0
    1.7340   -1.5123   -0.4625 O   0  0  0  0  0  0  0  0  0  0  0  0
    2.5301   -3.5646   -0.5871 O   0  0  0  0  0  0  0  0  0  0  0  0
    3.5636   -4.5837   -2.8251 O   0  0  0  0  0  0  0  0  0  0  0  0
    4.2483   -3.9092   -1.3843 O   0  0  0  0  0  0  0  0  0  0  0  0
    1.7437   -2.3068   -2.7653 O   0  0  0  0  0  0  0  0  0  0  0  0
    3.0654   -3.1524   -2.0366 P   0  0  0  0  0  0  0  0  0  0  0  0
   -0.1535   -4.1491   -2.4397 H   0  0  0  0  0  0  0  0  0  0  0  0
   -0.7966   -3.6190   -0.6826 H   0  0  0  0  0  0  0  0  0  0  0  0
    3.4640   -4.5386   -5.3863 H   0  0  0  0  0  0  0  0  0  0  0  0
    4.2849   -3.3345   -4.4133 H   0  0  0  0  0  0  0  0  0  0  0  0
    3.1288   -2.8186   -5.6607 H   0  0  0  0  0  0  0  0  0  0  0  0
    0.4787   -1.0806   -3.4975 H   0  0  0  0  0  0  0  0  0  0  0  0
   -1.0820   -1.3887   -2.9855 H   0  0  0  0  0  0  0  0  0  0  0  0
    0.2796   -0.7157   -1.9072 H   0  0  0  0  0  0  0  0  0  0  0  0
    1.6271   -7.8227   -7.1891 H   0  0  0  0  0  0  0  0  0  0  0  0
    3.2570   -7.5094   -6.5386 H   0  0  0  0  0  0  0  0  0  0  0  0
    2.2013   -8.7608   -5.7932 H   0  0  0  0  0  0  0  0  0  0  0  0
    2.0155   -4.7083   -3.5053 H   0  0  0  0  0  0  0  0  0  0  0  0
    2.5603   -2.7011   -4.0337 H   0  0  0  0  0  0  0  0  0  0  0  0
    0.8280   -3.6886   -6.1755 H   0  0  0  0  0  0  0  0  0  0  0  0
    0.6874   -6.9869   -1.4458 H   0  0  0  0  0  0  0  0  0  0  0  0
   -0.8163   -6.1046   -1.6654 H   0  0  0  0  0  0  0  0  0  0  0  0
   -0.2999   -2.3235   -4.7005 H   0  0  0  0  0  0  0  0  0  0  0  0
   -0.7841   -3.1301   -3.4463 H   0  0  0  0  0  0  0  0  0  0  0  0
    1.7919   -5.0264   -0.6854 H   0  0  0  0  0  0  0  0  0  0  0  0
    0.9780   -8.2874   -2.7020 H   0  0  0  0  0  0  0  0  0  0  0  0
    2.1361   -0.8289    0.1041 H   0  0  0  0  0  0  0  0  0  0  0  0
    2.9995   -3.0236    0.0757 H   0  0  0  0  0  0  0  0  0  0  0  0
    3.2052   -5.4765   -3.0456 H   0  0  0  0  0  0  0  0  0  0  0  0
  1 27  1  0  0  0  0
  1 28  1  0  0  0  0
  1 29  1  0  0  0  0
  2 30  1  0  0  0  0
  2 31  1  0  0  0  0
  2 32  1  0  0  0  0
  3 33  1  0  0  0  0
  3 34  1  0  0  0  0
  3 35  1  0  0  0  0
  4  1  1  0  0  0  0
  4 36  1  0  0  0  0
  4 37  1  0  0  0  0
  5 38  1  0  0  0  0
  6 39  1  0  0  0  0
  6 40  1  0  0  0  0
  7 41  1  0  0  0  0
  7 42  1  0  0  0  0
  8 25  1  6  0  0  0
  8  4  1  0  0  0  0
  8  2  1  0  0  0  0
  9  3  1  0  0  0  0
 10  5  1  0  0  0  0
 10  7  1  0  0  0  0
 11  6  1  0  0  0  0
 11 10  2  0  0  0  0
 12 16  1  0  0  0  0
 12 26  1  1  0  0  0
 12 14  1  0  0  0  0
 12  8  1  0  0  0  0
 13  9  2  0  0  0  0
 13 11  1  0  0  0  0
 15  5  2  0  0  0  0
 15  9  1  0  0  0  0
 16  6  1  0  0  0  0
 16 43  1  0  0  0  0
 17 13  1  0  0  0  0
 17 44  1  0  0  0  0
 18 14  2  0  0  0  0
 19 14  1  0  0  0  0
 19 45  1  0  0  0  0
 20 46  1  0  0  0  0
 21 47  1  0  0  0  0
 23  7  1  0  0  0  0
 24 20  1  0  0  0  0
 24 21  1  0  0  0  0
 24 22  2  0  0  0  0
 24 23  1  0  0  0  0
M  END
>  <DRUGBANK_ID>
DB02635

>  <SECONDARY_ACCESSION_NUMBERS>
EXPT01863

>  <COMMON_NAME>
N-[O-Phosphono-Pyridoxyl]-Isoleucine

$$$$
