
 OpenBabel10282417243D

 28 29  0  0  0  0  0  0  0  0999 V2000
    0.6516   -0.0732    0.0562 C   0  0  0  0  0  0  0  0  0  0  0  0
    0.3341    1.2207    0.6532 O   0  0  0  0  0  0  0  0  0  0  0  0
    0.7502    1.6722    1.8834 C   0  0  0  0  0  0  0  0  0  0  0  0
   -0.1106    2.3141    2.6597 N   0  0  0  0  0  0  0  0  0  0  0  0
    0.3679    2.7919    3.8707 C   0  0  0  0  0  0  0  0  0  0  0  0
   -0.2658    3.4954    4.9208 N   0  0  0  0  0  0  0  0  0  0  0  0
   -1.6312    3.9525    5.1085 C   0  0  0  0  0  0  0  0  0  0  0  0
    0.7140    3.7564    5.9522 C   0  0  0  0  0  0  0  0  0  0  0  0
    0.5706    4.3308    7.0114 O   0  0  0  0  0  0  0  0  0  0  0  0
    1.9046    3.1907    5.4633 N   0  0  0  0  0  0  0  0  0  0  0  0
    3.1807    3.2137    6.1333 C   0  0  0  0  0  0  0  0  0  0  0  0
    1.6431    2.6339    4.2471 C   0  0  0  0  0  0  0  0  0  0  0  0
    2.5921    1.9380    3.3946 C   0  0  0  0  0  0  0  0  0  0  0  0
    3.7626    1.7769    3.7140 O   0  0  0  0  0  0  0  0  0  0  0  0
    2.0896    1.4861    2.1967 N   0  0  0  0  0  0  0  0  0  0  0  0
    3.1526    0.9373    1.3719 C   0  0  0  0  0  0  0  0  0  0  0  0
    0.1443   -0.1278   -0.9130 H   0  0  0  0  0  0  0  0  0  0  0  0
    0.3210   -0.8844    0.7040 H   0  0  0  0  0  0  0  0  0  0  0  0
    1.6918   -0.2568   -0.2115 H   0  0  0  0  0  0  0  0  0  0  0  0
   -1.9229    4.6778    4.3441 H   0  0  0  0  0  0  0  0  0  0  0  0
   -2.3362    3.1170    5.1326 H   0  0  0  0  0  0  0  0  0  0  0  0
   -1.7371    4.4702    6.0788 H   0  0  0  0  0  0  0  0  0  0  0  0
    3.4851    4.2493    6.2935 H   0  0  0  0  0  0  0  0  0  0  0  0
    3.0961    2.6889    7.0859 H   0  0  0  0  0  0  0  0  0  0  0  0
    3.9740    2.7315    5.5668 H   0  0  0  0  0  0  0  0  0  0  0  0
    4.0172    1.6100    1.3847 H   0  0  0  0  0  0  0  0  0  0  0  0
    3.4623   -0.0218    1.8082 H   0  0  0  0  0  0  0  0  0  0  0  0
    2.9215    0.8542    0.3240 H   0  0  0  0  0  0  0  0  0  0  0  0
  1  2  1  0  0  0  0
  1 17  1  0  0  0  0
  1 18  1  0  0  0  0
  1 19  1  0  0  0  0
  2  3  1  0  0  0  0
  3  4  2  0  0  0  0
  3 15  1  0  0  0  0
  4  5  1  0  0  0  0
  5  6  1  0  0  0  0
  5 12  2  0  0  0  0
  6  7  1  0  0  0  0
  6  8  1  0  0  0  0
  7 20  1  0  0  0  0
  7 21  1  0  0  0  0
  7 22  1  0  0  0  0
  8  9  2  0  0  0  0
  8 10  1  0  0  0  0
 10 11  1  0  0  0  0
 10 12  1  0  0  0  0
 11 23  1  0  0  0  0
 11 24  1  0  0  0  0
 11 25  1  0  0  0  0
 12 13  1  0  0  0  0
 13 14  2  0  0  0  0
 13 15  1  0  0  0  0
 15 16  1  0  0  0  0
 16 26  1  0  0  0  0
 16 27  1  0  0  0  0
 16 28  1  0  0  0  0
M  END
>  <DRUGBANK_ID>
DB17930

>  <COMMON_NAME>
Methylliberine

>  <CAS_NUMBER>
51168-26-4

>  <UNII>
RY9AJC5PA7

$$$$
