4FC
 OpenBabel10282417163D

 25 26  0  0  0  0  0  0  0  0999 V2000
    0.1639    1.2101   -0.0019 C   0  0  0  0  0  0  0  0  0  0  0  0
    0.8406   -0.0037    0.0003 C   0  0  0  0  0  0  0  0  0  0  0  0
    0.1514   -1.2093    0.0064 C   0  0  0  0  0  0  0  0  0  0  0  0
   -1.2419   -1.2006    0.0115 C   0  0  0  0  0  0  0  0  0  0  0  0
   -1.9513    0.0122    0.0173 C   0  0  0  0  0  0  0  0  0  0  0  0
   -1.2313    1.2189    0.0090 C   0  0  0  0  0  0  0  0  0  0  0  0
   -4.1227    0.5809   -1.0528 C   0  0  0  0  0  0  0  0  0  0  0  0
   -3.4146    0.0031    0.0092 C   0  0  0  0  0  0  0  0  0  0  0  0
   -4.1365   -0.6221    1.0340 C   0  0  0  0  0  0  0  0  0  0  0  0
   -5.5324   -0.6278    1.0166 C   0  0  0  0  0  0  0  0  0  0  0  0
   -6.2359    0.0076   -0.0179 C   0  0  0  0  0  0  0  0  0  0  0  0
   -5.5191    0.5473   -1.0912 C   0  0  0  0  0  0  0  0  0  0  0  0
    2.1793   -0.0119   -0.0051 F   0  0  0  0  0  0  0  0  0  0  0  0
   -7.7106    0.1506    0.1500 C   0  0  0  0  0  0  0  0  0  0  0  0
   -8.3635    0.8425   -0.8033 O   0  0  0  0  0  0  0  0  0  0  0  0
   -8.2926   -0.2838    1.1362 O   0  0  0  0  0  0  0  0  0  0  0  0
    0.7241    2.1393   -0.0101 H   0  0  0  0  0  0  0  0  0  0  0  0
    0.6974   -2.1465    0.0034 H   0  0  0  0  0  0  0  0  0  0  0  0
   -1.7804   -2.1466   -0.0032 H   0  0  0  0  0  0  0  0  0  0  0  0
   -1.7567    2.1723    0.0183 H   0  0  0  0  0  0  0  0  0  0  0  0
   -3.5823    1.0649   -1.8652 H   0  0  0  0  0  0  0  0  0  0  0  0
   -3.6143   -1.0836    1.8711 H   0  0  0  0  0  0  0  0  0  0  0  0
   -6.0684   -1.1148    1.8309 H   0  0  0  0  0  0  0  0  0  0  0  0
   -5.9963    0.9584   -1.9717 H   0  0  0  0  0  0  0  0  0  0  0  0
   -7.8448    1.2111   -1.5355 H   0  0  0  0  0  0  0  0  0  0  0  0
  1  2  2  0  0  0  0
  1  6  1  0  0  0  0
  1 17  1  0  0  0  0
  2  3  1  0  0  0  0
  2 13  1  0  0  0  0
  3  4  2  0  0  0  0
  3 18  1  0  0  0  0
  4  5  1  0  0  0  0
  4 19  1  0  0  0  0
  5  6  2  0  0  0  0
  5  8  1  0  0  0  0
  6 20  1  0  0  0  0
  7  8  2  0  0  0  0
  7 12  1  0  0  0  0
  7 21  1  0  0  0  0
  8  9  1  0  0  0  0
  9 10  2  0  0  0  0
  9 22  1  0  0  0  0
 10 11  1  0  0  0  0
 10 23  1  0  0  0  0
 11 12  2  0  0  0  0
 11 14  1  0  0  0  0
 12 24  1  0  0  0  0
 14 15  1  0  0  0  0
 14 16  2  0  0  0  0
 15 25  1  0  0  0  0
M  END
>  <DRUGBANK_ID>
DB07108

>  <COMMON_NAME>
4'-FLUORO-1,1'-BIPHENYL-4-CARBOXYLIC ACID

>  <UNII>
1UPF6UD3CR

$$$$
