
 OpenBabel10282417143D

 17 17  0  0  0  0  0  0  0  0999 V2000
   -0.7643    1.1277   -0.0003 C   0  0  0  0  0  0  0  0  0  0  0  0
    0.6317    1.2174    0.0024 C   0  0  0  0  0  0  0  0  0  0  0  0
   -1.4699   -0.0521    0.0046 N   0  0  0  0  0  0  0  0  0  0  0  0
    1.3824    0.0507   -0.0028 C   0  0  0  0  0  0  0  0  0  0  0  0
    0.7182   -1.1670   -0.0024 C   0  0  0  0  0  0  0  0  0  0  0  0
   -0.6803   -1.1777    0.0079 C   0  0  0  0  0  0  0  0  0  0  0  0
   -1.5254    2.4206   -0.0138 C   0  0  0  0  0  0  0  0  0  0  0  0
   -2.8676    2.2754   -0.0263 O   0  0  0  0  0  0  0  0  0  0  0  0
   -0.9774    3.5141   -0.0166 O   0  0  0  0  0  0  0  0  0  0  0  0
   -1.3454   -2.5218    0.0349 C   0  0  0  0  0  0  0  0  0  0  0  0
   -2.6943   -2.4725    0.0501 O   0  0  0  0  0  0  0  0  0  0  0  0
   -0.7199   -3.5730    0.0468 O   0  0  0  0  0  0  0  0  0  0  0  0
    1.1312    2.1841    0.0068 H   0  0  0  0  0  0  0  0  0  0  0  0
    2.4698    0.0896   -0.0056 H   0  0  0  0  0  0  0  0  0  0  0  0
    1.2858   -2.0955   -0.0055 H   0  0  0  0  0  0  0  0  0  0  0  0
   -3.1435    1.3389   -0.0255 H   0  0  0  0  0  0  0  0  0  0  0  0
   -3.0345   -1.5574    0.0410 H   0  0  0  0  0  0  0  0  0  0  0  0
  1  7  1  0  0  0  0
  1  2  1  0  0  0  0
  2  4  2  0  0  0  0
  2 13  1  0  0  0  0
  3  1  2  0  0  0  0
  3  6  1  0  0  0  0
  4  5  1  0  0  0  0
  4 14  1  0  0  0  0
  5  6  2  0  0  0  0
  5 15  1  0  0  0  0
  6 10  1  0  0  0  0
  7  8  1  0  0  0  0
  7  9  2  0  0  0  0
  8 16  1  0  0  0  0
 10 11  1  0  0  0  0
 10 12  2  0  0  0  0
 11 17  1  0  0  0  0
M  END
>  <DRUGBANK_ID>
DB04267

>  <SECONDARY_ACCESSION_NUMBERS>
EXPT02530

>  <COMMON_NAME>
Dipicolinic acid

>  <CAS_NUMBER>
499-83-2

>  <UNII>
UE81S5CQ0G

>  <SYNONYMS>
2,6-dicarboxypyridine; 2,6-Dipicolinic acid; 2,6-pyridinedicarboxylic acid

$$$$
