
 OpenBabel10282417213D

 18 18  0  0  0  0  0  0  0  0999 V2000
    2.9150    1.1777   -0.0042 C   0  0  0  0  0  0  0  0  0  0  0  0
    1.5150    1.1825    0.0181 C   0  0  0  0  0  0  0  0  0  0  0  0
    2.8997   -1.2263   -0.0027 C   0  0  0  0  0  0  0  0  0  0  0  0
    3.6229   -0.0277   -0.0241 C   0  0  0  0  0  0  0  0  0  0  0  0
    0.7805   -0.0168    0.0208 C   0  0  0  0  0  0  0  0  0  0  0  0
    1.4804   -1.2339    0.0203 C   0  0  0  0  0  0  0  0  0  0  0  0
    5.1169    0.0237   -0.0735 C   0  0  0  0  0  0  0  0  0  0  0  0
   -1.3090    0.2751    0.0048 I   0  0  0  0  0  0  0  0  0  0  0  0
    5.8171   -1.1505   -0.0999 N   0  0  0  0  0  0  0  0  0  0  0  0
    0.8373   -2.5645    0.0462 N   0  3  0  0  0  0  0  0  0  0  0  0
    5.7142    1.0946   -0.0958 O   0  0  0  0  0  0  0  0  0  0  0  0
    1.5873   -3.5532    0.0425 O   0  0  0  0  0  0  0  0  0  0  0  0
   -0.3924   -2.6519    0.0748 O   0  5  0  0  0  0  0  0  0  0  0  0
    3.4470    2.1296   -0.0107 H   0  0  0  0  0  0  0  0  0  0  0  0
    1.0062    2.1466    0.0290 H   0  0  0  0  0  0  0  0  0  0  0  0
    3.4345   -2.1708   -0.0051 H   0  0  0  0  0  0  0  0  0  0  0  0
    6.8274   -1.0828   -0.1392 H   0  0  0  0  0  0  0  0  0  0  0  0
    5.4255   -2.0788   -0.0909 H   0  0  0  0  0  0  0  0  0  0  0  0
  1 14  1  0  0  0  0
  2  1  2  0  0  0  0
  2 15  1  0  0  0  0
  3 16  1  0  0  0  0
  4  1  1  0  0  0  0
  4  3  2  0  0  0  0
  5  2  1  0  0  0  0
  6  3  1  0  0  0  0
  6  5  2  0  0  0  0
  7  4  1  0  0  0  0
  8  5  1  0  0  0  0
  9  7  1  0  0  0  0
  9 17  1  0  0  0  0
  9 18  1  0  0  0  0
 10  6  1  0  0  0  0
 11  7  2  0  0  0  0
 12 10  2  0  0  0  0
 13 10  1  0  0  0  0
M  CHG  2  10   1  13  -1
M  END
>  <DRUGBANK_ID>
DB13877

>  <SECONDARY_ACCESSION_NUMBERS>
DB05975

>  <COMMON_NAME>
Iniparib

>  <CAS_NUMBER>
160003-66-7

>  <UNII>
2ZWI7KHK8F

>  <SYNONYMS>
4-iodo-3-nitrobenzamide; Iniparib

$$$$
