
 OpenBabel10282417183D

 82 87  0  0  0  0  0  0  0  0999 V2000
    0.1594   -0.7352    0.5203 C   0  0  0  0  0  0  0  0  0  0  0  0
    0.0933    0.7168    0.0909 C   0  0  0  0  0  0  0  0  0  0  0  0
    1.3023    1.3310   -0.0929 C   0  0  0  0  0  0  0  0  0  0  0  0
    1.3552   -1.4463    0.1240 C   0  0  0  0  0  0  0  0  0  0  0  0
   -1.8736    1.0453    0.8243 C   0  0  0  0  0  0  0  0  0  0  0  0
   -2.0063   -0.9907    0.8990 C   0  0  0  0  0  0  0  0  0  0  0  0
    2.5702    0.7013   -0.0380 C   0  0  0  0  0  0  0  0  0  0  0  0
   -0.8551   -1.6673    0.9292 C   0  0  0  0  0  0  0  0  0  0  0  0
   -0.8759    1.7076    0.2461 C   0  0  0  0  0  0  0  0  0  0  0  0
    2.5771   -0.6922   -0.0004 C   0  0  0  0  0  0  0  0  0  0  0  0
   -5.8649   -1.1903   -0.4904 C   0  0  2  0  0  0  0  0  0  0  0  0
   -3.9078    2.0914    0.5246 C   0  0  2  0  0  0  0  0  0  0  0  0
   -4.0485   -2.0171    0.6677 C   0  0  0  0  0  0  0  0  0  0  0  0
   -4.5469    1.4192   -2.7935 C   0  0  2  0  0  0  0  0  0  0  0  0
   -5.6158    0.6633   -1.4512 O   0  0  0  0  0  0  0  0  0  0  0  0
   -5.7831    0.9462    0.4332 C   0  0  0  0  0  0  0  0  0  0  0  0
   -2.7096    0.2336   -3.1860 C   0  0  0  0  0  0  0  0  0  0  0  0
   -7.5972   -2.1014   -1.6944 N   0  0  0  0  0  0  0  0  0  0  0  0
   -6.9702   -2.1095   -0.5306 C   0  0  0  0  0  0  0  0  0  0  0  0
   -2.9708   -1.8317   -0.6071 C   0  0  1  0  0  0  0  0  0  0  0  0
   -1.9516   -0.8770   -1.7301 C   0  0  1  0  0  0  0  0  0  0  0  0
   -4.6927   -0.3686    0.0392 C   0  0  2  0  0  0  0  0  0  0  0  0
   -5.5184   -0.5066   -3.4902 C   0  0  0  0  0  0  0  0  0  0  0  0
   -7.0862   -1.0288   -2.9618 N   0  0  0  0  0  0  0  0  0  0  0  0
   -4.4924    2.6300   -1.2620 O   0  0  0  0  0  0  0  0  0  0  0  0
    1.3066   -2.6699    0.0365 O   0  0  0  0  0  0  0  0  0  0  0  0
    1.0412    2.5023   -0.1091 O   0  0  0  0  0  0  0  0  0  0  0  0
    3.7345    1.4448   -0.0391 C   0  0  0  0  0  0  0  0  0  0  0  0
   -5.2296   -0.1704   -4.6285 O   0  0  0  0  0  0  0  0  0  0  0  0
   -4.1679   -0.2875   -2.2043 C   0  0  0  0  0  0  0  0  0  0  0  0
   -0.9656   -2.9653    0.3985 O   0  0  0  0  0  0  0  0  0  0  0  0
   -1.0106    3.0422   -0.0362 O   0  0  0  0  0  0  0  0  0  0  0  0
   -5.6390   -1.6011   -1.8702 O   0  0  0  0  0  0  0  0  0  0  0  0
   -0.8241   -1.6398   -1.8627 N   0  0  0  0  0  0  0  0  0  0  0  0
   -3.5597   -2.9805   -1.8495 O   0  0  0  0  0  0  0  0  0  0  0  0
    3.7534   -1.3998    0.0282 C   0  0  0  0  0  0  0  0  0  0  0  0
    3.8866    2.8123   -0.0687 O   0  0  0  0  0  0  0  0  0  0  0  0
   -7.2209   -2.5267    1.3360 C   0  0  0  0  0  0  0  0  0  0  0  0
   -5.8525   -1.0421    1.2513 C   0  0  0  0  0  0  0  0  0  0  0  0
    4.9347   -0.6889    0.0193 C   0  0  0  0  0  0  0  0  0  0  0  0
    4.9226    0.7139   -0.0137 C   0  0  0  0  0  0  0  0  0  0  0  0
   -3.8042   -0.6349   -1.0614 C   0  0  0  0  0  0  0  0  0  0  0  0
   -3.3680    0.9794   -1.6128 C   0  0  0  0  0  0  0  0  0  0  0  0
    2.7304    3.6369   -0.0924 C   0  0  0  0  0  0  0  0  0  0  0  0
   -2.9629    1.1349   -0.4635 C   0  0  0  0  0  0  0  0  0  0  0  0
   -3.5414   -0.3945    1.0271 C   0  0  0  0  0  0  0  0  0  0  0  0
   -3.4095    0.6866    1.4710 C   0  0  0  0  0  0  0  0  0  0  0  0
   -3.6797    3.0317    1.0153 H   0  0  0  0  0  0  0  0  0  0  0  0
   -4.3153   -2.4686    1.6156 H   0  0  0  0  0  0  0  0  0  0  0  0
   -3.9231   -3.1550    0.1049 H   0  0  0  0  0  0  0  0  0  0  0  0
   -4.5913    1.7351   -3.8437 H   0  0  0  0  0  0  0  0  0  0  0  0
   -6.5839    1.6258    0.1960 H   0  0  0  0  0  0  0  0  0  0  0  0
   -5.4783    0.8381    1.6370 H   0  0  0  0  0  0  0  0  0  0  0  0
   -2.8935   -0.9255   -3.3892 H   0  0  0  0  0  0  0  0  0  0  0  0
   -1.7791    0.7444   -2.8741 H   0  0  0  0  0  0  0  0  0  0  0  0
   -2.5553   -2.5765    0.2642 H   0  0  0  0  0  0  0  0  0  0  0  0
   -1.9194   -0.2480   -0.9138 H   0  0  0  0  0  0  0  0  0  0  0  0
   -4.3918    0.5753    0.0874 H   0  0  0  0  0  0  0  0  0  0  0  0
   -7.4924   -1.5525   -3.6910 H   0  0  0  0  0  0  0  0  0  0  0  0
   -0.1619   -3.3756    0.0815 H   0  0  0  0  0  0  0  0  0  0  0  0
   -1.9042    3.4313    0.0140 H   0  0  0  0  0  0  0  0  0  0  0  0
   -5.9556   -0.5764   -1.9141 H   0  0  0  0  0  0  0  0  0  0  0  0
   -1.2804   -2.5361   -1.6802 H   0  0  0  0  0  0  0  0  0  0  0  0
   -0.5317   -1.7424   -0.9161 H   0  0  0  0  0  0  0  0  0  0  0  0
   -4.6119   -2.9498   -1.9645 H   0  0  0  0  0  0  0  0  0  0  0  0
    3.7428   -2.4839    0.0637 H   0  0  0  0  0  0  0  0  0  0  0  0
   -6.2321   -2.9127    1.9122 H   0  0  0  0  0  0  0  0  0  0  0  0
   -7.2175   -1.5155    2.2220 H   0  0  0  0  0  0  0  0  0  0  0  0
   -8.2136   -2.6772    1.2560 H   0  0  0  0  0  0  0  0  0  0  0  0
   -5.6715   -2.4071    0.6319 H   0  0  0  0  0  0  0  0  0  0  0  0
   -6.5952   -0.2973    1.3998 H   0  0  0  0  0  0  0  0  0  0  0  0
   -7.1043   -0.7417    0.5526 H   0  0  0  0  0  0  0  0  0  0  0  0
    5.8724   -1.2315    0.0368 H   0  0  0  0  0  0  0  0  0  0  0  0
    5.8717    1.2371   -0.0260 H   0  0  0  0  0  0  0  0  0  0  0  0
   -4.4639   -1.9313   -0.9613 H   0  0  0  0  0  0  0  0  0  0  0  0
   -3.2500    2.2289   -2.3084 H   0  0  0  0  0  0  0  0  0  0  0  0
    2.1973    3.4556   -1.0682 H   0  0  0  0  0  0  0  0  0  0  0  0
    2.1875    3.4994    0.8852 H   0  0  0  0  0  0  0  0  0  0  0  0
    2.8440    4.7040   -0.1199 H   0  0  0  0  0  0  0  0  0  0  0  0
   -2.5545    2.1775   -0.7488 H   0  0  0  0  0  0  0  0  0  0  0  0
   -3.3978   -1.1964    2.0757 H   0  0  0  0  0  0  0  0  0  0  0  0
   -2.6962    0.7723    2.3463 H   0  0  0  0  0  0  0  0  0  0  0  0
  2  1  2  0  0  0  0
  3  2  1  0  0  0  0
  4  1  1  0  0  0  0
  5  9  2  0  0  0  0
  6  8  2  0  0  0  0
  6  5  1  0  0  0  0
  7  3  1  0  0  0  0
  8  1  1  0  0  0  0
  9  2  1  0  0  0  0
 10  4  1  0  0  0  0
 10  7  2  0  0  0  0
 11 13  1  0  0  0  0
 11 19  1  1  0  0  0
 11 33  1  0  0  0  0
 11 16  1  0  0  0  0
 12  5  1  0  0  0  0
 12 48  1  1  0  0  0
 13  6  1  0  0  0  0
 13 49  1  0  0  0  0
 13 50  1  0  0  0  0
 14 25  1  0  0  0  0
 14 51  1  6  0  0  0
 15 14  1  0  0  0  0
 16 12  1  0  0  0  0
 16 52  1  0  0  0  0
 16 53  1  0  0  0  0
 17 14  1  0  0  0  0
 17 54  1  0  0  0  0
 17 55  1  0  0  0  0
 19 18  2  3  0  0  0
 20 21  1  0  0  0  0
 20 56  1  1  0  0  0
 20 35  1  0  0  0  0
 21 17  1  0  0  0  0
 21 57  1  1  0  0  0
 21 34  1  0  0  0  0
 22 15  1  0  0  0  0
 22 20  1  0  0  0  0
 22 58  1  1  0  0  0
 22 39  1  0  0  0  0
 23 24  1  0  0  0  0
 24 18  1  0  0  0  0
 24 59  1  0  0  0  0
 25 12  1  0  0  0  0
 26  4  2  0  0  0  0
 27  3  2  0  0  0  0
 28  7  1  0  0  0  0
 29 23  2  0  0  0  0
 30 23  1  0  0  0  0
 31  8  1  0  0  0  0
 31 60  1  0  0  0  0
 32  9  1  0  0  0  0
 32 61  1  0  0  0  0
 33 62  1  0  0  0  0
 34 63  1  0  0  0  0
 34 64  1  0  0  0  0
 35 65  1  0  0  0  0
 36 10  1  0  0  0  0
 36 66  1  0  0  0  0
 37 28  1  0  0  0  0
 38 19  1  0  0  0  0
 38 67  1  0  0  0  0
 38 68  1  0  0  0  0
 38 69  1  0  0  0  0
 39 70  1  0  0  0  0
 39 71  1  0  0  0  0
 39 72  1  0  0  0  0
 40 36  2  0  0  0  0
 40 41  1  0  0  0  0
 40 73  1  0  0  0  0
 41 28  2  0  0  0  0
 41 74  1  0  0  0  0
 42 30  2  0  0  0  0
 42 75  1  0  0  0  0
 43 30  1  0  0  0  0
 43 76  1  0  0  0  0
 44 37  1  0  0  0  0
 44 77  1  0  0  0  0
 44 78  1  0  0  0  0
 44 79  1  0  0  0  0
 45 43  2  0  0  0  0
 45 80  1  0  0  0  0
 46 42  1  0  0  0  0
 46 81  1  0  0  0  0
 47 45  1  0  0  0  0
 47 46  2  0  0  0  0
 47 82  1  0  0  0  0
M  END
>  <DRUGBANK_ID>
DB11618

>  <COMMON_NAME>
Zorubicin

>  <CAS_NUMBER>
54083-22-6

>  <UNII>
V25F9362OP

>  <SYNONYMS>
Benzoic acid hydrazide, 3-hydrazone with daunorubicin; Zorubicin

$$$$
