
 OpenBabel10282417113D

 46 45  0  0  0  0  0  0  0  0999 V2000
   -0.5841   -1.3152    1.0173 C   0  0  0  0  0  0  0  0  0  0  0  0
    1.2814   -1.0061    0.1382 N   0  0  0  0  0  0  0  0  0  0  0  0
    1.2461    1.1651    0.7324 N   0  0  0  0  0  0  0  0  0  0  0  0
   -1.5857    0.3021    0.4190 C   0  0  0  0  0  0  0  0  0  0  0  0
   -0.6795    1.5781    0.5495 C   0  0  0  0  0  0  0  0  0  0  0  0
    0.1925    0.0664    0.5726 C   0  0  0  0  0  0  0  0  0  0  0  0
    1.5698    0.3915   -0.5863 C   0  0  0  0  0  0  0  0  0  0  0  0
   -0.0417   -1.8933   -0.4862 C   0  0  0  0  0  0  0  0  0  0  0  0
    0.5241   -0.4152   -2.1636 C   0  0  0  0  0  0  0  0  0  0  0  0
   -1.1660   -2.3352    1.3240 O   0  0  0  0  0  0  0  0  0  0  0  0
    2.5712   -1.7764    0.0276 C   0  0  0  0  0  0  0  0  0  0  0  0
   -0.2070    1.0145    2.7254 Cl  0  0  0  0  0  0  0  0  0  0  0  0
    0.0013    1.5132   -1.4899 Cl  0  0  0  0  0  0  0  0  0  0  0  0
    2.3989    0.6932    2.0522 Cl  0  0  0  0  0  0  0  0  0  0  0  0
    1.2350   -0.9568    1.8623 Cl  0  0  0  0  0  0  0  0  0  0  0  0
    1.1080    2.9144   -0.0032 Cl  0  0  0  0  0  0  0  0  0  0  0  0
    3.3343    0.0723   -1.6441 Cl  0  0  0  0  0  0  0  0  0  0  0  0
    2.8551    1.9344   -0.0671 C   0  0  0  0  0  0  0  0  0  0  0  0
    0.7085   -3.2205    0.3932 O   0  0  0  0  0  0  0  0  0  0  0  0
   -1.6121   -2.0621   -0.7159 O   0  0  0  0  0  0  0  0  0  0  0  0
    1.1300   -1.4748   -2.8571 O   0  0  0  0  0  0  0  0  0  0  0  0
   -0.9542   -0.4390   -2.2155 O   0  0  0  0  0  0  0  0  0  0  0  0
   -1.2998    2.8633    0.0838 C   0  0  0  0  0  0  0  0  0  0  0  0
    2.6076   -2.7180   -0.9825 C   0  0  0  0  0  0  0  0  0  0  0  0
    3.4085   -1.7880    1.0957 C   0  0  0  0  0  0  0  0  0  0  0  0
    3.7603   -3.2686   -1.2068 C   0  0  0  0  0  0  0  0  0  0  0  0
    4.6029   -2.1719    0.8190 C   0  0  0  0  0  0  0  0  0  0  0  0
    4.6955   -3.0404   -0.2355 C   0  0  0  0  0  0  0  0  0  0  0  0
   -2.5744    0.1289    0.0422 H   0  0  0  0  0  0  0  0  0  0  0  0
    0.5584   -2.0329   -1.3071 H   0  0  0  0  0  0  0  0  0  0  0  0
    0.9696    0.2724   -2.8406 H   0  0  0  0  0  0  0  0  0  0  0  0
    2.4865    2.3220   -1.1200 H   0  0  0  0  0  0  0  0  0  0  0  0
    2.9250    2.4925    0.8328 H   0  0  0  0  0  0  0  0  0  0  0  0
    3.5912    1.2328    0.0234 H   0  0  0  0  0  0  0  0  0  0  0  0
    1.4252   -2.8509    1.0065 H   0  0  0  0  0  0  0  0  0  0  0  0
   -2.0888   -1.9237    0.2070 H   0  0  0  0  0  0  0  0  0  0  0  0
    1.9618   -1.4009   -2.3491 H   0  0  0  0  0  0  0  0  0  0  0  0
   -1.3924   -0.8908   -1.4622 H   0  0  0  0  0  0  0  0  0  0  0  0
   -1.0432    3.3805    0.9731 H   0  0  0  0  0  0  0  0  0  0  0  0
   -0.8252    3.3646   -0.8177 H   0  0  0  0  0  0  0  0  0  0  0  0
   -2.3342    2.6756   -0.0592 H   0  0  0  0  0  0  0  0  0  0  0  0
    1.8054   -3.0651   -1.6385 H   0  0  0  0  0  0  0  0  0  0  0  0
    3.1872   -1.4339    2.0930 H   0  0  0  0  0  0  0  0  0  0  0  0
    3.7715   -3.8368   -2.1038 H   0  0  0  0  0  0  0  0  0  0  0  0
    5.3151   -1.8197    1.5153 H   0  0  0  0  0  0  0  0  0  0  0  0
    5.5467   -3.6446   -0.2468 H   0  0  0  0  0  0  0  0  0  0  0  0
  2  1  1  0  0  0  0
  3  2  1  0  0  0  0
  3  5  1  0  0  0  0
  4  1  1  0  0  0  0
  4 29  1  0  0  0  0
  5  4  2  0  0  0  0
  8  6  1  0  0  0  0
  8 30  1  0  0  0  0
  9  7  1  0  0  0  0
  9 31  1  0  0  0  0
 10  1  2  0  0  0  0
 11  2  1  0  0  0  0
 12  6  1  0  0  0  0
 13  6  1  0  0  0  0
 14  6  1  0  0  0  0
 15  7  1  0  0  0  0
 16  7  1  0  0  0  0
 17  7  1  0  0  0  0
 18  3  1  0  0  0  0
 18 32  1  0  0  0  0
 18 33  1  0  0  0  0
 18 34  1  0  0  0  0
 19  8  1  0  0  0  0
 19 35  1  0  0  0  0
 20  8  1  0  0  0  0
 20 36  1  0  0  0  0
 21  9  1  0  0  0  0
 21 37  1  0  0  0  0
 22  9  1  0  0  0  0
 22 38  1  0  0  0  0
 23  5  1  0  0  0  0
 23 39  1  0  0  0  0
 23 40  1  0  0  0  0
 23 41  1  0  0  0  0
 24 11  2  0  0  0  0
 24 42  1  0  0  0  0
 25 11  1  0  0  0  0
 25 43  1  0  0  0  0
 26 24  1  0  0  0  0
 26 28  2  0  0  0  0
 26 44  1  0  0  0  0
 27 25  2  0  0  0  0
 27 45  1  0  0  0  0
 28 27  1  0  0  0  0
 28 46  1  0  0  0  0
M  END
>  <DRUGBANK_ID>
DB01495

>  <COMMON_NAME>
Dichloralphenazone

>  <CAS_NUMBER>
480-30-8

>  <UNII>
YYX637R279

>  <SYNONYMS>
Dichloralphenazone

$$$$
