CAX
 OpenBabel10282417133D

 31 31  0  0  0  0  0  0  0  0999 V2000
   -1.8186   -1.6438    0.9096 O   0  0  0  0  0  0  0  0  0  0  0  0
   -2.0461   -1.2877    2.2526 C   0  0  0  0  0  0  0  0  0  0  0  0
   -3.1949   -1.8983    2.7899 O   0  0  0  0  0  0  0  0  0  0  0  0
   -0.8409   -1.5069    3.1715 C   0  0  0  0  0  0  0  0  0  0  0  0
    0.5123   -0.9102    2.7143 C   0  0  1  0  0  0  0  0  0  0  0  0
    0.5359    0.6000    2.2635 C   0  0  0  0  0  0  0  0  0  0  0  0
    1.3795    0.7009    0.9776 C   0  0  0  0  0  0  0  0  0  0  0  0
   -0.7945    1.2607    1.9096 C   0  0  0  0  0  0  0  0  0  0  0  0
    1.0611    1.4086    3.4845 C   0  0  2  0  0  0  0  0  0  0  0  0
    2.2577    2.2724    3.1517 C   0  0  0  0  0  0  0  0  0  0  0  0
    1.3894    0.3428    4.5009 C   0  0  0  0  0  0  0  0  0  0  0  0
    1.5111    0.5466    5.6924 O   0  0  0  0  0  0  0  0  0  0  0  0
    1.5719   -0.9900    3.8395 C   0  0  0  0  0  0  0  0  0  0  0  0
    0.8741   -1.5624    1.9064 H   0  0  0  0  0  0  0  0  0  0  0  0
    0.2688    2.0272    3.9260 H   0  0  0  0  0  0  0  0  0  0  0  0
   -1.5692   -2.5784    0.8976 H   0  0  0  0  0  0  0  0  0  0  0  0
   -2.3659   -0.2604    2.2193 H   0  0  0  0  0  0  0  0  0  0  0  0
   -3.5399   -1.2282    3.4128 H   0  0  0  0  0  0  0  0  0  0  0  0
   -1.0901   -1.1676    4.1848 H   0  0  0  0  0  0  0  0  0  0  0  0
   -0.7081   -2.5956    3.2668 H   0  0  0  0  0  0  0  0  0  0  0  0
    0.9611    0.0600    0.1918 H   0  0  0  0  0  0  0  0  0  0  0  0
    1.3642    1.7239    0.5860 H   0  0  0  0  0  0  0  0  0  0  0  0
    2.4176    0.3974    1.1316 H   0  0  0  0  0  0  0  0  0  0  0  0
   -1.4573    1.2454    2.7833 H   0  0  0  0  0  0  0  0  0  0  0  0
   -0.6999    2.3168    1.6483 H   0  0  0  0  0  0  0  0  0  0  0  0
   -1.2326    0.7863    1.0276 H   0  0  0  0  0  0  0  0  0  0  0  0
    1.9988    2.9768    2.3538 H   0  0  0  0  0  0  0  0  0  0  0  0
    2.5851    2.8476    4.0186 H   0  0  0  0  0  0  0  0  0  0  0  0
    3.1045    1.6623    2.8215 H   0  0  0  0  0  0  0  0  0  0  0  0
    1.4414   -1.8175    4.5414 H   0  0  0  0  0  0  0  0  0  0  0  0
    2.5930   -1.0075    3.4396 H   0  0  0  0  0  0  0  0  0  0  0  0
  1  2  1  0  0  0  0
  1 16  1  0  0  0  0
  2  3  1  0  0  0  0
  2  4  1  0  0  0  0
  2 17  1  0  0  0  0
  3 18  1  0  0  0  0
  4 19  1  0  0  0  0
  4 20  1  0  0  0  0
  5  6  1  0  0  0  0
  5 13  1  0  0  0  0
  5 14  1  6  0  0  0
  5  4  1  0  0  0  0
  6  7  1  0  0  0  0
  6  8  1  0  0  0  0
  6  9  1  0  0  0  0
  7 21  1  0  0  0  0
  7 22  1  0  0  0  0
  7 23  1  0  0  0  0
  8 24  1  0  0  0  0
  8 25  1  0  0  0  0
  8 26  1  0  0  0  0
  9 10  1  0  0  0  0
  9 11  1  0  0  0  0
  9 15  1  1  0  0  0
 10 27  1  0  0  0  0
 10 28  1  0  0  0  0
 10 29  1  0  0  0  0
 11 12  2  0  0  0  0
 11 13  1  0  0  0  0
 13 30  1  0  0  0  0
 13 31  1  0  0  0  0
M  END
>  <DRUGBANK_ID>
DB02906

>  <SECONDARY_ACCESSION_NUMBERS>
EXPT00834

>  <COMMON_NAME>
(2s,4s)-Alpha-Campholinic Acid

$$$$
