
 OpenBabel10282417133D

 24 24  0  0  0  0  0  0  0  0999 V2000
    0.6934    1.3059   -0.2352 C   0  0  1  0  0  0  0  0  0  0  0  0
    1.4375    0.0398    0.2121 C   0  0  1  0  0  0  0  0  0  0  0  0
   -0.7480    1.2654    0.2752 C   0  0  2  0  0  0  0  0  0  0  0  0
    0.7170   -1.2377   -0.2446 C   0  0  2  0  0  0  0  0  0  0  0  0
   -1.4835    0.0142   -0.2141 C   0  0  1  0  0  0  0  0  0  0  0  0
   -0.7477   -1.2635    0.2262 C   0  0  1  0  0  0  0  0  0  0  0  0
   -1.4716    2.4246   -0.1576 O   0  0  0  0  0  0  0  0  0  0  0  0
    1.3148    2.4959    0.2707 O   0  0  0  0  0  0  0  0  0  0  0  0
    2.7840    0.0055   -0.2801 O   0  0  0  0  0  0  0  0  0  0  0  0
    1.4287   -2.3654    0.2806 O   0  0  0  0  0  0  0  0  0  0  0  0
   -1.4099   -2.4324   -0.2732 O   0  0  0  0  0  0  0  0  0  0  0  0
   -2.8088    0.0280    0.3289 O   0  0  0  0  0  0  0  0  0  0  0  0
    0.7190    1.4031   -1.3273 H   0  0  0  0  0  0  0  0  0  0  0  0
    1.5360    0.0356    1.3044 H   0  0  0  0  0  0  0  0  0  0  0  0
   -0.7635    1.3041    1.3713 H   0  0  0  0  0  0  0  0  0  0  0  0
    0.7624   -1.3338   -1.3368 H   0  0  0  0  0  0  0  0  0  0  0  0
   -1.5942    0.0356   -1.3064 H   0  0  0  0  0  0  0  0  0  0  0  0
   -0.7856   -1.3534    1.3189 H   0  0  0  0  0  0  0  0  0  0  0  0
   -0.9132    3.1954    0.0688 H   0  0  0  0  0  0  0  0  0  0  0  0
    1.5076    2.3698    1.2174 H   0  0  0  0  0  0  0  0  0  0  0  0
    2.7678    0.1056   -1.2490 H   0  0  0  0  0  0  0  0  0  0  0  0
    2.3717   -2.1120    0.3235 H   0  0  0  0  0  0  0  0  0  0  0  0
   -1.5193   -2.3513   -1.2358 H   0  0  0  0  0  0  0  0  0  0  0  0
   -3.0600    0.9695    0.4109 H   0  0  0  0  0  0  0  0  0  0  0  0
  1  8  1  0  0  0  0
  1 13  1  6  0  0  0
  2  1  1  0  0  0  0
  2  9  1  0  0  0  0
  2 14  1  1  0  0  0
  3  1  1  0  0  0  0
  3 15  1  1  0  0  0
  3  7  1  0  0  0  0
  4  2  1  0  0  0  0
  4 16  1  6  0  0  0
  4 10  1  0  0  0  0
  5  3  1  0  0  0  0
  5 17  1  6  0  0  0
  5 12  1  0  0  0  0
  6  4  1  0  0  0  0
  6  5  1  0  0  0  0
  6 11  1  0  0  0  0
  6 18  1  1  0  0  0
  7 19  1  0  0  0  0
  8 20  1  0  0  0  0
  9 21  1  0  0  0  0
 10 22  1  0  0  0  0
 11 23  1  0  0  0  0
 12 24  1  0  0  0  0
M  END
>  <DRUGBANK_ID>
DB03106

>  <SECONDARY_ACCESSION_NUMBERS>
EXPT01892; DB05987; DB11931

>  <COMMON_NAME>
scyllo-inositol

>  <CAS_NUMBER>
488-59-5

>  <UNII>
1VS4X81277

>  <SYNONYMS>
1,3,5/2,4,6-cyclohexanehexol; Cocositol; Quercinitol; Scyllitol

$$$$
