
 OpenBabel10282417103D

 78 85  0  0  0  0  0  0  0  0999 V2000
    5.4434   -9.8288   -5.7982 C   0  0  0  0  0  0  0  0  0  0  0  0
    5.6067  -11.0943   -6.3735 C   0  0  0  0  0  0  0  0  0  0  0  0
    5.7876  -11.2626   -7.7563 C   0  0  0  0  0  0  0  0  0  0  0  0
    5.7856  -10.1064   -8.5397 C   0  0  0  0  0  0  0  0  0  0  0  0
    5.9410   -9.8969   -9.8938 N   0  0  0  0  0  0  0  0  0  0  0  0
    5.8444   -8.5525  -10.1861 C   0  0  0  0  0  0  0  0  0  0  0  0
    5.6123   -7.8918   -9.0033 C   0  0  0  0  0  0  0  0  0  0  0  0
    5.4342   -8.6819   -6.5970 C   0  0  0  0  0  0  0  0  0  0  0  0
    5.6012   -8.8563   -7.9760 C   0  0  0  0  0  0  0  0  0  0  0  0
    5.3821   -6.4651   -8.6533 C   0  0  0  0  0  0  0  0  0  0  0  0
    5.3180   -7.2731   -6.1657 C   0  0  0  0  0  0  0  0  0  0  0  0
    5.8101   -6.1838   -7.1615 C   0  0  2  0  0  0  0  0  0  0  0  0
    5.3835   -4.8216   -6.7143 N   0  0  0  0  0  0  0  0  0  0  0  0
    5.7437   -4.6511   -5.2764 C   0  0  0  0  0  0  0  0  0  0  0  0
    4.8786   -5.5811   -4.3692 C   0  0  1  0  0  0  0  0  0  0  0  0
    4.8321   -6.9711   -4.9475 C   0  0  0  0  0  0  0  0  0  0  0  0
    5.4125   -5.8193   -2.9157 C   0  0  0  0  0  0  0  0  0  0  0  0
    4.3894   -6.1045   -1.9581 N   0  0  0  0  0  0  0  0  0  0  0  0
    5.9798   -3.7752   -7.5471 C   0  0  0  0  0  0  0  0  0  0  0  0
    6.9115   -6.2299   -7.1369 H   0  0  0  0  0  0  0  0  0  0  0  0
    6.6106   -5.8319   -2.6452 O   0  0  0  0  0  0  0  0  0  0  0  0
    4.7973   -6.0360   -0.5532 C   0  0  1  0  0  0  0  0  0  0  0  0
    4.8693   -7.5583    0.5418 C   0  0  0  0  0  0  0  0  0  0  0  0
    3.9328   -6.0778    0.6225 O   0  0  0  0  0  0  0  0  0  0  0  0
    5.0651   -5.9041    1.5517 C   0  0  2  0  0  0  0  0  0  0  0  0
    5.2715   -7.1878    1.8692 N   0  0  0  0  0  0  0  0  0  0  0  0
    5.6338   -7.5286    3.3289 C   0  0  2  0  0  0  0  0  0  0  0  0
    5.5760   -6.2613    4.3594 C   0  0  0  0  0  0  0  0  0  0  0  0
    4.7015   -4.8697    2.5526 C   0  0  1  0  0  0  0  0  0  0  0  0
    5.3468   -5.0163    3.7999 N   0  0  0  0  0  0  0  0  0  0  0  0
    5.5318   -3.6912    4.3728 C   0  0  0  0  0  0  0  0  0  0  0  0
    5.7618   -2.7551    3.1962 C   0  0  0  0  0  0  0  0  0  0  0  0
    5.2119   -3.5072    2.0476 C   0  0  0  0  0  0  0  0  0  0  0  0
    6.3262   -5.5834    0.9824 O   0  0  0  0  0  0  0  0  0  0  0  0
    3.6166   -4.8912    2.7056 H   0  0  0  0  0  0  0  0  0  0  0  0
    4.3953   -8.6988    0.3174 O   0  0  0  0  0  0  0  0  0  0  0  0
    5.8922   -6.3580    5.5458 O   0  0  0  0  0  0  0  0  0  0  0  0
    7.0971   -8.1011    3.4467 C   0  0  0  0  0  0  0  0  0  0  0  0
    8.1527   -7.2305    2.7748 C   0  0  0  0  0  0  0  0  0  0  0  0
    8.3876   -5.9112    3.2212 C   0  0  0  0  0  0  0  0  0  0  0  0
    9.0359   -4.9827    2.4027 C   0  0  0  0  0  0  0  0  0  0  0  0
    9.6310   -5.4073    1.2222 C   0  0  0  0  0  0  0  0  0  0  0  0
    9.5422   -6.7475    0.8439 C   0  0  0  0  0  0  0  0  0  0  0  0
    8.7458   -7.6383    1.5719 C   0  0  0  0  0  0  0  0  0  0  0  0
    4.3812   -4.4090   -0.4116 C   0  0  0  0  0  0  0  0  0  0  0  0
    5.3387   -9.7508   -4.7196 H   0  0  0  0  0  0  0  0  0  0  0  0
    5.6007  -11.9679   -5.7256 H   0  0  0  0  0  0  0  0  0  0  0  0
    5.9215  -12.2487   -8.1856 H   0  0  0  0  0  0  0  0  0  0  0  0
    6.0975  -10.6277  -10.5734 H   0  0  0  0  0  0  0  0  0  0  0  0
    5.9385   -8.1965  -11.2032 H   0  0  0  0  0  0  0  0  0  0  0  0
    4.3167   -6.2368   -8.7842 H   0  0  0  0  0  0  0  0  0  0  0  0
    5.9530   -5.8378   -9.3464 H   0  0  0  0  0  0  0  0  0  0  0  0
    6.8182   -4.8299   -5.1384 H   0  0  0  0  0  0  0  0  0  0  0  0
    5.5634   -3.6070   -4.9874 H   0  0  0  0  0  0  0  0  0  0  0  0
    3.8625   -5.1684   -4.3253 H   0  0  0  0  0  0  0  0  0  0  0  0
    4.4583   -7.7412   -4.2808 H   0  0  0  0  0  0  0  0  0  0  0  0
    3.6350   -5.4637   -2.1680 H   0  0  0  0  0  0  0  0  0  0  0  0
    7.0742   -3.8050   -7.5317 H   0  0  0  0  0  0  0  0  0  0  0  0
    5.6487   -3.8523   -8.5898 H   0  0  0  0  0  0  0  0  0  0  0  0
    5.6477   -2.7858   -7.2172 H   0  0  0  0  0  0  0  0  0  0  0  0
    4.9334   -8.2761    3.7311 H   0  0  0  0  0  0  0  0  0  0  0  0
    6.3663   -3.6651    5.0646 H   0  0  0  0  0  0  0  0  0  0  0  0
    4.5882   -3.4047    4.8443 H   0  0  0  0  0  0  0  0  0  0  0  0
    6.8152   -2.5430    2.9774 H   0  0  0  0  0  0  0  0  0  0  0  0
    5.2181   -1.8086    3.2298 H   0  0  0  0  0  0  0  0  0  0  0  0
    6.0340   -3.5749    1.3218 H   0  0  0  0  0  0  0  0  0  0  0  0
    4.4190   -2.9087    1.6061 H   0  0  0  0  0  0  0  0  0  0  0  0
    6.9276   -5.7915    1.7024 H   0  0  0  0  0  0  0  0  0  0  0  0
    7.4035   -8.2228    4.4972 H   0  0  0  0  0  0  0  0  0  0  0  0
    7.1162   -9.1088    3.0126 H   0  0  0  0  0  0  0  0  0  0  0  0
    7.8997   -5.5245    4.1097 H   0  0  0  0  0  0  0  0  0  0  0  0
    8.9973   -3.9233    2.6482 H   0  0  0  0  0  0  0  0  0  0  0  0
   10.1283   -4.6897    0.5750 H   0  0  0  0  0  0  0  0  0  0  0  0
   10.0443   -7.0822   -0.0601 H   0  0  0  0  0  0  0  0  0  0  0  0
    8.5297   -8.6162    1.1426 H   0  0  0  0  0  0  0  0  0  0  0  0
    5.2015   -3.6950   -0.5379 H   0  0  0  0  0  0  0  0  0  0  0  0
    3.5497   -4.0658   -1.0375 H   0  0  0  0  0  0  0  0  0  0  0  0
    3.8013   -4.1769    0.4910 H   0  0  0  0  0  0  0  0  0  0  0  0
  1  2  2  0  0  0  0
  1 46  1  0  0  0  0
  2  3  1  0  0  0  0
  2 47  1  0  0  0  0
  3  4  2  0  0  0  0
  3 48  1  0  0  0  0
  4  5  1  0  0  0  0
  5  6  1  0  0  0  0
  5 49  1  0  0  0  0
  6  7  2  0  0  0  0
  6 50  1  0  0  0  0
  7 10  1  0  0  0  0
  7  9  1  0  0  0  0
  8  1  1  0  0  0  0
  8  9  2  0  0  0  0
  8 11  1  0  0  0  0
  9  4  1  0  0  0  0
 10 12  1  0  0  0  0
 10 51  1  0  0  0  0
 10 52  1  0  0  0  0
 11 12  1  0  0  0  0
 11 16  2  0  0  0  0
 12 13  1  0  0  0  0
 12 20  1  1  0  0  0
 13 14  1  0  0  0  0
 13 19  1  0  0  0  0
 14 15  1  0  0  0  0
 14 53  1  0  0  0  0
 14 54  1  0  0  0  0
 15 16  1  0  0  0  0
 15 17  1  0  0  0  0
 15 55  1  1  0  0  0
 16 56  1  0  0  0  0
 17 18  1  0  0  0  0
 17 21  2  0  0  0  0
 18 57  1  0  0  0  0
 19 58  1  0  0  0  0
 19 59  1  0  0  0  0
 19 60  1  0  0  0  0
 22 23  1  0  0  0  0
 22 18  1  1  0  0  0
 22 45  1  0  0  0  0
 23 26  1  0  0  0  0
 23 36  2  0  0  0  0
 24 22  1  0  0  0  0
 25 24  1  0  0  0  0
 25 26  1  0  0  0  0
 25 29  1  0  0  0  0
 25 34  1  6  0  0  0
 26 27  1  0  0  0  0
 27 28  1  0  0  0  0
 27 61  1  1  0  0  0
 27 38  1  0  0  0  0
 28 30  1  0  0  0  0
 28 37  2  0  0  0  0
 29 30  1  0  0  0  0
 29 35  1  1  0  0  0
 30 31  1  0  0  0  0
 31 32  1  0  0  0  0
 31 62  1  0  0  0  0
 31 63  1  0  0  0  0
 32 33  1  0  0  0  0
 32 64  1  0  0  0  0
 32 65  1  0  0  0  0
 33 29  1  0  0  0  0
 33 66  1  0  0  0  0
 33 67  1  0  0  0  0
 34 68  1  0  0  0  0
 38 39  1  0  0  0  0
 38 69  1  0  0  0  0
 38 70  1  0  0  0  0
 39 40  2  0  0  0  0
 40 41  1  0  0  0  0
 40 71  1  0  0  0  0
 41 42  2  0  0  0  0
 41 72  1  0  0  0  0
 42 43  1  0  0  0  0
 42 73  1  0  0  0  0
 43 44  2  0  0  0  0
 43 74  1  0  0  0  0
 44 39  1  0  0  0  0
 44 75  1  0  0  0  0
 45 76  1  0  0  0  0
 45 77  1  0  0  0  0
 45 78  1  0  0  0  0
M  END
>  <DRUGBANK_ID>
DB00696

>  <SECONDARY_ACCESSION_NUMBERS>
APRD00677

>  <COMMON_NAME>
Ergotamine

>  <CAS_NUMBER>
113-15-5

>  <UNII>
PR834Q503T

>  <SYNONYMS>
(5'α)-12'-hydroxy-2'-methyl-5'-(phenylmethyl)ergotoman-3',6',18-trione; 12'-Hydroxy-2'-methyl-5'alpha-(phenylmethyl)ergotaman-3',6',18-trione; 12'-hydroxy-2'-methyl-5'α-(phenylmethyl)ergotaman-3',6',18-trione; Ergotamin; Ergotamina; Ergotamine; Ergotaminum

$$$$
