
 OpenBabel10282417123D

112114  0  0  0  0  0  0  0  0999 V2000
    1.2799   -0.2700   -0.3405 O   0  0  0  0  0  0  0  0  0  0  0  0
   -5.8502    2.4627    0.9831 O   0  0  0  0  0  0  0  0  0  0  0  0
    1.4654    1.0844   -2.1328 O   0  0  0  0  0  0  0  0  0  0  0  0
   -1.0811   -2.4383    0.6111 O   0  0  0  0  0  0  0  0  0  0  0  0
   -6.0123   -1.3486   -2.9185 O   0  0  0  0  0  0  0  0  0  0  0  0
   -3.9798    2.2962   -1.9711 O   0  0  0  0  0  0  0  0  0  0  0  0
   -5.6890    0.7975   -3.4536 O   0  0  0  0  0  0  0  0  0  0  0  0
   -0.6817    1.8831    3.3155 O   0  0  0  0  0  0  0  0  0  0  0  0
   -7.3210   -0.0107    1.5239 O   0  0  0  0  0  0  0  0  0  0  0  0
   -5.7425   -1.1414    2.6284 O   0  0  0  0  0  0  0  0  0  0  0  0
   -1.3313   -0.7411   -0.8679 N   0  0  0  0  0  0  0  0  0  0  0  0
   -6.8413    0.3706   -1.5478 N   0  0  0  0  0  0  0  0  0  0  0  0
   -3.1748    2.5784    0.0625 N   0  0  0  0  0  0  0  0  0  0  0  0
   -1.6516    0.2092    2.3906 N   0  0  0  0  0  0  0  0  0  0  0  0
   -3.9744    5.6932    2.8553 N   0  0  0  0  0  0  0  0  0  0  0  0
   -4.2081    4.8226    0.6867 N   0  0  0  0  0  0  0  0  0  0  0  0
   -4.9348    6.7448    0.9663 N   0  0  0  0  0  0  0  0  0  0  0  0
   -7.8914    3.8288   -1.3606 C   0  0  0  0  0  0  0  0  0  0  0  0
   -0.3655    3.0820   -0.2674 C   0  0  0  0  0  0  0  0  0  0  0  0
   -8.1202    4.7762   -2.4928 C   0  0  0  0  0  0  0  0  0  0  0  0
   -7.2955    4.5387   -0.1320 C   0  0  0  0  0  0  0  0  0  0  0  0
    0.2403    3.4188    1.1035 C   0  0  0  0  0  0  0  0  0  0  0  0
   -1.3641    4.2381   -0.6795 C   0  0  0  0  0  0  0  0  0  0  0  0
   -8.9531    5.9200   -2.0123 C   0  0  0  0  0  0  0  0  0  0  0  0
   -8.0746    5.7324    0.3283 C   0  0  0  0  0  0  0  0  0  0  0  0
    0.6439    4.8382    1.2806 C   0  0  0  0  0  0  0  0  0  0  0  0
   -1.0555    5.6847   -0.3736 C   0  0  0  0  0  0  0  0  0  0  0  0
   -6.9842    2.8217   -2.0417 C   0  0  0  0  0  0  0  0  0  0  0  0
   -0.7174    1.5397   -0.1448 C   0  0  0  0  0  0  0  0  0  0  0  0
   -8.2840    6.6506   -0.8523 C   0  0  0  0  0  0  0  0  0  0  0  0
   -0.4895    5.8255    1.0307 C   0  0  0  0  0  0  0  0  0  0  0  0
   -6.7514    1.7675   -1.0580 C   0  0  2  0  0  0  0  0  0  0  0  0
   -0.7199    0.5468   -1.2715 C   0  0  1  0  0  0  0  0  0  0  0  0
   -5.6413    2.3826   -0.2207 C   0  0  0  0  0  0  0  0  0  0  0  0
    0.7673    0.3908   -1.4153 C   0  0  0  0  0  0  0  0  0  0  0  0
   -1.4199   -1.2626    0.4423 C   0  0  0  0  0  0  0  0  0  0  0  0
   -2.4949   -0.4748    1.5135 C   0  0  2  0  0  0  0  0  0  0  0  0
   -4.2394    2.4836   -0.7882 C   0  0  0  0  0  0  0  0  0  0  0  0
   -2.6329    2.5348    1.7285 C   0  0  2  0  0  0  0  0  0  0  0  0
   -6.1778   -0.0212   -2.6835 C   0  0  0  0  0  0  0  0  0  0  0  0
   -3.6435    0.2151    0.7833 C   0  0  0  0  0  0  0  0  0  0  0  0
   -1.5581    1.5309    2.5214 C   0  0  0  0  0  0  0  0  0  0  0  0
   -3.8273    2.5855    2.6376 C   0  0  0  0  0  0  0  0  0  0  0  0
   -5.0638   -0.1976    0.5751 C   0  0  0  0  0  0  0  0  0  0  0  0
   -3.6121    3.3062    3.8919 C   0  0  0  0  0  0  0  0  0  0  0  0
   -3.1363    4.7272    3.6257 C   0  0  0  0  0  0  0  0  0  0  0  0
   -6.4225   -2.5785   -2.2011 C   0  0  0  0  0  0  0  0  0  0  0  0
   -6.0547   -0.4112    1.6466 C   0  0  0  0  0  0  0  0  0  0  0  0
   -5.4942   -3.0117   -1.1133 C   0  0  0  0  0  0  0  0  0  0  0  0
   -4.2823   -2.4564   -1.1888 C   0  0  0  0  0  0  0  0  0  0  0  0
   -5.7460   -3.8725   -0.0020 C   0  0  0  0  0  0  0  0  0  0  0  0
   -4.3280    5.7421    1.6328 C   0  0  0  0  0  0  0  0  0  0  0  0
   -3.6876   -2.4457    0.0270 C   0  0  0  0  0  0  0  0  0  0  0  0
   -5.0060   -3.8484    1.2057 C   0  0  0  0  0  0  0  0  0  0  0  0
   -3.9610   -3.0165    1.2590 C   0  0  0  0  0  0  0  0  0  0  0  0
    2.1554    0.1198   -0.1512 H   0  0  0  0  0  0  0  0  0  0  0  0
   -7.5991    0.7912    1.0470 H   0  0  0  0  0  0  0  0  0  0  0  0
   -1.2123   -1.4806   -1.5605 H   0  0  0  0  0  0  0  0  0  0  0  0
   -7.0623   -0.3672   -0.8879 H   0  0  0  0  0  0  0  0  0  0  0  0
   -2.4837    2.4540   -0.6762 H   0  0  0  0  0  0  0  0  0  0  0  0
   -0.8966   -0.3347    2.8020 H   0  0  0  0  0  0  0  0  0  0  0  0
   -4.0333    5.0320   -0.2835 H   0  0  0  0  0  0  0  0  0  0  0  0
   -3.5331    4.1751    0.9914 H   0  0  0  0  0  0  0  0  0  0  0  0
   -5.6308    7.2290    1.5060 H   0  0  0  0  0  0  0  0  0  0  0  0
   -5.2973    6.4445    0.0691 H   0  0  0  0  0  0  0  0  0  0  0  0
   -8.8173    3.3339   -1.0363 H   0  0  0  0  0  0  0  0  0  0  0  0
    0.3943    3.1244   -1.0340 H   0  0  0  0  0  0  0  0  0  0  0  0
   -7.1491    5.1240   -2.8750 H   0  0  0  0  0  0  0  0  0  0  0  0
   -8.6087    4.2208   -3.3018 H   0  0  0  0  0  0  0  0  0  0  0  0
   -7.2622    3.9186    0.7629 H   0  0  0  0  0  0  0  0  0  0  0  0
   -6.2873    4.8360   -0.4084 H   0  0  0  0  0  0  0  0  0  0  0  0
   -0.4280    3.3596    1.9378 H   0  0  0  0  0  0  0  0  0  0  0  0
    1.0117    2.6869    1.3605 H   0  0  0  0  0  0  0  0  0  0  0  0
   -1.8877    4.1203   -1.6384 H   0  0  0  0  0  0  0  0  0  0  0  0
   -2.1291    4.2392    0.0441 H   0  0  0  0  0  0  0  0  0  0  0  0
   -9.0980    6.5875   -2.8576 H   0  0  0  0  0  0  0  0  0  0  0  0
   -9.9195    5.5182   -1.6897 H   0  0  0  0  0  0  0  0  0  0  0  0
   -7.5381    6.2356    1.1403 H   0  0  0  0  0  0  0  0  0  0  0  0
   -9.0190    5.3797    0.7541 H   0  0  0  0  0  0  0  0  0  0  0  0
    0.9773    4.9344    2.3192 H   0  0  0  0  0  0  0  0  0  0  0  0
    1.4560    4.9897    0.5829 H   0  0  0  0  0  0  0  0  0  0  0  0
   -1.9984    6.2648   -0.4102 H   0  0  0  0  0  0  0  0  0  0  0  0
   -0.3951    6.0663   -1.1390 H   0  0  0  0  0  0  0  0  0  0  0  0
   -6.0497    3.3131   -2.3445 H   0  0  0  0  0  0  0  0  0  0  0  0
   -7.4354    2.3916   -2.9307 H   0  0  0  0  0  0  0  0  0  0  0  0
   -1.6566    1.3289    0.2648 H   0  0  0  0  0  0  0  0  0  0  0  0
   -0.1166    1.1088    0.6623 H   0  0  0  0  0  0  0  0  0  0  0  0
   -7.3087    7.0388   -1.1759 H   0  0  0  0  0  0  0  0  0  0  0  0
   -8.9026    7.4877   -0.5374 H   0  0  0  0  0  0  0  0  0  0  0  0
   -1.2964    5.7079    1.7650 H   0  0  0  0  0  0  0  0  0  0  0  0
   -0.1272    6.8396    1.1798 H   0  0  0  0  0  0  0  0  0  0  0  0
   -7.5817    1.7978   -0.3455 H   0  0  0  0  0  0  0  0  0  0  0  0
   -1.2593    0.8976   -2.1582 H   0  0  0  0  0  0  0  0  0  0  0  0
   -3.0389   -1.0259    2.2668 H   0  0  0  0  0  0  0  0  0  0  0  0
   -2.1326    3.4826    1.7586 H   0  0  0  0  0  0  0  0  0  0  0  0
   -3.9039    1.1082    1.2359 H   0  0  0  0  0  0  0  0  0  0  0  0
   -3.2877    0.4086   -0.2311 H   0  0  0  0  0  0  0  0  0  0  0  0
   -4.5855    3.1766    2.1902 H   0  0  0  0  0  0  0  0  0  0  0  0
   -4.2267    1.6003    2.8813 H   0  0  0  0  0  0  0  0  0  0  0  0
   -5.3318    0.5753   -0.0532 H   0  0  0  0  0  0  0  0  0  0  0  0
   -5.2352   -0.8226   -0.2527 H   0  0  0  0  0  0  0  0  0  0  0  0
   -4.5789    3.2602    4.3894 H   0  0  0  0  0  0  0  0  0  0  0  0
   -2.8894    2.7084    4.4631 H   0  0  0  0  0  0  0  0  0  0  0  0
   -2.9940    5.1400    4.6233 H   0  0  0  0  0  0  0  0  0  0  0  0
   -2.1189    4.6938    3.2307 H   0  0  0  0  0  0  0  0  0  0  0  0
   -7.4292   -2.4294   -1.8304 H   0  0  0  0  0  0  0  0  0  0  0  0
   -6.3244   -3.3691   -2.9420 H   0  0  0  0  0  0  0  0  0  0  0  0
   -3.9889   -1.6537   -1.8871 H   0  0  0  0  0  0  0  0  0  0  0  0
   -6.5140   -4.6169   -0.0715 H   0  0  0  0  0  0  0  0  0  0  0  0
   -3.1961   -1.5418   -0.0782 H   0  0  0  0  0  0  0  0  0  0  0  0
   -5.2295   -4.3875    2.1177 H   0  0  0  0  0  0  0  0  0  0  0  0
   -3.4607   -2.7739    2.1987 H   0  0  0  0  0  0  0  0  0  0  0  0
  1 35  1  0  0  0  0
  1 56  1  0  0  0  0
  2 34  2  0  0  0  0
  3 35  2  0  0  0  0
  4 36  2  0  0  0  0
  5 40  1  0  0  0  0
  5 47  1  0  0  0  0
  6 38  2  0  0  0  0
  7 40  2  0  0  0  0
  8 42  2  0  0  0  0
  9 48  1  0  0  0  0
  9 57  1  0  0  0  0
 10 48  2  0  0  0  0
 11 36  1  0  0  0  0
 11 58  1  0  0  0  0
 12 40  1  0  0  0  0
 12 59  1  0  0  0  0
 13 38  1  0  0  0  0
 13 60  1  0  0  0  0
 14 42  1  0  0  0  0
 14 61  1  0  0  0  0
 15 46  1  0  0  0  0
 15 52  2  0  0  0  0
 16 52  1  0  0  0  0
 16 62  1  0  0  0  0
 16 63  1  0  0  0  0
 17 52  1  0  0  0  0
 17 64  1  0  0  0  0
 17 65  1  0  0  0  0
 18 20  1  0  0  0  0
 18 21  1  0  0  0  0
 18 28  1  0  0  0  0
 18 66  1  0  0  0  0
 19 22  1  0  0  0  0
 19 23  1  0  0  0  0
 19 29  1  0  0  0  0
 19 67  1  0  0  0  0
 20 24  1  0  0  0  0
 20 68  1  0  0  0  0
 20 69  1  0  0  0  0
 21 25  1  0  0  0  0
 21 70  1  0  0  0  0
 21 71  1  0  0  0  0
 22 26  1  0  0  0  0
 22 72  1  0  0  0  0
 22 73  1  0  0  0  0
 23 27  1  0  0  0  0
 23 74  1  0  0  0  0
 23 75  1  0  0  0  0
 24 30  1  0  0  0  0
 24 76  1  0  0  0  0
 24 77  1  0  0  0  0
 25 30  1  0  0  0  0
 25 78  1  0  0  0  0
 25 79  1  0  0  0  0
 26 31  1  0  0  0  0
 26 80  1  0  0  0  0
 26 81  1  0  0  0  0
 27 31  1  0  0  0  0
 27 82  1  0  0  0  0
 27 83  1  0  0  0  0
 28 84  1  0  0  0  0
 28 85  1  0  0  0  0
 29 33  1  0  0  0  0
 29 86  1  0  0  0  0
 29 87  1  0  0  0  0
 30 88  1  0  0  0  0
 30 89  1  0  0  0  0
 31 90  1  0  0  0  0
 31 91  1  0  0  0  0
 32 34  1  0  0  0  0
 32 92  1  1  0  0  0
 32 28  1  0  0  0  0
 32 12  1  0  0  0  0
 33 11  1  0  0  0  0
 33 35  1  0  0  0  0
 33 93  1  6  0  0  0
 34 38  1  0  0  0  0
 36 37  1  0  0  0  0
 37 14  1  0  0  0  0
 37 41  1  0  0  0  0
 37 94  1  1  0  0  0
 39 13  1  0  0  0  0
 39 42  1  0  0  0  0
 39 43  1  0  0  0  0
 39 95  1  1  0  0  0
 41 44  1  0  0  0  0
 41 96  1  0  0  0  0
 41 97  1  0  0  0  0
 43 45  1  0  0  0  0
 43 98  1  0  0  0  0
 43 99  1  0  0  0  0
 44 48  1  0  0  0  0
 44100  1  0  0  0  0
 44101  1  0  0  0  0
 45 46  1  0  0  0  0
 45102  1  0  0  0  0
 45103  1  0  0  0  0
 46104  1  0  0  0  0
 46105  1  0  0  0  0
 47 49  1  0  0  0  0
 47106  1  0  0  0  0
 47107  1  0  0  0  0
 49 50  2  0  0  0  0
 49 51  1  0  0  0  0
 50 53  1  0  0  0  0
 50108  1  0  0  0  0
 51 54  2  0  0  0  0
 51109  1  0  0  0  0
 53 55  2  0  0  0  0
 53110  1  0  0  0  0
 54 55  1  0  0  0  0
 54111  1  0  0  0  0
 55112  1  0  0  0  0
M  END
>  <DRUGBANK_ID>
DB01984

>  <SECONDARY_ACCESSION_NUMBERS>
EXPT01214

>  <COMMON_NAME>
(4S)-5-[[(1S)-1-Carboxy-2-cyclohexylethyl]amino]-4-[[(2S)-2-[[(3R)-4-cyclohexyl-2-oxo-3-(phenylmethoxycarbonylamino)butanoyl]amino]-5-(diaminomethylideneamino)pentanoyl]amino]-5-oxopentanoic acid

$$$$
