
 OpenBabel10282417203D

 18 19  0  0  0  0  0  0  0  0999 V2000
   -1.4386   -1.0529   -0.1409 C   0  0  0  0  0  0  0  0  0  0  0  0
   -1.7282    0.1189    0.7730 C   0  0  0  0  0  0  0  0  0  0  0  0
   -0.9738    1.2393    0.1101 C   0  0  0  0  0  0  0  0  0  0  0  0
   -1.1355    2.4264    0.3444 O   0  0  0  0  0  0  0  0  0  0  0  0
    0.0821    0.6825   -0.6370 N   0  0  0  0  0  0  0  0  0  0  0  0
   -0.0525   -0.7492   -0.6805 C   0  0  3  0  0  0  0  0  0  0  0  0
    0.9877   -1.2197    0.1647 N   0  0  0  0  0  0  0  0  0  0  0  0
    1.6856   -0.1644    0.7174 C   0  0  0  0  0  0  0  0  0  0  0  0
    2.4596   -0.2572    1.6579 O   0  0  0  0  0  0  0  0  0  0  0  0
    1.3954    1.0641   -0.1272 C   0  0  0  0  0  0  0  0  0  0  0  0
   -1.5004   -2.0106    0.3848 H   0  0  0  0  0  0  0  0  0  0  0  0
   -2.1752   -1.0545   -0.9526 H   0  0  0  0  0  0  0  0  0  0  0  0
   -2.7932    0.3345    0.8579 H   0  0  0  0  0  0  0  0  0  0  0  0
   -1.2923   -0.0421    1.7664 H   0  0  0  0  0  0  0  0  0  0  0  0
    0.0973   -1.1324   -1.6957 H   0  0  0  0  0  0  0  0  0  0  0  0
    1.1126   -2.1717    0.4794 H   0  0  0  0  0  0  0  0  0  0  0  0
    1.3838    1.9807    0.4649 H   0  0  0  0  0  0  0  0  0  0  0  0
    2.1218    1.0956   -0.9440 H   0  0  0  0  0  0  0  0  0  0  0  0
  1  2  1  0  0  0  0
  1  6  1  0  0  0  0
  1 11  1  0  0  0  0
  1 12  1  0  0  0  0
  2  3  1  0  0  0  0
  2 13  1  0  0  0  0
  2 14  1  0  0  0  0
  3  4  2  0  0  0  0
  3  5  1  0  0  0  0
  5  6  1  0  0  0  0
  5 10  1  0  0  0  0
  6  7  1  0  0  0  0
  6 15  1  0  0  0  0
  7  8  1  0  0  0  0
  7 16  1  0  0  0  0
  8  9  2  0  0  0  0
  8 10  1  0  0  0  0
 10 17  1  0  0  0  0
 10 18  1  0  0  0  0
M  END
>  <DRUGBANK_ID>
DB13018

>  <COMMON_NAME>
Dimiracetam

>  <CAS_NUMBER>
126100-97-8

>  <UNII>
4AW7F70MZO

>  <SYNONYMS>
Dimiracetam

$$$$
