
 OpenBabel10282417193D

 52 54  0  0  0  0  0  0  0  0999 V2000
   -2.5408   -0.4993   -0.0348 C   0  0  0  0  0  0  0  0  0  0  0  0
   -1.0736   -0.2507   -0.1023 C   0  0  0  0  0  0  0  0  0  0  0  0
   -0.0290   -1.1415    0.0290 C   0  0  0  0  0  0  0  0  0  0  0  0
    1.4653   -0.2582    0.0883 S   0  0  0  0  0  0  0  0  0  0  0  0
    0.5856    1.2023   -0.0944 C   0  0  0  0  0  0  0  0  0  0  0  0
   -0.6687    1.0206   -0.3775 N   0  0  0  0  0  0  0  0  0  0  0  0
    1.1885    2.4234    0.0758 N   0  0  0  0  0  0  0  0  0  0  0  0
    0.5688    3.6522   -0.0194 C   0  0  0  0  0  0  0  0  0  0  0  0
    1.2976    4.6301   -0.2074 O   0  0  0  0  0  0  0  0  0  0  0  0
   -0.7976    3.7875    0.0947 N   0  0  0  0  0  0  0  0  0  0  0  0
   -1.6928    3.0093    0.9225 C   0  0  0  0  0  0  0  0  0  0  0  0
   -2.8424    2.7130   -0.0306 C   0  0  0  0  0  0  0  0  0  0  0  0
   -3.0303    4.0301   -0.7465 C   0  0  0  0  0  0  0  0  0  0  0  0
   -1.6211    4.6897   -0.7472 C   0  0  1  0  0  0  0  0  0  0  0  0
   -1.6580    6.1626   -0.2650 C   0  0  0  0  0  0  0  0  0  0  0  0
   -0.6674    6.8990   -0.2541 O   0  0  0  0  0  0  0  0  0  0  0  0
   -2.8274    6.6898    0.2082 N   0  0  0  0  0  0  0  0  0  0  0  0
   -0.1613   -2.5927    0.0573 C   0  0  0  0  0  0  0  0  0  0  0  0
   -0.9028   -3.1937   -0.9710 C   0  0  0  0  0  0  0  0  0  0  0  0
   -1.1812   -4.5565   -0.9582 C   0  0  0  0  0  0  0  0  0  0  0  0
   -0.7441   -5.3247    0.0688 N   0  0  0  0  0  0  0  0  0  0  0  0
   -0.0448   -4.7259    1.0676 C   0  0  0  0  0  0  0  0  0  0  0  0
    0.2657   -3.3769    1.1108 C   0  0  0  0  0  0  0  0  0  0  0  0
   -1.9576   -5.2490   -2.0843 C   0  0  0  0  0  0  0  0  0  0  0  0
   -1.0393   -6.2874   -2.7544 C   0  0  0  0  0  0  0  0  0  0  0  0
   -3.1930   -5.9707   -1.5117 C   0  0  0  0  0  0  0  0  0  0  0  0
   -2.4376   -4.2661   -3.1616 C   0  0  0  0  0  0  0  0  0  0  0  0
   -3.2741   -3.3305   -2.6475 F   0  0  0  0  0  0  0  0  0  0  0  0
   -1.4049   -3.6086   -3.7418 F   0  0  0  0  0  0  0  0  0  0  0  0
   -3.1102   -4.8873   -4.1566 F   0  0  0  0  0  0  0  0  0  0  0  0
   -2.9617   -0.0011    0.8473 H   0  0  0  0  0  0  0  0  0  0  0  0
   -3.0288   -0.0957   -0.9262 H   0  0  0  0  0  0  0  0  0  0  0  0
   -2.8021   -1.5538    0.0383 H   0  0  0  0  0  0  0  0  0  0  0  0
    2.1986    2.4567    0.0687 H   0  0  0  0  0  0  0  0  0  0  0  0
   -2.0320    3.6727    1.7250 H   0  0  0  0  0  0  0  0  0  0  0  0
   -1.2361    2.1636    1.4355 H   0  0  0  0  0  0  0  0  0  0  0  0
   -2.6015    2.0043   -0.8226 H   0  0  0  0  0  0  0  0  0  0  0  0
   -3.7374    2.3570    0.4837 H   0  0  0  0  0  0  0  0  0  0  0  0
   -3.4267    3.9006   -1.7599 H   0  0  0  0  0  0  0  0  0  0  0  0
   -3.8034    4.5407   -0.1803 H   0  0  0  0  0  0  0  0  0  0  0  0
   -1.2123    4.6851   -1.7669 H   0  0  0  0  0  0  0  0  0  0  0  0
   -3.7339    6.2512    0.2157 H   0  0  0  0  0  0  0  0  0  0  0  0
   -2.7968    7.6482    0.5255 H   0  0  0  0  0  0  0  0  0  0  0  0
   -1.2818   -2.5468   -1.7577 H   0  0  0  0  0  0  0  0  0  0  0  0
    0.2613   -5.3879    1.8730 H   0  0  0  0  0  0  0  0  0  0  0  0
    0.7841   -2.9513    1.9608 H   0  0  0  0  0  0  0  0  0  0  0  0
   -0.7132   -7.0591   -2.0476 H   0  0  0  0  0  0  0  0  0  0  0  0
   -1.5538   -6.7959   -3.5782 H   0  0  0  0  0  0  0  0  0  0  0  0
   -0.1396   -5.8140   -3.1640 H   0  0  0  0  0  0  0  0  0  0  0  0
   -3.8719   -5.2675   -1.0159 H   0  0  0  0  0  0  0  0  0  0  0  0
   -3.7580   -6.4726   -2.3071 H   0  0  0  0  0  0  0  0  0  0  0  0
   -2.9170   -6.7370   -0.7786 H   0  0  0  0  0  0  0  0  0  0  0  0
  1  2  1  0  0  0  0
  1 31  1  0  0  0  0
  1 32  1  0  0  0  0
  1 33  1  0  0  0  0
  2  3  2  0  0  0  0
  3  4  1  0  0  0  0
  3 18  1  0  0  0  0
  4  5  1  0  0  0  0
  5  6  2  0  0  0  0
  5  7  1  0  0  0  0
  6  2  1  0  0  0  0
  7  8  1  0  0  0  0
  7 34  1  0  0  0  0
  8  9  2  0  0  0  0
  8 10  1  0  0  0  0
 10 11  1  0  0  0  0
 11 12  1  0  0  0  0
 11 35  1  0  0  0  0
 11 36  1  0  0  0  0
 12 13  1  0  0  0  0
 12 37  1  0  0  0  0
 12 38  1  0  0  0  0
 13 14  1  0  0  0  0
 13 39  1  0  0  0  0
 13 40  1  0  0  0  0
 14 10  1  0  0  0  0
 14 41  1  6  0  0  0
 14 15  1  0  0  0  0
 15 16  2  0  0  0  0
 15 17  1  0  0  0  0
 17 42  1  0  0  0  0
 17 43  1  0  0  0  0
 18 19  2  0  0  0  0
 19 20  1  0  0  0  0
 19 44  1  0  0  0  0
 20 21  2  0  0  0  0
 20 24  1  0  0  0  0
 21 22  1  0  0  0  0
 22 23  2  0  0  0  0
 22 45  1  0  0  0  0
 23 18  1  0  0  0  0
 23 46  1  0  0  0  0
 24 25  1  0  0  0  0
 24 26  1  0  0  0  0
 24 27  1  0  0  0  0
 25 47  1  0  0  0  0
 25 48  1  0  0  0  0
 25 49  1  0  0  0  0
 26 50  1  0  0  0  0
 26 51  1  0  0  0  0
 26 52  1  0  0  0  0
 27 28  1  0  0  0  0
 27 29  1  0  0  0  0
 27 30  1  0  0  0  0
M  END
>  <DRUGBANK_ID>
DB12015

>  <COMMON_NAME>
Alpelisib

>  <CAS_NUMBER>
1217486-61-7

>  <UNII>
08W5N2C97Q

>  <SYNONYMS>
Alpelisib

$$$$
