
 OpenBabel10282417123D

 35 37  0  0  1  0  0  0  0  0999 V2000
    0.9022    0.0412   -0.0653 C   0  0  0  0  0  0  0  0  0  0  0  0
   -3.8141    6.9030   -1.7957 C   0  0  0  0  0  0  0  0  0  0  0  0
   -1.9929    2.8681   -1.3958 C   0  0  0  0  0  0  0  0  0  0  0  0
   -2.6914    7.8845   -1.4043 C   0  0  2  0  0  0  0  0  0  0  0  0
   -0.7802    4.4664   -0.4550 C   0  0  0  0  0  0  0  0  0  0  0  0
   -0.2860    5.7004   -0.1663 C   0  0  0  0  0  0  0  0  0  0  0  0
   -0.0037    3.4917    0.2461 C   0  0  0  0  0  0  0  0  0  0  0  0
   -1.6537    8.1591   -2.4975 C   0  0  2  0  0  0  0  0  0  0  0  0
   -0.5536    7.1542   -2.1893 C   0  0  2  0  0  0  0  0  0  0  0  0
   -0.6192    7.0527   -0.6659 C   0  0  1  0  0  0  0  0  0  0  0  0
   -0.2960    2.1090    0.0730 C   0  0  0  0  0  0  0  0  0  0  0  0
    0.3193    1.0700    0.7761 N   0  0  0  0  0  0  0  0  0  0  0  0
   -1.7989    4.2001   -1.2944 N   0  0  0  0  0  0  0  0  0  0  0  0
   -1.3147    1.8408   -0.8033 N   0  0  0  0  0  0  0  0  0  0  0  0
    0.7492    5.4462    0.6930 N   0  0  0  0  0  0  0  0  0  0  0  0
    0.9397    4.1358    0.9745 N   0  0  0  0  0  0  0  0  0  0  0  0
   -3.4612    5.9928   -2.8318 O   0  0  0  0  0  0  0  0  0  0  0  0
   -1.1313    9.4960   -2.4099 O   0  0  0  0  0  0  0  0  0  0  0  0
    0.7382    7.5730   -2.6310 O   0  0  0  0  0  0  0  0  0  0  0  0
   -1.9595    7.3653   -0.2623 O   0  0  0  0  0  0  0  0  0  0  0  0
   -3.1584    8.8098   -1.0476 H   0  0  0  0  0  0  0  0  0  0  0  0
   -2.0478    8.0589   -3.5117 H   0  0  0  0  0  0  0  0  0  0  0  0
   -0.7772    6.2004   -2.6755 H   0  0  0  0  0  0  0  0  0  0  0  0
    0.0349    7.8016   -0.2022 H   0  0  0  0  0  0  0  0  0  0  0  0
    0.5814    0.0730   -1.1133 H   0  0  0  0  0  0  0  0  0  0  0  0
    0.6327   -0.9393    0.3379 H   0  0  0  0  0  0  0  0  0  0  0  0
    1.9956    0.1176   -0.0490 H   0  0  0  0  0  0  0  0  0  0  0  0
   -4.1269    6.3083   -0.9302 H   0  0  0  0  0  0  0  0  0  0  0  0
   -4.6871    7.4621   -2.1487 H   0  0  0  0  0  0  0  0  0  0  0  0
   -2.8172    2.5715   -2.0408 H   0  0  0  0  0  0  0  0  0  0  0  0
    0.9604    1.4492    1.4687 H   0  0  0  0  0  0  0  0  0  0  0  0
    1.3822    6.1173    1.1130 H   0  0  0  0  0  0  0  0  0  0  0  0
   -3.3348    6.4794   -3.6615 H   0  0  0  0  0  0  0  0  0  0  0  0
   -0.8703    9.6742   -1.4914 H   0  0  0  0  0  0  0  0  0  0  0  0
    0.8072    8.5296   -2.4591 H   0  0  0  0  0  0  0  0  0  0  0  0
  1 25  1  0  0  0  0
  1 26  1  0  0  0  0
  1 27  1  0  0  0  0
  2 28  1  0  0  0  0
  2 29  1  0  0  0  0
  3 30  1  0  0  0  0
  4 21  1  1  0  0  0
  4  2  1  0  0  0  0
  6  5  2  0  0  0  0
  7  5  1  0  0  0  0
  8  4  1  0  0  0  0
  8 18  1  0  0  0  0
  8 22  1  6  0  0  0
  9  8  1  0  0  0  0
  9 19  1  0  0  0  0
  9 23  1  6  0  0  0
 10  6  1  0  0  0  0
 10  9  1  0  0  0  0
 10 24  1  1  0  0  0
 11  7  1  0  0  0  0
 12  1  1  0  0  0  0
 12 11  1  0  0  0  0
 12 31  1  0  0  0  0
 13  3  2  0  0  0  0
 13  5  1  0  0  0  0
 14  3  1  0  0  0  0
 14 11  2  0  0  0  0
 15  6  1  0  0  0  0
 15 32  1  0  0  0  0
 16  7  2  0  0  0  0
 16 15  1  0  0  0  0
 17  2  1  0  0  0  0
 17 33  1  0  0  0  0
 18 34  1  0  0  0  0
 19 35  1  0  0  0  0
 20  4  1  0  0  0  0
 20 10  1  0  0  0  0
M  END
>  <DRUGBANK_ID>
DB02066

>  <SECONDARY_ACCESSION_NUMBERS>
EXPT01450

>  <COMMON_NAME>
N7-Methyl-Formycin A

$$$$
