1057
 OpenBabel10282417113D

 38 37  0  0  0  0  0  0  0  0999 V2000
    1.0299    0.0930    0.0216 S   0  0  0  0  0  0  0  0  0  0  0  0
    0.3232   -0.9384    1.7338 P   0  0  0  0  0  0  0  0  0  0  0  0
    1.5174   -0.1831    2.6108 O   0  0  0  0  0  0  0  0  0  0  0  0
   -0.9296    0.1532    1.8882 O   0  0  0  0  0  0  0  0  0  0  0  0
   -0.1929   -1.6916    2.9842 O   0  0  0  0  0  0  0  0  0  0  0  0
    2.9691    2.4112   -1.3247 N   0  3  0  0  0  0  0  0  0  0  0  0
    3.3339    0.9010   -1.3234 C   0  0  0  0  0  0  0  0  0  0  0  0
    3.4491    3.0908   -0.0444 C   0  0  0  0  0  0  0  0  0  0  0  0
    3.6222    3.0588   -2.5375 C   0  0  0  0  0  0  0  0  0  0  0  0
    1.4809    2.6676   -1.4941 C   0  0  0  0  0  0  0  0  0  0  0  0
    2.8182    0.0924   -0.1230 C   0  0  0  0  0  0  0  0  0  0  0  0
    2.6864   -0.9465    2.9187 C   0  0  0  0  0  0  0  0  0  0  0  0
   -1.5534    0.9087    0.8607 C   0  0  0  0  0  0  0  0  0  0  0  0
    2.4687   -2.3253    3.5085 C   0  0  0  0  0  0  0  0  0  0  0  0
   -0.9729    2.3067    0.9901 C   0  0  0  0  0  0  0  0  0  0  0  0
    4.4313    0.8555   -1.3210 H   0  0  0  0  0  0  0  0  0  0  0  0
    2.9802    0.4721   -2.2675 H   0  0  0  0  0  0  0  0  0  0  0  0
    4.5349    2.9924    0.0149 H   0  0  0  0  0  0  0  0  0  0  0  0
    3.1461    4.1405   -0.0758 H   0  0  0  0  0  0  0  0  0  0  0  0
    2.9752    2.6102    0.8180 H   0  0  0  0  0  0  0  0  0  0  0  0
    3.2493    2.5478   -3.4300 H   0  0  0  0  0  0  0  0  0  0  0  0
    3.3316    4.1131   -2.5578 H   0  0  0  0  0  0  0  0  0  0  0  0
    4.7061    2.9586   -2.4491 H   0  0  0  0  0  0  0  0  0  0  0  0
    1.0743    1.9761   -2.2330 H   0  0  0  0  0  0  0  0  0  0  0  0
    1.0268    2.5587   -0.5152 H   0  0  0  0  0  0  0  0  0  0  0  0
    1.3135    3.7036   -1.7900 H   0  0  0  0  0  0  0  0  0  0  0  0
    3.2658    0.5072    0.7798 H   0  0  0  0  0  0  0  0  0  0  0  0
    3.1560   -0.9455   -0.2205 H   0  0  0  0  0  0  0  0  0  0  0  0
    3.2580   -1.1027    2.0066 H   0  0  0  0  0  0  0  0  0  0  0  0
    3.3095   -0.3385    3.5805 H   0  0  0  0  0  0  0  0  0  0  0  0
   -1.4282    0.4660   -0.1372 H   0  0  0  0  0  0  0  0  0  0  0  0
   -2.6368    0.9425    1.0047 H   0  0  0  0  0  0  0  0  0  0  0  0
    1.8567   -2.9500    2.8497 H   0  0  0  0  0  0  0  0  0  0  0  0
    3.4296   -2.8360    3.6192 H   0  0  0  0  0  0  0  0  0  0  0  0
    1.9786   -2.2662    4.4825 H   0  0  0  0  0  0  0  0  0  0  0  0
    0.0709    2.2748    1.3293 H   0  0  0  0  0  0  0  0  0  0  0  0
   -1.0365    2.8615    0.0516 H   0  0  0  0  0  0  0  0  0  0  0  0
   -1.4922    2.8604    1.7716 H   0  0  0  0  0  0  0  0  0  0  0  0
  1  2  1  0  0  0  0
  1 11  1  0  0  0  0
  2  3  1  0  0  0  0
  2  4  1  0  0  0  0
  2  5  2  0  0  0  0
  3 12  1  0  0  0  0
  4 13  1  0  0  0  0
  6  7  1  0  0  0  0
  6  8  1  0  0  0  0
  6  9  1  0  0  0  0
  6 10  1  0  0  0  0
  7 11  1  0  0  0  0
  7 16  1  0  0  0  0
  7 17  1  0  0  0  0
  8 18  1  0  0  0  0
  8 19  1  0  0  0  0
  8 20  1  0  0  0  0
  9 21  1  0  0  0  0
  9 22  1  0  0  0  0
  9 23  1  0  0  0  0
 10 24  1  0  0  0  0
 10 25  1  0  0  0  0
 10 26  1  0  0  0  0
 11 27  1  0  0  0  0
 11 28  1  0  0  0  0
 12 14  1  0  0  0  0
 12 29  1  0  0  0  0
 12 30  1  0  0  0  0
 13 15  1  0  0  0  0
 13 31  1  0  0  0  0
 13 32  1  0  0  0  0
 14 33  1  0  0  0  0
 14 34  1  0  0  0  0
 14 35  1  0  0  0  0
 15 36  1  0  0  0  0
 15 37  1  0  0  0  0
 15 38  1  0  0  0  0
M  CHG  1   6   1
M  END
>  <DRUGBANK_ID>
DB01057

>  <SECONDARY_ACCESSION_NUMBERS>
APRD00942

>  <COMMON_NAME>
Echothiophate

>  <CAS_NUMBER>
6736-03-4

>  <UNII>
0F350BVT6S

>  <SYNONYMS>
2-(Diethoxyphosphorylsulfanyl)ethyl-N,N,N-trimethylazanium iodide; Echothiophate; Ecothiopate; Ecothiopatum; Phospholine

$$$$
