
 OpenBabel10282417163D

 24 24  0  0  0  0  0  0  0  0999 V2000
    0.9401    0.0899   -0.0680 C   0  0  0  0  0  0  0  0  0  0  0  0
    0.3369    4.7632   -0.4260 C   0  0  0  0  0  0  0  0  0  0  0  0
    2.0673    6.5205    0.1179 C   0  0  0  0  0  0  0  0  0  0  0  0
   -0.0263    3.4320   -0.6585 C   0  0  0  0  0  0  0  0  0  0  0  0
    1.2373    7.5774    0.0571 C   0  0  0  0  0  0  0  0  0  0  0  0
    2.6055    4.0806   -0.0221 C   0  0  0  0  0  0  0  0  0  0  0  0
    1.6566    5.1149   -0.1086 C   0  0  0  0  0  0  0  0  0  0  0  0
    2.2367    2.7438   -0.2482 C   0  0  0  0  0  0  0  0  0  0  0  0
    0.9161    2.4087   -0.5589 C   0  0  0  0  0  0  0  0  0  0  0  0
    1.6173    8.9775    0.2825 C   0  0  0  0  0  0  0  0  0  0  0  0
    3.1941    1.7683   -0.2126 O   0  0  0  0  0  0  0  0  0  0  0  0
    0.8333    9.9127    0.2225 O   0  0  0  0  0  0  0  0  0  0  0  0
    2.9132    9.1565    0.5677 O   0  0  0  0  0  0  0  0  0  0  0  0
    0.4558    1.1583   -0.8769 O   0  0  0  0  0  0  0  0  0  0  0  0
    0.5079   -0.8386   -0.4532 H   0  0  0  0  0  0  0  0  0  0  0  0
    0.6174    0.2162    0.9700 H   0  0  0  0  0  0  0  0  0  0  0  0
    2.0191   -0.0566   -0.1214 H   0  0  0  0  0  0  0  0  0  0  0  0
   -0.4453    5.5111   -0.5124 H   0  0  0  0  0  0  0  0  0  0  0  0
    3.1192    6.6835    0.3472 H   0  0  0  0  0  0  0  0  0  0  0  0
   -1.0572    3.2045   -0.9200 H   0  0  0  0  0  0  0  0  0  0  0  0
    0.1833    7.4785   -0.1692 H   0  0  0  0  0  0  0  0  0  0  0  0
    3.6432    4.3152    0.1999 H   0  0  0  0  0  0  0  0  0  0  0  0
    4.0383    2.1240    0.0999 H   0  0  0  0  0  0  0  0  0  0  0  0
    3.0013   10.1251    0.6889 H   0  0  0  0  0  0  0  0  0  0  0  0
  1 14  1  0  0  0  0
  1 15  1  0  0  0  0
  1 16  1  0  0  0  0
  1 17  1  0  0  0  0
  2  4  2  0  0  0  0
  2  7  1  0  0  0  0
  2 18  1  0  0  0  0
  3  7  1  0  0  0  0
  3  5  2  0  0  0  0
  3 19  1  0  0  0  0
  4  9  1  0  0  0  0
  4 20  1  0  0  0  0
  5 10  1  0  0  0  0
  5 21  1  0  0  0  0
  6  7  2  0  0  0  0
  6  8  1  0  0  0  0
  6 22  1  0  0  0  0
  8  9  2  0  0  0  0
  8 11  1  0  0  0  0
  9 14  1  0  0  0  0
 10 12  2  0  0  0  0
 10 13  1  0  0  0  0
 11 23  1  0  0  0  0
 13 24  1  0  0  0  0
M  END
>  <DRUGBANK_ID>
DB07109

>  <COMMON_NAME>
Isoferulic acid

>  <CAS_NUMBER>
537-73-5

>  <UNII>
XSQ2K2G7MC

>  <SYNONYMS>
Hesperetic acid; Isoferulic acid

$$$$
