1166
 OpenBabel10282417113D

 54 57  0  0  0  0  0  0  0  0999 V2000
    1.0364   -0.2108   -0.0519 O   0  0  0  0  0  0  0  0  0  0  0  0
    8.5984   -1.1619   -0.2040 O   0  0  0  0  0  0  0  0  0  0  0  0
    2.1932    6.0649   -0.3095 N   0  0  0  0  0  0  0  0  0  0  0  0
    1.1839    6.9362   -0.4909 N   0  0  0  0  0  0  0  0  0  0  0  0
    0.3767    4.8790   -0.5234 N   0  0  0  0  0  0  0  0  0  0  0  0
    0.0892    6.2018   -0.6275 N   0  0  0  0  0  0  0  0  0  0  0  0
    6.5968   -0.1430    0.0127 N   0  0  0  0  0  0  0  0  0  0  0  0
    3.5680    6.5351   -0.1609 C   0  0  0  0  0  0  0  0  0  0  0  0
    3.7043    7.3635    1.1247 C   0  0  0  0  0  0  0  0  0  0  0  0
    4.0448    7.3446   -1.3839 C   0  0  0  0  0  0  0  0  0  0  0  0
    5.0943    7.9704    1.2987 C   0  0  0  0  0  0  0  0  0  0  0  0
    5.4290    7.9710   -1.1852 C   0  0  0  0  0  0  0  0  0  0  0  0
    5.4977    8.8040    0.0892 C   0  0  0  0  0  0  0  0  0  0  0  0
    1.6630    4.8101   -0.2558 C   0  0  0  0  0  0  0  0  0  0  0  0
    2.3877    3.5547   -0.1177 C   0  0  0  0  0  0  0  0  0  0  0  0
    1.9710    2.7340    1.1363 C   0  0  0  0  0  0  0  0  0  0  0  0
    0.5818    2.0739    1.0460 C   0  0  0  0  0  0  0  0  0  0  0  0
    0.3599    1.0819   -0.1292 C   0  0  0  0  0  0  0  0  0  0  0  0
    4.5096   -1.4169    0.0304 C   0  0  0  0  0  0  0  0  0  0  0  0
    5.3296   -2.6571    0.1592 C   0  0  0  0  0  0  0  0  0  0  0  0
    5.2085   -0.2018   -0.0495 C   0  0  0  0  0  0  0  0  0  0  0  0
    6.6272   -2.4905   -0.6247 C   0  0  0  0  0  0  0  0  0  0  0  0
    2.3943   -0.2933   -0.1894 C   0  0  0  0  0  0  0  0  0  0  0  0
    3.0928   -1.4559    0.0401 C   0  0  0  0  0  0  0  0  0  0  0  0
    7.3851   -1.2417   -0.2116 C   0  0  0  0  0  0  0  0  0  0  0  0
    4.5212    0.9375   -0.3062 C   0  0  0  0  0  0  0  0  0  0  0  0
    3.1689    0.7776   -0.5626 C   0  0  0  0  0  0  0  0  0  0  0  0
    7.0836    0.7417    0.0992 H   0  0  0  0  0  0  0  0  0  0  0  0
    4.2129    5.6510   -0.0733 H   0  0  0  0  0  0  0  0  0  0  0  0
    2.9713    8.1798    1.1071 H   0  0  0  0  0  0  0  0  0  0  0  0
    3.4633    6.7439    1.9965 H   0  0  0  0  0  0  0  0  0  0  0  0
    4.0630    6.7084   -2.2773 H   0  0  0  0  0  0  0  0  0  0  0  0
    3.3309    8.1516   -1.5895 H   0  0  0  0  0  0  0  0  0  0  0  0
    5.1060    8.6003    2.1949 H   0  0  0  0  0  0  0  0  0  0  0  0
    5.8319    7.1740    1.4547 H   0  0  0  0  0  0  0  0  0  0  0  0
    5.6727    8.6059   -2.0450 H   0  0  0  0  0  0  0  0  0  0  0  0
    6.1923    7.1843   -1.1442 H   0  0  0  0  0  0  0  0  0  0  0  0
    4.8360    9.6748   -0.0003 H   0  0  0  0  0  0  0  0  0  0  0  0
    6.5135    9.1931    0.2279 H   0  0  0  0  0  0  0  0  0  0  0  0
    3.4757    3.6574   -0.1686 H   0  0  0  0  0  0  0  0  0  0  0  0
    2.0917    3.1152   -1.0764 H   0  0  0  0  0  0  0  0  0  0  0  0
    2.0577    3.3709    2.0223 H   0  0  0  0  0  0  0  0  0  0  0  0
    2.6674    1.9270    1.3836 H   0  0  0  0  0  0  0  0  0  0  0  0
   -0.1590    2.8810    0.9870 H   0  0  0  0  0  0  0  0  0  0  0  0
    0.3799    1.5482    1.9874 H   0  0  0  0  0  0  0  0  0  0  0  0
    0.5203    1.5554   -1.1052 H   0  0  0  0  0  0  0  0  0  0  0  0
   -0.7141    0.8453   -0.1248 H   0  0  0  0  0  0  0  0  0  0  0  0
    4.7655   -3.5048   -0.2397 H   0  0  0  0  0  0  0  0  0  0  0  0
    5.5278   -2.8183    1.2228 H   0  0  0  0  0  0  0  0  0  0  0  0
    6.4179   -2.3986   -1.6999 H   0  0  0  0  0  0  0  0  0  0  0  0
    7.2687   -3.3570   -0.4636 H   0  0  0  0  0  0  0  0  0  0  0  0
    2.5546   -2.3879    0.1807 H   0  0  0  0  0  0  0  0  0  0  0  0
    5.0060    1.9030   -0.3979 H   0  0  0  0  0  0  0  0  0  0  0  0
    2.6487    1.5524   -1.0432 H   0  0  0  0  0  0  0  0  0  0  0  0
  1 18  1  0  0  0  0
  1 23  1  0  0  0  0
  2 25  2  0  0  0  0
  3  4  1  0  0  0  0
  3  8  1  0  0  0  0
  3 14  1  0  0  0  0
  4  6  2  0  0  0  0
  5  6  1  0  0  0  0
  5 14  2  0  0  0  0
  7 21  1  0  0  0  0
  7 25  1  0  0  0  0
  7 28  1  0  0  0  0
  8  9  1  0  0  0  0
  8 10  1  0  0  0  0
  8 29  1  0  0  0  0
  9 11  1  0  0  0  0
  9 30  1  0  0  0  0
  9 31  1  0  0  0  0
 10 12  1  0  0  0  0
 10 32  1  0  0  0  0
 10 33  1  0  0  0  0
 11 13  1  0  0  0  0
 11 34  1  0  0  0  0
 11 35  1  0  0  0  0
 12 13  1  0  0  0  0
 12 36  1  0  0  0  0
 12 37  1  0  0  0  0
 13 38  1  0  0  0  0
 13 39  1  0  0  0  0
 14 15  1  0  0  0  0
 15 16  1  0  0  0  0
 15 40  1  0  0  0  0
 15 41  1  0  0  0  0
 16 17  1  0  0  0  0
 16 42  1  0  0  0  0
 16 43  1  0  0  0  0
 17 18  1  0  0  0  0
 17 44  1  0  0  0  0
 17 45  1  0  0  0  0
 18 46  1  0  0  0  0
 18 47  1  0  0  0  0
 19 20  1  0  0  0  0
 19 21  2  0  0  0  0
 19 24  1  0  0  0  0
 20 22  1  0  0  0  0
 20 48  1  0  0  0  0
 20 49  1  0  0  0  0
 21 26  1  0  0  0  0
 22 25  1  0  0  0  0
 22 50  1  0  0  0  0
 22 51  1  0  0  0  0
 23 24  2  0  0  0  0
 23 27  1  0  0  0  0
 24 52  1  0  0  0  0
 26 27  2  0  0  0  0
 26 53  1  0  0  0  0
 27 54  1  0  0  0  0
M  END
>  <DRUGBANK_ID>
DB01166

>  <SECONDARY_ACCESSION_NUMBERS>
APRD00155

>  <COMMON_NAME>
Cilostazol

>  <CAS_NUMBER>
73963-72-1

>  <UNII>
N7Z035406B

>  <SYNONYMS>
3,4-dihydro-6-(4-(1-cyclohexyl-1H-tetrazol-5-yl)butoxy)-2(1H)-quinolinone; 6-(4-(1-cyclohexyl-1H-tetrazol-5-yl)butoxy)-3,4-dihydro-2(1H)-quinolinone; 6-(4-(1-cyclohexyl-1H-tetrazol-5-yl)butoxy)-3,4-dihydrocarbostyril; 6-[4-(1-Cyclohexyl-1H-tetrazol-5-yl)-butoxy]-3,4-dihydro-1H-quinolin-2-one; Cilostazol; Cilostazole; Cilostazolum

$$$$
