
 OpenBabel10282417113D

 44 47  0  0  0  0  0  0  0  0999 V2000
    3.5432   -0.2915   -0.2563 C   0  0  0  0  0  0  0  0  0  0  0  0
    2.7817   -1.5906   -0.0894 C   0  0  0  0  0  0  0  0  0  0  0  0
    1.4369   -1.4066    0.6247 C   0  0  0  0  0  0  0  0  0  0  0  0
    0.5967   -0.3853   -0.2099 C   0  0  1  0  0  0  0  0  0  0  0  0
    0.6803   -0.6802   -1.2687 H   0  0  0  0  0  0  0  0  0  0  0  0
    2.7652    1.0128   -0.4935 C   0  0  0  0  0  0  0  0  0  0  0  0
    1.2896    0.9565   -0.0817 C   0  0  0  0  0  0  0  0  0  0  0  0
    0.5718    2.0507    0.2325 C   0  0  0  0  0  0  0  0  0  0  0  0
   -0.9185    2.0716    0.5883 C   0  0  0  0  0  0  0  0  0  0  0  0
   -1.8341    1.0224   -0.1154 C   0  0  1  0  0  0  0  0  0  0  0  0
   -3.5102    0.9396    0.4792 C   0  0  2  0  0  0  0  0  0  0  0  0
   -5.2793    1.4116    0.3128 C   0  0  0  0  0  0  0  0  0  0  0  0
   -6.0522   -0.0253    0.4509 C   0  0  0  0  0  0  0  0  0  0  0  0
   -4.9244   -0.7726    0.9943 C   0  0  0  0  0  0  0  0  0  0  0  0
   -3.7907   -0.4883    0.0383 C   0  0  2  0  0  0  0  0  0  0  0  0
   -4.1100   -0.2812   -1.5269 C   0  0  0  0  0  0  0  0  0  0  0  0
   -2.9121   -1.7019    0.1789 C   0  0  0  0  0  0  0  0  0  0  0  0
   -1.5867   -1.5688   -0.5049 C   0  0  0  0  0  0  0  0  0  0  0  0
   -0.9325   -0.3725    0.1763 C   0  0  2  0  0  0  0  0  0  0  0  0
   -0.9583   -0.5167    1.2683 H   0  0  0  0  0  0  0  0  0  0  0  0
   -4.8563   -1.2601    2.0804 O   0  0  0  0  0  0  0  0  0  0  0  0
   -3.3381    1.5379    1.3835 H   0  0  0  0  0  0  0  0  0  0  0  0
   -1.8482    1.1881   -1.1999 H   0  0  0  0  0  0  0  0  0  0  0  0
    4.7773   -0.3146   -0.3228 O   0  0  0  0  0  0  0  0  0  0  0  0
    3.4436   -2.3275    0.3878 H   0  0  0  0  0  0  0  0  0  0  0  0
    2.5739   -1.9882   -1.0887 H   0  0  0  0  0  0  0  0  0  0  0  0
    0.9933   -2.4074    0.7257 H   0  0  0  0  0  0  0  0  0  0  0  0
    1.5173   -1.0261    1.6542 H   0  0  0  0  0  0  0  0  0  0  0  0
    3.4154    1.8100   -0.0916 H   0  0  0  0  0  0  0  0  0  0  0  0
    2.7141    1.2611   -1.5545 H   0  0  0  0  0  0  0  0  0  0  0  0
    1.0920    3.0065    0.2441 H   0  0  0  0  0  0  0  0  0  0  0  0
   -1.2982    3.0842    0.4440 H   0  0  0  0  0  0  0  0  0  0  0  0
   -0.9409    1.8591    1.6632 H   0  0  0  0  0  0  0  0  0  0  0  0
   -6.3002    1.8210    0.5631 H   0  0  0  0  0  0  0  0  0  0  0  0
   -5.1994    1.9454    1.3059 H   0  0  0  0  0  0  0  0  0  0  0  0
   -7.0347   -0.1403    0.9146 H   0  0  0  0  0  0  0  0  0  0  0  0
   -6.2488   -0.5088   -0.5004 H   0  0  0  0  0  0  0  0  0  0  0  0
   -5.1527   -0.2296   -1.8395 H   0  0  0  0  0  0  0  0  0  0  0  0
   -3.7210    0.6772   -1.9076 H   0  0  0  0  0  0  0  0  0  0  0  0
   -3.6719   -1.0643   -2.1406 H   0  0  0  0  0  0  0  0  0  0  0  0
   -3.4814   -2.5601   -0.1973 H   0  0  0  0  0  0  0  0  0  0  0  0
   -2.7066   -1.9376    1.2303 H   0  0  0  0  0  0  0  0  0  0  0  0
   -1.0881   -2.5414   -0.3942 H   0  0  0  0  0  0  0  0  0  0  0  0
   -1.5938   -1.3877   -1.5873 H   0  0  0  0  0  0  0  0  0  0  0  0
  1  2  1  0  0  0  0
  1  6  1  0  0  0  0
  1 24  2  0  0  0  0
  2  3  1  0  0  0  0
  2 25  1  0  0  0  0
  2 26  1  0  0  0  0
  3  4  1  0  0  0  0
  3 27  1  0  0  0  0
  3 28  1  0  0  0  0
  4  7  1  0  0  0  0
  4 19  1  0  0  0  0
  4  5  1  1  0  0  0
  6  7  1  0  0  0  0
  6 29  1  0  0  0  0
  6 30  1  0  0  0  0
  7  8  2  0  0  0  0
  8  9  1  0  0  0  0
  8 31  1  0  0  0  0
  9 10  1  0  0  0  0
  9 32  1  0  0  0  0
  9 33  1  0  0  0  0
 10 11  1  0  0  0  0
 10 19  1  0  0  0  0
 10 23  1  1  0  0  0
 11 12  1  0  0  0  0
 11 15  1  0  0  0  0
 11 22  1  6  0  0  0
 12 13  1  0  0  0  0
 12 34  1  0  0  0  0
 12 35  1  0  0  0  0
 13 14  1  0  0  0  0
 13 36  1  0  0  0  0
 13 37  1  0  0  0  0
 14 15  1  0  0  0  0
 14 21  2  0  0  0  0
 15 17  1  0  0  0  0
 15 16  1  1  0  0  0
 16 38  1  0  0  0  0
 16 39  1  0  0  0  0
 16 40  1  0  0  0  0
 17 18  1  0  0  0  0
 17 41  1  0  0  0  0
 17 42  1  0  0  0  0
 18 19  1  0  0  0  0
 18 43  1  0  0  0  0
 18 44  1  0  0  0  0
 19 20  1  6  0  0  0
M  END
>  <DRUGBANK_ID>
DB01443

>  <COMMON_NAME>
19-Nor-5-androstenedione

>  <CAS_NUMBER>
19289-77-1

>  <UNII>
585LQ9KZN8

>  <SYNONYMS>
estr-5-ene-3,17-dione

$$$$
