
 OpenBabel10282417123D

 58 62  0  0  1  0  0  0  0  0999 V2000
    1.4891   -0.3131    0.0119 C   0  0  0  0  0  0  0  0  0  0  0  0
    0.5977   -1.3935    0.0435 C   0  0  0  0  0  0  0  0  0  0  0  0
    1.0187    0.9843   -0.0949 C   0  0  0  0  0  0  0  0  0  0  0  0
   -9.0354   10.0184    4.9487 C   0  0  0  0  0  0  0  0  0  0  0  0
   -9.1461    9.7634    3.6041 C   0  0  0  0  0  0  0  0  0  0  0  0
   -0.7764   -1.1809    0.0913 C   0  0  0  0  0  0  0  0  0  0  0  0
   -0.3420    1.1842   -0.1061 C   0  0  0  0  0  0  0  0  0  0  0  0
   -8.5134    8.9767    5.7484 C   0  0  0  0  0  0  0  0  0  0  0  0
   -9.1907    8.4286    3.1871 C   0  0  0  0  0  0  0  0  0  0  0  0
   -2.5723    2.5072   -2.9709 C   0  0  0  0  0  0  0  0  0  0  0  0
   -7.6198    2.0999    3.2851 C   0  0  0  0  0  0  0  0  0  0  0  0
   -3.6364    1.9563   -2.2536 C   0  0  0  0  0  0  0  0  0  0  0  0
   -8.0984    3.3342    3.7963 C   0  0  0  0  0  0  0  0  0  0  0  0
   -2.6971    0.4435    0.1110 C   0  0  0  0  0  0  0  0  0  0  0  0
   -7.0999    6.9846    4.3396 C   0  0  0  0  0  0  0  0  0  0  0  0
   -3.6068    4.6552   -2.7216 C   0  0  0  0  0  0  0  0  0  0  0  0
   -5.7924    1.1261    1.7697 C   0  0  0  0  0  0  0  0  0  0  0  0
   -1.2435    0.1244    0.1013 C   0  0  0  0  0  0  0  0  0  0  0  0
   -8.1609    7.6912    5.1733 C   0  0  0  0  0  0  0  0  0  0  0  0
   -2.6098    3.8534   -3.2707 C   0  0  0  0  0  0  0  0  0  0  0  0
   -6.5098    2.2631    2.4796 C   0  0  0  0  0  0  0  0  0  0  0  0
   -4.4966    2.7534   -1.4922 C   0  0  0  0  0  0  0  0  0  0  0  0
   -4.5455    4.1114   -1.8235 C   0  0  0  0  0  0  0  0  0  0  0  0
   -3.3796    1.3414    1.1393 C   0  0  1  0  0  0  0  0  0  0  0  0
   -9.0851    7.4251    4.1687 C   0  0  0  0  0  0  0  0  0  0  0  0
   -7.6939    5.7637    3.9482 C   0  0  0  0  0  0  0  0  0  0  0  0
   -7.3339    4.4406    3.4586 C   0  0  0  0  0  0  0  0  0  0  0  0
   -5.3574    2.1403   -0.4232 C   0  0  0  0  0  0  0  0  0  0  0  0
   -2.7312    2.7308    1.3269 C   0  0  0  0  0  0  0  0  0  0  0  0
   -1.5540    4.4591   -4.4841 Cl  0  0  0  0  0  0  0  0  0  0  0  0
   -5.8072    5.1596   -1.2870 Cl  0  0  0  0  0  0  0  0  0  0  0  0
   -4.8222    1.5518    0.7643 N   0  0  0  0  0  0  0  0  0  0  0  0
   -6.5719    2.1880   -0.6183 O   0  0  0  0  0  0  0  0  0  0  0  0
   -3.1387    3.7890    0.9359 O   0  0  0  0  0  0  0  0  0  0  0  0
   -1.5013    2.6771    1.8882 O   0  0  0  0  0  0  0  0  0  0  0  0
   -9.0497    6.0762    3.9720 O   0  0  0  0  0  0  0  0  0  0  0  0
   -6.0568    3.9467    2.4376 S   0  0  0  0  0  0  0  0  0  0  0  0
   -3.3273    0.8243    2.1066 H   0  0  0  0  0  0  0  0  0  0  0  0
    2.5584   -0.4832    0.0446 H   0  0  0  0  0  0  0  0  0  0  0  0
    0.9814   -2.4080    0.0320 H   0  0  0  0  0  0  0  0  0  0  0  0
    1.6811    1.8397   -0.1764 H   0  0  0  0  0  0  0  0  0  0  0  0
   -9.4059   10.9590    5.3637 H   0  0  0  0  0  0  0  0  0  0  0  0
   -9.2088   10.5727    2.8868 H   0  0  0  0  0  0  0  0  0  0  0  0
   -1.4666   -2.0221    0.0845 H   0  0  0  0  0  0  0  0  0  0  0  0
   -0.7062    2.1933   -0.2843 H   0  0  0  0  0  0  0  0  0  0  0  0
   -8.9707    8.9836    6.7543 H   0  0  0  0  0  0  0  0  0  0  0  0
   -8.9455    8.1683    2.1648 H   0  0  0  0  0  0  0  0  0  0  0  0
   -1.7508    1.8752   -3.3067 H   0  0  0  0  0  0  0  0  0  0  0  0
   -8.0787    1.1401    3.4981 H   0  0  0  0  0  0  0  0  0  0  0  0
   -3.7078    0.8711   -2.2066 H   0  0  0  0  0  0  0  0  0  0  0  0
   -8.9670    3.4213    4.4347 H   0  0  0  0  0  0  0  0  0  0  0  0
   -2.6359    1.0857   -0.7230 H   0  0  0  0  0  0  0  0  0  0  0  0
   -3.3233   -0.4061   -0.1973 H   0  0  0  0  0  0  0  0  0  0  0  0
   -6.2512    7.4083    3.7967 H   0  0  0  0  0  0  0  0  0  0  0  0
   -3.6666    5.7018   -3.0044 H   0  0  0  0  0  0  0  0  0  0  0  0
   -6.5114    0.4469    1.2862 H   0  0  0  0  0  0  0  0  0  0  0  0
   -5.2953    0.5034    2.5295 H   0  0  0  0  0  0  0  0  0  0  0  0
   -1.0982    3.5324    1.6205 H   0  0  0  0  0  0  0  0  0  0  0  0
  1 39  1  0  0  0  0
  2  1  2  0  0  0  0
  2 40  1  0  0  0  0
  3  1  1  0  0  0  0
  3 41  1  0  0  0  0
  4 42  1  0  0  0  0
  5  4  2  0  0  0  0
  5 43  1  0  0  0  0
  6  2  1  0  0  0  0
  6 44  1  0  0  0  0
  7  3  2  0  0  0  0
  7 45  1  0  0  0  0
  8  4  1  0  0  0  0
  8 46  1  0  0  0  0
  9  5  1  0  0  0  0
  9 47  1  0  0  0  0
 10 48  1  0  0  0  0
 11 49  1  0  0  0  0
 12 10  2  0  0  0  0
 12 50  1  0  0  0  0
 13 11  1  0  0  0  0
 13 51  1  0  0  0  0
 14 52  1  0  0  0  0
 14 53  1  0  0  0  0
 15 54  1  0  0  0  0
 16 55  1  0  0  0  0
 17 56  1  0  0  0  0
 17 57  1  0  0  0  0
 18  6  2  0  0  0  0
 18  7  1  0  0  0  0
 18 14  1  0  0  0  0
 19  8  2  0  0  0  0
 19 15  1  0  0  0  0
 20 10  1  0  0  0  0
 20 16  2  0  0  0  0
 21 11  2  0  0  0  0
 21 17  1  0  0  0  0
 22 12  1  0  0  0  0
 23 16  1  0  0  0  0
 23 22  2  0  0  0  0
 24 14  1  0  0  0  0
 24 32  1  0  0  0  0
 24 38  1  1  0  0  0
 25  9  2  0  0  0  0
 25 19  1  0  0  0  0
 26 15  2  0  0  0  0
 27 13  2  0  0  0  0
 27 26  1  0  0  0  0
 28 22  1  0  0  0  0
 29 24  1  0  0  0  0
 30 20  1  0  0  0  0
 31 23  1  0  0  0  0
 32 17  1  0  0  0  0
 32 28  1  0  0  0  0
 33 28  2  0  0  0  0
 34 29  2  0  0  0  0
 35 29  1  0  0  0  0
 35 58  1  0  0  0  0
 36 25  1  0  0  0  0
 36 26  1  0  0  0  0
 37 21  1  0  0  0  0
 37 27  1  0  0  0  0
M  END
>  <DRUGBANK_ID>
DB02331

>  <SECONDARY_ACCESSION_NUMBERS>
EXPT00040

>  <COMMON_NAME>
(2s)-2-[(5-Benzofuran-2-Yl-Thiophen-2-Ylmethyl)-(2,4-Dichloro-Benzoyl)-Amino]-3-Phenyl-Propionic Acid

$$$$
