
 OpenBabel10282417183D

 14 14  0  0  0  0  0  0  0  0999 V2000
   -2.7502    0.0180   -0.0004 O   0  0  0  0  0  0  0  0  0  0  0  0
    2.7456    0.0676   -0.0098 O   0  0  0  0  0  0  0  0  0  0  0  0
   -1.3872   -0.0199    0.0078 C   0  0  0  0  0  0  0  0  0  0  0  0
    1.3834    0.0075    0.0020 C   0  0  0  0  0  0  0  0  0  0  0  0
   -0.6893   -1.2255    0.0106 C   0  0  0  0  0  0  0  0  0  0  0  0
    0.7088   -1.2119    0.0063 C   0  0  0  0  0  0  0  0  0  0  0  0
   -0.7105    1.1954    0.0105 C   0  0  0  0  0  0  0  0  0  0  0  0
    0.6838    1.2091    0.0079 C   0  0  0  0  0  0  0  0  0  0  0  0
   -3.0908   -0.8908   -0.0252 H   0  0  0  0  0  0  0  0  0  0  0  0
    3.0992   -0.8364   -0.0248 H   0  0  0  0  0  0  0  0  0  0  0  0
   -1.2114   -2.1772    0.0156 H   0  0  0  0  0  0  0  0  0  0  0  0
    1.2507   -2.1521    0.0054 H   0  0  0  0  0  0  0  0  0  0  0  0
   -1.2666    2.1280    0.0122 H   0  0  0  0  0  0  0  0  0  0  0  0
    1.2206    2.1532    0.0081 H   0  0  0  0  0  0  0  0  0  0  0  0
  1  3  1  0  0  0  0
  1  9  1  0  0  0  0
  2  4  1  0  0  0  0
  2 10  1  0  0  0  0
  3  5  1  0  0  0  0
  3  7  2  0  0  0  0
  4  6  1  0  0  0  0
  4  8  2  0  0  0  0
  5  6  2  0  0  0  0
  5 11  1  0  0  0  0
  6 12  1  0  0  0  0
  7  8  1  0  0  0  0
  7 13  1  0  0  0  0
  8 14  1  0  0  0  0
M  END
>  <DRUGBANK_ID>
DB09526

>  <COMMON_NAME>
Hydroquinone

>  <CAS_NUMBER>
123-31-9

>  <UNII>
XV74C1N1AE

>  <SYNONYMS>
1,4-benzenediol; 1,4-dihydroxybenzene; 4-Hydroxyphenol; benzene-1,4-diol; Hydroquinone; p-Benzenediol; p-Hydroquinone; p-hydroxyphenol; Quinol

$$$$
