
 OpenBabel10282417123D

 14 13  0  0  1  0  0  0  0  0999 V2000
    0.9706   -0.0214   -0.0932 N   0  0  0  0  0  0  0  0  0  0  0  0
    0.4806   -0.9757    0.9118 C   0  0  1  0  0  0  0  0  0  0  0  0
    0.9872   -0.5693    2.2860 C   0  0  0  0  0  0  0  0  0  0  0  0
    0.3339    1.2274    2.7181 Se  0  0  0  0  0  0  0  0  0  0  0  0
   -1.0394   -0.9757    0.9118 C   0  0  0  0  0  0  0  0  0  0  0  0
   -1.7494   -2.1714    0.6243 O   0  0  0  0  0  0  0  0  0  0  0  0
   -1.6749    0.0944    1.1692 O   0  0  0  0  0  0  0  0  0  0  0  0
    0.6306    0.9137    0.1317 H   0  0  0  0  0  0  0  0  0  0  0  0
    1.9906   -0.0214   -0.0932 H   0  0  0  0  0  0  0  0  0  0  0  0
    0.8372   -1.9566    0.6759 H   0  0  0  0  0  0  0  0  0  0  0  0
    0.6306   -1.2640    3.0175 H   0  0  0  0  0  0  0  0  0  0  0  0
    2.0572   -0.5693    2.2860 H   0  0  0  0  0  0  0  0  0  0  0  0
    0.8372    2.2078    1.6858 H   0  0  0  0  0  0  0  0  0  0  0  0
   -1.2494   -3.0134    0.4218 H   0  0  0  0  0  0  0  0  0  0  0  0
  1  8  1  0  0  0  0
  1  9  1  0  0  0  0
  2  1  1  0  0  0  0
  2  3  1  0  0  0  0
  2  5  1  0  0  0  0
  2 10  1  6  0  0  0
  3  4  1  0  0  0  0
  3 11  1  0  0  0  0
  3 12  1  0  0  0  0
  4 13  1  0  0  0  0
  5  6  1  0  0  0  0
  5  7  2  0  0  0  0
  6 14  1  0  0  0  0
M  END
>  <DRUGBANK_ID>
DB02345

>  <SECONDARY_ACCESSION_NUMBERS>
EXPT01033

>  <COMMON_NAME>
Selenocysteine

>  <CAS_NUMBER>
10236-58-5

>  <UNII>
0CH9049VIS

>  <SYNONYMS>
3-selenyl-L-alanine; L-selenocysteine; Selenium cysteine

$$$$
