
 OpenBabel10282417233D

 65 67  0  0  0  0  0  0  0  0999 V2000
   -9.6319    7.4164   -2.9526 C   0  0  0  0  0  0  0  0  0  0  0  0
   -8.5519    6.5943   -3.1875 C   0  0  0  0  0  0  0  0  0  0  0  0
   -7.5682    6.5675   -2.2452 C   0  0  0  0  0  0  0  0  0  0  0  0
   -9.7303    8.1819   -1.7733 C   0  0  0  0  0  0  0  0  0  0  0  0
   -8.6983    8.2298   -0.8374 C   0  0  0  0  0  0  0  0  0  0  0  0
   -7.6039    7.4137   -1.1189 C   0  0  0  0  0  0  0  0  0  0  0  0
   -8.7158    9.1171    0.4202 C   0  0  2  0  0  0  0  0  0  0  0  0
   -8.0480    8.4804    1.6748 C   0  0  2  0  0  0  0  0  0  0  0  0
   -8.8595    7.5278    2.4745 N   0  0  0  0  0  0  0  0  0  0  0  0
   -8.0731    7.0893    3.6316 C   0  0  0  0  0  0  0  0  0  0  0  0
   -7.7218    8.1843    4.5849 C   0  0  0  0  0  0  0  0  0  0  0  0
   -6.8237    9.1552    3.8685 C   0  0  0  0  0  0  0  0  0  0  0  0
   -7.4933    9.6285    2.5801 C   0  0  0  0  0  0  0  0  0  0  0  0
  -10.0637    6.9921    1.9189 C   0  0  0  0  0  0  0  0  0  0  0  0
  -10.9349    6.2729    2.6500 O   0  0  0  0  0  0  0  0  0  0  0  0
  -10.4686    5.4346    3.6459 C   0  0  0  0  0  0  0  0  0  0  0  0
   -9.2720    4.5654    3.2514 N   0  3  0  0  0  0  0  0  0  0  0  0
   -8.7422    3.8285    4.2513 C   0  0  0  0  0  0  0  0  0  0  0  0
   -7.4790    3.2598    4.1232 C   0  0  0  0  0  0  0  0  0  0  0  0
   -8.5759    4.6442    2.0584 C   0  0  0  0  0  0  0  0  0  0  0  0
   -7.2138    4.2580    1.9863 C   0  0  0  0  0  0  0  0  0  0  0  0
   -6.6730    3.5582    3.0339 C   0  0  0  0  0  0  0  0  0  0  0  0
   -6.4170    4.6326    0.7866 C   0  0  0  0  0  0  0  0  0  0  0  0
   -5.0262    4.6260    0.8196 N   0  0  0  0  0  0  0  0  0  0  0  0
   -4.0980    5.0658   -0.2997 C   0  0  2  0  0  0  0  0  0  0  0  0
   -2.6754    5.4212    0.1974 C   0  0  0  0  0  0  0  0  0  0  0  0
   -7.0891    4.9339   -0.1508 O   0  0  0  0  0  0  0  0  0  0  0  0
  -10.0648    9.7598    0.8925 C   0  0  0  0  0  0  0  0  0  0  0  0
  -10.4488   10.9169    0.3259 O   0  0  0  0  0  0  0  0  0  0  0  0
   -9.4438   11.8454   -0.0289 C   0  0  0  0  0  0  0  0  0  0  0  0
  -10.7921    9.3421    1.7931 O   0  0  0  0  0  0  0  0  0  0  0  0
  -10.3925    7.0550    0.7425 O   0  0  0  0  0  0  0  0  0  0  0  0
   -1.8487    4.4702    0.1353 O   0  0  0  0  0  0  0  0  0  0  0  0
   -2.5219    6.5861    0.6682 O   0  5  0  0  0  0  0  0  0  0  0  0
   -4.5024    6.3462   -1.0043 C   0  0  0  0  0  0  0  0  0  0  0  0
   -3.7742    6.7109   -2.1693 O   0  0  0  0  0  0  0  0  0  0  0  0
   -7.1566    7.9045    1.4000 H   0  0  0  0  0  0  0  0  0  0  0  0
  -10.4186    7.4421   -3.6920 H   0  0  0  0  0  0  0  0  0  0  0  0
   -8.4478    5.9485   -4.0521 H   0  0  0  0  0  0  0  0  0  0  0  0
   -6.8130    5.8046   -2.4103 H   0  0  0  0  0  0  0  0  0  0  0  0
  -10.6620    8.6954   -1.5740 H   0  0  0  0  0  0  0  0  0  0  0  0
   -6.7825    7.3543   -0.4159 H   0  0  0  0  0  0  0  0  0  0  0  0
   -8.0266    9.9136    0.1227 H   0  0  0  0  0  0  0  0  0  0  0  0
   -7.1554    6.6295    3.2431 H   0  0  0  0  0  0  0  0  0  0  0  0
   -8.5224    6.3585    4.2623 H   0  0  0  0  0  0  0  0  0  0  0  0
   -7.2075    7.7332    5.4408 H   0  0  0  0  0  0  0  0  0  0  0  0
   -8.6416    8.6568    4.9424 H   0  0  0  0  0  0  0  0  0  0  0  0
   -6.6148    9.9979    4.5319 H   0  0  0  0  0  0  0  0  0  0  0  0
   -5.8659    8.6689    3.6400 H   0  0  0  0  0  0  0  0  0  0  0  0
   -8.3198   10.2889    2.8585 H   0  0  0  0  0  0  0  0  0  0  0  0
   -6.7638   10.2247    2.0195 H   0  0  0  0  0  0  0  0  0  0  0  0
  -10.2719    6.0749    4.5185 H   0  0  0  0  0  0  0  0  0  0  0  0
  -11.2737    4.7786    3.9799 H   0  0  0  0  0  0  0  0  0  0  0  0
   -9.3079    3.7720    5.1760 H   0  0  0  0  0  0  0  0  0  0  0  0
   -7.0915    2.6077    4.8957 H   0  0  0  0  0  0  0  0  0  0  0  0
   -9.0288    5.1419    1.2044 H   0  0  0  0  0  0  0  0  0  0  0  0
   -5.6471    3.2112    2.9885 H   0  0  0  0  0  0  0  0  0  0  0  0
   -4.5211    4.0568    1.4786 H   0  0  0  0  0  0  0  0  0  0  0  0
   -4.0554    4.2476   -1.0302 H   0  0  0  0  0  0  0  0  0  0  0  0
   -8.6279   11.8663    0.7035 H   0  0  0  0  0  0  0  0  0  0  0  0
   -9.0930   11.5828   -1.0252 H   0  0  0  0  0  0  0  0  0  0  0  0
   -9.9156   12.8265   -0.0353 H   0  0  0  0  0  0  0  0  0  0  0  0
   -5.4461    6.0873   -1.3986 H   0  0  0  0  0  0  0  0  0  0  0  0
   -4.6534    7.2126   -0.3515 H   0  0  0  0  0  0  0  0  0  0  0  0
   -2.9151    7.0366   -1.8428 H   0  0  0  0  0  0  0  0  0  0  0  0
  1  2  2  0  0  0  0
  1  4  1  0  0  0  0
  1 38  1  0  0  0  0
  2  3  1  0  0  0  0
  2 39  1  0  0  0  0
  3 40  1  0  0  0  0
  4  5  2  0  0  0  0
  4 41  1  0  0  0  0
  5  6  1  0  0  0  0
  6  3  2  0  0  0  0
  6 42  1  0  0  0  0
  7 28  1  0  0  0  0
  7 43  1  6  0  0  0
  7  5  1  0  0  0  0
  8  9  1  0  0  0  0
  8  7  1  0  0  0  0
  8 37  1  6  0  0  0
  9 10  1  0  0  0  0
  9 14  1  0  0  0  0
 10 11  1  0  0  0  0
 10 44  1  0  0  0  0
 10 45  1  0  0  0  0
 11 12  1  0  0  0  0
 11 46  1  0  0  0  0
 11 47  1  0  0  0  0
 12 13  1  0  0  0  0
 12 48  1  0  0  0  0
 12 49  1  0  0  0  0
 13  8  1  0  0  0  0
 13 50  1  0  0  0  0
 13 51  1  0  0  0  0
 14 15  1  0  0  0  0
 14 32  2  0  0  0  0
 15 16  1  0  0  0  0
 16 17  1  0  0  0  0
 16 52  1  0  0  0  0
 16 53  1  0  0  0  0
 17 18  2  0  0  0  0
 17 20  1  0  0  0  0
 18 19  1  0  0  0  0
 18 54  1  0  0  0  0
 19 55  1  0  0  0  0
 20 21  2  0  0  0  0
 20 56  1  0  0  0  0
 21 22  1  0  0  0  0
 21 23  1  0  0  0  0
 22 19  2  0  0  0  0
 22 57  1  0  0  0  0
 23 24  1  0  0  0  0
 23 27  2  0  0  0  0
 24 58  1  0  0  0  0
 25 35  1  0  0  0  0
 25 59  1  6  0  0  0
 25 26  1  0  0  0  0
 25 24  1  0  0  0  0
 26 33  2  0  0  0  0
 26 34  1  0  0  0  0
 28 29  1  0  0  0  0
 28 31  2  0  0  0  0
 29 30  1  0  0  0  0
 30 60  1  0  0  0  0
 30 61  1  0  0  0  0
 30 62  1  0  0  0  0
 35 36  1  0  0  0  0
 35 63  1  0  0  0  0
 35 64  1  0  0  0  0
 36 65  1  0  0  0  0
M  CHG  2  17   1  34  -1
M  END
>  <DRUGBANK_ID>
DB16629

>  <COMMON_NAME>
Serdexmethylphenidate

>  <CAS_NUMBER>
1996626-29-9

>  <UNII>
0H8KZ470DW

>  <SYNONYMS>
Serdexmethylphenidate

$$$$
