1611
 OpenBabel10282417123D

 49 50  0  0  1  0  0  0  0  0999 V2000
    3.2773    0.4333    0.0038 Cl  0  0  0  0  0  0  0  0  0  0  0  0
   -6.1628   -5.5205    3.2042 O   0  0  0  0  0  0  0  0  0  0  0  0
   -5.7500   -6.2766    0.1193 N   0  0  0  0  0  0  0  0  0  0  0  0
   -2.7704   -2.3970   -0.2208 N   0  0  0  0  0  0  0  0  0  0  0  0
   -1.6242    1.5935    0.0202 N   0  0  0  0  0  0  0  0  0  0  0  0
   -4.4551   -3.6485   -1.1952 C   0  0  0  0  0  0  0  0  0  0  0  0
   -3.8972   -5.0579   -1.2581 C   0  0  0  0  0  0  0  0  0  0  0  0
   -4.1157   -2.7800    0.0435 C   0  0  3  0  0  0  0  0  0  0  0  0
   -4.3267   -5.9808   -0.1256 C   0  0  0  0  0  0  0  0  0  0  0  0
   -5.9169   -7.1140    1.3281 C   0  0  0  0  0  0  0  0  0  0  0  0
   -4.1264   -3.1103    1.5608 C   0  0  0  0  0  0  0  0  0  0  0  0
   -6.8578   -5.3115   -0.1147 C   0  0  0  0  0  0  0  0  0  0  0  0
   -2.4000   -1.0722   -0.0254 C   0  0  0  0  0  0  0  0  0  0  0  0
   -5.4124   -6.6074    2.7019 C   0  0  0  0  0  0  0  0  0  0  0  0
   -6.8924   -4.1151    0.7987 C   0  0  0  0  0  0  0  0  0  0  0  0
   -1.0436   -0.7642   -0.0121 C   0  0  0  0  0  0  0  0  0  0  0  0
   -3.3474   -0.0473   -0.0004 C   0  0  0  0  0  0  0  0  0  0  0  0
   -0.7064    0.6143    0.0024 C   0  0  0  0  0  0  0  0  0  0  0  0
   -0.0229   -1.7427   -0.0120 C   0  0  0  0  0  0  0  0  0  0  0  0
   -2.9190    1.2574    0.0265 C   0  0  0  0  0  0  0  0  0  0  0  0
    0.6260    0.9384   -0.0080 C   0  0  0  0  0  0  0  0  0  0  0  0
    1.3073   -1.3851    0.0013 C   0  0  0  0  0  0  0  0  0  0  0  0
    1.6265   -0.0328   -0.0035 C   0  0  0  0  0  0  0  0  0  0  0  0
   -5.7983   -4.7509    2.7469 H   0  0  0  0  0  0  0  0  0  0  0  0
   -2.1064   -3.1131    0.0392 H   0  0  0  0  0  0  0  0  0  0  0  0
   -5.5199   -3.6143   -1.4053 H   0  0  0  0  0  0  0  0  0  0  0  0
   -4.0673   -3.1277   -2.0909 H   0  0  0  0  0  0  0  0  0  0  0  0
   -4.1443   -5.5212   -2.2212 H   0  0  0  0  0  0  0  0  0  0  0  0
   -2.7978   -4.9826   -1.2561 H   0  0  0  0  0  0  0  0  0  0  0  0
   -4.8565   -1.9875   -0.0635 H   0  0  0  0  0  0  0  0  0  0  0  0
   -3.8037   -6.9337   -0.2997 H   0  0  0  0  0  0  0  0  0  0  0  0
   -3.8322   -5.6277    0.7730 H   0  0  0  0  0  0  0  0  0  0  0  0
   -6.9750   -7.3764    1.4082 H   0  0  0  0  0  0  0  0  0  0  0  0
   -5.3786   -8.0507    1.1358 H   0  0  0  0  0  0  0  0  0  0  0  0
   -3.5348   -2.4504    2.2021 H   0  0  0  0  0  0  0  0  0  0  0  0
   -5.1108   -2.9201    1.9950 H   0  0  0  0  0  0  0  0  0  0  0  0
   -3.7634   -4.1069    1.7907 H   0  0  0  0  0  0  0  0  0  0  0  0
   -6.8189   -4.9551   -1.1445 H   0  0  0  0  0  0  0  0  0  0  0  0
   -7.8336   -5.7943   -0.0419 H   0  0  0  0  0  0  0  0  0  0  0  0
   -5.5077   -7.3962    3.4506 H   0  0  0  0  0  0  0  0  0  0  0  0
   -4.3606   -6.3080    2.6833 H   0  0  0  0  0  0  0  0  0  0  0  0
   -5.8632   -4.1156    1.0259 H   0  0  0  0  0  0  0  0  0  0  0  0
   -7.0886   -3.1175    0.3903 H   0  0  0  0  0  0  0  0  0  0  0  0
   -7.4319   -4.2187    1.7412 H   0  0  0  0  0  0  0  0  0  0  0  0
   -4.4160   -0.2003   -0.0175 H   0  0  0  0  0  0  0  0  0  0  0  0
   -0.2482   -2.8099   -0.0150 H   0  0  0  0  0  0  0  0  0  0  0  0
   -3.6460    2.0601    0.0357 H   0  0  0  0  0  0  0  0  0  0  0  0
    0.8884    1.9960   -0.0176 H   0  0  0  0  0  0  0  0  0  0  0  0
    2.0735   -2.1528    0.0125 H   0  0  0  0  0  0  0  0  0  0  0  0
  1 23  1  0  0  0  0
  2 14  1  0  0  0  0
  2 24  1  0  0  0  0
  3  9  1  0  0  0  0
  3 10  1  0  0  0  0
  3 12  1  0  0  0  0
  4  8  1  0  0  0  0
  4 13  1  0  0  0  0
  4 25  1  0  0  0  0
  5 18  2  0  0  0  0
  5 20  1  0  0  0  0
  6  7  1  0  0  0  0
  6  8  1  0  0  0  0
  6 26  1  0  0  0  0
  6 27  1  0  0  0  0
  7  9  1  0  0  0  0
  7 28  1  0  0  0  0
  7 29  1  0  0  0  0
  8 11  1  0  0  0  0
  8 30  1  0  0  0  0
  9 31  1  0  0  0  0
  9 32  1  0  0  0  0
 10 14  1  0  0  0  0
 10 33  1  0  0  0  0
 10 34  1  0  0  0  0
 11 35  1  0  0  0  0
 11 36  1  0  0  0  0
 11 37  1  0  0  0  0
 12 15  1  0  0  0  0
 12 38  1  0  0  0  0
 12 39  1  0  0  0  0
 13 16  2  0  0  0  0
 13 17  1  0  0  0  0
 14 40  1  0  0  0  0
 14 41  1  0  0  0  0
 15 42  1  0  0  0  0
 15 43  1  0  0  0  0
 15 44  1  0  0  0  0
 16 18  1  0  0  0  0
 16 19  1  0  0  0  0
 17 20  2  0  0  0  0
 17 45  1  0  0  0  0
 18 21  1  0  0  0  0
 19 22  2  0  0  0  0
 19 46  1  0  0  0  0
 20 47  1  0  0  0  0
 21 23  2  0  0  0  0
 21 48  1  0  0  0  0
 22 23  1  0  0  0  0
 22 49  1  0  0  0  0
M  END
>  <DRUGBANK_ID>
DB01611

>  <COMMON_NAME>
Hydroxychloroquine

>  <CAS_NUMBER>
118-42-3

>  <UNII>
4QWG6N8QKH

>  <SYNONYMS>
(±)-hydroxychloroquine; 2-((4-((7-chloro-4-quinolyl)amino)pentyl)ethylamino)ethanol; 2-(N-(4-(7-chlor-4-chinolylamino)-4-methylbutyl)ethylamino)ethanol; 7-chloro-4-(4-(ethyl(2-hydroxyethyl)amino)-1-methylbutylamino)quinoline; 7-chloro-4-(4-(N-ethyl-N-β-hydroxyethylamino)-1-methylbutylamino)quinoline; 7-chloro-4-[4-(N-ethyl-N-β-hydroxyethylamino)-1-methylbutylamino]quinoline; 7-chloro-4-[5-(N-ethyl-N-2-hydroxyethylamino)-2-pentyl]aminoquinoline; Hidroxicloroquina; Hydroxychloroquine; Hydroxychloroquinum; Oxichlorochine; Oxichloroquine

$$$$
