
 OpenBabel10282417213D

 62 64  0  0  1  0  0  0  0  0999 V2000
    0.1482    0.6730   -0.5135 C   0  0  0  0  0  0  0  0  0  0  0  0
   -0.0386    0.4239   -1.9591 C   0  0  0  0  0  0  0  0  0  0  0  0
    0.7216   -0.8284   -2.4708 C   0  0  0  0  0  0  0  0  0  0  0  0
    0.3112   -2.4906   -1.6947 S   0  0  0  0  0  0  0  0  0  0  0  0
    1.0922   -2.7571   -0.0684 C   0  0  0  0  0  0  0  0  0  0  0  0
    1.8346   -1.8921    0.7387 C   0  0  0  0  0  0  0  0  0  0  0  0
    2.2956   -2.4735    1.9288 C   0  0  0  0  0  0  0  0  0  0  0  0
    1.7856   -3.5596    2.5274 C   0  0  0  0  0  0  0  0  0  0  0  0
    1.2495   -4.4226    1.6499 C   0  0  0  0  0  0  0  0  0  0  0  0
    0.8981   -4.0655    0.3771 N   0  0  0  0  0  0  0  0  0  0  0  0
    1.3065   -5.7027    2.1221 N   0  0  0  0  0  0  0  0  0  0  0  0
    2.2454   -6.6421    1.5686 C   0  0  0  0  0  0  0  0  0  0  0  0
    1.3589   -7.7762    1.1144 C   0  0  0  0  0  0  0  0  0  0  0  0
    0.4832   -8.2588    2.2813 C   0  0  0  0  0  0  0  0  0  0  0  0
   -0.2939   -7.1328    3.0136 C   0  0  1  0  0  0  0  0  0  0  0  0
   -1.0018   -7.6129    4.2746 C   0  0  0  0  0  0  0  0  0  0  0  0
   -1.6199   -8.9644    4.0449 C   0  0  0  0  0  0  0  0  0  0  0  0
   -1.0972   -9.9465    4.8104 O   0  0  0  0  0  0  0  0  0  0  0  0
   -2.4705   -9.1809    3.1960 O   0  0  0  0  0  0  0  0  0  0  0  0
    0.6651   -6.0149    3.3744 C   0  0  0  0  0  0  0  0  0  0  0  0
    2.3937   -0.5321    0.3838 C   0  0  0  0  0  0  0  0  0  0  0  0
    2.9715   -0.5069   -0.7323 O   0  0  0  0  0  0  0  0  0  0  0  0
    2.2059    0.7356    1.0993 N   0  0  0  0  0  0  0  0  0  0  0  0
    2.2593    1.0049    2.5325 C   0  0  0  0  0  0  0  0  0  0  0  0
    1.6513   -0.1801    3.1328 C   0  0  0  0  0  0  0  0  0  0  0  0
    1.9423   -0.5691    4.5240 C   0  0  0  0  0  0  0  0  0  0  0  0
    1.3746    0.5435    5.3291 C   0  0  0  0  0  0  0  0  0  0  0  0
    1.8647    1.9035    4.7710 C   0  0  0  0  0  0  0  0  0  0  0  0
    1.5698    2.1409    3.2492 C   0  0  0  0  0  0  0  0  0  0  0  0
   -0.0175   -0.2408    0.0566 H   0  0  0  0  0  0  0  0  0  0  0  0
   -0.3223    1.4762    0.0531 H   0  0  0  0  0  0  0  0  0  0  0  0
    1.1580    1.0304   -0.6224 H   0  0  0  0  0  0  0  0  0  0  0  0
   -1.1066    0.3698   -2.1312 H   0  0  0  0  0  0  0  0  0  0  0  0
    0.3749    1.3104   -2.4679 H   0  0  0  0  0  0  0  0  0  0  0  0
    0.4265   -0.8944   -3.5284 H   0  0  0  0  0  0  0  0  0  0  0  0
    1.8069   -0.7115   -2.5592 H   0  0  0  0  0  0  0  0  0  0  0  0
    3.1107   -2.1099    2.5348 H   0  0  0  0  0  0  0  0  0  0  0  0
    2.1224   -3.8330    3.5229 H   0  0  0  0  0  0  0  0  0  0  0  0
    2.9588   -6.9814    2.3369 H   0  0  0  0  0  0  0  0  0  0  0  0
    2.8443   -6.2294    0.7479 H   0  0  0  0  0  0  0  0  0  0  0  0
    1.9598   -8.5970    0.7202 H   0  0  0  0  0  0  0  0  0  0  0  0
    0.7110   -7.4031    0.3106 H   0  0  0  0  0  0  0  0  0  0  0  0
   -0.2229   -8.9839    1.8743 H   0  0  0  0  0  0  0  0  0  0  0  0
    1.1224   -8.7643    3.0142 H   0  0  0  0  0  0  0  0  0  0  0  0
   -1.0371   -6.7155    2.3160 H   0  0  0  0  0  0  0  0  0  0  0  0
   -0.3031   -7.6443    5.1185 H   0  0  0  0  0  0  0  0  0  0  0  0
   -1.7945   -6.9099    4.5588 H   0  0  0  0  0  0  0  0  0  0  0  0
   -0.4006   -9.6758    5.4361 H   0  0  0  0  0  0  0  0  0  0  0  0
    0.1165   -5.1609    3.7997 H   0  0  0  0  0  0  0  0  0  0  0  0
    1.4007   -6.3177    4.1351 H   0  0  0  0  0  0  0  0  0  0  0  0
    2.3387    1.5812    0.5579 H   0  0  0  0  0  0  0  0  0  0  0  0
    3.3404    1.0828    2.7197 H   0  0  0  0  0  0  0  0  0  0  0  0
    0.6415   -0.4085    2.7667 H   0  0  0  0  0  0  0  0  0  0  0  0
    2.4197   -0.7003    2.6869 H   0  0  0  0  0  0  0  0  0  0  0  0
    1.5105   -1.5557    4.7280 H   0  0  0  0  0  0  0  0  0  0  0  0
    3.0320   -0.6745    4.6357 H   0  0  0  0  0  0  0  0  0  0  0  0
    0.2832    0.4741    5.2619 H   0  0  0  0  0  0  0  0  0  0  0  0
    1.6822    0.3777    6.3615 H   0  0  0  0  0  0  0  0  0  0  0  0
    1.4300    2.6997    5.3691 H   0  0  0  0  0  0  0  0  0  0  0  0
    2.9576    1.9251    4.8973 H   0  0  0  0  0  0  0  0  0  0  0  0
    1.9610    3.1056    2.9164 H   0  0  0  0  0  0  0  0  0  0  0  0
    0.4881    2.1268    3.0653 H   0  0  0  0  0  0  0  0  0  0  0  0
  1  2  1  0  0  0  0
  1 30  1  0  0  0  0
  1 31  1  0  0  0  0
  1 32  1  0  0  0  0
  2  3  1  0  0  0  0
  2 33  1  0  0  0  0
  2 34  1  0  0  0  0
  3  4  1  0  0  0  0
  3 35  1  0  0  0  0
  3 36  1  0  0  0  0
  4  5  1  0  0  0  0
  5  6  2  0  0  0  0
  5 10  1  0  0  0  0
  6  7  1  0  0  0  0
  6 21  1  0  0  0  0
  7  8  2  0  0  0  0
  7 37  1  0  0  0  0
  8  9  1  0  0  0  0
  8 38  1  0  0  0  0
  9 10  2  0  0  0  0
  9 11  1  0  0  0  0
 11 12  1  0  0  0  0
 11 20  1  0  0  0  0
 12 13  1  0  0  0  0
 12 39  1  0  0  0  0
 12 40  1  0  0  0  0
 13 14  1  0  0  0  0
 13 41  1  0  0  0  0
 13 42  1  0  0  0  0
 14 43  1  0  0  0  0
 14 44  1  0  0  0  0
 15 14  1  0  0  0  0
 15 20  1  0  0  0  0
 15 45  1  6  0  0  0
 15 16  1  0  0  0  0
 16 17  1  0  0  0  0
 16 46  1  0  0  0  0
 16 47  1  0  0  0  0
 17 18  1  0  0  0  0
 17 19  2  0  0  0  0
 18 48  1  0  0  0  0
 20 49  1  0  0  0  0
 20 50  1  0  0  0  0
 21 22  2  0  0  0  0
 21 23  1  0  0  0  0
 23 24  1  0  0  0  0
 23 51  1  0  0  0  0
 24 25  1  0  0  0  0
 24 29  1  0  0  0  0
 24 52  1  0  0  0  0
 25 26  1  0  0  0  0
 25 53  1  0  0  0  0
 25 54  1  0  0  0  0
 26 27  1  0  0  0  0
 26 55  1  0  0  0  0
 26 56  1  0  0  0  0
 27 28  1  0  0  0  0
 27 57  1  0  0  0  0
 27 58  1  0  0  0  0
 28 29  1  0  0  0  0
 28 59  1  0  0  0  0
 28 60  1  0  0  0  0
 29 61  1  0  0  0  0
 29 62  1  0  0  0  0
M  END
>  <DRUGBANK_ID>
DB14875

>  <COMMON_NAME>
AZD-4017

>  <CAS_NUMBER>
1024033-43-9

>  <UNII>
3JL137394Y

$$$$
