49U
 OpenBabel10282417163D

 57 59  0  0  0  0  0  0  0  0999 V2000
    1.5726   -0.0179    0.6544 O   0  0  0  0  0  0  0  0  0  0  0  0
    2.7422   -0.1439    0.3646 C   0  0  0  0  0  0  0  0  0  0  0  0
    3.3861   -0.8984    1.2572 N   0  0  0  0  0  0  0  0  0  0  0  0
    2.5153   -1.4116    2.3023 C   0  0  0  0  0  0  0  0  0  0  0  0
    2.7390   -2.8621    2.3895 C   0  0  0  0  0  0  0  0  0  0  0  0
    1.9548   -3.7902    1.6945 C   0  0  0  0  0  0  0  0  0  0  0  0
    2.2009   -5.1409    1.8836 C   0  0  0  0  0  0  0  0  0  0  0  0
    3.2971   -5.5412    2.6620 C   0  0  0  0  0  0  0  0  0  0  0  0
    3.6863   -6.9739    2.7776 C   0  0  0  0  0  0  0  0  0  0  0  0
    3.0542   -7.9400    2.1901 N   0  0  0  0  0  0  0  0  0  0  0  0
    4.7677   -7.3410    3.5101 N   0  0  0  0  0  0  0  0  0  0  0  0
    4.0882   -4.5790    3.3083 C   0  0  0  0  0  0  0  0  0  0  0  0
    3.8115   -3.2436    3.1697 C   0  0  0  0  0  0  0  0  0  0  0  0
    3.3677    0.5307   -0.8664 C   0  0  2  0  0  0  0  0  0  0  0  0
    4.8110    0.2429   -1.1580 C   0  0  0  0  0  0  0  0  0  0  0  0
    5.1757    1.3608   -2.1290 C   0  0  0  0  0  0  0  0  0  0  0  0
    4.2745    2.5451   -1.7529 C   0  0  0  0  0  0  0  0  0  0  0  0
    3.2433    2.0005   -0.8764 N   0  0  0  0  0  0  0  0  0  0  0  0
    2.2415    2.8409   -0.3819 C   0  0  0  0  0  0  0  0  0  0  0  0
    2.3947    4.0691   -0.4343 O   0  0  0  0  0  0  0  0  0  0  0  0
    0.9794    2.3161    0.3381 C   0  0  0  0  0  0  0  0  0  0  0  0
   -0.1246    1.5577   -0.5310 C   0  0  0  0  0  0  0  0  0  0  0  0
    0.3380    0.3982   -1.4420 C   0  0  0  0  0  0  0  0  0  0  0  0
    0.4462    0.4809   -2.9480 C   0  0  0  0  0  0  0  0  0  0  0  0
    0.9342   -0.9217   -3.3794 C   0  0  0  0  0  0  0  0  0  0  0  0
    0.8066   -1.8653   -2.1852 C   0  0  0  0  0  0  0  0  0  0  0  0
    0.0300   -1.0831   -1.1300 C   0  0  0  0  0  0  0  0  0  0  0  0
    2.9214    0.1494   -1.7941 H   0  0  0  0  0  0  0  0  0  0  0  0
    4.3862   -0.9011    1.3306 H   0  0  0  0  0  0  0  0  0  0  0  0
    2.7274   -0.8633    3.2236 H   0  0  0  0  0  0  0  0  0  0  0  0
    1.4259   -1.2969    2.1691 H   0  0  0  0  0  0  0  0  0  0  0  0
    1.1592   -3.4741    1.0183 H   0  0  0  0  0  0  0  0  0  0  0  0
    1.5228   -5.8467    1.4175 H   0  0  0  0  0  0  0  0  0  0  0  0
    2.2549   -7.6132    1.6491 H   0  0  0  0  0  0  0  0  0  0  0  0
    5.4208   -6.7002    3.9290 H   0  0  0  0  0  0  0  0  0  0  0  0
    5.0286   -8.3156    3.4675 H   0  0  0  0  0  0  0  0  0  0  0  0
    4.9292   -4.8225    3.9388 H   0  0  0  0  0  0  0  0  0  0  0  0
    4.4211   -2.4818    3.6477 H   0  0  0  0  0  0  0  0  0  0  0  0
    5.3966    0.2872   -0.2428 H   0  0  0  0  0  0  0  0  0  0  0  0
    4.9177   -0.7514   -1.6119 H   0  0  0  0  0  0  0  0  0  0  0  0
    6.2374    1.6023   -2.0571 H   0  0  0  0  0  0  0  0  0  0  0  0
    4.9758    1.0516   -3.1651 H   0  0  0  0  0  0  0  0  0  0  0  0
    4.8212    3.3367   -1.2363 H   0  0  0  0  0  0  0  0  0  0  0  0
    3.8087    2.9753   -2.6514 H   0  0  0  0  0  0  0  0  0  0  0  0
    1.3189    1.8242    1.2614 H   0  0  0  0  0  0  0  0  0  0  0  0
    0.4691    3.1646    0.8157 H   0  0  0  0  0  0  0  0  0  0  0  0
   -0.8738    1.1638    0.1676 H   0  0  0  0  0  0  0  0  0  0  0  0
   -0.5934    2.3175   -1.1557 H   0  0  0  0  0  0  0  0  0  0  0  0
    1.3540    0.5421   -1.2888 H   0  0  0  0  0  0  0  0  0  0  0  0
   -0.5099    0.7485   -3.3857 H   0  0  0  0  0  0  0  0  0  0  0  0
    1.1987    1.2271   -3.2464 H   0  0  0  0  0  0  0  0  0  0  0  0
    0.3360   -1.2810   -4.2166 H   0  0  0  0  0  0  0  0  0  0  0  0
    1.9822   -0.9047   -3.7135 H   0  0  0  0  0  0  0  0  0  0  0  0
    0.2937   -2.7983   -2.4359 H   0  0  0  0  0  0  0  0  0  0  0  0
    1.8059   -2.1598   -1.8209 H   0  0  0  0  0  0  0  0  0  0  0  0
    0.3336   -1.4864   -0.1579 H   0  0  0  0  0  0  0  0  0  0  0  0
   -1.0400   -1.2643   -1.1911 H   0  0  0  0  0  0  0  0  0  0  0  0
  2  1  2  0  0  0  0
  3  2  1  0  0  0  0
  3 29  1  0  0  0  0
  4  3  1  0  0  0  0
  4  5  1  0  0  0  0
  4 30  1  0  0  0  0
  4 31  1  0  0  0  0
  5 13  1  0  0  0  0
  6  5  2  0  0  0  0
  6  7  1  0  0  0  0
  6 32  1  0  0  0  0
  7  8  2  0  0  0  0
  7 33  1  0  0  0  0
  8 12  1  0  0  0  0
  8  9  1  0  0  0  0
  9 10  2  0  0  0  0
 10 34  1  0  0  0  0
 11  9  1  0  0  0  0
 11 35  1  0  0  0  0
 11 36  1  0  0  0  0
 12 37  1  0  0  0  0
 13 12  2  0  0  0  0
 13 38  1  0  0  0  0
 14  2  1  0  0  0  0
 14 18  1  0  0  0  0
 14 28  1  6  0  0  0
 15 16  1  0  0  0  0
 15 14  1  0  0  0  0
 15 39  1  0  0  0  0
 15 40  1  0  0  0  0
 16 17  1  0  0  0  0
 16 41  1  0  0  0  0
 16 42  1  0  0  0  0
 17 18  1  0  0  0  0
 17 43  1  0  0  0  0
 17 44  1  0  0  0  0
 18 19  1  0  0  0  0
 19 20  2  0  0  0  0
 19 21  1  0  0  0  0
 21 22  1  0  0  0  0
 21 45  1  0  0  0  0
 21 46  1  0  0  0  0
 22 47  1  0  0  0  0
 22 48  1  0  0  0  0
 23 22  1  0  0  0  0
 23 24  1  0  0  0  0
 23 49  1  0  0  0  0
 24 50  1  0  0  0  0
 24 51  1  0  0  0  0
 25 24  1  0  0  0  0
 25 52  1  0  0  0  0
 25 53  1  0  0  0  0
 26 25  1  0  0  0  0
 26 54  1  0  0  0  0
 26 55  1  0  0  0  0
 27 23  1  0  0  0  0
 27 26  1  0  0  0  0
 27 56  1  0  0  0  0
 27 57  1  0  0  0  0
M  END
>  <DRUGBANK_ID>
DB07095

>  <COMMON_NAME>
(S)-N-(4-carbamimidoylbenzyl)-1-(3-cyclopentylpropanoyl)pyrrolidine-2-carboxamide

$$$$
