
 OpenBabel10282417203D

 33 35  0  0  1  0  0  0  0  0999 V2000
    0.9661   -0.0640    0.0755 C   0  0  0  0  0  0  0  0  0  0  0  0
    0.4258   -0.4157   -1.3102 C   0  0  1  0  0  0  0  0  0  0  0  0
    0.9265   -1.7874   -1.7547 C   0  0  0  0  0  0  0  0  0  0  0  0
    2.0324   -1.9464   -2.6184 C   0  0  0  0  0  0  0  0  0  0  0  0
    2.4867   -3.2228   -3.0290 C   0  0  0  0  0  0  0  0  0  0  0  0
    1.7742   -4.3142   -2.5355 C   0  0  0  0  0  0  0  0  0  0  0  0
    0.6940   -4.1951   -1.6840 C   0  0  0  0  0  0  0  0  0  0  0  0
    0.2904   -2.9365   -1.2606 C   0  0  0  0  0  0  0  0  0  0  0  0
    0.1676   -5.4093   -1.3787 N   0  0  0  0  0  0  0  0  0  0  0  0
    0.9542   -6.2454   -2.0183 C   0  0  0  0  0  0  0  0  0  0  0  0
    1.9662   -5.6593   -2.7474 O   0  0  0  0  0  0  0  0  0  0  0  0
    0.8355   -7.6911   -2.0343 C   0  0  0  0  0  0  0  0  0  0  0  0
    1.8663   -8.5061   -1.5513 C   0  0  0  0  0  0  0  0  0  0  0  0
    1.6898   -9.8906   -1.4828 C   0  0  0  0  0  0  0  0  0  0  0  0
    0.4851  -10.4543   -1.8912 C   0  0  0  0  0  0  0  0  0  0  0  0
   -0.5546   -9.6605   -2.3582 C   0  0  0  0  0  0  0  0  0  0  0  0
   -0.3820   -8.2771   -2.4225 C   0  0  0  0  0  0  0  0  0  0  0  0
    0.3217  -11.7819   -1.8253 F   0  0  0  0  0  0  0  0  0  0  0  0
   -1.1001   -0.2923   -1.3231 C   0  0  0  0  0  0  0  0  0  0  0  0
   -1.7559    0.3998   -2.0922 O   0  0  0  0  0  0  0  0  0  0  0  0
   -1.7317   -1.0610   -0.4096 O   0  0  0  0  0  0  0  0  0  0  0  0
    0.6388   -0.7868    0.8318 H   0  0  0  0  0  0  0  0  0  0  0  0
    0.6125    0.9233    0.3916 H   0  0  0  0  0  0  0  0  0  0  0  0
    2.0615   -0.0531    0.0815 H   0  0  0  0  0  0  0  0  0  0  0  0
    0.7920    0.3393   -2.0197 H   0  0  0  0  0  0  0  0  0  0  0  0
    2.5674   -1.0680   -2.9842 H   0  0  0  0  0  0  0  0  0  0  0  0
    3.3343   -3.3447   -3.6935 H   0  0  0  0  0  0  0  0  0  0  0  0
   -0.5239   -2.9048   -0.5522 H   0  0  0  0  0  0  0  0  0  0  0  0
    2.7926   -8.0631   -1.1926 H   0  0  0  0  0  0  0  0  0  0  0  0
    2.4785  -10.5317   -1.1025 H   0  0  0  0  0  0  0  0  0  0  0  0
   -1.4919  -10.1186   -2.6578 H   0  0  0  0  0  0  0  0  0  0  0  0
   -1.2049   -7.6507   -2.7643 H   0  0  0  0  0  0  0  0  0  0  0  0
   -2.6858   -1.0357   -0.6298 H   0  0  0  0  0  0  0  0  0  0  0  0
  1 22  1  0  0  0  0
  1 23  1  0  0  0  0
  1 24  1  0  0  0  0
  2  1  1  0  0  0  0
  2  3  1  0  0  0  0
  2 19  1  0  0  0  0
  2 25  1  6  0  0  0
  3  4  2  0  0  0  0
  3  8  1  0  0  0  0
  4  5  1  0  0  0  0
  4 26  1  0  0  0  0
  5  6  2  0  0  0  0
  5 27  1  0  0  0  0
  6  7  1  0  0  0  0
  6 11  1  0  0  0  0
  7  8  2  0  0  0  0
  7  9  1  0  0  0  0
  8 28  1  0  0  0  0
  9 10  2  0  0  0  0
 10 11  1  0  0  0  0
 10 12  1  0  0  0  0
 12 13  2  0  0  0  0
 12 17  1  0  0  0  0
 13 14  1  0  0  0  0
 13 29  1  0  0  0  0
 14 15  2  0  0  0  0
 14 30  1  0  0  0  0
 15 16  1  0  0  0  0
 15 18  1  0  0  0  0
 16 17  2  0  0  0  0
 16 31  1  0  0  0  0
 17 32  1  0  0  0  0
 19 20  2  0  0  0  0
 19 21  1  0  0  0  0
 21 33  1  0  0  0  0
M  END
>  <DRUGBANK_ID>
DB13317

>  <COMMON_NAME>
Flunoxaprofen

>  <CAS_NUMBER>
66934-18-7

>  <UNII>
UKU5U19W9M

>  <SYNONYMS>
Flunoxaprofen; flunoxaprofeno

$$$$
