HHO
 OpenBabel10282417163D

 33 32  0  0  0  0  0  0  0  0999 V2000
    0.8195   -0.1114   -0.0993 N   0  0  0  0  0  0  0  0  0  0  0  0
    0.3765   -1.4429   -0.4459 C   0  0  0  0  0  0  0  0  0  0  0  0
    0.9043   -2.4524    0.3817 O   0  0  0  0  0  0  0  0  0  0  0  0
    0.3291    0.3545    1.1951 C   0  0  0  0  0  0  0  0  0  0  0  0
    0.9078   -0.4344    2.3716 C   0  0  0  0  0  0  0  0  0  0  0  0
    2.4438   -0.4033    2.3650 C   0  0  0  0  0  0  0  0  0  0  0  0
    2.9620    1.0136    2.6106 C   0  0  0  0  0  0  0  0  0  0  0  0
    2.4835    1.5368    3.9666 C   0  0  0  0  0  0  0  0  0  0  0  0
    2.9815    0.6447    5.1102 C   0  0  0  0  0  0  0  0  0  0  0  0
    4.5131    0.6127    5.1714 C   0  0  0  0  0  0  0  0  0  0  0  0
    5.1014    2.0065    5.3616 C   0  0  0  0  0  0  0  0  0  0  0  0
    4.6478    2.5680    6.5850 O   0  0  0  0  0  0  0  0  0  0  0  0
    1.8305   -0.0308   -0.1624 H   0  0  0  0  0  0  0  0  0  0  0  0
   -0.7152   -1.5021   -0.4074 H   0  0  0  0  0  0  0  0  0  0  0  0
    0.6931   -1.6698   -1.4651 H   0  0  0  0  0  0  0  0  0  0  0  0
    1.8553   -2.2717    0.4912 H   0  0  0  0  0  0  0  0  0  0  0  0
    0.5973    1.4145    1.2977 H   0  0  0  0  0  0  0  0  0  0  0  0
   -0.7652    0.3441    1.2251 H   0  0  0  0  0  0  0  0  0  0  0  0
    0.5007   -0.0374    3.3064 H   0  0  0  0  0  0  0  0  0  0  0  0
    0.5487   -1.4658    2.3768 H   0  0  0  0  0  0  0  0  0  0  0  0
    2.8254   -1.1099    3.1088 H   0  0  0  0  0  0  0  0  0  0  0  0
    2.8672   -0.7649    1.4240 H   0  0  0  0  0  0  0  0  0  0  0  0
    4.0549    1.0181    2.5419 H   0  0  0  0  0  0  0  0  0  0  0  0
    2.6393    1.6942    1.8160 H   0  0  0  0  0  0  0  0  0  0  0  0
    2.8068    2.5731    4.0934 H   0  0  0  0  0  0  0  0  0  0  0  0
    1.3919    1.6023    4.0040 H   0  0  0  0  0  0  0  0  0  0  0  0
    2.5581    0.9930    6.0566 H   0  0  0  0  0  0  0  0  0  0  0  0
    2.6031   -0.3791    5.0080 H   0  0  0  0  0  0  0  0  0  0  0  0
    4.8151   -0.0388    5.9972 H   0  0  0  0  0  0  0  0  0  0  0  0
    4.9282    0.1615    4.2619 H   0  0  0  0  0  0  0  0  0  0  0  0
    6.1917    1.9594    5.3862 H   0  0  0  0  0  0  0  0  0  0  0  0
    4.8354    2.6856    4.5448 H   0  0  0  0  0  0  0  0  0  0  0  0
    3.6775    2.6261    6.5478 H   0  0  0  0  0  0  0  0  0  0  0  0
  1  2  1  0  0  0  0
  1  4  1  0  0  0  0
  1 13  1  0  0  0  0
  2  3  1  0  0  0  0
  2 14  1  0  0  0  0
  2 15  1  0  0  0  0
  3 16  1  0  0  0  0
  4  5  1  0  0  0  0
  4 17  1  0  0  0  0
  4 18  1  0  0  0  0
  5  6  1  0  0  0  0
  5 19  1  0  0  0  0
  5 20  1  0  0  0  0
  6  7  1  0  0  0  0
  6 21  1  0  0  0  0
  6 22  1  0  0  0  0
  7  8  1  0  0  0  0
  7 23  1  0  0  0  0
  7 24  1  0  0  0  0
  8  9  1  0  0  0  0
  8 25  1  0  0  0  0
  8 26  1  0  0  0  0
  9 10  1  0  0  0  0
  9 27  1  0  0  0  0
  9 28  1  0  0  0  0
 10 11  1  0  0  0  0
 10 29  1  0  0  0  0
 10 30  1  0  0  0  0
 11 12  1  0  0  0  0
 11 31  1  0  0  0  0
 11 32  1  0  0  0  0
 12 33  1  0  0  0  0
M  END
>  <DRUGBANK_ID>
DB07897

>  <COMMON_NAME>
1-(HYDROXYMETHYLENEAMINO)-8-HYDROXY-OCTANE

$$$$
