DMC
 OpenBabel10282417163D

 37 37  0  0  0  0  0  0  0  0999 V2000
    1.0784   -0.0246   -0.0860 O   0  0  0  0  0  0  0  0  0  0  0  0
    2.3049   -0.0462   -0.0782 C   0  0  0  0  0  0  0  0  0  0  0  0
    3.0835   -0.4360   -1.2902 C   0  0  0  0  0  0  0  0  0  0  0  0
    4.4305   -0.3702   -1.3703 C   0  0  0  0  0  0  0  0  0  0  0  0
    2.1907   -0.8733   -2.4404 C   0  0  0  0  0  0  0  0  0  0  0  0
    5.1898   -0.6605   -2.5978 C   0  0  0  0  0  0  0  0  0  0  0  0
    4.8872   -0.1125   -3.8473 C   0  0  0  0  0  0  0  0  0  0  0  0
    5.5553   -0.5144   -4.9986 C   0  0  0  0  0  0  0  0  0  0  0  0
    6.6290   -1.4044   -4.9708 C   0  0  0  0  0  0  0  0  0  0  0  0
    6.9345   -1.9289   -3.6995 C   0  0  0  0  0  0  0  0  0  0  0  0
    6.2564   -1.5526   -2.5299 C   0  0  0  0  0  0  0  0  0  0  0  0
    3.9135    0.8260   -4.0719 O   0  0  0  0  0  0  0  0  0  0  0  0
    7.3637   -1.7107   -6.1112 N   0  0  0  0  0  0  0  0  0  0  0  0
    6.9779   -1.2253   -7.4498 C   0  0  0  0  0  0  0  0  0  0  0  0
    8.5509   -2.5749   -6.0363 C   0  0  0  0  0  0  0  0  0  0  0  0
    8.0565   -0.3400   -8.0556 C   0  0  0  0  0  0  0  0  0  0  0  0
    9.6847   -1.9249   -5.2434 C   0  0  0  0  0  0  0  0  0  0  0  0
    2.9966    0.3187    1.0145 O   0  0  0  0  0  0  0  0  0  0  0  0
    5.0686   -0.1100   -0.5332 H   0  0  0  0  0  0  0  0  0  0  0  0
    1.5280   -1.6915   -2.1536 H   0  0  0  0  0  0  0  0  0  0  0  0
    1.5898   -0.0263   -2.7934 H   0  0  0  0  0  0  0  0  0  0  0  0
    2.7413   -1.2559   -3.3033 H   0  0  0  0  0  0  0  0  0  0  0  0
    5.1780   -0.0814   -5.9146 H   0  0  0  0  0  0  0  0  0  0  0  0
    7.7250   -2.6619   -3.5707 H   0  0  0  0  0  0  0  0  0  0  0  0
    6.5768   -1.9890   -1.5860 H   0  0  0  0  0  0  0  0  0  0  0  0
    3.5004    1.0716   -3.2316 H   0  0  0  0  0  0  0  0  0  0  0  0
    6.7729   -2.0812   -8.1030 H   0  0  0  0  0  0  0  0  0  0  0  0
    6.0562   -0.6421   -7.4681 H   0  0  0  0  0  0  0  0  0  0  0  0
    8.2826   -3.5554   -5.6261 H   0  0  0  0  0  0  0  0  0  0  0  0
    8.9296   -2.7832   -7.0448 H   0  0  0  0  0  0  0  0  0  0  0  0
    8.9777   -0.8985   -8.2409 H   0  0  0  0  0  0  0  0  0  0  0  0
    7.7164    0.0637   -9.0146 H   0  0  0  0  0  0  0  0  0  0  0  0
    8.2926    0.4992   -7.3936 H   0  0  0  0  0  0  0  0  0  0  0  0
    9.4296   -1.7213   -4.2010 H   0  0  0  0  0  0  0  0  0  0  0  0
   10.5563   -2.5841   -5.2229 H   0  0  0  0  0  0  0  0  0  0  0  0
    9.9702   -0.9635   -5.6787 H   0  0  0  0  0  0  0  0  0  0  0  0
    3.9650    0.2896    0.9800 H   0  0  0  0  0  0  0  0  0  0  0  0
  1  2  2  0  0  0  0
  2  3  1  0  0  0  0
  2 18  1  0  0  0  0
  3  4  2  0  0  0  0
  3  5  1  0  0  0  0
  4  6  1  0  0  0  0
  4 19  1  0  0  0  0
  5 20  1  0  0  0  0
  5 21  1  0  0  0  0
  5 22  1  0  0  0  0
  6  7  2  0  0  0  0
  6 11  1  0  0  0  0
  7  8  1  0  0  0  0
  7 12  1  0  0  0  0
  8  9  2  0  0  0  0
  8 23  1  0  0  0  0
  9 10  1  0  0  0  0
  9 13  1  0  0  0  0
 10 11  2  0  0  0  0
 10 24  1  0  0  0  0
 11 25  1  0  0  0  0
 12 26  1  0  0  0  0
 13 14  1  0  0  0  0
 13 15  1  0  0  0  0
 14 16  1  0  0  0  0
 14 27  1  0  0  0  0
 14 28  1  0  0  0  0
 15 17  1  0  0  0  0
 15 29  1  0  0  0  0
 15 30  1  0  0  0  0
 16 31  1  0  0  0  0
 16 32  1  0  0  0  0
 16 33  1  0  0  0  0
 17 34  1  0  0  0  0
 17 35  1  0  0  0  0
 17 36  1  0  0  0  0
 18 37  1  0  0  0  0
M  END
>  <DRUGBANK_ID>
DB07668

>  <COMMON_NAME>
alpha-Methyl-2-hydroxy-4-diethylaminocinnamic acid

>  <CAS_NUMBER>
125769-41-7

>  <UNII>
GLA35OJ8JH

>  <SYNONYMS>
3-(4-diethylamino-2-hydroxy-phenyl)-2-methyl-propionic acid; alpha-MHDAC

$$$$
