
 OpenBabel10282417223D

 50 51  0  0  0  0  0  0  0  0999 V2000
   -1.1369    0.2599    0.8973 C   0  0  0  0  0  0  0  0  0  0  0  0
   -0.6503   -0.8011   -0.3921 C   0  0  1  0  0  0  0  0  0  0  0  0
   -1.1329    0.3272   -1.2870 C   0  0  0  0  0  0  0  0  0  0  0  0
   -0.6297    1.2870   -0.1865 C   0  0  2  0  0  0  0  0  0  0  0  0
    0.9294    1.4056   -0.2376 C   0  0  0  0  0  0  0  0  0  0  0  0
    1.5929    0.0271   -0.2509 C   0  0  0  0  0  0  0  0  0  0  0  0
    0.8274   -1.1152   -0.3685 C   0  0  0  0  0  0  0  0  0  0  0  0
    1.3564   -2.5740   -0.3984 C   0  0  0  0  0  0  0  0  0  0  0  0
    0.8217   -3.7386    0.5196 C   0  0  0  0  0  0  0  0  0  0  0  0
   -0.5376   -3.9715    0.8378 O   0  0  0  0  0  0  0  0  0  0  0  0
   -1.0250   -2.8875    1.6292 C   0  0  0  0  0  0  0  0  0  0  0  0
   -0.3853   -2.2244    2.9231 C   0  0  0  0  0  0  0  0  0  0  0  0
    1.0787   -1.7012    2.9646 N   0  0  0  0  0  0  0  0  0  0  0  0
    1.4221   -0.6984    4.0114 C   0  0  0  0  0  0  0  0  0  0  0  0
    0.9532   -1.1153    5.3764 C   0  0  0  0  0  0  0  0  0  0  0  0
    2.1340   -2.7345    3.0838 C   0  0  0  0  0  0  0  0  0  0  0  0
    1.6308   -3.9218    3.8823 C   0  0  0  0  0  0  0  0  0  0  0  0
   -2.5969    0.1447    1.3929 C   0  0  0  0  0  0  0  0  0  0  0  0
   -0.3711    0.7755    2.1320 C   0  0  0  0  0  0  0  0  0  0  0  0
   -1.2403   -1.6899   -0.6687 H   0  0  0  0  0  0  0  0  0  0  0  0
   -0.6625    0.3663   -2.2692 H   0  0  0  0  0  0  0  0  0  0  0  0
   -2.2195    0.2742   -1.4202 H   0  0  0  0  0  0  0  0  0  0  0  0
   -1.1381    2.2506   -0.1218 H   0  0  0  0  0  0  0  0  0  0  0  0
    1.2914    1.9756    0.6303 H   0  0  0  0  0  0  0  0  0  0  0  0
    1.2275    1.9700   -1.1222 H   0  0  0  0  0  0  0  0  0  0  0  0
    2.6581   -0.0311   -0.0995 H   0  0  0  0  0  0  0  0  0  0  0  0
    1.3241   -2.9417   -1.4289 H   0  0  0  0  0  0  0  0  0  0  0  0
    2.4333   -2.5209   -0.1529 H   0  0  0  0  0  0  0  0  0  0  0  0
    1.3834   -4.6784    0.4365 H   0  0  0  0  0  0  0  0  0  0  0  0
    1.1028   -3.4479    1.4711 H   0  0  0  0  0  0  0  0  0  0  0  0
   -0.7424   -2.0995    1.0220 H   0  0  0  0  0  0  0  0  0  0  0  0
   -2.1182   -2.8330    1.5388 H   0  0  0  0  0  0  0  0  0  0  0  0
   -1.0256   -1.3562    2.9873 H   0  0  0  0  0  0  0  0  0  0  0  0
   -0.7259   -2.7281    3.8260 H   0  0  0  0  0  0  0  0  0  0  0  0
    2.5086   -0.5106    3.9967 H   0  0  0  0  0  0  0  0  0  0  0  0
    1.0760    0.3241    3.8666 H   0  0  0  0  0  0  0  0  0  0  0  0
    1.5089   -1.9842    5.7130 H   0  0  0  0  0  0  0  0  0  0  0  0
    1.1187   -0.3202    6.1012 H   0  0  0  0  0  0  0  0  0  0  0  0
   -0.1150   -1.3379    5.3558 H   0  0  0  0  0  0  0  0  0  0  0  0
    2.5577   -3.0607    2.1254 H   0  0  0  0  0  0  0  0  0  0  0  0
    3.0808   -2.3217    3.4513 H   0  0  0  0  0  0  0  0  0  0  0  0
    0.5573   -4.0890    3.7909 H   0  0  0  0  0  0  0  0  0  0  0  0
    2.0583   -4.8505    3.5211 H   0  0  0  0  0  0  0  0  0  0  0  0
    1.8324   -3.7820    4.9395 H   0  0  0  0  0  0  0  0  0  0  0  0
   -2.7632   -0.7602    1.9945 H   0  0  0  0  0  0  0  0  0  0  0  0
   -2.8340    0.9649    2.0863 H   0  0  0  0  0  0  0  0  0  0  0  0
   -3.3372    0.1342    0.5986 H   0  0  0  0  0  0  0  0  0  0  0  0
    0.6942    0.5877    2.0336 H   0  0  0  0  0  0  0  0  0  0  0  0
   -0.5018    1.8464    2.3110 H   0  0  0  0  0  0  0  0  0  0  0  0
   -0.7299    0.3719    3.0799 H   0  0  0  0  0  0  0  0  0  0  0  0
  1  4  1  0  0  0  0
  1 18  1  0  0  0  0
  1 19  1  0  0  0  0
  2  1  1  0  0  0  0
  2  3  1  0  0  0  0
  2  7  1  0  0  0  0
  2 20  1  6  0  0  0
  3 21  1  0  0  0  0
  3 22  1  0  0  0  0
  4  3  1  0  0  0  0
  4  5  1  0  0  0  0
  4 23  1  1  0  0  0
  5  6  1  0  0  0  0
  5 24  1  0  0  0  0
  5 25  1  0  0  0  0
  6 26  1  0  0  0  0
  7  6  2  0  0  0  0
  7  8  1  0  0  0  0
  8  9  1  0  0  0  0
  8 27  1  0  0  0  0
  8 28  1  0  0  0  0
  9 10  1  0  0  0  0
  9 29  1  0  0  0  0
  9 30  1  0  0  0  0
 10 11  1  0  0  0  0
 11 12  1  0  0  0  0
 11 31  1  0  0  0  0
 11 32  1  0  0  0  0
 12 13  1  0  0  0  0
 12 33  1  0  0  0  0
 12 34  1  0  0  0  0
 13 14  1  0  0  0  0
 13 16  1  0  0  0  0
 14 15  1  0  0  0  0
 14 35  1  0  0  0  0
 14 36  1  0  0  0  0
 15 37  1  0  0  0  0
 15 38  1  0  0  0  0
 15 39  1  0  0  0  0
 16 17  1  0  0  0  0
 16 40  1  0  0  0  0
 16 41  1  0  0  0  0
 17 42  1  0  0  0  0
 17 43  1  0  0  0  0
 17 44  1  0  0  0  0
 18 45  1  0  0  0  0
 18 46  1  0  0  0  0
 18 47  1  0  0  0  0
 19 48  1  0  0  0  0
 19 49  1  0  0  0  0
 19 50  1  0  0  0  0
M  END
>  <DRUGBANK_ID>
DB15785

>  <COMMON_NAME>
Myrtecaine

>  <CAS_NUMBER>
7712-50-7

>  <UNII>
9902116282

>  <SYNONYMS>
Mirtecaina; Myrtecaine; Myrtecainum; Nopoxamine

$$$$
