
 OpenBabel10282417233D

 50 52  0  0  0  0  0  0  0  0999 V2000
    0.4761   -0.1537   -0.8443 C   0  0  0  0  0  0  0  0  0  0  0  0
    0.3433   -1.5551   -1.3496 C   0  0  0  0  0  0  0  0  0  0  0  0
    1.0392   -2.6013   -0.5684 O   0  0  0  0  0  0  0  0  0  0  0  0
    2.4010   -2.6438   -0.3757 C   0  0  0  0  0  0  0  0  0  0  0  0
    3.1929   -1.8350   -0.8497 O   0  0  0  0  0  0  0  0  0  0  0  0
    2.8526   -3.8251    0.4707 C   0  0  0  0  0  0  0  0  0  0  0  0
    2.4039   -3.8732    1.8688 N   0  0  0  0  0  0  0  0  0  0  0  0
    2.2661   -5.1115    2.4400 N   0  0  0  0  0  0  0  0  0  0  0  0
    1.8587   -4.8658    3.7039 C   0  0  0  0  0  0  0  0  0  0  0  0
    1.7639   -3.4797    3.9333 C   0  0  0  0  0  0  0  0  0  0  0  0
    2.2609   -2.8620    2.8114 C   0  0  0  0  0  0  0  0  0  0  0  0
    2.4571   -1.4329    2.6404 C   0  0  0  0  0  0  0  0  0  0  0  0
    3.3485   -0.6437    3.3630 C   0  0  0  0  0  0  0  0  0  0  0  0
    3.5074    0.7499    3.0939 C   0  0  0  0  0  0  0  0  0  0  0  0
    2.7855    1.3659    2.0873 C   0  0  0  0  0  0  0  0  0  0  0  0
    1.9555    0.5343    1.4059 C   0  0  0  0  0  0  0  0  0  0  0  0
    1.6667   -0.7800    1.7514 C   0  0  0  0  0  0  0  0  0  0  0  0
    2.8085    2.7357    1.5480 C   0  0  0  0  0  0  0  0  0  0  0  0
    3.9908    3.2378    1.0349 C   0  0  0  0  0  0  0  0  0  0  0  0
    4.0223    4.5024    0.4508 C   0  0  0  0  0  0  0  0  0  0  0  0
    2.8605    5.2686    0.2932 C   0  0  0  0  0  0  0  0  0  0  0  0
    1.6342    4.7104    0.6386 C   0  0  0  0  0  0  0  0  0  0  0  0
    1.6116    3.4633    1.2734 C   0  0  0  0  0  0  0  0  0  0  0  0
    5.6016    5.1552   -0.0037 S   0  0  0  0  0  0  0  0  0  0  0  0
    5.4712    5.5635   -1.7200 C   0  0  0  0  0  0  0  0  0  0  0  0
    5.7860    6.3521    0.7566 O   0  0  0  0  0  0  0  0  0  0  0  0
    6.5628    4.0464    0.0850 O   0  0  0  0  0  0  0  0  0  0  0  0
    1.5686   -5.9088    4.7515 C   0  0  0  0  0  0  0  0  0  0  0  0
    0.5901   -6.7758    4.3860 F   0  0  0  0  0  0  0  0  0  0  0  0
    2.6626   -6.6436    5.0840 F   0  0  0  0  0  0  0  0  0  0  0  0
    1.1433   -5.3261    5.9122 F   0  0  0  0  0  0  0  0  0  0  0  0
   -0.0245   -0.0549    0.1319 H   0  0  0  0  0  0  0  0  0  0  0  0
    0.0952    0.7082   -1.3944 H   0  0  0  0  0  0  0  0  0  0  0  0
    1.5591   -0.0280   -0.8591 H   0  0  0  0  0  0  0  0  0  0  0  0
   -0.7213   -1.7878   -1.2948 H   0  0  0  0  0  0  0  0  0  0  0  0
    0.7157   -1.5509   -2.3702 H   0  0  0  0  0  0  0  0  0  0  0  0
    2.5331   -4.7494   -0.0309 H   0  0  0  0  0  0  0  0  0  0  0  0
    3.9504   -3.8568    0.5107 H   0  0  0  0  0  0  0  0  0  0  0  0
    1.4347   -2.9825    4.8349 H   0  0  0  0  0  0  0  0  0  0  0  0
    3.9233   -1.1069    4.1555 H   0  0  0  0  0  0  0  0  0  0  0  0
    4.2256    1.3269    3.6601 H   0  0  0  0  0  0  0  0  0  0  0  0
    1.6010    1.0346    0.5225 H   0  0  0  0  0  0  0  0  0  0  0  0
    0.8658   -1.3410    1.2933 H   0  0  0  0  0  0  0  0  0  0  0  0
    4.8822    2.6158    1.0699 H   0  0  0  0  0  0  0  0  0  0  0  0
    2.8985    6.2883   -0.0791 H   0  0  0  0  0  0  0  0  0  0  0  0
    0.7055    5.2434    0.4342 H   0  0  0  0  0  0  0  0  0  0  0  0
    0.6347    3.0384    1.5199 H   0  0  0  0  0  0  0  0  0  0  0  0
    4.7128    6.3369   -1.8481 H   0  0  0  0  0  0  0  0  0  0  0  0
    6.4445    5.9485   -2.0342 H   0  0  0  0  0  0  0  0  0  0  0  0
    5.2256    4.6714   -2.2981 H   0  0  0  0  0  0  0  0  0  0  0  0
  1  2  1  0  0  0  0
  1 32  1  0  0  0  0
  1 33  1  0  0  0  0
  1 34  1  0  0  0  0
  2  3  1  0  0  0  0
  2 35  1  0  0  0  0
  2 36  1  0  0  0  0
  3  4  1  0  0  0  0
  4  5  2  0  0  0  0
  4  6  1  0  0  0  0
  6  7  1  0  0  0  0
  6 37  1  0  0  0  0
  6 38  1  0  0  0  0
  7  8  1  0  0  0  0
  7 11  1  0  0  0  0
  8  9  2  0  0  0  0
  9 10  1  0  0  0  0
  9 28  1  0  0  0  0
 10 11  2  0  0  0  0
 10 39  1  0  0  0  0
 11 12  1  0  0  0  0
 12 13  2  0  0  0  0
 12 17  1  0  0  0  0
 13 14  1  0  0  0  0
 13 40  1  0  0  0  0
 14 15  2  0  0  0  0
 14 41  1  0  0  0  0
 15 16  1  0  0  0  0
 15 18  1  0  0  0  0
 16 17  2  0  0  0  0
 16 42  1  0  0  0  0
 17 43  1  0  0  0  0
 18 19  2  0  0  0  0
 18 23  1  0  0  0  0
 19 20  1  0  0  0  0
 19 44  1  0  0  0  0
 20 21  2  0  0  0  0
 20 24  1  0  0  0  0
 21 22  1  0  0  0  0
 21 45  1  0  0  0  0
 22 23  2  0  0  0  0
 22 46  1  0  0  0  0
 23 47  1  0  0  0  0
 24 25  1  0  0  0  0
 24 26  2  0  0  0  0
 24 27  2  0  0  0  0
 25 48  1  0  0  0  0
 25 49  1  0  0  0  0
 25 50  1  0  0  0  0
 28 29  1  0  0  0  0
 28 30  1  0  0  0  0
 28 31  1  0  0  0  0
M  END
>  <DRUGBANK_ID>
DB16320

>  <COMMON_NAME>
Rovazolac

>  <CAS_NUMBER>
1454288-88-0

>  <UNII>
W51K389XIL

>  <SYNONYMS>
Rovazolac

$$$$
