RXB
 OpenBabel10282417173D

 41 43  0  0  0  0  0  0  0  0999 V2000
    1.2524   -0.2172   -0.0897 O   0  0  0  0  0  0  0  0  0  0  0  0
    2.4708   -0.1708   -0.0244 C   0  0  0  0  0  0  0  0  0  0  0  0
    3.2841   -1.2542   -0.1957 N   0  0  0  0  0  0  0  0  0  0  0  0
    4.2116   -1.3991    0.7892 C   0  0  0  0  0  0  0  0  0  0  0  0
    4.2436   -2.2799    1.6367 O   0  0  0  0  0  0  0  0  0  0  0  0
    3.1781    1.0926    0.2401 C   0  0  0  0  0  0  0  0  0  0  0  0
    4.5693    1.0709    0.5151 C   0  0  0  0  0  0  0  0  0  0  0  0
    5.1894   -0.2401    0.7802 C   0  0  0  0  0  0  0  0  0  0  0  0
    6.3910   -0.4150    0.9012 O   0  0  0  0  0  0  0  0  0  0  0  0
    2.4548    2.2773    0.0853 C   0  0  0  0  0  0  0  0  0  0  0  0
    3.1411    3.4503    0.1408 C   0  0  0  0  0  0  0  0  0  0  0  0
    4.5153    3.3981    0.3093 C   0  0  0  0  0  0  0  0  0  0  0  0
    5.2903    2.2548    0.5465 C   0  0  0  0  0  0  0  0  0  0  0  0
    6.6747    2.2786    0.9230 N   0  0  0  0  0  0  0  0  0  0  0  0
    7.5040    3.3249    1.3095 C   0  0  0  0  0  0  0  0  0  0  0  0
    8.6333    3.0702    1.7419 O   0  0  0  0  0  0  0  0  0  0  0  0
    6.9815    4.7811    1.3083 C   0  0  1  0  0  0  0  0  0  0  0  0
    6.5810    5.1872   -0.0681 O   0  0  0  0  0  0  0  0  0  0  0  0
    7.3996    4.8837   -1.1201 C   0  0  0  0  0  0  0  0  0  0  0  0
    8.5649    4.5358   -1.0004 O   0  0  0  0  0  0  0  0  0  0  0  0
    6.7152    4.9694   -2.4726 C   0  0  0  0  0  0  0  0  0  0  0  0
    5.8486    4.9415    2.4186 C   0  0  0  0  0  0  0  0  0  0  0  0
    5.2257    3.8298    3.0634 C   0  0  0  0  0  0  0  0  0  0  0  0
    3.9496    3.9126    3.6312 C   0  0  0  0  0  0  0  0  0  0  0  0
    3.4058    5.1573    3.8658 C   0  0  0  0  0  0  0  0  0  0  0  0
    4.1245    6.2908    3.4826 C   0  0  0  0  0  0  0  0  0  0  0  0
    5.2831    6.1885    2.6874 C   0  0  0  0  0  0  0  0  0  0  0  0
    7.7846    5.4741    1.5718 H   0  0  0  0  0  0  0  0  0  0  0  0
    2.7602   -2.0884   -0.4112 H   0  0  0  0  0  0  0  0  0  0  0  0
    1.3878    2.3047   -0.1089 H   0  0  0  0  0  0  0  0  0  0  0  0
    2.6674    4.4281    0.0853 H   0  0  0  0  0  0  0  0  0  0  0  0
    4.8658    4.3988    0.3839 H   0  0  0  0  0  0  0  0  0  0  0  0
    7.1192    1.3716    1.1156 H   0  0  0  0  0  0  0  0  0  0  0  0
    5.9937    4.1591   -2.6241 H   0  0  0  0  0  0  0  0  0  0  0  0
    6.2350    5.9386   -2.6213 H   0  0  0  0  0  0  0  0  0  0  0  0
    7.4766    4.8646   -3.2587 H   0  0  0  0  0  0  0  0  0  0  0  0
    5.6278    2.8217    3.0112 H   0  0  0  0  0  0  0  0  0  0  0  0
    3.3865    3.0074    3.8598 H   0  0  0  0  0  0  0  0  0  0  0  0
    2.4400    5.2397    4.3583 H   0  0  0  0  0  0  0  0  0  0  0  0
    3.7526    7.2677    3.7769 H   0  0  0  0  0  0  0  0  0  0  0  0
    5.7167    7.0902    2.2666 H   0  0  0  0  0  0  0  0  0  0  0  0
  1  2  2  0  0  0  0
  2  3  1  0  0  0  0
  2  6  1  0  0  0  0
  3  4  1  0  0  0  0
  3 29  1  0  0  0  0
  4  5  2  0  0  0  0
  4  8  1  0  0  0  0
  6  7  2  0  0  0  0
  6 10  1  0  0  0  0
  7  8  1  0  0  0  0
  7 13  1  0  0  0  0
  8  9  2  0  0  0  0
 10 11  2  0  0  0  0
 10 30  1  0  0  0  0
 11 12  1  0  0  0  0
 11 31  1  0  0  0  0
 12 13  2  0  0  0  0
 12 32  1  0  0  0  0
 13 14  1  0  0  0  0
 14 15  1  0  0  0  0
 14 33  1  0  0  0  0
 15 16  2  0  0  0  0
 15 17  1  0  0  0  0
 17 18  1  0  0  0  0
 17 22  1  0  0  0  0
 17 28  1  1  0  0  0
 18 19  1  0  0  0  0
 19 20  2  0  0  0  0
 19 21  1  0  0  0  0
 21 34  1  0  0  0  0
 21 35  1  0  0  0  0
 21 36  1  0  0  0  0
 22 23  2  0  0  0  0
 22 27  1  0  0  0  0
 23 24  1  0  0  0  0
 23 37  1  0  0  0  0
 24 25  2  0  0  0  0
 24 38  1  0  0  0  0
 25 26  1  0  0  0  0
 25 39  1  0  0  0  0
 26 27  2  0  0  0  0
 26 40  1  0  0  0  0
 27 41  1  0  0  0  0
M  END
>  <DRUGBANK_ID>
DB08497

>  <COMMON_NAME>
(1S)-2-oxo-1-phenyl-2-[(1,3,4-trioxo-1,2,3,4-tetrahydroisoquinolin-5-yl)amino]ethyl acetate

$$$$
