7X6
 OpenBabel10282417163D

 45 48  0  0  0  0  0  0  0  0999 V2000
    0.9902    0.1526    0.2967 N   0  0  0  0  0  0  0  0  0  0  0  0
    0.3320    1.0733   -0.5312 C   0  0  0  0  0  0  0  0  0  0  0  0
   -0.8077    1.5998   -0.0706 N   0  0  0  0  0  0  0  0  0  0  0  0
   -1.4164    2.5040   -0.8421 C   0  0  0  0  0  0  0  0  0  0  0  0
   -0.9607    2.8692   -2.0821 C   0  0  0  0  0  0  0  0  0  0  0  0
    0.1999    2.2569   -2.5062 C   0  0  0  0  0  0  0  0  0  0  0  0
    0.7168    2.5660   -3.7764 N   0  0  0  0  0  0  0  0  0  0  0  0
    1.7667    1.8842   -4.4130 C   0  0  0  0  0  0  0  0  0  0  0  0
    2.8704    2.5855   -4.8865 C   0  0  0  0  0  0  0  0  0  0  0  0
    3.0431    3.9419   -4.8561 O   0  0  0  0  0  0  0  0  0  0  0  0
    4.2996    4.0740   -5.5524 C   0  0  0  0  0  0  0  0  0  0  0  0
    4.9574    2.8126   -5.7785 O   0  0  0  0  0  0  0  0  0  0  0  0
    3.9713    1.9470   -5.4188 C   0  0  0  0  0  0  0  0  0  0  0  0
    4.0332    0.5771   -5.5475 C   0  0  0  0  0  0  0  0  0  0  0  0
    2.9189   -0.1588   -5.1483 C   0  0  0  0  0  0  0  0  0  0  0  0
    1.7948    0.4843   -4.5972 C   0  0  0  0  0  0  0  0  0  0  0  0
    0.4327   -0.5272   -4.2438 Cl  0  0  0  0  0  0  0  0  0  0  0  0
    0.8779    1.3972   -1.7098 N   0  0  0  0  0  0  0  0  0  0  0  0
   -1.8428   -4.3775   -3.2234 C   0  0  0  0  0  0  0  0  0  0  0  0
   -2.5340   -3.2677   -2.0178 S   0  0  0  0  0  0  0  0  0  0  0  0
   -3.9407   -3.5641   -1.9136 O   0  0  0  0  0  0  0  0  0  0  0  0
   -2.0865   -1.9505   -2.4241 O   0  0  0  0  0  0  0  0  0  0  0  0
   -1.7989   -3.8103   -0.5881 N   0  0  0  0  0  0  0  0  0  0  0  0
   -1.0681   -2.9754    0.3368 C   0  0  0  0  0  0  0  0  0  0  0  0
   -0.6323   -3.5214    1.5535 C   0  0  0  0  0  0  0  0  0  0  0  0
    0.2626   -2.8139    2.3764 C   0  0  0  0  0  0  0  0  0  0  0  0
    0.7722   -1.5814    1.9694 C   0  0  0  0  0  0  0  0  0  0  0  0
    0.3508   -1.0172    0.7749 C   0  0  0  0  0  0  0  0  0  0  0  0
   -0.5998   -1.7053    0.0064 C   0  0  0  0  0  0  0  0  0  0  0  0
    1.8740   -0.0700   -0.1505 H   0  0  0  0  0  0  0  0  0  0  0  0
   -2.3066    2.9400   -0.4040 H   0  0  0  0  0  0  0  0  0  0  0  0
   -1.4971    3.5967   -2.6730 H   0  0  0  0  0  0  0  0  0  0  0  0
    0.1960    3.2072   -4.3577 H   0  0  0  0  0  0  0  0  0  0  0  0
    4.1078    4.5387   -6.5274 H   0  0  0  0  0  0  0  0  0  0  0  0
    4.9665    4.7305   -4.9817 H   0  0  0  0  0  0  0  0  0  0  0  0
    4.9066    0.0882   -5.9622 H   0  0  0  0  0  0  0  0  0  0  0  0
    2.9157   -1.2394   -5.2663 H   0  0  0  0  0  0  0  0  0  0  0  0
   -2.2092   -5.3889   -3.0465 H   0  0  0  0  0  0  0  0  0  0  0  0
   -2.1803   -4.0318   -4.2057 H   0  0  0  0  0  0  0  0  0  0  0  0
   -0.7528   -4.3307   -3.1894 H   0  0  0  0  0  0  0  0  0  0  0  0
   -2.2487   -4.6383   -0.1936 H   0  0  0  0  0  0  0  0  0  0  0  0
   -0.9707   -4.4980    1.8914 H   0  0  0  0  0  0  0  0  0  0  0  0
    0.5905   -3.2267    3.3273 H   0  0  0  0  0  0  0  0  0  0  0  0
    1.4656   -1.0279    2.5965 H   0  0  0  0  0  0  0  0  0  0  0  0
   -0.9658   -1.1870   -0.8638 H   0  0  0  0  0  0  0  0  0  0  0  0
  1  2  1  0  0  0  0
  1 28  1  0  0  0  0
  1 30  1  0  0  0  0
  2  3  1  0  0  0  0
  2 18  2  0  0  0  0
  3  4  2  0  0  0  0
  4  5  1  0  0  0  0
  4 31  1  0  0  0  0
  5  6  2  0  0  0  0
  5 32  1  0  0  0  0
  6  7  1  0  0  0  0
  6 18  1  0  0  0  0
  7  8  1  0  0  0  0
  7 33  1  0  0  0  0
  8  9  1  0  0  0  0
  8 16  2  0  0  0  0
  9 10  1  0  0  0  0
  9 13  2  0  0  0  0
 10 11  1  0  0  0  0
 11 12  1  0  0  0  0
 11 34  1  0  0  0  0
 11 35  1  0  0  0  0
 12 13  1  0  0  0  0
 13 14  1  0  0  0  0
 14 15  2  0  0  0  0
 14 36  1  0  0  0  0
 15 16  1  0  0  0  0
 15 37  1  0  0  0  0
 16 17  1  0  0  0  0
 19 20  1  0  0  0  0
 19 38  1  0  0  0  0
 19 39  1  0  0  0  0
 19 40  1  0  0  0  0
 20 21  2  0  0  0  0
 20 22  2  0  0  0  0
 20 23  1  0  0  0  0
 23 24  1  0  0  0  0
 23 41  1  0  0  0  0
 24 25  1  0  0  0  0
 24 29  2  0  0  0  0
 25 26  2  0  0  0  0
 25 42  1  0  0  0  0
 26 27  1  0  0  0  0
 26 43  1  0  0  0  0
 27 28  2  0  0  0  0
 27 44  1  0  0  0  0
 28 29  1  0  0  0  0
 29 45  1  0  0  0  0
M  END
>  <DRUGBANK_ID>
DB07254

>  <COMMON_NAME>
N-[3-[[4-[(5-CHLORO-1,3-BENZODIOXOL-4-YL)AMINO]PYRIMIDIN-2-YL]AMINO]PHENYL]METHANESULFONAMIDE

$$$$
