885
 OpenBabel10282417113D

 25 27  0  0  0  0  0  0  0  0999 V2000
    0.9347   -0.0445    0.1028 O   0  0  0  0  0  0  0  0  0  0  0  0
    2.9633   -1.1488    0.2323 N   0  0  0  0  0  0  0  0  0  0  0  0
    4.9867    0.0854    0.0918 N   0  0  0  0  0  0  0  0  0  0  0  0
    1.2845    2.9249    0.9418 N   0  0  0  0  0  0  0  0  0  0  0  0
    2.2701    3.3348   -1.0531 N   0  0  0  0  0  0  0  0  0  0  0  0
    0.8640    4.0478    0.3484 N   0  0  0  0  0  0  0  0  0  0  0  0
    1.4357    4.3414   -0.8263 N   0  0  0  0  0  0  0  0  0  0  0  0
    4.3525   -1.0453    0.1779 C   0  0  0  0  0  0  0  0  0  0  0  0
    5.1203   -2.3338    0.2228 C   0  0  0  0  0  0  0  0  0  0  0  0
    2.1699   -0.0087    0.1647 C   0  0  0  0  0  0  0  0  0  0  0  0
    2.8952    1.2794    0.0658 C   0  0  0  0  0  0  0  0  0  0  0  0
    2.3350   -2.3867    0.1446 C   0  0  0  0  0  0  0  0  0  0  0  0
    4.4579   -3.4841    0.0289 C   0  0  0  0  0  0  0  0  0  0  0  0
    4.2330    1.2237    0.0253 C   0  0  0  0  0  0  0  0  0  0  0  0
    3.0279   -3.5025   -0.0975 C   0  0  0  0  0  0  0  0  0  0  0  0
    6.5815   -2.2736    0.5187 C   0  0  0  0  0  0  0  0  0  0  0  0
    2.1403    2.4758    0.0110 C   0  0  0  0  0  0  0  0  0  0  0  0
    0.1637    4.6480    0.7737 H   0  0  0  0  0  0  0  0  0  0  0  0
    1.2484   -2.3951    0.1905 H   0  0  0  0  0  0  0  0  0  0  0  0
    4.9684   -4.4409    0.0661 H   0  0  0  0  0  0  0  0  0  0  0  0
    4.8079    2.1455   -0.0541 H   0  0  0  0  0  0  0  0  0  0  0  0
    2.5307   -4.4359   -0.3372 H   0  0  0  0  0  0  0  0  0  0  0  0
    7.1148   -1.7168   -0.2562 H   0  0  0  0  0  0  0  0  0  0  0  0
    6.7519   -1.7908    1.4873 H   0  0  0  0  0  0  0  0  0  0  0  0
    7.0164   -3.2774    0.5739 H   0  0  0  0  0  0  0  0  0  0  0  0
  1 10  2  0  0  0  0
  2  8  1  0  0  0  0
  2 10  1  0  0  0  0
  2 12  1  0  0  0  0
  3  8  2  0  0  0  0
  3 14  1  0  0  0  0
  4  6  1  0  0  0  0
  4 17  2  0  0  0  0
  5  7  2  0  0  0  0
  5 17  1  0  0  0  0
  6  7  1  0  0  0  0
  6 18  1  0  0  0  0
  8  9  1  0  0  0  0
  9 13  2  0  0  0  0
  9 16  1  0  0  0  0
 10 11  1  0  0  0  0
 11 14  2  0  0  0  0
 11 17  1  0  0  0  0
 12 15  2  0  0  0  0
 12 19  1  0  0  0  0
 13 15  1  0  0  0  0
 13 20  1  0  0  0  0
 14 21  1  0  0  0  0
 15 22  1  0  0  0  0
 16 23  1  0  0  0  0
 16 24  1  0  0  0  0
 16 25  1  0  0  0  0
M  END
>  <DRUGBANK_ID>
DB00885

>  <SECONDARY_ACCESSION_NUMBERS>
APRD00394

>  <COMMON_NAME>
Pemirolast

>  <CAS_NUMBER>
69372-19-6

>  <UNII>
2C09NV773M

>  <SYNONYMS>
Pemirolast; Pemirolastum

$$$$
