MM3
 OpenBabel10282417123D

 46 47  0  0  0  0  0  0  0  0999 V2000
    1.3526   -0.1147    0.1787 C   0  0  0  0  0  0  0  0  0  0  0  0
    0.4216   -1.1157    0.3464 C   0  0  0  0  0  0  0  0  0  0  0  0
   -0.9368   -0.9527    0.1527 C   0  0  0  0  0  0  0  0  0  0  0  0
   -1.4404    0.3105   -0.0193 C   0  0  0  0  0  0  0  0  0  0  0  0
   -0.5320    1.3816   -0.0142 C   0  0  0  0  0  0  0  0  0  0  0  0
    0.8713    1.1733   -0.0073 C   0  0  0  0  0  0  0  0  0  0  0  0
   -2.7752    0.5728   -0.1496 O   0  0  0  0  0  0  0  0  0  0  0  0
   -3.6308   -0.5700   -0.3064 C   0  0  0  0  0  0  0  0  0  0  0  0
    3.0873   -0.5298    0.2862 S   0  0  0  0  0  0  0  0  0  0  0  0
    3.6931   -0.0747   -0.9595 O   0  0  0  0  0  0  0  0  0  0  0  0
    3.5499   -0.0557    1.5612 O   0  0  0  0  0  0  0  0  0  0  0  0
    3.1714   -2.2788    0.2615 N   0  0  0  0  0  0  0  0  0  0  0  0
    2.7648   -2.9324   -1.0423 C   0  0  1  0  0  0  0  0  0  0  0  0
    3.7788   -4.0477   -1.4222 C   0  0  0  0  0  0  0  0  0  0  0  0
    3.2868   -5.7564   -0.8971 S   0  0  0  0  0  0  0  0  0  0  0  0
    2.7195   -5.5258    0.8195 C   0  0  0  0  0  0  0  0  0  0  0  0
    3.4631   -4.4863    1.6390 C   0  0  0  0  0  0  0  0  0  0  0  0
    2.9434   -3.0311    1.5427 C   0  0  0  0  0  0  0  0  0  0  0  0
    3.8356   -4.1102   -2.9593 C   0  0  0  0  0  0  0  0  0  0  0  0
    5.2239   -3.7817   -0.9309 C   0  0  0  0  0  0  0  0  0  0  0  0
    1.2838   -3.3990   -1.1251 C   0  0  0  0  0  0  0  0  0  0  0  0
    0.4772   -2.9363   -2.1439 N   0  0  0  0  0  0  0  0  0  0  0  0
   -0.8973   -3.2722   -1.8709 O   0  0  0  0  0  0  0  0  0  0  0  0
    0.7042   -4.0569   -0.2537 O   0  0  0  0  0  0  0  0  0  0  0  0
    2.8598   -2.1513   -1.8095 H   0  0  0  0  0  0  0  0  0  0  0  0
    0.7235   -2.0896    0.6456 H   0  0  0  0  0  0  0  0  0  0  0  0
   -1.5537   -1.8430    0.1862 H   0  0  0  0  0  0  0  0  0  0  0  0
   -0.9232    2.3949    0.0114 H   0  0  0  0  0  0  0  0  0  0  0  0
    1.5501    2.0187   -0.0922 H   0  0  0  0  0  0  0  0  0  0  0  0
   -3.3657   -1.1564   -1.1963 H   0  0  0  0  0  0  0  0  0  0  0  0
   -3.6220   -1.2074    0.5871 H   0  0  0  0  0  0  0  0  0  0  0  0
   -4.6559   -0.2146   -0.4394 H   0  0  0  0  0  0  0  0  0  0  0  0
    1.6489   -5.3698    0.9161 H   0  0  0  0  0  0  0  0  0  0  0  0
    2.8223   -6.5184    1.2644 H   0  0  0  0  0  0  0  0  0  0  0  0
    3.3158   -4.7870    2.6838 H   0  0  0  0  0  0  0  0  0  0  0  0
    4.5388   -4.5970    1.5082 H   0  0  0  0  0  0  0  0  0  0  0  0
    3.4266   -2.4741    2.3546 H   0  0  0  0  0  0  0  0  0  0  0  0
    1.8841   -3.0482    1.7873 H   0  0  0  0  0  0  0  0  0  0  0  0
    4.2365   -3.1729   -3.3656 H   0  0  0  0  0  0  0  0  0  0  0  0
    4.4847   -4.9186   -3.3105 H   0  0  0  0  0  0  0  0  0  0  0  0
    2.8390   -4.2511   -3.3915 H   0  0  0  0  0  0  0  0  0  0  0  0
    5.3221   -3.6242    0.1407 H   0  0  0  0  0  0  0  0  0  0  0  0
    5.8912   -4.6159   -1.1761 H   0  0  0  0  0  0  0  0  0  0  0  0
    5.6351   -2.8663   -1.3652 H   0  0  0  0  0  0  0  0  0  0  0  0
    0.5965   -1.9807   -2.4685 H   0  0  0  0  0  0  0  0  0  0  0  0
   -0.8287   -3.7755   -1.0199 H   0  0  0  0  0  0  0  0  0  0  0  0
  1  2  2  0  0  0  0
  1  6  1  0  0  0  0
  1  9  1  0  0  0  0
  2  3  1  0  0  0  0
  2 26  1  0  0  0  0
  3  4  2  0  0  0  0
  3 27  1  0  0  0  0
  4  5  1  0  0  0  0
  4  7  1  0  0  0  0
  5  6  2  0  0  0  0
  5 28  1  0  0  0  0
  6 29  1  0  0  0  0
  7  8  1  0  0  0  0
  8 30  1  0  0  0  0
  8 31  1  0  0  0  0
  8 32  1  0  0  0  0
  9 10  2  0  0  0  0
  9 11  2  0  0  0  0
  9 12  1  0  0  0  0
 12 13  1  0  0  0  0
 12 18  1  0  0  0  0
 13 14  1  0  0  0  0
 13 21  1  0  0  0  0
 13 25  1  6  0  0  0
 14 15  1  0  0  0  0
 14 19  1  0  0  0  0
 14 20  1  0  0  0  0
 15 16  1  0  0  0  0
 16 17  1  0  0  0  0
 16 33  1  0  0  0  0
 16 34  1  0  0  0  0
 17 18  1  0  0  0  0
 17 35  1  0  0  0  0
 17 36  1  0  0  0  0
 18 37  1  0  0  0  0
 18 38  1  0  0  0  0
 19 39  1  0  0  0  0
 19 40  1  0  0  0  0
 19 41  1  0  0  0  0
 20 42  1  0  0  0  0
 20 43  1  0  0  0  0
 20 44  1  0  0  0  0
 21 22  1  0  0  0  0
 21 24  2  0  0  0  0
 22 23  1  0  0  0  0
 22 45  1  0  0  0  0
 23 46  1  0  0  0  0
M  END
>  <DRUGBANK_ID>
DB02350

>  <SECONDARY_ACCESSION_NUMBERS>
EXPT02193

>  <COMMON_NAME>
N-Hydroxy-4-[(4-Methoxylphenyl)Sulfonyl]-2,2-Dimethyl-Hexahydro-1,4-Thiazepine-3(S)-Carboxamide

$$$$
