
 OpenBabel10282417123D

 25 28  0  0  0  0  0  0  0  0999 V2000
   -1.9698   -2.2332    0.0132 N   0  0  0  0  0  0  0  0  0  0  0  0
   -0.6238   -2.4501    0.0045 N   0  0  0  0  0  0  0  0  0  0  0  0
   -1.1203   -0.2495   -0.0132 C   0  0  0  0  0  0  0  0  0  0  0  0
   -0.1115   -1.2142   -0.0088 C   0  0  0  0  0  0  0  0  0  0  0  0
   -2.3264   -0.9078    0.0026 C   0  0  0  0  0  0  0  0  0  0  0  0
    0.3749    1.6450   -0.0049 C   0  0  0  0  0  0  0  0  0  0  0  0
    1.2710   -0.7685   -0.0069 C   0  0  0  0  0  0  0  0  0  0  0  0
   -1.0176    1.1327   -0.0140 C   0  0  0  0  0  0  0  0  0  0  0  0
    1.5117    0.6360   -0.0050 C   0  0  0  0  0  0  0  0  0  0  0  0
    2.3428   -1.6616   -0.0012 C   0  0  0  0  0  0  0  0  0  0  0  0
    2.8257    1.1125    0.0010 C   0  0  0  0  0  0  0  0  0  0  0  0
   -2.1941    1.8758   -0.0062 C   0  0  0  0  0  0  0  0  0  0  0  0
    3.8903    0.2091    0.0041 C   0  0  0  0  0  0  0  0  0  0  0  0
   -3.5312   -0.2026    0.0139 C   0  0  0  0  0  0  0  0  0  0  0  0
   -3.4322    1.2076    0.0076 C   0  0  0  0  0  0  0  0  0  0  0  0
    3.6501   -1.1686    0.0050 C   0  0  0  0  0  0  0  0  0  0  0  0
    0.5848    2.8518    0.0092 O   0  0  0  0  0  0  0  0  0  0  0  0
   -2.5854   -3.0386    0.0345 H   0  0  0  0  0  0  0  0  0  0  0  0
    2.1654   -2.7348   -0.0004 H   0  0  0  0  0  0  0  0  0  0  0  0
    3.0225    2.1826    0.0045 H   0  0  0  0  0  0  0  0  0  0  0  0
   -2.1505    2.9620   -0.0035 H   0  0  0  0  0  0  0  0  0  0  0  0
    4.9124    0.5816    0.0063 H   0  0  0  0  0  0  0  0  0  0  0  0
   -4.4948   -0.7004    0.0330 H   0  0  0  0  0  0  0  0  0  0  0  0
   -4.3473    1.7986    0.0200 H   0  0  0  0  0  0  0  0  0  0  0  0
    4.4881   -1.8621    0.0114 H   0  0  0  0  0  0  0  0  0  0  0  0
  1 18  1  0  0  0  0
  2  1  1  0  0  0  0
  4  2  2  0  0  0  0
  4  3  1  0  0  0  0
  5  1  1  0  0  0  0
  5  3  2  0  0  0  0
  7  4  1  0  0  0  0
  8  3  1  0  0  0  0
  8  6  1  0  0  0  0
  9  6  1  0  0  0  0
  9  7  2  0  0  0  0
 10  7  1  0  0  0  0
 10 19  1  0  0  0  0
 11  9  1  0  0  0  0
 11 20  1  0  0  0  0
 12  8  2  0  0  0  0
 12 21  1  0  0  0  0
 13 11  2  0  0  0  0
 13 22  1  0  0  0  0
 14  5  1  0  0  0  0
 14 23  1  0  0  0  0
 15 12  1  0  0  0  0
 15 14  2  0  0  0  0
 15 24  1  0  0  0  0
 16 10  2  0  0  0  0
 16 13  1  0  0  0  0
 16 25  1  0  0  0  0
 17  6  2  0  0  0  0
M  END
>  <DRUGBANK_ID>
DB01782

>  <SECONDARY_ACCESSION_NUMBERS>
EXPT00232

>  <COMMON_NAME>
Pyrazolanthrone

>  <CAS_NUMBER>
129-56-6

>  <UNII>
1TW30Y2766

>  <SYNONYMS>
1,9-Pyrazoloanthrone; Anthra(1,9-cd)pyrazol-6(2H)-one; Pyrazoleanthrone

$$$$
