
 OpenBabel10282417193D

 51 52  0  0  0  0  0  0  0  0999 V2000
    1.0429    0.1006    0.1326 C   0  0  0  0  0  0  0  0  0  0  0  0
    1.0694   -1.8179    1.7348 C   0  0  0  0  0  0  0  0  0  0  0  0
   -1.0030   -1.3331    0.3564 C   0  0  0  0  0  0  0  0  0  0  0  0
    1.0798   -4.5808   -1.4625 C   0  0  0  0  0  0  0  0  0  0  0  0
    2.3083   -2.8090   -2.5912 C   0  0  0  0  0  0  0  0  0  0  0  0
    1.8621   -4.9395   -3.7318 C   0  0  0  0  0  0  0  0  0  0  0  0
    0.9890   -7.0154   -6.6923 C   0  0  0  0  0  0  0  0  0  0  0  0
    3.1743   -7.7627   -7.2648 C   0  0  0  0  0  0  0  0  0  0  0  0
    0.6903   -3.6675   -0.5246 C   0  0  0  0  0  0  0  0  0  0  0  0
    1.7954   -1.8758   -1.7392 C   0  0  0  0  0  0  0  0  0  0  0  0
    1.0201   -4.1946   -4.7571 C   0  0  0  0  0  0  0  0  0  0  0  0
    1.3453   -5.7504   -7.1675 C   0  0  0  0  0  0  0  0  0  0  0  0
    3.5906   -6.4210   -7.4174 C   0  0  0  0  0  0  0  0  0  0  0  0
    3.0315   -3.2919   -6.0354 C   0  0  0  0  0  0  0  0  0  0  0  0
    1.8340   -4.1171   -2.5206 C   0  0  0  0  0  0  0  0  0  0  0  0
    1.8650   -8.0664   -6.8696 C   0  0  0  0  0  0  0  0  0  0  0  0
    1.0139   -2.3019   -0.6682 C   0  0  0  0  0  0  0  0  0  0  0  0
    1.6026   -2.9958   -5.5210 C   0  0  3  0  0  0  0  0  0  0  0  0
    2.6843   -5.3885   -7.2477 C   0  0  0  0  0  0  0  0  0  0  0  0
    1.2329   -9.4207   -6.8022 C   0  0  0  0  0  0  0  0  0  0  0  0
    0.5306   -1.3291    0.3803 C   0  0  0  0  0  0  0  0  0  0  0  0
    0.7551   -2.5975   -6.6043 O   0  0  0  0  0  0  0  0  0  0  0  0
    1.9737  -10.4146   -7.3421 O   0  0  0  0  0  0  0  0  0  0  0  0
    0.1090   -9.5992   -6.4016 O   0  0  0  0  0  0  0  0  0  0  0  0
    3.0985   -4.0813   -7.2673 O   0  0  0  0  0  0  0  0  0  0  0  0
    0.7050    0.7827    0.9143 H   0  0  0  0  0  0  0  0  0  0  0  0
    0.6844    0.4943   -0.8276 H   0  0  0  0  0  0  0  0  0  0  0  0
    2.1411    0.1296    0.1139 H   0  0  0  0  0  0  0  0  0  0  0  0
    0.7427   -1.1628    2.5430 H   0  0  0  0  0  0  0  0  0  0  0  0
    0.7262   -2.8295    1.9812 H   0  0  0  0  0  0  0  0  0  0  0  0
    2.1670   -1.8527    1.7282 H   0  0  0  0  0  0  0  0  0  0  0  0
   -1.3809   -1.0113   -0.6225 H   0  0  0  0  0  0  0  0  0  0  0  0
   -1.4154   -2.3321    0.5414 H   0  0  0  0  0  0  0  0  0  0  0  0
   -1.4033   -0.6663    1.1225 H   0  0  0  0  0  0  0  0  0  0  0  0
    0.7400   -5.6112   -1.4152 H   0  0  0  0  0  0  0  0  0  0  0  0
    2.9432   -2.4650   -3.3983 H   0  0  0  0  0  0  0  0  0  0  0  0
    2.8828   -5.1544   -4.0520 H   0  0  0  0  0  0  0  0  0  0  0  0
    1.4010   -5.9260   -3.5660 H   0  0  0  0  0  0  0  0  0  0  0  0
    0.0328   -7.1552   -6.1798 H   0  0  0  0  0  0  0  0  0  0  0  0
    3.9058   -8.5377   -7.4515 H   0  0  0  0  0  0  0  0  0  0  0  0
    0.0842   -4.0268    0.2993 H   0  0  0  0  0  0  0  0  0  0  0  0
    2.0100   -0.8342   -1.9572 H   0  0  0  0  0  0  0  0  0  0  0  0
    1.0281   -5.0005   -5.4054 H   0  0  0  0  0  0  0  0  0  0  0  0
   -0.0614   -4.1257   -4.5860 H   0  0  0  0  0  0  0  0  0  0  0  0
    0.5517   -5.0047   -7.1804 H   0  0  0  0  0  0  0  0  0  0  0  0
    4.6060   -6.1971   -7.7289 H   0  0  0  0  0  0  0  0  0  0  0  0
    3.4899   -2.3204   -6.2729 H   0  0  0  0  0  0  0  0  0  0  0  0
    3.6857   -3.7010   -5.2532 H   0  0  0  0  0  0  0  0  0  0  0  0
    1.5846   -2.1187   -4.8678 H   0  0  0  0  0  0  0  0  0  0  0  0
    1.1042   -3.0120   -7.4137 H   0  0  0  0  0  0  0  0  0  0  0  0
    2.8277  -10.1676   -7.7245 H   0  0  0  0  0  0  0  0  0  0  0  0
  1 26  1  0  0  0  0
  1 27  1  0  0  0  0
  1 28  1  0  0  0  0
  2 29  1  0  0  0  0
  2 30  1  0  0  0  0
  2 31  1  0  0  0  0
  3 32  1  0  0  0  0
  3 33  1  0  0  0  0
  3 34  1  0  0  0  0
  4 35  1  0  0  0  0
  5 36  1  0  0  0  0
  6 37  1  0  0  0  0
  6 38  1  0  0  0  0
  7 39  1  0  0  0  0
  8 40  1  0  0  0  0
  9  4  1  0  0  0  0
  9 41  1  0  0  0  0
 10  5  2  0  0  0  0
 10 42  1  0  0  0  0
 11  6  1  0  0  0  0
 11 43  1  0  0  0  0
 11 44  1  0  0  0  0
 12  7  1  0  0  0  0
 12 45  1  0  0  0  0
 13  8  2  0  0  0  0
 13 46  1  0  0  0  0
 14 47  1  0  0  0  0
 14 48  1  0  0  0  0
 15  4  2  0  0  0  0
 15  5  1  0  0  0  0
 15  6  1  0  0  0  0
 16  7  2  0  0  0  0
 16  8  1  0  0  0  0
 17  9  2  0  0  0  0
 17 10  1  0  0  0  0
 18 11  1  0  0  0  0
 18 14  1  0  0  0  0
 18 49  1  0  0  0  0
 19 12  2  0  0  0  0
 19 13  1  0  0  0  0
 20 16  1  0  0  0  0
 21  1  1  0  0  0  0
 21  2  1  0  0  0  0
 21  3  1  0  0  0  0
 21 17  1  0  0  0  0
 22 18  1  0  0  0  0
 22 50  1  0  0  0  0
 23 20  1  0  0  0  0
 23 51  1  0  0  0  0
 24 20  2  0  0  0  0
 25 14  1  0  0  0  0
 25 19  1  0  0  0  0
M  END
>  <DRUGBANK_ID>
DB12448

>  <COMMON_NAME>
Lifibrol

>  <CAS_NUMBER>
96609-16-4

>  <UNII>
6KWX9X0Q5K

>  <SYNONYMS>
Lifibrol

$$$$
