5CN
 OpenBabel10282417163D

 46 48  0  0  0  0  0  0  0  0999 V2000
    1.4451   -0.1673    0.0312 C   0  0  0  0  0  0  0  0  0  0  0  0
    0.5478   -1.2629    0.0049 C   0  0  0  0  0  0  0  0  0  0  0  0
   -0.8455   -1.0928   -0.0208 C   0  0  0  0  0  0  0  0  0  0  0  0
    4.2086   -2.4416   -0.1164 C   0  0  0  0  0  0  0  0  0  0  0  0
    3.5129   -1.2694   -0.8113 C   0  0  0  0  0  0  0  0  0  0  0  0
    3.5559    0.0403    1.3120 C   0  0  0  0  0  0  0  0  0  0  0  0
    4.2304   -1.1393    2.0266 C   0  0  0  0  0  0  0  0  0  0  0  0
    5.0728   -1.9903    1.0675 C   0  0  0  0  0  0  0  0  0  0  0  0
    5.6760   -3.1995    1.7868 C   0  0  0  0  0  0  0  0  0  0  0  0
   -2.8595    0.4468   -0.1730 C   0  0  0  0  0  0  0  0  0  0  0  0
    1.2360    3.6180   -0.3573 C   0  0  0  0  0  0  0  0  0  0  0  0
    2.2264    4.6378   -0.6546 C   0  0  0  0  0  0  0  0  0  0  0  0
    3.2369    4.7085   -1.5927 C   0  0  0  0  0  0  0  0  0  0  0  0
    3.2616    7.9656    0.0438 C   0  0  0  0  0  0  0  0  0  0  0  0
   -1.3863    0.1849   -0.0039 C   0  0  0  0  0  0  0  0  0  0  0  0
   -0.5122    1.2714    0.0751 C   0  0  0  0  0  0  0  0  0  0  0  0
    0.8829    1.1394   -0.0051 C   0  0  0  0  0  0  0  0  0  0  0  0
    2.8132   -0.4044    0.1336 N   0  0  0  0  0  0  0  0  0  0  0  0
   -3.3911    1.1647    0.9287 O   0  0  0  0  0  0  0  0  0  0  0  0
    1.7047    2.2982   -0.2238 N   0  0  0  0  0  0  0  0  0  0  0  0
    0.0624    3.9588   -0.2559 O   0  0  0  0  0  0  0  0  0  0  0  0
    3.8117    6.0027   -1.4901 C   0  0  0  0  0  0  0  0  0  0  0  0
    3.1101    6.6582   -0.5053 C   0  0  0  0  0  0  0  0  0  0  0  0
    2.1303    5.8536   -0.0081 O   0  0  0  0  0  0  0  0  0  0  0  0
    3.4406    9.0265    0.4727 N   0  0  0  0  0  0  0  0  0  0  0  0
    0.9294   -2.2816    0.0178 H   0  0  0  0  0  0  0  0  0  0  0  0
   -1.5009   -1.9605   -0.0369 H   0  0  0  0  0  0  0  0  0  0  0  0
    4.8382   -2.9646   -0.8471 H   0  0  0  0  0  0  0  0  0  0  0  0
    3.4567   -3.1603    0.2324 H   0  0  0  0  0  0  0  0  0  0  0  0
    4.2706   -0.6529   -1.3085 H   0  0  0  0  0  0  0  0  0  0  0  0
    2.8493   -1.6507   -1.5951 H   0  0  0  0  0  0  0  0  0  0  0  0
    4.3273    0.7410    0.9744 H   0  0  0  0  0  0  0  0  0  0  0  0
    2.9173    0.5688    2.0287 H   0  0  0  0  0  0  0  0  0  0  0  0
    3.4660   -1.7702    2.4981 H   0  0  0  0  0  0  0  0  0  0  0  0
    4.8697   -0.7553    2.8317 H   0  0  0  0  0  0  0  0  0  0  0  0
    5.9030   -1.3789    0.6893 H   0  0  0  0  0  0  0  0  0  0  0  0
    6.2927   -3.7915    1.1014 H   0  0  0  0  0  0  0  0  0  0  0  0
    6.3132   -2.8823    2.6193 H   0  0  0  0  0  0  0  0  0  0  0  0
    4.8968   -3.8561    2.1893 H   0  0  0  0  0  0  0  0  0  0  0  0
   -3.0250    1.0348   -1.0845 H   0  0  0  0  0  0  0  0  0  0  0  0
   -3.4210   -0.4851   -0.2768 H   0  0  0  0  0  0  0  0  0  0  0  0
    3.4853    3.9307   -2.2991 H   0  0  0  0  0  0  0  0  0  0  0  0
   -0.9870    2.2383    0.1825 H   0  0  0  0  0  0  0  0  0  0  0  0
   -3.1450    0.6747    1.7298 H   0  0  0  0  0  0  0  0  0  0  0  0
    2.6871    2.0967   -0.3667 H   0  0  0  0  0  0  0  0  0  0  0  0
    4.6291    6.4076   -2.0710 H   0  0  0  0  0  0  0  0  0  0  0  0
  1 18  1  0  0  0  0
  1  2  2  0  0  0  0
  1 17  1  0  0  0  0
  2  3  1  0  0  0  0
  2 26  1  0  0  0  0
  3 15  2  0  0  0  0
  3 27  1  0  0  0  0
  4  8  1  0  0  0  0
  4  5  1  0  0  0  0
  4 28  1  0  0  0  0
  4 29  1  0  0  0  0
  5 18  1  0  0  0  0
  5 30  1  0  0  0  0
  5 31  1  0  0  0  0
  6  7  1  0  0  0  0
  6 18  1  0  0  0  0
  6 32  1  0  0  0  0
  6 33  1  0  0  0  0
  7  8  1  0  0  0  0
  7 34  1  0  0  0  0
  7 35  1  0  0  0  0
  8  9  1  0  0  0  0
  8 36  1  0  0  0  0
  9 37  1  0  0  0  0
  9 38  1  0  0  0  0
  9 39  1  0  0  0  0
 10 15  1  0  0  0  0
 10 19  1  0  0  0  0
 10 40  1  0  0  0  0
 10 41  1  0  0  0  0
 11 12  1  0  0  0  0
 11 20  1  0  0  0  0
 11 21  2  0  0  0  0
 12 24  1  0  0  0  0
 12 13  2  0  0  0  0
 13 22  1  0  0  0  0
 13 42  1  0  0  0  0
 14 25  3  0  0  0  0
 14 23  1  0  0  0  0
 15 16  1  0  0  0  0
 16 17  2  0  0  0  0
 16 43  1  0  0  0  0
 17 20  1  0  0  0  0
 19 44  1  0  0  0  0
 20 45  1  0  0  0  0
 22 23  2  0  0  0  0
 22 46  1  0  0  0  0
 23 24  1  0  0  0  0
M  END
>  <DRUGBANK_ID>
DB07167

>  <COMMON_NAME>
5-CYANO-FURAN-2-CARBOXYLIC ACID [5-HYDROXYMETHYL-2-(4-METHYL-PIPERIDIN-1-YL)-PHENYL]-AMIDE

$$$$
