
 OpenBabel10282417243D

123128  0  0  1  0  0  0  0  0999 V2000
    0.8426    0.6317    0.4405 H   0  0  0  0  0  0  0  0  0  0  0  0
    1.2225    0.7141   -0.5812 C   0  0  2  0  0  0  0  0  0  0  0  0
    1.2181    2.5280   -0.9683 C   0  0  0  0  0  0  0  0  0  0  0  0
    1.4504    2.2895   -2.4291 C   0  0  0  0  0  0  0  0  0  0  0  0
    2.5342    1.2540   -2.3922 C   0  0  0  0  0  0  0  0  0  0  0  0
    2.5877    0.8933   -0.9855 N   0  0  0  0  0  0  0  0  0  0  0  0
    3.2776    1.5830   -0.0289 C   0  0  0  0  0  0  0  0  0  0  0  0
    2.7118    1.7381    1.0502 O   0  0  0  0  0  0  0  0  0  0  0  0
    4.5422    2.2343   -0.5717 C   0  0  2  0  0  0  0  0  0  0  0  0
    5.2499    2.9157    0.5391 C   0  0  0  0  0  0  0  0  0  0  0  0
    7.0032    2.9992    1.1034 C   0  0  0  0  0  0  0  0  0  0  0  0
    7.7458    2.5582    2.3467 C   0  0  0  0  0  0  0  0  0  0  0  0
    9.1209    2.3300    2.1413 N   0  0  0  0  0  0  0  0  0  0  0  0
    9.3639    1.1007    2.7025 C   0  0  0  0  0  0  0  0  0  0  0  0
    9.7033    1.0545    3.8856 O   0  0  0  0  0  0  0  0  0  0  0  0
    8.8204   -0.1488    1.9375 C   0  0  2  0  0  0  0  0  0  0  0  0
    7.3580   -0.1492    1.5584 C   0  0  0  0  0  0  0  0  0  0  0  0
    7.1066    0.5852    0.2792 C   0  0  0  0  0  0  0  0  0  0  0  0
    7.8553    0.7662   -1.0381 C   0  0  0  0  0  0  0  0  0  0  0  0
    7.3411   -0.0332   -2.0831 N   0  0  0  0  0  0  0  0  0  0  0  0
    6.5560    0.3009   -3.1073 C   0  0  0  0  0  0  0  0  0  0  0  0
    6.2271   -0.6843   -3.9548 N   0  0  0  0  0  0  0  0  0  0  0  0
    6.1661    1.4963   -3.3173 N   0  0  0  0  0  0  0  0  0  0  0  0
    8.9452   -1.2421    2.8447 N   0  0  0  0  0  0  0  0  0  0  0  0
    8.6644   -2.5460    2.5233 C   0  0  0  0  0  0  0  0  0  0  0  0
    9.6449   -3.2396    2.2443 O   0  0  0  0  0  0  0  0  0  0  0  0
    6.8982   -3.0624    2.5092 C   0  0  2  0  0  0  0  0  0  0  0  0
    6.9960   -4.0456    3.6205 C   0  0  0  0  0  0  0  0  0  0  0  0
    7.6184   -3.3177    4.7401 C   0  0  0  0  0  0  0  0  0  0  0  0
    8.9086   -3.5289    5.1775 C   0  0  0  0  0  0  0  0  0  0  0  0
    9.2316   -2.4987    6.0087 N   0  0  0  0  0  0  0  0  0  0  0  0
    8.1805   -1.6100    6.1014 C   0  0  0  0  0  0  0  0  0  0  0  0
    8.0364   -0.4450    6.8535 C   0  0  0  0  0  0  0  0  0  0  0  0
    6.8438    0.2790    6.7172 C   0  0  0  0  0  0  0  0  0  0  0  0
    5.8740   -0.0816    5.7911 C   0  0  0  0  0  0  0  0  0  0  0  0
    6.0405   -1.2337    5.0330 C   0  0  0  0  0  0  0  0  0  0  0  0
    7.1703   -2.0593    5.2598 C   0  0  0  0  0  0  0  0  0  0  0  0
    5.7522   -3.7360    1.5575 N   0  0  0  0  0  0  0  0  0  0  0  0
    4.4316   -3.4391    1.4218 C   0  0  0  0  0  0  0  0  0  0  0  0
    3.5876   -4.1257    2.1261 O   0  0  0  0  0  0  0  0  0  0  0  0
    3.9913   -2.5737    0.1654 C   0  0  0  0  0  0  0  0  0  0  0  0
    5.1906   -1.6751   -0.0716 C   0  0  0  0  0  0  0  0  0  0  0  0
    6.6057   -2.3060   -0.5564 C   0  0  0  0  0  0  0  0  0  0  0  0
    6.5071   -2.9221   -1.8874 C   0  0  0  0  0  0  0  0  0  0  0  0
    7.9116   -3.2260   -2.4877 C   0  0  0  0  0  0  0  0  0  0  0  0
    8.6845   -4.2092   -1.6267 C   0  0  0  0  0  0  0  0  0  0  0  0
    9.0274   -3.4862   -0.3861 C   0  0  0  0  0  0  0  0  0  0  0  0
    7.7120   -3.0680    0.1372 C   0  0  0  0  0  0  0  0  0  0  0  0
    2.7596   -1.6288    0.3713 N   0  0  0  0  0  0  0  0  0  0  0  0
    2.0803   -0.9456   -0.7101 C   0  0  0  0  0  0  0  0  0  0  0  0
    2.2923   -1.4682   -1.8250 O   0  0  0  0  0  0  0  0  0  0  0  0
    4.3403    3.2687   -1.6236 N   0  0  0  0  0  0  0  0  0  0  0  0
    5.3674    3.9989   -2.1428 C   0  0  0  0  0  0  0  0  0  0  0  0
    5.3069    4.5011   -3.2810 O   0  0  0  0  0  0  0  0  0  0  0  0
    6.5496    4.0953   -1.2318 C   0  0  0  0  0  0  0  0  0  0  0  0
    6.4410    5.0878    0.3664 C   0  0  0  0  0  0  0  0  0  0  0  0
    5.5421    4.7172    2.0820 C   0  0  0  0  0  0  0  0  0  0  0  0
    4.2487    5.1671    1.9806 C   0  0  0  0  0  0  0  0  0  0  0  0
    3.1379    4.3066    2.4655 C   0  0  0  0  0  0  0  0  0  0  0  0
    3.1570    2.9947    3.1185 C   0  0  0  0  0  0  0  0  0  0  0  0
    4.3537    2.3989    3.2780 C   0  0  0  0  0  0  0  0  0  0  0  0
    5.4264    3.3277    3.0390 C   0  0  0  0  0  0  0  0  0  0  0  0
    0.6193    3.4375   -1.1919 H   0  0  0  0  0  0  0  0  0  0  0  0
    1.9594    3.1434   -0.3941 H   0  0  0  0  0  0  0  0  0  0  0  0
    1.6531    3.1246   -3.0968 H   0  0  0  0  0  0  0  0  0  0  0  0
    0.4416    1.9357   -2.6791 H   0  0  0  0  0  0  0  0  0  0  0  0
    3.4970    1.5381   -2.7905 H   0  0  0  0  0  0  0  0  0  0  0  0
    2.1632    0.4188   -2.9676 H   0  0  0  0  0  0  0  0  0  0  0  0
    5.0469    1.3799   -0.9625 H   0  0  0  0  0  0  0  0  0  0  0  0
    4.8867    3.9177    0.2421 H   0  0  0  0  0  0  0  0  0  0  0  0
    4.5458    2.7727    1.2852 H   0  0  0  0  0  0  0  0  0  0  0  0
    7.6527    2.9653    0.2445 H   0  0  0  0  0  0  0  0  0  0  0  0
    7.3403    3.9345    1.5108 H   0  0  0  0  0  0  0  0  0  0  0  0
    7.7474    3.2112    3.2341 H   0  0  0  0  0  0  0  0  0  0  0  0
    7.2408    1.6706    2.6193 H   0  0  0  0  0  0  0  0  0  0  0  0
    9.4733    2.6413    1.2449 H   0  0  0  0  0  0  0  0  0  0  0  0
    9.4285   -0.2950    1.0440 H   0  0  0  0  0  0  0  0  0  0  0  0
    6.9408   -1.0950    1.4057 H   0  0  0  0  0  0  0  0  0  0  0  0
    6.6926    0.1028    2.4086 H   0  0  0  0  0  0  0  0  0  0  0  0
    6.0587    0.8037    0.3381 H   0  0  0  0  0  0  0  0  0  0  0  0
    7.7049    1.3419    0.6285 H   0  0  0  0  0  0  0  0  0  0  0  0
    7.9071    1.7862   -1.4092 H   0  0  0  0  0  0  0  0  0  0  0  0
    8.9103    0.5819   -0.8283 H   0  0  0  0  0  0  0  0  0  0  0  0
    7.8282   -0.8923   -2.1392 H   0  0  0  0  0  0  0  0  0  0  0  0
    5.4174   -0.5842   -4.5469 H   0  0  0  0  0  0  0  0  0  0  0  0
    6.4581   -1.6504   -3.8061 H   0  0  0  0  0  0  0  0  0  0  0  0
    5.6574    1.5022   -4.1998 H   0  0  0  0  0  0  0  0  0  0  0  0
    9.3211   -1.0274    3.7634 H   0  0  0  0  0  0  0  0  0  0  0  0
    6.3783   -2.1554    2.7797 H   0  0  0  0  0  0  0  0  0  0  0  0
    5.9996   -4.4075    3.8489 H   0  0  0  0  0  0  0  0  0  0  0  0
    7.6159   -4.8649    3.2281 H   0  0  0  0  0  0  0  0  0  0  0  0
    9.6422   -4.2572    4.8426 H   0  0  0  0  0  0  0  0  0  0  0  0
   10.1285   -2.3924    6.4589 H   0  0  0  0  0  0  0  0  0  0  0  0
    8.7998   -0.1333    7.5549 H   0  0  0  0  0  0  0  0  0  0  0  0
    6.6671    1.1392    7.3555 H   0  0  0  0  0  0  0  0  0  0  0  0
    4.9650    0.5051    5.6850 H   0  0  0  0  0  0  0  0  0  0  0  0
    5.2738   -1.4863    4.3028 H   0  0  0  0  0  0  0  0  0  0  0  0
    5.9625   -4.0384    0.6156 H   0  0  0  0  0  0  0  0  0  0  0  0
    3.8677   -3.2046   -0.7274 H   0  0  0  0  0  0  0  0  0  0  0  0
    4.9097   -0.9142   -0.8159 H   0  0  0  0  0  0  0  0  0  0  0  0
    5.2090   -1.0890    0.8553 H   0  0  0  0  0  0  0  0  0  0  0  0
    7.1572   -1.4021   -0.5897 H   0  0  0  0  0  0  0  0  0  0  0  0
    5.8996   -3.8178   -1.8332 H   0  0  0  0  0  0  0  0  0  0  0  0
    5.8791   -2.2011   -2.3732 H   0  0  0  0  0  0  0  0  0  0  0  0
    7.7964   -3.6215   -3.4848 H   0  0  0  0  0  0  0  0  0  0  0  0
    8.5678   -2.3483   -2.5565 H   0  0  0  0  0  0  0  0  0  0  0  0
    8.0416   -5.0644   -1.3756 H   0  0  0  0  0  0  0  0  0  0  0  0
    9.6285   -4.5653   -2.0245 H   0  0  0  0  0  0  0  0  0  0  0  0
    9.4464   -4.2106    0.3285 H   0  0  0  0  0  0  0  0  0  0  0  0
    9.6942   -2.6206   -0.4385 H   0  0  0  0  0  0  0  0  0  0  0  0
    8.0303   -2.3014    0.7664 H   0  0  0  0  0  0  0  0  0  0  0  0
    7.5002   -4.0440    0.5506 H   0  0  0  0  0  0  0  0  0  0  0  0
    2.2161   -1.9321    1.1707 H   0  0  0  0  0  0  0  0  0  0  0  0
    3.4437    3.4688   -2.0268 H   0  0  0  0  0  0  0  0  0  0  0  0
    6.6075    3.0061   -1.1022 H   0  0  0  0  0  0  0  0  0  0  0  0
    7.5213    4.1655   -1.7586 H   0  0  0  0  0  0  0  0  0  0  0  0
    7.5602    5.1488    0.4839 H   0  0  0  0  0  0  0  0  0  0  0  0
    6.2540    6.1108    0.0682 H   0  0  0  0  0  0  0  0  0  0  0  0
    4.0617    5.9034    1.2082 H   0  0  0  0  0  0  0  0  0  0  0  0
    2.1874    4.5065    1.9802 H   0  0  0  0  0  0  0  0  0  0  0  0
    2.2895    2.3246    3.1491 H   0  0  0  0  0  0  0  0  0  0  0  0
    4.4827    1.2787    3.1447 H   0  0  0  0  0  0  0  0  0  0  0  0
    6.1516    2.6721    3.5091 H   0  0  0  0  0  0  0  0  0  0  0  0
  2  1  1  1  0  0  0
  2  3  1  0  0  0  0
  2  6  1  0  0  0  0
  2 50  1  0  0  0  0
  3  4  1  0  0  0  0
  3 63  1  0  0  0  0
  3 64  1  0  0  0  0
  4  5  1  0  0  0  0
  4 65  1  0  0  0  0
  4 66  1  0  0  0  0
  5  6  1  0  0  0  0
  5 67  1  0  0  0  0
  5 68  1  0  0  0  0
  6  7  1  0  0  0  0
  7  8  2  0  0  0  0
  9  7  1  0  0  0  0
  9 10  1  0  0  0  0
  9 69  1  6  0  0  0
  9 52  1  0  0  0  0
 10 11  1  0  0  0  0
 10 70  1  0  0  0  0
 10 71  1  0  0  0  0
 11 12  1  0  0  0  0
 11 72  1  0  0  0  0
 11 73  1  0  0  0  0
 12 13  1  0  0  0  0
 12 74  1  0  0  0  0
 12 75  1  0  0  0  0
 13 14  1  0  0  0  0
 13 76  1  0  0  0  0
 14 15  2  0  0  0  0
 16 14  1  0  0  0  0
 16 17  1  0  0  0  0
 16 24  1  0  0  0  0
 16 77  1  6  0  0  0
 17 18  1  0  0  0  0
 17 78  1  0  0  0  0
 17 79  1  0  0  0  0
 18 19  1  0  0  0  0
 18 80  1  0  0  0  0
 18 81  1  0  0  0  0
 19 20  1  0  0  0  0
 19 82  1  0  0  0  0
 19 83  1  0  0  0  0
 20 21  1  0  0  0  0
 20 84  1  0  0  0  0
 21 22  1  0  0  0  0
 21 23  2  0  0  0  0
 22 85  1  0  0  0  0
 22 86  1  0  0  0  0
 23 87  1  0  0  0  0
 24 25  1  0  0  0  0
 24 88  1  0  0  0  0
 25 26  2  0  0  0  0
 27 25  1  0  0  0  0
 27 28  1  0  0  0  0
 27 38  1  0  0  0  0
 27 89  1  1  0  0  0
 28 29  1  0  0  0  0
 28 90  1  0  0  0  0
 28 91  1  0  0  0  0
 29 30  2  0  0  0  0
 29 37  1  0  0  0  0
 30 31  1  0  0  0  0
 30 92  1  0  0  0  0
 31 32  1  0  0  0  0
 31 93  1  0  0  0  0
 32 33  2  0  0  0  0
 32 37  1  0  0  0  0
 33 34  1  0  0  0  0
 33 94  1  0  0  0  0
 34 35  2  0  0  0  0
 34 95  1  0  0  0  0
 35 36  1  0  0  0  0
 35 96  1  0  0  0  0
 36 37  2  0  0  0  0
 36 97  1  0  0  0  0
 38 39  1  0  0  0  0
 38 98  1  0  0  0  0
 39 40  2  0  0  0  0
 41 39  1  0  0  0  0
 41 42  1  0  0  0  0
 41 49  1  0  0  0  0
 41 99  1  0  0  0  0
 42 43  1  0  0  0  0
 42100  1  0  0  0  0
 42101  1  0  0  0  0
 43 44  1  0  0  0  0
 43 48  1  0  0  0  0
 43102  1  0  0  0  0
 44 45  1  0  0  0  0
 44103  1  0  0  0  0
 44104  1  0  0  0  0
 45 46  1  0  0  0  0
 45105  1  0  0  0  0
 45106  1  0  0  0  0
 46 47  1  0  0  0  0
 46107  1  0  0  0  0
 46108  1  0  0  0  0
 47 48  1  0  0  0  0
 47109  1  0  0  0  0
 47110  1  0  0  0  0
 48111  1  0  0  0  0
 48112  1  0  0  0  0
 49 50  1  0  0  0  0
 49113  1  0  0  0  0
 50 51  2  0  0  0  0
 52 53  1  0  0  0  0
 52114  1  0  0  0  0
 53 54  2  0  0  0  0
 53 55  1  0  0  0  0
 55 56  1  0  0  0  0
 55115  1  0  0  0  0
 55116  1  0  0  0  0
 56 57  1  0  0  0  0
 56117  1  0  0  0  0
 56118  1  0  0  0  0
 57 58  2  0  0  0  0
 57 62  1  0  0  0  0
 58 59  1  0  0  0  0
 58119  1  0  0  0  0
 59 60  2  0  0  0  0
 59120  1  0  0  0  0
 60 61  1  0  0  0  0
 60121  1  0  0  0  0
 61 62  2  0  0  0  0
 61122  1  0  0  0  0
 62123  1  0  0  0  0
M  END
>  <DRUGBANK_ID>
DB17938

>  <COMMON_NAME>
PMX-205

>  <CAS_NUMBER>
514814-49-4

>  <UNII>
DC25O3L7KZ

>  <SYNONYMS>
Cyclic hexapeptide complement c5a antagonist; Hydrocinnamate-(orn-pro-dcha-trp-arg)

$$$$
