PG6
 OpenBabel10282417123D

 44 43  0  0  0  0  0  0  0  0999 V2000
    1.9040    0.4533    0.5662 C   0  0  0  0  0  0  0  0  0  0  0  0
    1.1029   -0.3076    1.4506 O   0  0  0  0  0  0  0  0  0  0  0  0
    1.5400   -1.6628    1.5705 C   0  0  0  0  0  0  0  0  0  0  0  0
    1.4455   -2.5582    0.3247 C   0  0  0  0  0  0  0  0  0  0  0  0
    1.6693   -2.0509   -0.9814 O   0  0  0  0  0  0  0  0  0  0  0  0
    0.7216   -1.0294   -1.3602 C   0  0  0  0  0  0  0  0  0  0  0  0
   -0.6136   -0.7858   -0.6200 C   0  0  0  0  0  0  0  0  0  0  0  0
   -1.3881   -1.4263    0.4347 O   0  0  0  0  0  0  0  0  0  0  0  0
   -1.3342   -2.8592    0.7309 C   0  0  0  0  0  0  0  0  0  0  0  0
   -1.0683   -3.9680   -0.4857 C   0  0  0  0  0  0  0  0  0  0  0  0
   -1.0145   -3.5405   -1.8851 O   0  0  0  0  0  0  0  0  0  0  0  0
   -1.7888   -2.4310   -2.4252 C   0  0  0  0  0  0  0  0  0  0  0  0
   -3.1241   -1.7165   -2.1142 C   0  0  0  0  0  0  0  0  0  0  0  0
   -4.0717   -2.1883   -1.1321 O   0  0  0  0  0  0  0  0  0  0  0  0
   -3.8479   -3.5358   -0.7479 C   0  0  0  0  0  0  0  0  0  0  0  0
   -3.9426   -4.6933   -1.7548 C   0  0  0  0  0  0  0  0  0  0  0  0
   -3.5054   -4.4485   -3.0931 O   0  0  0  0  0  0  0  0  0  0  0  0
   -4.3065   -3.4974   -3.7688 C   0  0  0  0  0  0  0  0  0  0  0  0
    1.2849    1.2650    0.1274 H   0  0  0  0  0  0  0  0  0  0  0  0
    2.2719   -0.1769   -0.2336 H   0  0  0  0  0  0  0  0  0  0  0  0
    2.9236    0.6479    0.8306 H   0  0  0  0  0  0  0  0  0  0  0  0
    2.5745   -1.6481    1.8784 H   0  0  0  0  0  0  0  0  0  0  0  0
    0.9426   -2.0901    2.3932 H   0  0  0  0  0  0  0  0  0  0  0  0
    1.5323   -3.6415    0.5042 H   0  0  0  0  0  0  0  0  0  0  0  0
    0.4040   -2.5693    0.1416 H   0  0  0  0  0  0  0  0  0  0  0  0
    0.8831   -0.0581   -0.9713 H   0  0  0  0  0  0  0  0  0  0  0  0
    0.8850   -0.7106   -2.3971 H   0  0  0  0  0  0  0  0  0  0  0  0
   -1.1991    0.0452   -1.0784 H   0  0  0  0  0  0  0  0  0  0  0  0
   -0.5381   -1.6005   -1.2420 H   0  0  0  0  0  0  0  0  0  0  0  0
   -0.5515   -3.0129    1.4676 H   0  0  0  0  0  0  0  0  0  0  0  0
   -2.1153   -3.1266    1.4588 H   0  0  0  0  0  0  0  0  0  0  0  0
   -0.2872   -4.7176   -0.2869 H   0  0  0  0  0  0  0  0  0  0  0  0
   -1.8510   -4.7158   -0.4007 H   0  0  0  0  0  0  0  0  0  0  0  0
   -1.8644   -1.8872   -1.5563 H   0  0  0  0  0  0  0  0  0  0  0  0
   -1.2034   -1.8977   -3.2101 H   0  0  0  0  0  0  0  0  0  0  0  0
   -3.2874   -0.6545   -2.3355 H   0  0  0  0  0  0  0  0  0  0  0  0
   -3.2856   -2.0139   -3.1172 H   0  0  0  0  0  0  0  0  0  0  0  0
   -2.8066   -3.3546   -0.7201 H   0  0  0  0  0  0  0  0  0  0  0  0
   -3.9347   -3.8147    0.3142 H   0  0  0  0  0  0  0  0  0  0  0  0
   -3.3451   -5.5520   -1.4055 H   0  0  0  0  0  0  0  0  0  0  0  0
   -4.9770   -4.9986   -1.7979 H   0  0  0  0  0  0  0  0  0  0  0  0
   -5.3261   -3.7426   -3.9871 H   0  0  0  0  0  0  0  0  0  0  0  0
   -4.6744   -2.7594   -3.0673 H   0  0  0  0  0  0  0  0  0  0  0  0
   -3.6874   -2.9854   -4.5364 H   0  0  0  0  0  0  0  0  0  0  0  0
  1  2  1  0  0  0  0
  1 19  1  0  0  0  0
  1 20  1  0  0  0  0
  1 21  1  0  0  0  0
  2  3  1  0  0  0  0
  3  4  1  0  0  0  0
  3 22  1  0  0  0  0
  3 23  1  0  0  0  0
  4  5  1  0  0  0  0
  4 24  1  0  0  0  0
  4 25  1  0  0  0  0
  5  6  1  0  0  0  0
  6  7  1  0  0  0  0
  6 26  1  0  0  0  0
  6 27  1  0  0  0  0
  7  8  1  0  0  0  0
  7 28  1  0  0  0  0
  7 29  1  0  0  0  0
  8  9  1  0  0  0  0
  9 10  1  0  0  0  0
  9 30  1  0  0  0  0
  9 31  1  0  0  0  0
 10 11  1  0  0  0  0
 10 32  1  0  0  0  0
 10 33  1  0  0  0  0
 11 12  1  0  0  0  0
 12 13  1  0  0  0  0
 12 34  1  0  0  0  0
 12 35  1  0  0  0  0
 13 14  1  0  0  0  0
 13 36  1  0  0  0  0
 13 37  1  0  0  0  0
 14 15  1  0  0  0  0
 15 16  1  0  0  0  0
 15 38  1  0  0  0  0
 15 39  1  0  0  0  0
 16 17  1  0  0  0  0
 16 40  1  0  0  0  0
 16 41  1  0  0  0  0
 17 18  1  0  0  0  0
 18 42  1  0  0  0  0
 18 43  1  0  0  0  0
 18 44  1  0  0  0  0
M  END
>  <DRUGBANK_ID>
DB02580

>  <SECONDARY_ACCESSION_NUMBERS>
EXPT02566

>  <COMMON_NAME>
Pentaglyme

>  <CAS_NUMBER>
1191-87-3

>  <SYNONYMS>
pentaethyleneglycol dimethyl ether

$$$$
