
 OpenBabel10282417233D

 53 52  0  0  0  0  0  0  0  0999 V2000
    1.0532   -0.1340    0.0318 C   0  0  0  0  0  0  0  0  0  0  0  0
    0.6087   -0.4486    1.4519 C   0  0  0  0  0  0  0  0  0  0  0  0
    1.1012    0.6194    2.4326 C   0  0  0  0  0  0  0  0  0  0  0  0
    0.5536    2.0018    2.0888 C   0  0  0  0  0  0  0  0  0  0  0  0
   -0.9653    1.9889    2.0248 C   0  0  0  0  0  0  0  0  0  0  0  0
   -1.5443    1.7021    3.3795 C   0  0  0  0  0  0  0  0  0  0  0  0
   -2.3025    2.5729    4.0432 C   0  0  0  0  0  0  0  0  0  0  0  0
   -2.6676    3.8876    3.4687 C   0  0  0  0  0  0  0  0  0  0  0  0
   -4.1410    4.0147    3.4026 C   0  0  0  0  0  0  0  0  0  0  0  0
   -4.7868    4.9998    4.0216 C   0  0  0  0  0  0  0  0  0  0  0  0
   -4.0798    6.0814    4.7841 C   0  0  0  0  0  0  0  0  0  0  0  0
   -4.3332    7.4264    4.1249 C   0  0  0  0  0  0  0  0  0  0  0  0
   -5.8154    7.7771    4.1988 C   0  0  0  0  0  0  0  0  0  0  0  0
   -6.2993    7.7670    5.6551 C   0  0  0  0  0  0  0  0  0  0  0  0
   -5.5429    8.8033    6.4933 C   0  0  0  0  0  0  0  0  0  0  0  0
   -5.7711   10.2167    5.9477 C   0  0  0  0  0  0  0  0  0  0  0  0
   -7.2616   10.5872    5.9233 C   0  0  3  0  0  0  0  0  0  0  0  0
   -7.8172   10.5112    7.2301 O   0  0  0  0  0  0  0  0  0  0  0  0
   -7.4288   11.9818    5.3221 C   0  0  0  0  0  0  0  0  0  0  0  0
   -8.2001   12.0235    4.2087 O   0  0  0  0  0  0  0  0  0  0  0  0
   -6.9002   12.9932    5.7764 O   0  0  0  0  0  0  0  0  0  0  0  0
    0.6582    0.8238   -0.3236 H   0  0  0  0  0  0  0  0  0  0  0  0
    0.6982   -0.8988   -0.6611 H   0  0  0  0  0  0  0  0  0  0  0  0
    2.1448   -0.0859   -0.0139 H   0  0  0  0  0  0  0  0  0  0  0  0
   -0.4835   -0.5419    1.4799 H   0  0  0  0  0  0  0  0  0  0  0  0
    0.9880   -1.4260    1.7602 H   0  0  0  0  0  0  0  0  0  0  0  0
    0.8043    0.3430    3.4512 H   0  0  0  0  0  0  0  0  0  0  0  0
    2.1945    0.6565    2.4368 H   0  0  0  0  0  0  0  0  0  0  0  0
    0.9026    2.7438    2.8190 H   0  0  0  0  0  0  0  0  0  0  0  0
    0.9415    2.3457    1.1234 H   0  0  0  0  0  0  0  0  0  0  0  0
   -1.2495    2.9462    1.5940 H   0  0  0  0  0  0  0  0  0  0  0  0
   -1.3759    1.2697    1.3135 H   0  0  0  0  0  0  0  0  0  0  0  0
   -1.3145    0.7570    3.8648 H   0  0  0  0  0  0  0  0  0  0  0  0
   -2.6532    2.3408    5.0482 H   0  0  0  0  0  0  0  0  0  0  0  0
   -2.1345    4.6144    4.0751 H   0  0  0  0  0  0  0  0  0  0  0  0
   -2.3225    4.1034    2.4618 H   0  0  0  0  0  0  0  0  0  0  0  0
   -4.6916    3.2867    2.8084 H   0  0  0  0  0  0  0  0  0  0  0  0
   -5.8695    5.0295    3.9285 H   0  0  0  0  0  0  0  0  0  0  0  0
   -4.3898    6.0263    5.8293 H   0  0  0  0  0  0  0  0  0  0  0  0
   -2.9998    5.9831    4.8511 H   0  0  0  0  0  0  0  0  0  0  0  0
   -3.7175    8.1833    4.6249 H   0  0  0  0  0  0  0  0  0  0  0  0
   -3.9897    7.4249    3.0831 H   0  0  0  0  0  0  0  0  0  0  0  0
   -5.9820    8.7449    3.7184 H   0  0  0  0  0  0  0  0  0  0  0  0
   -6.4118    7.0744    3.6090 H   0  0  0  0  0  0  0  0  0  0  0  0
   -7.3782    7.9338    5.6807 H   0  0  0  0  0  0  0  0  0  0  0  0
   -6.1909    6.7798    6.1153 H   0  0  0  0  0  0  0  0  0  0  0  0
   -5.8513    8.7293    7.5402 H   0  0  0  0  0  0  0  0  0  0  0  0
   -4.4675    8.5894    6.5186 H   0  0  0  0  0  0  0  0  0  0  0  0
   -5.2040   10.9222    6.5638 H   0  0  0  0  0  0  0  0  0  0  0  0
   -5.3462   10.3121    4.9391 H   0  0  0  0  0  0  0  0  0  0  0  0
   -7.8250    9.8882    5.2975 H   0  0  0  0  0  0  0  0  0  0  0  0
   -7.6023    9.6467    7.6170 H   0  0  0  0  0  0  0  0  0  0  0  0
   -8.6127   11.1796    3.9443 H   0  0  0  0  0  0  0  0  0  0  0  0
  1  2  1  0  0  0  0
  1 22  1  0  0  0  0
  1 23  1  0  0  0  0
  1 24  1  0  0  0  0
  2  3  1  0  0  0  0
  2 25  1  0  0  0  0
  2 26  1  0  0  0  0
  3  4  1  0  0  0  0
  3 27  1  0  0  0  0
  3 28  1  0  0  0  0
  4  5  1  0  0  0  0
  4 29  1  0  0  0  0
  4 30  1  0  0  0  0
  5  6  1  0  0  0  0
  5 31  1  0  0  0  0
  5 32  1  0  0  0  0
  6  7  2  0  0  0  0
  6 33  1  0  0  0  0
  7  8  1  0  0  0  0
  7 34  1  0  0  0  0
  8  9  1  0  0  0  0
  8 35  1  0  0  0  0
  8 36  1  0  0  0  0
  9 10  2  0  0  0  0
  9 37  1  0  0  0  0
 10 11  1  0  0  0  0
 10 38  1  0  0  0  0
 11 12  1  0  0  0  0
 11 39  1  0  0  0  0
 11 40  1  0  0  0  0
 12 13  1  0  0  0  0
 12 41  1  0  0  0  0
 12 42  1  0  0  0  0
 13 14  1  0  0  0  0
 13 43  1  0  0  0  0
 13 44  1  0  0  0  0
 14 15  1  0  0  0  0
 14 45  1  0  0  0  0
 14 46  1  0  0  0  0
 15 16  1  0  0  0  0
 15 47  1  0  0  0  0
 15 48  1  0  0  0  0
 16 17  1  0  0  0  0
 16 49  1  0  0  0  0
 16 50  1  0  0  0  0
 17 18  1  0  0  0  0
 17 19  1  0  0  0  0
 17 51  1  0  0  0  0
 18 52  1  0  0  0  0
 19 20  1  0  0  0  0
 19 21  2  0  0  0  0
 20 53  1  0  0  0  0
M  END
>  <DRUGBANK_ID>
DB16027

>  <COMMON_NAME>
alpha-Hydroxylinoleic acid

>  <CAS_NUMBER>
57818-44-7

>  <UNII>
0DE74TJ7EZ

>  <SYNONYMS>
.ALPHA.-HYDROXYLINOLEIC ACID; (9Z,12Z)-2-HYDROXY-9,12-OCTADECADIENOIC ACID; 9,12-OCTADECADIENOIC ACID, 2-HYDROXY-, (9Z,12Z)-

$$$$
