
 OpenBabel10282417183D

126130  0  0  0  0  0  0  0  0999 V2000
    0.8311   -1.1491   -2.5559 C   0  0  1  0  0  0  0  0  0  0  0  0
    3.9640   -2.4909   -1.9851 C   0  0  2  0  0  0  0  0  0  0  0  0
    2.5502   -1.3961   -1.9471 O   0  0  0  0  0  0  0  0  0  0  0  0
   -0.7331   -1.8287   -2.0710 O   0  0  0  0  0  0  0  0  0  0  0  0
   -1.8580   -3.6723   -0.3673 O   0  0  0  0  0  0  0  0  0  0  0  0
    0.1713   -3.4565   -0.0648 C   0  0  1  0  0  0  0  0  0  0  0  0
   -0.3448   -3.8113    1.7987 C   0  0  0  0  0  0  0  0  0  0  0  0
   -1.2889   -1.8476   -0.3633 C   0  0  2  0  0  0  0  0  0  0  0  0
   -2.1661   -5.0275    1.1671 C   0  0  1  0  0  0  0  0  0  0  0  0
    5.4548   -2.2995   -2.3511 O   0  0  0  0  0  0  0  0  0  0  0  0
   -1.3181   -3.3420    0.9624 C   0  0  1  0  0  0  0  0  0  0  0  0
    0.8448   -2.6468   -0.9772 C   0  0  2  0  0  0  0  0  0  0  0  0
    1.2938   -5.0437    1.4925 C   0  0  2  0  0  0  0  0  0  0  0  0
   -1.3767   -6.8681    0.7581 C   0  0  2  0  0  0  0  0  0  0  0  0
    5.6851   -1.0234   -1.9058 C   0  0  2  0  0  0  0  0  0  0  0  0
    0.5190   -6.8567    1.6424 C   0  0  2  0  0  0  0  0  0  0  0  0
    6.3669   -0.7616   -4.2931 O   0  0  0  0  0  0  0  0  0  0  0  0
    1.3156   -1.6066   -3.8876 C   0  0  0  0  0  0  0  0  0  0  0  0
    2.0385   -3.2643   -1.0446 C   0  0  0  0  0  0  0  0  0  0  0  0
    6.6034   -0.3189   -2.8754 C   0  0  2  0  0  0  0  0  0  0  0  0
    1.0999   -2.8420    1.7413 C   0  0  2  0  0  0  0  0  0  0  0  0
   -1.3967   -4.7463    3.0061 C   0  0  2  0  0  0  0  0  0  0  0  0
   -1.6933   -0.4584   -0.1273 C   0  0  2  0  0  0  0  0  0  0  0  0
    0.2919    0.5525   -1.9775 C   0  0  1  0  0  0  0  0  0  0  0  0
    2.5456   -2.1316   -4.1879 C   0  0  0  0  0  0  0  0  0  0  0  0
    8.5070   -1.9108   -4.3914 C   0  0  1  0  0  0  0  0  0  0  0  0
    7.0572   -1.9894   -4.7260 C   0  0  2  0  0  0  0  0  0  0  0  0
    0.6143   -4.2275    3.2793 C   0  0  0  0  0  0  0  0  0  0  0  0
    3.7509   -2.7383   -3.4148 C   0  0  1  0  0  0  0  0  0  0  0  0
   -0.5017    0.7141   -0.2253 C   0  0  0  0  0  0  0  0  0  0  0  0
    4.7369   -2.8727   -0.5993 C   0  0  0  0  0  0  0  0  0  0  0  0
   -0.6219   -3.0284    2.8492 O   0  0  0  0  0  0  0  0  0  0  0  0
    5.3916   -1.4428   -0.4140 C   0  0  0  0  0  0  0  0  0  0  0  0
    2.6828   -2.7752   -0.1485 O   0  0  0  0  0  0  0  0  0  0  0  0
    8.6341   -1.6303   -2.8967 C   0  0  0  0  0  0  0  0  0  0  0  0
    8.0242   -0.3077   -2.5112 C   0  0  0  0  0  0  0  0  0  0  0  0
    0.7072   -7.5214    2.8425 O   0  0  0  0  0  0  0  0  0  0  0  0
    2.0044   -3.9691   -2.1703 O   0  0  0  0  0  0  0  0  0  0  0  0
    9.2672   -3.0952   -4.6763 O   0  0  0  0  0  0  0  0  0  0  0  0
    1.1380   -1.1518   -0.3816 C   0  0  0  0  0  0  0  0  0  0  0  0
    4.7055   -2.8016   -4.3983 O   0  0  0  0  0  0  0  0  0  0  0  0
   -1.2052   -5.0430   -0.3685 C   0  0  0  0  0  0  0  0  0  0  0  0
    2.6969   -4.9143    2.2897 C   0  0  0  0  0  0  0  0  0  0  0  0
   -0.9786   -6.9620   -1.2872 C   0  0  0  0  0  0  0  0  0  0  0  0
    4.5482   -0.2114   -2.4102 C   0  0  0  0  0  0  0  0  0  0  0  0
    9.0089   -0.7095   -5.1895 C   0  0  0  0  0  0  0  0  0  0  0  0
    0.1169   -1.3306    2.2612 C   0  0  0  0  0  0  0  0  0  0  0  0
   -2.7832   -0.6739    0.8504 C   0  0  0  0  0  0  0  0  0  0  0  0
   -1.6004   -5.7954    3.9143 C   0  0  0  0  0  0  0  0  0  0  0  0
    1.3292    0.9839   -2.9816 C   0  0  0  0  0  0  0  0  0  0  0  0
    6.8175   -2.3007   -6.2120 C   0  0  0  0  0  0  0  0  0  0  0  0
    2.0831    0.0847   -0.3265 C   0  0  0  0  0  0  0  0  0  0  0  0
   -0.0296   -5.7754    0.0563 C   0  0  0  0  0  0  0  0  0  0  0  0
   10.4841   -0.5489   -5.0406 C   0  0  0  0  0  0  0  0  0  0  0  0
    6.2900    0.7430   -2.8450 H   0  0  0  0  0  0  0  0  0  0  0  0
   -3.2477   -5.0902    1.2975 H   0  0  0  0  0  0  0  0  0  0  0  0
   -0.4849   -1.7854    0.2614 H   0  0  0  0  0  0  0  0  0  0  0  0
    0.6354   -4.3051   -0.5656 H   0  0  0  0  0  0  0  0  0  0  0  0
   -2.3063   -3.0631    1.4343 H   0  0  0  0  0  0  0  0  0  0  0  0
    0.2557   -3.1545   -1.7688 H   0  0  0  0  0  0  0  0  0  0  0  0
    1.9111   -4.9118    0.5254 H   0  0  0  0  0  0  0  0  0  0  0  0
   -1.8753   -7.7360    1.1556 H   0  0  0  0  0  0  0  0  0  0  0  0
    1.3036   -7.3612    0.9476 H   0  0  0  0  0  0  0  0  0  0  0  0
    0.6833   -1.1443   -4.6123 H   0  0  0  0  0  0  0  0  0  0  0  0
    2.1510   -2.5350    1.6719 H   0  0  0  0  0  0  0  0  0  0  0  0
   -2.0902   -3.8667    3.2845 H   0  0  0  0  0  0  0  0  0  0  0  0
   -2.1948   -0.3987   -1.0652 H   0  0  0  0  0  0  0  0  0  0  0  0
   -0.4351    1.2563   -2.3620 H   0  0  0  0  0  0  0  0  0  0  0  0
    2.8488   -1.8442   -5.1889 H   0  0  0  0  0  0  0  0  0  0  0  0
    6.7163   -2.8633   -4.1736 H   0  0  0  0  0  0  0  0  0  0  0  0
    1.0177   -3.7774    4.1741 H   0  0  0  0  0  0  0  0  0  0  0  0
    0.8760   -5.2731    3.2188 H   0  0  0  0  0  0  0  0  0  0  0  0
    3.9988   -3.7259   -3.0878 H   0  0  0  0  0  0  0  0  0  0  0  0
   -0.4957    1.5136    0.5618 H   0  0  0  0  0  0  0  0  0  0  0  0
    0.2767    0.4633    0.5181 H   0  0  0  0  0  0  0  0  0  0  0  0
    5.4573   -3.6253   -0.2316 H   0  0  0  0  0  0  0  0  0  0  0  0
    4.0994   -3.6108   -0.0786 H   0  0  0  0  0  0  0  0  0  0  0  0
    6.2542   -1.3007    0.2115 H   0  0  0  0  0  0  0  0  0  0  0  0
    4.6038   -0.8382    0.0236 H   0  0  0  0  0  0  0  0  0  0  0  0
    9.6857   -1.6197   -2.6461 H   0  0  0  0  0  0  0  0  0  0  0  0
    8.1711   -2.4401   -2.3182 H   0  0  0  0  0  0  0  0  0  0  0  0
    8.4686    0.5418   -3.0377 H   0  0  0  0  0  0  0  0  0  0  0  0
    8.1149   -0.0886   -1.4538 H   0  0  0  0  0  0  0  0  0  0  0  0
    0.7518   -6.9295    3.6052 H   0  0  0  0  0  0  0  0  0  0  0  0
    2.5652   -4.1315   -2.9290 H   0  0  0  0  0  0  0  0  0  0  0  0
    8.7691   -3.8990   -4.9161 H   0  0  0  0  0  0  0  0  0  0  0  0
    0.2604   -0.8148   -0.7931 H   0  0  0  0  0  0  0  0  0  0  0  0
    1.0340   -1.1847    0.6253 H   0  0  0  0  0  0  0  0  0  0  0  0
    5.1883   -2.0021   -4.1125 H   0  0  0  0  0  0  0  0  0  0  0  0
   -2.5633   -5.3414   -0.5085 H   0  0  0  0  0  0  0  0  0  0  0  0
   -1.3713   -4.8123   -1.5429 H   0  0  0  0  0  0  0  0  0  0  0  0
    3.4084   -5.6347    1.9136 H   0  0  0  0  0  0  0  0  0  0  0  0
    3.1167   -3.9012    2.2610 H   0  0  0  0  0  0  0  0  0  0  0  0
    2.6006   -5.1146    3.3483 H   0  0  0  0  0  0  0  0  0  0  0  0
    0.0114   -7.4507   -1.5825 H   0  0  0  0  0  0  0  0  0  0  0  0
   -1.7833   -6.6558   -1.9383 H   0  0  0  0  0  0  0  0  0  0  0  0
   -0.1929   -5.9252   -1.7951 H   0  0  0  0  0  0  0  0  0  0  0  0
    3.9597   -0.4898   -1.6166 H   0  0  0  0  0  0  0  0  0  0  0  0
    4.3658    0.8041   -2.1733 H   0  0  0  0  0  0  0  0  0  0  0  0
    4.1817   -0.4522   -3.4172 H   0  0  0  0  0  0  0  0  0  0  0  0
    8.7618   -0.7911   -6.2458 H   0  0  0  0  0  0  0  0  0  0  0  0
    8.4940    0.2104   -4.8985 H   0  0  0  0  0  0  0  0  0  0  0  0
    0.2626   -1.0948    3.2821 H   0  0  0  0  0  0  0  0  0  0  0  0
   -0.2063   -0.5368    1.6549 H   0  0  0  0  0  0  0  0  0  0  0  0
   -0.9722   -1.5572    2.1810 H   0  0  0  0  0  0  0  0  0  0  0  0
   -3.3635    0.2128    0.7745 H   0  0  0  0  0  0  0  0  0  0  0  0
   -3.3148   -1.5565    0.4321 H   0  0  0  0  0  0  0  0  0  0  0  0
   -2.5652   -0.9209    1.8896 H   0  0  0  0  0  0  0  0  0  0  0  0
   -0.6867   -6.2759    3.7902 H   0  0  0  0  0  0  0  0  0  0  0  0
   -1.5680   -5.2491    4.8470 H   0  0  0  0  0  0  0  0  0  0  0  0
   -2.3996   -6.3517    3.4682 H   0  0  0  0  0  0  0  0  0  0  0  0
    1.7576    1.9353   -2.8462 H   0  0  0  0  0  0  0  0  0  0  0  0
    2.2270    0.3572   -3.0992 H   0  0  0  0  0  0  0  0  0  0  0  0
    0.7698    0.7889   -3.9169 H   0  0  0  0  0  0  0  0  0  0  0  0
    7.7735   -2.3887   -6.7316 H   0  0  0  0  0  0  0  0  0  0  0  0
    6.3665   -3.2917   -6.3336 H   0  0  0  0  0  0  0  0  0  0  0  0
    6.2053   -1.5515   -6.7197 H   0  0  0  0  0  0  0  0  0  0  0  0
    2.4392    0.4182   -1.2623 H   0  0  0  0  0  0  0  0  0  0  0  0
    1.7311    1.1043   -0.0665 H   0  0  0  0  0  0  0  0  0  0  0  0
    2.8317   -0.2498    0.3350 H   0  0  0  0  0  0  0  0  0  0  0  0
   -0.3219   -5.4985    1.1174 H   0  0  0  0  0  0  0  0  0  0  0  0
    0.1179   -7.0335   -0.0207 H   0  0  0  0  0  0  0  0  0  0  0  0
    0.9183   -5.8352   -0.3887 H   0  0  0  0  0  0  0  0  0  0  0  0
   10.9804   -1.4419   -5.4221 H   0  0  0  0  0  0  0  0  0  0  0  0
   10.7890    0.3228   -5.6112 H   0  0  0  0  0  0  0  0  0  0  0  0
   10.7617   -0.3981   -3.9959 H   0  0  0  0  0  0  0  0  0  0  0  0
  1  3  1  6  0  0  0
  1 18  1  0  0  0  0
  2  3  1  1  0  0  0
  2 31  1  0  0  0  0
  2 29  1  0  0  0  0
  4  1  1  0  0  0  0
  6  5  1  0  0  0  0
  6 21  1  0  0  0  0
  6 58  1  6  0  0  0
  6 12  1  0  0  0  0
  8  4  1  0  0  0  0
  8 23  1  0  0  0  0
  8 57  1  1  0  0  0
  9  5  1  0  0  0  0
  9 14  1  0  0  0  0
  9 56  1  1  0  0  0
 10  2  1  0  0  0  0
 11 59  1  1  0  0  0
 11  8  1  0  0  0  0
 11 42  1  0  0  0  0
 11  7  1  0  0  0  0
 12 60  1  6  0  0  0
 12 40  1  0  0  0  0
 12 19  1  0  0  0  0
 13 43  1  0  0  0  0
 13 61  1  6  0  0  0
 13 16  1  0  0  0  0
 13  7  1  0  0  0  0
 14 44  1  0  0  0  0
 14 62  1  1  0  0  0
 15 10  1  0  0  0  0
 15 33  1  0  0  0  0
 15 45  1  6  0  0  0
 16 63  1  6  0  0  0
 16 37  1  0  0  0  0
 16 14  1  0  0  0  0
 18 64  1  0  0  0  0
 20 17  1  0  0  0  0
 20 55  1  1  0  0  0
 20 15  1  0  0  0  0
 21 28  1  0  0  0  0
 21 47  1  0  0  0  0
 21 65  1  6  0  0  0
 22  9  1  0  0  0  0
 22 66  1  1  0  0  0
 22 49  1  0  0  0  0
 23 30  1  0  0  0  0
 23 48  1  0  0  0  0
 23 67  1  6  0  0  0
 24  1  1  0  0  0  0
 24 68  1  6  0  0  0
 24 50  1  0  0  0  0
 25 18  2  0  0  0  0
 25 69  1  0  0  0  0
 26 35  1  0  0  0  0
 26 46  1  0  0  0  0
 26 39  1  6  0  0  0
 27 17  1  0  0  0  0
 27 26  1  0  0  0  0
 27 70  1  1  0  0  0
 27 51  1  0  0  0  0
 28 22  1  0  0  0  0
 28 71  1  0  0  0  0
 28 72  1  0  0  0  0
 29 25  1  0  0  0  0
 29 41  1  0  0  0  0
 29 73  1  1  0  0  0
 30 24  1  0  0  0  0
 30 74  1  0  0  0  0
 30 75  1  0  0  0  0
 31 76  1  0  0  0  0
 31 77  1  0  0  0  0
 32  7  2  0  0  0  0
 33 31  1  0  0  0  0
 33 78  1  0  0  0  0
 33 79  1  0  0  0  0
 34 19  2  0  0  0  0
 35 36  1  0  0  0  0
 35 80  1  0  0  0  0
 35 81  1  0  0  0  0
 36 20  1  0  0  0  0
 36 82  1  0  0  0  0
 36 83  1  0  0  0  0
 37 84  1  0  0  0  0
 38 19  1  0  0  0  0
 38 85  1  0  0  0  0
 39 86  1  0  0  0  0
 40 87  1  0  0  0  0
 40 88  1  0  0  0  0
 41 89  1  0  0  0  0
 42 90  1  0  0  0  0
 42 91  1  0  0  0  0
 43 92  1  0  0  0  0
 43 93  1  0  0  0  0
 43 94  1  0  0  0  0
 44 95  1  0  0  0  0
 44 96  1  0  0  0  0
 44 97  1  0  0  0  0
 45 98  1  0  0  0  0
 45 99  1  0  0  0  0
 45100  1  0  0  0  0
 46101  1  0  0  0  0
 46102  1  0  0  0  0
 47103  1  0  0  0  0
 47104  1  0  0  0  0
 47105  1  0  0  0  0
 48106  1  0  0  0  0
 48107  1  0  0  0  0
 48108  1  0  0  0  0
 49109  1  0  0  0  0
 49110  1  0  0  0  0
 49111  1  0  0  0  0
 50112  1  0  0  0  0
 50113  1  0  0  0  0
 50114  1  0  0  0  0
 51115  1  0  0  0  0
 51116  1  0  0  0  0
 51117  1  0  0  0  0
 52 40  1  0  0  0  0
 52118  1  0  0  0  0
 52119  1  0  0  0  0
 52120  1  0  0  0  0
 53 42  1  0  0  0  0
 53121  1  0  0  0  0
 53122  1  0  0  0  0
 53123  1  0  0  0  0
 54 46  1  0  0  0  0
 54124  1  0  0  0  0
 54125  1  0  0  0  0
 54126  1  0  0  0  0
M  END
>  <DRUGBANK_ID>
DB11432

>  <COMMON_NAME>
Narasin

>  <CAS_NUMBER>
55134-13-9

>  <UNII>
DZY9VU539P

>  <SYNONYMS>
Narasin; Narasin A; Narasine; Narasino; Narasinum

$$$$
