279
 OpenBabel10282417163D

 50 52  0  0  0  0  0  0  0  0999 V2000
   -0.0803    1.0250   -0.0718 C   0  0  0  0  0  0  0  0  0  0  0  0
   -1.4466    0.9581   -0.0006 C   0  0  0  0  0  0  0  0  0  0  0  0
    0.2273   -1.2604    0.0250 C   0  0  0  0  0  0  0  0  0  0  0  0
   -0.9407   -6.5936   -2.1375 C   0  0  0  0  0  0  0  0  0  0  0  0
    0.8586   -0.0138   -0.0295 C   0  0  0  0  0  0  0  0  0  0  0  0
   -1.8566   -5.8895   -2.9042 C   0  0  0  0  0  0  0  0  0  0  0  0
   -2.0381   -0.2535    0.0288 C   0  0  0  0  0  0  0  0  0  0  0  0
   -2.1046   -4.6543   -2.1889 C   0  0  0  0  0  0  0  0  0  0  0  0
   -1.2089   -1.3903    0.0539 C   0  0  0  0  0  0  0  0  0  0  0  0
   -1.3536   -4.7040   -1.0237 C   0  0  0  0  0  0  0  0  0  0  0  0
    0.3642   -5.3326    0.8938 C   0  0  0  0  0  0  0  0  0  0  0  0
   -1.1637   -3.8171    0.0842 C   0  0  0  0  0  0  0  0  0  0  0  0
    2.4225    0.0404   -0.0350 C   0  0  0  0  0  0  0  0  0  0  0  0
   -2.4930   -6.2446   -4.1895 C   0  0  0  0  0  0  0  0  0  0  0  0
   -3.5258   -0.1811   -0.0193 C   0  0  0  0  0  0  0  0  0  0  0  0
   -3.0112   -3.5755   -2.6785 C   0  0  0  0  0  0  0  0  0  0  0  0
   -1.6868   -8.1334   -7.0596 C   0  0  0  0  0  0  0  0  0  0  0  0
    1.8331    2.8474    0.0961 C   0  0  0  0  0  0  0  0  0  0  0  0
   -2.7465   -7.9012   -5.9993 C   0  0  0  0  0  0  0  0  0  0  0  0
    0.2466   -6.2067   -0.0564 N   0  0  0  0  0  0  0  0  0  0  0  0
   -0.3108   -4.1540    1.0051 N   0  0  0  0  0  0  0  0  0  0  0  0
   -0.6312   -5.8571   -1.0189 N   0  0  0  0  0  0  0  0  0  0  0  0
   -1.8414   -2.6399    0.2244 N   0  0  0  0  0  0  0  0  0  0  0  0
   -2.1561   -7.4688   -4.7422 N   0  0  0  0  0  0  0  0  0  0  0  0
    3.2853    1.1274   -0.0053 N   0  0  0  0  0  0  0  0  0  0  0  0
    3.0080   -1.0543   -0.0654 O   0  0  0  0  0  0  0  0  0  0  0  0
   -3.2826   -5.4986   -4.7338 O   0  0  0  0  0  0  0  0  0  0  0  0
    3.1695    2.5237    0.1065 O   0  0  0  0  0  0  0  0  0  0  0  0
    0.0324    2.0730   -0.1770 H   0  0  0  0  0  0  0  0  0  0  0  0
   -2.0029    1.8949   -0.0030 H   0  0  0  0  0  0  0  0  0  0  0  0
    0.8549   -2.1534    0.0350 H   0  0  0  0  0  0  0  0  0  0  0  0
   -0.4636   -7.5530   -2.2740 H   0  0  0  0  0  0  0  0  0  0  0  0
    1.0661   -5.5292    1.7235 H   0  0  0  0  0  0  0  0  0  0  0  0
   -3.8837   -0.6249   -0.9486 H   0  0  0  0  0  0  0  0  0  0  0  0
   -3.9521   -0.6325    0.8728 H   0  0  0  0  0  0  0  0  0  0  0  0
   -3.8614    0.8696   -0.0380 H   0  0  0  0  0  0  0  0  0  0  0  0
   -2.6832   -3.2157   -3.6591 H   0  0  0  0  0  0  0  0  0  0  0  0
   -4.0339   -3.9569   -2.7614 H   0  0  0  0  0  0  0  0  0  0  0  0
   -3.0450   -2.7048   -2.0301 H   0  0  0  0  0  0  0  0  0  0  0  0
   -0.9928   -8.9208   -6.7503 H   0  0  0  0  0  0  0  0  0  0  0  0
   -2.1498   -8.4363   -8.0046 H   0  0  0  0  0  0  0  0  0  0  0  0
   -1.1073   -7.2221   -7.2396 H   0  0  0  0  0  0  0  0  0  0  0  0
    1.5220    2.4810   -0.8972 H   0  0  0  0  0  0  0  0  0  0  0  0
    1.4356    2.3673    1.0077 H   0  0  0  0  0  0  0  0  0  0  0  0
    1.4513    3.8676    0.1337 H   0  0  0  0  0  0  0  0  0  0  0  0
   -3.2996   -8.8264   -5.8081 H   0  0  0  0  0  0  0  0  0  0  0  0
   -3.4646   -7.1612   -6.3695 H   0  0  0  0  0  0  0  0  0  0  0  0
   -2.7924   -2.6309   -0.1111 H   0  0  0  0  0  0  0  0  0  0  0  0
   -1.5208   -8.0817   -4.2571 H   0  0  0  0  0  0  0  0  0  0  0  0
    4.2688    0.8693   -0.0273 H   0  0  0  0  0  0  0  0  0  0  0  0
  1  5  2  0  0  0  0
  1  2  1  0  0  0  0
  1 29  1  0  0  0  0
  2  7  2  0  0  0  0
  2 30  1  0  0  0  0
  3  9  2  0  0  0  0
  3 31  1  0  0  0  0
  4 32  1  0  0  0  0
  5  3  1  0  0  0  0
  6 14  1  0  0  0  0
  6  4  2  0  0  0  0
  7  9  1  0  0  0  0
  7 15  1  0  0  0  0
  8  6  1  0  0  0  0
  9 23  1  0  0  0  0
 10  8  2  0  0  0  0
 10 22  1  0  0  0  0
 11 20  2  0  0  0  0
 11 33  1  0  0  0  0
 12 21  2  0  0  0  0
 12 10  1  0  0  0  0
 13 26  2  0  0  0  0
 13  5  1  0  0  0  0
 14 24  1  0  0  0  0
 15 34  1  0  0  0  0
 15 35  1  0  0  0  0
 15 36  1  0  0  0  0
 16  8  1  0  0  0  0
 16 37  1  0  0  0  0
 16 38  1  0  0  0  0
 16 39  1  0  0  0  0
 17 19  1  0  0  0  0
 17 40  1  0  0  0  0
 17 41  1  0  0  0  0
 17 42  1  0  0  0  0
 18 28  1  0  0  0  0
 18 43  1  0  0  0  0
 18 44  1  0  0  0  0
 18 45  1  0  0  0  0
 19 46  1  0  0  0  0
 19 47  1  0  0  0  0
 21 11  1  0  0  0  0
 22 20  1  0  0  0  0
 22  4  1  0  0  0  0
 23 12  1  0  0  0  0
 23 48  1  0  0  0  0
 24 19  1  0  0  0  0
 24 49  1  0  0  0  0
 25 13  1  0  0  0  0
 25 50  1  0  0  0  0
 27 14  2  0  0  0  0
 28 25  1  0  0  0  0
M  END
>  <DRUGBANK_ID>
DB06940

>  <COMMON_NAME>
N-ethyl-4-{[5-(methoxycarbamoyl)-2-methylphenyl]amino}-5-methylpyrrolo[2,1-f][1,2,4]triazine-6-carboxamide

$$$$
