
 OpenBabel10282417113D

  8  7  0  0  0  0  0  0  0  0999 V2000
    1.0298   -0.0239    0.1022 F   0  0  0  0  0  0  0  0  0  0  0  0
    2.2565    2.8187   -0.5220 Br  0  0  0  0  0  0  0  0  0  0  0  0
    4.6859    1.0660   -0.9908 Cl  0  0  0  0  0  0  0  0  0  0  0  0
    2.7899    0.2795    1.3573 F   0  0  0  0  0  0  0  0  0  0  0  0
    2.3852    0.0124    0.0960 C   0  0  0  0  0  0  0  0  0  0  0  0
    2.7995   -1.2432   -0.2053 F   0  0  0  0  0  0  0  0  0  0  0  0
    2.9051    1.0169   -0.9194 C   0  0  3  0  0  0  0  0  0  0  0  0
    2.5362    0.7800   -1.9210 H   0  0  0  0  0  0  0  0  0  0  0  0
  1  5  1  0  0  0  0
  2  7  1  0  0  0  0
  3  7  1  0  0  0  0
  4  5  1  0  0  0  0
  5  6  1  0  0  0  0
  7  5  1  0  0  0  0
  7  8  1  0  0  0  0
M  END
>  <DRUGBANK_ID>
DB01159

>  <SECONDARY_ACCESSION_NUMBERS>
APRD00598; EXPT01754; DB02330

>  <COMMON_NAME>
Halothane

>  <CAS_NUMBER>
151-67-7

>  <UNII>
UQT9G45D1P

>  <SYNONYMS>
1-bromo-1-chloro-2,2,2-trifluoroethane; 1,1,1-trifluoro-2-bromo-2-chloroethane; 1,1,1-trifluoro-2-chloro-2-bromoethane; 2-bromo-2-chloro-1,1,1-trifluoroethane; 2,2,2-trifluoro-1-chloro-1-bromoethane; Alotano; Bromochlorotrifluoroethane; Halotano; Halothane; Halothanum

$$$$
