
 OpenBabel10282417203D

 28 29  0  0  0  0  0  0  0  0999 V2000
    0.9317    0.0699    0.0017 C   0  0  0  0  0  0  0  0  0  0  0  0
    0.4059    1.3586    0.4112 N   0  0  0  0  0  0  0  0  0  0  0  0
   -0.7917    1.6087    1.0792 C   0  0  0  0  0  0  0  0  0  0  0  0
   -1.4312    0.7913    1.7212 O   0  0  0  0  0  0  0  0  0  0  0  0
   -1.1255    2.9587    0.8628 N   0  0  0  0  0  0  0  0  0  0  0  0
   -0.1791    3.5848   -0.0495 C   0  0  2  0  0  0  0  0  0  0  0  0
    1.0056    2.6032    0.0497 C   0  0  1  0  0  0  0  0  0  0  0  0
    1.8175    3.2123    1.0896 N   0  0  0  0  0  0  0  0  0  0  0  0
    1.5262    4.5810    1.1720 C   0  0  0  0  0  0  0  0  0  0  0  0
    2.1510    5.4092    1.8213 O   0  0  0  0  0  0  0  0  0  0  0  0
    0.3921    4.8294    0.3972 N   0  0  0  0  0  0  0  0  0  0  0  0
   -0.2046    6.1305    0.1732 C   0  0  0  0  0  0  0  0  0  0  0  0
    2.4258    2.4833    2.1842 C   0  0  0  0  0  0  0  0  0  0  0  0
   -2.3135    3.6097    1.3601 C   0  0  0  0  0  0  0  0  0  0  0  0
    0.5969   -0.1422   -1.0205 H   0  0  0  0  0  0  0  0  0  0  0  0
    0.5656   -0.7244    0.6563 H   0  0  0  0  0  0  0  0  0  0  0  0
    2.0263    0.0838    0.0086 H   0  0  0  0  0  0  0  0  0  0  0  0
   -0.6021    3.6467   -1.0587 H   0  0  0  0  0  0  0  0  0  0  0  0
    1.6130    2.5455   -0.8591 H   0  0  0  0  0  0  0  0  0  0  0  0
   -0.2293    6.3371   -0.9013 H   0  0  0  0  0  0  0  0  0  0  0  0
   -1.2258    6.1559    0.5608 H   0  0  0  0  0  0  0  0  0  0  0  0
    0.3779    6.9129    0.6688 H   0  0  0  0  0  0  0  0  0  0  0  0
    3.4527    2.8305    2.3090 H   0  0  0  0  0  0  0  0  0  0  0  0
    1.8752    2.6742    3.1134 H   0  0  0  0  0  0  0  0  0  0  0  0
    2.4305    1.4082    1.9914 H   0  0  0  0  0  0  0  0  0  0  0  0
   -2.0227    4.5043    1.9166 H   0  0  0  0  0  0  0  0  0  0  0  0
   -2.9529    3.8955    0.5200 H   0  0  0  0  0  0  0  0  0  0  0  0
   -2.8695    2.9492    2.0303 H   0  0  0  0  0  0  0  0  0  0  0  0
  1  2  1  0  0  0  0
  1 15  1  0  0  0  0
  1 16  1  0  0  0  0
  1 17  1  0  0  0  0
  2  3  1  0  0  0  0
  3  4  2  0  0  0  0
  3  5  1  0  0  0  0
  5 14  1  0  0  0  0
  6  5  1  0  0  0  0
  6  7  1  0  0  0  0
  6 11  1  0  0  0  0
  6 18  1  6  0  0  0
  7  2  1  0  0  0  0
  7  8  1  0  0  0  0
  7 19  1  6  0  0  0
  8  9  1  0  0  0  0
  8 13  1  0  0  0  0
  9 10  2  0  0  0  0
  9 11  1  0  0  0  0
 11 12  1  0  0  0  0
 12 20  1  0  0  0  0
 12 21  1  0  0  0  0
 12 22  1  0  0  0  0
 13 23  1  0  0  0  0
 13 24  1  0  0  0  0
 13 25  1  0  0  0  0
 14 26  1  0  0  0  0
 14 27  1  0  0  0  0
 14 28  1  0  0  0  0
M  END
>  <DRUGBANK_ID>
DB13522

>  <COMMON_NAME>
Mebicar

>  <CAS_NUMBER>
10095-06-4

>  <UNII>
55FE6NPG89

>  <SYNONYMS>
Tetramethylglycoluril

$$$$
