
 OpenBabel10282417213D

 31 32  0  0  1  0  0  0  0  0999 V2000
   -0.8737    0.3243   -0.0099 C   0  0  0  0  0  0  0  0  0  0  0  0
   -0.6057   -0.3952   -1.3382 C   0  0  1  0  0  0  0  0  0  0  0  0
   -0.4831   -1.9340   -1.0932 C   0  0  1  0  0  0  0  0  0  0  0  0
   -0.0411   -2.6250   -2.3765 C   0  0  0  0  0  0  0  0  0  0  0  0
    0.2194   -1.5229   -3.4152 C   0  0  1  0  0  0  0  0  0  0  0  0
   -1.1045   -0.7396   -3.6867 C   0  0  0  0  0  0  0  0  0  0  0  0
   -1.7042   -0.1865   -2.3930 C   0  0  2  0  0  0  0  0  0  0  0  0
   -2.1221    1.1485   -2.6679 O   0  0  0  0  0  0  0  0  0  0  0  0
    1.4792   -0.7571   -2.7587 C   0  0  0  0  0  0  0  0  0  0  0  0
    0.5760    0.1448   -1.9738 O   0  0  0  0  0  0  0  0  0  0  0  0
    2.2969   -0.8124   -4.1718 C   0  0  0  0  0  0  0  0  0  0  0  0
    2.4358    0.4950   -2.4717 C   0  0  0  0  0  0  0  0  0  0  0  0
    0.4465   -2.2461   -0.0575 O   0  0  0  0  0  0  0  0  0  0  0  0
   -1.5488   -0.2687    0.6201 H   0  0  0  0  0  0  0  0  0  0  0  0
   -1.3307    1.3077   -0.1449 H   0  0  0  0  0  0  0  0  0  0  0  0
    0.0505    0.4870    0.5586 H   0  0  0  0  0  0  0  0  0  0  0  0
   -1.4493   -2.3499   -0.7805 H   0  0  0  0  0  0  0  0  0  0  0  0
   -0.8044   -3.3172   -2.7527 H   0  0  0  0  0  0  0  0  0  0  0  0
    0.8680   -3.2200   -2.2177 H   0  0  0  0  0  0  0  0  0  0  0  0
    0.4037   -2.0803   -4.3384 H   0  0  0  0  0  0  0  0  0  0  0  0
   -0.9222    0.0308   -4.4454 H   0  0  0  0  0  0  0  0  0  0  0  0
   -1.8671   -1.4044   -4.1138 H   0  0  0  0  0  0  0  0  0  0  0  0
   -2.5939   -0.7404   -2.0790 H   0  0  0  0  0  0  0  0  0  0  0  0
   -2.7082    1.4623   -1.9512 H   0  0  0  0  0  0  0  0  0  0  0  0
    3.3122   -1.1953   -3.9544 H   0  0  0  0  0  0  0  0  0  0  0  0
    1.9973   -1.5553   -4.9185 H   0  0  0  0  0  0  0  0  0  0  0  0
    2.3602    0.1331   -4.7243 H   0  0  0  0  0  0  0  0  0  0  0  0
    3.5009    0.3510   -2.7119 H   0  0  0  0  0  0  0  0  0  0  0  0
    2.0986    1.4065   -3.0005 H   0  0  0  0  0  0  0  0  0  0  0  0
    2.4983    0.7498   -1.4004 H   0  0  0  0  0  0  0  0  0  0  0  0
    0.9827   -1.4505    0.1073 H   0  0  0  0  0  0  0  0  0  0  0  0
  1 14  1  0  0  0  0
  1 15  1  0  0  0  0
  1 16  1  0  0  0  0
  2  3  1  0  0  0  0
  2  7  1  0  0  0  0
  2 10  1  0  0  0  0
  2  1  1  1  0  0  0
  3  4  1  0  0  0  0
  3 17  1  1  0  0  0
  3 13  1  0  0  0  0
  4 18  1  0  0  0  0
  4 19  1  0  0  0  0
  5  4  1  0  0  0  0
  5  6  1  0  0  0  0
  5  9  1  0  0  0  0
  5 20  1  6  0  0  0
  6  7  1  0  0  0  0
  6 21  1  0  0  0  0
  6 22  1  0  0  0  0
  7  8  1  0  0  0  0
  7 23  1  1  0  0  0
  8 24  1  0  0  0  0
  9 10  1  0  0  0  0
  9 11  1  0  0  0  0
  9 12  1  0  0  0  0
 11 25  1  0  0  0  0
 11 26  1  0  0  0  0
 11 27  1  0  0  0  0
 12 28  1  0  0  0  0
 12 29  1  0  0  0  0
 12 30  1  0  0  0  0
 13 31  1  0  0  0  0
M  END
>  <DRUGBANK_ID>
DB13802

>  <COMMON_NAME>
Epomediol

>  <CAS_NUMBER>
1310101-21-3

>  <UNII>
KFU4XSK3BK

$$$$
