
 OpenBabel10282417133D

 24 24  0  0  0  0  0  0  0  0999 V2000
    0.7076    1.2738   -0.2217 C   0  0  2  0  0  0  0  0  0  0  0  0
    0.7213    1.3502   -1.6644 O   0  0  0  0  0  0  0  0  0  0  0  0
    1.4633    0.0206    0.2337 C   0  0  2  0  0  0  0  0  0  0  0  0
    2.7828    0.0228   -0.3094 O   0  0  0  0  0  0  0  0  0  0  0  0
    0.7133   -1.2665   -0.1622 C   0  0  2  0  0  0  0  0  0  0  0  0
   -1.3731   -0.1186   -0.2237 C   0  0  3  0  0  0  0  0  0  0  0  0
   -1.4767   -0.2405   -1.6400 O   0  0  0  0  0  0  0  0  0  0  0  0
   -1.4286    2.3505   -0.3377 O   0  0  0  0  0  0  0  0  0  0  0  0
   -0.6378   -1.2208    0.3280 O   0  0  0  0  0  0  0  0  0  0  0  0
   -0.7501    1.2243    0.2367 C   0  0  2  0  0  0  0  0  0  0  0  0
    1.5003   -2.5010    0.3326 C   0  0  0  0  0  0  0  0  0  0  0  0
    0.7047   -3.4966    0.9543 O   0  0  0  0  0  0  0  0  0  0  0  0
    1.2082    2.1817    0.1337 H   0  0  0  0  0  0  0  0  0  0  0  0
    0.0013    1.9871   -1.8810 H   0  0  0  0  0  0  0  0  0  0  0  0
    1.5474    0.0543    1.3277 H   0  0  0  0  0  0  0  0  0  0  0  0
    2.6826    0.1685   -1.2712 H   0  0  0  0  0  0  0  0  0  0  0  0
    0.6906   -1.3578   -1.2560 H   0  0  0  0  0  0  0  0  0  0  0  0
   -2.3999   -0.1711    0.1512 H   0  0  0  0  0  0  0  0  0  0  0  0
   -0.6418    0.0859   -2.0231 H   0  0  0  0  0  0  0  0  0  0  0  0
   -1.5740    3.0069    0.3703 H   0  0  0  0  0  0  0  0  0  0  0  0
   -0.7984    1.2924    1.3312 H   0  0  0  0  0  0  0  0  0  0  0  0
    1.9939   -2.9673   -0.5292 H   0  0  0  0  0  0  0  0  0  0  0  0
    2.3024   -2.2246    1.0249 H   0  0  0  0  0  0  0  0  0  0  0  0
    0.3834   -3.1128    1.7941 H   0  0  0  0  0  0  0  0  0  0  0  0
  1 10  1  0  0  0  0
  1 13  1  1  0  0  0
  1  2  1  0  0  0  0
  2 14  1  0  0  0  0
  3  1  1  0  0  0  0
  3  4  1  0  0  0  0
  3 15  1  1  0  0  0
  4 16  1  0  0  0  0
  5  3  1  0  0  0  0
  5  9  1  0  0  0  0
  5 17  1  6  0  0  0
  5 11  1  0  0  0  0
  6 10  1  0  0  0  0
  6  7  1  0  0  0  0
  6 18  1  0  0  0  0
  7 19  1  0  0  0  0
  8 20  1  0  0  0  0
  9  6  1  0  0  0  0
 10 21  1  1  0  0  0
 10  8  1  0  0  0  0
 11 12  1  0  0  0  0
 11 22  1  0  0  0  0
 11 23  1  0  0  0  0
 12 24  1  0  0  0  0
M  END
>  <DRUGBANK_ID>
DB03989

>  <SECONDARY_ACCESSION_NUMBERS>
EXPT00500

>  <COMMON_NAME>
D-Allopyranose

>  <CAS_NUMBER>
2595-97-3

>  <UNII>
SV1ATP0KYY

>  <SYNONYMS>
D-Allose

$$$$
