
 OpenBabel10282417213D

 72 76  0  0  0  0  0  0  0  0999 V2000
    0.9586    0.0176   -0.0378 C   0  0  0  0  0  0  0  0  0  0  0  0
    0.3804   -1.3019    0.4775 C   0  0  0  0  0  0  0  0  0  0  0  0
    1.0003   -1.7962    1.7112 N   0  0  0  0  0  0  0  0  0  0  0  0
    0.4912   -3.1196    2.1202 C   0  0  0  0  0  0  0  0  0  0  0  0
    0.7790   -4.3293    1.2226 C   0  0  0  0  0  0  0  0  0  0  0  0
    2.4602   -1.7007    1.7315 C   0  0  0  0  0  0  0  0  0  0  0  0
    3.2194   -2.5370    0.7143 C   0  0  0  0  0  0  0  0  0  0  0  0
    2.8370   -2.4744   -0.6854 N   0  0  0  0  0  0  0  0  0  0  0  0
    3.6471   -2.2459   -1.7518 C   0  0  0  0  0  0  0  0  0  0  0  0
    3.1586   -1.9870   -2.8485 O   0  0  0  0  0  0  0  0  0  0  0  0
    5.0665   -2.2844   -1.4762 C   0  0  0  0  0  0  0  0  0  0  0  0
    5.7496   -3.2758   -0.7688 C   0  0  0  0  0  0  0  0  0  0  0  0
    5.3245   -4.5813   -0.1670 C   0  0  0  0  0  0  0  0  0  0  0  0
    7.0519   -2.8521   -0.6735 N   0  0  0  0  0  0  0  0  0  0  0  0
    7.2428   -1.6914   -1.3899 C   0  0  0  0  0  0  0  0  0  0  0  0
    8.5527   -1.1647   -1.5537 C   0  0  0  0  0  0  0  0  0  0  0  0
    9.5108   -1.8327   -2.2194 C   0  0  0  0  0  0  0  0  0  0  0  0
    9.3101   -3.2108   -2.8312 C   0  0  0  0  0  0  0  0  0  0  0  0
    8.3726   -3.9639   -2.7775 O   0  0  0  0  0  0  0  0  0  0  0  0
   10.4987   -3.4882   -3.4716 N   0  0  0  0  0  0  0  0  0  0  0  0
   11.4168   -2.4642   -3.3263 C   0  0  0  0  0  0  0  0  0  0  0  0
   12.6943   -2.4733   -3.8461 C   0  0  0  0  0  0  0  0  0  0  0  0
   13.5030   -1.3723   -3.5768 C   0  0  0  0  0  0  0  0  0  0  0  0
   13.0217   -0.3024   -2.7878 C   0  0  0  0  0  0  0  0  0  0  0  0
   11.7003   -0.3208   -2.2770 C   0  0  0  0  0  0  0  0  0  0  0  0
   10.8908   -1.4139   -2.5593 C   0  0  0  0  0  0  0  0  0  0  0  0
   13.9112    0.8027   -2.4606 C   0  0  0  0  0  0  0  0  0  0  0  0
   14.5319    1.5912   -3.4093 C   0  0  0  0  0  0  0  0  0  0  0  0
   15.4767    2.7935   -2.6336 S   0  0  0  0  0  0  0  0  0  0  0  0
   15.0021    2.1668   -1.0951 C   0  0  0  0  0  0  0  0  0  0  0  0
   14.1995    1.1219   -1.1436 N   0  0  0  0  0  0  0  0  0  0  0  0
   15.5859    2.7386    0.1243 C   0  0  0  0  0  0  0  0  0  0  0  0
   16.3160    1.9123    0.9904 C   0  0  0  0  0  0  0  0  0  0  0  0
   16.9923    2.4506    2.0887 C   0  0  0  0  0  0  0  0  0  0  0  0
   16.9447    3.8215    2.3328 C   0  0  0  0  0  0  0  0  0  0  0  0
   16.2071    4.6516    1.4905 C   0  0  0  0  0  0  0  0  0  0  0  0
   15.4926    4.1073    0.4188 C   0  0  0  0  0  0  0  0  0  0  0  0
    6.0122   -1.2875   -1.8683 C   0  0  0  0  0  0  0  0  0  0  0  0
    5.7051   -0.0756   -2.6734 C   0  0  0  0  0  0  0  0  0  0  0  0
    0.6921    0.8362    0.6346 H   0  0  0  0  0  0  0  0  0  0  0  0
    0.5740    0.2276   -1.0389 H   0  0  0  0  0  0  0  0  0  0  0  0
    2.0489    0.0161   -0.1433 H   0  0  0  0  0  0  0  0  0  0  0  0
   -0.6961   -1.1796    0.6277 H   0  0  0  0  0  0  0  0  0  0  0  0
    0.4334   -2.0408   -0.3171 H   0  0  0  0  0  0  0  0  0  0  0  0
    0.8656   -3.3428    3.1283 H   0  0  0  0  0  0  0  0  0  0  0  0
   -0.5960   -3.0396    2.2262 H   0  0  0  0  0  0  0  0  0  0  0  0
    1.7948   -4.7049    1.3327 H   0  0  0  0  0  0  0  0  0  0  0  0
    0.1702   -5.1875    1.5096 H   0  0  0  0  0  0  0  0  0  0  0  0
    0.5903   -4.1193    0.1669 H   0  0  0  0  0  0  0  0  0  0  0  0
    2.7978   -0.6617    1.6377 H   0  0  0  0  0  0  0  0  0  0  0  0
    2.8270   -1.9879    2.7276 H   0  0  0  0  0  0  0  0  0  0  0  0
    4.2642   -2.2737    0.8557 H   0  0  0  0  0  0  0  0  0  0  0  0
    3.1221   -3.5692    0.9955 H   0  0  0  0  0  0  0  0  0  0  0  0
    1.9064   -2.6954   -0.9972 H   0  0  0  0  0  0  0  0  0  0  0  0
    4.6938   -4.4696    0.7112 H   0  0  0  0  0  0  0  0  0  0  0  0
    4.7708   -5.1926   -0.8851 H   0  0  0  0  0  0  0  0  0  0  0  0
    6.1717   -5.1463    0.2261 H   0  0  0  0  0  0  0  0  0  0  0  0
    7.7876   -3.4072   -0.2618 H   0  0  0  0  0  0  0  0  0  0  0  0
    8.7145   -0.1440   -1.2182 H   0  0  0  0  0  0  0  0  0  0  0  0
   10.6360   -4.3620   -3.9516 H   0  0  0  0  0  0  0  0  0  0  0  0
   13.0589   -3.3120   -4.4282 H   0  0  0  0  0  0  0  0  0  0  0  0
   14.5220   -1.3664   -3.9603 H   0  0  0  0  0  0  0  0  0  0  0  0
   11.3484    0.5071   -1.6686 H   0  0  0  0  0  0  0  0  0  0  0  0
   14.4717    1.5395   -4.4876 H   0  0  0  0  0  0  0  0  0  0  0  0
   16.3774    0.8435    0.7961 H   0  0  0  0  0  0  0  0  0  0  0  0
   17.5754    1.8024    2.7378 H   0  0  0  0  0  0  0  0  0  0  0  0
   17.4781    4.2427    3.1816 H   0  0  0  0  0  0  0  0  0  0  0  0
   16.2019    5.7257    1.6591 H   0  0  0  0  0  0  0  0  0  0  0  0
   14.8697    4.7620   -0.1866 H   0  0  0  0  0  0  0  0  0  0  0  0
    5.2379   -0.3500   -3.6246 H   0  0  0  0  0  0  0  0  0  0  0  0
    5.0212    0.5805   -2.1248 H   0  0  0  0  0  0  0  0  0  0  0  0
    6.6131    0.4907   -2.8971 H   0  0  0  0  0  0  0  0  0  0  0  0
  1  2  1  0  0  0  0
  1 40  1  0  0  0  0
  1 41  1  0  0  0  0
  1 42  1  0  0  0  0
  2  3  1  0  0  0  0
  2 43  1  0  0  0  0
  2 44  1  0  0  0  0
  3  4  1  0  0  0  0
  3  6  1  0  0  0  0
  4  5  1  0  0  0  0
  4 45  1  0  0  0  0
  4 46  1  0  0  0  0
  5 47  1  0  0  0  0
  5 48  1  0  0  0  0
  5 49  1  0  0  0  0
  6  7  1  0  0  0  0
  6 50  1  0  0  0  0
  6 51  1  0  0  0  0
  7  8  1  0  0  0  0
  7 52  1  0  0  0  0
  7 53  1  0  0  0  0
  8  9  1  0  0  0  0
  8 54  1  0  0  0  0
  9 10  2  0  0  0  0
  9 11  1  0  0  0  0
 11 12  2  0  0  0  0
 11 38  1  0  0  0  0
 12 13  1  0  0  0  0
 12 14  1  0  0  0  0
 13 55  1  0  0  0  0
 13 56  1  0  0  0  0
 13 57  1  0  0  0  0
 14 15  1  0  0  0  0
 14 58  1  0  0  0  0
 15 16  1  0  0  0  0
 15 38  2  0  0  0  0
 16 17  2  0  0  0  0
 16 59  1  0  0  0  0
 17 18  1  0  0  0  0
 17 26  1  0  0  0  0
 18 19  2  0  0  0  0
 18 20  1  0  0  0  0
 20 21  1  0  0  0  0
 20 60  1  0  0  0  0
 21 22  2  0  0  0  0
 21 26  1  0  0  0  0
 22 23  1  0  0  0  0
 22 61  1  0  0  0  0
 23 24  2  0  0  0  0
 23 62  1  0  0  0  0
 24 25  1  0  0  0  0
 24 27  1  0  0  0  0
 25 26  2  0  0  0  0
 25 63  1  0  0  0  0
 27 28  2  0  0  0  0
 27 31  1  0  0  0  0
 28 29  1  0  0  0  0
 28 64  1  0  0  0  0
 29 30  1  0  0  0  0
 30 31  2  0  0  0  0
 30 32  1  0  0  0  0
 32 33  2  0  0  0  0
 32 37  1  0  0  0  0
 33 34  1  0  0  0  0
 33 65  1  0  0  0  0
 34 35  2  0  0  0  0
 34 66  1  0  0  0  0
 35 36  1  0  0  0  0
 35 67  1  0  0  0  0
 36 37  2  0  0  0  0
 36 68  1  0  0  0  0
 37 69  1  0  0  0  0
 38 39  1  0  0  0  0
 39 70  1  0  0  0  0
 39 71  1  0  0  0  0
 39 72  1  0  0  0  0
M  END
>  <DRUGBANK_ID>
DB14866

>  <COMMON_NAME>
Amcasertib

>  <CAS_NUMBER>
1129403-56-0

>  <UNII>
GLY8ABW25V

>  <SYNONYMS>
Amcasertib

$$$$
