
 OpenBabel10282417113D

 89 89  0  0  0  0  0  0  0  0999 V2000
   -5.3327    3.1261    2.6185 C   0  0  0  0  0  0  0  0  0  0  0  0
   -6.3761    2.6066    2.9614 O   0  0  0  0  0  0  0  0  0  0  0  0
   -4.0054    3.0434    3.3354 C   0  0  1  0  0  0  0  0  0  0  0  0
   -2.8989    2.5097    2.3492 C   0  0  0  0  0  0  0  0  0  0  0  0
   -3.9215    4.4029    3.8404 N   0  0  0  0  0  0  0  0  0  0  0  0
   -5.2624    4.0571    1.6232 O   0  0  0  0  0  0  0  0  0  0  0  0
   -3.3044    4.4438    4.6410 H   0  0  0  0  0  0  0  0  0  0  0  0
   -2.5660    3.4084    1.1168 C   0  0  0  0  0  0  0  0  0  0  0  0
   -2.1045    4.8349    1.2097 C   0  0  0  0  0  0  0  0  0  0  0  0
   -0.6908    4.8320    1.6084 C   0  0  0  0  0  0  0  0  0  0  0  0
    0.4853    4.4984    0.9227 N   0  0  0  0  0  0  0  0  0  0  0  0
    1.6806    5.2170    1.0885 C   0  0  0  0  0  0  0  0  0  0  0  0
    2.7032    4.6191    0.7315 O   0  0  0  0  0  0  0  0  0  0  0  0
    1.8457    6.7454    1.7682 C   0  0  3  0  0  0  0  0  0  0  0  0
    0.8120    7.6324    1.2477 N   0  0  0  0  0  0  0  0  0  0  0  0
    1.9141    6.7273    3.3847 C   0  0  1  0  0  0  0  0  0  0  0  0
   -0.1163    8.0696    2.1211 C   0  0  0  0  0  0  0  0  0  0  0  0
   -1.1613    8.6041    1.7283 O   0  0  0  0  0  0  0  0  0  0  0  0
    0.2733    7.9101    3.7260 C   0  0  0  0  0  0  0  0  0  0  0  0
    0.2654    6.2792    5.0454 C   0  0  0  0  0  0  0  0  0  0  0  0
   -1.1328    3.7050    4.6091 C   0  0  0  0  0  0  0  0  0  0  0  0
   -0.8961    5.0004    4.5521 C   0  0  0  0  0  0  0  0  0  0  0  0
    1.1341    5.4846    5.8180 C   0  0  0  0  0  0  0  0  0  0  0  0
    0.9231    3.9968    5.7710 C   0  0  0  0  0  0  0  0  0  0  0  0
   -0.1074    3.1395    5.1807 C   0  0  0  0  0  0  0  0  0  0  0  0
    1.9631    8.2358    5.1484 S   0  0  0  0  0  0  0  0  0  0  0  0
    0.2046    6.1353    3.2304 N   0  0  0  0  0  0  0  0  0  0  0  0
   -1.2618    6.9924    4.3465 C   0  0  2  0  0  0  0  0  0  0  0  0
   -0.3657    8.2556    5.5752 C   0  0  0  0  0  0  0  0  0  0  0  0
    2.6192    5.9563    3.7382 H   0  0  0  0  0  0  0  0  0  0  0  0
   -2.2231    6.2599    5.7255 C   0  0  0  0  0  0  0  0  0  0  0  0
   -3.5208    6.2700    5.3987 O   0  0  0  0  0  0  0  0  0  0  0  0
   -1.8615    5.6346    6.7190 O   0  0  0  0  0  0  0  0  0  0  0  0
   -0.1933    7.9427    7.0470 C   0  0  0  0  0  0  0  0  0  0  0  0
   -1.4628    9.3701    5.2752 C   0  0  0  0  0  0  0  0  0  0  0  0
    0.9652    0.1505    0.0199 C   0  0  0  0  0  0  0  0  0  0  0  0
    0.4304    0.6797   -0.9409 O   0  0  0  0  0  0  0  0  0  0  0  0
    0.2253   -0.5975    1.1453 C   0  0  1  0  0  0  0  0  0  0  0  0
    0.6436   -2.0806    1.1855 C   0  0  0  0  0  0  0  0  0  0  0  0
    0.3239    0.1421    2.4233 N   0  0  0  0  0  0  0  0  0  0  0  0
    2.3090    0.1901    0.1742 O   0  0  0  0  0  0  0  0  0  0  0  0
    0.0348   -0.4641    3.1897 H   0  0  0  0  0  0  0  0  0  0  0  0
    2.1384   -2.3224    1.4572 C   0  0  0  0  0  0  0  0  0  0  0  0
    2.6148   -1.8037    2.8194 C   0  0  0  0  0  0  0  0  0  0  0  0
    1.7971   -2.4071    3.9590 C   0  0  0  0  0  0  0  0  0  0  0  0
    2.0807   -3.8317    4.0002 N   0  0  0  0  0  0  0  0  0  0  0  0
   -4.0424    2.4264    4.2418 H   0  0  0  0  0  0  0  0  0  0  0  0
   -1.9681    2.1558    2.8283 H   0  0  0  0  0  0  0  0  0  0  0  0
   -3.2138    1.5204    2.0071 H   0  0  0  0  0  0  0  0  0  0  0  0
   -3.7977    5.0140    3.0521 H   0  0  0  0  0  0  0  0  0  0  0  0
   -6.1246    4.0924    1.1761 H   0  0  0  0  0  0  0  0  0  0  0  0
   -1.7750    2.9059    0.5597 H   0  0  0  0  0  0  0  0  0  0  0  0
   -3.4464    3.4672    0.5005 H   0  0  0  0  0  0  0  0  0  0  0  0
   -2.1106    5.4519    0.3091 H   0  0  0  0  0  0  0  0  0  0  0  0
   -2.7113    5.4752    1.8642 H   0  0  0  0  0  0  0  0  0  0  0  0
   -0.6960    5.8923    1.6848 H   0  0  0  0  0  0  0  0  0  0  0  0
   -0.5226    4.1880    2.4586 H   0  0  0  0  0  0  0  0  0  0  0  0
    0.6205    3.4878    0.9648 H   0  0  0  0  0  0  0  0  0  0  0  0
    2.7760    7.1465    1.3985 H   0  0  0  0  0  0  0  0  0  0  0  0
    0.4376    7.5559    0.3088 H   0  0  0  0  0  0  0  0  0  0  0  0
    0.6316    8.9893    3.8696 H   0  0  0  0  0  0  0  0  0  0  0  0
   -0.6629    8.4762    3.6842 H   0  0  0  0  0  0  0  0  0  0  0  0
   -1.7821    3.4325    3.8313 H   0  0  0  0  0  0  0  0  0  0  0  0
   -1.6183    5.2915    3.7005 H   0  0  0  0  0  0  0  0  0  0  0  0
    2.0136    5.8906    6.2650 H   0  0  0  0  0  0  0  0  0  0  0  0
    1.8026    3.4236    5.9897 H   0  0  0  0  0  0  0  0  0  0  0  0
   -0.0506    2.0894    4.9327 H   0  0  0  0  0  0  0  0  0  0  0  0
    0.6280    5.2085    3.5936 H   0  0  0  0  0  0  0  0  0  0  0  0
   -1.9747    7.2666    3.5249 H   0  0  0  0  0  0  0  0  0  0  0  0
   -3.5921    6.1993    4.4283 H   0  0  0  0  0  0  0  0  0  0  0  0
   -1.0807    7.4963    7.4598 H   0  0  0  0  0  0  0  0  0  0  0  0
    0.6375    7.2690    7.2850 H   0  0  0  0  0  0  0  0  0  0  0  0
    0.0841    8.8683    7.5318 H   0  0  0  0  0  0  0  0  0  0  0  0
   -1.7054    9.6320    4.2175 H   0  0  0  0  0  0  0  0  0  0  0  0
   -2.4320    8.9070    5.5298 H   0  0  0  0  0  0  0  0  0  0  0  0
   -1.2102   10.3080    5.7191 H   0  0  0  0  0  0  0  0  0  0  0  0
   -0.8415   -0.5694    0.9050 H   0  0  0  0  0  0  0  0  0  0  0  0
    0.0302   -2.6222    1.9188 H   0  0  0  0  0  0  0  0  0  0  0  0
    0.3845   -2.5505    0.2266 H   0  0  0  0  0  0  0  0  0  0  0  0
    1.3017    0.3692    2.5891 H   0  0  0  0  0  0  0  0  0  0  0  0
    2.7079    0.5708   -0.6375 H   0  0  0  0  0  0  0  0  0  0  0  0
    2.3524   -3.3925    1.3742 H   0  0  0  0  0  0  0  0  0  0  0  0
    2.7475   -1.8940    0.6607 H   0  0  0  0  0  0  0  0  0  0  0  0
    3.6811   -2.0107    2.9503 H   0  0  0  0  0  0  0  0  0  0  0  0
    2.6094   -0.7174    2.8708 H   0  0  0  0  0  0  0  0  0  0  0  0
    2.0451   -1.9208    4.9051 H   0  0  0  0  0  0  0  0  0  0  0  0
    0.7175   -2.2703    3.8315 H   0  0  0  0  0  0  0  0  0  0  0  0
    1.5130   -4.2815    4.7109 H   0  0  0  0  0  0  0  0  0  0  0  0
    1.8109   -4.2594    3.1140 H   0  0  0  0  0  0  0  0  0  0  0  0
  1  2  2  0  0  0  0
  1  3  1  0  0  0  0
  3  4  1  0  0  0  0
  3  5  1  0  0  0  0
  3 47  1  1  0  0  0
  4  8  1  0  0  0  0
  4 48  1  0  0  0  0
  4 49  1  0  0  0  0
  5  7  1  0  0  0  0
  5 50  1  0  0  0  0
  6  1  1  0  0  0  0
  6 51  1  0  0  0  0
  8  9  1  0  0  0  0
  8 52  1  0  0  0  0
  8 53  1  0  0  0  0
  9 10  1  0  0  0  0
  9 54  1  0  0  0  0
  9 55  1  0  0  0  0
 10 11  1  0  0  0  0
 10 56  1  0  0  0  0
 10 57  1  0  0  0  0
 11 12  1  0  0  0  0
 11 58  1  0  0  0  0
 12 13  2  0  0  0  0
 12 14  1  0  0  0  0
 14 15  1  0  0  0  0
 14 59  1  0  0  0  0
 15 17  1  0  0  0  0
 15 60  1  0  0  0  0
 16 27  1  0  0  0  0
 16 30  1  1  0  0  0
 16 14  1  0  0  0  0
 17 18  2  0  0  0  0
 17 19  1  0  0  0  0
 19 20  1  0  0  0  0
 19 61  1  0  0  0  0
 19 62  1  0  0  0  0
 20 23  1  0  0  0  0
 21 22  1  0  0  0  0
 21 25  2  0  0  0  0
 21 63  1  0  0  0  0
 22 20  2  0  0  0  0
 22 64  1  0  0  0  0
 23 24  2  0  0  0  0
 23 65  1  0  0  0  0
 24 25  1  0  0  0  0
 24 66  1  0  0  0  0
 25 67  1  0  0  0  0
 26 16  1  0  0  0  0
 26 29  1  0  0  0  0
 27 28  1  0  0  0  0
 27 68  1  0  0  0  0
 28 29  1  0  0  0  0
 28 31  1  0  0  0  0
 28 69  1  6  0  0  0
 29 34  1  0  0  0  0
 29 35  1  0  0  0  0
 31 32  1  0  0  0  0
 31 33  2  0  0  0  0
 32 70  1  0  0  0  0
 34 71  1  0  0  0  0
 34 72  1  0  0  0  0
 34 73  1  0  0  0  0
 35 74  1  0  0  0  0
 35 75  1  0  0  0  0
 35 76  1  0  0  0  0
 36 37  2  0  0  0  0
 36 38  1  0  0  0  0
 38 39  1  0  0  0  0
 38 40  1  0  0  0  0
 38 77  1  6  0  0  0
 39 43  1  0  0  0  0
 39 78  1  0  0  0  0
 39 79  1  0  0  0  0
 40 42  1  0  0  0  0
 40 80  1  0  0  0  0
 41 36  1  0  0  0  0
 41 81  1  0  0  0  0
 43 44  1  0  0  0  0
 43 82  1  0  0  0  0
 43 83  1  0  0  0  0
 44 45  1  0  0  0  0
 44 84  1  0  0  0  0
 44 85  1  0  0  0  0
 45 46  1  0  0  0  0
 45 86  1  0  0  0  0
 45 87  1  0  0  0  0
 46 88  1  0  0  0  0
 46 89  1  0  0  0  0
M  END
>  <DRUGBANK_ID>
DB00895

>  <SECONDARY_ACCESSION_NUMBERS>
APRD00822

>  <COMMON_NAME>
Benzylpenicilloyl polylysine

>  <CAS_NUMBER>
31855-75-1

>  <UNII>
76479814OY

>  <SYNONYMS>
Benzyl penicilloyl-polylysine; Benzylpenicilloyl G polylysine; Benzylpenicilloyl polylysine; Benzylpenicilloyl-polylysine

$$$$
