[NO NAME]
 OpenBabel10282417103D
Created with ChemWriter - http://chemwriter.com
 73 76  0  0  1  0  0  0  0  0999 V2000
    1.5830    0.2797   -0.8740 C   0  0  1  0  0  0  0  0  0  0  0  0
    2.1744   -1.1238   -0.8119 C   0  0  0  0  0  0  0  0  0  0  0  0
   -0.1397   -2.2189   -0.5601 C   0  0  0  0  0  0  0  0  0  0  0  0
    1.2418   -2.2481   -1.2287 C   0  0  0  0  0  0  0  0  0  0  0  0
    0.3066    0.1950    0.0372 C   0  0  2  0  0  0  0  0  0  0  0  0
   -0.7585   -0.8309   -0.5385 C   0  0  2  0  0  0  0  0  0  0  0  0
   -4.5423   -1.0968    0.4235 C   0  0  2  0  0  0  0  0  0  0  0  0
   -3.2779   -1.6877   -0.2875 C   0  0  0  0  0  0  0  0  0  0  0  0
   -5.7528   -1.1419   -0.5009 C   0  0  0  0  0  0  0  0  0  0  0  0
   -0.3423    1.5344    0.3009 C   0  0  1  0  0  0  0  0  0  0  0  0
   -0.4131    2.4135   -0.8158 O   0  0  0  0  0  0  0  0  0  0  0  0
    2.5507    1.3584   -0.3955 C   0  0  0  0  0  0  0  0  0  0  0  0
    3.3935   -1.3593   -0.2947 C   0  0  0  0  0  0  0  0  0  0  0  0
    3.7690    1.1174    0.1005 C   0  0  0  0  0  0  0  0  0  0  0  0
    4.2485   -0.2696    0.2363 C   0  0  0  0  0  0  0  0  0  0  0  0
    5.3238   -0.5130    0.7797 O   0  0  0  0  0  0  0  0  0  0  0  0
    0.8243   -0.3637    1.7635 Cl  0  0  0  0  0  0  0  0  0  0  0  0
   -0.9834   -0.5364   -1.5688 H   0  0  0  0  0  0  0  0  0  0  0  0
   -2.7665    0.5188    0.2385 C   0  0  1  0  0  0  0  0  0  0  0  0
   -3.0939    1.0901   -1.1805 C   0  0  0  0  0  0  0  0  0  0  0  0
   -2.1220   -0.8558    0.2190 C   0  0  2  0  0  0  0  0  0  0  0  0
    1.3228    0.6096   -2.3666 C   0  0  0  0  0  0  0  0  0  0  0  0
   -1.6806    1.2597    0.9776 C   0  0  0  0  0  0  0  0  0  0  0  0
   -1.9167   -1.1800    1.2515 H   0  0  0  0  0  0  0  0  0  0  0  0
   -5.6583    2.4283    1.9427 C   0  0  0  0  0  0  0  0  0  0  0  0
   -5.1846    1.5369    0.7596 C   0  0  0  0  0  0  0  0  0  0  0  0
   -5.6614    1.7709   -0.3555 O   0  0  0  0  0  0  0  0  0  0  0  0
   -4.3401    4.5022    1.9438 C   0  0  0  0  0  0  0  0  0  0  0  0
   -3.0898    3.7094    2.0101 C   0  0  0  0  0  0  0  0  0  0  0  0
   -4.2815    5.7119    1.8923 O   0  0  0  0  0  0  0  0  0  0  0  0
   -2.2846    4.1102    0.7503 C   0  0  0  0  0  0  0  0  0  0  0  0
   -5.5168    3.8412    1.8227 O   0  0  0  0  0  0  0  0  0  0  0  0
   -6.8544   -1.6874    3.1917 C   0  0  0  0  0  0  0  0  0  0  0  0
   -4.1616    0.3173    1.0063 C   0  0  1  0  0  0  0  0  0  0  0  0
   -3.9379    0.1329    2.4373 O   0  0  0  0  0  0  0  0  0  0  0  0
   -4.9106   -0.1244    3.3593 C   0  0  0  0  0  0  0  0  0  0  0  0
   -4.6427   -0.1028    4.5643 O   0  0  0  0  0  0  0  0  0  0  0  0
   -6.3399   -0.3096    2.8947 C   0  0  0  0  0  0  0  0  0  0  0  0
   -0.0605   -2.5874    0.4691 H   0  0  0  0  0  0  0  0  0  0  0  0
   -0.8184   -2.9018   -1.0791 H   0  0  0  0  0  0  0  0  0  0  0  0
    1.6887   -3.2205   -1.0065 H   0  0  0  0  0  0  0  0  0  0  0  0
    1.1020   -2.1986   -2.3133 H   0  0  0  0  0  0  0  0  0  0  0  0
   -4.7341   -1.7738    1.2606 H   0  0  0  0  0  0  0  0  0  0  0  0
   -3.1385   -2.7388   -0.0270 H   0  0  0  0  0  0  0  0  0  0  0  0
   -3.3584   -1.6141   -1.3759 H   0  0  0  0  0  0  0  0  0  0  0  0
   -5.9658   -2.1774   -0.7716 H   0  0  0  0  0  0  0  0  0  0  0  0
   -6.6554   -0.7415   -0.0345 H   0  0  0  0  0  0  0  0  0  0  0  0
   -5.5970   -0.5776   -1.4221 H   0  0  0  0  0  0  0  0  0  0  0  0
    0.2673    2.1124    1.0098 H   0  0  0  0  0  0  0  0  0  0  0  0
   -0.8299    2.0155   -1.5884 H   0  0  0  0  0  0  0  0  0  0  0  0
    2.2264    2.3984   -0.4663 H   0  0  0  0  0  0  0  0  0  0  0  0
    3.7907   -2.3594   -0.1843 H   0  0  0  0  0  0  0  0  0  0  0  0
    4.4280    1.9118    0.4307 H   0  0  0  0  0  0  0  0  0  0  0  0
   -3.5043    2.1016   -1.1369 H   0  0  0  0  0  0  0  0  0  0  0  0
   -2.2702    1.1222   -1.8800 H   0  0  0  0  0  0  0  0  0  0  0  0
   -3.8389    0.4938   -1.7065 H   0  0  0  0  0  0  0  0  0  0  0  0
    0.9488    1.6230   -2.5341 H   0  0  0  0  0  0  0  0  0  0  0  0
    2.2534    0.5426   -2.9437 H   0  0  0  0  0  0  0  0  0  0  0  0
    0.6123   -0.0721   -2.8404 H   0  0  0  0  0  0  0  0  0  0  0  0
   -2.1510    2.1582    1.0406 H   0  0  0  0  0  0  0  0  0  0  0  0
   -1.5372    0.9351    2.0173 H   0  0  0  0  0  0  0  0  0  0  0  0
   -6.7427    2.2500    2.0041 H   0  0  0  0  0  0  0  0  0  0  0  0
   -5.2712    2.1339    2.9162 H   0  0  0  0  0  0  0  0  0  0  0  0
   -2.4879    3.8561    2.9084 H   0  0  0  0  0  0  0  0  0  0  0  0
   -3.3694    2.6601    2.1255 H   0  0  0  0  0  0  0  0  0  0  0  0
   -2.1350    5.1707    0.6080 H   0  0  0  0  0  0  0  0  0  0  0  0
   -1.2603    3.7416    0.8224 H   0  0  0  0  0  0  0  0  0  0  0  0
   -2.7511    3.7104   -0.1620 H   0  0  0  0  0  0  0  0  0  0  0  0
   -6.9181   -1.8317    4.2708 H   0  0  0  0  0  0  0  0  0  0  0  0
   -7.8475   -1.8111    2.7498 H   0  0  0  0  0  0  0  0  0  0  0  0
   -6.1908   -2.4474    2.7732 H   0  0  0  0  0  0  0  0  0  0  0  0
   -6.9756    0.4495    3.3650 H   0  0  0  0  0  0  0  0  0  0  0  0
   -6.4595   -0.1379    1.8364 H   0  0  0  0  0  0  0  0  0  0  0  0
  1 12  1  0  0  0  0
  1 22  1  6  0  0  0
  1  2  1  0  0  0  0
  2 13  2  0  0  0  0
  3  4  1  0  0  0  0
  3 39  1  0  0  0  0
  3 40  1  0  0  0  0
  4  2  1  0  0  0  0
  4 41  1  0  0  0  0
  4 42  1  0  0  0  0
  5  1  1  0  0  0  0
  5 10  1  0  0  0  0
  5 17  1  1  0  0  0
  6  5  1  0  0  0  0
  6  3  1  0  0  0  0
  6 18  1  6  0  0  0
  7  8  1  0  0  0  0
  7  9  1  0  0  0  0
  7 43  1  1  0  0  0
  8 44  1  0  0  0  0
  8 45  1  0  0  0  0
  9 46  1  0  0  0  0
  9 47  1  0  0  0  0
  9 48  1  0  0  0  0
 10 23  1  0  0  0  0
 10 11  1  0  0  0  0
 10 49  1  1  0  0  0
 11 50  1  0  0  0  0
 12 14  2  0  0  0  0
 12 51  1  0  0  0  0
 13 15  1  0  0  0  0
 13 52  1  0  0  0  0
 14 15  1  0  0  0  0
 14 53  1  0  0  0  0
 15 16  2  0  0  0  0
 19 34  1  0  0  0  0
 19 23  1  0  0  0  0
 19 20  1  6  0  0  0
 20 54  1  0  0  0  0
 20 55  1  0  0  0  0
 20 56  1  0  0  0  0
 21  6  1  0  0  0  0
 21  8  1  0  0  0  0
 21 19  1  0  0  0  0
 21 24  1  1  0  0  0
 22 57  1  0  0  0  0
 22 58  1  0  0  0  0
 22 59  1  0  0  0  0
 23 60  1  0  0  0  0
 23 61  1  0  0  0  0
 25 32  1  0  0  0  0
 25 62  1  0  0  0  0
 25 63  1  0  0  0  0
 26 25  1  0  0  0  0
 26 27  2  0  0  0  0
 28 29  1  0  0  0  0
 28 30  2  0  0  0  0
 29 31  1  0  0  0  0
 29 64  1  0  0  0  0
 29 65  1  0  0  0  0
 31 66  1  0  0  0  0
 31 67  1  0  0  0  0
 31 68  1  0  0  0  0
 32 28  1  0  0  0  0
 33 69  1  0  0  0  0
 33 70  1  0  0  0  0
 33 71  1  0  0  0  0
 34  7  1  0  0  0  0
 34 26  1  6  0  0  0
 34 35  1  0  0  0  0
 35 36  1  0  0  0  0
 36 38  1  0  0  0  0
 36 37  2  0  0  0  0
 38 33  1  0  0  0  0
 38 72  1  0  0  0  0
 38 73  1  0  0  0  0
M  END
>  <DRUGBANK_ID>
DB00394

>  <SECONDARY_ACCESSION_NUMBERS>
APRD00564; DB11897

>  <COMMON_NAME>
Beclomethasone dipropionate

>  <CAS_NUMBER>
5534-09-8

>  <UNII>
5B307S63B2

>  <SYNONYMS>
(11β,16β)-9-chloro-11-hydroxy-16-methyl-17,21-bis(1-oxopropoxy)pregna-1,4-diene-3,20-dione; 9-chloro-11β-hydroxy-16β-methylpregna-1,4-diene-3,20-dione 17,21-dipropionate; 9-chloro-16β-methyl-11β,17,21-trihydroxypregna-1,4-diene-3,20-dione 17,21-dipropionate; beclometasone 17,21-dipropionate; Beclometasone dipropionate; Beclometasone dipropionate anhydrous; Beclometasone dipropionato; Beclomethasone dipropionate

$$$$
