
 OpenBabel10282417183D

136135  0  0  0  0  0  0  0  0999 V2000
  -13.3090    1.5621   20.2840 C   0  0  0  0  0  0  0  0  0  0  0  0
  -31.7886  -16.3471   10.4181 C   0  0  0  0  0  0  0  0  0  0  0  0
  -14.2804    0.6793   19.5349 C   0  0  0  0  0  0  0  0  0  0  0  0
  -31.1083  -17.4927    9.7047 C   0  0  0  0  0  0  0  0  0  0  0  0
  -13.9519    0.6387   18.0711 C   0  0  0  0  0  0  0  0  0  0  0  0
  -30.3961  -17.0134    8.4738 C   0  0  0  0  0  0  0  0  0  0  0  0
  -13.5933   -0.4753   17.4238 C   0  0  0  0  0  0  0  0  0  0  0  0
  -29.0721  -17.0993    8.3038 C   0  0  0  0  0  0  0  0  0  0  0  0
  -13.4611   -1.7915   18.1015 C   0  0  0  0  0  0  0  0  0  0  0  0
  -28.1633  -17.6620    9.3370 C   0  0  0  0  0  0  0  0  0  0  0  0
  -14.3419   -2.8190   17.4796 C   0  0  0  0  0  0  0  0  0  0  0  0
  -27.3737  -18.8089    8.8081 C   0  0  0  0  0  0  0  0  0  0  0  0
  -13.8643   -3.9757   17.0182 C   0  0  0  0  0  0  0  0  0  0  0  0
  -26.0404  -18.8343    8.8549 C   0  0  0  0  0  0  0  0  0  0  0  0
  -12.4136   -4.2868   17.0536 C   0  0  0  0  0  0  0  0  0  0  0  0
  -25.2555  -17.6927    9.3913 C   0  0  0  0  0  0  0  0  0  0  0  0
  -12.1470   -5.5430   17.8006 C   0  0  0  0  0  0  0  0  0  0  0  0
  -24.3666  -18.1138   10.5056 C   0  0  0  0  0  0  0  0  0  0  0  0
  -11.4918   -6.5557   17.2385 C   0  0  0  0  0  0  0  0  0  0  0  0
  -23.0505  -17.9035   10.4687 C   0  0  0  0  0  0  0  0  0  0  0  0
  -11.0364   -6.4805   15.8326 C   0  0  0  0  0  0  0  0  0  0  0  0
  -22.3951  -17.2839    9.2885 C   0  0  0  0  0  0  0  0  0  0  0  0
   -9.5702   -6.6734   15.7495 C   0  0  0  0  0  0  0  0  0  0  0  0
  -21.6302  -16.0673    9.6649 C   0  0  0  0  0  0  0  0  0  0  0  0
   -9.0740   -7.6550   15.0074 C   0  0  0  0  0  0  0  0  0  0  0  0
  -20.3314  -15.9476    9.3909 C   0  0  0  0  0  0  0  0  0  0  0  0
   -9.9758   -8.5404   14.2337 C   0  0  0  0  0  0  0  0  0  0  0  0
  -19.5716  -17.0444    8.7392 C   0  0  0  0  0  0  0  0  0  0  0  0
   -9.5321   -8.5057   12.8274 C   0  0  0  0  0  0  0  0  0  0  0  0
  -18.9200  -16.5817    7.4881 C   0  0  0  0  0  0  0  0  0  0  0  0
   -8.7798   -9.5108   12.3776 C   0  0  0  0  0  0  0  0  0  0  0  0
  -17.6039  -16.6853    7.3108 C   0  0  0  0  0  0  0  0  0  0  0  0
   -8.3469  -10.6250   13.3068 C   0  0  0  0  0  0  0  0  0  0  0  0
  -16.7154  -17.2365    8.3653 C   0  0  0  0  0  0  0  0  0  0  0  0
   -9.1769  -11.7809   13.0900 C   0  0  0  0  0  0  0  0  0  0  0  0
  -15.9602  -18.3939    7.8380 C   0  0  0  0  0  0  0  0  0  0  0  0
   -8.6801  -12.8472   12.4810 C   0  0  0  0  0  0  0  0  0  0  0  0
  -14.6322  -18.4110    7.7909 C   0  0  0  0  0  0  0  0  0  0  0  0
   -7.4499  -13.5920   12.2542 C   0  0  0  0  0  0  0  0  0  0  0  0
  -13.7781  -17.3247    8.3400 C   0  0  0  0  0  0  0  0  0  0  0  0
   -7.6243  -14.9544   12.9787 C   0  0  0  0  0  0  0  0  0  0  0  0
  -13.0666  -17.8527    9.5641 C   0  0  0  0  0  0  0  0  0  0  0  0
  -10.4484  -17.2851   11.3978 C   0  0  0  0  0  0  0  0  0  0  0  0
  -10.7386  -16.2521    8.8605 C   0  0  0  0  0  0  0  0  0  0  0  0
  -11.2426  -13.1980   11.6197 C   0  0  0  0  0  0  0  0  0  0  0  0
  -10.2347  -17.3855    9.8005 C   0  0  2  0  0  0  0  0  0  0  0  0
  -10.9143  -11.7778   10.7896 C   0  0  1  0  0  0  0  0  0  0  0  0
   -8.3135  -16.3272   12.5242 C   0  0  0  0  0  0  0  0  0  0  0  0
  -12.0598  -18.9078    9.1802 C   0  0  0  0  0  0  0  0  0  0  0  0
  -11.0881  -11.7338    9.2582 C   0  0  0  0  0  0  0  0  0  0  0  0
  -11.4779  -10.5185   11.3629 N   0  0  0  0  0  0  0  0  0  0  0  0
   -7.6559  -17.3000   12.1594 O   0  0  0  0  0  0  0  0  0  0  0  0
  -12.3862  -20.0069    8.7500 O   0  0  0  0  0  0  0  0  0  0  0  0
  -11.3946  -10.7631    8.6611 O   0  0  0  0  0  0  0  0  0  0  0  0
  -10.6721  -12.8314    8.5904 O   0  0  0  0  0  0  0  0  0  0  0  0
   -8.1970  -15.5542   10.2916 O   0  0  0  0  0  0  0  0  0  0  0  0
   -8.5930  -13.2188    9.5573 O   0  0  0  0  0  0  0  0  0  0  0  0
   -9.6624  -16.3129   12.2624 O   0  0  0  0  0  0  0  0  0  0  0  0
   -9.9217  -15.1559    8.7110 O   0  0  0  0  0  0  0  0  0  0  0  0
  -10.5171  -14.4049   11.1014 O   0  0  0  0  0  0  0  0  0  0  0  0
  -10.7586  -18.6314    9.3074 O   0  0  0  0  0  0  0  0  0  0  0  0
   -9.3045  -14.4712    9.9770 P   0  0  3  0  0  0  0  0  0  0  0  0
  -13.9982    1.5711   17.5139 H   0  0  0  0  0  0  0  0  0  0  0  0
  -30.9929  -16.5619    7.6851 H   0  0  0  0  0  0  0  0  0  0  0  0
  -13.3308   -0.4345   16.3659 H   0  0  0  0  0  0  0  0  0  0  0  0
  -28.6084  -16.6996    7.4012 H   0  0  0  0  0  0  0  0  0  0  0  0
  -15.4104   -2.6248   17.4430 H   0  0  0  0  0  0  0  0  0  0  0  0
  -27.9156  -19.6632    8.4105 H   0  0  0  0  0  0  0  0  0  0  0  0
  -14.5340   -4.7036   16.5653 H   0  0  0  0  0  0  0  0  0  0  0  0
  -25.4964  -19.6874    8.4549 H   0  0  0  0  0  0  0  0  0  0  0  0
  -12.4560   -5.6098   18.8390 H   0  0  0  0  0  0  0  0  0  0  0  0
  -24.8206  -18.5642   11.3846 H   0  0  0  0  0  0  0  0  0  0  0  0
  -11.3048   -7.4723   17.7925 H   0  0  0  0  0  0  0  0  0  0  0  0
  -22.4236  -18.2273   11.2957 H   0  0  0  0  0  0  0  0  0  0  0  0
   -8.9029   -5.9882   16.2616 H   0  0  0  0  0  0  0  0  0  0  0  0
  -22.1654  -15.2456   10.1338 H   0  0  0  0  0  0  0  0  0  0  0  0
   -7.9994   -7.8098   14.9299 H   0  0  0  0  0  0  0  0  0  0  0  0
  -19.7939  -15.0481    9.6797 H   0  0  0  0  0  0  0  0  0  0  0  0
   -9.8683   -7.6858   12.1937 H   0  0  0  0  0  0  0  0  0  0  0  0
  -19.5471  -16.1941    6.6893 H   0  0  0  0  0  0  0  0  0  0  0  0
   -8.5939   -9.5526   11.3055 H   0  0  0  0  0  0  0  0  0  0  0  0
  -17.1505  -16.3492    6.3812 H   0  0  0  0  0  0  0  0  0  0  0  0
  -10.2297  -11.4705   13.0919 H   0  0  0  0  0  0  0  0  0  0  0  0
  -16.5130  -19.2723    7.5102 H   0  0  0  0  0  0  0  0  0  0  0  0
   -9.2066  -12.9820   11.5993 H   0  0  0  0  0  0  0  0  0  0  0  0
  -14.1471  -19.3040    7.4049 H   0  0  0  0  0  0  0  0  0  0  0  0
   -9.1799  -17.5502    9.5760 H   0  0  0  0  0  0  0  0  0  0  0  0
   -9.8458  -11.5137   10.7942 H   0  0  0  0  0  0  0  0  0  0  0  0
  -12.2747    1.2291   20.1356 H   0  0  0  0  0  0  0  0  0  0  0  0
  -13.5260    1.5121   21.3548 H   0  0  0  0  0  0  0  0  0  0  0  0
  -13.3963    2.5985   19.9516 H   0  0  0  0  0  0  0  0  0  0  0  0
  -32.5742  -15.9173    9.7934 H   0  0  0  0  0  0  0  0  0  0  0  0
  -32.2332  -16.7127   11.3481 H   0  0  0  0  0  0  0  0  0  0  0  0
  -31.0713  -15.5588   10.6765 H   0  0  0  0  0  0  0  0  0  0  0  0
  -14.2367   -0.2953   20.0213 H   0  0  0  0  0  0  0  0  0  0  0  0
  -15.3139    1.0094   19.6584 H   0  0  0  0  0  0  0  0  0  0  0  0
  -31.8133  -18.2781    9.4245 H   0  0  0  0  0  0  0  0  0  0  0  0
  -30.4498  -17.9555   10.4399 H   0  0  0  0  0  0  0  0  0  0  0  0
  -12.3926   -1.9956   18.0916 H   0  0  0  0  0  0  0  0  0  0  0  0
  -13.7032   -1.8173   19.1602 H   0  0  0  0  0  0  0  0  0  0  0  0
  -28.6337  -18.0375   10.2414 H   0  0  0  0  0  0  0  0  0  0  0  0
  -27.5958  -16.8058    9.6953 H   0  0  0  0  0  0  0  0  0  0  0  0
  -12.1123   -4.2455   16.0102 H   0  0  0  0  0  0  0  0  0  0  0  0
  -11.7532   -3.5584   17.5150 H   0  0  0  0  0  0  0  0  0  0  0  0
  -25.8123  -16.8531    9.7977 H   0  0  0  0  0  0  0  0  0  0  0  0
  -24.7837  -17.2602    8.5132 H   0  0  0  0  0  0  0  0  0  0  0  0
  -11.6836   -7.1909   15.3258 H   0  0  0  0  0  0  0  0  0  0  0  0
  -11.2160   -5.5708   15.2680 H   0  0  0  0  0  0  0  0  0  0  0  0
  -23.0350  -16.9523    8.4756 H   0  0  0  0  0  0  0  0  0  0  0  0
  -21.8444  -18.1022    8.8332 H   0  0  0  0  0  0  0  0  0  0  0  0
   -9.9766   -9.4971   14.7535 H   0  0  0  0  0  0  0  0  0  0  0  0
  -11.0452   -8.3578   14.1945 H   0  0  0  0  0  0  0  0  0  0  0  0
  -20.1231  -17.9309    8.4388 H   0  0  0  0  0  0  0  0  0  0  0  0
  -18.9299  -17.4259    9.5286 H   0  0  0  0  0  0  0  0  0  0  0  0
   -7.3132  -10.8745   13.1422 H   0  0  0  0  0  0  0  0  0  0  0  0
   -8.5424  -10.5137   14.3670 H   0  0  0  0  0  0  0  0  0  0  0  0
  -17.1795  -17.6048    9.2765 H   0  0  0  0  0  0  0  0  0  0  0  0
  -16.1370  -16.3865    8.7180 H   0  0  0  0  0  0  0  0  0  0  0  0
   -7.1541  -13.7186   11.2076 H   0  0  0  0  0  0  0  0  0  0  0  0
   -6.6770  -12.9284   12.6313 H   0  0  0  0  0  0  0  0  0  0  0  0
  -14.3195  -16.4358    8.6712 H   0  0  0  0  0  0  0  0  0  0  0  0
  -13.1185  -16.9520    7.5518 H   0  0  0  0  0  0  0  0  0  0  0  0
   -6.5727  -15.2398   13.0078 H   0  0  0  0  0  0  0  0  0  0  0  0
   -7.9912  -14.7408   13.9814 H   0  0  0  0  0  0  0  0  0  0  0  0
  -13.7202  -18.2658   10.3347 H   0  0  0  0  0  0  0  0  0  0  0  0
  -12.6769  -16.9870   10.0783 H   0  0  0  0  0  0  0  0  0  0  0  0
  -10.4237  -18.2903   11.8373 H   0  0  0  0  0  0  0  0  0  0  0  0
  -11.4759  -16.9413   11.5561 H   0  0  0  0  0  0  0  0  0  0  0  0
  -10.8298  -16.6196    7.8358 H   0  0  0  0  0  0  0  0  0  0  0  0
  -11.6954  -15.8211    9.1379 H   0  0  0  0  0  0  0  0  0  0  0  0
  -12.3116  -13.4083   11.7503 H   0  0  0  0  0  0  0  0  0  0  0  0
  -11.0437  -13.1700   12.7440 H   0  0  0  0  0  0  0  0  0  0  0  0
  -11.0680   -9.7367   10.8192 H   0  0  0  0  0  0  0  0  0  0  0  0
  -12.4735  -10.4474   11.2107 H   0  0  0  0  0  0  0  0  0  0  0  0
   -9.6750  -12.8048    8.4785 H   0  0  0  0  0  0  0  0  0  0  0  0
   -8.4560  -16.4389   10.5737 H   0  0  0  0  0  0  0  0  0  0  0  0
  1 89  1  0  0  0  0
  1 90  1  0  0  0  0
  1 91  1  0  0  0  0
  2 92  1  0  0  0  0
  2 93  1  0  0  0  0
  2 94  1  0  0  0  0
  3  1  1  0  0  0  0
  3 95  1  0  0  0  0
  3 96  1  0  0  0  0
  4  2  1  0  0  0  0
  4 97  1  0  0  0  0
  4 98  1  0  0  0  0
  5  3  1  0  0  0  0
  6  4  1  0  0  0  0
  7  5  2  0  0  0  0
  8  6  2  0  0  0  0
  9  7  1  0  0  0  0
  9 99  1  0  0  0  0
  9100  1  0  0  0  0
 10  8  1  0  0  0  0
 10101  1  0  0  0  0
 10102  1  0  0  0  0
 11  9  1  0  0  0  0
 12 10  1  0  0  0  0
 13 11  2  0  0  0  0
 14 12  2  0  0  0  0
 15 13  1  0  0  0  0
 15103  1  0  0  0  0
 15104  1  0  0  0  0
 16 14  1  0  0  0  0
 16105  1  0  0  0  0
 16106  1  0  0  0  0
 17 15  1  0  0  0  0
 18 16  1  0  0  0  0
 19 17  2  0  0  0  0
 20 18  2  0  0  0  0
 21 19  1  0  0  0  0
 21107  1  0  0  0  0
 21108  1  0  0  0  0
 22 20  1  0  0  0  0
 22109  1  0  0  0  0
 22110  1  0  0  0  0
 23 21  1  0  0  0  0
 24 22  1  0  0  0  0
 25 23  2  0  0  0  0
 26 24  2  0  0  0  0
 27 25  1  0  0  0  0
 27111  1  0  0  0  0
 27112  1  0  0  0  0
 28 26  1  0  0  0  0
 28113  1  0  0  0  0
 28114  1  0  0  0  0
 29 27  1  0  0  0  0
 30 28  1  0  0  0  0
 31 29  2  0  0  0  0
 32 30  2  0  0  0  0
 33 31  1  0  0  0  0
 33115  1  0  0  0  0
 33116  1  0  0  0  0
 34 32  1  0  0  0  0
 34117  1  0  0  0  0
 34118  1  0  0  0  0
 35 33  1  0  0  0  0
 36 34  1  0  0  0  0
 37 35  2  0  0  0  0
 38 36  2  0  0  0  0
 39 37  1  0  0  0  0
 39119  1  0  0  0  0
 39120  1  0  0  0  0
 40 38  1  0  0  0  0
 40121  1  0  0  0  0
 40122  1  0  0  0  0
 41 39  1  0  0  0  0
 41123  1  0  0  0  0
 41124  1  0  0  0  0
 42 40  1  0  0  0  0
 42125  1  0  0  0  0
 42126  1  0  0  0  0
 43127  1  0  0  0  0
 43128  1  0  0  0  0
 44129  1  0  0  0  0
 44130  1  0  0  0  0
 45131  1  0  0  0  0
 45132  1  0  0  0  0
 46 61  1  0  0  0  0
 46 87  1  6  0  0  0
 46 44  1  0  0  0  0
 46 43  1  0  0  0  0
 47 45  1  0  0  0  0
 47 50  1  0  0  0  0
 47 51  1  0  0  0  0
 47 88  1  1  0  0  0
 48 41  1  0  0  0  0
 49 42  1  0  0  0  0
 51133  1  0  0  0  0
 51134  1  0  0  0  0
 52 48  2  0  0  0  0
 53 49  2  0  0  0  0
 54 50  2  0  0  0  0
 55 50  1  0  0  0  0
 55135  1  0  0  0  0
 56136  1  0  0  0  0
 58 43  1  0  0  0  0
 58 48  1  0  0  0  0
 59 44  1  0  0  0  0
 60 45  1  0  0  0  0
 61 49  1  0  0  0  0
 62 56  1  0  0  0  0
 62 57  2  0  0  0  0
 62 59  1  0  0  0  0
 62 60  1  0  0  0  0
 63  5  1  0  0  0  0
 64  6  1  0  0  0  0
 65  7  1  0  0  0  0
 66  8  1  0  0  0  0
 67 11  1  0  0  0  0
 68 12  1  0  0  0  0
 69 13  1  0  0  0  0
 70 14  1  0  0  0  0
 71 17  1  0  0  0  0
 72 18  1  0  0  0  0
 73 19  1  0  0  0  0
 74 20  1  0  0  0  0
 75 23  1  0  0  0  0
 76 24  1  0  0  0  0
 77 25  1  0  0  0  0
 78 26  1  0  0  0  0
 79 29  1  0  0  0  0
 80 30  1  0  0  0  0
 81 31  1  0  0  0  0
 82 32  1  0  0  0  0
 83 35  1  0  0  0  0
 84 36  1  0  0  0  0
 85 37  1  0  0  0  0
 86 38  1  0  0  0  0
M  END
>  <DRUGBANK_ID>
DB11318

>  <COMMON_NAME>
1,2-Docosahexanoyl-sn-glycero-3-phosphoserine

>  <CAS_NUMBER>
133831-23-9

>  <UNII>
DVY07ILF1W

$$$$
