
 OpenBabel10282417183D

 34 36  0  0  0  0  0  0  0  0999 V2000
    1.4177   -0.2440    0.0156 C   0  0  0  0  0  0  0  0  0  0  0  0
    0.5100   -1.3130    0.0190 C   0  0  0  0  0  0  0  0  0  0  0  0
   -0.8650   -1.0838   -0.0104 C   0  0  0  0  0  0  0  0  0  0  0  0
   -1.3391    0.2226   -0.0022 C   0  0  0  0  0  0  0  0  0  0  0  0
   -0.4275    1.2909    0.0197 C   0  0  0  0  0  0  0  0  0  0  0  0
    0.9703    1.0715   -0.0411 C   0  0  0  0  0  0  0  0  0  0  0  0
    2.0560    2.4754   -0.2593 S   0  0  0  0  0  0  0  0  0  0  0  0
    3.8000    2.0363   -0.3435 C   0  0  0  0  0  0  0  0  0  0  0  0
    4.4126    1.3369   -1.3847 C   0  0  0  0  0  0  0  0  0  0  0  0
    5.8343    1.4512   -1.5921 C   0  0  0  0  0  0  0  0  0  0  0  0
    6.5566    2.4313   -0.8056 C   0  0  0  0  0  0  0  0  0  0  0  0
    6.0614    2.4015    0.5033 C   0  0  0  0  0  0  0  0  0  0  0  0
    7.0992    1.7912    1.2655 N   0  0  0  0  0  0  0  0  0  0  0  0
    8.1736    1.7492    0.4514 C   0  0  0  0  0  0  0  0  0  0  0  0
    8.7697    0.7567   -0.3530 N   0  0  0  0  0  0  0  0  0  0  0  0
   10.0249    1.0111   -0.9053 C   0  0  0  0  0  0  0  0  0  0  0  0
   10.3579    0.2916   -2.0226 O   0  0  0  0  0  0  0  0  0  0  0  0
    9.3897   -0.5504   -2.6631 C   0  0  0  0  0  0  0  0  0  0  0  0
    4.6604    2.5285    0.6615 C   0  0  0  0  0  0  0  0  0  0  0  0
   10.8201    1.8716   -0.4839 O   0  0  0  0  0  0  0  0  0  0  0  0
    7.8526    2.7931   -0.3613 N   0  0  0  0  0  0  0  0  0  0  0  0
    2.4780   -0.4605    0.0560 H   0  0  0  0  0  0  0  0  0  0  0  0
    0.8862   -2.3323    0.0283 H   0  0  0  0  0  0  0  0  0  0  0  0
   -1.5596   -1.9212   -0.0234 H   0  0  0  0  0  0  0  0  0  0  0  0
   -2.4124    0.4086   -0.0271 H   0  0  0  0  0  0  0  0  0  0  0  0
   -0.8361    2.2997    0.0810 H   0  0  0  0  0  0  0  0  0  0  0  0
    3.8055    0.6715   -2.0084 H   0  0  0  0  0  0  0  0  0  0  0  0
    6.2988    0.6693   -2.2009 H   0  0  0  0  0  0  0  0  0  0  0  0
    8.1426    0.5684   -1.1304 H   0  0  0  0  0  0  0  0  0  0  0  0
    8.8464   -1.1442   -1.9247 H   0  0  0  0  0  0  0  0  0  0  0  0
    8.7114    0.0936   -3.2301 H   0  0  0  0  0  0  0  0  0  0  0  0
    9.8807   -1.2406   -3.3536 H   0  0  0  0  0  0  0  0  0  0  0  0
    4.2458    2.9468    1.5656 H   0  0  0  0  0  0  0  0  0  0  0  0
    8.6246    3.4241   -0.5661 H   0  0  0  0  0  0  0  0  0  0  0  0
  1  2  2  0  0  0  0
  1  6  1  0  0  0  0
  1 22  1  0  0  0  0
  2  3  1  0  0  0  0
  2 23  1  0  0  0  0
  3  4  2  0  0  0  0
  3 24  1  0  0  0  0
  4  5  1  0  0  0  0
  4 25  1  0  0  0  0
  5  6  2  0  0  0  0
  5 26  1  0  0  0  0
  6  7  1  0  0  0  0
  7  8  1  0  0  0  0
  8  9  1  0  0  0  0
  8 19  2  0  0  0  0
  9 10  2  0  0  0  0
  9 27  1  0  0  0  0
 10 11  1  0  0  0  0
 10 28  1  0  0  0  0
 11 12  2  0  0  0  0
 11 21  1  0  0  0  0
 12 13  1  0  0  0  0
 12 19  1  0  0  0  0
 13 14  2  0  0  0  0
 14 15  1  0  0  0  0
 14 21  1  0  0  0  0
 15 16  1  0  0  0  0
 15 29  1  0  0  0  0
 16 17  1  0  0  0  0
 16 20  2  0  0  0  0
 17 18  1  0  0  0  0
 18 30  1  0  0  0  0
 18 31  1  0  0  0  0
 18 32  1  0  0  0  0
 19 33  1  0  0  0  0
 21 34  1  0  0  0  0
M  END
>  <DRUGBANK_ID>
DB11410

>  <COMMON_NAME>
Fenbendazole

>  <CAS_NUMBER>
43210-67-9

>  <UNII>
621BVT9M36

>  <SYNONYMS>
[5-(phenylthio)-1H-benzimidazol-2-yl]carbamic acid methyl ester; 2-(methoxycarbonylamino)-5-(phenylthio)benzimidazole; 5-(phenylthio)-2-benzimidazolecarbamic acid methyl ester; Fenbendazol; Fenbendazole; Fenbendazolum; Methyl [5-(phenylthio)-1H-benzimidazol-2-yl]carbamate; methyl 5-(phenylthio)-2-benzimidazolecarbamate

$$$$
