
 OpenBabel10282417163D

 43 43  0  0  0  0  0  0  0  0999 V2000
   -2.0744   -3.4623   -6.5503 N   0  3  0  0  0  0  0  0  0  0  0  0
   -1.2043   -3.4632   -1.2081 C   0  0  0  0  0  0  0  0  0  0  0  0
   -1.8667   -4.5343   -0.5894 N   0  0  0  0  0  0  0  0  0  0  0  0
   -3.3540   -4.6363   -0.3251 C   0  0  1  0  0  0  0  0  0  0  0  0
   -2.7476   -3.5481   -5.2663 C   0  0  0  0  0  0  0  0  0  0  0  0
    0.1940   -3.7794   -1.7862 C   0  0  0  0  0  0  0  0  0  0  0  0
   -4.1827   -3.6238   -1.1835 C   0  0  1  0  0  0  0  0  0  0  0  0
   -1.6816   -2.3487   -6.9188 O   0  5  0  0  0  0  0  0  0  0  0  0
   -2.9232   -8.0334    2.7306 C   0  0  0  0  0  0  0  0  0  0  0  0
   -2.0962   -7.5128   -0.2670 C   0  0  0  0  0  0  0  0  0  0  0  0
   -1.9218   -4.5213   -7.1778 O   0  0  0  0  0  0  0  0  0  0  0  0
   -3.7974   -3.6587   -2.6722 C   0  0  0  0  0  0  0  0  0  0  0  0
   -1.7103   -2.3448   -1.3001 O   0  0  0  0  0  0  0  0  0  0  0  0
   -4.0030   -6.0647   -0.5698 C   0  0  0  0  0  0  0  0  0  0  0  0
   -3.2870   -8.9909    3.6019 O   0  0  0  0  0  0  0  0  0  0  0  0
   -3.3628   -7.1968    0.0387 O   0  0  0  0  0  0  0  0  0  0  0  0
   -3.6580   -7.0767    2.5036 O   0  0  0  0  0  0  0  0  0  0  0  0
   -1.4259   -6.9858   -1.1475 O   0  0  0  0  0  0  0  0  0  0  0  0
   -2.4857   -4.6609   -4.4896 C   0  0  0  0  0  0  0  0  0  0  0  0
   -3.5465   -2.5005   -4.7908 C   0  0  0  0  0  0  0  0  0  0  0  0
   -4.0319   -2.5384   -3.4768 C   0  0  0  0  0  0  0  0  0  0  0  0
   -3.0346   -4.7142   -3.2252 C   0  0  0  0  0  0  0  0  0  0  0  0
   -1.5488   -8.2060    2.1204 C   0  0  0  0  0  0  0  0  0  0  0  0
   -1.5458   -8.5730    0.6405 C   0  0  0  0  0  0  0  0  0  0  0  0
    0.2856   -3.5324   -3.5471 Cl  0  0  0  0  0  0  0  0  0  0  0  0
    1.3506   -2.6631   -1.0300 Cl  0  0  0  0  0  0  0  0  0  0  0  0
   -5.5868   -3.8555   -1.0411 O   0  0  0  0  0  0  0  0  0  0  0  0
   -1.3812   -5.4224   -0.6309 H   0  0  0  0  0  0  0  0  0  0  0  0
   -3.4780   -4.4313    0.7469 H   0  0  0  0  0  0  0  0  0  0  0  0
    0.4921   -4.8125   -1.5928 H   0  0  0  0  0  0  0  0  0  0  0  0
   -4.0044   -2.6220   -0.7716 H   0  0  0  0  0  0  0  0  0  0  0  0
   -5.0176   -6.0509   -0.1477 H   0  0  0  0  0  0  0  0  0  0  0  0
   -4.1733   -6.3103   -1.6211 H   0  0  0  0  0  0  0  0  0  0  0  0
   -2.6056   -9.6456    3.8377 H   0  0  0  0  0  0  0  0  0  0  0  0
   -1.7719   -5.4274   -4.7884 H   0  0  0  0  0  0  0  0  0  0  0  0
   -3.7542   -1.6355   -5.4123 H   0  0  0  0  0  0  0  0  0  0  0  0
   -4.5032   -1.6529   -3.0515 H   0  0  0  0  0  0  0  0  0  0  0  0
   -2.6847   -5.5571   -2.6441 H   0  0  0  0  0  0  0  0  0  0  0  0
   -1.0044   -8.9840    2.6682 H   0  0  0  0  0  0  0  0  0  0  0  0
   -0.9975   -7.2736    2.2939 H   0  0  0  0  0  0  0  0  0  0  0  0
   -2.0607   -9.5144    0.4357 H   0  0  0  0  0  0  0  0  0  0  0  0
   -0.4989   -8.7002    0.3308 H   0  0  0  0  0  0  0  0  0  0  0  0
   -6.0301   -3.4849   -1.8226 H   0  0  0  0  0  0  0  0  0  0  0  0
  2  3  1  0  0  0  0
  3 28  1  0  0  0  0
  4 14  1  0  0  0  0
  4 29  1  1  0  0  0
  4  7  1  0  0  0  0
  4  3  1  0  0  0  0
  5  1  1  0  0  0  0
  6  2  1  0  0  0  0
  6 30  1  0  0  0  0
  7 31  1  1  0  0  0
  7 27  1  0  0  0  0
  7 12  1  0  0  0  0
  8  1  1  0  0  0  0
  9 23  1  0  0  0  0
 10 16  1  0  0  0  0
 11  1  2  0  0  0  0
 12 22  2  0  0  0  0
 12 21  1  0  0  0  0
 13  2  2  0  0  0  0
 14 32  1  0  0  0  0
 14 33  1  0  0  0  0
 15  9  1  0  0  0  0
 15 34  1  0  0  0  0
 16 14  1  0  0  0  0
 17  9  2  0  0  0  0
 18 10  2  0  0  0  0
 19  5  2  0  0  0  0
 19 35  1  0  0  0  0
 20  5  1  0  0  0  0
 20 36  1  0  0  0  0
 21 20  2  0  0  0  0
 21 37  1  0  0  0  0
 22 19  1  0  0  0  0
 22 38  1  0  0  0  0
 23 24  1  0  0  0  0
 23 39  1  0  0  0  0
 23 40  1  0  0  0  0
 24 10  1  0  0  0  0
 24 41  1  0  0  0  0
 24 42  1  0  0  0  0
 25  6  1  0  0  0  0
 26  6  1  0  0  0  0
 27 43  1  0  0  0  0
M  CHG  2   1   1   8  -1
M  END
>  <DRUGBANK_ID>
DB07565

>  <COMMON_NAME>
Chloramphenicol succinate

>  <CAS_NUMBER>
3544-94-3

>  <UNII>
ZCX619U9A1

>  <SYNONYMS>
Chloramphenicol hemisuccinate

$$$$
