
 OpenBabel10282417103D

 45 46  0  0  1  0  0  0  0  0999 V2000
    0.4165   -0.1796   -0.0334 C   0  0  0  0  0  0  0  0  0  0  0  0
    0.5981    2.3489   -0.7985 C   0  0  0  0  0  0  0  0  0  0  0  0
   -1.3006    1.3764    0.4949 C   0  0  0  0  0  0  0  0  0  0  0  0
    5.1508    1.0381    2.2895 C   0  0  0  0  0  0  0  0  0  0  0  0
    3.0634   -0.2646    1.8931 C   0  0  0  0  0  0  0  0  0  0  0  0
    5.2838    1.2456    0.7290 C   0  0  0  0  0  0  0  0  0  0  0  0
    3.3965    0.0520    0.2299 C   0  0  0  0  0  0  0  0  0  0  0  0
    2.0747    2.3803    1.4915 C   0  0  0  0  0  0  0  0  0  0  0  0
    2.4274    4.6105    1.9952 C   0  0  0  0  0  0  0  0  0  0  0  0
    2.9318    3.5742    1.0778 C   0  0  1  0  0  0  0  0  0  0  0  0
    3.1613    1.6111    3.9293 C   0  0  0  0  0  0  0  0  0  0  0  0
    2.8737    3.2734    4.0923 C   0  0  0  0  0  0  0  0  0  0  0  0
    0.2027    1.3268    0.2669 C   0  0  0  0  0  0  0  0  0  0  0  0
    0.7574    1.8242    1.4896 N   0  0  0  0  0  0  0  0  0  0  0  0
    2.4221    1.0280    4.9099 N   0  0  0  0  0  0  0  0  0  0  0  0
    2.1155    3.6279    5.0818 N   0  0  0  0  0  0  0  0  0  0  0  0
    3.7998    0.7906    2.8561 N   0  0  0  0  0  0  0  0  0  0  0  0
    4.3553    3.5762    1.4054 O   0  0  0  0  0  0  0  0  0  0  0  0
    4.7939    0.1236   -0.0007 O   0  0  0  0  0  0  0  0  0  0  0  0
    3.1550    4.3935    3.2730 O   0  0  0  0  0  0  0  0  0  0  0  0
    1.6610    2.2067    5.8266 S   0  0  0  0  0  0  0  0  0  0  0  0
    2.9208    3.6774   -0.0025 H   0  0  0  0  0  0  0  0  0  0  0  0
    0.2233   -0.3897   -1.0858 H   0  0  0  0  0  0  0  0  0  0  0  0
   -0.2205   -0.8173    0.5943 H   0  0  0  0  0  0  0  0  0  0  0  0
    1.3523   -0.6515    0.1861 H   0  0  0  0  0  0  0  0  0  0  0  0
    0.0696    2.1894   -1.7301 H   0  0  0  0  0  0  0  0  0  0  0  0
    0.3551    3.3610   -0.4305 H   0  0  0  0  0  0  0  0  0  0  0  0
    1.6661    2.3639   -1.0340 H   0  0  0  0  0  0  0  0  0  0  0  0
   -1.6046    0.6292    1.2433 H   0  0  0  0  0  0  0  0  0  0  0  0
   -1.6298    2.3529    0.8536 H   0  0  0  0  0  0  0  0  0  0  0  0
   -1.7910    1.1442   -0.4499 H   0  0  0  0  0  0  0  0  0  0  0  0
    5.6796    0.0925    2.4449 H   0  0  0  0  0  0  0  0  0  0  0  0
    5.6563    1.8113    2.8612 H   0  0  0  0  0  0  0  0  0  0  0  0
    3.4374   -1.2801    2.0545 H   0  0  0  0  0  0  0  0  0  0  0  0
    1.9881   -0.2895    2.1295 H   0  0  0  0  0  0  0  0  0  0  0  0
    4.8313    2.1024    0.2311 H   0  0  0  0  0  0  0  0  0  0  0  0
    6.3376    1.3619    0.4809 H   0  0  0  0  0  0  0  0  0  0  0  0
    3.0003   -0.6430   -0.5211 H   0  0  0  0  0  0  0  0  0  0  0  0
    2.9621    0.9818   -0.1770 H   0  0  0  0  0  0  0  0  0  0  0  0
    1.9697    2.4678    2.5191 H   0  0  0  0  0  0  0  0  0  0  0  0
    2.7965    1.6502    1.3680 H   0  0  0  0  0  0  0  0  0  0  0  0
    2.7443    5.5503    1.5296 H   0  0  0  0  0  0  0  0  0  0  0  0
    1.3304    4.5886    2.0400 H   0  0  0  0  0  0  0  0  0  0  0  0
    0.1298    2.4314    2.0233 H   0  0  0  0  0  0  0  0  0  0  0  0
    4.4704    3.5586    2.3768 H   0  0  0  0  0  0  0  0  0  0  0  0
  1 23  1  0  0  0  0
  1 24  1  0  0  0  0
  1 25  1  0  0  0  0
  2 26  1  0  0  0  0
  2 27  1  0  0  0  0
  2 28  1  0  0  0  0
  3 29  1  0  0  0  0
  3 30  1  0  0  0  0
  3 31  1  0  0  0  0
  4 32  1  0  0  0  0
  4 33  1  0  0  0  0
  5 34  1  0  0  0  0
  5 35  1  0  0  0  0
  6  4  1  0  0  0  0
  6 36  1  0  0  0  0
  6 37  1  0  0  0  0
  7  5  1  0  0  0  0
  7 38  1  0  0  0  0
  7 39  1  0  0  0  0
  8 40  1  0  0  0  0
  8 41  1  0  0  0  0
  9 42  1  0  0  0  0
  9 43  1  0  0  0  0
 10  8  1  0  0  0  0
 10  9  1  0  0  0  0
 10 18  1  0  0  0  0
 10 22  1  6  0  0  0
 12 11  1  0  0  0  0
 13  1  1  0  0  0  0
 13  2  1  0  0  0  0
 13  3  1  0  0  0  0
 14  8  1  0  0  0  0
 14 13  1  0  0  0  0
 14 44  1  0  0  0  0
 15 11  2  0  0  0  0
 16 12  2  0  0  0  0
 17  4  1  0  0  0  0
 17  5  1  0  0  0  0
 17 11  1  0  0  0  0
 18 45  1  0  0  0  0
 19  6  1  0  0  0  0
 19  7  1  0  0  0  0
 20  9  1  0  0  0  0
 20 12  1  0  0  0  0
 21 15  1  0  0  0  0
 21 16  1  0  0  0  0
M  END
>  <DRUGBANK_ID>
DB00373

>  <SECONDARY_ACCESSION_NUMBERS>
APRD00229; DB08625

>  <COMMON_NAME>
Timolol

>  <CAS_NUMBER>
26839-75-8

>  <UNII>
5JKY92S7BR

>  <SYNONYMS>
(S)-1-(tert-butylamino)-3-[(4-morpholin-4-yl-1,2,5-thiadiazol-3-yl)oxy]propan-2-ol; Timolol; Timolol anhydrous; Timololo; Timololum

$$$$
