
 OpenBabel10282417113D

 52 55  0  0  0  0  0  0  0  0999 V2000
    0.1659   -1.3665    0.2817 N   0  0  0  0  0  0  0  0  0  0  0  0
    1.4432   -0.7452    0.1957 C   0  0  0  0  0  0  0  0  0  0  0  0
    0.1697    1.6745   -0.3681 S   0  0  0  0  0  0  0  0  0  0  0  0
    2.5521   -1.5827    0.0799 C   0  0  0  0  0  0  0  0  0  0  0  0
   -0.7507   -1.0099   -0.8445 C   0  0  0  0  0  0  0  0  0  0  0  0
    1.5707    0.6262   -0.0954 C   0  0  0  0  0  0  0  0  0  0  0  0
   -0.9388    0.4286   -1.1082 C   0  0  0  0  0  0  0  0  0  0  0  0
    0.1424   -2.1020    1.8070 C   0  0  0  0  0  0  0  0  0  0  0  0
    3.7349   -1.0974   -0.4357 C   0  0  0  0  0  0  0  0  0  0  0  0
    5.0031   -2.3200   -0.7953 S   0  0  3  0  0  0  0  0  0  0  0  0
   -2.8848   -2.4203    2.6089 N   0  0  0  0  0  0  0  0  0  0  0  0
   -0.5922   -1.5629    3.1832 C   0  0  0  0  0  0  0  0  0  0  0  0
   -2.1443   -1.3789    3.3619 C   0  0  3  0  0  0  0  0  0  0  0  0
    2.7845    1.1404   -0.4764 C   0  0  0  0  0  0  0  0  0  0  0  0
    4.3994   -3.2003   -1.8541 O   0  0  0  0  0  0  0  0  0  0  0  0
    3.8466    0.2765   -0.7207 C   0  0  0  0  0  0  0  0  0  0  0  0
   -2.6450   -3.7915    3.0100 C   0  0  0  0  0  0  0  0  0  0  0  0
   -2.6136   -2.2891    1.2186 C   0  0  0  0  0  0  0  0  0  0  0  0
   -1.7984   -1.8381   -1.4316 C   0  0  0  0  0  0  0  0  0  0  0  0
    6.2517   -1.2889   -1.5600 C   0  0  0  0  0  0  0  0  0  0  0  0
   -2.2298    0.9809   -1.4916 C   0  0  0  0  0  0  0  0  0  0  0  0
   -2.5278    0.1025    3.0230 C   0  0  0  0  0  0  0  0  0  0  0  0
   -2.8134   -0.7979    0.9859 C   0  0  0  0  0  0  0  0  0  0  0  0
   -3.1250   -1.2540   -1.7720 C   0  0  0  0  0  0  0  0  0  0  0  0
   -3.3453    0.1505   -1.7362 C   0  0  0  0  0  0  0  0  0  0  0  0
   -2.0136    0.2838    1.6805 C   0  0  0  0  0  0  0  0  0  0  0  0
    2.4137   -2.6597    0.2161 H   0  0  0  0  0  0  0  0  0  0  0  0
   -0.0236   -3.1847    1.6977 H   0  0  0  0  0  0  0  0  0  0  0  0
    1.1891   -2.1199    2.1704 H   0  0  0  0  0  0  0  0  0  0  0  0
   -0.3626   -2.3009    3.9721 H   0  0  0  0  0  0  0  0  0  0  0  0
   -0.0883   -0.6518    3.5358 H   0  0  0  0  0  0  0  0  0  0  0  0
   -2.4931   -1.4619    4.3895 H   0  0  0  0  0  0  0  0  0  0  0  0
    2.8626    2.1927   -0.7516 H   0  0  0  0  0  0  0  0  0  0  0  0
    4.6985    0.7004   -1.2224 H   0  0  0  0  0  0  0  0  0  0  0  0
   -3.0787   -4.4952    2.2843 H   0  0  0  0  0  0  0  0  0  0  0  0
   -1.5858   -4.0491    3.0947 H   0  0  0  0  0  0  0  0  0  0  0  0
   -3.1450   -3.9477    3.9613 H   0  0  0  0  0  0  0  0  0  0  0  0
   -1.6561   -2.7105    0.9207 H   0  0  0  0  0  0  0  0  0  0  0  0
   -3.2509   -2.9136    0.5818 H   0  0  0  0  0  0  0  0  0  0  0  0
   -1.8068   -2.9209   -1.2854 H   0  0  0  0  0  0  0  0  0  0  0  0
    5.8664   -0.8229   -2.4709 H   0  0  0  0  0  0  0  0  0  0  0  0
    6.5715   -0.5286   -0.8427 H   0  0  0  0  0  0  0  0  0  0  0  0
    7.1018   -1.9221   -1.8082 H   0  0  0  0  0  0  0  0  0  0  0  0
   -2.4436    2.0228   -1.2150 H   0  0  0  0  0  0  0  0  0  0  0  0
   -3.6084    0.2957    2.9375 H   0  0  0  0  0  0  0  0  0  0  0  0
   -2.0849    0.8677    3.6556 H   0  0  0  0  0  0  0  0  0  0  0  0
   -3.8865   -0.5942    0.9731 H   0  0  0  0  0  0  0  0  0  0  0  0
   -2.5265   -0.5686    0.0967 H   0  0  0  0  0  0  0  0  0  0  0  0
   -4.0263   -1.8700   -1.5653 H   0  0  0  0  0  0  0  0  0  0  0  0
   -4.3518    0.5536   -1.5183 H   0  0  0  0  0  0  0  0  0  0  0  0
   -2.2128    1.2721    1.2505 H   0  0  0  0  0  0  0  0  0  0  0  0
   -0.9196    0.2086    1.6764 H   0  0  0  0  0  0  0  0  0  0  0  0
  2  1  1  0  0  0  0
  4  2  1  0  0  0  0
  4 27  1  0  0  0  0
  5  1  1  0  0  0  0
  6  2  2  0  0  0  0
  6  3  1  0  0  0  0
  7  3  1  0  0  0  0
  7  5  2  0  0  0  0
  8  1  1  0  0  0  0
  8 28  1  0  0  0  0
  8 29  1  0  0  0  0
  9  4  2  0  0  0  0
 10  9  1  0  0  0  0
 12  8  1  0  0  0  0
 12 30  1  0  0  0  0
 12 31  1  0  0  0  0
 13 11  1  0  0  0  0
 13 12  1  0  0  0  0
 13 32  1  0  0  0  0
 14  6  1  0  0  0  0
 14 33  1  0  0  0  0
 15 10  2  0  0  0  0
 16  9  1  0  0  0  0
 16 14  2  0  0  0  0
 16 34  1  0  0  0  0
 17 11  1  0  0  0  0
 17 35  1  0  0  0  0
 17 36  1  0  0  0  0
 17 37  1  0  0  0  0
 18 11  1  0  0  0  0
 18 38  1  0  0  0  0
 18 39  1  0  0  0  0
 19  5  1  0  0  0  0
 19 40  1  0  0  0  0
 20 10  1  0  0  0  0
 20 41  1  0  0  0  0
 20 42  1  0  0  0  0
 20 43  1  0  0  0  0
 21  7  1  0  0  0  0
 21 44  1  0  0  0  0
 22 13  1  0  0  0  0
 22 45  1  0  0  0  0
 22 46  1  0  0  0  0
 23 18  1  0  0  0  0
 23 47  1  0  0  0  0
 23 48  1  0  0  0  0
 24 19  2  0  0  0  0
 24 49  1  0  0  0  0
 25 21  2  0  0  0  0
 25 24  1  0  0  0  0
 25 50  1  0  0  0  0
 26 22  1  0  0  0  0
 26 23  1  0  0  0  0
 26 51  1  0  0  0  0
 26 52  1  0  0  0  0
M  END
>  <DRUGBANK_ID>
DB00933

>  <SECONDARY_ACCESSION_NUMBERS>
APRD00610

>  <COMMON_NAME>
Mesoridazine

>  <CAS_NUMBER>
5588-33-0

>  <UNII>
5XE4NWM740

>  <SYNONYMS>
10-(2-(1-Methyl-2-piperidyl)ethyl)-2-methylsulfinyl phenothiazine; 10-(2(1-Methyl-2-piperidyl)ethyl)-2-(methylsulfinyl)phenothiazine; 2-Methanesulfinyl-10-[2-(1-methyl-piperidin-2-yl)-ethyl]-10H-phenothiazine; Mesoridazina; Mesoridazine; Mesoridazinum; Thioridazine 2-sulfoxide; Thioridazine thiomethyl sulfoxide; Thioridazine-2-sulfoxide

$$$$
