35F
 OpenBabel10282417163D

 42 46  0  0  0  0  0  0  0  0999 V2000
    1.0667   -1.4347   -0.0154 C   0  0  0  0  0  0  0  0  0  0  0  0
   -0.1543   -0.7448   -0.0009 C   0  0  0  0  0  0  0  0  0  0  0  0
   -0.1588    0.6439    0.0003 C   0  0  0  0  0  0  0  0  0  0  0  0
   -2.0455   -2.4803    0.0198 C   0  0  0  0  0  0  0  0  0  0  0  0
   -3.2410   -5.0045    0.0563 C   0  0  0  0  0  0  0  0  0  0  0  0
   -1.7549   -3.3647    1.0560 C   0  0  0  0  0  0  0  0  0  0  0  0
    3.5212   -1.3983   -0.0079 C   0  0  0  0  0  0  0  0  0  0  0  0
    5.4231   -2.0319    0.6367 C   0  0  0  0  0  0  0  0  0  0  0  0
   -5.0796   -3.5563   -2.8800 C   0  0  0  0  0  0  0  0  0  0  0  0
   -6.2582   -4.0045   -3.5796 C   0  0  0  0  0  0  0  0  0  0  0  0
   -8.2749   -4.6653   -4.3064 C   0  0  0  0  0  0  0  0  0  0  0  0
   -4.5619   -2.4825   -3.1967 O   0  0  0  0  0  0  0  0  0  0  0  0
   -6.2935   -3.8368   -4.9389 O   0  0  0  0  0  0  0  0  0  0  0  0
   -7.5095   -4.2496   -5.3693 C   0  0  0  0  0  0  0  0  0  0  0  0
   -7.4713   -4.5067   -3.1491 C   0  0  0  0  0  0  0  0  0  0  0  0
   -4.6154   -4.4050   -1.8736 N   0  0  0  0  0  0  0  0  0  0  0  0
   -3.5633   -4.1044   -0.9691 C   0  0  0  0  0  0  0  0  0  0  0  0
   -2.8847   -2.8869   -1.0149 C   0  0  0  0  0  0  0  0  0  0  0  0
   -2.3327   -4.6353    1.0615 C   0  0  0  0  0  0  0  0  0  0  0  0
   -1.5192   -1.1248    0.0071 C   0  0  0  0  0  0  0  0  0  0  0  0
   -2.3265   -0.0514   -0.0024 N   0  0  0  0  0  0  0  0  0  0  0  0
   -1.4816    0.9927   -0.0042 N   0  0  0  0  0  0  0  0  0  0  0  0
    1.0103    1.4079    0.0040 C   0  0  0  0  0  0  0  0  0  0  0  0
    2.2216    0.7037    0.0088 C   0  0  0  0  0  0  0  0  0  0  0  0
    2.2550   -0.6971   -0.0075 C   0  0  0  0  0  0  0  0  0  0  0  0
    4.4563   -1.2171    0.9832 N   0  0  0  0  0  0  0  0  0  0  0  0
    5.0989   -2.6505   -0.5266 N   0  0  0  0  0  0  0  0  0  0  0  0
    3.8781   -2.2900   -0.9449 N   0  0  0  0  0  0  0  0  0  0  0  0
    1.0835   -2.5209   -0.0250 H   0  0  0  0  0  0  0  0  0  0  0  0
   -3.6888   -5.9940    0.1063 H   0  0  0  0  0  0  0  0  0  0  0  0
   -1.0888   -3.0617    1.8598 H   0  0  0  0  0  0  0  0  0  0  0  0
    6.3477   -2.2024    1.1676 H   0  0  0  0  0  0  0  0  0  0  0  0
   -9.2954   -5.0153   -4.3608 H   0  0  0  0  0  0  0  0  0  0  0  0
   -7.6769   -4.1723   -6.4352 H   0  0  0  0  0  0  0  0  0  0  0  0
   -7.7567   -4.6729   -2.1208 H   0  0  0  0  0  0  0  0  0  0  0  0
   -5.1159   -5.2725   -1.7245 H   0  0  0  0  0  0  0  0  0  0  0  0
   -2.9992   -2.1928   -1.8381 H   0  0  0  0  0  0  0  0  0  0  0  0
   -2.0988   -5.3198    1.8738 H   0  0  0  0  0  0  0  0  0  0  0  0
   -1.8743    1.9272   -0.0022 H   0  0  0  0  0  0  0  0  0  0  0  0
    0.9905    2.4923    0.0020 H   0  0  0  0  0  0  0  0  0  0  0  0
    3.1574    1.2593    0.0109 H   0  0  0  0  0  0  0  0  0  0  0  0
    5.6367   -3.3115   -1.0751 H   0  0  0  0  0  0  0  0  0  0  0  0
  1  2  2  0  0  0  0
  1 25  1  0  0  0  0
  1 29  1  0  0  0  0
  2  3  1  0  0  0  0
  2 20  1  0  0  0  0
  3 22  1  0  0  0  0
  3 23  2  0  0  0  0
  4  6  2  0  0  0  0
  4 18  1  0  0  0  0
  4 20  1  0  0  0  0
  5 17  1  0  0  0  0
  5 19  2  0  0  0  0
  5 30  1  0  0  0  0
  6 19  1  0  0  0  0
  6 31  1  0  0  0  0
  7 25  1  0  0  0  0
  7 26  1  0  0  0  0
  7 28  2  0  0  0  0
  8 26  2  0  0  0  0
  8 27  1  0  0  0  0
  8 32  1  0  0  0  0
  9 10  1  0  0  0  0
  9 12  2  0  0  0  0
  9 16  1  0  0  0  0
 10 13  1  0  0  0  0
 10 15  2  0  0  0  0
 11 14  2  0  0  0  0
 11 15  1  0  0  0  0
 11 33  1  0  0  0  0
 13 14  1  0  0  0  0
 14 34  1  0  0  0  0
 15 35  1  0  0  0  0
 16 17  1  0  0  0  0
 16 36  1  0  0  0  0
 17 18  2  0  0  0  0
 18 37  1  0  0  0  0
 19 38  1  0  0  0  0
 20 21  2  0  0  0  0
 21 22  1  0  0  0  0
 22 39  1  0  0  0  0
 23 24  1  0  0  0  0
 23 40  1  0  0  0  0
 24 25  2  0  0  0  0
 24 41  1  0  0  0  0
 27 28  1  0  0  0  0
 27 42  1  0  0  0  0
M  END
>  <DRUGBANK_ID>
DB07020

>  <COMMON_NAME>
N-{3-[5-(1H-1,2,4-triazol-3-yl)-1H-indazol-3-yl]phenyl}furan-2-carboxamide

$$$$
