
 OpenBabel10282417193D

 53 58  0  0  0  0  0  0  0  0999 V2000
   -3.0231    1.1557   -0.0032 C   0  0  0  0  0  0  0  0  0  0  0  0
   -3.3962   -0.1915   -0.0019 C   0  0  0  0  0  0  0  0  0  0  0  0
   -2.4360   -1.2041    0.0028 C   0  0  0  0  0  0  0  0  0  0  0  0
   -1.1067   -0.7931    0.0126 C   0  0  0  0  0  0  0  0  0  0  0  0
   -0.6873    0.5338    0.0138 C   0  0  0  0  0  0  0  0  0  0  0  0
   -1.6719    1.5375    0.0006 C   0  0  0  0  0  0  0  0  0  0  0  0
    0.7345    0.4865    0.0299 C   0  0  0  0  0  0  0  0  0  0  0  0
    1.0718   -0.8544    0.0309 C   0  0  0  0  0  0  0  0  0  0  0  0
   -0.0435   -1.6338    0.0214 O   0  0  0  0  0  0  0  0  0  0  0  0
    2.3952   -1.2807    0.0281 C   0  0  0  0  0  0  0  0  0  0  0  0
    3.3310   -0.2968    0.0877 N   0  0  0  0  0  0  0  0  0  0  0  0
    2.9231    0.9925    0.0552 C   0  0  0  0  0  0  0  0  0  0  0  0
    1.6647    1.4715    0.0247 N   0  0  0  0  0  0  0  0  0  0  0  0
    2.7929   -2.5827   -0.1746 N   0  0  0  0  0  0  0  0  0  0  0  0
    3.6320   -3.2107    0.8321 C   0  0  0  0  0  0  0  0  0  0  0  0
    4.4857   -4.2707    0.1089 C   0  0  0  0  0  0  0  0  0  0  0  0
    3.6482   -5.3024   -0.5543 N   0  0  0  0  0  0  0  0  0  0  0  0
    2.7467   -4.6236   -1.5268 C   0  0  0  0  0  0  0  0  0  0  0  0
    1.8964   -3.5291   -0.8489 C   0  0  0  0  0  0  0  0  0  0  0  0
    3.6208   -6.6684   -0.3915 C   0  0  0  0  0  0  0  0  0  0  0  0
    2.5687   -7.7151   -1.2080 S   0  0  0  0  0  0  0  0  0  0  0  0
    4.4413   -7.3508    0.4312 N   0  0  0  0  0  0  0  0  0  0  0  0
    5.5084   -7.0423    1.3538 C   0  0  0  0  0  0  0  0  0  0  0  0
    4.9816   -7.0762    2.7528 C   0  0  0  0  0  0  0  0  0  0  0  0
    4.9792   -8.1745    3.6042 C   0  0  0  0  0  0  0  0  0  0  0  0
    4.6726   -7.9733    4.9709 C   0  0  0  0  0  0  0  0  0  0  0  0
    4.0733   -6.7451    5.2629 C   0  0  0  0  0  0  0  0  0  0  0  0
    3.5538   -6.0237    4.2770 C   0  0  0  0  0  0  0  0  0  0  0  0
    4.3481   -5.9154    3.1738 C   0  0  0  0  0  0  0  0  0  0  0  0
    2.7555   -5.0032    4.6912 O   0  0  0  0  0  0  0  0  0  0  0  0
    3.5588   -4.7124    5.8224 C   0  0  0  0  0  0  0  0  0  0  0  0
    4.0804   -5.9637    6.3983 O   0  0  0  0  0  0  0  0  0  0  0  0
   -3.7946    1.9227   -0.0048 H   0  0  0  0  0  0  0  0  0  0  0  0
   -4.4506   -0.4600   -0.0031 H   0  0  0  0  0  0  0  0  0  0  0  0
   -2.7021   -2.2546    0.0034 H   0  0  0  0  0  0  0  0  0  0  0  0
   -1.3908    2.5862   -0.0014 H   0  0  0  0  0  0  0  0  0  0  0  0
    3.7143    1.7379    0.0323 H   0  0  0  0  0  0  0  0  0  0  0  0
    4.2898   -2.5093    1.3581 H   0  0  0  0  0  0  0  0  0  0  0  0
    3.0018   -3.7006    1.5894 H   0  0  0  0  0  0  0  0  0  0  0  0
    5.0799   -3.8007   -0.6842 H   0  0  0  0  0  0  0  0  0  0  0  0
    5.1923   -4.6112    0.8330 H   0  0  0  0  0  0  0  0  0  0  0  0
    3.4038   -4.1615   -2.2756 H   0  0  0  0  0  0  0  0  0  0  0  0
    2.0823   -5.2956   -2.0689 H   0  0  0  0  0  0  0  0  0  0  0  0
    1.2127   -3.9836   -0.1207 H   0  0  0  0  0  0  0  0  0  0  0  0
    1.3136   -3.0280   -1.6279 H   0  0  0  0  0  0  0  0  0  0  0  0
    4.1828   -8.3314    0.4532 H   0  0  0  0  0  0  0  0  0  0  0  0
    6.3353   -7.7365    1.2011 H   0  0  0  0  0  0  0  0  0  0  0  0
    5.9546   -6.0859    1.1481 H   0  0  0  0  0  0  0  0  0  0  0  0
    5.2975   -9.1537    3.2414 H   0  0  0  0  0  0  0  0  0  0  0  0
    4.8818   -8.7309    5.7018 H   0  0  0  0  0  0  0  0  0  0  0  0
    4.5241   -4.9487    2.7692 H   0  0  0  0  0  0  0  0  0  0  0  0
    4.3484   -4.0549    5.4088 H   0  0  0  0  0  0  0  0  0  0  0  0
    2.9944   -4.1218    6.5478 H   0  0  0  0  0  0  0  0  0  0  0  0
  1  2  1  0  0  0  0
  1  6  2  0  0  0  0
  1 33  1  0  0  0  0
  2  3  2  0  0  0  0
  2 34  1  0  0  0  0
  3  4  1  0  0  0  0
  3 35  1  0  0  0  0
  4  5  2  0  0  0  0
  4  9  1  0  0  0  0
  5  6  1  0  0  0  0
  5  7  1  0  0  0  0
  6 36  1  0  0  0  0
  7  8  2  0  0  0  0
  7 13  1  0  0  0  0
  8  9  1  0  0  0  0
  8 10  1  0  0  0  0
 10 11  2  0  0  0  0
 10 14  1  0  0  0  0
 11 12  1  0  0  0  0
 12 13  2  0  0  0  0
 12 37  1  0  0  0  0
 14 15  1  0  0  0  0
 14 19  1  0  0  0  0
 15 16  1  0  0  0  0
 15 38  1  0  0  0  0
 15 39  1  0  0  0  0
 16 17  1  0  0  0  0
 16 40  1  0  0  0  0
 16 41  1  0  0  0  0
 17 18  1  0  0  0  0
 17 20  1  0  0  0  0
 18 19  1  0  0  0  0
 18 42  1  0  0  0  0
 18 43  1  0  0  0  0
 19 44  1  0  0  0  0
 19 45  1  0  0  0  0
 20 21  2  0  0  0  0
 20 22  1  0  0  0  0
 22 23  1  0  0  0  0
 22 46  1  0  0  0  0
 23 24  1  0  0  0  0
 23 47  1  0  0  0  0
 23 48  1  0  0  0  0
 24 25  2  0  0  0  0
 24 29  1  0  0  0  0
 25 26  1  0  0  0  0
 25 49  1  0  0  0  0
 26 27  2  0  0  0  0
 26 50  1  0  0  0  0
 27 28  1  0  0  0  0
 27 32  1  0  0  0  0
 28 29  2  0  0  0  0
 28 30  1  0  0  0  0
 29 51  1  0  0  0  0
 30 31  1  0  0  0  0
 31 32  1  0  0  0  0
 31 52  1  0  0  0  0
 31 53  1  0  0  0  0
M  END
>  <DRUGBANK_ID>
DB12742

>  <SECONDARY_ACCESSION_NUMBERS>
DB05216

>  <COMMON_NAME>
Amuvatinib

>  <CAS_NUMBER>
850879-09-3

>  <UNII>
SO9S6QZB4R

>  <SYNONYMS>
1-Piperazinecarbothioamide, N-(1,3-benzodioxol-5-ylmethyl)-4-benzofuro(3,2-d)pyrimidin-4-yl-; 4-[1]Benzofuro[3,2-D]Pyrimidin-4-Yl-N-(1,3-Benzodioxol-5-Ylmethyl)Piperazine-1-Carbothioamide; Amuvatinib; N-(1,3-Benzodioxol-5-ylmethyl)-4-(benzofuro(3,2-d)pyrimidin-4-yl)piperazine-1- carbothioamide

$$$$
