
 OpenBabel10282417193D

 57 60  0  0  1  0  0  0  0  0999 V2000
    0.8943   -0.0680    0.0857 C   0  0  0  0  0  0  0  0  0  0  0  0
    0.4020    1.0242    1.0324 C   0  0  0  0  0  0  0  0  0  0  0  0
    0.8413    2.3813    0.6229 C   0  0  0  0  0  0  0  0  0  0  0  0
    1.8389    2.6811   -0.3193 C   0  0  0  0  0  0  0  0  0  0  0  0
    1.9829    3.9765   -0.5096 N   0  0  0  0  0  0  0  0  0  0  0  0
    1.0713    4.5670    0.3086 N   0  0  0  0  0  0  0  0  0  0  0  0
    0.3845    3.6131    1.0695 C   0  0  0  0  0  0  0  0  0  0  0  0
   -0.5371    3.9644    2.0291 N   0  0  0  0  0  0  0  0  0  0  0  0
   -0.8307    5.2387    2.1740 C   0  0  0  0  0  0  0  0  0  0  0  0
   -0.1637    6.2972    1.3108 C   0  0  0  0  0  0  0  0  0  0  0  0
    0.7961    5.9465    0.4225 C   0  0  0  0  0  0  0  0  0  0  0  0
    1.4840    6.8880   -0.3572 N   0  0  0  0  0  0  0  0  0  0  0  0
    2.5883    6.6650   -1.2798 C   0  0  0  0  0  0  0  0  0  0  0  0
    2.2282    7.1337   -2.6611 C   0  0  0  0  0  0  0  0  0  0  0  0
    2.3145    8.4856   -2.9918 C   0  0  0  0  0  0  0  0  0  0  0  0
    2.0834    8.8981   -4.2970 C   0  0  0  0  0  0  0  0  0  0  0  0
    1.7548    7.9516   -5.2659 C   0  0  0  0  0  0  0  0  0  0  0  0
    1.6311    6.6074   -4.9570 N   0  3  0  0  0  0  0  0  0  0  0  0
    1.8558    6.2115   -3.6516 C   0  0  0  0  0  0  0  0  0  0  0  0
    1.3396    5.7632   -5.8584 O   0  5  0  0  0  0  0  0  0  0  0  0
   -1.7207    5.6363    3.1885 N   0  0  0  0  0  0  0  0  0  0  0  0
   -1.5493    5.1585    4.5677 C   0  0  0  0  0  0  0  0  0  0  0  0
   -2.7465    4.3303    5.0343 C   0  0  0  0  0  0  0  0  0  0  0  0
   -4.0895    5.0171    4.7864 C   0  0  0  0  0  0  0  0  0  0  0  0
   -4.1840    5.4977    3.3425 C   0  0  0  0  0  0  0  0  0  0  0  0
   -2.9779    6.3699    2.9456 C   0  0  1  0  0  0  0  0  0  0  0  0
   -3.0007    7.6933    3.7457 C   0  0  0  0  0  0  0  0  0  0  0  0
   -1.9712    8.6882    3.2480 C   0  0  0  0  0  0  0  0  0  0  0  0
   -2.2722    9.1103    1.9256 O   0  0  0  0  0  0  0  0  0  0  0  0
    0.5533    0.1165   -0.9405 H   0  0  0  0  0  0  0  0  0  0  0  0
    0.5249   -1.0466    0.3991 H   0  0  0  0  0  0  0  0  0  0  0  0
    1.9901   -0.1135    0.0662 H   0  0  0  0  0  0  0  0  0  0  0  0
   -0.6926    0.9999    1.0592 H   0  0  0  0  0  0  0  0  0  0  0  0
    0.7690    0.8209    2.0438 H   0  0  0  0  0  0  0  0  0  0  0  0
    2.4691    2.0140   -0.8940 H   0  0  0  0  0  0  0  0  0  0  0  0
   -0.4136    7.3271    1.4664 H   0  0  0  0  0  0  0  0  0  0  0  0
    1.2707    7.8619   -0.1727 H   0  0  0  0  0  0  0  0  0  0  0  0
    3.4778    7.2013   -0.9287 H   0  0  0  0  0  0  0  0  0  0  0  0
    2.9394    5.6435   -1.3767 H   0  0  0  0  0  0  0  0  0  0  0  0
    2.5910    9.2131   -2.2316 H   0  0  0  0  0  0  0  0  0  0  0  0
    2.1760    9.9461   -4.5639 H   0  0  0  0  0  0  0  0  0  0  0  0
    1.5794    8.1687   -6.3079 H   0  0  0  0  0  0  0  0  0  0  0  0
    1.7513    5.1452   -3.5048 H   0  0  0  0  0  0  0  0  0  0  0  0
   -1.4385    6.0276    5.2279 H   0  0  0  0  0  0  0  0  0  0  0  0
   -0.6182    4.5959    4.6880 H   0  0  0  0  0  0  0  0  0  0  0  0
   -2.6482    4.1193    6.1054 H   0  0  0  0  0  0  0  0  0  0  0  0
   -2.7404    3.3694    4.5092 H   0  0  0  0  0  0  0  0  0  0  0  0
   -4.9118    4.3247    5.0020 H   0  0  0  0  0  0  0  0  0  0  0  0
   -4.2176    5.8624    5.4741 H   0  0  0  0  0  0  0  0  0  0  0  0
   -4.2429    4.6265    2.6783 H   0  0  0  0  0  0  0  0  0  0  0  0
   -5.1170    6.0599    3.2036 H   0  0  0  0  0  0  0  0  0  0  0  0
   -3.0899    6.5744    1.8758 H   0  0  0  0  0  0  0  0  0  0  0  0
   -3.9998    8.1408    3.6837 H   0  0  0  0  0  0  0  0  0  0  0  0
   -2.8145    7.5251    4.8127 H   0  0  0  0  0  0  0  0  0  0  0  0
   -1.9684    9.5750    3.8864 H   0  0  0  0  0  0  0  0  0  0  0  0
   -0.9619    8.2699    3.2876 H   0  0  0  0  0  0  0  0  0  0  0  0
   -2.3237    8.3322    1.3461 H   0  0  0  0  0  0  0  0  0  0  0  0
  1  2  1  0  0  0  0
  1 30  1  0  0  0  0
  1 31  1  0  0  0  0
  1 32  1  0  0  0  0
  2  3  1  0  0  0  0
  2 33  1  0  0  0  0
  2 34  1  0  0  0  0
  3  4  1  0  0  0  0
  3  7  2  0  0  0  0
  4  5  2  0  0  0  0
  4 35  1  0  0  0  0
  5  6  1  0  0  0  0
  6  7  1  0  0  0  0
  6 11  1  0  0  0  0
  7  8  1  0  0  0  0
  8  9  2  0  0  0  0
  9 10  1  0  0  0  0
  9 21  1  0  0  0  0
 10 11  2  0  0  0  0
 10 36  1  0  0  0  0
 11 12  1  0  0  0  0
 12 13  1  0  0  0  0
 12 37  1  0  0  0  0
 13 14  1  0  0  0  0
 13 38  1  0  0  0  0
 13 39  1  0  0  0  0
 14 15  2  0  0  0  0
 14 19  1  0  0  0  0
 15 16  1  0  0  0  0
 15 40  1  0  0  0  0
 16 17  2  0  0  0  0
 16 41  1  0  0  0  0
 17 18  1  0  0  0  0
 17 42  1  0  0  0  0
 18 19  2  0  0  0  0
 18 20  1  0  0  0  0
 19 43  1  0  0  0  0
 21 22  1  0  0  0  0
 21 26  1  0  0  0  0
 22 23  1  0  0  0  0
 22 44  1  0  0  0  0
 22 45  1  0  0  0  0
 23 24  1  0  0  0  0
 23 46  1  0  0  0  0
 23 47  1  0  0  0  0
 24 25  1  0  0  0  0
 24 48  1  0  0  0  0
 24 49  1  0  0  0  0
 25 26  1  0  0  0  0
 25 50  1  0  0  0  0
 25 51  1  0  0  0  0
 26 52  1  6  0  0  0
 26 27  1  0  0  0  0
 27 28  1  0  0  0  0
 27 53  1  0  0  0  0
 27 54  1  0  0  0  0
 28 29  1  0  0  0  0
 28 55  1  0  0  0  0
 28 56  1  0  0  0  0
 29 57  1  0  0  0  0
M  CHG  2  18   1  20  -1
M  END
>  <DRUGBANK_ID>
DB12021

>  <COMMON_NAME>
Dinaciclib

>  <CAS_NUMBER>
779353-01-4

>  <UNII>
4V8ECV0NBQ

>  <SYNONYMS>
Dinaciclib

$$$$
