
 OpenBabel10282417213D

 22 19  0  0  1  0  0  0  0  0999 V2000
    0.9596   -0.0165    0.0900 C   0  0  0  0  0  0  0  0  0  0  0  0
    0.4530   -1.3381    0.6440 C   0  0  0  0  0  0  0  0  0  0  0  0
   -0.2777   -1.3529    1.6838 O   0  0  0  0  0  0  0  0  0  0  0  0
    0.7960   -2.5562   -0.0001 O   0  5  0  0  0  0  0  0  0  0  0  0
    1.0111    2.4557   -0.7750 C   0  0  2  0  0  0  0  0  0  0  0  0
    0.5045    1.4732    0.2682 C   0  0  2  0  0  0  0  0  0  0  0  0
    1.0111    0.0784   -0.0610 C   0  0  0  0  0  0  0  0  0  0  0  0
    2.2703    0.2490   -0.0392 O   0  0  0  0  0  0  0  0  0  0  0  0
    0.4732   -1.2050   -0.3434 O   0  5  0  0  0  0  0  0  0  0  0  0
   -0.9155    1.4732    0.2682 O   0  0  0  0  0  0  0  0  0  0  0  0
    0.6689    1.8765   -2.1381 C   0  0  0  0  0  0  0  0  0  0  0  0
    1.5768    1.7405   -3.0169 O   0  0  0  0  0  0  0  0  0  0  0  0
   -0.6653    1.4874   -2.4295 O   0  5  0  0  0  0  0  0  0  0  0  0
    2.3961    2.7651   -0.7264 O   0  0  0  0  0  0  0  0  0  0  0  0
    1.0569    0.0592   -0.0570 Al  0  1  0  0  0  0  0  0  0  0  0  0
    0.6030    0.7865    0.7007 H   0  0  0  0  0  0  0  0  0  0  0  0
    0.6030    0.1109   -0.9107 H   0  0  0  0  0  0  0  0  0  0  0  0
    2.0296   -0.0165    0.0900 H   0  0  0  0  0  0  0  0  0  0  0  0
    0.4408    3.3463   -0.6125 H   0  0  0  0  0  0  0  0  0  0  0  0
    0.8611    1.7634    1.2344 H   0  0  0  0  0  0  0  0  0  0  0  0
   -1.2489    1.2020   -0.6347 H   0  0  0  0  0  0  0  0  0  0  0  0
    2.9292    1.9328   -0.8783 H   0  0  0  0  0  0  0  0  0  0  0  0
  1  2  1  0  0  0  0
  1 16  1  0  0  0  0
  1 17  1  0  0  0  0
  1 18  1  0  0  0  0
  2  3  2  0  0  0  0
  2  4  1  0  0  0  0
  5 11  1  0  0  0  0
  5 14  1  0  0  0  0
  5 19  1  1  0  0  0
  6 10  1  0  0  0  0
  6 20  1  1  0  0  0
  6  7  1  0  0  0  0
  6  5  1  0  0  0  0
  7  8  2  0  0  0  0
  7  9  1  0  0  0  0
 10 21  1  0  0  0  0
 11 12  2  0  0  0  0
 11 13  1  0  0  0  0
 14 22  1  0  0  0  0
M  CHG  4   4  -1   9  -1  13  -1  15   3
M  END
>  <DRUGBANK_ID>
DB13789

>  <COMMON_NAME>
Aluminium acetotartrate

>  <CAS_NUMBER>
15930-12-8

>  <UNII>
19MLB4EQ88

$$$$
