
 OpenBabel10282417123D

 19 18  0  0  1  0  0  0  0  0999 V2000
    0.9793   -0.0917    0.0058 O   0  0  0  0  0  0  0  0  0  0  0  0
   -3.8261    3.1584   -2.3850 O   0  0  0  0  0  0  0  0  0  0  0  0
    1.1408    2.1093    0.3460 O   0  0  0  0  0  0  0  0  0  0  0  0
   -3.1511    3.2484   -0.2545 O   0  0  0  0  0  0  0  0  0  0  0  0
   -1.5740    0.1964    1.3165 N   0  0  0  0  0  0  0  0  0  0  0  0
   -1.0981    1.0981    0.2502 C   0  0  2  0  0  0  0  0  0  0  0  0
   -1.6642    0.7040   -1.1281 C   0  0  0  0  0  0  0  0  0  0  0  0
   -3.1333    1.0885   -1.3415 C   0  0  0  0  0  0  0  0  0  0  0  0
    0.4284    1.1233    0.2188 C   0  0  0  0  0  0  0  0  0  0  0  0
   -3.3593    2.5843   -1.2603 C   0  0  0  0  0  0  0  0  0  0  0  0
    1.9420    0.0900    0.0480 H   0  0  0  0  0  0  0  0  0  0  0  0
   -4.0109    2.5643   -3.1335 H   0  0  0  0  0  0  0  0  0  0  0  0
   -1.2058   -0.7394    1.1504 H   0  0  0  0  0  0  0  0  0  0  0  0
   -2.5893    0.1381    1.2997 H   0  0  0  0  0  0  0  0  0  0  0  0
   -1.3826    2.1134    0.5242 H   0  0  0  0  0  0  0  0  0  0  0  0
   -1.0563    1.1499   -1.9256 H   0  0  0  0  0  0  0  0  0  0  0  0
   -1.5668   -0.3846   -1.2599 H   0  0  0  0  0  0  0  0  0  0  0  0
   -3.4640    0.7133   -2.3175 H   0  0  0  0  0  0  0  0  0  0  0  0
   -3.7785    0.6074   -0.5981 H   0  0  0  0  0  0  0  0  0  0  0  0
  1  9  1  0  0  0  0
  1 11  1  0  0  0  0
  2 10  1  0  0  0  0
  2 12  1  0  0  0  0
  3  9  2  0  0  0  0
  4 10  2  0  0  0  0
  5 13  1  0  0  0  0
  5 14  1  0  0  0  0
  6  9  1  0  0  0  0
  6 15  1  1  0  0  0
  6  7  1  0  0  0  0
  6  5  1  0  0  0  0
  7  8  1  0  0  0  0
  7 16  1  0  0  0  0
  7 17  1  0  0  0  0
  8 10  1  0  0  0  0
  8 18  1  0  0  0  0
  8 19  1  0  0  0  0
M  END
>  <DRUGBANK_ID>
DB02517

>  <SECONDARY_ACCESSION_NUMBERS>
EXPT01180

>  <COMMON_NAME>
D-Glutamic Acid

>  <CAS_NUMBER>
6893-26-1

>  <UNII>
Q479989WEA

$$$$
