
 OpenBabel10282417193D

 75 78  0  0  0  0  0  0  0  0999 V2000
    9.0322   -9.9367   -1.2339 C   0  0  0  0  0  0  0  0  0  0  0  0
    7.6935  -10.3288   -1.3863 C   0  0  0  0  0  0  0  0  0  0  0  0
    6.6887   -9.4152   -1.0763 C   0  0  0  0  0  0  0  0  0  0  0  0
    6.9994   -8.1534   -0.5802 C   0  0  0  0  0  0  0  0  0  0  0  0
    8.3444   -7.7669   -0.4442 C   0  0  0  0  0  0  0  0  0  0  0  0
    9.3594   -8.6513   -0.7904 C   0  0  0  0  0  0  0  0  0  0  0  0
    5.8928   -7.2046   -0.3847 C   0  0  0  0  0  0  0  0  0  0  0  0
    5.3941   -9.6911   -1.3054 F   0  0  0  0  0  0  0  0  0  0  0  0
    7.4892  -11.6024   -1.8511 O   0  0  0  0  0  0  0  0  0  0  0  0
    6.1218  -11.9899   -1.9979 C   0  0  0  0  0  0  0  0  0  0  0  0
    5.7922   -6.1276   -1.1733 C   0  0  0  0  0  0  0  0  0  0  0  0
    4.8054   -5.1563   -1.0298 N   0  0  0  0  0  0  0  0  0  0  0  0
    3.6960   -5.4239   -0.2077 C   0  0  0  0  0  0  0  0  0  0  0  0
    3.8315   -6.5297    0.6584 N   0  0  0  0  0  0  0  0  0  0  0  0
    4.8544   -7.4537    0.6218 C   0  0  0  0  0  0  0  0  0  0  0  0
    4.9277   -8.4539    1.3379 O   0  0  0  0  0  0  0  0  0  0  0  0
    2.8297   -6.7055    1.7154 C   0  0  0  0  0  0  0  0  0  0  0  0
    2.6690   -4.7403   -0.2685 O   0  0  0  0  0  0  0  0  0  0  0  0
    4.7794   -3.9072   -1.8791 C   0  0  0  0  0  0  0  0  0  0  0  0
    6.7988   -5.9585   -2.2373 C   0  0  0  0  0  0  0  0  0  0  0  0
    5.9660   -2.9300   -1.7424 C   0  0  0  0  0  0  0  0  0  0  0  0
    2.9710   -5.6540    2.8919 C   0  0  2  0  0  0  0  0  0  0  0  0
    3.3236   -4.3788    2.2240 N   0  0  0  0  0  0  0  0  0  0  0  0
    4.2824   -3.5376    2.8548 C   0  0  0  0  0  0  0  0  0  0  0  0
    4.6470   -2.1915    2.3278 C   0  0  0  0  0  0  0  0  0  0  0  0
    3.3902   -1.3349    2.2199 C   0  0  0  0  0  0  0  0  0  0  0  0
    2.6674   -1.0571    3.5115 C   0  0  0  0  0  0  0  0  0  0  0  0
    2.6215    0.2430    3.8384 O   0  0  0  0  0  0  0  0  0  0  0  0
    2.1122   -1.9154    4.2099 O   0  0  0  0  0  0  0  0  0  0  0  0
    3.8769   -6.0927    4.0736 C   0  0  0  0  0  0  0  0  0  0  0  0
    4.0629   -7.4322    4.4000 C   0  0  0  0  0  0  0  0  0  0  0  0
    4.9412   -7.8041    5.4295 C   0  0  0  0  0  0  0  0  0  0  0  0
    5.6862   -6.8609    6.1352 C   0  0  0  0  0  0  0  0  0  0  0  0
    5.4987   -5.5356    5.8726 C   0  0  0  0  0  0  0  0  0  0  0  0
    4.5259   -5.1959    4.9570 C   0  0  0  0  0  0  0  0  0  0  0  0
    5.8743   -1.6891   -1.0991 C   0  0  0  0  0  0  0  0  0  0  0  0
    7.0475   -0.9584   -0.7794 C   0  0  0  0  0  0  0  0  0  0  0  0
    8.3111   -1.4678   -1.0628 C   0  0  0  0  0  0  0  0  0  0  0  0
    8.3940   -2.6124   -1.8175 C   0  0  0  0  0  0  0  0  0  0  0  0
    7.2199   -3.1734   -2.2975 C   0  0  0  0  0  0  0  0  0  0  0  0
    7.3519   -3.9391   -3.3862 F   0  0  0  0  0  0  0  0  0  0  0  0
    4.5239   -1.0882   -0.8516 C   0  0  0  0  0  0  0  0  0  0  0  0
    3.8212   -0.8642   -1.9907 F   0  0  0  0  0  0  0  0  0  0  0  0
    3.7413   -1.9110   -0.1278 F   0  0  0  0  0  0  0  0  0  0  0  0
    4.5709    0.0990   -0.1903 F   0  0  0  0  0  0  0  0  0  0  0  0
    9.8330  -10.6336   -1.4680 H   0  0  0  0  0  0  0  0  0  0  0  0
    8.5999   -6.7492   -0.1512 H   0  0  0  0  0  0  0  0  0  0  0  0
   10.3976   -8.3337   -0.7218 H   0  0  0  0  0  0  0  0  0  0  0  0
    5.5846  -11.9345   -1.0429 H   0  0  0  0  0  0  0  0  0  0  0  0
    5.6281  -11.3867   -2.7693 H   0  0  0  0  0  0  0  0  0  0  0  0
    6.0900  -13.0299   -2.3289 H   0  0  0  0  0  0  0  0  0  0  0  0
    1.8461   -6.6193    1.2390 H   0  0  0  0  0  0  0  0  0  0  0  0
    2.8719   -7.7325    2.0829 H   0  0  0  0  0  0  0  0  0  0  0  0
    4.6344   -4.1960   -2.9226 H   0  0  0  0  0  0  0  0  0  0  0  0
    3.8572   -3.3743   -1.6381 H   0  0  0  0  0  0  0  0  0  0  0  0
    6.3008   -5.6397   -3.1516 H   0  0  0  0  0  0  0  0  0  0  0  0
    7.5216   -5.2969   -1.7652 H   0  0  0  0  0  0  0  0  0  0  0  0
    7.4099   -6.7977   -2.5569 H   0  0  0  0  0  0  0  0  0  0  0  0
    1.9639   -5.5423    3.3189 H   0  0  0  0  0  0  0  0  0  0  0  0
    2.4818   -3.9080    1.8919 H   0  0  0  0  0  0  0  0  0  0  0  0
    3.7968   -3.2511    3.7652 H   0  0  0  0  0  0  0  0  0  0  0  0
    5.2275   -4.0790    2.9568 H   0  0  0  0  0  0  0  0  0  0  0  0
    5.3620   -1.7364    3.0264 H   0  0  0  0  0  0  0  0  0  0  0  0
    5.2008   -2.3510    1.4024 H   0  0  0  0  0  0  0  0  0  0  0  0
    3.6668   -0.3928    1.7508 H   0  0  0  0  0  0  0  0  0  0  0  0
    2.6378   -1.8138    1.5850 H   0  0  0  0  0  0  0  0  0  0  0  0
    3.0169    0.8277    3.1648 H   0  0  0  0  0  0  0  0  0  0  0  0
    3.5378   -8.2301    3.8856 H   0  0  0  0  0  0  0  0  0  0  0  0
    5.0512   -8.8540    5.6697 H   0  0  0  0  0  0  0  0  0  0  0  0
    6.3788   -7.1389    6.9158 H   0  0  0  0  0  0  0  0  0  0  0  0
    6.0428   -4.7352    6.3663 H   0  0  0  0  0  0  0  0  0  0  0  0
    4.3815   -4.1349    5.0081 H   0  0  0  0  0  0  0  0  0  0  0  0
    6.9771    0.0200   -0.3078 H   0  0  0  0  0  0  0  0  0  0  0  0
    9.2186   -0.9343   -0.7987 H   0  0  0  0  0  0  0  0  0  0  0  0
    9.3436   -3.0548   -2.1032 H   0  0  0  0  0  0  0  0  0  0  0  0
  1  2  2  0  0  0  0
  1 46  1  0  0  0  0
  2  3  1  0  0  0  0
  2  9  1  0  0  0  0
  3  4  2  0  0  0  0
  3  8  1  0  0  0  0
  4  7  1  0  0  0  0
  4  5  1  0  0  0  0
  5  6  2  0  0  0  0
  5 47  1  0  0  0  0
  6  1  1  0  0  0  0
  6 48  1  0  0  0  0
  7 15  1  0  0  0  0
  7 11  2  0  0  0  0
  9 10  1  0  0  0  0
 10 49  1  0  0  0  0
 10 50  1  0  0  0  0
 10 51  1  0  0  0  0
 11 12  1  0  0  0  0
 11 20  1  0  0  0  0
 12 13  1  0  0  0  0
 12 19  1  0  0  0  0
 13 14  1  0  0  0  0
 13 18  2  0  0  0  0
 14 15  1  0  0  0  0
 14 17  1  0  0  0  0
 15 16  2  0  0  0  0
 17 52  1  0  0  0  0
 17 53  1  0  0  0  0
 19 21  1  0  0  0  0
 19 54  1  0  0  0  0
 19 55  1  0  0  0  0
 20 56  1  0  0  0  0
 20 57  1  0  0  0  0
 20 58  1  0  0  0  0
 21 36  2  0  0  0  0
 22 30  1  0  0  0  0
 22 59  1  1  0  0  0
 22 23  1  0  0  0  0
 22 17  1  0  0  0  0
 23 24  1  0  0  0  0
 23 60  1  0  0  0  0
 24 25  1  0  0  0  0
 24 61  1  0  0  0  0
 24 62  1  0  0  0  0
 25 26  1  0  0  0  0
 25 63  1  0  0  0  0
 25 64  1  0  0  0  0
 26 27  1  0  0  0  0
 26 65  1  0  0  0  0
 26 66  1  0  0  0  0
 27 28  1  0  0  0  0
 27 29  2  0  0  0  0
 28 67  1  0  0  0  0
 30 31  2  0  0  0  0
 31 32  1  0  0  0  0
 31 68  1  0  0  0  0
 32 33  2  0  0  0  0
 32 69  1  0  0  0  0
 33 34  1  0  0  0  0
 33 70  1  0  0  0  0
 34 35  2  0  0  0  0
 34 71  1  0  0  0  0
 35 30  1  0  0  0  0
 35 72  1  0  0  0  0
 36 37  1  0  0  0  0
 36 42  1  0  0  0  0
 37 38  2  0  0  0  0
 37 73  1  0  0  0  0
 38 39  1  0  0  0  0
 38 74  1  0  0  0  0
 39 40  2  0  0  0  0
 39 75  1  0  0  0  0
 40 21  1  0  0  0  0
 40 41  1  0  0  0  0
 42 43  1  0  0  0  0
 42 44  1  0  0  0  0
 42 45  1  0  0  0  0
M  END
>  <DRUGBANK_ID>
DB11979

>  <SECONDARY_ACCESSION_NUMBERS>
DB05694

>  <COMMON_NAME>
Elagolix

>  <CAS_NUMBER>
834153-87-6

>  <UNII>
5B2546MB5Z

>  <SYNONYMS>
Elagolix

$$$$
