489
 OpenBabel10282417103D

 38 38  0  0  1  0  0  0  0  0999 V2000
    1.0471    0.0092    0.0642 S   0  0  0  0  0  0  0  0  0  0  0  0
    3.3161   -5.7097   -4.6335 O   0  0  0  0  0  0  0  0  0  0  0  0
    0.6066   -0.6262    1.2824 O   0  0  0  0  0  0  0  0  0  0  0  0
    0.5544    1.3306   -0.2872 O   0  0  0  0  0  0  0  0  0  0  0  0
    5.3196   -2.5483   -4.8060 N   0  0  0  0  0  0  0  0  0  0  0  0
    0.6001   -0.9748   -1.2039 N   0  0  0  0  0  0  0  0  0  0  0  0
    3.9902   -4.5657   -4.1188 C   0  0  3  0  0  0  0  0  0  0  0  0
    4.6176   -3.7592   -5.2704 C   0  0  0  0  0  0  0  0  0  0  0  0
    5.8471   -1.7561   -5.9200 C   0  0  0  0  0  0  0  0  0  0  0  0
    3.0109   -3.7147   -3.3371 C   0  0  0  0  0  0  0  0  0  0  0  0
    3.2644   -3.4748   -1.9879 C   0  0  0  0  0  0  0  0  0  0  0  0
    1.9157   -3.0788   -3.9442 C   0  0  0  0  0  0  0  0  0  0  0  0
    4.7394   -1.2646   -6.8544 C   0  0  0  0  0  0  0  0  0  0  0  0
    6.5923   -0.5506   -5.3447 C   0  0  0  0  0  0  0  0  0  0  0  0
    1.4410   -1.8910   -1.8870 C   0  0  0  0  0  0  0  0  0  0  0  0
    2.4374   -2.6279   -1.2584 C   0  0  0  0  0  0  0  0  0  0  0  0
    1.1675   -2.1339   -3.2349 C   0  0  0  0  0  0  0  0  0  0  0  0
    2.8349    0.0956    0.0944 C   0  0  0  0  0  0  0  0  0  0  0  0
    2.9174   -6.1582   -3.8682 H   0  0  0  0  0  0  0  0  0  0  0  0
    4.6716   -1.9725   -4.2639 H   0  0  0  0  0  0  0  0  0  0  0  0
   -0.3984   -1.1917   -1.2106 H   0  0  0  0  0  0  0  0  0  0  0  0
    4.7949   -4.9267   -3.4666 H   0  0  0  0  0  0  0  0  0  0  0  0
    5.3053   -4.4013   -5.8318 H   0  0  0  0  0  0  0  0  0  0  0  0
    3.8058   -3.5058   -5.9586 H   0  0  0  0  0  0  0  0  0  0  0  0
    6.5642   -2.3664   -6.4814 H   0  0  0  0  0  0  0  0  0  0  0  0
    4.1161   -3.9384   -1.4952 H   0  0  0  0  0  0  0  0  0  0  0  0
    1.6665   -3.2855   -4.9843 H   0  0  0  0  0  0  0  0  0  0  0  0
    4.0023   -0.6643   -6.3087 H   0  0  0  0  0  0  0  0  0  0  0  0
    5.1567   -0.6545   -7.6596 H   0  0  0  0  0  0  0  0  0  0  0  0
    4.2098   -2.0903   -7.3380 H   0  0  0  0  0  0  0  0  0  0  0  0
    7.4072   -0.8620   -4.6821 H   0  0  0  0  0  0  0  0  0  0  0  0
    7.0287    0.0464   -6.1527 H   0  0  0  0  0  0  0  0  0  0  0  0
    5.9212    0.1014   -4.7729 H   0  0  0  0  0  0  0  0  0  0  0  0
    2.6118   -2.5635   -0.1939 H   0  0  0  0  0  0  0  0  0  0  0  0
    0.3876   -1.5778   -3.7526 H   0  0  0  0  0  0  0  0  0  0  0  0
    3.1203    0.8661    0.8127 H   0  0  0  0  0  0  0  0  0  0  0  0
    3.2605   -0.8365    0.4598 H   0  0  0  0  0  0  0  0  0  0  0  0
    3.2023    0.3524   -0.8988 H   0  0  0  0  0  0  0  0  0  0  0  0
  1  3  2  0  0  0  0
  1  4  2  0  0  0  0
  1  6  1  0  0  0  0
  1 18  1  0  0  0  0
  2  7  1  0  0  0  0
  2 19  1  0  0  0  0
  5  8  1  0  0  0  0
  5  9  1  0  0  0  0
  5 20  1  0  0  0  0
  6 15  1  0  0  0  0
  6 21  1  0  0  0  0
  7  8  1  0  0  0  0
  7 10  1  0  0  0  0
  7 22  1  0  0  0  0
  8 23  1  0  0  0  0
  8 24  1  0  0  0  0
  9 13  1  0  0  0  0
  9 14  1  0  0  0  0
  9 25  1  0  0  0  0
 10 11  2  0  0  0  0
 10 12  1  0  0  0  0
 11 16  1  0  0  0  0
 11 26  1  0  0  0  0
 12 17  2  0  0  0  0
 12 27  1  0  0  0  0
 13 28  1  0  0  0  0
 13 29  1  0  0  0  0
 13 30  1  0  0  0  0
 14 31  1  0  0  0  0
 14 32  1  0  0  0  0
 14 33  1  0  0  0  0
 15 16  2  0  0  0  0
 15 17  1  0  0  0  0
 16 34  1  0  0  0  0
 17 35  1  0  0  0  0
 18 36  1  0  0  0  0
 18 37  1  0  0  0  0
 18 38  1  0  0  0  0
M  END
>  <DRUGBANK_ID>
DB00489

>  <SECONDARY_ACCESSION_NUMBERS>
APRD01230

>  <COMMON_NAME>
Sotalol

>  <CAS_NUMBER>
3930-20-9

>  <UNII>
A6D97U294I

>  <SYNONYMS>
4'-(1-hydroxy-2-(isopropylamino)ethyl)methane sulfonanilide; Sotalol; Sotalolo; Sotalolum; Î²-cardone

$$$$
