
 OpenBabel10282417223D

 62 65  0  0  0  0  0  0  0  0999 V2000
    0.4000   -0.3109   -0.0033 C   0  0  0  0  0  0  0  0  0  0  0  0
    0.1494    0.0253   -1.4590 C   0  0  0  0  0  0  0  0  0  0  0  0
    0.8620   -1.1019   -2.6842 S   0  0  0  0  0  0  0  0  0  0  0  0
    0.5609   -2.4437   -2.1893 O   0  0  0  0  0  0  0  0  0  0  0  0
    0.3464   -0.6817   -3.9669 O   0  0  0  0  0  0  0  0  0  0  0  0
    2.6542   -1.0510   -2.8665 C   0  0  0  0  0  0  0  0  0  0  0  0
    3.3053    0.3144   -3.1353 C   0  0  0  0  0  0  0  0  0  0  0  0
    3.0030    1.4690   -2.1723 C   0  0  0  0  0  0  0  0  0  0  0  0
    3.4336    1.2660   -0.7037 C   0  0  3  0  0  0  0  0  0  0  0  0
    3.7311   -0.2184   -0.3721 C   0  0  0  0  0  0  0  0  0  0  0  0
    4.0764   -0.4988    1.0524 C   0  0  0  0  0  0  0  0  0  0  0  0
    4.1985    0.8304    1.7790 C   0  0  3  0  0  0  0  0  0  0  0  0
    2.8032    1.5232    1.7368 C   0  0  0  0  0  0  0  0  0  0  0  0
    2.4674    1.9566    0.2995 C   0  0  0  0  0  0  0  0  0  0  0  0
    5.1824    1.7496    1.0143 C   0  0  0  0  0  0  0  0  0  0  0  0
    4.7551    1.9970   -0.4373 C   0  0  0  0  0  0  0  0  0  0  0  0
    4.6416    0.5680    3.1716 C   0  0  0  0  0  0  0  0  0  0  0  0
    3.9503    0.8514    4.2548 N   0  0  0  0  0  0  0  0  0  0  0  0
    4.6822    0.4650    5.3360 N   0  0  0  0  0  0  0  0  0  0  0  0
    5.8008   -0.0762    4.9028 C   0  0  0  0  0  0  0  0  0  0  0  0
    5.8177   -0.0463    3.5358 N   0  0  0  0  0  0  0  0  0  0  0  0
    6.8827   -0.5345    2.6974 C   0  0  0  0  0  0  0  0  0  0  0  0
    6.8298   -0.6406    5.7477 C   0  0  0  0  0  0  0  0  0  0  0  0
    8.1351   -0.1245    5.6701 C   0  0  0  0  0  0  0  0  0  0  0  0
    9.1203   -0.5639    6.5440 C   0  0  0  0  0  0  0  0  0  0  0  0
    8.7922   -1.4769    7.5393 C   0  0  0  0  0  0  0  0  0  0  0  0
    7.4964   -1.9918    7.6218 C   0  0  0  0  0  0  0  0  0  0  0  0
    6.5189   -1.6425    6.6751 C   0  0  0  0  0  0  0  0  0  0  0  0
    5.2216   -2.4238    6.6413 C   0  0  0  0  0  0  0  0  0  0  0  0
    5.4808   -3.7655    6.5419 F   0  0  0  0  0  0  0  0  0  0  0  0
    4.4800   -2.2814    7.7713 F   0  0  0  0  0  0  0  0  0  0  0  0
    4.3901   -2.1785    5.5935 F   0  0  0  0  0  0  0  0  0  0  0  0
    0.1288   -1.3246    0.2760 H   0  0  0  0  0  0  0  0  0  0  0  0
   -0.0935    0.4055    0.6644 H   0  0  0  0  0  0  0  0  0  0  0  0
    1.4361   -0.2391    0.2545 H   0  0  0  0  0  0  0  0  0  0  0  0
   -0.9327   -0.0331   -1.6081 H   0  0  0  0  0  0  0  0  0  0  0  0
    0.3635    1.0611   -1.7079 H   0  0  0  0  0  0  0  0  0  0  0  0
    3.1062   -1.6579   -2.0844 H   0  0  0  0  0  0  0  0  0  0  0  0
    2.8907   -1.6976   -3.7216 H   0  0  0  0  0  0  0  0  0  0  0  0
    4.3980    0.1956   -3.1836 H   0  0  0  0  0  0  0  0  0  0  0  0
    3.0004    0.6284   -4.1392 H   0  0  0  0  0  0  0  0  0  0  0  0
    3.4546    2.3914   -2.5608 H   0  0  0  0  0  0  0  0  0  0  0  0
    1.9491    1.6967   -2.2566 H   0  0  0  0  0  0  0  0  0  0  0  0
    4.5620   -0.5818   -0.9923 H   0  0  0  0  0  0  0  0  0  0  0  0
    2.8932   -0.8762   -0.5333 H   0  0  0  0  0  0  0  0  0  0  0  0
    3.3353   -1.1675    1.5173 H   0  0  0  0  0  0  0  0  0  0  0  0
    4.9842   -1.0952    1.0166 H   0  0  0  0  0  0  0  0  0  0  0  0
    2.0261    0.8508    2.1311 H   0  0  0  0  0  0  0  0  0  0  0  0
    2.7811    2.4078    2.3825 H   0  0  0  0  0  0  0  0  0  0  0  0
    1.4159    1.8092    0.0743 H   0  0  0  0  0  0  0  0  0  0  0  0
    2.5402    3.0494    0.2222 H   0  0  0  0  0  0  0  0  0  0  0  0
    5.2761    2.7022    1.5450 H   0  0  0  0  0  0  0  0  0  0  0  0
    6.1757    1.3123    0.9589 H   0  0  0  0  0  0  0  0  0  0  0  0
    5.5287    1.6488   -1.1303 H   0  0  0  0  0  0  0  0  0  0  0  0
    4.6403    3.0743   -0.6068 H   0  0  0  0  0  0  0  0  0  0  0  0
    6.5258   -1.2988    2.0136 H   0  0  0  0  0  0  0  0  0  0  0  0
    7.3286    0.3071    2.1712 H   0  0  0  0  0  0  0  0  0  0  0  0
    7.6647   -1.0131    3.2813 H   0  0  0  0  0  0  0  0  0  0  0  0
    8.3890    0.6262    4.9233 H   0  0  0  0  0  0  0  0  0  0  0  0
   10.1278   -0.1644    6.4697 H   0  0  0  0  0  0  0  0  0  0  0  0
    9.5503   -1.7992    8.2480 H   0  0  0  0  0  0  0  0  0  0  0  0
    7.2467   -2.6832    8.4252 H   0  0  0  0  0  0  0  0  0  0  0  0
  1  2  1  0  0  0  0
  1 33  1  0  0  0  0
  1 34  1  0  0  0  0
  1 35  1  0  0  0  0
  2  3  1  0  0  0  0
  2 36  1  0  0  0  0
  2 37  1  0  0  0  0
  3  4  2  0  0  0  0
  3  5  2  0  0  0  0
  3  6  1  0  0  0  0
  6  7  1  0  0  0  0
  6 38  1  0  0  0  0
  6 39  1  0  0  0  0
  7  8  1  0  0  0  0
  7 40  1  0  0  0  0
  7 41  1  0  0  0  0
  8  9  1  0  0  0  0
  8 42  1  0  0  0  0
  8 43  1  0  0  0  0
  9 10  1  0  0  0  0
  9 14  1  0  0  0  0
  9 16  1  0  0  0  0
 10 11  1  0  0  0  0
 10 44  1  0  0  0  0
 10 45  1  0  0  0  0
 11 12  1  0  0  0  0
 11 46  1  0  0  0  0
 11 47  1  0  0  0  0
 12 13  1  0  0  0  0
 12 15  1  0  0  0  0
 12 17  1  0  0  0  0
 13 14  1  0  0  0  0
 13 48  1  0  0  0  0
 13 49  1  0  0  0  0
 14 50  1  0  0  0  0
 14 51  1  0  0  0  0
 15 16  1  0  0  0  0
 15 52  1  0  0  0  0
 15 53  1  0  0  0  0
 16 54  1  0  0  0  0
 16 55  1  0  0  0  0
 17 18  2  0  0  0  0
 17 21  1  0  0  0  0
 18 19  1  0  0  0  0
 19 20  2  0  0  0  0
 20 21  1  0  0  0  0
 20 23  1  0  0  0  0
 21 22  1  0  0  0  0
 22 56  1  0  0  0  0
 22 57  1  0  0  0  0
 22 58  1  0  0  0  0
 23 24  2  0  0  0  0
 23 28  1  0  0  0  0
 24 25  1  0  0  0  0
 24 59  1  0  0  0  0
 25 26  2  0  0  0  0
 25 60  1  0  0  0  0
 26 27  1  0  0  0  0
 26 61  1  0  0  0  0
 27 28  2  0  0  0  0
 27 62  1  0  0  0  0
 28 29  1  0  0  0  0
 29 30  1  0  0  0  0
 29 31  1  0  0  0  0
 29 32  1  0  0  0  0
M  END
>  <DRUGBANK_ID>
DB15209

>  <COMMON_NAME>
MK-0736

>  <CAS_NUMBER>
719272-79-4

>  <UNII>
9RT16RBU2Y

$$$$
