
 OpenBabel10282417213D

 38 37  0  0  0  0  0  0  0  0999 V2000
    1.2985   -0.2765    0.4910 O   0  0  0  0  0  0  0  0  0  0  0  0
    0.4003    0.8452    0.4404 C   0  0  0  0  0  0  0  0  0  0  0  0
    0.9660    2.0300    1.2643 C   0  0  3  0  0  0  0  0  0  0  0  0
    2.4046    2.0675    1.1767 O   0  0  0  0  0  0  0  0  0  0  0  0
    0.5079    3.4787    0.9987 C   0  0  0  0  0  0  0  0  0  0  0  0
   -0.8337    3.7314    0.6690 O   0  0  0  0  0  0  0  0  0  0  0  0
   -1.3310    3.0821   -0.4764 C   0  0  0  0  0  0  0  0  0  0  0  0
   -0.6386    3.2748   -1.8644 C   0  0  3  0  0  0  0  0  0  0  0  0
    0.9046    3.3375   -2.1499 C   0  0  0  0  0  0  0  0  0  0  0  0
    1.8190    2.1171   -2.0775 C   0  0  0  0  0  0  0  0  0  0  0  0
   -1.2901    2.2894   -2.8652 C   0  0  0  0  0  0  0  0  0  0  0  0
   -2.8239    2.3422   -2.9146 C   0  0  0  0  0  0  0  0  0  0  0  0
   -3.3803    3.7422   -3.1866 C   0  0  0  0  0  0  0  0  0  0  0  0
   -2.8823    4.3010   -4.5087 C   0  0  0  0  0  0  0  0  0  0  0  0
    2.0118   -0.0926   -0.1101 H   0  0  0  0  0  0  0  0  0  0  0  0
    0.2415    1.0446   -0.6184 H   0  0  0  0  0  0  0  0  0  0  0  0
   -0.5695    0.5238    0.8204 H   0  0  0  0  0  0  0  0  0  0  0  0
    0.7287    1.7968    2.3050 H   0  0  0  0  0  0  0  0  0  0  0  0
    2.7174    1.1666    1.3605 H   0  0  0  0  0  0  0  0  0  0  0  0
    0.7100    4.0545    1.9117 H   0  0  0  0  0  0  0  0  0  0  0  0
    1.1471    3.9916    0.2837 H   0  0  0  0  0  0  0  0  0  0  0  0
   -1.5328    2.0373   -0.2427 H   0  0  0  0  0  0  0  0  0  0  0  0
   -2.3535    3.4746   -0.5537 H   0  0  0  0  0  0  0  0  0  0  0  0
   -0.9364    4.2955   -2.1389 H   0  0  0  0  0  0  0  0  0  0  0  0
    0.9918    3.6620   -3.1956 H   0  0  0  0  0  0  0  0  0  0  0  0
    1.3678    4.1606   -1.6016 H   0  0  0  0  0  0  0  0  0  0  0  0
    1.4177    1.2414   -2.5939 H   0  0  0  0  0  0  0  0  0  0  0  0
    2.8006    2.3419   -2.5091 H   0  0  0  0  0  0  0  0  0  0  0  0
    2.0641    1.8445   -1.0621 H   0  0  0  0  0  0  0  0  0  0  0  0
   -0.8950    2.4845   -3.8679 H   0  0  0  0  0  0  0  0  0  0  0  0
   -0.9904    1.2626   -2.6232 H   0  0  0  0  0  0  0  0  0  0  0  0
   -3.1696    1.6554   -3.6957 H   0  0  0  0  0  0  0  0  0  0  0  0
   -3.2467    1.9566   -1.9783 H   0  0  0  0  0  0  0  0  0  0  0  0
   -4.4744    3.6979   -3.1925 H   0  0  0  0  0  0  0  0  0  0  0  0
   -3.1146    4.4364   -2.3821 H   0  0  0  0  0  0  0  0  0  0  0  0
   -3.1793    3.6466   -5.3331 H   0  0  0  0  0  0  0  0  0  0  0  0
   -3.2967    5.2968   -4.6816 H   0  0  0  0  0  0  0  0  0  0  0  0
   -1.7920    4.3965   -4.5237 H   0  0  0  0  0  0  0  0  0  0  0  0
  1  2  1  0  0  0  0
  1 15  1  0  0  0  0
  2  3  1  0  0  0  0
  2 16  1  0  0  0  0
  2 17  1  0  0  0  0
  3  4  1  0  0  0  0
  3  5  1  0  0  0  0
  3 18  1  0  0  0  0
  4 19  1  0  0  0  0
  5  6  1  0  0  0  0
  5 20  1  0  0  0  0
  5 21  1  0  0  0  0
  6  7  1  0  0  0  0
  7  8  1  0  0  0  0
  7 22  1  0  0  0  0
  7 23  1  0  0  0  0
  8  9  1  0  0  0  0
  8 11  1  0  0  0  0
  8 24  1  0  0  0  0
  9 10  1  0  0  0  0
  9 25  1  0  0  0  0
  9 26  1  0  0  0  0
 10 27  1  0  0  0  0
 10 28  1  0  0  0  0
 10 29  1  0  0  0  0
 11 12  1  0  0  0  0
 11 30  1  0  0  0  0
 11 31  1  0  0  0  0
 12 13  1  0  0  0  0
 12 32  1  0  0  0  0
 12 33  1  0  0  0  0
 13 14  1  0  0  0  0
 13 34  1  0  0  0  0
 13 35  1  0  0  0  0
 14 36  1  0  0  0  0
 14 37  1  0  0  0  0
 14 38  1  0  0  0  0
M  END
>  <DRUGBANK_ID>
DB14557

>  <COMMON_NAME>
Ethylhexylglycerin

>  <CAS_NUMBER>
70445-33-9

>  <UNII>
147D247K3P

>  <SYNONYMS>
3-(2-Ethylhexyloxy)propane-1,2-diol; Octoxyglycerin

$$$$
