
 OpenBabel10282417233D

 52 55  0  0  0  0  0  0  0  0999 V2000
    0.3822   -0.6943    0.5376 O   0  0  0  0  0  0  0  0  0  0  0  0
    0.3399   -1.3296   -0.7831 C   0  0  3  0  0  0  0  0  0  0  0  0
    1.0169   -0.7020   -2.1283 C   0  0  0  0  0  0  0  0  0  0  0  0
    2.4484   -0.4640   -2.2392 O   0  0  0  0  0  0  0  0  0  0  0  0
    3.1033    0.5574   -1.4625 C   0  0  3  0  0  0  0  0  0  0  0  0
    2.3961    0.8888   -0.1722 C   0  0  0  0  0  0  0  0  0  0  0  0
    1.7086    2.1786   -0.0614 N   0  0  3  0  0  0  0  0  0  0  0  0
    0.9216    2.4469   -1.2920 C   0  0  0  0  0  0  0  0  0  0  0  0
    1.7952    2.3697   -2.5643 C   0  0  0  0  0  0  0  0  0  0  0  0
    3.2076    1.9088   -2.1724 C   0  0  3  0  0  0  0  0  0  0  0  0
    3.7523    2.9388   -1.1313 C   0  0  0  0  0  0  0  0  0  0  0  0
    2.7917    3.1240    0.0643 C   0  0  0  0  0  0  0  0  0  0  0  0
    1.0086   -2.6805   -0.4774 C   0  0  0  0  0  0  0  0  0  0  0  0
    2.3586   -2.9317   -1.1609 C   0  0  0  0  0  0  0  0  0  0  0  0
    2.5508   -4.4258   -1.1149 C   0  0  0  0  0  0  0  0  0  0  0  0
    1.1763   -5.0016   -0.8049 C   0  0  0  0  0  0  0  0  0  0  0  0
    0.1890   -3.8646   -0.9189 C   0  0  0  0  0  0  0  0  0  0  0  0
   -1.1806   -1.2042   -0.8620 C   0  0  0  0  0  0  0  0  0  0  0  0
   -1.9080   -1.8641    0.1345 C   0  0  0  0  0  0  0  0  0  0  0  0
   -3.2922   -1.7400    0.2243 C   0  0  0  0  0  0  0  0  0  0  0  0
   -3.9372   -0.8467   -0.6069 C   0  0  0  0  0  0  0  0  0  0  0  0
   -3.2337   -0.0735   -1.5148 C   0  0  0  0  0  0  0  0  0  0  0  0
   -1.8573   -0.2820   -1.6756 C   0  0  0  0  0  0  0  0  0  0  0  0
    1.2182   -0.8920    0.9928 H   0  0  0  0  0  0  0  0  0  0  0  0
    0.7880   -1.4188   -2.9356 H   0  0  0  0  0  0  0  0  0  0  0  0
    0.5237    0.1845   -2.4832 H   0  0  0  0  0  0  0  0  0  0  0  0
    4.1034    0.1634   -1.2362 H   0  0  0  0  0  0  0  0  0  0  0  0
    1.5689    0.3117   -0.3097 H   0  0  0  0  0  0  0  0  0  0  0  0
    2.8962    0.5352    0.7355 H   0  0  0  0  0  0  0  0  0  0  0  0
    0.0738    1.7547   -1.3400 H   0  0  0  0  0  0  0  0  0  0  0  0
    0.4333    3.4235   -1.2311 H   0  0  0  0  0  0  0  0  0  0  0  0
    1.3727    1.7045   -3.3268 H   0  0  0  0  0  0  0  0  0  0  0  0
    1.8389    3.3511   -3.0389 H   0  0  0  0  0  0  0  0  0  0  0  0
    3.8524    1.8231   -3.0507 H   0  0  0  0  0  0  0  0  0  0  0  0
    4.7146    2.5839   -0.7461 H   0  0  0  0  0  0  0  0  0  0  0  0
    3.8889    3.9054   -1.6142 H   0  0  0  0  0  0  0  0  0  0  0  0
    2.3842    4.1330    0.1498 H   0  0  0  0  0  0  0  0  0  0  0  0
    3.2981    2.9103    1.0159 H   0  0  0  0  0  0  0  0  0  0  0  0
    1.1931   -2.7824    0.6047 H   0  0  0  0  0  0  0  0  0  0  0  0
    2.3431   -2.6959   -2.2278 H   0  0  0  0  0  0  0  0  0  0  0  0
    3.1808   -2.3722   -0.6982 H   0  0  0  0  0  0  0  0  0  0  0  0
    2.9141   -4.7700   -2.0879 H   0  0  0  0  0  0  0  0  0  0  0  0
    3.2882   -4.6908   -0.3540 H   0  0  0  0  0  0  0  0  0  0  0  0
    0.8919   -5.8117   -1.4741 H   0  0  0  0  0  0  0  0  0  0  0  0
    1.1716   -5.3673    0.2275 H   0  0  0  0  0  0  0  0  0  0  0  0
   -0.6607   -4.0527   -0.2604 H   0  0  0  0  0  0  0  0  0  0  0  0
   -0.1814   -3.7132   -1.9377 H   0  0  0  0  0  0  0  0  0  0  0  0
   -1.3872   -2.4254    0.9012 H   0  0  0  0  0  0  0  0  0  0  0  0
   -3.8068   -2.3183    0.9750 H   0  0  0  0  0  0  0  0  0  0  0  0
   -5.0173   -0.7272   -0.5203 H   0  0  0  0  0  0  0  0  0  0  0  0
   -3.7228    0.7037   -2.0897 H   0  0  0  0  0  0  0  0  0  0  0  0
   -1.3748    0.3545   -2.4054 H   0  0  0  0  0  0  0  0  0  0  0  0
  1  2  1  0  0  0  0
  1 24  1  0  0  0  0
  2  3  1  0  0  0  0
  2 13  1  0  0  0  0
  2 18  1  0  0  0  0
  3  4  1  0  0  0  0
  3 25  1  0  0  0  0
  3 26  1  0  0  0  0
  4  5  1  0  0  0  0
  5  6  1  0  0  0  0
  5 10  1  0  0  0  0
  5 27  1  0  0  0  0
  6  7  1  0  0  0  0
  6 28  1  0  0  0  0
  6 29  1  0  0  0  0
  7  8  1  0  0  0  0
  7 12  1  0  0  0  0
  8  9  1  0  0  0  0
  8 30  1  0  0  0  0
  8 31  1  0  0  0  0
  9 10  1  0  0  0  0
  9 32  1  0  0  0  0
  9 33  1  0  0  0  0
 10 11  1  0  0  0  0
 10 34  1  0  0  0  0
 11 12  1  0  0  0  0
 11 35  1  0  0  0  0
 11 36  1  0  0  0  0
 12 37  1  0  0  0  0
 12 38  1  0  0  0  0
 13 14  1  0  0  0  0
 13 17  1  0  0  0  0
 13 39  1  0  0  0  0
 14 15  1  0  0  0  0
 14 40  1  0  0  0  0
 14 41  1  0  0  0  0
 15 16  1  0  0  0  0
 15 42  1  0  0  0  0
 15 43  1  0  0  0  0
 16 17  1  0  0  0  0
 16 44  1  0  0  0  0
 16 45  1  0  0  0  0
 17 46  1  0  0  0  0
 17 47  1  0  0  0  0
 18 19  2  0  0  0  0
 18 23  1  0  0  0  0
 19 20  1  0  0  0  0
 19 48  1  0  0  0  0
 20 21  2  0  0  0  0
 20 49  1  0  0  0  0
 21 22  1  0  0  0  0
 21 50  1  0  0  0  0
 22 23  2  0  0  0  0
 22 51  1  0  0  0  0
 23 52  1  0  0  0  0
M  END
>  <DRUGBANK_ID>
DB16287

>  <COMMON_NAME>
Penequinine, Penehyclidine

>  <CAS_NUMBER>
87827-02-9

>  <UNII>
353CX8CSHD

>  <SYNONYMS>
Penehyclidine; Penequine; Penequinine; Penethequinine

$$$$
