WH6
 OpenBabel10282417173D

 47 50  0  0  0  0  0  0  0  0999 V2000
   -4.9869   -3.1558    3.4881 C   0  0  0  0  0  0  0  0  0  0  0  0
   -5.1045   -1.7679    3.6511 C   0  0  0  0  0  0  0  0  0  0  0  0
   -5.8664   -1.2664    4.6932 C   0  0  0  0  0  0  0  0  0  0  0  0
   -6.4920   -2.1387    5.5821 C   0  0  0  0  0  0  0  0  0  0  0  0
   -6.3812   -3.5169    5.4403 C   0  0  0  0  0  0  0  0  0  0  0  0
   -5.6551   -4.0432    4.3960 C   0  0  0  0  0  0  0  0  0  0  0  0
   -5.6227   -5.4404    4.2738 C   0  0  0  0  0  0  0  0  0  0  0  0
   -4.9754   -5.9885    3.2187 C   0  0  0  0  0  0  0  0  0  0  0  0
   -4.4325   -5.1020    2.3259 C   0  0  0  0  0  0  0  0  0  0  0  0
   -4.2821   -3.7185    2.4427 C   0  0  0  0  0  0  0  0  0  0  0  0
   -3.5114   -2.9732    1.3708 C   0  0  0  0  0  0  0  0  0  0  0  0
   -2.0397   -3.4713    1.1333 C   0  0  2  0  0  0  0  0  0  0  0  0
   -1.3371   -2.8488   -0.0790 C   0  0  0  0  0  0  0  0  0  0  0  0
   -2.2630   -2.1403   -1.0236 C   0  0  0  0  0  0  0  0  0  0  0  0
   -2.2865   -0.9387   -1.2233 O   0  0  0  0  0  0  0  0  0  0  0  0
   -3.1558   -2.9627   -1.5927 O   0  0  0  0  0  0  0  0  0  0  0  0
   -1.8957   -4.9349    1.0055 N   0  0  0  0  0  0  0  0  0  0  0  0
   -2.6523   -5.7154    0.1603 C   0  0  0  0  0  0  0  0  0  0  0  0
   -3.5165   -5.4046   -0.6346 O   0  0  0  0  0  0  0  0  0  0  0  0
   -2.4675   -7.0971    0.5952 C   0  0  0  0  0  0  0  0  0  0  0  0
   -3.2197   -8.2280    0.3153 C   0  0  0  0  0  0  0  0  0  0  0  0
   -2.7505   -9.4549    0.8102 C   0  0  0  0  0  0  0  0  0  0  0  0
   -3.4647  -10.6924    0.3664 C   0  0  0  0  0  0  0  0  0  0  0  0
   -2.9198  -11.8710    0.7262 O   0  0  0  0  0  0  0  0  0  0  0  0
   -4.4757  -10.6397   -0.3156 O   0  0  0  0  0  0  0  0  0  0  0  0
   -1.6082   -9.4653    1.6472 C   0  0  0  0  0  0  0  0  0  0  0  0
   -0.9813   -8.2751    2.0521 C   0  0  0  0  0  0  0  0  0  0  0  0
   -1.4474   -7.0966    1.5200 C   0  0  0  0  0  0  0  0  0  0  0  0
   -1.0962   -5.7048    1.7983 C   0  0  0  0  0  0  0  0  0  0  0  0
   -0.2522   -5.3640    2.6206 O   0  0  0  0  0  0  0  0  0  0  0  0
   -1.4789   -3.1768    2.0373 H   0  0  0  0  0  0  0  0  0  0  0  0
   -4.6367   -1.0584    2.9740 H   0  0  0  0  0  0  0  0  0  0  0  0
   -5.9668   -0.1925    4.8085 H   0  0  0  0  0  0  0  0  0  0  0  0
   -7.0790   -1.7471    6.4018 H   0  0  0  0  0  0  0  0  0  0  0  0
   -6.8653   -4.1867    6.1434 H   0  0  0  0  0  0  0  0  0  0  0  0
   -6.1459   -6.1143    4.9416 H   0  0  0  0  0  0  0  0  0  0  0  0
   -4.9335   -7.0496    2.9982 H   0  0  0  0  0  0  0  0  0  0  0  0
   -4.2218   -5.5887    1.4188 H   0  0  0  0  0  0  0  0  0  0  0  0
   -4.1280   -3.0613    0.4742 H   0  0  0  0  0  0  0  0  0  0  0  0
   -3.4529   -1.8927    1.5606 H   0  0  0  0  0  0  0  0  0  0  0  0
   -0.5773   -2.1355    0.2590 H   0  0  0  0  0  0  0  0  0  0  0  0
   -0.7913   -3.6157   -0.6429 H   0  0  0  0  0  0  0  0  0  0  0  0
   -3.9043   -2.4345   -1.9357 H   0  0  0  0  0  0  0  0  0  0  0  0
   -4.1395   -8.1541   -0.2653 H   0  0  0  0  0  0  0  0  0  0  0  0
   -2.1058  -11.8829    1.2530 H   0  0  0  0  0  0  0  0  0  0  0  0
   -1.1728  -10.3885    2.0086 H   0  0  0  0  0  0  0  0  0  0  0  0
   -0.1371   -8.2785    2.7330 H   0  0  0  0  0  0  0  0  0  0  0  0
  1  2  2  0  0  0  0
  1  6  1  0  0  0  0
  1 10  1  0  0  0  0
  2  3  1  0  0  0  0
  2 32  1  0  0  0  0
  3  4  2  0  0  0  0
  3 33  1  0  0  0  0
  4  5  1  0  0  0  0
  4 34  1  0  0  0  0
  5  6  2  0  0  0  0
  5 35  1  0  0  0  0
  6  7  1  0  0  0  0
  7  8  2  0  0  0  0
  7 36  1  0  0  0  0
  8  9  1  0  0  0  0
  8 37  1  0  0  0  0
  9 10  2  0  0  0  0
  9 38  1  0  0  0  0
 10 11  1  0  0  0  0
 11 39  1  0  0  0  0
 11 40  1  0  0  0  0
 12 17  1  0  0  0  0
 12 31  1  1  0  0  0
 12 13  1  0  0  0  0
 12 11  1  0  0  0  0
 13 14  1  0  0  0  0
 13 41  1  0  0  0  0
 13 42  1  0  0  0  0
 14 15  2  0  0  0  0
 14 16  1  0  0  0  0
 16 43  1  0  0  0  0
 17 18  1  0  0  0  0
 17 29  1  0  0  0  0
 18 19  2  0  0  0  0
 18 20  1  0  0  0  0
 20 21  2  0  0  0  0
 20 28  1  0  0  0  0
 21 22  1  0  0  0  0
 21 44  1  0  0  0  0
 22 23  1  0  0  0  0
 22 26  2  0  0  0  0
 23 24  1  0  0  0  0
 23 25  2  0  0  0  0
 24 45  1  0  0  0  0
 26 27  1  0  0  0  0
 26 46  1  0  0  0  0
 27 28  2  0  0  0  0
 27 47  1  0  0  0  0
 28 29  1  0  0  0  0
 29 30  2  0  0  0  0
M  END
>  <DRUGBANK_ID>
DB08731

>  <COMMON_NAME>
2-[(1R)-2-carboxy-1-(naphthalen-1-ylmethyl)ethyl]-1,3-dioxo-2,3-dihydro-1H-isoindole-5-carboxylic acid

$$$$
