AYM
 OpenBabel10282417123D

 44 46  0  0  0  0  0  0  0  0999 V2000
    2.3911   -0.1235    0.1192 N   0  0  0  0  0  0  0  0  0  0  0  0
    1.0247   -0.0719    0.0236 C   0  0  0  0  0  0  0  0  0  0  0  0
    0.4950    1.1656    0.0245 N   0  0  0  0  0  0  0  0  0  0  0  0
   -0.8428    1.2605    0.0294 C   0  0  0  0  0  0  0  0  0  0  0  0
   -1.6626    0.1519    0.0016 C   0  0  0  0  0  0  0  0  0  0  0  0
   -1.0937   -1.1220    0.0109 C   0  0  0  0  0  0  0  0  0  0  0  0
    0.2750   -1.2360    0.0480 C   0  0  0  0  0  0  0  0  0  0  0  0
   -3.0982    0.1969   -0.0863 C   0  0  0  0  0  0  0  0  0  0  0  0
   -3.8843    1.2555   -0.1425 C   0  0  0  0  0  0  0  0  0  0  0  0
   -5.3437    1.3544   -0.3547 C   0  0  0  0  0  0  0  0  0  0  0  0
   -5.6540    2.5068   -0.5908 O   0  0  0  0  0  0  0  0  0  0  0  0
   -6.2390    0.2935   -0.3047 N   0  0  0  0  0  0  0  0  0  0  0  0
   -5.9505   -1.1218   -0.2999 C   0  0  0  0  0  0  0  0  0  0  0  0
   -7.6796    0.5481   -0.4314 C   0  0  0  0  0  0  0  0  0  0  0  0
   -8.2043    1.2255    0.7851 C   0  0  0  0  0  0  0  0  0  0  0  0
   -8.7969    0.6858    1.9164 C   0  0  0  0  0  0  0  0  0  0  0  0
   -8.9965    1.7367    2.8520 C   0  0  0  0  0  0  0  0  0  0  0  0
   -8.5532    2.9091    2.2457 C   0  0  0  0  0  0  0  0  0  0  0  0
   -8.1925    2.5916    0.9555 N   0  0  0  0  0  0  0  0  0  0  0  0
   -7.8333    3.6039   -0.0153 C   0  0  0  0  0  0  0  0  0  0  0  0
   -9.4973    1.8062    4.1654 C   0  0  0  0  0  0  0  0  0  0  0  0
   -9.5179    3.0433    4.8233 C   0  0  0  0  0  0  0  0  0  0  0  0
   -9.0346    4.1921    4.2022 C   0  0  0  0  0  0  0  0  0  0  0  0
   -8.5381    4.1447    2.9028 C   0  0  0  0  0  0  0  0  0  0  0  0
    2.8124    0.7808   -0.0541 H   0  0  0  0  0  0  0  0  0  0  0  0
    2.8781   -0.9666   -0.1305 H   0  0  0  0  0  0  0  0  0  0  0  0
   -1.2382    2.2710    0.0502 H   0  0  0  0  0  0  0  0  0  0  0  0
   -1.7063   -2.0227   -0.0134 H   0  0  0  0  0  0  0  0  0  0  0  0
    0.7305   -2.2169    0.0745 H   0  0  0  0  0  0  0  0  0  0  0  0
   -3.4437   -0.8022   -0.1551 H   0  0  0  0  0  0  0  0  0  0  0  0
   -3.4476    2.2558   -0.0998 H   0  0  0  0  0  0  0  0  0  0  0  0
   -6.4215   -1.5832    0.5682 H   0  0  0  0  0  0  0  0  0  0  0  0
   -6.3009   -1.5532   -1.2412 H   0  0  0  0  0  0  0  0  0  0  0  0
   -4.9302   -1.4045   -0.2490 H   0  0  0  0  0  0  0  0  0  0  0  0
   -7.8989    1.0784   -1.3605 H   0  0  0  0  0  0  0  0  0  0  0  0
   -8.1923   -0.4231   -0.5144 H   0  0  0  0  0  0  0  0  0  0  0  0
   -9.0202   -0.3616    2.0784 H   0  0  0  0  0  0  0  0  0  0  0  0
   -8.6554    4.3064   -0.1315 H   0  0  0  0  0  0  0  0  0  0  0  0
   -6.9477    4.1298    0.3596 H   0  0  0  0  0  0  0  0  0  0  0  0
   -7.6619    3.1561   -0.9944 H   0  0  0  0  0  0  0  0  0  0  0  0
   -9.8611    0.9144    4.6658 H   0  0  0  0  0  0  0  0  0  0  0  0
   -9.9116    3.1076    5.8334 H   0  0  0  0  0  0  0  0  0  0  0  0
   -9.0477    5.1435    4.7261 H   0  0  0  0  0  0  0  0  0  0  0  0
   -8.1546    5.0354    2.4162 H   0  0  0  0  0  0  0  0  0  0  0  0
  1  2  1  0  0  0  0
  1 25  1  0  0  0  0
  1 26  1  0  0  0  0
  2  3  2  0  0  0  0
  2  7  1  0  0  0  0
  3  4  1  0  0  0  0
  4  5  2  0  0  0  0
  4 27  1  0  0  0  0
  5  6  1  0  0  0  0
  5  8  1  0  0  0  0
  6  7  2  0  0  0  0
  6 28  1  0  0  0  0
  7 29  1  0  0  0  0
  8  9  2  0  0  0  0
  8 30  1  0  0  0  0
  9 10  1  0  0  0  0
  9 31  1  0  0  0  0
 10 11  2  0  0  0  0
 10 12  1  0  0  0  0
 12 13  1  0  0  0  0
 12 14  1  0  0  0  0
 13 32  1  0  0  0  0
 13 33  1  0  0  0  0
 13 34  1  0  0  0  0
 14 15  1  0  0  0  0
 14 35  1  0  0  0  0
 14 36  1  0  0  0  0
 15 16  2  0  0  0  0
 15 19  1  0  0  0  0
 16 17  1  0  0  0  0
 16 37  1  0  0  0  0
 17 18  2  0  0  0  0
 17 21  1  0  0  0  0
 18 19  1  0  0  0  0
 18 24  1  0  0  0  0
 19 20  1  0  0  0  0
 20 38  1  0  0  0  0
 20 39  1  0  0  0  0
 20 40  1  0  0  0  0
 21 22  2  0  0  0  0
 21 41  1  0  0  0  0
 22 23  1  0  0  0  0
 22 42  1  0  0  0  0
 23 24  2  0  0  0  0
 23 43  1  0  0  0  0
 24 44  1  0  0  0  0
M  END
>  <DRUGBANK_ID>
DB01865

>  <SECONDARY_ACCESSION_NUMBERS>
EXPT00597

>  <COMMON_NAME>
3-(6-Aminopyridin-3-Yl)-N-Methyl-N-[(1-Methyl-1h-Indol-2-Yl)Methyl]Acrylamide

$$$$
