
 OpenBabel10282417113D

 15 15  0  0  0  0  0  0  0  0999 V2000
    0.1458    0.9457   -0.0609 C   0  0  1  0  0  0  0  0  0  0  0  0
    0.8952   -0.3366    0.1669 C   0  0  2  0  0  0  0  0  0  0  0  0
   -0.5507   -0.2688    0.2063 O   0  0  0  0  0  0  0  0  0  0  0  0
   -0.0303    2.0275    0.9332 C   0  0  0  0  0  0  0  0  0  0  0  0
    1.6944   -0.9794    1.6154 P   0  0  0  0  0  0  0  0  0  0  0  0
    0.8293   -2.0611    2.1730 O   0  0  0  0  0  0  0  0  0  0  0  0
    3.1349   -1.4935    1.1528 O   0  0  0  0  0  0  0  0  0  0  0  0
    2.0309    0.1552    2.6786 O   0  0  0  0  0  0  0  0  0  0  0  0
    0.0569    1.3241   -1.0727 H   0  0  0  0  0  0  0  0  0  0  0  0
    1.3401   -0.7416   -0.7334 H   0  0  0  0  0  0  0  0  0  0  0  0
    0.7886    2.7456    0.8252 H   0  0  0  0  0  0  0  0  0  0  0  0
   -0.9631    2.5685    0.7327 H   0  0  0  0  0  0  0  0  0  0  0  0
   -0.0579    1.6743    1.9655 H   0  0  0  0  0  0  0  0  0  0  0  0
    3.1182   -2.0794    0.3725 H   0  0  0  0  0  0  0  0  0  0  0  0
    2.2480   -0.2707    3.5329 H   0  0  0  0  0  0  0  0  0  0  0  0
  1  2  1  0  0  0  0
  1  3  1  0  0  0  0
  1  4  1  0  0  0  0
  1  9  1  6  0  0  0
  2  3  1  0  0  0  0
  2 10  1  6  0  0  0
  2  5  1  0  0  0  0
  4 11  1  0  0  0  0
  4 12  1  0  0  0  0
  4 13  1  0  0  0  0
  5  6  2  0  0  0  0
  5  7  1  0  0  0  0
  5  8  1  0  0  0  0
  7 14  1  0  0  0  0
  8 15  1  0  0  0  0
M  END
>  <DRUGBANK_ID>
DB00828

>  <SECONDARY_ACCESSION_NUMBERS>
APRD00987

>  <COMMON_NAME>
Fosfomycin

>  <CAS_NUMBER>
23155-02-4

>  <UNII>
2N81MY12TE

>  <SYNONYMS>
(-)-(1R,2S)-(1,2-Epoxypropyl)phosphonic acid; (1R,2S)-epoxypropylphosphonic acid; (2R-cis)-(3-Methyloxiranyl)phosphonic acid; 1R-cis-(1,2-epoxypropyl)phosphonic acid; cis-(1R,2S)-epoxypropylphosphonic acid; FCM; Fosfocina; Fosfomicina; Fosfomycin; Fosfomycine; Fosfomycinum; L-cis-1,2-epoxypropylphosphonic acid; Phosphomycin; Phosphonemycin; Phosphonomycin

$$$$
