
 OpenBabel10282417233D

 44 47  0  0  0  0  0  0  0  0999 V2000
    1.1432   -0.2572   -0.1648 C   0  0  0  0  0  0  0  0  0  0  0  0
    0.4476   -0.6209    1.1482 C   0  0  0  0  0  0  0  0  0  0  0  0
    0.8855    0.2476    2.3007 N   0  3  0  0  0  0  0  0  0  0  0  0
    1.4924   -0.2949    3.4082 C   0  0  0  0  0  0  0  0  0  0  0  0
    1.7400   -1.7564    3.4364 C   0  0  0  0  0  0  0  0  0  0  0  0
    1.1473   -2.5612    4.4322 C   0  0  0  0  0  0  0  0  0  0  0  0
    1.5452   -3.8861    4.6166 C   0  0  0  0  0  0  0  0  0  0  0  0
    2.4211   -4.4778    3.7136 C   0  0  0  0  0  0  0  0  0  0  0  0
    2.9143   -3.7412    2.6409 C   0  0  0  0  0  0  0  0  0  0  0  0
    2.6384   -2.3754    2.5470 C   0  0  0  0  0  0  0  0  0  0  0  0
    1.8347    0.5276    4.5245 C   0  0  0  0  0  0  0  0  0  0  0  0
    1.5604    1.9035    4.4785 C   0  0  0  0  0  0  0  0  0  0  0  0
    1.8863    2.6782    5.6246 C   0  0  0  0  0  0  0  0  0  0  0  0
    2.4527    2.1177    6.7747 C   0  0  0  0  0  0  0  0  0  0  0  0
    2.7554    0.7733    6.8212 C   0  0  0  0  0  0  0  0  0  0  0  0
    3.2026    0.1761    7.9846 N   0  0  0  0  0  0  0  0  0  0  0  0
    2.4445    0.0015    5.7042 C   0  0  0  0  0  0  0  0  0  0  0  0
    0.9560    2.4547    3.3107 C   0  0  0  0  0  0  0  0  0  0  0  0
    0.5878    1.5893    2.2550 C   0  0  0  0  0  0  0  0  0  0  0  0
   -0.1152    2.1500    1.1616 C   0  0  0  0  0  0  0  0  0  0  0  0
   -0.2789    3.5105    0.9487 C   0  0  0  0  0  0  0  0  0  0  0  0
   -1.0011    3.9433   -0.1582 N   0  0  0  0  0  0  0  0  0  0  0  0
    0.0688    4.3524    1.9837 C   0  0  0  0  0  0  0  0  0  0  0  0
    0.6586    3.8337    3.1457 C   0  0  0  0  0  0  0  0  0  0  0  0
    0.9665    0.7572   -0.5284 H   0  0  0  0  0  0  0  0  0  0  0  0
    0.7789   -0.9158   -0.9586 H   0  0  0  0  0  0  0  0  0  0  0  0
    2.2277   -0.3500   -0.0820 H   0  0  0  0  0  0  0  0  0  0  0  0
   -0.6440   -0.5430    1.1053 H   0  0  0  0  0  0  0  0  0  0  0  0
    0.6406   -1.6722    1.3388 H   0  0  0  0  0  0  0  0  0  0  0  0
    0.4264   -2.1412    5.1351 H   0  0  0  0  0  0  0  0  0  0  0  0
    1.1821   -4.4530    5.4723 H   0  0  0  0  0  0  0  0  0  0  0  0
    2.7248   -5.5138    3.8497 H   0  0  0  0  0  0  0  0  0  0  0  0
    3.5405   -4.2281    1.8960 H   0  0  0  0  0  0  0  0  0  0  0  0
    3.1327   -1.8071    1.7615 H   0  0  0  0  0  0  0  0  0  0  0  0
    1.6878    3.7452    5.6655 H   0  0  0  0  0  0  0  0  0  0  0  0
    2.6569    2.7566    7.6314 H   0  0  0  0  0  0  0  0  0  0  0  0
    3.5251   -0.7840    7.9800 H   0  0  0  0  0  0  0  0  0  0  0  0
    3.5417    0.7545    8.7454 H   0  0  0  0  0  0  0  0  0  0  0  0
    2.6933   -1.0547    5.7779 H   0  0  0  0  0  0  0  0  0  0  0  0
   -0.5853    1.5238    0.4120 H   0  0  0  0  0  0  0  0  0  0  0  0
   -0.9360    4.9320   -0.3853 H   0  0  0  0  0  0  0  0  0  0  0  0
   -0.9440    3.3653   -0.9942 H   0  0  0  0  0  0  0  0  0  0  0  0
   -0.1340    5.4186    1.9160 H   0  0  0  0  0  0  0  0  0  0  0  0
    0.8730    4.5566    3.9323 H   0  0  0  0  0  0  0  0  0  0  0  0
  1  2  1  0  0  0  0
  1 25  1  0  0  0  0
  1 26  1  0  0  0  0
  1 27  1  0  0  0  0
  2  3  1  0  0  0  0
  2 28  1  0  0  0  0
  2 29  1  0  0  0  0
  3  4  2  0  0  0  0
  3 19  1  0  0  0  0
  4  5  1  0  0  0  0
  4 11  1  0  0  0  0
  5  6  2  0  0  0  0
  5 10  1  0  0  0  0
  6  7  1  0  0  0  0
  6 30  1  0  0  0  0
  7  8  2  0  0  0  0
  7 31  1  0  0  0  0
  8  9  1  0  0  0  0
  8 32  1  0  0  0  0
  9 10  2  0  0  0  0
  9 33  1  0  0  0  0
 10 34  1  0  0  0  0
 11 12  2  0  0  0  0
 11 17  1  0  0  0  0
 12 13  1  0  0  0  0
 12 18  1  0  0  0  0
 13 14  2  0  0  0  0
 13 35  1  0  0  0  0
 14 15  1  0  0  0  0
 14 36  1  0  0  0  0
 15 16  1  0  0  0  0
 15 17  2  0  0  0  0
 16 37  1  0  0  0  0
 16 38  1  0  0  0  0
 17 39  1  0  0  0  0
 18 19  2  0  0  0  0
 18 24  1  0  0  0  0
 19 20  1  0  0  0  0
 20 21  2  0  0  0  0
 20 40  1  0  0  0  0
 21 22  1  0  0  0  0
 21 23  1  0  0  0  0
 22 41  1  0  0  0  0
 22 42  1  0  0  0  0
 23 24  2  0  0  0  0
 23 43  1  0  0  0  0
 24 44  1  0  0  0  0
M  CHG  1   3   1
M  END
>  <DRUGBANK_ID>
DB17031

>  <COMMON_NAME>
Homidium

>  <CAS_NUMBER>
3546-21-2

>  <UNII>
EN464416SI

>  <SYNONYMS>
2,7-diamino-10-ethyl-9-phenylphenanthridinium; 2,7-diamino-9-phenyl-10-ethylphenanthridinium; 3,8-diamino-5-ethyl-6-phenylphenanthridinium; Babidium; Ethidium; Homidium cation; Homidium ion; Novidium

$$$$
