
 OpenBabel10282417213D

 46 47  0  0  0  0  0  0  0  0999 V2000
    0.9783    0.0118    0.0987 C   0  0  0  0  0  0  0  0  0  0  0  0
    0.9559   -1.4342   -1.9429 C   0  0  0  0  0  0  0  0  0  0  0  0
   -1.0802   -0.1073   -1.3489 C   0  0  0  0  0  0  0  0  0  0  0  0
    4.1784    5.6119   -7.0493 C   0  0  0  0  0  0  0  0  0  0  0  0
    1.8871    5.2843   -8.1229 C   0  0  0  0  0  0  0  0  0  0  0  0
    2.2584    6.9385   -6.4337 C   0  0  0  0  0  0  0  0  0  0  0  0
    2.4817    2.0104   -5.3892 C   0  0  0  0  0  0  0  0  0  0  0  0
    0.5720    2.3283   -1.7009 C   0  0  0  0  0  0  0  0  0  0  0  0
    0.8278    3.4482   -2.4453 C   0  0  0  0  0  0  0  0  0  0  0  0
    2.7020    3.1351   -6.1730 C   0  0  0  0  0  0  0  0  0  0  0  0
    1.6247    1.0060   -3.3785 C   0  0  0  0  0  0  0  0  0  0  0  0
    1.8742    2.1539   -4.1480 C   0  0  0  0  0  0  0  0  0  0  0  0
    0.9344    1.0801   -2.1624 C   0  0  0  0  0  0  0  0  0  0  0  0
    1.4773    3.4371   -3.6792 C   0  0  0  0  0  0  0  0  0  0  0  0
    2.3350    4.4572   -5.7548 C   0  0  0  0  0  0  0  0  0  0  0  0
    1.7167    4.6085   -4.4581 C   0  0  0  0  0  0  0  0  0  0  0  0
    0.4652   -0.1114   -1.3500 C   0  0  0  0  0  0  0  0  0  0  0  0
    2.6576    5.5387   -6.8129 C   0  0  0  0  0  0  0  0  0  0  0  0
    2.4896    7.1510   -3.6320 O   0  0  0  0  0  0  0  0  0  0  0  0
    0.1618    6.8277   -4.5625 O   0  0  0  0  0  0  0  0  0  0  0  0
    0.8435    6.1478   -2.2884 O   0  0  0  0  0  0  0  0  0  0  0  0
    1.1610    6.2379   -3.6878 S   0  0  0  0  0  0  0  0  0  0  0  0
    0.6345   -0.8302    0.7055 H   0  0  0  0  0  0  0  0  0  0  0  0
    0.6233    0.9225    0.5963 H   0  0  0  0  0  0  0  0  0  0  0  0
    2.0736    0.0392    0.1266 H   0  0  0  0  0  0  0  0  0  0  0  0
    0.5994   -2.2847   -1.3575 H   0  0  0  0  0  0  0  0  0  0  0  0
    0.5934   -1.5641   -2.9700 H   0  0  0  0  0  0  0  0  0  0  0  0
    2.0517   -1.4694   -1.9630 H   0  0  0  0  0  0  0  0  0  0  0  0
   -1.4956    0.8058   -0.9029 H   0  0  0  0  0  0  0  0  0  0  0  0
   -1.4752   -0.1676   -2.3705 H   0  0  0  0  0  0  0  0  0  0  0  0
   -1.4748   -0.9496   -0.7748 H   0  0  0  0  0  0  0  0  0  0  0  0
    4.5813    4.7209   -7.5368 H   0  0  0  0  0  0  0  0  0  0  0  0
    4.4238    6.4744   -7.6797 H   0  0  0  0  0  0  0  0  0  0  0  0
    4.7077    5.7430   -6.0958 H   0  0  0  0  0  0  0  0  0  0  0  0
    0.8112    5.1956   -7.9206 H   0  0  0  0  0  0  0  0  0  0  0  0
    2.0189    6.1321   -8.8067 H   0  0  0  0  0  0  0  0  0  0  0  0
    2.2075    4.3830   -8.6489 H   0  0  0  0  0  0  0  0  0  0  0  0
    1.1803    6.9644   -6.3426 H   0  0  0  0  0  0  0  0  0  0  0  0
    2.8264    7.2011   -5.5609 H   0  0  0  0  0  0  0  0  0  0  0  0
    2.4994    7.7318   -7.1374 H   0  0  0  0  0  0  0  0  0  0  0  0
    2.7637    1.0271   -5.7724 H   0  0  0  0  0  0  0  0  0  0  0  0
    0.0292    2.4814   -0.7724 H   0  0  0  0  0  0  0  0  0  0  0  0
    0.4104    4.3094   -1.9677 H   0  0  0  0  0  0  0  0  0  0  0  0
    3.1687    2.9558   -7.1462 H   0  0  0  0  0  0  0  0  0  0  0  0
    1.9535    0.0420   -3.7602 H   0  0  0  0  0  0  0  0  0  0  0  0
    3.2279    6.6481   -3.2349 H   0  0  0  0  0  0  0  0  0  0  0  0
  1 23  1  0  0  0  0
  1 24  1  0  0  0  0
  1 25  1  0  0  0  0
  2 26  1  0  0  0  0
  2 27  1  0  0  0  0
  2 28  1  0  0  0  0
  3 29  1  0  0  0  0
  3 30  1  0  0  0  0
  3 31  1  0  0  0  0
  4 32  1  0  0  0  0
  4 33  1  0  0  0  0
  4 34  1  0  0  0  0
  5 35  1  0  0  0  0
  5 36  1  0  0  0  0
  5 37  1  0  0  0  0
  6 38  1  0  0  0  0
  6 39  1  0  0  0  0
  6 40  1  0  0  0  0
  7 41  1  0  0  0  0
  8 42  1  0  0  0  0
  9  8  1  0  0  0  0
  9 43  1  0  0  0  0
 10  7  2  0  0  0  0
 10 44  1  0  0  0  0
 11 45  1  0  0  0  0
 12  7  1  0  0  0  0
 12 11  2  0  0  0  0
 13  8  2  0  0  0  0
 13 11  1  0  0  0  0
 14  9  2  0  0  0  0
 14 12  1  0  0  0  0
 15 10  1  0  0  0  0
 16 14  1  0  0  0  0
 16 15  2  0  0  0  0
 17  1  1  0  0  0  0
 17  2  1  0  0  0  0
 17  3  1  0  0  0  0
 17 13  1  0  0  0  0
 18  4  1  0  0  0  0
 18  5  1  0  0  0  0
 18  6  1  0  0  0  0
 18 15  1  0  0  0  0
 19 46  1  0  0  0  0
 22 16  1  0  0  0  0
 22 19  1  0  0  0  0
 22 20  2  0  0  0  0
 22 21  2  0  0  0  0
M  END
>  <DRUGBANK_ID>
DB13796

>  <COMMON_NAME>
Dibunate

>  <CAS_NUMBER>
14992-58-6

>  <UNII>
ZXY319VL5S

>  <SYNONYMS>
Dibunate

$$$$
