
 OpenBabel10282417193D

 69 72  0  0  0  0  0  0  0  0999 V2000
    0.2931   -0.7881    0.2044 C   0  0  0  0  0  0  0  0  0  0  0  0
   -0.0256   -0.0177   -1.0604 C   0  0  0  0  0  0  0  0  0  0  0  0
    1.5522   -0.9767   -2.1441 C   0  0  0  0  0  0  0  0  0  0  0  0
    2.5794    0.4889   -3.2127 C   0  0  0  0  0  0  0  0  0  0  0  0
    2.1615    2.4806   -3.1386 C   0  0  0  0  0  0  0  0  0  0  0  0
    0.9430    3.4368   -2.2661 C   0  0  0  0  0  0  0  0  0  0  0  0
   -0.2893    2.0866   -1.1360 C   0  0  0  0  0  0  0  0  0  0  0  0
    2.6590    2.9549   -4.2780 C   0  0  0  0  0  0  0  0  0  0  0  0
    2.0746    2.5570   -5.5232 C   0  0  0  0  0  0  0  0  0  0  0  0
    2.6080    3.2586   -6.4920 C   0  0  0  0  0  0  0  0  0  0  0  0
    3.5728    4.1693   -6.0133 C   0  0  0  0  0  0  0  0  0  0  0  0
    4.1352    4.4503   -4.6908 C   0  0  0  0  0  0  0  0  0  0  0  0
    3.6475    3.7394   -3.7755 N   0  0  0  0  0  0  0  0  0  0  0  0
    5.3905    5.2244   -4.3743 C   0  0  0  0  0  0  0  0  0  0  0  0
    5.0554    6.6105   -4.8982 C   0  0  0  0  0  0  0  0  0  0  0  0
    4.5163    6.4837   -6.3301 C   0  0  0  0  0  0  0  0  0  0  0  0
    5.5399    5.5756   -7.1071 O   0  0  0  0  0  0  0  0  0  0  0  0
    6.0649    4.1899   -6.5094 C   0  0  0  0  0  0  0  0  0  0  0  0
    6.5292    4.4805   -5.0998 C   0  0  0  0  0  0  0  0  0  0  0  0
    5.2276    2.7153   -6.5565 C   0  0  0  0  0  0  0  0  0  0  0  0
    7.0596    3.6028   -7.4670 C   0  0  0  0  0  0  0  0  0  0  0  0
    2.8264    6.2496   -6.4640 C   0  0  0  0  0  0  0  0  0  0  0  0
    4.3542    7.8428   -6.9857 C   0  0  0  0  0  0  0  0  0  0  0  0
    1.1234    1.5734   -5.9198 N   0  0  0  0  0  0  0  0  0  0  0  0
    0.2296    0.8618   -5.1601 C   0  0  0  0  0  0  0  0  0  0  0  0
   -0.4812   -0.0203   -5.6287 O   0  0  0  0  0  0  0  0  0  0  0  0
    0.3219    1.1050   -3.7995 C   0  0  0  0  0  0  0  0  0  0  0  0
    0.6649    0.5205   -2.6832 N   0  0  0  0  0  0  0  0  0  0  0  0
    1.9027    0.7343   -1.2414 C   0  0  0  0  0  0  0  0  0  0  0  0
    1.6122    1.9015   -1.3610 C   0  0  0  0  0  0  0  0  0  0  0  0
    0.3256    1.8880   -2.8677 N   0  0  0  0  0  0  0  0  0  0  0  0
    2.1297    0.7634    0.3330 C   0  0  0  0  0  0  0  0  0  0  0  0
    2.1086    0.7494    1.5071 N   0  0  0  0  0  0  0  0  0  0  0  0
   -1.4239   -0.4192   -1.6375 C   0  0  0  0  0  0  0  0  0  0  0  0
    0.0045   -1.8069    0.3880 H   0  0  0  0  0  0  0  0  0  0  0  0
   -0.0339   -0.0805    0.9465 H   0  0  0  0  0  0  0  0  0  0  0  0
    1.3799   -1.0598    0.1651 H   0  0  0  0  0  0  0  0  0  0  0  0
    2.3623   -1.4064   -1.5543 H   0  0  0  0  0  0  0  0  0  0  0  0
    1.1551   -1.6602   -2.9436 H   0  0  0  0  0  0  0  0  0  0  0  0
    3.6174    0.2670   -2.9749 H   0  0  0  0  0  0  0  0  0  0  0  0
    2.3696    0.0931   -4.2363 H   0  0  0  0  0  0  0  0  0  0  0  0
    0.6876    4.4630   -2.4516 H   0  0  0  0  0  0  0  0  0  0  0  0
   -1.2805    2.2070   -1.6070 H   0  0  0  0  0  0  0  0  0  0  0  0
   -0.2232    2.3831   -0.0908 H   0  0  0  0  0  0  0  0  0  0  0  0
    2.5449    3.0318   -7.5491 H   0  0  0  0  0  0  0  0  0  0  0  0
    4.0097    4.5451   -6.9223 H   0  0  0  0  0  0  0  0  0  0  0  0
    5.6325    5.2956   -3.2898 H   0  0  0  0  0  0  0  0  0  0  0  0
    4.2980    7.0732   -4.2492 H   0  0  0  0  0  0  0  0  0  0  0  0
    5.9569    7.2333   -4.8701 H   0  0  0  0  0  0  0  0  0  0  0  0
    7.4528    5.0692   -5.1122 H   0  0  0  0  0  0  0  0  0  0  0  0
    6.7285    3.5085   -4.6267 H   0  0  0  0  0  0  0  0  0  0  0  0
    4.6654    2.6863   -7.5100 H   0  0  0  0  0  0  0  0  0  0  0  0
    5.5445    1.7931   -6.0641 H   0  0  0  0  0  0  0  0  0  0  0  0
    4.5353    2.5694   -5.7511 H   0  0  0  0  0  0  0  0  0  0  0  0
    7.9687    4.1695   -7.5396 H   0  0  0  0  0  0  0  0  0  0  0  0
    7.2853    2.5803   -7.1167 H   0  0  0  0  0  0  0  0  0  0  0  0
    6.5607    3.5110   -8.4448 H   0  0  0  0  0  0  0  0  0  0  0  0
    2.3125    6.7694   -5.6591 H   0  0  0  0  0  0  0  0  0  0  0  0
    2.6060    5.9337   -7.5019 H   0  0  0  0  0  0  0  0  0  0  0  0
    2.1952    5.4362   -6.0881 H   0  0  0  0  0  0  0  0  0  0  0  0
    5.2678    8.4119   -7.0322 H   0  0  0  0  0  0  0  0  0  0  0  0
    3.9471    7.6899   -7.9953 H   0  0  0  0  0  0  0  0  0  0  0  0
    3.5899    8.4052   -6.4147 H   0  0  0  0  0  0  0  0  0  0  0  0
    1.0430    1.3553   -6.9061 H   0  0  0  0  0  0  0  0  0  0  0  0
    0.1492   -0.3203   -2.8411 H   0  0  0  0  0  0  0  0  0  0  0  0
    1.7573    2.8100   -0.6804 H   0  0  0  0  0  0  0  0  0  0  0  0
   -1.4272   -1.4958   -1.7716 H   0  0  0  0  0  0  0  0  0  0  0  0
   -2.1552    0.0597   -0.9948 H   0  0  0  0  0  0  0  0  0  0  0  0
   -1.6407    0.0146   -2.6346 H   0  0  0  0  0  0  0  0  0  0  0  0
  1  2  1  0  0  0  0
  1 35  1  0  0  0  0
  1 36  1  0  0  0  0
  1 37  1  0  0  0  0
  2  3  1  0  0  0  0
  2  7  1  0  0  0  0
  2 34  1  0  0  0  0
  3  4  1  0  0  0  0
  3 38  1  0  0  0  0
  3 39  1  0  0  0  0
  4  5  1  0  0  0  0
  4 40  1  0  0  0  0
  4 41  1  0  0  0  0
  5  6  2  0  0  0  0
  5  8  1  0  0  0  0
  6  7  1  0  0  0  0
  6 42  1  0  0  0  0
  7 43  1  0  0  0  0
  7 44  1  0  0  0  0
  8  9  2  0  0  0  0
  8 13  1  0  0  0  0
  9 10  1  0  0  0  0
  9 24  1  0  0  0  0
 10 11  2  0  0  0  0
 10 45  1  0  0  0  0
 11 12  1  0  0  0  0
 11 46  1  0  0  0  0
 12 13  2  0  0  0  0
 12 14  1  0  0  0  0
 14 15  1  0  0  0  0
 14 19  1  0  0  0  0
 14 47  1  0  0  0  0
 15 16  1  0  0  0  0
 15 48  1  0  0  0  0
 15 49  1  0  0  0  0
 16 17  1  0  0  0  0
 16 22  1  0  0  0  0
 16 23  1  0  0  0  0
 17 18  1  0  0  0  0
 18 19  1  0  0  0  0
 18 20  1  0  0  0  0
 18 21  1  0  0  0  0
 19 50  1  0  0  0  0
 19 51  1  0  0  0  0
 20 52  1  0  0  0  0
 20 53  1  0  0  0  0
 20 54  1  0  0  0  0
 21 55  1  0  0  0  0
 21 56  1  0  0  0  0
 21 57  1  0  0  0  0
 22 58  1  0  0  0  0
 22 59  1  0  0  0  0
 22 60  1  0  0  0  0
 23 61  1  0  0  0  0
 23 62  1  0  0  0  0
 23 63  1  0  0  0  0
 24 25  1  0  0  0  0
 24 64  1  0  0  0  0
 25 26  2  0  0  0  0
 25 27  1  0  0  0  0
 27 28  1  0  0  0  0
 27 31  2  0  0  0  0
 28 29  1  0  0  0  0
 28 65  1  0  0  0  0
 29 30  2  0  0  0  0
 29 32  1  0  0  0  0
 30 31  1  0  0  0  0
 30 66  1  0  0  0  0
 32 33  3  0  0  0  0
 34 67  1  0  0  0  0
 34 68  1  0  0  0  0
 34 69  1  0  0  0  0
M  END
>  <DRUGBANK_ID>
DB12504

>  <COMMON_NAME>
JNJ-40346527

>  <CAS_NUMBER>
1142363-52-7

>  <UNII>
3NU609VYNF

$$$$
