
 OpenBabel10282417213D

 15 12  0  0  0  0  0  0  0  0999 V2000
    0.4481    0.0360    0.7561 Zn  0  2  0  0  0  0  0  0  0  0  0  0
    2.2019    0.5424    0.9909 O   0  5  0  0  0  0  0  0  0  0  0  0
    0.2555   -0.8672   -0.9070 O   0  5  0  0  0  0  0  0  0  0  0  0
    4.2759   -0.0320    1.5750 O   0  0  0  0  0  0  0  0  0  0  0  0
    1.6241    0.7206   -1.3654 O   0  0  0  0  0  0  0  0  0  0  0  0
    3.4540    0.4491    0.7187 C   0  0  0  0  0  0  0  0  0  0  0  0
    1.4486   -0.5004   -1.3094 C   0  0  0  0  0  0  0  0  0  0  0  0
    4.0921    0.5917   -0.8445 C   0  0  0  0  0  0  0  0  0  0  0  0
    2.5068   -1.6338   -0.8405 C   0  0  0  0  0  0  0  0  0  0  0  0
    3.8077   -0.1365   -1.6341 H   0  0  0  0  0  0  0  0  0  0  0  0
    3.8758    1.4976   -1.4224 H   0  0  0  0  0  0  0  0  0  0  0  0
    5.1602    0.3609   -0.8436 H   0  0  0  0  0  0  0  0  0  0  0  0
    2.1158   -2.1910    0.0216 H   0  0  0  0  0  0  0  0  0  0  0  0
    2.7101   -2.2733   -1.6888 H   0  0  0  0  0  0  0  0  0  0  0  0
    3.5315   -1.4917   -0.4439 H   0  0  0  0  0  0  0  0  0  0  0  0
  2  6  1  0  0  0  0
  3  7  1  0  0  0  0
  4  6  2  0  0  0  0
  5  7  2  0  0  0  0
  6  8  1  0  0  0  0
  7  9  1  0  0  0  0
  8 10  1  0  0  0  0
  8 11  1  0  0  0  0
  8 12  1  0  0  0  0
  9 13  1  0  0  0  0
  9 14  1  0  0  0  0
  9 15  1  0  0  0  0
M  CHG  3   1   2   2  -1   3  -1
M  END
>  <DRUGBANK_ID>
DB14487

>  <SECONDARY_ACCESSION_NUMBERS>
DBSALT001308

>  <COMMON_NAME>
Zinc acetate

>  <CAS_NUMBER>
557-34-6

>  <UNII>
H2ZEY72PME

>  <SYNONYMS>
Acetic acid, zinc salt; Dicarbomethoxyzinc; Zinc acetate anhydrous; Zinc acetato; Zinc diacetate; Zinc(II) acetate

$$$$
