
 OpenBabel10282417123D

 32 34  0  0  1  0  0  0  0  0999 V2000
    0.9396    0.0035    0.0114 C   0  0  0  0  0  0  0  0  0  0  0  0
   -0.1605    6.7300    2.5520 C   0  0  0  0  0  0  0  0  0  0  0  0
    0.4287    0.4847    1.3697 C   0  0  2  0  0  0  0  0  0  0  0  0
    1.2306    5.0847    2.0842 C   0  0  0  0  0  0  0  0  0  0  0  0
    1.5995    3.8045    1.8644 C   0  0  0  0  0  0  0  0  0  0  0  0
    2.0531    5.9310    1.3002 C   0  0  0  0  0  0  0  0  0  0  0  0
   -0.9232    1.2101    1.3078 C   0  0  2  0  0  0  0  0  0  0  0  0
   -0.5184    2.6666    1.3039 C   0  0  2  0  0  0  0  0  0  0  0  0
    0.7536    2.6396    2.1774 C   0  0  1  0  0  0  0  0  0  0  0  0
    1.6927    7.2968    1.1935 C   0  0  0  0  0  0  0  0  0  0  0  0
    2.3696    8.2445    0.4676 N   0  0  0  0  0  0  0  0  0  0  0  0
    0.1215    5.4333    2.7688 N   0  0  0  0  0  0  0  0  0  0  0  0
    0.5412    7.6593    1.8389 N   0  0  0  0  0  0  0  0  0  0  0  0
    2.7615    3.9004    1.1471 N   0  0  0  0  0  0  0  0  0  0  0  0
    3.0474    5.1772    0.7625 N   0  0  0  0  0  0  0  0  0  0  0  0
    0.5687    0.8777   -1.0503 O   0  0  0  0  0  0  0  0  0  0  0  0
   -1.7261    0.9150    2.4624 O   0  0  0  0  0  0  0  0  0  0  0  0
   -1.5745    3.5108    1.7394 O   0  0  0  0  0  0  0  0  0  0  0  0
    1.4267    1.4243    1.8737 O   0  0  0  0  0  0  0  0  0  0  0  0
    0.3949   -0.3544    2.0744 H   0  0  0  0  0  0  0  0  0  0  0  0
   -1.5289    0.9525    0.4342 H   0  0  0  0  0  0  0  0  0  0  0  0
   -0.2595    2.9885    0.2882 H   0  0  0  0  0  0  0  0  0  0  0  0
    0.5133    2.6513    3.2481 H   0  0  0  0  0  0  0  0  0  0  0  0
    0.5243   -0.9814   -0.2151 H   0  0  0  0  0  0  0  0  0  0  0  0
    2.0324   -0.0679    0.0149 H   0  0  0  0  0  0  0  0  0  0  0  0
   -1.0921    7.0674    2.9993 H   0  0  0  0  0  0  0  0  0  0  0  0
    3.2457    7.9912    0.0363 H   0  0  0  0  0  0  0  0  0  0  0  0
    2.0477    9.1969    0.5315 H   0  0  0  0  0  0  0  0  0  0  0  0
    3.3822    3.1605    0.8350 H   0  0  0  0  0  0  0  0  0  0  0  0
    0.9705    1.7476   -0.8889 H   0  0  0  0  0  0  0  0  0  0  0  0
   -1.2781    1.2304    3.2628 H   0  0  0  0  0  0  0  0  0  0  0  0
   -1.7127    3.3688    2.6901 H   0  0  0  0  0  0  0  0  0  0  0  0
  1 24  1  0  0  0  0
  1 25  1  0  0  0  0
  2 26  1  0  0  0  0
  3  1  1  0  0  0  0
  3 20  1  1  0  0  0
  5  4  2  0  0  0  0
  6  4  1  0  0  0  0
  7  3  1  0  0  0  0
  7 17  1  0  0  0  0
  7 21  1  6  0  0  0
  8  7  1  0  0  0  0
  8 18  1  0  0  0  0
  8 22  1  6  0  0  0
  9  8  1  0  0  0  0
  9 23  1  1  0  0  0
  9  5  1  0  0  0  0
 10  6  1  0  0  0  0
 11 10  1  0  0  0  0
 11 27  1  0  0  0  0
 11 28  1  0  0  0  0
 12  2  2  0  0  0  0
 12  4  1  0  0  0  0
 13  2  1  0  0  0  0
 13 10  2  0  0  0  0
 14  5  1  0  0  0  0
 14 29  1  0  0  0  0
 15  6  2  0  0  0  0
 15 14  1  0  0  0  0
 16  1  1  0  0  0  0
 16 30  1  0  0  0  0
 17 31  1  0  0  0  0
 18 32  1  0  0  0  0
 19  3  1  0  0  0  0
 19  9  1  0  0  0  0
M  END
>  <DRUGBANK_ID>
DB02281

>  <SECONDARY_ACCESSION_NUMBERS>
EXPT01453

>  <COMMON_NAME>
Formycin

>  <CAS_NUMBER>
6742-12-7

$$$$
