
 OpenBabel10282417183D

255253  0  0  0  0  0  0  0  0999 V2000
    0.9768   -0.0634   -0.0738 O   0  6  0  0  0  0  0  0  0  0  0  0
    1.0344   -0.0235   -0.0909 O   0  6  0  0  0  0  0  0  0  0  0  0
    0.9220   -0.0624    0.0051 O   0  6  0  0  0  0  0  0  0  0  0  0
    1.0985   -0.0153   -0.0080 Na  0  3  0  0  0  0  0  0  0  0  0  0
    1.0594   -0.0534   -0.0602 Fe  0  1  0  0  0  0  0  0  0  0  0  0
    1.0712   -0.0074    0.0698 Fe  0  1  0  0  0  0  0  0  0  0  0  0
    5.0328    0.5766   -2.1630 O   0  0  0  0  0  0  0  0  0  0  0  0
    4.5594    0.4803   -3.4983 C   0  0  0  0  0  0  0  0  0  0  0  0
    3.0394    0.4803   -3.4983 C   0  0  1  0  0  0  0  0  0  0  0  0
    2.5661    1.6849   -2.9140 O   0  0  0  0  0  0  0  0  0  0  0  0
    2.5328    0.3773   -4.9277 C   0  0  1  0  0  0  0  0  0  0  0  0
    3.0061   -0.8273   -5.5120 O   0  0  0  0  0  0  0  0  0  0  0  0
    1.0128    0.3773   -4.9277 C   0  0  2  0  0  0  0  0  0  0  0  0
    0.5394   -0.3855   -3.8275 O   0  0  0  0  0  0  0  0  0  0  0  0
    0.5061   -0.2344   -6.2237 C   0  0  1  0  0  0  0  0  0  0  0  0
   -0.9139   -0.2344   -6.2237 O   0  0  0  0  0  0  0  0  0  0  0  0
    1.0128    0.5821   -7.4014 C   0  0  0  0  0  0  0  0  0  0  0  0
    1.7434    0.0356   -8.2861 O   0  0  0  0  0  0  0  0  0  0  0  0
    0.6697    1.9555   -7.5131 O   0  5  0  0  0  0  0  0  0  0  0  0
   -0.2369    1.3029    1.0257 O   0  0  0  0  0  0  0  0  0  0  0  0
    0.9862    1.9373    0.6822 C   0  0  0  0  0  0  0  0  0  0  0  0
    0.9578    2.2778   -0.7989 C   0  0  1  0  0  0  0  0  0  0  0  0
    0.9570    3.4615   -0.0042 O   0  0  0  0  0  0  0  0  0  0  0  0
    0.0879    4.4481   -0.5376 C   0  0  2  0  0  0  0  0  0  0  0  0
   -1.2203    3.9054   -0.6400 O   0  0  0  0  0  0  0  0  0  0  0  0
   -1.6875    3.5095    0.6411 C   0  0  2  0  0  0  0  0  0  0  0  0
   -1.5488    4.6622    1.6221 C   0  0  0  0  0  0  0  0  0  0  0  0
   -0.1835    5.0404    1.7182 O   0  0  0  0  0  0  0  0  0  0  0  0
   -0.9893    2.3925    1.2718 O   0  0  0  0  0  0  0  0  0  0  0  0
   -1.7530    1.2173    1.2068 C   0  0  2  0  0  0  0  0  0  0  0  0
   -0.8748    0.0253    0.8631 C   0  0  0  0  0  0  0  0  0  0  0  0
   -1.0815   -1.0095   -0.0871 O   0  0  0  0  0  0  0  0  0  0  0  0
   -2.7803    1.4801    0.0823 C   0  0  1  0  0  0  0  0  0  0  0  0
   -3.9229    0.6541    0.0768 O   0  0  0  0  0  0  0  0  0  0  0  0
   -3.0658    2.9827    0.2791 C   0  0  2  0  0  0  0  0  0  0  0  0
   -3.5771    3.5872   -0.8988 O   0  0  0  0  0  0  0  0  0  0  0  0
    0.5407    4.8972   -1.9020 C   0  0  2  0  0  0  0  0  0  0  0  0
   -0.3802    5.8488   -2.4296 O   0  0  0  0  0  0  0  0  0  0  0  0
    0.6455    3.7153   -2.8335 C   0  0  1  0  0  0  0  0  0  0  0  0
    1.2111    4.1500   -4.0632 O   0  0  0  0  0  0  0  0  0  0  0  0
    1.4507    2.6077   -2.1977 C   0  0  2  0  0  0  0  0  0  0  0  0
    1.4925    1.4470   -3.0210 O   0  0  0  0  0  0  0  0  0  0  0  0
    1.2505    2.3677    1.8983 O   0  0  0  0  0  0  0  0  0  0  0  0
    1.8612    1.8812    0.7122 C   0  0  0  0  0  0  0  0  0  0  0  0
    1.0598    2.4246   -0.4595 C   0  0  1  0  0  0  0  0  0  0  0  0
    0.5370    3.4148    0.4230 O   0  0  0  0  0  0  0  0  0  0  0  0
   -0.5556    4.1084   -0.1590 C   0  0  2  0  0  0  0  0  0  0  0  0
   -1.5589    3.1708   -0.5204 O   0  0  0  0  0  0  0  0  0  0  0  0
   -1.9941    2.4764    0.6393 C   0  0  2  0  0  0  0  0  0  0  0  0
   -2.3563    3.4040    1.7877 C   0  0  0  0  0  0  0  0  0  0  0  0
   -1.2205    4.1760    2.1489 O   0  0  0  0  0  0  0  0  0  0  0  0
   -1.0718    1.5363    1.2705 O   0  0  0  0  0  0  0  0  0  0  0  0
   -1.3326    0.2200    0.8608 C   0  0  2  0  0  0  0  0  0  0  0  0
   -0.0353   -0.5253    0.5927 C   0  0  0  0  0  0  0  0  0  0  0  0
    0.2113   -0.6771   -0.7975 O   0  0  0  0  0  0  0  0  0  0  0  0
   -2.1539    0.3705   -0.4398 C   0  0  1  0  0  0  0  0  0  0  0  0
   -2.8981   -0.7578   -0.8409 O   0  0  0  0  0  0  0  0  0  0  0  0
   -2.9944    1.6240   -0.1229 C   0  0  2  0  0  0  0  0  0  0  0  0
   -3.4579    2.2671   -1.3001 O   0  0  0  0  0  0  0  0  0  0  0  0
   -0.1299    4.8691   -1.3872 C   0  0  2  0  0  0  0  0  0  0  0  0
   -1.2586    5.5117   -1.9747 O   0  0  0  0  0  0  0  0  0  0  0  0
    0.5053    3.9351   -2.3868 C   0  0  1  0  0  0  0  0  0  0  0  0
    1.0239    4.7023   -3.4654 O   0  0  0  0  0  0  0  0  0  0  0  0
    1.5695    3.0930   -1.7252 C   0  0  2  0  0  0  0  0  0  0  0  0
    2.1256    2.1420   -2.6270 O   0  0  0  0  0  0  0  0  0  0  0  0
   -1.0203    1.5799   -3.3150 O   0  0  0  0  0  0  0  0  0  0  0  0
    0.3229    2.0320   -3.2266 C   0  0  0  0  0  0  0  0  0  0  0  0
    1.0616    1.4448   -2.0350 C   0  0  1  0  0  0  0  0  0  0  0  0
    2.3684    0.8851   -2.1441 O   0  0  0  0  0  0  0  0  0  0  0  0
    2.8269    0.3826   -0.8988 C   0  0  2  0  0  0  0  0  0  0  0  0
    1.9009   -0.5815   -0.4200 O   0  0  0  0  0  0  0  0  0  0  0  0
    1.7550   -1.6721   -1.3176 C   0  0  2  0  0  0  0  0  0  0  0  0
    3.2342   -1.7928   -1.6459 C   0  0  0  0  0  0  0  0  0  0  0  0
    3.6931   -0.5766   -2.2173 O   0  0  0  0  0  0  0  0  0  0  0  0
    1.0672   -1.5005   -2.5944 O   0  0  0  0  0  0  0  0  0  0  0  0
    0.0331   -2.4374   -2.7416 C   0  0  2  0  0  0  0  0  0  0  0  0
   -1.2009   -1.7841   -3.3423 C   0  0  0  0  0  0  0  0  0  0  0  0
   -1.0863   -0.3688   -3.3335 O   0  0  0  0  0  0  0  0  0  0  0  0
   -0.2553   -2.9304   -1.3054 C   0  0  1  0  0  0  0  0  0  0  0  0
   -0.9443   -4.1554   -1.1937 O   0  0  0  0  0  0  0  0  0  0  0  0
    1.1602   -2.9231   -0.6936 C   0  0  2  0  0  0  0  0  0  0  0  0
    1.1285   -2.8508    0.7235 O   0  0  0  0  0  0  0  0  0  0  0  0
    2.9601    1.4833    0.1205 C   0  0  2  0  0  0  0  0  0  0  0  0
    3.3728    0.9383    1.3714 O   0  0  0  0  0  0  0  0  0  0  0  0
    1.6460    2.2053    0.2853 C   0  0  1  0  0  0  0  0  0  0  0  0
    1.8419    3.3236    1.1409 O   0  0  0  0  0  0  0  0  0  0  0  0
    1.0894    2.6088   -1.0589 C   0  0  2  0  0  0  0  0  0  0  0  0
   -0.1925    3.2160   -0.9379 O   0  0  0  0  0  0  0  0  0  0  0  0
    0.9303    0.0227    0.0680 O   0  0  0  0  0  0  0  0  0  0  0  0
    0.4569    0.7249   -1.0719 C   0  0  0  0  0  0  0  0  0  0  0  0
    0.9636    2.1574   -1.0310 C   0  0  1  0  0  0  0  0  0  0  0  0
    1.3605    2.9323    0.0980 O   0  0  0  0  0  0  0  0  0  0  0  0
    0.7575    4.2167    0.0878 C   0  0  2  0  0  0  0  0  0  0  0  0
   -0.6538    4.0647    0.0482 O   0  0  0  0  0  0  0  0  0  0  0  0
   -1.0848    3.3427    1.1925 C   0  0  2  0  0  0  0  0  0  0  0  0
   -0.6047    4.0903    2.4257 C   0  0  0  0  0  0  0  0  0  0  0  0
    0.8125    4.1771    2.4048 O   0  0  0  0  0  0  0  0  0  0  0  0
   -0.5606    1.9796    1.2029 O   0  0  0  0  0  0  0  0  0  0  0  0
   -1.5853    1.0423    1.0026 C   0  0  2  0  0  0  0  0  0  0  0  0
   -1.1292   -0.0571    0.0573 C   0  0  0  0  0  0  0  0  0  0  0  0
   -1.3784   -1.3414    0.6094 O   0  0  0  0  0  0  0  0  0  0  0  0
   -2.7417    1.8547    0.3767 C   0  0  1  0  0  0  0  0  0  0  0  0
   -4.0239    1.2733    0.4524 O   0  0  0  0  0  0  0  0  0  0  0  0
   -2.5954    3.2030    1.1107 C   0  0  2  0  0  0  0  0  0  0  0  0
   -3.1931    4.2700    0.3905 O   0  0  0  0  0  0  0  0  0  0  0  0
    1.1981    5.0194   -1.1080 C   0  0  2  0  0  0  0  0  0  0  0  0
    0.5364    6.2819   -1.1149 O   0  0  0  0  0  0  0  0  0  0  0  0
    0.8894    4.2725   -2.3817 C   0  0  1  0  0  0  0  0  0  0  0  0
    1.4454    4.9869   -3.4778 O   0  0  0  0  0  0  0  0  0  0  0  0
    1.4064    2.8561   -2.3055 C   0  0  2  0  0  0  0  0  0  0  0  0
    1.0526    2.1029   -3.4606 O   0  0  0  0  0  0  0  0  0  0  0  0
   -0.0427    2.2099    1.3060 O   0  0  0  0  0  0  0  0  0  0  0  0
    1.1510    1.8439    0.6297 C   0  0  0  0  0  0  0  0  0  0  0  0
    0.9442    2.2405   -0.8229 C   0  0  1  0  0  0  0  0  0  0  0  0
    0.8470    3.4169   -0.0233 O   0  0  0  0  0  0  0  0  0  0  0  0
   -0.0748    4.3461   -0.5713 C   0  0  2  0  0  0  0  0  0  0  0  0
   -1.3411    3.7176   -0.7044 O   0  0  0  0  0  0  0  0  0  0  0  0
   -1.8092    3.2834    0.5640 C   0  0  2  0  0  0  0  0  0  0  0  0
   -1.7531    4.4218    1.5696 C   0  0  0  0  0  0  0  0  0  0  0  0
   -0.4127    4.8713    1.7015 O   0  0  0  0  0  0  0  0  0  0  0  0
   -1.0776    2.2007    1.2162 O   0  0  0  0  0  0  0  0  0  0  0  0
   -1.7649    0.9832    1.0983 C   0  0  2  0  0  0  0  0  0  0  0  0
   -0.8002   -0.1491    0.7858 C   0  0  0  0  0  0  0  0  0  0  0  0
   -0.8924   -0.9981   -0.3487 O   0  0  0  0  0  0  0  0  0  0  0  0
   -2.7482    1.2011   -0.0742 C   0  0  1  0  0  0  0  0  0  0  0  0
   -3.8373    0.3087   -0.1480 O   0  0  0  0  0  0  0  0  0  0  0  0
   -3.1333    2.6809    0.1257 C   0  0  2  0  0  0  0  0  0  0  0  0
   -3.6201    3.2715   -1.0696 O   0  0  0  0  0  0  0  0  0  0  0  0
    0.3761    4.8324   -1.9235 C   0  0  2  0  0  0  0  0  0  0  0  0
   -0.5951    5.7233   -2.4668 O   0  0  0  0  0  0  0  0  0  0  0  0
    0.5798    3.6656   -2.8576 C   0  0  1  0  0  0  0  0  0  0  0  0
    1.1411    4.1443   -4.0728 O   0  0  0  0  0  0  0  0  0  0  0  0
    1.4437    2.6107   -2.2093 C   0  0  2  0  0  0  0  0  0  0  0  0
    1.5808    1.4602   -3.0364 O   0  0  0  0  0  0  0  0  0  0  0  0
    4.6994    1.4249   -1.7515 H   0  0  0  0  0  0  0  0  0  0  0  0
    4.9161    1.3155   -4.0643 H   0  0  0  0  0  0  0  0  0  0  0  0
    4.9161   -0.4273   -3.9386 H   0  0  0  0  0  0  0  0  0  0  0  0
    2.6828   -0.3548   -2.9324 H   0  0  0  0  0  0  0  0  0  0  0  0
    2.8994    1.7527   -1.9737 H   0  0  0  0  0  0  0  0  0  0  0  0
    2.8894    1.2124   -5.4936 H   0  0  0  0  0  0  0  0  0  0  0  0
    4.0061   -0.8273   -5.5120 H   0  0  0  0  0  0  0  0  0  0  0  0
    0.6561    1.3827   -4.8444 H   0  0  0  0  0  0  0  0  0  0  0  0
   -0.1145   -0.9570   -3.3318 H   0  0  0  0  0  0  0  0  0  0  0  0
    0.8628   -1.2397   -6.3069 H   0  0  0  0  0  0  0  0  0  0  0  0
   -1.2472   -0.7716   -5.4489 H   0  0  0  0  0  0  0  0  0  0  0  0
   -0.9991    1.9191    0.8277 H   0  0  0  0  0  0  0  0  0  0  0  0
    1.0954    2.8349    1.2542 H   0  0  0  0  0  0  0  0  0  0  0  0
    1.8018    1.2779    0.8941 H   0  0  0  0  0  0  0  0  0  0  0  0
    0.6011    1.2789   -0.9396 H   0  0  0  0  0  0  0  0  0  0  0  0
    0.0966    5.2949    0.1165 H   0  0  0  0  0  0  0  0  0  0  0  0
   -2.1262    5.4947    1.2781 H   0  0  0  0  0  0  0  0  0  0  0  0
   -1.9027    4.3561    2.5844 H   0  0  0  0  0  0  0  0  0  0  0  0
    0.3561    4.2623    2.0398 H   0  0  0  0  0  0  0  0  0  0  0  0
   -2.2235    0.9876    2.1400 H   0  0  0  0  0  0  0  0  0  0  0  0
   -0.1276    0.6994    0.4996 H   0  0  0  0  0  0  0  0  0  0  0  0
   -0.5503   -0.4008    1.7895 H   0  0  0  0  0  0  0  0  0  0  0  0
   -1.7797   -1.6395    0.2527 H   0  0  0  0  0  0  0  0  0  0  0  0
   -2.4032    1.2310   -0.8876 H   0  0  0  0  0  0  0  0  0  0  0  0
   -4.4164    0.7620    0.9399 H   0  0  0  0  0  0  0  0  0  0  0  0
   -3.8147    3.1891    1.0150 H   0  0  0  0  0  0  0  0  0  0  0  0
   -2.9354    3.4443   -1.6523 H   0  0  0  0  0  0  0  0  0  0  0  0
    1.5050    5.3523   -1.8123 H   0  0  0  0  0  0  0  0  0  0  0  0
   -1.2829    5.4272   -2.5150 H   0  0  0  0  0  0  0  0  0  0  0  0
   -0.3268    3.3140   -3.0295 H   0  0  0  0  0  0  0  0  0  0  0  0
    2.1216    4.5283   -3.8960 H   0  0  0  0  0  0  0  0  0  0  0  0
    2.4532    2.9694   -2.1025 H   0  0  0  0  0  0  0  0  0  0  0  0
    0.5677    1.0826   -3.1305 H   0  0  0  0  0  0  0  0  0  0  0  0
    1.3002    3.3664    1.9133 H   0  0  0  0  0  0  0  0  0  0  0  0
    2.8861    2.1878    0.6871 H   0  0  0  0  0  0  0  0  0  0  0  0
    1.8081    0.8127    0.6961 H   0  0  0  0  0  0  0  0  0  0  0  0
    0.7032    1.4753   -0.8009 H   0  0  0  0  0  0  0  0  0  0  0  0
   -0.9315    4.8082    0.5580 H   0  0  0  0  0  0  0  0  0  0  0  0
   -3.1484    4.0558    1.4834 H   0  0  0  0  0  0  0  0  0  0  0  0
   -2.6749    2.8235    2.6282 H   0  0  0  0  0  0  0  0  0  0  0  0
   -0.4802    3.5669    2.4332 H   0  0  0  0  0  0  0  0  0  0  0  0
   -1.8551   -0.3408    1.6074 H   0  0  0  0  0  0  0  0  0  0  0  0
    0.6924    0.1366    1.0138 H   0  0  0  0  0  0  0  0  0  0  0  0
    0.0301   -1.4793    1.0728 H   0  0  0  0  0  0  0  0  0  0  0  0
   -0.4688   -1.2957   -1.1910 H   0  0  0  0  0  0  0  0  0  0  0  0
   -1.5369    0.4672   -1.3087 H   0  0  0  0  0  0  0  0  0  0  0  0
   -3.5503   -0.9995   -0.1224 H   0  0  0  0  0  0  0  0  0  0  0  0
   -3.8915    1.4181    0.4228 H   0  0  0  0  0  0  0  0  0  0  0  0
   -2.6783    2.5010   -1.8811 H   0  0  0  0  0  0  0  0  0  0  0  0
    0.5881    5.6094   -1.1020 H   0  0  0  0  0  0  0  0  0  0  0  0
   -1.9322    4.8230   -2.2427 H   0  0  0  0  0  0  0  0  0  0  0  0
   -0.2264    3.2566   -2.7730 H   0  0  0  0  0  0  0  0  0  0  0  0
    1.7102    5.3421   -3.1196 H   0  0  0  0  0  0  0  0  0  0  0  0
    2.3558    3.7587   -1.4364 H   0  0  0  0  0  0  0  0  0  0  0  0
    1.4140    1.5023   -2.9174 H   0  0  0  0  0  0  0  0  0  0  0  0
   -1.0323    0.5826   -3.3876 H   0  0  0  0  0  0  0  0  0  0  0  0
    0.8587    1.7317   -4.1028 H   0  0  0  0  0  0  0  0  0  0  0  0
    0.3358    3.0991   -3.1488 H   0  0  0  0  0  0  0  0  0  0  0  0
    0.7050    0.5335   -1.6022 H   0  0  0  0  0  0  0  0  0  0  0  0
    3.7904   -0.0584   -1.0470 H   0  0  0  0  0  0  0  0  0  0  0  0
    3.7830   -1.9954   -0.7500 H   0  0  0  0  0  0  0  0  0  0  0  0
    3.3809   -2.5918   -2.3424 H   0  0  0  0  0  0  0  0  0  0  0  0
    3.1802   -0.3873   -3.0547 H   0  0  0  0  0  0  0  0  0  0  0  0
    0.3020   -3.2380   -3.3985 H   0  0  0  0  0  0  0  0  0  0  0  0
   -1.3453   -2.1240   -4.3465 H   0  0  0  0  0  0  0  0  0  0  0  0
   -2.0369   -2.0780   -2.7426 H   0  0  0  0  0  0  0  0  0  0  0  0
   -0.9513   -0.0511   -2.3950 H   0  0  0  0  0  0  0  0  0  0  0  0
   -0.9570   -2.3092   -0.7889 H   0  0  0  0  0  0  0  0  0  0  0  0
   -0.4144   -4.8776   -1.6383 H   0  0  0  0  0  0  0  0  0  0  0  0
    1.7217   -3.8128   -0.8890 H   0  0  0  0  0  0  0  0  0  0  0  0
    0.6170   -2.0387    1.0045 H   0  0  0  0  0  0  0  0  0  0  0  0
    3.6966    2.1808   -0.2201 H   0  0  0  0  0  0  0  0  0  0  0  0
    2.6868    0.2857    1.6932 H   0  0  0  0  0  0  0  0  0  0  0  0
    0.9233    1.5563    0.7341 H   0  0  0  0  0  0  0  0  0  0  0  0
    2.5158    3.9404    0.7343 H   0  0  0  0  0  0  0  0  0  0  0  0
    1.7552    3.3432   -1.4617 H   0  0  0  0  0  0  0  0  0  0  0  0
   -0.8410    2.5537   -0.5627 H   0  0  0  0  0  0  0  0  0  0  0  0
    1.9303    0.0227    0.0680 H   0  0  0  0  0  0  0  0  0  0  0  0
    0.8136    0.2457   -1.9596 H   0  0  0  0  0  0  0  0  0  0  0  0
   -0.6131    0.7249   -1.0719 H   0  0  0  0  0  0  0  0  0  0  0  0
   -0.0282    1.9017   -0.7215 H   0  0  0  0  0  0  0  0  0  0  0  0
    1.0578    4.7375    0.9730 H   0  0  0  0  0  0  0  0  0  0  0  0
   -1.0223    5.0754    2.4307 H   0  0  0  0  0  0  0  0  0  0  0  0
   -0.9170    3.5661    3.3047 H   0  0  0  0  0  0  0  0  0  0  0  0
    1.2028    3.2565    2.4001 H   0  0  0  0  0  0  0  0  0  0  0  0
   -1.8755    0.5587    1.9118 H   0  0  0  0  0  0  0  0  0  0  0  0
   -1.5905    0.0128   -0.9056 H   0  0  0  0  0  0  0  0  0  0  0  0
   -0.0739    0.0901   -0.0412 H   0  0  0  0  0  0  0  0  0  0  0  0
   -0.9473   -1.4067    1.5094 H   0  0  0  0  0  0  0  0  0  0  0  0
   -2.6660    1.9272   -0.6882 H   0  0  0  0  0  0  0  0  0  0  0  0
   -4.2681    1.1284    1.4112 H   0  0  0  0  0  0  0  0  0  0  0  0
   -3.0848    3.2343    2.0618 H   0  0  0  0  0  0  0  0  0  0  0  0
   -2.7931    4.3197   -0.5247 H   0  0  0  0  0  0  0  0  0  0  0  0
    2.2549    5.1758   -1.0472 H   0  0  0  0  0  0  0  0  0  0  0  0
   -0.4519    6.1400   -1.1716 H   0  0  0  0  0  0  0  0  0  0  0  0
   -0.1693    4.2055   -2.5214 H   0  0  0  0  0  0  0  0  0  0  0  0
    2.4361    5.0579   -3.3612 H   0  0  0  0  0  0  0  0  0  0  0  0
    2.4743    2.9175   -2.2776 H   0  0  0  0  0  0  0  0  0  0  0  0
    0.0571    2.0265   -3.5167 H   0  0  0  0  0  0  0  0  0  0  0  0
   -0.1739    3.1990    1.2390 H   0  0  0  0  0  0  0  0  0  0  0  0
    1.9831    2.3452    1.0783 H   0  0  0  0  0  0  0  0  0  0  0  0
    1.2914    0.7856    0.7014 H   0  0  0  0  0  0  0  0  0  0  0  0
    0.5875    1.2462   -0.9935 H   0  0  0  0  0  0  0  0  0  0  0  0
   -0.1368    5.1878    0.0865 H   0  0  0  0  0  0  0  0  0  0  0  0
   -2.3681    5.2287    1.2296 H   0  0  0  0  0  0  0  0  0  0  0  0
   -2.1088    4.0775    2.5182 H   0  0  0  0  0  0  0  0  0  0  0  0
    0.1621    4.1172    2.0193 H   0  0  0  0  0  0  0  0  0  0  0  0
   -2.2671    0.7120    2.0033 H   0  0  0  0  0  0  0  0  0  0  0  0
   -0.0205    0.5675    0.6326 H   0  0  0  0  0  0  0  0  0  0  0  0
   -0.5802   -0.7356    1.6533 H   0  0  0  0  0  0  0  0  0  0  0  0
   -1.6211   -1.6678   -0.2055 H   0  0  0  0  0  0  0  0  0  0  0  0
   -2.3084    0.9895   -1.0264 H   0  0  0  0  0  0  0  0  0  0  0  0
   -4.3791    0.3741    0.6900 H   0  0  0  0  0  0  0  0  0  0  0  0
   -3.9293    2.8313    0.8246 H   0  0  0  0  0  0  0  0  0  0  0  0
   -2.9339    3.1783   -1.7909 H   0  0  0  0  0  0  0  0  0  0  0  0
    1.3054    5.3505   -1.8108 H   0  0  0  0  0  0  0  0  0  0  0  0
   -1.4655    5.2426   -2.5737 H   0  0  0  0  0  0  0  0  0  0  0  0
   -0.3590    3.2012   -3.0764 H   0  0  0  0  0  0  0  0  0  0  0  0
    2.0204    4.5817   -3.8843 H   0  0  0  0  0  0  0  0  0  0  0  0
    2.4174    3.0381   -2.0907 H   0  0  0  0  0  0  0  0  0  0  0  0
    0.6851    1.0353   -3.1676 H   0  0  0  0  0  0  0  0  0  0  0  0
  7  8  1  0  0  0  0
  7135  1  0  0  0  0
  8  9  1  0  0  0  0
  8136  1  0  0  0  0
  8137  1  0  0  0  0
  9 10  1  0  0  0  0
  9 11  1  0  0  0  0
  9138  1  1  0  0  0
 10139  1  0  0  0  0
 11 12  1  0  0  0  0
 11140  1  6  0  0  0
 12141  1  0  0  0  0
 13 15  1  0  0  0  0
 13142  1  1  0  0  0
 13 14  1  0  0  0  0
 13 11  1  0  0  0  0
 14143  1  0  0  0  0
 15 16  1  0  0  0  0
 15 17  1  0  0  0  0
 15144  1  6  0  0  0
 16145  1  0  0  0  0
 17 18  2  0  0  0  0
 17 19  1  0  0  0  0
 20 21  1  0  0  0  0
 20146  1  0  0  0  0
 21147  1  0  0  0  0
 21148  1  0  0  0  0
 22 23  1  0  0  0  0
 22 41  1  0  0  0  0
 22149  1  6  0  0  0
 22 21  1  0  0  0  0
 23 24  1  0  0  0  0
 24 37  1  0  0  0  0
 24150  1  1  0  0  0
 24 25  1  0  0  0  0
 26 25  1  6  0  0  0
 26 27  1  0  0  0  0
 26 29  1  0  0  0  0
 26 35  1  0  0  0  0
 27 28  1  0  0  0  0
 27151  1  0  0  0  0
 27152  1  0  0  0  0
 28153  1  0  0  0  0
 29 30  1  0  0  0  0
 30 33  1  0  0  0  0
 30154  1  1  0  0  0
 30 31  1  0  0  0  0
 31 32  1  0  0  0  0
 31155  1  0  0  0  0
 31156  1  0  0  0  0
 32157  1  0  0  0  0
 33 34  1  0  0  0  0
 33 35  1  0  0  0  0
 33158  1  6  0  0  0
 34159  1  0  0  0  0
 35 36  1  0  0  0  0
 35160  1  1  0  0  0
 36161  1  0  0  0  0
 37 38  1  0  0  0  0
 37 39  1  0  0  0  0
 37162  1  1  0  0  0
 38163  1  0  0  0  0
 39 40  1  0  0  0  0
 39 41  1  0  0  0  0
 39164  1  6  0  0  0
 40165  1  0  0  0  0
 41 42  1  0  0  0  0
 41166  1  1  0  0  0
 42167  1  0  0  0  0
 43 44  1  0  0  0  0
 43168  1  0  0  0  0
 44169  1  0  0  0  0
 44170  1  0  0  0  0
 45 46  1  0  0  0  0
 45 64  1  0  0  0  0
 45171  1  6  0  0  0
 45 44  1  0  0  0  0
 46 47  1  0  0  0  0
 47 60  1  0  0  0  0
 47172  1  1  0  0  0
 47 48  1  0  0  0  0
 49 48  1  6  0  0  0
 49 50  1  0  0  0  0
 49 52  1  0  0  0  0
 49 58  1  0  0  0  0
 50 51  1  0  0  0  0
 50173  1  0  0  0  0
 50174  1  0  0  0  0
 51175  1  0  0  0  0
 52 53  1  0  0  0  0
 53 56  1  0  0  0  0
 53176  1  1  0  0  0
 53 54  1  0  0  0  0
 54 55  1  0  0  0  0
 54177  1  0  0  0  0
 54178  1  0  0  0  0
 55179  1  0  0  0  0
 56 57  1  0  0  0  0
 56 58  1  0  0  0  0
 56180  1  6  0  0  0
 57181  1  0  0  0  0
 58 59  1  0  0  0  0
 58182  1  1  0  0  0
 59183  1  0  0  0  0
 60 61  1  0  0  0  0
 60 62  1  0  0  0  0
 60184  1  1  0  0  0
 61185  1  0  0  0  0
 62 63  1  0  0  0  0
 62 64  1  0  0  0  0
 62186  1  6  0  0  0
 63187  1  0  0  0  0
 64 65  1  0  0  0  0
 64188  1  1  0  0  0
 65189  1  0  0  0  0
 66 67  1  0  0  0  0
 66190  1  0  0  0  0
 67191  1  0  0  0  0
 67192  1  0  0  0  0
 68 69  1  0  0  0  0
 68 87  1  0  0  0  0
 68193  1  1  0  0  0
 68 67  1  0  0  0  0
 69 70  1  0  0  0  0
 70 83  1  0  0  0  0
 70194  1  6  0  0  0
 70 71  1  0  0  0  0
 72 71  1  1  0  0  0
 72 73  1  0  0  0  0
 72 75  1  0  0  0  0
 72 81  1  0  0  0  0
 73 74  1  0  0  0  0
 73195  1  0  0  0  0
 73196  1  0  0  0  0
 74197  1  0  0  0  0
 75 76  1  0  0  0  0
 76 79  1  0  0  0  0
 76198  1  6  0  0  0
 76 77  1  0  0  0  0
 77 78  1  0  0  0  0
 77199  1  0  0  0  0
 77200  1  0  0  0  0
 78201  1  0  0  0  0
 79 80  1  0  0  0  0
 79 81  1  0  0  0  0
 79202  1  1  0  0  0
 80203  1  0  0  0  0
 81 82  1  0  0  0  0
 81204  1  6  0  0  0
 82205  1  0  0  0  0
 83 84  1  0  0  0  0
 83 85  1  0  0  0  0
 83206  1  6  0  0  0
 84207  1  0  0  0  0
 85 86  1  0  0  0  0
 85 87  1  0  0  0  0
 85208  1  1  0  0  0
 86209  1  0  0  0  0
 87 88  1  0  0  0  0
 87210  1  6  0  0  0
 88211  1  0  0  0  0
 89 90  1  0  0  0  0
 89212  1  0  0  0  0
 90213  1  0  0  0  0
 90214  1  0  0  0  0
 91 90  1  0  0  0  0
 91 92  1  0  0  0  0
 91110  1  0  0  0  0
 91215  1  6  0  0  0
 92 93  1  0  0  0  0
 93106  1  0  0  0  0
 93216  1  1  0  0  0
 93 94  1  0  0  0  0
 95 94  1  6  0  0  0
 95 96  1  0  0  0  0
 95 98  1  0  0  0  0
 95104  1  0  0  0  0
 96 97  1  0  0  0  0
 96217  1  0  0  0  0
 96218  1  0  0  0  0
 97219  1  0  0  0  0
 98 99  1  0  0  0  0
 99102  1  0  0  0  0
 99220  1  1  0  0  0
 99100  1  0  0  0  0
100101  1  0  0  0  0
100221  1  0  0  0  0
100222  1  0  0  0  0
101223  1  0  0  0  0
102103  1  0  0  0  0
102104  1  0  0  0  0
102224  1  6  0  0  0
103225  1  0  0  0  0
104105  1  0  0  0  0
104226  1  1  0  0  0
105227  1  0  0  0  0
106107  1  0  0  0  0
106108  1  0  0  0  0
106228  1  1  0  0  0
107229  1  0  0  0  0
108109  1  0  0  0  0
108110  1  0  0  0  0
108230  1  6  0  0  0
109231  1  0  0  0  0
110111  1  0  0  0  0
110232  1  1  0  0  0
111233  1  0  0  0  0
112113  1  0  0  0  0
112234  1  0  0  0  0
113235  1  0  0  0  0
113236  1  0  0  0  0
114115  1  0  0  0  0
114133  1  0  0  0  0
114237  1  6  0  0  0
114113  1  0  0  0  0
115116  1  0  0  0  0
116129  1  0  0  0  0
116238  1  1  0  0  0
116117  1  0  0  0  0
118117  1  6  0  0  0
118119  1  0  0  0  0
118121  1  0  0  0  0
118127  1  0  0  0  0
119120  1  0  0  0  0
119239  1  0  0  0  0
119240  1  0  0  0  0
120241  1  0  0  0  0
121122  1  0  0  0  0
122125  1  0  0  0  0
122242  1  1  0  0  0
122123  1  0  0  0  0
123124  1  0  0  0  0
123243  1  0  0  0  0
123244  1  0  0  0  0
124245  1  0  0  0  0
125126  1  0  0  0  0
125127  1  0  0  0  0
125246  1  6  0  0  0
126247  1  0  0  0  0
127128  1  0  0  0  0
127248  1  1  0  0  0
128249  1  0  0  0  0
129130  1  0  0  0  0
129131  1  0  0  0  0
129250  1  1  0  0  0
130251  1  0  0  0  0
131132  1  0  0  0  0
131133  1  0  0  0  0
131252  1  6  0  0  0
132253  1  0  0  0  0
133134  1  0  0  0  0
133254  1  1  0  0  0
134255  1  0  0  0  0
M  CHG  7   1  -2   2  -2   3  -2   4   1   5   3   6   3  19  -1
M  END
>  <DRUGBANK_ID>
DB09517

>  <COMMON_NAME>
Sodium ferric gluconate complex

>  <CAS_NUMBER>
34089-81-1

>  <UNII>
CC9149U2QX

>  <SYNONYMS>
Ferric sodium gluconate complex; Sodium ferric gluconate complex

$$$$
