
 OpenBabel10282417203D

 18 18  0  0  0  0  0  0  0  0999 V2000
   -0.7830   -1.0090   -0.2000 O   0  0  0  0  0  0  0  0  0  0  0  0
    0.0090    1.2780   -0.2000 O   0  0  0  0  0  0  0  0  0  0  0  0
    1.2380    0.3860    0.0740 C   0  0  0  0  0  0  0  0  0  0  0  0
    0.7340   -1.0680    0.0740 C   0  0  0  0  0  0  0  0  0  0  0  0
    2.4328    0.7759    0.2628 O   0  0  0  0  0  0  0  0  0  0  0  0
   -1.1980    0.4130    0.2510 Pt  0  0  0  0  0  0  0  0  0  0  0  0
   -1.8114   -0.1778    2.9760 H   0  0  0  0  0  0  0  0  0  0  0  0
   -0.6142    0.1539    2.7659 H   0  0  0  0  0  0  0  0  0  0  0  0
   -1.4544    0.5007    2.3032 N   0  0  0  0  0  0  0  0  0  0  0  0
   -1.6230    1.4667    2.5838 H   0  0  0  0  0  0  0  0  0  0  0  0
   -3.4570    1.1430    0.3562 H   0  0  0  0  0  0  0  0  0  0  0  0
   -3.7461    0.4123   -0.2390 H   0  0  0  0  0  0  0  0  0  0  0  0
   -3.0019    1.0365   -0.5503 N   0  0  0  0  0  0  0  0  0  0  0  0
   -3.2023    1.9866   -0.2383 H   0  0  0  0  0  0  0  0  0  0  0  0
    0.9388   -1.5473    1.0085 H   0  0  0  0  0  0  0  0  0  0  0  0
    1.2260   -1.6292   -0.6927 H   0  0  0  0  0  0  0  0  0  0  0  0
   -2.2524   -0.0754    2.5710 H   0  0  0  0  0  0  0  0  0  0  0  0
   -2.9462    1.0177   -1.5687 H   0  0  0  0  0  0  0  0  0  0  0  0
  1  6  1  0  0  0  0
  2  3  1  0  0  0  0
  3  4  1  0  0  0  0
  3  5  2  0  0  0  0
  4  1  1  0  0  0  0
  4 15  1  0  0  0  0
  4 16  1  0  0  0  0
  6  2  1  0  0  0  0
  6 13  1  0  0  0  0
  6  9  1  0  0  0  0
  9  7  1  0  0  0  0
  9  8  1  0  0  0  0
  9 10  1  0  0  0  0
  9 17  1  0  0  0  0
 13 11  1  0  0  0  0
 13 12  1  0  0  0  0
 13 14  1  0  0  0  0
 13 18  1  0  0  0  0
M  END
>  <DRUGBANK_ID>
DB13145

>  <COMMON_NAME>
Nedaplatin

>  <CAS_NUMBER>
95734-82-0

>  <UNII>
8UQ3W6JXAN

>  <SYNONYMS>
(glycolato-O,O')diammineplatinum(II); CDGP; cis-Diammine (glycolato)platinum; cis-diammine(glycolato)platinum; cis-Diammine(glycolato)platinum(II); Nedaplatin

$$$$
