
 OpenBabel10282417223D

 35 37  0  0  1  0  0  0  0  0999 V2000
    1.5037   -1.3818   -1.2669 C   0  0  0  0  0  0  0  0  0  0  0  0
    0.3734   -1.4742   -0.2340 C   0  0  2  0  0  0  0  0  0  0  0  0
    0.0781   -1.4673    1.2954 C   0  0  0  0  0  0  0  0  0  0  0  0
    0.4470   -2.6685    2.0643 N   0  0  0  0  0  0  0  0  0  0  0  0
   -0.1756   -4.1187    1.4825 S   0  0  0  0  0  0  0  0  0  0  0  0
    0.5361   -5.1858    2.1364 O   0  0  0  0  0  0  0  0  0  0  0  0
   -1.6151   -4.0159    1.5195 O   0  0  0  0  0  0  0  0  0  0  0  0
    0.3030   -3.9058   -0.0887 N   0  0  0  0  0  0  0  0  0  0  0  0
   -0.3155   -2.7372   -0.7746 C   0  0  0  0  0  0  0  0  0  0  0  0
    1.2980   -4.7716   -0.6351 C   0  0  0  0  0  0  0  0  0  0  0  0
    2.6039   -4.3725   -0.9257 C   0  0  0  0  0  0  0  0  0  0  0  0
    3.5142   -5.2569   -1.5121 C   0  0  0  0  0  0  0  0  0  0  0  0
    4.8430   -4.8786   -1.6961 C   0  0  0  0  0  0  0  0  0  0  0  0
    5.7184   -5.8069   -2.2232 C   0  0  0  0  0  0  0  0  0  0  0  0
    5.3591   -7.0517   -2.6066 N   0  0  0  0  0  0  0  0  0  0  0  0
    4.0532   -7.3924   -2.4490 C   0  0  0  0  0  0  0  0  0  0  0  0
    3.7092   -8.7506   -2.8247 C   0  0  0  0  0  0  0  0  0  0  0  0
    3.3519   -9.8075   -3.0981 N   0  0  0  0  0  0  0  0  0  0  0  0
    3.0860   -6.5416   -1.8964 C   0  0  0  0  0  0  0  0  0  0  0  0
    1.7541   -6.9124   -1.6367 C   0  0  0  0  0  0  0  0  0  0  0  0
    0.9394   -6.0913   -0.8696 C   0  0  0  0  0  0  0  0  0  0  0  0
    2.4204   -0.8578   -1.0326 H   0  0  0  0  0  0  0  0  0  0  0  0
    1.0280   -0.9062   -2.1471 H   0  0  0  0  0  0  0  0  0  0  0  0
    1.7606   -2.3310   -1.7397 H   0  0  0  0  0  0  0  0  0  0  0  0
    0.0089   -0.4530   -0.4135 H   0  0  0  0  0  0  0  0  0  0  0  0
    0.4315   -0.5761    1.8248 H   0  0  0  0  0  0  0  0  0  0  0  0
   -1.0247   -1.3806    1.3922 H   0  0  0  0  0  0  0  0  0  0  0  0
    0.1442   -2.6173    3.0423 H   0  0  0  0  0  0  0  0  0  0  0  0
   -1.3935   -2.6918   -0.6033 H   0  0  0  0  0  0  0  0  0  0  0  0
   -0.2281   -2.8612   -1.8614 H   0  0  0  0  0  0  0  0  0  0  0  0
    2.9632   -3.3833   -0.6639 H   0  0  0  0  0  0  0  0  0  0  0  0
    5.1981   -3.8931   -1.4063 H   0  0  0  0  0  0  0  0  0  0  0  0
    6.7687   -5.5600   -2.3463 H   0  0  0  0  0  0  0  0  0  0  0  0
    1.3436   -7.8561   -1.9880 H   0  0  0  0  0  0  0  0  0  0  0  0
    0.0341   -6.5008   -0.4312 H   0  0  0  0  0  0  0  0  0  0  0  0
  1 22  1  0  0  0  0
  1 23  1  0  0  0  0
  1 24  1  0  0  0  0
  2  3  1  0  0  0  0
  2  9  1  0  0  0  0
  2 25  1  6  0  0  0
  2  1  1  0  0  0  0
  3  4  1  0  0  0  0
  3 26  1  0  0  0  0
  3 27  1  0  0  0  0
  4  5  1  0  0  0  0
  4 28  1  0  0  0  0
  5  6  2  0  0  0  0
  5  7  2  0  0  0  0
  5  8  1  0  0  0  0
  8  9  1  0  0  0  0
  8 10  1  0  0  0  0
  9 29  1  0  0  0  0
  9 30  1  0  0  0  0
 10 11  2  0  0  0  0
 10 21  1  0  0  0  0
 11 12  1  0  0  0  0
 11 31  1  0  0  0  0
 12 13  2  0  0  0  0
 12 19  1  0  0  0  0
 13 14  1  0  0  0  0
 13 32  1  0  0  0  0
 14 15  2  0  0  0  0
 14 33  1  0  0  0  0
 15 16  1  0  0  0  0
 16 17  1  0  0  0  0
 16 19  2  0  0  0  0
 17 18  3  0  0  0  0
 19 20  1  0  0  0  0
 20 21  2  0  0  0  0
 20 34  1  0  0  0  0
 21 35  1  0  0  0  0
M  END
>  <DRUGBANK_ID>
DB15221

>  <COMMON_NAME>
PF-06260414

>  <CAS_NUMBER>
1612755-71-1

>  <UNII>
3I487UHH95

$$$$
