
 OpenBabel10282417123D

 48 49  0  0  1  0  0  0  0  0999 V2000
    0.9259    0.1364   -0.0669 C   0  0  0  0  0  0  0  0  0  0  0  0
    2.9138   -5.0207    1.2495 C   0  0  0  0  0  0  0  0  0  0  0  0
   -0.0257   -0.4902    5.6413 C   0  0  0  0  0  0  0  0  0  0  0  0
    1.7521   -4.7518    2.2174 C   0  0  2  0  0  0  0  0  0  0  0  0
   -0.4141   -0.6330    4.1556 C   0  0  2  0  0  0  0  0  0  0  0  0
    2.2122   -4.4866    3.7169 C   0  0  2  0  0  0  0  0  0  0  0  0
   -1.3133   -1.9091    3.9823 C   0  0  2  0  0  0  0  0  0  0  0  0
    1.0586   -4.1697    4.7330 C   0  0  1  0  0  0  0  0  0  0  0  0
   -0.2305   -4.9688    4.4307 C   0  0  1  0  0  0  0  0  0  0  0  0
   -0.0951   -2.0851    1.8223 C   0  0  1  0  0  0  0  0  0  0  0  0
   -1.3835   -2.4266    2.5198 C   0  0  1  0  0  0  0  0  0  0  0  0
    0.7015   -0.8095    2.0041 C   0  0  1  0  0  0  0  0  0  0  0  0
   -0.6341   -4.9563    2.9099 C   0  0  2  0  0  0  0  0  0  0  0  0
    2.4381   -4.9658   -0.1078 O   0  0  0  0  0  0  0  0  0  0  0  0
    0.7349    0.7022    5.8295 O   0  0  0  0  0  0  0  0  0  0  0  0
    3.1824   -3.4050    3.7087 O   0  0  0  0  0  0  0  0  0  0  0  0
   -2.5766   -1.8143    4.6357 O   0  0  0  0  0  0  0  0  0  0  0  0
    1.4777   -4.2338    6.1034 O   0  0  0  0  0  0  0  0  0  0  0  0
    0.0519   -6.3163    4.8739 O   0  0  0  0  0  0  0  0  0  0  0  0
    0.6545   -2.8273    2.7316 O   0  0  0  0  0  0  0  0  0  0  0  0
    0.3417    0.2900    1.2312 O   0  0  0  0  0  0  0  0  0  0  0  0
    0.8401   -0.5882    3.4254 O   0  0  0  0  0  0  0  0  0  0  0  0
    0.4960   -5.4464    2.0636 O   0  0  0  0  0  0  0  0  0  0  0  0
   -1.5749   -3.9062    2.4124 O   0  0  0  0  0  0  0  0  0  0  0  0
    1.5697   -3.8656    1.6289 H   0  0  0  0  0  0  0  0  0  0  0  0
   -0.9580    0.2493    3.8260 H   0  0  0  0  0  0  0  0  0  0  0  0
    2.7423   -5.3613    4.0964 H   0  0  0  0  0  0  0  0  0  0  0  0
   -0.8803   -2.6870    4.5775 H   0  0  0  0  0  0  0  0  0  0  0  0
    0.8838   -3.1052    4.7141 H   0  0  0  0  0  0  0  0  0  0  0  0
   -1.0805   -4.6417    5.0418 H   0  0  0  0  0  0  0  0  0  0  0  0
   -0.0467   -2.5179    0.8135 H   0  0  0  0  0  0  0  0  0  0  0  0
   -2.2369   -1.9629    2.0088 H   0  0  0  0  0  0  0  0  0  0  0  0
    1.7456   -1.0718    1.7207 H   0  0  0  0  0  0  0  0  0  0  0  0
   -1.3039   -5.8237    2.8156 H   0  0  0  0  0  0  0  0  0  0  0  0
    0.6243    0.9888   -0.6680 H   0  0  0  0  0  0  0  0  0  0  0  0
    0.5699   -0.7872   -0.5363 H   0  0  0  0  0  0  0  0  0  0  0  0
    2.0243    0.1039   -0.0151 H   0  0  0  0  0  0  0  0  0  0  0  0
    3.6257   -4.1811    1.3338 H   0  0  0  0  0  0  0  0  0  0  0  0
    3.4381   -5.9526    1.4188 H   0  0  0  0  0  0  0  0  0  0  0  0
   -0.9136   -0.4481    6.2746 H   0  0  0  0  0  0  0  0  0  0  0  0
    0.6064   -1.3158    5.9947 H   0  0  0  0  0  0  0  0  0  0  0  0
    1.5224   -5.3043   -0.0962 H   0  0  0  0  0  0  0  0  0  0  0  0
    1.5159    0.6105    5.2511 H   0  0  0  0  0  0  0  0  0  0  0  0
    2.8292   -2.6020    4.1368 H   0  0  0  0  0  0  0  0  0  0  0  0
   -3.1721   -1.2480    4.1264 H   0  0  0  0  0  0  0  0  0  0  0  0
    1.3594   -5.1442    6.4174 H   0  0  0  0  0  0  0  0  0  0  0  0
    0.7145   -6.6834    4.2625 H   0  0  0  0  0  0  0  0  0  0  0  0
    1.4742   -2.3461    2.9944 H   0  0  0  0  0  0  0  0  0  0  0  0
  1 35  1  0  0  0  0
  1 36  1  0  0  0  0
  1 37  1  0  0  0  0
  2 38  1  0  0  0  0
  2 39  1  0  0  0  0
  3 40  1  0  0  0  0
  3 41  1  0  0  0  0
  4  2  1  0  0  0  0
  4 25  1  6  0  0  0
  5  3  1  0  0  0  0
  5 26  1  6  0  0  0
  6  4  1  0  0  0  0
  6 16  1  0  0  0  0
  6 27  1  1  0  0  0
  7  5  1  0  0  0  0
  7 17  1  0  0  0  0
  7 28  1  1  0  0  0
  8  6  1  0  0  0  0
  8 18  1  0  0  0  0
  8 29  1  6  0  0  0
  9  8  1  0  0  0  0
  9 19  1  0  0  0  0
  9 30  1  1  0  0  0
 10 20  1  0  0  0  0
 10 31  1  6  0  0  0
 11  7  1  0  0  0  0
 11 10  1  0  0  0  0
 11 24  1  0  0  0  0
 11 32  1  6  0  0  0
 12 10  1  0  0  0  0
 12 21  1  0  0  0  0
 12 33  1  6  0  0  0
 13  9  1  0  0  0  0
 13 24  1  0  0  0  0
 13 34  1  6  0  0  0
 14  2  1  0  0  0  0
 14 42  1  0  0  0  0
 15  3  1  0  0  0  0
 15 43  1  0  0  0  0
 16 44  1  0  0  0  0
 17 45  1  0  0  0  0
 18 46  1  0  0  0  0
 19 47  1  0  0  0  0
 20 48  1  0  0  0  0
 21  1  1  0  0  0  0
 22  5  1  0  0  0  0
 22 12  1  0  0  0  0
 23  4  1  0  0  0  0
 23 13  1  0  0  0  0
M  END
>  <DRUGBANK_ID>
DB02357

>  <SECONDARY_ACCESSION_NUMBERS>
EXPT02145

>  <COMMON_NAME>
Methyl-O3-(Alpha-D-Mannose)-Alpha-D-Mannose

$$$$
