
 OpenBabel10282417203D

 18 17  0  0  0  0  0  0  0  0999 V2000
    1.0031   -0.0430    0.0805 C   0  0  0  0  0  0  0  0  0  0  0  0
    0.5035   -0.3993    1.4786 C   0  0  0  0  0  0  0  0  0  0  0  0
    1.0102    0.6023    2.5034 C   0  0  0  0  0  0  0  0  0  0  0  0
    1.4305    1.4333    3.3537 N   0  0  0  0  0  0  0  0  0  0  0  0
    0.6106    1.3802   -0.3327 C   0  0  0  0  0  0  0  0  0  0  0  0
    1.2055    1.8389   -1.9785 S   0  0  0  0  0  0  0  0  0  0  0  0
    2.9388    1.8426   -1.8998 C   0  0  0  0  0  0  0  0  0  0  0  0
    3.6466    1.6448   -0.8429 N   0  0  0  0  0  0  0  0  0  0  0  0
    3.5590    2.0670   -3.0697 N   0  0  0  0  0  0  0  0  0  0  0  0
    0.5977   -0.7658   -0.6373 H   0  0  0  0  0  0  0  0  0  0  0  0
    2.0873   -0.1794    0.0750 H   0  0  0  0  0  0  0  0  0  0  0  0
   -0.5918   -0.4103    1.5023 H   0  0  0  0  0  0  0  0  0  0  0  0
    0.8530   -1.4006    1.7531 H   0  0  0  0  0  0  0  0  0  0  0  0
   -0.4855    1.4419   -0.3542 H   0  0  0  0  0  0  0  0  0  0  0  0
    0.9434    2.1360    0.3855 H   0  0  0  0  0  0  0  0  0  0  0  0
    3.0685    1.5097   -0.0219 H   0  0  0  0  0  0  0  0  0  0  0  0
    3.0465    2.4124   -3.8679 H   0  0  0  0  0  0  0  0  0  0  0  0
    4.5625    2.1876   -3.0389 H   0  0  0  0  0  0  0  0  0  0  0  0
  1  2  1  0  0  0  0
  1  5  1  0  0  0  0
  1 10  1  0  0  0  0
  1 11  1  0  0  0  0
  2  3  1  0  0  0  0
  2 12  1  0  0  0  0
  2 13  1  0  0  0  0
  3  4  3  0  0  0  0
  5  6  1  0  0  0  0
  5 14  1  0  0  0  0
  5 15  1  0  0  0  0
  6  7  1  0  0  0  0
  7  8  2  0  0  0  0
  7  9  1  0  0  0  0
  8 16  1  0  0  0  0
  9 17  1  0  0  0  0
  9 18  1  0  0  0  0
M  END
>  <DRUGBANK_ID>
DB13010

>  <COMMON_NAME>
4-isothioureidobutyronitrile

>  <CAS_NUMBER>
500863-50-3

>  <UNII>
C3059TG1KN

>  <SYNONYMS>
Kevetrin; Thioureidobutyronitrile

$$$$
