
 OpenBabel10282417203D

 28 27  0  0  0  0  0  0  0  0999 V2000
    4.8952    0.0563   -0.2801 C   0  0  0  0  0  0  0  0  0  0  0  0
    4.0982    1.1832   -0.3756 C   0  0  0  0  0  0  0  0  0  0  0  0
    2.7481    0.9722   -0.3216 C   0  0  0  0  0  0  0  0  0  0  0  0
    1.5391    2.2758    0.1300 C   0  0  0  0  0  0  0  0  0  0  0  0
   -0.2231    1.9190    0.4045 C   0  0  0  0  0  0  0  0  0  0  0  0
   -0.8431    0.2124    0.1876 C   0  0  0  0  0  0  0  0  0  0  0  0
    0.3521   -1.1126   -0.2488 C   0  0  0  0  0  0  0  0  0  0  0  0
    2.1590   -0.7769   -0.4360 C   0  0  0  0  0  0  0  0  0  0  0  0
    3.1011   -1.6874   -0.5791 N   0  0  0  0  0  0  0  0  0  0  0  0
    4.3738   -1.2607   -0.3232 C   0  0  0  0  0  0  0  0  0  0  0  0
   -0.0963   -2.4025   -0.3084 O   0  0  0  0  0  0  0  0  0  0  0  0
   -2.8688   -0.0944   -0.0160 I   0  0  0  0  0  0  0  0  0  0  0  0
    2.1248    3.9093    0.1346 S   0  0  0  0  0  0  0  0  0  0  0  0
    2.8280    4.1970    1.3584 O   0  0  0  0  0  0  0  0  0  0  0  0
    2.7340    4.1194   -1.1654 O   0  0  0  0  0  0  0  0  0  0  0  0
    0.7834    4.8048    0.1296 O   0  0  0  0  0  0  0  0  0  0  0  0
    1.1770    0.3046    1.3470 C   0  0  0  0  0  0  0  0  0  0  0  0
    0.3138   -0.3314    2.0400 O   0  0  0  0  0  0  0  0  0  0  0  0
    0.9282    0.6231   -0.4054 O   0  0  0  0  0  0  0  0  0  0  0  0
    2.3014    0.6031    1.8709 O   0  5  0  0  0  0  0  0  0  0  0  0
    1.7843    0.1019   -2.7087 Na  0  3  0  0  0  0  0  0  0  0  0  0
    5.9499    0.1973   -0.0608 H   0  0  0  0  0  0  0  0  0  0  0  0
    4.5069    2.1743   -0.1889 H   0  0  0  0  0  0  0  0  0  0  0  0
   -0.9064    2.7600    0.4437 H   0  0  0  0  0  0  0  0  0  0  0  0
    5.0526   -2.0770   -0.0749 H   0  0  0  0  0  0  0  0  0  0  0  0
   -0.8061   -2.3980    0.3671 H   0  0  0  0  0  0  0  0  0  0  0  0
    1.0480    5.7400    0.2448 H   0  0  0  0  0  0  0  0  0  0  0  0
    0.1911    0.8702   -1.0358 H   0  0  0  0  0  0  0  0  0  0  0  0
  1  2  1  0  0  0  0
  1 10  2  0  0  0  0
  1 22  1  0  0  0  0
  2  3  2  0  0  0  0
  2 23  1  0  0  0  0
  3  4  1  0  0  0  0
  3  8  1  0  0  0  0
  4  5  2  0  0  0  0
  4 13  1  0  0  0  0
  5  6  1  0  0  0  0
  5 24  1  0  0  0  0
  6  7  2  0  0  0  0
  6 12  1  0  0  0  0
  7  8  1  0  0  0  0
  7 11  1  0  0  0  0
  8  9  2  0  0  0  0
  9 10  1  0  0  0  0
 10 25  1  0  0  0  0
 11 26  1  0  0  0  0
 13 14  2  0  0  0  0
 13 15  2  0  0  0  0
 13 16  1  0  0  0  0
 16 27  1  0  0  0  0
 17 18  2  0  0  0  0
 17 19  1  0  0  0  0
 17 20  1  0  0  0  0
 19 28  1  0  0  0  0
M  CHG  2  20  -1  21   1
M  END
>  <DRUGBANK_ID>
DB13379

>  <COMMON_NAME>
Chiniofon

>  <CAS_NUMBER>
8002-90-2

>  <UNII>
98F8Y85B6W

>  <SYNONYMS>
Chiniofon

$$$$
