BD4
 OpenBabel10282417163D

 43 46  0  0  0  0  0  0  0  0999 V2000
    1.2318   -0.1538   -0.1408 O   0  0  0  0  0  0  0  0  0  0  0  0
    2.4454   -0.0250   -0.0567 C   0  0  0  0  0  0  0  0  0  0  0  0
    3.3267   -1.0607   -0.1442 N   0  0  0  0  0  0  0  0  0  0  0  0
    4.5140   -0.8208    0.4789 C   0  0  0  0  0  0  0  0  0  0  0  0
    5.1943   -1.7499    0.9159 O   0  0  0  0  0  0  0  0  0  0  0  0
    4.5765    0.6073    0.5342 C   0  0  0  0  0  0  0  0  0  0  0  0
    3.2968    1.1011    0.2181 C   0  0  0  0  0  0  0  0  0  0  0  0
    2.9539    2.4431    0.1869 C   0  0  0  0  0  0  0  0  0  0  0  0
    1.5878    2.9150   -0.2079 C   0  0  0  0  0  0  0  0  0  0  0  0
    3.9801    3.3415    0.5250 C   0  0  0  0  0  0  0  0  0  0  0  0
    5.3147    2.9369    0.7503 C   0  0  0  0  0  0  0  0  0  0  0  0
    5.5754    1.5942    0.7824 C   0  0  0  0  0  0  0  0  0  0  0  0
    6.8833    1.2817    1.0667 C   0  0  0  0  0  0  0  0  0  0  0  0
    7.5824    0.0861    1.2416 C   0  0  0  0  0  0  0  0  0  0  0  0
    8.9242    0.0461    1.5670 C   0  0  0  0  0  0  0  0  0  0  0  0
    9.5175   -1.3169    1.7524 C   0  0  0  0  0  0  0  0  0  0  0  0
    9.5994    1.2505    1.7003 C   0  0  0  0  0  0  0  0  0  0  0  0
    8.9410    2.4996    1.5130 C   0  0  0  0  0  0  0  0  0  0  0  0
    7.5505    2.5176    1.1934 C   0  0  0  0  0  0  0  0  0  0  0  0
    6.5875    3.5469    0.9452 N   0  0  0  0  0  0  0  0  0  0  0  0
    6.8973    4.9948    0.9457 C   0  0  0  0  0  0  0  0  0  0  0  0
    6.6646    5.7978   -0.3632 C   0  0  0  0  0  0  0  0  0  0  0  0
    5.2157    5.8266   -0.8190 C   0  0  0  0  0  0  0  0  0  0  0  0
    4.3684    6.4760    0.1851 N   0  0  0  0  0  0  0  0  0  0  0  0
    3.0053   -2.0053   -0.2669 H   0  0  0  0  0  0  0  0  0  0  0  0
    1.3080    2.5298   -1.1954 H   0  0  0  0  0  0  0  0  0  0  0  0
    0.8464    2.5978    0.5301 H   0  0  0  0  0  0  0  0  0  0  0  0
    1.5521    4.0083   -0.2714 H   0  0  0  0  0  0  0  0  0  0  0  0
    3.6738    4.3648    0.5305 H   0  0  0  0  0  0  0  0  0  0  0  0
    7.0753   -0.8582    1.1431 H   0  0  0  0  0  0  0  0  0  0  0  0
    8.9880   -1.8459    2.5559 H   0  0  0  0  0  0  0  0  0  0  0  0
    9.3963   -1.9005    0.8306 H   0  0  0  0  0  0  0  0  0  0  0  0
   10.5772   -1.2755    2.0024 H   0  0  0  0  0  0  0  0  0  0  0  0
   10.6582    1.2201    1.9545 H   0  0  0  0  0  0  0  0  0  0  0  0
    9.5291    3.4067    1.6306 H   0  0  0  0  0  0  0  0  0  0  0  0
    6.3450    5.4460    1.7789 H   0  0  0  0  0  0  0  0  0  0  0  0
    7.9569    5.1229    1.2083 H   0  0  0  0  0  0  0  0  0  0  0  0
    6.9873    6.8438   -0.2366 H   0  0  0  0  0  0  0  0  0  0  0  0
    7.2861    5.3858   -1.1664 H   0  0  0  0  0  0  0  0  0  0  0  0
    5.0821    6.3454   -1.7700 H   0  0  0  0  0  0  0  0  0  0  0  0
    4.9324    4.8022   -1.0556 H   0  0  0  0  0  0  0  0  0  0  0  0
    3.3847    6.3172   -0.0386 H   0  0  0  0  0  0  0  0  0  0  0  0
    4.5004    6.0582    1.1091 H   0  0  0  0  0  0  0  0  0  0  0  0
  1  2  2  0  0  0  0
  2  3  1  0  0  0  0
  2  7  1  0  0  0  0
  3  4  1  0  0  0  0
  3 25  1  0  0  0  0
  4  5  2  0  0  0  0
  4  6  1  0  0  0  0
  6  7  2  0  0  0  0
  6 12  1  0  0  0  0
  7  8  1  0  0  0  0
  8  9  1  0  0  0  0
  8 10  2  0  0  0  0
  9 26  1  0  0  0  0
  9 27  1  0  0  0  0
  9 28  1  0  0  0  0
 10 11  1  0  0  0  0
 10 29  1  0  0  0  0
 11 12  2  0  0  0  0
 11 20  1  0  0  0  0
 12 13  1  0  0  0  0
 13 14  1  0  0  0  0
 13 19  2  0  0  0  0
 14 15  2  0  0  0  0
 14 30  1  0  0  0  0
 15 16  1  0  0  0  0
 15 17  1  0  0  0  0
 16 31  1  0  0  0  0
 16 32  1  0  0  0  0
 16 33  1  0  0  0  0
 17 18  2  0  0  0  0
 17 34  1  0  0  0  0
 18 19  1  0  0  0  0
 18 35  1  0  0  0  0
 19 20  1  0  0  0  0
 20 21  1  0  0  0  0
 21 22  1  0  0  0  0
 21 36  1  0  0  0  0
 21 37  1  0  0  0  0
 22 23  1  0  0  0  0
 22 38  1  0  0  0  0
 22 39  1  0  0  0  0
 23 24  1  0  0  0  0
 23 40  1  0  0  0  0
 23 41  1  0  0  0  0
 24 42  1  0  0  0  0
 24 43  1  0  0  0  0
M  END
>  <DRUGBANK_ID>
DB07444

>  <COMMON_NAME>
6-(3-AMINOPROPYL)-4,9-DIMETHYLPYRROLO[3,4-C]CARBAZOLE-1,3(2H,6H)-DIONE

$$$$
