
 OpenBabel10282417113D

 61 63  0  0  0  0  0  0  0  0999 V2000
   -0.8179   -0.8460    1.0169 C   0  0  0  0  0  0  0  0  0  0  0  0
   -0.7572    0.8415    0.9978 C   0  0  0  0  0  0  0  0  0  0  0  0
    0.8086   -1.8309    0.9349 C   0  0  0  0  0  0  0  0  0  0  0  0
   -2.1144   -1.2885    0.8278 N   0  0  0  0  0  0  0  0  0  0  0  0
    0.8826    1.8050    0.7235 N   0  0  0  0  0  0  0  0  0  0  0  0
   -2.1808    1.0235    0.8273 N   0  0  0  0  0  0  0  0  0  0  0  0
    2.3907   -0.9097    0.4803 N   0  0  0  0  0  0  0  0  0  0  0  0
    0.6436   -3.0408    1.2381 O   0  0  0  0  0  0  0  0  0  0  0  0
   -2.8424   -0.1990    0.7313 C   0  0  0  0  0  0  0  0  0  0  0  0
    2.5764    0.9077    0.2140 C   0  0  0  0  0  0  0  0  0  0  0  0
    0.9934    3.2101    0.2119 C   0  0  0  0  0  0  0  0  0  0  0  0
    3.6605   -1.5557    0.1548 C   0  0  0  0  0  0  0  0  0  0  0  0
   -4.4704   -0.1287    0.1310 Cl  0  0  0  0  0  0  0  0  0  0  0  0
    3.5772    1.5407   -0.1013 O   0  0  0  0  0  0  0  0  0  0  0  0
    0.7468    0.0658    0.0956 C   0  0  0  0  0  0  0  0  0  0  0  0
    0.5391   -0.8653   -1.0163 C   0  0  0  0  0  0  0  0  0  0  0  0
    0.9271   -0.0990    2.1436 C   0  0  0  0  0  0  0  0  0  0  0  0
    0.6029    1.2365   -1.0911 O   0  0  0  0  0  0  0  0  0  0  0  0
    0.3222   -0.3127   -2.8137 C   0  0  0  0  0  0  0  0  0  0  0  0
    0.6262   -2.7556   -0.8518 C   0  0  0  0  0  0  0  0  0  0  0  0
    0.4405    0.9440    2.9337 C   0  0  0  0  0  0  0  0  0  0  0  0
    1.0714   -1.3991    2.9543 C   0  0  0  0  0  0  0  0  0  0  0  0
   -0.8155    1.5939   -1.1819 C   0  0  0  0  0  0  0  0  0  0  0  0
    0.0922   -1.7789   -3.8834 C   0  0  0  0  0  0  0  0  0  0  0  0
    0.6134   -3.8758   -1.8360 C   0  0  0  0  0  0  0  0  0  0  0  0
   -0.2860    0.5583    4.0169 C   0  0  0  0  0  0  0  0  0  0  0  0
    0.0718   -1.8373    3.7505 C   0  0  0  0  0  0  0  0  0  0  0  0
   -1.5694    0.0659   -1.7423 C   0  0  0  0  0  0  0  0  0  0  0  0
    0.2895   -3.4415   -3.2565 C   0  0  0  0  0  0  0  0  0  0  0  0
   -0.4519   -0.7882    4.4090 C   0  0  0  0  0  0  0  0  0  0  0  0
   -0.6971   -1.6135   -1.9905 N   0  0  0  0  0  0  0  0  0  0  0  0
   -1.8411   -2.5842   -1.9106 C   0  0  0  0  0  0  0  0  0  0  0  0
    1.3480   -1.7517   -2.3297 C   0  0  0  0  0  0  0  0  0  0  0  0
   -2.5783    1.8256    0.3555 H   0  0  0  0  0  0  0  0  0  0  0  0
    0.5709    3.3930   -0.7952 H   0  0  0  0  0  0  0  0  0  0  0  0
    0.4313    3.7400    0.9498 H   0  0  0  0  0  0  0  0  0  0  0  0
    2.0463    3.4550    0.0867 H   0  0  0  0  0  0  0  0  0  0  0  0
    3.7981   -2.2505    0.9633 H   0  0  0  0  0  0  0  0  0  0  0  0
    3.6876   -2.0924   -0.8070 H   0  0  0  0  0  0  0  0  0  0  0  0
    4.4437   -0.7913    0.0473 H   0  0  0  0  0  0  0  0  0  0  0  0
    1.4600    0.3080    1.1021 H   0  0  0  0  0  0  0  0  0  0  0  0
    0.1555    0.6865   -3.2064 H   0  0  0  0  0  0  0  0  0  0  0  0
    1.5688   -3.1876   -0.3179 H   0  0  0  0  0  0  0  0  0  0  0  0
    0.2300    1.9433    2.5466 H   0  0  0  0  0  0  0  0  0  0  0  0
    1.5360   -2.3584    2.6601 H   0  0  0  0  0  0  0  0  0  0  0  0
   -0.9742    2.2561   -0.2184 H   0  0  0  0  0  0  0  0  0  0  0  0
   -1.1928    2.5401   -1.6182 H   0  0  0  0  0  0  0  0  0  0  0  0
   -0.8102   -1.7728   -4.4925 H   0  0  0  0  0  0  0  0  0  0  0  0
    0.8898   -4.8350   -1.3701 H   0  0  0  0  0  0  0  0  0  0  0  0
   -0.7460    1.3744    4.5304 H   0  0  0  0  0  0  0  0  0  0  0  0
   -0.0498   -2.9178    3.8944 H   0  0  0  0  0  0  0  0  0  0  0  0
   -2.6481   -0.0125   -1.5934 H   0  0  0  0  0  0  0  0  0  0  0  0
   -1.6841    0.4170   -2.7617 H   0  0  0  0  0  0  0  0  0  0  0  0
   -0.2708   -4.2619   -3.6931 H   0  0  0  0  0  0  0  0  0  0  0  0
   -0.8379   -1.0252    5.3722 H   0  0  0  0  0  0  0  0  0  0  0  0
   -2.0270   -2.5817   -2.9622 H   0  0  0  0  0  0  0  0  0  0  0  0
   -1.6041   -3.5218   -1.4018 H   0  0  0  0  0  0  0  0  0  0  0  0
   -2.8149   -2.2593   -1.5225 H   0  0  0  0  0  0  0  0  0  0  0  0
    1.9605   -1.0570   -3.0390 H   0  0  0  0  0  0  0  0  0  0  0  0
    2.0667   -0.8137   -1.7961 H   0  0  0  0  0  0  0  0  0  0  0  0
    2.0951   -2.0475   -1.4944 H   0  0  0  0  0  0  0  0  0  0  0  0
  1  2  2  0  0  0  0
  1  3  1  0  0  0  0
  1  4  1  0  0  0  0
  2  5  1  0  0  0  0
  2  6  1  0  0  0  0
  3  7  1  0  0  0  0
  3  8  2  0  0  0  0
  4  9  2  0  0  0  0
  5 10  1  0  0  0  0
  5 11  1  0  0  0  0
  6  9  1  0  0  0  0
  6 34  1  0  0  0  0
  7 12  1  0  0  0  0
  7 10  1  0  0  0  0
  9 13  1  0  0  0  0
 10 14  2  0  0  0  0
 11 35  1  0  0  0  0
 11 36  1  0  0  0  0
 11 37  1  0  0  0  0
 12 38  1  0  0  0  0
 12 39  1  0  0  0  0
 12 40  1  0  0  0  0
 15 16  1  0  0  0  0
 15 17  1  0  0  0  0
 15 18  1  0  0  0  0
 15 41  1  0  0  0  0
 16 19  1  0  0  0  0
 16 20  2  0  0  0  0
 17 21  2  0  0  0  0
 17 22  1  0  0  0  0
 18 23  1  0  0  0  0
 19 24  2  0  0  0  0
 19 42  1  0  0  0  0
 20 25  1  0  0  0  0
 20 43  1  0  0  0  0
 21 26  1  0  0  0  0
 21 44  1  0  0  0  0
 22 27  2  0  0  0  0
 22 45  1  0  0  0  0
 23 28  1  0  0  0  0
 23 46  1  0  0  0  0
 23 47  1  0  0  0  0
 24 29  1  0  0  0  0
 24 48  1  0  0  0  0
 25 29  2  0  0  0  0
 25 49  1  0  0  0  0
 26 30  2  0  0  0  0
 26 50  1  0  0  0  0
 27 30  1  0  0  0  0
 27 51  1  0  0  0  0
 28 31  1  0  0  0  0
 28 52  1  0  0  0  0
 28 53  1  0  0  0  0
 29 54  1  0  0  0  0
 30 55  1  0  0  0  0
 31 32  1  0  0  0  0
 31 33  1  0  0  0  0
 32 56  1  0  0  0  0
 32 57  1  0  0  0  0
 32 58  1  0  0  0  0
 33 59  1  0  0  0  0
 33 60  1  0  0  0  0
 33 61  1  0  0  0  0
M  END
>  <DRUGBANK_ID>
DB00985

>  <SECONDARY_ACCESSION_NUMBERS>
APRD00924

>  <COMMON_NAME>
Dimenhydrinate

>  <CAS_NUMBER>
523-87-5

>  <UNII>
JB937PER5C

>  <SYNONYMS>
(O-benzhydryl(dimethylamino)ethanol) 8-chlorotheophyllinate; 8-chloro-1,3-dimethyl-3,7-dihydro-1H-purine-2,6-dione - 2-(diphenylmethoxy)-N,N-dimethylethanamine (1:1); Benzhydryl-β-dimethylaminoethylether 8-chlorotheophylline; Dimenhidrinato; Dimenhydrinate; Dimenhydrinatum; diphenhydramine 8-chlorotheophyllinate; diphenhydramine 8-chlorotheophylline; Diphenhydramine theoclate; N,N-dimethyl-2-diphenylmethoxyethylamine 8-chlorotheophyllinate; O-benzhydryldimethylaminoethanol 8-chlorotheophyllinate; β-dimethylaminoethyl benzhydryl ether 1,3-dimethyl-8-chloroxanthine

$$$$
