1431
 OpenBabel10282417113D

 54 57  0  0  1  0  0  0  0  0999 V2000
   -0.5845   -2.3881    9.4521 O   0  0  0  0  0  0  0  0  0  0  0  0
    0.1693   -2.9608    6.6520 C   0  0  1  0  0  0  0  0  0  0  0  0
   -1.1043   -2.6860    5.9546 C   0  0  2  0  0  0  0  0  0  0  0  0
   -1.6674   -3.1126    4.6192 C   0  0  1  0  0  0  0  0  0  0  0  0
   -1.2987   -4.5827    4.0095 C   0  0  2  0  0  0  0  0  0  0  0  0
   -1.0102   -2.9656    8.2050 C   0  0  2  0  0  0  0  0  0  0  0  0
    0.8257   -4.2473    5.7114 C   0  0  0  0  0  0  0  0  0  0  0  0
   -1.5219   -1.3656    6.7073 C   0  0  0  0  0  0  0  0  0  0  0  0
    0.2966   -4.5236    4.1726 C   0  0  0  0  0  0  0  0  0  0  0  0
   -2.2488   -1.9767    7.8427 C   0  0  0  0  0  0  0  0  0  0  0  0
   -2.3008   -5.0424    2.5002 C   0  0  2  0  0  0  0  0  0  0  0  0
   -3.1423   -3.1403    4.9915 C   0  0  0  0  0  0  0  0  0  0  0  0
    1.0510   -1.7680    6.0297 C   0  0  0  0  0  0  0  0  0  0  0  0
   -3.8675   -3.4933    3.7688 C   0  0  0  0  0  0  0  0  0  0  0  0
   -3.4109   -4.9083    3.5263 C   0  0  0  0  0  0  0  0  0  0  0  0
   -1.6265   -4.4190    8.5511 C   0  0  0  0  0  0  0  0  0  0  0  0
   -3.7448   -5.7736    1.5365 C   0  0  0  0  0  0  0  0  0  0  0  0
   -5.3333   -5.5406    1.9948 C   0  0  0  0  0  0  0  0  0  0  0  0
   -4.0965   -5.9954    3.9346 C   0  0  0  0  0  0  0  0  0  0  0  0
   -5.5073   -5.8205    3.5043 C   0  0  0  0  0  0  0  0  0  0  0  0
   -0.4265   -5.1834    8.2600 C   0  0  0  0  0  0  0  0  0  0  0  0
    0.6818   -5.5992    8.9175 C   0  0  0  0  0  0  0  0  0  0  0  0
   -1.5932   -3.5467    6.3955 H   0  0  0  0  0  0  0  0  0  0  0  0
   -1.3977   -2.3510    3.8869 H   0  0  0  0  0  0  0  0  0  0  0  0
   -1.5275   -5.3987    4.7226 H   0  0  0  0  0  0  0  0  0  0  0  0
   -1.7332   -5.9700    2.3229 H   0  0  0  0  0  0  0  0  0  0  0  0
   -1.4108   -2.1630    9.9486 H   0  0  0  0  0  0  0  0  0  0  0  0
    1.9118   -4.0366    5.6599 H   0  0  0  0  0  0  0  0  0  0  0  0
    0.9182   -5.2371    6.1684 H   0  0  0  0  0  0  0  0  0  0  0  0
   -1.8851   -0.5285    6.1218 H   0  0  0  0  0  0  0  0  0  0  0  0
   -0.7052   -0.8816    7.2924 H   0  0  0  0  0  0  0  0  0  0  0  0
    0.7316   -3.7365    3.5475 H   0  0  0  0  0  0  0  0  0  0  0  0
    0.7698   -5.4691    3.8657 H   0  0  0  0  0  0  0  0  0  0  0  0
   -3.1713   -2.4684    7.5149 H   0  0  0  0  0  0  0  0  0  0  0  0
   -2.5498   -1.2215    8.5839 H   0  0  0  0  0  0  0  0  0  0  0  0
   -3.4816   -2.1852    5.3888 H   0  0  0  0  0  0  0  0  0  0  0  0
   -3.3445   -3.9009    5.7782 H   0  0  0  0  0  0  0  0  0  0  0  0
    0.8349   -1.7602    4.9399 H   0  0  0  0  0  0  0  0  0  0  0  0
    0.8836   -0.7283    6.3218 H   0  0  0  0  0  0  0  0  0  0  0  0
    2.1298   -1.9494    6.0614 H   0  0  0  0  0  0  0  0  0  0  0  0
   -3.5711   -2.7942    2.9851 H   0  0  0  0  0  0  0  0  0  0  0  0
   -4.9152   -3.3609    4.0081 H   0  0  0  0  0  0  0  0  0  0  0  0
   -2.0514   -4.6145    9.5396 H   0  0  0  0  0  0  0  0  0  0  0  0
   -2.3997   -4.7218    7.8157 H   0  0  0  0  0  0  0  0  0  0  0  0
   -3.7429   -5.5547    0.4540 H   0  0  0  0  0  0  0  0  0  0  0  0
   -3.6257   -6.8820    1.5390 H   0  0  0  0  0  0  0  0  0  0  0  0
   -6.0950   -6.1523    1.4783 H   0  0  0  0  0  0  0  0  0  0  0  0
   -5.6061   -4.5111    1.7181 H   0  0  0  0  0  0  0  0  0  0  0  0
   -3.6746   -6.9783    3.6785 H   0  0  0  0  0  0  0  0  0  0  0  0
   -6.0712   -6.7273    3.7192 H   0  0  0  0  0  0  0  0  0  0  0  0
   -6.0084   -4.9912    4.0101 H   0  0  0  0  0  0  0  0  0  0  0  0
   -0.3470   -5.0488    7.2309 H   0  0  0  0  0  0  0  0  0  0  0  0
    1.6105   -5.4700    8.3583 H   0  0  0  0  0  0  0  0  0  0  0  0
    0.7027   -5.9059    9.9346 H   0  0  0  0  0  0  0  0  0  0  0  0
  1 27  1  0  0  0  0
  2  3  1  0  0  0  0
  2  6  1  0  0  0  0
  2  7  1  0  0  0  0
  2 13  1  6  0  0  0
  3  4  1  0  0  0  0
  3  8  1  0  0  0  0
  3 23  1  1  0  0  0
  4  5  1  0  0  0  0
  4 12  1  0  0  0  0
  4 24  1  6  0  0  0
  5  9  1  0  0  0  0
  5 11  1  0  0  0  0
  5 25  1  1  0  0  0
  6  1  1  1  0  0  0
  6 10  1  0  0  0  0
  6 16  1  0  0  0  0
  7  9  1  0  0  0  0
  7 28  1  0  0  0  0
  7 29  1  0  0  0  0
  8 10  1  0  0  0  0
  8 30  1  0  0  0  0
  8 31  1  0  0  0  0
  9 32  1  0  0  0  0
  9 33  1  0  0  0  0
 10 34  1  0  0  0  0
 10 35  1  0  0  0  0
 11 15  1  0  0  0  0
 11 17  1  0  0  0  0
 11 26  1  6  0  0  0
 12 14  1  0  0  0  0
 12 36  1  0  0  0  0
 12 37  1  0  0  0  0
 13 38  1  0  0  0  0
 13 39  1  0  0  0  0
 13 40  1  0  0  0  0
 14 15  1  0  0  0  0
 14 41  1  0  0  0  0
 14 42  1  0  0  0  0
 15 19  2  0  0  0  0
 16 21  1  0  0  0  0
 16 43  1  0  0  0  0
 16 44  1  0  0  0  0
 17 18  1  0  0  0  0
 17 45  1  0  0  0  0
 17 46  1  0  0  0  0
 18 20  1  0  0  0  0
 18 47  1  0  0  0  0
 18 48  1  0  0  0  0
 19 20  1  0  0  0  0
 19 49  1  0  0  0  0
 20 50  1  0  0  0  0
 20 51  1  0  0  0  0
 21 22  2  0  0  0  0
 21 52  1  0  0  0  0
 22 53  1  0  0  0  0
 22 54  1  0  0  0  0
M  END
>  <DRUGBANK_ID>
DB01431

>  <COMMON_NAME>
Allylestrenol

>  <CAS_NUMBER>
432-60-0

>  <UNII>
I47VB5DZ8O

>  <SYNONYMS>
17α-allylestr-4-en-17β-ol; 3-deketo-17α-allyl-19-nortestosterone; Alilestrenol; Allilestrenolo; Allyl estrenol; Allylestrenol; Allylestrenolum; Allyloestrenol

$$$$
