
 OpenBabel10282417113D

 41 41  0  0  0  0  0  0  0  0999 V2000
    0.1136   -0.7815    1.4471 C   0  0  0  0  0  0  0  0  0  0  0  0
    0.0768    0.6337    1.6440 C   0  0  0  0  0  0  0  0  0  0  0  0
   -1.0686    1.3941    1.1671 N   0  0  0  0  0  0  0  0  0  0  0  0
   -2.2372    0.6741    0.8059 C   0  0  0  0  0  0  0  0  0  0  0  0
   -2.1486   -0.7215    0.6844 N   0  0  0  0  0  0  0  0  0  0  0  0
   -0.9742   -1.4749    0.7743 C   0  0  0  0  0  0  0  0  0  0  0  0
    1.4434   -1.1693    1.4385 N   0  5  0  0  0  0  0  0  0  0  0  0
    2.2210   -0.0620    1.5229 C   0  0  0  0  0  0  0  0  0  0  0  0
    1.4010    1.0371    1.7451 N   0  0  0  0  0  0  0  0  0  0  0  0
   -0.9240   -2.5638    0.1171 O   0  0  0  0  0  0  0  0  0  0  0  0
   -3.2574    1.2563    0.4245 O   0  0  0  0  0  0  0  0  0  0  0  0
   -3.3270   -1.4298    0.1567 C   0  0  0  0  0  0  0  0  0  0  0  0
   -1.1357    2.8902    0.8101 C   0  0  0  0  0  0  0  0  0  0  0  0
    1.1472    0.1025   -1.0398 C   0  0  0  0  0  0  0  0  0  0  0  0
    0.5548    1.1986   -1.8221 N   0  3  0  0  0  0  0  0  0  0  0  0
    1.0285    0.7080   -3.1382 C   0  0  0  0  0  0  0  0  0  0  0  0
    0.5175   -0.7833   -3.3855 C   0  0  0  0  0  0  0  0  0  0  0  0
   -0.9048   -0.9333   -3.3008 O   0  0  0  0  0  0  0  0  0  0  0  0
   -0.9699    1.2774   -1.8649 C   0  0  0  0  0  0  0  0  0  0  0  0
    1.2293    2.4906   -1.2403 C   0  0  0  0  0  0  0  0  0  0  0  0
    3.2049   -0.0427    1.0061 H   0  0  0  0  0  0  0  0  0  0  0  0
   -3.1389   -1.9249   -0.8102 H   0  0  0  0  0  0  0  0  0  0  0  0
   -3.5727   -2.2119    0.8789 H   0  0  0  0  0  0  0  0  0  0  0  0
   -4.2045   -0.7898    0.0269 H   0  0  0  0  0  0  0  0  0  0  0  0
   -0.5908    3.5675    1.4574 H   0  0  0  0  0  0  0  0  0  0  0  0
   -0.7909    3.1770   -0.2011 H   0  0  0  0  0  0  0  0  0  0  0  0
   -2.1801    3.2254    0.6675 H   0  0  0  0  0  0  0  0  0  0  0  0
    0.6248   -0.8490   -1.0785 H   0  0  0  0  0  0  0  0  0  0  0  0
    0.9255    0.5249   -0.1537 H   0  0  0  0  0  0  0  0  0  0  0  0
    2.2369    0.0296   -1.1530 H   0  0  0  0  0  0  0  0  0  0  0  0
    0.6589    1.4377   -3.8469 H   0  0  0  0  0  0  0  0  0  0  0  0
    2.1244    0.7473   -3.0879 H   0  0  0  0  0  0  0  0  0  0  0  0
    0.8480   -1.0871   -4.3657 H   0  0  0  0  0  0  0  0  0  0  0  0
    0.9487   -1.5507   -2.7196 H   0  0  0  0  0  0  0  0  0  0  0  0
   -1.1250   -1.3566   -2.4390 H   0  0  0  0  0  0  0  0  0  0  0  0
   -1.4522    1.9018   -1.1474 H   0  0  0  0  0  0  0  0  0  0  0  0
   -1.2730    1.7376   -2.8009 H   0  0  0  0  0  0  0  0  0  0  0  0
   -1.4062    0.3107   -1.6426 H   0  0  0  0  0  0  0  0  0  0  0  0
    0.9961    2.6485   -0.1786 H   0  0  0  0  0  0  0  0  0  0  0  0
    2.3157    2.3818   -1.2448 H   0  0  0  0  0  0  0  0  0  0  0  0
    0.8765    3.3467   -1.8086 H   0  0  0  0  0  0  0  0  0  0  0  0
  1  2  2  0  0  0  0
  1  6  1  0  0  0  0
  1  7  1  0  0  0  0
  2  3  1  0  0  0  0
  2  9  1  0  0  0  0
  3  4  1  0  0  0  0
  3 13  1  0  0  0  0
  4  5  1  0  0  0  0
  4 11  2  0  0  0  0
  5  6  1  0  0  0  0
  5 12  1  0  0  0  0
  6 10  2  0  0  0  0
  7  8  1  0  0  0  0
  8  9  2  0  0  0  0
  8 21  1  0  0  0  0
 12 22  1  0  0  0  0
 12 23  1  0  0  0  0
 12 24  1  0  0  0  0
 13 25  1  0  0  0  0
 13 26  1  0  0  0  0
 13 27  1  0  0  0  0
 14 15  1  0  0  0  0
 14 28  1  0  0  0  0
 14 29  1  0  0  0  0
 14 30  1  0  0  0  0
 15 16  1  0  0  0  0
 15 19  1  0  0  0  0
 15 20  1  0  0  0  0
 16 17  1  0  0  0  0
 16 31  1  0  0  0  0
 16 32  1  0  0  0  0
 17 18  1  0  0  0  0
 17 33  1  0  0  0  0
 17 34  1  0  0  0  0
 18 35  1  0  0  0  0
 19 36  1  0  0  0  0
 19 37  1  0  0  0  0
 19 38  1  0  0  0  0
 20 39  1  0  0  0  0
 20 40  1  0  0  0  0
 20 41  1  0  0  0  0
M  CHG  2   7  -1  15   1
M  END
>  <DRUGBANK_ID>
DB01303

>  <COMMON_NAME>
Oxtriphylline

>  <CAS_NUMBER>
4499-40-5

>  <UNII>
3K045XR58X

>  <SYNONYMS>
Choline theophyllinate; Choline theophylline; Cholini theophyllinas; Oxtriphylline; Teofilinato de colina; Theocolin; Theophyllinate de choline

$$$$
