
 OpenBabel10282417233D

 51 51  0  0  0  0  0  0  0  0999 V2000
   -0.1249    0.6952   -0.0248 C   0  0  0  0  0  0  0  0  0  0  0  0
   -0.1055   -0.7026   -0.0010 C   0  0  0  0  0  0  0  0  0  0  0  0
   -1.3095   -1.4148    0.0030 C   0  0  0  0  0  0  0  0  0  0  0  0
   -1.3481    1.3715   -0.0527 C   0  0  0  0  0  0  0  0  0  0  0  0
   -2.5505    0.6562   -0.0597 C   0  0  0  0  0  0  0  0  0  0  0  0
   -2.5441   -0.7460   -0.0470 C   0  0  0  0  0  0  0  0  0  0  0  0
   -3.8344   -1.5353    0.0096 C   0  0  0  0  0  0  0  0  0  0  0  0
   -3.9125   -2.5197   -1.0751 N   0  0  0  0  0  0  0  0  0  0  0  0
   -4.0429   -3.8483   -0.7919 C   0  0  0  0  0  0  0  0  0  0  0  0
   -4.1467   -4.7770   -1.8132 N   0  0  0  0  0  0  0  0  0  0  0  0
   -4.2613   -6.1475   -1.6444 C   0  0  0  0  0  0  0  0  0  0  0  0
   -4.3647   -6.9544   -2.7407 N   0  0  0  0  0  0  0  0  0  0  0  0
   -4.4885   -8.4121   -2.6837 C   0  0  0  0  0  0  0  0  0  0  0  0
   -5.7888   -8.8754   -3.3320 C   0  0  0  0  0  0  0  0  0  0  0  0
   -5.7727   -8.6508   -4.8407 C   0  0  0  0  0  0  0  0  0  0  0  0
   -4.6217   -9.4107   -5.5111 C   0  0  0  0  0  0  0  0  0  0  0  0
   -4.7420  -10.9271   -5.3068 C   0  0  0  0  0  0  0  0  0  0  0  0
   -6.0225  -11.4824   -5.9409 C   0  0  0  0  0  0  0  0  0  0  0  0
   -6.0843  -11.1993   -7.4434 C   0  0  0  0  0  0  0  0  0  0  0  0
   -4.9129  -11.8470   -8.1650 C   0  0  0  0  0  0  0  0  0  0  0  0
    1.3199    1.6440   -0.0112 Cl  0  0  0  0  0  0  0  0  0  0  0  0
    1.3661   -1.6078    0.0128 Cl  0  0  0  0  0  0  0  0  0  0  0  0
   -4.0482   -4.2003    0.4565 N   0  0  0  0  0  0  0  0  0  0  0  0
   -4.2736   -6.6166   -0.4414 N   0  0  0  0  0  0  0  0  0  0  0  0
   -1.2975   -2.5035    0.0584 H   0  0  0  0  0  0  0  0  0  0  0  0
   -1.3712    2.4593   -0.0643 H   0  0  0  0  0  0  0  0  0  0  0  0
   -3.4901    1.2059   -0.0586 H   0  0  0  0  0  0  0  0  0  0  0  0
   -3.8829   -1.9829    1.0115 H   0  0  0  0  0  0  0  0  0  0  0  0
   -4.6994   -0.8647   -0.0485 H   0  0  0  0  0  0  0  0  0  0  0  0
   -3.9225   -2.1523   -2.0115 H   0  0  0  0  0  0  0  0  0  0  0  0
   -4.1395   -4.4205   -2.7519 H   0  0  0  0  0  0  0  0  0  0  0  0
   -4.2981   -6.5640   -3.6710 H   0  0  0  0  0  0  0  0  0  0  0  0
   -3.6054   -8.8728   -3.1364 H   0  0  0  0  0  0  0  0  0  0  0  0
   -4.4928   -8.8213   -1.6732 H   0  0  0  0  0  0  0  0  0  0  0  0
   -5.9391   -9.9403   -3.1094 H   0  0  0  0  0  0  0  0  0  0  0  0
   -6.6493   -8.3679   -2.8828 H   0  0  0  0  0  0  0  0  0  0  0  0
   -6.7379   -8.9544   -5.2611 H   0  0  0  0  0  0  0  0  0  0  0  0
   -5.6876   -7.5827   -5.0620 H   0  0  0  0  0  0  0  0  0  0  0  0
   -4.5919   -9.1537   -6.5739 H   0  0  0  0  0  0  0  0  0  0  0  0
   -3.6509   -9.0717   -5.1378 H   0  0  0  0  0  0  0  0  0  0  0  0
   -3.8569  -11.4209   -5.7202 H   0  0  0  0  0  0  0  0  0  0  0  0
   -4.7172  -11.1900   -4.2439 H   0  0  0  0  0  0  0  0  0  0  0  0
   -6.0818  -12.5612   -5.7606 H   0  0  0  0  0  0  0  0  0  0  0  0
   -6.9075  -11.0566   -5.4532 H   0  0  0  0  0  0  0  0  0  0  0  0
   -7.0288  -11.5746   -7.8485 H   0  0  0  0  0  0  0  0  0  0  0  0
   -6.0880  -10.1209   -7.6402 H   0  0  0  0  0  0  0  0  0  0  0  0
   -4.9293  -12.9293   -8.0064 H   0  0  0  0  0  0  0  0  0  0  0  0
   -4.9560  -11.6407   -9.2355 H   0  0  0  0  0  0  0  0  0  0  0  0
   -3.9499  -11.4685   -7.8077 H   0  0  0  0  0  0  0  0  0  0  0  0
   -4.1421   -5.2400    0.4369 H   0  0  0  0  0  0  0  0  0  0  0  0
   -4.3592   -7.6251   -0.4171 H   0  0  0  0  0  0  0  0  0  0  0  0
  1  2  2  0  0  0  0
  1 21  1  0  0  0  0
  2  3  1  0  0  0  0
  2 22  1  0  0  0  0
  3  6  2  0  0  0  0
  3 25  1  0  0  0  0
  4  1  1  0  0  0  0
  4 26  1  0  0  0  0
  5  4  2  0  0  0  0
  5  6  1  0  0  0  0
  5 27  1  0  0  0  0
  6  7  1  0  0  0  0
  7  8  1  0  0  0  0
  7 28  1  0  0  0  0
  7 29  1  0  0  0  0
  8  9  1  0  0  0  0
  8 30  1  0  0  0  0
  9 10  1  0  0  0  0
  9 23  2  0  0  0  0
 10 11  1  0  0  0  0
 10 31  1  0  0  0  0
 11 12  1  0  0  0  0
 11 24  2  0  0  0  0
 12 13  1  0  0  0  0
 12 32  1  0  0  0  0
 13 14  1  0  0  0  0
 13 33  1  0  0  0  0
 13 34  1  0  0  0  0
 14 15  1  0  0  0  0
 14 35  1  0  0  0  0
 14 36  1  0  0  0  0
 15 16  1  0  0  0  0
 15 37  1  0  0  0  0
 15 38  1  0  0  0  0
 16 17  1  0  0  0  0
 16 39  1  0  0  0  0
 16 40  1  0  0  0  0
 17 18  1  0  0  0  0
 17 41  1  0  0  0  0
 17 42  1  0  0  0  0
 18 19  1  0  0  0  0
 18 43  1  0  0  0  0
 18 44  1  0  0  0  0
 19 20  1  0  0  0  0
 19 45  1  0  0  0  0
 19 46  1  0  0  0  0
 20 47  1  0  0  0  0
 20 48  1  0  0  0  0
 20 49  1  0  0  0  0
 23 50  1  0  0  0  0
 24 51  1  0  0  0  0
M  END
>  <DRUGBANK_ID>
DB16889

>  <COMMON_NAME>
Olanexidine

>  <CAS_NUMBER>
146510-36-3

>  <UNII>
92C2328G7P

$$$$
