
 OpenBabel10282417123D

 13 12  0  0  0  0  0  0  0  0999 V2000
    0.9734   -0.2179   -0.0170 C   0  0  0  0  0  0  0  0  0  0  0  0
    0.4361   -1.1454    1.0398 C   0  0  0  0  0  0  0  0  0  0  0  0
   -0.2691   -0.7814    1.9736 O   0  0  0  0  0  0  0  0  0  0  0  0
    0.8214   -2.4298    0.8757 O   0  0  0  0  0  0  0  0  0  0  0  0
    0.2447   -3.5504    2.0608 P   0  0  0  0  0  0  0  0  0  0  0  0
   -0.5097   -4.2698    0.7951 O   0  0  0  0  0  0  0  0  0  0  0  0
    1.7039   -4.2733    1.8591 O   0  0  0  0  0  0  0  0  0  0  0  0
   -0.2714   -4.5534    3.1215 O   0  0  0  0  0  0  0  0  0  0  0  0
    0.6268    0.8012    0.1947 H   0  0  0  0  0  0  0  0  0  0  0  0
    0.6017   -0.4913   -1.0077 H   0  0  0  0  0  0  0  0  0  0  0  0
    2.0666   -0.1985   -0.0074 H   0  0  0  0  0  0  0  0  0  0  0  0
   -1.4634   -4.0851    0.8261 H   0  0  0  0  0  0  0  0  0  0  0  0
    2.4151   -3.6160    1.7809 H   0  0  0  0  0  0  0  0  0  0  0  0
  1  2  1  0  0  0  0
  1  9  1  0  0  0  0
  1 10  1  0  0  0  0
  1 11  1  0  0  0  0
  2  3  2  0  0  0  0
  2  4  1  0  0  0  0
  4  5  1  0  0  0  0
  5  6  1  0  0  0  0
  5  7  1  0  0  0  0
  5  8  2  0  0  0  0
  6 12  1  0  0  0  0
  7 13  1  0  0  0  0
M  END
>  <DRUGBANK_ID>
DB02897

>  <SECONDARY_ACCESSION_NUMBERS>
EXPT03212

>  <COMMON_NAME>
Acetylphosphate

>  <UNII>
54979W5TJB

$$$$
