
 OpenBabel10282417223D

 44 46  0  0  0  0  0  0  0  0999 V2000
    0.7151   -0.0915    0.6818 C   0  0  0  0  0  0  0  0  0  0  0  0
    0.0678   -1.2896   -0.0028 C   0  0  0  0  0  0  0  0  0  0  0  0
    0.5296   -2.5507    0.7169 C   0  0  0  0  0  0  0  0  0  0  0  0
   -1.3407   -1.1593   -0.2867 N   0  0  0  0  0  0  0  0  0  0  0  0
   -2.0468   -2.2855   -0.5130 N   0  0  0  0  0  0  0  0  0  0  0  0
   -3.2939   -1.8393   -0.6178 C   0  0  0  0  0  0  0  0  0  0  0  0
   -3.3435   -0.4347   -0.6454 C   0  0  0  0  0  0  0  0  0  0  0  0
   -2.0225   -0.0198   -0.6602 C   0  0  0  0  0  0  0  0  0  0  0  0
   -1.4389    1.3131   -0.7868 C   0  0  0  0  0  0  0  0  0  0  0  0
   -0.5342    1.7111   -1.7903 C   0  0  0  0  0  0  0  0  0  0  0  0
   -0.0156    0.8357   -2.9370 C   0  0  0  0  0  0  0  0  0  0  0  0
    0.9163   -0.2781   -2.7650 O   0  0  0  0  0  0  0  0  0  0  0  0
    2.1204   -0.2468   -2.0825 C   0  0  0  0  0  0  0  0  0  0  0  0
    2.6572    0.9487   -1.5927 C   0  0  0  0  0  0  0  0  0  0  0  0
    3.6586    0.9464   -0.6112 C   0  0  0  0  0  0  0  0  0  0  0  0
    4.1721   -0.2524   -0.1231 C   0  0  0  0  0  0  0  0  0  0  0  0
    3.6985   -1.4631   -0.6318 C   0  0  0  0  0  0  0  0  0  0  0  0
    4.1010   -2.6130   -0.0033 O   0  0  0  0  0  0  0  0  0  0  0  0
    2.6985   -1.4908   -1.6370 C   0  0  0  0  0  0  0  0  0  0  0  0
    2.0457   -2.8280   -1.9539 C   0  0  0  0  0  0  0  0  0  0  0  0
    2.4094   -3.9114   -1.5340 O   0  0  0  0  0  0  0  0  0  0  0  0
   -0.0749    3.0448   -1.7109 C   0  0  0  0  0  0  0  0  0  0  0  0
   -0.3932    3.8554   -0.6232 C   0  0  0  0  0  0  0  0  0  0  0  0
   -1.2232    3.3364    0.3477 C   0  0  0  0  0  0  0  0  0  0  0  0
   -1.7716    2.1045    0.2729 N   0  0  0  0  0  0  0  0  0  0  0  0
    0.2328    0.1477    1.6243 H   0  0  0  0  0  0  0  0  0  0  0  0
    0.7039    0.8089    0.0790 H   0  0  0  0  0  0  0  0  0  0  0  0
    1.7677   -0.2662    0.8812 H   0  0  0  0  0  0  0  0  0  0  0  0
    0.4007   -1.4145   -1.0119 H   0  0  0  0  0  0  0  0  0  0  0  0
    0.1859   -2.5574    1.7475 H   0  0  0  0  0  0  0  0  0  0  0  0
    0.2040   -3.4575    0.1992 H   0  0  0  0  0  0  0  0  0  0  0  0
    1.6232   -2.5880    0.7478 H   0  0  0  0  0  0  0  0  0  0  0  0
   -4.0914   -2.5663   -0.6711 H   0  0  0  0  0  0  0  0  0  0  0  0
   -4.2135    0.1991   -0.7031 H   0  0  0  0  0  0  0  0  0  0  0  0
   -0.9128    0.3961   -3.3950 H   0  0  0  0  0  0  0  0  0  0  0  0
    0.4068    1.4781   -3.7184 H   0  0  0  0  0  0  0  0  0  0  0  0
    2.2129    1.9050   -1.8254 H   0  0  0  0  0  0  0  0  0  0  0  0
    3.9463    1.8840   -0.1373 H   0  0  0  0  0  0  0  0  0  0  0  0
    4.8563   -0.2284    0.7220 H   0  0  0  0  0  0  0  0  0  0  0  0
    4.6620   -2.4311    0.7670 H   0  0  0  0  0  0  0  0  0  0  0  0
    1.0997   -2.7866   -2.5266 H   0  0  0  0  0  0  0  0  0  0  0  0
    0.5810    3.4501   -2.4793 H   0  0  0  0  0  0  0  0  0  0  0  0
    0.0120    4.8582   -0.5297 H   0  0  0  0  0  0  0  0  0  0  0  0
   -1.4729    3.9112    1.2368 H   0  0  0  0  0  0  0  0  0  0  0  0
  1  2  1  0  0  0  0
  1 26  1  0  0  0  0
  1 27  1  0  0  0  0
  1 28  1  0  0  0  0
  2  3  1  0  0  0  0
  2  4  1  0  0  0  0
  2 29  1  0  0  0  0
  3 30  1  0  0  0  0
  3 31  1  0  0  0  0
  3 32  1  0  0  0  0
  4  5  1  0  0  0  0
  4  8  1  0  0  0  0
  5  6  2  0  0  0  0
  6  7  1  0  0  0  0
  6 33  1  0  0  0  0
  7  8  2  0  0  0  0
  7 34  1  0  0  0  0
  8  9  1  0  0  0  0
  9 10  2  0  0  0  0
  9 25  1  0  0  0  0
 10 11  1  0  0  0  0
 10 22  1  0  0  0  0
 11 12  1  0  0  0  0
 11 35  1  0  0  0  0
 11 36  1  0  0  0  0
 12 13  1  0  0  0  0
 13 14  2  0  0  0  0
 13 19  1  0  0  0  0
 14 15  1  0  0  0  0
 14 37  1  0  0  0  0
 15 16  2  0  0  0  0
 15 38  1  0  0  0  0
 16 17  1  0  0  0  0
 16 39  1  0  0  0  0
 17 18  1  0  0  0  0
 17 19  2  0  0  0  0
 18 40  1  0  0  0  0
 19 20  1  0  0  0  0
 20 21  2  0  0  0  0
 20 41  1  0  0  0  0
 22 23  2  0  0  0  0
 22 42  1  0  0  0  0
 23 24  1  0  0  0  0
 23 43  1  0  0  0  0
 24 25  2  0  0  0  0
 24 44  1  0  0  0  0
M  END
>  <DRUGBANK_ID>
DB14975

>  <COMMON_NAME>
Voxelotor

>  <CAS_NUMBER>
1446321-46-5

>  <UNII>
3ZO554A4Q8

>  <SYNONYMS>
Voxelotor; Vox√©lotor; Voxelotorum

$$$$
