
 OpenBabel10282417173D

 54 56  0  0  0  0  0  0  0  0999 V2000
    3.2895   -0.7917   -4.5268 C   0  0  0  0  0  0  0  0  0  0  0  0
    3.6483   -2.1044   -4.6288 N   0  0  0  0  0  0  0  0  0  0  0  0
    3.1542   -3.0279   -3.6653 C   0  0  0  0  0  0  0  0  0  0  0  0
    2.3914   -2.5891   -2.5643 C   0  0  0  0  0  0  0  0  0  0  0  0
    1.9264   -1.3107   -2.6507 O   0  0  0  0  0  0  0  0  0  0  0  0
    2.9660   -0.4985   -3.1380 C   0  0  0  0  0  0  0  0  0  0  0  0
    3.2482   -4.3743   -3.8639 C   0  0  0  0  0  0  0  0  0  0  0  0
    2.6255   -5.2286   -2.9512 C   0  0  0  0  0  0  0  0  0  0  0  0
    2.0087   -4.7788   -1.7728 C   0  0  0  0  0  0  0  0  0  0  0  0
    1.9094   -3.4125   -1.5287 C   0  0  0  0  0  0  0  0  0  0  0  0
    3.3018    0.0725   -5.4116 O   0  0  0  0  0  0  0  0  0  0  0  0
    2.6052   -6.5493   -3.2873 O   0  0  0  0  0  0  0  0  0  0  0  0
    1.2828   -2.9192   -0.2252 C   0  0  2  0  0  0  0  0  0  0  0  0
    1.2338   -1.3832    0.0322 C   0  0  0  0  0  0  0  0  0  0  0  0
    1.9638   -3.5357    0.8843 O   0  0  0  0  0  0  0  0  0  0  0  0
    2.4499   -0.6797   -0.3924 N   0  0  0  0  0  0  0  0  0  0  0  0
    2.4931    0.7829   -0.5629 C   0  0  0  0  0  0  0  0  0  0  0  0
    2.6589    1.2367    0.8991 C   0  0  0  0  0  0  0  0  0  0  0  0
    3.9167    0.6360    1.5273 C   0  0  0  0  0  0  0  0  0  0  0  0
    3.7446    1.4121   -1.3586 C   0  0  0  0  0  0  0  0  0  0  0  0
    1.1717    1.3081   -1.1970 C   0  0  0  0  0  0  0  0  0  0  0  0
    3.8494   -0.3933    2.4667 C   0  0  0  0  0  0  0  0  0  0  0  0
    5.0289   -0.8576    3.0555 C   0  0  0  0  0  0  0  0  0  0  0  0
    6.2746   -0.4699    2.5549 C   0  0  0  0  0  0  0  0  0  0  0  0
    6.3292    0.3463    1.4437 C   0  0  0  0  0  0  0  0  0  0  0  0
    5.1837    1.0109    1.0639 C   0  0  0  0  0  0  0  0  0  0  0  0
    7.3824   -0.8873    3.2374 O   0  0  0  0  0  0  0  0  0  0  0  0
    8.6172   -0.3606    2.7489 C   0  0  0  0  0  0  0  0  0  0  0  0
    4.1270   -2.3806   -5.4681 H   0  0  0  0  0  0  0  0  0  0  0  0
    3.9123   -0.6244   -2.5671 H   0  0  0  0  0  0  0  0  0  0  0  0
    2.5908    0.5108   -3.1588 H   0  0  0  0  0  0  0  0  0  0  0  0
    3.6864   -4.7501   -4.7765 H   0  0  0  0  0  0  0  0  0  0  0  0
    1.5575   -5.4723   -1.0658 H   0  0  0  0  0  0  0  0  0  0  0  0
    2.1115   -7.0271   -2.6022 H   0  0  0  0  0  0  0  0  0  0  0  0
    0.2492   -3.2904   -0.1774 H   0  0  0  0  0  0  0  0  0  0  0  0
    0.3565   -1.0250   -0.5129 H   0  0  0  0  0  0  0  0  0  0  0  0
    1.0445   -1.2080    1.1007 H   0  0  0  0  0  0  0  0  0  0  0  0
    2.8108   -3.0670    0.9837 H   0  0  0  0  0  0  0  0  0  0  0  0
    3.3225   -1.1958   -0.3505 H   0  0  0  0  0  0  0  0  0  0  0  0
    2.6975    2.3271    0.9372 H   0  0  0  0  0  0  0  0  0  0  0  0
    1.7739    0.9338    1.4722 H   0  0  0  0  0  0  0  0  0  0  0  0
    3.8307    1.5032   -2.4457 H   0  0  0  0  0  0  0  0  0  0  0  0
    3.8677    2.4648   -1.0882 H   0  0  0  0  0  0  0  0  0  0  0  0
    4.6432    0.8120   -1.1766 H   0  0  0  0  0  0  0  0  0  0  0  0
    0.9695    0.9365   -2.2106 H   0  0  0  0  0  0  0  0  0  0  0  0
    0.2858    1.0199   -0.6246 H   0  0  0  0  0  0  0  0  0  0  0  0
    1.1754    2.3957   -1.2683 H   0  0  0  0  0  0  0  0  0  0  0  0
    2.8936   -0.8210    2.7603 H   0  0  0  0  0  0  0  0  0  0  0  0
    4.9721   -1.5138    3.9178 H   0  0  0  0  0  0  0  0  0  0  0  0
    7.2408    0.5583    0.8966 H   0  0  0  0  0  0  0  0  0  0  0  0
    5.3216    1.7996    0.3351 H   0  0  0  0  0  0  0  0  0  0  0  0
    8.8436   -0.8007    1.7716 H   0  0  0  0  0  0  0  0  0  0  0  0
    8.6141    0.7373    2.6864 H   0  0  0  0  0  0  0  0  0  0  0  0
    9.4085   -0.6453    3.4434 H   0  0  0  0  0  0  0  0  0  0  0  0
  1  2  1  0  0  0  0
  1  6  1  0  0  0  0
  1 11  2  0  0  0  0
  2  3  1  0  0  0  0
  2 29  1  0  0  0  0
  3  4  1  0  0  0  0
  3  7  2  0  0  0  0
  4  5  1  0  0  0  0
  4 10  2  0  0  0  0
  5  6  1  0  0  0  0
  6 30  1  0  0  0  0
  6 31  1  0  0  0  0
  7  8  1  0  0  0  0
  7 32  1  0  0  0  0
  8  9  2  0  0  0  0
  8 12  1  0  0  0  0
  9 10  1  0  0  0  0
  9 33  1  0  0  0  0
 12 34  1  0  0  0  0
 13 15  1  0  0  0  0
 13 35  1  1  0  0  0
 13 14  1  0  0  0  0
 13 10  1  0  0  0  0
 14 16  1  0  0  0  0
 14 36  1  0  0  0  0
 14 37  1  0  0  0  0
 15 38  1  0  0  0  0
 16 17  1  0  0  0  0
 16 39  1  0  0  0  0
 17 18  1  0  0  0  0
 17 20  1  0  0  0  0
 17 21  1  0  0  0  0
 18 19  1  0  0  0  0
 18 40  1  0  0  0  0
 18 41  1  0  0  0  0
 19 22  2  0  0  0  0
 19 26  1  0  0  0  0
 20 42  1  0  0  0  0
 20 43  1  0  0  0  0
 20 44  1  0  0  0  0
 21 45  1  0  0  0  0
 21 46  1  0  0  0  0
 21 47  1  0  0  0  0
 22 23  1  0  0  0  0
 22 48  1  0  0  0  0
 23 24  2  0  0  0  0
 23 49  1  0  0  0  0
 24 25  1  0  0  0  0
 24 27  1  0  0  0  0
 25 26  2  0  0  0  0
 25 50  1  0  0  0  0
 26 51  1  0  0  0  0
 27 28  1  0  0  0  0
 28 52  1  0  0  0  0
 28 53  1  0  0  0  0
 28 54  1  0  0  0  0
M  END
>  <DRUGBANK_ID>
DB09080

>  <COMMON_NAME>
Olodaterol

>  <CAS_NUMBER>
868049-49-4

>  <UNII>
VD2YSN1AFD

>  <SYNONYMS>
Olodaterol

$$$$
