
 OpenBabel10282417123D

 14 13  0  0  1  0  0  0  0  0999 V2000
    1.0779   -1.8132   -1.5202 C   0  0  0  0  0  0  0  0  0  0  0  0
    0.4191   -0.4570   -1.3301 C   0  0  2  0  0  0  0  0  0  0  0  0
    0.9322    0.0872   -0.1219 O   0  0  0  0  0  0  0  0  0  0  0  0
   -1.1180   -0.5328   -1.3397 C   0  0  0  0  0  0  0  0  0  0  0  0
   -1.8436    0.2720   -2.3925 C   0  0  0  0  0  0  0  0  0  0  0  0
   -1.7610   -1.1733   -0.5029 O   0  0  0  0  0  0  0  0  0  0  0  0
    2.1622   -1.6669   -1.5940 H   0  0  0  0  0  0  0  0  0  0  0  0
    0.7363   -2.3278   -2.4229 H   0  0  0  0  0  0  0  0  0  0  0  0
    0.9137   -2.4687   -0.6575 H   0  0  0  0  0  0  0  0  0  0  0  0
    0.7438    0.1930   -2.1481 H   0  0  0  0  0  0  0  0  0  0  0  0
    0.7812    1.0456   -0.1325 H   0  0  0  0  0  0  0  0  0  0  0  0
   -2.4734   -0.3923   -2.9897 H   0  0  0  0  0  0  0  0  0  0  0  0
   -2.4587    1.0343   -1.9056 H   0  0  0  0  0  0  0  0  0  0  0  0
   -1.1412    0.7755   -3.0609 H   0  0  0  0  0  0  0  0  0  0  0  0
  1  7  1  0  0  0  0
  1  8  1  0  0  0  0
  1  9  1  0  0  0  0
  2  4  1  0  0  0  0
  2 10  1  6  0  0  0
  2  3  1  0  0  0  0
  2  1  1  0  0  0  0
  3 11  1  0  0  0  0
  4  5  1  0  0  0  0
  4  6  2  0  0  0  0
  5 12  1  0  0  0  0
  5 13  1  0  0  0  0
  5 14  1  0  0  0  0
M  END
>  <DRUGBANK_ID>
DB02788

>  <SECONDARY_ACCESSION_NUMBERS>
EXPT01702

>  <COMMON_NAME>
(S)-acetoin

>  <SYNONYMS>
(S)-2-acetoin

$$$$
