
 OpenBabel10282417123D

 56 57  0  0  0  0  0  0  0  0999 V2000
   -0.8576    3.7186   -3.9823 C   0  0  0  0  0  0  0  0  0  0  0  0
   -1.9874    4.2016   -4.8712 C   0  0  0  0  0  0  0  0  0  0  0  0
   -1.6803    5.0287   -5.9137 N   0  0  0  0  0  0  0  0  0  0  0  0
   -3.1517    3.8692   -4.6389 O   0  0  0  0  0  0  0  0  0  0  0  0
   -2.7436    5.4709   -6.7262 O   0  0  0  0  0  0  0  0  0  0  0  0
    0.5679    4.0127   -4.4467 C   0  0  2  0  0  0  0  0  0  0  0  0
    1.6001    3.0537   -3.8502 C   0  0  0  0  0  0  0  0  0  0  0  0
    0.9649    5.4820   -4.1934 C   0  0  0  0  0  0  0  0  0  0  0  0
    2.2949    5.8769   -4.8634 C   0  0  0  0  0  0  0  0  0  0  0  0
    2.2669    5.6498   -6.3779 C   0  0  0  0  0  0  0  0  0  0  0  0
    2.6205    7.3387   -4.5699 C   0  0  0  0  0  0  0  0  0  0  0  0
    1.3156    2.5373   -2.6149 N   0  0  0  0  0  0  0  0  0  0  0  0
    2.6617    2.8393   -4.4415 O   0  0  0  0  0  0  0  0  0  0  0  0
    2.0884    1.4559   -1.9665 C   0  0  2  0  0  0  0  0  0  0  0  0
    1.3920    1.2584   -0.5866 C   0  0  0  0  0  0  0  0  0  0  0  0
    3.6008    1.7551   -1.8960 C   0  0  0  0  0  0  0  0  0  0  0  0
    4.4251    0.7576   -1.1414 C   0  0  0  0  0  0  0  0  0  0  0  0
    4.4302    0.6056    0.2740 C   0  0  0  0  0  0  0  0  0  0  0  0
    5.2812   -0.4389    0.6055 C   0  0  0  0  0  0  0  0  0  0  0  0
    5.8643   -0.8514   -0.5708 N   0  0  0  0  0  0  0  0  0  0  0  0
    5.3214   -0.1708   -1.6362 C   0  0  0  0  0  0  0  0  0  0  0  0
    3.7480    1.2618    1.3077 C   0  0  0  0  0  0  0  0  0  0  0  0
    3.7598    0.7634    2.6005 C   0  0  0  0  0  0  0  0  0  0  0  0
    4.6145   -0.2800    2.9122 C   0  0  0  0  0  0  0  0  0  0  0  0
    5.4304   -0.8704    1.9321 C   0  0  0  0  0  0  0  0  0  0  0  0
    1.0126    2.4240    0.0805 N   0  0  0  0  0  0  0  0  0  0  0  0
    1.2501    0.1458   -0.0840 O   0  0  0  0  0  0  0  0  0  0  0  0
    0.6098    2.4010    1.4794 C   0  0  0  0  0  0  0  0  0  0  0  0
   -0.9841    2.6284   -3.9355 H   0  0  0  0  0  0  0  0  0  0  0  0
   -1.0208    4.1165   -2.9730 H   0  0  0  0  0  0  0  0  0  0  0  0
   -0.7570    5.3327   -6.1964 H   0  0  0  0  0  0  0  0  0  0  0  0
   -3.5195    5.0264   -6.3222 H   0  0  0  0  0  0  0  0  0  0  0  0
    0.5813    3.7911   -5.5186 H   0  0  0  0  0  0  0  0  0  0  0  0
    0.1877    6.1616   -4.5634 H   0  0  0  0  0  0  0  0  0  0  0  0
    1.0219    5.6716   -3.1138 H   0  0  0  0  0  0  0  0  0  0  0  0
    3.1030    5.2778   -4.4310 H   0  0  0  0  0  0  0  0  0  0  0  0
    1.4869    6.2560   -6.8511 H   0  0  0  0  0  0  0  0  0  0  0  0
    3.2291    5.9114   -6.8268 H   0  0  0  0  0  0  0  0  0  0  0  0
    2.0811    4.6042   -6.6376 H   0  0  0  0  0  0  0  0  0  0  0  0
    2.6635    7.5169   -3.4907 H   0  0  0  0  0  0  0  0  0  0  0  0
    3.5946    7.6022   -4.9945 H   0  0  0  0  0  0  0  0  0  0  0  0
    1.8671    8.0071   -4.9994 H   0  0  0  0  0  0  0  0  0  0  0  0
    0.3571    2.5771   -2.2949 H   0  0  0  0  0  0  0  0  0  0  0  0
    1.9135    0.5373   -2.5416 H   0  0  0  0  0  0  0  0  0  0  0  0
    4.0169    1.8061   -2.9089 H   0  0  0  0  0  0  0  0  0  0  0  0
    3.7599    2.7478   -1.4569 H   0  0  0  0  0  0  0  0  0  0  0  0
    6.5716   -1.5693   -0.6408 H   0  0  0  0  0  0  0  0  0  0  0  0
    5.6306   -0.3985   -2.6494 H   0  0  0  0  0  0  0  0  0  0  0  0
    3.1485    2.1233    1.0755 H   0  0  0  0  0  0  0  0  0  0  0  0
    3.0985    1.1997    3.3431 H   0  0  0  0  0  0  0  0  0  0  0  0
    4.6539   -0.6286    3.9398 H   0  0  0  0  0  0  0  0  0  0  0  0
    6.1231   -1.6582    2.2005 H   0  0  0  0  0  0  0  0  0  0  0  0
    1.2588    3.3172   -0.3300 H   0  0  0  0  0  0  0  0  0  0  0  0
    1.2915    3.0400    2.0537 H   0  0  0  0  0  0  0  0  0  0  0  0
   -0.3996    2.8029    1.5709 H   0  0  0  0  0  0  0  0  0  0  0  0
    0.6500    1.3916    1.8984 H   0  0  0  0  0  0  0  0  0  0  0  0
  1  2  1  0  0  0  0
  1 29  1  0  0  0  0
  1 30  1  0  0  0  0
  2  3  1  0  0  0  0
  2  4  2  0  0  0  0
  3  5  1  0  0  0  0
  3 31  1  0  0  0  0
  5 32  1  0  0  0  0
  6  8  1  0  0  0  0
  6 33  1  6  0  0  0
  6  7  1  0  0  0  0
  6  1  1  0  0  0  0
  7 12  1  0  0  0  0
  7 13  2  0  0  0  0
  8  9  1  0  0  0  0
  8 34  1  0  0  0  0
  8 35  1  0  0  0  0
  9 10  1  0  0  0  0
  9 11  1  0  0  0  0
  9 36  1  0  0  0  0
 10 37  1  0  0  0  0
 10 38  1  0  0  0  0
 10 39  1  0  0  0  0
 11 40  1  0  0  0  0
 11 41  1  0  0  0  0
 11 42  1  0  0  0  0
 12 43  1  0  0  0  0
 14 16  1  0  0  0  0
 14 44  1  6  0  0  0
 14 15  1  0  0  0  0
 14 12  1  0  0  0  0
 15 26  1  0  0  0  0
 15 27  2  0  0  0  0
 16 17  1  0  0  0  0
 16 45  1  0  0  0  0
 16 46  1  0  0  0  0
 17 18  1  0  0  0  0
 17 21  2  0  0  0  0
 18 19  1  0  0  0  0
 18 22  2  0  0  0  0
 19 20  1  0  0  0  0
 19 25  2  0  0  0  0
 20 21  1  0  0  0  0
 20 47  1  0  0  0  0
 21 48  1  0  0  0  0
 22 23  1  0  0  0  0
 22 49  1  0  0  0  0
 23 24  2  0  0  0  0
 23 50  1  0  0  0  0
 24 25  1  0  0  0  0
 24 51  1  0  0  0  0
 25 52  1  0  0  0  0
 26 28  1  0  0  0  0
 26 53  1  0  0  0  0
 28 54  1  0  0  0  0
 28 55  1  0  0  0  0
 28 56  1  0  0  0  0
M  END
>  <DRUGBANK_ID>
DB02255

>  <SECONDARY_ACCESSION_NUMBERS>
EXPT01618

>  <COMMON_NAME>
Ilomastat

>  <CAS_NUMBER>
142880-36-2

>  <UNII>
I0403ML141

>  <SYNONYMS>
(R)-N(SUP 1)-HYDROXY-N-((S)-2-INDOL-3-YL-1-(METHYLCARBAMOYL)ETHYL)-2-ISOBUTYLSUCCINAMIDE; (S-(R*,S*))-N(SUP 4)-HYDROXY-N(SUP 1)-(1H-INDOL-3-YLMETHYL)-2-(METHYLAMINO)-2-OXOETHYL)-2-(2-METHYLOPROPYL)BUTANEDIAMIDE; Ilomastat

$$$$
