
 OpenBabel10282417203D

 52 56  0  0  1  0  0  0  0  0999 V2000
    1.0113    0.0831   -0.2268 C   0  0  0  0  0  0  0  0  0  0  0  0
    2.7437    5.5451    3.4968 C   0  0  0  0  0  0  0  0  0  0  0  0
    0.4740   -0.5717    0.9848 C   0  0  0  0  0  0  0  0  0  0  0  0
    4.8005    2.8776    7.4959 C   0  0  0  0  0  0  0  0  0  0  0  0
    3.7615    3.7454    7.1756 C   0  0  0  0  0  0  0  0  0  0  0  0
    2.0936   -2.3400    1.9031 C   0  0  0  0  0  0  0  0  0  0  0  0
    4.9221    1.6485    6.8610 C   0  0  0  0  0  0  0  0  0  0  0  0
    2.7910    3.3981    6.2371 C   0  0  0  0  0  0  0  0  0  0  0  0
    4.6968   -1.0581    4.9228 C   0  0  0  0  0  0  0  0  0  0  0  0
    0.8121   -1.3803    2.8945 C   0  0  0  0  0  0  0  0  0  0  0  0
    2.2903   -3.1569    3.0446 C   0  0  0  0  0  0  0  0  0  0  0  0
    3.7434   -2.2174    4.7381 C   0  0  0  0  0  0  0  0  0  0  0  0
    0.7968    1.3818    2.4634 C   0  0  0  0  0  0  0  0  0  0  0  0
    4.0142    1.3232    5.8525 C   0  0  0  0  0  0  0  0  0  0  0  0
    3.9273    0.2193    5.0066 C   0  0  0  0  0  0  0  0  0  0  0  0
    2.9570    2.1949    5.5393 C   0  0  0  0  0  0  0  0  0  0  0  0
    2.9293    0.5055    4.1162 C   0  0  0  0  0  0  0  0  0  0  0  0
    2.6623   -0.3711    2.9750 C   0  0  2  0  0  0  0  0  0  0  0  0
    1.2561    3.6580    3.3160 C   0  0  0  0  0  0  0  0  0  0  0  0
    1.1799   -0.1065    2.3055 C   0  0  2  0  0  0  0  0  0  0  0  0
    1.0767    2.1647    3.7656 C   0  0  2  0  0  0  0  0  0  0  0  0
    2.9198   -1.9533    3.6047 N   0  0  3  0  0  0  0  0  0  0  0  0
    2.2670    1.6449    4.4671 N   0  0  0  0  0  0  0  0  0  0  0  0
    0.3585    4.3217    2.7207 O   0  0  0  0  0  0  0  0  0  0  0  0
   -0.0548    1.9819    4.6268 O   0  0  0  0  0  0  0  0  0  0  0  0
    2.4747    4.1475    3.5896 O   0  0  0  0  0  0  0  0  0  0  0  0
    3.4231   -0.1107    2.2195 H   0  0  0  0  0  0  0  0  0  0  0  0
    0.6519    1.1078   -0.2647 H   0  0  0  0  0  0  0  0  0  0  0  0
    0.6563   -0.4699   -1.0969 H   0  0  0  0  0  0  0  0  0  0  0  0
    2.1003    0.0474   -0.1826 H   0  0  0  0  0  0  0  0  0  0  0  0
    2.9769    5.7823    2.4605 H   0  0  0  0  0  0  0  0  0  0  0  0
    1.9250    6.1585    3.8869 H   0  0  0  0  0  0  0  0  0  0  0  0
    3.6293    5.7382    4.1129 H   0  0  0  0  0  0  0  0  0  0  0  0
   -0.6192   -0.4451    1.1034 H   0  0  0  0  0  0  0  0  0  0  0  0
    0.4873   -1.6497    0.7679 H   0  0  0  0  0  0  0  0  0  0  0  0
    5.5285    3.1507    8.2495 H   0  0  0  0  0  0  0  0  0  0  0  0
    3.6983    4.7141    7.6598 H   0  0  0  0  0  0  0  0  0  0  0  0
    1.9234   -2.9495    1.0204 H   0  0  0  0  0  0  0  0  0  0  0  0
    3.0582   -1.8376    1.5589 H   0  0  0  0  0  0  0  0  0  0  0  0
    5.7251    0.9596    7.0973 H   0  0  0  0  0  0  0  0  0  0  0  0
    1.9866    4.0878    6.0081 H   0  0  0  0  0  0  0  0  0  0  0  0
    5.3035   -1.2538    5.8026 H   0  0  0  0  0  0  0  0  0  0  0  0
    5.3469   -1.0307    4.0366 H   0  0  0  0  0  0  0  0  0  0  0  0
   -0.1392   -1.9066    2.9322 H   0  0  0  0  0  0  0  0  0  0  0  0
    0.9505   -1.2123    3.9969 H   0  0  0  0  0  0  0  0  0  0  0  0
    2.8895   -4.0577    2.9614 H   0  0  0  0  0  0  0  0  0  0  0  0
    1.2342   -3.5144    3.0363 H   0  0  0  0  0  0  0  0  0  0  0  0
    3.1084   -2.4075    5.6122 H   0  0  0  0  0  0  0  0  0  0  0  0
    4.2984   -3.1430    4.5353 H   0  0  0  0  0  0  0  0  0  0  0  0
   -0.2421    1.5644    2.1436 H   0  0  0  0  0  0  0  0  0  0  0  0
    1.4093    1.8889    1.6967 H   0  0  0  0  0  0  0  0  0  0  0  0
   -0.8337    2.3494    4.1711 H   0  0  0  0  0  0  0  0  0  0  0  0
  1 28  1  0  0  0  0
  1 29  1  0  0  0  0
  1 30  1  0  0  0  0
  2 31  1  0  0  0  0
  2 32  1  0  0  0  0
  2 33  1  0  0  0  0
  3  1  1  0  0  0  0
  3 34  1  0  0  0  0
  3 35  1  0  0  0  0
  4 36  1  0  0  0  0
  5  4  2  0  0  0  0
  5 37  1  0  0  0  0
  6 38  1  0  0  0  0
  6 39  1  0  0  0  0
  7  4  1  0  0  0  0
  7 40  1  0  0  0  0
  8  5  1  0  0  0  0
  8 41  1  0  0  0  0
  9 42  1  0  0  0  0
  9 43  1  0  0  0  0
 10  6  1  0  0  0  0
 10 44  1  0  0  0  0
 10 45  1  0  0  0  0
 11  6  1  0  0  0  0
 11 46  1  0  0  0  0
 11 47  1  0  0  0  0
 12  9  1  0  0  0  0
 12 48  1  0  0  0  0
 12 49  1  0  0  0  0
 13 50  1  0  0  0  0
 13 51  1  0  0  0  0
 14  7  2  0  0  0  0
 15  9  1  0  0  0  0
 15 14  1  0  0  0  0
 16  8  2  0  0  0  0
 16 14  1  0  0  0  0
 17 15  2  0  0  0  0
 18 17  1  0  0  0  0
 18 27  1  6  0  0  0
 20  3  1  6  0  0  0
 20 10  1  0  0  0  0
 20 13  1  0  0  0  0
 20 18  1  0  0  0  0
 21 13  1  0  0  0  0
 21 25  1  1  0  0  0
 21 19  1  0  0  0  0
 22 11  1  0  0  0  0
 22 12  1  0  0  0  0
 22 18  1  0  0  0  0
 23 16  1  0  0  0  0
 23 17  1  0  0  0  0
 23 21  1  0  0  0  0
 24 19  2  0  0  0  0
 25 52  1  0  0  0  0
 26  2  1  0  0  0  0
 26 19  1  0  0  0  0
M  END
>  <DRUGBANK_ID>
DB13374

>  <COMMON_NAME>
Vincamine

>  <CAS_NUMBER>
1617-90-9

>  <UNII>
996XVD0JHT

>  <SYNONYMS>
Vincamina; Vincamine

$$$$
