
 OpenBabel10282417133D

 25 24  0  0  1  0  0  0  0  0999 V2000
    1.5379    2.9615   -1.4586 O   0  0  0  0  0  0  0  0  0  0  0  0
    2.8495    2.7293   -0.9982 C   0  0  0  0  0  0  0  0  0  0  0  0
    3.1451    1.6821    0.1051 C   0  0  0  0  0  0  0  0  0  0  0  0
    3.7547    0.6390   -0.1667 O   0  0  0  0  0  0  0  0  0  0  0  0
    2.7605    1.9783    1.5624 C   0  0  1  0  0  0  0  0  0  0  0  0
    3.3486    3.2097    1.9731 O   0  0  0  0  0  0  0  0  0  0  0  0
    1.2488    2.0172    1.7734 C   0  0  2  0  0  0  0  0  0  0  0  0
    0.6370    2.7211    0.6995 O   0  0  0  0  0  0  0  0  0  0  0  0
    0.8357    2.7228    3.0714 C   0  0  0  0  0  0  0  0  0  0  0  0
   -0.5838    2.8749    3.1098 O   0  0  0  0  0  0  0  0  0  0  0  0
   -1.1702    3.8309    1.7926 P   0  0  0  0  0  0  0  0  0  0  0  0
   -2.1418    2.5473    1.4922 O   0  0  0  0  0  0  0  0  0  0  0  0
   -2.1064    4.5429    2.9293 O   0  0  0  0  0  0  0  0  0  0  0  0
   -1.6950    4.6865    0.6137 O   0  0  0  0  0  0  0  0  0  0  0  0
    0.9909    2.1820   -1.2401 H   0  0  0  0  0  0  0  0  0  0  0  0
    3.4178    2.4345   -1.8817 H   0  0  0  0  0  0  0  0  0  0  0  0
    3.2502    3.6922   -0.6643 H   0  0  0  0  0  0  0  0  0  0  0  0
    3.1660    1.1878    2.2054 H   0  0  0  0  0  0  0  0  0  0  0  0
    4.3108    3.0549    2.0457 H   0  0  0  0  0  0  0  0  0  0  0  0
    0.8175    1.0109    1.7373 H   0  0  0  0  0  0  0  0  0  0  0  0
    1.0703    3.5997    0.5972 H   0  0  0  0  0  0  0  0  0  0  0  0
    1.1537    2.1525    3.9492 H   0  0  0  0  0  0  0  0  0  0  0  0
    1.2548    3.7320    3.1426 H   0  0  0  0  0  0  0  0  0  0  0  0
   -1.7652    2.0690    0.7341 H   0  0  0  0  0  0  0  0  0  0  0  0
   -1.6650    4.5124    3.7933 H   0  0  0  0  0  0  0  0  0  0  0  0
  1  2  1  0  0  0  0
  1 15  1  0  0  0  0
  2  3  1  0  0  0  0
  2 16  1  0  0  0  0
  2 17  1  0  0  0  0
  3  4  2  0  0  0  0
  3  5  1  0  0  0  0
  5  6  1  0  0  0  0
  5 18  1  1  0  0  0
  6 19  1  0  0  0  0
  7  9  1  0  0  0  0
  7 20  1  1  0  0  0
  7  8  1  0  0  0  0
  7  5  1  0  0  0  0
  8 21  1  0  0  0  0
  9 10  1  0  0  0  0
  9 22  1  0  0  0  0
  9 23  1  0  0  0  0
 10 11  1  0  0  0  0
 11 12  1  0  0  0  0
 11 13  1  0  0  0  0
 11 14  2  0  0  0  0
 12 24  1  0  0  0  0
 13 25  1  0  0  0  0
M  END
>  <DRUGBANK_ID>
DB04034

>  <SECONDARY_ACCESSION_NUMBERS>
EXPT00260

>  <COMMON_NAME>
Ribulose-5-Phosphate

>  <UNII>
6MF87847MR

$$$$
