[NO NAME]
 OpenBabel10282417213D

 65 68  0  0  1  0  0  0  0  0999 V2000
    1.5385    0.3464   -0.8352 C   0  0  1  0  0  0  0  0  0  0  0  0
    2.1246   -1.0735   -0.7654 C   0  0  0  0  0  0  0  0  0  0  0  0
   -0.1804   -2.1143   -0.5205 C   0  0  0  0  0  0  0  0  0  0  0  0
    1.1979   -2.1899   -1.1939 C   0  0  0  0  0  0  0  0  0  0  0  0
    0.2296    0.3603    0.0690 C   0  0  2  0  0  0  0  0  0  0  0  0
   -0.7911   -0.6921   -0.4958 C   0  0  2  0  0  0  0  0  0  0  0  0
   -4.5223   -1.0026    0.4392 C   0  0  2  0  0  0  0  0  0  0  0  0
   -3.2434   -1.5494   -0.2443 C   0  0  0  0  0  0  0  0  0  0  0  0
   -5.7280   -1.1059   -0.4925 C   0  0  0  0  0  0  0  0  0  0  0  0
   -0.4165    1.7688    0.3065 C   0  0  1  0  0  0  0  0  0  0  0  0
   -0.4461    2.6217   -0.8342 O   0  0  0  0  0  0  0  0  0  0  0  0
    2.5346    1.3991   -0.3756 C   0  0  0  0  0  0  0  0  0  0  0  0
    3.3514   -1.3308   -0.2751 C   0  0  0  0  0  0  0  0  0  0  0  0
    3.7545    1.1366    0.1074 C   0  0  0  0  0  0  0  0  0  0  0  0
    4.2261   -0.2539    0.2420 C   0  0  0  0  0  0  0  0  0  0  0  0
    5.3071   -0.5073    0.7665 O   0  0  0  0  0  0  0  0  0  0  0  0
    0.7057   -0.1830    1.7971 Cl  0  0  0  0  0  0  0  0  0  0  0  0
   -1.0150   -0.4411   -1.5376 H   0  0  0  0  0  0  0  0  0  0  0  0
   -2.7967    0.7443    0.2811 C   0  0  1  0  0  0  0  0  0  0  0  0
   -3.1101    1.2474   -1.1585 C   0  0  0  0  0  0  0  0  0  0  0  0
   -2.1261   -0.6527    0.2732 C   0  0  2  0  0  0  0  0  0  0  0  0
    1.3004    0.6418   -2.3416 C   0  0  0  0  0  0  0  0  0  0  0  0
   -1.8217    1.7240    0.9692 C   0  0  0  0  0  0  0  0  0  0  0  0
   -1.9216   -0.9660    1.3069 H   0  0  0  0  0  0  0  0  0  0  0  0
   -5.6907    2.4484    1.9520 C   0  0  0  0  0  0  0  0  0  0  0  0
   -5.2096    1.5854    0.7761 C   0  0  0  0  0  0  0  0  0  0  0  0
   -5.6768    1.8063   -0.3456 O   0  0  0  0  0  0  0  0  0  0  0  0
   -5.4494    3.8250    1.8121 O   0  0  0  0  0  0  0  0  0  0  0  0
   -6.8433   -1.6816    3.1926 C   0  0  0  0  0  0  0  0  0  0  0  0
   -4.1741    0.4293    1.0265 C   0  0  1  0  0  0  0  0  0  0  0  0
   -3.9410    0.2330    2.4545 O   0  0  0  0  0  0  0  0  0  0  0  0
   -4.9025   -0.0974    3.3687 C   0  0  0  0  0  0  0  0  0  0  0  0
   -4.6297   -0.1268    4.5697 O   0  0  0  0  0  0  0  0  0  0  0  0
   -6.3308   -0.3001    2.8990 C   0  0  0  0  0  0  0  0  0  0  0  0
   -0.0977   -2.5012    0.5020 H   0  0  0  0  0  0  0  0  0  0  0  0
   -0.8575   -2.7998   -1.0442 H   0  0  0  0  0  0  0  0  0  0  0  0
    1.6372   -3.1703   -0.9723 H   0  0  0  0  0  0  0  0  0  0  0  0
    1.0737   -2.1573   -2.2826 H   0  0  0  0  0  0  0  0  0  0  0  0
   -4.7015   -1.6906    1.2724 H   0  0  0  0  0  0  0  0  0  0  0  0
   -3.0758   -2.5985    0.0237 H   0  0  0  0  0  0  0  0  0  0  0  0
   -3.3182   -1.5059   -1.3364 H   0  0  0  0  0  0  0  0  0  0  0  0
   -5.9162   -2.1531   -0.7444 H   0  0  0  0  0  0  0  0  0  0  0  0
   -6.6446   -0.7247   -0.0373 H   0  0  0  0  0  0  0  0  0  0  0  0
   -5.5833   -0.5593   -1.4258 H   0  0  0  0  0  0  0  0  0  0  0  0
    0.2298    2.3223    0.9999 H   0  0  0  0  0  0  0  0  0  0  0  0
   -0.8049    2.1555   -1.6011 H   0  0  0  0  0  0  0  0  0  0  0  0
    2.2270    2.4414   -0.4532 H   0  0  0  0  0  0  0  0  0  0  0  0
    3.7522   -2.3342   -0.1907 H   0  0  0  0  0  0  0  0  0  0  0  0
    4.4303    1.9207    0.4253 H   0  0  0  0  0  0  0  0  0  0  0  0
   -3.4571    2.2859   -1.1359 H   0  0  0  0  0  0  0  0  0  0  0  0
   -2.2771    1.2028   -1.8509 H   0  0  0  0  0  0  0  0  0  0  0  0
   -3.8758    0.6504   -1.6534 H   0  0  0  0  0  0  0  0  0  0  0  0
    0.9248    1.6492   -2.5288 H   0  0  0  0  0  0  0  0  0  0  0  0
    2.2382    0.5617   -2.9078 H   0  0  0  0  0  0  0  0  0  0  0  0
    0.6009   -0.0524   -2.8167 H   0  0  0  0  0  0  0  0  0  0  0  0
   -2.2483    2.7334    0.9682 H   0  0  0  0  0  0  0  0  0  0  0  0
   -1.6914    1.4382    2.0201 H   0  0  0  0  0  0  0  0  0  0  0  0
   -6.7745    2.2854    2.0213 H   0  0  0  0  0  0  0  0  0  0  0  0
   -5.2638    2.1596    2.9084 H   0  0  0  0  0  0  0  0  0  0  0  0
   -4.4869    3.9432    1.8712 H   0  0  0  0  0  0  0  0  0  0  0  0
   -6.9101   -1.8298    4.2710 H   0  0  0  0  0  0  0  0  0  0  0  0
   -7.8370   -1.8053    2.7507 H   0  0  0  0  0  0  0  0  0  0  0  0
   -6.1811   -2.4420    2.7718 H   0  0  0  0  0  0  0  0  0  0  0  0
   -6.9719    0.4538    3.3684 H   0  0  0  0  0  0  0  0  0  0  0  0
   -6.4511   -0.1316    1.8403 H   0  0  0  0  0  0  0  0  0  0  0  0
  1 12  1  0  0  0  0
  1 22  1  6  0  0  0
  1  2  1  0  0  0  0
  2 13  2  0  0  0  0
  3  4  1  0  0  0  0
  3 35  1  0  0  0  0
  3 36  1  0  0  0  0
  4  2  1  0  0  0  0
  4 37  1  0  0  0  0
  4 38  1  0  0  0  0
  5  1  1  0  0  0  0
  5 10  1  0  0  0  0
  5 17  1  1  0  0  0
  6  5  1  0  0  0  0
  6  3  1  0  0  0  0
  6 18  1  6  0  0  0
  7  8  1  0  0  0  0
  7  9  1  0  0  0  0
  7 39  1  1  0  0  0
  8 40  1  0  0  0  0
  8 41  1  0  0  0  0
  9 42  1  0  0  0  0
  9 43  1  0  0  0  0
  9 44  1  0  0  0  0
 10 23  1  0  0  0  0
 10 11  1  0  0  0  0
 10 45  1  1  0  0  0
 11 46  1  0  0  0  0
 12 14  2  0  0  0  0
 12 47  1  0  0  0  0
 13 15  1  0  0  0  0
 13 48  1  0  0  0  0
 14 15  1  0  0  0  0
 14 49  1  0  0  0  0
 15 16  2  0  0  0  0
 19 30  1  0  0  0  0
 19 23  1  0  0  0  0
 19 20  1  6  0  0  0
 20 50  1  0  0  0  0
 20 51  1  0  0  0  0
 20 52  1  0  0  0  0
 21  6  1  0  0  0  0
 21  8  1  0  0  0  0
 21 19  1  0  0  0  0
 21 24  1  1  0  0  0
 22 53  1  0  0  0  0
 22 54  1  0  0  0  0
 22 55  1  0  0  0  0
 23 56  1  0  0  0  0
 23 57  1  0  0  0  0
 25 28  1  0  0  0  0
 25 58  1  0  0  0  0
 25 59  1  0  0  0  0
 26 25  1  0  0  0  0
 26 27  2  0  0  0  0
 28 60  1  0  0  0  0
 29 61  1  0  0  0  0
 29 62  1  0  0  0  0
 29 63  1  0  0  0  0
 30  7  1  0  0  0  0
 30 26  1  6  0  0  0
 30 31  1  0  0  0  0
 31 32  1  0  0  0  0
 32 34  1  0  0  0  0
 32 33  2  0  0  0  0
 34 29  1  0  0  0  0
 34 64  1  0  0  0  0
 34 65  1  0  0  0  0
M  END
>  <DRUGBANK_ID>
DB14221

>  <COMMON_NAME>
Beclomethasone 17-monopropionate

>  <CAS_NUMBER>
5534-18-9

>  <UNII>
5BGA9FD55H

>  <SYNONYMS>
17-BMP; Beclomethasone 17-propionate; Beclomethasone-17-monopropionate

$$$$
