1122
 OpenBabel10282417113D

 78 79  0  0  0  0  0  0  0  0999 V2000
   -2.0929   -0.2627   -0.1669 Cl  0  0  0  0  0  0  0  0  0  0  0  0
    6.9469   14.0452    0.0235 Cl  0  0  0  0  0  0  0  0  0  0  0  0
    0.8945    7.8367   -0.0826 O   0  0  0  0  0  0  0  0  0  0  0  0
    3.9573    6.0416   -0.0224 O   0  0  0  0  0  0  0  0  0  0  0  0
   -0.2379    3.2827    1.1915 N   0  3  0  0  0  0  0  0  0  0  0  0
    4.9651   10.5761    1.1485 N   0  3  0  0  0  0  0  0  0  0  0  0
    1.1398    5.6748   -0.3040 N   0  0  0  0  0  0  0  0  0  0  0  0
    3.7257    8.2015   -0.3576 N   0  0  0  0  0  0  0  0  0  0  0  0
    1.2712    3.7227    1.2312 C   0  0  0  0  0  0  0  0  0  0  0  0
    3.4726   10.2085    1.0821 C   0  0  0  0  0  0  0  0  0  0  0  0
   -0.4700    2.4081   -0.0875 C   0  0  0  0  0  0  0  0  0  0  0  0
    5.3214   11.4191   -0.1545 C   0  0  0  0  0  0  0  0  0  0  0  0
   -1.0820    4.5603    1.1790 C   0  0  0  0  0  0  0  0  0  0  0  0
   -0.4979    2.4692    2.4798 C   0  0  0  0  0  0  0  0  0  0  0  0
    5.2707   11.4904    2.3620 C   0  0  0  0  0  0  0  0  0  0  0  0
    5.9021    9.3452    1.1973 C   0  0  0  0  0  0  0  0  0  0  0  0
    1.7274    4.3764   -0.0965 C   0  0  0  0  0  0  0  0  0  0  0  0
    3.1057    9.4955   -0.2337 C   0  0  0  0  0  0  0  0  0  0  0  0
    0.2963    1.1056   -0.1415 C   0  0  0  0  0  0  0  0  0  0  0  0
    4.5686   12.7287   -0.3040 C   0  0  0  0  0  0  0  0  0  0  0  0
   -2.5794    4.4777    1.0494 C   0  0  0  0  0  0  0  0  0  0  0  0
   -1.9334    2.0054    2.6194 C   0  0  0  0  0  0  0  0  0  0  0  0
    4.8700   10.9005    3.7008 C   0  0  0  0  0  0  0  0  0  0  0  0
    5.4878    8.2820    2.2157 C   0  0  0  0  0  0  0  0  0  0  0  0
   -0.3733   -0.1250   -0.1027 C   0  0  0  0  0  0  0  0  0  0  0  0
    5.2365   13.9539   -0.1905 C   0  0  0  0  0  0  0  0  0  0  0  0
    1.7090    1.0706   -0.1951 C   0  0  0  0  0  0  0  0  0  0  0  0
    3.1651   12.7738   -0.4861 C   0  0  0  0  0  0  0  0  0  0  0  0
    1.6705    6.8838   -0.1172 C   0  0  0  0  0  0  0  0  0  0  0  0
    3.1918    6.9977   -0.1198 C   0  0  0  0  0  0  0  0  0  0  0  0
    0.3449   -1.3168   -0.0350 C   0  0  0  0  0  0  0  0  0  0  0  0
    4.5223   15.1530   -0.2112 C   0  0  0  0  0  0  0  0  0  0  0  0
    2.4240   -0.1126   -0.0593 C   0  0  0  0  0  0  0  0  0  0  0  0
    2.4452   13.9606   -0.4140 C   0  0  0  0  0  0  0  0  0  0  0  0
    1.7369   -1.3101    0.0069 C   0  0  0  0  0  0  0  0  0  0  0  0
    3.1301   15.1551   -0.2973 C   0  0  0  0  0  0  0  0  0  0  0  0
    0.2242    5.8110   -0.7085 H   0  0  0  0  0  0  0  0  0  0  0  0
    4.6823    8.0744   -0.6509 H   0  0  0  0  0  0  0  0  0  0  0  0
    1.4084    4.3976    2.0852 H   0  0  0  0  0  0  0  0  0  0  0  0
    1.8733    2.8420    1.4711 H   0  0  0  0  0  0  0  0  0  0  0  0
    2.8963   11.1227    1.2367 H   0  0  0  0  0  0  0  0  0  0  0  0
    3.2017    9.5948    1.9409 H   0  0  0  0  0  0  0  0  0  0  0  0
   -0.2516    3.0192   -0.9683 H   0  0  0  0  0  0  0  0  0  0  0  0
   -1.5427    2.2567   -0.1529 H   0  0  0  0  0  0  0  0  0  0  0  0
    6.4069   11.5364   -0.1271 H   0  0  0  0  0  0  0  0  0  0  0  0
    5.1498   10.7887   -1.0331 H   0  0  0  0  0  0  0  0  0  0  0  0
   -0.7438    5.2069    1.9973 H   0  0  0  0  0  0  0  0  0  0  0  0
   -0.8703    5.0168    0.2365 H   0  0  0  0  0  0  0  0  0  0  0  0
    0.1812    1.6108    2.4710 H   0  0  0  0  0  0  0  0  0  0  0  0
   -0.2220    3.1137    3.3219 H   0  0  0  0  0  0  0  0  0  0  0  0
    6.3460   11.6992    2.3316 H   0  0  0  0  0  0  0  0  0  0  0  0
    4.7207   12.4231    2.2229 H   0  0  0  0  0  0  0  0  0  0  0  0
    5.9497    8.9379    0.1902 H   0  0  0  0  0  0  0  0  0  0  0  0
    6.9188    9.7018    1.3812 H   0  0  0  0  0  0  0  0  0  0  0  0
    2.8079    4.3841   -0.0842 H   0  0  0  0  0  0  0  0  0  0  0  0
    1.4849    3.8270   -1.0032 H   0  0  0  0  0  0  0  0  0  0  0  0
    3.3813   10.0103   -1.1506 H   0  0  0  0  0  0  0  0  0  0  0  0
    2.0268    9.4749   -0.2663 H   0  0  0  0  0  0  0  0  0  0  0  0
   -3.0941    4.2465    1.9715 H   0  0  0  0  0  0  0  0  0  0  0  0
   -2.9487    5.4727    0.7777 H   0  0  0  0  0  0  0  0  0  0  0  0
   -2.8759    3.7979    0.2500 H   0  0  0  0  0  0  0  0  0  0  0  0
   -2.3494    1.6186    1.6929 H   0  0  0  0  0  0  0  0  0  0  0  0
   -2.0321    1.2407    3.3889 H   0  0  0  0  0  0  0  0  0  0  0  0
   -2.5744    2.8090    2.9645 H   0  0  0  0  0  0  0  0  0  0  0  0
    5.5464   10.1146    4.0189 H   0  0  0  0  0  0  0  0  0  0  0  0
    4.9563   11.6532    4.4859 H   0  0  0  0  0  0  0  0  0  0  0  0
    3.8455   10.5224    3.7087 H   0  0  0  0  0  0  0  0  0  0  0  0
    4.4112    8.1312    2.3207 H   0  0  0  0  0  0  0  0  0  0  0  0
    5.9182    7.3096    1.9721 H   0  0  0  0  0  0  0  0  0  0  0  0
    5.8806    8.5058    3.2029 H   0  0  0  0  0  0  0  0  0  0  0  0
    2.3263    1.9505   -0.3254 H   0  0  0  0  0  0  0  0  0  0  0  0
    2.5526   11.8958   -0.6490 H   0  0  0  0  0  0  0  0  0  0  0  0
   -0.1849   -2.2653   -0.0198 H   0  0  0  0  0  0  0  0  0  0  0  0
    5.0494   16.1010   -0.1461 H   0  0  0  0  0  0  0  0  0  0  0  0
    3.5124   -0.0937   -0.0235 H   0  0  0  0  0  0  0  0  0  0  0  0
    1.3564   13.9454   -0.4608 H   0  0  0  0  0  0  0  0  0  0  0  0
    2.2856   -2.2457    0.0562 H   0  0  0  0  0  0  0  0  0  0  0  0
    2.5799   16.0920   -0.2930 H   0  0  0  0  0  0  0  0  0  0  0  0
  1 25  1  0  0  0  0
  2 26  1  0  0  0  0
  3 29  2  0  0  0  0
  4 30  2  0  0  0  0
  5  9  1  0  0  0  0
  5 11  1  0  0  0  0
  5 13  1  0  0  0  0
  5 14  1  0  0  0  0
  6 10  1  0  0  0  0
  6 12  1  0  0  0  0
  6 15  1  0  0  0  0
  6 16  1  0  0  0  0
  7 17  1  0  0  0  0
  7 29  1  0  0  0  0
  7 37  1  0  0  0  0
  8 18  1  0  0  0  0
  8 30  1  0  0  0  0
  8 38  1  0  0  0  0
  9 17  1  0  0  0  0
  9 39  1  0  0  0  0
  9 40  1  0  0  0  0
 10 18  1  0  0  0  0
 10 41  1  0  0  0  0
 10 42  1  0  0  0  0
 11 19  1  0  0  0  0
 11 43  1  0  0  0  0
 11 44  1  0  0  0  0
 12 20  1  0  0  0  0
 12 45  1  0  0  0  0
 12 46  1  0  0  0  0
 13 21  1  0  0  0  0
 13 47  1  0  0  0  0
 13 48  1  0  0  0  0
 14 22  1  0  0  0  0
 14 49  1  0  0  0  0
 14 50  1  0  0  0  0
 15 23  1  0  0  0  0
 15 51  1  0  0  0  0
 15 52  1  0  0  0  0
 16 24  1  0  0  0  0
 16 53  1  0  0  0  0
 16 54  1  0  0  0  0
 17 55  1  0  0  0  0
 17 56  1  0  0  0  0
 18 57  1  0  0  0  0
 18 58  1  0  0  0  0
 19 25  1  0  0  0  0
 19 27  2  0  0  0  0
 20 26  1  0  0  0  0
 20 28  2  0  0  0  0
 21 59  1  0  0  0  0
 21 60  1  0  0  0  0
 21 61  1  0  0  0  0
 22 62  1  0  0  0  0
 22 63  1  0  0  0  0
 22 64  1  0  0  0  0
 23 65  1  0  0  0  0
 23 66  1  0  0  0  0
 23 67  1  0  0  0  0
 24 68  1  0  0  0  0
 24 69  1  0  0  0  0
 24 70  1  0  0  0  0
 25 31  2  0  0  0  0
 26 32  2  0  0  0  0
 27 33  1  0  0  0  0
 27 71  1  0  0  0  0
 28 34  1  0  0  0  0
 28 72  1  0  0  0  0
 29 30  1  0  0  0  0
 31 35  1  0  0  0  0
 31 73  1  0  0  0  0
 32 36  1  0  0  0  0
 32 74  1  0  0  0  0
 33 35  2  0  0  0  0
 33 75  1  0  0  0  0
 34 36  2  0  0  0  0
 34 76  1  0  0  0  0
 35 77  1  0  0  0  0
 36 78  1  0  0  0  0
M  CHG  2   5   1   6   1
M  END
>  <DRUGBANK_ID>
DB01122

>  <SECONDARY_ACCESSION_NUMBERS>
APRD00771

>  <COMMON_NAME>
Ambenonium

>  <CAS_NUMBER>
7648-98-8

>  <UNII>
L16PUN799N

>  <SYNONYMS>
Ambenonium; Ambenonium base; Ambenonum

$$$$
