
 OpenBabel10282417153D

 36 38  0  0  1  0  0  0  0  0999 V2000
    4.6735    1.8551    1.8141 O   0  0  0  0  0  0  0  0  0  0  0  0
    4.9306    2.6223    0.8867 C   0  0  0  0  0  0  0  0  0  0  0  0
    4.0491    3.1228   -0.0444 N   0  0  0  0  0  0  0  0  0  0  0  0
    4.6687    3.8674   -1.1014 C   0  0  0  0  0  0  0  0  0  0  0  0
    5.9974    4.0649   -0.8447 C   0  0  0  0  0  0  0  0  0  0  0  0
    6.5537    3.2466    0.5966 S   0  0  0  0  0  0  0  0  0  0  0  0
    6.6710    4.8614   -1.7209 C   0  0  0  0  0  0  0  0  0  0  0  0
    6.0886    5.4383   -2.7906 N   0  0  0  0  0  0  0  0  0  0  0  0
    4.7949    5.1685   -2.9977 C   0  0  0  0  0  0  0  0  0  0  0  0
    4.0667    4.3685   -2.2037 N   0  0  0  0  0  0  0  0  0  0  0  0
    4.2328    5.7379   -4.1106 N   0  0  0  0  0  0  0  0  0  0  0  0
    2.6707    2.6890   -0.0768 C   0  0  1  0  0  0  0  0  0  0  0  0
    1.7892    2.8840    1.1770 C   0  0  2  0  0  0  0  0  0  0  0  0
    0.6594    1.9217    1.3070 O   0  0  0  0  0  0  0  0  0  0  0  0
   -0.3470    1.4918    0.5034 C   0  0  0  0  0  0  0  0  0  0  0  0
   -0.4747    2.0122   -0.8827 C   0  0  0  0  0  0  0  0  0  0  0  0
   -1.1859    0.6957    0.9198 O   0  0  0  0  0  0  0  0  0  0  0  0
    1.2930    4.3093    1.0404 C   0  0  0  0  0  0  0  0  0  0  0  0
    1.1845    4.4786   -0.4575 C   0  0  2  0  0  0  0  0  0  0  0  0
    2.0242    3.4881   -1.0661 O   0  0  0  0  0  0  0  0  0  0  0  0
    1.4064    5.8397   -1.0815 C   0  0  0  0  0  0  0  0  0  0  0  0
    2.6700    6.4085   -0.8029 O   0  0  0  0  0  0  0  0  0  0  0  0
    7.7225    5.0735   -1.5820 H   0  0  0  0  0  0  0  0  0  0  0  0
    3.2351    5.7094   -4.2284 H   0  0  0  0  0  0  0  0  0  0  0  0
    4.8011    6.4137   -4.5970 H   0  0  0  0  0  0  0  0  0  0  0  0
    2.6788    1.6212   -0.3386 H   0  0  0  0  0  0  0  0  0  0  0  0
    2.3415    2.7692    2.1169 H   0  0  0  0  0  0  0  0  0  0  0  0
   -0.5678    1.2583   -1.6598 H   0  0  0  0  0  0  0  0  0  0  0  0
   -1.2394    2.7908   -0.9583 H   0  0  0  0  0  0  0  0  0  0  0  0
    0.4651    2.3903   -1.1669 H   0  0  0  0  0  0  0  0  0  0  0  0
    0.3316    4.4843    1.5316 H   0  0  0  0  0  0  0  0  0  0  0  0
    2.0296    4.9984    1.4592 H   0  0  0  0  0  0  0  0  0  0  0  0
    0.1525    4.2820   -0.7400 H   0  0  0  0  0  0  0  0  0  0  0  0
    1.2961    5.7435   -2.1701 H   0  0  0  0  0  0  0  0  0  0  0  0
    0.6386    6.5203   -0.7123 H   0  0  0  0  0  0  0  0  0  0  0  0
    2.9209    6.1780    0.1015 H   0  0  0  0  0  0  0  0  0  0  0  0
  1  2  2  0  0  0  0
  2  3  1  0  0  0  0
  2  6  1  0  0  0  0
  3  4  1  0  0  0  0
  4  5  1  0  0  0  0
  4 10  2  0  0  0  0
  5  7  2  0  0  0  0
  6  5  1  0  0  0  0
  7  8  1  0  0  0  0
  7 23  1  0  0  0  0
  9  8  2  0  0  0  0
  9 11  1  0  0  0  0
 10  9  1  0  0  0  0
 11 24  1  0  0  0  0
 11 25  1  0  0  0  0
 12 13  1  0  0  0  0
 12 20  1  0  0  0  0
 12 26  1  6  0  0  0
 12  3  1  0  0  0  0
 13 18  1  0  0  0  0
 13 14  1  0  0  0  0
 13 27  1  1  0  0  0
 14 15  1  0  0  0  0
 15 16  1  0  0  0  0
 15 17  2  0  0  0  0
 16 28  1  0  0  0  0
 16 29  1  0  0  0  0
 16 30  1  0  0  0  0
 18 19  1  0  0  0  0
 18 31  1  0  0  0  0
 18 32  1  0  0  0  0
 19 33  1  6  0  0  0
 19 21  1  0  0  0  0
 20 19  1  0  0  0  0
 21 22  1  0  0  0  0
 21 34  1  0  0  0  0
 21 35  1  0  0  0  0
 22 36  1  0  0  0  0
M  END
>  <DRUGBANK_ID>
DB06329

>  <COMMON_NAME>
RG-7795

>  <CAS_NUMBER>
892498-64-5

>  <UNII>
QTI86134YL

$$$$
