SUA
 OpenBabel10282417133D

 35 36  0  0  0  0  0  0  0  0999 V2000
    0.9214   -0.0511    0.0555 S   0  0  0  0  0  0  0  0  0  0  0  0
    0.5130    0.5160    1.3283 O   0  0  0  0  0  0  0  0  0  0  0  0
    0.4843    0.4852   -1.2021 O   0  0  0  0  0  0  0  0  0  0  0  0
    0.4305   -1.6583    0.1140 N   0  0  0  0  0  0  0  0  0  0  0  0
    4.8203   -1.2711    0.1485 C   0  0  0  0  0  0  0  0  0  0  0  0
    3.4143   -1.3119    0.1065 C   0  0  0  0  0  0  0  0  0  0  0  0
    2.6841   -0.1195    0.0590 C   0  0  0  0  0  0  0  0  0  0  0  0
    3.3380    1.1007    0.1127 C   0  0  0  0  0  0  0  0  0  0  0  0
    4.7179    1.1257    0.2118 C   0  0  0  0  0  0  0  0  0  0  0  0
    5.4835   -0.0380    0.1239 C   0  0  0  0  0  0  0  0  0  0  0  0
    6.8738    0.0049   -0.1589 N   0  0  0  0  0  0  0  0  0  0  0  0
    7.5181    1.1132   -0.6878 C   0  0  0  0  0  0  0  0  0  0  0  0
    8.6772    0.9770   -1.8751 S   0  0  0  0  0  0  0  0  0  0  0  0
    7.1369    2.2896   -0.1327 O   0  0  0  0  0  0  0  0  0  0  0  0
    7.8399    3.5530   -0.1474 C   0  0  0  0  0  0  0  0  0  0  0  0
    8.7775    3.6629    1.0662 C   0  0  0  0  0  0  0  0  0  0  0  0
    9.8086    2.5675    1.1235 C   0  0  0  0  0  0  0  0  0  0  0  0
    9.5326    1.2001    1.4767 C   0  0  0  0  0  0  0  0  0  0  0  0
   10.5437    0.3510    1.0816 C   0  0  0  0  0  0  0  0  0  0  0  0
   11.9550    1.2136    0.6583 S   0  0  0  0  0  0  0  0  0  0  0  0
   11.1382    2.7135    0.7804 C   0  0  0  0  0  0  0  0  0  0  0  0
    0.6898   -2.0838    1.0025 H   0  0  0  0  0  0  0  0  0  0  0  0
   -0.5845   -1.6783   -0.0124 H   0  0  0  0  0  0  0  0  0  0  0  0
    5.3702   -2.2103    0.1587 H   0  0  0  0  0  0  0  0  0  0  0  0
    2.9119   -2.2740    0.0791 H   0  0  0  0  0  0  0  0  0  0  0  0
    2.8005    2.0448    0.0737 H   0  0  0  0  0  0  0  0  0  0  0  0
    5.1503    2.1055    0.3422 H   0  0  0  0  0  0  0  0  0  0  0  0
    7.3301   -0.8785   -0.3575 H   0  0  0  0  0  0  0  0  0  0  0  0
    8.3306    3.7281   -1.1073 H   0  0  0  0  0  0  0  0  0  0  0  0
    7.0633    4.3247   -0.0486 H   0  0  0  0  0  0  0  0  0  0  0  0
    9.2722    4.6407    1.0249 H   0  0  0  0  0  0  0  0  0  0  0  0
    8.1875    3.6363    1.9904 H   0  0  0  0  0  0  0  0  0  0  0  0
    8.5591    0.8368    1.7881 H   0  0  0  0  0  0  0  0  0  0  0  0
   10.5045   -0.7271    0.9971 H   0  0  0  0  0  0  0  0  0  0  0  0
   11.6545    3.6257    0.5186 H   0  0  0  0  0  0  0  0  0  0  0  0
  1  2  2  0  0  0  0
  1  3  2  0  0  0  0
  1  4  1  0  0  0  0
  1  7  1  0  0  0  0
  4 22  1  0  0  0  0
  4 23  1  0  0  0  0
  5  6  2  0  0  0  0
  5 10  1  0  0  0  0
  5 24  1  0  0  0  0
  6  7  1  0  0  0  0
  6 25  1  0  0  0  0
  7  8  2  0  0  0  0
  8  9  1  0  0  0  0
  8 26  1  0  0  0  0
  9 10  2  0  0  0  0
  9 27  1  0  0  0  0
 10 11  1  0  0  0  0
 11 12  1  0  0  0  0
 11 28  1  0  0  0  0
 12 13  2  0  0  0  0
 12 14  1  0  0  0  0
 14 15  1  0  0  0  0
 15 16  1  0  0  0  0
 15 29  1  0  0  0  0
 15 30  1  0  0  0  0
 16 17  1  0  0  0  0
 16 31  1  0  0  0  0
 16 32  1  0  0  0  0
 17 18  1  0  0  0  0
 17 21  2  0  0  0  0
 18 19  2  0  0  0  0
 18 33  1  0  0  0  0
 19 20  1  0  0  0  0
 19 34  1  0  0  0  0
 20 21  1  0  0  0  0
 21 35  1  0  0  0  0
M  END
>  <DRUGBANK_ID>
DB03333

>  <SECONDARY_ACCESSION_NUMBERS>
EXPT02975

>  <COMMON_NAME>
(4-sulfamoyl-phenyl)-thiocarbamic acid O-(2-thiophen-3-yl-ethyl) ester

$$$$
