MQ1
 OpenBabel10282417123D

 35 37  0  0  0  0  0  0  0  0999 V2000
    0.0517    0.6427    0.0889 C   0  0  0  0  0  0  0  0  0  0  0  0
    0.0037   -0.7634    0.0781 C   0  0  0  0  0  0  0  0  0  0  0  0
    1.2650   -1.3742    0.0147 C   0  0  0  0  0  0  0  0  0  0  0  0
    2.4154   -0.6867   -0.0377 N   0  0  0  0  0  0  0  0  0  0  0  0
    2.3318    0.6477   -0.0049 C   0  0  0  0  0  0  0  0  0  0  0  0
    1.1910    1.3333    0.0816 N   0  0  0  0  0  0  0  0  0  0  0  0
    1.3796   -2.7469   -0.1728 N   0  0  0  0  0  0  0  0  0  0  0  0
   -1.1414    1.3483    0.0432 C   0  0  0  0  0  0  0  0  0  0  0  0
   -2.3636    0.7107   -0.1263 C   0  0  0  0  0  0  0  0  0  0  0  0
   -2.4300   -0.6689   -0.0198 C   0  0  0  0  0  0  0  0  0  0  0  0
   -1.2611   -1.4213    0.1130 C   0  0  0  0  0  0  0  0  0  0  0  0
    3.4885    1.3604   -0.0915 N   0  0  0  0  0  0  0  0  0  0  0  0
   -1.2512   -2.8035    0.2890 O   0  0  0  0  0  0  0  0  0  0  0  0
   -2.4454   -3.4750    0.3643 C   0  0  0  0  0  0  0  0  0  0  0  0
   -3.3311   -3.4910   -0.7111 C   0  0  0  0  0  0  0  0  0  0  0  0
   -4.6181   -3.9906   -0.5278 C   0  0  0  0  0  0  0  0  0  0  0  0
   -4.9634   -4.6298    0.6650 C   0  0  0  0  0  0  0  0  0  0  0  0
   -3.9983   -4.7838    1.6632 C   0  0  0  0  0  0  0  0  0  0  0  0
   -2.7526   -4.1636    1.5352 C   0  0  0  0  0  0  0  0  0  0  0  0
   -6.2628   -5.0503    0.7413 O   0  0  0  0  0  0  0  0  0  0  0  0
   -6.6479   -5.6841    1.9559 C   0  0  0  0  0  0  0  0  0  0  0  0
    0.5832   -3.3229    0.0670 H   0  0  0  0  0  0  0  0  0  0  0  0
    2.3082   -3.1360   -0.1141 H   0  0  0  0  0  0  0  0  0  0  0  0
   -1.1224    2.4356    0.1034 H   0  0  0  0  0  0  0  0  0  0  0  0
   -3.2666    1.2793   -0.3281 H   0  0  0  0  0  0  0  0  0  0  0  0
   -3.4152   -1.1174   -0.0472 H   0  0  0  0  0  0  0  0  0  0  0  0
    3.4320    2.3651   -0.0917 H   0  0  0  0  0  0  0  0  0  0  0  0
    4.3507    0.8535   -0.1882 H   0  0  0  0  0  0  0  0  0  0  0  0
   -3.0515   -3.0308   -1.6546 H   0  0  0  0  0  0  0  0  0  0  0  0
   -5.3584   -3.8614   -1.3129 H   0  0  0  0  0  0  0  0  0  0  0  0
   -4.1951   -5.3565    2.5631 H   0  0  0  0  0  0  0  0  0  0  0  0
   -2.0444   -4.2042    2.3583 H   0  0  0  0  0  0  0  0  0  0  0  0
   -6.1134   -6.6317    2.0760 H   0  0  0  0  0  0  0  0  0  0  0  0
   -6.4905   -5.0295    2.8208 H   0  0  0  0  0  0  0  0  0  0  0  0
   -7.7173   -5.9060    1.9002 H   0  0  0  0  0  0  0  0  0  0  0  0
  1  2  1  0  0  0  0
  1  6  2  0  0  0  0
  1  8  1  0  0  0  0
  2  3  2  0  0  0  0
  2 11  1  0  0  0  0
  3  4  1  0  0  0  0
  3  7  1  0  0  0  0
  4  5  2  0  0  0  0
  5  6  1  0  0  0  0
  5 12  1  0  0  0  0
  7 22  1  0  0  0  0
  7 23  1  0  0  0  0
  8  9  2  0  0  0  0
  8 24  1  0  0  0  0
  9 10  1  0  0  0  0
  9 25  1  0  0  0  0
 10 11  2  0  0  0  0
 10 26  1  0  0  0  0
 11 13  1  0  0  0  0
 12 27  1  0  0  0  0
 12 28  1  0  0  0  0
 13 14  1  0  0  0  0
 14 15  2  0  0  0  0
 14 19  1  0  0  0  0
 15 16  1  0  0  0  0
 15 29  1  0  0  0  0
 16 17  2  0  0  0  0
 16 30  1  0  0  0  0
 17 18  1  0  0  0  0
 17 20  1  0  0  0  0
 18 19  2  0  0  0  0
 18 31  1  0  0  0  0
 19 32  1  0  0  0  0
 20 21  1  0  0  0  0
 21 33  1  0  0  0  0
 21 34  1  0  0  0  0
 21 35  1  0  0  0  0
M  END
>  <DRUGBANK_ID>
DB02402

>  <SECONDARY_ACCESSION_NUMBERS>
EXPT02228

>  <COMMON_NAME>
5-(4-Methoxyphenoxy)-2,4-Quinazolinediamine

$$$$
