1446
 OpenBabel10282417113D

 27 28  0  0  1  0  0  0  0  0999 V2000
   -1.5207    1.0790   -0.0333 N   0  0  0  0  0  0  0  0  0  0  0  0
   -4.2092   -2.0816    1.2210 N   0  0  0  0  0  0  0  0  0  0  0  0
   -2.0817   -2.5696   -0.0263 C   0  0  0  0  0  0  0  0  0  0  0  0
   -1.5794   -1.1532   -0.0419 C   0  0  0  0  0  0  0  0  0  0  0  0
   -2.9804   -2.8898    1.1906 C   0  0  3  0  0  0  0  0  0  0  0  0
   -0.2150   -0.7278    0.0019 C   0  0  0  0  0  0  0  0  0  0  0  0
   -0.2102    0.6667   -0.0045 C   0  0  0  0  0  0  0  0  0  0  0  0
   -2.3410   -0.0059   -0.1585 C   0  0  0  0  0  0  0  0  0  0  0  0
   -3.3973   -4.3564    1.1769 C   0  0  0  0  0  0  0  0  0  0  0  0
    1.0197   -1.4060    0.0248 C   0  0  0  0  0  0  0  0  0  0  0  0
    0.9662    1.4221    0.0035 C   0  0  0  0  0  0  0  0  0  0  0  0
    2.2065   -0.6682   -0.0049 C   0  0  0  0  0  0  0  0  0  0  0  0
    2.1768    0.7241   -0.0183 C   0  0  0  0  0  0  0  0  0  0  0  0
   -1.8273    2.0387   -0.0224 H   0  0  0  0  0  0  0  0  0  0  0  0
   -4.7411   -2.2929    2.0618 H   0  0  0  0  0  0  0  0  0  0  0  0
   -3.9344   -1.1053    1.3210 H   0  0  0  0  0  0  0  0  0  0  0  0
   -2.6109   -2.7739   -0.9654 H   0  0  0  0  0  0  0  0  0  0  0  0
   -1.2238   -3.2562   -0.0086 H   0  0  0  0  0  0  0  0  0  0  0  0
   -2.4170   -2.6890    2.1109 H   0  0  0  0  0  0  0  0  0  0  0  0
   -3.4075    0.1302   -0.2847 H   0  0  0  0  0  0  0  0  0  0  0  0
   -2.5222   -5.0125    1.2182 H   0  0  0  0  0  0  0  0  0  0  0  0
   -4.0294   -4.5890    2.0413 H   0  0  0  0  0  0  0  0  0  0  0  0
   -3.9621   -4.5985    0.2694 H   0  0  0  0  0  0  0  0  0  0  0  0
    1.0539   -2.4909    0.0283 H   0  0  0  0  0  0  0  0  0  0  0  0
    0.9444    2.5060   -0.0040 H   0  0  0  0  0  0  0  0  0  0  0  0
    3.1587   -1.1915   -0.0291 H   0  0  0  0  0  0  0  0  0  0  0  0
    3.1104    1.2794   -0.0541 H   0  0  0  0  0  0  0  0  0  0  0  0
  1  7  1  0  0  0  0
  1  8  1  0  0  0  0
  1 14  1  0  0  0  0
  2  5  1  0  0  0  0
  2 15  1  0  0  0  0
  2 16  1  0  0  0  0
  3  4  1  0  0  0  0
  3  5  1  0  0  0  0
  3 17  1  0  0  0  0
  3 18  1  0  0  0  0
  4  6  1  0  0  0  0
  4  8  2  0  0  0  0
  5  9  1  0  0  0  0
  5 19  1  0  0  0  0
  6  7  1  0  0  0  0
  6 10  2  0  0  0  0
  7 11  2  0  0  0  0
  8 20  1  0  0  0  0
  9 21  1  0  0  0  0
  9 22  1  0  0  0  0
  9 23  1  0  0  0  0
 10 12  1  0  0  0  0
 10 24  1  0  0  0  0
 11 13  1  0  0  0  0
 11 25  1  0  0  0  0
 12 13  2  0  0  0  0
 12 26  1  0  0  0  0
 13 27  1  0  0  0  0
M  END
>  <DRUGBANK_ID>
DB01446

>  <COMMON_NAME>
Indopan

>  <CAS_NUMBER>
299-26-3

>  <UNII>
BIK35ACJ0Q

>  <SYNONYMS>
1-(1H-Indol-3-yl)-2-propanamine; 3-(2-Aminopropyl)indole; alpha-Methyl-1H-indole-3-ethanamine; alpha-Methyl-beta-indoleethylamine; alpha-methyltryptamine; AMT; DL-3-(2-Aminopropyl)indole; Indopan; α-Methyl-3-indoleethanamine; α-methyltryptamine; αMT

$$$$
