
 OpenBabel10282417223D

 24 24  0  0  0  0  0  0  0  0999 V2000
   -0.1249    0.8938    0.1970 N   0  0  0  0  0  0  0  0  0  0  0  0
    0.6991   -0.2975    0.3020 C   0  0  0  0  0  0  0  0  0  0  0  0
   -0.8099   -0.3939    0.1936 C   0  0  0  0  0  0  0  0  0  0  0  0
   -0.1126    1.6006   -1.1076 C   0  0  0  0  0  0  0  0  0  0  0  0
   -0.1468   -0.2472   -2.8388 N   0  0  0  0  0  0  0  0  0  0  0  0
    1.9721   -2.3945   -2.4256 N   0  0  0  0  0  0  0  0  0  0  0  0
    0.5142    0.9873   -2.3987 C   0  0  0  0  0  0  0  0  0  0  0  0
    0.5291   -0.9659   -3.9187 C   0  0  0  0  0  0  0  0  0  0  0  0
    1.9448   -1.4627   -3.5565 C   0  0  0  0  0  0  0  0  0  0  0  0
    1.3973   -0.4728   -0.4965 H   0  0  0  0  0  0  0  0  0  0  0  0
    1.1245   -0.5295    1.2726 H   0  0  0  0  0  0  0  0  0  0  0  0
   -1.3416   -0.6853    1.0924 H   0  0  0  0  0  0  0  0  0  0  0  0
   -1.3647   -0.6646   -0.6926 H   0  0  0  0  0  0  0  0  0  0  0  0
   -1.1387    1.9152   -1.3352 H   0  0  0  0  0  0  0  0  0  0  0  0
    0.4407    2.5316   -0.9222 H   0  0  0  0  0  0  0  0  0  0  0  0
   -0.1701   -0.8992   -2.0651 H   0  0  0  0  0  0  0  0  0  0  0  0
    2.9200   -2.4555   -2.0629 H   0  0  0  0  0  0  0  0  0  0  0  0
    1.3963   -2.0557   -1.6580 H   0  0  0  0  0  0  0  0  0  0  0  0
    0.4474    1.7308   -3.2033 H   0  0  0  0  0  0  0  0  0  0  0  0
    1.5815    0.8407   -2.2073 H   0  0  0  0  0  0  0  0  0  0  0  0
   -0.0944   -1.8421   -4.1439 H   0  0  0  0  0  0  0  0  0  0  0  0
    0.5447   -0.3559   -4.8263 H   0  0  0  0  0  0  0  0  0  0  0  0
    2.3753   -1.9701   -4.4238 H   0  0  0  0  0  0  0  0  0  0  0  0
    2.5943   -0.6101   -3.3344 H   0  0  0  0  0  0  0  0  0  0  0  0
  2  1  1  0  0  0  0
  2 10  1  0  0  0  0
  2 11  1  0  0  0  0
  3  1  1  0  0  0  0
  3  2  1  0  0  0  0
  3 12  1  0  0  0  0
  3 13  1  0  0  0  0
  4  1  1  0  0  0  0
  4 14  1  0  0  0  0
  4 15  1  0  0  0  0
  5  7  1  0  0  0  0
  5 16  1  0  0  0  0
  6  9  1  0  0  0  0
  6 17  1  0  0  0  0
  6 18  1  0  0  0  0
  7  4  1  0  0  0  0
  7 19  1  0  0  0  0
  7 20  1  0  0  0  0
  8  5  1  0  0  0  0
  8 21  1  0  0  0  0
  8 22  1  0  0  0  0
  9  8  1  0  0  0  0
  9 23  1  0  0  0  0
  9 24  1  0  0  0  0
M  END
>  <DRUGBANK_ID>
DB15643

>  <COMMON_NAME>
N-(2-Aminoethyl)-1-aziridineethanamine

>  <CAS_NUMBER>
23435-23-6

>  <UNII>
K93WMR7E2S

>  <SYNONYMS>
N-(2-((2-Aminoethyl)amino)ethyl)aziridine; N-(2-aminoethyl)-1 aziridine-ethanamine

$$$$
