
 OpenBabel10282417143D

 10  9  0  0  0  0  0  0  0  0999 V2000
    1.0239   -0.0442   -0.0538 O   0  0  0  0  0  0  0  0  0  0  0  0
    0.5709   -0.3247    1.2673 C   0  0  0  0  0  0  0  0  0  0  0  0
    1.0473   -1.6821    1.7022 C   0  0  0  0  0  0  0  0  0  0  0  0
    2.1172   -1.7193    3.2345 Br  0  0  0  0  0  0  0  0  0  0  0  0
    0.7323   -2.8086    1.0460 C   0  0  0  0  0  0  0  0  0  0  0  0
    1.9948   -0.1010   -0.0347 H   0  0  0  0  0  0  0  0  0  0  0  0
    0.9198    0.4811    1.9207 H   0  0  0  0  0  0  0  0  0  0  0  0
   -0.5238   -0.2949    1.2652 H   0  0  0  0  0  0  0  0  0  0  0  0
    0.1122   -2.7709    0.1552 H   0  0  0  0  0  0  0  0  0  0  0  0
    1.0802   -3.7826    1.3729 H   0  0  0  0  0  0  0  0  0  0  0  0
  1  2  1  0  0  0  0
  1  6  1  0  0  0  0
  2  3  1  0  0  0  0
  2  7  1  0  0  0  0
  2  8  1  0  0  0  0
  3  4  1  0  0  0  0
  3  5  2  0  0  0  0
  5  9  1  0  0  0  0
  5 10  1  0  0  0  0
M  END
>  <DRUGBANK_ID>
DB04320

>  <SECONDARY_ACCESSION_NUMBERS>
EXPT00755

>  <COMMON_NAME>
2-Bromo-2-Propene-1-Ol

$$$$
