
 OpenBabel10282417163D

 47 51  0  0  0  0  0  0  0  0999 V2000
    3.4392    7.1790    2.3151 C   0  0  1  0  0  0  0  0  0  0  0  0
    4.6436    1.2864    2.0863 C   0  0  2  0  0  0  0  0  0  0  0  0
    4.0148    2.5976    2.5290 C   0  0  0  0  0  0  0  0  0  0  0  0
    3.0344    3.1692    1.7789 C   0  0  0  0  0  0  0  0  0  0  0  0
    2.9365   10.4575    0.7293 C   0  0  0  0  0  0  0  0  0  0  0  0
    2.8999    9.1744    1.5434 C   0  0  0  0  0  0  0  0  0  0  0  0
    1.4568    8.8145    1.8573 C   0  0  1  0  0  0  0  0  0  0  0  0
    0.5895    8.5384    0.6022 C   0  0  0  0  0  0  0  0  0  0  0  0
    0.8024    7.1086    0.3024 C   0  0  0  0  0  0  0  0  0  0  0  0
    2.4056    4.4804    2.2216 C   0  0  2  0  0  0  0  0  0  0  0  0
    1.2955    7.4884    2.6488 C   0  0  0  0  0  0  0  0  0  0  0  0
    0.9582    4.2368    2.2766 C   0  0  2  0  0  0  0  0  0  0  0  0
    2.5812    5.7452    1.3498 C   0  0  1  0  0  0  0  0  0  0  0  0
    0.2648    5.3291    1.9040 C   0  0  1  0  0  0  0  0  0  0  0  0
    1.2150    6.4354    1.5335 C   0  0  2  0  0  0  0  0  0  0  0  0
    0.6863    3.9759    3.2781 H   0  0  0  0  0  0  0  0  0  0  0  0
    4.4360    0.3004    3.0868 O   0  0  0  0  0  0  0  0  0  0  0  0
    4.0562    8.5218    2.6708 C   0  0  0  0  0  0  0  0  0  0  0  0
   -0.6056    4.9893    0.7051 C   0  0  0  0  0  0  0  0  0  0  0  0
   -0.2400    4.0822   -0.1065 O   0  0  0  0  0  0  0  0  0  0  0  0
   -1.8248    5.6848    0.4903 O   0  0  0  0  0  0  0  0  0  0  0  0
   -0.1954    9.4200   -0.0741 C   0  0  0  0  0  0  0  0  0  0  0  0
    0.9615    9.9217    2.5956 O   0  0  0  0  0  0  0  0  0  0  0  0
    3.3809    6.3592    1.7080 H   0  0  0  0  0  0  0  0  0  0  0  0
    2.9796    4.9393    3.4366 O   0  0  0  0  0  0  0  0  0  0  0  0
    3.4983    6.2583    3.5231 C   0  0  0  0  0  0  0  0  0  0  0  0
    4.0119    6.6691    4.6106 O   0  0  0  0  0  0  0  0  0  0  0  0
    4.1925    0.9658    1.1705 H   0  0  0  0  0  0  0  0  0  0  0  0
    4.4574    1.6746    2.2173 H   0  0  0  0  0  0  0  0  0  0  0  0
    2.7058    2.6958    0.8773 H   0  0  0  0  0  0  0  0  0  0  0  0
    3.9524   10.7108    0.5083 H   0  0  0  0  0  0  0  0  0  0  0  0
    2.3975   10.3159   -0.1841 H   0  0  0  0  0  0  0  0  0  0  0  0
    3.4389    9.3160    2.4567 H   0  0  0  0  0  0  0  0  0  0  0  0
    3.3509    8.3829    0.9821 H   0  0  0  0  0  0  0  0  0  0  0  0
   -0.1009    6.6726   -0.0702 H   0  0  0  0  0  0  0  0  0  0  0  0
    1.5662    7.0048   -0.4397 H   0  0  0  0  0  0  0  0  0  0  0  0
    2.0892    7.3102    3.3438 H   0  0  0  0  0  0  0  0  0  0  0  0
    0.4014    7.4966    3.2366 H   0  0  0  0  0  0  0  0  0  0  0  0
   -0.3511    5.6507    2.7177 H   0  0  0  0  0  0  0  0  0  0  0  0
    4.8576    0.6000    3.9426 H   0  0  0  0  0  0  0  0  0  0  0  0
    3.5121    8.9609    3.4808 H   0  0  0  0  0  0  0  0  0  0  0  0
    5.0761    8.3800    2.9616 H   0  0  0  0  0  0  0  0  0  0  0  0
    4.0146    9.1699    1.8204 H   0  0  0  0  0  0  0  0  0  0  0  0
   -2.3957    5.4609   -0.2996 H   0  0  0  0  0  0  0  0  0  0  0  0
   -0.7468    9.0964   -0.9321 H   0  0  0  0  0  0  0  0  0  0  0  0
   -0.2613   10.4370    0.2519 H   0  0  0  0  0  0  0  0  0  0  0  0
    1.0792   10.7585    2.0609 H   0  0  0  0  0  0  0  0  0  0  0  0
  1 12  1  0  0  0  0
  1 18  1  1  0  0  0
  1 26  1  0  0  0  0
  2  1  1  0  0  0  0
  2  3  1  0  0  0  0
  2 17  1  0  0  0  0
  2 28  1  6  0  0  0
  3  4  2  0  0  0  0
  3 29  1  0  0  0  0
  4 10  1  0  0  0  0
  4 30  1  0  0  0  0
  5 13  1  0  0  0  0
  5 31  1  0  0  0  0
  5 32  1  0  0  0  0
  6  5  1  0  0  0  0
  6 33  1  0  0  0  0
  6 34  1  0  0  0  0
  7  6  1  0  0  0  0
  7 11  1  0  0  0  0
  7 23  1  1  0  0  0
  8  7  1  0  0  0  0
  8  9  1  0  0  0  0
  9 15  1  0  0  0  0
  9 35  1  0  0  0  0
  9 36  1  0  0  0  0
 10 25  1  1  0  0  0
 11 37  1  0  0  0  0
 11 38  1  0  0  0  0
 12 10  1  0  0  0  0
 12 16  1  1  0  0  0
 13 10  1  0  0  0  0
 13 24  1  6  0  0  0
 14 12  1  0  0  0  0
 14 39  1  1  0  0  0
 14 19  1  0  0  0  0
 15 13  1  0  0  0  0
 15 14  1  0  0  0  0
 15 11  1  1  0  0  0
 17 40  1  0  0  0  0
 18 41  1  0  0  0  0
 18 42  1  0  0  0  0
 18 43  1  0  0  0  0
 20 19  2  0  0  0  0
 21 19  1  0  0  0  0
 21 44  1  0  0  0  0
 22  8  2  0  0  0  0
 22 45  1  0  0  0  0
 22 46  1  0  0  0  0
 23 47  1  0  0  0  0
 25 26  1  0  0  0  0
 27 26  2  0  0  0  0
M  END
>  <DRUGBANK_ID>
DB07814

>  <COMMON_NAME>
Gibberellic acid

>  <CAS_NUMBER>
77-06-5

>  <UNII>
BU0A7MWB6L

>  <SYNONYMS>
(+)-gibberellic acid; GA3; Gibberellic acid GA3; Gibberellin; Gibberellin 3; Gibberellin A3

$$$$
