
 OpenBabel10282417103D

203206  0  0  0  0  0  0  0  0999 V2000
  -10.4475   -4.2702    0.8414 S   0  0  0  0  0  0  0  0  0  0  0  0
  -10.9853   -3.1403    2.2010 C   0  0  0  0  0  0  0  0  0  0  0  0
  -10.6162   -1.7421    1.6685 C   0  0  2  0  0  0  0  0  0  0  0  0
  -10.6305   -1.7281    0.2053 N   0  0  0  0  0  0  0  0  0  0  0  0
  -10.5186   -2.9061   -0.2918 C   0  0  0  0  0  0  0  0  0  0  0  0
  -10.4564   -3.1176   -1.7919 C   0  0  1  0  0  0  0  0  0  0  0  0
  -11.6911   -2.5979   -2.3751 N   0  0  0  0  0  0  0  0  0  0  0  0
   -9.2204   -1.3443    2.1562 C   0  0  0  0  0  0  0  0  0  0  0  0
   -8.5438   -2.2500    3.0616 N   0  0  0  0  0  0  0  0  0  0  0  0
   -7.2031   -1.7627    3.4112 C   0  0  2  0  0  0  0  0  0  0  0  0
   -6.1468   -2.4827    2.5605 C   0  0  0  0  0  0  0  0  0  0  0  0
   -4.8961   -2.9345    3.1323 N   0  0  0  0  0  0  0  0  0  0  0  0
   -3.8727   -3.5780    2.3076 C   0  0  1  0  0  0  0  0  0  0  0  0
   -2.5942   -2.7696    2.3289 C   0  0  0  0  0  0  0  0  0  0  0  0
   -1.3807   -3.3463    2.7868 N   0  0  0  0  0  0  0  0  0  0  0  0
   -0.5252   -2.1906    1.8112 C   0  0  2  0  0  0  0  0  0  0  0  0
   -1.5969   -1.5209   -0.7284 C   0  0  0  0  0  0  0  0  0  0  0  0
   -2.9204   -1.3204   -3.4512 N   0  0  0  0  0  0  0  0  0  0  0  0
   -4.6013   -1.3313   -6.3041 C   0  0  2  0  0  0  0  0  0  0  0  0
   -6.9225   -1.5999   -9.4755 C   0  0  0  0  0  0  0  0  0  0  0  0
   -8.8845   -2.0960  -12.0947 N   0  0  0  0  0  0  0  0  0  0  0  0
  -10.8116   -2.7147  -14.7879 C   0  0  1  0  0  0  0  0  0  0  0  0
  -11.7577   -1.9582  -17.2297 C   0  0  0  0  0  0  0  0  0  0  0  0
  -10.9244   -1.7216  -16.5294 N   0  0  0  0  0  0  0  0  0  0  0  0
   -9.2503   -2.3880   -2.3645 C   0  0  1  0  0  0  0  0  0  0  0  0
   -7.9848   -2.9177   -1.7235 C   0  0  0  0  0  0  0  0  0  0  0  0
   -9.1896   -2.5957   -3.8663 C   0  0  0  0  0  0  0  0  0  0  0  0
  -10.4261   -2.0503   -4.5277 C   0  0  0  0  0  0  0  0  0  0  0  0
   -8.6726   -0.2853    1.7840 O   0  0  0  0  0  0  0  0  0  0  0  0
   -6.3860   -2.6411    1.3506 O   0  0  0  0  0  0  0  0  0  0  0  0
   -2.7203   -1.6274    1.9334 O   0  0  0  0  0  0  0  0  0  0  0  0
   -1.3530   -0.9405    1.2441 O   0  0  0  0  0  0  0  0  0  0  0  0
   -8.0164   -1.9703  -11.1409 O   0  0  0  0  0  0  0  0  0  0  0  0
  -11.9152   -0.6868  -17.7416 O   0  0  0  0  0  0  0  0  0  0  0  0
   -6.9262   -1.9730    4.8781 C   0  0  0  0  0  0  0  0  0  0  0  0
   -5.5598   -1.4260    5.2417 C   0  0  0  0  0  0  0  0  0  0  0  0
   -5.4904    0.0460    4.9237 C   0  0  0  0  0  0  0  0  0  0  0  0
   -5.2740   -1.6628    6.7009 C   0  0  0  0  0  0  0  0  0  0  0  0
   -3.6059   -4.9784    2.8124 C   0  0  0  0  0  0  0  0  0  0  0  0
   -4.8811   -5.7951    2.7814 C   0  0  0  0  0  0  0  0  0  0  0  0
   -5.4121   -5.8674    1.3518 C   0  0  0  0  0  0  0  0  0  0  0  0
   -5.5554   -7.1250    0.7441 O   0  0  0  0  0  0  0  0  0  0  0  0
   -5.7022   -4.8310    0.7370 O   0  0  0  0  0  0  0  0  0  0  0  0
    0.8118   -3.5150    2.1268 C   0  0  2  0  0  0  0  0  0  0  0  0
    0.6971   -3.2514    0.6653 C   0  0  0  0  0  0  0  0  0  0  0  0
    0.4444   -4.9692    2.4145 C   0  0  0  0  0  0  0  0  0  0  0  0
    2.0431   -3.4238    0.0249 C   0  0  0  0  0  0  0  0  0  0  0  0
   -2.2804   -0.9346   -4.0885 C   0  0  0  0  0  0  0  0  0  0  0  0
  -11.9368   -4.1579  -16.8135 C   0  0  0  0  0  0  0  0  0  0  0  0
   -9.9242   -0.4165  -15.9946 C   0  0  2  0  0  0  0  0  0  0  0  0
  -10.3689   -0.3887  -14.4725 C   0  0  0  0  0  0  0  0  0  0  0  0
  -11.5777   -0.1778  -14.2337 O   0  0  0  0  0  0  0  0  0  0  0  0
   -9.3531   -0.3884  -13.4770 N   0  0  0  0  0  0  0  0  0  0  0  0
   -9.7224   -0.0656  -12.0640 C   0  0  1  0  0  0  0  0  0  0  0  0
   -9.5761   -1.1156  -11.0056 C   0  0  0  0  0  0  0  0  0  0  0  0
   -8.6674   -0.8837   -9.9061 N   0  0  0  0  0  0  0  0  0  0  0  0
  -10.0990   -2.3785  -11.1808 O   0  0  0  0  0  0  0  0  0  0  0  0
   -8.3123   -2.2918   -8.9847 C   0  0  2  0  0  0  0  0  0  0  0  0
   -6.4541   -2.8370   -9.0095 C   0  0  0  0  0  0  0  0  0  0  0  0
   -5.8245   -2.3912   -7.9794 N   0  0  0  0  0  0  0  0  0  0  0  0
   -6.0732   -2.8457  -10.2978 O   0  0  0  0  0  0  0  0  0  0  0  0
   -4.3976   -2.6905   -8.0449 C   0  0  1  0  0  0  0  0  0  0  0  0
   -3.5395   -1.4545   -7.6882 C   0  0  0  0  0  0  0  0  0  0  0  0
   -2.6892   -1.5353   -6.4620 N   0  0  0  0  0  0  0  0  0  0  0  0
   -3.7474   -0.3720   -8.2469 O   0  0  0  0  0  0  0  0  0  0  0  0
   -0.3805   -1.0718   -2.1339 C   0  0  0  0  0  0  0  0  0  0  0  0
  -10.5533   -4.4017  -17.1139 C   0  0  0  0  0  0  0  0  0  0  0  0
   -9.8331   -3.1102  -17.0986 C   0  0  0  0  0  0  0  0  0  0  0  0
   -9.6607   -2.4156  -15.4656 N   0  0  0  0  0  0  0  0  0  0  0  0
  -10.3021    0.4270  -16.8833 C   0  0  1  0  0  0  0  0  0  0  0  0
   -9.5301    1.5916  -16.4158 C   0  0  0  0  0  0  0  0  0  0  0  0
   -9.9062    0.0144  -18.2858 C   0  0  0  0  0  0  0  0  0  0  0  0
  -10.6085   -1.1483  -18.8919 C   0  0  0  0  0  0  0  0  0  0  0  0
   -8.9480    1.1523  -11.6349 C   0  0  0  0  0  0  0  0  0  0  0  0
   -9.2726    2.2971  -12.5479 C   0  0  0  0  0  0  0  0  0  0  0  0
  -10.3013    2.1736  -13.4165 C   0  0  0  0  0  0  0  0  0  0  0  0
  -10.7752    3.2504  -14.1138 C   0  0  0  0  0  0  0  0  0  0  0  0
  -10.1773    4.4672  -14.0121 C   0  0  0  0  0  0  0  0  0  0  0  0
   -9.2098    4.5858  -13.0808 C   0  0  0  0  0  0  0  0  0  0  0  0
   -8.6019    3.4935  -12.4555 C   0  0  0  0  0  0  0  0  0  0  0  0
   -8.9214   -3.4371   -9.5650 C   0  0  0  0  0  0  0  0  0  0  0  0
   -8.5997   -4.5796   -8.6686 C   0  0  0  0  0  0  0  0  0  0  0  0
   -7.3411   -4.9964   -8.3550 N   0  0  0  0  0  0  0  0  0  0  0  0
   -7.5718   -6.1501   -7.6991 C   0  0  0  0  0  0  0  0  0  0  0  0
   -8.8158   -6.3037   -7.3214 N   0  0  0  0  0  0  0  0  0  0  0  0
   -9.5145   -5.3802   -8.0428 C   0  0  0  0  0  0  0  0  0  0  0  0
   -1.9713   -0.3364   -6.0370 C   0  0  2  0  0  0  0  0  0  0  0  0
   -2.4370    0.3063   -4.8491 C   0  0  0  0  0  0  0  0  0  0  0  0
   -1.2671    0.5894   -3.9848 N   0  0  0  0  0  0  0  0  0  0  0  0
   -3.5916    0.5113   -4.3673 O   0  0  0  0  0  0  0  0  0  0  0  0
   -2.2840    0.8363   -6.9184 C   0  0  0  0  0  0  0  0  0  0  0  0
   -1.5071    2.0705   -6.4857 C   0  0  0  0  0  0  0  0  0  0  0  0
   -0.7021    2.6038   -7.2731 O   0  0  0  0  0  0  0  0  0  0  0  0
   -1.7156    2.6073   -5.1604 N   0  0  0  0  0  0  0  0  0  0  0  0
   -2.4550   -0.7276   -1.3751 C   0  0  0  0  0  0  0  0  0  0  0  0
   -4.0798   -3.8445   -7.1260 C   0  0  0  0  0  0  0  0  0  0  0  0
   -1.8474    0.7307   -2.3297 C   0  0  0  0  0  0  0  0  0  0  0  0
   -5.0484   -5.0100   -7.2068 C   0  0  0  0  0  0  0  0  0  0  0  0
   -4.6657   -6.1249   -7.6011 O   0  0  0  0  0  0  0  0  0  0  0  0
   -6.3281   -4.7400   -6.7606 O   0  0  0  0  0  0  0  0  0  0  0  0
  -10.5291   -3.3697    3.1511 H   0  0  0  0  0  0  0  0  0  0  0  0
  -12.0439   -3.2268    2.3818 H   0  0  0  0  0  0  0  0  0  0  0  0
  -11.3425   -1.0209    2.0184 H   0  0  0  0  0  0  0  0  0  0  0  0
  -10.3656   -4.1692   -2.0053 H   0  0  0  0  0  0  0  0  0  0  0  0
  -11.7247   -2.7904   -3.2857 H   0  0  0  0  0  0  0  0  0  0  0  0
  -12.4918   -3.0929   -2.0363 H   0  0  0  0  0  0  0  0  0  0  0  0
   -8.9807   -3.1262    3.3706 H   0  0  0  0  0  0  0  0  0  0  0  0
   -7.1625   -0.7014    3.1875 H   0  0  0  0  0  0  0  0  0  0  0  0
   -4.6820   -2.8767    4.0983 H   0  0  0  0  0  0  0  0  0  0  0  0
   -4.2372   -3.6256    1.2924 H   0  0  0  0  0  0  0  0  0  0  0  0
   -1.3444   -4.3332    3.1231 H   0  0  0  0  0  0  0  0  0  0  0  0
    0.0670   -2.4101    3.7922 H   0  0  0  0  0  0  0  0  0  0  0  0
   -1.5121   -0.9681   -1.9858 H   0  0  0  0  0  0  0  0  0  0  0  0
   -3.7669   -0.8943   -4.6063 H   0  0  0  0  0  0  0  0  0  0  0  0
  -10.5131   -2.2470  -13.6314 H   0  0  0  0  0  0  0  0  0  0  0  0
  -11.6335   -3.0484  -17.1096 H   0  0  0  0  0  0  0  0  0  0  0  0
  -10.3772   -3.1178  -15.9278 H   0  0  0  0  0  0  0  0  0  0  0  0
   -9.3398   -1.3324   -2.1558 H   0  0  0  0  0  0  0  0  0  0  0  0
   -7.8897   -3.9707   -1.9281 H   0  0  0  0  0  0  0  0  0  0  0  0
   -7.1294   -2.4013   -2.1207 H   0  0  0  0  0  0  0  0  0  0  0  0
   -8.0245   -2.7681   -0.6586 H   0  0  0  0  0  0  0  0  0  0  0  0
   -8.3345   -2.0804   -4.2683 H   0  0  0  0  0  0  0  0  0  0  0  0
   -9.0955   -3.6494   -4.0767 H   0  0  0  0  0  0  0  0  0  0  0  0
  -10.5465   -1.0108   -4.3035 H   0  0  0  0  0  0  0  0  0  0  0  0
  -10.4084   -2.2132   -5.5757 H   0  0  0  0  0  0  0  0  0  0  0  0
  -11.2415   -2.5522   -4.2807 H   0  0  0  0  0  0  0  0  0  0  0  0
   -7.6705   -1.4614    5.4665 H   0  0  0  0  0  0  0  0  0  0  0  0
   -6.9696   -3.0269    5.0990 H   0  0  0  0  0  0  0  0  0  0  0  0
   -4.8111   -1.8679    4.6993 H   0  0  0  0  0  0  0  0  0  0  0  0
   -6.2318    0.5653    5.5054 H   0  0  0  0  0  0  0  0  0  0  0  0
   -4.5158    0.4290    5.1653 H   0  0  0  0  0  0  0  0  0  0  0  0
   -5.6827    0.2114    3.8779 H   0  0  0  0  0  0  0  0  0  0  0  0
   -5.3132   -2.7153    6.9221 H   0  0  0  0  0  0  0  0  0  0  0  0
   -4.2976   -1.2851    6.9504 H   0  0  0  0  0  0  0  0  0  0  0  0
   -6.0133   -1.1495    7.2912 H   0  0  0  0  0  0  0  0  0  0  0  0
   -2.8632   -5.4520    2.1897 H   0  0  0  0  0  0  0  0  0  0  0  0
   -3.2297   -4.9246    3.8230 H   0  0  0  0  0  0  0  0  0  0  0  0
   -4.6870   -6.7830    3.1541 H   0  0  0  0  0  0  0  0  0  0  0  0
   -5.6193   -5.3211    3.4141 H   0  0  0  0  0  0  0  0  0  0  0  0
   -5.3260   -7.9615    1.2266 H   0  0  0  0  0  0  0  0  0  0  0  0
    1.8342   -3.3547    2.4530 H   0  0  0  0  0  0  0  0  0  0  0  0
   -0.0252   -3.9050    0.2048 H   0  0  0  0  0  0  0  0  0  0  0  0
    0.3727   -2.2423    0.5498 H   0  0  0  0  0  0  0  0  0  0  0  0
    1.0859   -5.6241    1.8618 H   0  0  0  0  0  0  0  0  0  0  0  0
    0.5352   -5.1783    3.4671 H   0  0  0  0  0  0  0  0  0  0  0  0
   -0.5727   -5.1479    2.1046 H   0  0  0  0  0  0  0  0  0  0  0  0
    2.3735   -4.4364    0.1703 H   0  0  0  0  0  0  0  0  0  0  0  0
    1.9842   -3.2168   -1.0284 H   0  0  0  0  0  0  0  0  0  0  0  0
    2.7516   -2.7509    0.4786 H   0  0  0  0  0  0  0  0  0  0  0  0
   -0.7299    0.0347   -2.7157 H   0  0  0  0  0  0  0  0  0  0  0  0
   -0.5553   -0.4408   -2.6910 H   0  0  0  0  0  0  0  0  0  0  0  0
  -12.4165   -3.8530  -16.1132 H   0  0  0  0  0  0  0  0  0  0  0  0
  -12.4841   -5.2978  -17.0555 H   0  0  0  0  0  0  0  0  0  0  0  0
   -8.9043   -0.9758  -15.9841 H   0  0  0  0  0  0  0  0  0  0  0  0
   -8.3848   -0.6596  -13.6662 H   0  0  0  0  0  0  0  0  0  0  0  0
  -10.7790    0.1273  -12.0219 H   0  0  0  0  0  0  0  0  0  0  0  0
   -8.0200   -0.1309   -9.8816 H   0  0  0  0  0  0  0  0  0  0  0  0
   -8.4266   -1.9259   -8.1032 H   0  0  0  0  0  0  0  0  0  0  0  0
   -6.2745   -2.1374   -7.1018 H   0  0  0  0  0  0  0  0  0  0  0  0
   -4.1201   -2.9316   -9.0512 H   0  0  0  0  0  0  0  0  0  0  0  0
   -2.6187   -2.3995   -5.9236 H   0  0  0  0  0  0  0  0  0  0  0  0
    0.4519   -1.4229   -2.3731 H   0  0  0  0  0  0  0  0  0  0  0  0
    0.3135   -1.8733   -0.7371 H   0  0  0  0  0  0  0  0  0  0  0  0
  -10.1913   -4.9367  -16.2728 H   0  0  0  0  0  0  0  0  0  0  0  0
  -10.2695   -4.8575  -18.0254 H   0  0  0  0  0  0  0  0  0  0  0  0
   -8.8954   -3.0129  -17.1300 H   0  0  0  0  0  0  0  0  0  0  0  0
  -10.2567   -2.7715  -17.8217 H   0  0  0  0  0  0  0  0  0  0  0  0
  -10.0165   -1.6743  -15.7456 H   0  0  0  0  0  0  0  0  0  0  0  0
  -10.7907   -1.6394  -15.3532 H   0  0  0  0  0  0  0  0  0  0  0  0
  -11.3556    0.5881  -16.7980 H   0  0  0  0  0  0  0  0  0  0  0  0
   -8.4738    1.3833  -16.4503 H   0  0  0  0  0  0  0  0  0  0  0  0
   -9.7567    2.4143  -17.0591 H   0  0  0  0  0  0  0  0  0  0  0  0
   -9.7967    1.8413  -15.4120 H   0  0  0  0  0  0  0  0  0  0  0  0
  -10.1457    0.8273  -18.9290 H   0  0  0  0  0  0  0  0  0  0  0  0
   -8.8625   -0.2052  -18.3198 H   0  0  0  0  0  0  0  0  0  0  0  0
  -11.7253   -1.1361  -19.0582 H   0  0  0  0  0  0  0  0  0  0  0  0
  -10.4069   -1.4884  -19.7542 H   0  0  0  0  0  0  0  0  0  0  0  0
  -10.4614   -1.7376  -18.2569 H   0  0  0  0  0  0  0  0  0  0  0  0
   -9.1706    1.4343  -10.6138 H   0  0  0  0  0  0  0  0  0  0  0  0
   -7.8990    0.9190  -11.7094 H   0  0  0  0  0  0  0  0  0  0  0  0
  -10.7358    1.2223  -13.5645 H   0  0  0  0  0  0  0  0  0  0  0  0
  -11.6280    3.1294  -14.7500 H   0  0  0  0  0  0  0  0  0  0  0  0
  -10.4540    5.2939  -14.6330 H   0  0  0  0  0  0  0  0  0  0  0  0
   -8.9118    5.5740  -12.8145 H   0  0  0  0  0  0  0  0  0  0  0  0
   -7.6647    3.5816  -11.9238 H   0  0  0  0  0  0  0  0  0  0  0  0
   -9.9753   -3.2129   -9.5354 H   0  0  0  0  0  0  0  0  0  0  0  0
   -8.6444   -3.6797  -10.5866 H   0  0  0  0  0  0  0  0  0  0  0  0
   -6.6600   -6.5990   -7.0818 H   0  0  0  0  0  0  0  0  0  0  0  0
   -9.1734   -7.0549   -6.7458 H   0  0  0  0  0  0  0  0  0  0  0  0
  -10.5816   -5.3060   -8.1110 H   0  0  0  0  0  0  0  0  0  0  0  0
   -0.9164   -0.5476   -6.0520 H   0  0  0  0  0  0  0  0  0  0  0  0
   -0.3643   -0.1634   -3.8100 H   0  0  0  0  0  0  0  0  0  0  0  0
   -2.0148    0.5785   -7.9365 H   0  0  0  0  0  0  0  0  0  0  0  0
   -3.3459    1.0435   -6.8847 H   0  0  0  0  0  0  0  0  0  0  0  0
   -2.3733    2.1671   -4.4998 H   0  0  0  0  0  0  0  0  0  0  0  0
   -1.1946    3.4261   -4.8430 H   0  0  0  0  0  0  0  0  0  0  0  0
   -2.0541   -1.8376   -1.6611 H   0  0  0  0  0  0  0  0  0  0  0  0
   -1.8607   -0.2730   -0.2384 H   0  0  0  0  0  0  0  0  0  0  0  0
   -3.1012   -4.1751   -7.4424 H   0  0  0  0  0  0  0  0  0  0  0  0
   -4.0129   -3.5014   -6.1053 H   0  0  0  0  0  0  0  0  0  0  0  0
   -2.8042    0.6427   -2.1081 H   0  0  0  0  0  0  0  0  0  0  0  0
   -1.1596    1.2843   -1.8148 H   0  0  0  0  0  0  0  0  0  0  0  0
   -6.9622   -5.4038   -6.6853 H   0  0  0  0  0  0  0  0  0  0  0  0
  1  2  1  0  0  0  0
  1  5  1  0  0  0  0
  2101  1  0  0  0  0
  2102  1  0  0  0  0
  3  2  1  0  0  0  0
  3  4  1  0  0  0  0
  3103  1  1  0  0  0
  3  8  1  0  0  0  0
  4  5  2  0  0  0  0
  5  6  1  0  0  0  0
  6  7  1  0  0  0  0
  6 25  1  0  0  0  0
  6104  1  6  0  0  0
  7105  1  0  0  0  0
  7106  1  0  0  0  0
  8  9  1  0  0  0  0
  8 29  2  0  0  0  0
  9107  1  0  0  0  0
 10 35  1  0  0  0  0
 10108  1  6  0  0  0
 10 11  1  0  0  0  0
 10  9  1  0  0  0  0
 11 12  1  0  0  0  0
 11 30  2  0  0  0  0
 12 13  1  0  0  0  0
 12109  1  0  0  0  0
 13 14  1  0  0  0  0
 13 39  1  0  0  0  0
 13110  1  6  0  0  0
 14 15  1  0  0  0  0
 14 31  2  0  0  0  0
 15111  1  0  0  0  0
 16112  1  1  0  0  0
 16 17  1  0  0  0  0
 16 15  1  0  0  0  0
 17 18  1  0  0  0  0
 17 32  2  0  0  0  0
 18 19  1  0  0  0  0
 18113  1  0  0  0  0
 19 20  1  0  0  0  0
 19 48  1  0  0  0  0
 19114  1  1  0  0  0
 20 21  1  0  0  0  0
 20 33  2  0  0  0  0
 21 22  1  0  0  0  0
 21115  1  0  0  0  0
 22 23  1  0  0  0  0
 22116  1  1  0  0  0
 22 49  1  0  0  0  0
 23 24  1  0  0  0  0
 23 34  2  0  0  0  0
 24117  1  0  0  0  0
 25 26  1  0  0  0  0
 25 27  1  0  0  0  0
 25118  1  1  0  0  0
 26119  1  0  0  0  0
 26120  1  0  0  0  0
 26121  1  0  0  0  0
 27 28  1  0  0  0  0
 27122  1  0  0  0  0
 27123  1  0  0  0  0
 28124  1  0  0  0  0
 28125  1  0  0  0  0
 28126  1  0  0  0  0
 35 36  1  0  0  0  0
 35127  1  0  0  0  0
 35128  1  0  0  0  0
 36 37  1  0  0  0  0
 36 38  1  0  0  0  0
 36129  1  0  0  0  0
 37130  1  0  0  0  0
 37131  1  0  0  0  0
 37132  1  0  0  0  0
 38133  1  0  0  0  0
 38134  1  0  0  0  0
 38135  1  0  0  0  0
 39 40  1  0  0  0  0
 39136  1  0  0  0  0
 39137  1  0  0  0  0
 40 41  1  0  0  0  0
 40138  1  0  0  0  0
 40139  1  0  0  0  0
 41 42  1  0  0  0  0
 41 43  2  0  0  0  0
 42140  1  0  0  0  0
 44 46  1  0  0  0  0
 44141  1  1  0  0  0
 44 45  1  0  0  0  0
 44 16  1  0  0  0  0
 45 47  1  0  0  0  0
 45142  1  0  0  0  0
 45143  1  0  0  0  0
 46144  1  0  0  0  0
 46145  1  0  0  0  0
 46146  1  0  0  0  0
 47147  1  0  0  0  0
 47148  1  0  0  0  0
 47149  1  0  0  0  0
 48 66  1  0  0  0  0
 48150  1  0  0  0  0
 48151  1  0  0  0  0
 49 67  1  0  0  0  0
 49152  1  0  0  0  0
 49153  1  0  0  0  0
 50 24  1  0  0  0  0
 50 51  1  0  0  0  0
 50 70  1  0  0  0  0
 50154  1  6  0  0  0
 51 52  2  0  0  0  0
 51 53  1  0  0  0  0
 53 54  1  0  0  0  0
 53155  1  0  0  0  0
 54 55  1  0  0  0  0
 54156  1  6  0  0  0
 54 74  1  0  0  0  0
 55 56  1  0  0  0  0
 55 57  2  0  0  0  0
 56 58  1  0  0  0  0
 56157  1  0  0  0  0
 58 59  1  0  0  0  0
 58 81  1  0  0  0  0
 58158  1  1  0  0  0
 59 60  1  0  0  0  0
 59 61  2  0  0  0  0
 60 62  1  0  0  0  0
 60159  1  0  0  0  0
 62 63  1  0  0  0  0
 62160  1  6  0  0  0
 62 96  1  0  0  0  0
 63 64  1  0  0  0  0
 63 65  2  0  0  0  0
 64 87  1  0  0  0  0
 64161  1  0  0  0  0
 66 95  1  0  0  0  0
 66162  1  0  0  0  0
 66163  1  0  0  0  0
 67 68  1  0  0  0  0
 67164  1  0  0  0  0
 67165  1  0  0  0  0
 68 69  1  0  0  0  0
 68166  1  0  0  0  0
 68167  1  0  0  0  0
 69168  1  0  0  0  0
 69169  1  0  0  0  0
 70 71  1  0  0  0  0
 70 72  1  0  0  0  0
 70170  1  1  0  0  0
 71171  1  0  0  0  0
 71172  1  0  0  0  0
 71173  1  0  0  0  0
 72 73  1  0  0  0  0
 72174  1  0  0  0  0
 72175  1  0  0  0  0
 73176  1  0  0  0  0
 73177  1  0  0  0  0
 73178  1  0  0  0  0
 74 75  1  0  0  0  0
 74179  1  0  0  0  0
 74180  1  0  0  0  0
 75 76  2  0  0  0  0
 75 80  1  0  0  0  0
 76 77  1  0  0  0  0
 76181  1  0  0  0  0
 77 78  2  0  0  0  0
 77182  1  0  0  0  0
 78 79  1  0  0  0  0
 78183  1  0  0  0  0
 79 80  2  0  0  0  0
 79184  1  0  0  0  0
 80185  1  0  0  0  0
 81 82  1  0  0  0  0
 81186  1  0  0  0  0
 81187  1  0  0  0  0
 82 83  1  0  0  0  0
 82 86  2  0  0  0  0
 83 84  2  0  0  0  0
 84 85  1  0  0  0  0
 84188  1  0  0  0  0
 85 86  1  0  0  0  0
 85189  1  0  0  0  0
 86190  1  0  0  0  0
 87 88  1  0  0  0  0
 87 91  1  0  0  0  0
 87191  1  1  0  0  0
 88 89  1  0  0  0  0
 88 90  2  0  0  0  0
 89 97  1  0  0  0  0
 89192  1  0  0  0  0
 91 92  1  0  0  0  0
 91193  1  0  0  0  0
 91194  1  0  0  0  0
 92 93  2  0  0  0  0
 92 94  1  0  0  0  0
 94195  1  0  0  0  0
 94196  1  0  0  0  0
 95 97  1  0  0  0  0
 95197  1  0  0  0  0
 95198  1  0  0  0  0
 96 98  1  0  0  0  0
 96199  1  0  0  0  0
 96200  1  0  0  0  0
 97201  1  0  0  0  0
 97202  1  0  0  0  0
 98 99  2  0  0  0  0
 98100  1  0  0  0  0
100203  1  0  0  0  0
M  END
>  <DRUGBANK_ID>
DB00626

>  <SECONDARY_ACCESSION_NUMBERS>
APRD00816

>  <COMMON_NAME>
Bacitracin

>  <CAS_NUMBER>
1405-87-4

>  <UNII>
DDA3RRX0P7

>  <SYNONYMS>
Bacitracin; Bacitracin A; Bacitracina

$$$$
