
 OpenBabel10282417203D

 30 31  0  0  0  0  0  0  0  0999 V2000
   -2.4993   -0.0249   -0.0009 C   0  0  0  0  0  0  0  0  0  0  0  0
    6.2479    2.7993    3.0469 C   0  0  0  0  0  0  0  0  0  0  0  0
    6.3451    0.3975    3.1003 C   0  0  0  0  0  0  0  0  0  0  0  0
    5.4172    2.7439    1.9222 C   0  0  0  0  0  0  0  0  0  0  0  0
    5.5252    0.3265    1.9666 C   0  0  0  0  0  0  0  0  0  0  0  0
   -0.2256   -1.1451   -0.0043 C   0  0  0  0  0  0  0  0  0  0  0  0
   -0.2967    1.1666   -0.0014 C   0  0  0  0  0  0  0  0  0  0  0  0
   -1.0090   -0.0079   -0.0064 C   0  0  0  0  0  0  0  0  0  0  0  0
    6.7072    1.6290    3.6554 C   0  0  0  0  0  0  0  0  0  0  0  0
    5.0600    1.5048    1.3805 C   0  0  0  0  0  0  0  0  0  0  0  0
    1.7070    0.0728   -0.0354 C   0  0  0  0  0  0  0  0  0  0  0  0
    7.5515    1.6887    4.7486 N   0  0  0  0  0  0  0  0  0  0  0  0
    1.1326   -1.1383   -0.0115 N   0  0  0  0  0  0  0  0  0  0  0  0
    1.0440    1.2193    0.0194 N   0  0  0  0  0  0  0  0  0  0  0  0
    3.0863    0.0632    0.2299 N   0  0  0  0  0  0  0  0  0  0  0  0
    4.8500    1.2136   -1.1832 O   0  0  0  0  0  0  0  0  0  0  0  0
    3.1933    2.6708    0.0358 O   0  0  0  0  0  0  0  0  0  0  0  0
    3.9841    1.4579   -0.0531 S   0  0  0  0  0  0  0  0  0  0  0  0
   -2.8875    0.4761    0.8929 H   0  0  0  0  0  0  0  0  0  0  0  0
   -2.8920    0.4835   -0.8882 H   0  0  0  0  0  0  0  0  0  0  0  0
   -2.8870   -1.0484   -0.0039 H   0  0  0  0  0  0  0  0  0  0  0  0
    6.5316    3.7697    3.4467 H   0  0  0  0  0  0  0  0  0  0  0  0
    6.7021   -0.5246    3.5516 H   0  0  0  0  0  0  0  0  0  0  0  0
    5.0626    3.6699    1.4742 H   0  0  0  0  0  0  0  0  0  0  0  0
    5.2697   -0.6465    1.5606 H   0  0  0  0  0  0  0  0  0  0  0  0
   -0.6860   -2.1310    0.0133 H   0  0  0  0  0  0  0  0  0  0  0  0
   -0.7801    2.1392    0.0022 H   0  0  0  0  0  0  0  0  0  0  0  0
    7.8473    0.8448    5.2195 H   0  0  0  0  0  0  0  0  0  0  0  0
    7.7738    2.5767    5.1778 H   0  0  0  0  0  0  0  0  0  0  0  0
    3.5020   -0.7706   -0.1788 H   0  0  0  0  0  0  0  0  0  0  0  0
  1 19  1  0  0  0  0
  1 20  1  0  0  0  0
  1 21  1  0  0  0  0
  2 22  1  0  0  0  0
  3 23  1  0  0  0  0
  4  2  1  0  0  0  0
  4 24  1  0  0  0  0
  5  3  2  0  0  0  0
  5 25  1  0  0  0  0
  6 26  1  0  0  0  0
  7 27  1  0  0  0  0
  8  1  1  0  0  0  0
  8  6  2  0  0  0  0
  8  7  1  0  0  0  0
  9  2  2  0  0  0  0
  9  3  1  0  0  0  0
 10  4  2  0  0  0  0
 10  5  1  0  0  0  0
 12  9  1  0  0  0  0
 12 28  1  0  0  0  0
 12 29  1  0  0  0  0
 13  6  1  0  0  0  0
 13 11  2  0  0  0  0
 14  7  2  0  0  0  0
 14 11  1  0  0  0  0
 15 11  1  0  0  0  0
 15 30  1  0  0  0  0
 18 10  1  0  0  0  0
 18 15  1  0  0  0  0
 18 16  2  0  0  0  0
 18 17  2  0  0  0  0
M  END
>  <DRUGBANK_ID>
DB13320

>  <COMMON_NAME>
Sulfaperin

>  <CAS_NUMBER>
599-88-2

>  <UNII>
W5E840UV9P

>  <SYNONYMS>
Sulfaperin; sulfaperina

$$$$
