RIV
 OpenBabel10282417153D

 47 50  0  0  0  0  0  0  0  0999 V2000
    1.0252    1.3713    0.0353 C   0  0  0  0  0  0  0  0  0  0  0  0
   -0.4399    1.2287    0.1019 N   0  0  0  0  0  0  0  0  0  0  0  0
    1.7356    0.1100   -0.4560 C   0  0  0  0  0  0  0  0  0  0  0  0
   -1.0539   -0.0229    0.0482 C   0  0  0  0  0  0  0  0  0  0  0  0
    1.2543   -1.0184    0.2693 O   0  0  0  0  0  0  0  0  0  0  0  0
   -0.1103   -1.2319   -0.0612 C   0  0  0  0  0  0  0  0  0  0  0  0
   -2.5987    4.6973    1.2674 C   0  0  0  0  0  0  0  0  0  0  0  0
   -2.6250    3.5535    2.0694 C   0  0  0  0  0  0  0  0  0  0  0  0
   -1.8542    4.6824    0.0852 C   0  0  0  0  0  0  0  0  0  0  0  0
   -1.9529    2.3886    1.6643 C   0  0  0  0  0  0  0  0  0  0  0  0
   -1.1609    3.5277   -0.3046 C   0  0  0  0  0  0  0  0  0  0  0  0
   -1.1928    2.3772    0.4865 C   0  0  0  0  0  0  0  0  0  0  0  0
   -2.2751   -0.1835   -0.0029 O   0  0  0  0  0  0  0  0  0  0  0  0
   -3.3756    5.8191    1.6034 N   0  0  0  0  0  0  0  0  0  0  0  0
   -3.3681    6.4749    2.8109 C   0  0  0  0  0  0  0  0  0  0  0  0
   -4.4095    6.3242    0.7567 C   0  0  0  0  0  0  0  0  0  0  0  0
   -4.3609    7.4194    2.8283 O   0  0  0  0  0  0  0  0  0  0  0  0
   -5.2173    7.2081    1.6922 C   0  0  1  0  0  0  0  0  0  0  0  0
   -2.5812    6.3200    3.7371 O   0  0  0  0  0  0  0  0  0  0  0  0
   -5.6256    8.5422    1.0604 C   0  0  0  0  0  0  0  0  0  0  0  0
   -6.5415    8.3641   -0.0660 N   0  0  0  0  0  0  0  0  0  0  0  0
   -7.7928    8.9639   -0.1048 C   0  0  0  0  0  0  0  0  0  0  0  0
   -9.5261    9.8910   -2.0342 S   0  0  0  0  0  0  0  0  0  0  0  0
  -10.1535    8.8055   -3.1720 C   0  0  0  0  0  0  0  0  0  0  0  0
   -8.5859    8.6573   -1.2881 C   0  0  0  0  0  0  0  0  0  0  0  0
   -9.7098    7.5209   -2.9993 C   0  0  0  0  0  0  0  0  0  0  0  0
   -8.7704    7.4408   -1.9251 C   0  0  0  0  0  0  0  0  0  0  0  0
   -8.1929    9.6743    0.8119 O   0  0  0  0  0  0  0  0  0  0  0  0
  -11.2467    9.3465   -4.3828 Cl  0  0  0  0  0  0  0  0  0  0  0  0
   -6.1143    6.6868    2.0506 H   0  0  0  0  0  0  0  0  0  0  0  0
    1.3804    1.6103    1.0461 H   0  0  0  0  0  0  0  0  0  0  0  0
    1.2839    2.2033   -0.6279 H   0  0  0  0  0  0  0  0  0  0  0  0
    2.8163    0.1844   -0.2954 H   0  0  0  0  0  0  0  0  0  0  0  0
    1.5697   -0.0502   -1.5278 H   0  0  0  0  0  0  0  0  0  0  0  0
   -0.4930   -2.0106    0.6059 H   0  0  0  0  0  0  0  0  0  0  0  0
   -0.1623   -1.6122   -1.0887 H   0  0  0  0  0  0  0  0  0  0  0  0
   -3.2028    3.5402    2.9911 H   0  0  0  0  0  0  0  0  0  0  0  0
   -1.7606    5.5812   -0.5176 H   0  0  0  0  0  0  0  0  0  0  0  0
   -2.0191    1.5019    2.2908 H   0  0  0  0  0  0  0  0  0  0  0  0
   -0.6488    3.5145   -1.2622 H   0  0  0  0  0  0  0  0  0  0  0  0
   -3.9652    6.8756   -0.0773 H   0  0  0  0  0  0  0  0  0  0  0  0
   -5.0300    5.5112    0.3622 H   0  0  0  0  0  0  0  0  0  0  0  0
   -6.0816    9.1799    1.8270 H   0  0  0  0  0  0  0  0  0  0  0  0
   -4.7417    9.0864    0.7056 H   0  0  0  0  0  0  0  0  0  0  0  0
   -6.2095    7.9026   -0.9029 H   0  0  0  0  0  0  0  0  0  0  0  0
  -10.0382    6.6842   -3.6041 H   0  0  0  0  0  0  0  0  0  0  0  0
   -8.3037    6.5198   -1.6004 H   0  0  0  0  0  0  0  0  0  0  0  0
  1  2  1  0  0  0  0
  1  3  1  0  0  0  0
  1 31  1  0  0  0  0
  1 32  1  0  0  0  0
  2  4  1  0  0  0  0
  2 12  1  0  0  0  0
  3  5  1  0  0  0  0
  3 33  1  0  0  0  0
  3 34  1  0  0  0  0
  4  6  1  0  0  0  0
  4 13  2  0  0  0  0
  5  6  1  0  0  0  0
  6 35  1  0  0  0  0
  6 36  1  0  0  0  0
  7  8  1  0  0  0  0
  7  9  2  0  0  0  0
  7 14  1  0  0  0  0
  8 10  2  0  0  0  0
  8 37  1  0  0  0  0
  9 11  1  0  0  0  0
  9 38  1  0  0  0  0
 10 12  1  0  0  0  0
 10 39  1  0  0  0  0
 11 12  2  0  0  0  0
 11 40  1  0  0  0  0
 14 15  1  0  0  0  0
 14 16  1  0  0  0  0
 15 17  1  0  0  0  0
 15 19  2  0  0  0  0
 16 18  1  0  0  0  0
 16 41  1  0  0  0  0
 16 42  1  0  0  0  0
 17 18  1  0  0  0  0
 18 20  1  0  0  0  0
 18 30  1  1  0  0  0
 20 21  1  0  0  0  0
 20 43  1  0  0  0  0
 20 44  1  0  0  0  0
 21 22  1  0  0  0  0
 21 45  1  0  0  0  0
 22 25  1  0  0  0  0
 22 28  2  0  0  0  0
 23 24  1  0  0  0  0
 23 25  1  0  0  0  0
 24 26  2  0  0  0  0
 24 29  1  0  0  0  0
 25 27  2  0  0  0  0
 26 27  1  0  0  0  0
 26 46  1  0  0  0  0
 27 47  1  0  0  0  0
M  END
>  <DRUGBANK_ID>
DB06228

>  <SECONDARY_ACCESSION_NUMBERS>
DB08477

>  <COMMON_NAME>
Rivaroxaban

>  <CAS_NUMBER>
366789-02-8

>  <UNII>
9NDF7JZ4M3

>  <SYNONYMS>
Rivaroxaban

$$$$
