
 OpenBabel10282417213D

 17 16  0  0  0  0  0  0  0  0999 V2000
    1.1880   -1.1507    2.0082 C   0  0  0  0  0  0  0  0  0  0  0  0
    0.3440   -0.0825    2.7270 C   0  0  1  0  0  0  0  0  0  0  0  0
    1.1252    0.8598    3.4592 O   0  0  0  0  0  0  0  0  0  0  0  0
   -0.5469    0.6541    1.7009 C   0  0  2  0  0  0  0  0  0  0  0  0
    0.2271    1.3129    0.6826 O   0  0  0  0  0  0  0  0  0  0  0  0
   -1.3531    1.7669    2.3765 C   0  0  0  0  0  0  0  0  0  0  0  0
   -2.1859    2.4010    1.4025 O   0  0  0  0  0  0  0  0  0  0  0  0
    2.0176   -0.9198    1.1374 O   0  0  0  0  0  0  0  0  0  0  0  0
    0.9887   -2.4191    2.4431 O   0  0  0  0  0  0  0  0  0  0  0  0
   -0.3043   -0.5761    3.4619 H   0  0  0  0  0  0  0  0  0  0  0  0
    1.7907    0.3798    3.9791 H   0  0  0  0  0  0  0  0  0  0  0  0
   -1.2191   -0.0545    1.1992 H   0  0  0  0  0  0  0  0  0  0  0  0
   -0.0821    1.0007   -0.1856 H   0  0  0  0  0  0  0  0  0  0  0  0
   -1.9902    1.3763    3.1738 H   0  0  0  0  0  0  0  0  0  0  0  0
   -0.6959    2.5398    2.7903 H   0  0  0  0  0  0  0  0  0  0  0  0
   -1.5622    2.7783    0.7513 H   0  0  0  0  0  0  0  0  0  0  0  0
    0.3555   -2.5553    3.1711 H   0  0  0  0  0  0  0  0  0  0  0  0
  1  2  1  0  0  0  0
  1  8  2  0  0  0  0
  1  9  1  0  0  0  0
  2  3  1  0  0  0  0
  2 10  1  1  0  0  0
  3 11  1  0  0  0  0
  4  6  1  0  0  0  0
  4 12  1  6  0  0  0
  4  5  1  0  0  0  0
  4  2  1  0  0  0  0
  5 13  1  0  0  0  0
  6  7  1  0  0  0  0
  6 14  1  0  0  0  0
  6 15  1  0  0  0  0
  7 16  1  0  0  0  0
  9 17  1  0  0  0  0
M  END
>  <DRUGBANK_ID>
DB14228

>  <COMMON_NAME>
Threonic acid

>  <CAS_NUMBER>
3909-12-4

>  <UNII>
NTD0MI8XRT

>  <SYNONYMS>
2,3,4-Trihydroxy-(threo)-butanoic acid; DL-threonic acid; Threo-2,3,4-trihydroxybutyric acid

$$$$
