BDS
 OpenBabel10282417123D

 46 49  0  0  0  0  0  0  0  0999 V2000
    1.1595    0.3225   -0.1908 C   0  0  1  0  0  0  0  0  0  0  0  0
    0.7189    1.6855   -0.7706 C   0  0  0  0  0  0  0  0  0  0  0  0
    0.1126    2.5812   -0.2007 O   0  0  0  0  0  0  0  0  0  0  0  0
    1.0259    1.9454   -2.0354 O   0  0  0  0  0  0  0  0  0  0  0  0
    0.7431    0.4733    1.2911 C   0  0  0  0  0  0  0  0  0  0  0  0
   -0.7846    0.7968    1.4858 C   0  0  0  0  0  0  0  0  0  0  0  0
   -1.2883    1.2173    2.7298 C   0  0  0  0  0  0  0  0  0  0  0  0
   -2.6533    1.5120    2.9109 C   0  0  0  0  0  0  0  0  0  0  0  0
   -3.4843    1.4824    1.8128 C   0  0  0  0  0  0  0  0  0  0  0  0
   -4.7717    1.9118    1.7380 O   0  0  0  0  0  0  0  0  0  0  0  0
   -5.0024    1.8147    0.3122 C   0  0  0  0  0  0  0  0  0  0  0  0
   -3.9592    1.1107   -0.3833 O   0  0  0  0  0  0  0  0  0  0  0  0
   -3.0344    1.0401    0.6073 C   0  0  0  0  0  0  0  0  0  0  0  0
   -1.7358    0.6464    0.4356 C   0  0  0  0  0  0  0  0  0  0  0  0
    0.6527   -1.0544   -0.8740 C   0  0  1  0  0  0  0  0  0  0  0  0
    1.1362   -1.0890   -2.3310 C   0  0  0  0  0  0  0  0  0  0  0  0
    1.9506   -1.8280   -2.8145 O   0  0  0  0  0  0  0  0  0  0  0  0
    0.5173   -0.1558   -3.0910 O   0  0  0  0  0  0  0  0  0  0  0  0
    1.0217   -2.4670   -0.1857 C   0  0  0  0  0  0  0  0  0  0  0  0
    0.4496   -2.8950    1.1800 C   0  0  0  0  0  0  0  0  0  0  0  0
    0.5353   -4.1327    1.8036 C   0  0  0  0  0  0  0  0  0  0  0  0
    0.1142   -4.3058    3.1706 C   0  0  0  0  0  0  0  0  0  0  0  0
   -0.2127   -3.2058    3.9438 C   0  0  0  0  0  0  0  0  0  0  0  0
   -0.5745   -3.0908    5.2531 O   0  0  0  0  0  0  0  0  0  0  0  0
   -0.7386   -1.6522    5.3871 C   0  0  0  0  0  0  0  0  0  0  0  0
   -0.6029   -0.9931    4.1304 O   0  0  0  0  0  0  0  0  0  0  0  0
   -0.3303   -2.0321    3.3126 C   0  0  0  0  0  0  0  0  0  0  0  0
   -0.2700   -2.0138    1.9390 C   0  0  0  0  0  0  0  0  0  0  0  0
    2.2578    0.3028   -0.2305 H   0  0  0  0  0  0  0  0  0  0  0  0
   -0.4298   -1.1126   -0.9719 H   0  0  0  0  0  0  0  0  0  0  0  0
    0.3691    2.6668   -2.1817 H   0  0  0  0  0  0  0  0  0  0  0  0
    1.1543   -0.4196    1.7618 H   0  0  0  0  0  0  0  0  0  0  0  0
    1.3252    1.2181    1.8482 H   0  0  0  0  0  0  0  0  0  0  0  0
   -0.6234    1.2808    3.5872 H   0  0  0  0  0  0  0  0  0  0  0  0
   -3.0332    1.7961    3.8837 H   0  0  0  0  0  0  0  0  0  0  0  0
   -5.9443    1.2867    0.1416 H   0  0  0  0  0  0  0  0  0  0  0  0
   -5.0791    2.8256   -0.1115 H   0  0  0  0  0  0  0  0  0  0  0  0
   -1.5066    0.3141   -0.5628 H   0  0  0  0  0  0  0  0  0  0  0  0
    1.0955   -0.0010   -3.8691 H   0  0  0  0  0  0  0  0  0  0  0  0
    0.7254   -3.2542   -0.8933 H   0  0  0  0  0  0  0  0  0  0  0  0
    2.1191   -2.5057   -0.1283 H   0  0  0  0  0  0  0  0  0  0  0  0
    0.8436   -4.9927    1.2180 H   0  0  0  0  0  0  0  0  0  0  0  0
    0.0424   -5.2944    3.5988 H   0  0  0  0  0  0  0  0  0  0  0  0
   -1.7315   -1.3859    5.7762 H   0  0  0  0  0  0  0  0  0  0  0  0
    0.0081   -1.2589    6.0927 H   0  0  0  0  0  0  0  0  0  0  0  0
   -0.8020   -1.2806    1.4012 H   0  0  0  0  0  0  0  0  0  0  0  0
  1 15  1  0  0  0  0
  1 29  1  6  0  0  0
  1  5  1  0  0  0  0
  1  2  1  0  0  0  0
  2  3  2  0  0  0  0
  2  4  1  0  0  0  0
  4 31  1  0  0  0  0
  5  6  1  0  0  0  0
  5 32  1  0  0  0  0
  5 33  1  0  0  0  0
  6  7  2  0  0  0  0
  6 14  1  0  0  0  0
  7  8  1  0  0  0  0
  7 34  1  0  0  0  0
  8  9  2  0  0  0  0
  8 35  1  0  0  0  0
  9 10  1  0  0  0  0
  9 13  1  0  0  0  0
 10 11  1  0  0  0  0
 11 12  1  0  0  0  0
 11 36  1  0  0  0  0
 11 37  1  0  0  0  0
 12 13  1  0  0  0  0
 13 14  2  0  0  0  0
 14 38  1  0  0  0  0
 15 16  1  0  0  0  0
 15 19  1  0  0  0  0
 15 30  1  6  0  0  0
 16 17  2  0  0  0  0
 16 18  1  0  0  0  0
 18 39  1  0  0  0  0
 19 20  1  0  0  0  0
 19 40  1  0  0  0  0
 19 41  1  0  0  0  0
 20 21  2  0  0  0  0
 20 28  1  0  0  0  0
 21 22  1  0  0  0  0
 21 42  1  0  0  0  0
 22 23  2  0  0  0  0
 22 43  1  0  0  0  0
 23 24  1  0  0  0  0
 23 27  1  0  0  0  0
 24 25  1  0  0  0  0
 25 26  1  0  0  0  0
 25 44  1  0  0  0  0
 25 45  1  0  0  0  0
 26 27  1  0  0  0  0
 27 28  2  0  0  0  0
 28 46  1  0  0  0  0
M  END
>  <DRUGBANK_ID>
DB02154

>  <SECONDARY_ACCESSION_NUMBERS>
EXPT00654

>  <COMMON_NAME>
2,3-Bis-Benzo[1,3]Dioxol-5-Ylmethyl-Succinic Acid

$$$$
