
 OpenBabel10282417213D

 15 13  0  0  0  0  0  0  0  0999 V2000
   -0.6790    1.1930    0.0010 C   0  0  0  0  0  0  0  0  0  0  0  0
   -1.3890    0.0010   -0.0020 C   0  0  0  0  0  0  0  0  0  0  0  0
   -0.6810   -1.1920    0.0010 C   0  0  0  0  0  0  0  0  0  0  0  0
    0.7000   -1.1550    0.0010 C   0  0  0  0  0  0  0  0  0  0  0  0
    1.3460   -0.0010   -0.0020 C   0  0  0  0  0  0  0  0  0  0  0  0
    0.7010    1.1550    0.0010 C   0  0  0  0  0  0  0  0  0  0  0  0
    1.7166    2.8314    0.0055 Br  0  0  0  0  0  0  0  0  0  0  0  0
    3.3060   -0.0024   -0.0111 Br  0  0  0  0  0  0  0  0  0  0  0  0
    1.7138   -2.8324    0.0055 Br  0  0  0  0  0  0  0  0  0  0  0  0
   -1.6279   -2.9081    0.0052 Br  0  0  0  0  0  0  0  0  0  0  0  0
   -2.8090    0.0021   -0.0080 O   0  5  0  0  0  0  0  0  0  0  0  0
   -1.3636    2.4371    0.0040 O   0  5  0  0  0  0  0  0  0  0  0  0
    1.0430   -0.0197    0.0881 O   0  5  0  0  0  0  0  0  0  0  0  0
    1.0293    0.0860    0.0417 Bi  0  1  0  0  0  0  0  0  0  0  0  0
    2.0430   -0.0197    0.0881 H   0  0  0  0  0  0  0  0  0  0  0  0
  1  2  2  0  0  0  0
  1  6  1  0  0  0  0
  1 12  1  0  0  0  0
  2  3  1  0  0  0  0
  2 11  1  0  0  0  0
  3  4  2  0  0  0  0
  3 10  1  0  0  0  0
  4  5  1  0  0  0  0
  4  9  1  0  0  0  0
  5  6  2  0  0  0  0
  5  8  1  0  0  0  0
  6  7  1  0  0  0  0
 13 15  1  0  0  0  0
M  CHG  4  11  -1  12  -1  13  -1  14   3
M  END
>  <DRUGBANK_ID>
DB13818

>  <COMMON_NAME>
Bibrocathol

>  <CAS_NUMBER>
6915-57-7

>  <UNII>
0KJ20H1BLJ

>  <SYNONYMS>
Bibrocathol

$$$$
