NN4
 OpenBabel10282417173D

 58 61  0  0  0  0  0  0  0  0999 V2000
    1.1505   -1.2480   -0.3113 C   0  0  0  0  0  0  0  0  0  0  0  0
    0.9785    0.0050   -1.2000 C   0  0  1  0  0  0  0  0  0  0  0  0
   -0.5352    0.0209   -1.8915 C   0  0  0  0  0  0  0  0  0  0  0  0
   -1.2662    1.3590   -0.0477 C   0  0  0  0  0  0  0  0  0  0  0  0
   -0.0056   -0.0179    1.5941 C   0  0  0  0  0  0  0  0  0  0  0  0
    0.0157    1.2667    0.7433 C   0  0  1  0  0  0  0  0  0  0  0  0
    3.3610    2.3172    0.3453 C   0  0  0  0  0  0  0  0  0  0  0  0
    5.7921    2.7043    0.7577 C   0  0  0  0  0  0  0  0  0  0  0  0
    4.2793    5.0925    1.7284 C   0  0  0  0  0  0  0  0  0  0  0  0
    5.0092    6.1606    2.2618 C   0  0  0  0  0  0  0  0  0  0  0  0
    4.0806    7.6868    0.5893 C   0  0  0  0  0  0  0  0  0  0  0  0
    3.4078    5.3774    0.6914 C   0  0  0  0  0  0  0  0  0  0  0  0
    3.3365    9.0972   -1.1637 C   0  0  0  0  0  0  0  0  0  0  0  0
    3.3443    2.9271   -0.7273 O   0  0  0  0  0  0  0  0  0  0  0  0
    2.4274    1.3211    0.5438 N   0  0  0  0  0  0  0  0  0  0  0  0
    1.1796    1.2440   -0.2538 C   0  0  1  0  0  0  0  0  0  0  0  0
    0.0186   -1.2823    0.7170 C   0  0  1  0  0  0  0  0  0  0  0  0
   -1.2720   -1.3541   -0.0628 C   0  0  0  0  0  0  0  0  0  0  0  0
   -1.5892    0.0088   -0.7379 C   0  0  2  0  0  0  0  0  0  0  0  0
   -3.1406    0.0084   -0.7447 C   0  0  0  0  0  0  0  0  0  0  0  0
   -3.8614    0.0057   -1.7137 O   0  0  0  0  0  0  0  0  0  0  0  0
   -3.6650    0.0053    0.5565 N   0  0  0  0  0  0  0  0  0  0  0  0
    4.4363    2.6610    1.4875 C   0  0  0  0  0  0  0  0  0  0  0  0
    4.5198    1.4906    2.4970 C   0  0  0  0  0  0  0  0  0  0  0  0
    4.3422    3.8528    2.3141 O   0  0  0  0  0  0  0  0  0  0  0  0
    3.3576    6.6245    0.0768 C   0  0  0  0  0  0  0  0  0  0  0  0
    4.0542    8.9527    0.0670 O   0  0  0  0  0  0  0  0  0  0  0  0
    4.8645    7.4626    1.7262 C   0  0  0  0  0  0  0  0  0  0  0  0
    1.7613    0.0024   -1.9691 H   0  0  0  0  0  0  0  0  0  0  0  0
    0.0894    2.1510    1.3856 H   0  0  0  0  0  0  0  0  0  0  0  0
    1.1373    2.1381   -0.8859 H   0  0  0  0  0  0  0  0  0  0  0  0
    0.1060   -2.1765    1.3416 H   0  0  0  0  0  0  0  0  0  0  0  0
    1.1467   -2.1528   -0.9321 H   0  0  0  0  0  0  0  0  0  0  0  0
    2.1123   -1.2536    0.2171 H   0  0  0  0  0  0  0  0  0  0  0  0
   -0.6850   -0.8372   -2.5640 H   0  0  0  0  0  0  0  0  0  0  0  0
   -0.6609    0.9041   -2.5352 H   0  0  0  0  0  0  0  0  0  0  0  0
   -2.0608    1.7528    0.5890 H   0  0  0  0  0  0  0  0  0  0  0  0
   -1.1760    2.1409   -0.8241 H   0  0  0  0  0  0  0  0  0  0  0  0
    0.8494   -0.0332    2.2735 H   0  0  0  0  0  0  0  0  0  0  0  0
   -0.9036   -0.0186    2.2236 H   0  0  0  0  0  0  0  0  0  0  0  0
    5.8401    3.5579    0.0736 H   0  0  0  0  0  0  0  0  0  0  0  0
    6.6249    2.8137    1.4604 H   0  0  0  0  0  0  0  0  0  0  0  0
    5.9427    1.7962    0.1647 H   0  0  0  0  0  0  0  0  0  0  0  0
    5.6871    6.0079    3.0989 H   0  0  0  0  0  0  0  0  0  0  0  0
    2.6952    4.6578    0.3304 H   0  0  0  0  0  0  0  0  0  0  0  0
    3.7390    8.4394   -1.9448 H   0  0  0  0  0  0  0  0  0  0  0  0
    2.2652    8.9127   -1.0185 H   0  0  0  0  0  0  0  0  0  0  0  0
    3.4478   10.1270   -1.5136 H   0  0  0  0  0  0  0  0  0  0  0  0
    2.5295    0.7004    1.3351 H   0  0  0  0  0  0  0  0  0  0  0  0
   -2.0641   -1.7477    0.5777 H   0  0  0  0  0  0  0  0  0  0  0  0
   -1.1924   -2.1261   -0.8497 H   0  0  0  0  0  0  0  0  0  0  0  0
   -3.0815    0.0038    1.3869 H   0  0  0  0  0  0  0  0  0  0  0  0
   -4.6630    0.0031    0.7141 H   0  0  0  0  0  0  0  0  0  0  0  0
    3.6160    1.4344    3.1163 H   0  0  0  0  0  0  0  0  0  0  0  0
    4.6462    0.5297    1.9854 H   0  0  0  0  0  0  0  0  0  0  0  0
    5.3579    1.6086    3.1957 H   0  0  0  0  0  0  0  0  0  0  0  0
    2.7013    6.7170   -0.7801 H   0  0  0  0  0  0  0  0  0  0  0  0
    5.3593    8.3049    2.2060 H   0  0  0  0  0  0  0  0  0  0  0  0
  1 17  1  0  0  0  0
  1  2  1  0  0  0  0
  1 33  1  0  0  0  0
  1 34  1  0  0  0  0
  2 16  1  0  0  0  0
  2  3  1  0  0  0  0
  2 29  1  6  0  0  0
  3 19  1  0  0  0  0
  3 35  1  0  0  0  0
  3 36  1  0  0  0  0
  4  6  1  0  0  0  0
  4 19  1  0  0  0  0
  4 37  1  0  0  0  0
  4 38  1  0  0  0  0
  5 17  1  0  0  0  0
  5  6  1  0  0  0  0
  5 39  1  0  0  0  0
  5 40  1  0  0  0  0
  6 16  1  0  0  0  0
  6 30  1  1  0  0  0
  7 23  1  0  0  0  0
  7 15  1  0  0  0  0
  7 14  2  0  0  0  0
  8 23  1  0  0  0  0
  8 41  1  0  0  0  0
  8 42  1  0  0  0  0
  8 43  1  0  0  0  0
  9 12  2  0  0  0  0
  9 10  1  0  0  0  0
  9 25  1  0  0  0  0
 10 28  2  0  0  0  0
 10 44  1  0  0  0  0
 11 27  1  0  0  0  0
 11 26  2  0  0  0  0
 11 28  1  0  0  0  0
 12 26  1  0  0  0  0
 12 45  1  0  0  0  0
 13 27  1  0  0  0  0
 13 46  1  0  0  0  0
 13 47  1  0  0  0  0
 13 48  1  0  0  0  0
 15 49  1  0  0  0  0
 16 15  1  0  0  0  0
 16 31  1  6  0  0  0
 17 18  1  0  0  0  0
 17 32  1  1  0  0  0
 18 19  1  0  0  0  0
 18 50  1  0  0  0  0
 18 51  1  0  0  0  0
 19 20  1  6  0  0  0
 20 21  2  0  0  0  0
 20 22  1  0  0  0  0
 22 52  1  0  0  0  0
 22 53  1  0  0  0  0
 23 25  1  0  0  0  0
 23 24  1  0  0  0  0
 24 54  1  0  0  0  0
 24 55  1  0  0  0  0
 24 56  1  0  0  0  0
 26 57  1  0  0  0  0
 28 58  1  0  0  0  0
M  END
>  <DRUGBANK_ID>
DB08280

>  <COMMON_NAME>
(1S,3R,4S,5S,7S)-4-{[2-(4-METHOXYPHENOXY)-2-METHYLPROPANOYL]AMINO}ADAMANTANE-1-CARBOXAMIDE

$$$$
