
 OpenBabel10282417123D

 21 20  0  0  1  0  0  0  0  0999 V2000
   -1.3192   -8.6209    2.2417 O   0  0  0  0  0  0  0  0  0  0  0  0
   -2.1197   -7.5683    2.4689 C   0  0  0  0  0  0  0  0  0  0  0  0
   -1.3860   -6.2858    2.8255 C   0  0  2  0  0  0  0  0  0  0  0  0
   -1.9926   -3.7789    0.6374 S   0  0  1  0  0  0  0  0  0  0  0  0
   -0.4206   -5.8684    1.7107 C   0  0  0  0  0  0  0  0  0  0  0  0
   -1.1608   -5.4032    0.4717 C   0  0  0  0  0  0  0  0  0  0  0  0
   -1.3193   -3.1323    2.1953 C   0  0  0  0  0  0  0  0  0  0  0  0
   -3.3363   -7.6637    2.3503 O   0  0  0  0  0  0  0  0  0  0  0  0
   -0.6467   -6.3963    4.0944 N   0  0  0  0  0  0  0  0  0  0  0  0
   -1.4386   -2.9075   -0.4510 O   0  0  0  0  0  0  0  0  0  0  0  0
   -1.9272   -9.3559    2.0262 H   0  0  0  0  0  0  0  0  0  0  0  0
   -2.1852   -5.5563    2.9754 H   0  0  0  0  0  0  0  0  0  0  0  0
    0.2608   -5.0789    2.0404 H   0  0  0  0  0  0  0  0  0  0  0  0
    0.2427   -6.7021    1.4477 H   0  0  0  0  0  0  0  0  0  0  0  0
   -0.4605   -5.3153   -0.3672 H   0  0  0  0  0  0  0  0  0  0  0  0
   -1.9101   -6.1416    0.1551 H   0  0  0  0  0  0  0  0  0  0  0  0
   -0.2291   -3.0914    2.1714 H   0  0  0  0  0  0  0  0  0  0  0  0
   -1.6983   -2.1201    2.3403 H   0  0  0  0  0  0  0  0  0  0  0  0
   -1.6540   -3.7017    3.0614 H   0  0  0  0  0  0  0  0  0  0  0  0
   -0.2148   -5.4981    4.3139 H   0  0  0  0  0  0  0  0  0  0  0  0
   -1.3041   -6.5846    4.8506 H   0  0  0  0  0  0  0  0  0  0  0  0
  1  2  1  0  0  0  0
  1 11  1  0  0  0  0
  2  8  2  0  0  0  0
  2  3  1  0  0  0  0
  3  9  1  0  0  0  0
  3  5  1  0  0  0  0
  3 12  1  1  0  0  0
  4  7  1  0  0  0  0
  4  6  1  0  0  0  0
  4 10  2  6  0  0  0
  5  6  1  0  0  0  0
  5 13  1  0  0  0  0
  5 14  1  0  0  0  0
  6 15  1  0  0  0  0
  6 16  1  0  0  0  0
  7 17  1  0  0  0  0
  7 18  1  0  0  0  0
  7 19  1  0  0  0  0
  9 20  1  0  0  0  0
  9 21  1  0  0  0  0
M  END
>  <DRUGBANK_ID>
DB02235

>  <SECONDARY_ACCESSION_NUMBERS>
EXPT02921

>  <COMMON_NAME>
L-methionine (R)-S-oxide

>  <CAS_NUMBER>
62697-73-8

>  <UNII>
O74B4F6OYL

>  <SYNONYMS>
Methionine Sulfoxide

$$$$
