
 OpenBabel10282417183D

 25 26  0  0  0  0  0  0  0  0999 V2000
   -0.9350    1.0404   -0.1643 O   0  0  0  0  0  0  0  0  0  0  0  0
   -3.1724    0.6781   -0.0099 O   0  0  0  0  0  0  0  0  0  0  0  0
   -3.1628   -4.2752   -0.2341 O   0  0  0  0  0  0  0  0  0  0  0  0
   -1.7890   -1.1381    0.2097 N   0  0  0  0  0  0  0  0  0  0  0  0
   -3.5607   -2.6167   -1.7069 N   0  0  0  0  0  0  0  0  0  0  0  0
    0.6268   -0.8090   -0.0317 C   0  0  0  0  0  0  0  0  0  0  0  0
    0.3731    0.5539   -0.0550 C   0  0  0  0  0  0  0  0  0  0  0  0
   -2.0380    0.2030    0.0012 C   0  0  0  0  0  0  0  0  0  0  0  0
   -0.5140   -1.7615   -0.1003 C   0  0  0  0  0  0  0  0  0  0  0  0
   -2.8954   -2.0125    0.5811 C   0  0  0  0  0  0  0  0  0  0  0  0
    1.9560   -1.2445    0.0087 C   0  0  0  0  0  0  0  0  0  0  0  0
    1.3981    1.4931   -0.0002 C   0  0  0  0  0  0  0  0  0  0  0  0
   -3.2050   -3.0717   -0.4718 C   0  0  0  0  0  0  0  0  0  0  0  0
    2.9973   -0.3133    0.0548 C   0  0  0  0  0  0  0  0  0  0  0  0
    2.7181    1.0545    0.0536 C   0  0  0  0  0  0  0  0  0  0  0  0
   -3.6696   -1.6329   -1.9195 H   0  0  0  0  0  0  0  0  0  0  0  0
   -3.8084   -3.3017   -2.4095 H   0  0  0  0  0  0  0  0  0  0  0  0
   -0.3530   -2.5686    0.6243 H   0  0  0  0  0  0  0  0  0  0  0  0
   -0.5733   -2.1957   -1.1053 H   0  0  0  0  0  0  0  0  0  0  0  0
   -2.6159   -2.5098    1.5155 H   0  0  0  0  0  0  0  0  0  0  0  0
   -3.8090   -1.4409    0.7759 H   0  0  0  0  0  0  0  0  0  0  0  0
    2.1907   -2.3070    0.0030 H   0  0  0  0  0  0  0  0  0  0  0  0
    1.1667    2.5541   -0.0000 H   0  0  0  0  0  0  0  0  0  0  0  0
    4.0293   -0.6539    0.0926 H   0  0  0  0  0  0  0  0  0  0  0  0
    3.5282    1.7780    0.0875 H   0  0  0  0  0  0  0  0  0  0  0  0
  1  7  1  0  0  0  0
  1  8  1  0  0  0  0
  2  8  2  0  0  0  0
  3 13  2  0  0  0  0
  4  8  1  0  0  0  0
  4  9  1  0  0  0  0
  4 10  1  0  0  0  0
  5 13  1  0  0  0  0
  5 16  1  0  0  0  0
  5 17  1  0  0  0  0
  6  7  1  0  0  0  0
  6  9  1  0  0  0  0
  6 11  2  0  0  0  0
  7 12  2  0  0  0  0
  9 18  1  0  0  0  0
  9 19  1  0  0  0  0
 10 13  1  0  0  0  0
 10 20  1  0  0  0  0
 10 21  1  0  0  0  0
 11 14  1  0  0  0  0
 11 22  1  0  0  0  0
 12 15  1  0  0  0  0
 12 23  1  0  0  0  0
 14 15  2  0  0  0  0
 14 24  1  0  0  0  0
 15 25  1  0  0  0  0
M  END
>  <DRUGBANK_ID>
DB09254

>  <COMMON_NAME>
Caroxazone

>  <CAS_NUMBER>
18464-39-6

>  <UNII>
807N226MNL

>  <SYNONYMS>
Caroxazone

$$$$
