
 OpenBabel10282417203D

 21 20  0  0  0  0  0  0  0  0999 V2000
    1.0917   -0.0196    0.0258 C   0  0  0  0  0  0  0  0  0  0  0  0
    1.0559   -0.7186    2.4810 C   0  0  0  0  0  0  0  0  0  0  0  0
   -0.9949   -1.0304    1.0552 C   0  0  0  0  0  0  0  0  0  0  0  0
    1.0747   -2.4423    0.6806 C   0  0  0  0  0  0  0  0  0  0  0  0
    0.5492   -1.0355    1.0568 C   0  0  0  0  0  0  0  0  0  0  0  0
    0.5222    1.2749    0.1802 O   0  0  0  0  0  0  0  0  0  0  0  0
    0.5116    0.4784    3.0164 O   0  0  0  0  0  0  0  0  0  0  0  0
   -1.5115   -1.4099   -0.2223 O   0  0  0  0  0  0  0  0  0  0  0  0
    0.6663   -2.8535   -0.6183 O   0  0  0  0  0  0  0  0  0  0  0  0
    0.8545   -0.3324   -0.9964 H   0  0  0  0  0  0  0  0  0  0  0  0
    2.1830    0.0659    0.0822 H   0  0  0  0  0  0  0  0  0  0  0  0
    0.7660   -1.5217    3.1685 H   0  0  0  0  0  0  0  0  0  0  0  0
    2.1498   -0.6516    2.5119 H   0  0  0  0  0  0  0  0  0  0  0  0
   -1.3775   -1.7555    1.7823 H   0  0  0  0  0  0  0  0  0  0  0  0
   -1.4144   -0.0536    1.3186 H   0  0  0  0  0  0  0  0  0  0  0  0
    2.1700   -2.4615    0.6950 H   0  0  0  0  0  0  0  0  0  0  0  0
    0.7240   -3.1971    1.3933 H   0  0  0  0  0  0  0  0  0  0  0  0
    1.0633    1.7770    0.8106 H   0  0  0  0  0  0  0  0  0  0  0  0
    1.0651    1.2256    2.7380 H   0  0  0  0  0  0  0  0  0  0  0  0
   -1.3479   -0.6522   -0.8177 H   0  0  0  0  0  0  0  0  0  0  0  0
   -0.3104   -2.7472   -0.6521 H   0  0  0  0  0  0  0  0  0  0  0  0
  1 10  1  0  0  0  0
  1 11  1  0  0  0  0
  2 12  1  0  0  0  0
  2 13  1  0  0  0  0
  3 14  1  0  0  0  0
  3 15  1  0  0  0  0
  4 16  1  0  0  0  0
  4 17  1  0  0  0  0
  5  1  1  0  0  0  0
  5  2  1  0  0  0  0
  5  3  1  0  0  0  0
  5  4  1  0  0  0  0
  6  1  1  0  0  0  0
  6 18  1  0  0  0  0
  7  2  1  0  0  0  0
  7 19  1  0  0  0  0
  8  3  1  0  0  0  0
  8 20  1  0  0  0  0
  9  4  1  0  0  0  0
  9 21  1  0  0  0  0
M  END
>  <DRUGBANK_ID>
DB13526

>  <COMMON_NAME>
Pentaerithrityl

>  <CAS_NUMBER>
115-77-5

>  <UNII>
SU420W1S6N

>  <SYNONYMS>
Pentaerythritol

$$$$
