
 OpenBabel10282417123D

119121  0  0  0  0  0  0  0  0999 V2000
   -4.5569    6.1008   -4.0453 C   0  0  0  0  0  0  0  0  0  0  0  0
   -4.9241    5.8731   -5.4824 C   0  0  0  0  0  0  0  0  0  0  0  0
   -3.7607    5.2919   -6.2578 C   0  0  0  0  0  0  0  0  0  0  0  0
   -3.3618    3.9453   -5.7482 C   0  0  0  0  0  0  0  0  0  0  0  0
   -4.5088    2.9862   -5.6830 C   0  0  0  0  0  0  0  0  0  0  0  0
   -4.9190    2.7464   -7.1070 C   0  0  0  0  0  0  0  0  0  0  0  0
   -3.7550    2.1605   -7.8775 C   0  0  0  0  0  0  0  0  0  0  0  0
   -3.3253    0.8452   -7.2557 C   0  0  0  0  0  0  0  0  0  0  0  0
   -4.4835   -0.1242   -7.2807 C   0  0  0  0  0  0  0  0  0  0  0  0
   -2.1590    0.2730   -8.0115 C   0  0  0  0  0  0  0  0  0  0  0  0
   -4.2178    4.8333   -3.3256 C   0  0  0  0  0  0  0  0  0  0  0  0
   -3.9030    4.9836   -1.9292 C   0  0  0  0  0  0  0  0  0  0  0  0
   -4.3480    4.3691   -0.9958 O   0  0  0  0  0  0  0  0  0  0  0  0
   -3.1238    6.1445   -1.7188 N   0  0  0  0  0  0  0  0  0  0  0  0
   -1.8966    7.0125   -3.1264 C   0  0  0  0  0  0  0  0  0  0  0  0
   -2.4342    6.0065    0.0898 C   0  0  2  0  0  0  0  0  0  0  0  0
   -0.7762    7.1337    0.4326 C   0  0  0  0  0  0  0  0  0  0  0  0
   -1.1350    8.3983    0.3948 O   0  0  0  0  0  0  0  0  0  0  0  0
   -1.9766    4.6567    0.5412 C   0  0  0  0  0  0  0  0  0  0  0  0
   -2.6344    4.4118    1.5418 O   0  0  0  0  0  0  0  0  0  0  0  0
   -0.9518    3.9101   -0.0370 N   0  0  0  0  0  0  0  0  0  0  0  0
   -0.0378    4.2357   -1.1704 C   0  0  2  0  0  0  0  0  0  0  0  0
    0.9902    5.2041   -0.7201 C   0  0  0  0  0  0  0  0  0  0  0  0
   -0.8066    4.5743   -2.3392 C   0  0  0  0  0  0  0  0  0  0  0  0
   -0.9204    4.1913   -3.4766 O   0  0  0  0  0  0  0  0  0  0  0  0
   -1.4301    5.6178   -1.9786 N   0  0  0  0  0  0  0  0  0  0  0  0
   -1.2381    7.3508   -1.2750 C   0  0  0  0  0  0  0  0  0  0  0  0
    0.1922    9.1279   -0.8472 C   0  0  0  0  0  0  0  0  0  0  0  0
   -1.3739    9.6530   -0.8556 O   0  0  0  0  0  0  0  0  0  0  0  0
    2.1915    9.8736   -0.4787 N   0  0  0  0  0  0  0  0  0  0  0  0
    1.4326    8.2759   -1.5503 C   0  0  0  0  0  0  0  0  0  0  0  0
    3.9635   11.2637    0.6230 C   0  0  2  0  0  0  0  0  0  0  0  0
    5.9236   12.4155    1.8019 C   0  0  0  0  0  0  0  0  0  0  0  0
    6.7415   13.8009    2.4586 O   0  0  0  0  0  0  0  0  0  0  0  0
    7.2436   13.8352    3.0879 N   0  0  0  0  0  0  0  0  0  0  0  0
    7.7448   15.5638    4.4121 C   0  0  1  0  0  0  0  0  0  0  0  0
    8.0145   17.4593    5.4246 C   0  0  0  0  0  0  0  0  0  0  0  0
    7.4046   16.5073    3.3729 C   0  0  0  0  0  0  0  0  0  0  0  0
    8.1235   17.1867    2.6578 O   0  0  0  0  0  0  0  0  0  0  0  0
    6.1767   15.9232    3.0928 N   0  0  0  0  0  0  0  0  0  0  0  0
    5.8117   15.7845    1.6836 C   0  0  2  0  0  0  0  0  0  0  0  0
    4.3950   16.2507    1.7276 C   0  0  0  0  0  0  0  0  0  0  0  0
    3.3459   15.4485    1.8097 O   0  0  0  0  0  0  0  0  0  0  0  0
    4.1195   17.4328    1.7446 O   0  0  0  0  0  0  0  0  0  0  0  0
    5.8484   14.4949    0.9229 C   0  0  0  0  0  0  0  0  0  0  0  0
    4.6687   13.6641    1.8183 C   0  0  0  0  0  0  0  0  0  0  0  0
    3.6538   13.0962    1.2287 C   0  0  0  0  0  0  0  0  0  0  0  0
    4.9561   13.1528    3.3821 C   0  0  0  0  0  0  0  0  0  0  0  0
    4.4640   12.0460    3.9039 C   0  0  0  0  0  0  0  0  0  0  0  0
    3.3045   11.7324    3.3866 C   0  0  0  0  0  0  0  0  0  0  0  0
    2.3837   11.0600    4.0850 O   0  0  0  0  0  0  0  0  0  0  0  0
    2.9101   12.2716    2.1788 C   0  0  0  0  0  0  0  0  0  0  0  0
    1.7379   11.7759    1.6783 C   0  0  0  0  0  0  0  0  0  0  0  0
    1.8723   10.6413    1.1929 C   0  0  0  0  0  0  0  0  0  0  0  0
    1.8483   11.3754    0.0998 C   0  0  0  0  0  0  0  0  0  0  0  0
   -0.0089   11.2134    0.2199 C   0  0  0  0  0  0  0  0  0  0  0  0
   -0.5977   11.6030    1.3983 C   0  0  0  0  0  0  0  0  0  0  0  0
    0.4859   12.0906    2.0305 C   0  0  0  0  0  0  0  0  0  0  0  0
    0.5040   12.9647    3.0572 O   0  0  0  0  0  0  0  0  0  0  0  0
   -5.3676    6.5380   -3.4912 H   0  0  0  0  0  0  0  0  0  0  0  0
   -3.7605    6.8271   -4.0314 H   0  0  0  0  0  0  0  0  0  0  0  0
   -5.7749    5.1963   -5.5178 H   0  0  0  0  0  0  0  0  0  0  0  0
   -5.2325    6.8100   -5.9366 H   0  0  0  0  0  0  0  0  0  0  0  0
   -4.0428    5.1438   -7.2917 H   0  0  0  0  0  0  0  0  0  0  0  0
   -2.9210    5.9797   -6.2325 H   0  0  0  0  0  0  0  0  0  0  0  0
   -2.4857    3.5482   -6.2048 H   0  0  0  0  0  0  0  0  0  0  0  0
   -2.8594    4.0053   -4.8580 H   0  0  0  0  0  0  0  0  0  0  0  0
   -4.2174    2.0629   -5.1914 H   0  0  0  0  0  0  0  0  0  0  0  0
   -5.3488    3.3792   -5.1202 H   0  0  0  0  0  0  0  0  0  0  0  0
   -5.7658    2.0765   -7.1347 H   0  0  0  0  0  0  0  0  0  0  0  0
   -5.2351    3.6783   -7.5664 H   0  0  0  0  0  0  0  0  0  0  0  0
   -4.0423    2.0050   -8.9120 H   0  0  0  0  0  0  0  0  0  0  0  0
   -2.9158    2.8568   -7.8760 H   0  0  0  0  0  0  0  0  0  0  0  0
   -3.0188    1.0087   -6.2223 H   0  0  0  0  0  0  0  0  0  0  0  0
   -4.7948   -0.2984   -8.3096 H   0  0  0  0  0  0  0  0  0  0  0  0
   -4.1980   -1.0668   -6.8286 H   0  0  0  0  0  0  0  0  0  0  0  0
   -5.3316    0.2706   -6.7260 H   0  0  0  0  0  0  0  0  0  0  0  0
   -1.3183    0.9630   -7.9897 H   0  0  0  0  0  0  0  0  0  0  0  0
   -1.8509   -0.6706   -7.5662 H   0  0  0  0  0  0  0  0  0  0  0  0
   -2.4414    0.0962   -9.0479 H   0  0  0  0  0  0  0  0  0  0  0  0
   -4.9548    4.0812   -3.4185 H   0  0  0  0  0  0  0  0  0  0  0  0
   -3.3006    4.4588   -3.6169 H   0  0  0  0  0  0  0  0  0  0  0  0
   -2.0353    7.9425   -2.7311 H   0  0  0  0  0  0  0  0  0  0  0  0
   -0.7069    6.6273   -3.0628 H   0  0  0  0  0  0  0  0  0  0  0  0
   -2.1669    6.4222   -3.9560 H   0  0  0  0  0  0  0  0  0  0  0  0
   -3.1001    6.6291    0.6209 H   0  0  0  0  0  0  0  0  0  0  0  0
   -0.1489    6.6574    0.9896 H   0  0  0  0  0  0  0  0  0  0  0  0
   -0.0251    6.8543   -0.6671 H   0  0  0  0  0  0  0  0  0  0  0  0
   -1.4703    8.6489   -0.8460 H   0  0  0  0  0  0  0  0  0  0  0  0
   -0.7604    3.0399    0.4155 H   0  0  0  0  0  0  0  0  0  0  0  0
    0.4751    3.3860   -1.5339 H   0  0  0  0  0  0  0  0  0  0  0  0
    1.8802    4.7059   -0.8508 H   0  0  0  0  0  0  0  0  0  0  0  0
    1.3309    5.9592   -1.3408 H   0  0  0  0  0  0  0  0  0  0  0  0
    0.9149    5.6768    0.2437 H   0  0  0  0  0  0  0  0  0  0  0  0
   -2.5153    5.7877   -2.6106 H   0  0  0  0  0  0  0  0  0  0  0  0
   -2.7088    7.4197   -0.7887 H   0  0  0  0  0  0  0  0  0  0  0  0
   -0.9957    5.9737   -0.5362 H   0  0  0  0  0  0  0  0  0  0  0  0
    1.2416    7.6387   -2.8598 H   0  0  0  0  0  0  0  0  0  0  0  0
    2.0010    7.4472   -1.2536 H   0  0  0  0  0  0  0  0  0  0  0  0
    0.5397    7.0402   -1.9548 H   0  0  0  0  0  0  0  0  0  0  0  0
    3.2871   11.2521   -0.6315 H   0  0  0  0  0  0  0  0  0  0  0  0
    8.5700   14.3919    3.7281 H   0  0  0  0  0  0  0  0  0  0  0  0
    7.4222   15.4674    5.4992 H   0  0  0  0  0  0  0  0  0  0  0  0
    7.0295   17.9733    5.6029 H   0  0  0  0  0  0  0  0  0  0  0  0
    8.4383   17.5114    6.5430 H   0  0  0  0  0  0  0  0  0  0  0  0
    8.6559   18.3104    4.9887 H   0  0  0  0  0  0  0  0  0  0  0  0
    5.9723   15.0770    3.6926 H   0  0  0  0  0  0  0  0  0  0  0  0
    6.4600   16.4384    1.1285 H   0  0  0  0  0  0  0  0  0  0  0  0
    3.4468   14.5499    1.9670 H   0  0  0  0  0  0  0  0  0  0  0  0
    6.9357   14.0666    0.8573 H   0  0  0  0  0  0  0  0  0  0  0  0
    5.5142   14.4616   -0.0709 H   0  0  0  0  0  0  0  0  0  0  0  0
    3.7971   13.0537    0.0769 H   0  0  0  0  0  0  0  0  0  0  0  0
    5.9241   13.3638    3.8861 H   0  0  0  0  0  0  0  0  0  0  0  0
    4.9062   11.7130    4.7812 H   0  0  0  0  0  0  0  0  0  0  0  0
    2.6125   10.9054    5.0057 H   0  0  0  0  0  0  0  0  0  0  0  0
    2.9284   10.0738    0.8546 H   0  0  0  0  0  0  0  0  0  0  0  0
   -1.3139   11.0628   -0.3754 H   0  0  0  0  0  0  0  0  0  0  0  0
   -1.5802   11.7445    1.8592 H   0  0  0  0  0  0  0  0  0  0  0  0
    1.3989   13.2146    3.3966 H   0  0  0  0  0  0  0  0  0  0  0  0
  1  2  1  0  0  0  0
  1 60  1  0  0  0  0
  1 61  1  0  0  0  0
  2  3  1  0  0  0  0
  2 62  1  0  0  0  0
  2 63  1  0  0  0  0
  3  4  1  0  0  0  0
  3 64  1  0  0  0  0
  3 65  1  0  0  0  0
  4  5  1  0  0  0  0
  4 66  1  0  0  0  0
  4 67  1  0  0  0  0
  5  6  1  0  0  0  0
  5 68  1  0  0  0  0
  5 69  1  0  0  0  0
  6  7  1  0  0  0  0
  6 70  1  0  0  0  0
  6 71  1  0  0  0  0
  7  8  1  0  0  0  0
  7 72  1  0  0  0  0
  7 73  1  0  0  0  0
  8  9  1  0  0  0  0
  8 10  1  0  0  0  0
  8 74  1  0  0  0  0
  9 75  1  0  0  0  0
  9 76  1  0  0  0  0
  9 77  1  0  0  0  0
 10 78  1  0  0  0  0
 10 79  1  0  0  0  0
 10 80  1  0  0  0  0
 11  1  1  0  0  0  0
 11 81  1  0  0  0  0
 11 82  1  0  0  0  0
 12 11  1  0  0  0  0
 12 13  2  0  0  0  0
 12 14  1  0  0  0  0
 15 14  1  0  0  0  0
 15 83  1  0  0  0  0
 15 84  1  0  0  0  0
 15 85  1  0  0  0  0
 16 19  1  0  0  0  0
 16 86  1  1  0  0  0
 16 17  1  0  0  0  0
 16 14  1  0  0  0  0
 17 18  1  0  0  0  0
 17 87  1  0  0  0  0
 17 88  1  0  0  0  0
 18 89  1  0  0  0  0
 19 20  2  0  0  0  0
 19 21  1  0  0  0  0
 21 90  1  0  0  0  0
 22 91  1  6  0  0  0
 22 23  1  0  0  0  0
 22 21  1  0  0  0  0
 23 92  1  0  0  0  0
 23 93  1  0  0  0  0
 23 94  1  0  0  0  0
 24 22  1  0  0  0  0
 24 25  2  0  0  0  0
 24 26  1  0  0  0  0
 26 95  1  0  0  0  0
 27 26  1  0  0  0  0
 27 28  1  0  0  0  0
 27 96  1  0  0  0  0
 27 97  1  0  0  0  0
 28 29  2  0  0  0  0
 28 30  1  0  0  0  0
 31 30  1  0  0  0  0
 31 98  1  0  0  0  0
 31 99  1  0  0  0  0
 31100  1  0  0  0  0
 32 30  1  0  0  0  0
 32 33  1  0  0  0  0
 32 55  1  0  0  0  0
 32101  1  6  0  0  0
 33 34  2  0  0  0  0
 33 35  1  0  0  0  0
 35102  1  0  0  0  0
 36 35  1  0  0  0  0
 36 37  1  0  0  0  0
 36 38  1  0  0  0  0
 36103  1  1  0  0  0
 37104  1  0  0  0  0
 37105  1  0  0  0  0
 37106  1  0  0  0  0
 38 39  2  0  0  0  0
 38 40  1  0  0  0  0
 40107  1  0  0  0  0
 41 40  1  0  0  0  0
 41 45  1  0  0  0  0
 41108  1  6  0  0  0
 41 42  1  0  0  0  0
 42 43  1  0  0  0  0
 42 44  2  0  0  0  0
 43109  1  0  0  0  0
 45 46  1  0  0  0  0
 45110  1  0  0  0  0
 45111  1  0  0  0  0
 46 47  1  0  0  0  0
 46 48  2  0  0  0  0
 47 52  2  0  0  0  0
 47112  1  0  0  0  0
 48 49  1  0  0  0  0
 48113  1  0  0  0  0
 49 50  2  0  0  0  0
 49114  1  0  0  0  0
 50 51  1  0  0  0  0
 51115  1  0  0  0  0
 52 50  1  0  0  0  0
 53 52  1  0  0  0  0
 53 58  2  0  0  0  0
 54 53  1  0  0  0  0
 54116  1  0  0  0  0
 55 54  2  0  0  0  0
 55 56  1  0  0  0  0
 56 57  2  0  0  0  0
 56117  1  0  0  0  0
 57 58  1  0  0  0  0
 57118  1  0  0  0  0
 58 59  1  0  0  0  0
 59119  1  0  0  0  0
M  END
>  <DRUGBANK_ID>
DB01934

>  <SECONDARY_ACCESSION_NUMBERS>
EXPT00564

>  <COMMON_NAME>
Arylomycin A2

$$$$
