ATE
 OpenBabel10282417123D

 50 53  0  0  0  0  0  0  0  0999 V2000
   -7.9810    4.9267    2.9799 O   0  0  0  0  0  0  0  0  0  0  0  0
   -7.3195    5.4091    1.6962 C   0  0  2  0  0  0  0  0  0  0  0  0
   -5.3815    5.3207    0.7908 C   0  0  0  0  0  0  0  0  0  0  0  0
   -4.6103    6.5216    0.8529 C   0  0  0  0  0  0  0  0  0  0  0  0
   -7.8386    6.8040    1.7955 C   0  0  0  0  0  0  0  0  0  0  0  0
   -6.4212    6.9487    1.8488 C   0  0  2  0  0  0  0  0  0  0  0  0
   -5.7142    6.2076    3.2334 C   0  0  0  0  0  0  0  0  0  0  0  0
   -6.1101    5.9415    0.4340 C   0  0  2  0  0  0  0  0  0  0  0  0
   -6.8409    6.3665   -0.8478 C   0  0  0  0  0  0  0  0  0  0  0  0
   -6.4649    3.9117    0.7687 C   0  0  1  0  0  0  0  0  0  0  0  0
   -6.1709    3.0642   -0.4309 C   0  0  0  0  0  0  0  0  0  0  0  0
   -5.4878    3.7254    2.2252 C   0  0  1  0  0  0  0  0  0  0  0  0
   -5.7448    4.5768    3.5003 C   0  0  0  0  0  0  0  0  0  0  0  0
   -4.8776    2.4266    2.2606 C   0  0  2  0  0  0  0  0  0  0  0  0
   -3.0044    2.6716    1.8172 C   0  0  0  0  0  0  0  0  0  0  0  0
   -5.5980    1.3458    1.3647 C   0  0  1  0  0  0  0  0  0  0  0  0
   -6.5098    1.7095    0.0877 C   0  0  0  0  0  0  0  0  0  0  0  0
   -6.0495   -0.0411    1.7687 C   0  0  0  0  0  0  0  0  0  0  0  0
   -4.1765    1.0019    1.1120 C   0  0  0  0  0  0  0  0  0  0  0  0
   -3.3169    1.3299    2.1567 C   0  0  0  0  0  0  0  0  0  0  0  0
   -8.1647    4.9576    1.1073 H   0  0  0  0  0  0  0  0  0  0  0  0
   -6.0843    7.9733    1.7196 H   0  0  0  0  0  0  0  0  0  0  0  0
   -7.4789    3.5266    0.9853 H   0  0  0  0  0  0  0  0  0  0  0  0
   -4.5149    4.1951    2.0774 H   0  0  0  0  0  0  0  0  0  0  0  0
   -5.0589    2.1206    3.3313 H   0  0  0  0  0  0  0  0  0  0  0  0
   -7.9949    5.5898    3.7140 H   0  0  0  0  0  0  0  0  0  0  0  0
   -4.7764    5.3324   -0.4497 H   0  0  0  0  0  0  0  0  0  0  0  0
   -4.7318    4.3560    0.4128 H   0  0  0  0  0  0  0  0  0  0  0  0
   -4.2219    7.0956    0.0287 H   0  0  0  0  0  0  0  0  0  0  0  0
   -3.7707    5.9649    1.3455 H   0  0  0  0  0  0  0  0  0  0  0  0
   -8.4504    7.0125    0.9187 H   0  0  0  0  0  0  0  0  0  0  0  0
   -8.3437    7.1599    2.6792 H   0  0  0  0  0  0  0  0  0  0  0  0
   -4.6478    6.4245    3.1759 H   0  0  0  0  0  0  0  0  0  0  0  0
   -6.1384    6.7381    4.0805 H   0  0  0  0  0  0  0  0  0  0  0  0
   -7.9038    6.1581   -0.7176 H   0  0  0  0  0  0  0  0  0  0  0  0
   -6.6406    7.4157   -1.0141 H   0  0  0  0  0  0  0  0  0  0  0  0
   -6.5225    5.7275   -1.6696 H   0  0  0  0  0  0  0  0  0  0  0  0
   -5.1507    3.0179   -0.7940 H   0  0  0  0  0  0  0  0  0  0  0  0
   -6.7692    3.4953   -1.2329 H   0  0  0  0  0  0  0  0  0  0  0  0
   -5.0529    4.3942    4.3216 H   0  0  0  0  0  0  0  0  0  0  0  0
   -6.6213    4.1429    3.9843 H   0  0  0  0  0  0  0  0  0  0  0  0
   -2.0317    2.6292    2.4819 H   0  0  0  0  0  0  0  0  0  0  0  0
   -2.4655    2.4313    0.8617 H   0  0  0  0  0  0  0  0  0  0  0  0
   -6.3358    1.0520   -0.7632 H   0  0  0  0  0  0  0  0  0  0  0  0
   -7.6026    1.6712    0.3068 H   0  0  0  0  0  0  0  0  0  0  0  0
   -5.8276   -0.7035    0.9089 H   0  0  0  0  0  0  0  0  0  0  0  0
   -5.5156   -0.4298    2.6377 H   0  0  0  0  0  0  0  0  0  0  0  0
   -7.1263   -0.0967    1.9281 H   0  0  0  0  0  0  0  0  0  0  0  0
   -4.1672    1.5687    0.1527 H   0  0  0  0  0  0  0  0  0  0  0  0
   -3.3456    2.0092    3.1899 H   0  0  0  0  0  0  0  0  0  0  0  0
  1 26  1  0  0  0  0
  2  1  1  0  0  0  0
  2  3  1  0  0  0  0
  2  5  1  0  0  0  0
  2 21  1  6  0  0  0
  3  4  1  0  0  0  0
  3 27  1  0  0  0  0
  3 28  1  0  0  0  0
  4  8  1  0  0  0  0
  4 29  1  0  0  0  0
  4 30  1  0  0  0  0
  5  6  1  0  0  0  0
  5 31  1  0  0  0  0
  5 32  1  0  0  0  0
  6  7  1  0  0  0  0
  6  8  1  0  0  0  0
  6 22  1  1  0  0  0
  7 13  1  0  0  0  0
  7 33  1  0  0  0  0
  7 34  1  0  0  0  0
  8  9  1  1  0  0  0
  8 10  1  0  0  0  0
  9 35  1  0  0  0  0
  9 36  1  0  0  0  0
  9 37  1  0  0  0  0
 10 11  1  0  0  0  0
 10 12  1  0  0  0  0
 10 23  1  1  0  0  0
 11 17  1  0  0  0  0
 11 38  1  0  0  0  0
 11 39  1  0  0  0  0
 12 13  1  0  0  0  0
 12 14  1  0  0  0  0
 12 24  1  6  0  0  0
 13 40  1  0  0  0  0
 13 41  1  0  0  0  0
 14 15  1  0  0  0  0
 14 16  1  0  0  0  0
 14 25  1  1  0  0  0
 15 20  1  0  0  0  0
 15 42  1  0  0  0  0
 15 43  1  0  0  0  0
 16 17  1  0  0  0  0
 16 18  1  6  0  0  0
 16 19  1  0  0  0  0
 17 44  1  0  0  0  0
 17 45  1  0  0  0  0
 18 46  1  0  0  0  0
 18 47  1  0  0  0  0
 18 48  1  0  0  0  0
 19 20  2  0  0  0  0
 19 49  1  0  0  0  0
 20 50  1  0  0  0  0
M  END
>  <DRUGBANK_ID>
DB01889

>  <SECONDARY_ACCESSION_NUMBERS>
EXPT00580

>  <COMMON_NAME>
16,17-Androstene-3-Ol

>  <CAS_NUMBER>
7148-51-8

>  <UNII>
48K9VAM062

$$$$
