ZZ0
 OpenBabel10282417173D

 26 27  0  0  0  0  0  0  0  0999 V2000
    1.7207    1.2043    0.0509 C   0  0  0  0  0  0  0  0  0  0  0  0
    0.3195    1.2201    0.0042 C   0  0  0  0  0  0  0  0  0  0  0  0
   -0.3974    0.0230   -0.0009 C   0  0  0  0  0  0  0  0  0  0  0  0
   -2.1155    0.0363   -0.0349 Cl  0  0  0  0  0  0  0  0  0  0  0  0
    0.2675   -1.1916    0.0378 C   0  0  0  0  0  0  0  0  0  0  0  0
    1.6538   -1.1994    0.1296 C   0  0  0  0  0  0  0  0  0  0  0  0
    2.4087   -0.0105    0.1264 C   0  0  0  0  0  0  0  0  0  0  0  0
    3.8143   -0.0509    0.0844 N   0  0  0  0  0  0  0  0  0  0  0  0
    4.6116   -1.1992   -0.0197 C   0  0  0  0  0  0  0  0  0  0  0  0
    5.4422   -1.4529    1.0280 N   0  0  0  0  0  0  0  0  0  0  0  0
    6.0651   -2.6535    1.0708 C   0  0  0  0  0  0  0  0  0  0  0  0
    5.9328   -3.6191    0.0905 C   0  0  0  0  0  0  0  0  0  0  0  0
    5.1296   -3.3319   -1.0098 C   0  0  0  0  0  0  0  0  0  0  0  0
    4.4643   -2.1015   -1.0885 C   0  0  0  0  0  0  0  0  0  0  0  0
    3.6276   -1.7587   -2.2783 C   0  0  0  0  0  0  0  0  0  0  0  0
    3.1000   -0.6949   -2.5650 O   0  0  0  0  0  0  0  0  0  0  0  0
    3.4624   -2.7933   -3.1221 O   0  0  0  0  0  0  0  0  0  0  0  0
    2.2614    2.1467    0.0134 H   0  0  0  0  0  0  0  0  0  0  0  0
   -0.2079    2.1684   -0.0392 H   0  0  0  0  0  0  0  0  0  0  0  0
   -0.2659   -2.1359   -0.0046 H   0  0  0  0  0  0  0  0  0  0  0  0
    2.1420   -2.1681    0.1696 H   0  0  0  0  0  0  0  0  0  0  0  0
    4.3317    0.7999    0.2482 H   0  0  0  0  0  0  0  0  0  0  0  0
    6.6828   -2.8314    1.9491 H   0  0  0  0  0  0  0  0  0  0  0  0
    6.4495   -4.5695    0.1749 H   0  0  0  0  0  0  0  0  0  0  0  0
    5.0168   -4.0731   -1.7957 H   0  0  0  0  0  0  0  0  0  0  0  0
    2.8814   -2.3970   -3.8099 H   0  0  0  0  0  0  0  0  0  0  0  0
  1  2  1  0  0  0  0
  1  7  2  0  0  0  0
  1 18  1  0  0  0  0
  2  3  2  0  0  0  0
  2 19  1  0  0  0  0
  3  4  1  0  0  0  0
  3  5  1  0  0  0  0
  5  6  2  0  0  0  0
  5 20  1  0  0  0  0
  6  7  1  0  0  0  0
  6 21  1  0  0  0  0
  7  8  1  0  0  0  0
  8  9  1  0  0  0  0
  8 22  1  0  0  0  0
  9 10  1  0  0  0  0
  9 14  2  0  0  0  0
 10 11  2  0  0  0  0
 11 12  1  0  0  0  0
 11 23  1  0  0  0  0
 12 13  2  0  0  0  0
 12 24  1  0  0  0  0
 13 14  1  0  0  0  0
 13 25  1  0  0  0  0
 14 15  1  0  0  0  0
 15 16  2  0  0  0  0
 15 17  1  0  0  0  0
 17 26  1  0  0  0  0
M  END
>  <DRUGBANK_ID>
DB08784

>  <COMMON_NAME>
2-(4-CHLORO-PHENYLAMINO)-NICOTINIC ACID

$$$$
