
 OpenBabel10282417213D

 43 45  0  0  0  0  0  0  0  0999 V2000
    0.8331   -0.0153   -0.3296 C   0  0  0  0  0  0  0  0  0  0  0  0
   -0.4579    4.1425    7.6305 C   0  0  0  0  0  0  0  0  0  0  0  0
   -0.3083   -2.2773    7.9347 C   0  0  0  0  0  0  0  0  0  0  0  0
   -2.7419   -1.9307    7.2015 C   0  0  0  0  0  0  0  0  0  0  0  0
    0.3837   -1.4550   -0.0930 C   0  0  0  0  0  0  0  0  0  0  0  0
    0.9195   -2.1252    1.1916 C   0  0  0  0  0  0  0  0  0  0  0  0
   -1.2168    1.9099    8.5415 C   0  0  0  0  0  0  0  0  0  0  0  0
   -1.4064    0.5469    8.3491 C   0  0  0  0  0  0  0  0  0  0  0  0
   -0.3974    2.0505    6.2987 C   0  0  0  0  0  0  0  0  0  0  0  0
    0.8615   -0.0993    2.6609 C   0  0  0  0  0  0  0  0  0  0  0  0
   -0.1101   -2.0896    3.5206 C   0  0  0  0  0  0  0  0  0  0  0  0
   -0.7040    2.6739    7.5062 C   0  0  0  0  0  0  0  0  0  0  0  0
    0.5311   -1.4353    2.4714 C   0  0  0  0  0  0  0  0  0  0  0  0
   -0.5761    0.6774    6.0699 C   0  0  0  0  0  0  0  0  0  0  0  0
   -1.0933   -0.0789    7.1226 C   0  0  0  0  0  0  0  0  0  0  0  0
    0.4190    0.6275    3.7480 C   0  0  0  0  0  0  0  0  0  0  0  0
   -0.4399   -1.3852    4.6914 C   0  0  0  0  0  0  0  0  0  0  0  0
   -0.2125   -0.0040    4.8263 C   0  0  0  0  0  0  0  0  0  0  0  0
   -1.2676   -1.5802    6.9565 C   0  0  0  0  0  0  0  0  0  0  0  0
    0.6549    1.9730    3.7095 O   0  0  0  0  0  0  0  0  0  0  0  0
   -0.9883   -2.1642    5.6694 O   0  0  0  0  0  0  0  0  0  0  0  0
    0.2890    0.6775    0.3215 H   0  0  0  0  0  0  0  0  0  0  0  0
    0.6108    0.3185   -1.3443 H   0  0  0  0  0  0  0  0  0  0  0  0
    1.9109    0.0925   -0.1620 H   0  0  0  0  0  0  0  0  0  0  0  0
    0.6052    4.3562    7.4732 H   0  0  0  0  0  0  0  0  0  0  0  0
   -1.0429    4.6784    6.8752 H   0  0  0  0  0  0  0  0  0  0  0  0
   -0.7437    4.5119    8.6172 H   0  0  0  0  0  0  0  0  0  0  0  0
   -0.4666   -1.9762    8.9749 H   0  0  0  0  0  0  0  0  0  0  0  0
   -0.3875   -3.3669    7.8731 H   0  0  0  0  0  0  0  0  0  0  0  0
    0.7313   -2.0285    7.6771 H   0  0  0  0  0  0  0  0  0  0  0  0
   -3.3585   -1.5031    6.3980 H   0  0  0  0  0  0  0  0  0  0  0  0
   -2.9063   -3.0124    7.1737 H   0  0  0  0  0  0  0  0  0  0  0  0
   -3.1290   -1.5483    8.1496 H   0  0  0  0  0  0  0  0  0  0  0  0
   -0.7122   -1.4813   -0.0926 H   0  0  0  0  0  0  0  0  0  0  0  0
    0.7211   -2.0513   -0.9481 H   0  0  0  0  0  0  0  0  0  0  0  0
    0.5515   -3.1597    1.2061 H   0  0  0  0  0  0  0  0  0  0  0  0
    2.0139   -2.1882    1.1579 H   0  0  0  0  0  0  0  0  0  0  0  0
   -1.4642    2.3614    9.4952 H   0  0  0  0  0  0  0  0  0  0  0  0
   -1.7942   -0.0379    9.1807 H   0  0  0  0  0  0  0  0  0  0  0  0
    0.0078    2.7026    5.5350 H   0  0  0  0  0  0  0  0  0  0  0  0
    1.4924    0.4150    1.9487 H   0  0  0  0  0  0  0  0  0  0  0  0
   -0.3275   -3.1544    3.4590 H   0  0  0  0  0  0  0  0  0  0  0  0
    0.9373    2.2406    2.8197 H   0  0  0  0  0  0  0  0  0  0  0  0
  1 22  1  0  0  0  0
  1 23  1  0  0  0  0
  1 24  1  0  0  0  0
  2 25  1  0  0  0  0
  2 26  1  0  0  0  0
  2 27  1  0  0  0  0
  3 28  1  0  0  0  0
  3 29  1  0  0  0  0
  3 30  1  0  0  0  0
  4 31  1  0  0  0  0
  4 32  1  0  0  0  0
  4 33  1  0  0  0  0
  5  1  1  0  0  0  0
  5 34  1  0  0  0  0
  5 35  1  0  0  0  0
  6  5  1  0  0  0  0
  6 36  1  0  0  0  0
  6 37  1  0  0  0  0
  7 38  1  0  0  0  0
  8  7  2  0  0  0  0
  8 39  1  0  0  0  0
  9 40  1  0  0  0  0
 10 41  1  0  0  0  0
 11 42  1  0  0  0  0
 12  2  1  0  0  0  0
 12  7  1  0  0  0  0
 12  9  2  0  0  0  0
 13  6  1  0  0  0  0
 13 10  2  0  0  0  0
 13 11  1  0  0  0  0
 14  9  1  0  0  0  0
 15  8  1  0  0  0  0
 15 14  2  0  0  0  0
 16 10  1  0  0  0  0
 17 11  2  0  0  0  0
 18 14  1  0  0  0  0
 18 16  2  0  0  0  0
 18 17  1  0  0  0  0
 19  3  1  0  0  0  0
 19  4  1  0  0  0  0
 19 15  1  0  0  0  0
 20 16  1  0  0  0  0
 20 43  1  0  0  0  0
 21 17  1  0  0  0  0
 21 19  1  0  0  0  0
M  END
>  <DRUGBANK_ID>
DB14736

>  <COMMON_NAME>
Cannabivarin

>  <CAS_NUMBER>
33745-21-0

>  <UNII>
MHH8UW410N

>  <SYNONYMS>
Cannabivarol; CBV

$$$$
