
 OpenBabel10282417153D

 74 77  0  0  0  0  0  0  0  0999 V2000
    0.3719    1.6490   -0.7242 C   0  0  0  0  0  0  0  0  0  0  0  0
    0.6854    1.2384    1.0744 C   0  0  0  0  0  0  0  0  0  0  0  0
    0.6049    3.4184    0.7229 C   0  0  0  0  0  0  0  0  0  0  0  0
   -1.8793    1.4168   -0.3533 C   0  0  1  0  0  0  0  0  0  0  0  0
   -0.8476    3.1693   -1.0442 C   0  0  2  0  0  0  0  0  0  0  0  0
   -2.9947    5.4052   -1.3699 C   0  0  0  0  0  0  0  0  0  0  0  0
   -4.4815    5.6735   -1.6192 C   0  0  0  0  0  0  0  0  0  0  0  0
   -6.2563    4.5239   -3.9334 C   0  0  0  0  0  0  0  0  0  0  0  0
   -7.3013    5.3297   -3.1044 C   0  0  0  0  0  0  0  0  0  0  0  0
   -0.2600    4.1766   -1.9639 C   0  0  0  0  0  0  0  0  0  0  0  0
   -2.6129    3.8592   -1.0647 C   0  0  1  0  0  0  0  0  0  0  0  0
   -2.8972    3.8999    0.0079 H   0  0  0  0  0  0  0  0  0  0  0  0
   -3.5717    2.8704   -1.8587 C   0  0  2  0  0  0  0  0  0  0  0  0
   -2.9357    2.5812   -2.6951 H   0  0  0  0  0  0  0  0  0  0  0  0
   -5.1577    3.2632   -2.8546 C   0  0  1  0  0  0  0  0  0  0  0  0
   -5.1317    4.5899   -2.4013 C   0  0  2  0  0  0  0  0  0  0  0  0
   -4.0136    4.6315   -3.8640 C   0  0  0  0  0  0  0  0  0  0  0  0
   -5.8167    2.4608   -2.4657 H   0  0  0  0  0  0  0  0  0  0  0  0
   -5.5415    4.0041    0.6970 C   0  0  0  0  0  0  0  0  0  0  0  0
   -6.8535    3.4317    0.2047 C   0  0  0  0  0  0  0  0  0  0  0  0
   -7.9558    5.6801   -0.3373 C   0  0  0  0  0  0  0  0  0  0  0  0
   -7.6018    4.3002   -0.7967 C   0  0  1  0  0  0  0  0  0  0  0  0
   -6.8652    4.3814   -2.1152 C   0  0  1  0  0  0  0  0  0  0  0  0
   -7.2960    3.4289   -2.5482 H   0  0  0  0  0  0  0  0  0  0  0  0
    1.2599    2.4738    1.6663 C   0  0  2  0  0  0  0  0  0  0  0  0
    2.6657    2.4070    1.5589 O   0  0  0  0  0  0  0  0  0  0  0  0
   -3.3927    1.6289   -0.8138 C   0  0  2  0  0  0  0  0  0  0  0  0
   -4.0309    1.7094    0.4433 O   0  0  0  0  0  0  0  0  0  0  0  0
   -0.9763    2.8917    0.3716 C   0  0  1  0  0  0  0  0  0  0  0  0
   -1.5911    3.2628    1.1913 H   0  0  0  0  0  0  0  0  0  0  0  0
   -5.3511    5.3652    1.3895 C   0  0  0  0  0  0  0  0  0  0  0  0
   -5.8088    6.4786    1.0773 O   0  0  0  0  0  0  0  0  0  0  0  0
   -4.4388    5.3377    2.3705 O   0  0  0  0  0  0  0  0  0  0  0  0
   -1.6316    0.0540    0.3241 C   0  0  0  0  0  0  0  0  0  0  0  0
   -1.8570   -1.1475   -0.5453 C   0  0  0  0  0  0  0  0  0  0  0  0
    0.1733    0.7306   -1.3051 H   0  0  0  0  0  0  0  0  0  0  0  0
    1.4284    1.7924   -1.0077 H   0  0  0  0  0  0  0  0  0  0  0  0
   -0.2195    1.1082    1.7109 H   0  0  0  0  0  0  0  0  0  0  0  0
    1.2755    0.3240    1.2694 H   0  0  0  0  0  0  0  0  0  0  0  0
    0.6805    4.4831    0.9326 H   0  0  0  0  0  0  0  0  0  0  0  0
    1.2864    3.4344   -0.1558 H   0  0  0  0  0  0  0  0  0  0  0  0
   -1.5491    1.2572   -1.4064 H   0  0  0  0  0  0  0  0  0  0  0  0
   -2.5008    5.7613   -2.2701 H   0  0  0  0  0  0  0  0  0  0  0  0
   -2.7096    6.0963   -0.5620 H   0  0  0  0  0  0  0  0  0  0  0  0
   -4.6713    6.6533   -2.0854 H   0  0  0  0  0  0  0  0  0  0  0  0
   -5.0590    5.7830   -0.7470 H   0  0  0  0  0  0  0  0  0  0  0  0
   -6.6521    4.3242   -4.9427 H   0  0  0  0  0  0  0  0  0  0  0  0
   -5.7509    5.4806   -4.2390 H   0  0  0  0  0  0  0  0  0  0  0  0
   -8.3594    5.3057   -3.3761 H   0  0  0  0  0  0  0  0  0  0  0  0
   -7.0218    6.3575   -2.8078 H   0  0  0  0  0  0  0  0  0  0  0  0
   -0.5760    3.8361   -2.9566 H   0  0  0  0  0  0  0  0  0  0  0  0
   -0.7168    5.1496   -1.8087 H   0  0  0  0  0  0  0  0  0  0  0  0
    0.8030    4.3577   -1.9260 H   0  0  0  0  0  0  0  0  0  0  0  0
   -3.0006    4.3233   -3.6217 H   0  0  0  0  0  0  0  0  0  0  0  0
   -4.3040    3.8848   -4.6540 H   0  0  0  0  0  0  0  0  0  0  0  0
   -3.9456    5.6078   -4.3422 H   0  0  0  0  0  0  0  0  0  0  0  0
   -5.1033    3.2781    1.3676 H   0  0  0  0  0  0  0  0  0  0  0  0
   -4.8998    3.9422   -0.1604 H   0  0  0  0  0  0  0  0  0  0  0  0
   -7.4760    3.1837    1.0622 H   0  0  0  0  0  0  0  0  0  0  0  0
   -6.6517    2.4592   -0.2928 H   0  0  0  0  0  0  0  0  0  0  0  0
   -8.7465    6.1339   -0.9368 H   0  0  0  0  0  0  0  0  0  0  0  0
   -8.2337    5.6779    0.7148 H   0  0  0  0  0  0  0  0  0  0  0  0
   -7.1032    6.3203   -0.5293 H   0  0  0  0  0  0  0  0  0  0  0  0
   -8.5614    3.7766   -0.9878 H   0  0  0  0  0  0  0  0  0  0  0  0
    0.9641    2.6876    2.6957 H   0  0  0  0  0  0  0  0  0  0  0  0
    2.9522    1.6287    2.0747 H   0  0  0  0  0  0  0  0  0  0  0  0
   -3.7255    0.7343   -1.3382 H   0  0  0  0  0  0  0  0  0  0  0  0
   -3.3947    2.1166    1.0649 H   0  0  0  0  0  0  0  0  0  0  0  0
   -4.0520    4.4581    2.4971 H   0  0  0  0  0  0  0  0  0  0  0  0
   -0.5858   -0.1808    0.4556 H   0  0  0  0  0  0  0  0  0  0  0  0
   -2.0753    0.0345    1.3159 H   0  0  0  0  0  0  0  0  0  0  0  0
   -1.2815   -1.0564   -1.4790 H   0  0  0  0  0  0  0  0  0  0  0  0
   -1.4384   -2.0084   -0.0110 H   0  0  0  0  0  0  0  0  0  0  0  0
   -2.9092   -1.2786   -0.7463 H   0  0  0  0  0  0  0  0  0  0  0  0
  1 36  1  0  0  0  0
  1 37  1  0  0  0  0
  2  1  1  0  0  0  0
  2 38  1  0  0  0  0
  2 39  1  0  0  0  0
  3 40  1  0  0  0  0
  3 41  1  0  0  0  0
  4 27  1  0  0  0  0
  4 34  1  0  0  0  0
  4 42  1  6  0  0  0
  5 11  1  0  0  0  0
  5 10  1  1  0  0  0
  5  1  1  0  0  0  0
  6  7  1  0  0  0  0
  6 43  1  0  0  0  0
  6 44  1  0  0  0  0
  7 45  1  0  0  0  0
  7 46  1  0  0  0  0
  8 47  1  0  0  0  0
  8 48  1  0  0  0  0
  9  8  1  0  0  0  0
  9 49  1  0  0  0  0
  9 50  1  0  0  0  0
 10 51  1  0  0  0  0
 10 52  1  0  0  0  0
 10 53  1  0  0  0  0
 11  6  1  0  0  0  0
 11 13  1  0  0  0  0
 11 12  1  1  0  0  0
 13 15  1  0  0  0  0
 13 27  1  0  0  0  0
 13 14  1  6  0  0  0
 15 16  1  0  0  0  0
 15  8  1  0  0  0  0
 15 18  1  1  0  0  0
 16 23  1  0  0  0  0
 16  7  1  0  0  0  0
 16 17  1  6  0  0  0
 17 54  1  0  0  0  0
 17 55  1  0  0  0  0
 17 56  1  0  0  0  0
 19 20  1  0  0  0  0
 19 31  1  0  0  0  0
 19 57  1  0  0  0  0
 19 58  1  0  0  0  0
 20 59  1  0  0  0  0
 20 60  1  0  0  0  0
 21 61  1  0  0  0  0
 21 62  1  0  0  0  0
 21 63  1  0  0  0  0
 22 20  1  0  0  0  0
 22 21  1  0  0  0  0
 22 64  1  6  0  0  0
 23  9  1  0  0  0  0
 23 24  1  6  0  0  0
 23 22  1  0  0  0  0
 25  3  1  0  0  0  0
 25  2  1  0  0  0  0
 25 65  1  1  0  0  0
 25 26  1  0  0  0  0
 26 66  1  0  0  0  0
 27 28  1  0  0  0  0
 27 67  1  6  0  0  0
 28 68  1  0  0  0  0
 29  5  1  0  0  0  0
 29  3  1  0  0  0  0
 29  4  1  0  0  0  0
 29 30  1  6  0  0  0
 31 33  1  0  0  0  0
 31 32  2  0  0  0  0
 33 69  1  0  0  0  0
 34 35  1  0  0  0  0
 34 70  1  0  0  0  0
 34 71  1  0  0  0  0
 35 72  1  0  0  0  0
 35 73  1  0  0  0  0
 35 74  1  0  0  0  0
M  END
>  <DRUGBANK_ID>
DB05990

>  <COMMON_NAME>
Obeticholic acid

>  <CAS_NUMBER>
459789-99-2

>  <UNII>
0462Z4S4OZ

>  <SYNONYMS>
(3α,5β,6α,7α)-6-ethyl-3,7-dihydroxycholan-24-oic acid; 6-alpha-ethylchenodeoxycholic acid; 6-ECDCA; 6-Ethyl-CDCA; 6-ethylchenodeoxycholic acid; 6alpha-Ethyl-chenodeoxycholic acid; 6α-ethylchenodeoxycholic acid; Obeticholic acid

$$$$
