
 OpenBabel10282417233D

 78 79  0  0  1  0  0  0  0  0999 V2000
    0.8458    0.4420    0.1139 O   0  0  0  0  0  0  0  0  0  0  0  0
    0.3121    1.0719   -1.2667 S   0  0  0  0  0  0  0  0  0  0  0  0
    0.9479    2.5354   -1.1228 O   0  0  0  0  0  0  0  0  0  0  0  0
    1.0164    0.4101   -2.3655 O   0  0  0  0  0  0  0  0  0  0  0  0
   -1.0985    1.1789   -1.1867 O   0  0  0  0  0  0  0  0  0  0  0  0
   -4.1792   -2.2839   -5.8441 H   0  0  0  0  0  0  0  0  0  0  0  0
   -3.9945   -2.9278   -4.9819 C   0  0  1  0  0  0  0  0  0  0  0  0
   -2.7699   -3.5801   -5.3150 O   0  0  0  0  0  0  0  0  0  0  0  0
   -2.9969   -4.9552   -5.1643 C   0  0  1  0  0  0  0  0  0  0  0  0
   -1.9435   -5.4620   -4.4882 O   0  0  0  0  0  0  0  0  0  0  0  0
   -1.7304   -5.2397   -3.1302 C   0  0  2  0  0  0  0  0  0  0  0  0
   -2.5918   -5.4536   -2.4898 H   0  0  0  0  0  0  0  0  0  0  0  0
   -1.1241   -3.9097   -2.7186 C   0  0  1  0  0  0  0  0  0  0  0  0
   -1.5399   -3.7093   -1.3346 O   0  0  0  0  0  0  0  0  0  0  0  0
    0.2382   -3.5952   -3.4307 C   0  0  2  0  0  0  0  0  0  0  0  0
    0.0025   -2.9429   -4.7345 N   0  0  0  0  0  0  0  0  0  0  0  0
    1.1984   -4.8073   -3.6530 C   0  0  0  0  0  0  0  0  0  0  0  0
    0.4703   -6.1126   -4.0023 C   0  0  2  0  0  0  0  0  0  0  0  0
    0.1396   -5.9203   -5.4518 N   0  0  0  0  0  0  0  0  0  0  0  0
   -0.7416   -6.3715   -3.0055 C   0  0  1  0  0  0  0  0  0  0  0  0
   -0.5127   -6.6675   -1.6479 O   0  0  0  0  0  0  0  0  0  0  0  0
    0.5601   -6.0143   -0.9963 C   0  0  1  0  0  0  0  0  0  0  0  0
    1.4498   -6.3363   -1.5303 H   0  0  0  0  0  0  0  0  0  0  0  0
    0.4174   -4.6170   -1.0209 O   0  0  0  0  0  0  0  0  0  0  0  0
    0.9866   -3.5951   -0.1885 C   0  0  2  0  0  0  0  0  0  0  0  0
    0.2640   -2.7519   -0.1801 H   0  0  0  0  0  0  0  0  0  0  0  0
    2.2550   -3.0892   -0.9078 C   0  0  1  0  0  0  0  0  0  0  0  0
    2.7297   -1.7303   -0.5513 C   0  0  0  0  0  0  0  0  0  0  0  0
    3.3644   -3.9457   -0.8322 O   0  0  0  0  0  0  0  0  0  0  0  0
    1.1020   -4.1347    1.2257 C   0  0  1  0  0  0  0  0  0  0  0  0
   -0.1878   -4.0812    1.8672 O   0  0  0  0  0  0  0  0  0  0  0  0
    1.5942   -5.5958    1.1488 C   0  0  2  0  0  0  0  0  0  0  0  0
    2.8483   -5.7105    0.4818 O   0  0  0  0  0  0  0  0  0  0  0  0
    0.6052   -6.5151    0.4279 C   0  0  1  0  0  0  0  0  0  0  0  0
   -0.7221   -6.6009    1.0587 N   0  0  0  0  0  0  0  0  0  0  0  0
   -4.2928   -5.2803   -4.4717 C   0  0  2  0  0  0  0  0  0  0  0  0
   -4.7843   -6.5609   -4.8721 O   0  0  0  0  0  0  0  0  0  0  0  0
   -5.0583   -4.0529   -4.8912 C   0  0  2  0  0  0  0  0  0  0  0  0
   -5.5957   -4.3212   -6.1950 O   0  0  0  0  0  0  0  0  0  0  0  0
   -3.8382   -2.0148   -3.7286 C   0  0  2  0  0  0  0  0  0  0  0  0
   -2.6104   -1.0757   -3.8404 C   0  0  0  0  0  0  0  0  0  0  0  0
   -3.8983   -2.7516   -2.4612 N   0  0  0  0  0  0  0  0  0  0  0  0
    1.8234    0.4681    0.1128 H   0  0  0  0  0  0  0  0  0  0  0  0
    0.5395    2.9474   -0.3350 H   0  0  0  0  0  0  0  0  0  0  0  0
   -2.9267   -5.4233   -6.1541 H   0  0  0  0  0  0  0  0  0  0  0  0
   -1.5786   -3.0011   -3.0194 H   0  0  0  0  0  0  0  0  0  0  0  0
   -1.1308   -4.4255   -0.8022 H   0  0  0  0  0  0  0  0  0  0  0  0
    0.6925   -2.7637   -2.9129 H   0  0  0  0  0  0  0  0  0  0  0  0
    0.7982   -3.0619   -5.3531 H   0  0  0  0  0  0  0  0  0  0  0  0
   -0.8429   -3.2924   -5.1866 H   0  0  0  0  0  0  0  0  0  0  0  0
    1.9508   -4.5810   -4.4203 H   0  0  0  0  0  0  0  0  0  0  0  0
    1.8474   -4.9744   -2.8004 H   0  0  0  0  0  0  0  0  0  0  0  0
    1.1181   -6.9878   -3.9649 H   0  0  0  0  0  0  0  0  0  0  0  0
   -0.6000   -6.5767   -5.7095 H   0  0  0  0  0  0  0  0  0  0  0  0
   -0.4349   -5.0616   -5.4500 H   0  0  0  0  0  0  0  0  0  0  0  0
   -1.2776   -7.2611   -3.3787 H   0  0  0  0  0  0  0  0  0  0  0  0
    2.0869   -3.0225   -1.9647 H   0  0  0  0  0  0  0  0  0  0  0  0
    2.8751   -1.6169    0.5206 H   0  0  0  0  0  0  0  0  0  0  0  0
    3.6592   -1.5107   -1.0821 H   0  0  0  0  0  0  0  0  0  0  0  0
    1.9847   -1.0660   -0.9424 H   0  0  0  0  0  0  0  0  0  0  0  0
    3.5727   -4.0440    0.1192 H   0  0  0  0  0  0  0  0  0  0  0  0
    1.7544   -3.4848    1.8114 H   0  0  0  0  0  0  0  0  0  0  0  0
   -0.2115   -4.7759    2.5517 H   0  0  0  0  0  0  0  0  0  0  0  0
    1.7532   -5.9639    2.1563 H   0  0  0  0  0  0  0  0  0  0  0  0
    2.7417   -5.4201   -0.4627 H   0  0  0  0  0  0  0  0  0  0  0  0
    1.0037   -7.5284    0.3443 H   0  0  0  0  0  0  0  0  0  0  0  0
   -0.6299   -6.9094    2.0177 H   0  0  0  0  0  0  0  0  0  0  0  0
   -1.1830   -5.6850    1.0423 H   0  0  0  0  0  0  0  0  0  0  0  0
   -4.2287   -5.3396   -3.3877 H   0  0  0  0  0  0  0  0  0  0  0  0
   -4.8659   -6.5762   -5.8392 H   0  0  0  0  0  0  0  0  0  0  0  0
   -5.8593   -3.8200   -4.1917 H   0  0  0  0  0  0  0  0  0  0  0  0
   -4.8564   -4.5405   -6.7894 H   0  0  0  0  0  0  0  0  0  0  0  0
   -4.7287   -1.3876   -3.6944 H   0  0  0  0  0  0  0  0  0  0  0  0
   -2.9131   -0.0283   -3.8169 H   0  0  0  0  0  0  0  0  0  0  0  0
   -1.8956   -1.1607   -3.0133 H   0  0  0  0  0  0  0  0  0  0  0  0
   -2.0535   -1.2355   -4.7708 H   0  0  0  0  0  0  0  0  0  0  0  0
   -3.5279   -2.1814   -1.6928 H   0  0  0  0  0  0  0  0  0  0  0  0
   -3.1960   -3.4819   -2.4578 H   0  0  0  0  0  0  0  0  0  0  0  0
  1  2  1  0  0  0  0
  1 43  1  0  0  0  0
  2  3  1  0  0  0  0
  2  4  2  0  0  0  0
  2  5  2  0  0  0  0
  3 44  1  0  0  0  0
  7  8  1  0  0  0  0
  7 38  1  0  0  0  0
  7 40  1  0  0  0  0
  7  6  1  6  0  0  0
  9  8  1  0  0  0  0
  9 45  1  6  0  0  0
  9 10  1  0  0  0  0
 11 10  1  0  0  0  0
 11 12  1  1  0  0  0
 11 13  1  0  0  0  0
 11 20  1  0  0  0  0
 13 15  1  0  0  0  0
 13 46  1  6  0  0  0
 13 14  1  0  0  0  0
 14 47  1  0  0  0  0
 15 16  1  0  0  0  0
 15 17  1  0  0  0  0
 15 48  1  1  0  0  0
 16 49  1  0  0  0  0
 16 50  1  0  0  0  0
 17 51  1  0  0  0  0
 17 52  1  0  0  0  0
 18 17  1  0  0  0  0
 18 19  1  0  0  0  0
 18 53  1  1  0  0  0
 19 54  1  0  0  0  0
 19 55  1  0  0  0  0
 20 18  1  0  0  0  0
 20 21  1  0  0  0  0
 20 56  1  6  0  0  0
 22 24  1  0  0  0  0
 22 23  1  6  0  0  0
 22 21  1  0  0  0  0
 25 24  1  0  0  0  0
 25 30  1  0  0  0  0
 25 27  1  0  0  0  0
 25 26  1  1  0  0  0
 27 28  1  0  0  0  0
 27 29  1  0  0  0  0
 27 57  1  6  0  0  0
 28 58  1  0  0  0  0
 28 59  1  0  0  0  0
 28 60  1  0  0  0  0
 29 61  1  0  0  0  0
 30 32  1  0  0  0  0
 30 62  1  1  0  0  0
 30 31  1  0  0  0  0
 31 63  1  0  0  0  0
 32 33  1  0  0  0  0
 32 34  1  0  0  0  0
 32 64  1  1  0  0  0
 33 65  1  0  0  0  0
 34 22  1  0  0  0  0
 34 35  1  0  0  0  0
 34 66  1  6  0  0  0
 35 67  1  0  0  0  0
 35 68  1  0  0  0  0
 36  9  1  0  0  0  0
 36 37  1  0  0  0  0
 36 69  1  1  0  0  0
 37 70  1  0  0  0  0
 38 36  1  0  0  0  0
 38 39  1  0  0  0  0
 38 71  1  1  0  0  0
 39 72  1  0  0  0  0
 40 73  1  6  0  0  0
 40 42  1  0  0  0  0
 40 41  1  0  0  0  0
 41 74  1  0  0  0  0
 41 75  1  0  0  0  0
 41 76  1  0  0  0  0
 42 77  1  0  0  0  0
 42 78  1  0  0  0  0
M  END
>  <DRUGBANK_ID>
DB16951

>  <COMMON_NAME>
NB-124 sulfate

>  <CAS_NUMBER>
1375073-96-3

>  <UNII>
DZ671709NT

>  <SYNONYMS>
6'-(r)-methyl-5-o-(5-amino-5,6-dideoxy-a-l-talofuranosyl)- paromamine sulfate; 6'-(r)-methyl-5-o-(5-amino-5,6-dideoxy-alpha-l-talofuranosyl)-paromamine sulfate; D-streptamine, o-5-amino-5,6-dideoxy-.beta.-d-allofuranosyl-(1->5)-o-(2-amino-2,7-dideoxy-d-glycero-.alpha.-d-gluco-heptopyranosyl-(1->4))-2-deoxy-, sulfate; Elx-02 sulfate; Exaluren disulfate; Exaluren sulfate

$$$$
