NIU
 OpenBabel10282417173D

 44 46  0  0  0  0  0  0  0  0999 V2000
   -4.5358    1.7538    0.9040 C   0  0  0  0  0  0  0  0  0  0  0  0
   -4.4545    3.2348    1.1333 C   0  0  0  0  0  0  0  0  0  0  0  0
   -4.1143    4.0269    0.2539 O   0  0  0  0  0  0  0  0  0  0  0  0
   -4.7671    3.7322    2.3678 O   0  0  0  0  0  0  0  0  0  0  0  0
   -5.1729    2.8857    3.4098 C   0  0  0  0  0  0  0  0  0  0  0  0
   -5.2486    1.5611    3.2269 C   0  0  0  0  0  0  0  0  0  0  0  0
   -4.9489    0.9943    1.9364 C   0  0  0  0  0  0  0  0  0  0  0  0
   -5.0961   -0.3758    1.8859 O   0  0  0  0  0  0  0  0  0  0  0  0
   -2.6480    0.5416   -0.1747 C   0  0  0  0  0  0  0  0  0  0  0  0
   -2.3228   -0.8233   -0.2335 C   0  0  0  0  0  0  0  0  0  0  0  0
   -0.9825   -1.2143   -0.0976 C   0  0  0  0  0  0  0  0  0  0  0  0
    0.0228   -0.2583    0.0781 C   0  0  0  0  0  0  0  0  0  0  0  0
   -0.3008    1.0866    0.1576 C   0  0  0  0  0  0  0  0  0  0  0  0
   -1.6227    1.4709    0.0632 C   0  0  0  0  0  0  0  0  0  0  0  0
   -4.0417    1.1322   -0.4110 C   0  0  2  0  0  0  0  0  0  0  0  0
   -3.9661    2.1014   -1.6213 C   0  0  0  0  0  0  0  0  0  0  0  0
   -3.4786    1.4523   -2.9054 C   0  0  0  0  0  0  0  0  0  0  0  0
   -5.6025    3.5825    4.6809 C   0  0  0  0  0  0  0  0  0  0  0  0
   -7.1119    3.4199    4.9376 C   0  0  0  0  0  0  0  0  0  0  0  0
   -7.5052    2.0347    5.4724 C   0  0  0  0  0  0  0  0  0  0  0  0
   -7.2270    0.8832    4.5071 C   0  0  0  0  0  0  0  0  0  0  0  0
   -5.7283    0.6692    4.3299 C   0  0  0  0  0  0  0  0  0  0  0  0
   -4.7374    0.3321   -0.7108 H   0  0  0  0  0  0  0  0  0  0  0  0
   -4.8201   -0.7252    1.0270 H   0  0  0  0  0  0  0  0  0  0  0  0
   -3.0701   -1.5964   -0.4038 H   0  0  0  0  0  0  0  0  0  0  0  0
   -0.7042   -2.2652   -0.1467 H   0  0  0  0  0  0  0  0  0  0  0  0
    1.0646   -0.5528    0.1525 H   0  0  0  0  0  0  0  0  0  0  0  0
    0.4552    1.8547    0.2761 H   0  0  0  0  0  0  0  0  0  0  0  0
   -1.8539    2.5310    0.1290 H   0  0  0  0  0  0  0  0  0  0  0  0
   -4.9397    2.5752   -1.7863 H   0  0  0  0  0  0  0  0  0  0  0  0
   -3.2496    2.9076   -1.4375 H   0  0  0  0  0  0  0  0  0  0  0  0
   -4.1777    0.6878   -3.2459 H   0  0  0  0  0  0  0  0  0  0  0  0
   -3.3741    2.2212   -3.6767 H   0  0  0  0  0  0  0  0  0  0  0  0
   -2.4905    0.9984   -2.7775 H   0  0  0  0  0  0  0  0  0  0  0  0
   -5.3537    4.6506    4.6320 H   0  0  0  0  0  0  0  0  0  0  0  0
   -5.0313    3.1933    5.5337 H   0  0  0  0  0  0  0  0  0  0  0  0
   -7.6746    3.6332    4.0195 H   0  0  0  0  0  0  0  0  0  0  0  0
   -7.4347    4.1633    5.6773 H   0  0  0  0  0  0  0  0  0  0  0  0
   -6.9748    1.8486    6.4148 H   0  0  0  0  0  0  0  0  0  0  0  0
   -8.5744    2.0319    5.7107 H   0  0  0  0  0  0  0  0  0  0  0  0
   -7.6662   -0.0364    4.9046 H   0  0  0  0  0  0  0  0  0  0  0  0
   -7.7218    1.0765    3.5440 H   0  0  0  0  0  0  0  0  0  0  0  0
   -5.5160   -0.3850    4.1348 H   0  0  0  0  0  0  0  0  0  0  0  0
   -5.1784    0.8933    5.2531 H   0  0  0  0  0  0  0  0  0  0  0  0
  1  2  1  0  0  0  0
  1  7  2  0  0  0  0
  2  3  2  0  0  0  0
  2  4  1  0  0  0  0
  4  5  1  0  0  0  0
  5  6  2  0  0  0  0
  5 18  1  0  0  0  0
  6  7  1  0  0  0  0
  6 22  1  0  0  0  0
  7  8  1  0  0  0  0
  8 24  1  0  0  0  0
  9 10  2  0  0  0  0
  9 14  1  0  0  0  0
 10 11  1  0  0  0  0
 10 25  1  0  0  0  0
 11 12  2  0  0  0  0
 11 26  1  0  0  0  0
 12 13  1  0  0  0  0
 12 27  1  0  0  0  0
 13 14  2  0  0  0  0
 13 28  1  0  0  0  0
 14 29  1  0  0  0  0
 15 16  1  0  0  0  0
 15 23  1  6  0  0  0
 15  9  1  0  0  0  0
 15  1  1  0  0  0  0
 16 17  1  0  0  0  0
 16 30  1  0  0  0  0
 16 31  1  0  0  0  0
 17 32  1  0  0  0  0
 17 33  1  0  0  0  0
 17 34  1  0  0  0  0
 18 19  1  0  0  0  0
 18 35  1  0  0  0  0
 18 36  1  0  0  0  0
 19 20  1  0  0  0  0
 19 37  1  0  0  0  0
 19 38  1  0  0  0  0
 20 21  1  0  0  0  0
 20 39  1  0  0  0  0
 20 40  1  0  0  0  0
 21 22  1  0  0  0  0
 21 41  1  0  0  0  0
 21 42  1  0  0  0  0
 22 43  1  0  0  0  0
 22 44  1  0  0  0  0
M  END
>  <DRUGBANK_ID>
DB08274

>  <COMMON_NAME>
6,7,8,9-TETRAHYDRO-4-HYDROXY-3-(1-PHENYLPROPYL)CYCLOHEPTA[B]PYRAN-2-ONE

$$$$
