
 OpenBabel10282417153D

 33 33  0  0  1  0  0  0  0  0999 V2000
    0.9931    0.0640   -0.0766 Cl  0  0  0  0  0  0  0  0  0  0  0  0
    1.0551   -0.0628    0.0550 S   0  0  0  0  0  0  0  0  0  0  0  0
    1.7328    2.3047    1.4524 O   0  0  0  0  0  0  0  0  0  0  0  0
    1.5460    2.2577   -2.0072 O   0  0  0  0  0  0  0  0  0  0  0  0
    3.7578    3.1586   -0.0026 O   0  0  0  0  0  0  0  0  0  0  0  0
   -0.0775    4.7152   -0.6852 O   0  0  0  0  0  0  0  0  0  0  0  0
   -0.0895    3.3658    3.5421 O   0  0  0  0  0  0  0  0  0  0  0  0
    3.3252    1.0795    0.1176 N   0  0  0  0  0  0  0  0  0  0  0  0
    3.3664   -1.2775   -0.0115 N   0  0  0  0  0  0  0  0  0  0  0  0
    5.3842   -2.6079    0.1742 N   0  0  0  0  0  0  0  0  0  0  0  0
    1.7733    3.1000   -0.8868 C   0  0  2  0  0  0  0  0  0  0  0  0
    2.5998    2.3566    0.1774 C   0  0  1  0  0  0  0  0  0  0  0  0
    0.4325    3.4740   -0.2209 C   0  0  1  0  0  0  0  0  0  0  0  0
    0.7533    3.4940    1.2974 C   0  0  1  0  0  0  0  0  0  0  0  0
   -0.4808    3.3788    2.1771 C   0  0  0  0  0  0  0  0  0  0  0  0
    4.7154    1.0486    0.1256 C   0  0  0  0  0  0  0  0  0  0  0  0
    2.6750   -0.0628    0.0550 C   0  0  0  0  0  0  0  0  0  0  0  0
    5.3178   -0.1498    0.5694 C   0  0  0  0  0  0  0  0  0  0  0  0
    4.6573   -1.3320    0.2397 C   0  0  0  0  0  0  0  0  0  0  0  0
    2.3231    0.0640   -0.0766 H   0  0  0  0  0  0  0  0  0  0  0  0
    2.3577    2.1129   -2.5730 H   0  0  0  0  0  0  0  0  0  0  0  0
    3.4986    4.1244    0.0037 H   0  0  0  0  0  0  0  0  0  0  0  0
    0.5888    5.4384   -0.5032 H   0  0  0  0  0  0  0  0  0  0  0  0
    0.5128    2.5851    3.7088 H   0  0  0  0  0  0  0  0  0  0  0  0
    6.3846   -2.6357    0.3713 H   0  0  0  0  0  0  0  0  0  0  0  0
    4.8883   -3.4656   -0.0684 H   0  0  0  0  0  0  0  0  0  0  0  0
    2.2873    3.9711   -1.2358 H   0  0  0  0  0  0  0  0  0  0  0  0
   -0.3172    2.7428   -0.4406 H   0  0  0  0  0  0  0  0  0  0  0  0
    1.2168    4.4155    1.5819 H   0  0  0  0  0  0  0  0  0  0  0  0
   -1.1252    4.2141    1.9988 H   0  0  0  0  0  0  0  0  0  0  0  0
   -1.0000    2.4721    1.9463 H   0  0  0  0  0  0  0  0  0  0  0  0
    5.2987    1.8890   -0.1881 H   0  0  0  0  0  0  0  0  0  0  0  0
    6.2306   -0.1498    1.1278 H   0  0  0  0  0  0  0  0  0  0  0  0
  1 20  1  0  0  0  0
  2 17  2  0  0  0  0
  3 12  1  0  0  0  0
  3 14  1  0  0  0  0
  4 21  1  0  0  0  0
  5 22  1  0  0  0  0
  6 23  1  0  0  0  0
  7 15  1  0  0  0  0
  7 24  1  0  0  0  0
  8 12  1  0  0  0  0
  8 16  1  0  0  0  0
  8 17  1  0  0  0  0
  9 17  1  0  0  0  0
  9 19  2  0  0  0  0
 10 19  1  0  0  0  0
 10 25  1  0  0  0  0
 10 26  1  0  0  0  0
 11 12  1  0  0  0  0
 11 13  1  0  0  0  0
 11 27  1  6  0  0  0
 11  4  1  0  0  0  0
 12  5  1  1  0  0  0
 13  6  1  0  0  0  0
 13 14  1  0  0  0  0
 13 28  1  6  0  0  0
 14 15  1  0  0  0  0
 14 29  1  1  0  0  0
 15 30  1  0  0  0  0
 15 31  1  0  0  0  0
 16 18  2  0  0  0  0
 16 32  1  0  0  0  0
 18 19  1  0  0  0  0
 18 33  1  0  0  0  0
M  END
>  <DRUGBANK_ID>
DB05837

>  <COMMON_NAME>
OSI-7836

>  <UNII>
YCO2764D5Z

$$$$
