
 OpenBabel10282417183D

 30 29  0  0  0  0  0  0  0  0999 V2000
   -3.0325   -0.1149    2.8077 C   0  0  0  0  0  0  0  0  0  0  0  0
   -1.6967   -0.0489    2.4748 N   0  0  0  0  0  0  0  0  0  0  0  0
    0.3556    0.4474    1.2331 C   0  0  0  0  0  0  0  0  0  0  0  0
   -1.1888    0.5463    1.2435 C   0  0  2  0  0  0  0  0  0  0  0  0
   -1.7442    1.9890   -1.4853 C   0  0  0  0  0  0  0  0  0  0  0  0
   -3.9307    0.3857    2.1363 O   0  0  0  0  0  0  0  0  0  0  0  0
    1.0543   -0.0860    2.0887 O   0  0  0  0  0  0  0  0  0  0  0  0
   -2.4825    2.5466   -2.2911 O   0  0  0  0  0  0  0  0  0  0  0  0
   -3.3373   -0.8509    4.1225 C   0  0  1  0  0  0  0  0  0  0  0  0
   -1.6644    1.9973    1.0682 C   0  0  0  0  0  0  0  0  0  0  0  0
   -1.2413    2.6845   -0.2295 C   0  0  0  0  0  0  0  0  0  0  0  0
   -1.3462    0.7058   -1.7153 N   0  0  0  0  0  0  0  0  0  0  0  0
    0.9375    0.9684    0.1317 O   0  0  0  0  0  0  0  0  0  0  0  0
   -2.1264   -1.5136    4.6571 N   0  0  0  0  0  0  0  0  0  0  0  0
   -3.9024    0.1320    5.1404 C   0  0  0  0  0  0  0  0  0  0  0  0
   -1.0551   -0.5911    3.0511 H   0  0  0  0  0  0  0  0  0  0  0  0
   -1.5908   -0.1061    0.4671 H   0  0  0  0  0  0  0  0  0  0  0  0
   -4.0837   -1.6213    3.8972 H   0  0  0  0  0  0  0  0  0  0  0  0
   -2.7581    2.0447    1.0936 H   0  0  0  0  0  0  0  0  0  0  0  0
   -1.3252    2.5893    1.9291 H   0  0  0  0  0  0  0  0  0  0  0  0
   -1.6645    3.6969   -0.2232 H   0  0  0  0  0  0  0  0  0  0  0  0
   -0.1637    2.8461   -0.2862 H   0  0  0  0  0  0  0  0  0  0  0  0
   -0.5811    0.2532   -1.2338 H   0  0  0  0  0  0  0  0  0  0  0  0
   -1.7217    0.2359   -2.5287 H   0  0  0  0  0  0  0  0  0  0  0  0
    1.9042    1.0150    0.3030 H   0  0  0  0  0  0  0  0  0  0  0  0
   -2.3813   -1.9853    5.5255 H   0  0  0  0  0  0  0  0  0  0  0  0
   -1.8544   -2.2577    4.0147 H   0  0  0  0  0  0  0  0  0  0  0  0
   -4.8121    0.6104    4.7580 H   0  0  0  0  0  0  0  0  0  0  0  0
   -4.1641   -0.3742    6.0755 H   0  0  0  0  0  0  0  0  0  0  0  0
   -3.1875    0.9307    5.3673 H   0  0  0  0  0  0  0  0  0  0  0  0
  2  1  1  0  0  0  0
  2 16  1  0  0  0  0
  4 17  1  6  0  0  0
  4  2  1  0  0  0  0
  4  3  1  0  0  0  0
  5 11  1  0  0  0  0
  6  1  2  0  0  0  0
  7  3  2  0  0  0  0
  8  5  2  0  0  0  0
  9  1  1  0  0  0  0
  9 14  1  0  0  0  0
  9 18  1  6  0  0  0
 10  4  1  0  0  0  0
 10 19  1  0  0  0  0
 10 20  1  0  0  0  0
 11 10  1  0  0  0  0
 11 21  1  0  0  0  0
 11 22  1  0  0  0  0
 12  5  1  0  0  0  0
 12 23  1  0  0  0  0
 12 24  1  0  0  0  0
 13  3  1  0  0  0  0
 13 25  1  0  0  0  0
 14 26  1  0  0  0  0
 14 27  1  0  0  0  0
 15  9  1  0  0  0  0
 15 28  1  0  0  0  0
 15 29  1  0  0  0  0
 15 30  1  0  0  0  0
M  END
>  <DRUGBANK_ID>
DB11876

>  <COMMON_NAME>
Alanyl glutamine

>  <CAS_NUMBER>
39537-23-0

>  <UNII>
U5JDO2770Z

>  <SYNONYMS>
Alanyl glutamine; Alanyl-glutamine dipeptide; Alanylglutamine; L-Alanyl-L-glutamine; N(2)-L-Alanyl-L-glutamine

$$$$
