
 OpenBabel10282417243D

 54 56  0  0  0  0  0  0  0  0999 V2000
    1.0819    0.0338    0.0089 C   0  0  0  0  0  0  0  0  0  0  0  0
    0.5153    0.0064    1.4089 C   0  0  0  0  0  0  0  0  0  0  0  0
   -0.1742    1.0278    1.9741 C   0  0  0  0  0  0  0  0  0  0  0  0
   -0.6523    2.1491    1.2322 C   0  0  0  0  0  0  0  0  0  0  0  0
   -1.2001    2.1592   -0.0387 C   0  0  0  0  0  0  0  0  0  0  0  0
   -1.4468    3.4629   -0.5205 C   0  0  0  0  0  0  0  0  0  0  0  0
   -1.2239    4.4374    0.4311 C   0  0  0  0  0  0  0  0  0  0  0  0
   -0.6708    3.7444    1.8963 S   0  0  0  0  0  0  0  0  0  0  0  0
   -1.4363    5.8550    0.2041 C   0  0  0  0  0  0  0  0  0  0  0  0
   -1.1836    6.6562    1.2670 O   0  0  0  0  0  0  0  0  0  0  0  0
   -1.8214    6.3241   -0.8645 O   0  0  0  0  0  0  0  0  0  0  0  0
    0.7740   -1.2323    2.2085 C   0  0  0  0  0  0  0  0  0  0  0  0
    2.0488   -1.8289    2.2052 C   0  0  0  0  0  0  0  0  0  0  0  0
    2.3996   -2.9285    3.0329 C   0  0  0  0  0  0  0  0  0  0  0  0
    1.4104   -3.4875    3.8593 C   0  0  0  0  0  0  0  0  0  0  0  0
    0.1216   -2.9259    3.8180 C   0  0  0  0  0  0  0  0  0  0  0  0
   -0.2188   -1.8469    2.9850 C   0  0  0  0  0  0  0  0  0  0  0  0
   -1.6635   -1.4288    2.9940 C   0  0  0  0  0  0  0  0  0  0  0  0
    1.6889   -4.6564    4.8107 C   0  0  0  0  0  0  0  0  0  0  0  0
    0.5544   -5.7011    4.7377 C   0  0  0  0  0  0  0  0  0  0  0  0
    1.7891   -4.1202    6.2545 C   0  0  0  0  0  0  0  0  0  0  0  0
    3.0070   -5.3757    4.4548 C   0  0  0  0  0  0  0  0  0  0  0  0
    4.1263   -4.3617    4.2463 C   0  0  0  0  0  0  0  0  0  0  0  0
    3.8344   -3.4741    3.0133 C   0  0  0  0  0  0  0  0  0  0  0  0
    4.8564   -2.3180    3.0288 C   0  0  0  0  0  0  0  0  0  0  0  0
    4.0390   -4.3179    1.7394 C   0  0  0  0  0  0  0  0  0  0  0  0
    0.8793    0.9655   -0.5204 H   0  0  0  0  0  0  0  0  0  0  0  0
    0.6658   -0.7769   -0.5968 H   0  0  0  0  0  0  0  0  0  0  0  0
    2.1723   -0.0285    0.0153 H   0  0  0  0  0  0  0  0  0  0  0  0
   -0.4760    0.9705    3.0194 H   0  0  0  0  0  0  0  0  0  0  0  0
   -1.3387    1.2647   -0.6364 H   0  0  0  0  0  0  0  0  0  0  0  0
   -1.7851    3.6846   -1.5258 H   0  0  0  0  0  0  0  0  0  0  0  0
   -0.8840    6.1748    2.0597 H   0  0  0  0  0  0  0  0  0  0  0  0
    2.8099   -1.4105    1.5534 H   0  0  0  0  0  0  0  0  0  0  0  0
   -0.6616   -3.3239    4.4598 H   0  0  0  0  0  0  0  0  0  0  0  0
   -2.3070   -2.2845    2.7708 H   0  0  0  0  0  0  0  0  0  0  0  0
   -1.9141   -1.0149    3.9753 H   0  0  0  0  0  0  0  0  0  0  0  0
   -1.9050   -0.6877    2.2326 H   0  0  0  0  0  0  0  0  0  0  0  0
    0.7558   -6.5561    5.3902 H   0  0  0  0  0  0  0  0  0  0  0  0
   -0.4103   -5.2916    5.0542 H   0  0  0  0  0  0  0  0  0  0  0  0
    0.4301   -6.0708    3.7126 H   0  0  0  0  0  0  0  0  0  0  0  0
    2.5825   -3.3728    6.3641 H   0  0  0  0  0  0  0  0  0  0  0  0
    0.8615   -3.6355    6.5734 H   0  0  0  0  0  0  0  0  0  0  0  0
    2.0051   -4.9335    6.9568 H   0  0  0  0  0  0  0  0  0  0  0  0
    2.8744   -5.9816    3.5506 H   0  0  0  0  0  0  0  0  0  0  0  0
    3.2869   -6.0882    5.2407 H   0  0  0  0  0  0  0  0  0  0  0  0
    4.2405   -3.7391    5.1419 H   0  0  0  0  0  0  0  0  0  0  0  0
    5.0852   -4.8829    4.1348 H   0  0  0  0  0  0  0  0  0  0  0  0
    5.8841   -2.6936    3.0473 H   0  0  0  0  0  0  0  0  0  0  0  0
    4.7757   -1.6793    2.1438 H   0  0  0  0  0  0  0  0  0  0  0  0
    4.7082   -1.6785    3.9077 H   0  0  0  0  0  0  0  0  0  0  0  0
    3.3382   -5.1580    1.6837 H   0  0  0  0  0  0  0  0  0  0  0  0
    3.8870   -3.7259    0.8325 H   0  0  0  0  0  0  0  0  0  0  0  0
    5.0525   -4.7345    1.7085 H   0  0  0  0  0  0  0  0  0  0  0  0
  1  2  1  0  0  0  0
  1 27  1  0  0  0  0
  1 28  1  0  0  0  0
  1 29  1  0  0  0  0
  2  3  2  0  0  0  0
  2 12  1  0  0  0  0
  3  4  1  0  0  0  0
  3 30  1  0  0  0  0
  4  5  2  0  0  0  0
  4  8  1  0  0  0  0
  5  6  1  0  0  0  0
  5 31  1  0  0  0  0
  6  7  2  0  0  0  0
  6 32  1  0  0  0  0
  7  8  1  0  0  0  0
  7  9  1  0  0  0  0
  9 10  1  0  0  0  0
  9 11  2  0  0  0  0
 10 33  1  0  0  0  0
 12 13  2  0  0  0  0
 12 17  1  0  0  0  0
 13 14  1  0  0  0  0
 13 34  1  0  0  0  0
 14 15  2  0  0  0  0
 14 24  1  0  0  0  0
 15 16  1  0  0  0  0
 15 19  1  0  0  0  0
 16 17  2  0  0  0  0
 16 35  1  0  0  0  0
 17 18  1  0  0  0  0
 18 36  1  0  0  0  0
 18 37  1  0  0  0  0
 18 38  1  0  0  0  0
 19 20  1  0  0  0  0
 19 21  1  0  0  0  0
 19 22  1  0  0  0  0
 20 39  1  0  0  0  0
 20 40  1  0  0  0  0
 20 41  1  0  0  0  0
 21 42  1  0  0  0  0
 21 43  1  0  0  0  0
 21 44  1  0  0  0  0
 22 23  1  0  0  0  0
 22 45  1  0  0  0  0
 22 46  1  0  0  0  0
 23 24  1  0  0  0  0
 23 47  1  0  0  0  0
 23 48  1  0  0  0  0
 24 25  1  0  0  0  0
 24 26  1  0  0  0  0
 25 49  1  0  0  0  0
 25 50  1  0  0  0  0
 25 51  1  0  0  0  0
 26 52  1  0  0  0  0
 26 53  1  0  0  0  0
 26 54  1  0  0  0  0
M  END
>  <DRUGBANK_ID>
DB18220

>  <COMMON_NAME>
Indralin

>  <CAS_NUMBER>
156691-86-0

>  <UNII>
ACF4F9H44I

>  <SYNONYMS>
2-thiophenecarboxylic acid, 5-((1e)-2-(5,6,7,8-tetrahydro-3,5,5,8,8-pentamethyl-2-naphthalenyl)-1-propen-1-yl)-; 5-((1e)-2-(5,6,7,8-tetrahydro-3,5,5,8,8-pentamethyl-2-naphthalenyl)-1-propen-1-yl)-2-thiophenecarboxylic acid; Indraline

$$$$
