
 OpenBabel10282417193D

 43 44  0  0  0  0  0  0  0  0999 V2000
    1.0909    0.0769    0.0720 C   0  0  0  0  0  0  0  0  0  0  0  0
    0.5324   -0.3255    1.3625 N   0  0  0  0  0  0  0  0  0  0  0  0
   -0.9176   -0.1915    1.5021 C   0  0  0  0  0  0  0  0  0  0  0  0
    0.9976   -1.6619    1.7443 C   0  0  0  0  0  0  0  0  0  0  0  0
    0.5726   -2.8062    0.8386 C   0  0  0  0  0  0  0  0  0  0  0  0
    1.1232   -4.0624    1.0764 C   0  0  0  0  0  0  0  0  0  0  0  0
    0.7731   -5.1391    0.2654 C   0  0  0  0  0  0  0  0  0  0  0  0
   -0.1733   -4.9786   -0.7528 C   0  0  0  0  0  0  0  0  0  0  0  0
   -0.7791   -3.7573   -0.9673 C   0  0  0  0  0  0  0  0  0  0  0  0
   -0.3531   -2.6840   -0.2180 C   0  0  0  0  0  0  0  0  0  0  0  0
   -0.5846   -6.2252   -1.9179 S   0  0  0  0  0  0  0  0  0  0  0  0
   -1.9698   -6.6098   -1.7023 O   0  0  0  0  0  0  0  0  0  0  0  0
   -0.0876   -5.7861   -3.2044 O   0  0  0  0  0  0  0  0  0  0  0  0
    0.3209   -7.5881   -1.5045 N   0  0  0  0  0  0  0  0  0  0  0  0
    0.2437   -8.2768   -0.3203 C   0  0  0  0  0  0  0  0  0  0  0  0
    1.1481   -9.3156   -0.3877 C   0  0  0  0  0  0  0  0  0  0  0  0
    1.7546   -9.2436   -1.6579 C   0  0  0  0  0  0  0  0  0  0  0  0
    1.2492   -8.1502   -2.3268 C   0  0  0  0  0  0  0  0  0  0  0  0
    2.7128  -10.0879   -2.2605 C   0  0  0  0  0  0  0  0  0  0  0  0
    3.2786  -11.1825   -1.7414 C   0  0  0  0  0  0  0  0  0  0  0  0
    4.2793  -12.1147   -2.3281 C   0  0  0  0  0  0  0  0  0  0  0  0
    4.6402  -13.0594   -1.6189 O   0  0  0  0  0  0  0  0  0  0  0  0
    4.8109  -11.9984   -3.5611 N   0  0  0  0  0  0  0  0  0  0  0  0
    4.6247  -11.0699   -4.5777 O   0  0  0  0  0  0  0  0  0  0  0  0
    0.7452    1.0694   -0.2218 H   0  0  0  0  0  0  0  0  0  0  0  0
    0.8639   -0.5917   -0.7610 H   0  0  0  0  0  0  0  0  0  0  0  0
    2.1859    0.1029    0.1275 H   0  0  0  0  0  0  0  0  0  0  0  0
   -1.5227   -0.8973    0.9340 H   0  0  0  0  0  0  0  0  0  0  0  0
   -1.2181   -0.3602    2.5419 H   0  0  0  0  0  0  0  0  0  0  0  0
   -1.2574    0.8007    1.2007 H   0  0  0  0  0  0  0  0  0  0  0  0
    2.0966   -1.6442    1.8040 H   0  0  0  0  0  0  0  0  0  0  0  0
    0.6633   -1.8805    2.7691 H   0  0  0  0  0  0  0  0  0  0  0  0
    1.8521   -4.1987    1.8734 H   0  0  0  0  0  0  0  0  0  0  0  0
    1.2701   -6.0793    0.4601 H   0  0  0  0  0  0  0  0  0  0  0  0
   -1.5397   -3.6025   -1.7301 H   0  0  0  0  0  0  0  0  0  0  0  0
   -0.7657   -1.7367   -0.5423 H   0  0  0  0  0  0  0  0  0  0  0  0
   -0.4202   -7.9665    0.4750 H   0  0  0  0  0  0  0  0  0  0  0  0
    1.3379  -10.0507    0.3836 H   0  0  0  0  0  0  0  0  0  0  0  0
    1.4505   -7.7514   -3.3160 H   0  0  0  0  0  0  0  0  0  0  0  0
    2.9330   -9.7297   -3.2432 H   0  0  0  0  0  0  0  0  0  0  0  0
    3.0017  -11.4931   -0.7335 H   0  0  0  0  0  0  0  0  0  0  0  0
    5.4797  -12.7215   -3.8058 H   0  0  0  0  0  0  0  0  0  0  0  0
    3.9640  -10.4505   -4.2694 H   0  0  0  0  0  0  0  0  0  0  0  0
  1  2  1  0  0  0  0
  1 25  1  0  0  0  0
  1 26  1  0  0  0  0
  1 27  1  0  0  0  0
  2  3  1  0  0  0  0
  2  4  1  0  0  0  0
  3 28  1  0  0  0  0
  3 29  1  0  0  0  0
  3 30  1  0  0  0  0
  4  5  1  0  0  0  0
  4 31  1  0  0  0  0
  4 32  1  0  0  0  0
  5  6  2  0  0  0  0
  5 10  1  0  0  0  0
  6  7  1  0  0  0  0
  6 33  1  0  0  0  0
  7  8  2  0  0  0  0
  7 34  1  0  0  0  0
  8  9  1  0  0  0  0
  8 11  1  0  0  0  0
  9 10  2  0  0  0  0
  9 35  1  0  0  0  0
 10 36  1  0  0  0  0
 11 12  2  0  0  0  0
 11 13  2  0  0  0  0
 11 14  1  0  0  0  0
 14 15  1  0  0  0  0
 14 18  1  0  0  0  0
 15 16  2  0  0  0  0
 15 37  1  0  0  0  0
 16 17  1  0  0  0  0
 16 38  1  0  0  0  0
 17 18  2  0  0  0  0
 17 19  1  0  0  0  0
 18 39  1  0  0  0  0
 19 20  2  0  0  0  0
 19 40  1  0  0  0  0
 20 21  1  0  0  0  0
 20 41  1  0  0  0  0
 21 22  2  0  0  0  0
 21 23  1  0  0  0  0
 23 24  1  0  0  0  0
 23 42  1  0  0  0  0
 24 43  1  0  0  0  0
M  END
>  <DRUGBANK_ID>
DB12392

>  <COMMON_NAME>
Resminostat

>  <CAS_NUMBER>
864814-88-0

>  <UNII>
1578EUB98L

>  <SYNONYMS>
Resminostat

$$$$
