
 OpenBabel10282417173D

 54 57  0  0  0  0  0  0  0  0999 V2000
    3.6108    4.4601    4.5783 C   0  0  0  0  0  0  0  0  0  0  0  0
    3.0386    5.3406    3.6775 C   0  0  0  0  0  0  0  0  0  0  0  0
    2.6203    4.8290    2.4421 C   0  0  0  0  0  0  0  0  0  0  0  0
    2.3382    3.4564    2.1989 C   0  0  0  0  0  0  0  0  0  0  0  0
    3.0292    2.6256    3.0551 C   0  0  0  0  0  0  0  0  0  0  0  0
    3.7778    3.1801    4.0877 C   0  0  0  0  0  0  0  0  0  0  0  0
    2.8629    6.7593    3.7540 C   0  0  0  0  0  0  0  0  0  0  0  0
    2.3893    7.2634    2.5699 C   0  0  0  0  0  0  0  0  0  0  0  0
    2.8546    6.1557    1.3456 S   0  0  0  0  0  0  0  0  0  0  0  0
    4.0912    4.9334    5.7637 O   0  0  0  0  0  0  0  0  0  0  0  0
    4.6663    3.9894    6.6724 C   0  0  0  0  0  0  0  0  0  0  0  0
    3.6455    3.1046    7.4164 C   0  0  0  0  0  0  0  0  0  0  0  0
    2.9364    2.0534    6.6106 C   0  0  0  0  0  0  0  0  0  0  0  0
    2.4340    0.4241    5.1731 O   0  0  0  0  0  0  0  0  0  0  0  0
    3.4564    0.9501    5.9410 C   0  0  0  0  0  0  0  0  0  0  0  0
    1.6090    2.2360    6.2416 N   0  0  0  0  0  0  0  0  0  0  0  0
    1.3520    1.2702    5.3789 C   0  0  0  0  0  0  0  0  0  0  0  0
    4.8639    0.5160    5.6472 C   0  0  0  0  0  0  0  0  0  0  0  0
    0.1788    1.0817    4.5001 C   0  0  0  0  0  0  0  0  0  0  0  0
   -1.5863    1.9474    3.0207 C   0  0  0  0  0  0  0  0  0  0  0  0
   -0.4976    2.1574    3.9075 C   0  0  0  0  0  0  0  0  0  0  0  0
   -0.3014   -0.1932    4.1982 C   0  0  0  0  0  0  0  0  0  0  0  0
   -1.3099   -0.4012    3.2398 C   0  0  0  0  0  0  0  0  0  0  0  0
   -1.9384    0.6699    2.6260 C   0  0  0  0  0  0  0  0  0  0  0  0
    1.5175    2.8507    1.0717 C   0  0  0  0  0  0  0  0  0  0  0  0
    0.1461    3.5261    0.9384 C   0  0  2  0  0  0  0  0  0  0  0  0
   -0.6700    2.9507   -0.0897 O   0  0  0  0  0  0  0  0  0  0  0  0
    0.1546    5.0527    0.9467 C   0  0  0  0  0  0  0  0  0  0  0  0
   -0.3876    5.6182    2.0646 O   0  0  0  0  0  0  0  0  0  0  0  0
    0.5058    5.7112   -0.0007 O   0  0  0  0  0  0  0  0  0  0  0  0
   -1.4675    3.9481   -0.7404 C   0  0  0  0  0  0  0  0  0  0  0  0
    3.0073    1.5413    2.9311 H   0  0  0  0  0  0  0  0  0  0  0  0
    4.4775    2.5629    4.5942 H   0  0  0  0  0  0  0  0  0  0  0  0
    3.1138    7.3599    4.6174 H   0  0  0  0  0  0  0  0  0  0  0  0
    2.0749    8.2656    2.3249 H   0  0  0  0  0  0  0  0  0  0  0  0
    5.4820    3.4323    6.1972 H   0  0  0  0  0  0  0  0  0  0  0  0
    5.1681    4.6077    7.4286 H   0  0  0  0  0  0  0  0  0  0  0  0
    4.1750    2.5907    8.2264 H   0  0  0  0  0  0  0  0  0  0  0  0
    2.8923    3.7583    7.8703 H   0  0  0  0  0  0  0  0  0  0  0  0
    5.0334   -0.5459    5.7991 H   0  0  0  0  0  0  0  0  0  0  0  0
    5.1492    0.7275    4.6037 H   0  0  0  0  0  0  0  0  0  0  0  0
    5.5769    1.0863    6.2579 H   0  0  0  0  0  0  0  0  0  0  0  0
   -2.0961    2.7727    2.5175 H   0  0  0  0  0  0  0  0  0  0  0  0
   -0.1175    3.1671    4.0641 H   0  0  0  0  0  0  0  0  0  0  0  0
    0.1119   -1.0465    4.7238 H   0  0  0  0  0  0  0  0  0  0  0  0
   -1.6075   -1.4101    2.9738 H   0  0  0  0  0  0  0  0  0  0  0  0
   -2.6879    0.5239    1.8492 H   0  0  0  0  0  0  0  0  0  0  0  0
    2.0763    2.8623    0.1356 H   0  0  0  0  0  0  0  0  0  0  0  0
    1.3420    1.7710    1.2746 H   0  0  0  0  0  0  0  0  0  0  0  0
   -0.3480    3.3088    1.8537 H   0  0  0  0  0  0  0  0  0  0  0  0
   -0.5825    5.0368    2.8219 H   0  0  0  0  0  0  0  0  0  0  0  0
   -2.0845    4.4879   -0.0077 H   0  0  0  0  0  0  0  0  0  0  0  0
   -0.8155    4.6369   -1.2809 H   0  0  0  0  0  0  0  0  0  0  0  0
   -2.1055    3.5088   -1.5007 H   0  0  0  0  0  0  0  0  0  0  0  0
  1  2  1  0  0  0  0
  1  6  2  0  0  0  0
  1 10  1  0  0  0  0
  2  3  2  0  0  0  0
  2  7  1  0  0  0  0
  3  4  1  0  0  0  0
  3  9  1  0  0  0  0
  4  5  2  0  0  0  0
  4 25  1  0  0  0  0
  5  6  1  0  0  0  0
  5 32  1  0  0  0  0
  6 33  1  0  0  0  0
  7  8  2  0  0  0  0
  7 34  1  0  0  0  0
  8  9  1  0  0  0  0
  8 35  1  0  0  0  0
 10 11  1  0  0  0  0
 11 12  1  0  0  0  0
 11 36  1  0  0  0  0
 11 37  1  0  0  0  0
 12 13  1  0  0  0  0
 12 38  1  0  0  0  0
 12 39  1  0  0  0  0
 13 16  1  0  0  0  0
 14 15  1  0  0  0  0
 14 17  1  0  0  0  0
 15 13  2  0  0  0  0
 15 18  1  0  0  0  0
 16 17  2  0  0  0  0
 17 19  1  0  0  0  0
 18 40  1  0  0  0  0
 18 41  1  0  0  0  0
 18 42  1  0  0  0  0
 19 22  1  0  0  0  0
 20 21  1  0  0  0  0
 20 24  2  0  0  0  0
 20 43  1  0  0  0  0
 21 19  2  0  0  0  0
 21 44  1  0  0  0  0
 22 23  2  0  0  0  0
 22 45  1  0  0  0  0
 23 24  1  0  0  0  0
 23 46  1  0  0  0  0
 24 47  1  0  0  0  0
 25 48  1  0  0  0  0
 25 49  1  0  0  0  0
 26 28  1  0  0  0  0
 26 50  1  1  0  0  0
 26 27  1  0  0  0  0
 26 25  1  0  0  0  0
 27 31  1  0  0  0  0
 28 29  1  0  0  0  0
 28 30  2  0  0  0  0
 29 51  1  0  0  0  0
 31 52  1  0  0  0  0
 31 53  1  0  0  0  0
 31 54  1  0  0  0  0
M  END
>  <DRUGBANK_ID>
DB08915

>  <SECONDARY_ACCESSION_NUMBERS>
DB08483

>  <COMMON_NAME>
Aleglitazar

>  <CAS_NUMBER>
475479-34-6

>  <UNII>
41T4OAG59U

>  <SYNONYMS>
Aleglitazar

$$$$
