
 OpenBabel10282417213D

 33 34  0  0  1  0  0  0  0  0999 V2000
    0.9604   -0.1163    0.1103 N   0  0  0  0  0  0  0  0  0  0  0  0
    0.2356   -1.1286    0.6657 C   0  0  0  0  0  0  0  0  0  0  0  0
   -0.9906   -1.1485    0.6028 O   0  0  0  0  0  0  0  0  0  0  0  0
    0.9526   -2.2503    1.3002 C   0  0  0  0  0  0  0  0  0  0  0  0
    2.0882   -2.0622    2.0806 C   0  0  0  0  0  0  0  0  0  0  0  0
    2.7984   -3.1327    2.5321 N   0  3  0  0  0  0  0  0  0  0  0  0
    2.3096   -4.3879    2.3846 C   0  0  0  0  0  0  0  0  0  0  0  0
    1.1002   -4.6081    1.7416 C   0  0  0  0  0  0  0  0  0  0  0  0
    0.4477   -3.5387    1.1446 C   0  0  0  0  0  0  0  0  0  0  0  0
    4.1473   -2.9695    3.1320 C   0  0  2  0  0  0  0  0  0  0  0  0
    4.0942   -2.2917    4.3791 O   0  0  0  0  0  0  0  0  0  0  0  0
    5.1121   -1.2505    4.3883 C   0  0  2  0  0  0  0  0  0  0  0  0
    4.3316    0.0718    4.3569 C   0  0  0  0  0  0  0  0  0  0  0  0
    4.1328    0.4989    3.0103 O   0  0  0  0  0  0  0  0  0  0  0  0
    6.0175   -1.5205    3.1704 C   0  0  1  0  0  0  0  0  0  0  0  0
    7.1155   -2.3823    3.4854 O   0  0  0  0  0  0  0  0  0  0  0  0
    5.0976   -2.2372    2.1916 C   0  0  1  0  0  0  0  0  0  0  0  0
    5.7454   -3.1563    1.3153 O   0  0  0  0  0  0  0  0  0  0  0  0
    0.4254    0.5711   -0.4172 H   0  0  0  0  0  0  0  0  0  0  0  0
    1.9585   -0.1095   -0.0493 H   0  0  0  0  0  0  0  0  0  0  0  0
    2.4432   -1.0729    2.3436 H   0  0  0  0  0  0  0  0  0  0  0  0
    2.8933   -5.2172    2.7772 H   0  0  0  0  0  0  0  0  0  0  0  0
    0.6795   -5.6096    1.6852 H   0  0  0  0  0  0  0  0  0  0  0  0
   -0.4588   -3.7065    0.5628 H   0  0  0  0  0  0  0  0  0  0  0  0
    4.5396   -3.9726    3.3411 H   0  0  0  0  0  0  0  0  0  0  0  0
    5.6523   -1.3460    5.3368 H   0  0  0  0  0  0  0  0  0  0  0  0
    3.3364   -0.0864    4.7892 H   0  0  0  0  0  0  0  0  0  0  0  0
    4.8173    0.8705    4.9265 H   0  0  0  0  0  0  0  0  0  0  0  0
    4.8059    1.1869    2.8271 H   0  0  0  0  0  0  0  0  0  0  0  0
    6.4499   -0.6048    2.7522 H   0  0  0  0  0  0  0  0  0  0  0  0
    6.8371   -3.1480    4.0136 H   0  0  0  0  0  0  0  0  0  0  0  0
    4.5764   -1.5108    1.5640 H   0  0  0  0  0  0  0  0  0  0  0  0
    6.5017   -3.5618    1.7867 H   0  0  0  0  0  0  0  0  0  0  0  0
  1  2  1  0  0  0  0
  1 19  1  0  0  0  0
  1 20  1  0  0  0  0
  2  3  2  0  0  0  0
  2  4  1  0  0  0  0
  4  5  2  0  0  0  0
  4  9  1  0  0  0  0
  5  6  1  0  0  0  0
  5 21  1  0  0  0  0
  6  7  2  0  0  0  0
  7  8  1  0  0  0  0
  7 22  1  0  0  0  0
  8  9  2  0  0  0  0
  8 23  1  0  0  0  0
  9 24  1  0  0  0  0
 10  6  1  0  0  0  0
 10 11  1  0  0  0  0
 10 25  1  1  0  0  0
 12 11  1  0  0  0  0
 12 26  1  1  0  0  0
 12 13  1  0  0  0  0
 13 14  1  0  0  0  0
 13 27  1  0  0  0  0
 13 28  1  0  0  0  0
 14 29  1  0  0  0  0
 15 12  1  0  0  0  0
 15 16  1  0  0  0  0
 15 17  1  0  0  0  0
 15 30  1  6  0  0  0
 16 31  1  0  0  0  0
 17 10  1  0  0  0  0
 17 18  1  0  0  0  0
 17 32  1  6  0  0  0
 18 33  1  0  0  0  0
M  CHG  1   6   1
M  END
>  <DRUGBANK_ID>
DB14933

>  <COMMON_NAME>
Nicotinamide riboside

>  <CAS_NUMBER>
1341-23-7

>  <UNII>
0I8H2M0L7N

$$$$
