
 OpenBabel10282417193D

 27 29  0  0  0  0  0  0  0  0999 V2000
   -1.7212    2.0247    0.0158 O   0  0  0  0  0  0  0  0  0  0  0  0
   -1.3648    0.8494    0.0237 C   0  0  0  0  0  0  0  0  0  0  0  0
   -2.3259   -0.2811    0.0428 C   0  0  0  0  0  0  0  0  0  0  0  0
   -1.8194   -1.5240   -0.0052 C   0  0  0  0  0  0  0  0  0  0  0  0
   -0.4894   -1.8693   -0.0130 O   0  0  0  0  0  0  0  0  0  0  0  0
    0.4287   -0.8509    0.0049 C   0  0  0  0  0  0  0  0  0  0  0  0
    1.7776   -1.2045    0.0089 C   0  0  0  0  0  0  0  0  0  0  0  0
    2.7561   -0.2078   -0.0024 C   0  0  0  0  0  0  0  0  0  0  0  0
    2.3875    1.1390   -0.0169 C   0  0  0  0  0  0  0  0  0  0  0  0
    1.0392    1.4930   -0.0090 C   0  0  0  0  0  0  0  0  0  0  0  0
    0.0627    0.4935    0.0067 C   0  0  0  0  0  0  0  0  0  0  0  0
   -3.7805   -0.0790    0.0343 C   0  0  0  0  0  0  0  0  0  0  0  0
   -4.3838    0.6447   -1.0017 C   0  0  0  0  0  0  0  0  0  0  0  0
   -5.7723    0.7684   -1.0614 C   0  0  0  0  0  0  0  0  0  0  0  0
   -6.5685    0.1582   -0.0940 C   0  0  0  0  0  0  0  0  0  0  0  0
   -5.9782   -0.5639    0.9415 C   0  0  0  0  0  0  0  0  0  0  0  0
   -4.5881   -0.6484    1.0288 C   0  0  0  0  0  0  0  0  0  0  0  0
   -2.4266   -2.4207   -0.0546 H   0  0  0  0  0  0  0  0  0  0  0  0
    2.0686   -2.2518    0.0177 H   0  0  0  0  0  0  0  0  0  0  0  0
    3.8087   -0.4803   -0.0044 H   0  0  0  0  0  0  0  0  0  0  0  0
    3.1492    1.9146   -0.0332 H   0  0  0  0  0  0  0  0  0  0  0  0
    0.7489    2.5415   -0.0176 H   0  0  0  0  0  0  0  0  0  0  0  0
   -3.7745    1.1177   -1.7694 H   0  0  0  0  0  0  0  0  0  0  0  0
   -6.2301    1.3312   -1.8704 H   0  0  0  0  0  0  0  0  0  0  0  0
   -7.6500    0.2528   -0.1424 H   0  0  0  0  0  0  0  0  0  0  0  0
   -6.5998   -1.0664    1.6776 H   0  0  0  0  0  0  0  0  0  0  0  0
   -4.1409   -1.1612    1.8777 H   0  0  0  0  0  0  0  0  0  0  0  0
  1  2  2  0  0  0  0
  2  3  1  0  0  0  0
  2 11  1  0  0  0  0
  3  4  2  0  0  0  0
  3 12  1  0  0  0  0
  4  5  1  0  0  0  0
  4 18  1  0  0  0  0
  5  6  1  0  0  0  0
  6  7  2  0  0  0  0
  6 11  1  0  0  0  0
  7  8  1  0  0  0  0
  7 19  1  0  0  0  0
  8  9  2  0  0  0  0
  8 20  1  0  0  0  0
  9 10  1  0  0  0  0
  9 21  1  0  0  0  0
 10 11  2  0  0  0  0
 10 22  1  0  0  0  0
 12 13  2  0  0  0  0
 12 17  1  0  0  0  0
 13 14  1  0  0  0  0
 13 23  1  0  0  0  0
 14 15  2  0  0  0  0
 14 24  1  0  0  0  0
 15 16  1  0  0  0  0
 15 25  1  0  0  0  0
 16 17  2  0  0  0  0
 16 26  1  0  0  0  0
 17 27  1  0  0  0  0
M  END
>  <DRUGBANK_ID>
DB12007

>  <COMMON_NAME>
Isoflavone

>  <CAS_NUMBER>
574-12-9

>  <UNII>
OVO2KUW8H8

>  <SYNONYMS>
3-phenyl-4H-1-benzopyran-4-one; 3-Phenylchromone; Isoflavon

$$$$
