
 OpenBabel10282417183D

 53 55  0  0  0  0  0  0  0  0999 V2000
    2.3937   -0.5312    0.4936 C   0  0  0  0  0  0  0  0  0  0  0  0
    0.8949   -0.7233    0.7679 C   0  0  0  0  0  0  0  0  0  0  0  0
    0.1007   -1.6787    0.1485 C   0  0  0  0  0  0  0  0  0  0  0  0
   -1.3257   -1.4958    0.0554 C   0  0  0  0  0  0  0  0  0  0  0  0
   -1.9183   -0.2963    0.4644 C   0  0  0  0  0  0  0  0  0  0  0  0
   -1.0898    0.4161    1.2951 C   0  0  0  0  0  0  0  0  0  0  0  0
    0.2622    0.2072    1.5016 N   0  0  0  0  0  0  0  0  0  0  0  0
   -3.2200    0.1820    0.0634 N   0  0  0  0  0  0  0  0  0  0  0  0
   -3.8272    1.4314    0.0025 C   0  0  0  0  0  0  0  0  0  0  0  0
   -5.0618    1.4917   -0.0398 O   0  0  0  0  0  0  0  0  0  0  0  0
   -3.1639    2.6261   -0.0100 N   0  0  0  0  0  0  0  0  0  0  0  0
   -1.8144    2.8584   -0.2438 C   0  0  0  0  0  0  0  0  0  0  0  0
   -1.1457    3.6973    0.6816 C   0  0  0  0  0  0  0  0  0  0  0  0
    0.1794    3.4488    0.9341 C   0  0  0  0  0  0  0  0  0  0  0  0
    0.7403    2.3789    0.2453 C   0  0  0  0  0  0  0  0  0  0  0  0
    0.1968    1.7529   -0.9429 C   0  0  0  0  0  0  0  0  0  0  0  0
   -1.1435    2.0076   -1.1359 C   0  0  0  0  0  0  0  0  0  0  0  0
   -1.8258    1.3356   -2.0790 F   0  0  0  0  0  0  0  0  0  0  0  0
    0.9349    0.8804   -1.9877 C   0  0  0  0  0  0  0  0  0  0  0  0
    1.9691    1.5182   -2.8731 N   0  0  0  0  0  0  0  0  0  0  0  0
    3.1879    2.1196   -2.2352 C   0  0  0  0  0  0  0  0  0  0  0  0
    2.8227    3.3144   -1.3842 C   0  0  0  0  0  0  0  0  0  0  0  0
    1.8584    4.2747   -1.9418 N   0  0  0  0  0  0  0  0  0  0  0  0
    0.8237    3.7832   -2.8603 C   0  0  0  0  0  0  0  0  0  0  0  0
    1.3026    2.5709   -3.6659 C   0  0  0  0  0  0  0  0  0  0  0  0
    1.7329    5.5403   -1.4444 C   0  0  0  0  0  0  0  0  0  0  0  0
    0.9291    6.3776   -1.8947 O   0  0  0  0  0  0  0  0  0  0  0  0
    2.6281    5.8106   -0.4675 O   0  0  0  0  0  0  0  0  0  0  0  0
    2.8016    7.1991   -0.2181 C   0  0  0  0  0  0  0  0  0  0  0  0
    2.6443    0.0017   -0.4303 H   0  0  0  0  0  0  0  0  0  0  0  0
    2.8697    0.1228    1.2319 H   0  0  0  0  0  0  0  0  0  0  0  0
    2.9282   -1.4719    0.3826 H   0  0  0  0  0  0  0  0  0  0  0  0
    0.5852   -2.5527   -0.2745 H   0  0  0  0  0  0  0  0  0  0  0  0
   -1.9152   -2.2970   -0.3783 H   0  0  0  0  0  0  0  0  0  0  0  0
   -1.4538    1.3477    1.7061 H   0  0  0  0  0  0  0  0  0  0  0  0
   -3.8927   -0.5354   -0.1798 H   0  0  0  0  0  0  0  0  0  0  0  0
   -3.7364    3.4496    0.1395 H   0  0  0  0  0  0  0  0  0  0  0  0
   -1.6641    4.3277    1.3978 H   0  0  0  0  0  0  0  0  0  0  0  0
    0.7542    3.9362    1.7235 H   0  0  0  0  0  0  0  0  0  0  0  0
    1.6916    2.0513    0.6833 H   0  0  0  0  0  0  0  0  0  0  0  0
    1.3383   -0.0561   -1.6250 H   0  0  0  0  0  0  0  0  0  0  0  0
    0.1753    0.4296   -2.6511 H   0  0  0  0  0  0  0  0  0  0  0  0
    3.7057    1.3769   -1.6084 H   0  0  0  0  0  0  0  0  0  0  0  0
    3.9255    2.4573   -2.9640 H   0  0  0  0  0  0  0  0  0  0  0  0
    2.2639    2.6758   -0.8046 H   0  0  0  0  0  0  0  0  0  0  0  0
    3.4245    3.6468   -0.5281 H   0  0  0  0  0  0  0  0  0  0  0  0
   -0.0716    3.5702   -2.2914 H   0  0  0  0  0  0  0  0  0  0  0  0
    0.4249    4.5725   -3.4987 H   0  0  0  0  0  0  0  0  0  0  0  0
    2.0310    2.9421   -4.3883 H   0  0  0  0  0  0  0  0  0  0  0  0
    0.4813    2.1174   -4.2311 H   0  0  0  0  0  0  0  0  0  0  0  0
    3.1499    7.6859   -1.1344 H   0  0  0  0  0  0  0  0  0  0  0  0
    1.8764    7.6570    0.1428 H   0  0  0  0  0  0  0  0  0  0  0  0
    3.5746    7.3138    0.5453 H   0  0  0  0  0  0  0  0  0  0  0  0
  1  2  1  0  0  0  0
  1 30  1  0  0  0  0
  1 31  1  0  0  0  0
  1 32  1  0  0  0  0
  2  3  2  0  0  0  0
  2  7  1  0  0  0  0
  3  4  1  0  0  0  0
  3 33  1  0  0  0  0
  4  5  2  0  0  0  0
  4 34  1  0  0  0  0
  5  6  1  0  0  0  0
  5  8  1  0  0  0  0
  6  7  2  0  0  0  0
  6 35  1  0  0  0  0
  8  9  1  0  0  0  0
  8 36  1  0  0  0  0
  9 10  2  0  0  0  0
  9 11  1  0  0  0  0
 11 12  1  0  0  0  0
 11 37  1  0  0  0  0
 12 13  2  0  0  0  0
 12 17  1  0  0  0  0
 13 14  1  0  0  0  0
 13 38  1  0  0  0  0
 14 15  2  0  0  0  0
 14 39  1  0  0  0  0
 15 16  1  0  0  0  0
 15 40  1  0  0  0  0
 16 17  2  0  0  0  0
 16 19  1  0  0  0  0
 17 18  1  0  0  0  0
 19 20  1  0  0  0  0
 19 41  1  0  0  0  0
 19 42  1  0  0  0  0
 20 21  1  0  0  0  0
 20 25  1  0  0  0  0
 21 22  1  0  0  0  0
 21 43  1  0  0  0  0
 21 44  1  0  0  0  0
 22 23  1  0  0  0  0
 22 45  1  0  0  0  0
 22 46  1  0  0  0  0
 23 24  1  0  0  0  0
 23 26  1  0  0  0  0
 24 25  1  0  0  0  0
 24 47  1  0  0  0  0
 24 48  1  0  0  0  0
 25 49  1  0  0  0  0
 25 50  1  0  0  0  0
 26 27  2  0  0  0  0
 26 28  1  0  0  0  0
 28 29  1  0  0  0  0
 29 51  1  0  0  0  0
 29 52  1  0  0  0  0
 29 53  1  0  0  0  0
M  END
>  <DRUGBANK_ID>
DB11816

>  <SECONDARY_ACCESSION_NUMBERS>
DB05634

>  <COMMON_NAME>
Omecamtiv Mecarbil

>  <CAS_NUMBER>
873697-71-3

>  <UNII>
2M19539ERK

>  <SYNONYMS>
Omecamtiv Mecarbil

$$$$
