
 OpenBabel10282417243D

 49 53  0  0  0  0  0  0  0  0999 V2000
    1.1417    0.0117    0.1578 C   0  0  0  0  0  0  0  0  0  0  0  0
    0.7630    1.3880   -0.3029 C   0  0  0  0  0  0  0  0  0  0  0  0
   -0.0607    1.3956   -1.4338 C   0  0  0  0  0  0  0  0  0  0  0  0
   -0.3774    2.5846   -2.0381 C   0  0  0  0  0  0  0  0  0  0  0  0
   -0.0651    3.8153   -1.4615 C   0  0  0  0  0  0  0  0  0  0  0  0
   -0.5016    5.0660   -1.9763 C   0  0  0  0  0  0  0  0  0  0  0  0
   -1.6041    5.2217   -2.8429 N   0  0  0  0  0  0  0  0  0  0  0  0
   -2.4458    4.2349   -3.3969 C   0  0  0  0  0  0  0  0  0  0  0  0
   -2.2685    3.9002   -4.7481 C   0  0  0  0  0  0  0  0  0  0  0  0
   -2.6673    2.6417   -5.2144 C   0  0  0  0  0  0  0  0  0  0  0  0
   -3.4567    1.8104   -4.4177 C   0  0  0  0  0  0  0  0  0  0  0  0
   -3.7726    2.2000   -3.1170 C   0  0  0  0  0  0  0  0  0  0  0  0
   -4.7468    1.1666   -2.1431 Cl  0  0  0  0  0  0  0  0  0  0  0  0
   -3.2200    3.3704   -2.5903 C   0  0  0  0  0  0  0  0  0  0  0  0
   -3.2822    3.5839   -1.2638 F   0  0  0  0  0  0  0  0  0  0  0  0
    0.1213    6.2060   -1.6136 N   0  0  0  0  0  0  0  0  0  0  0  0
    0.9128    6.1422   -0.5317 C   0  0  0  0  0  0  0  0  0  0  0  0
    1.0109    5.0156    0.2432 C   0  0  0  0  0  0  0  0  0  0  0  0
    0.7389    3.7946   -0.2991 C   0  0  0  0  0  0  0  0  0  0  0  0
    1.2202    2.6038    0.2912 C   0  0  0  0  0  0  0  0  0  0  0  0
    2.0724    2.5122    1.4507 N   0  0  0  0  0  0  0  0  0  0  0  0
    2.7716    3.2922    2.3944 C   0  0  0  0  0  0  0  0  0  0  0  0
    2.9948    2.7118    3.4493 O   0  0  0  0  0  0  0  0  0  0  0  0
    3.4682    4.5765    2.1467 C   0  0  0  0  0  0  0  0  0  0  0  0
    4.8785    4.6263    2.1547 C   0  0  0  0  0  0  0  0  0  0  0  0
    5.2761    6.0109    1.2110 S   0  0  0  0  0  0  0  0  0  0  0  0
    4.2145    6.7641    2.3054 C   0  0  0  0  0  0  0  0  0  0  0  0
    4.4181    7.7165    3.2757 C   0  0  0  0  0  0  0  0  0  0  0  0
    5.6983    7.8966    3.7750 N   0  0  0  0  0  0  0  0  0  0  0  0
    3.3310    8.3209    3.7671 N   0  0  0  0  0  0  0  0  0  0  0  0
    2.1399    7.8217    3.3754 C   0  0  0  0  0  0  0  0  0  0  0  0
    1.9104    6.6039    2.8199 N   0  0  0  0  0  0  0  0  0  0  0  0
    3.0618    5.9943    2.3926 C   0  0  0  0  0  0  0  0  0  0  0  0
    0.7373   -0.7578   -0.5162 H   0  0  0  0  0  0  0  0  0  0  0  0
    0.7353   -0.1813    1.1511 H   0  0  0  0  0  0  0  0  0  0  0  0
    2.2276   -0.0877    0.1312 H   0  0  0  0  0  0  0  0  0  0  0  0
   -0.4390    0.4844   -1.8959 H   0  0  0  0  0  0  0  0  0  0  0  0
   -0.8613    2.5099   -2.9972 H   0  0  0  0  0  0  0  0  0  0  0  0
   -1.6496    6.1606   -3.2163 H   0  0  0  0  0  0  0  0  0  0  0  0
   -1.6819    4.5459   -5.3972 H   0  0  0  0  0  0  0  0  0  0  0  0
   -2.3113    2.2858   -6.1798 H   0  0  0  0  0  0  0  0  0  0  0  0
   -3.7971    0.8533   -4.8064 H   0  0  0  0  0  0  0  0  0  0  0  0
    1.4821    7.0274   -0.2678 H   0  0  0  0  0  0  0  0  0  0  0  0
    1.2749    5.0616    1.2721 H   0  0  0  0  0  0  0  0  0  0  0  0
    2.1006    1.5672    1.8164 H   0  0  0  0  0  0  0  0  0  0  0  0
    5.6965    3.9867    2.4599 H   0  0  0  0  0  0  0  0  0  0  0  0
    5.7832    8.4265    4.6278 H   0  0  0  0  0  0  0  0  0  0  0  0
    6.3041    7.0813    3.6791 H   0  0  0  0  0  0  0  0  0  0  0  0
    1.2857    8.4768    3.5428 H   0  0  0  0  0  0  0  0  0  0  0  0
  1  2  1  0  0  0  0
  1 34  1  0  0  0  0
  1 35  1  0  0  0  0
  1 36  1  0  0  0  0
  2  3  1  0  0  0  0
  2 20  2  0  0  0  0
  3  4  2  0  0  0  0
  3 37  1  0  0  0  0
  4  5  1  0  0  0  0
  4 38  1  0  0  0  0
  5  6  2  0  0  0  0
  5 19  1  0  0  0  0
  6  7  1  0  0  0  0
  6 16  1  0  0  0  0
  7  8  1  0  0  0  0
  7 39  1  0  0  0  0
  8  9  2  0  0  0  0
  8 14  1  0  0  0  0
  9 10  1  0  0  0  0
  9 40  1  0  0  0  0
 10 11  2  0  0  0  0
 10 41  1  0  0  0  0
 11 12  1  0  0  0  0
 11 42  1  0  0  0  0
 12 13  1  0  0  0  0
 12 14  2  0  0  0  0
 14 15  1  0  0  0  0
 16 17  2  0  0  0  0
 17 18  1  0  0  0  0
 17 43  1  0  0  0  0
 18 19  2  0  0  0  0
 18 44  1  0  0  0  0
 19 20  1  0  0  0  0
 20 21  1  0  0  0  0
 21 22  1  0  0  0  0
 21 45  1  0  0  0  0
 22 23  2  0  0  0  0
 22 24  1  0  0  0  0
 24 25  2  0  0  0  0
 24 33  1  0  0  0  0
 25 26  1  0  0  0  0
 25 46  1  0  0  0  0
 26 27  1  0  0  0  0
 27 28  2  0  0  0  0
 27 33  1  0  0  0  0
 28 29  1  0  0  0  0
 28 30  1  0  0  0  0
 29 47  1  0  0  0  0
 29 48  1  0  0  0  0
 30 31  2  0  0  0  0
 31 32  1  0  0  0  0
 31 49  1  0  0  0  0
 32 33  2  0  0  0  0
M  END
>  <DRUGBANK_ID>
DB17568

>  <COMMON_NAME>
Belvarafenib

>  <CAS_NUMBER>
1446113-23-0

>  <UNII>
31M3WLJ3KG

>  <SYNONYMS>
4-amino-n-(1-((3-chloro-2-fluorophenyl)amino)-6-methylisoquinolin-5-yl)thieno(3,2-d)pyrimidine-7-carboxamide; Belvarafenib; Thieno(3,2-d)pyrimidine-7-carboxamide, 4-amino-n-(1-((3-chloro-2-fluorophenyl)amino)-6-methyl-5-isoquinolinyl)-

$$$$
