
 OpenBabel10282417113D

 41 43  0  0  1  0  0  0  0  0999 V2000
    0.3554   -0.1141    1.7048 C   0  0  0  0  0  0  0  0  0  0  0  0
    1.7188   -1.2137    3.0627 C   0  0  1  0  0  0  0  0  0  0  0  0
   -0.4060   -1.1248    0.2032 C   0  0  0  0  0  0  0  0  0  0  0  0
    0.3620   -6.7589    3.1154 C   0  0  0  0  0  0  0  0  0  0  0  0
    1.0952   -6.7804    4.2716 C   0  0  0  0  0  0  0  0  0  0  0  0
    1.8395   -5.6059    4.6818 C   0  0  0  0  0  0  0  0  0  0  0  0
    0.3838   -5.6056    2.4081 C   0  0  0  0  0  0  0  0  0  0  0  0
    1.2435   -4.5248    2.7065 C   0  0  0  0  0  0  0  0  0  0  0  0
    1.8225   -4.3795    3.9095 C   0  0  0  0  0  0  0  0  0  0  0  0
    2.1366   -2.7687    4.2231 C   0  0  0  0  0  0  0  0  0  0  0  0
    2.6884   -2.2307    1.9738 C   0  0  1  0  0  0  0  0  0  0  0  0
    1.5209   -3.4823    1.7322 C   0  0  2  0  0  0  0  0  0  0  0  0
    2.9340   -1.5025    0.7050 N   0  0  0  0  0  0  0  0  0  0  0  0
    2.1841   -0.6214    3.8567 H   0  0  0  0  0  0  0  0  0  0  0  0
   -0.3892   -7.7926    2.6527 O   0  0  0  0  0  0  0  0  0  0  0  0
   -1.0033   -2.2524    2.1670 C   0  0  0  0  0  0  0  0  0  0  0  0
    0.4218   -2.6041    1.9893 C   0  0  0  0  0  0  0  0  0  0  0  0
   -1.5411   -2.1718    0.7477 C   0  0  0  0  0  0  0  0  0  0  0  0
    1.2181   -4.0001    0.3627 C   0  0  0  0  0  0  0  0  0  0  0  0
   -0.8425    0.1146    1.6602 H   0  0  0  0  0  0  0  0  0  0  0  0
    0.4591    0.7380    0.9796 H   0  0  0  0  0  0  0  0  0  0  0  0
   -0.2127   -1.7667   -0.7566 H   0  0  0  0  0  0  0  0  0  0  0  0
    0.3873   -0.7631   -0.4845 H   0  0  0  0  0  0  0  0  0  0  0  0
    1.0061   -7.6799    4.8773 H   0  0  0  0  0  0  0  0  0  0  0  0
    2.3784   -5.7404    5.6230 H   0  0  0  0  0  0  0  0  0  0  0  0
   -0.2975   -5.5665    1.5679 H   0  0  0  0  0  0  0  0  0  0  0  0
    2.9992   -3.3884    4.8569 H   0  0  0  0  0  0  0  0  0  0  0  0
    3.2134   -2.3640    4.4441 H   0  0  0  0  0  0  0  0  0  0  0  0
    3.6605   -2.5757    2.3451 H   0  0  0  0  0  0  0  0  0  0  0  0
    2.1897   -0.8140    0.5512 H   0  0  0  0  0  0  0  0  0  0  0  0
    2.6422   -2.1764   -0.0010 H   0  0  0  0  0  0  0  0  0  0  0  0
   -0.2346   -7.8894    1.6901 H   0  0  0  0  0  0  0  0  0  0  0  0
   -1.2769   -2.3924    3.2065 H   0  0  0  0  0  0  0  0  0  0  0  0
   -1.2773   -1.2110    2.4412 H   0  0  0  0  0  0  0  0  0  0  0  0
    1.0661   -1.9787    1.3517 H   0  0  0  0  0  0  0  0  0  0  0  0
    0.4355   -1.6981    1.6800 H   0  0  0  0  0  0  0  0  0  0  0  0
   -1.7221   -3.2394    1.0004 H   0  0  0  0  0  0  0  0  0  0  0  0
   -1.5365   -2.7745   -0.1817 H   0  0  0  0  0  0  0  0  0  0  0  0
    0.3335   -3.5462   -0.0662 H   0  0  0  0  0  0  0  0  0  0  0  0
    2.0694   -4.0522   -0.2719 H   0  0  0  0  0  0  0  0  0  0  0  0
    0.8977   -5.0181    0.3888 H   0  0  0  0  0  0  0  0  0  0  0  0
  1  3  1  0  0  0  0
  1 20  1  0  0  0  0
  1 21  1  0  0  0  0
  2  1  1  0  0  0  0
  2 11  1  0  0  0  0
  2 14  1  1  0  0  0
  3 18  1  0  0  0  0
  3 22  1  0  0  0  0
  3 23  1  0  0  0  0
  4  5  2  0  0  0  0
  4 15  1  0  0  0  0
  5  6  1  0  0  0  0
  5 24  1  0  0  0  0
  6  9  2  0  0  0  0
  6 25  1  0  0  0  0
  7  4  1  0  0  0  0
  7 26  1  0  0  0  0
  8  9  1  0  0  0  0
  8  7  2  0  0  0  0
  8 12  1  0  0  0  0
  9 10  1  0  0  0  0
 10  2  1  0  0  0  0
 10 27  1  0  0  0  0
 10 28  1  0  0  0  0
 11 12  1  0  0  0  0
 11 29  1  1  0  0  0
 11 13  1  0  0  0  0
 12 17  1  0  0  0  0
 12 19  1  6  0  0  0
 13 30  1  0  0  0  0
 13 31  1  0  0  0  0
 15 32  1  0  0  0  0
 16 18  1  0  0  0  0
 16 33  1  0  0  0  0
 16 34  1  0  0  0  0
 17 16  1  0  0  0  0
 17 35  1  0  0  0  0
 17 36  1  0  0  0  0
 18 37  1  0  0  0  0
 18 38  1  0  0  0  0
 19 39  1  0  0  0  0
 19 40  1  0  0  0  0
 19 41  1  0  0  0  0
M  END
>  <DRUGBANK_ID>
DB01209

>  <SECONDARY_ACCESSION_NUMBERS>
APRD00912

>  <COMMON_NAME>
Dezocine

>  <CAS_NUMBER>
53648-55-8

>  <UNII>
VHX8K5SV4X

>  <SYNONYMS>
(−)-13β-amino-5,6,7,8,9,10,11α,12-octahydro-5α-methyl-5,11-methanobenzocyclodecen-3-ol; Dezocina; Dezocine; Dezocinum

$$$$
