
 OpenBabel10282417243D

 61 64  0  0  0  0  0  0  0  0999 V2000
    1.1295   -0.0254    0.0515 C   0  0  0  0  0  0  0  0  0  0  0  0
    0.8006   -1.0035    1.1735 C   0  0  0  0  0  0  0  0  0  0  0  0
    1.4846   -0.7919    2.4513 O   0  0  0  0  0  0  0  0  0  0  0  0
    2.7519   -0.3058    2.5576 C   0  0  0  0  0  0  0  0  0  0  0  0
    3.5775   -0.4443    1.6926 O   0  0  0  0  0  0  0  0  0  0  0  0
    3.0111    0.4634    3.8715 C   0  0  0  0  0  0  0  0  0  0  0  0
    2.3196    0.2426    5.0622 C   0  0  0  0  0  0  0  0  0  0  0  0
    1.0069   -0.4945    5.0876 C   0  0  0  0  0  0  0  0  0  0  0  0
   -0.0733    0.2701    4.4551 N   0  0  0  0  0  0  0  0  0  0  0  0
   -0.1034    1.0146    3.3039 C   0  0  0  0  0  0  0  0  0  0  0  0
   -1.3283    1.3414    2.9886 N   0  0  0  0  0  0  0  0  0  0  0  0
   -1.9935    1.0052    4.1167 C   0  0  0  0  0  0  0  0  0  0  0  0
   -1.2951    0.3208    5.0277 N   0  0  0  0  0  0  0  0  0  0  0  0
    2.7517    0.7207    6.2817 N   0  0  0  0  0  0  0  0  0  0  0  0
    3.8586    1.4929    6.3685 C   0  0  0  0  0  0  0  0  0  0  0  0
    4.3681    1.9220    7.6082 C   0  0  0  0  0  0  0  0  0  0  0  0
    5.5219    2.7447    7.7883 C   0  0  0  0  0  0  0  0  0  0  0  0
    5.7003    2.9429    9.1387 O   0  0  0  0  0  0  0  0  0  0  0  0
    6.6999    3.7957    9.6376 C   0  0  0  0  0  0  0  0  0  0  0  0
    6.1946    3.1585    6.6316 C   0  0  0  0  0  0  0  0  0  0  0  0
    7.3127    3.9007    6.3402 O   0  0  0  0  0  0  0  0  0  0  0  0
    8.1136    4.4290    7.3573 C   0  0  0  0  0  0  0  0  0  0  0  0
    5.6590    2.7394    5.3905 C   0  0  0  0  0  0  0  0  0  0  0  0
    4.5247    1.9007    5.2174 C   0  0  0  0  0  0  0  0  0  0  0  0
    4.0558    1.4179    3.9395 C   0  0  0  0  0  0  0  0  0  0  0  0
    4.7231    1.8668    2.7030 C   0  0  0  0  0  0  0  0  0  0  0  0
    6.0410    1.4565    2.4837 C   0  0  0  0  0  0  0  0  0  0  0  0
    6.7058    1.7862    1.3142 C   0  0  0  0  0  0  0  0  0  0  0  0
    6.0552    2.4967    0.3089 C   0  0  0  0  0  0  0  0  0  0  0  0
    6.6934    2.9101   -0.8237 O   0  0  0  0  0  0  0  0  0  0  0  0
    8.0693    2.6336   -0.9837 C   0  0  0  0  0  0  0  0  0  0  0  0
    4.6973    2.8366    0.4615 C   0  0  0  0  0  0  0  0  0  0  0  0
    3.8793    3.3673   -0.5144 O   0  0  0  0  0  0  0  0  0  0  0  0
    4.4171    3.4125   -1.8388 C   0  0  0  0  0  0  0  0  0  0  0  0
    4.0642    2.5974    1.6943 C   0  0  0  0  0  0  0  0  0  0  0  0
    0.7233    0.9769    0.2364 H   0  0  0  0  0  0  0  0  0  0  0  0
    0.6956   -0.3827   -0.8878 H   0  0  0  0  0  0  0  0  0  0  0  0
    2.2019    0.0873   -0.0967 H   0  0  0  0  0  0  0  0  0  0  0  0
   -0.2775   -0.8900    1.3783 H   0  0  0  0  0  0  0  0  0  0  0  0
    0.9335   -2.0430    0.8724 H   0  0  0  0  0  0  0  0  0  0  0  0
    1.1145   -1.4826    4.6239 H   0  0  0  0  0  0  0  0  0  0  0  0
    0.7025   -0.6938    6.1234 H   0  0  0  0  0  0  0  0  0  0  0  0
    0.7362    1.2624    2.6733 H   0  0  0  0  0  0  0  0  0  0  0  0
   -3.0162    1.3040    4.2783 H   0  0  0  0  0  0  0  0  0  0  0  0
    3.8363    1.5968    8.5060 H   0  0  0  0  0  0  0  0  0  0  0  0
    7.6630    3.3361    9.4408 H   0  0  0  0  0  0  0  0  0  0  0  0
    6.5057    4.8067    9.2838 H   0  0  0  0  0  0  0  0  0  0  0  0
    6.7200    3.9050   10.7248 H   0  0  0  0  0  0  0  0  0  0  0  0
    7.5266    5.1836    7.8677 H   0  0  0  0  0  0  0  0  0  0  0  0
    8.5400    3.5954    7.9099 H   0  0  0  0  0  0  0  0  0  0  0  0
    8.9859    4.9957    7.0247 H   0  0  0  0  0  0  0  0  0  0  0  0
    6.1982    3.0796    4.5049 H   0  0  0  0  0  0  0  0  0  0  0  0
    6.5639    0.8775    3.2414 H   0  0  0  0  0  0  0  0  0  0  0  0
    7.7292    1.4506    1.2109 H   0  0  0  0  0  0  0  0  0  0  0  0
    8.6588    3.0999   -0.1890 H   0  0  0  0  0  0  0  0  0  0  0  0
    8.2391    1.5553   -1.0415 H   0  0  0  0  0  0  0  0  0  0  0  0
    8.3755    3.0760   -1.9354 H   0  0  0  0  0  0  0  0  0  0  0  0
    5.1838    4.1923   -1.8999 H   0  0  0  0  0  0  0  0  0  0  0  0
    4.7969    2.4346   -2.1679 H   0  0  0  0  0  0  0  0  0  0  0  0
    3.6337    3.6989   -2.5439 H   0  0  0  0  0  0  0  0  0  0  0  0
    3.0432    2.9485    1.8411 H   0  0  0  0  0  0  0  0  0  0  0  0
  1  2  1  0  0  0  0
  1 36  1  0  0  0  0
  1 37  1  0  0  0  0
  1 38  1  0  0  0  0
  2  3  1  0  0  0  0
  2 39  1  0  0  0  0
  2 40  1  0  0  0  0
  3  4  1  0  0  0  0
  4  5  2  0  0  0  0
  4  6  1  0  0  0  0
  6  7  1  0  0  0  0
  6 25  2  0  0  0  0
  7  8  1  0  0  0  0
  7 14  2  0  0  0  0
  8  9  1  0  0  0  0
  8 41  1  0  0  0  0
  8 42  1  0  0  0  0
  9 10  1  0  0  0  0
  9 13  1  0  0  0  0
 10 11  2  0  0  0  0
 10 43  1  0  0  0  0
 11 12  1  0  0  0  0
 12 13  2  0  0  0  0
 12 44  1  0  0  0  0
 14 15  1  0  0  0  0
 15 16  2  0  0  0  0
 15 24  1  0  0  0  0
 16 17  1  0  0  0  0
 16 45  1  0  0  0  0
 17 18  1  0  0  0  0
 17 20  2  0  0  0  0
 18 19  1  0  0  0  0
 19 46  1  0  0  0  0
 19 47  1  0  0  0  0
 19 48  1  0  0  0  0
 20 21  1  0  0  0  0
 20 23  1  0  0  0  0
 21 22  1  0  0  0  0
 22 49  1  0  0  0  0
 22 50  1  0  0  0  0
 22 51  1  0  0  0  0
 23 24  2  0  0  0  0
 23 52  1  0  0  0  0
 24 25  1  0  0  0  0
 25 26  1  0  0  0  0
 26 27  2  0  0  0  0
 26 35  1  0  0  0  0
 27 28  1  0  0  0  0
 27 53  1  0  0  0  0
 28 29  2  0  0  0  0
 28 54  1  0  0  0  0
 29 30  1  0  0  0  0
 29 32  1  0  0  0  0
 30 31  1  0  0  0  0
 31 55  1  0  0  0  0
 31 56  1  0  0  0  0
 31 57  1  0  0  0  0
 32 33  1  0  0  0  0
 32 35  2  0  0  0  0
 33 34  1  0  0  0  0
 34 58  1  0  0  0  0
 34 59  1  0  0  0  0
 34 60  1  0  0  0  0
 35 61  1  0  0  0  0
M  END
>  <DRUGBANK_ID>
DB17892

>  <COMMON_NAME>
TAK-603

>  <CAS_NUMBER>
158146-85-1

>  <UNII>
W6RZK26FCB

>  <SYNONYMS>
3-quinolinecarboxylic acid, 4-(3,4-dimethoxyphenyl)-6,7-dimethoxy-2-(1h-1,2,4-triazol-1-ylmethyl)-, ethyl ester; Ethyl 4-(3,4-dimethoxyphenyl)-6,7-dimethoxy-2-(1,2,4-triazol-1-ylmethyl)quinoline-3-carboxylate; TAK-603

$$$$
