KCP
 OpenBabel10282417123D

 39 40  0  0  0  0  0  0  0  0999 V2000
    0.3346    1.6465   -0.6540 S   0  0  0  0  0  0  0  0  0  0  0  0
   -1.2035    1.0715   -0.0179 C   0  0  0  0  0  0  0  0  0  0  0  0
   -1.4896   -0.4077   -0.0109 C   0  0  0  0  0  0  0  0  0  0  0  0
   -2.9779   -0.5376    0.0306 C   0  0  0  0  0  0  0  0  0  0  0  0
   -0.5307   -1.3591   -0.0341 C   0  0  0  0  0  0  0  0  0  0  0  0
   -0.7066   -2.8883   -0.0202 C   0  0  0  0  0  0  0  0  0  0  0  0
   -1.9118   -3.4767   -0.0135 O   0  0  0  0  0  0  0  0  0  0  0  0
    0.2924   -3.6096   -0.0136 O   0  0  0  0  0  0  0  0  0  0  0  0
    0.8150   -0.9620   -0.0767 N   0  0  0  0  0  0  0  0  0  0  0  0
    1.4175    0.3696   -0.0210 C   0  0  2  0  0  0  0  0  0  0  0  0
    2.1369    0.6902    1.3268 C   0  0  1  0  0  0  0  0  0  0  0  0
    2.0385    2.1349    1.8157 C   0  0  0  0  0  0  0  0  0  0  0  0
    1.5496    2.5231    2.8555 O   0  0  0  0  0  0  0  0  0  0  0  0
    2.6084    3.0075    0.9483 O   0  0  0  0  0  0  0  0  0  0  0  0
    1.8320   -0.2695    2.3907 N   0  0  0  0  0  0  0  0  0  0  0  0
    2.6543   -1.2493    2.8717 C   0  0  0  0  0  0  0  0  0  0  0  0
    2.2288   -1.9868    3.7624 O   0  0  0  0  0  0  0  0  0  0  0  0
    4.0949   -1.3550    2.3600 C   0  0  0  0  0  0  0  0  0  0  0  0
    4.1690   -1.8147    0.9228 C   0  0  0  0  0  0  0  0  0  0  0  0
    4.0102   -3.0984    0.4410 C   0  0  0  0  0  0  0  0  0  0  0  0
    4.0059   -3.1531   -0.9835 C   0  0  0  0  0  0  0  0  0  0  0  0
    4.1681   -1.9102   -1.5505 C   0  0  0  0  0  0  0  0  0  0  0  0
    4.6486   -0.7744   -0.3689 S   0  0  0  0  0  0  0  0  0  0  0  0
    2.1730    0.3868   -0.8092 H   0  0  0  0  0  0  0  0  0  0  0  0
    3.2075    0.6230    1.1724 H   0  0  0  0  0  0  0  0  0  0  0  0
   -1.4273    1.4989    0.9659 H   0  0  0  0  0  0  0  0  0  0  0  0
   -1.8819    1.5314   -0.7405 H   0  0  0  0  0  0  0  0  0  0  0  0
   -3.3554   -0.0142    0.9142 H   0  0  0  0  0  0  0  0  0  0  0  0
   -3.3949   -0.0764   -0.8708 H   0  0  0  0  0  0  0  0  0  0  0  0
   -3.3958   -1.5224    0.0826 H   0  0  0  0  0  0  0  0  0  0  0  0
   -2.7424   -2.9972   -0.0783 H   0  0  0  0  0  0  0  0  0  0  0  0
    1.4664   -1.7539   -0.0069 H   0  0  0  0  0  0  0  0  0  0  0  0
    2.3388    3.8981    1.2560 H   0  0  0  0  0  0  0  0  0  0  0  0
    0.8870   -0.2807    2.7575 H   0  0  0  0  0  0  0  0  0  0  0  0
    4.6019   -0.4004    2.5354 H   0  0  0  0  0  0  0  0  0  0  0  0
    4.6043   -2.0986    2.9844 H   0  0  0  0  0  0  0  0  0  0  0  0
    3.8641   -3.9549    1.0873 H   0  0  0  0  0  0  0  0  0  0  0  0
    3.8573   -4.0558   -1.5612 H   0  0  0  0  0  0  0  0  0  0  0  0
    4.1269   -1.6457   -2.6002 H   0  0  0  0  0  0  0  0  0  0  0  0
  1  2  1  0  0  0  0
  1 10  1  0  0  0  0
  2  3  1  0  0  0  0
  2 26  1  0  0  0  0
  2 27  1  0  0  0  0
  3  4  1  0  0  0  0
  3  5  2  0  0  0  0
  4 28  1  0  0  0  0
  4 29  1  0  0  0  0
  4 30  1  0  0  0  0
  5  6  1  0  0  0  0
  5  9  1  0  0  0  0
  6  7  1  0  0  0  0
  6  8  2  0  0  0  0
  7 31  1  0  0  0  0
  9 10  1  0  0  0  0
  9 32  1  0  0  0  0
 10 24  1  6  0  0  0
 10 11  1  0  0  0  0
 11 12  1  0  0  0  0
 11 15  1  0  0  0  0
 11 25  1  6  0  0  0
 12 13  2  0  0  0  0
 12 14  1  0  0  0  0
 14 33  1  0  0  0  0
 15 16  1  0  0  0  0
 15 34  1  0  0  0  0
 16 17  2  0  0  0  0
 16 18  1  0  0  0  0
 18 19  1  0  0  0  0
 18 35  1  0  0  0  0
 18 36  1  0  0  0  0
 19 20  2  0  0  0  0
 19 23  1  0  0  0  0
 20 21  1  0  0  0  0
 20 37  1  0  0  0  0
 21 22  2  0  0  0  0
 21 38  1  0  0  0  0
 22 23  1  0  0  0  0
 22 39  1  0  0  0  0
M  END
>  <DRUGBANK_ID>
DB02247

>  <SECONDARY_ACCESSION_NUMBERS>
EXPT01964; EXPT00890

>  <COMMON_NAME>
Hydrolyzed Cephalothin

$$$$
