IMM
 OpenBabel10282417173D

 41 43  0  0  0  0  0  0  0  0999 V2000
    1.6326    1.1508   -0.0303 N   0  0  0  0  0  0  0  0  0  0  0  0
    2.4175   -0.0107    0.0268 C   0  0  0  0  0  0  0  0  0  0  0  0
    1.6008   -1.1260    0.0123 C   0  0  0  0  0  0  0  0  0  0  0  0
    0.2611   -0.6796   -0.0104 C   0  0  0  0  0  0  0  0  0  0  0  0
   -0.9724   -1.3711   -0.0086 C   0  0  0  0  0  0  0  0  0  0  0  0
   -2.1731   -0.6639   -0.0033 C   0  0  0  0  0  0  0  0  0  0  0  0
   -2.1397    0.7257   -0.0034 C   0  0  0  0  0  0  0  0  0  0  0  0
   -0.9280    1.4346   -0.0076 C   0  0  0  0  0  0  0  0  0  0  0  0
    0.2850    0.7203   -0.0136 C   0  0  0  0  0  0  0  0  0  0  0  0
    2.0845    2.5166   -0.0641 C   0  0  0  0  0  0  0  0  0  0  0  0
    3.5102    2.9407   -0.1483 C   0  0  0  0  0  0  0  0  0  0  0  0
    4.3229    2.4942   -1.2014 C   0  0  0  0  0  0  0  0  0  0  0  0
    5.7173    2.5188   -1.0504 C   0  0  0  0  0  0  0  0  0  0  0  0
    6.2869    3.1622    0.0495 C   0  0  0  0  0  0  0  0  0  0  0  0
    5.4745    3.7815    1.0009 C   0  0  0  0  0  0  0  0  0  0  0  0
    4.0842    3.6195    0.9366 C   0  0  0  0  0  0  0  0  0  0  0  0
    3.8955   -0.1052    0.1192 C   0  0  0  0  0  0  0  0  0  0  0  0
    2.0726   -2.5463    0.0502 C   0  0  0  0  0  0  0  0  0  0  0  0
    1.5937   -3.2720    1.2750 C   0  0  0  0  0  0  0  0  0  0  0  0
   -4.5374   -0.7207    0.0106 C   0  0  0  0  0  0  0  0  0  0  0  0
    1.2499    3.4174    0.0219 O   0  0  0  0  0  0  0  0  0  0  0  0
   -3.3060   -1.4346    0.0043 O   0  0  0  0  0  0  0  0  0  0  0  0
    0.9150   -4.2947    1.2787 O   0  0  0  0  0  0  0  0  0  0  0  0
    2.0068   -2.7193    2.4328 O   0  0  0  0  0  0  0  0  0  0  0  0
    8.3500    3.1154    0.3168 I   0  0  0  0  0  0  0  0  0  0  0  0
   -0.9904   -2.4597   -0.0040 H   0  0  0  0  0  0  0  0  0  0  0  0
   -3.0539    1.3095   -0.0016 H   0  0  0  0  0  0  0  0  0  0  0  0
   -0.9535    2.5203   -0.0034 H   0  0  0  0  0  0  0  0  0  0  0  0
    3.8884    1.9638   -2.0454 H   0  0  0  0  0  0  0  0  0  0  0  0
    6.3375    1.9581   -1.7475 H   0  0  0  0  0  0  0  0  0  0  0  0
    5.9123    4.3437    1.8226 H   0  0  0  0  0  0  0  0  0  0  0  0
    3.4659    3.9681    1.7619 H   0  0  0  0  0  0  0  0  0  0  0  0
    4.1895   -0.7726    0.9310 H   0  0  0  0  0  0  0  0  0  0  0  0
    4.2953   -0.4903   -0.8268 H   0  0  0  0  0  0  0  0  0  0  0  0
    4.3906    0.8076    0.3888 H   0  0  0  0  0  0  0  0  0  0  0  0
    1.7224   -3.0669   -0.8467 H   0  0  0  0  0  0  0  0  0  0  0  0
    3.1663   -2.6132    0.0357 H   0  0  0  0  0  0  0  0  0  0  0  0
   -4.6269   -0.1060    0.9131 H   0  0  0  0  0  0  0  0  0  0  0  0
   -4.6375   -0.1110   -0.8939 H   0  0  0  0  0  0  0  0  0  0  0  0
   -5.3581   -1.4433    0.0176 H   0  0  0  0  0  0  0  0  0  0  0  0
    1.5805   -3.2535    3.1344 H   0  0  0  0  0  0  0  0  0  0  0  0
  1  2  1  0  0  0  0
  1  9  1  0  0  0  0
  1 10  1  0  0  0  0
  2  3  2  0  0  0  0
  2 17  1  0  0  0  0
  3  4  1  0  0  0  0
  3 18  1  0  0  0  0
  4  5  2  0  0  0  0
  4  9  1  0  0  0  0
  5  6  1  0  0  0  0
  5 26  1  0  0  0  0
  6  7  2  0  0  0  0
  6 22  1  0  0  0  0
  7  8  1  0  0  0  0
  7 27  1  0  0  0  0
  8  9  2  0  0  0  0
  8 28  1  0  0  0  0
 10 11  1  0  0  0  0
 10 21  2  0  0  0  0
 11 12  2  0  0  0  0
 11 16  1  0  0  0  0
 12 13  1  0  0  0  0
 12 29  1  0  0  0  0
 13 14  2  0  0  0  0
 13 30  1  0  0  0  0
 14 15  1  0  0  0  0
 14 25  1  0  0  0  0
 15 16  2  0  0  0  0
 15 31  1  0  0  0  0
 16 32  1  0  0  0  0
 17 33  1  0  0  0  0
 17 34  1  0  0  0  0
 17 35  1  0  0  0  0
 18 19  1  0  0  0  0
 18 36  1  0  0  0  0
 18 37  1  0  0  0  0
 19 23  2  0  0  0  0
 19 24  1  0  0  0  0
 20 22  1  0  0  0  0
 20 38  1  0  0  0  0
 20 39  1  0  0  0  0
 20 40  1  0  0  0  0
 24 41  1  0  0  0  0
M  END
>  <DRUGBANK_ID>
DB07983

>  <COMMON_NAME>
1-(4-IODOBENZOYL)-5-METHOXY-2-METHYL INDOLE-3-ACETIC ACID

$$$$
