
 OpenBabel10282417223D

 55 56  0  0  0  0  0  0  0  0999 V2000
   -2.4055    1.6283   -0.0339 C   0  0  0  0  0  0  0  0  0  0  0  0
   -1.5662    0.4622    0.0137 N   0  0  0  0  0  0  0  0  0  0  0  0
   -1.9532   -0.8397    0.0940 C   0  0  0  0  0  0  0  0  0  0  0  0
   -3.3693   -1.2872    0.0412 C   0  0  0  0  0  0  0  0  0  0  0  0
   -3.5899   -2.1070   -1.2132 C   0  0  0  0  0  0  0  0  0  0  0  0
   -2.7040   -3.3354   -1.2104 C   0  0  0  0  0  0  0  0  0  0  0  0
   -2.9154   -4.2120    0.0485 C   0  0  0  0  0  0  0  0  0  0  0  0
   -4.2651   -4.9039   -0.0085 C   0  0  0  0  0  0  0  0  0  0  0  0
   -4.4062   -5.7658   -1.2644 C   0  0  0  0  0  0  0  0  0  0  0  0
   -3.5087   -6.9994   -1.2990 C   0  0  0  0  0  0  0  0  0  0  0  0
   -4.0465   -8.1216   -1.2337 O   0  0  0  0  0  0  0  0  0  0  0  0
   -2.1610   -6.9718   -1.3848 N   0  0  0  0  0  0  0  0  0  0  0  0
   -1.3044   -5.9311   -1.7359 O   0  0  0  0  0  0  0  0  0  0  0  0
   -0.9002   -1.6376    0.1496 N   0  0  0  0  0  0  0  0  0  0  0  0
    0.1960   -0.8332    0.0774 C   0  0  0  0  0  0  0  0  0  0  0  0
    1.5629   -1.1642    0.0313 C   0  0  0  0  0  0  0  0  0  0  0  0
    2.5240   -0.1484    0.1202 C   0  0  0  0  0  0  0  0  0  0  0  0
    2.0197    1.1566    0.3095 C   0  0  0  0  0  0  0  0  0  0  0  0
    0.6888    1.5328    0.1520 C   0  0  0  0  0  0  0  0  0  0  0  0
   -0.2019    0.4910    0.0678 C   0  0  0  0  0  0  0  0  0  0  0  0
    3.8981   -0.3623   -0.0111 N   0  0  0  0  0  0  0  0  0  0  0  0
    4.5098   -1.7137    0.0035 C   0  0  0  0  0  0  0  0  0  0  0  0
    5.3149   -2.0628   -1.2589 C   0  0  0  0  0  0  0  0  0  0  0  0
    6.8960   -1.2457   -1.4015 Cl  0  0  0  0  0  0  0  0  0  0  0  0
    4.7955    0.8149   -0.0036 C   0  0  0  0  0  0  0  0  0  0  0  0
    4.8667    1.5857   -1.3482 C   0  0  0  0  0  0  0  0  0  0  0  0
    3.4641    2.5255   -1.9344 Cl  0  0  0  0  0  0  0  0  0  0  0  0
   -2.1753    2.2411    0.8391 H   0  0  0  0  0  0  0  0  0  0  0  0
   -2.1985    2.1605   -0.9639 H   0  0  0  0  0  0  0  0  0  0  0  0
   -3.4588    1.3598   -0.0047 H   0  0  0  0  0  0  0  0  0  0  0  0
   -3.5921   -1.8539    0.9480 H   0  0  0  0  0  0  0  0  0  0  0  0
   -4.0950   -0.4785    0.0429 H   0  0  0  0  0  0  0  0  0  0  0  0
   -4.6384   -2.4148   -1.2858 H   0  0  0  0  0  0  0  0  0  0  0  0
   -3.3806   -1.5208   -2.1174 H   0  0  0  0  0  0  0  0  0  0  0  0
   -2.9339   -3.8202   -2.1607 H   0  0  0  0  0  0  0  0  0  0  0  0
   -1.6413   -3.1006   -1.3190 H   0  0  0  0  0  0  0  0  0  0  0  0
   -2.1322   -4.9603    0.1836 H   0  0  0  0  0  0  0  0  0  0  0  0
   -2.8172   -3.6438    0.9780 H   0  0  0  0  0  0  0  0  0  0  0  0
   -4.4102   -5.5106    0.8919 H   0  0  0  0  0  0  0  0  0  0  0  0
   -5.0597   -4.1447    0.0175 H   0  0  0  0  0  0  0  0  0  0  0  0
   -5.4464   -6.1198   -1.2799 H   0  0  0  0  0  0  0  0  0  0  0  0
   -4.3150   -5.1964   -2.1929 H   0  0  0  0  0  0  0  0  0  0  0  0
   -1.6827   -7.8638   -1.3413 H   0  0  0  0  0  0  0  0  0  0  0  0
   -1.8874   -5.1841   -1.8793 H   0  0  0  0  0  0  0  0  0  0  0  0
    1.8044   -2.2137   -0.0569 H   0  0  0  0  0  0  0  0  0  0  0  0
    2.6815    1.9865    0.5263 H   0  0  0  0  0  0  0  0  0  0  0  0
    0.3869    2.5710    0.1490 H   0  0  0  0  0  0  0  0  0  0  0  0
    5.1168   -1.8417    0.9087 H   0  0  0  0  0  0  0  0  0  0  0  0
    3.7498   -2.4971    0.0756 H   0  0  0  0  0  0  0  0  0  0  0  0
    5.5574   -3.1290   -1.2475 H   0  0  0  0  0  0  0  0  0  0  0  0
    4.7382   -1.8475   -2.1624 H   0  0  0  0  0  0  0  0  0  0  0  0
    4.6010    1.4667    0.8574 H   0  0  0  0  0  0  0  0  0  0  0  0
    5.8119    0.4730    0.2134 H   0  0  0  0  0  0  0  0  0  0  0  0
    5.6586    2.3308   -1.2656 H   0  0  0  0  0  0  0  0  0  0  0  0
    5.0951    0.9020   -2.1640 H   0  0  0  0  0  0  0  0  0  0  0  0
  1  2  1  0  0  0  0
  1 28  1  0  0  0  0
  1 29  1  0  0  0  0
  1 30  1  0  0  0  0
  2  3  1  0  0  0  0
  2 20  1  0  0  0  0
  3  4  1  0  0  0  0
  3 14  2  0  0  0  0
  4  5  1  0  0  0  0
  4 31  1  0  0  0  0
  4 32  1  0  0  0  0
  5  6  1  0  0  0  0
  5 33  1  0  0  0  0
  5 34  1  0  0  0  0
  6  7  1  0  0  0  0
  6 35  1  0  0  0  0
  6 36  1  0  0  0  0
  7  8  1  0  0  0  0
  7 37  1  0  0  0  0
  7 38  1  0  0  0  0
  8  9  1  0  0  0  0
  8 39  1  0  0  0  0
  8 40  1  0  0  0  0
  9 10  1  0  0  0  0
  9 41  1  0  0  0  0
  9 42  1  0  0  0  0
 10 11  2  0  0  0  0
 10 12  1  0  0  0  0
 12 13  1  0  0  0  0
 12 43  1  0  0  0  0
 13 44  1  0  0  0  0
 14 15  1  0  0  0  0
 15 16  2  0  0  0  0
 15 20  1  0  0  0  0
 16 17  1  0  0  0  0
 16 45  1  0  0  0  0
 17 18  2  0  0  0  0
 17 21  1  0  0  0  0
 18 19  1  0  0  0  0
 18 46  1  0  0  0  0
 19 20  2  0  0  0  0
 19 47  1  0  0  0  0
 21 22  1  0  0  0  0
 21 25  1  0  0  0  0
 22 23  1  0  0  0  0
 22 48  1  0  0  0  0
 22 49  1  0  0  0  0
 23 24  1  0  0  0  0
 23 50  1  0  0  0  0
 23 51  1  0  0  0  0
 25 26  1  0  0  0  0
 25 52  1  0  0  0  0
 25 53  1  0  0  0  0
 26 27  1  0  0  0  0
 26 54  1  0  0  0  0
 26 55  1  0  0  0  0
M  END
>  <DRUGBANK_ID>
DB15147

>  <COMMON_NAME>
Tinostamustine

>  <CAS_NUMBER>
1236199-60-2

>  <UNII>
29DKI2H2NY

>  <SYNONYMS>
Tinostamustine

$$$$
