U16
 OpenBabel10282417173D

 65 65  0  0  0  0  0  0  0  0999 V2000
    7.3402    4.8094    3.9078 O   0  0  0  0  0  0  0  0  0  0  0  0
    7.6248    3.7498    3.3510 C   0  0  0  0  0  0  0  0  0  0  0  0
    8.0915    2.5010    4.1127 C   0  0  2  0  0  0  0  0  0  0  0  0
    9.5746    1.9941    3.8200 C   0  0  1  0  0  0  0  0  0  0  0  0
   10.4170    2.7357    2.7832 C   0  0  0  0  0  0  0  0  0  0  0  0
   10.3316    4.1309    2.6926 C   0  0  0  0  0  0  0  0  0  0  0  0
   10.9726    4.8554    1.7122 C   0  0  0  0  0  0  0  0  0  0  0  0
   11.8697    4.2269    0.8751 C   0  0  0  0  0  0  0  0  0  0  0  0
   12.5389    5.0617   -0.1863 C   0  0  0  0  0  0  0  0  0  0  0  0
   13.9929    5.2617    0.1584 C   0  0  0  0  0  0  0  0  0  0  0  0
   12.3776    4.4205   -1.5454 C   0  0  0  0  0  0  0  0  0  0  0  0
   12.1264    2.8610    1.0693 C   0  0  0  0  0  0  0  0  0  0  0  0
   11.3566    2.0998    1.9608 C   0  0  0  0  0  0  0  0  0  0  0  0
   10.3367    1.9957    5.0730 N   0  0  0  0  0  0  0  0  0  0  0  0
    7.1063    1.5532    3.6892 O   0  0  0  0  0  0  0  0  0  0  0  0
    7.6658    3.5788    1.9787 N   0  0  0  0  0  0  0  0  0  0  0  0
    7.1956    4.4874    0.9587 C   0  0  1  0  0  0  0  0  0  0  0  0
    8.2510    4.7888   -0.0794 C   0  0  0  0  0  0  0  0  0  0  0  0
    5.9807    3.8399    0.2669 C   0  0  0  0  0  0  0  0  0  0  0  0
    4.8905    4.4240    0.3287 O   0  0  0  0  0  0  0  0  0  0  0  0
    5.9846    2.6749   -0.4576 N   0  0  0  0  0  0  0  0  0  0  0  0
    6.8649    1.4805   -0.7482 C   0  0  2  0  0  0  0  0  0  0  0  0
    7.5798    0.9521    0.4952 C   0  0  0  0  0  0  0  0  0  0  0  0
    7.2724   -0.4731    0.9877 C   0  0  0  0  0  0  0  0  0  0  0  0
    7.6532   -1.4662   -0.0862 C   0  0  0  0  0  0  0  0  0  0  0  0
    8.0197   -0.9076    2.2664 C   0  0  0  0  0  0  0  0  0  0  0  0
    7.7960    1.5380   -1.9763 C   0  0  0  0  0  0  0  0  0  0  0  0
    7.6750    0.8531   -2.9673 O   0  0  0  0  0  0  0  0  0  0  0  0
    8.7957    2.4252   -1.7806 O   0  0  0  0  0  0  0  0  0  0  0  0
    9.5886    2.7432   -2.9133 C   0  0  0  0  0  0  0  0  0  0  0  0
    7.8899    2.5692    5.1824 H   0  0  0  0  0  0  0  0  0  0  0  0
    9.5238    0.9452    3.5039 H   0  0  0  0  0  0  0  0  0  0  0  0
    6.9070    5.4246    1.4445 H   0  0  0  0  0  0  0  0  0  0  0  0
    6.1214    0.7267   -1.0313 H   0  0  0  0  0  0  0  0  0  0  0  0
    9.6774    4.7147    3.3259 H   0  0  0  0  0  0  0  0  0  0  0  0
   10.7102    5.9054    1.5951 H   0  0  0  0  0  0  0  0  0  0  0  0
   12.0431    6.0437   -0.2451 H   0  0  0  0  0  0  0  0  0  0  0  0
   14.5067    4.2980    0.2178 H   0  0  0  0  0  0  0  0  0  0  0  0
   14.4794    5.8712   -0.6061 H   0  0  0  0  0  0  0  0  0  0  0  0
   14.0838    5.7625    1.1270 H   0  0  0  0  0  0  0  0  0  0  0  0
   11.3145    4.4278   -1.7284 H   0  0  0  0  0  0  0  0  0  0  0  0
   12.8528    4.9923   -2.3451 H   0  0  0  0  0  0  0  0  0  0  0  0
   12.7365    3.3875   -1.5851 H   0  0  0  0  0  0  0  0  0  0  0  0
   12.9413    2.3869    0.5260 H   0  0  0  0  0  0  0  0  0  0  0  0
   11.5343    1.0261    2.0117 H   0  0  0  0  0  0  0  0  0  0  0  0
   11.2879    1.6834    4.8809 H   0  0  0  0  0  0  0  0  0  0  0  0
   10.4216    2.9676    5.3721 H   0  0  0  0  0  0  0  0  0  0  0  0
    7.3915    1.3584    2.7960 H   0  0  0  0  0  0  0  0  0  0  0  0
    8.3267    2.9036    1.6359 H   0  0  0  0  0  0  0  0  0  0  0  0
    8.6735    3.8568   -0.4031 H   0  0  0  0  0  0  0  0  0  0  0  0
    7.8631    5.3432   -0.9359 H   0  0  0  0  0  0  0  0  0  0  0  0
    9.0985    5.3439    0.2981 H   0  0  0  0  0  0  0  0  0  0  0  0
    5.0280    2.5151   -0.7537 H   0  0  0  0  0  0  0  0  0  0  0  0
    8.6625    1.1302    0.4723 H   0  0  0  0  0  0  0  0  0  0  0  0
    7.1151    1.5650    1.2306 H   0  0  0  0  0  0  0  0  0  0  0  0
    6.1962   -0.5210    1.1988 H   0  0  0  0  0  0  0  0  0  0  0  0
    8.7322   -1.4142   -0.2677 H   0  0  0  0  0  0  0  0  0  0  0  0
    7.3970   -2.4779    0.2355 H   0  0  0  0  0  0  0  0  0  0  0  0
    7.1319   -1.2597   -1.0202 H   0  0  0  0  0  0  0  0  0  0  0  0
    7.7289   -0.3939    3.1748 H   0  0  0  0  0  0  0  0  0  0  0  0
    7.7942   -1.9474    2.5165 H   0  0  0  0  0  0  0  0  0  0  0  0
    9.1022   -0.7955    2.1542 H   0  0  0  0  0  0  0  0  0  0  0  0
   10.3643    1.9885   -3.0500 H   0  0  0  0  0  0  0  0  0  0  0  0
    8.9881    2.9277   -3.8031 H   0  0  0  0  0  0  0  0  0  0  0  0
   10.0491    3.6987   -2.7080 H   0  0  0  0  0  0  0  0  0  0  0  0
  1  2  2  0  0  0  0
  2 16  1  0  0  0  0
  3 15  1  0  0  0  0
  3 31  1  1  0  0  0
  3  4  1  0  0  0  0
  3  2  1  0  0  0  0
  4  5  1  0  0  0  0
  4 14  1  0  0  0  0
  4 32  1  6  0  0  0
  5  6  1  0  0  0  0
  5 13  2  0  0  0  0
  6  7  2  0  0  0  0
  6 35  1  0  0  0  0
  7  8  1  0  0  0  0
  7 36  1  0  0  0  0
  8  9  1  0  0  0  0
  8 12  2  0  0  0  0
  9 10  1  0  0  0  0
  9 11  1  0  0  0  0
  9 37  1  0  0  0  0
 10 38  1  0  0  0  0
 10 39  1  0  0  0  0
 10 40  1  0  0  0  0
 11 41  1  0  0  0  0
 11 42  1  0  0  0  0
 11 43  1  0  0  0  0
 12 13  1  0  0  0  0
 12 44  1  0  0  0  0
 13 45  1  0  0  0  0
 14 46  1  0  0  0  0
 14 47  1  0  0  0  0
 15 48  1  0  0  0  0
 16 17  1  0  0  0  0
 16 49  1  0  0  0  0
 17 18  1  0  0  0  0
 17 19  1  0  0  0  0
 17 33  1  1  0  0  0
 18 50  1  0  0  0  0
 18 51  1  0  0  0  0
 18 52  1  0  0  0  0
 19 20  2  0  0  0  0
 19 21  1  0  0  0  0
 21 53  1  0  0  0  0
 22 27  1  0  0  0  0
 22 34  1  6  0  0  0
 22 23  1  0  0  0  0
 22 21  1  0  0  0  0
 23 24  1  0  0  0  0
 23 54  1  0  0  0  0
 23 55  1  0  0  0  0
 24 25  1  0  0  0  0
 24 26  1  0  0  0  0
 24 56  1  0  0  0  0
 25 57  1  0  0  0  0
 25 58  1  0  0  0  0
 25 59  1  0  0  0  0
 26 60  1  0  0  0  0
 26 61  1  0  0  0  0
 26 62  1  0  0  0  0
 27 28  2  0  0  0  0
 27 29  1  0  0  0  0
 29 30  1  0  0  0  0
 30 63  1  0  0  0  0
 30 64  1  0  0  0  0
 30 65  1  0  0  0  0
M  END
>  <DRUGBANK_ID>
DB08670

>  <COMMON_NAME>
METHYL N-[(2S,3R)-3-AMINO-2-HYDROXY-3-(4-ISOPROPYLPHENYL)PROPANOYL]-D-ALANYL-D-LEUCINATE

$$$$
