
 OpenBabel10282417193D

 49 53  0  0  0  0  0  0  0  0999 V2000
    2.4693   -0.8420   -0.0457 C   0  0  0  0  0  0  0  0  0  0  0  0
    2.5243    0.5206    0.0939 C   0  0  0  0  0  0  0  0  0  0  0  0
    1.3398    1.1959    0.3138 C   0  0  0  0  0  0  0  0  0  0  0  0
    0.0612    0.6569    0.1093 C   0  0  0  0  0  0  0  0  0  0  0  0
    0.0140   -0.7487    0.0213 C   0  0  0  0  0  0  0  0  0  0  0  0
    1.2254   -1.4804   -0.0134 C   0  0  0  0  0  0  0  0  0  0  0  0
   -1.2358   -1.3854   -0.0050 C   0  0  0  0  0  0  0  0  0  0  0  0
   -2.4181   -0.6417   -0.0149 C   0  0  0  0  0  0  0  0  0  0  0  0
   -2.3702    0.7580   -0.0227 C   0  0  0  0  0  0  0  0  0  0  0  0
   -1.1345    1.4345    0.0196 C   0  0  0  0  0  0  0  0  0  0  0  0
   -1.1530    2.9613   -0.0014 C   0  0  0  0  0  0  0  0  0  0  0  0
   -2.2116    3.5575    0.1901 O   0  0  0  0  0  0  0  0  0  0  0  0
    0.0378    3.6599   -0.1985 N   0  0  0  0  0  0  0  0  0  0  0  0
    0.8974    3.4516   -1.3815 C   0  0  0  0  0  0  0  0  0  0  0  0
    1.0257    4.7184   -2.2181 C   0  0  0  0  0  0  0  0  0  0  0  0
    1.3283    5.8487   -1.2887 C   0  0  0  0  0  0  0  0  0  0  0  0
    1.0911    5.8152    0.0724 C   0  0  0  0  0  0  0  0  0  0  0  0
    1.5153    7.0538    0.6058 C   0  0  0  0  0  0  0  0  0  0  0  0
    1.5414    7.5700    1.9138 C   0  0  0  0  0  0  0  0  0  0  0  0
    1.9606    8.8791    2.1061 C   0  0  0  0  0  0  0  0  0  0  0  0
    2.3577    9.6750    1.0413 C   0  0  0  0  0  0  0  0  0  0  0  0
    2.3662    9.1734   -0.2667 C   0  0  0  0  0  0  0  0  0  0  0  0
    1.9496    7.8461   -0.4681 C   0  0  0  0  0  0  0  0  0  0  0  0
    1.8609    7.0678   -1.6138 N   0  0  0  0  0  0  0  0  0  0  0  0
    2.2075    7.4748   -2.9677 C   0  0  0  0  0  0  0  0  0  0  0  0
    3.2840    6.6200   -3.5750 C   0  0  0  0  0  0  0  0  0  0  0  0
    3.1761    5.9571   -4.6053 O   0  0  0  0  0  0  0  0  0  0  0  0
    4.4476    6.6284   -2.8994 O   0  0  0  0  0  0  0  0  0  0  0  0
    1.9691    9.3826    3.3478 F   0  0  0  0  0  0  0  0  0  0  0  0
    0.5207    4.6403    0.7925 C   0  0  0  0  0  0  0  0  0  0  0  0
    3.3959   -1.3993   -0.1194 H   0  0  0  0  0  0  0  0  0  0  0  0
    3.4545    1.0810    0.0820 H   0  0  0  0  0  0  0  0  0  0  0  0
    1.4575    2.2067    0.6539 H   0  0  0  0  0  0  0  0  0  0  0  0
    1.2115   -2.5662   -0.0296 H   0  0  0  0  0  0  0  0  0  0  0  0
   -1.2943   -2.4727   -0.0064 H   0  0  0  0  0  0  0  0  0  0  0  0
   -3.3761   -1.1597   -0.0251 H   0  0  0  0  0  0  0  0  0  0  0  0
   -3.3089    1.3122   -0.0450 H   0  0  0  0  0  0  0  0  0  0  0  0
    0.5363    2.6165   -1.9852 H   0  0  0  0  0  0  0  0  0  0  0  0
    1.9146    3.2270   -1.0319 H   0  0  0  0  0  0  0  0  0  0  0  0
    0.0924    4.9050   -2.7534 H   0  0  0  0  0  0  0  0  0  0  0  0
    1.8291    4.5461   -2.9366 H   0  0  0  0  0  0  0  0  0  0  0  0
    1.2259    6.9709    2.7611 H   0  0  0  0  0  0  0  0  0  0  0  0
    2.6649   10.6975    1.2368 H   0  0  0  0  0  0  0  0  0  0  0  0
    2.6798    9.8068   -1.0892 H   0  0  0  0  0  0  0  0  0  0  0  0
    1.2936    7.3923   -3.5673 H   0  0  0  0  0  0  0  0  0  0  0  0
    2.5298    8.5174   -2.9804 H   0  0  0  0  0  0  0  0  0  0  0  0
    5.0345    6.0065   -3.3794 H   0  0  0  0  0  0  0  0  0  0  0  0
   -0.2401    4.9008    1.5330 H   0  0  0  0  0  0  0  0  0  0  0  0
    1.3497    4.1687    1.3434 H   0  0  0  0  0  0  0  0  0  0  0  0
  1  2  2  0  0  0  0
  1  6  1  0  0  0  0
  1 31  1  0  0  0  0
  2  3  1  0  0  0  0
  2 32  1  0  0  0  0
  3  4  2  0  0  0  0
  3 33  1  0  0  0  0
  4  5  1  0  0  0  0
  4 10  1  0  0  0  0
  5  6  2  0  0  0  0
  5  7  1  0  0  0  0
  6 34  1  0  0  0  0
  7  8  2  0  0  0  0
  7 35  1  0  0  0  0
  8  9  1  0  0  0  0
  8 36  1  0  0  0  0
  9 10  2  0  0  0  0
  9 37  1  0  0  0  0
 10 11  1  0  0  0  0
 11 12  2  0  0  0  0
 11 13  1  0  0  0  0
 13 14  1  0  0  0  0
 13 30  1  0  0  0  0
 14 15  1  0  0  0  0
 14 38  1  0  0  0  0
 14 39  1  0  0  0  0
 15 16  1  0  0  0  0
 15 40  1  0  0  0  0
 15 41  1  0  0  0  0
 16 17  2  0  0  0  0
 16 24  1  0  0  0  0
 17 18  1  0  0  0  0
 17 30  1  0  0  0  0
 18 19  2  0  0  0  0
 18 23  1  0  0  0  0
 19 20  1  0  0  0  0
 19 42  1  0  0  0  0
 20 21  2  0  0  0  0
 20 29  1  0  0  0  0
 21 22  1  0  0  0  0
 21 43  1  0  0  0  0
 22 23  2  0  0  0  0
 22 44  1  0  0  0  0
 23 24  1  0  0  0  0
 24 25  1  0  0  0  0
 25 26  1  0  0  0  0
 25 45  1  0  0  0  0
 25 46  1  0  0  0  0
 26 27  2  0  0  0  0
 26 28  1  0  0  0  0
 28 47  1  0  0  0  0
 30 48  1  0  0  0  0
 30 49  1  0  0  0  0
M  END
>  <DRUGBANK_ID>
DB12562

>  <COMMON_NAME>
Setipiprant

>  <CAS_NUMBER>
866460-33-5

>  <UNII>
BHF20LA2GM

>  <SYNONYMS>
Setipiprant

$$$$
