
 OpenBabel10282417153D

 76 79  0  0  0  0  0  0  0  0999 V2000
   -1.6650   -1.0729    8.5752 C   0  0  0  0  0  0  0  0  0  0  0  0
   -1.8593    0.2006    7.7047 C   0  0  0  0  0  0  0  0  0  0  0  0
   -1.7100    1.4405    8.5937 C   0  0  0  0  0  0  0  0  0  0  0  0
   -2.6378    1.3919    9.7514 C   0  0  0  0  0  0  0  0  0  0  0  0
   -2.3960    0.1939   10.5480 N   0  0  0  0  0  0  0  0  0  0  0  0
   -2.5619   -1.0616    9.8197 C   0  0  0  0  0  0  0  0  0  0  0  0
   -1.9695    0.2022   11.8616 C   0  0  0  0  0  0  0  0  0  0  0  0
   -1.8212    1.4946   12.5485 C   0  0  0  0  0  0  0  0  0  0  0  0
   -2.9015    2.3620   12.7171 C   0  0  0  0  0  0  0  0  0  0  0  0
   -2.7550    3.5930   13.2614 N   0  0  0  0  0  0  0  0  0  0  0  0
   -1.5261    3.9233   13.6791 C   0  0  0  0  0  0  0  0  0  0  0  0
   -0.4329    3.1533   13.5947 N   0  0  0  0  0  0  0  0  0  0  0  0
   -0.5893    1.9305   13.0289 C   0  0  0  0  0  0  0  0  0  0  0  0
   -3.5339   -1.1035    6.3375 C   0  0  0  0  0  0  0  0  0  0  0  0
   -2.6759   -1.2672    5.0654 C   0  0  1  0  0  0  0  0  0  0  0  0
   -2.8319    0.0126    4.2521 N   0  0  0  0  0  0  0  0  0  0  0  0
   -2.8101    1.3099    4.9722 C   0  0  0  0  0  0  0  0  0  0  0  0
   -3.5331    1.3129    6.3375 C   0  0  0  0  0  0  0  0  0  0  0  0
   -3.2260    0.1235    7.1332 N   0  0  3  0  0  0  0  0  0  0  0  0
   -3.3642   -1.3192    0.0789 C   0  0  0  0  0  0  0  0  0  0  0  0
   -3.8890   -0.2617   -0.6747 C   0  0  0  0  0  0  0  0  0  0  0  0
   -4.1559    0.9630   -0.0614 C   0  0  0  0  0  0  0  0  0  0  0  0
   -3.8626    1.1358    1.2738 C   0  0  0  0  0  0  0  0  0  0  0  0
   -3.6788   -0.0026    2.0491 C   0  0  0  0  0  0  0  0  0  0  0  0
   -3.2532   -1.1908    1.4515 C   0  0  0  0  0  0  0  0  0  0  0  0
   -4.1153   -0.0129    3.4967 C   0  0  2  0  0  0  0  0  0  0  0  0
   -4.0792   -0.3676   -2.1533 C   0  0  0  0  0  0  0  0  0  0  0  0
   -5.3840   -0.2967   -2.5313 F   0  0  0  0  0  0  0  0  0  0  0  0
   -3.4431    0.6480   -2.7989 F   0  0  0  0  0  0  0  0  0  0  0  0
   -3.5866   -1.5202   -2.6761 F   0  0  0  0  0  0  0  0  0  0  0  0
   -4.3029    2.0162   12.2984 C   0  0  0  0  0  0  0  0  0  0  0  0
    0.6627    1.1068   12.9352 C   0  0  0  0  0  0  0  0  0  0  0  0
   -0.7014    0.4849    6.7292 C   0  0  0  0  0  0  0  0  0  0  0  0
   -1.2630   -1.9738    5.3105 C   0  0  0  0  0  0  0  0  0  0  0  0
   -5.2474    1.0837    3.8394 C   0  0  0  0  0  0  0  0  0  0  0  0
   -6.5709    0.9375    3.3361 O   0  0  0  0  0  0  0  0  0  0  0  0
   -6.6408    1.0870    1.9435 C   0  0  0  0  0  0  0  0  0  0  0  0
   -1.6927   -0.8327   12.4974 O   0  0  0  0  0  0  0  0  0  0  0  0
   -1.8646   -2.0000    8.0272 H   0  0  0  0  0  0  0  0  0  0  0  0
   -0.6175   -1.1465    8.8737 H   0  0  0  0  0  0  0  0  0  0  0  0
   -0.6740    1.5070    8.9441 H   0  0  0  0  0  0  0  0  0  0  0  0
   -1.8792    2.3744    8.0445 H   0  0  0  0  0  0  0  0  0  0  0  0
   -3.6801    1.3782    9.4143 H   0  0  0  0  0  0  0  0  0  0  0  0
   -2.4573    2.3148   10.2959 H   0  0  0  0  0  0  0  0  0  0  0  0
   -3.6244   -1.1502    9.5535 H   0  0  0  0  0  0  0  0  0  0  0  0
   -2.3250   -1.9270   10.4475 H   0  0  0  0  0  0  0  0  0  0  0  0
   -1.4080    4.9029   14.1279 H   0  0  0  0  0  0  0  0  0  0  0  0
   -4.5909   -1.0579    6.0227 H   0  0  0  0  0  0  0  0  0  0  0  0
   -3.5265   -2.0220    6.9343 H   0  0  0  0  0  0  0  0  0  0  0  0
   -3.1272   -2.0660    4.4603 H   0  0  0  0  0  0  0  0  0  0  0  0
   -3.1646    2.1361    4.3483 H   0  0  0  0  0  0  0  0  0  0  0  0
   -1.7908    1.6780    5.0414 H   0  0  0  0  0  0  0  0  0  0  0  0
   -4.6192    1.3533    6.3152 H   0  0  0  0  0  0  0  0  0  0  0  0
   -3.3513    2.2652    6.8367 H   0  0  0  0  0  0  0  0  0  0  0  0
   -3.0883   -2.2582   -0.3923 H   0  0  0  0  0  0  0  0  0  0  0  0
   -4.6604    1.7645   -0.5987 H   0  0  0  0  0  0  0  0  0  0  0  0
   -4.0307    2.1046    1.7333 H   0  0  0  0  0  0  0  0  0  0  0  0
   -2.8869   -2.0170    2.0571 H   0  0  0  0  0  0  0  0  0  0  0  0
   -4.6486   -0.9599    3.6574 H   0  0  0  0  0  0  0  0  0  0  0  0
   -4.4065    1.8704   11.2276 H   0  0  0  0  0  0  0  0  0  0  0  0
   -4.6435    1.1081   12.7976 H   0  0  0  0  0  0  0  0  0  0  0  0
   -4.9853    2.8399   12.5224 H   0  0  0  0  0  0  0  0  0  0  0  0
    0.5543    0.1674   13.4841 H   0  0  0  0  0  0  0  0  0  0  0  0
    0.9151    0.9019   11.8906 H   0  0  0  0  0  0  0  0  0  0  0  0
    1.5090    1.6458   13.3789 H   0  0  0  0  0  0  0  0  0  0  0  0
   -0.5461    1.5416    6.4893 H   0  0  0  0  0  0  0  0  0  0  0  0
    0.2478    0.0885    7.0802 H   0  0  0  0  0  0  0  0  0  0  0  0
   -0.8890    0.0964    5.7508 H   0  0  0  0  0  0  0  0  0  0  0  0
   -1.4030   -3.0015    5.6670 H   0  0  0  0  0  0  0  0  0  0  0  0
   -0.6505   -1.9690    4.4033 H   0  0  0  0  0  0  0  0  0  0  0  0
   -0.5857   -1.6277    6.0937 H   0  0  0  0  0  0  0  0  0  0  0  0
   -5.4756    0.9888    4.8851 H   0  0  0  0  0  0  0  0  0  0  0  0
   -4.9213    2.1177    3.6662 H   0  0  0  0  0  0  0  0  0  0  0  0
   -6.1896    2.0360    1.6309 H   0  0  0  0  0  0  0  0  0  0  0  0
   -6.1715    0.2062    1.5133 H   0  0  0  0  0  0  0  0  0  0  0  0
   -7.6719    1.0874    1.6091 H   0  0  0  0  0  0  0  0  0  0  0  0
  1  2  1  0  0  0  0
  1  6  1  0  0  0  0
  1 39  1  0  0  0  0
  1 40  1  0  0  0  0
  2  3  1  0  0  0  0
  2 19  1  0  0  0  0
  2 33  1  0  0  0  0
  3  4  1  0  0  0  0
  3 41  1  0  0  0  0
  3 42  1  0  0  0  0
  4  5  1  0  0  0  0
  4 43  1  0  0  0  0
  4 44  1  0  0  0  0
  5  6  1  0  0  0  0
  5  7  1  0  0  0  0
  6 45  1  0  0  0  0
  6 46  1  0  0  0  0
  7  8  1  0  0  0  0
  7 38  2  0  0  0  0
  8  9  1  0  0  0  0
  8 13  2  0  0  0  0
  9 10  2  0  0  0  0
  9 31  1  0  0  0  0
 10 11  1  0  0  0  0
 11 12  2  0  0  0  0
 11 47  1  0  0  0  0
 12 13  1  0  0  0  0
 13 32  1  0  0  0  0
 14 15  1  0  0  0  0
 14 19  1  0  0  0  0
 14 48  1  0  0  0  0
 14 49  1  0  0  0  0
 15 16  1  0  0  0  0
 15 34  1  0  0  0  0
 15 50  1  6  0  0  0
 16 17  1  0  0  0  0
 17 18  1  0  0  0  0
 17 51  1  0  0  0  0
 17 52  1  0  0  0  0
 18 19  1  0  0  0  0
 18 53  1  0  0  0  0
 18 54  1  0  0  0  0
 20 21  1  0  0  0  0
 20 25  2  0  0  0  0
 20 55  1  0  0  0  0
 21 22  2  0  0  0  0
 21 27  1  0  0  0  0
 22 23  1  0  0  0  0
 22 56  1  0  0  0  0
 23 24  2  0  0  0  0
 23 57  1  0  0  0  0
 24 25  1  0  0  0  0
 25 58  1  0  0  0  0
 26 35  1  0  0  0  0
 26 59  1  1  0  0  0
 26 24  1  0  0  0  0
 26 16  1  0  0  0  0
 27 28  1  0  0  0  0
 27 29  1  0  0  0  0
 27 30  1  0  0  0  0
 31 60  1  0  0  0  0
 31 61  1  0  0  0  0
 31 62  1  0  0  0  0
 32 63  1  0  0  0  0
 32 64  1  0  0  0  0
 32 65  1  0  0  0  0
 33 66  1  0  0  0  0
 33 67  1  0  0  0  0
 33 68  1  0  0  0  0
 34 69  1  0  0  0  0
 34 70  1  0  0  0  0
 34 71  1  0  0  0  0
 35 36  1  0  0  0  0
 35 72  1  0  0  0  0
 35 73  1  0  0  0  0
 36 37  1  0  0  0  0
 37 74  1  0  0  0  0
 37 75  1  0  0  0  0
 37 76  1  0  0  0  0
M  END
>  <DRUGBANK_ID>
DB06652

>  <COMMON_NAME>
Vicriviroc

>  <CAS_NUMBER>
306296-47-9

>  <UNII>
TL515DW4QS

>  <SYNONYMS>
Vicriviroc

$$$$
