
 OpenBabel10282417133D

 23 23  0  0  1  0  0  0  0  0999 V2000
   -0.8378    0.7530    0.1058 C   0  0  1  0  0  0  0  0  0  0  0  0
   -1.3966   -0.6414   -0.2154 C   0  0  1  0  0  0  0  0  0  0  0  0
    0.6779    0.8716   -0.1442 C   0  0  2  0  0  0  0  0  0  0  0  0
   -0.4935   -1.7469    0.3443 C   0  0  2  0  0  0  0  0  0  0  0  0
   -0.6099   -1.8369    1.8731 C   0  0  0  0  0  0  0  0  0  0  0  0
    1.4706   -0.4027    0.2298 C   0  0  2  0  0  0  0  0  0  0  0  0
   -1.5435    1.7547   -0.6463 O   0  0  0  0  0  0  0  0  0  0  0  0
   -2.7423   -0.7864    0.2504 O   0  0  0  0  0  0  0  0  0  0  0  0
    1.1821    1.9997    0.5945 O   0  0  0  0  0  0  0  0  0  0  0  0
   -1.0475   -2.7786    2.5172 O   0  0  0  0  0  0  0  0  0  0  0  0
   -0.2136   -0.7121    2.5100 O   0  0  0  0  0  0  0  0  0  0  0  0
    2.7429   -0.4059   -0.4035 O   0  0  0  0  0  0  0  0  0  0  0  0
    0.8283   -1.6035   -0.1613 O   0  0  0  0  0  0  0  0  0  0  0  0
   -1.0700    1.0117    1.1426 H   0  0  0  0  0  0  0  0  0  0  0  0
   -1.4499   -0.7416   -1.3075 H   0  0  0  0  0  0  0  0  0  0  0  0
    0.8575    1.1105   -1.1986 H   0  0  0  0  0  0  0  0  0  0  0  0
   -0.8688   -2.7060   -0.0364 H   0  0  0  0  0  0  0  0  0  0  0  0
    1.7020   -0.4190    1.2975 H   0  0  0  0  0  0  0  0  0  0  0  0
   -1.3579    1.6239   -1.5921 H   0  0  0  0  0  0  0  0  0  0  0  0
   -2.7742   -0.5893    1.2044 H   0  0  0  0  0  0  0  0  0  0  0  0
    0.9950    1.8435    1.5385 H   0  0  0  0  0  0  0  0  0  0  0  0
   -0.3103   -0.8942    3.4703 H   0  0  0  0  0  0  0  0  0  0  0  0
    2.5605   -0.5106   -1.3508 H   0  0  0  0  0  0  0  0  0  0  0  0
  1  7  1  0  0  0  0
  1 14  1  1  0  0  0
  2  1  1  0  0  0  0
  2  8  1  0  0  0  0
  2 15  1  6  0  0  0
  3  1  1  0  0  0  0
  3  9  1  0  0  0  0
  3 16  1  6  0  0  0
  4  2  1  0  0  0  0
  4  5  1  0  0  0  0
  4 17  1  6  0  0  0
  6  3  1  0  0  0  0
  6 12  1  0  0  0  0
  6 18  1  1  0  0  0
  7 19  1  0  0  0  0
  8 20  1  0  0  0  0
  9 21  1  0  0  0  0
 10  5  2  0  0  0  0
 11  5  1  0  0  0  0
 11 22  1  0  0  0  0
 12 23  1  0  0  0  0
 13  4  1  0  0  0  0
 13  6  1  0  0  0  0
M  END
>  <DRUGBANK_ID>
DB02945

>  <SECONDARY_ACCESSION_NUMBERS>
EXPT01842

>  <COMMON_NAME>
alpha-L-iduronic acid

>  <CAS_NUMBER>
71031-08-8

>  <UNII>
E850Z98K7Y

>  <SYNONYMS>
L-iduronic acid; Î±-L-iduronic acid

$$$$
