
 OpenBabel10282417203D

 58 60  0  0  1  0  0  0  0  0999 V2000
    1.1124    0.1073   -0.0208 C   0  0  0  0  0  0  0  0  0  0  0  0
    0.6537    0.7049   -1.3496 C   0  0  0  0  0  0  0  0  0  0  0  0
    1.0427   -0.1825   -2.5412 C   0  0  0  0  0  0  0  0  0  0  0  0
    0.5730   -1.6238   -2.4304 C   0  0  0  0  0  0  0  0  0  0  0  0
   -0.6572   -1.9280   -1.8497 C   0  0  0  0  0  0  0  0  0  0  0  0
   -0.8549   -3.2315   -1.4536 C   0  0  0  0  0  0  0  0  0  0  0  0
   -0.1146   -4.2873   -1.9601 C   0  0  0  0  0  0  0  0  0  0  0  0
    1.0894   -4.0281   -2.6066 C   0  0  0  0  0  0  0  0  0  0  0  0
    1.4505   -2.6787   -2.7914 C   0  0  0  0  0  0  0  0  0  0  0  0
    2.6464   -2.2263   -3.2749 O   0  0  0  0  0  0  0  0  0  0  0  0
    1.9138   -5.2459   -2.8908 C   0  0  0  0  0  0  0  0  0  0  0  0
    1.4646   -6.3703   -2.6681 O   0  0  0  0  0  0  0  0  0  0  0  0
    3.3096   -5.0868   -3.4034 C   0  0  0  0  0  0  0  0  0  0  0  0
   -1.5496   -0.9205   -1.6260 O   0  0  0  0  0  0  0  0  0  0  0  0
   -2.8390   -1.1686   -1.0548 C   0  0  0  0  0  0  0  0  0  0  0  0
   -3.7246   -1.9328   -1.9973 C   0  0  0  0  0  0  0  0  0  0  0  0
   -3.6766   -3.3334   -2.0484 C   0  0  0  0  0  0  0  0  0  0  0  0
   -4.2155   -4.0643   -3.0771 C   0  0  0  0  0  0  0  0  0  0  0  0
   -5.0509   -3.4223   -3.9634 C   0  0  0  0  0  0  0  0  0  0  0  0
   -5.2506   -2.0318   -3.8164 C   0  0  0  0  0  0  0  0  0  0  0  0
   -4.5440   -1.2751   -2.8942 C   0  0  0  0  0  0  0  0  0  0  0  0
   -5.7363   -4.2813   -4.9921 C   0  0  1  0  0  0  0  0  0  0  0  0
   -7.2297   -4.3551   -4.7832 C   0  0  0  0  0  0  0  0  0  0  0  0
   -8.0086   -3.1881   -4.8421 C   0  0  0  0  0  0  0  0  0  0  0  0
   -9.3773   -3.2037   -4.6658 C   0  0  0  0  0  0  0  0  0  0  0  0
  -10.0177   -4.4209   -4.5399 C   0  0  0  0  0  0  0  0  0  0  0  0
   -9.2782   -5.6113   -4.5638 C   0  0  0  0  0  0  0  0  0  0  0  0
   -7.8780   -5.5787   -4.5868 C   0  0  0  0  0  0  0  0  0  0  0  0
   -9.9590   -6.9201   -4.7192 C   0  0  0  0  0  0  0  0  0  0  0  0
   -9.4220   -7.9953   -4.8274 O   0  0  0  0  0  0  0  0  0  0  0  0
  -11.2965   -6.7709   -4.8334 O   0  0  0  0  0  0  0  0  0  0  0  0
   -5.4540   -3.7810   -6.2931 O   0  0  0  0  0  0  0  0  0  0  0  0
    0.7394   -0.9092    0.1454 H   0  0  0  0  0  0  0  0  0  0  0  0
    0.7493    0.7128    0.8121 H   0  0  0  0  0  0  0  0  0  0  0  0
    2.2039    0.0607    0.0162 H   0  0  0  0  0  0  0  0  0  0  0  0
   -0.4221    0.8919   -1.3209 H   0  0  0  0  0  0  0  0  0  0  0  0
    1.0932    1.6972   -1.4818 H   0  0  0  0  0  0  0  0  0  0  0  0
    0.6814    0.2347   -3.4867 H   0  0  0  0  0  0  0  0  0  0  0  0
    2.1386   -0.1476   -2.5783 H   0  0  0  0  0  0  0  0  0  0  0  0
   -1.5848   -3.4462   -0.6941 H   0  0  0  0  0  0  0  0  0  0  0  0
   -0.4704   -5.3005   -1.7753 H   0  0  0  0  0  0  0  0  0  0  0  0
    3.2705   -2.9132   -3.5098 H   0  0  0  0  0  0  0  0  0  0  0  0
    3.2772   -4.5965   -4.3797 H   0  0  0  0  0  0  0  0  0  0  0  0
    3.9038   -4.5354   -2.6675 H   0  0  0  0  0  0  0  0  0  0  0  0
    3.7819   -6.0600   -3.5416 H   0  0  0  0  0  0  0  0  0  0  0  0
   -2.7614   -1.6531   -0.0773 H   0  0  0  0  0  0  0  0  0  0  0  0
   -3.2866   -0.1835   -0.8586 H   0  0  0  0  0  0  0  0  0  0  0  0
   -3.1779   -3.9339   -1.3098 H   0  0  0  0  0  0  0  0  0  0  0  0
   -3.9932   -5.1270   -3.1374 H   0  0  0  0  0  0  0  0  0  0  0  0
   -5.9592   -1.4802   -4.4134 H   0  0  0  0  0  0  0  0  0  0  0  0
   -4.6609   -0.1938   -2.8888 H   0  0  0  0  0  0  0  0  0  0  0  0
   -5.3104   -5.2950   -4.9656 H   0  0  0  0  0  0  0  0  0  0  0  0
   -7.5696   -2.2246   -5.0487 H   0  0  0  0  0  0  0  0  0  0  0  0
   -9.9256   -2.2683   -4.6955 H   0  0  0  0  0  0  0  0  0  0  0  0
  -11.1002   -4.4309   -4.4749 H   0  0  0  0  0  0  0  0  0  0  0  0
   -7.3075   -6.5045   -4.5148 H   0  0  0  0  0  0  0  0  0  0  0  0
  -11.6358   -7.6689   -5.0204 H   0  0  0  0  0  0  0  0  0  0  0  0
   -5.6946   -2.8430   -6.2863 H   0  0  0  0  0  0  0  0  0  0  0  0
  1  2  1  0  0  0  0
  1 33  1  0  0  0  0
  1 34  1  0  0  0  0
  1 35  1  0  0  0  0
  2  3  1  0  0  0  0
  2 36  1  0  0  0  0
  2 37  1  0  0  0  0
  3  4  1  0  0  0  0
  3 38  1  0  0  0  0
  3 39  1  0  0  0  0
  4  5  2  0  0  0  0
  4  9  1  0  0  0  0
  5  6  1  0  0  0  0
  5 14  1  0  0  0  0
  6  7  2  0  0  0  0
  6 40  1  0  0  0  0
  7  8  1  0  0  0  0
  7 41  1  0  0  0  0
  8  9  2  0  0  0  0
  8 11  1  0  0  0  0
  9 10  1  0  0  0  0
 10 42  1  0  0  0  0
 11 12  2  0  0  0  0
 11 13  1  0  0  0  0
 13 43  1  0  0  0  0
 13 44  1  0  0  0  0
 13 45  1  0  0  0  0
 14 15  1  0  0  0  0
 15 16  1  0  0  0  0
 15 46  1  0  0  0  0
 15 47  1  0  0  0  0
 16 17  2  0  0  0  0
 16 21  1  0  0  0  0
 17 18  1  0  0  0  0
 17 48  1  0  0  0  0
 18 19  2  0  0  0  0
 18 49  1  0  0  0  0
 19 20  1  0  0  0  0
 19 22  1  0  0  0  0
 20 21  2  0  0  0  0
 20 50  1  0  0  0  0
 21 51  1  0  0  0  0
 22 23  1  0  0  0  0
 22 32  1  0  0  0  0
 22 52  1  1  0  0  0
 23 24  2  0  0  0  0
 23 28  1  0  0  0  0
 24 25  1  0  0  0  0
 24 53  1  0  0  0  0
 25 26  2  0  0  0  0
 25 54  1  0  0  0  0
 26 27  1  0  0  0  0
 26 55  1  0  0  0  0
 27 28  2  0  0  0  0
 27 29  1  0  0  0  0
 28 56  1  0  0  0  0
 29 30  2  0  0  0  0
 29 31  1  0  0  0  0
 31 57  1  0  0  0  0
 32 58  1  0  0  0  0
M  END
>  <DRUGBANK_ID>
DB13016

>  <COMMON_NAME>
LY-2300559

>  <CAS_NUMBER>
889116-06-7

>  <UNII>
Z572ZBT8XL

$$$$
