
 OpenBabel10282417123D

 24 24  0  0  1  0  0  0  0  0999 V2000
    0.3327   -0.1356   -0.1441 O   0  0  0  0  0  0  0  0  0  0  0  0
    0.0660    1.0574   -0.8949 C   0  0  0  0  0  0  0  0  0  0  0  0
    1.1352    2.1964   -0.7511 C   0  0  2  0  0  0  0  0  0  0  0  0
    0.9316    2.8658    0.4885 O   0  0  0  0  0  0  0  0  0  0  0  0
    1.0222    3.2219   -1.7415 O   0  0  0  0  0  0  0  0  0  0  0  0
    1.2493    2.7927   -3.0813 C   0  0  0  0  0  0  0  0  0  0  0  0
    2.5300    1.9624   -3.2807 C   0  0  2  0  0  0  0  0  0  0  0  0
    2.4903    1.3618   -4.5781 O   0  0  0  0  0  0  0  0  0  0  0  0
    2.7019    0.9109   -2.1713 C   0  0  1  0  0  0  0  0  0  0  0  0
    3.9634    0.2413   -2.2255 O   0  0  0  0  0  0  0  0  0  0  0  0
    2.5599    1.5909   -0.8012 C   0  0  2  0  0  0  0  0  0  0  0  0
    2.7462    0.6107    0.2382 O   0  0  0  0  0  0  0  0  0  0  0  0
    1.2695   -0.1143    0.1522 H   0  0  0  0  0  0  0  0  0  0  0  0
   -0.0057    0.7306   -1.9351 H   0  0  0  0  0  0  0  0  0  0  0  0
   -0.9298    1.4047   -0.6159 H   0  0  0  0  0  0  0  0  0  0  0  0
    1.1358    3.7986    0.2926 H   0  0  0  0  0  0  0  0  0  0  0  0
    0.3619    2.2547   -3.4328 H   0  0  0  0  0  0  0  0  0  0  0  0
    1.3023    3.6859   -3.7165 H   0  0  0  0  0  0  0  0  0  0  0  0
    3.4045    2.6219   -3.2625 H   0  0  0  0  0  0  0  0  0  0  0  0
    1.7444    0.7384   -4.6170 H   0  0  0  0  0  0  0  0  0  0  0  0
    1.9667    0.1116   -2.3161 H   0  0  0  0  0  0  0  0  0  0  0  0
    3.9051   -0.4893   -1.5802 H   0  0  0  0  0  0  0  0  0  0  0  0
    3.3272    2.3659   -0.6687 H   0  0  0  0  0  0  0  0  0  0  0  0
    3.7062    0.4229    0.3086 H   0  0  0  0  0  0  0  0  0  0  0  0
  1  2  1  0  0  0  0
  1 13  1  0  0  0  0
  2 14  1  0  0  0  0
  2 15  1  0  0  0  0
  3  2  1  0  0  0  0
  3  4  1  1  0  0  0
  3  5  1  0  0  0  0
  3 11  1  0  0  0  0
  4 16  1  0  0  0  0
  5  6  1  0  0  0  0
  6  7  1  0  0  0  0
  6 17  1  0  0  0  0
  6 18  1  0  0  0  0
  7  8  1  0  0  0  0
  7  9  1  0  0  0  0
  7 19  1  1  0  0  0
  8 20  1  0  0  0  0
  9 11  1  0  0  0  0
  9 21  1  6  0  0  0
  9 10  1  0  0  0  0
 10 22  1  0  0  0  0
 11 23  1  1  0  0  0
 11 12  1  0  0  0  0
 12 24  1  0  0  0  0
M  END
>  <DRUGBANK_ID>
DB02561

>  <SECONDARY_ACCESSION_NUMBERS>
EXPT00649

>  <COMMON_NAME>
Beta-D-Fructopyranose

>  <CAS_NUMBER>
7660-25-5

>  <UNII>
0LJG9X2ZUL

$$$$
