
 OpenBabel10282417203D

124131  0  0  1  0  0  0  0  0999 V2000
   -3.4804    1.9295    1.4094 C   0  0  0  0  0  0  0  0  0  0  0  0
   -4.1600    3.7759    1.8047 C   0  0  2  0  0  0  0  0  0  0  0  0
   -3.1635    4.4233   -0.0299 C   0  0  2  0  0  0  0  0  0  0  0  0
   -1.2523    5.3756   -0.0306 C   0  0  2  0  0  0  0  0  0  0  0  0
   -0.7998    6.2230    2.0284 C   0  0  0  0  0  0  0  0  0  0  0  0
   -1.5797    5.5872    3.1829 C   0  0  1  0  0  0  0  0  0  0  0  0
   -3.1102    4.9153    3.1412 O   0  0  0  0  0  0  0  0  0  0  0  0
   -0.7613    4.7522    3.8995 O   0  0  0  0  0  0  0  0  0  0  0  0
   -0.8992    4.0734    2.8061 C   0  0  2  0  0  0  0  0  0  0  0  0
   -0.1341    5.0513    1.0185 C   0  0  2  0  0  0  0  0  0  0  0  0
   -1.4429    6.7008    0.6561 O   0  0  0  0  0  0  0  0  0  0  0  0
   -2.7465    6.2150    0.1729 C   0  0  2  0  0  0  0  0  0  0  0  0
   -3.6757    5.3409    1.2965 C   0  0  0  0  0  0  0  0  0  0  0  0
   -2.5671    3.6438    2.0631 C   0  0  2  0  0  0  0  0  0  0  0  0
   -3.6947    2.6015    3.2152 O   0  0  0  0  0  0  0  0  0  0  0  0
   -2.3625    5.0256   -1.4516 O   0  0  0  0  0  0  0  0  0  0  0  0
   -2.1539    3.0875   -1.3719 C   0  0  2  0  0  0  0  0  0  0  0  0
   -2.5770    1.4396   -0.6175 C   0  0  2  0  0  0  0  0  0  0  0  0
   -1.9209    0.8818    1.1203 O   0  0  0  0  0  0  0  0  0  0  0  0
   -1.1085    1.8913    1.9183 C   0  0  2  0  0  0  0  0  0  0  0  0
   -0.8011    3.1741    1.2527 C   0  0  0  0  0  0  0  0  0  0  0  0
   -1.3691    3.5794   -0.0243 C   0  0  2  0  0  0  0  0  0  0  0  0
   -0.0301    5.0702   -0.9955 O   0  0  0  0  0  0  0  0  0  0  0  0
    0.0623    1.4961    1.5370 O   0  0  0  0  0  0  0  0  0  0  0  0
    0.4597    0.6409    0.4572 C   0  0  1  0  0  0  0  0  0  0  0  0
    0.8301    0.7040   -1.0243 C   0  0  0  0  0  0  0  0  0  0  0  0
    1.9460    1.7456   -1.6326 C   0  0  0  0  0  0  0  0  0  0  0  0
    3.0114    3.0201   -0.3388 C   0  0  1  0  0  0  0  0  0  0  0  0
    2.4716    2.0122    0.3374 C   0  0  1  0  0  0  0  0  0  0  0  0
    1.6288    1.0058    1.0182 C   0  0  0  0  0  0  0  0  0  0  0  0
    1.9078    3.7174    0.4089 C   0  0  0  0  0  0  0  0  0  0  0  0
    2.6395    5.2161    0.0901 C   0  0  0  0  0  0  0  0  0  0  0  0
    4.0511    5.0668    0.2967 C   0  0  2  0  0  0  0  0  0  0  0  0
    3.1569    4.6421    1.2265 C   0  0  2  0  0  0  0  0  0  0  0  0
    2.6362    4.9438    3.1027 C   0  0  0  0  0  0  0  0  0  0  0  0
    3.3729    3.7282    3.6326 C   0  0  2  0  0  0  0  0  0  0  0  0
    3.6443    3.0634    2.3038 C   0  0  1  0  0  0  0  0  0  0  0  0
    4.5079    3.8946    1.0641 C   0  0  2  0  0  0  0  0  0  0  0  0
    5.5440    4.1021    2.0511 C   0  0  0  0  0  0  0  0  0  0  0  0
    6.2774    3.2111    1.1692 C   0  0  0  0  0  0  0  0  0  0  0  0
    4.7455    1.9082    1.8764 C   0  0  2  0  0  0  0  0  0  0  0  0
    3.7110    0.3103    2.2961 C   0  0  0  0  0  0  0  0  0  0  0  0
    4.1670   -0.8881    2.0554 C   0  0  0  0  0  0  0  0  0  0  0  0
    3.3346   -2.0097    2.4807 C   0  0  0  0  0  0  0  0  0  0  0  0
    3.7592   -3.1445    2.4900 O   0  0  0  0  0  0  0  0  0  0  0  0
    2.1114   -1.7343    2.9221 O   0  0  0  0  0  0  0  0  0  0  0  0
    2.0518   -0.3626    2.8744 C   0  0  0  0  0  0  0  0  0  0  0  0
    4.9509    2.8435   -0.0795 O   0  0  0  0  0  0  0  0  0  0  0  0
    2.0924    2.8023    2.3233 C   0  0  0  0  0  0  0  0  0  0  0  0
    2.9758    2.4605    4.1480 O   0  0  0  0  0  0  0  0  0  0  0  0
    3.6362    1.5387   -1.4765 C   0  0  0  0  0  0  0  0  0  0  0  0
   -1.8441    0.2589   -0.7308 C   0  0  0  0  0  0  0  0  0  0  0  0
   -0.2223    3.5872   -1.0537 C   0  0  0  0  0  0  0  0  0  0  0  0
   -0.1989    6.6160   -1.2338 O   0  0  0  0  0  0  0  0  0  0  0  0
    1.2819    5.8758   -2.0621 C   0  0  0  0  0  0  0  0  0  0  0  0
    1.3539    5.9542   -3.3017 O   0  0  0  0  0  0  0  0  0  0  0  0
    1.7426    3.9594   -2.0418 C   0  0  0  0  0  0  0  0  0  0  0  0
   -4.0083    5.6796   -1.0642 O   0  0  0  0  0  0  0  0  0  0  0  0
   -2.2596    2.2183    0.6711 H   0  0  0  0  0  0  0  0  0  0  0  0
   -4.0388    1.0873    1.0618 H   0  0  0  0  0  0  0  0  0  0  0  0
   -2.7607    1.6520    2.3366 H   0  0  0  0  0  0  0  0  0  0  0  0
   -5.1323    3.8265    2.1575 H   0  0  0  0  0  0  0  0  0  0  0  0
   -3.5592    3.7444   -0.7225 H   0  0  0  0  0  0  0  0  0  0  0  0
   -0.0452    4.1535    0.1224 H   0  0  0  0  0  0  0  0  0  0  0  0
    0.3316    6.4634    2.1875 H   0  0  0  0  0  0  0  0  0  0  0  0
   -0.9729    7.3682    2.0632 H   0  0  0  0  0  0  0  0  0  0  0  0
   -1.4910    6.3295    3.9009 H   0  0  0  0  0  0  0  0  0  0  0  0
   -0.2319    2.8729    3.2310 H   0  0  0  0  0  0  0  0  0  0  0  0
    0.8808    5.3604    1.3210 H   0  0  0  0  0  0  0  0  0  0  0  0
   -3.5150    6.9039    0.4217 H   0  0  0  0  0  0  0  0  0  0  0  0
   -4.1036    5.7982    2.0892 H   0  0  0  0  0  0  0  0  0  0  0  0
   -4.7051    4.4228    0.5077 H   0  0  0  0  0  0  0  0  0  0  0  0
   -2.9571    3.1986    0.7583 H   0  0  0  0  0  0  0  0  0  0  0  0
   -4.5042    2.1080    2.6409 H   0  0  0  0  0  0  0  0  0  0  0  0
   -1.6982    2.8409   -2.3854 H   0  0  0  0  0  0  0  0  0  0  0  0
   -3.6256    1.6509   -0.6540 H   0  0  0  0  0  0  0  0  0  0  0  0
   -1.5540    2.2545    3.1617 H   0  0  0  0  0  0  0  0  0  0  0  0
   -1.5185    4.4124    1.3480 H   0  0  0  0  0  0  0  0  0  0  0  0
    0.2782    3.7308    1.9677 H   0  0  0  0  0  0  0  0  0  0  0  0
   -0.2088    2.6738    0.2061 H   0  0  0  0  0  0  0  0  0  0  0  0
    0.0991    4.8703   -2.0831 H   0  0  0  0  0  0  0  0  0  0  0  0
   -0.4102    1.0499    0.3691 H   0  0  0  0  0  0  0  0  0  0  0  0
    0.1046    0.4990   -1.8763 H   0  0  0  0  0  0  0  0  0  0  0  0
    0.9251   -0.3589   -0.8997 H   0  0  0  0  0  0  0  0  0  0  0  0
    1.2742    1.7997   -2.7889 H   0  0  0  0  0  0  0  0  0  0  0  0
    1.5063    2.4884   -2.8298 H   0  0  0  0  0  0  0  0  0  0  0  0
    3.3007    1.9681    0.8978 H   0  0  0  0  0  0  0  0  0  0  0  0
    1.3902    1.0804    2.2123 H   0  0  0  0  0  0  0  0  0  0  0  0
    2.4752    0.5474    1.1280 H   0  0  0  0  0  0  0  0  0  0  0  0
    1.3731    4.4610    0.0082 H   0  0  0  0  0  0  0  0  0  0  0  0
    1.0760    3.6583    0.8972 H   0  0  0  0  0  0  0  0  0  0  0  0
    2.2853    6.1197   -0.3723 H   0  0  0  0  0  0  0  0  0  0  0  0
    2.6297    4.9709   -0.8812 H   0  0  0  0  0  0  0  0  0  0  0  0
    4.4404    6.0339    0.1824 H   0  0  0  0  0  0  0  0  0  0  0  0
    3.5641    5.8670    1.7718 H   0  0  0  0  0  0  0  0  0  0  0  0
    2.2446    5.8947    3.6013 H   0  0  0  0  0  0  0  0  0  0  0  0
    1.5723    4.7174    3.3896 H   0  0  0  0  0  0  0  0  0  0  0  0
    3.8658    4.0058    4.5041 H   0  0  0  0  0  0  0  0  0  0  0  0
    6.3932    4.2338    2.6366 H   0  0  0  0  0  0  0  0  0  0  0  0
    5.4428    3.3221    2.7373 H   0  0  0  0  0  0  0  0  0  0  0  0
    6.7289    4.5109    0.9031 H   0  0  0  0  0  0  0  0  0  0  0  0
    6.3569    4.0955   -0.0025 H   0  0  0  0  0  0  0  0  0  0  0  0
    4.8397    1.3404    2.8392 H   0  0  0  0  0  0  0  0  0  0  0  0
    5.1556   -0.7843    1.7514 H   0  0  0  0  0  0  0  0  0  0  0  0
    1.1028   -0.4816    2.1880 H   0  0  0  0  0  0  0  0  0  0  0  0
    1.6028    0.1462    3.7415 H   0  0  0  0  0  0  0  0  0  0  0  0
    4.7268    2.8671   -0.9993 H   0  0  0  0  0  0  0  0  0  0  0  0
    1.3452    2.5013    2.9866 H   0  0  0  0  0  0  0  0  0  0  0  0
    1.7225    3.7414    2.3058 H   0  0  0  0  0  0  0  0  0  0  0  0
    1.4764    2.5292    1.5469 H   0  0  0  0  0  0  0  0  0  0  0  0
    3.7238    2.0074    3.7223 H   0  0  0  0  0  0  0  0  0  0  0  0
    3.9853    0.6522   -0.9466 H   0  0  0  0  0  0  0  0  0  0  0  0
    3.0706    0.7789   -2.3635 H   0  0  0  0  0  0  0  0  0  0  0  0
    4.2050    1.9737   -2.2688 H   0  0  0  0  0  0  0  0  0  0  0  0
   -1.0785    0.9380   -0.8881 H   0  0  0  0  0  0  0  0  0  0  0  0
   -1.5931   -0.3718    0.1612 H   0  0  0  0  0  0  0  0  0  0  0  0
   -1.7787   -0.1308   -1.6520 H   0  0  0  0  0  0  0  0  0  0  0  0
   -0.4713    2.4236   -1.1523 H   0  0  0  0  0  0  0  0  0  0  0  0
   -0.8645    4.0663   -1.9743 H   0  0  0  0  0  0  0  0  0  0  0  0
    0.6355    3.6457   -0.8623 H   0  0  0  0  0  0  0  0  0  0  0  0
    1.7606    3.2851   -1.1807 H   0  0  0  0  0  0  0  0  0  0  0  0
    0.8307    2.8219   -1.8003 H   0  0  0  0  0  0  0  0  0  0  0  0
    2.7796    3.6076   -2.2076 H   0  0  0  0  0  0  0  0  0  0  0  0
   -4.7785    5.3823   -0.7238 H   0  0  0  0  0  0  0  0  0  0  0  0
  1 59  1  0  0  0  0
  1 60  1  0  0  0  0
  1 61  1  0  0  0  0
  2  1  1  0  0  0  0
  2  3  1  0  0  0  0
  2  7  1  0  0  0  0
  2 62  1  1  0  0  0
  3  4  1  0  0  0  0
  3 63  1  6  0  0  0
  3 58  1  0  0  0  0
  4  5  1  0  0  0  0
  4 64  1  1  0  0  0
  4 54  1  0  0  0  0
  5  6  1  0  0  0  0
  5 65  1  0  0  0  0
  5 66  1  0  0  0  0
  6  7  1  0  0  0  0
  6  8  1  0  0  0  0
  6 67  1  1  0  0  0
  9  8  1  0  0  0  0
  9 10  1  0  0  0  0
  9 14  1  0  0  0  0
  9 68  1  1  0  0  0
 10 11  1  0  0  0  0
 10 69  1  1  0  0  0
 10 53  1  0  0  0  0
 11 12  1  0  0  0  0
 12 13  1  0  0  0  0
 12 70  1  6  0  0  0
 12 16  1  0  0  0  0
 13 14  1  0  0  0  0
 13 71  1  0  0  0  0
 13 72  1  0  0  0  0
 14 73  1  6  0  0  0
 14 15  1  0  0  0  0
 15 74  1  0  0  0  0
 17 16  1  0  0  0  0
 17 18  1  0  0  0  0
 17 22  1  0  0  0  0
 17 75  1  6  0  0  0
 18 19  1  0  0  0  0
 18 76  1  6  0  0  0
 18 52  1  0  0  0  0
 19 20  1  0  0  0  0
 20 21  1  0  0  0  0
 20 77  1  1  0  0  0
 20 24  1  0  0  0  0
 21 22  1  0  0  0  0
 21 78  1  0  0  0  0
 21 79  1  0  0  0  0
 22 80  1  6  0  0  0
 22 23  1  0  0  0  0
 23 81  1  0  0  0  0
 25 26  1  0  0  0  0
 25 30  1  0  0  0  0
 25 82  1  1  0  0  0
 25 24  1  0  0  0  0
 26 27  1  0  0  0  0
 26 83  1  0  0  0  0
 26 84  1  0  0  0  0
 27 28  1  0  0  0  0
 27 85  1  0  0  0  0
 27 86  1  0  0  0  0
 28 29  1  0  0  0  0
 28 34  1  0  0  0  0
 28 51  1  1  0  0  0
 29 30  1  0  0  0  0
 29 31  1  0  0  0  0
 29 87  1  6  0  0  0
 30 88  1  0  0  0  0
 30 89  1  0  0  0  0
 31 32  1  0  0  0  0
 31 90  1  0  0  0  0
 31 91  1  0  0  0  0
 32 92  1  0  0  0  0
 32 93  1  0  0  0  0
 33 32  1  0  0  0  0
 33 34  1  0  0  0  0
 33 38  1  0  0  0  0
 33 94  1  6  0  0  0
 34 35  1  0  0  0  0
 34 95  1  6  0  0  0
 35 36  1  0  0  0  0
 35 96  1  0  0  0  0
 35 97  1  0  0  0  0
 36 37  1  0  0  0  0
 36 98  1  1  0  0  0
 36 50  1  0  0  0  0
 37 38  1  0  0  0  0
 37 41  1  0  0  0  0
 37 49  1  6  0  0  0
 38 39  1  0  0  0  0
 38 48  1  6  0  0  0
 39 40  1  0  0  0  0
 39 99  1  0  0  0  0
 39100  1  0  0  0  0
 40 41  1  0  0  0  0
 40101  1  0  0  0  0
 40102  1  0  0  0  0
 41103  1  1  0  0  0
 41 42  1  0  0  0  0
 42 43  2  0  0  0  0
 42 47  1  0  0  0  0
 43 44  1  0  0  0  0
 43104  1  0  0  0  0
 44 45  2  0  0  0  0
 44 46  1  0  0  0  0
 46 47  1  0  0  0  0
 47105  1  0  0  0  0
 47106  1  0  0  0  0
 48107  1  0  0  0  0
 49108  1  0  0  0  0
 49109  1  0  0  0  0
 49110  1  0  0  0  0
 50111  1  0  0  0  0
 51112  1  0  0  0  0
 51113  1  0  0  0  0
 51114  1  0  0  0  0
 52115  1  0  0  0  0
 52116  1  0  0  0  0
 52117  1  0  0  0  0
 53118  1  0  0  0  0
 53119  1  0  0  0  0
 53120  1  0  0  0  0
 54 55  1  0  0  0  0
 55 56  2  0  0  0  0
 55 57  1  0  0  0  0
 57121  1  0  0  0  0
 57122  1  0  0  0  0
 57123  1  0  0  0  0
 58124  1  0  0  0  0
M  END
>  <DRUGBANK_ID>
DB13691

>  <COMMON_NAME>
Acetyldigoxin

>  <CAS_NUMBER>
5511-98-8

>  <UNII>
Q28IFH7A50

>  <SYNONYMS>
alpha-acetyldigoxin

$$$$
