
 OpenBabel10282417203D

 58 61  0  0  0  0  0  0  0  0999 V2000
    1.3217    0.1856   -1.1139 C   0  0  0  0  0  0  0  0  0  0  0  0
   -2.2187    2.4698    4.4324 C   0  0  0  0  0  0  0  0  0  0  0  0
   -1.9441    3.7602    4.0746 C   0  0  0  0  0  0  0  0  0  0  0  0
   -1.4645   -0.7585    2.9345 C   0  0  0  0  0  0  0  0  0  0  0  0
   -1.1993    1.5892    4.2406 C   0  0  0  0  0  0  0  0  0  0  0  0
   -0.7639    4.0896    3.3890 C   0  0  0  0  0  0  0  0  0  0  0  0
    4.4167    1.1751    0.6324 C   0  0  0  0  0  0  0  0  0  0  0  0
    3.6449    2.2642    1.0287 C   0  0  0  0  0  0  0  0  0  0  0  0
   -1.7975   -0.8382    1.4924 C   0  0  0  0  0  0  0  0  0  0  0  0
    0.0604   -0.4099    3.3598 C   0  0  0  0  0  0  0  0  0  0  0  0
   -1.7898   -3.2032    0.9515 C   0  0  0  0  0  0  0  0  0  0  0  0
    0.4899   -2.0868    1.3119 C   0  0  0  0  0  0  0  0  0  0  0  0
   -1.1992   -4.0190    2.1008 C   0  0  0  0  0  0  0  0  0  0  0  0
    0.8628   -2.9273    2.5290 C   0  0  0  0  0  0  0  0  0  0  0  0
    0.9702   -4.5983    0.9878 C   0  0  0  0  0  0  0  0  0  0  0  0
    0.5503   -3.9907   -0.5261 C   0  0  0  0  0  0  0  0  0  0  0  0
    2.9160   -0.1810    1.9410 C   0  0  0  0  0  0  0  0  0  0  0  0
    0.3591   -0.9271   -0.9188 C   0  0  0  0  0  0  0  0  0  0  0  0
    4.0351   -0.0638    1.0815 C   0  0  0  0  0  0  0  0  0  0  0  0
   -0.0767    1.8514    3.4021 C   0  0  0  0  0  0  0  0  0  0  0  0
    2.0352    0.8962    2.3089 C   0  0  0  0  0  0  0  0  0  0  0  0
    0.1490    3.1343    2.9802 C   0  0  0  0  0  0  0  0  0  0  0  0
    2.4742    2.1377    1.8274 C   0  0  0  0  0  0  0  0  0  0  0  0
    4.8128   -1.4820    0.4581 Cl  0  0  0  0  0  0  0  0  0  0  0  0
   -1.0158   -1.9938    0.9689 N   0  0  0  0  0  0  0  0  0  0  0  0
    0.2820   -4.1920    2.2248 N   0  0  0  0  0  0  0  0  0  0  0  0
    0.7762    0.8095    3.0178 N   0  0  0  0  0  0  0  0  0  0  0  0
   -0.5011   -0.3479   -0.3769 O   0  0  0  0  0  0  0  0  0  0  0  0
    0.7152   -2.3407   -1.1518 O   0  0  0  0  0  0  0  0  0  0  0  0
    1.5693    3.6506    2.0688 S   0  0  0  0  0  0  0  0  0  0  0  0
    1.0857    0.9739   -0.3317 H   0  0  0  0  0  0  0  0  0  0  0  0
    1.0025    0.7100   -2.0078 H   0  0  0  0  0  0  0  0  0  0  0  0
    2.3145   -0.0881   -0.8411 H   0  0  0  0  0  0  0  0  0  0  0  0
   -3.1247    2.1312    4.9235 H   0  0  0  0  0  0  0  0  0  0  0  0
   -2.6186    4.5355    4.3956 H   0  0  0  0  0  0  0  0  0  0  0  0
   -2.2886   -0.1646    3.3276 H   0  0  0  0  0  0  0  0  0  0  0  0
   -1.7238   -1.7103    3.3811 H   0  0  0  0  0  0  0  0  0  0  0  0
   -1.3550    0.6319    4.7381 H   0  0  0  0  0  0  0  0  0  0  0  0
   -0.5266    5.1224    3.1885 H   0  0  0  0  0  0  0  0  0  0  0  0
    5.2663    1.3003   -0.0332 H   0  0  0  0  0  0  0  0  0  0  0  0
    3.9303    3.2501    0.6752 H   0  0  0  0  0  0  0  0  0  0  0  0
   -1.6798    0.2005    1.1173 H   0  0  0  0  0  0  0  0  0  0  0  0
   -2.8833   -0.9247    1.2578 H   0  0  0  0  0  0  0  0  0  0  0  0
    0.2499   -0.7562    4.3794 H   0  0  0  0  0  0  0  0  0  0  0  0
    0.7429   -0.9868    2.8693 H   0  0  0  0  0  0  0  0  0  0  0  0
   -2.8772   -3.0412    1.0253 H   0  0  0  0  0  0  0  0  0  0  0  0
   -1.7842   -3.6348   -0.0479 H   0  0  0  0  0  0  0  0  0  0  0  0
    1.2982   -2.4355    0.6350 H   0  0  0  0  0  0  0  0  0  0  0  0
    0.9378   -1.1069    1.2199 H   0  0  0  0  0  0  0  0  0  0  0  0
   -1.5234   -3.4924    3.0048 H   0  0  0  0  0  0  0  0  0  0  0  0
   -1.6695   -4.9828    2.1832 H   0  0  0  0  0  0  0  0  0  0  0  0
    0.4446   -2.6090    3.4720 H   0  0  0  0  0  0  0  0  0  0  0  0
    1.9561   -2.9100    2.7014 H   0  0  0  0  0  0  0  0  0  0  0  0
    0.7856   -5.6737    1.0560 H   0  0  0  0  0  0  0  0  0  0  0  0
    2.0610   -4.4909    1.1522 H   0  0  0  0  0  0  0  0  0  0  0  0
   -0.4304   -4.3973   -0.7342 H   0  0  0  0  0  0  0  0  0  0  0  0
    1.1987   -4.5482   -1.2028 H   0  0  0  0  0  0  0  0  0  0  0  0
    2.7377   -1.2096    2.1943 H   0  0  0  0  0  0  0  0  0  0  0  0
  1 31  1  0  0  0  0
  1 32  1  0  0  0  0
  1 33  1  0  0  0  0
  2 34  1  0  0  0  0
  3  2  2  0  0  0  0
  3 35  1  0  0  0  0
  4 36  1  0  0  0  0
  4 37  1  0  0  0  0
  5  2  1  0  0  0  0
  5 38  1  0  0  0  0
  6  3  1  0  0  0  0
  6 39  1  0  0  0  0
  7 40  1  0  0  0  0
  8  7  2  0  0  0  0
  8 41  1  0  0  0  0
  9  4  1  0  0  0  0
  9 42  1  0  0  0  0
  9 43  1  0  0  0  0
 10  4  1  0  0  0  0
 10 44  1  0  0  0  0
 10 45  1  0  0  0  0
 11 46  1  0  0  0  0
 11 47  1  0  0  0  0
 12 48  1  0  0  0  0
 12 49  1  0  0  0  0
 13 11  1  0  0  0  0
 13 50  1  0  0  0  0
 13 51  1  0  0  0  0
 14 12  1  0  0  0  0
 14 52  1  0  0  0  0
 14 53  1  0  0  0  0
 15 54  1  0  0  0  0
 15 55  1  0  0  0  0
 16 15  1  0  0  0  0
 16 56  1  0  0  0  0
 16 57  1  0  0  0  0
 17 58  1  0  0  0  0
 18  1  1  0  0  0  0
 19  7  1  0  0  0  0
 19 17  2  0  0  0  0
 20  5  2  0  0  0  0
 21 17  1  0  0  0  0
 22  6  2  0  0  0  0
 22 20  1  0  0  0  0
 23  8  1  0  0  0  0
 23 21  2  0  0  0  0
 24 19  1  0  0  0  0
 25  9  1  0  0  0  0
 25 11  1  0  0  0  0
 25 12  1  0  0  0  0
 26 13  1  0  0  0  0
 26 14  1  0  0  0  0
 26 15  1  0  0  0  0
 27 10  1  0  0  0  0
 27 20  1  0  0  0  0
 27 21  1  0  0  0  0
 28 18  2  0  0  0  0
 29 16  1  0  0  0  0
 29 18  1  0  0  0  0
 30 22  1  0  0  0  0
 30 23  1  0  0  0  0
M  END
>  <DRUGBANK_ID>
DB13557

>  <COMMON_NAME>
Thiopropazate

>  <CAS_NUMBER>
84-06-0

>  <UNII>
0JFY081Q2X

>  <SYNONYMS>
Thiopropazate; tiopropazato

$$$$
