
 OpenBabel10282417183D

138145  0  0  0  0  0  0  0  0999 V2000
    1.4947    8.1212    4.5585 C   0  0  2  0  0  0  0  0  0  0  0  0
    0.5086    8.4530    6.1979 C   0  0  1  0  0  0  0  0  0  0  0  0
    0.6185    8.5205    8.0010 C   0  0  2  0  0  0  0  0  0  0  0  0
    1.2324    7.2617    2.5043 C   0  0  0  0  0  0  0  0  0  0  0  0
    1.9206    6.0286   -2.6836 C   0  0  2  0  0  0  0  0  0  0  0  0
    2.6243    7.7684    5.8272 C   0  0  0  0  0  0  0  0  0  0  0  0
    2.7820    8.1036    7.2309 C   0  0  0  0  0  0  0  0  0  0  0  0
   -0.5909    8.5451    8.8805 O   0  0  0  0  0  0  0  0  0  0  0  0
   -1.1659    8.5355    6.7142 C   0  0  0  0  0  0  0  0  0  0  0  0
   -4.3524    4.9791    6.1872 C   0  0  2  0  0  0  0  0  0  0  0  0
    2.0033    8.8952    8.2992 C   0  0  1  0  0  0  0  0  0  0  0  0
    0.5840    5.8598   -3.2581 O   0  0  0  0  0  0  0  0  0  0  0  0
   -4.6804    6.9623    4.3011 C   0  0  2  0  0  0  0  0  0  0  0  0
   -2.3617    3.4112    4.4028 C   0  0  2  0  0  0  0  0  0  0  0  0
    1.1590    7.8426    1.0430 O   0  0  0  0  0  0  0  0  0  0  0  0
   -3.7623    3.2548    4.2190 O   0  0  0  0  0  0  0  0  0  0  0  0
   -4.5038    6.1897    3.0387 O   0  0  0  0  0  0  0  0  0  0  0  0
   -1.6876    4.4170    5.9294 C   0  0  0  0  0  0  0  0  0  0  0  0
   -3.5587    7.7820    4.7820 C   0  0  0  0  0  0  0  0  0  0  0  0
   -2.7808    5.0094    6.8377 C   0  0  2  0  0  0  0  0  0  0  0  0
   -1.9080    5.4435    3.8660 C   0  0  2  0  0  0  0  0  0  0  0  0
   -1.9586    5.4040    1.6582 C   0  0  1  0  0  0  0  0  0  0  0  0
    2.3596    7.1464   -1.7649 C   0  0  0  0  0  0  0  0  0  0  0  0
    2.3582    5.1159   -1.5780 O   0  0  0  0  0  0  0  0  0  0  0  0
   -4.5687    3.6379    5.3263 C   0  0  1  0  0  0  0  0  0  0  0  0
    0.3154    4.6758   -4.2405 C   0  0  1  0  0  0  0  0  0  0  0  0
   -2.1995    6.5211    4.8976 C   0  0  1  0  0  0  0  0  0  0  0  0
    1.9566    6.9716   -0.0595 C   0  0  2  0  0  0  0  0  0  0  0  0
   -3.5263    5.1420    3.1488 C   0  0  2  0  0  0  0  0  0  0  0  0
   -1.3531    4.9821    0.4840 C   0  0  0  0  0  0  0  0  0  0  0  0
   -5.0523    6.2640    5.5397 O   0  0  0  0  0  0  0  0  0  0  0  0
    2.8381    5.9884   -4.0935 C   0  0  0  0  0  0  0  0  0  0  0  0
   -1.6945    3.9283    2.7171 O   0  0  0  0  0  0  0  0  0  0  0  0
    2.3774    5.5560   -5.3078 C   0  0  0  0  0  0  0  0  0  0  0  0
   -0.4489    4.0586    0.8557 C   0  0  0  0  0  0  0  0  0  0  0  0
   -1.7397    8.4442    8.1207 C   0  0  0  0  0  0  0  0  0  0  0  0
   -1.8351    8.9527    5.6173 C   0  0  0  0  0  0  0  0  0  0  0  0
    0.7637    6.1783    2.2562 O   0  0  0  0  0  0  0  0  0  0  0  0
   -1.4010    8.6221    3.9400 C   0  0  0  0  0  0  0  0  0  0  0  0
    0.9770    5.0346   -5.5331 C   0  0  2  0  0  0  0  0  0  0  0  0
    2.4871    5.6699    0.5637 C   0  0  0  0  0  0  0  0  0  0  0  0
    1.8778    4.6325   -0.1873 C   0  0  1  0  0  0  0  0  0  0  0  0
   -1.6274    7.0197    1.8953 C   0  0  2  0  0  0  0  0  0  0  0  0
   -2.0212    7.8285    3.0243 C   0  0  0  0  0  0  0  0  0  0  0  0
    0.3897    9.6633    5.5797 O   0  0  0  0  0  0  0  0  0  0  0  0
    0.6545    3.0496   -4.0611 C   0  0  0  0  0  0  0  0  0  0  0  0
    0.5805    3.9449   -0.0134 C   0  0  0  0  0  0  0  0  0  0  0  0
    2.2039   10.3219    8.2917 O   0  0  0  0  0  0  0  0  0  0  0  0
   -0.6236    4.0349    4.2084 O   0  0  0  0  0  0  0  0  0  0  0  0
   -2.3774    3.9521    7.6258 O   0  0  0  0  0  0  0  0  0  0  0  0
   -0.5683    6.5184    5.6671 O   0  0  0  0  0  0  0  0  0  0  0  0
    3.8379    7.5333    8.1953 C   0  0  0  0  0  0  0  0  0  0  0  0
   -1.6861    5.8100   -0.7812 C   0  0  0  0  0  0  0  0  0  0  0  0
   -3.9555    2.4075    5.9005 C   0  0  0  0  0  0  0  0  0  0  0  0
   -3.6430    3.6209    2.1057 C   0  0  0  0  0  0  0  0  0  0  0  0
    0.1415    6.1049   -6.1735 C   0  0  0  0  0  0  0  0  0  0  0  0
   -2.2861    7.9917    1.0224 C   0  0  0  0  0  0  0  0  0  0  0  0
   -0.1563    2.5377   -2.9545 C   0  0  0  0  0  0  0  0  0  0  0  0
    2.1880    2.6513   -3.9780 C   0  0  0  0  0  0  0  0  0  0  0  0
   -1.6464    4.5254    8.6598 C   0  0  0  0  0  0  0  0  0  0  0  0
    0.5802    5.6816    4.7665 C   0  0  0  0  0  0  0  0  0  0  0  0
    2.8561    3.3602   -2.9360 C   0  0  0  0  0  0  0  0  0  0  0  0
    0.5202    3.3706   -2.0484 C   0  0  0  0  0  0  0  0  0  0  0  0
    2.1692    2.9179   -1.7384 C   0  0  0  0  0  0  0  0  0  0  0  0
   -5.2163    7.8646    3.9399 H   0  0  0  0  0  0  0  0  0  0  0  0
   -2.7763    4.2151    4.9108 H   0  0  0  0  0  0  0  0  0  0  0  0
    0.5734    9.3878    8.6661 H   0  0  0  0  0  0  0  0  0  0  0  0
    0.9367    7.3185    4.7084 H   0  0  0  0  0  0  0  0  0  0  0  0
    3.1035    6.8189    5.6547 H   0  0  0  0  0  0  0  0  0  0  0  0
   -4.9702    4.9122    7.0773 H   0  0  0  0  0  0  0  0  0  0  0  0
    2.1454    8.6394    9.3916 H   0  0  0  0  0  0  0  0  0  0  0  0
   -1.2194    5.1204    5.3778 H   0  0  0  0  0  0  0  0  0  0  0  0
   -0.6155    4.4553    6.3050 H   0  0  0  0  0  0  0  0  0  0  0  0
   -3.4585    8.6491    4.0446 H   0  0  0  0  0  0  0  0  0  0  0  0
   -3.8031    8.5272    5.5646 H   0  0  0  0  0  0  0  0  0  0  0  0
   -2.6217    6.0287    7.2904 H   0  0  0  0  0  0  0  0  0  0  0  0
   -1.1485    5.8018    3.2899 H   0  0  0  0  0  0  0  0  0  0  0  0
   -2.9798    5.4151    1.3318 H   0  0  0  0  0  0  0  0  0  0  0  0
    2.1395    8.0790   -2.2404 H   0  0  0  0  0  0  0  0  0  0  0  0
    3.4940    6.9820   -1.7805 H   0  0  0  0  0  0  0  0  0  0  0  0
   -5.4638    3.8130    4.7280 H   0  0  0  0  0  0  0  0  0  0  0  0
   -0.7920    4.6703   -4.3207 H   0  0  0  0  0  0  0  0  0  0  0  0
   -2.9389    6.0439    5.4202 H   0  0  0  0  0  0  0  0  0  0  0  0
    2.7075    7.6932    0.1436 H   0  0  0  0  0  0  0  0  0  0  0  0
   -3.9531    5.0296    4.0648 H   0  0  0  0  0  0  0  0  0  0  0  0
    3.9131    6.1491   -4.0416 H   0  0  0  0  0  0  0  0  0  0  0  0
    3.0080    5.4894   -6.1987 H   0  0  0  0  0  0  0  0  0  0  0  0
   -0.1007    3.4393    1.6817 H   0  0  0  0  0  0  0  0  0  0  0  0
   -2.2550    7.5648    8.5889 H   0  0  0  0  0  0  0  0  0  0  0  0
   -2.4941    9.2357    8.2704 H   0  0  0  0  0  0  0  0  0  0  0  0
   -1.4893    7.9971    5.4517 H   0  0  0  0  0  0  0  0  0  0  0  0
   -0.4969    8.0419    3.8778 H   0  0  0  0  0  0  0  0  0  0  0  0
    0.9957    4.1143   -6.1421 H   0  0  0  0  0  0  0  0  0  0  0  0
    3.5590    5.4789    0.3957 H   0  0  0  0  0  0  0  0  0  0  0  0
    2.2344    5.3225    1.5454 H   0  0  0  0  0  0  0  0  0  0  0  0
    2.4338    3.7200    0.2911 H   0  0  0  0  0  0  0  0  0  0  0  0
   -0.6679    7.2794    2.1302 H   0  0  0  0  0  0  0  0  0  0  0  0
   -2.9695    7.3736    3.0035 H   0  0  0  0  0  0  0  0  0  0  0  0
   -0.0446    8.9449    5.0868 H   0  0  0  0  0  0  0  0  0  0  0  0
    0.2514    2.4396   -4.8472 H   0  0  0  0  0  0  0  0  0  0  0  0
    0.6007    2.8072   -0.1290 H   0  0  0  0  0  0  0  0  0  0  0  0
   -0.0446    4.4858   -0.6851 H   0  0  0  0  0  0  0  0  0  0  0  0
    2.4223   10.5800    7.3911 H   0  0  0  0  0  0  0  0  0  0  0  0
   -0.6371    3.3655    4.9841 H   0  0  0  0  0  0  0  0  0  0  0  0
    4.4349    8.3802    8.5695 H   0  0  0  0  0  0  0  0  0  0  0  0
    3.4956    7.0476    9.1430 H   0  0  0  0  0  0  0  0  0  0  0  0
    4.4565    6.8288    7.6761 H   0  0  0  0  0  0  0  0  0  0  0  0
   -2.7359    5.7089   -1.0728 H   0  0  0  0  0  0  0  0  0  0  0  0
   -1.4554    6.8496   -0.7307 H   0  0  0  0  0  0  0  0  0  0  0  0
   -1.0157    5.7723   -1.6196 H   0  0  0  0  0  0  0  0  0  0  0  0
   -4.4720    2.2129    6.7824 H   0  0  0  0  0  0  0  0  0  0  0  0
   -3.8472    1.6163    5.1159 H   0  0  0  0  0  0  0  0  0  0  0  0
   -2.8767    2.5164    6.1519 H   0  0  0  0  0  0  0  0  0  0  0  0
   -3.2256    2.6467    2.5244 H   0  0  0  0  0  0  0  0  0  0  0  0
   -4.5971    3.5800    1.6863 H   0  0  0  0  0  0  0  0  0  0  0  0
   -2.8984    3.5248    1.3002 H   0  0  0  0  0  0  0  0  0  0  0  0
    0.7444    6.9909   -6.3606 H   0  0  0  0  0  0  0  0  0  0  0  0
   -0.2714    5.7203   -7.1046 H   0  0  0  0  0  0  0  0  0  0  0  0
   -0.6933    6.4049   -5.5291 H   0  0  0  0  0  0  0  0  0  0  0  0
   -2.1390    9.0063    1.4090 H   0  0  0  0  0  0  0  0  0  0  0  0
   -1.6902    8.0933    0.1687 H   0  0  0  0  0  0  0  0  0  0  0  0
   -3.3337    7.6901    0.9310 H   0  0  0  0  0  0  0  0  0  0  0  0
   -1.2439    2.8030   -2.9077 H   0  0  0  0  0  0  0  0  0  0  0  0
    0.0476    1.5966   -2.4327 H   0  0  0  0  0  0  0  0  0  0  0  0
    2.3863    1.6636   -3.5776 H   0  0  0  0  0  0  0  0  0  0  0  0
    2.7260    3.0539   -4.8155 H   0  0  0  0  0  0  0  0  0  0  0  0
   -0.8959    5.2913    8.3725 H   0  0  0  0  0  0  0  0  0  0  0  0
   -2.4773    4.9751    9.1837 H   0  0  0  0  0  0  0  0  0  0  0  0
   -1.1934    3.6555    9.0901 H   0  0  0  0  0  0  0  0  0  0  0  0
    0.7648    4.8309    4.1234 H   0  0  0  0  0  0  0  0  0  0  0  0
    0.2439    6.2017    3.9108 H   0  0  0  0  0  0  0  0  0  0  0  0
    1.6318    5.8083    4.9696 H   0  0  0  0  0  0  0  0  0  0  0  0
    2.3612    4.2273   -3.2208 H   0  0  0  0  0  0  0  0  0  0  0  0
    3.8835    3.7447   -2.7845 H   0  0  0  0  0  0  0  0  0  0  0  0
    0.4435    4.4625   -2.1219 H   0  0  0  0  0  0  0  0  0  0  0  0
   -0.4040    3.1048   -1.4273 H   0  0  0  0  0  0  0  0  0  0  0  0
    3.0290    3.4045   -1.1627 H   0  0  0  0  0  0  0  0  0  0  0  0
    2.1974    1.9869   -1.2253 H   0  0  0  0  0  0  0  0  0  0  0  0
  1 68  1  6  0  0  0
  2 45  1  1  0  0  0
  2  1  1  0  0  0  0
  3 11  1  0  0  0  0
  3  2  1  0  0  0  0
  3 67  1  1  0  0  0
  4  1  1  0  0  0  0
  5 23  1  0  0  0  0
  5 12  1  1  0  0  0
  5 32  1  0  0  0  0
  6  1  1  0  0  0  0
  6 69  1  0  0  0  0
  7  6  2  0  0  0  0
  8  3  1  0  0  0  0
  8 36  1  0  0  0  0
  9  2  1  0  0  0  0
 10 20  1  0  0  0  0
 10 25  1  0  0  0  0
 10 70  1  1  0  0  0
 10 31  1  0  0  0  0
 11  7  1  0  0  0  0
 11 71  1  1  0  0  0
 11 48  1  0  0  0  0
 13 31  1  0  0  0  0
 13 65  1  6  0  0  0
 14 66  1  1  0  0  0
 14 33  1  0  0  0  0
 15  4  1  0  0  0  0
 16 14  1  0  0  0  0
 17 13  1  0  0  0  0
 18 14  1  0  0  0  0
 18 72  1  0  0  0  0
 18 73  1  0  0  0  0
 19 13  1  0  0  0  0
 19 74  1  0  0  0  0
 19 75  1  0  0  0  0
 20 18  1  0  0  0  0
 20 76  1  1  0  0  0
 20 50  1  0  0  0  0
 21 27  1  0  0  0  0
 21 49  1  0  0  0  0
 21 29  1  0  0  0  0
 21 77  1  6  0  0  0
 22 43  1  0  0  0  0
 22 30  1  0  0  0  0
 22 78  1  6  0  0  0
 22 33  1  0  0  0  0
 23 28  1  0  0  0  0
 23 79  1  0  0  0  0
 23 80  1  0  0  0  0
 24 42  1  0  0  0  0
 24  5  1  0  0  0  0
 25 16  1  0  0  0  0
 25 54  1  0  0  0  0
 25 81  1  6  0  0  0
 26 12  1  0  0  0  0
 26 46  1  0  0  0  0
 26 40  1  0  0  0  0
 26 82  1  6  0  0  0
 27 19  1  0  0  0  0
 27 83  1  1  0  0  0
 27 51  1  0  0  0  0
 28 15  1  0  0  0  0
 28 84  1  1  0  0  0
 29 17  1  0  0  0  0
 29 85  1  1  0  0  0
 29 55  1  0  0  0  0
 30 35  2  0  0  0  0
 32 86  1  0  0  0  0
 34 32  2  0  0  0  0
 34 87  1  0  0  0  0
 35 47  1  0  0  0  0
 35 88  1  0  0  0  0
 36  9  1  0  0  0  0
 36 89  1  0  0  0  0
 36 90  1  0  0  0  0
 37  9  2  0  0  0  0
 37 91  1  0  0  0  0
 38  4  2  0  0  0  0
 39 37  1  0  0  0  0
 39 92  1  0  0  0  0
 40 34  1  0  0  0  0
 40 93  1  6  0  0  0
 40 56  1  0  0  0  0
 41 28  1  0  0  0  0
 41 94  1  0  0  0  0
 41 95  1  0  0  0  0
 42 41  1  0  0  0  0
 42 47  1  0  0  0  0
 42 96  1  1  0  0  0
 43 44  1  0  0  0  0
 43 57  1  0  0  0  0
 43 97  1  6  0  0  0
 44 39  2  0  0  0  0
 44 98  1  0  0  0  0
 45 99  1  0  0  0  0
 46100  1  0  0  0  0
 47101  1  0  0  0  0
 47102  1  0  0  0  0
 48103  1  0  0  0  0
 49104  1  0  0  0  0
 52  7  1  0  0  0  0
 52105  1  0  0  0  0
 52106  1  0  0  0  0
 52107  1  0  0  0  0
 53 30  1  0  0  0  0
 53108  1  0  0  0  0
 53109  1  0  0  0  0
 53110  1  0  0  0  0
 54111  1  0  0  0  0
 54112  1  0  0  0  0
 54113  1  0  0  0  0
 55114  1  0  0  0  0
 55115  1  0  0  0  0
 55116  1  0  0  0  0
 56117  1  0  0  0  0
 56118  1  0  0  0  0
 56119  1  0  0  0  0
 57120  1  0  0  0  0
 57121  1  0  0  0  0
 57122  1  0  0  0  0
 58 46  1  0  0  0  0
 58123  1  0  0  0  0
 58124  1  0  0  0  0
 59 46  1  0  0  0  0
 59125  1  0  0  0  0
 59126  1  0  0  0  0
 60 50  1  0  0  0  0
 60127  1  0  0  0  0
 60128  1  0  0  0  0
 60129  1  0  0  0  0
 61 51  1  0  0  0  0
 61130  1  0  0  0  0
 61131  1  0  0  0  0
 61132  1  0  0  0  0
 62 59  1  0  0  0  0
 62133  1  0  0  0  0
 62134  1  0  0  0  0
 63 58  1  0  0  0  0
 63135  1  0  0  0  0
 63136  1  0  0  0  0
 64 62  1  0  0  0  0
 64 63  1  0  0  0  0
 64137  1  0  0  0  0
 64138  1  0  0  0  0
M  END
>  <DRUGBANK_ID>
DB11400

>  <COMMON_NAME>
Doramectin

>  <CAS_NUMBER>
117704-25-3

>  <UNII>
KGD7A54H5P

>  <SYNONYMS>
Doramectin; Doramectina; Doramectine; Doramectinum

$$$$
