179
 OpenBabel10282417103D

 44 45  0  0  1  0  0  0  0  0999 V2000
    1.7471   -1.3686    0.0209 O   0  0  0  0  0  0  0  0  0  0  0  0
  -10.2098    0.8364   -0.1008 O   0  0  0  0  0  0  0  0  0  0  0  0
    1.7546    1.3661    0.0216 O   0  0  0  0  0  0  0  0  0  0  0  0
  -10.1948   -1.9094   -0.1658 O   0  0  0  0  0  0  0  0  0  0  0  0
   -4.0186   -1.0298    1.3270 C   0  0  2  0  0  0  0  0  0  0  0  0
   -4.5443    0.4388    1.2554 C   0  0  1  0  0  0  0  0  0  0  0  0
   -3.2074   -1.4178    0.0475 C   0  0  0  0  0  0  0  0  0  0  0  0
   -5.2794    0.8395   -0.0841 C   0  0  0  0  0  0  0  0  0  0  0  0
   -5.1705   -1.9776    1.6965 C   0  0  0  0  0  0  0  0  0  0  0  0
   -5.3018    0.8576    2.5147 C   0  0  0  0  0  0  0  0  0  0  0  0
   -1.8684   -0.6929   -0.0541 C   0  0  0  0  0  0  0  0  0  0  0  0
   -6.6073    0.1713   -0.3947 C   0  0  0  0  0  0  0  0  0  0  0  0
   -0.6655   -1.4065   -0.0046 C   0  0  0  0  0  0  0  0  0  0  0  0
   -7.8061    0.8769   -0.2088 C   0  0  0  0  0  0  0  0  0  0  0  0
   -1.7939    0.7096   -0.1750 C   0  0  0  0  0  0  0  0  0  0  0  0
   -6.6895   -1.1871   -0.7413 C   0  0  0  0  0  0  0  0  0  0  0  0
    0.5475   -0.7126   -0.0004 C   0  0  0  0  0  0  0  0  0  0  0  0
   -9.0126    0.1802   -0.2133 C   0  0  0  0  0  0  0  0  0  0  0  0
   -0.5923    1.4013   -0.0786 C   0  0  0  0  0  0  0  0  0  0  0  0
   -7.8675   -1.9042   -0.5312 C   0  0  0  0  0  0  0  0  0  0  0  0
    0.5766    0.6808   -0.0082 C   0  0  0  0  0  0  0  0  0  0  0  0
   -9.0380   -1.2031   -0.2918 C   0  0  0  0  0  0  0  0  0  0  0  0
    1.5624   -2.3231    0.0057 H   0  0  0  0  0  0  0  0  0  0  0  0
  -10.0286    1.7858   -0.1896 H   0  0  0  0  0  0  0  0  0  0  0  0
    2.4422    0.6751   -0.0053 H   0  0  0  0  0  0  0  0  0  0  0  0
  -10.8987   -1.2312   -0.1942 H   0  0  0  0  0  0  0  0  0  0  0  0
   -3.3141   -1.1178    2.1685 H   0  0  0  0  0  0  0  0  0  0  0  0
   -3.6575    1.0719    1.3395 H   0  0  0  0  0  0  0  0  0  0  0  0
   -3.7554   -1.2177   -0.8764 H   0  0  0  0  0  0  0  0  0  0  0  0
   -3.0389   -2.5029    0.0386 H   0  0  0  0  0  0  0  0  0  0  0  0
   -5.4195    1.9278   -0.0573 H   0  0  0  0  0  0  0  0  0  0  0  0
   -4.6312    0.6805   -0.9530 H   0  0  0  0  0  0  0  0  0  0  0  0
   -5.0478   -3.0011    1.3388 H   0  0  0  0  0  0  0  0  0  0  0  0
   -5.3905   -1.9746    2.7682 H   0  0  0  0  0  0  0  0  0  0  0  0
   -6.1060   -1.6035    1.3204 H   0  0  0  0  0  0  0  0  0  0  0  0
   -4.7252    0.5844    3.4078 H   0  0  0  0  0  0  0  0  0  0  0  0
   -5.4223    1.9456    2.5293 H   0  0  0  0  0  0  0  0  0  0  0  0
   -6.2873    0.3966    2.5826 H   0  0  0  0  0  0  0  0  0  0  0  0
   -0.6856   -2.4915    0.0299 H   0  0  0  0  0  0  0  0  0  0  0  0
   -7.7739    1.9441   -0.0266 H   0  0  0  0  0  0  0  0  0  0  0  0
   -2.6725    1.3234   -0.3217 H   0  0  0  0  0  0  0  0  0  0  0  0
   -5.7961   -1.7714   -0.9571 H   0  0  0  0  0  0  0  0  0  0  0  0
   -0.5820    2.4867   -0.0691 H   0  0  0  0  0  0  0  0  0  0  0  0
   -7.8602   -2.9863   -0.4831 H   0  0  0  0  0  0  0  0  0  0  0  0
  1 17  1  0  0  0  0
  1 23  1  0  0  0  0
  2 18  1  0  0  0  0
  2 24  1  0  0  0  0
  3 21  1  0  0  0  0
  3 25  1  0  0  0  0
  4 22  1  0  0  0  0
  4 26  1  0  0  0  0
  5  6  1  0  0  0  0
  5  7  1  0  0  0  0
  5  9  1  0  0  0  0
  5 27  1  1  0  0  0
  6  8  1  0  0  0  0
  6 10  1  0  0  0  0
  6 28  1  1  0  0  0
  7 11  1  0  0  0  0
  7 29  1  0  0  0  0
  7 30  1  0  0  0  0
  8 12  1  0  0  0  0
  8 31  1  0  0  0  0
  8 32  1  0  0  0  0
  9 33  1  0  0  0  0
  9 34  1  0  0  0  0
  9 35  1  0  0  0  0
 10 36  1  0  0  0  0
 10 37  1  0  0  0  0
 10 38  1  0  0  0  0
 11 13  2  0  0  0  0
 11 15  1  0  0  0  0
 12 14  2  0  0  0  0
 12 16  1  0  0  0  0
 13 17  1  0  0  0  0
 13 39  1  0  0  0  0
 14 18  1  0  0  0  0
 14 40  1  0  0  0  0
 15 19  2  0  0  0  0
 15 41  1  0  0  0  0
 16 20  2  0  0  0  0
 16 42  1  0  0  0  0
 17 21  2  0  0  0  0
 18 22  2  0  0  0  0
 19 21  1  0  0  0  0
 19 43  1  0  0  0  0
 20 22  1  0  0  0  0
 20 44  1  0  0  0  0
M  END
>  <DRUGBANK_ID>
DB00179

>  <SECONDARY_ACCESSION_NUMBERS>
APRD01084; DB05900

>  <COMMON_NAME>
Masoprocol

>  <CAS_NUMBER>
27686-84-6

>  <UNII>
7BO8G1BYQU

>  <SYNONYMS>
erythro-nordihydroguaiaretic acid; Masoprocol; Masoprocolum; meso-1,4-bis(3,4-dihydroxyphenyl)-2,3-dimethylbutane; meso-2,3-bis(3,4-dihydroxyphenylmethyl)butane; meso-4-[4-(3,4-dihydroxyphenyl)-2,3-dimethylbutyl]benzene-1,2-diol; meso-4,4'-(2,3-dimethyl-1,4-butanediyl)bis(pyrocatechol); meso-4,4'-(2,3-dimethyltetramethylene)dipyrocatechol; meso-NDGA; meso-nordihydroguaiaretic acid; meso-β,γ-dimethyl-α,δ-bis(3,4-dihydroxyphenyl)butan; Nordihydroguaiaretic acid

$$$$
