
 OpenBabel10282417113D

 54 57  0  0  0  0  0  0  0  0999 V2000
   -3.7748   -0.4174   -0.2488 C   0  0  1  0  0  0  0  0  0  0  0  0
   -3.8986    1.0735   -0.3524 C   0  0  2  0  0  0  0  0  0  0  0  0
   -2.1515   -1.1473   -0.7751 C   0  0  2  0  0  0  0  0  0  0  0  0
   -5.0073   -1.3865   -0.1735 C   0  0  1  0  0  0  0  0  0  0  0  0
   -2.4155    1.5850   -0.5009 C   0  0  0  0  0  0  0  0  0  0  0  0
   -5.4251    1.0943   -0.8691 C   0  0  0  0  0  0  0  0  0  0  0  0
   -4.2480    1.6990    0.9598 O   0  0  0  0  0  0  0  0  0  0  0  0
   -0.9807   -0.5175   -0.0896 C   0  0  1  0  0  0  0  0  0  0  0  0
   -1.7675   -1.7504   -2.0430 O   0  0  0  0  0  0  0  0  0  0  0  0
   -6.1393   -0.7689    0.5588 C   0  0  0  0  0  0  0  0  0  0  0  0
   -4.1587   -2.5468   -0.0707 N   0  0  0  0  0  0  0  0  0  0  0  0
   -1.2145    0.9351   -0.2478 C   0  0  0  0  0  0  0  0  0  0  0  0
   -2.3798    2.9289   -0.7995 O   0  0  0  0  0  0  0  0  0  0  0  0
   -6.4512    0.4891    0.1723 C   0  0  0  0  0  0  0  0  0  0  0  0
   -5.7588    1.2833   -2.0266 O   0  0  0  0  0  0  0  0  0  0  0  0
    0.2809   -1.0855   -0.7134 C   0  0  0  0  0  0  0  0  0  0  0  0
   -6.9039   -1.5910    1.3543 O   0  0  0  0  0  0  0  0  0  0  0  0
   -3.0099   -2.1763    1.2422 C   0  0  0  0  0  0  0  0  0  0  0  0
   -3.9972   -2.3394   -1.8486 C   0  0  0  0  0  0  0  0  0  0  0  0
    0.0955    1.6249    0.1470 C   0  0  0  0  0  0  0  0  0  0  0  0
   -7.6282    1.1727    0.8016 C   0  0  0  0  0  0  0  0  0  0  0  0
    1.4361   -0.5475   -0.0647 C   0  0  0  0  0  0  0  0  0  0  0  0
    1.4096    0.8455    0.0849 C   0  0  0  0  0  0  0  0  0  0  0  0
    0.0396    2.7094    0.6854 O   0  0  0  0  0  0  0  0  0  0  0  0
   -8.3754    1.9714   -0.0326 N   0  0  0  0  0  0  0  0  0  0  0  0
   -7.9421    1.0473    1.9467 O   0  0  0  0  0  0  0  0  0  0  0  0
    2.5717   -1.3574    0.0318 C   0  0  0  0  0  0  0  0  0  0  0  0
    2.6431    1.4469    0.1563 C   0  0  0  0  0  0  0  0  0  0  0  0
    3.7848   -0.7241    0.1525 C   0  0  0  0  0  0  0  0  0  0  0  0
    3.8181    0.6750    0.1798 C   0  0  0  0  0  0  0  0  0  0  0  0
    2.7436    2.8005    0.1532 O   0  0  0  0  0  0  0  0  0  0  0  0
   -3.8463   -0.3100    0.8431 H   0  0  0  0  0  0  0  0  0  0  0  0
   -0.8599   -0.7217    0.9913 H   0  0  0  0  0  0  0  0  0  0  0  0
    0.5361   -1.0490   -2.0422 C   0  0  0  0  0  0  0  0  0  0  0  0
   -2.1442   -2.1642   -0.4366 H   0  0  0  0  0  0  0  0  0  0  0  0
   -5.7020   -1.8228   -0.9181 H   0  0  0  0  0  0  0  0  0  0  0  0
   -4.8210    2.4722    0.7790 H   0  0  0  0  0  0  0  0  0  0  0  0
   -1.2290   -2.5625   -1.7713 H   0  0  0  0  0  0  0  0  0  0  0  0
   -1.4397    3.1364   -0.9692 H   0  0  0  0  0  0  0  0  0  0  0  0
   -6.5146   -2.4861    1.3103 H   0  0  0  0  0  0  0  0  0  0  0  0
   -2.0222   -2.6780    1.1723 H   0  0  0  0  0  0  0  0  0  0  0  0
   -2.6253   -1.1204    1.3749 H   0  0  0  0  0  0  0  0  0  0  0  0
   -3.3907   -2.2463    2.2543 H   0  0  0  0  0  0  0  0  0  0  0  0
   -3.2757   -2.9227   -2.4154 H   0  0  0  0  0  0  0  0  0  0  0  0
   -4.9318   -2.6280   -2.3510 H   0  0  0  0  0  0  0  0  0  0  0  0
   -3.9419   -1.2444   -2.2176 H   0  0  0  0  0  0  0  0  0  0  0  0
   -9.2375    2.3242    0.3705 H   0  0  0  0  0  0  0  0  0  0  0  0
   -8.2401    2.0335   -1.0250 H   0  0  0  0  0  0  0  0  0  0  0  0
    2.4981   -2.4387   -0.0874 H   0  0  0  0  0  0  0  0  0  0  0  0
    4.6957   -1.3135    0.1638 H   0  0  0  0  0  0  0  0  0  0  0  0
    4.7799    1.1707    0.2141 H   0  0  0  0  0  0  0  0  0  0  0  0
    3.4555    3.0210    0.7718 H   0  0  0  0  0  0  0  0  0  0  0  0
   -0.1606   -0.3918   -2.5749 H   0  0  0  0  0  0  0  0  0  0  0  0
    0.5111   -2.0101   -2.5725 H   0  0  0  0  0  0  0  0  0  0  0  0
  1  2  1  0  0  0  0
  1  3  1  0  0  0  0
  1  4  1  0  0  0  0
  1 32  1  6  0  0  0
  2  5  1  0  0  0  0
  2  6  1  0  0  0  0
  2  7  1  6  0  0  0
  3  8  1  0  0  0  0
  3 35  1  1  0  0  0
  3  9  1  0  0  0  0
  4 10  1  0  0  0  0
  4 36  1  1  0  0  0
  4 11  1  0  0  0  0
  5 12  2  0  0  0  0
  5 13  1  0  0  0  0
  6 14  1  0  0  0  0
  6 15  2  0  0  0  0
  7 37  1  0  0  0  0
  8 16  1  0  0  0  0
  8 12  1  0  0  0  0
  8 33  1  6  0  0  0
  9 38  1  0  0  0  0
 10 14  2  0  0  0  0
 10 17  1  0  0  0  0
 11 18  1  0  0  0  0
 11 19  1  0  0  0  0
 12 20  1  0  0  0  0
 13 39  1  0  0  0  0
 14 21  1  0  0  0  0
 16 22  1  0  0  0  0
 16 34  2  0  0  0  0
 17 40  1  0  0  0  0
 18 41  1  0  0  0  0
 18 42  1  0  0  0  0
 18 43  1  0  0  0  0
 19 44  1  0  0  0  0
 19 45  1  0  0  0  0
 19 46  1  0  0  0  0
 20 23  1  0  0  0  0
 20 24  2  0  0  0  0
 21 25  1  0  0  0  0
 21 26  2  0  0  0  0
 22 27  1  0  0  0  0
 22 23  2  0  0  0  0
 23 28  1  0  0  0  0
 25 47  1  0  0  0  0
 25 48  1  0  0  0  0
 27 29  2  0  0  0  0
 27 49  1  0  0  0  0
 28 30  2  0  0  0  0
 28 31  1  0  0  0  0
 29 30  1  0  0  0  0
 29 50  1  0  0  0  0
 30 51  1  0  0  0  0
 31 52  1  0  0  0  0
 34 53  1  0  0  0  0
 34 54  1  0  0  0  0
M  END
>  <DRUGBANK_ID>
DB00931

>  <SECONDARY_ACCESSION_NUMBERS>
APRD00137

>  <COMMON_NAME>
Metacycline

>  <CAS_NUMBER>
914-00-1

>  <UNII>
IR235I7C5P

>  <SYNONYMS>
6-Demethyl-6-deoxy-5-hydroxy-6-methylenetetracycline; 6-Deoxy-6-demethyl-6-methylene-5-oxytetracycline; 6-Methylene-5-hydroxytetracycline; 6-Methylene-5-oxytetracycline; 6-Methyleneoxytetracycline; Metaciclina; Metacycline; Methacycline; Methacyclinum; Methylenecycline; Tri-methacycline

$$$$
