
 OpenBabel10282417163D

 41 41  0  0  0  0  0  0  0  0999 V2000
    1.5017    0.2603   -0.0127 C   0  0  0  0  0  0  0  0  0  0  0  0
    0.4666   -0.5740   -0.0648 C   0  0  0  0  0  0  0  0  0  0  0  0
    1.0529    1.5709   -0.0453 C   0  0  0  0  0  0  0  0  0  0  0  0
    2.7768   -0.2014    0.1478 O   0  0  0  0  0  0  0  0  0  0  0  0
   -0.7829   -0.1781    0.4111 C   0  0  0  0  0  0  0  0  0  0  0  0
   -0.3747    1.8984   -0.1189 C   0  0  0  0  0  0  0  0  0  0  0  0
    3.1140   -1.6403    0.2893 C   0  0  0  0  0  0  0  0  0  0  0  0
   -1.3365    0.9224   -0.0871 C   0  0  0  0  0  0  0  0  0  0  0  0
    2.5997   -2.5079    1.5045 C   0  0  1  0  0  0  0  0  0  0  0  0
   -2.8395    0.8566   -0.1989 C   0  0  0  0  0  0  0  0  0  0  0  0
    1.0875   -2.9002    1.4986 C   0  0  0  0  0  0  0  0  0  0  0  0
    3.3065   -3.7672    1.5142 O   0  0  0  0  0  0  0  0  0  0  0  0
   -3.4927    1.4076    1.0253 C   0  0  0  0  0  0  0  0  0  0  0  0
    0.7222   -3.7404    0.2822 N   0  0  0  0  0  0  0  0  0  0  0  0
   -4.0901    2.6019    0.8259 N   0  0  0  0  0  0  0  0  0  0  0  0
   -3.4536    0.8642    2.1423 O   0  0  0  0  0  0  0  0  0  0  0  0
   -0.7277   -3.8863   -0.0660 C   0  0  0  0  0  0  0  0  0  0  0  0
   -1.4335   -2.6073   -0.3284 C   0  0  0  0  0  0  0  0  0  0  0  0
   -1.0475   -4.5299   -1.3948 C   0  0  0  0  0  0  0  0  0  0  0  0
    0.7101   -1.5702   -0.3394 H   0  0  0  0  0  0  0  0  0  0  0  0
    1.7746    2.3710   -0.0242 H   0  0  0  0  0  0  0  0  0  0  0  0
   -1.5128   -0.7390    0.9782 H   0  0  0  0  0  0  0  0  0  0  0  0
   -0.7091    2.9211   -0.0327 H   0  0  0  0  0  0  0  0  0  0  0  0
    2.9454   -2.1779   -0.6548 H   0  0  0  0  0  0  0  0  0  0  0  0
    4.2145   -1.6626    0.3762 H   0  0  0  0  0  0  0  0  0  0  0  0
    2.8532   -1.9863    2.4373 H   0  0  0  0  0  0  0  0  0  0  0  0
   -3.1924    1.3140   -1.1282 H   0  0  0  0  0  0  0  0  0  0  0  0
   -3.2296   -0.1844   -0.2900 H   0  0  0  0  0  0  0  0  0  0  0  0
    0.8140   -3.4565    2.3993 H   0  0  0  0  0  0  0  0  0  0  0  0
    0.5682   -1.9589    1.6609 H   0  0  0  0  0  0  0  0  0  0  0  0
    2.7891   -4.3552    0.9248 H   0  0  0  0  0  0  0  0  0  0  0  0
    1.2128   -3.3987   -0.5444 H   0  0  0  0  0  0  0  0  0  0  0  0
   -4.4195    3.1062    1.6344 H   0  0  0  0  0  0  0  0  0  0  0  0
   -4.0974    3.0366   -0.0874 H   0  0  0  0  0  0  0  0  0  0  0  0
   -1.2387   -4.3448    0.7848 H   0  0  0  0  0  0  0  0  0  0  0  0
   -0.9946   -2.0577   -1.1822 H   0  0  0  0  0  0  0  0  0  0  0  0
   -2.5101   -2.5550   -0.4904 H   0  0  0  0  0  0  0  0  0  0  0  0
   -1.2917   -2.2721    0.6710 H   0  0  0  0  0  0  0  0  0  0  0  0
   -0.7310   -5.5593   -1.4270 H   0  0  0  0  0  0  0  0  0  0  0  0
   -2.1398   -4.4730   -1.5504 H   0  0  0  0  0  0  0  0  0  0  0  0
   -0.6067   -3.9544   -2.2244 H   0  0  0  0  0  0  0  0  0  0  0  0
  1  2  1  0  0  0  0
  1  3  2  0  0  0  0
  1  4  1  0  0  0  0
  2  5  2  0  0  0  0
  2 20  1  0  0  0  0
  3  6  1  0  0  0  0
  3 21  1  0  0  0  0
  4  7  1  0  0  0  0
  5  8  1  0  0  0  0
  5 22  1  0  0  0  0
  6  8  2  0  0  0  0
  6 23  1  0  0  0  0
  7  9  1  0  0  0  0
  7 24  1  0  0  0  0
  7 25  1  0  0  0  0
  8 10  1  0  0  0  0
  9 11  1  0  0  0  0
  9 12  1  0  0  0  0
  9 26  1  1  0  0  0
 10 13  1  0  0  0  0
 10 27  1  0  0  0  0
 10 28  1  0  0  0  0
 11 14  1  0  0  0  0
 11 29  1  0  0  0  0
 11 30  1  0  0  0  0
 12 31  1  0  0  0  0
 13 15  1  0  0  0  0
 13 16  2  0  0  0  0
 14 17  1  0  0  0  0
 14 32  1  0  0  0  0
 15 33  1  0  0  0  0
 15 34  1  0  0  0  0
 17 18  1  0  0  0  0
 17 19  1  0  0  0  0
 17 35  1  0  0  0  0
 18 36  1  0  0  0  0
 18 37  1  0  0  0  0
 18 38  1  0  0  0  0
 19 39  1  0  0  0  0
 19 40  1  0  0  0  0
 19 41  1  0  0  0  0
M  END
>  <DRUGBANK_ID>
DB06987

>  <COMMON_NAME>
(R)-Atenolol

>  <CAS_NUMBER>
56715-13-0

>  <UNII>
YG132I00WY

>  <SYNONYMS>
(+)-Atenolol; (R)-(+)-Atenolol

$$$$
