
 OpenBabel10282417123D

 15 14  0  0  1  0  0  0  0  0999 V2000
    0.9231    0.0538   -0.0819 N   0  0  0  0  0  0  0  0  0  0  0  0
    0.4097   -1.1157   -0.8227 C   0  0  1  0  0  0  0  0  0  0  0  0
    0.9450   -2.4489   -0.2679 C   0  0  0  0  0  0  0  0  0  0  0  0
    0.5339   -2.9287    1.4715 S   0  0  0  0  0  0  0  0  0  0  0  0
    1.2602   -1.4202    2.6696 S   0  0  0  0  0  0  0  0  0  0  0  0
   -1.1294   -1.1062   -0.8256 C   0  0  0  0  0  0  0  0  0  0  0  0
   -1.7004   -0.9403   -2.0411 O   0  0  0  0  0  0  0  0  0  0  0  0
   -1.8202   -1.2316    0.1811 O   0  0  0  0  0  0  0  0  0  0  0  0
    0.5844   -0.0620    0.8847 H   0  0  0  0  0  0  0  0  0  0  0  0
    1.9362   -0.0341    0.0244 H   0  0  0  0  0  0  0  0  0  0  0  0
    0.7641   -1.0063   -1.8560 H   0  0  0  0  0  0  0  0  0  0  0  0
    0.5818   -3.2633   -0.9074 H   0  0  0  0  0  0  0  0  0  0  0  0
    2.0392   -2.4699   -0.3442 H   0  0  0  0  0  0  0  0  0  0  0  0
    0.4911   -1.5683    3.7639 H   0  0  0  0  0  0  0  0  0  0  0  0
   -1.0900   -0.7410   -2.7741 H   0  0  0  0  0  0  0  0  0  0  0  0
  1  9  1  0  0  0  0
  1 10  1  0  0  0  0
  2  1  1  0  0  0  0
  2  3  1  0  0  0  0
  2  6  1  0  0  0  0
  2 11  1  6  0  0  0
  3  4  1  0  0  0  0
  3 12  1  0  0  0  0
  3 13  1  0  0  0  0
  4  5  1  0  0  0  0
  5 14  1  0  0  0  0
  6  7  1  0  0  0  0
  6  8  2  0  0  0  0
  7 15  1  0  0  0  0
M  END
>  <DRUGBANK_ID>
DB02761

>  <SECONDARY_ACCESSION_NUMBERS>
EXPT01038

>  <COMMON_NAME>
S-Mercaptocysteine

>  <CAS_NUMBER>
5652-32-4

>  <UNII>
3RZ74WA9J2

$$$$
