
 OpenBabel10282417133D

 11 10  0  0  0  0  0  0  0  0999 V2000
    0.9664    0.0561   -0.0346 O   0  0  0  0  0  0  0  0  0  0  0  0
    0.5342    0.6957   -1.2237 C   0  0  0  0  0  0  0  0  0  0  0  0
    1.0350    2.1169   -1.2812 C   0  0  0  0  0  0  0  0  0  0  0  0
    1.7348    2.5166   -2.2068 O   0  0  0  0  0  0  0  0  0  0  0  0
    0.6465    3.0633   -0.1229 C   0  0  0  0  0  0  0  0  0  0  0  0
   -0.1473    2.5609    0.8336 O   0  0  0  0  0  0  0  0  0  0  0  0
    1.0373    4.2212   -0.1086 O   0  0  0  0  0  0  0  0  0  0  0  0
    1.9348   -0.0690   -0.1181 H   0  0  0  0  0  0  0  0  0  0  0  0
    0.8997    0.1377   -2.0927 H   0  0  0  0  0  0  0  0  0  0  0  0
   -0.5590    0.6894   -1.2566 H   0  0  0  0  0  0  0  0  0  0  0  0
   -0.2998    1.5931    0.8296 H   0  0  0  0  0  0  0  0  0  0  0  0
  1  2  1  0  0  0  0
  1  8  1  0  0  0  0
  2  3  1  0  0  0  0
  2  9  1  0  0  0  0
  2 10  1  0  0  0  0
  3  4  2  0  0  0  0
  3  5  1  0  0  0  0
  5  6  1  0  0  0  0
  5  7  2  0  0  0  0
  6 11  1  0  0  0  0
M  END
>  <DRUGBANK_ID>
DB02951

>  <SECONDARY_ACCESSION_NUMBERS>
EXPT00190

>  <COMMON_NAME>
3-Hydroxypyruvic Acid

>  <CAS_NUMBER>
1113-60-6

>  <UNII>
934B2KHY0S

$$$$
