
 OpenBabel10282417183D

 44 49  0  0  1  0  0  0  0  0999 V2000
   -1.9647    4.0515   -2.6548 C   0  0  0  0  0  0  0  0  0  0  0  0
   -3.9810    3.6049    0.9165 C   0  0  0  0  0  0  0  0  0  0  0  0
   -5.1430    4.3271    0.8541 C   0  0  0  0  0  0  0  0  0  0  0  0
   -0.5762    6.1533    0.0055 C   0  0  0  0  0  0  0  0  0  0  0  0
   -1.5506    5.6433   -1.0232 C   0  0  0  0  0  0  0  0  0  0  0  0
   -0.4534    5.7845    2.4692 C   0  0  0  0  0  0  0  0  0  0  0  0
   -0.8301    3.0029    2.1345 C   0  0  0  0  0  0  0  0  0  0  0  0
   -0.5855    4.0306    5.5004 C   0  0  0  0  0  0  0  0  0  0  0  0
   -7.3749    4.5512   -1.8581 C   0  0  0  0  0  0  0  0  0  0  0  0
   -0.6104    5.2311    1.1875 C   0  0  0  0  0  0  0  0  0  0  0  0
   -3.6809    2.8380   -0.1969 C   0  0  0  0  0  0  0  0  0  0  0  0
   -0.8173    3.8320    0.9907 C   0  0  0  0  0  0  0  0  0  0  0  0
   -5.8585    4.2092   -0.3193 C   0  0  0  0  0  0  0  0  0  0  0  0
   -0.5096    4.9362    3.5452 C   0  0  0  0  0  0  0  0  0  0  0  0
   -0.6965    3.5865    3.3840 C   0  0  0  0  0  0  0  0  0  0  0  0
   -4.4551    2.6316   -1.3454 C   0  0  0  0  0  0  0  0  0  0  0  0
   -1.1178    3.2585   -0.4382 C   0  0  1  0  0  0  0  0  0  0  0  0
   -2.3442    2.1988   -0.4117 C   0  0  2  0  0  0  0  0  0  0  0  0
   -5.5763    3.4429   -1.4285 C   0  0  0  0  0  0  0  0  0  0  0  0
   -3.7612    1.8379   -2.3167 C   0  0  0  0  0  0  0  0  0  0  0  0
   -1.1107    4.3335   -1.5149 N   0  0  0  0  0  0  0  0  0  0  0  0
   -3.9650    1.6028   -3.4927 O   0  0  0  0  0  0  0  0  0  0  0  0
   -6.9984    4.9526   -0.5190 O   0  0  0  0  0  0  0  0  0  0  0  0
   -0.4058    5.3032    4.8488 O   0  0  0  0  0  0  0  0  0  0  0  0
   -0.7643    2.9338    4.5769 O   0  0  0  0  0  0  0  0  0  0  0  0
   -6.4202    3.6546   -2.4800 O   0  0  0  0  0  0  0  0  0  0  0  0
   -2.5544    1.4979   -1.6859 O   0  0  0  0  0  0  0  0  0  0  0  0
   -0.2180    2.6647   -0.6708 H   0  0  0  0  0  0  0  0  0  0  0  0
   -2.1638    1.4039    0.3183 H   0  0  0  0  0  0  0  0  0  0  0  0
   -1.7000    3.1075   -3.1293 H   0  0  0  0  0  0  0  0  0  0  0  0
   -2.9853    4.0917   -2.3011 H   0  0  0  0  0  0  0  0  0  0  0  0
   -1.9891    4.8084   -3.4410 H   0  0  0  0  0  0  0  0  0  0  0  0
   -3.3172    3.7058    1.7629 H   0  0  0  0  0  0  0  0  0  0  0  0
   -5.4468    4.9926    1.6508 H   0  0  0  0  0  0  0  0  0  0  0  0
    0.4398    6.1908   -0.4036 H   0  0  0  0  0  0  0  0  0  0  0  0
   -0.8729    7.1701    0.2846 H   0  0  0  0  0  0  0  0  0  0  0  0
   -1.5784    6.3595   -1.8533 H   0  0  0  0  0  0  0  0  0  0  0  0
   -2.5669    5.5969   -0.6107 H   0  0  0  0  0  0  0  0  0  0  0  0
   -0.3210    6.8519    2.6138 H   0  0  0  0  0  0  0  0  0  0  0  0
   -1.0005    1.9336    2.0799 H   0  0  0  0  0  0  0  0  0  0  0  0
    0.2918    3.8248    6.1241 H   0  0  0  0  0  0  0  0  0  0  0  0
   -1.4692    4.0968    6.1460 H   0  0  0  0  0  0  0  0  0  0  0  0
   -8.3427    4.0388   -1.8104 H   0  0  0  0  0  0  0  0  0  0  0  0
   -7.4924    5.4567   -2.4662 H   0  0  0  0  0  0  0  0  0  0  0  0
  1 30  1  0  0  0  0
  1 31  1  0  0  0  0
  1 32  1  0  0  0  0
  2 33  1  0  0  0  0
  3  2  2  0  0  0  0
  3 34  1  0  0  0  0
  4 35  1  0  0  0  0
  4 36  1  0  0  0  0
  5  4  1  0  0  0  0
  5 37  1  0  0  0  0
  5 38  1  0  0  0  0
  6 39  1  0  0  0  0
  7 40  1  0  0  0  0
  8 41  1  0  0  0  0
  8 42  1  0  0  0  0
  9 43  1  0  0  0  0
  9 44  1  0  0  0  0
 10  4  1  0  0  0  0
 10  6  2  0  0  0  0
 11  2  1  0  0  0  0
 12  7  2  0  0  0  0
 12 10  1  0  0  0  0
 13  3  1  0  0  0  0
 14  6  1  0  0  0  0
 15  7  1  0  0  0  0
 15 14  2  0  0  0  0
 16 11  2  0  0  0  0
 17 12  1  0  0  0  0
 17 28  1  6  0  0  0
 18 11  1  0  0  0  0
 18 29  1  1  0  0  0
 18 17  1  0  0  0  0
 19 13  2  0  0  0  0
 19 16  1  0  0  0  0
 20 16  1  0  0  0  0
 21  1  1  0  0  0  0
 21  5  1  0  0  0  0
 21 17  1  0  0  0  0
 22 20  2  0  0  0  0
 23  9  1  0  0  0  0
 23 13  1  0  0  0  0
 24  8  1  0  0  0  0
 24 14  1  0  0  0  0
 25  8  1  0  0  0  0
 25 15  1  0  0  0  0
 26  9  1  0  0  0  0
 26 19  1  0  0  0  0
 27 18  1  0  0  0  0
 27 20  1  0  0  0  0
M  END
>  <DRUGBANK_ID>
DB11562

>  <COMMON_NAME>
Bicuculline

>  <CAS_NUMBER>
485-49-4

>  <UNII>
Y37615DVKC

>  <SYNONYMS>
Bicculine; Bicucullin; d-Bicuculline

$$$$
