1113
 OpenBabel10282417113D

 46 48  0  0  0  0  0  0  0  0999 V2000
    0.8737    0.1843    0.1297 O   0  0  0  0  0  0  0  0  0  0  0  0
    1.8012   -2.5755   -0.9189 O   0  0  0  0  0  0  0  0  0  0  0  0
   -3.8929    3.2813   -7.5165 O   0  0  0  0  0  0  0  0  0  0  0  0
   -2.0404    5.5082   -7.1938 O   0  0  0  0  0  0  0  0  0  0  0  0
   -2.9460   -0.2309   -4.5146 N   0  0  0  0  0  0  0  0  0  0  0  0
   -1.2955   -0.3419   -2.7361 C   0  0  0  0  0  0  0  0  0  0  0  0
   -2.8108    1.7086   -3.0272 C   0  0  0  0  0  0  0  0  0  0  0  0
   -2.3277    0.3151   -3.4289 C   0  0  0  0  0  0  0  0  0  0  0  0
   -0.8542   -1.5951   -3.2364 C   0  0  0  0  0  0  0  0  0  0  0  0
   -2.5958    2.7514   -4.0994 C   0  0  0  0  0  0  0  0  0  0  0  0
   -0.6656    0.1577   -1.5889 C   0  0  0  0  0  0  0  0  0  0  0  0
    0.1896   -2.2629   -2.5552 C   0  0  0  0  0  0  0  0  0  0  0  0
    0.3860   -0.5037   -0.9447 C   0  0  0  0  0  0  0  0  0  0  0  0
   -1.4662   -2.1111   -4.3857 C   0  0  0  0  0  0  0  0  0  0  0  0
    0.8219   -1.7502   -1.4042 C   0  0  0  0  0  0  0  0  0  0  0  0
   -3.3206    2.6013   -5.2839 C   0  0  0  0  0  0  0  0  0  0  0  0
   -1.7415    3.8455   -3.9684 C   0  0  0  0  0  0  0  0  0  0  0  0
   -2.4906   -1.4088   -4.9849 C   0  0  0  0  0  0  0  0  0  0  0  0
   -3.1882    3.4690   -6.3599 C   0  0  0  0  0  0  0  0  0  0  0  0
   -2.3214    4.5643   -6.2345 C   0  0  0  0  0  0  0  0  0  0  0  0
   -1.6367    4.7647   -5.0205 C   0  0  0  0  0  0  0  0  0  0  0  0
    2.2205    0.5846   -0.0795 C   0  0  0  0  0  0  0  0  0  0  0  0
    2.4989   -2.3388    0.3015 C   0  0  0  0  0  0  0  0  0  0  0  0
   -4.7539    2.1539   -7.5987 C   0  0  0  0  0  0  0  0  0  0  0  0
   -2.5593    5.2659   -8.4981 C   0  0  0  0  0  0  0  0  0  0  0  0
   -3.8860    1.6458   -2.8134 H   0  0  0  0  0  0  0  0  0  0  0  0
   -2.3710    2.0744   -2.0997 H   0  0  0  0  0  0  0  0  0  0  0  0
   -0.9690    1.1117   -1.1605 H   0  0  0  0  0  0  0  0  0  0  0  0
    0.5312   -3.2283   -2.9372 H   0  0  0  0  0  0  0  0  0  0  0  0
   -1.1554   -3.0598   -4.8222 H   0  0  0  0  0  0  0  0  0  0  0  0
   -3.9861    1.7478   -5.3450 H   0  0  0  0  0  0  0  0  0  0  0  0
   -1.1571    3.9976   -3.0638 H   0  0  0  0  0  0  0  0  0  0  0  0
   -2.9856   -1.7666   -5.8837 H   0  0  0  0  0  0  0  0  0  0  0  0
   -1.0093    5.6460   -4.8987 H   0  0  0  0  0  0  0  0  0  0  0  0
    2.6667    0.7273    0.9084 H   0  0  0  0  0  0  0  0  0  0  0  0
    2.7848   -0.1611   -0.6263 H   0  0  0  0  0  0  0  0  0  0  0  0
    2.3088    1.4900   -0.6807 H   0  0  0  0  0  0  0  0  0  0  0  0
    3.3970   -1.7337    0.1355 H   0  0  0  0  0  0  0  0  0  0  0  0
    1.8680   -1.9232    1.0911 H   0  0  0  0  0  0  0  0  0  0  0  0
    2.9133   -3.2858    0.6581 H   0  0  0  0  0  0  0  0  0  0  0  0
   -4.1856    1.2192   -7.5365 H   0  0  0  0  0  0  0  0  0  0  0  0
   -5.5362    2.2001   -6.8334 H   0  0  0  0  0  0  0  0  0  0  0  0
   -5.2440    2.1846   -8.5742 H   0  0  0  0  0  0  0  0  0  0  0  0
   -2.2272    4.2961   -8.8894 H   0  0  0  0  0  0  0  0  0  0  0  0
   -3.6506    5.3610   -8.5019 H   0  0  0  0  0  0  0  0  0  0  0  0
   -2.1744    6.0306   -9.1762 H   0  0  0  0  0  0  0  0  0  0  0  0
  1 13  1  0  0  0  0
  1 22  1  0  0  0  0
  2 15  1  0  0  0  0
  2 23  1  0  0  0  0
  3 19  1  0  0  0  0
  3 24  1  0  0  0  0
  4 20  1  0  0  0  0
  4 25  1  0  0  0  0
  5  8  2  0  0  0  0
  5 18  1  0  0  0  0
  6  8  1  0  0  0  0
  6  9  1  0  0  0  0
  6 11  2  0  0  0  0
  7  8  1  0  0  0  0
  7 10  1  0  0  0  0
  7 26  1  0  0  0  0
  7 27  1  0  0  0  0
  9 12  2  0  0  0  0
  9 14  1  0  0  0  0
 10 16  2  0  0  0  0
 10 17  1  0  0  0  0
 11 13  1  0  0  0  0
 11 28  1  0  0  0  0
 12 15  1  0  0  0  0
 12 29  1  0  0  0  0
 13 15  2  0  0  0  0
 14 18  2  0  0  0  0
 14 30  1  0  0  0  0
 16 19  1  0  0  0  0
 16 31  1  0  0  0  0
 17 21  2  0  0  0  0
 17 32  1  0  0  0  0
 18 33  1  0  0  0  0
 19 20  2  0  0  0  0
 20 21  1  0  0  0  0
 21 34  1  0  0  0  0
 22 35  1  0  0  0  0
 22 36  1  0  0  0  0
 22 37  1  0  0  0  0
 23 38  1  0  0  0  0
 23 39  1  0  0  0  0
 23 40  1  0  0  0  0
 24 41  1  0  0  0  0
 24 42  1  0  0  0  0
 24 43  1  0  0  0  0
 25 44  1  0  0  0  0
 25 45  1  0  0  0  0
 25 46  1  0  0  0  0
M  END
>  <DRUGBANK_ID>
DB01113

>  <SECONDARY_ACCESSION_NUMBERS>
APRD00628; DB07725

>  <COMMON_NAME>
Papaverine

>  <CAS_NUMBER>
58-74-2

>  <UNII>
DAA13NKG2Q

>  <SYNONYMS>
Papaverina; Papaverine

$$$$
