CK2
 OpenBabel10282417123D

 24 25  0  0  0  0  0  0  0  0999 V2000
    2.0379    1.4358    0.0185 C   0  0  0  0  0  0  0  0  0  0  0  0
    0.8012    0.6025    0.0122 C   0  0  0  0  0  0  0  0  0  0  0  0
    0.8747   -1.1161    0.0459 S   0  0  0  0  0  0  0  0  0  0  0  0
   -0.4112    1.1111   -0.0147 N   0  0  0  0  0  0  0  0  0  0  0  0
   -1.3555    0.0973    0.0116 C   0  0  0  0  0  0  0  0  0  0  0  0
   -2.7891    0.4911    0.0177 C   0  0  0  0  0  0  0  0  0  0  0  0
   -0.8406   -1.1910    0.0293 C   0  0  0  0  0  0  0  0  0  0  0  0
   -1.5580   -2.4647   -0.0083 C   0  0  0  0  0  0  0  0  0  0  0  0
   -1.3965   -3.2772    1.0540 N   0  0  0  0  0  0  0  0  0  0  0  0
   -2.4378   -2.7338   -1.0369 C   0  0  0  0  0  0  0  0  0  0  0  0
   -3.1567   -3.8935   -0.9132 C   0  0  0  0  0  0  0  0  0  0  0  0
   -3.0304   -4.7282    0.1294 N   0  0  0  0  0  0  0  0  0  0  0  0
   -2.1481   -4.3843    1.0756 C   0  0  0  0  0  0  0  0  0  0  0  0
   -2.0289   -5.2225    2.1413 N   0  0  0  0  0  0  0  0  0  0  0  0
    2.0572    2.0880   -0.8617 H   0  0  0  0  0  0  0  0  0  0  0  0
    2.0501    2.0758    0.9074 H   0  0  0  0  0  0  0  0  0  0  0  0
    2.9542    0.8385    0.0175 H   0  0  0  0  0  0  0  0  0  0  0  0
   -3.0076    1.0995    0.8996 H   0  0  0  0  0  0  0  0  0  0  0  0
   -3.0221    1.0708   -0.8803 H   0  0  0  0  0  0  0  0  0  0  0  0
   -3.4563   -0.3746    0.0414 H   0  0  0  0  0  0  0  0  0  0  0  0
   -2.5792   -2.0635   -1.8726 H   0  0  0  0  0  0  0  0  0  0  0  0
   -3.8862   -4.1863   -1.6623 H   0  0  0  0  0  0  0  0  0  0  0  0
   -2.6003   -6.0498    2.1550 H   0  0  0  0  0  0  0  0  0  0  0  0
   -1.3818   -4.9785    2.8697 H   0  0  0  0  0  0  0  0  0  0  0  0
  1  2  1  0  0  0  0
  1 15  1  0  0  0  0
  1 16  1  0  0  0  0
  1 17  1  0  0  0  0
  2  3  1  0  0  0  0
  2  4  2  0  0  0  0
  3  7  1  0  0  0  0
  4  5  1  0  0  0  0
  5  6  1  0  0  0  0
  5  7  2  0  0  0  0
  6 18  1  0  0  0  0
  6 19  1  0  0  0  0
  6 20  1  0  0  0  0
  7  8  1  0  0  0  0
  8  9  2  0  0  0  0
  8 10  1  0  0  0  0
  9 13  1  0  0  0  0
 10 11  2  0  0  0  0
 10 21  1  0  0  0  0
 11 12  1  0  0  0  0
 11 22  1  0  0  0  0
 12 13  2  0  0  0  0
 13 14  1  0  0  0  0
 14 23  1  0  0  0  0
 14 24  1  0  0  0  0
M  END
>  <DRUGBANK_ID>
DB02091

>  <SECONDARY_ACCESSION_NUMBERS>
EXPT00925

>  <COMMON_NAME>
4-(2,4-Dimethyl-Thiazol-5-Yl)-Pyrimidin-2-Ylamine

>  <UNII>
NTZ47MG2A4

$$$$
