
 OpenBabel10282417133D

 22 21  0  0  0  0  0  0  0  0999 V2000
    0.9123    0.2620    2.3260 C   0  0  0  0  0  0  0  0  0  0  0  0
    0.4450   -0.5495    1.1223 C   0  0  2  0  0  0  0  0  0  0  0  0
    0.9940   -0.1546   -0.2818 C   0  0  2  0  0  0  0  0  0  0  0  0
    2.3925   -0.7211   -0.4687 C   0  0  0  0  0  0  0  0  0  0  0  0
   -0.9979   -0.5415    1.1447 O   0  0  0  0  0  0  0  0  0  0  0  0
    1.1057    1.2277   -0.6260 O   0  0  0  0  0  0  0  0  0  0  0  0
    2.6607   -1.8868   -0.6570 O   0  0  0  0  0  0  0  0  0  0  0  0
    3.3720    0.2169   -0.4005 O   0  0  0  0  0  0  0  0  0  0  0  0
   -0.5007    2.8532    2.8714 O   0  0  0  0  0  0  0  0  0  0  0  0
    1.4121    3.8556    1.4408 O   0  0  0  0  0  0  0  0  0  0  0  0
   -0.5853    2.4902    0.3604 O   0  0  0  0  0  0  0  0  0  0  0  0
    1.3398    1.5376    1.9453 O   0  0  0  0  0  0  0  0  0  0  0  0
    0.3265    2.6990    1.5271 P   0  0  0  0  0  0  0  0  0  0  0  0
    0.7062   -1.5972    1.3237 H   0  0  0  0  0  0  0  0  0  0  0  0
    0.3311   -0.5659   -1.0461 H   0  0  0  0  0  0  0  0  0  0  0  0
    1.7652   -0.2267    2.8090 H   0  0  0  0  0  0  0  0  0  0  0  0
    0.1351    0.3523    3.0954 H   0  0  0  0  0  0  0  0  0  0  0  0
   -1.3175    0.3513    0.9288 H   0  0  0  0  0  0  0  0  0  0  0  0
    0.2074    1.6064   -0.7365 H   0  0  0  0  0  0  0  0  0  0  0  0
    4.1994   -0.2306   -0.6604 H   0  0  0  0  0  0  0  0  0  0  0  0
   -1.1994    2.1699    2.8474 H   0  0  0  0  0  0  0  0  0  0  0  0
    2.2112    3.4468    1.0391 H   0  0  0  0  0  0  0  0  0  0  0  0
  1 16  1  0  0  0  0
  1 17  1  0  0  0  0
  2  5  1  0  0  0  0
  2 14  1  1  0  0  0
  2  3  1  0  0  0  0
  2  1  1  0  0  0  0
  3 15  1  6  0  0  0
  3  6  1  0  0  0  0
  3  4  1  0  0  0  0
  5 18  1  0  0  0  0
  6 19  1  0  0  0  0
  7  4  2  0  0  0  0
  8  4  1  0  0  0  0
  8 20  1  0  0  0  0
  9 21  1  0  0  0  0
 10 22  1  0  0  0  0
 12  1  1  0  0  0  0
 13  9  1  0  0  0  0
 13 10  1  0  0  0  0
 13 11  2  0  0  0  0
 13 12  1  0  0  0  0
M  END
>  <DRUGBANK_ID>
DB03108

>  <SECONDARY_ACCESSION_NUMBERS>
EXPT01166

>  <COMMON_NAME>
4-phospho-D-erythronic acid

>  <SYNONYMS>
4-Phospho-D-Erythronate; 4-Phosphoerythronate

$$$$
