
 OpenBabel10282417213D

 43 44  0  0  0  0  0  0  0  0999 V2000
    1.5737   -1.2624    0.0539 C   0  0  0  0  0  0  0  0  0  0  0  0
    0.1820   -1.2421   -0.0496 C   0  0  0  0  0  0  0  0  0  0  0  0
   -0.5504   -0.0486   -0.0500 C   0  0  0  0  0  0  0  0  0  0  0  0
    0.1093    1.1755    0.0057 C   0  0  0  0  0  0  0  0  0  0  0  0
    1.4991    1.1529    0.1689 C   0  0  0  0  0  0  0  0  0  0  0  0
    2.2559   -0.0459    0.1878 C   0  0  0  0  0  0  0  0  0  0  0  0
    2.3031   -2.4238    0.0539 O   0  0  0  0  0  0  0  0  0  0  0  0
    1.5553   -3.6405    0.0044 C   0  0  0  0  0  0  0  0  0  0  0  0
   -0.4168    2.4414   -0.0567 O   0  0  0  0  0  0  0  0  0  0  0  0
   -1.8325    2.5637   -0.1464 C   0  0  0  0  0  0  0  0  0  0  0  0
   -1.9777   -0.1953   -0.0251 C   0  0  0  0  0  0  0  0  0  0  0  0
   -3.1263   -0.2743    0.0332 N   0  0  0  0  0  0  0  0  0  0  0  0
    3.7734    0.0192    0.3238 C   0  0  0  0  0  0  0  0  0  0  0  0
    4.4086    0.7105   -0.8752 C   0  0  0  0  0  0  0  0  0  0  0  0
    4.0466    2.1130   -1.0952 N   0  0  0  0  0  0  0  0  0  0  0  0
    4.6549    2.7197   -2.2814 C   0  0  0  0  0  0  0  0  0  0  0  0
    4.2668    2.0688   -3.5930 C   0  0  0  0  0  0  0  0  0  0  0  0
    3.6643    2.7383   -4.6570 C   0  0  0  0  0  0  0  0  0  0  0  0
    3.3676    2.0532   -5.8411 C   0  0  0  0  0  0  0  0  0  0  0  0
    3.6078    0.6832   -5.9685 C   0  0  0  0  0  0  0  0  0  0  0  0
    4.1871   -0.0059   -4.9263 C   0  0  0  0  0  0  0  0  0  0  0  0
    4.5840    0.7073   -3.8074 C   0  0  0  0  0  0  0  0  0  0  0  0
    3.3691    4.0717   -4.6728 O   0  0  0  0  0  0  0  0  0  0  0  0
   -0.3862   -2.1644   -0.1085 H   0  0  0  0  0  0  0  0  0  0  0  0
    1.9963    2.1153    0.2906 H   0  0  0  0  0  0  0  0  0  0  0  0
    0.8871   -3.7267    0.8699 H   0  0  0  0  0  0  0  0  0  0  0  0
    0.9913   -3.7170   -0.9330 H   0  0  0  0  0  0  0  0  0  0  0  0
    2.2516   -4.4817    0.0408 H   0  0  0  0  0  0  0  0  0  0  0  0
   -2.2038    2.0981   -1.0670 H   0  0  0  0  0  0  0  0  0  0  0  0
   -2.2958    2.1531    0.7563 H   0  0  0  0  0  0  0  0  0  0  0  0
   -2.1172    3.6165   -0.1862 H   0  0  0  0  0  0  0  0  0  0  0  0
    4.0776    0.4939    1.2584 H   0  0  0  0  0  0  0  0  0  0  0  0
    4.1951   -0.9970    0.3310 H   0  0  0  0  0  0  0  0  0  0  0  0
    5.5010    0.6027   -0.8570 H   0  0  0  0  0  0  0  0  0  0  0  0
    3.9873    0.1100   -1.6757 H   0  0  0  0  0  0  0  0  0  0  0  0
    3.0483    2.1344   -1.2941 H   0  0  0  0  0  0  0  0  0  0  0  0
    4.3072    3.7583   -2.2494 H   0  0  0  0  0  0  0  0  0  0  0  0
    5.7420    2.7644   -2.1860 H   0  0  0  0  0  0  0  0  0  0  0  0
    2.9576    2.5998   -6.6840 H   0  0  0  0  0  0  0  0  0  0  0  0
    3.3865    0.1611   -6.8919 H   0  0  0  0  0  0  0  0  0  0  0  0
    4.3844   -1.0730   -4.9763 H   0  0  0  0  0  0  0  0  0  0  0  0
    5.1699    0.1399   -3.0929 H   0  0  0  0  0  0  0  0  0  0  0  0
    3.5868    4.4942   -3.8298 H   0  0  0  0  0  0  0  0  0  0  0  0
  1  2  2  0  0  0  0
  1  6  1  0  0  0  0
  1  7  1  0  0  0  0
  2  3  1  0  0  0  0
  2 24  1  0  0  0  0
  3  4  2  0  0  0  0
  3 11  1  0  0  0  0
  4  5  1  0  0  0  0
  4  9  1  0  0  0  0
  5  6  2  0  0  0  0
  5 25  1  0  0  0  0
  6 13  1  0  0  0  0
  7  8  1  0  0  0  0
  8 26  1  0  0  0  0
  8 27  1  0  0  0  0
  8 28  1  0  0  0  0
  9 10  1  0  0  0  0
 10 29  1  0  0  0  0
 10 30  1  0  0  0  0
 10 31  1  0  0  0  0
 11 12  3  0  0  0  0
 13 14  1  0  0  0  0
 13 32  1  0  0  0  0
 13 33  1  0  0  0  0
 14 15  1  0  0  0  0
 14 34  1  0  0  0  0
 14 35  1  0  0  0  0
 15 16  1  0  0  0  0
 15 36  1  0  0  0  0
 16 17  1  0  0  0  0
 16 37  1  0  0  0  0
 16 38  1  0  0  0  0
 17 18  2  0  0  0  0
 17 22  1  0  0  0  0
 18 19  1  0  0  0  0
 18 23  1  0  0  0  0
 19 20  2  0  0  0  0
 19 39  1  0  0  0  0
 20 21  1  0  0  0  0
 20 40  1  0  0  0  0
 21 22  2  0  0  0  0
 21 41  1  0  0  0  0
 22 42  1  0  0  0  0
 23 43  1  0  0  0  0
M  END
>  <DRUGBANK_ID>
DB13948

>  <COMMON_NAME>
N-(2-hydroxybenzyl)-2,5-dimethoxy-4-cyanophenylethylamine

>  <CAS_NUMBER>
1391489-32-9

>  <UNII>
32CN2DQE3Q

>  <SYNONYMS>
25CN-NBOH; NBOH-2C-CN

$$$$
