
 OpenBabel10282417163D

 50 52  0  0  0  0  0  0  0  0999 V2000
    0.9661    0.0495   -0.0419 F   0  0  0  0  0  0  0  0  0  0  0  0
    2.7511    0.1688    1.1938 F   0  0  0  0  0  0  0  0  0  0  0  0
    3.7073   -5.5566   -8.0260 F   0  0  0  0  0  0  0  0  0  0  0  0
    1.9730   -0.1445   -4.3067 O   0  0  0  0  0  0  0  0  0  0  0  0
    1.4750    0.3212   -7.4385 O   0  0  0  0  0  0  0  0  0  0  0  0
    3.9615   -0.8795   -5.3086 N   0  0  0  0  0  0  0  0  0  0  0  0
    2.3332   -1.6588   -2.0096 N   0  0  0  0  0  0  0  0  0  0  0  0
    4.3662   -2.3938   -2.9422 N   0  0  0  0  0  0  0  0  0  0  0  0
    2.1645   -1.8049   -7.5325 N   0  0  0  0  0  0  0  0  0  0  0  0
    2.3593    2.5617   -0.5306 N   0  0  0  0  0  0  0  0  0  0  0  0
    2.0850   -3.7473   -5.3387 N   0  0  0  0  0  0  0  0  0  0  0  0
    3.6632   -0.0739   -6.4894 C   0  0  0  0  0  0  0  0  0  0  0  0
    5.1114   -1.6501   -5.1309 C   0  0  0  0  0  0  0  0  0  0  0  0
    2.8042   -1.2835   -0.6527 C   0  0  0  0  0  0  0  0  0  0  0  0
    3.2496   -1.7276   -3.0599 C   0  0  0  0  0  0  0  0  0  0  0  0
    2.9792   -0.8597   -4.3133 C   0  0  0  0  0  0  0  0  0  0  0  0
    2.3385    0.1070   -0.1167 C   0  0  0  0  0  0  0  0  0  0  0  0
    2.3425   -0.5050   -7.1477 C   0  0  0  0  0  0  0  0  0  0  0  0
    5.2366   -2.3699   -4.0001 C   0  0  0  0  0  0  0  0  0  0  0  0
    6.1582   -1.8004   -6.2150 C   0  0  0  0  0  0  0  0  0  0  0  0
    2.8134    1.3341   -0.9029 C   0  0  0  0  0  0  0  0  0  0  0  0
    3.0986   -2.9049   -7.4441 C   0  0  0  0  0  0  0  0  0  0  0  0
    3.6509    1.2139   -2.0068 C   0  0  0  0  0  0  0  0  0  0  0  0
    2.6905   -4.0286   -6.5253 C   0  0  0  0  0  0  0  0  0  0  0  0
    3.8730    2.2861   -2.8586 C   0  0  0  0  0  0  0  0  0  0  0  0
    3.0768   -5.3193   -6.8678 C   0  0  0  0  0  0  0  0  0  0  0  0
    2.6732    3.6194   -1.3202 C   0  0  0  0  0  0  0  0  0  0  0  0
    3.3822    3.5240   -2.5047 C   0  0  0  0  0  0  0  0  0  0  0  0
    2.8263   -6.3680   -5.9980 C   0  0  0  0  0  0  0  0  0  0  0  0
    1.8599   -4.7874   -4.4976 C   0  0  0  0  0  0  0  0  0  0  0  0
    2.2072   -6.1003   -4.7830 C   0  0  0  0  0  0  0  0  0  0  0  0
    1.4554   -1.1993   -2.2703 H   0  0  0  0  0  0  0  0  0  0  0  0
    1.2468   -1.9991   -7.9085 H   0  0  0  0  0  0  0  0  0  0  0  0
    3.5989    0.9784   -6.1876 H   0  0  0  0  0  0  0  0  0  0  0  0
    4.4288   -0.1302   -7.2633 H   0  0  0  0  0  0  0  0  0  0  0  0
    3.8983   -1.3308   -0.5890 H   0  0  0  0  0  0  0  0  0  0  0  0
    2.4320   -2.0516    0.0343 H   0  0  0  0  0  0  0  0  0  0  0  0
    6.0895   -3.0354   -3.8800 H   0  0  0  0  0  0  0  0  0  0  0  0
    7.1489   -1.5068   -5.8611 H   0  0  0  0  0  0  0  0  0  0  0  0
    6.2033   -2.8466   -6.5470 H   0  0  0  0  0  0  0  0  0  0  0  0
    5.9705   -1.2205   -7.1190 H   0  0  0  0  0  0  0  0  0  0  0  0
    3.2732   -3.2610   -8.4626 H   0  0  0  0  0  0  0  0  0  0  0  0
    4.0593   -2.5490   -7.1195 H   0  0  0  0  0  0  0  0  0  0  0  0
    4.1241    0.2824   -2.2588 H   0  0  0  0  0  0  0  0  0  0  0  0
    4.4143    2.1337   -3.7876 H   0  0  0  0  0  0  0  0  0  0  0  0
    2.3129    4.5822   -0.9716 H   0  0  0  0  0  0  0  0  0  0  0  0
    3.5612    4.3879   -3.1319 H   0  0  0  0  0  0  0  0  0  0  0  0
    3.1239   -7.3743   -6.2699 H   0  0  0  0  0  0  0  0  0  0  0  0
    1.3835   -4.5324   -3.5530 H   0  0  0  0  0  0  0  0  0  0  0  0
    2.0052   -6.8955   -4.0737 H   0  0  0  0  0  0  0  0  0  0  0  0
  1 17  1  0  0  0  0
  2 17  1  0  0  0  0
  3 26  1  0  0  0  0
  4 16  2  0  0  0  0
  5 18  2  0  0  0  0
  6 12  1  0  0  0  0
  6 13  1  0  0  0  0
  6 16  1  0  0  0  0
  7 14  1  0  0  0  0
  7 15  1  0  0  0  0
  7 32  1  0  0  0  0
  8 15  2  0  0  0  0
  8 19  1  0  0  0  0
  9 18  1  0  0  0  0
  9 22  1  0  0  0  0
  9 33  1  0  0  0  0
 10 21  1  0  0  0  0
 10 27  2  0  0  0  0
 11 24  1  0  0  0  0
 11 30  2  0  0  0  0
 12 18  1  0  0  0  0
 12 34  1  0  0  0  0
 12 35  1  0  0  0  0
 13 19  2  0  0  0  0
 13 20  1  0  0  0  0
 14 17  1  0  0  0  0
 14 36  1  0  0  0  0
 14 37  1  0  0  0  0
 15 16  1  0  0  0  0
 17 21  1  0  0  0  0
 19 38  1  0  0  0  0
 20 39  1  0  0  0  0
 20 40  1  0  0  0  0
 20 41  1  0  0  0  0
 21 23  2  0  0  0  0
 22 24  1  0  0  0  0
 22 42  1  0  0  0  0
 22 43  1  0  0  0  0
 23 25  1  0  0  0  0
 23 44  1  0  0  0  0
 24 26  2  0  0  0  0
 25 28  2  0  0  0  0
 25 45  1  0  0  0  0
 26 29  1  0  0  0  0
 27 28  1  0  0  0  0
 27 46  1  0  0  0  0
 28 47  1  0  0  0  0
 29 31  2  0  0  0  0
 29 48  1  0  0  0  0
 30 31  1  0  0  0  0
 30 49  1  0  0  0  0
 31 50  1  0  0  0  0
M  END
>  <DRUGBANK_ID>
DB07548

>  <COMMON_NAME>
2-(6-Chloro-3-{[2,2-difluoro-2-(2-pyridinyl)ethyl]amino}-2-oxo-1(2H)-pyrazinyl)-N-[(2-fluoro-6-pyridinyl)methyl]acetamide

>  <CAS_NUMBER>
312904-60-2

$$$$
