
 OpenBabel10282417233D

 63 66  0  0  0  0  0  0  0  0999 V2000
    1.4579   -0.3048    0.0058 C   0  0  0  0  0  0  0  0  0  0  0  0
   -7.6806    1.5604   -1.2989 C   0  0  0  0  0  0  0  0  0  0  0  0
   -1.5913    6.2863   -0.5500 C   0  0  0  0  0  0  0  0  0  0  0  0
    0.5611   -1.3808    0.0250 C   0  0  0  0  0  0  0  0  0  0  0  0
    0.9824    0.9731   -0.0337 C   0  0  0  0  0  0  0  0  0  0  0  0
   -7.7104    2.8733   -1.1496 C   0  0  0  0  0  0  0  0  0  0  0  0
   -7.0864    0.8431   -0.1958 C   0  0  0  0  0  0  0  0  0  0  0  0
   -1.2144    4.9999   -0.4346 C   0  0  0  0  0  0  0  0  0  0  0  0
   -2.2658    6.8262    0.5934 C   0  0  0  0  0  0  0  0  0  0  0  0
   -3.0973    1.3617   -1.0887 C   0  0  0  0  0  0  0  0  0  0  0  0
   -0.8185   -1.1986   -0.0111 C   0  0  0  0  0  0  0  0  0  0  0  0
   -0.3814    1.1117    0.0313 C   0  0  0  0  0  0  0  0  0  0  0  0
   -2.7133    0.2310   -0.4676 C   0  0  0  0  0  0  0  0  0  0  0  0
   -7.2915    3.3235    0.1954 C   0  0  0  0  0  0  0  0  0  0  0  0
   -6.4465    1.3830    1.2295 C   0  0  0  0  0  0  0  0  0  0  0  0
   -1.5832    4.4045    0.8676 C   0  0  0  0  0  0  0  0  0  0  0  0
   -2.5873    6.0868    1.9686 C   0  0  0  0  0  0  0  0  0  0  0  0
   -4.5241    1.8348   -1.1620 C   0  0  0  0  0  0  0  0  0  0  0  0
   -5.4954    4.3216    0.0109 C   0  0  0  0  0  0  0  0  0  0  0  0
   -4.0683    2.1804    1.0572 C   0  0  0  0  0  0  0  0  0  0  0  0
   -4.8281    5.2039   -0.8437 C   0  0  0  0  0  0  0  0  0  0  0  0
   -3.5367    3.4893    0.6034 C   0  0  0  0  0  0  0  0  0  0  0  0
   -5.0725    6.2817    1.5513 C   0  0  0  0  0  0  0  0  0  0  0  0
   -5.9102    5.7047    2.7587 C   0  0  0  0  0  0  0  0  0  0  0  0
   -1.3067    0.0732   -0.1011 C   0  0  0  0  0  0  0  0  0  0  0  0
   -6.2755    2.8817    1.6400 C   0  0  0  0  0  0  0  0  0  0  0  0
   -2.7515    4.7385    2.0909 C   0  0  0  0  0  0  0  0  0  0  0  0
   -4.6545    3.8590    2.4351 C   0  0  0  0  0  0  0  0  0  0  0  0
   -4.8560    2.6609   -0.0463 N   0  0  0  0  0  0  0  0  0  0  0  0
   -4.1776    5.2344    0.4119 N   0  0  0  0  0  0  0  0  0  0  0  0
   -5.1651    4.7309    3.4433 O   0  0  0  0  0  0  0  0  0  0  0  0
   -2.3593    2.1360   -1.2125 H   0  0  0  0  0  0  0  0  0  0  0  0
   -3.4394   -0.5360   -0.1921 H   0  0  0  0  0  0  0  0  0  0  0  0
    2.5247   -0.4593    0.0582 H   0  0  0  0  0  0  0  0  0  0  0  0
   -8.0619    1.1981   -2.2452 H   0  0  0  0  0  0  0  0  0  0  0  0
   -1.3425    6.8401   -1.4504 H   0  0  0  0  0  0  0  0  0  0  0  0
    0.9441   -2.3883    0.0221 H   0  0  0  0  0  0  0  0  0  0  0  0
    1.6069    1.8618   -0.0982 H   0  0  0  0  0  0  0  0  0  0  0  0
   -7.8479    3.6214   -1.9962 H   0  0  0  0  0  0  0  0  0  0  0  0
   -6.7068   -0.1263   -0.5782 H   0  0  0  0  0  0  0  0  0  0  0  0
   -0.8793    4.3907   -1.3129 H   0  0  0  0  0  0  0  0  0  0  0  0
   -2.9341    7.6623    0.2971 H   0  0  0  0  0  0  0  0  0  0  0  0
   -1.5078   -2.0333   -0.0185 H   0  0  0  0  0  0  0  0  0  0  0  0
   -0.6463    2.1082    0.1894 H   0  0  0  0  0  0  0  0  0  0  0  0
   -7.2681    4.2745   -0.4811 H   0  0  0  0  0  0  0  0  0  0  0  0
   -5.7209    0.5970    1.5214 H   0  0  0  0  0  0  0  0  0  0  0  0
   -1.4275    3.3814    0.5813 H   0  0  0  0  0  0  0  0  0  0  0  0
   -3.1499    6.4421    2.7919 H   0  0  0  0  0  0  0  0  0  0  0  0
   -4.8386    2.3825   -2.0225 H   0  0  0  0  0  0  0  0  0  0  0  0
   -5.0351    0.8990   -1.0123 H   0  0  0  0  0  0  0  0  0  0  0  0
   -6.4594    5.0828    0.3706 H   0  0  0  0  0  0  0  0  0  0  0  0
   -5.8131    4.5006    1.0785 H   0  0  0  0  0  0  0  0  0  0  0  0
   -4.5056    1.9063    2.0464 H   0  0  0  0  0  0  0  0  0  0  0  0
   -3.1994    1.4966    1.3494 H   0  0  0  0  0  0  0  0  0  0  0  0
   -4.5222    4.5549   -1.6536 H   0  0  0  0  0  0  0  0  0  0  0  0
   -5.4685    6.0272   -1.1558 H   0  0  0  0  0  0  0  0  0  0  0  0
   -3.0684    3.5286   -0.3781 H   0  0  0  0  0  0  0  0  0  0  0  0
   -2.7914    3.1016    1.4126 H   0  0  0  0  0  0  0  0  0  0  0  0
   -4.4913    7.0265    2.0982 H   0  0  0  0  0  0  0  0  0  0  0  0
   -5.5435    7.0514    0.9303 H   0  0  0  0  0  0  0  0  0  0  0  0
   -6.2054    6.4341    3.5068 H   0  0  0  0  0  0  0  0  0  0  0  0
   -6.8646    5.2704    2.4660 H   0  0  0  0  0  0  0  0  0  0  0  0
   -4.1406    3.1488    3.1201 H   0  0  0  0  0  0  0  0  0  0  0  0
  1 34  1  0  0  0  0
  2 35  1  0  0  0  0
  3 36  1  0  0  0  0
  4  1  2  0  0  0  0
  4 37  1  0  0  0  0
  5  1  1  0  0  0  0
  5 38  1  0  0  0  0
  6  2  2  0  0  0  0
  6 39  1  0  0  0  0
  7  2  1  0  0  0  0
  7 40  1  0  0  0  0
  8  3  2  0  0  0  0
  8 41  1  0  0  0  0
  9  3  1  0  0  0  0
  9 42  1  0  0  0  0
 11  4  1  0  0  0  0
 11 43  1  0  0  0  0
 12  5  2  0  0  0  0
 12 44  1  0  0  0  0
 13 10  2  0  0  0  0
 14  6  1  0  0  0  0
 14 45  1  0  0  0  0
 15  7  2  0  0  0  0
 15 46  1  0  0  0  0
 16  8  1  0  0  0  0
 16 47  1  0  0  0  0
 17  9  2  0  0  0  0
 17 48  1  0  0  0  0
 18 10  1  0  0  0  0
 18 49  1  0  0  0  0
 18 50  1  0  0  0  0
 19 51  1  0  0  0  0
 19 52  1  0  0  0  0
 20 53  1  0  0  0  0
 20 54  1  0  0  0  0
 21 19  1  0  0  0  0
 21 55  1  0  0  0  0
 21 56  1  0  0  0  0
 22 20  1  0  0  0  0
 22 57  1  0  0  0  0
 22 58  1  0  0  0  0
 23 59  1  0  0  0  0
 23 60  1  0  0  0  0
 24 23  1  0  0  0  0
 24 61  1  0  0  0  0
 24 62  1  0  0  0  0
 25 11  2  0  0  0  0
 25 12  1  0  0  0  0
 25 13  1  0  0  0  0
 26 14  2  0  0  0  0
 26 15  1  0  0  0  0
 27 16  2  0  0  0  0
 27 17  1  0  0  0  0
 28 26  1  0  0  0  0
 28 27  1  0  0  0  0
 28 63  1  0  0  0  0
 29 18  1  0  0  0  0
 29 19  1  0  0  0  0
 29 20  1  0  0  0  0
 30 21  1  0  0  0  0
 30 22  1  0  0  0  0
 30 23  1  0  0  0  0
 31 24  1  0  0  0  0
 31 28  1  0  0  0  0
 32 10  1  0  0  0  0
 33 13  1  0  0  0  0
M  END
>  <DRUGBANK_ID>
DB17027

>  <COMMON_NAME>
GBR-12783

>  <CAS_NUMBER>
145428-33-7

>  <UNII>
96Y892TJ2A

$$$$
