
 OpenBabel10282417203D

 60 62  0  0  1  0  0  0  0  0999 V2000
    0.0982    0.2909   -0.8924 C   0  0  0  0  0  0  0  0  0  0  0  0
    0.1297    1.6291   -0.1859 C   0  0  0  0  0  0  0  0  0  0  0  0
    1.0883    2.4361   -0.8476 O   0  0  0  0  0  0  0  0  0  0  0  0
    2.4953    2.1217   -0.6473 C   0  0  1  0  0  0  0  0  0  0  0  0
    3.0576    2.6541    0.7491 C   0  0  0  0  0  0  0  0  0  0  0  0
    3.0450    1.8320    2.0432 C   0  0  0  0  0  0  0  0  0  0  0  0
    3.6287    0.5662    2.0230 C   0  0  0  0  0  0  0  0  0  0  0  0
    3.4563   -0.4289    2.9991 C   0  0  0  0  0  0  0  0  0  0  0  0
    2.7805   -0.1273    4.1513 C   0  0  0  0  0  0  0  0  0  0  0  0
    2.4373    1.2380    4.3409 C   0  0  0  0  0  0  0  0  0  0  0  0
    2.4837    2.1902    3.2681 C   0  0  0  0  0  0  0  0  0  0  0  0
    2.1809   -1.0752    4.9684 O   0  0  0  0  0  0  0  0  0  0  0  0
    2.0266   -2.4784    4.5742 C   0  0  0  0  0  0  0  0  0  0  0  0
    0.8199   -2.9597    3.7197 C   0  0  0  0  0  0  0  0  0  0  0  0
    0.8219   -2.3784    2.4095 N   0  0  0  0  0  0  0  0  0  0  0  0
    0.5128   -1.0541    2.2399 C   0  0  0  0  0  0  0  0  0  0  0  0
    1.2892   -0.7782    1.1563 C   0  0  0  0  0  0  0  0  0  0  0  0
    1.4555   -1.8924    0.3589 C   0  0  0  0  0  0  0  0  0  0  0  0
    1.4087   -2.8921    1.2652 C   0  0  0  0  0  0  0  0  0  0  0  0
    1.8060   -4.2197    0.9254 C   0  0  0  0  0  0  0  0  0  0  0  0
    0.8140   -5.1732    0.9873 C   0  0  0  0  0  0  0  0  0  0  0  0
    1.0808   -6.4458    0.5404 C   0  0  0  0  0  0  0  0  0  0  0  0
    2.3237   -6.7609   -0.0216 C   0  0  0  0  0  0  0  0  0  0  0  0
    3.2790   -5.7507   -0.2038 C   0  0  0  0  0  0  0  0  0  0  0  0
    3.0381   -4.4791    0.3005 C   0  0  0  0  0  0  0  0  0  0  0  0
    2.7793   -8.4215   -0.4797 S   0  0  0  0  0  0  0  0  0  0  0  0
    1.3575   -9.3827    0.1070 C   0  0  0  0  0  0  0  0  0  0  0  0
   -0.1036   -0.0831    3.1960 C   0  0  0  0  0  0  0  0  0  0  0  0
    3.3190    0.9842   -1.4518 C   0  0  0  0  0  0  0  0  0  0  0  0
    3.5744    1.0756   -2.6756 O   0  0  0  0  0  0  0  0  0  0  0  0
    3.8405   -0.0674   -0.8141 O   0  0  0  0  0  0  0  0  0  0  0  0
   -0.1534    0.2075   -1.9421 H   0  0  0  0  0  0  0  0  0  0  0  0
   -0.5156   -0.4264   -0.3339 H   0  0  0  0  0  0  0  0  0  0  0  0
    1.1404   -0.0053   -0.9725 H   0  0  0  0  0  0  0  0  0  0  0  0
   -0.8893    2.0273   -0.1647 H   0  0  0  0  0  0  0  0  0  0  0  0
    0.4013    1.6428    0.8737 H   0  0  0  0  0  0  0  0  0  0  0  0
    2.8659    2.9373   -1.2886 H   0  0  0  0  0  0  0  0  0  0  0  0
    4.1197    2.8636    0.5746 H   0  0  0  0  0  0  0  0  0  0  0  0
    2.5757    3.6258    0.9381 H   0  0  0  0  0  0  0  0  0  0  0  0
    4.0046    0.2118    1.0944 H   0  0  0  0  0  0  0  0  0  0  0  0
    3.6138   -1.4516    2.6693 H   0  0  0  0  0  0  0  0  0  0  0  0
    1.9346    1.5278    5.2614 H   0  0  0  0  0  0  0  0  0  0  0  0
    1.9733    3.1476    3.3895 H   0  0  0  0  0  0  0  0  0  0  0  0
    2.9627   -2.8715    4.1691 H   0  0  0  0  0  0  0  0  0  0  0  0
    1.8539   -2.9993    5.5211 H   0  0  0  0  0  0  0  0  0  0  0  0
    0.8551   -4.0455    3.5744 H   0  0  0  0  0  0  0  0  0  0  0  0
   -0.1611   -2.7196    4.1423 H   0  0  0  0  0  0  0  0  0  0  0  0
    1.5783    0.2146    0.9382 H   0  0  0  0  0  0  0  0  0  0  0  0
    1.7463   -1.9979   -0.6815 H   0  0  0  0  0  0  0  0  0  0  0  0
   -0.1713   -4.8964    1.3506 H   0  0  0  0  0  0  0  0  0  0  0  0
    0.2770   -7.1593    0.6470 H   0  0  0  0  0  0  0  0  0  0  0  0
    4.2107   -5.9468   -0.7323 H   0  0  0  0  0  0  0  0  0  0  0  0
    3.7937   -3.7018    0.1743 H   0  0  0  0  0  0  0  0  0  0  0  0
    1.1759   -9.2381    1.1781 H   0  0  0  0  0  0  0  0  0  0  0  0
    0.4610   -9.1116   -0.4583 H   0  0  0  0  0  0  0  0  0  0  0  0
    1.5639  -10.4395   -0.0632 H   0  0  0  0  0  0  0  0  0  0  0  0
   -1.1472   -0.2756    3.4171 H   0  0  0  0  0  0  0  0  0  0  0  0
    0.3704   -0.0504    4.1679 H   0  0  0  0  0  0  0  0  0  0  0  0
   -0.0159    0.9378    2.8035 H   0  0  0  0  0  0  0  0  0  0  0  0
    3.2462   -0.8296   -0.6683 H   0  0  0  0  0  0  0  0  0  0  0  0
  1  2  1  0  0  0  0
  1 32  1  0  0  0  0
  1 33  1  0  0  0  0
  1 34  1  0  0  0  0
  2  3  1  0  0  0  0
  2 35  1  0  0  0  0
  2 36  1  0  0  0  0
  4  3  1  0  0  0  0
  4  5  1  0  0  0  0
  4 29  1  0  0  0  0
  4 37  1  6  0  0  0
  5  6  1  0  0  0  0
  5 38  1  0  0  0  0
  5 39  1  0  0  0  0
  6  7  2  0  0  0  0
  6 11  1  0  0  0  0
  7  8  1  0  0  0  0
  7 40  1  0  0  0  0
  8  9  2  0  0  0  0
  8 41  1  0  0  0  0
  9 10  1  0  0  0  0
  9 12  1  0  0  0  0
 10 11  2  0  0  0  0
 10 42  1  0  0  0  0
 11 43  1  0  0  0  0
 12 13  1  0  0  0  0
 13 14  1  0  0  0  0
 13 44  1  0  0  0  0
 13 45  1  0  0  0  0
 14 15  1  0  0  0  0
 14 46  1  0  0  0  0
 14 47  1  0  0  0  0
 15 16  1  0  0  0  0
 15 19  1  0  0  0  0
 16 17  2  0  0  0  0
 16 28  1  0  0  0  0
 17 18  1  0  0  0  0
 17 48  1  0  0  0  0
 18 19  2  0  0  0  0
 18 49  1  0  0  0  0
 19 20  1  0  0  0  0
 20 21  2  0  0  0  0
 20 25  1  0  0  0  0
 21 22  1  0  0  0  0
 21 50  1  0  0  0  0
 22 23  2  0  0  0  0
 22 51  1  0  0  0  0
 23 24  1  0  0  0  0
 23 26  1  0  0  0  0
 24 25  2  0  0  0  0
 24 52  1  0  0  0  0
 25 53  1  0  0  0  0
 26 27  1  0  0  0  0
 27 54  1  0  0  0  0
 27 55  1  0  0  0  0
 27 56  1  0  0  0  0
 28 57  1  0  0  0  0
 28 58  1  0  0  0  0
 28 59  1  0  0  0  0
 29 30  2  0  0  0  0
 29 31  1  0  0  0  0
 31 60  1  0  0  0  0
M  END
>  <DRUGBANK_ID>
DB13115

>  <COMMON_NAME>
Saroglitazar

>  <CAS_NUMBER>
495399-09-2

>  <UNII>
E0YMX3S4JD

>  <SYNONYMS>
Saroglitazar; Saroglitazarum

$$$$
