
 OpenBabel10282417123D

 46 48  0  0  1  0  0  0  0  0999 V2000
    5.4269    0.2659    1.8879 S   0  0  0  0  0  0  0  0  0  0  0  0
    8.5111    0.2964   -0.4661 O   0  0  0  0  0  0  0  0  0  0  0  0
    8.7472   -1.7148    2.0022 O   0  0  0  0  0  0  0  0  0  0  0  0
   10.6425    0.0919    2.4344 O   0  0  0  0  0  0  0  0  0  0  0  0
    2.2064    0.6743    4.9046 O   0  0  0  0  0  0  0  0  0  0  0  0
    4.3485    0.2569    4.4840 O   0  0  0  0  0  0  0  0  0  0  0  0
   10.2748    1.8089   -0.2809 N   0  0  0  0  0  0  0  0  0  0  0  0
   11.7003    3.1397   -1.3418 N   0  0  0  0  0  0  0  0  0  0  0  0
    8.6669    3.4580    0.5347 N   0  0  0  0  0  0  0  0  0  0  0  0
    9.2902    5.7010   -0.1583 N   0  0  0  0  0  0  0  0  0  0  0  0
   11.1952    6.1627   -1.4555 N   0  0  0  0  0  0  0  0  0  0  0  0
    2.6265    0.9243    1.8005 N   0  0  0  0  0  0  0  0  0  0  0  0
    8.3165   -0.3541    1.8483 C   0  0  1  0  0  0  0  0  0  0  0  0
    9.5016    0.5705    1.7246 C   0  0  2  0  0  0  0  0  0  0  0  0
    7.5649   -0.1591    0.5040 C   0  0  1  0  0  0  0  0  0  0  0  0
    9.7343    0.5758    0.2224 C   0  0  1  0  0  0  0  0  0  0  0  0
    6.4284    0.8331    0.5571 C   0  0  0  0  0  0  0  0  0  0  0  0
    9.7724    3.0704   -0.1241 C   0  0  0  0  0  0  0  0  0  0  0  0
   11.4305    1.8988   -1.0053 C   0  0  0  0  0  0  0  0  0  0  0  0
   10.6702    3.8815   -0.7954 C   0  0  0  0  0  0  0  0  0  0  0  0
    4.6198   -1.2548    1.2890 C   0  0  0  0  0  0  0  0  0  0  0  0
    3.4985   -1.5307    2.2960 C   0  0  0  0  0  0  0  0  0  0  0  0
   10.3910    5.2560   -0.8062 C   0  0  0  0  0  0  0  0  0  0  0  0
    2.6689   -0.2630    2.6957 C   0  0  1  0  0  0  0  0  0  0  0  0
    8.5086    4.7960    0.4692 C   0  0  0  0  0  0  0  0  0  0  0  0
    3.1996    0.2321    4.0988 C   0  0  0  0  0  0  0  0  0  0  0  0
    9.1028   -2.0349    1.1595 H   0  0  0  0  0  0  0  0  0  0  0  0
   10.6128   -0.8839    2.3978 H   0  0  0  0  0  0  0  0  0  0  0  0
    1.3384    0.6111    4.4778 H   0  0  0  0  0  0  0  0  0  0  0  0
   12.0214    5.8219   -1.9266 H   0  0  0  0  0  0  0  0  0  0  0  0
   10.9494    7.1375   -1.4251 H   0  0  0  0  0  0  0  0  0  0  0  0
    3.6047    1.1971    1.6010 H   0  0  0  0  0  0  0  0  0  0  0  0
    2.1542    0.8151    0.9082 H   0  0  0  0  0  0  0  0  0  0  0  0
    7.7724   -0.1096    2.7657 H   0  0  0  0  0  0  0  0  0  0  0  0
    9.2382    1.5561    2.1206 H   0  0  0  0  0  0  0  0  0  0  0  0
    7.1771   -1.1130    0.1296 H   0  0  0  0  0  0  0  0  0  0  0  0
   10.4190   -0.2354   -0.0480 H   0  0  0  0  0  0  0  0  0  0  0  0
    5.8599    0.9446   -0.3717 H   0  0  0  0  0  0  0  0  0  0  0  0
    6.7659    1.8361    0.8326 H   0  0  0  0  0  0  0  0  0  0  0  0
   12.0258    1.0297   -1.2550 H   0  0  0  0  0  0  0  0  0  0  0  0
    4.1797   -1.1034    0.2991 H   0  0  0  0  0  0  0  0  0  0  0  0
    5.3089   -2.1092    1.2355 H   0  0  0  0  0  0  0  0  0  0  0  0
    2.8489   -2.3313    1.9119 H   0  0  0  0  0  0  0  0  0  0  0  0
    3.9485   -1.9732    3.2031 H   0  0  0  0  0  0  0  0  0  0  0  0
    1.6306   -0.5840    2.8049 H   0  0  0  0  0  0  0  0  0  0  0  0
    7.6403    5.1989    0.9851 H   0  0  0  0  0  0  0  0  0  0  0  0
  1 17  1  0  0  0  0
  1 21  1  0  0  0  0
  2 15  1  0  0  0  0
  2 16  1  0  0  0  0
  3 27  1  0  0  0  0
  4 28  1  0  0  0  0
  5 26  1  0  0  0  0
  5 29  1  0  0  0  0
  6 26  2  0  0  0  0
  7 18  1  0  0  0  0
  7 19  1  0  0  0  0
  8 19  2  0  0  0  0
  8 20  1  0  0  0  0
  9 18  2  0  0  0  0
  9 25  1  0  0  0  0
 10 23  1  0  0  0  0
 10 25  2  0  0  0  0
 11 23  1  0  0  0  0
 11 30  1  0  0  0  0
 11 31  1  0  0  0  0
 12 32  1  0  0  0  0
 12 33  1  0  0  0  0
 13  3  1  0  0  0  0
 13 14  1  0  0  0  0
 13 15  1  0  0  0  0
 13 34  1  1  0  0  0
 14  4  1  0  0  0  0
 14 16  1  0  0  0  0
 14 35  1  1  0  0  0
 15 17  1  0  0  0  0
 15 36  1  6  0  0  0
 16 37  1  6  0  0  0
 16  7  1  0  0  0  0
 17 38  1  0  0  0  0
 17 39  1  0  0  0  0
 18 20  1  0  0  0  0
 19 40  1  0  0  0  0
 20 23  2  0  0  0  0
 21 22  1  0  0  0  0
 21 41  1  0  0  0  0
 21 42  1  0  0  0  0
 22 43  1  0  0  0  0
 22 44  1  0  0  0  0
 24 26  1  0  0  0  0
 24 45  1  1  0  0  0
 24 22  1  0  0  0  0
 24 12  1  0  0  0  0
 25 46  1  0  0  0  0
M  END
>  <DRUGBANK_ID>
DB01752

>  <SECONDARY_ACCESSION_NUMBERS>
EXPT02842

>  <COMMON_NAME>
S-adenosyl-L-homocysteine

>  <CAS_NUMBER>
979-92-0

>  <UNII>
8K31Q2S66S

>  <SYNONYMS>
2-S-adenosyl-L-homocysteine; Adenosyl-L-homocysteine; adenosylhomocysteine; AdoHcy; S-(5'-adenosyl)-L-homocysteine; S-[1-(adenin-9-yl)-1,5-dideoxy-Î²-D-ribofuranos-5-yl]-L-homocysteine; S-Adenosylhomocysteine

$$$$
