
 OpenBabel10282417153D

227232  0  0  1  0  0  0  0  0999 V2000
    1.5811   -6.1712  -11.9331 S   0  0  0  0  0  0  0  0  0  0  0  0
    4.0896   -7.1382   -7.5528 O   0  0  0  0  0  0  0  0  0  0  0  0
    1.4368   -6.3044   -3.2762 O   0  0  0  0  0  0  0  0  0  0  0  0
   -1.0463   -0.9001   -4.8791 O   0  0  0  0  0  0  0  0  0  0  0  0
   -1.0316   -7.4151   -3.5575 O   0  0  0  0  0  0  0  0  0  0  0  0
    1.5480   -3.7156   -8.5463 O   0  0  0  0  0  0  0  0  0  0  0  0
   -0.8020   -9.6717   -7.3844 O   0  0  0  0  0  0  0  0  0  0  0  0
    3.5233   -5.5372  -10.3345 O   0  0  0  0  0  0  0  0  0  0  0  0
   -2.8358   -8.5986  -10.9446 O   0  0  0  0  0  0  0  0  0  0  0  0
    1.0096   -6.5541   -6.1572 O   0  0  0  0  0  0  0  0  0  0  0  0
   -4.1529   -5.9880   -9.7144 O   0  0  0  0  0  0  0  0  0  0  0  0
   -2.7296    0.2816   -8.5542 O   0  0  0  0  0  0  0  0  0  0  0  0
   -0.3189   -2.5928   -2.8233 O   0  0  0  0  0  0  0  0  0  0  0  0
    1.4777   -1.2506  -10.5276 O   0  0  0  0  0  0  0  0  0  0  0  0
    0.7958   -3.4420   -3.9644 O   0  0  0  0  0  0  0  0  0  0  0  0
    1.0276   -4.8452   -5.6631 O   0  0  0  0  0  0  0  0  0  0  0  0
    2.1502   -3.1409  -11.8999 O   0  0  0  0  0  0  0  0  0  0  0  0
    4.8210   -3.7159  -10.5680 O   0  0  0  0  0  0  0  0  0  0  0  0
    4.9225   -3.3228   -1.7955 O   0  0  0  0  0  0  0  0  0  0  0  0
    3.0966   -0.0090   -6.1614 O   0  0  0  0  0  0  0  0  0  0  0  0
    3.2988   -5.7229   -5.9918 N   0  0  0  0  0  0  0  0  0  0  0  0
   -0.4389   -4.4068   -4.6207 N   0  0  0  0  0  0  0  0  0  0  0  0
    0.7410   -8.1445   -5.2474 N   0  0  0  0  0  0  0  0  0  0  0  0
   -3.0012   -2.2878   -4.9370 N   0  0  0  0  0  0  0  0  0  0  0  0
   -0.5448   -8.9733  -11.7326 N   0  0  0  0  0  0  0  0  0  0  0  0
   -0.0635   -4.9313   -6.9503 N   0  0  0  0  0  0  0  0  0  0  0  0
   -1.4756   -7.0143   -8.5464 N   0  0  0  0  0  0  0  0  0  0  0  0
    2.4143   -7.5276   -8.8680 N   0  0  0  0  0  0  0  0  0  0  0  0
   -0.0696   -2.0661  -12.5474 N   0  0  0  0  0  0  0  0  0  0  0  0
   -1.6115   -6.5920  -11.1578 N   0  0  0  0  0  0  0  0  0  0  0  0
   -0.9186   -7.8224   -7.0184 N   0  0  0  0  0  0  0  0  0  0  0  0
    0.0229  -11.1133  -11.8038 N   0  0  0  0  0  0  0  0  0  0  0  0
   -3.1662   -6.1420   -7.5322 N   0  0  0  0  0  0  0  0  0  0  0  0
   -2.7132   -2.1196   -9.7835 N   0  0  0  0  0  0  0  0  0  0  0  0
   -3.8222   -8.9176   -5.5212 N   0  0  0  0  0  0  0  0  0  0  0  0
   -0.3164   -2.5730   -6.3386 N   0  0  0  0  0  0  0  0  0  0  0  0
   -2.1248   -8.9467   -4.1780 N   0  0  0  0  0  0  0  0  0  0  0  0
    0.8636  -12.0586  -13.5193 N   0  0  0  0  0  0  0  0  0  0  0  0
   -1.3150  -12.4272  -12.5736 N   0  0  0  0  0  0  0  0  0  0  0  0
    2.2086   -4.3595   -9.7989 N   0  0  0  0  0  0  0  0  0  0  0  0
    3.2475   -0.6497   -8.5299 N   0  0  0  0  0  0  0  0  0  0  0  0
    2.4275   -4.8211   -4.7064 C   0  0  1  0  0  0  0  0  0  0  0  0
    2.1882   -2.8697   -5.0818 C   0  0  0  0  0  0  0  0  0  0  0  0
    3.4494   -2.4783   -6.0895 C   0  0  0  0  0  0  0  0  0  0  0  0
    4.2136   -4.3825   -6.9898 C   0  0  0  0  0  0  0  0  0  0  0  0
    3.2115   -6.9999   -6.6551 C   0  0  0  0  0  0  0  0  0  0  0  0
    1.2504   -5.2146   -3.9133 C   0  0  0  0  0  0  0  0  0  0  0  0
    1.7445   -7.9645   -6.8877 C   0  0  2  0  0  0  0  0  0  0  0  0
    0.6861   -7.3837   -8.5353 C   0  0  0  0  0  0  0  0  0  0  0  0
   -1.5122   -3.2359   -5.0312 C   0  0  1  0  0  0  0  0  0  0  0  0
    1.3033   -7.7186  -10.2955 C   0  0  0  0  0  0  0  0  0  0  0  0
   -2.4819   -3.2282   -6.8485 C   0  0  0  0  0  0  0  0  0  0  0  0
    1.8131   -8.9328  -10.5876 C   0  0  0  0  0  0  0  0  0  0  0  0
   -1.7446   -1.8789   -4.6927 C   0  0  0  0  0  0  0  0  0  0  0  0
   -3.6825   -3.9123   -7.1615 C   0  0  0  0  0  0  0  0  0  0  0  0
   -2.5644   -2.1291   -7.7410 C   0  0  0  0  0  0  0  0  0  0  0  0
   -0.6862   -7.1970   -4.7551 C   0  0  0  0  0  0  0  0  0  0  0  0
    0.4577   -9.4356  -10.7967 C   0  0  0  0  0  0  0  0  0  0  0  0
   -1.0199   -5.3528   -5.7996 C   0  0  0  0  0  0  0  0  0  0  0  0
   -1.1084   -5.9674   -9.5338 C   0  0  2  0  0  0  0  0  0  0  0  0
    0.4332   -4.8480   -8.3637 C   0  0  0  0  0  0  0  0  0  0  0  0
   -2.5998   -4.8962  -10.8196 C   0  0  0  0  0  0  0  0  0  0  0  0
   -1.7905   -3.5481  -11.9716 C   0  0  0  0  0  0  0  0  0  0  0  0
    0.9194   -8.9866   -8.7782 C   0  0  2  0  0  0  0  0  0  0  0  0
   -0.6946   -8.8675   -8.4009 C   0  0  0  0  0  0  0  0  0  0  0  0
    1.0614  -10.3825   -8.6357 C   0  0  0  0  0  0  0  0  0  0  0  0
   -2.3020   -2.2744  -11.9968 C   0  0  0  0  0  0  0  0  0  0  0  0
   -0.3953   -3.2314  -12.0357 C   0  0  0  0  0  0  0  0  0  0  0  0
   -1.2692   -1.4851  -12.4739 C   0  0  0  0  0  0  0  0  0  0  0  0
   -0.4208  -11.1872   -9.0851 C   0  0  0  0  0  0  0  0  0  0  0  0
    0.0929   -5.5720  -10.5392 C   0  0  2  0  0  0  0  0  0  0  0  0
    2.4108   -6.1087  -10.1571 C   0  0  0  0  0  0  0  0  0  0  0  0
   -3.6336   -1.8943  -11.6818 C   0  0  0  0  0  0  0  0  0  0  0  0
   -1.1357  -11.0382  -10.5367 C   0  0  0  0  0  0  0  0  0  0  0  0
   -1.1811   -4.7330   -8.8612 C   0  0  0  0  0  0  0  0  0  0  0  0
   -1.6712   -0.3813  -13.0416 C   0  0  0  0  0  0  0  0  0  0  0  0
   -2.4345   -8.3157   -8.3806 C   0  0  3  0  0  0  0  0  0  0  0  0
   -3.9419   -0.7039  -12.0705 C   0  0  0  0  0  0  0  0  0  0  0  0
   -2.3616   -7.7493  -10.2427 C   0  0  0  0  0  0  0  0  0  0  0  0
   -3.0122   -0.0771  -12.8511 C   0  0  0  0  0  0  0  0  0  0  0  0
   -3.1258   -9.2566   -7.7507 C   0  0  0  0  0  0  0  0  0  0  0  0
   -1.8488   -6.5779   -6.4363 C   0  0  2  0  0  0  0  0  0  0  0  0
   -0.3737   -2.6880   -8.7430 C   0  0  0  0  0  0  0  0  0  0  0  0
   -0.1086   -6.9117   -6.5276 C   0  0  0  0  0  0  0  0  0  0  0  0
   -2.3792   -6.1236   -4.5739 C   0  0  0  0  0  0  0  0  0  0  0  0
   -1.9460   -3.6656   -9.8240 C   0  0  2  0  0  0  0  0  0  0  0  0
   -2.8302   -8.9967   -6.3491 C   0  0  0  0  0  0  0  0  0  0  0  0
   -3.1799   -5.4382   -9.1307 C   0  0  0  0  0  0  0  0  0  0  0  0
    0.4615   -2.8666   -7.7146 C   0  0  0  0  0  0  0  0  0  0  0  0
   -0.3656   -1.6019   -9.6100 C   0  0  0  0  0  0  0  0  0  0  0  0
   -0.0746   -4.0734   -9.7753 C   0  0  0  0  0  0  0  0  0  0  0  0
   -0.8304   -5.5502   -3.3213 C   0  0  0  0  0  0  0  0  0  0  0  0
   -0.1862  -11.9007  -12.7438 C   0  0  0  0  0  0  0  0  0  0  0  0
   -0.4529   -1.1639   -7.6856 C   0  0  2  0  0  0  0  0  0  0  0  0
   -1.7982   -9.1025   -5.4286 C   0  0  0  0  0  0  0  0  0  0  0  0
    1.0817   -5.8474   -9.3594 C   0  0  0  0  0  0  0  0  0  0  0  0
    1.2695   -1.9006   -6.8168 C   0  0  0  0  0  0  0  0  0  0  0  0
    0.4175   -0.1156   -8.8497 C   0  0  0  0  0  0  0  0  0  0  0  0
   -1.9781   -0.5721   -9.0332 C   0  0  0  0  0  0  0  0  0  0  0  0
    1.2596   -0.6279   -7.2609 C   0  0  0  0  0  0  0  0  0  0  0  0
    2.2380   -4.8363   -7.6929 C   0  0  2  0  0  0  0  0  0  0  0  0
    0.0650   -3.7681   -3.0795 C   0  0  0  0  0  0  0  0  0  0  0  0
   -3.3804   -8.7721   -4.2810 C   0  0  0  0  0  0  0  0  0  0  0  0
    1.3530   -1.6301   -8.9380 C   0  0  0  0  0  0  0  0  0  0  0  0
    1.2845   -3.8953   -6.3721 C   0  0  0  0  0  0  0  0  0  0  0  0
    2.7034   -3.6982   -6.9441 C   0  0  0  0  0  0  0  0  0  0  0  0
    4.0225   -3.7852   -5.2131 C   0  0  0  0  0  0  0  0  0  0  0  0
    2.4863   -3.2456  -10.7096 C   0  0  0  0  0  0  0  0  0  0  0  0
    3.3555   -2.0326   -9.7929 C   0  0  2  0  0  0  0  0  0  0  0  0
   -0.0474   -6.4038  -12.4630 C   0  0  0  0  0  0  0  0  0  0  0  0
    5.0413   -4.5946   -5.1919 C   0  0  0  0  0  0  0  0  0  0  0  0
    3.6652   -2.3620   -4.0619 C   0  0  0  0  0  0  0  0  0  0  0  0
    4.4116   -2.9412   -9.5513 C   0  0  0  0  0  0  0  0  0  0  0  0
    5.1863   -4.2967   -3.9803 C   0  0  0  0  0  0  0  0  0  0  0  0
    3.4020   -2.5498   -2.8783 C   0  0  0  0  0  0  0  0  0  0  0  0
    4.4000   -3.3875   -2.9841 C   0  0  0  0  0  0  0  0  0  0  0  0
    3.7881   -0.3931   -7.1681 C   0  0  0  0  0  0  0  0  0  0  0  0
    5.0943   -1.5945   -6.9575 C   0  0  0  0  0  0  0  0  0  0  0  0
   -0.4753   -3.2735   -2.2226 H   0  0  0  0  0  0  0  0  0  0  0  0
    0.6405   -0.8605  -10.7255 H   0  0  0  0  0  0  0  0  0  0  0  0
    4.0454   -4.3505  -10.5532 H   0  0  0  0  0  0  0  0  0  0  0  0
    5.6431   -3.9120   -1.9512 H   0  0  0  0  0  0  0  0  0  0  0  0
   -1.4284   -4.6007   -4.3443 H   0  0  0  0  0  0  0  0  0  0  0  0
    1.2840   -7.9424   -4.4353 H   0  0  0  0  0  0  0  0  0  0  0  0
   -3.3436   -3.2424   -5.1795 H   0  0  0  0  0  0  0  0  0  0  0  0
   -3.5752   -1.5932   -4.6678 H   0  0  0  0  0  0  0  0  0  0  0  0
   -1.5809   -9.2683  -11.7168 H   0  0  0  0  0  0  0  0  0  0  0  0
   -0.9094   -8.2876  -11.1003 H   0  0  0  0  0  0  0  0  0  0  0  0
   -0.0397   -3.8427   -6.1337 H   0  0  0  0  0  0  0  0  0  0  0  0
   -2.2439   -6.8491   -7.7811 H   0  0  0  0  0  0  0  0  0  0  0  0
    3.3687   -7.6796   -8.7082 H   0  0  0  0  0  0  0  0  0  0  0  0
    0.9355   -1.8672  -12.6503 H   0  0  0  0  0  0  0  0  0  0  0  0
   -1.9181   -6.4721  -12.1154 H   0  0  0  0  0  0  0  0  0  0  0  0
    0.0302   -8.3610   -7.0391 H   0  0  0  0  0  0  0  0  0  0  0  0
    0.8382  -10.4238  -12.0341 H   0  0  0  0  0  0  0  0  0  0  0  0
   -3.6908   -6.9824   -7.3821 H   0  0  0  0  0  0  0  0  0  0  0  0
   -3.2001   -2.7604  -10.3099 H   0  0  0  0  0  0  0  0  0  0  0  0
   -4.6827   -9.1370   -5.9228 H   0  0  0  0  0  0  0  0  0  0  0  0
   -1.2431   -2.3602   -6.3789 H   0  0  0  0  0  0  0  0  0  0  0  0
    0.7639  -12.7903  -14.1782 H   0  0  0  0  0  0  0  0  0  0  0  0
    1.7234  -11.5171  -13.5042 H   0  0  0  0  0  0  0  0  0  0  0  0
   -1.4194  -13.1468  -13.2310 H   0  0  0  0  0  0  0  0  0  0  0  0
    1.3678   -4.6369  -10.3044 H   0  0  0  0  0  0  0  0  0  0  0  0
    2.3650   -0.1350   -8.3685 H   0  0  0  0  0  0  0  0  0  0  0  0
    2.9685   -4.8416   -3.8780 H   0  0  0  0  0  0  0  0  0  0  0  0
    1.4906   -1.5201   -5.0940 H   0  0  0  0  0  0  0  0  0  0  0  0
    1.8018   -2.4219   -4.0452 H   0  0  0  0  0  0  0  0  0  0  0  0
    3.1710   -1.8105   -6.7049 H   0  0  0  0  0  0  0  0  0  0  0  0
    3.9494   -1.7491   -5.5806 H   0  0  0  0  0  0  0  0  0  0  0  0
    3.9435   -4.8239   -8.0515 H   0  0  0  0  0  0  0  0  0  0  0  0
    5.1890   -4.3443   -7.2828 H   0  0  0  0  0  0  0  0  0  0  0  0
    1.9571   -8.9471   -6.9818 H   0  0  0  0  0  0  0  0  0  0  0  0
   -0.1480   -7.4867   -8.8617 H   0  0  0  0  0  0  0  0  0  0  0  0
   -0.0210   -6.5504   -8.6712 H   0  0  0  0  0  0  0  0  0  0  0  0
   -0.6336   -2.7058   -4.8210 H   0  0  0  0  0  0  0  0  0  0  0  0
    0.4646   -7.3710  -10.7644 H   0  0  0  0  0  0  0  0  0  0  0  0
    2.5839   -7.5719  -10.4869 H   0  0  0  0  0  0  0  0  0  0  0  0
   -1.9632   -3.5623   -7.5999 H   0  0  0  0  0  0  0  0  0  0  0  0
    2.3313   -8.6876  -11.4251 H   0  0  0  0  0  0  0  0  0  0  0  0
    2.5138   -9.0691   -9.5940 H   0  0  0  0  0  0  0  0  0  0  0  0
   -3.9337   -3.0123   -6.7978 H   0  0  0  0  0  0  0  0  0  0  0  0
   -3.9286   -4.1911   -8.1406 H   0  0  0  0  0  0  0  0  0  0  0  0
   -3.6400   -4.7544   -6.5840 H   0  0  0  0  0  0  0  0  0  0  0  0
   -1.7062   -1.8964   -8.1370 H   0  0  0  0  0  0  0  0  0  0  0  0
   -1.8516   -2.2469   -8.6450 H   0  0  0  0  0  0  0  0  0  0  0  0
   -2.3364   -1.3177   -7.1386 H   0  0  0  0  0  0  0  0  0  0  0  0
    0.7471  -10.3989  -10.4757 H   0  0  0  0  0  0  0  0  0  0  0  0
   -0.3012   -9.6188   -9.9745 H   0  0  0  0  0  0  0  0  0  0  0  0
   -2.2195   -4.6563   -5.8039 H   0  0  0  0  0  0  0  0  0  0  0  0
   -0.5760   -5.4598   -6.9487 H   0  0  0  0  0  0  0  0  0  0  0  0
   -0.7022   -6.8114   -9.9708 H   0  0  0  0  0  0  0  0  0  0  0  0
   -3.2224   -5.5334  -11.2762 H   0  0  0  0  0  0  0  0  0  0  0  0
   -3.3853   -4.0251   -9.7322 H   0  0  0  0  0  0  0  0  0  0  0  0
   -0.1258   -8.4102   -9.6878 H   0  0  0  0  0  0  0  0  0  0  0  0
    1.8492  -10.4669   -9.3395 H   0  0  0  0  0  0  0  0  0  0  0  0
    1.2830  -10.1429   -7.6576 H   0  0  0  0  0  0  0  0  0  0  0  0
    0.4052   -3.3618  -11.3337 H   0  0  0  0  0  0  0  0  0  0  0  0
    0.0698  -12.0636   -8.9524 H   0  0  0  0  0  0  0  0  0  0  0  0
   -1.1847  -10.9057   -8.4139 H   0  0  0  0  0  0  0  0  0  0  0  0
    0.1719   -4.8562  -11.3230 H   0  0  0  0  0  0  0  0  0  0  0  0
   -4.3700   -2.3915  -10.9311 H   0  0  0  0  0  0  0  0  0  0  0  0
   -2.1481  -11.1919  -10.8372 H   0  0  0  0  0  0  0  0  0  0  0  0
   -1.6359  -10.0326  -10.3416 H   0  0  0  0  0  0  0  0  0  0  0  0
   -2.1261   -4.5137   -8.5449 H   0  0  0  0  0  0  0  0  0  0  0  0
   -1.5240   -5.3850   -8.1848 H   0  0  0  0  0  0  0  0  0  0  0  0
   -0.9737    0.0669  -13.6873 H   0  0  0  0  0  0  0  0  0  0  0  0
   -3.1468   -7.5374   -8.7065 H   0  0  0  0  0  0  0  0  0  0  0  0
   -4.9562   -0.4869  -11.8774 H   0  0  0  0  0  0  0  0  0  0  0  0
   -3.3823    0.7434  -13.3826 H   0  0  0  0  0  0  0  0  0  0  0  0
   -3.9164   -8.9541   -8.3931 H   0  0  0  0  0  0  0  0  0  0  0  0
   -2.5445   -9.9543   -8.2554 H   0  0  0  0  0  0  0  0  0  0  0  0
   -1.9237   -5.1972   -7.0097 H   0  0  0  0  0  0  0  0  0  0  0  0
   -3.0905   -5.3622   -4.7401 H   0  0  0  0  0  0  0  0  0  0  0  0
   -2.5843   -7.0530   -5.1195 H   0  0  0  0  0  0  0  0  0  0  0  0
   -1.1973   -4.2506  -10.5844 H   0  0  0  0  0  0  0  0  0  0  0  0
   -0.7903   -3.6851   -7.0291 H   0  0  0  0  0  0  0  0  0  0  0  0
   -0.5822   -2.0120  -10.5106 H   0  0  0  0  0  0  0  0  0  0  0  0
   -0.4798   -3.8883   -8.1367 H   0  0  0  0  0  0  0  0  0  0  0  0
    0.5978   -3.4535   -9.7869 H   0  0  0  0  0  0  0  0  0  0  0  0
   -0.5584   -5.7459   -2.3600 H   0  0  0  0  0  0  0  0  0  0  0  0
    0.1226   -6.0660   -4.3314 H   0  0  0  0  0  0  0  0  0  0  0  0
   -0.4904   -0.4763   -6.8211 H   0  0  0  0  0  0  0  0  0  0  0  0
   -0.7641   -9.0104   -5.6181 H   0  0  0  0  0  0  0  0  0  0  0  0
    0.7424   -6.1283   -7.8298 H   0  0  0  0  0  0  0  0  0  0  0  0
    1.6294   -6.2357   -8.1215 H   0  0  0  0  0  0  0  0  0  0  0  0
    0.7999   -2.4027   -5.5579 H   0  0  0  0  0  0  0  0  0  0  0  0
    1.2484    0.1413   -9.4492 H   0  0  0  0  0  0  0  0  0  0  0  0
    1.2223   -0.0654   -6.4402 H   0  0  0  0  0  0  0  0  0  0  0  0
    2.7523   -5.5561   -7.6753 H   0  0  0  0  0  0  0  0  0  0  0  0
   -3.9502   -8.6054   -3.4315 H   0  0  0  0  0  0  0  0  0  0  0  0
    1.9998   -2.2974   -8.6838 H   0  0  0  0  0  0  0  0  0  0  0  0
    1.3866   -2.4513   -9.5032 H   0  0  0  0  0  0  0  0  0  0  0  0
    3.3836   -3.1253   -7.8484 H   0  0  0  0  0  0  0  0  0  0  0  0
    2.6670   -2.7156   -7.5524 H   0  0  0  0  0  0  0  0  0  0  0  0
    3.2827   -1.3823  -10.5966 H   0  0  0  0  0  0  0  0  0  0  0  0
    0.2940   -6.7267  -13.3110 H   0  0  0  0  0  0  0  0  0  0  0  0
   -0.6057   -7.2966  -12.2697 H   0  0  0  0  0  0  0  0  0  0  0  0
   -0.7367   -5.4676  -12.3754 H   0  0  0  0  0  0  0  0  0  0  0  0
    5.2927   -5.3888   -5.8964 H   0  0  0  0  0  0  0  0  0  0  0  0
    2.7608   -1.3716   -4.4732 H   0  0  0  0  0  0  0  0  0  0  0  0
    4.9229   -2.1945   -9.1260 H   0  0  0  0  0  0  0  0  0  0  0  0
    4.4996   -3.6501   -8.8182 H   0  0  0  0  0  0  0  0  0  0  0  0
    5.9258   -5.0005   -3.8760 H   0  0  0  0  0  0  0  0  0  0  0  0
    2.6559   -1.8669   -2.5874 H   0  0  0  0  0  0  0  0  0  0  0  0
    4.7875   -2.6275   -7.2174 H   0  0  0  0  0  0  0  0  0  0  0  0
    5.4498   -1.5912   -7.8816 H   0  0  0  0  0  0  0  0  0  0  0  0
    5.3961   -2.0692   -5.9836 H   0  0  0  0  0  0  0  0  0  0  0  0
  1 96  1  0  0  0  0
  1110  1  0  0  0  0
  2 46  2  0  0  0  0
  3 47  2  0  0  0  0
  4 54  2  0  0  0  0
  5 57  2  0  0  0  0
  6 61  2  0  0  0  0
  7 65  2  0  0  0  0
  8 72  2  0  0  0  0
  9 79  2  0  0  0  0
 10 84  2  0  0  0  0
 11 88  2  0  0  0  0
 12 99  2  0  0  0  0
 13102  1  0  0  0  0
 13119  1  0  0  0  0
 14104  1  0  0  0  0
 14120  1  0  0  0  0
 15102  2  0  0  0  0
 16105  2  0  0  0  0
 17108  2  0  0  0  0
 18113  1  0  0  0  0
 18121  1  0  0  0  0
 19116  1  0  0  0  0
 19122  1  0  0  0  0
 20117  2  0  0  0  0
 21 42  1  0  0  0  0
 21 45  1  0  0  0  0
 21 46  1  0  0  0  0
 22 47  1  0  0  0  0
 22123  1  0  0  0  0
 23 57  1  0  0  0  0
 23124  1  0  0  0  0
 24 54  1  0  0  0  0
 24125  1  0  0  0  0
 24126  1  0  0  0  0
 25 58  1  0  0  0  0
 25127  1  0  0  0  0
 25128  1  0  0  0  0
 26 59  1  0  0  0  0
 26 61  1  0  0  0  0
 26129  1  0  0  0  0
 27 65  1  0  0  0  0
 27130  1  0  0  0  0
 28 72  1  0  0  0  0
 28131  1  0  0  0  0
 29 68  1  0  0  0  0
 29 69  1  0  0  0  0
 29132  1  0  0  0  0
 30 79  1  0  0  0  0
 30133  1  0  0  0  0
 31 77  1  0  0  0  0
 31 84  1  0  0  0  0
 31134  1  0  0  0  0
 32 74  1  0  0  0  0
 32 93  1  0  0  0  0
 32135  1  0  0  0  0
 33 88  1  0  0  0  0
 33136  1  0  0  0  0
 34 99  1  0  0  0  0
 34137  1  0  0  0  0
 35 87  1  0  0  0  0
 35103  1  0  0  0  0
 35138  1  0  0  0  0
 36105  1  0  0  0  0
 36139  1  0  0  0  0
 37 95  1  0  0  0  0
 37103  2  0  0  0  0
 38 93  1  0  0  0  0
 38140  1  0  0  0  0
 38141  1  0  0  0  0
 39 93  2  0  0  0  0
 39142  1  0  0  0  0
 40108  1  0  0  0  0
 40143  1  0  0  0  0
 41117  1  0  0  0  0
 41144  1  0  0  0  0
 42 43  1  0  0  0  0
 42145  1  1  0  0  0
 42 47  1  0  0  0  0
 43 44  1  0  0  0  0
 43146  1  0  0  0  0
 43147  1  0  0  0  0
 44 45  1  0  0  0  0
 44148  1  0  0  0  0
 44149  1  0  0  0  0
 45150  1  0  0  0  0
 45151  1  0  0  0  0
 48 49  1  0  0  0  0
 48152  1  6  0  0  0
 48 46  1  0  0  0  0
 48 23  1  0  0  0  0
 49 51  1  0  0  0  0
 49153  1  0  0  0  0
 49154  1  0  0  0  0
 50 22  1  0  0  0  0
 50 52  1  0  0  0  0
 50 54  1  0  0  0  0
 50155  1  6  0  0  0
 51 53  1  0  0  0  0
 51156  1  0  0  0  0
 51157  1  0  0  0  0
 52 55  1  0  0  0  0
 52 56  1  0  0  0  0
 52158  1  0  0  0  0
 53 58  1  0  0  0  0
 53159  1  0  0  0  0
 53160  1  0  0  0  0
 55161  1  0  0  0  0
 55162  1  0  0  0  0
 55163  1  0  0  0  0
 56164  1  0  0  0  0
 56165  1  0  0  0  0
 56166  1  0  0  0  0
 57 59  1  0  0  0  0
 58167  1  0  0  0  0
 58168  1  0  0  0  0
 59169  1  0  0  0  0
 59170  1  0  0  0  0
 60 62  1  0  0  0  0
 60171  1  6  0  0  0
 60 61  1  0  0  0  0
 60 27  1  0  0  0  0
 62 63  1  0  0  0  0
 62172  1  0  0  0  0
 62173  1  0  0  0  0
 63 67  1  0  0  0  0
 63 68  2  0  0  0  0
 64 66  1  0  0  0  0
 64174  1  6  0  0  0
 64 65  1  0  0  0  0
 64 28  1  0  0  0  0
 66 70  1  0  0  0  0
 66175  1  0  0  0  0
 66176  1  0  0  0  0
 67 69  1  0  0  0  0
 67 73  2  0  0  0  0
 68177  1  0  0  0  0
 69 76  2  0  0  0  0
 70 74  1  0  0  0  0
 70178  1  0  0  0  0
 70179  1  0  0  0  0
 71 75  1  0  0  0  0
 71180  1  6  0  0  0
 71 72  1  0  0  0  0
 71 30  1  0  0  0  0
 73 78  1  0  0  0  0
 73181  1  0  0  0  0
 74182  1  0  0  0  0
 74183  1  0  0  0  0
 75 83  1  0  0  0  0
 75184  1  0  0  0  0
 75185  1  0  0  0  0
 76 80  1  0  0  0  0
 76186  1  0  0  0  0
 77 79  1  0  0  0  0
 77 81  1  0  0  0  0
 77187  1  0  0  0  0
 78 80  2  0  0  0  0
 78188  1  0  0  0  0
 80189  1  0  0  0  0
 81 87  1  0  0  0  0
 81190  1  0  0  0  0
 81191  1  0  0  0  0
 82 85  1  0  0  0  0
 82192  1  6  0  0  0
 82 84  1  0  0  0  0
 82 33  1  0  0  0  0
 83 89  2  0  0  0  0
 83 90  1  0  0  0  0
 85 92  1  0  0  0  0
 85193  1  0  0  0  0
 85194  1  0  0  0  0
 86 91  1  0  0  0  0
 86195  1  6  0  0  0
 86 88  1  0  0  0  0
 86 34  1  0  0  0  0
 87 95  2  0  0  0  0
 89 97  1  0  0  0  0
 89196  1  0  0  0  0
 90 98  2  0  0  0  0
 90197  1  0  0  0  0
 91 96  1  0  0  0  0
 91198  1  0  0  0  0
 91199  1  0  0  0  0
 92102  1  0  0  0  0
 92200  1  0  0  0  0
 92201  1  0  0  0  0
 94 36  1  0  0  0  0
 94 99  1  0  0  0  0
 94104  1  0  0  0  0
 94202  1  1  0  0  0
 95203  1  0  0  0  0
 96204  1  0  0  0  0
 96205  1  0  0  0  0
 97100  2  0  0  0  0
 97206  1  0  0  0  0
 98100  1  0  0  0  0
 98207  1  0  0  0  0
100208  1  0  0  0  0
101 40  1  0  0  0  0
101105  1  0  0  0  0
101106  1  0  0  0  0
101209  1  1  0  0  0
103210  1  0  0  0  0
104211  1  0  0  0  0
104212  1  0  0  0  0
106107  1  0  0  0  0
106213  1  0  0  0  0
106214  1  0  0  0  0
107111  2  0  0  0  0
107112  1  0  0  0  0
108109  1  0  0  0  0
109 41  1  0  0  0  0
109113  1  0  0  0  0
109215  1  6  0  0  0
110216  1  0  0  0  0
110217  1  0  0  0  0
110218  1  0  0  0  0
111114  1  0  0  0  0
111219  1  0  0  0  0
112115  2  0  0  0  0
112220  1  0  0  0  0
113221  1  0  0  0  0
113222  1  0  0  0  0
114116  2  0  0  0  0
114223  1  0  0  0  0
115116  1  0  0  0  0
115224  1  0  0  0  0
117118  1  0  0  0  0
118225  1  0  0  0  0
118226  1  0  0  0  0
118227  1  0  0  0  0
M  END
>  <DRUGBANK_ID>
DB05479

>  <COMMON_NAME>
CZEN 002

$$$$
