694
 OpenBabel10282417103D

 67 71  0  0  1  0  0  0  0  0999 V2000
   -0.9487    0.1042    1.2759 O   0  0  0  0  0  0  0  0  0  0  0  0
   -0.8408    1.2143   -0.8849 O   0  0  0  0  0  0  0  0  0  0  0  0
   -0.7394    0.6449    4.1576 O   0  0  0  0  0  0  0  0  0  0  0  0
    0.3645    3.9271   -1.2722 O   0  0  0  0  0  0  0  0  0  0  0  0
    0.5069   -2.3347    0.0964 O   0  0  0  0  0  0  0  0  0  0  0  0
    2.4451   -2.4235    5.2967 O   0  0  0  0  0  0  0  0  0  0  0  0
   -0.0751    3.2603    4.4902 O   0  0  0  0  0  0  0  0  0  0  0  0
    0.8626   -4.5934    0.0764 O   0  0  0  0  0  0  0  0  0  0  0  0
    2.7282   -4.9217    4.9877 O   0  0  0  0  0  0  0  0  0  0  0  0
    1.2130   -7.5594   -0.3247 O   0  0  0  0  0  0  0  0  0  0  0  0
    1.1110    4.1076    1.6849 N   0  0  0  0  0  0  0  0  0  0  0  0
    0.4124   -0.0558    1.6239 C   0  0  1  0  0  0  0  0  0  0  0  0
    0.6353    0.9739    3.9682 C   0  0  2  0  0  0  0  0  0  0  0  0
    0.9670    0.9660    2.5331 C   0  0  0  0  0  0  0  0  0  0  0  0
    1.5551   -0.0951    4.4252 C   0  0  0  0  0  0  0  0  0  0  0  0
    0.8246   -1.3259    2.2406 C   0  0  0  0  0  0  0  0  0  0  0  0
    1.3902   -1.3388    3.5505 C   0  0  0  0  0  0  0  0  0  0  0  0
   -1.2796    1.2859    0.4895 C   0  0  2  0  0  0  0  0  0  0  0  0
   -0.9211    2.6649    1.1079 C   0  0  0  0  0  0  0  0  0  0  0  0
    0.5982    3.0352    0.8437 C   0  0  1  0  0  0  0  0  0  0  0  0
    0.9933    2.8751   -0.5862 C   0  0  1  0  0  0  0  0  0  0  0  0
    0.5434    1.4988   -1.1107 C   0  0  2  0  0  0  0  0  0  0  0  0
    0.8531   -2.4251    1.4249 C   0  0  0  0  0  0  0  0  0  0  0  0
    0.8514    2.4411    4.4636 C   0  0  0  0  0  0  0  0  0  0  0  0
    1.9116   -2.4992    4.0470 C   0  0  0  0  0  0  0  0  0  0  0  0
    1.3499   -3.5952    1.9853 C   0  0  0  0  0  0  0  0  0  0  0  0
    1.8536   -3.6431    3.2789 C   0  0  0  0  0  0  0  0  0  0  0  0
    0.9861    1.3796   -2.5457 C   0  0  0  0  0  0  0  0  0  0  0  0
    2.2387    2.9013    4.8116 C   0  0  0  0  0  0  0  0  0  0  0  0
    1.3080   -4.7917    1.2094 C   0  0  0  0  0  0  0  0  0  0  0  0
    2.3017   -4.9070    3.8347 C   0  0  0  0  0  0  0  0  0  0  0  0
    1.7162   -6.1018    1.6984 C   0  0  0  0  0  0  0  0  0  0  0  0
    2.2107   -6.1281    3.0204 C   0  0  0  0  0  0  0  0  0  0  0  0
    1.6450   -7.2957    0.9554 C   0  0  0  0  0  0  0  0  0  0  0  0
    2.6353   -7.3123    3.6163 C   0  0  0  0  0  0  0  0  0  0  0  0
    2.0833   -8.4740    1.5825 C   0  0  0  0  0  0  0  0  0  0  0  0
    2.5722   -8.4881    2.8918 C   0  0  0  0  0  0  0  0  0  0  0  0
    0.7221   -6.5098   -1.1416 C   0  0  0  0  0  0  0  0  0  0  0  0
   -0.9221   -0.2310    3.7780 H   0  0  0  0  0  0  0  0  0  0  0  0
   -0.5866    3.7661   -1.1311 H   0  0  0  0  0  0  0  0  0  0  0  0
   -0.0141   -1.5676   -0.1941 H   0  0  0  0  0  0  0  0  0  0  0  0
    2.6700   -3.3329    5.5821 H   0  0  0  0  0  0  0  0  0  0  0  0
    2.1306    4.0715    1.7164 H   0  0  0  0  0  0  0  0  0  0  0  0
    0.8413    5.0137    1.3282 H   0  0  0  0  0  0  0  0  0  0  0  0
    0.9863   -0.0822    0.7218 H   0  0  0  0  0  0  0  0  0  0  0  0
    0.3717    1.7918    2.3774 H   0  0  0  0  0  0  0  0  0  0  0  0
    2.0418    1.1102    2.3116 H   0  0  0  0  0  0  0  0  0  0  0  0
    2.6006    0.2374    4.3257 H   0  0  0  0  0  0  0  0  0  0  0  0
    1.3093   -0.3008    5.4599 H   0  0  0  0  0  0  0  0  0  0  0  0
   -2.3797    1.2444    0.4585 H   0  0  0  0  0  0  0  0  0  0  0  0
   -1.5501    3.4528    0.6867 H   0  0  0  0  0  0  0  0  0  0  0  0
   -1.2158    2.6538    2.1736 H   0  0  0  0  0  0  0  0  0  0  0  0
    1.3320    2.3013    1.1068 H   0  0  0  0  0  0  0  0  0  0  0  0
    2.0923    2.9179   -0.6576 H   0  0  0  0  0  0  0  0  0  0  0  0
    1.1244    0.6867   -0.7043 H   0  0  0  0  0  0  0  0  0  0  0  0
    0.3891    0.6610   -3.1009 H   0  0  0  0  0  0  0  0  0  0  0  0
    0.9744    2.3542   -3.0302 H   0  0  0  0  0  0  0  0  0  0  0  0
    2.0362    1.0486   -2.5338 H   0  0  0  0  0  0  0  0  0  0  0  0
    2.6380    2.2313    5.5704 H   0  0  0  0  0  0  0  0  0  0  0  0
    2.8953    2.9407    3.9378 H   0  0  0  0  0  0  0  0  0  0  0  0
    2.1740    3.9071    5.2401 H   0  0  0  0  0  0  0  0  0  0  0  0
    3.0132   -7.3147    4.6375 H   0  0  0  0  0  0  0  0  0  0  0  0
    2.0418   -9.4107    1.0299 H   0  0  0  0  0  0  0  0  0  0  0  0
    2.9037   -9.4177    3.3445 H   0  0  0  0  0  0  0  0  0  0  0  0
   -0.1991   -6.1100   -0.6916 H   0  0  0  0  0  0  0  0  0  0  0  0
    1.5441   -5.8082   -1.3474 H   0  0  0  0  0  0  0  0  0  0  0  0
    0.4070   -6.8302   -2.1327 H   0  0  0  0  0  0  0  0  0  0  0  0
  2 18  1  0  0  0  0
  2 22  1  0  0  0  0
  3 39  1  0  0  0  0
  4 40  1  0  0  0  0
  5 23  1  0  0  0  0
  5 41  1  0  0  0  0
  6 25  1  0  0  0  0
  6 42  1  0  0  0  0
  7 24  2  0  0  0  0
  8 30  2  0  0  0  0
  9 31  2  0  0  0  0
 10 34  1  0  0  0  0
 10 38  1  0  0  0  0
 11 43  1  0  0  0  0
 11 44  1  0  0  0  0
 12 14  1  0  0  0  0
 12 16  1  0  0  0  0
 12 45  1  6  0  0  0
 12  1  1  0  0  0  0
 13 14  1  0  0  0  0
 13 15  1  0  0  0  0
 13 24  1  1  0  0  0
 13  3  1  0  0  0  0
 14 46  1  0  0  0  0
 14 47  1  0  0  0  0
 15 17  1  0  0  0  0
 15 48  1  0  0  0  0
 15 49  1  0  0  0  0
 16 17  2  0  0  0  0
 16 23  1  0  0  0  0
 17 25  1  0  0  0  0
 18  1  1  0  0  0  0
 18 19  1  0  0  0  0
 18 50  1  6  0  0  0
 19 20  1  0  0  0  0
 19 51  1  0  0  0  0
 19 52  1  0  0  0  0
 20 11  1  0  0  0  0
 20 21  1  0  0  0  0
 20 53  1  1  0  0  0
 21  4  1  0  0  0  0
 21 22  1  0  0  0  0
 21 54  1  6  0  0  0
 22 55  1  1  0  0  0
 22 28  1  0  0  0  0
 23 26  2  0  0  0  0
 24 29  1  0  0  0  0
 25 27  2  0  0  0  0
 26 27  1  0  0  0  0
 26 30  1  0  0  0  0
 27 31  1  0  0  0  0
 28 56  1  0  0  0  0
 28 57  1  0  0  0  0
 28 58  1  0  0  0  0
 29 59  1  0  0  0  0
 29 60  1  0  0  0  0
 29 61  1  0  0  0  0
 30 32  1  0  0  0  0
 31 33  1  0  0  0  0
 32 33  2  0  0  0  0
 32 34  1  0  0  0  0
 33 35  1  0  0  0  0
 34 36  2  0  0  0  0
 35 37  2  0  0  0  0
 35 62  1  0  0  0  0
 36 37  1  0  0  0  0
 36 63  1  0  0  0  0
 37 64  1  0  0  0  0
 38 65  1  0  0  0  0
 38 66  1  0  0  0  0
 38 67  1  0  0  0  0
M  END
>  <DRUGBANK_ID>
DB00694

>  <SECONDARY_ACCESSION_NUMBERS>
APRD00521

>  <COMMON_NAME>
Daunorubicin

>  <CAS_NUMBER>
20830-81-3

>  <UNII>
ZS7284E0ZP

>  <SYNONYMS>
(+)-Daunomycin; (8S-cis)-8-acetyl-10-((3-amino-2,3,6-trideoxy-Î±-L-lyxo-hexopyrannosyl)oxy)-7,8,9,10-tetrahydro-6,8,11-trihydroxy-1-methoxy-5,12-napthacenedione; Acetyladriamycin; Daunomycin; Daunorubicin; Daunorubicin liposomal; Daunorubicina; Daunorubicine; Daunorubicinum; Leukaemomycin C; Rubidomycin

$$$$
