
 OpenBabel10282417113D

 60 63  0  0  0  0  0  0  0  0999 V2000
    2.4225    0.4097    0.4828 C   0  0  0  0  0  0  0  0  0  0  0  0
    1.2960    0.1183   -0.6455 C   0  0  2  0  0  0  0  0  0  0  0  0
    0.2974    1.2989   -0.6634 C   0  0  0  0  0  0  0  0  0  0  0  0
   -0.8796    1.1809    0.2328 N   0  0  3  0  0  0  0  0  0  0  0  0
   -1.7818    0.1462   -0.3008 C   0  0  0  0  0  0  0  0  0  0  0  0
   -1.0686   -1.1943   -0.2377 C   0  0  0  0  0  0  0  0  0  0  0  0
    0.4225   -1.2593   -0.8271 C   0  0  1  0  0  0  0  0  0  0  0  0
   -0.0687   -1.3705   -2.3284 C   0  0  0  0  0  0  0  0  0  0  0  0
   -0.0161   -2.3037   -3.1083 O   0  0  0  0  0  0  0  0  0  0  0  0
   -0.8276   -0.3401   -2.7507 O   0  0  0  0  0  0  0  0  0  0  0  0
    1.2829   -2.5077   -0.3678 C   0  0  0  0  0  0  0  0  0  0  0  0
    1.9284   -2.6410    0.8873 C   0  0  0  0  0  0  0  0  0  0  0  0
    2.5874   -3.7897    1.3359 C   0  0  0  0  0  0  0  0  0  0  0  0
    2.6886   -4.8686    0.4932 C   0  0  0  0  0  0  0  0  0  0  0  0
    2.1129   -4.7837   -0.7610 C   0  0  0  0  0  0  0  0  0  0  0  0
    1.4869   -3.6104   -1.1931 C   0  0  0  0  0  0  0  0  0  0  0  0
   -0.5318    1.0840    1.6902 C   0  0  2  0  0  0  0  0  0  0  0  0
    0.2642   -0.1704    2.1772 C   0  0  0  0  0  0  0  0  0  0  0  0
   -0.2846   -1.5438    2.5473 C   0  0  0  0  0  0  0  0  0  0  0  0
   -1.6220   -1.3504    3.1771 C   0  0  1  0  0  0  0  0  0  0  0  0
   -2.4700   -0.0920    2.8239 C   0  0  0  0  0  0  0  0  0  0  0  0
   -1.7345    1.2370    2.6142 C   0  0  0  0  0  0  0  0  0  0  0  0
   -2.4888   -2.5233    2.8241 C   0  0  0  0  0  0  0  0  0  0  0  0
   -3.1973   -3.3587    2.5001 N   0  0  0  0  0  0  0  0  0  0  0  0
   -1.1543   -1.2043    4.5957 C   0  0  0  0  0  0  0  0  0  0  0  0
   -0.3502   -0.1036    4.9985 C   0  0  0  0  0  0  0  0  0  0  0  0
   -0.0325    0.1314    6.2989 C   0  0  0  0  0  0  0  0  0  0  0  0
   -0.5068   -0.7744    7.2090 C   0  0  0  0  0  0  0  0  0  0  0  0
   -0.2255   -0.5770    8.4949 F   0  0  0  0  0  0  0  0  0  0  0  0
   -1.2431   -1.9007    6.8279 C   0  0  0  0  0  0  0  0  0  0  0  0
   -1.4873   -2.1764    5.5047 C   0  0  0  0  0  0  0  0  0  0  0  0
    2.9732    1.3230    0.2639 H   0  0  0  0  0  0  0  0  0  0  0  0
    2.1225    0.7013    1.4917 H   0  0  0  0  0  0  0  0  0  0  0  0
    3.1088   -0.4230    0.6436 H   0  0  0  0  0  0  0  0  0  0  0  0
    1.9246    0.1351   -1.5398 H   0  0  0  0  0  0  0  0  0  0  0  0
    0.8219    2.2409   -0.4870 H   0  0  0  0  0  0  0  0  0  0  0  0
   -0.0751    1.4147   -1.6840 H   0  0  0  0  0  0  0  0  0  0  0  0
   -2.2147    0.3498   -1.2771 H   0  0  0  0  0  0  0  0  0  0  0  0
   -2.6996    0.1452    0.2814 H   0  0  0  0  0  0  0  0  0  0  0  0
   -1.6517   -2.1165   -0.3705 H   0  0  0  0  0  0  0  0  0  0  0  0
   -1.1195   -1.1819    0.7975 H   0  0  0  0  0  0  0  0  0  0  0  0
   -1.2619   -0.6551   -3.5693 H   0  0  0  0  0  0  0  0  0  0  0  0
    1.9709   -1.8601    1.6290 H   0  0  0  0  0  0  0  0  0  0  0  0
    2.9969   -3.8180    2.3437 H   0  0  0  0  0  0  0  0  0  0  0  0
    3.2314   -5.7551    0.7936 H   0  0  0  0  0  0  0  0  0  0  0  0
    2.1340   -5.6300   -1.4378 H   0  0  0  0  0  0  0  0  0  0  0  0
    1.2069   -3.6273   -2.2331 H   0  0  0  0  0  0  0  0  0  0  0  0
    0.1089    1.9681    1.8619 H   0  0  0  0  0  0  0  0  0  0  0  0
    1.0519    0.0971    2.8866 H   0  0  0  0  0  0  0  0  0  0  0  0
    0.7595   -0.4737    1.3147 H   0  0  0  0  0  0  0  0  0  0  0  0
    0.4597   -2.1202    3.1231 H   0  0  0  0  0  0  0  0  0  0  0  0
   -0.3284   -2.2769    1.7268 H   0  0  0  0  0  0  0  0  0  0  0  0
   -3.0883   -0.3128    1.9565 H   0  0  0  0  0  0  0  0  0  0  0  0
   -3.2183    0.0464    3.6077 H   0  0  0  0  0  0  0  0  0  0  0  0
   -1.3935    1.6139    3.5819 H   0  0  0  0  0  0  0  0  0  0  0  0
   -2.3997    2.0439    2.2908 H   0  0  0  0  0  0  0  0  0  0  0  0
    0.0573    0.6482    4.3379 H   0  0  0  0  0  0  0  0  0  0  0  0
    0.5240    1.0250    6.5521 H   0  0  0  0  0  0  0  0  0  0  0  0
   -1.6647   -2.5572    7.5698 H   0  0  0  0  0  0  0  0  0  0  0  0
   -1.9683   -3.0996    5.1913 H   0  0  0  0  0  0  0  0  0  0  0  0
  1 32  1  0  0  0  0
  1 33  1  0  0  0  0
  1 34  1  0  0  0  0
  2  1  1  0  0  0  0
  2  3  1  0  0  0  0
  2  7  1  0  0  0  0
  2 35  1  6  0  0  0
  3  4  1  0  0  0  0
  3 36  1  0  0  0  0
  3 37  1  0  0  0  0
  4  5  1  0  0  0  0
  5  6  1  0  0  0  0
  5 38  1  0  0  0  0
  5 39  1  0  0  0  0
  6  7  1  0  0  0  0
  6 40  1  0  0  0  0
  6 41  1  0  0  0  0
  7  8  1  6  0  0  0
  7 11  1  0  0  0  0
  8  9  2  0  0  0  0
  8 10  1  0  0  0  0
 10 42  1  0  0  0  0
 11 12  2  0  0  0  0
 11 16  1  0  0  0  0
 12 13  1  0  0  0  0
 12 43  1  0  0  0  0
 13 14  2  0  0  0  0
 13 44  1  0  0  0  0
 14 15  1  0  0  0  0
 14 45  1  0  0  0  0
 15 16  2  0  0  0  0
 15 46  1  0  0  0  0
 16 47  1  0  0  0  0
 17  4  1  0  0  0  0
 17 18  1  0  0  0  0
 17 22  1  0  0  0  0
 17 48  1  1  0  0  0
 18 19  1  0  0  0  0
 18 49  1  0  0  0  0
 18 50  1  0  0  0  0
 19 20  1  0  0  0  0
 19 51  1  0  0  0  0
 19 52  1  0  0  0  0
 20 21  1  0  0  0  0
 20 25  1  0  0  0  0
 20 23  1  6  0  0  0
 21 22  1  0  0  0  0
 21 53  1  0  0  0  0
 21 54  1  0  0  0  0
 22 55  1  0  0  0  0
 22 56  1  0  0  0  0
 23 24  3  0  0  0  0
 25 26  2  0  0  0  0
 25 31  1  0  0  0  0
 26 27  1  0  0  0  0
 26 57  1  0  0  0  0
 27 28  2  0  0  0  0
 27 58  1  0  0  0  0
 28 29  1  0  0  0  0
 28 30  1  0  0  0  0
 30 31  2  0  0  0  0
 30 59  1  0  0  0  0
 31 60  1  0  0  0  0
M  END
>  <DRUGBANK_ID>
DB01106

>  <SECONDARY_ACCESSION_NUMBERS>
APRD01069

>  <COMMON_NAME>
Levocabastine

>  <CAS_NUMBER>
79516-68-0

>  <UNII>
H68BP06S81

>  <SYNONYMS>
Levocabastina; Levocabastine; Levocabastinum

$$$$
