831
 OpenBabel10282417113D

 52 55  0  0  0  0  0  0  0  0999 V2000
    0.0695    1.8166    0.4423 S   0  0  0  0  0  0  0  0  0  0  0  0
    5.0968   -2.6881    0.3199 F   0  0  0  0  0  0  0  0  0  0  0  0
    4.2706   -2.9846   -1.6688 F   0  0  0  0  0  0  0  0  0  0  0  0
    5.7449   -1.4230   -1.3260 F   0  0  0  0  0  0  0  0  0  0  0  0
   -2.8712   -2.4235    2.2542 N   0  0  0  0  0  0  0  0  0  0  0  0
   -4.5629   -4.6185    1.2461 N   0  0  0  0  0  0  0  0  0  0  0  0
    0.0405   -1.2092    0.7329 N   0  0  0  0  0  0  0  0  0  0  0  0
   -2.7567   -3.7635    2.8205 C   0  0  0  0  0  0  0  0  0  0  0  0
   -4.2360   -2.1496    1.7982 C   0  0  0  0  0  0  0  0  0  0  0  0
   -2.2361   -1.3409    2.9882 C   0  0  0  0  0  0  0  0  0  0  0  0
   -3.1965   -4.8161    1.7761 C   0  0  0  0  0  0  0  0  0  0  0  0
   -4.6890   -3.2311    0.7682 C   0  0  0  0  0  0  0  0  0  0  0  0
   -0.7266   -1.5739    3.1397 C   0  0  0  0  0  0  0  0  0  0  0  0
   -0.0152   -2.1324    1.8853 C   0  0  0  0  0  0  0  0  0  0  0  0
   -5.5733   -4.8540    2.2652 C   0  0  0  0  0  0  0  0  0  0  0  0
    1.2926   -0.6873    0.3885 C   0  0  0  0  0  0  0  0  0  0  0  0
   -1.1161   -0.6754    0.1401 C   0  0  0  0  0  0  0  0  0  0  0  0
    1.4277    0.6913    0.1168 C   0  0  0  0  0  0  0  0  0  0  0  0
   -1.2715    0.7197   -0.0020 C   0  0  0  0  0  0  0  0  0  0  0  0
    2.3625   -1.5486    0.1132 C   0  0  0  0  0  0  0  0  0  0  0  0
   -2.0975   -1.4864   -0.4216 C   0  0  0  0  0  0  0  0  0  0  0  0
    3.5401   -1.0634   -0.4546 C   0  0  0  0  0  0  0  0  0  0  0  0
    2.5971    1.1800   -0.4436 C   0  0  0  0  0  0  0  0  0  0  0  0
   -2.4594    1.2692   -0.5006 C   0  0  0  0  0  0  0  0  0  0  0  0
    3.6476    0.3090   -0.7383 C   0  0  0  0  0  0  0  0  0  0  0  0
   -3.2666   -0.9304   -0.9673 C   0  0  0  0  0  0  0  0  0  0  0  0
   -3.4797    0.4396   -0.9396 C   0  0  0  0  0  0  0  0  0  0  0  0
    4.6519   -2.0232   -0.7826 C   0  0  0  0  0  0  0  0  0  0  0  0
   -1.7260   -4.0029    3.0978 H   0  0  0  0  0  0  0  0  0  0  0  0
   -3.3517   -3.8374    3.7345 H   0  0  0  0  0  0  0  0  0  0  0  0
   -4.9211   -2.1174    2.6496 H   0  0  0  0  0  0  0  0  0  0  0  0
   -4.3103   -1.1576    1.3429 H   0  0  0  0  0  0  0  0  0  0  0  0
   -2.3680   -0.3882    2.4613 H   0  0  0  0  0  0  0  0  0  0  0  0
   -2.7051   -1.1961    3.9677 H   0  0  0  0  0  0  0  0  0  0  0  0
   -2.4876   -4.7925    0.9321 H   0  0  0  0  0  0  0  0  0  0  0  0
   -3.0986   -5.8187    2.2045 H   0  0  0  0  0  0  0  0  0  0  0  0
   -4.0863   -3.2136   -0.1407 H   0  0  0  0  0  0  0  0  0  0  0  0
   -5.7076   -3.0132    0.4256 H   0  0  0  0  0  0  0  0  0  0  0  0
   -0.5777   -2.2846    3.9661 H   0  0  0  0  0  0  0  0  0  0  0  0
   -0.2421   -0.6448    3.4653 H   0  0  0  0  0  0  0  0  0  0  0  0
   -0.4241   -3.0961    1.5673 H   0  0  0  0  0  0  0  0  0  0  0  0
    1.0006   -2.3788    2.2299 H   0  0  0  0  0  0  0  0  0  0  0  0
   -5.4992   -4.1620    3.1087 H   0  0  0  0  0  0  0  0  0  0  0  0
   -6.5672   -4.7351    1.8226 H   0  0  0  0  0  0  0  0  0  0  0  0
   -5.4946   -5.8726    2.6476 H   0  0  0  0  0  0  0  0  0  0  0  0
    2.2413   -2.6233    0.2634 H   0  0  0  0  0  0  0  0  0  0  0  0
   -1.9831   -2.5679   -0.3719 H   0  0  0  0  0  0  0  0  0  0  0  0
    2.6820    2.2366   -0.6880 H   0  0  0  0  0  0  0  0  0  0  0  0
   -2.5900    2.3451   -0.5561 H   0  0  0  0  0  0  0  0  0  0  0  0
    4.5433    0.7049   -1.2052 H   0  0  0  0  0  0  0  0  0  0  0  0
   -4.0658   -1.5679   -1.3337 H   0  0  0  0  0  0  0  0  0  0  0  0
   -4.4328    0.8466   -1.2637 H   0  0  0  0  0  0  0  0  0  0  0  0
  1 18  1  0  0  0  0
  1 19  1  0  0  0  0
  2 28  1  0  0  0  0
  3 28  1  0  0  0  0
  4 28  1  0  0  0  0
  5  8  1  0  0  0  0
  5  9  1  0  0  0  0
  5 10  1  0  0  0  0
  6 11  1  0  0  0  0
  6 12  1  0  0  0  0
  6 15  1  0  0  0  0
  7 14  1  0  0  0  0
  7 16  1  0  0  0  0
  7 17  1  0  0  0  0
  8 11  1  0  0  0  0
  8 29  1  0  0  0  0
  8 30  1  0  0  0  0
  9 12  1  0  0  0  0
  9 31  1  0  0  0  0
  9 32  1  0  0  0  0
 10 13  1  0  0  0  0
 10 33  1  0  0  0  0
 10 34  1  0  0  0  0
 11 35  1  0  0  0  0
 11 36  1  0  0  0  0
 12 37  1  0  0  0  0
 12 38  1  0  0  0  0
 13 14  1  0  0  0  0
 13 39  1  0  0  0  0
 13 40  1  0  0  0  0
 14 41  1  0  0  0  0
 14 42  1  0  0  0  0
 15 43  1  0  0  0  0
 15 44  1  0  0  0  0
 15 45  1  0  0  0  0
 16 18  2  0  0  0  0
 16 20  1  0  0  0  0
 17 19  1  0  0  0  0
 17 21  2  0  0  0  0
 18 23  1  0  0  0  0
 19 24  2  0  0  0  0
 20 22  2  0  0  0  0
 20 46  1  0  0  0  0
 21 26  1  0  0  0  0
 21 47  1  0  0  0  0
 22 25  1  0  0  0  0
 22 28  1  0  0  0  0
 23 25  2  0  0  0  0
 23 48  1  0  0  0  0
 24 27  1  0  0  0  0
 24 49  1  0  0  0  0
 25 50  1  0  0  0  0
 26 27  2  0  0  0  0
 26 51  1  0  0  0  0
 27 52  1  0  0  0  0
M  END
>  <DRUGBANK_ID>
DB00831

>  <SECONDARY_ACCESSION_NUMBERS>
APRD00173; DB08616

>  <COMMON_NAME>
Trifluoperazine

>  <CAS_NUMBER>
117-89-5

>  <UNII>
214IZI85K3

>  <SYNONYMS>
10-[3-(4-methyl-1-piperazinyl)propyl]-2-(trifluoromethyl)-10H-phenothiazine; Trifluoperazina; Trifluop√©razine; Trifluoperazine; Trifluoperazinum; trifluoromethyl-10-(3'-(1-methyl-4-piperazinyl)propyl)phenothiazine; Trifluoroperazine; Trifluperazine

$$$$
