
 OpenBabel10282417233D

 58 56  0  0  0  0  0  0  0  0999 V2000
    0.9129   -0.0363    0.0331 F   0  0  0  0  0  0  0  0  0  0  0  0
    1.0591   -0.0250   -0.0767 N   0  0  0  0  0  0  0  0  0  0  0  0
    0.5691   -0.2461   -1.4449 C   0  0  0  0  0  0  0  0  0  0  0  0
    1.0758   -1.5855   -1.9543 C   0  0  0  0  0  0  0  0  0  0  0  0
    0.5691   -2.6964   -1.0491 C   0  0  0  0  0  0  0  0  0  0  0  0
   -0.9509   -2.6965   -1.0491 C   0  0  0  0  0  0  0  0  0  0  0  0
   -1.4576   -2.9250   -2.4638 C   0  0  0  0  0  0  0  0  0  0  0  0
   -0.9509   -4.2644   -2.9733 C   0  0  0  0  0  0  0  0  0  0  0  0
   -1.4576   -5.3754   -2.0680 C   0  0  0  0  0  0  0  0  0  0  0  0
   -2.9776   -5.3754   -2.0680 C   0  0  0  0  0  0  0  0  0  0  0  0
   -3.4842   -5.6039   -3.4827 C   0  0  0  0  0  0  0  0  0  0  0  0
   -4.2663   -6.6821   -3.7593 C   0  0  0  0  0  0  0  0  0  0  0  0
   -4.6335   -7.6583   -2.6536 C   0  0  0  0  0  0  0  0  0  0  0  0
   -6.1450   -7.7040   -2.4994 C   0  0  0  0  0  0  0  0  0  0  0  0
   -6.7741   -8.1588   -3.8062 C   0  0  0  0  0  0  0  0  0  0  0  0
   -6.2589   -9.5439   -4.1615 C   0  0  0  0  0  0  0  0  0  0  0  0
   -6.6261  -10.5201   -3.0558 C   0  0  0  0  0  0  0  0  0  0  0  0
   -8.1376  -10.5659   -2.9016 C   0  0  0  0  0  0  0  0  0  0  0  0
   -8.7666  -11.0206   -4.2085 C   0  0  0  0  0  0  0  0  0  0  0  0
   -8.2514  -12.4058   -4.5637 C   0  0  0  0  0  0  0  0  0  0  0  0
    1.9129   -0.0363    0.0331 H   0  0  0  0  0  0  0  0  0  0  0  0
    0.7191   -0.7705    0.5308 H   0  0  0  0  0  0  0  0  0  0  0  0
    2.0791   -0.0250   -0.0767 H   0  0  0  0  0  0  0  0  0  0  0  0
   -0.5009   -0.2461   -1.4449 H   0  0  0  0  0  0  0  0  0  0  0  0
    0.9258    0.5360   -2.0821 H   0  0  0  0  0  0  0  0  0  0  0  0
    0.7191   -1.7464   -2.9502 H   0  0  0  0  0  0  0  0  0  0  0  0
    2.1458   -1.5855   -1.9543 H   0  0  0  0  0  0  0  0  0  0  0  0
    0.9258   -3.6393   -1.4077 H   0  0  0  0  0  0  0  0  0  0  0  0
    0.9258   -2.5356   -0.0532 H   0  0  0  0  0  0  0  0  0  0  0  0
   -1.3076   -3.4785   -0.4118 H   0  0  0  0  0  0  0  0  0  0  0  0
   -1.3076   -1.7535   -0.6904 H   0  0  0  0  0  0  0  0  0  0  0  0
   -2.5276   -2.9250   -2.4638 H   0  0  0  0  0  0  0  0  0  0  0  0
   -1.1009   -2.1429   -3.1011 H   0  0  0  0  0  0  0  0  0  0  0  0
   -1.3076   -4.4253   -3.9692 H   0  0  0  0  0  0  0  0  0  0  0  0
    0.1191   -4.2644   -2.9733 H   0  0  0  0  0  0  0  0  0  0  0  0
   -1.1009   -6.3183   -2.4266 H   0  0  0  0  0  0  0  0  0  0  0  0
   -1.1009   -5.2145   -1.0721 H   0  0  0  0  0  0  0  0  0  0  0  0
   -3.3342   -6.1574   -1.4307 H   0  0  0  0  0  0  0  0  0  0  0  0
   -3.3342   -4.4325   -1.7094 H   0  0  0  0  0  0  0  0  0  0  0  0
   -3.2257   -4.9167   -4.2611 H   0  0  0  0  0  0  0  0  0  0  0  0
   -4.6230   -6.8430   -4.7552 H   0  0  0  0  0  0  0  0  0  0  0  0
   -4.2709   -8.6334   -2.9037 H   0  0  0  0  0  0  0  0  0  0  0  0
   -4.1907   -7.3381   -1.7336 H   0  0  0  0  0  0  0  0  0  0  0  0
   -6.4035   -8.3912   -1.7210 H   0  0  0  0  0  0  0  0  0  0  0  0
   -6.5077   -6.7289   -2.2493 H   0  0  0  0  0  0  0  0  0  0  0  0
   -7.8381   -8.1910   -3.6977 H   0  0  0  0  0  0  0  0  0  0  0  0
   -6.5156   -7.4716   -4.5846 H   0  0  0  0  0  0  0  0  0  0  0  0
   -6.7017   -9.8641   -5.0815 H   0  0  0  0  0  0  0  0  0  0  0  0
   -5.1949   -9.5117   -4.2701 H   0  0  0  0  0  0  0  0  0  0  0  0
   -6.2634  -11.4952   -3.3059 H   0  0  0  0  0  0  0  0  0  0  0  0
   -6.1833  -10.2000   -2.1358 H   0  0  0  0  0  0  0  0  0  0  0  0
   -8.3960  -11.2530   -2.1232 H   0  0  0  0  0  0  0  0  0  0  0  0
   -8.5002   -9.5908   -2.6515 H   0  0  0  0  0  0  0  0  0  0  0  0
   -9.8306  -11.0528   -4.0999 H   0  0  0  0  0  0  0  0  0  0  0  0
   -8.5081  -10.3334   -4.9868 H   0  0  0  0  0  0  0  0  0  0  0  0
   -8.5099  -13.0930   -3.7854 H   0  0  0  0  0  0  0  0  0  0  0  0
   -8.6943  -12.7259   -5.4837 H   0  0  0  0  0  0  0  0  0  0  0  0
   -7.1874  -12.3736   -4.6723 H   0  0  0  0  0  0  0  0  0  0  0  0
  1 21  1  0  0  0  0
  2  3  1  0  0  0  0
  2 22  1  0  0  0  0
  2 23  1  0  0  0  0
  3  4  1  0  0  0  0
  3 24  1  0  0  0  0
  3 25  1  0  0  0  0
  4  5  1  0  0  0  0
  4 26  1  0  0  0  0
  4 27  1  0  0  0  0
  5  6  1  0  0  0  0
  5 28  1  0  0  0  0
  5 29  1  0  0  0  0
  6  7  1  0  0  0  0
  6 30  1  0  0  0  0
  6 31  1  0  0  0  0
  7  8  1  0  0  0  0
  7 32  1  0  0  0  0
  7 33  1  0  0  0  0
  8  9  1  0  0  0  0
  8 34  1  0  0  0  0
  8 35  1  0  0  0  0
  9 10  1  0  0  0  0
  9 36  1  0  0  0  0
  9 37  1  0  0  0  0
 10 11  1  0  0  0  0
 10 38  1  0  0  0  0
 10 39  1  0  0  0  0
 11 12  2  0  0  0  0
 11 40  1  0  0  0  0
 12 13  1  0  0  0  0
 12 41  1  0  0  0  0
 13 14  1  0  0  0  0
 13 42  1  0  0  0  0
 13 43  1  0  0  0  0
 14 15  1  0  0  0  0
 14 44  1  0  0  0  0
 14 45  1  0  0  0  0
 15 16  1  0  0  0  0
 15 46  1  0  0  0  0
 15 47  1  0  0  0  0
 16 17  1  0  0  0  0
 16 48  1  0  0  0  0
 16 49  1  0  0  0  0
 17 18  1  0  0  0  0
 17 50  1  0  0  0  0
 17 51  1  0  0  0  0
 18 19  1  0  0  0  0
 18 52  1  0  0  0  0
 18 53  1  0  0  0  0
 19 20  1  0  0  0  0
 19 54  1  0  0  0  0
 19 55  1  0  0  0  0
 20 56  1  0  0  0  0
 20 57  1  0  0  0  0
 20 58  1  0  0  0  0
M  END
>  <DRUGBANK_ID>
DB16622

>  <COMMON_NAME>
Dectaflur

>  <CAS_NUMBER>
7333-84-8

>  <UNII>
Q3B1Y93C1S

>  <SYNONYMS>
Dectaflur; Oleylamine HF; Oleylamine hydrofluoride; Oleylaminhydrofluorid

$$$$
