
 OpenBabel10282417223D

 81 85  0  0  0  0  0  0  0  0999 V2000
    5.5699    1.9287    4.9721 C   0  0  0  0  0  0  0  0  0  0  0  0
    5.7495    0.7489    5.8969 C   0  0  0  0  0  0  0  0  0  0  0  0
    6.5926   -0.4029    5.3415 C   0  0  1  0  0  0  0  0  0  0  0  0
    6.0108   -1.1319    4.0827 C   0  0  0  0  0  0  0  0  0  0  0  0
    5.3239    1.5335    3.4809 C   0  0  1  0  0  0  0  0  0  0  0  0
    6.2370    0.3489    2.7871 C   0  0  1  0  0  0  0  0  0  0  0  0
    5.5010    0.2490    1.1989 C   0  0  0  0  0  0  0  0  0  0  0  0
    4.7729    1.5057    0.5506 C   0  0  0  0  0  0  0  0  0  0  0  0
    4.2030    2.5489    2.9101 C   0  0  2  0  0  0  0  0  0  0  0  0
    3.6267    2.4648    1.4898 C   0  0  2  0  0  0  0  0  0  0  0  0
    1.9797    1.3155    3.9947 C   0  0  0  0  0  0  0  0  0  0  0  0
    3.0131    2.8737    3.8774 C   0  0  0  0  0  0  0  0  0  0  0  0
    1.6630    0.5988    2.8018 C   0  0  0  0  0  0  0  0  0  0  0  0
    1.7600    2.0282    1.7026 C   0  0  1  0  0  0  0  0  0  0  0  0
    1.0545    1.8222    0.1366 C   0  0  0  0  0  0  0  0  0  0  0  0
    1.8392    0.5976   -0.9725 C   0  0  0  0  0  0  0  0  0  0  0  0
    2.3111   -1.0751    1.9888 C   0  0  1  0  0  0  0  0  0  0  0  0
    2.5199   -0.8789    0.0323 C   0  0  2  0  0  0  0  0  0  0  0  0
    2.4348   -2.0382   -0.8516 C   0  0  0  0  0  0  0  0  0  0  0  0
    2.6761   -3.3486   -0.1554 C   0  0  0  0  0  0  0  0  0  0  0  0
    3.0200   -3.4797    1.3356 C   0  0  2  0  0  0  0  0  0  0  0  0
    2.1497   -2.5315    2.3630 C   0  0  2  0  0  0  0  0  0  0  0  0
    4.5499   -3.9861    1.5230 C   0  0  0  0  0  0  0  0  0  0  0  0
    0.6899   -2.4923    2.7597 C   0  0  0  0  0  0  0  0  0  0  0  0
    1.2574   -0.4351    0.4307 C   0  0  0  0  0  0  0  0  0  0  0  0
    3.3548   -1.1118    2.1003 H   0  0  0  0  0  0  0  0  0  0  0  0
    3.5521    1.7918    2.9621 H   0  0  0  0  0  0  0  0  0  0  0  0
    7.2598    0.7207    2.6308 H   0  0  0  0  0  0  0  0  0  0  0  0
    7.9082   -0.1822    4.7893 O   0  0  0  0  0  0  0  0  0  0  0  0
    6.5479   -2.5674    4.2158 C   0  0  0  0  0  0  0  0  0  0  0  0
    4.4495   -1.9220    3.9992 C   0  0  0  0  0  0  0  0  0  0  0  0
    4.4281    0.3765    3.5867 C   0  0  0  0  0  0  0  0  0  0  0  0
    3.7310    3.7879    0.7993 C   0  0  0  0  0  0  0  0  0  0  0  0
    0.7470    3.0085    2.4152 C   0  0  0  0  0  0  0  0  0  0  0  0
    2.5275    0.3813    0.8995 O   0  0  0  0  0  0  0  0  0  0  0  0
    0.3347   -1.0705    0.6548 O   0  0  0  0  0  0  0  0  0  0  0  0
    6.2390    2.7712    5.1685 H   0  0  0  0  0  0  0  0  0  0  0  0
    4.6416    2.3260    5.3851 H   0  0  0  0  0  0  0  0  0  0  0  0
    6.0670    1.0728    6.8887 H   0  0  0  0  0  0  0  0  0  0  0  0
    4.7354    0.3830    6.1760 H   0  0  0  0  0  0  0  0  0  0  0  0
    6.9605   -0.8370    6.2684 H   0  0  0  0  0  0  0  0  0  0  0  0
    5.9152   -0.5991    0.6369 H   0  0  0  0  0  0  0  0  0  0  0  0
    4.5781   -0.2834    1.2153 H   0  0  0  0  0  0  0  0  0  0  0  0
    5.4588    2.0973   -0.0562 H   0  0  0  0  0  0  0  0  0  0  0  0
    4.2230    1.1593   -0.3321 H   0  0  0  0  0  0  0  0  0  0  0  0
    1.5990    0.9216    4.9333 H   0  0  0  0  0  0  0  0  0  0  0  0
    3.4127    3.3829    4.7462 H   0  0  0  0  0  0  0  0  0  0  0  0
    2.5984    3.7304    3.3391 H   0  0  0  0  0  0  0  0  0  0  0  0
    1.0135    2.7841   -0.3450 H   0  0  0  0  0  0  0  0  0  0  0  0
    0.0332    1.4223    0.2782 H   0  0  0  0  0  0  0  0  0  0  0  0
    2.6639    1.0710   -1.5104 H   0  0  0  0  0  0  0  0  0  0  0  0
    1.0594    0.2483   -1.6437 H   0  0  0  0  0  0  0  0  0  0  0  0
    3.0533   -1.9000   -1.7540 H   0  0  0  0  0  0  0  0  0  0  0  0
    1.4210   -2.0334   -1.2625 H   0  0  0  0  0  0  0  0  0  0  0  0
    3.3565   -3.9432   -0.7746 H   0  0  0  0  0  0  0  0  0  0  0  0
    1.6922   -3.8039   -0.2121 H   0  0  0  0  0  0  0  0  0  0  0  0
    2.6084   -4.4335    1.6422 H   0  0  0  0  0  0  0  0  0  0  0  0
    2.5241   -2.9072    3.3121 H   0  0  0  0  0  0  0  0  0  0  0  0
    5.3833   -3.5152    0.9673 H   0  0  0  0  0  0  0  0  0  0  0  0
    4.8626   -4.0864    2.5655 H   0  0  0  0  0  0  0  0  0  0  0  0
    4.5752   -5.0383    1.1900 H   0  0  0  0  0  0  0  0  0  0  0  0
    0.1374   -3.3413    2.3992 H   0  0  0  0  0  0  0  0  0  0  0  0
    0.6800   -2.2936    3.8403 H   0  0  0  0  0  0  0  0  0  0  0  0
    0.1208   -1.5905    2.5119 H   0  0  0  0  0  0  0  0  0  0  0  0
    8.2742   -1.0996    4.7714 H   0  0  0  0  0  0  0  0  0  0  0  0
    7.2421   -2.7301    5.0289 H   0  0  0  0  0  0  0  0  0  0  0  0
    5.7991   -3.2250    4.7247 H   0  0  0  0  0  0  0  0  0  0  0  0
    6.7252   -3.0240    3.2552 H   0  0  0  0  0  0  0  0  0  0  0  0
    4.2069   -2.9587    4.2421 H   0  0  0  0  0  0  0  0  0  0  0  0
    3.5058   -1.4209    4.2803 H   0  0  0  0  0  0  0  0  0  0  0  0
    4.5020   -2.1182    2.9206 H   0  0  0  0  0  0  0  0  0  0  0  0
    4.1030    0.1606    4.5615 H   0  0  0  0  0  0  0  0  0  0  0  0
    3.5797    0.2949    3.0109 H   0  0  0  0  0  0  0  0  0  0  0  0
    4.6615   -0.4103    2.9092 H   0  0  0  0  0  0  0  0  0  0  0  0
    3.0923    3.7909   -0.0819 H   0  0  0  0  0  0  0  0  0  0  0  0
    3.5202    4.6275    1.4539 H   0  0  0  0  0  0  0  0  0  0  0  0
    4.7710    3.8897    0.4844 H   0  0  0  0  0  0  0  0  0  0  0  0
    1.0946    4.0248    2.2944 H   0  0  0  0  0  0  0  0  0  0  0  0
   -0.2787    2.8903    2.0659 H   0  0  0  0  0  0  0  0  0  0  0  0
    0.5943    2.8598    3.5015 H   0  0  0  0  0  0  0  0  0  0  0  0
    2.8389    1.1448    0.4310 H   0  0  0  0  0  0  0  0  0  0  0  0
  1  2  1  0  0  0  0
  1 37  1  0  0  0  0
  1 38  1  0  0  0  0
  2  3  1  0  0  0  0
  2 39  1  0  0  0  0
  2 40  1  0  0  0  0
  3  4  1  0  0  0  0
  3 41  1  1  0  0  0
  3 29  1  0  0  0  0
  4  6  1  0  0  0  0
  4 30  1  0  0  0  0
  4 31  1  0  0  0  0
  5  1  1  0  0  0  0
  5  6  1  0  0  0  0
  5 32  1  6  0  0  0
  6  7  1  0  0  0  0
  6 28  1  1  0  0  0
  7  8  1  0  0  0  0
  7 42  1  0  0  0  0
  7 43  1  0  0  0  0
  8 10  1  0  0  0  0
  8 44  1  0  0  0  0
  8 45  1  0  0  0  0
  9  5  1  0  0  0  0
  9 10  1  0  0  0  0
  9 27  1  1  0  0  0
 10 14  1  0  0  0  0
 10 33  1  6  0  0  0
 11 12  1  0  0  0  0
 11 46  1  0  0  0  0
 12  9  1  0  0  0  0
 12 47  1  0  0  0  0
 12 48  1  0  0  0  0
 13 11  2  0  0  0  0
 13 14  1  0  0  0  0
 13 17  1  0  0  0  0
 14 15  1  0  0  0  0
 14 34  1  6  0  0  0
 15 16  1  0  0  0  0
 15 49  1  0  0  0  0
 15 50  1  0  0  0  0
 16 18  1  0  0  0  0
 16 51  1  0  0  0  0
 16 52  1  0  0  0  0
 17 18  1  0  0  0  0
 17 22  1  0  0  0  0
 17 26  1  6  0  0  0
 18 19  1  0  0  0  0
 18 25  1  1  0  0  0
 19 20  1  0  0  0  0
 19 53  1  0  0  0  0
 19 54  1  0  0  0  0
 20 21  1  0  0  0  0
 20 55  1  0  0  0  0
 20 56  1  0  0  0  0
 21 22  1  0  0  0  0
 21 23  1  0  0  0  0
 21 57  1  1  0  0  0
 22 58  1  1  0  0  0
 22 24  1  0  0  0  0
 23 59  1  0  0  0  0
 23 60  1  0  0  0  0
 23 61  1  0  0  0  0
 24 62  1  0  0  0  0
 24 63  1  0  0  0  0
 24 64  1  0  0  0  0
 25 35  1  0  0  0  0
 25 36  2  0  0  0  0
 29 65  1  0  0  0  0
 30 66  1  0  0  0  0
 30 67  1  0  0  0  0
 30 68  1  0  0  0  0
 31 69  1  0  0  0  0
 31 70  1  0  0  0  0
 31 71  1  0  0  0  0
 32 72  1  0  0  0  0
 32 73  1  0  0  0  0
 32 74  1  0  0  0  0
 33 75  1  0  0  0  0
 33 76  1  0  0  0  0
 33 77  1  0  0  0  0
 34 78  1  0  0  0  0
 34 79  1  0  0  0  0
 34 80  1  0  0  0  0
 35 81  1  0  0  0  0
M  END
>  <DRUGBANK_ID>
DB15588

>  <COMMON_NAME>
Ursolic acid

>  <CAS_NUMBER>
77-52-1

>  <UNII>
P3M2575F3F

>  <SYNONYMS>
Malol; Prunol; Urson

$$$$
