
 OpenBabel10282417183D

 24 24  0  0  0  0  0  0  0  0999 V2000
    1.1180    0.2337    0.0164 C   0  0  0  0  0  0  0  0  0  0  0  0
   -0.2180   -2.5693    0.6581 C   0  0  0  0  0  0  0  0  0  0  0  0
    0.9115   -4.1907   -0.7053 C   0  0  0  0  0  0  0  0  0  0  0  0
   -0.4796   -3.5292    1.6285 C   0  0  0  0  0  0  0  0  0  0  0  0
    0.6182   -5.1703    0.2508 C   0  0  0  0  0  0  0  0  0  0  0  0
    0.9504   -1.8142   -1.5125 C   0  0  0  0  0  0  0  0  0  0  0  0
    0.5128   -0.3511   -1.2710 C   0  0  3  0  0  0  0  0  0  0  0  0
    0.5171   -2.8629   -0.5023 C   0  0  0  0  0  0  0  0  0  0  0  0
   -0.0573   -4.8243    1.4146 C   0  0  0  0  0  0  0  0  0  0  0  0
   -0.9484   -0.1968   -1.3697 N   0  0  0  0  0  0  0  0  0  0  0  0
   -0.3009   -5.7896    2.3452 O   0  0  0  0  0  0  0  0  0  0  0  0
    0.9218   -0.3378    0.9245 H   0  0  0  0  0  0  0  0  0  0  0  0
    0.7548    1.2474    0.2044 H   0  0  0  0  0  0  0  0  0  0  0  0
    2.2094    0.2684   -0.0708 H   0  0  0  0  0  0  0  0  0  0  0  0
   -0.5976   -1.5806    0.8791 H   0  0  0  0  0  0  0  0  0  0  0  0
    1.4610   -4.4723   -1.6013 H   0  0  0  0  0  0  0  0  0  0  0  0
   -0.9993   -3.2242    2.5307 H   0  0  0  0  0  0  0  0  0  0  0  0
    0.9306   -6.1964    0.0921 H   0  0  0  0  0  0  0  0  0  0  0  0
    0.5984   -2.1234   -2.5075 H   0  0  0  0  0  0  0  0  0  0  0  0
    2.0490   -1.8282   -1.5608 H   0  0  0  0  0  0  0  0  0  0  0  0
    0.9211    0.2533   -2.0902 H   0  0  0  0  0  0  0  0  0  0  0  0
   -1.2440   -0.5322   -2.2893 H   0  0  0  0  0  0  0  0  0  0  0  0
   -1.4207   -0.8379   -0.7343 H   0  0  0  0  0  0  0  0  0  0  0  0
   -0.7853   -5.3776    3.0793 H   0  0  0  0  0  0  0  0  0  0  0  0
  1 12  1  0  0  0  0
  1 13  1  0  0  0  0
  1 14  1  0  0  0  0
  2 15  1  0  0  0  0
  3 16  1  0  0  0  0
  4  2  1  0  0  0  0
  4 17  1  0  0  0  0
  5  3  2  0  0  0  0
  5 18  1  0  0  0  0
  6 19  1  0  0  0  0
  6 20  1  0  0  0  0
  7  1  1  0  0  0  0
  7  6  1  0  0  0  0
  7 21  1  0  0  0  0
  8  2  2  0  0  0  0
  8  3  1  0  0  0  0
  8  6  1  0  0  0  0
  9  4  2  0  0  0  0
  9  5  1  0  0  0  0
 10  7  1  0  0  0  0
 10 22  1  0  0  0  0
 10 23  1  0  0  0  0
 11  9  1  0  0  0  0
 11 24  1  0  0  0  0
M  END
>  <DRUGBANK_ID>
DB09352

>  <COMMON_NAME>
Hydroxyamphetamine

>  <CAS_NUMBER>
103-86-6

>  <UNII>
FQR280JW2N

>  <SYNONYMS>
4-(2-aminopropyl)phenol; 4-hydroxyamphetamine; dl-4-hydroxyamphetamine; dl-p-hydroxyamphetamine; Hydroxyamphetamine; p-hydroxyamphetamine

$$$$
