
 OpenBabel10282417123D

121120  0  0  0  0  0  0  0  0999 V2000
    1.1300   -0.0310    0.1432 C   0  0  1  0  0  0  0  0  0  0  0  0
    0.7150    1.3555    0.9302 C   0  0  0  0  0  0  0  0  0  0  0  0
    1.3612    2.7489    0.5242 O   0  0  0  0  0  0  0  0  0  0  0  0
    2.7048    3.1678    0.5829 C   0  0  0  0  0  0  0  0  0  0  0  0
    3.4732    2.6256    1.3846 O   0  0  0  0  0  0  0  0  0  0  0  0
    0.8468   -0.8584    0.8153 H   0  0  0  0  0  0  0  0  0  0  0  0
    0.5657   -0.5535   -1.1739 O   0  0  0  0  0  0  0  0  0  0  0  0
    2.6419    0.0150   -0.0400 C   0  0  0  0  0  0  0  0  0  0  0  0
    3.0483    1.2312   -0.7083 O   0  0  0  0  0  0  0  0  0  0  0  0
   -0.0459    0.3755   -1.9520 C   0  0  0  0  0  0  0  0  0  0  0  0
   -0.3507    1.3184   -1.3813 O   0  0  0  0  0  0  0  0  0  0  0  0
   -0.1027    0.3392   -3.7150 C   0  0  0  0  0  0  0  0  0  0  0  0
    3.3039    4.4348   -0.5646 C   0  0  0  0  0  0  0  0  0  0  0  0
    2.8978    2.6991   -2.5863 O   0  0  0  0  0  0  0  0  0  0  0  0
    1.5852    3.0420   -2.2947 C   0  0  0  0  0  0  0  0  0  0  0  0
    0.5893    3.3464   -3.5381 C   0  0  0  0  0  0  0  0  0  0  0  0
   -0.6417    2.7785   -3.1460 N   0  0  0  0  0  0  0  0  0  0  0  0
    2.4717    1.2545   -2.3392 P   0  0  3  0  0  0  0  0  0  0  0  0
    3.5553    0.2760   -2.7766 O   0  0  0  0  0  0  0  0  0  0  0  0
    1.8950    1.2778   -3.9701 O   0  0  0  0  0  0  0  0  0  0  0  0
    2.7305    5.0789   -2.1046 C   0  0  0  0  0  0  0  0  0  0  0  0
    1.0521    5.1836   -1.9709 C   0  0  0  0  0  0  0  0  0  0  0  0
    0.3795    6.1516   -1.1823 C   0  0  0  0  0  0  0  0  0  0  0  0
    0.8815    7.2012   -2.1379 C   0  0  0  0  0  0  0  0  0  0  0  0
    0.3923    6.9415   -3.7112 C   0  0  0  0  0  0  0  0  0  0  0  0
   -1.1293    6.6224   -3.6769 C   0  0  0  0  0  0  0  0  0  0  0  0
   -1.7246    7.7831   -2.9053 C   0  0  0  0  0  0  0  0  0  0  0  0
   -1.2050    9.0523   -3.5849 C   0  0  0  0  0  0  0  0  0  0  0  0
   -1.6594    9.0242   -5.0461 C   0  0  0  0  0  0  0  0  0  0  0  0
   -3.1851    8.9919   -5.0579 C   0  0  0  0  0  0  0  0  0  0  0  0
   -3.7114   10.2194   -4.3084 C   0  0  0  0  0  0  0  0  0  0  0  0
   -3.2256   11.5013   -4.9929 C   0  0  0  0  0  0  0  0  0  0  0  0
   -3.6981   11.5512   -6.4454 C   0  0  0  0  0  0  0  0  0  0  0  0
   -5.2163   11.5169   -6.5002 C   0  0  0  0  0  0  0  0  0  0  0  0
    0.7361   -0.6610   -4.4863 C   0  0  0  0  0  0  0  0  0  0  0  0
    0.2880   -1.8491   -3.7482 C   0  0  0  0  0  0  0  0  0  0  0  0
   -1.2675   -1.7173   -3.6927 C   0  0  0  0  0  0  0  0  0  0  0  0
   -1.7294   -1.4422   -5.1656 C   0  0  0  0  0  0  0  0  0  0  0  0
   -1.1550   -2.5975   -5.9664 C   0  0  0  0  0  0  0  0  0  0  0  0
   -1.6254   -3.8582   -5.2468 C   0  0  0  0  0  0  0  0  0  0  0  0
   -3.1552   -3.8134   -5.1974 C   0  0  0  0  0  0  0  0  0  0  0  0
   -3.6660   -3.7565   -6.6362 C   0  0  0  0  0  0  0  0  0  0  0  0
   -3.1468   -4.9866   -7.3826 C   0  0  0  0  0  0  0  0  0  0  0  0
   -3.6450   -6.2493   -6.6749 C   0  0  0  0  0  0  0  0  0  0  0  0
   -5.1770   -6.2600   -6.6598 C   0  0  0  0  0  0  0  0  0  0  0  0
   -5.7240   -6.2584   -8.0912 C   0  0  0  0  0  0  0  0  0  0  0  0
   -5.2232   -7.4751   -8.8701 C   0  0  0  0  0  0  0  0  0  0  0  0
   -5.6765   -8.7561   -8.1894 C   0  0  0  0  0  0  0  0  0  0  0  0
   -0.3775    1.4878    0.8462 H   0  0  0  0  0  0  0  0  0  0  0  0
    0.9107    1.2077    2.0014 H   0  0  0  0  0  0  0  0  0  0  0  0
    3.1001    0.0008    0.9490 H   0  0  0  0  0  0  0  0  0  0  0  0
    2.9928   -0.8574   -0.6006 H   0  0  0  0  0  0  0  0  0  0  0  0
   -1.1802    0.4711   -3.9314 H   0  0  0  0  0  0  0  0  0  0  0  0
    0.0662    1.2022   -4.3778 H   0  0  0  0  0  0  0  0  0  0  0  0
    3.1805    5.3248    0.0366 H   0  0  0  0  0  0  0  0  0  0  0  0
    4.3707    4.1764   -0.7147 H   0  0  0  0  0  0  0  0  0  0  0  0
    1.1202    2.5178   -1.4716 H   0  0  0  0  0  0  0  0  0  0  0  0
    1.7634    3.6061   -1.4192 H   0  0  0  0  0  0  0  0  0  0  0  0
   -0.0891    4.1622   -3.7040 H   0  0  0  0  0  0  0  0  0  0  0  0
    1.0886    3.3253   -4.5032 H   0  0  0  0  0  0  0  0  0  0  0  0
   -1.2609    2.4712   -3.8693 H   0  0  0  0  0  0  0  0  0  0  0  0
   -0.2106    1.9952   -2.7187 H   0  0  0  0  0  0  0  0  0  0  0  0
    2.3392    1.7893   -4.6724 H   0  0  0  0  0  0  0  0  0  0  0  0
    3.2747    5.9268   -2.5645 H   0  0  0  0  0  0  0  0  0  0  0  0
    2.9692    4.5028   -3.0623 H   0  0  0  0  0  0  0  0  0  0  0  0
    0.7653    5.2295   -2.9726 H   0  0  0  0  0  0  0  0  0  0  0  0
    0.3541    4.3861   -1.6178 H   0  0  0  0  0  0  0  0  0  0  0  0
   -0.7037    5.8817   -1.1980 H   0  0  0  0  0  0  0  0  0  0  0  0
    0.7508    5.8901   -0.1882 H   0  0  0  0  0  0  0  0  0  0  0  0
    0.5901    8.1353   -1.7017 H   0  0  0  0  0  0  0  0  0  0  0  0
    1.9694    7.2018   -2.1306 H   0  0  0  0  0  0  0  0  0  0  0  0
    0.7484    7.7740   -4.3106 H   0  0  0  0  0  0  0  0  0  0  0  0
    0.8810    6.1589   -4.3367 H   0  0  0  0  0  0  0  0  0  0  0  0
   -1.5324    6.4785   -4.6871 H   0  0  0  0  0  0  0  0  0  0  0  0
   -1.4278    5.6845   -3.1883 H   0  0  0  0  0  0  0  0  0  0  0  0
   -2.8085    7.6997   -2.8444 H   0  0  0  0  0  0  0  0  0  0  0  0
   -1.4333    7.7752   -1.8534 H   0  0  0  0  0  0  0  0  0  0  0  0
   -1.5067    9.9273   -3.0188 H   0  0  0  0  0  0  0  0  0  0  0  0
   -0.1190    9.1703   -3.5480 H   0  0  0  0  0  0  0  0  0  0  0  0
   -1.2339    9.8749   -5.5790 H   0  0  0  0  0  0  0  0  0  0  0  0
   -1.2699    8.1720   -5.6162 H   0  0  0  0  0  0  0  0  0  0  0  0
   -3.5458    8.9305   -6.0852 H   0  0  0  0  0  0  0  0  0  0  0  0
   -3.5862    8.0803   -4.6020 H   0  0  0  0  0  0  0  0  0  0  0  0
   -4.7985   10.1726   -4.2418 H   0  0  0  0  0  0  0  0  0  0  0  0
   -3.4024   10.2261   -3.2576 H   0  0  0  0  0  0  0  0  0  0  0  0
   -3.5841   12.3719   -4.4381 H   0  0  0  0  0  0  0  0  0  0  0  0
   -2.1310   11.5789   -4.9631 H   0  0  0  0  0  0  0  0  0  0  0  0
   -3.3157   12.4543   -6.9267 H   0  0  0  0  0  0  0  0  0  0  0  0
   -3.2892   10.7164   -7.0277 H   0  0  0  0  0  0  0  0  0  0  0  0
   -5.6233   12.3681   -5.9471 H   0  0  0  0  0  0  0  0  0  0  0  0
   -5.5674   11.5483   -7.5311 H   0  0  0  0  0  0  0  0  0  0  0  0
   -5.6260   10.6028   -6.0575 H   0  0  0  0  0  0  0  0  0  0  0  0
    0.5556   -0.5224   -5.5701 H   0  0  0  0  0  0  0  0  0  0  0  0
    1.8296   -0.6374   -4.4637 H   0  0  0  0  0  0  0  0  0  0  0  0
    0.7132   -2.7236   -4.2217 H   0  0  0  0  0  0  0  0  0  0  0  0
    0.7846   -1.8295   -2.7857 H   0  0  0  0  0  0  0  0  0  0  0  0
   -1.6830   -2.5533   -3.1509 H   0  0  0  0  0  0  0  0  0  0  0  0
   -1.7032   -0.9410   -3.0444 H   0  0  0  0  0  0  0  0  0  0  0  0
   -2.8096   -1.2976   -5.2035 H   0  0  0  0  0  0  0  0  0  0  0  0
   -1.4002   -0.5071   -5.6488 H   0  0  0  0  0  0  0  0  0  0  0  0
   -1.4423   -2.5159   -7.0128 H   0  0  0  0  0  0  0  0  0  0  0  0
   -0.0623   -2.5844   -6.0315 H   0  0  0  0  0  0  0  0  0  0  0  0
   -1.2011   -4.7366   -5.7221 H   0  0  0  0  0  0  0  0  0  0  0  0
   -1.2307   -3.9663   -4.2327 H   0  0  0  0  0  0  0  0  0  0  0  0
   -3.5284   -4.6624   -4.6261 H   0  0  0  0  0  0  0  0  0  0  0  0
   -3.5594   -2.9663   -4.6319 H   0  0  0  0  0  0  0  0  0  0  0  0
   -4.7536   -3.6786   -6.6394 H   0  0  0  0  0  0  0  0  0  0  0  0
   -3.3591   -2.8469   -7.1621 H   0  0  0  0  0  0  0  0  0  0  0  0
   -3.4519   -4.9400   -8.4289 H   0  0  0  0  0  0  0  0  0  0  0  0
   -2.0542   -5.0077   -7.4483 H   0  0  0  0  0  0  0  0  0  0  0  0
   -3.2246   -7.1331   -7.1589 H   0  0  0  0  0  0  0  0  0  0  0  0
   -3.2673   -6.3276   -5.6499 H   0  0  0  0  0  0  0  0  0  0  0  0
   -5.5342   -7.1195   -6.0891 H   0  0  0  0  0  0  0  0  0  0  0  0
   -5.5859   -5.4057   -6.1098 H   0  0  0  0  0  0  0  0  0  0  0  0
   -6.8171   -6.2406   -8.0670 H   0  0  0  0  0  0  0  0  0  0  0  0
   -5.4365   -5.3422   -8.6219 H   0  0  0  0  0  0  0  0  0  0  0  0
   -5.5954   -7.4343   -9.8968 H   0  0  0  0  0  0  0  0  0  0  0  0
   -4.1299   -7.4705   -8.9565 H   0  0  0  0  0  0  0  0  0  0  0  0
   -6.7687   -8.7773   -8.1342 H   0  0  0  0  0  0  0  0  0  0  0  0
   -5.3215   -9.6308   -8.7340 H   0  0  0  0  0  0  0  0  0  0  0  0
   -5.2874   -8.8422   -7.1696 H   0  0  0  0  0  0  0  0  0  0  0  0
  1  2  1  0  0  0  0
  1  7  1  0  0  0  0
  1  6  1  1  0  0  0
  2  3  1  0  0  0  0
  2 49  1  0  0  0  0
  2 50  1  0  0  0  0
  3  4  1  0  0  0  0
  4  5  2  0  0  0  0
  4 13  1  0  0  0  0
  8  1  1  0  0  0  0
  8 51  1  0  0  0  0
  8 52  1  0  0  0  0
  9  8  1  0  0  0  0
  9 18  1  0  0  0  0
 10 11  2  0  0  0  0
 10 12  1  0  0  0  0
 10  7  1  0  0  0  0
 12 35  1  0  0  0  0
 12 53  1  0  0  0  0
 12 54  1  0  0  0  0
 13 21  1  0  0  0  0
 13 55  1  0  0  0  0
 13 56  1  0  0  0  0
 15 14  1  0  0  0  0
 15 57  1  0  0  0  0
 15 58  1  0  0  0  0
 16 15  1  0  0  0  0
 16 59  1  0  0  0  0
 16 60  1  0  0  0  0
 17 16  1  0  0  0  0
 17 61  1  0  0  0  0
 17 62  1  0  0  0  0
 18 14  1  0  0  0  0
 18 19  2  0  0  0  0
 18 20  1  0  0  0  0
 20 63  1  0  0  0  0
 21 22  1  0  0  0  0
 21 64  1  0  0  0  0
 21 65  1  0  0  0  0
 22 23  1  0  0  0  0
 22 66  1  0  0  0  0
 22 67  1  0  0  0  0
 23 24  1  0  0  0  0
 23 68  1  0  0  0  0
 23 69  1  0  0  0  0
 24 25  1  0  0  0  0
 24 70  1  0  0  0  0
 24 71  1  0  0  0  0
 25 26  1  0  0  0  0
 25 72  1  0  0  0  0
 25 73  1  0  0  0  0
 26 27  1  0  0  0  0
 26 74  1  0  0  0  0
 26 75  1  0  0  0  0
 27 28  1  0  0  0  0
 27 76  1  0  0  0  0
 27 77  1  0  0  0  0
 28 29  1  0  0  0  0
 28 78  1  0  0  0  0
 28 79  1  0  0  0  0
 29 30  1  0  0  0  0
 29 80  1  0  0  0  0
 29 81  1  0  0  0  0
 30 31  1  0  0  0  0
 30 82  1  0  0  0  0
 30 83  1  0  0  0  0
 31 32  1  0  0  0  0
 31 84  1  0  0  0  0
 31 85  1  0  0  0  0
 32 33  1  0  0  0  0
 32 86  1  0  0  0  0
 32 87  1  0  0  0  0
 33 34  1  0  0  0  0
 33 88  1  0  0  0  0
 33 89  1  0  0  0  0
 34 90  1  0  0  0  0
 34 91  1  0  0  0  0
 34 92  1  0  0  0  0
 35 36  1  0  0  0  0
 35 93  1  0  0  0  0
 35 94  1  0  0  0  0
 36 37  1  0  0  0  0
 36 95  1  0  0  0  0
 36 96  1  0  0  0  0
 37 38  1  0  0  0  0
 37 97  1  0  0  0  0
 37 98  1  0  0  0  0
 38 39  1  0  0  0  0
 38 99  1  0  0  0  0
 38100  1  0  0  0  0
 39 40  1  0  0  0  0
 39101  1  0  0  0  0
 39102  1  0  0  0  0
 40 41  1  0  0  0  0
 40103  1  0  0  0  0
 40104  1  0  0  0  0
 41 42  1  0  0  0  0
 41105  1  0  0  0  0
 41106  1  0  0  0  0
 42 43  1  0  0  0  0
 42107  1  0  0  0  0
 42108  1  0  0  0  0
 43 44  1  0  0  0  0
 43109  1  0  0  0  0
 43110  1  0  0  0  0
 44 45  1  0  0  0  0
 44111  1  0  0  0  0
 44112  1  0  0  0  0
 45 46  1  0  0  0  0
 45113  1  0  0  0  0
 45114  1  0  0  0  0
 46 47  1  0  0  0  0
 46115  1  0  0  0  0
 46116  1  0  0  0  0
 47 48  1  0  0  0  0
 47117  1  0  0  0  0
 47118  1  0  0  0  0
 48119  1  0  0  0  0
 48120  1  0  0  0  0
 48121  1  0  0  0  0
M  END
>  <DRUGBANK_ID>
DB01728

>  <SECONDARY_ACCESSION_NUMBERS>
EXPT02544

>  <COMMON_NAME>
1,2-dihexadecanoyl-sn-glycero-3-phosphoethanolamine

>  <CAS_NUMBER>
923-61-5

>  <UNII>
4FWH120Z1Z

>  <SYNONYMS>
1,2-dipalmitoyl-sn-glycero-3-phosphoethanolamine; 2-aminoethyl (2R)-2,3-bis(hexadecanoyloxy)propyl hydrogen phosphate; 2-aminoethyl (2R)-2,3-bis(palmitoyloxy)propyl hydrogen phosphate; Dipalmitoyl phosphatidylethanolamine

$$$$
