1180
 OpenBabel10282417113D

 88 93  0  0  1  0  0  0  0  0999 V2000
   -0.8390    0.9569    0.0308 O   0  0  0  0  0  0  0  0  0  0  0  0
    2.5501    2.2829   -0.6836 O   0  0  0  0  0  0  0  0  0  0  0  0
    1.6130    0.0763    3.7291 O   0  0  0  0  0  0  0  0  0  0  0  0
   -0.3381   -0.3624    2.7977 O   0  0  0  0  0  0  0  0  0  0  0  0
    4.3762    1.6515   -1.7891 O   0  0  0  0  0  0  0  0  0  0  0  0
   -8.3124    2.1699    3.8178 O   0  0  0  0  0  0  0  0  0  0  0  0
   -2.7307    1.6056   -5.9627 O   0  0  0  0  0  0  0  0  0  0  0  0
    0.2321   -2.2619   -6.4332 O   0  0  0  0  0  0  0  0  0  0  0  0
   -2.0584   -0.8241   -7.3000 O   0  0  0  0  0  0  0  0  0  0  0  0
   -0.8247    5.1964    2.5690 N   0  0  3  0  0  0  0  0  0  0  0  0
   -3.3929    2.7503    3.6196 N   0  0  0  0  0  0  0  0  0  0  0  0
    0.8294    2.8632    2.3163 C   0  0  2  0  0  0  0  0  0  0  0  0
    1.1398    4.0524    1.3822 C   0  0  1  0  0  0  0  0  0  0  0  0
   -0.6568    2.8833    2.7178 C   0  0  0  0  0  0  0  0  0  0  0  0
    0.9092    1.4090    1.7207 C   0  0  1  0  0  0  0  0  0  0  0  0
   -1.1718    4.0635    3.3976 C   0  0  2  0  0  0  0  0  0  0  0  0
    0.3966    5.3471    1.8136 C   0  0  0  0  0  0  0  0  0  0  0  0
    0.7506    3.7793   -0.0438 C   0  0  0  0  0  0  0  0  0  0  0  0
    0.6049    1.2086    0.2046 C   0  0  2  0  0  0  0  0  0  0  0  0
    1.1335    2.4167   -0.5652 C   0  0  2  0  0  0  0  0  0  0  0  0
   -2.6690    3.9008    3.3950 C   0  0  0  0  0  0  0  0  0  0  0  0
   -1.5524    6.3955    2.9288 C   0  0  0  0  0  0  0  0  0  0  0  0
   -3.5402    4.8819    2.9901 C   0  0  0  0  0  0  0  0  0  0  0  0
   -3.0330    6.2074    2.5290 C   0  0  0  0  0  0  0  0  0  0  0  0
    0.7276    0.2614    2.7404 C   0  0  0  0  0  0  0  0  0  0  0  0
   -4.8457    4.3666    3.1119 C   0  0  0  0  0  0  0  0  0  0  0  0
   -4.7380    3.0329    3.5101 C   0  0  0  0  0  0  0  0  0  0  0  0
   -1.6647    1.7686   -0.7774 C   0  0  0  0  0  0  0  0  0  0  0  0
   -6.1147    4.9255    2.9312 C   0  0  0  0  0  0  0  0  0  0  0  0
    3.1692    1.7160   -1.7573 C   0  0  0  0  0  0  0  0  0  0  0  0
   -5.8559    2.2189    3.7373 C   0  0  0  0  0  0  0  0  0  0  0  0
   -7.2395    4.1416    3.1942 C   0  0  0  0  0  0  0  0  0  0  0  0
   -7.1189    2.8066    3.5909 C   0  0  0  0  0  0  0  0  0  0  0  0
    2.9131    0.6266    3.6520 C   0  0  0  0  0  0  0  0  0  0  0  0
    2.3973    1.2425   -2.9435 C   0  0  0  0  0  0  0  0  0  0  0  0
    1.0845    1.0346   -3.0946 C   0  0  0  0  0  0  0  0  0  0  0  0
   -8.2301    0.8084    4.2220 C   0  0  0  0  0  0  0  0  0  0  0  0
    0.3339    0.6593   -4.2697 C   0  0  0  0  0  0  0  0  0  0  0  0
    0.6801   -0.5455   -4.8360 C   0  0  0  0  0  0  0  0  0  0  0  0
   -0.8273    1.3434   -4.6579 C   0  0  0  0  0  0  0  0  0  0  0  0
   -1.6258    0.8310   -5.6817 C   0  0  0  0  0  0  0  0  0  0  0  0
   -0.0914   -1.0719   -5.8520 C   0  0  0  0  0  0  0  0  0  0  0  0
   -1.2453   -0.3844   -6.2935 C   0  0  0  0  0  0  0  0  0  0  0  0
   -3.5753    1.1775   -7.0294 C   0  0  0  0  0  0  0  0  0  0  0  0
    1.3897   -2.9473   -5.9936 C   0  0  0  0  0  0  0  0  0  0  0  0
   -1.7471   -2.0131   -7.9911 C   0  0  0  0  0  0  0  0  0  0  0  0
    1.4404    3.0021    3.2151 H   0  0  0  0  0  0  0  0  0  0  0  0
    2.2192    4.2600    1.3549 H   0  0  0  0  0  0  0  0  0  0  0  0
   -0.7745    4.1008    4.4154 H   0  0  0  0  0  0  0  0  0  0  0  0
   -3.0209    1.8272    3.8177 H   0  0  0  0  0  0  0  0  0  0  0  0
   -1.2694    2.7605    1.8030 H   0  0  0  0  0  0  0  0  0  0  0  0
   -0.8810    2.0250    3.3660 H   0  0  0  0  0  0  0  0  0  0  0  0
   -0.1444    1.3417    1.7407 H   0  0  0  0  0  0  0  0  0  0  0  0
    1.1004    6.0044    2.3239 H   0  0  0  0  0  0  0  0  0  0  0  0
    0.0989    5.8829    0.8953 H   0  0  0  0  0  0  0  0  0  0  0  0
    1.1716    4.5233   -0.7334 H   0  0  0  0  0  0  0  0  0  0  0  0
   -0.3183    3.9564   -0.1082 H   0  0  0  0  0  0  0  0  0  0  0  0
    1.0626    0.2536   -0.0912 H   0  0  0  0  0  0  0  0  0  0  0  0
    0.6877    2.5436   -1.5344 H   0  0  0  0  0  0  0  0  0  0  0  0
   -1.4591    6.5510    4.0112 H   0  0  0  0  0  0  0  0  0  0  0  0
   -1.1376    7.2752    2.4326 H   0  0  0  0  0  0  0  0  0  0  0  0
   -3.6314    7.0093    2.9601 H   0  0  0  0  0  0  0  0  0  0  0  0
   -3.1103    6.2489    1.4342 H   0  0  0  0  0  0  0  0  0  0  0  0
   -1.5322    2.8337   -0.6627 H   0  0  0  0  0  0  0  0  0  0  0  0
   -1.5030    1.4971   -1.8112 H   0  0  0  0  0  0  0  0  0  0  0  0
   -2.7166    1.6044   -0.5343 H   0  0  0  0  0  0  0  0  0  0  0  0
   -6.2077    5.9624    2.6299 H   0  0  0  0  0  0  0  0  0  0  0  0
   -5.7218    1.1881    4.0417 H   0  0  0  0  0  0  0  0  0  0  0  0
   -8.2221    4.5928    3.0928 H   0  0  0  0  0  0  0  0  0  0  0  0
    3.3404    0.4324    2.6689 H   0  0  0  0  0  0  0  0  0  0  0  0
    2.8852    1.6897    3.8860 H   0  0  0  0  0  0  0  0  0  0  0  0
    3.5107    0.1304    4.4193 H   0  0  0  0  0  0  0  0  0  0  0  0
    3.0612    1.0390   -3.7797 H   0  0  0  0  0  0  0  0  0  0  0  0
    0.3736    1.0295   -2.2968 H   0  0  0  0  0  0  0  0  0  0  0  0
   -7.7537    0.1970    3.4480 H   0  0  0  0  0  0  0  0  0  0  0  0
   -7.7064    0.7118    5.1794 H   0  0  0  0  0  0  0  0  0  0  0  0
   -9.2485    0.4354    4.3609 H   0  0  0  0  0  0  0  0  0  0  0  0
    1.5302   -1.0751   -4.4219 H   0  0  0  0  0  0  0  0  0  0  0  0
   -1.1370    2.2581   -4.1509 H   0  0  0  0  0  0  0  0  0  0  0  0
   -3.0229    1.1541   -7.9763 H   0  0  0  0  0  0  0  0  0  0  0  0
   -4.0428    0.2144   -6.7926 H   0  0  0  0  0  0  0  0  0  0  0  0
   -4.3889    1.8947   -7.1616 H   0  0  0  0  0  0  0  0  0  0  0  0
    2.2876   -2.3362   -6.1317 H   0  0  0  0  0  0  0  0  0  0  0  0
    1.2750   -3.2697   -4.9539 H   0  0  0  0  0  0  0  0  0  0  0  0
    1.4853   -3.8362   -6.6188 H   0  0  0  0  0  0  0  0  0  0  0  0
   -0.7786   -1.9261   -8.4935 H   0  0  0  0  0  0  0  0  0  0  0  0
   -1.8104   -2.8720   -7.3162 H   0  0  0  0  0  0  0  0  0  0  0  0
   -2.5035   -2.1503   -8.7639 H   0  0  0  0  0  0  0  0  0  0  0  0
  1 28  1  0  0  0  0
  2 30  1  0  0  0  0
  3 25  1  0  0  0  0
  3 34  1  0  0  0  0
  4 25  2  0  0  0  0
  5 30  2  0  0  0  0
  6 33  1  0  0  0  0
  6 37  1  0  0  0  0
  7 41  1  0  0  0  0
  7 44  1  0  0  0  0
  8 42  1  0  0  0  0
  8 45  1  0  0  0  0
  9 43  1  0  0  0  0
  9 46  1  0  0  0  0
 10 16  1  0  0  0  0
 10 17  1  0  0  0  0
 10 22  1  0  0  0  0
 11 21  1  0  0  0  0
 11 27  1  0  0  0  0
 11 50  1  0  0  0  0
 12 13  1  0  0  0  0
 12 14  1  0  0  0  0
 12 15  1  0  0  0  0
 12 47  1  6  0  0  0
 13 17  1  0  0  0  0
 13 18  1  0  0  0  0
 13 48  1  6  0  0  0
 14 16  1  0  0  0  0
 14 51  1  0  0  0  0
 14 52  1  0  0  0  0
 15 19  1  0  0  0  0
 15 53  1  1  0  0  0
 15 25  1  0  0  0  0
 16 21  1  0  0  0  0
 16 49  1  1  0  0  0
 17 54  1  0  0  0  0
 17 55  1  0  0  0  0
 18 20  1  0  0  0  0
 18 56  1  0  0  0  0
 18 57  1  0  0  0  0
 19 20  1  0  0  0  0
 19 58  1  6  0  0  0
 19  1  1  0  0  0  0
 20 59  1  6  0  0  0
 20  2  1  0  0  0  0
 21 23  2  0  0  0  0
 22 24  1  0  0  0  0
 22 60  1  0  0  0  0
 22 61  1  0  0  0  0
 23 24  1  0  0  0  0
 23 26  1  0  0  0  0
 24 62  1  0  0  0  0
 24 63  1  0  0  0  0
 26 27  2  0  0  0  0
 26 29  1  0  0  0  0
 27 31  1  0  0  0  0
 28 64  1  0  0  0  0
 28 65  1  0  0  0  0
 28 66  1  0  0  0  0
 29 32  2  0  0  0  0
 29 67  1  0  0  0  0
 30 35  1  0  0  0  0
 31 33  2  0  0  0  0
 31 68  1  0  0  0  0
 32 33  1  0  0  0  0
 32 69  1  0  0  0  0
 34 70  1  0  0  0  0
 34 71  1  0  0  0  0
 34 72  1  0  0  0  0
 35 36  2  3  0  0  0
 35 73  1  0  0  0  0
 36 38  1  0  0  0  0
 36 74  1  0  0  0  0
 37 75  1  0  0  0  0
 37 76  1  0  0  0  0
 37 77  1  0  0  0  0
 38 39  2  0  0  0  0
 38 40  1  0  0  0  0
 39 42  1  0  0  0  0
 39 78  1  0  0  0  0
 40 41  2  0  0  0  0
 40 79  1  0  0  0  0
 41 43  1  0  0  0  0
 42 43  2  0  0  0  0
 44 80  1  0  0  0  0
 44 81  1  0  0  0  0
 44 82  1  0  0  0  0
 45 83  1  0  0  0  0
 45 84  1  0  0  0  0
 45 85  1  0  0  0  0
 46 86  1  0  0  0  0
 46 87  1  0  0  0  0
 46 88  1  0  0  0  0
M  END
>  <DRUGBANK_ID>
DB01180

>  <SECONDARY_ACCESSION_NUMBERS>
APRD00112

>  <COMMON_NAME>
Rescinnamine

>  <CAS_NUMBER>
24815-24-5

>  <UNII>
Q6W1F7DJ2D

>  <SYNONYMS>
3,4,5-Trimethoxycinnamoyl methyl reserpate; Rescinnamine; Trimethoxy cinnamoyl reserpate de methyl

$$$$
