
 OpenBabel10282417173D

 38 41  0  0  0  0  0  0  0  0999 V2000
    1.2810   -0.1223    0.7630 C   0  0  0  0  0  0  0  0  0  0  0  0
    1.3506   -0.2613   -0.6328 C   0  0  0  0  0  0  0  0  0  0  0  0
    0.0052   -0.7153    1.3407 C   0  0  1  0  0  0  0  0  0  0  0  0
    0.0448   -0.7653   -1.2561 C   0  0  2  0  0  0  0  0  0  0  0  0
   -1.2113   -0.0352    0.7305 C   0  0  0  0  0  0  0  0  0  0  0  0
   -1.2131   -0.0918   -0.6759 C   0  0  0  0  0  0  0  0  0  0  0  0
    2.3049    0.5287    1.4499 C   0  0  0  0  0  0  0  0  0  0  0  0
    3.3738    1.0684    0.7364 C   0  0  0  0  0  0  0  0  0  0  0  0
    2.5258    0.0883   -1.2970 C   0  0  0  0  0  0  0  0  0  0  0  0
    3.4824    0.8497   -0.6336 C   0  0  0  0  0  0  0  0  0  0  0  0
   -2.2709    0.5655    1.4138 C   0  0  0  0  0  0  0  0  0  0  0  0
   -3.3269    1.1271    0.6983 C   0  0  0  0  0  0  0  0  0  0  0  0
   -2.3313    0.3834   -1.3679 C   0  0  0  0  0  0  0  0  0  0  0  0
   -3.3562    1.0382   -0.6891 C   0  0  0  0  0  0  0  0  0  0  0  0
   -0.0358   -2.0953    0.8302 O   0  0  0  0  0  0  0  0  0  0  0  0
   -0.0496   -2.1234   -0.7261 O   0  0  0  0  0  0  0  0  0  0  0  0
    0.0696   -0.7178   -2.8064 C   0  0  0  0  0  0  0  0  0  0  0  0
    0.0326    0.6963   -3.4627 C   0  0  0  0  0  0  0  0  0  0  0  0
    0.9870    1.7805   -2.9946 C   0  0  0  0  0  0  0  0  0  0  0  0
    2.0052    2.0236   -3.8544 O   0  0  0  0  0  0  0  0  0  0  0  0
   -0.0053   -0.7120    2.8694 C   0  0  0  0  0  0  0  0  0  0  0  0
    0.8537    2.4033   -1.9644 O   0  0  0  0  0  0  0  0  0  0  0  0
    2.2654    0.6724    2.5239 H   0  0  0  0  0  0  0  0  0  0  0  0
    4.1216    1.6683    1.2454 H   0  0  0  0  0  0  0  0  0  0  0  0
    2.6628   -0.0906   -2.3572 H   0  0  0  0  0  0  0  0  0  0  0  0
    4.2763    1.3244   -1.2042 H   0  0  0  0  0  0  0  0  0  0  0  0
   -2.2910    0.6132    2.4973 H   0  0  0  0  0  0  0  0  0  0  0  0
   -4.1384    1.6215    1.2239 H   0  0  0  0  0  0  0  0  0  0  0  0
   -2.4447    0.2700   -2.4390 H   0  0  0  0  0  0  0  0  0  0  0  0
   -4.1791    1.4752   -1.2486 H   0  0  0  0  0  0  0  0  0  0  0  0
    0.9288   -1.2860   -3.1875 H   0  0  0  0  0  0  0  0  0  0  0  0
   -0.7962   -1.2821   -3.1860 H   0  0  0  0  0  0  0  0  0  0  0  0
    0.1019    0.5877   -4.5491 H   0  0  0  0  0  0  0  0  0  0  0  0
   -0.9368    1.1732   -3.3201 H   0  0  0  0  0  0  0  0  0  0  0  0
    1.9410    1.5724   -4.7137 H   0  0  0  0  0  0  0  0  0  0  0  0
    0.8698   -1.2240    3.2831 H   0  0  0  0  0  0  0  0  0  0  0  0
   -0.0026    0.3177    3.2533 H   0  0  0  0  0  0  0  0  0  0  0  0
   -0.8878   -1.2183    3.2734 H   0  0  0  0  0  0  0  0  0  0  0  0
  2  1  2  0  0  0  0
  3  1  1  0  0  0  0
  3 15  1  0  0  0  0
  3 21  1  1  0  0  0
  4  2  1  0  0  0  0
  4 16  1  0  0  0  0
  4 17  1  6  0  0  0
  5  3  1  0  0  0  0
  6  4  1  0  0  0  0
  6  5  2  0  0  0  0
  7  1  1  0  0  0  0
  7 23  1  0  0  0  0
  8  7  2  0  0  0  0
  8 24  1  0  0  0  0
  9  2  1  0  0  0  0
  9 25  1  0  0  0  0
 10  8  1  0  0  0  0
 10  9  2  0  0  0  0
 10 26  1  0  0  0  0
 11  5  1  0  0  0  0
 11 27  1  0  0  0  0
 12 11  2  0  0  0  0
 12 28  1  0  0  0  0
 13  6  1  0  0  0  0
 13 29  1  0  0  0  0
 14 12  1  0  0  0  0
 14 13  2  0  0  0  0
 14 30  1  0  0  0  0
 15 16  1  0  0  0  0
 17 18  1  0  0  0  0
 17 31  1  0  0  0  0
 17 32  1  0  0  0  0
 18 19  1  0  0  0  0
 18 33  1  0  0  0  0
 18 34  1  0  0  0  0
 19 20  1  0  0  0  0
 19 22  2  0  0  0  0
 20 35  1  0  0  0  0
 21 36  1  0  0  0  0
 21 37  1  0  0  0  0
 21 38  1  0  0  0  0
M  END
>  <DRUGBANK_ID>
DB08332

>  <COMMON_NAME>
9-(2-carboxyethyl)-10-methylanthracene endoperoxide

>  <SYNONYMS>
[2'-CARBOXYLETHYL]-10-METHYL-ANTHRACENE ENDOPEROXIDE

$$$$
