NEZ
 OpenBabel10282417173D

 41 44  0  0  0  0  0  0  0  0999 V2000
    0.8261   -0.2006    0.0445 C   0  0  0  0  0  0  0  0  0  0  0  0
    0.3540   -1.6407    0.3098 C   0  0  0  0  0  0  0  0  0  0  0  0
    0.9238   -2.7954   -0.3761 C   0  0  0  0  0  0  0  0  0  0  0  0
    1.7829   -2.6992   -1.5259 N   0  0  0  0  0  0  0  0  0  0  0  0
    2.1922   -3.7913   -2.1163 C   0  0  0  0  0  0  0  0  0  0  0  0
    2.9779   -3.8025   -3.2216 N   0  0  0  0  0  0  0  0  0  0  0  0
    1.8732   -5.0423   -1.6776 N   0  0  0  0  0  0  0  0  0  0  0  0
    1.1126   -5.2722   -0.5838 C   0  0  0  0  0  0  0  0  0  0  0  0
    0.8370   -6.4154   -0.2122 O   0  0  0  0  0  0  0  0  0  0  0  0
    0.6084   -4.0833    0.1051 C   0  0  0  0  0  0  0  0  0  0  0  0
   -0.2182   -4.3276    1.1936 C   0  0  0  0  0  0  0  0  0  0  0  0
   -0.9109   -3.2389    1.6631 C   0  0  0  0  0  0  0  0  0  0  0  0
   -1.9379   -3.1926    2.5638 N   0  0  0  0  0  0  0  0  0  0  0  0
   -2.3140   -1.8934    2.6908 C   0  0  0  0  0  0  0  0  0  0  0  0
   -1.5559   -1.1063    1.9574 N   0  0  0  0  0  0  0  0  0  0  0  0
   -0.6772   -1.9297    1.2654 C   0  0  0  0  0  0  0  0  0  0  0  0
    0.4270    0.8927    1.1021 C   0  0  0  0  0  0  0  0  0  0  0  0
    0.9076    2.3219    0.8664 C   0  0  0  0  0  0  0  0  0  0  0  0
    0.3196    3.3894    1.5744 C   0  0  0  0  0  0  0  0  0  0  0  0
    0.5936    4.7199    1.2261 C   0  0  0  0  0  0  0  0  0  0  0  0
    1.5525    5.0100    0.2525 C   0  0  0  0  0  0  0  0  0  0  0  0
    1.7725    6.4200   -0.2067 C   0  0  0  0  0  0  0  0  0  0  0  0
    2.2654    3.9560   -0.3207 C   0  0  0  0  0  0  0  0  0  0  0  0
    1.9115    2.6304   -0.0543 C   0  0  0  0  0  0  0  0  0  0  0  0
    0.4811    0.1262   -0.9440 H   0  0  0  0  0  0  0  0  0  0  0  0
    1.9230   -0.2278    0.0184 H   0  0  0  0  0  0  0  0  0  0  0  0
    3.2578   -2.9274   -3.6402 H   0  0  0  0  0  0  0  0  0  0  0  0
    3.2819   -4.6535   -3.6775 H   0  0  0  0  0  0  0  0  0  0  0  0
    2.1967   -5.8705   -2.1520 H   0  0  0  0  0  0  0  0  0  0  0  0
   -0.3852   -5.3264    1.5764 H   0  0  0  0  0  0  0  0  0  0  0  0
   -2.3651   -3.9975    3.0004 H   0  0  0  0  0  0  0  0  0  0  0  0
   -3.1387   -1.6040    3.3294 H   0  0  0  0  0  0  0  0  0  0  0  0
   -0.6678    0.9580    1.1313 H   0  0  0  0  0  0  0  0  0  0  0  0
    0.7706    0.5870    2.0991 H   0  0  0  0  0  0  0  0  0  0  0  0
   -0.3900    3.1985    2.3783 H   0  0  0  0  0  0  0  0  0  0  0  0
    0.0389    5.5280    1.6999 H   0  0  0  0  0  0  0  0  0  0  0  0
    0.8523    6.8095   -0.6570 H   0  0  0  0  0  0  0  0  0  0  0  0
    2.0654    7.0598    0.6297 H   0  0  0  0  0  0  0  0  0  0  0  0
    2.5563    6.4723   -0.9703 H   0  0  0  0  0  0  0  0  0  0  0  0
    3.0802    4.1523   -1.0126 H   0  0  0  0  0  0  0  0  0  0  0  0
    2.4216    1.8483   -0.6059 H   0  0  0  0  0  0  0  0  0  0  0  0
  1  2  1  0  0  0  0
  1 17  1  0  0  0  0
  1 25  1  0  0  0  0
  1 26  1  0  0  0  0
  2  3  1  0  0  0  0
  2 16  2  0  0  0  0
  3  4  1  0  0  0  0
  3 10  2  0  0  0  0
  4  5  2  0  0  0  0
  5  6  1  0  0  0  0
  5  7  1  0  0  0  0
  6 27  1  0  0  0  0
  6 28  1  0  0  0  0
  7  8  1  0  0  0  0
  7 29  1  0  0  0  0
  8  9  2  0  0  0  0
  8 10  1  0  0  0  0
 10 11  1  0  0  0  0
 11 12  2  0  0  0  0
 11 30  1  0  0  0  0
 12 13  1  0  0  0  0
 12 16  1  0  0  0  0
 13 14  1  0  0  0  0
 13 31  1  0  0  0  0
 14 15  2  0  0  0  0
 14 32  1  0  0  0  0
 15 16  1  0  0  0  0
 17 18  1  0  0  0  0
 17 33  1  0  0  0  0
 17 34  1  0  0  0  0
 18 19  2  0  0  0  0
 18 24  1  0  0  0  0
 19 20  1  0  0  0  0
 19 35  1  0  0  0  0
 20 21  2  0  0  0  0
 20 36  1  0  0  0  0
 21 22  1  0  0  0  0
 21 23  1  0  0  0  0
 22 37  1  0  0  0  0
 22 38  1  0  0  0  0
 22 39  1  0  0  0  0
 23 24  2  0  0  0  0
 23 40  1  0  0  0  0
 24 41  1  0  0  0  0
M  END
>  <DRUGBANK_ID>
DB08268

>  <COMMON_NAME>
6-AMINO-4-[2-(4-METHYLPHENYL)ETHYL]-1,7-DIHYDRO-8H-IMIDAZO[4,5-G]QUINAZOLIN-8-ONE

$$$$
