
 OpenBabel10282417203D

 56 58  0  0  0  0  0  0  0  0999 V2000
    1.8178    0.1518   -0.0014 C   0  0  0  0  0  0  0  0  0  0  0  0
    1.1071   -1.5170    0.2534 C   0  0  0  0  0  0  0  0  0  0  0  0
    1.5478   -2.7282    0.8595 N   0  0  0  0  0  0  0  0  0  0  0  0
    0.7524   -3.8981    0.2142 C   0  0  0  0  0  0  0  0  0  0  0  0
    0.9121   -4.3157   -1.2782 C   0  0  0  0  0  0  0  0  0  0  0  0
    2.9184   -2.5350    0.5184 C   0  0  0  0  0  0  0  0  0  0  0  0
    3.1342   -2.3345   -1.0126 C   0  0  0  0  0  0  0  0  0  0  0  0
    2.3218   -1.1869   -2.0811 C   0  0  0  0  0  0  0  0  0  0  0  0
    3.1361   -0.6829   -2.8860 O   0  0  0  0  0  0  0  0  0  0  0  0
    0.7249   -0.8785   -2.2268 N   0  0  0  0  0  0  0  0  0  0  0  0
   -0.6603   -0.6307   -1.2172 C   0  0  0  0  0  0  0  0  0  0  0  0
   -0.7852    0.1014    0.1163 C   0  0  0  0  0  0  0  0  0  0  0  0
   -1.5694   -0.2107    1.2600 C   0  0  0  0  0  0  0  0  0  0  0  0
   -2.4237   -1.2501    1.1228 C   0  0  0  0  0  0  0  0  0  0  0  0
   -2.5131   -1.8759   -0.1389 C   0  0  0  0  0  0  0  0  0  0  0  0
   -1.6887   -1.5814   -1.2961 C   0  0  0  0  0  0  0  0  0  0  0  0
   -1.8003   -2.7472   -2.6218 S   0  0  0  0  0  0  0  0  0  0  0  0
   -0.8397   -1.8701   -3.8150 C   0  0  0  0  0  0  0  0  0  0  0  0
    0.2851   -1.0749   -3.5530 C   0  0  0  0  0  0  0  0  0  0  0  0
    0.9272   -0.3511   -4.5658 C   0  0  0  0  0  0  0  0  0  0  0  0
    0.3768   -0.3439   -5.8305 C   0  0  0  0  0  0  0  0  0  0  0  0
   -0.7595   -1.1255   -6.0554 C   0  0  0  0  0  0  0  0  0  0  0  0
   -1.3419   -1.9115   -5.0856 C   0  0  0  0  0  0  0  0  0  0  0  0
    0.9668    0.4887   -6.8048 N   0  0  0  0  0  0  0  0  0  0  0  0
    0.5739    0.6325   -8.0940 C   0  0  0  0  0  0  0  0  0  0  0  0
    1.2160    1.3661   -8.8999 O   0  0  0  0  0  0  0  0  0  0  0  0
   -0.5227   -0.0471   -8.4152 O   0  0  0  0  0  0  0  0  0  0  0  0
   -1.1232   -0.0330   -9.7041 C   0  0  0  0  0  0  0  0  0  0  0  0
   -1.6432    1.3480  -10.0130 C   0  0  0  0  0  0  0  0  0  0  0  0
    1.7124    0.8441    0.8418 H   0  0  0  0  0  0  0  0  0  0  0  0
    1.2887    0.7420   -0.8171 H   0  0  0  0  0  0  0  0  0  0  0  0
    2.8528    0.2305   -0.3276 H   0  0  0  0  0  0  0  0  0  0  0  0
    0.1006   -1.6260    0.5677 H   0  0  0  0  0  0  0  0  0  0  0  0
    1.0316   -1.9595   -0.7164 H   0  0  0  0  0  0  0  0  0  0  0  0
    0.9312   -4.7808    0.8262 H   0  0  0  0  0  0  0  0  0  0  0  0
   -0.3348   -3.7145    0.3348 H   0  0  0  0  0  0  0  0  0  0  0  0
    1.9015   -4.7145   -1.4740 H   0  0  0  0  0  0  0  0  0  0  0  0
    0.2171   -5.1100   -1.5759 H   0  0  0  0  0  0  0  0  0  0  0  0
    0.7408   -3.5111   -1.9954 H   0  0  0  0  0  0  0  0  0  0  0  0
    3.2292   -1.6066    1.0337 H   0  0  0  0  0  0  0  0  0  0  0  0
    3.4627   -3.3272    1.0252 H   0  0  0  0  0  0  0  0  0  0  0  0
    4.2088   -2.1000   -1.0612 H   0  0  0  0  0  0  0  0  0  0  0  0
    3.1100   -3.3065   -1.4976 H   0  0  0  0  0  0  0  0  0  0  0  0
    0.0436    0.4538    0.7080 H   0  0  0  0  0  0  0  0  0  0  0  0
   -1.1789    0.0584    2.2665 H   0  0  0  0  0  0  0  0  0  0  0  0
   -2.8881   -1.6454    2.0212 H   0  0  0  0  0  0  0  0  0  0  0  0
   -3.1654   -2.7438   -0.1696 H   0  0  0  0  0  0  0  0  0  0  0  0
    1.7755    0.2903   -4.3319 H   0  0  0  0  0  0  0  0  0  0  0  0
   -1.3133   -1.1492   -6.9750 H   0  0  0  0  0  0  0  0  0  0  0  0
   -2.2430   -2.4664   -5.3229 H   0  0  0  0  0  0  0  0  0  0  0  0
    1.7848    1.0266   -6.5459 H   0  0  0  0  0  0  0  0  0  0  0  0
   -0.4130   -0.4202  -10.4363 H   0  0  0  0  0  0  0  0  0  0  0  0
   -1.9686   -0.7332   -9.6586 H   0  0  0  0  0  0  0  0  0  0  0  0
   -0.8353    2.0817   -9.9864 H   0  0  0  0  0  0  0  0  0  0  0  0
   -2.1066    1.3694  -10.9991 H   0  0  0  0  0  0  0  0  0  0  0  0
   -2.3736    1.6589   -9.2574 H   0  0  0  0  0  0  0  0  0  0  0  0
  1  2  1  0  0  0  0
  1 30  1  0  0  0  0
  1 31  1  0  0  0  0
  1 32  1  0  0  0  0
  2  3  1  0  0  0  0
  2 33  1  0  0  0  0
  2 34  1  0  0  0  0
  3  4  1  0  0  0  0
  3  6  1  0  0  0  0
  4  5  1  0  0  0  0
  4 35  1  0  0  0  0
  4 36  1  0  0  0  0
  5 37  1  0  0  0  0
  5 38  1  0  0  0  0
  5 39  1  0  0  0  0
  6  7  1  0  0  0  0
  6 40  1  0  0  0  0
  6 41  1  0  0  0  0
  7  8  1  0  0  0  0
  7 42  1  0  0  0  0
  7 43  1  0  0  0  0
  8  9  2  0  0  0  0
  8 10  1  0  0  0  0
 10 11  1  0  0  0  0
 10 19  1  0  0  0  0
 11 12  2  0  0  0  0
 11 16  1  0  0  0  0
 12 13  1  0  0  0  0
 12 44  1  0  0  0  0
 13 14  2  0  0  0  0
 13 45  1  0  0  0  0
 14 15  1  0  0  0  0
 14 46  1  0  0  0  0
 15 16  2  0  0  0  0
 15 47  1  0  0  0  0
 16 17  1  0  0  0  0
 17 18  1  0  0  0  0
 18 19  2  0  0  0  0
 18 23  1  0  0  0  0
 19 20  1  0  0  0  0
 20 21  2  0  0  0  0
 20 48  1  0  0  0  0
 21 22  1  0  0  0  0
 21 24  1  0  0  0  0
 22 23  2  0  0  0  0
 22 49  1  0  0  0  0
 23 50  1  0  0  0  0
 24 25  1  0  0  0  0
 24 51  1  0  0  0  0
 25 26  2  0  0  0  0
 25 27  1  0  0  0  0
 27 28  1  0  0  0  0
 28 29  1  0  0  0  0
 28 52  1  0  0  0  0
 28 53  1  0  0  0  0
 29 54  1  0  0  0  0
 29 55  1  0  0  0  0
 29 56  1  0  0  0  0
M  END
>  <DRUGBANK_ID>
DB13645

>  <COMMON_NAME>
Ethacizine

>  <CAS_NUMBER>
33414-33-4

>  <UNII>
FE5SPV1Z6G

$$$$
