
 OpenBabel10282417183D

 29 30  0  0  0  0  0  0  0  0999 V2000
   -1.2196   -0.7551   -0.5941 C   0  0  0  0  0  0  0  0  0  0  0  0
   -0.0034   -1.0997    0.3013 C   0  0  3  0  0  0  0  0  0  0  0  0
    1.2579   -0.7593   -0.5244 C   0  0  0  0  0  0  0  0  0  0  0  0
    1.2839    0.7796   -0.4956 C   0  0  0  0  0  0  0  0  0  0  0  0
    1.1762   -0.0241    2.3535 C   0  0  0  0  0  0  0  0  0  0  0  0
   -0.0300    0.0004    1.3935 C   0  0  0  0  0  0  0  0  0  0  0  0
   -1.2896   -0.0235    2.2829 C   0  0  0  0  0  0  0  0  0  0  0  0
    0.0055    1.1279    0.3183 C   0  0  3  0  0  0  0  0  0  0  0  0
    0.0051    2.5468    0.8561 C   0  0  0  0  0  0  0  0  0  0  0  0
   -1.2401    0.7874   -0.5565 C   0  0  3  0  0  0  0  0  0  0  0  0
   -1.2104    1.3644   -1.8489 O   0  0  0  0  0  0  0  0  0  0  0  0
   -2.1379   -1.1613   -0.1554 H   0  0  0  0  0  0  0  0  0  0  0  0
   -1.1299   -1.1646   -1.6055 H   0  0  0  0  0  0  0  0  0  0  0  0
   -0.0141   -2.1287    0.6688 H   0  0  0  0  0  0  0  0  0  0  0  0
    1.2040   -1.1493   -1.5465 H   0  0  0  0  0  0  0  0  0  0  0  0
    2.1621   -1.1716   -0.0645 H   0  0  0  0  0  0  0  0  0  0  0  0
    1.2959    1.2049   -1.5032 H   0  0  0  0  0  0  0  0  0  0  0  0
    2.1944    1.1403   -0.0045 H   0  0  0  0  0  0  0  0  0  0  0  0
    1.1565    0.8481    3.0171 H   0  0  0  0  0  0  0  0  0  0  0  0
    1.1463   -0.9208    2.9823 H   0  0  0  0  0  0  0  0  0  0  0  0
    2.1504   -0.0189    1.8604 H   0  0  0  0  0  0  0  0  0  0  0  0
   -2.2340    0.0414    1.7391 H   0  0  0  0  0  0  0  0  0  0  0  0
   -1.3273   -0.9510    2.8647 H   0  0  0  0  0  0  0  0  0  0  0  0
   -1.2794    0.8153    2.9880 H   0  0  0  0  0  0  0  0  0  0  0  0
   -0.8796    2.7331    1.4743 H   0  0  0  0  0  0  0  0  0  0  0  0
    0.8856    2.7327    1.4805 H   0  0  0  0  0  0  0  0  0  0  0  0
    0.0086    3.2817    0.0460 H   0  0  0  0  0  0  0  0  0  0  0  0
   -2.1641    1.1429   -0.0879 H   0  0  0  0  0  0  0  0  0  0  0  0
   -0.5064    0.9386   -2.3689 H   0  0  0  0  0  0  0  0  0  0  0  0
  1 10  1  0  0  0  0
  1 12  1  0  0  0  0
  1 13  1  0  0  0  0
  2  1  1  0  0  0  0
  2 14  1  0  0  0  0
  3  2  1  0  0  0  0
  3 15  1  0  0  0  0
  3 16  1  0  0  0  0
  4  8  1  0  0  0  0
  4  3  1  0  0  0  0
  4 17  1  0  0  0  0
  4 18  1  0  0  0  0
  5 19  1  0  0  0  0
  5 20  1  0  0  0  0
  5 21  1  0  0  0  0
  6  8  1  0  0  0  0
  6  2  1  0  0  0  0
  6  5  1  0  0  0  0
  6  7  1  0  0  0  0
  7 22  1  0  0  0  0
  7 23  1  0  0  0  0
  7 24  1  0  0  0  0
  8  9  1  0  0  0  0
  9 25  1  0  0  0  0
  9 26  1  0  0  0  0
  9 27  1  0  0  0  0
 10  8  1  0  0  0  0
 10 11  1  0  0  0  0
 10 28  1  0  0  0  0
 11 29  1  0  0  0  0
M  END
>  <DRUGBANK_ID>
DB11288

>  <COMMON_NAME>
Borneol

>  <CAS_NUMBER>
507-70-0

>  <UNII>
M89NIB437X

>  <SYNONYMS>
Borneo camphor; Bornyl alcohol; endo-1,7,7-trimethylbicyclo[2.2.1]heptan-2-ol; endo-2-bornanol; endo-2-camphanol; endo-2-hydroxycamphane; Sumatra camphor

$$$$
