
 OpenBabel10282417183D

 42 44  0  0  1  0  0  0  0  0999 V2000
    2.3021   -0.5383    0.3576 C   0  0  0  0  0  0  0  0  0  0  0  0
    1.5893   -1.6642    0.4671 C   0  0  0  0  0  0  0  0  0  0  0  0
    0.2653   -1.4838    0.1978 C   0  0  0  0  0  0  0  0  0  0  0  0
   -0.3278   -0.1665    0.0895 C   0  0  0  0  0  0  0  0  0  0  0  0
    0.4479    0.9761    0.0133 C   0  0  0  0  0  0  0  0  0  0  0  0
    1.7091    0.6389   -0.1100 C   0  0  0  0  0  0  0  0  0  0  0  0
    0.1670    2.3738   -0.0172 N   0  0  0  0  0  0  0  0  0  0  0  0
    0.9597    3.4806   -0.0052 C   0  0  0  0  0  0  0  0  0  0  0  0
    0.3697    4.6079   -0.0005 O   0  0  0  0  0  0  0  0  0  0  0  0
    2.2923    3.5761    0.0327 N   0  0  0  0  0  0  0  0  0  0  0  0
    3.6486    2.8684    0.0002 C   0  0  2  0  0  0  0  0  0  0  0  0
    4.1018    3.0291   -1.4546 C   0  0  0  0  0  0  0  0  0  0  0  0
    3.8288    1.6661   -2.1684 C   0  0  0  0  0  0  0  0  0  0  0  0
    4.3463    0.7220   -1.1754 N   0  0  0  0  0  0  0  0  0  0  0  0
    4.2037    1.3907    0.2409 C   0  0  0  0  0  0  0  0  0  0  0  0
    4.5474   -0.6121   -1.6113 C   0  0  0  0  0  0  0  0  0  0  0  0
    5.7751   -0.9566   -2.1358 C   0  0  0  0  0  0  0  0  0  0  0  0
    6.1194   -2.3051   -2.3936 C   0  0  0  0  0  0  0  0  0  0  0  0
    5.2387   -3.3529   -2.1298 C   0  0  0  0  0  0  0  0  0  0  0  0
    4.0012   -2.9576   -1.6966 C   0  0  0  0  0  0  0  0  0  0  0  0
    3.6497   -1.6358   -1.5263 N   0  0  0  0  0  0  0  0  0  0  0  0
    5.5862   -4.8016   -2.3191 C   0  0  0  0  0  0  0  0  0  0  0  0
    5.5984   -5.5193   -1.1591 F   0  0  0  0  0  0  0  0  0  0  0  0
    4.7157   -5.4532   -3.1407 F   0  0  0  0  0  0  0  0  0  0  0  0
    6.8190   -4.9839   -2.8728 F   0  0  0  0  0  0  0  0  0  0  0  0
   -2.1931   -0.0689    0.0045 Br  0  0  0  0  0  0  0  0  0  0  0  0
    3.3713   -0.6858    0.4586 H   0  0  0  0  0  0  0  0  0  0  0  0
    2.1686   -2.5737    0.5867 H   0  0  0  0  0  0  0  0  0  0  0  0
   -0.2907   -2.3978    0.0673 H   0  0  0  0  0  0  0  0  0  0  0  0
    2.2286    1.4245   -0.5861 H   0  0  0  0  0  0  0  0  0  0  0  0
   -0.8052    2.6284    0.0394 H   0  0  0  0  0  0  0  0  0  0  0  0
    2.4814    4.5842    0.0344 H   0  0  0  0  0  0  0  0  0  0  0  0
    3.9247    3.2916    0.9794 H   0  0  0  0  0  0  0  0  0  0  0  0
    5.1777    3.1919   -1.5101 H   0  0  0  0  0  0  0  0  0  0  0  0
    3.5732    3.8219   -1.9890 H   0  0  0  0  0  0  0  0  0  0  0  0
    2.7606    1.5027   -2.4054 H   0  0  0  0  0  0  0  0  0  0  0  0
    4.3366    1.5986   -3.1317 H   0  0  0  0  0  0  0  0  0  0  0  0
    5.1377    1.2536    0.7987 H   0  0  0  0  0  0  0  0  0  0  0  0
    3.5173    1.0792    1.0329 H   0  0  0  0  0  0  0  0  0  0  0  0
    6.4922   -0.1687   -2.3105 H   0  0  0  0  0  0  0  0  0  0  0  0
    7.1117   -2.5246   -2.7749 H   0  0  0  0  0  0  0  0  0  0  0  0
    3.2461   -3.6996   -1.4156 H   0  0  0  0  0  0  0  0  0  0  0  0
  1  2  2  0  0  0  0
  1  6  1  0  0  0  0
  1 27  1  0  0  0  0
  2  3  1  0  0  0  0
  2 28  1  0  0  0  0
  3  4  2  0  0  0  0
  3 29  1  0  0  0  0
  4  5  1  0  0  0  0
  4 26  1  0  0  0  0
  5  6  2  0  0  0  0
  5  7  1  0  0  0  0
  6 30  1  0  0  0  0
  7  8  1  0  0  0  0
  7 31  1  0  0  0  0
  8  9  2  0  0  0  0
  8 10  1  0  0  0  0
 10 32  1  0  0  0  0
 11 10  1  0  0  0  0
 11 12  1  0  0  0  0
 11 15  1  0  0  0  0
 11 33  1  1  0  0  0
 12 13  1  0  0  0  0
 12 34  1  0  0  0  0
 12 35  1  0  0  0  0
 13 14  1  0  0  0  0
 13 36  1  0  0  0  0
 13 37  1  0  0  0  0
 14 15  1  0  0  0  0
 14 16  1  0  0  0  0
 15 38  1  0  0  0  0
 15 39  1  0  0  0  0
 16 17  2  0  0  0  0
 16 21  1  0  0  0  0
 17 18  1  0  0  0  0
 17 40  1  0  0  0  0
 18 19  2  0  0  0  0
 18 41  1  0  0  0  0
 19 20  1  0  0  0  0
 19 22  1  0  0  0  0
 20 21  2  0  0  0  0
 20 42  1  0  0  0  0
 22 23  1  0  0  0  0
 22 24  1  0  0  0  0
 22 25  1  0  0  0  0
M  END
>  <DRUGBANK_ID>
DB11883

>  <COMMON_NAME>
SB-705498

>  <CAS_NUMBER>
501951-42-4

>  <UNII>
T74V9O0Y2W

$$$$
