A8N
 OpenBabel10282417143D

 57 59  0  0  0  0  0  0  0  0999 V2000
    3.6522    0.8931   -0.0556 C   0  0  0  0  0  0  0  0  0  0  0  0
    3.7608   -0.4760   -0.1708 C   0  0  0  0  0  0  0  0  0  0  0  0
    2.5986   -1.2329   -0.2503 C   0  0  0  0  0  0  0  0  0  0  0  0
    1.2933   -0.7175   -0.0267 C   0  0  0  0  0  0  0  0  0  0  0  0
    1.2184    0.6881    0.0096 C   0  0  0  0  0  0  0  0  0  0  0  0
    2.3880    1.4748   -0.0155 C   0  0  0  0  0  0  0  0  0  0  0  0
    0.0738   -1.4629    0.1276 C   0  0  0  0  0  0  0  0  0  0  0  0
   -1.1617   -0.7674    0.0561 C   0  0  0  0  0  0  0  0  0  0  0  0
   -1.1506    0.6360    0.0332 C   0  0  0  0  0  0  0  0  0  0  0  0
    0.0240    1.2854    0.0374 N   0  3  0  0  0  0  0  0  0  0  0  0
    0.0524   -2.8315    0.3839 N   0  0  0  0  0  0  0  0  0  0  0  0
   -2.5041   -1.4892    0.0304 C   0  0  0  0  0  0  0  0  0  0  0  0
   -3.6742   -0.6117   -0.4331 C   0  0  0  0  0  0  0  0  0  0  0  0
   -3.6585    0.7149    0.3107 C   0  0  0  0  0  0  0  0  0  0  0  0
   -2.3908    1.4798   -0.0459 C   0  0  0  0  0  0  0  0  0  0  0  0
    1.2001   -3.6527    0.7260 C   0  0  0  0  0  0  0  0  0  0  0  0
    1.1155   -4.2671    2.1032 C   0  0  0  0  0  0  0  0  0  0  0  0
   -0.0081   -5.2721    2.1984 C   0  0  0  0  0  0  0  0  0  0  0  0
    0.1564   -6.3687    1.1399 C   0  0  0  0  0  0  0  0  0  0  0  0
    1.4869   -7.1197    1.3031 C   0  0  0  0  0  0  0  0  0  0  0  0
    1.5759   -7.7793    2.6833 C   0  0  0  0  0  0  0  0  0  0  0  0
    0.4278   -8.7750    2.8953 C   0  0  0  0  0  0  0  0  0  0  0  0
    0.4222   -9.8752    1.8409 C   0  0  0  0  0  0  0  0  0  0  0  0
    1.6997  -10.6197    1.9282 N   0  3  0  0  0  0  0  0  0  0  0  0
    4.5549    1.4988   -0.0568 H   0  0  0  0  0  0  0  0  0  0  0  0
    4.7294   -0.9665   -0.2428 H   0  0  0  0  0  0  0  0  0  0  0  0
    2.7623   -2.2638   -0.5543 H   0  0  0  0  0  0  0  0  0  0  0  0
    2.3295    2.5599   -0.0087 H   0  0  0  0  0  0  0  0  0  0  0  0
    0.0051    2.3061    0.0215 H   0  0  0  0  0  0  0  0  0  0  0  0
   -0.8513   -3.2825    0.4969 H   0  0  0  0  0  0  0  0  0  0  0  0
   -2.7213   -1.8652    1.0379 H   0  0  0  0  0  0  0  0  0  0  0  0
   -2.4534   -2.3482   -0.6495 H   0  0  0  0  0  0  0  0  0  0  0  0
   -4.6243   -1.1310   -0.2630 H   0  0  0  0  0  0  0  0  0  0  0  0
   -3.6013   -0.4276   -1.5134 H   0  0  0  0  0  0  0  0  0  0  0  0
   -4.5394    1.3131    0.0516 H   0  0  0  0  0  0  0  0  0  0  0  0
   -3.6982    0.5326    1.3920 H   0  0  0  0  0  0  0  0  0  0  0  0
   -2.4727    1.8628   -1.0710 H   0  0  0  0  0  0  0  0  0  0  0  0
   -2.2907    2.3448    0.6195 H   0  0  0  0  0  0  0  0  0  0  0  0
    1.3620   -4.3722   -0.0835 H   0  0  0  0  0  0  0  0  0  0  0  0
    2.1248   -3.1205    0.8478 H   0  0  0  0  0  0  0  0  0  0  0  0
    2.0843   -4.7450    2.3098 H   0  0  0  0  0  0  0  0  0  0  0  0
    1.0215   -3.4867    2.8645 H   0  0  0  0  0  0  0  0  0  0  0  0
   -0.0183   -5.6862    3.2115 H   0  0  0  0  0  0  0  0  0  0  0  0
   -0.9713   -4.7707    2.0771 H   0  0  0  0  0  0  0  0  0  0  0  0
   -0.6979   -7.0478    1.1972 H   0  0  0  0  0  0  0  0  0  0  0  0
    0.0956   -5.9604    0.1263 H   0  0  0  0  0  0  0  0  0  0  0  0
    1.5899   -7.8569    0.5006 H   0  0  0  0  0  0  0  0  0  0  0  0
    2.3490   -6.4590    1.1577 H   0  0  0  0  0  0  0  0  0  0  0  0
    2.5493   -8.2658    2.7984 H   0  0  0  0  0  0  0  0  0  0  0  0
    1.5581   -7.0266    3.4792 H   0  0  0  0  0  0  0  0  0  0  0  0
    0.5000   -9.2053    3.8990 H   0  0  0  0  0  0  0  0  0  0  0  0
   -0.5380   -8.2552    2.8767 H   0  0  0  0  0  0  0  0  0  0  0  0
   -0.3897  -10.5867    2.0002 H   0  0  0  0  0  0  0  0  0  0  0  0
    0.3417   -9.4919    0.8188 H   0  0  0  0  0  0  0  0  0  0  0  0
    1.8095  -11.0438    2.8588 H   0  0  0  0  0  0  0  0  0  0  0  0
    1.7505  -11.3713    1.2303 H   0  0  0  0  0  0  0  0  0  0  0  0
    2.5185  -10.0174    1.7700 H   0  0  0  0  0  0  0  0  0  0  0  0
  1  2  2  0  0  0  0
  1  6  1  0  0  0  0
  1 25  1  0  0  0  0
  2  3  1  0  0  0  0
  2 26  1  0  0  0  0
  3  4  2  0  0  0  0
  3 27  1  0  0  0  0
  4  5  1  0  0  0  0
  4  7  1  0  0  0  0
  5  6  2  0  0  0  0
  5 10  1  0  0  0  0
  6 28  1  0  0  0  0
  7  8  2  0  0  0  0
  7 11  1  0  0  0  0
  8  9  1  0  0  0  0
  8 12  1  0  0  0  0
  9 10  2  0  0  0  0
  9 15  1  0  0  0  0
 10 29  1  0  0  0  0
 11 16  1  0  0  0  0
 11 30  1  0  0  0  0
 12 13  1  0  0  0  0
 12 31  1  0  0  0  0
 12 32  1  0  0  0  0
 13 14  1  0  0  0  0
 13 33  1  0  0  0  0
 13 34  1  0  0  0  0
 14 15  1  0  0  0  0
 14 35  1  0  0  0  0
 14 36  1  0  0  0  0
 15 37  1  0  0  0  0
 15 38  1  0  0  0  0
 16 17  1  0  0  0  0
 16 39  1  0  0  0  0
 16 40  1  0  0  0  0
 17 18  1  0  0  0  0
 17 41  1  0  0  0  0
 17 42  1  0  0  0  0
 18 19  1  0  0  0  0
 18 43  1  0  0  0  0
 18 44  1  0  0  0  0
 19 20  1  0  0  0  0
 19 45  1  0  0  0  0
 19 46  1  0  0  0  0
 20 21  1  0  0  0  0
 20 47  1  0  0  0  0
 20 48  1  0  0  0  0
 21 22  1  0  0  0  0
 21 49  1  0  0  0  0
 21 50  1  0  0  0  0
 22 23  1  0  0  0  0
 22 51  1  0  0  0  0
 22 52  1  0  0  0  0
 23 24  1  0  0  0  0
 23 53  1  0  0  0  0
 23 54  1  0  0  0  0
 24 55  1  0  0  0  0
 24 56  1  0  0  0  0
 24 57  1  0  0  0  0
M  CHG  2  10   1  24   1
M  END
>  <DRUGBANK_ID>
DB04617

>  <COMMON_NAME>
(9S)-9-[(8-AMMONIOOCTYL)AMINO]-1,2,3,4,9,10-HEXAHYDROACRIDINIUM

$$$$
