BTQ
 OpenBabel10282417143D

 32 33  0  0  0  0  0  0  0  0999 V2000
    0.7592   -0.1317   -0.2015 C   0  0  0  0  0  0  0  0  0  0  0  0
    0.0229    0.4568    0.5742 O   0  0  0  0  0  0  0  0  0  0  0  0
    0.2532   -0.8785   -1.1834 O   0  0  0  0  0  0  0  0  0  0  0  0
    2.2367   -0.1290   -0.2038 C   0  0  0  0  0  0  0  0  0  0  0  0
    2.6533    0.6982    0.9769 C   0  0  0  0  0  0  0  0  0  0  0  0
    2.4376    0.0127    2.3563 C   0  0  0  0  0  0  0  0  0  0  0  0
    3.1001   -1.3602    2.5280 C   0  0  0  0  0  0  0  0  0  0  0  0
    4.6454   -1.3880    2.6244 C   0  0  1  0  0  0  0  0  0  0  0  0
    5.5384   -0.4450    1.3526 S   0  0  0  0  0  0  0  0  0  0  0  0
    5.2729    1.1544    2.2234 C   0  0  0  0  0  0  0  0  0  0  0  0
    5.3666    0.8188    3.6892 C   0  0  2  0  0  0  0  0  0  0  0  0
    6.6951    1.1019    4.1312 N   0  0  0  0  0  0  0  0  0  0  0  0
    7.3944   -0.0665    4.2881 C   0  0  0  0  0  0  0  0  0  0  0  0
    8.6119   -0.1429    4.4150 O   0  0  0  0  0  0  0  0  0  0  0  0
    6.5103   -1.1220    4.2683 N   0  0  0  0  0  0  0  0  0  0  0  0
    5.1694   -0.7032    3.9036 C   0  0  2  0  0  0  0  0  0  0  0  0
    4.9581   -2.4397    2.5744 H   0  0  0  0  0  0  0  0  0  0  0  0
    4.6660    1.4140    4.2854 H   0  0  0  0  0  0  0  0  0  0  0  0
    4.5173   -0.9257    4.7545 H   0  0  0  0  0  0  0  0  0  0  0  0
   -0.7048   -0.7586   -1.0287 H   0  0  0  0  0  0  0  0  0  0  0  0
    2.6596   -1.1371   -0.1527 H   0  0  0  0  0  0  0  0  0  0  0  0
    2.6264    0.3393   -1.1155 H   0  0  0  0  0  0  0  0  0  0  0  0
    3.6673    0.9042    0.6754 H   0  0  0  0  0  0  0  0  0  0  0  0
    2.2227    1.7062    1.0008 H   0  0  0  0  0  0  0  0  0  0  0  0
    2.7434    0.6584    3.1878 H   0  0  0  0  0  0  0  0  0  0  0  0
    1.3620   -0.1014    2.5309 H   0  0  0  0  0  0  0  0  0  0  0  0
    2.6979   -1.8125    3.4476 H   0  0  0  0  0  0  0  0  0  0  0  0
    2.7519   -2.0348    1.7360 H   0  0  0  0  0  0  0  0  0  0  0  0
    4.2930    1.6208    2.1696 H   0  0  0  0  0  0  0  0  0  0  0  0
    5.9099    1.9350    1.8067 H   0  0  0  0  0  0  0  0  0  0  0  0
    7.1809    1.9607    3.9060 H   0  0  0  0  0  0  0  0  0  0  0  0
    6.8372   -2.0747    4.3391 H   0  0  0  0  0  0  0  0  0  0  0  0
  1  2  2  0  0  0  0
  1  3  1  0  0  0  0
  1  4  1  0  0  0  0
  3 20  1  0  0  0  0
  4  5  1  0  0  0  0
  4 21  1  0  0  0  0
  4 22  1  0  0  0  0
  5  6  1  0  0  0  0
  5 23  1  0  0  0  0
  5 24  1  0  0  0  0
  6  7  1  0  0  0  0
  6 25  1  0  0  0  0
  6 26  1  0  0  0  0
  7 27  1  0  0  0  0
  7 28  1  0  0  0  0
  8  7  1  0  0  0  0
  8  9  1  0  0  0  0
  8 16  1  0  0  0  0
  8 17  1  6  0  0  0
  9 10  1  0  0  0  0
 10 11  1  0  0  0  0
 10 29  1  0  0  0  0
 10 30  1  0  0  0  0
 11 12  1  0  0  0  0
 11 16  1  0  0  0  0
 11 18  1  1  0  0  0
 12 13  1  0  0  0  0
 12 31  1  0  0  0  0
 13 14  2  0  0  0  0
 13 15  1  0  0  0  0
 15 16  1  0  0  0  0
 15 32  1  0  0  0  0
 16 19  1  1  0  0  0
M  END
>  <DRUGBANK_ID>
DB04650

>  <COMMON_NAME>
5-[(3AS,4R,6AR)-2-OXOHEXAHYDRO-1H-THIENO[3,4-D]IMIDAZOL-4-YL]PENTANOIC ACID

$$$$
