24244
 OpenBabel10282417103D

 98102  0  0  1  0  0  0  0  0999 V2000
    0.9170    0.0530    0.0172 I   0  5  0  0  0  0  0  0  0  0  0  0
    1.0713   -0.0320    0.0623 I   0  5  0  0  0  0  0  0  0  0  0  0
    1.0936   -0.0299    0.0184 O   0  0  0  0  0  0  0  0  0  0  0  0
    6.7487   -3.2987   -4.8583 O   0  0  0  0  0  0  0  0  0  0  0  0
   10.0245   -1.3736   -9.3520 O   0  0  0  0  0  0  0  0  0  0  0  0
   11.3367   -3.1315   -7.5692 O   0  0  0  0  0  0  0  0  0  0  0  0
    4.2702   -2.4569   -5.9254 O   0  0  0  0  0  0  0  0  0  0  0  0
    6.2033   -5.8328   -4.2517 O   0  0  0  0  0  0  0  0  0  0  0  0
    6.5211   -6.3271  -10.4190 N   0  3  0  0  0  0  0  0  0  0  0  0
    6.4513    2.1272   -1.9565 N   0  3  0  0  0  0  0  0  0  0  0  0
    6.6693   -4.8076  -10.3960 C   0  0  1  0  0  0  0  0  0  0  0  0
    6.9627    0.6890   -1.9961 C   0  0  2  0  0  0  0  0  0  0  0  0
    6.6395   -6.8462   -8.9815 C   0  0  0  0  0  0  0  0  0  0  0  0
    4.9235    2.0941   -1.8363 C   0  0  0  0  0  0  0  0  0  0  0  0
    7.9072   -4.4068   -9.6360 C   0  0  0  0  0  0  0  0  0  0  0  0
    8.0871   -6.6732   -8.5256 C   0  0  0  0  0  0  0  0  0  0  0  0
    6.2231   -0.1083   -3.0392 C   0  0  0  0  0  0  0  0  0  0  0  0
    5.5802   -4.0755   -9.6291 C   0  0  0  0  0  0  0  0  0  0  0  0
    8.5555   -5.2627   -8.7713 C   0  0  0  0  0  0  0  0  0  0  0  0
    4.3483    1.5867   -3.1574 C   0  0  0  0  0  0  0  0  0  0  0  0
    7.5688   -6.9243  -11.2597 C   0  0  0  0  0  0  0  0  0  0  0  0
    5.2080   -6.6897  -10.9713 C   0  0  0  0  0  0  0  0  0  0  0  0
    6.7471    0.0530   -0.6325 C   0  0  0  0  0  0  0  0  0  0  0  0
    5.0180    0.3016   -3.5686 C   0  0  0  0  0  0  0  0  0  0  0  0
    6.8465    2.8379   -3.1811 C   0  0  0  0  0  0  0  0  0  0  0  0
    7.0255    2.8266   -0.7980 C   0  0  0  0  0  0  0  0  0  0  0  0
    8.3886   -3.1210   -9.8234 C   0  0  0  0  0  0  0  0  0  0  0  0
    5.5807   -4.5392   -8.1815 C   0  0  0  0  0  0  0  0  0  0  0  0
    6.7918   -1.2997   -3.4605 C   0  0  0  0  0  0  0  0  0  0  0  0
    9.6903   -4.8328   -8.0913 C   0  0  0  0  0  0  0  0  0  0  0  0
    5.2645    0.0626   -0.2976 C   0  0  0  0  0  0  0  0  0  0  0  0
    4.3783   -0.4816   -4.5238 C   0  0  0  0  0  0  0  0  0  0  0  0
    9.5283   -2.6885   -9.1488 C   0  0  0  0  0  0  0  0  0  0  0  0
    6.1572   -2.0839   -4.4214 C   0  0  0  0  0  0  0  0  0  0  0  0
   10.1787   -3.5586   -8.2713 C   0  0  0  0  0  0  0  0  0  0  0  0
    4.9348   -1.6656   -4.9514 C   0  0  0  0  0  0  0  0  0  0  0  0
    5.8047   -3.6131   -7.1250 C   0  0  0  0  0  0  0  0  0  0  0  0
    5.3711   -5.8217   -7.8797 C   0  0  0  0  0  0  0  0  0  0  0  0
    4.5675   -1.1554   -0.0633 C   0  0  0  0  0  0  0  0  0  0  0  0
    4.5941    1.2133   -0.2183 C   0  0  0  0  0  0  0  0  0  0  0  0
    2.5136   -0.0299    0.0184 C   0  0  0  0  0  0  0  0  0  0  0  0
    6.0970   -4.0936   -5.8380 C   0  0  0  0  0  0  0  0  0  0  0  0
    3.1631   -1.1545   -0.0525 C   0  0  0  0  0  0  0  0  0  0  0  0
    3.2134    1.1817    0.0948 C   0  0  0  0  0  0  0  0  0  0  0  0
    5.3803   -6.2158   -6.5195 C   0  0  0  0  0  0  0  0  0  0  0  0
    5.8972   -5.3461   -5.5501 C   0  0  0  0  0  0  0  0  0  0  0  0
   11.1867   -0.9388   -8.6615 C   0  0  0  0  0  0  0  0  0  0  0  0
   11.9946   -4.0199   -6.6779 C   0  0  0  0  0  0  0  0  0  0  0  0
    3.0274   -2.0274   -6.4614 C   0  0  0  0  0  0  0  0  0  0  0  0
    5.9855   -7.2001   -3.9364 C   0  0  0  0  0  0  0  0  0  0  0  0
    6.6610   -4.5491  -11.4343 H   0  0  0  0  0  0  0  0  0  0  0  0
    8.0034    0.6951   -2.2444 H   0  0  0  0  0  0  0  0  0  0  0  0
    5.9828   -6.2997   -8.3374 H   0  0  0  0  0  0  0  0  0  0  0  0
    6.3710   -7.8814   -8.9477 H   0  0  0  0  0  0  0  0  0  0  0  0
    4.6312    1.4479   -1.0351 H   0  0  0  0  0  0  0  0  0  0  0  0
    4.5551    3.0784   -1.6358 H   0  0  0  0  0  0  0  0  0  0  0  0
    8.1453   -6.8782   -7.4770 H   0  0  0  0  0  0  0  0  0  0  0  0
    8.7108   -7.3508   -9.0704 H   0  0  0  0  0  0  0  0  0  0  0  0
    4.6290   -4.2871  -10.0710 H   0  0  0  0  0  0  0  0  0  0  0  0
    5.7643   -3.0221   -9.6662 H   0  0  0  0  0  0  0  0  0  0  0  0
    3.3015    1.4049   -3.0306 H   0  0  0  0  0  0  0  0  0  0  0  0
    4.5067    2.3243   -3.9162 H   0  0  0  0  0  0  0  0  0  0  0  0
    7.4585   -7.9886  -11.2648 H   0  0  0  0  0  0  0  0  0  0  0  0
    7.4798   -6.5517  -12.2588 H   0  0  0  0  0  0  0  0  0  0  0  0
    8.5305   -6.6672  -10.8675 H   0  0  0  0  0  0  0  0  0  0  0  0
    4.4360   -6.2677  -10.3623 H   0  0  0  0  0  0  0  0  0  0  0  0
    5.1233   -6.3104  -11.9682 H   0  0  0  0  0  0  0  0  0  0  0  0
    5.1088   -7.7550  -10.9854 H   0  0  0  0  0  0  0  0  0  0  0  0
    7.2837    0.6077    0.1086 H   0  0  0  0  0  0  0  0  0  0  0  0
    7.1024   -0.9561   -0.6494 H   0  0  0  0  0  0  0  0  0  0  0  0
    6.4793    3.8422   -3.1449 H   0  0  0  0  0  0  0  0  0  0  0  0
    7.9137    2.8509   -3.2573 H   0  0  0  0  0  0  0  0  0  0  0  0
    6.4342    2.3378   -4.0325 H   0  0  0  0  0  0  0  0  0  0  0  0
    6.7373    2.3233    0.1012 H   0  0  0  0  0  0  0  0  0  0  0  0
    8.0925    2.8320   -0.8775 H   0  0  0  0  0  0  0  0  0  0  0  0
    6.6644    3.8336   -0.7744 H   0  0  0  0  0  0  0  0  0  0  0  0
    7.7245   -1.6195   -3.0450 H   0  0  0  0  0  0  0  0  0  0  0  0
   10.1894   -5.5005   -7.4204 H   0  0  0  0  0  0  0  0  0  0  0  0
    3.4426   -0.1597   -4.9310 H   0  0  0  0  0  0  0  0  0  0  0  0
    5.7511   -2.5604   -7.3091 H   0  0  0  0  0  0  0  0  0  0  0  0
    5.1989   -6.5410   -8.6529 H   0  0  0  0  0  0  0  0  0  0  0  0
    5.1083   -2.0636    0.1031 H   0  0  0  0  0  0  0  0  0  0  0  0
    5.0917    2.1452   -0.3886 H   0  0  0  0  0  0  0  0  0  0  0  0
    2.6273   -2.0793   -0.1025 H   0  0  0  0  0  0  0  0  0  0  0  0
    2.7074    2.0778    0.3880 H   0  0  0  0  0  0  0  0  0  0  0  0
    4.9947   -7.1721   -6.2337 H   0  0  0  0  0  0  0  0  0  0  0  0
   11.0149   -0.9902   -7.6066 H   0  0  0  0  0  0  0  0  0  0  0  0
   12.0118   -1.5692   -8.9197 H   0  0  0  0  0  0  0  0  0  0  0  0
   11.4090    0.0707   -8.9379 H   0  0  0  0  0  0  0  0  0  0  0  0
   11.3173   -4.3152   -5.9040 H   0  0  0  0  0  0  0  0  0  0  0  0
   12.3224   -4.8856   -7.2146 H   0  0  0  0  0  0  0  0  0  0  0  0
   12.8400   -3.5282   -6.2436 H   0  0  0  0  0  0  0  0  0  0  0  0
    2.3115   -1.9342   -5.6717 H   0  0  0  0  0  0  0  0  0  0  0  0
    3.1544   -1.0795   -6.9413 H   0  0  0  0  0  0  0  0  0  0  0  0
    2.6798   -2.7447   -7.1751 H   0  0  0  0  0  0  0  0  0  0  0  0
    4.9492   -7.4346   -4.0627 H   0  0  0  0  0  0  0  0  0  0  0  0
    6.5720   -7.8141   -4.5875 H   0  0  0  0  0  0  0  0  0  0  0  0
    6.2713   -7.3820   -2.9214 H   0  0  0  0  0  0  0  0  0  0  0  0
  3 27  1  0  0  0  0
  3 41  1  0  0  0  0
  4 34  1  0  0  0  0
  4 42  1  0  0  0  0
  5 33  1  0  0  0  0
  5 47  1  0  0  0  0
  6 35  1  0  0  0  0
  6 48  1  0  0  0  0
  7 36  1  0  0  0  0
  7 49  1  0  0  0  0
  8 46  1  0  0  0  0
  8 50  1  0  0  0  0
  9 11  1  0  0  0  0
  9 13  1  0  0  0  0
  9 21  1  0  0  0  0
  9 22  1  0  0  0  0
 10 12  1  0  0  0  0
 10 14  1  0  0  0  0
 10 25  1  0  0  0  0
 10 26  1  0  0  0  0
 11 15  1  0  0  0  0
 11 18  1  0  0  0  0
 11 51  1  1  0  0  0
 12 17  1  0  0  0  0
 12 23  1  0  0  0  0
 12 52  1  6  0  0  0
 13 16  1  0  0  0  0
 13 53  1  0  0  0  0
 13 54  1  0  0  0  0
 14 20  1  0  0  0  0
 14 55  1  0  0  0  0
 14 56  1  0  0  0  0
 15 19  1  0  0  0  0
 15 27  2  0  0  0  0
 16 19  1  0  0  0  0
 16 57  1  0  0  0  0
 16 58  1  0  0  0  0
 17 24  1  0  0  0  0
 17 29  2  0  0  0  0
 18 28  1  0  0  0  0
 18 59  1  0  0  0  0
 18 60  1  0  0  0  0
 19 30  2  0  0  0  0
 20 24  1  0  0  0  0
 20 61  1  0  0  0  0
 20 62  1  0  0  0  0
 21 63  1  0  0  0  0
 21 64  1  0  0  0  0
 21 65  1  0  0  0  0
 22 66  1  0  0  0  0
 22 67  1  0  0  0  0
 22 68  1  0  0  0  0
 23 31  1  0  0  0  0
 23 69  1  0  0  0  0
 23 70  1  0  0  0  0
 24 32  2  0  0  0  0
 25 71  1  0  0  0  0
 25 72  1  0  0  0  0
 25 73  1  0  0  0  0
 26 74  1  0  0  0  0
 26 75  1  0  0  0  0
 26 76  1  0  0  0  0
 27 33  1  0  0  0  0
 28 37  2  0  0  0  0
 28 38  1  0  0  0  0
 29 34  1  0  0  0  0
 29 77  1  0  0  0  0
 30 35  1  0  0  0  0
 30 78  1  0  0  0  0
 31 39  2  0  0  0  0
 31 40  1  0  0  0  0
 32 36  1  0  0  0  0
 32 79  1  0  0  0  0
 33 35  2  0  0  0  0
 34 36  2  0  0  0  0
 37 42  1  0  0  0  0
 37 80  1  0  0  0  0
 38 45  2  0  0  0  0
 38 81  1  0  0  0  0
 39 43  1  0  0  0  0
 39 82  1  0  0  0  0
 40 44  2  0  0  0  0
 40 83  1  0  0  0  0
 41 43  2  0  0  0  0
 41 44  1  0  0  0  0
 42 46  2  0  0  0  0
 43 84  1  0  0  0  0
 44 85  1  0  0  0  0
 45 46  1  0  0  0  0
 45 86  1  0  0  0  0
 47 87  1  0  0  0  0
 47 88  1  0  0  0  0
 47 89  1  0  0  0  0
 48 90  1  0  0  0  0
 48 91  1  0  0  0  0
 48 92  1  0  0  0  0
 49 93  1  0  0  0  0
 49 94  1  0  0  0  0
 49 95  1  0  0  0  0
 50 96  1  0  0  0  0
 50 97  1  0  0  0  0
 50 98  1  0  0  0  0
M  CHG  4   1  -1   2  -1   9   1  10   1
M  END
>  <DRUGBANK_ID>
DB00416

>  <SECONDARY_ACCESSION_NUMBERS>
APRD01318

>  <COMMON_NAME>
Metocurine iodide

>  <CAS_NUMBER>
7601-55-0

>  <UNII>
O0U0E87X7F

>  <SYNONYMS>
Dimethyl tubocurarine iodide; Dimethylchondrocurarine iodide; Dimethyltubocurarinium iodide; Metocurine iodide; Metocurini iodidum; Metubine iodide

$$$$
