1246
 OpenBabel10282417113D

 43 45  0  0  1  0  0  0  0  0999 V2000
    0.0414    1.7790    0.4179 S   0  0  0  0  0  0  0  0  0  0  0  0
    0.0258   -1.2645    0.6506 N   0  0  0  0  0  0  0  0  0  0  0  0
   -3.0693   -2.6395    2.6779 N   0  0  0  0  0  0  0  0  0  0  0  0
   -0.7538   -1.6107    3.1681 C   0  0  3  0  0  0  0  0  0  0  0  0
    0.1017   -2.0508    1.9432 C   0  0  0  0  0  0  0  0  0  0  0  0
   -2.2621   -1.4156    2.9345 C   0  0  0  0  0  0  0  0  0  0  0  0
   -0.6183   -2.5932    4.3569 C   0  0  0  0  0  0  0  0  0  0  0  0
    1.2825   -0.7143    0.3082 C   0  0  0  0  0  0  0  0  0  0  0  0
   -1.1288   -0.7134    0.0613 C   0  0  0  0  0  0  0  0  0  0  0  0
    1.4072    0.6693    0.0700 C   0  0  0  0  0  0  0  0  0  0  0  0
   -1.3073    0.6860   -0.0169 C   0  0  0  0  0  0  0  0  0  0  0  0
    2.3656   -1.5686    0.0565 C   0  0  0  0  0  0  0  0  0  0  0  0
   -2.1091   -1.4789   -0.5888 C   0  0  0  0  0  0  0  0  0  0  0  0
   -4.3942   -2.2285    2.2169 C   0  0  0  0  0  0  0  0  0  0  0  0
   -2.4720   -3.5329    1.6973 C   0  0  0  0  0  0  0  0  0  0  0  0
    2.5908    1.1666   -0.4577 C   0  0  0  0  0  0  0  0  0  0  0  0
   -2.5170    1.2295   -0.4704 C   0  0  0  0  0  0  0  0  0  0  0  0
    3.5423   -1.0652   -0.4735 C   0  0  0  0  0  0  0  0  0  0  0  0
   -3.3637   -0.9644   -0.9121 C   0  0  0  0  0  0  0  0  0  0  0  0
    3.6497    0.3014   -0.7438 C   0  0  0  0  0  0  0  0  0  0  0  0
   -3.5793    0.4088   -0.8352 C   0  0  0  0  0  0  0  0  0  0  0  0
   -0.3403   -0.6500    3.5102 H   0  0  0  0  0  0  0  0  0  0  0  0
   -0.0031   -3.1139    1.7128 H   0  0  0  0  0  0  0  0  0  0  0  0
    1.1360   -2.0206    2.3266 H   0  0  0  0  0  0  0  0  0  0  0  0
   -2.6769   -0.9362    3.8338 H   0  0  0  0  0  0  0  0  0  0  0  0
   -2.4032   -0.6593    2.1618 H   0  0  0  0  0  0  0  0  0  0  0  0
    0.4202   -2.7764    4.6392 H   0  0  0  0  0  0  0  0  0  0  0  0
   -1.1437   -2.1963    5.2362 H   0  0  0  0  0  0  0  0  0  0  0  0
   -1.0746   -3.5644    4.1381 H   0  0  0  0  0  0  0  0  0  0  0  0
    2.2603   -2.6420    0.2131 H   0  0  0  0  0  0  0  0  0  0  0  0
   -1.9388   -2.5367   -0.8008 H   0  0  0  0  0  0  0  0  0  0  0  0
   -4.3446   -1.4966    1.4095 H   0  0  0  0  0  0  0  0  0  0  0  0
   -4.9634   -3.0881    1.8494 H   0  0  0  0  0  0  0  0  0  0  0  0
   -4.9589   -1.7815    3.0372 H   0  0  0  0  0  0  0  0  0  0  0  0
   -1.9293   -2.9422    1.0035 H   0  0  0  0  0  0  0  0  0  0  0  0
   -1.7254   -4.2173    2.1048 H   0  0  0  0  0  0  0  0  0  0  0  0
   -3.1712   -4.1146    1.0920 H   0  0  0  0  0  0  0  0  0  0  0  0
    2.6813    2.2266   -0.6822 H   0  0  0  0  0  0  0  0  0  0  0  0
   -2.6450    2.3104   -0.5307 H   0  0  0  0  0  0  0  0  0  0  0  0
    4.3596   -1.7400   -0.7097 H   0  0  0  0  0  0  0  0  0  0  0  0
   -4.1796   -1.6342   -1.1700 H   0  0  0  0  0  0  0  0  0  0  0  0
    4.5559    0.6903   -1.1930 H   0  0  0  0  0  0  0  0  0  0  0  0
   -4.5481    0.8200   -1.0899 H   0  0  0  0  0  0  0  0  0  0  0  0
  1 10  1  0  0  0  0
  1 11  1  0  0  0  0
  2  5  1  0  0  0  0
  2  8  1  0  0  0  0
  2  9  1  0  0  0  0
  3  6  1  0  0  0  0
  3 14  1  0  0  0  0
  3 15  1  0  0  0  0
  4  5  1  0  0  0  0
  4  6  1  0  0  0  0
  4  7  1  0  0  0  0
  4 22  1  0  0  0  0
  5 23  1  0  0  0  0
  5 24  1  0  0  0  0
  6 25  1  0  0  0  0
  6 26  1  0  0  0  0
  7 27  1  0  0  0  0
  7 28  1  0  0  0  0
  7 29  1  0  0  0  0
  8 10  1  0  0  0  0
  8 12  2  0  0  0  0
  9 11  1  0  0  0  0
  9 13  2  0  0  0  0
 10 16  2  0  0  0  0
 11 17  2  0  0  0  0
 12 18  1  0  0  0  0
 12 30  1  0  0  0  0
 13 19  1  0  0  0  0
 13 31  1  0  0  0  0
 14 32  1  0  0  0  0
 14 33  1  0  0  0  0
 14 34  1  0  0  0  0
 15 35  1  0  0  0  0
 15 36  1  0  0  0  0
 15 37  1  0  0  0  0
 16 20  1  0  0  0  0
 16 38  1  0  0  0  0
 17 21  1  0  0  0  0
 17 39  1  0  0  0  0
 18 20  2  0  0  0  0
 18 40  1  0  0  0  0
 19 21  2  0  0  0  0
 19 41  1  0  0  0  0
 20 42  1  0  0  0  0
 21 43  1  0  0  0  0
M  END
>  <DRUGBANK_ID>
DB01246

>  <SECONDARY_ACCESSION_NUMBERS>
APRD00258

>  <COMMON_NAME>
Alimemazine

>  <CAS_NUMBER>
84-96-8

>  <UNII>
76H78MJJ52

>  <SYNONYMS>
Alimemazina; Alimemazine; Alimemazinum; Methylpromazine; Trimeprazine

$$$$
