
 OpenBabel10282417143D

 16 16  0  0  0  0  0  0  0  0999 V2000
    1.0693    0.0564    0.1093 O   0  0  0  0  0  0  0  0  0  0  0  0
    0.6351   -1.0406    0.8976 C   0  0  0  0  0  0  0  0  0  0  0  0
    1.0857   -2.3882    0.3957 C   0  0  0  0  0  0  0  0  0  0  0  0
    0.4170   -3.5409    0.8497 C   0  0  0  0  0  0  0  0  0  0  0  0
    0.8104   -4.8157    0.4276 C   0  0  0  0  0  0  0  0  0  0  0  0
    1.8814   -4.9592   -0.4510 C   0  0  0  0  0  0  0  0  0  0  0  0
    2.5546   -3.8267   -0.8964 C   0  0  0  0  0  0  0  0  0  0  0  0
    3.5853   -3.9681   -1.7404 F   0  0  0  0  0  0  0  0  0  0  0  0
    2.1690   -2.5580   -0.4703 C   0  0  0  0  0  0  0  0  0  0  0  0
    2.8647   -1.4905   -0.8946 F   0  0  0  0  0  0  0  0  0  0  0  0
    2.0282   -0.0455   -0.0312 H   0  0  0  0  0  0  0  0  0  0  0  0
    0.9981   -0.8880    1.9191 H   0  0  0  0  0  0  0  0  0  0  0  0
   -0.4594   -1.0037    0.9125 H   0  0  0  0  0  0  0  0  0  0  0  0
   -0.4234   -3.4499    1.5366 H   0  0  0  0  0  0  0  0  0  0  0  0
    0.2770   -5.6948    0.7836 H   0  0  0  0  0  0  0  0  0  0  0  0
    2.1976   -5.9408   -0.7894 H   0  0  0  0  0  0  0  0  0  0  0  0
  1  2  1  0  0  0  0
  1 11  1  0  0  0  0
  2  3  1  0  0  0  0
  2 12  1  0  0  0  0
  2 13  1  0  0  0  0
  3  4  2  0  0  0  0
  3  9  1  0  0  0  0
  4  5  1  0  0  0  0
  4 14  1  0  0  0  0
  5  6  2  0  0  0  0
  5 15  1  0  0  0  0
  6  7  1  0  0  0  0
  6 16  1  0  0  0  0
  7  8  1  0  0  0  0
  7  9  2  0  0  0  0
  9 10  1  0  0  0  0
M  END
>  <DRUGBANK_ID>
DB04312

>  <SECONDARY_ACCESSION_NUMBERS>
EXPT01168

>  <COMMON_NAME>
2,3-Difluorobenzyl Alcohol

>  <UNII>
I14VR7T96O

$$$$
