
 OpenBabel10282417233D

 32 33  0  0  0  0  0  0  0  0999 V2000
    0.4486    0.1045    0.2430 C   0  0  0  0  0  0  0  0  0  0  0  0
    0.1152    1.5574    0.5345 C   0  0  0  0  0  0  0  0  0  0  0  0
    1.0435    2.5452    0.5787 C   0  0  0  0  0  0  0  0  0  0  0  0
    2.4303    2.2978    0.4360 C   0  0  0  0  0  0  0  0  0  0  0  0
    0.4801    3.8115    0.3156 C   0  0  0  0  0  0  0  0  0  0  0  0
    1.1951    5.0825   -0.1016 C   0  0  0  0  0  0  0  0  0  0  0  0
    0.7274    6.1639    0.1875 O   0  0  0  0  0  0  0  0  0  0  0  0
    2.4963    5.1203   -0.7531 N   0  0  0  0  0  0  0  0  0  0  0  0
    3.4015    4.1719   -1.4081 C   0  0  0  0  0  0  0  0  0  0  0  0
    2.9543    3.1443   -2.2976 C   0  0  0  0  0  0  0  0  0  0  0  0
    3.6416    1.8970   -2.3757 C   0  0  0  0  0  0  0  0  0  0  0  0
    4.8761    1.7268   -1.7520 C   0  0  0  0  0  0  0  0  0  0  0  0
    5.4254    2.7966   -1.0421 C   0  0  0  0  0  0  0  0  0  0  0  0
    4.6845    3.9898   -0.8297 C   0  0  0  0  0  0  0  0  0  0  0  0
   -0.8316    3.5882    0.7293 C   0  0  0  0  0  0  0  0  0  0  0  0
   -1.8723    4.5755    1.1351 C   0  0  0  0  0  0  0  0  0  0  0  0
   -1.1035    2.1871    0.7414 O   0  0  0  0  0  0  0  0  0  0  0  0
    0.1968   -0.2306   -0.7708 H   0  0  0  0  0  0  0  0  0  0  0  0
    0.1771   -0.6159    1.0101 H   0  0  0  0  0  0  0  0  0  0  0  0
    1.5506   -0.0208    0.2186 H   0  0  0  0  0  0  0  0  0  0  0  0
    2.2951    2.7658   -0.4884 H   0  0  0  0  0  0  0  0  0  0  0  0
    3.0905    2.8994    1.0420 H   0  0  0  0  0  0  0  0  0  0  0  0
    2.8151    1.3676    0.0500 H   0  0  0  0  0  0  0  0  0  0  0  0
    2.9157    6.0286   -0.5683 H   0  0  0  0  0  0  0  0  0  0  0  0
    1.9082    3.1202   -2.6080 H   0  0  0  0  0  0  0  0  0  0  0  0
    3.1096    1.0052   -2.7247 H   0  0  0  0  0  0  0  0  0  0  0  0
    5.3515    0.7437   -1.7258 H   0  0  0  0  0  0  0  0  0  0  0  0
    6.3851    2.6482   -0.5470 H   0  0  0  0  0  0  0  0  0  0  0  0
    5.0343    4.6333   -0.0202 H   0  0  0  0  0  0  0  0  0  0  0  0
   -2.7804    4.5299    0.5333 H   0  0  0  0  0  0  0  0  0  0  0  0
   -2.1174    4.5044    2.2021 H   0  0  0  0  0  0  0  0  0  0  0  0
   -1.4727    5.5900    1.0111 H   0  0  0  0  0  0  0  0  0  0  0  0
  1  2  1  0  0  0  0
  1 18  1  0  0  0  0
  1 19  1  0  0  0  0
  1 20  1  0  0  0  0
  2  3  2  0  0  0  0
  2 17  1  0  0  0  0
  3  4  1  0  0  0  0
  3  5  1  0  0  0  0
  4 21  1  0  0  0  0
  4 22  1  0  0  0  0
  4 23  1  0  0  0  0
  5  6  1  0  0  0  0
  5 15  2  0  0  0  0
  6  7  2  0  0  0  0
  6  8  1  0  0  0  0
  8  9  1  0  0  0  0
  8 24  1  0  0  0  0
  9 10  2  0  0  0  0
  9 14  1  0  0  0  0
 10 11  1  0  0  0  0
 10 25  1  0  0  0  0
 11 12  2  0  0  0  0
 11 26  1  0  0  0  0
 12 13  1  0  0  0  0
 12 27  1  0  0  0  0
 13 14  2  0  0  0  0
 13 28  1  0  0  0  0
 14 29  1  0  0  0  0
 15 16  1  0  0  0  0
 15 17  1  0  0  0  0
 16 30  1  0  0  0  0
 16 31  1  0  0  0  0
 16 32  1  0  0  0  0
M  END
>  <DRUGBANK_ID>
DB16231

>  <COMMON_NAME>
Methfuroxam

>  <CAS_NUMBER>
28730-17-8

>  <UNII>
4K9VG91RQZ

>  <SYNONYMS>
Furavax; Trivax

$$$$
