
 OpenBabel10282417113D

 60 61  0  0  0  0  0  0  0  0999 V2000
    0.6263    4.9040    0.6550 C   0  0  1  0  0  0  0  0  0  0  0  0
    0.6648    5.9879    1.6075 O   0  0  0  0  0  0  0  0  0  0  0  0
    1.4314    3.7144    1.2204 C   0  0  1  0  0  0  0  0  0  0  0  0
    2.9114    5.3505    2.3803 C   0  0  2  0  0  0  0  0  0  0  0  0
    2.8758    4.1367    1.4424 C   0  0  1  0  0  0  0  0  0  0  0  0
   -0.8232    4.4924    0.2340 C   0  0  2  0  0  0  0  0  0  0  0  0
    0.1075    2.8615   -1.3791 C   0  0  0  0  0  0  0  0  0  0  0  0
   -0.8183    3.1576   -0.4045 N   0  0  0  0  0  0  0  0  0  0  0  0
    2.0094    6.4836    1.8185 C   0  0  1  0  0  0  0  0  0  0  0  0
    0.6700    1.3896   -3.3195 N   0  0  0  0  0  0  0  0  0  0  0  0
    0.1005    1.4399   -1.9536 C   0  0  1  0  0  0  0  0  0  0  0  0
    2.1197    1.4957   -3.1561 C   0  0  0  0  0  0  0  0  0  0  0  0
    0.9564    3.7053   -1.7010 O   0  0  0  0  0  0  0  0  0  0  0  0
    1.0438    0.5192   -1.1851 C   0  0  0  0  0  0  0  0  0  0  0  0
   -1.4477    5.5439   -0.7298 C   0  0  1  0  0  0  0  0  0  0  0  0
    2.8346    7.1592    0.2928 S   0  0  0  0  0  0  0  0  0  0  0  0
    2.3815    0.6227   -1.9347 C   0  0  1  0  0  0  0  0  0  0  0  0
    4.2542    5.8002    2.5729 O   0  0  0  0  0  0  0  0  0  0  0  0
    0.8502    3.2214    2.4376 O   0  0  0  0  0  0  0  0  0  0  0  0
    3.6289    3.0382    1.9630 O   0  0  0  0  0  0  0  0  0  0  0  0
    0.1427    2.4151   -4.2063 C   0  0  0  0  0  0  0  0  0  0  0  0
   -3.1233    5.0605   -1.1800 Cl  0  0  0  0  0  0  0  0  0  0  0  0
    2.9562   -0.7495   -2.3193 C   0  0  0  0  0  0  0  0  0  0  0  0
    2.0036    8.7318    0.0460 C   0  0  0  0  0  0  0  0  0  0  0  0
   -1.5056    6.9460   -0.1519 C   0  0  0  0  0  0  0  0  0  0  0  0
    4.4244   -0.8156   -1.9066 C   0  0  0  0  0  0  0  0  0  0  0  0
    4.5717   -0.7329   -0.3899 C   0  0  0  0  0  0  0  0  0  0  0  0
    1.1018    5.2889   -0.2475 H   0  0  0  0  0  0  0  0  0  0  0  0
   -1.4507    4.4175    1.1307 H   0  0  0  0  0  0  0  0  0  0  0  0
    1.4746    2.8565    0.5564 H   0  0  0  0  0  0  0  0  0  0  0  0
    2.5423    5.0394    3.3653 H   0  0  0  0  0  0  0  0  0  0  0  0
    3.3375    4.3766    0.4772 H   0  0  0  0  0  0  0  0  0  0  0  0
   -1.5396    2.4890   -0.1584 H   0  0  0  0  0  0  0  0  0  0  0  0
    1.9553    7.2917    2.5552 H   0  0  0  0  0  0  0  0  0  0  0  0
   -0.9227    1.0540   -1.9291 H   0  0  0  0  0  0  0  0  0  0  0  0
    2.6732    1.1748   -4.0438 H   0  0  0  0  0  0  0  0  0  0  0  0
    2.4660    2.5147   -2.9415 H   0  0  0  0  0  0  0  0  0  0  0  0
    1.1780    0.7935   -0.1322 H   0  0  0  0  0  0  0  0  0  0  0  0
    0.6602   -0.5076   -1.1927 H   0  0  0  0  0  0  0  0  0  0  0  0
   -0.8859    5.5723   -1.6710 H   0  0  0  0  0  0  0  0  0  0  0  0
    3.0775    1.1880   -1.3073 H   0  0  0  0  0  0  0  0  0  0  0  0
    4.5963    5.9991    1.6790 H   0  0  0  0  0  0  0  0  0  0  0  0
    0.6039    3.9889    2.9831 H   0  0  0  0  0  0  0  0  0  0  0  0
    3.1375    2.7029    2.7342 H   0  0  0  0  0  0  0  0  0  0  0  0
    0.3279    3.4402   -3.8719 H   0  0  0  0  0  0  0  0  0  0  0  0
    0.5934    2.3252   -5.1974 H   0  0  0  0  0  0  0  0  0  0  0  0
   -0.9379    2.2868   -4.3093 H   0  0  0  0  0  0  0  0  0  0  0  0
    2.4153   -1.5766   -1.8442 H   0  0  0  0  0  0  0  0  0  0  0  0
    2.8755   -0.9222   -3.4009 H   0  0  0  0  0  0  0  0  0  0  0  0
    0.9235    8.6457   -0.0342 H   0  0  0  0  0  0  0  0  0  0  0  0
    2.2648    9.4267    0.8433 H   0  0  0  0  0  0  0  0  0  0  0  0
    2.3638    9.1369   -0.9049 H   0  0  0  0  0  0  0  0  0  0  0  0
   -0.5053    7.3008    0.0671 H   0  0  0  0  0  0  0  0  0  0  0  0
   -1.9313    7.6607   -0.8626 H   0  0  0  0  0  0  0  0  0  0  0  0
   -2.0804    6.9786    0.7779 H   0  0  0  0  0  0  0  0  0  0  0  0
    4.8656   -1.7509   -2.2670 H   0  0  0  0  0  0  0  0  0  0  0  0
    4.9717    0.0060   -2.3845 H   0  0  0  0  0  0  0  0  0  0  0  0
    4.0516   -1.5674    0.0895 H   0  0  0  0  0  0  0  0  0  0  0  0
    5.6255   -0.7531   -0.1081 H   0  0  0  0  0  0  0  0  0  0  0  0
    4.1526    0.1868    0.0299 H   0  0  0  0  0  0  0  0  0  0  0  0
  1 28  1  6  0  0  0
  2  1  1  0  0  0  0
  3  1  1  0  0  0  0
  3 19  1  0  0  0  0
  3 30  1  6  0  0  0
  4  5  1  0  0  0  0
  4 18  1  0  0  0  0
  4 31  1  1  0  0  0
  5  3  1  0  0  0  0
  5 20  1  0  0  0  0
  5 32  1  6  0  0  0
  6 29  1  1  0  0  0
  6  8  1  0  0  0  0
  6  1  1  0  0  0  0
  7  8  1  0  0  0  0
  8 33  1  0  0  0  0
  9  2  1  0  0  0  0
  9  4  1  0  0  0  0
  9 34  1  1  0  0  0
  9 16  1  0  0  0  0
 10 11  1  0  0  0  0
 11 35  1  1  0  0  0
 11  7  1  0  0  0  0
 12 10  1  0  0  0  0
 12 17  1  0  0  0  0
 12 36  1  0  0  0  0
 12 37  1  0  0  0  0
 13  7  2  0  0  0  0
 14 11  1  0  0  0  0
 14 38  1  0  0  0  0
 14 39  1  0  0  0  0
 15  6  1  0  0  0  0
 15 22  1  0  0  0  0
 15 40  1  6  0  0  0
 17 14  1  0  0  0  0
 17 41  1  1  0  0  0
 17 23  1  0  0  0  0
 18 42  1  0  0  0  0
 19 43  1  0  0  0  0
 20 44  1  0  0  0  0
 21 10  1  0  0  0  0
 21 45  1  0  0  0  0
 21 46  1  0  0  0  0
 21 47  1  0  0  0  0
 23 48  1  0  0  0  0
 23 49  1  0  0  0  0
 24 16  1  0  0  0  0
 24 50  1  0  0  0  0
 24 51  1  0  0  0  0
 24 52  1  0  0  0  0
 25 15  1  0  0  0  0
 25 53  1  0  0  0  0
 25 54  1  0  0  0  0
 25 55  1  0  0  0  0
 26 23  1  0  0  0  0
 26 56  1  0  0  0  0
 26 57  1  0  0  0  0
 27 26  1  0  0  0  0
 27 58  1  0  0  0  0
 27 59  1  0  0  0  0
 27 60  1  0  0  0  0
M  END
>  <DRUGBANK_ID>
DB01190

>  <SECONDARY_ACCESSION_NUMBERS>
APRD00566

>  <COMMON_NAME>
Clindamycin

>  <CAS_NUMBER>
18323-44-9

>  <UNII>
3U02EL437C

>  <SYNONYMS>
7-CDL; 7(S)-Chloro-7-deoxylincomycin; Clindamicina; Clindamycin; Clindamycine; Clindamycinum; Methyl 7-chloro-6,7,8-trideoxy-6-(1-methyl-trans-4-propyl-L-2-pyrrolidinecarboxamido)-1-thio-L-threo-alpha-D-galacto-octopyranoside

$$$$
