
 OpenBabel10282417223D

 71 75  0  0  1  0  0  0  0  0999 V2000
    2.5808   -0.1590   -0.1334 C   0  0  0  0  0  0  0  0  0  0  0  0
    1.2076   -0.2447   -0.6919 N   0  0  0  0  0  0  0  0  0  0  0  0
    0.4805   -1.3664   -0.0394 C   0  0  0  0  0  0  0  0  0  0  0  0
   -1.0577   -1.3155   -0.2688 C   0  0  0  0  0  0  0  0  0  0  0  0
   -1.7553   -0.0830    0.1386 N   0  0  0  0  0  0  0  0  0  0  0  0
   -2.0901   -0.0180    1.5747 C   0  0  0  0  0  0  0  0  0  0  0  0
   -0.9538    0.1858    2.5639 C   0  0  0  0  0  0  0  0  0  0  0  0
   -0.3225    1.5457    2.3965 C   0  0  0  0  0  0  0  0  0  0  0  0
   -1.0392    2.5949    3.0006 N   0  0  0  0  0  0  0  0  0  0  0  0
   -0.3542    3.6295    3.5780 C   0  0  0  0  0  0  0  0  0  0  0  0
   -0.8801    4.7173    3.6280 O   0  0  0  0  0  0  0  0  0  0  0  0
    1.0754    3.3322    4.0326 C   0  0  0  0  0  0  0  0  0  0  0  0
    1.2002    2.0290    4.8488 C   0  0  2  0  0  0  0  0  0  0  0  0
    0.4178    2.1981    6.0477 N   0  0  0  0  0  0  0  0  0  0  0  0
    0.1434    1.1938    6.7922 C   0  0  0  0  0  0  0  0  0  0  0  0
    0.6684   -0.1763    6.6424 C   0  0  0  0  0  0  0  0  0  0  0  0
    1.9594   -0.4823    6.2361 C   0  0  0  0  0  0  0  0  0  0  0  0
    2.3028   -2.1460    6.3370 S   0  0  0  0  0  0  0  0  0  0  0  0
    0.7212   -2.5325    6.8835 C   0  0  0  0  0  0  0  0  0  0  0  0
    0.3080   -3.9493    7.1876 C   0  0  0  0  0  0  0  0  0  0  0  0
   -0.0565   -1.3928    7.0052 C   0  0  0  0  0  0  0  0  0  0  0  0
   -1.4805   -1.4093    7.4689 C   0  0  0  0  0  0  0  0  0  0  0  0
    2.9135    0.4448    5.7587 N   0  0  0  0  0  0  0  0  0  0  0  0
    4.3021    0.4630    5.7798 C   0  0  0  0  0  0  0  0  0  0  0  0
    5.1735   -0.4741    6.5154 C   0  0  0  0  0  0  0  0  0  0  0  0
    4.7505    1.5386    5.1615 N   0  0  0  0  0  0  0  0  0  0  0  0
    3.6863    2.2680    4.7381 N   0  0  0  0  0  0  0  0  0  0  0  0
    2.6002    1.6518    5.1414 C   0  0  0  0  0  0  0  0  0  0  0  0
   -0.7557    1.4721    7.9143 C   0  0  0  0  0  0  0  0  0  0  0  0
   -0.2805    1.3108    9.2157 C   0  0  0  0  0  0  0  0  0  0  0  0
   -1.1644    1.4829   10.2743 C   0  0  0  0  0  0  0  0  0  0  0  0
   -2.4983    1.8156   10.0194 C   0  0  0  0  0  0  0  0  0  0  0  0
   -3.5871    1.9985   11.3368 Cl  0  0  0  0  0  0  0  0  0  0  0  0
   -2.9620    1.9883    8.7125 C   0  0  0  0  0  0  0  0  0  0  0  0
   -2.0833    1.8267    7.6461 C   0  0  0  0  0  0  0  0  0  0  0  0
   -1.0364    1.0684   -0.4395 C   0  0  0  0  0  0  0  0  0  0  0  0
    0.5296    0.9913   -0.2978 C   0  0  0  0  0  0  0  0  0  0  0  0
    3.0714    0.7610   -0.4766 H   0  0  0  0  0  0  0  0  0  0  0  0
    2.5988   -0.1229    0.9699 H   0  0  0  0  0  0  0  0  0  0  0  0
    3.1787   -1.0117   -0.4509 H   0  0  0  0  0  0  0  0  0  0  0  0
    0.8684   -2.3187   -0.4064 H   0  0  0  0  0  0  0  0  0  0  0  0
    0.6925   -1.3816    1.0329 H   0  0  0  0  0  0  0  0  0  0  0  0
   -1.2243   -1.4208   -1.3473 H   0  0  0  0  0  0  0  0  0  0  0  0
   -1.5412   -2.1794    0.1983 H   0  0  0  0  0  0  0  0  0  0  0  0
   -2.8204    0.7852    1.7456 H   0  0  0  0  0  0  0  0  0  0  0  0
   -2.6256   -0.9334    1.8611 H   0  0  0  0  0  0  0  0  0  0  0  0
   -1.2989    0.0758    3.5989 H   0  0  0  0  0  0  0  0  0  0  0  0
   -0.2204   -0.6158    2.4700 H   0  0  0  0  0  0  0  0  0  0  0  0
    0.7551    1.4843    2.5783 H   0  0  0  0  0  0  0  0  0  0  0  0
   -0.3154    2.0069    1.4342 H   0  0  0  0  0  0  0  0  0  0  0  0
   -1.8297    2.9341    2.4544 H   0  0  0  0  0  0  0  0  0  0  0  0
    1.7217    3.3217    3.1412 H   0  0  0  0  0  0  0  0  0  0  0  0
    1.3844    4.1884    4.6356 H   0  0  0  0  0  0  0  0  0  0  0  0
    0.7907    1.1578    4.3400 H   0  0  0  0  0  0  0  0  0  0  0  0
    0.3379   -4.5825    6.2964 H   0  0  0  0  0  0  0  0  0  0  0  0
    0.9185   -4.3912    7.9800 H   0  0  0  0  0  0  0  0  0  0  0  0
   -0.7241   -4.0012    7.5513 H   0  0  0  0  0  0  0  0  0  0  0  0
   -1.5706   -0.8905    8.4224 H   0  0  0  0  0  0  0  0  0  0  0  0
   -2.1159   -0.9396    6.7138 H   0  0  0  0  0  0  0  0  0  0  0  0
   -1.8799   -2.4029    7.6585 H   0  0  0  0  0  0  0  0  0  0  0  0
    4.8990   -0.5078    7.5739 H   0  0  0  0  0  0  0  0  0  0  0  0
    5.1298   -1.4739    6.0827 H   0  0  0  0  0  0  0  0  0  0  0  0
    6.2149   -0.1374    6.4573 H   0  0  0  0  0  0  0  0  0  0  0  0
    0.7528    1.0266    9.3964 H   0  0  0  0  0  0  0  0  0  0  0  0
   -0.8119    1.3437   11.2916 H   0  0  0  0  0  0  0  0  0  0  0  0
   -4.0019    2.2380    8.5207 H   0  0  0  0  0  0  0  0  0  0  0  0
   -2.4347    1.9289    6.6207 H   0  0  0  0  0  0  0  0  0  0  0  0
   -1.2693    1.1572   -1.5040 H   0  0  0  0  0  0  0  0  0  0  0  0
   -1.4651    1.9956   -0.0241 H   0  0  0  0  0  0  0  0  0  0  0  0
    0.8185    0.9457    0.7346 H   0  0  0  0  0  0  0  0  0  0  0  0
    0.9936    1.9288   -0.6278 H   0  0  0  0  0  0  0  0  0  0  0  0
  1  2  1  0  0  0  0
  1 38  1  0  0  0  0
  1 39  1  0  0  0  0
  1 40  1  0  0  0  0
  2  3  1  0  0  0  0
  2 37  1  0  0  0  0
  3  4  1  0  0  0  0
  3 41  1  0  0  0  0
  3 42  1  0  0  0  0
  4  5  1  0  0  0  0
  4 43  1  0  0  0  0
  4 44  1  0  0  0  0
  5  6  1  0  0  0  0
  5 36  1  0  0  0  0
  6  7  1  0  0  0  0
  6 45  1  0  0  0  0
  6 46  1  0  0  0  0
  7  8  1  0  0  0  0
  7 47  1  0  0  0  0
  7 48  1  0  0  0  0
  8  9  1  0  0  0  0
  8 49  1  0  0  0  0
  8 50  1  0  0  0  0
  9 10  1  0  0  0  0
  9 51  1  0  0  0  0
 10 11  2  0  0  0  0
 10 12  1  0  0  0  0
 12 52  1  0  0  0  0
 12 53  1  0  0  0  0
 13 12  1  0  0  0  0
 13 14  1  0  0  0  0
 13 28  1  0  0  0  0
 13 54  1  6  0  0  0
 14 15  2  0  0  0  0
 15 16  1  0  0  0  0
 15 29  1  0  0  0  0
 16 17  2  0  0  0  0
 16 21  1  0  0  0  0
 17 18  1  0  0  0  0
 17 23  1  0  0  0  0
 18 19  1  0  0  0  0
 19 20  1  0  0  0  0
 19 21  2  0  0  0  0
 20 55  1  0  0  0  0
 20 56  1  0  0  0  0
 20 57  1  0  0  0  0
 21 22  1  0  0  0  0
 22 58  1  0  0  0  0
 22 59  1  0  0  0  0
 22 60  1  0  0  0  0
 23 24  1  0  0  0  0
 23 28  1  0  0  0  0
 24 25  1  0  0  0  0
 24 26  2  0  0  0  0
 25 61  1  0  0  0  0
 25 62  1  0  0  0  0
 25 63  1  0  0  0  0
 26 27  1  0  0  0  0
 27 28  2  0  0  0  0
 29 30  2  0  0  0  0
 29 35  1  0  0  0  0
 30 31  1  0  0  0  0
 30 64  1  0  0  0  0
 31 32  2  0  0  0  0
 31 65  1  0  0  0  0
 32 33  1  0  0  0  0
 32 34  1  0  0  0  0
 34 35  2  0  0  0  0
 34 66  1  0  0  0  0
 35 67  1  0  0  0  0
 36 37  1  0  0  0  0
 36 68  1  0  0  0  0
 36 69  1  0  0  0  0
 37 70  1  0  0  0  0
 37 71  1  0  0  0  0
M  END
>  <DRUGBANK_ID>
DB15151

>  <COMMON_NAME>
RO-6870810

>  <CAS_NUMBER>
1349719-98-7

>  <UNII>
TA3QN7788D

$$$$
