655
 OpenBabel10282417123D

 45 48  0  0  0  0  0  0  0  0999 V2000
    2.1879    0.7673   -0.0052 C   0  0  0  0  0  0  0  0  0  0  0  0
    2.1713   -0.6479    0.0130 C   0  0  0  0  0  0  0  0  0  0  0  0
    0.9828   -1.3992    0.0111 C   0  0  0  0  0  0  0  0  0  0  0  0
   -0.1999   -0.6713   -0.0792 C   0  0  0  0  0  0  0  0  0  0  0  0
   -0.2366    0.7114   -0.1181 C   0  0  0  0  0  0  0  0  0  0  0  0
    0.9527    1.4366   -0.0261 C   0  0  0  0  0  0  0  0  0  0  0  0
    3.4504    1.5435   -0.0437 C   0  0  0  0  0  0  0  0  0  0  0  0
    3.4407    2.8629   -0.0714 N   0  0  0  0  0  0  0  0  0  0  0  0
    4.6166    0.9309   -0.0726 N   0  3  0  0  0  0  0  0  0  0  0  0
   -1.5230   -1.0172   -0.1317 N   0  0  0  0  0  0  0  0  0  0  0  0
   -1.4946    1.2020   -0.3005 N   0  0  0  0  0  0  0  0  0  0  0  0
   -2.2754    0.1387   -0.2927 C   0  0  0  0  0  0  0  0  0  0  0  0
   -3.7494    0.1019   -0.2277 C   0  0  0  0  0  0  0  0  0  0  0  0
   -4.5244    0.6636   -1.2385 C   0  0  0  0  0  0  0  0  0  0  0  0
   -5.9113    0.5813   -1.1774 C   0  0  0  0  0  0  0  0  0  0  0  0
   -6.5243   -0.0958   -0.1241 C   0  0  0  0  0  0  0  0  0  0  0  0
   -5.7541   -0.6431    0.9189 C   0  0  0  0  0  0  0  0  0  0  0  0
   -6.5452   -1.2754    1.8644 O   0  0  0  0  0  0  0  0  0  0  0  0
   -4.3342   -0.4937    0.9132 C   0  0  0  0  0  0  0  0  0  0  0  0
   -3.5278   -0.8027    1.8528 O   0  5  0  0  0  0  0  0  0  0  0  0
   -5.3053   -1.0481    4.0100 C   0  0  0  0  0  0  0  0  0  0  0  0
   -5.9691   -1.9609    2.9788 C   0  0  0  0  0  0  0  0  0  0  0  0
   -5.0168   -3.1209    2.6295 C   0  0  0  0  0  0  0  0  0  0  0  0
   -3.8166   -2.9813    3.5729 C   0  0  0  0  0  0  0  0  0  0  0  0
   -4.2002   -1.9154    4.6107 C   0  0  0  0  0  0  0  0  0  0  0  0
    3.0868   -1.2317    0.0242 H   0  0  0  0  0  0  0  0  0  0  0  0
    0.9908   -2.4850    0.0349 H   0  0  0  0  0  0  0  0  0  0  0  0
    0.8285    2.5090   -0.0205 H   0  0  0  0  0  0  0  0  0  0  0  0
    4.2840    3.4153   -0.1063 H   0  0  0  0  0  0  0  0  0  0  0  0
    2.5724    3.3849   -0.0564 H   0  0  0  0  0  0  0  0  0  0  0  0
    4.6761   -0.0776   -0.0623 H   0  0  0  0  0  0  0  0  0  0  0  0
    5.4902    1.4337   -0.1070 H   0  0  0  0  0  0  0  0  0  0  0  0
   -1.9426   -1.9177    0.0620 H   0  0  0  0  0  0  0  0  0  0  0  0
   -4.0264    1.1754   -2.0506 H   0  0  0  0  0  0  0  0  0  0  0  0
   -6.5123    1.0455   -1.9501 H   0  0  0  0  0  0  0  0  0  0  0  0
   -7.6085   -0.1788   -0.0939 H   0  0  0  0  0  0  0  0  0  0  0  0
   -4.9371   -0.1088    3.5846 H   0  0  0  0  0  0  0  0  0  0  0  0
   -6.0110   -0.6954    4.7689 H   0  0  0  0  0  0  0  0  0  0  0  0
   -6.8165   -2.4259    3.5048 H   0  0  0  0  0  0  0  0  0  0  0  0
   -5.5047   -4.0879    2.7862 H   0  0  0  0  0  0  0  0  0  0  0  0
   -4.7260   -3.1302    1.5718 H   0  0  0  0  0  0  0  0  0  0  0  0
   -3.5393   -3.9311    4.0336 H   0  0  0  0  0  0  0  0  0  0  0  0
   -2.9083   -2.6968    3.0258 H   0  0  0  0  0  0  0  0  0  0  0  0
   -3.3379   -1.3056    4.9050 H   0  0  0  0  0  0  0  0  0  0  0  0
   -4.5841   -2.4156    5.5015 H   0  0  0  0  0  0  0  0  0  0  0  0
  1  2  2  0  0  0  0
  1  6  1  0  0  0  0
  1  7  1  0  0  0  0
  2  3  1  0  0  0  0
  2 26  1  0  0  0  0
  3  4  2  0  0  0  0
  3 27  1  0  0  0  0
  4  5  1  0  0  0  0
  4 10  1  0  0  0  0
  5  6  2  0  0  0  0
  5 11  1  0  0  0  0
  6 28  1  0  0  0  0
  7  8  1  0  0  0  0
  7  9  2  0  0  0  0
  8 29  1  0  0  0  0
  8 30  1  0  0  0  0
  9 31  1  0  0  0  0
  9 32  1  0  0  0  0
 10 12  1  0  0  0  0
 10 33  1  0  0  0  0
 11 12  2  0  0  0  0
 12 13  1  0  0  0  0
 13 14  2  0  0  0  0
 13 19  1  0  0  0  0
 14 15  1  0  0  0  0
 14 34  1  0  0  0  0
 15 16  2  0  0  0  0
 15 35  1  0  0  0  0
 16 17  1  0  0  0  0
 16 36  1  0  0  0  0
 17 18  1  0  0  0  0
 17 19  2  0  0  0  0
 18 22  1  0  0  0  0
 19 20  1  0  0  0  0
 21 22  1  0  0  0  0
 21 25  1  0  0  0  0
 21 37  1  0  0  0  0
 21 38  1  0  0  0  0
 22 23  1  0  0  0  0
 22 39  1  0  0  0  0
 23 24  1  0  0  0  0
 23 40  1  0  0  0  0
 23 41  1  0  0  0  0
 24 25  1  0  0  0  0
 24 42  1  0  0  0  0
 24 43  1  0  0  0  0
 25 44  1  0  0  0  0
 25 45  1  0  0  0  0
M  CHG  2   9   1  20  -1
M  END
>  <DRUGBANK_ID>
DB02526

>  <SECONDARY_ACCESSION_NUMBERS>
EXPT00270

>  <COMMON_NAME>
CRA_10655

$$$$
