
 OpenBabel10282417133D

 15 15  0  0  0  0  0  0  0  0999 V2000
    1.3502   -0.2207    0.0125 C   0  0  0  0  0  0  0  0  0  0  0  0
    0.4770   -1.3085    0.0139 C   0  0  0  0  0  0  0  0  0  0  0  0
   -0.9055   -1.1008   -0.0175 C   0  0  0  0  0  0  0  0  0  0  0  0
   -1.4192    0.2020   -0.0320 C   0  0  0  0  0  0  0  0  0  0  0  0
   -0.5368    1.2893    0.0214 C   0  0  0  0  0  0  0  0  0  0  0  0
    0.8441    1.0779   -0.0001 C   0  0  0  0  0  0  0  0  0  0  0  0
   -2.8719    0.4782   -0.1662 C   0  0  0  0  0  0  0  0  0  0  0  0
   -3.3835    1.5850   -0.2176 O   0  0  0  0  0  0  0  0  0  0  0  0
   -3.6135   -0.6378   -0.2850 O   0  0  0  0  0  0  0  0  0  0  0  0
    2.4254   -0.3852    0.0265 H   0  0  0  0  0  0  0  0  0  0  0  0
    0.8750   -2.3203    0.0209 H   0  0  0  0  0  0  0  0  0  0  0  0
   -1.5714   -1.9598   -0.0370 H   0  0  0  0  0  0  0  0  0  0  0  0
   -0.9216    2.3060    0.0677 H   0  0  0  0  0  0  0  0  0  0  0  0
    1.5237    1.9260   -0.0377 H   0  0  0  0  0  0  0  0  0  0  0  0
   -4.5291   -0.3123   -0.4176 H   0  0  0  0  0  0  0  0  0  0  0  0
  1  2  2  0  0  0  0
  1  6  1  0  0  0  0
  1 10  1  0  0  0  0
  2  3  1  0  0  0  0
  2 11  1  0  0  0  0
  3  4  2  0  0  0  0
  3 12  1  0  0  0  0
  4  5  1  0  0  0  0
  4  7  1  0  0  0  0
  5  6  2  0  0  0  0
  5 13  1  0  0  0  0
  6 14  1  0  0  0  0
  7  8  2  0  0  0  0
  7  9  1  0  0  0  0
  9 15  1  0  0  0  0
M  END
>  <DRUGBANK_ID>
DB03793

>  <SECONDARY_ACCESSION_NUMBERS>
EXPT00675

>  <COMMON_NAME>
Benzoic acid

>  <CAS_NUMBER>
65-85-0

>  <UNII>
8SKN0B0MIM

>  <SYNONYMS>
Benzoic acid

$$$$
