
 OpenBabel10282417183D

 41 43  0  0  0  0  0  0  0  0999 V2000
    1.0183    0.0212    0.0946 O   0  0  0  0  0  0  0  0  0  0  0  0
    0.4222    3.5864   -0.9519 N   0  0  0  0  0  0  0  0  0  0  0  0
    1.0559    2.4476   -0.2542 C   0  0  3  0  0  0  0  0  0  0  0  0
    0.5391    1.0403   -0.8070 C   0  0  0  0  0  0  0  0  0  0  0  0
    0.9103    2.6705    1.2659 C   0  0  0  0  0  0  0  0  0  0  0  0
    1.3159    4.0616    1.7308 C   0  0  0  0  0  0  0  0  0  0  0  0
    0.7504    5.1371    0.7996 C   0  0  0  0  0  0  0  0  0  0  0  0
    1.0890    4.8346   -0.6483 C   0  0  0  0  0  0  0  0  0  0  0  0
    1.2137    0.7444   -2.1960 C   0  0  0  0  0  0  0  0  0  0  0  0
   -1.0152    0.9298   -0.8151 C   0  0  0  0  0  0  0  0  0  0  0  0
    1.7921    1.7469   -3.0041 C   0  0  0  0  0  0  0  0  0  0  0  0
   -1.7187    0.3954   -1.9079 C   0  0  0  0  0  0  0  0  0  0  0  0
    1.2352   -0.5637   -2.7187 C   0  0  0  0  0  0  0  0  0  0  0  0
   -1.8276    1.3216    0.2661 C   0  0  0  0  0  0  0  0  0  0  0  0
    2.2448    1.5020   -4.2980 C   0  0  0  0  0  0  0  0  0  0  0  0
   -3.1127    0.2658   -1.8945 C   0  0  0  0  0  0  0  0  0  0  0  0
    1.7593   -0.8272   -3.9917 C   0  0  0  0  0  0  0  0  0  0  0  0
   -3.2156    1.2243    0.2849 C   0  0  0  0  0  0  0  0  0  0  0  0
    2.2305    0.2106   -4.7927 C   0  0  0  0  0  0  0  0  0  0  0  0
   -3.8658    0.6864   -0.8104 C   0  0  0  0  0  0  0  0  0  0  0  0
    0.3061    3.4325   -1.9493 H   0  0  0  0  0  0  0  0  0  0  0  0
    1.9833   -0.0191   -0.0181 H   0  0  0  0  0  0  0  0  0  0  0  0
    2.1461    2.4596   -0.4254 H   0  0  0  0  0  0  0  0  0  0  0  0
    1.4028    1.8808    1.8430 H   0  0  0  0  0  0  0  0  0  0  0  0
   -0.1196    2.6622    1.5695 H   0  0  0  0  0  0  0  0  0  0  0  0
    0.9035    4.2158    2.7358 H   0  0  0  0  0  0  0  0  0  0  0  0
    2.4035    4.1281    1.7959 H   0  0  0  0  0  0  0  0  0  0  0  0
   -0.3459    5.1681    0.8981 H   0  0  0  0  0  0  0  0  0  0  0  0
    1.1247    6.1211    1.0861 H   0  0  0  0  0  0  0  0  0  0  0  0
    0.7027    5.6164   -1.3082 H   0  0  0  0  0  0  0  0  0  0  0  0
    2.1731    4.7736   -0.8105 H   0  0  0  0  0  0  0  0  0  0  0  0
    1.9261    2.7680   -2.6719 H   0  0  0  0  0  0  0  0  0  0  0  0
   -1.2067    0.0632   -2.8007 H   0  0  0  0  0  0  0  0  0  0  0  0
    0.7943   -1.3840   -2.1522 H   0  0  0  0  0  0  0  0  0  0  0  0
   -1.4509    1.7227    1.1882 H   0  0  0  0  0  0  0  0  0  0  0  0
    2.6121    2.3304   -4.8989 H   0  0  0  0  0  0  0  0  0  0  0  0
   -3.6077   -0.1762   -2.7561 H   0  0  0  0  0  0  0  0  0  0  0  0
    1.7825   -1.8462   -4.3678 H   0  0  0  0  0  0  0  0  0  0  0  0
   -3.7610    1.5567    1.1615 H   0  0  0  0  0  0  0  0  0  0  0  0
    2.5977    0.0176   -5.7959 H   0  0  0  0  0  0  0  0  0  0  0  0
   -4.9437    0.6000   -0.8012 H   0  0  0  0  0  0  0  0  0  0  0  0
  1  4  1  0  0  0  0
  1 22  1  0  0  0  0
  2  3  1  0  0  0  0
  2  8  1  0  0  0  0
  2 21  1  0  0  0  0
  3  4  1  0  0  0  0
  3  5  1  0  0  0  0
  3 23  1  0  0  0  0
  4  9  1  0  0  0  0
  4 10  1  0  0  0  0
  5  6  1  0  0  0  0
  5 24  1  0  0  0  0
  5 25  1  0  0  0  0
  6  7  1  0  0  0  0
  6 26  1  0  0  0  0
  6 27  1  0  0  0  0
  7  8  1  0  0  0  0
  7 28  1  0  0  0  0
  7 29  1  0  0  0  0
  8 30  1  0  0  0  0
  8 31  1  0  0  0  0
  9 11  2  0  0  0  0
  9 13  1  0  0  0  0
 10 12  2  0  0  0  0
 10 14  1  0  0  0  0
 11 15  1  0  0  0  0
 11 32  1  0  0  0  0
 12 16  1  0  0  0  0
 12 33  1  0  0  0  0
 13 17  2  0  0  0  0
 13 34  1  0  0  0  0
 14 18  2  0  0  0  0
 14 35  1  0  0  0  0
 15 19  2  0  0  0  0
 15 36  1  0  0  0  0
 16 20  2  0  0  0  0
 16 37  1  0  0  0  0
 17 19  1  0  0  0  0
 17 38  1  0  0  0  0
 18 20  1  0  0  0  0
 18 39  1  0  0  0  0
 19 40  1  0  0  0  0
 20 41  1  0  0  0  0
M  END
>  <DRUGBANK_ID>
DB11584

>  <COMMON_NAME>
Pipradrol

>  <CAS_NUMBER>
467-60-7

>  <UNII>
S6I030E0DA

>  <SYNONYMS>
Pipradrol

$$$$
