
 OpenBabel10282417123D

 65 66  0  0  0  0  0  0  0  0999 V2000
    1.1294   -5.4742   -1.1328 S   0  0  0  0  0  0  0  0  0  0  0  0
    0.0471    0.9531   -5.6254 S   0  0  0  0  0  0  0  0  0  0  0  0
    3.4850    0.4748   -2.0178 O   0  0  0  0  0  0  0  0  0  0  0  0
    1.5818   -0.9057   -2.5578 O   0  0  0  0  0  0  0  0  0  0  0  0
    0.3107   -4.0820   -1.1162 O   0  0  0  0  0  0  0  0  0  0  0  0
    3.2041    3.1148    1.2150 O   0  0  0  0  0  0  0  0  0  0  0  0
    2.2922   -2.8231    0.6201 O   0  0  0  0  0  0  0  0  0  0  0  0
   -0.6360   -0.7105   -0.2724 O   0  0  0  0  0  0  0  0  0  0  0  0
   -1.5181   -1.2663   -3.8161 O   0  0  0  0  0  0  0  0  0  0  0  0
    6.6310   -2.8039    0.2812 O   0  0  0  0  0  0  0  0  0  0  0  0
    1.8890   -5.3680    0.2957 O   0  0  0  0  0  0  0  0  0  0  0  0
    2.1232   -5.3489   -2.1994 O   0  0  0  0  0  0  0  0  0  0  0  0
    0.2118   -6.5478   -1.0389 O   0  0  0  0  0  0  0  0  0  0  0  0
   -1.5139    1.3770   -5.6237 O   0  0  0  0  0  0  0  0  0  0  0  0
    0.6920    1.5093   -6.7867 O   0  0  0  0  0  0  0  0  0  0  0  0
    0.1697   -0.4487   -5.3100 O   0  0  0  0  0  0  0  0  0  0  0  0
    1.9663    0.0479    0.7393 N   0  3  0  0  0  0  0  0  0  0  0  0
    4.8594   -2.0695   -0.8852 N   0  0  0  0  0  0  0  0  0  0  0  0
   -0.2431    0.4988   -2.2041 N   0  0  0  0  0  0  0  0  0  0  0  0
    3.1927    1.3279   -0.8769 C   0  0  2  0  0  0  0  0  0  0  0  0
    3.3395    0.7743    0.5406 C   0  0  1  0  0  0  0  0  0  0  0  0
    0.9572    0.8991   -0.0318 C   0  0  1  0  0  0  0  0  0  0  0  0
    1.7798    1.8324   -0.8604 C   0  0  0  0  0  0  0  0  0  0  0  0
    3.0091   -0.8892   -2.2437 C   0  0  2  0  0  0  0  0  0  0  0  0
    3.4329   -1.7558   -1.0735 C   0  0  1  0  0  0  0  0  0  0  0  0
    3.4334    1.7987    1.6683 C   0  0  0  0  0  0  0  0  0  0  0  0
    2.4452   -2.8439   -0.8215 C   0  0  2  0  0  0  0  0  0  0  0  0
    0.9843   -2.8354   -1.2204 C   0  0  1  0  0  0  0  0  0  0  0  0
    0.7253   -2.1393   -2.5335 C   0  0  1  0  0  0  0  0  0  0  0  0
   -0.0728    0.2173   -0.8559 C   0  0  0  0  0  0  0  0  0  0  0  0
   -0.9925   -1.9595   -2.6891 C   0  0  0  0  0  0  0  0  0  0  0  0
   -0.3866    1.7527   -2.9229 C   0  0  0  0  0  0  0  0  0  0  0  0
    5.4284   -2.9097    0.0556 C   0  0  0  0  0  0  0  0  0  0  0  0
    0.5401    1.8687   -4.1664 C   0  0  0  0  0  0  0  0  0  0  0  0
    4.6079   -3.9268    0.8062 C   0  0  0  0  0  0  0  0  0  0  0  0
    1.8710   -0.9482    0.4846 H   0  0  0  0  0  0  0  0  0  0  0  0
    1.7366   -0.0558    1.7382 H   0  0  0  0  0  0  0  0  0  0  0  0
    5.5163   -1.3151   -1.0916 H   0  0  0  0  0  0  0  0  0  0  0  0
    0.3896   -0.0751   -2.7709 H   0  0  0  0  0  0  0  0  0  0  0  0
    3.9593    3.3942    0.6614 H   0  0  0  0  0  0  0  0  0  0  0  0
    1.9302   -3.7020    0.8509 H   0  0  0  0  0  0  0  0  0  0  0  0
   -1.1043   -0.3956   -3.7988 H   0  0  0  0  0  0  0  0  0  0  0  0
    1.2640   -5.5864    1.0221 H   0  0  0  0  0  0  0  0  0  0  0  0
   -2.1005    0.7820   -5.1071 H   0  0  0  0  0  0  0  0  0  0  0  0
    3.8145    2.2128   -1.0558 H   0  0  0  0  0  0  0  0  0  0  0  0
    4.2082    0.1174    0.6470 H   0  0  0  0  0  0  0  0  0  0  0  0
    0.3352    1.3157    0.7600 H   0  0  0  0  0  0  0  0  0  0  0  0
    1.5911    2.8146   -0.4324 H   0  0  0  0  0  0  0  0  0  0  0  0
    1.5737    1.9071   -1.9054 H   0  0  0  0  0  0  0  0  0  0  0  0
    3.5490   -1.2392   -3.1311 H   0  0  0  0  0  0  0  0  0  0  0  0
    3.4107   -1.1949   -0.1902 H   0  0  0  0  0  0  0  0  0  0  0  0
    2.6802    1.5739    2.4299 H   0  0  0  0  0  0  0  0  0  0  0  0
    4.4114    1.7272    2.1471 H   0  0  0  0  0  0  0  0  0  0  0  0
    2.9690   -3.6765   -1.2552 H   0  0  0  0  0  0  0  0  0  0  0  0
    0.5227   -2.3216   -0.3851 H   0  0  0  0  0  0  0  0  0  0  0  0
    1.0416   -2.7381   -3.3828 H   0  0  0  0  0  0  0  0  0  0  0  0
   -1.4883   -2.9239   -2.6529 H   0  0  0  0  0  0  0  0  0  0  0  0
   -1.5126   -1.4280   -1.8924 H   0  0  0  0  0  0  0  0  0  0  0  0
   -1.4428    1.7866   -3.1703 H   0  0  0  0  0  0  0  0  0  0  0  0
   -0.2120    2.5422   -2.1924 H   0  0  0  0  0  0  0  0  0  0  0  0
    0.5919    2.9141   -4.4655 H   0  0  0  0  0  0  0  0  0  0  0  0
    1.5609    1.5103   -3.9706 H   0  0  0  0  0  0  0  0  0  0  0  0
    4.0504   -3.4533    1.6219 H   0  0  0  0  0  0  0  0  0  0  0  0
    3.9887   -4.4650    0.1004 H   0  0  0  0  0  0  0  0  0  0  0  0
    5.1965   -4.7117    1.2707 H   0  0  0  0  0  0  0  0  0  0  0  0
  1  5  1  0  0  0  0
  1 11  1  0  0  0  0
  1 12  2  0  0  0  0
  1 13  2  0  0  0  0
  2 14  1  0  0  0  0
  2 15  2  0  0  0  0
  2 16  2  0  0  0  0
  2 34  1  0  0  0  0
  4 24  1  0  0  0  0
  4 29  1  0  0  0  0
  6 26  1  0  0  0  0
  6 40  1  0  0  0  0
  7 41  1  0  0  0  0
  8 30  2  0  0  0  0
  9 31  1  0  0  0  0
  9 42  1  0  0  0  0
 10 33  2  0  0  0  0
 11 43  1  0  0  0  0
 14 44  1  0  0  0  0
 17 21  1  0  0  0  0
 17 22  1  0  0  0  0
 17 36  1  0  0  0  0
 17 37  1  0  0  0  0
 18 33  1  0  0  0  0
 18 38  1  0  0  0  0
 19 30  1  0  0  0  0
 19 32  1  0  0  0  0
 19 39  1  0  0  0  0
 20  3  1  0  0  0  0
 20 21  1  0  0  0  0
 20 23  1  0  0  0  0
 20 45  1  6  0  0  0
 21 46  1  1  0  0  0
 21 26  1  0  0  0  0
 22 23  1  0  0  0  0
 22 47  1  1  0  0  0
 22 30  1  0  0  0  0
 23 48  1  0  0  0  0
 23 49  1  0  0  0  0
 24  3  1  0  0  0  0
 24 25  1  0  0  0  0
 24 50  1  6  0  0  0
 25 27  1  0  0  0  0
 25 51  1  1  0  0  0
 25 18  1  0  0  0  0
 26 52  1  0  0  0  0
 26 53  1  0  0  0  0
 27 28  1  0  0  0  0
 27 54  1  6  0  0  0
 27  7  1  0  0  0  0
 28 29  1  0  0  0  0
 28 55  1  1  0  0  0
 28  5  1  0  0  0  0
 29 31  1  0  0  0  0
 29 56  1  6  0  0  0
 31 57  1  0  0  0  0
 31 58  1  0  0  0  0
 32 34  1  0  0  0  0
 32 59  1  0  0  0  0
 32 60  1  0  0  0  0
 33 35  1  0  0  0  0
 34 61  1  0  0  0  0
 34 62  1  0  0  0  0
 35 63  1  0  0  0  0
 35 64  1  0  0  0  0
 35 65  1  0  0  0  0
M  CHG  1  17   1
M  END
>  <DRUGBANK_ID>
DB02595

>  <SECONDARY_ACCESSION_NUMBERS>
EXPT00715

>  <COMMON_NAME>
(2R,3S,5S)-2-(Hydroxymethyl)-5-[(2-sulfoethyl)carbamoyl]-3-pyrrolidiniumyl 2-acetamido-2-deoxy-4-O-sulfo-beta-D-glucopyranoside

>  <CAS_NUMBER>
92953-54-3

$$$$
