
 OpenBabel10282417203D

 15 14  0  0  0  0  0  0  0  0999 V2000
    0.9927    0.0592   -0.0314 C   0  0  0  0  0  0  0  0  0  0  0  0
    0.5334   -1.0605   -0.9497 C   0  0  0  0  0  0  0  0  0  0  0  0
    1.0828   -2.3293   -0.5987 O   0  0  0  0  0  0  0  0  0  0  0  0
    2.5058   -2.4238   -0.6315 C   0  0  0  0  0  0  0  0  0  0  0  0
    3.0872   -2.1446   -2.0070 C   0  0  0  0  0  0  0  0  0  0  0  0
    0.7153   -0.1628    1.0042 H   0  0  0  0  0  0  0  0  0  0  0  0
    0.5415    1.0102   -0.3263 H   0  0  0  0  0  0  0  0  0  0  0  0
    2.0782    0.1867   -0.0543 H   0  0  0  0  0  0  0  0  0  0  0  0
   -0.5543   -1.1545   -0.8815 H   0  0  0  0  0  0  0  0  0  0  0  0
    0.7534   -0.8300   -1.9979 H   0  0  0  0  0  0  0  0  0  0  0  0
    2.9461   -1.7668    0.1266 H   0  0  0  0  0  0  0  0  0  0  0  0
    2.7642   -3.4447   -0.3354 H   0  0  0  0  0  0  0  0  0  0  0  0
    2.8463   -1.1367   -2.3552 H   0  0  0  0  0  0  0  0  0  0  0  0
    4.1762   -2.2382   -1.9924 H   0  0  0  0  0  0  0  0  0  0  0  0
    2.6774   -2.8463   -2.7408 H   0  0  0  0  0  0  0  0  0  0  0  0
  1  2  1  0  0  0  0
  1  6  1  0  0  0  0
  1  7  1  0  0  0  0
  1  8  1  0  0  0  0
  2  3  1  0  0  0  0
  2  9  1  0  0  0  0
  2 10  1  0  0  0  0
  3  4  1  0  0  0  0
  4  5  1  0  0  0  0
  4 11  1  0  0  0  0
  4 12  1  0  0  0  0
  5 13  1  0  0  0  0
  5 14  1  0  0  0  0
  5 15  1  0  0  0  0
M  END
>  <DRUGBANK_ID>
DB13598

>  <COMMON_NAME>
Diethyl ether

>  <CAS_NUMBER>
60-29-7

>  <UNII>
0F5N573A2Y

>  <SYNONYMS>
Ether

$$$$
