
 OpenBabel10282417163D

 37 38  0  0  0  0  0  0  0  0999 V2000
   -1.2044   -0.0152   -0.1087 S   0  0  0  0  0  0  0  0  0  0  0  0
   -0.6912   -4.9967   -0.7074 S   0  0  0  0  0  0  0  0  0  0  0  0
    2.2539    2.9750    0.0095 O   0  0  0  0  0  0  0  0  0  0  0  0
    3.6268    1.2340   -0.1620 N   0  0  0  0  0  0  0  0  0  0  0  0
    7.0521   -2.1821   -0.1728 N   0  0  0  0  0  0  0  0  0  0  0  0
    1.2689   -0.5570    0.1230 N   0  0  0  0  0  0  0  0  0  0  0  0
    0.5563   -3.4544    0.9418 N   0  0  0  0  0  0  0  0  0  0  0  0
    4.8967   -2.8593    0.5620 N   0  0  0  0  0  0  0  0  0  0  0  0
    6.2629   -4.3531   -0.1704 N   0  0  0  0  0  0  0  0  0  0  0  0
    4.7493   -0.5530   -1.4097 C   0  0  0  0  0  0  0  0  0  0  0  0
    6.2048   -0.1367   -1.3128 C   0  0  0  0  0  0  0  0  0  0  0  0
    3.9915   -0.1390   -0.1568 C   0  0  0  0  0  0  0  0  0  0  0  0
    6.9166   -0.7208   -0.0739 C   0  0  0  0  0  0  0  0  0  0  0  0
    2.3696    1.7370   -0.0323 C   0  0  0  0  0  0  0  0  0  0  0  0
    1.2026    0.8359    0.0180 C   0  0  0  0  0  0  0  0  0  0  0  0
    0.0939   -1.1278    0.0161 C   0  0  0  0  0  0  0  0  0  0  0  0
   -0.0969    1.2953   -0.0116 C   0  0  0  0  0  0  0  0  0  0  0  0
    6.1364   -3.0374    0.0726 C   0  0  0  0  0  0  0  0  0  0  0  0
   -0.0558   -2.6312   -0.0006 C   0  0  0  0  0  0  0  0  0  0  0  0
   -0.7372   -3.3042   -0.9966 C   0  0  0  0  0  0  0  0  0  0  0  0
    0.2260   -4.7079    0.7131 C   0  0  0  0  0  0  0  0  0  0  0  0
    4.3762    1.9077   -0.0561 H   0  0  0  0  0  0  0  0  0  0  0  0
    4.1482   -3.2005   -0.0363 H   0  0  0  0  0  0  0  0  0  0  0  0
    4.7683   -1.8872    0.6947 H   0  0  0  0  0  0  0  0  0  0  0  0
    7.1985   -4.7172   -0.0633 H   0  0  0  0  0  0  0  0  0  0  0  0
    5.5125   -4.9349    0.1768 H   0  0  0  0  0  0  0  0  0  0  0  0
    4.7087   -1.6364   -1.5712 H   0  0  0  0  0  0  0  0  0  0  0  0
    4.2535   -0.1493   -2.2996 H   0  0  0  0  0  0  0  0  0  0  0  0
    6.7258   -0.4543   -2.2223 H   0  0  0  0  0  0  0  0  0  0  0  0
    6.2400    0.9599   -1.2926 H   0  0  0  0  0  0  0  0  0  0  0  0
    4.5058   -0.2154    0.8034 H   0  0  0  0  0  0  0  0  0  0  0  0
    3.1838   -0.8430   -0.0775 H   0  0  0  0  0  0  0  0  0  0  0  0
    7.9217   -0.2806   -0.0579 H   0  0  0  0  0  0  0  0  0  0  0  0
    6.4708   -0.3877    0.8701 H   0  0  0  0  0  0  0  0  0  0  0  0
   -0.4117    2.3286   -0.0236 H   0  0  0  0  0  0  0  0  0  0  0  0
   -1.2055   -2.9054   -1.8841 H   0  0  0  0  0  0  0  0  0  0  0  0
    0.5231   -5.5213    1.3651 H   0  0  0  0  0  0  0  0  0  0  0  0
  1 16  1  0  0  0  0
  1 17  1  0  0  0  0
  2 20  1  0  0  0  0
  2 21  1  0  0  0  0
  3 14  2  0  0  0  0
  4 12  1  0  0  0  0
  4 14  1  0  0  0  0
  4 22  1  0  0  0  0
  5 13  1  0  0  0  0
  5 18  2  0  0  0  0
  6 15  1  0  0  0  0
  6 16  2  0  0  0  0
  7 19  1  0  0  0  0
  7 21  2  0  0  0  0
  8 18  1  0  0  0  0
  8 23  1  0  0  0  0
  8 24  1  0  0  0  0
  9 18  1  0  0  0  0
  9 25  1  0  0  0  0
  9 26  1  0  0  0  0
 10 11  1  0  0  0  0
 10 12  1  0  0  0  0
 10 27  1  0  0  0  0
 10 28  1  0  0  0  0
 11 13  1  0  0  0  0
 11 29  1  0  0  0  0
 11 30  1  0  0  0  0
 12 31  1  0  0  0  0
 12 32  1  0  0  0  0
 13 33  1  0  0  0  0
 13 34  1  0  0  0  0
 14 15  1  0  0  0  0
 15 17  2  0  0  0  0
 16 19  1  0  0  0  0
 17 35  1  0  0  0  0
 19 20  2  0  0  0  0
 20 36  1  0  0  0  0
 21 37  1  0  0  0  0
M  END
>  <DRUGBANK_ID>
DB07499

>  <COMMON_NAME>
N-(4-{[amino(imino)methyl]amino}butyl)-2,4'-bi-1,3-thiazole-4-carboxamide

$$$$
