
 OpenBabel10282417103D

 57 60  0  0  1  0  0  0  0  0999 V2000
    0.6569   -0.3149    2.3770 C   0  0  2  0  0  0  0  0  0  0  0  0
    2.2734   -3.5242    5.2809 C   0  0  1  0  0  0  0  0  0  0  0  0
    1.2941   -1.5494    3.0892 C   0  0  2  0  0  0  0  0  0  0  0  0
   -0.8301   -0.0015    2.1283 C   0  0  0  0  0  0  0  0  0  0  0  0
    0.8427   -3.4762    4.5833 C   0  0  2  0  0  0  0  0  0  0  0  0
    0.6523   -2.9051    3.0743 C   0  0  2  0  0  0  0  0  0  0  0  0
    1.5146   -4.0374    6.9537 C   0  0  2  0  0  0  0  0  0  0  0  0
    2.7810   -1.3967    3.3745 C   0  0  2  0  0  0  0  0  0  0  0  0
    0.6559    0.5058    3.6580 C   0  0  0  0  0  0  0  0  0  0  0  0
    3.0816   -2.0185    4.7936 C   0  0  0  0  0  0  0  0  0  0  0  0
    0.7543   -2.6805    7.1089 C   0  0  2  0  0  0  0  0  0  0  0  0
   -0.0590   -2.6442    5.8205 C   0  0  0  0  0  0  0  0  0  0  0  0
   -0.8815   -2.6576    2.8958 C   0  0  0  0  0  0  0  0  0  0  0  0
   -1.4571   -1.4807    1.9632 C   0  0  2  0  0  0  0  0  0  0  0  0
   -1.2801    1.3430    2.4427 C   0  0  0  0  0  0  0  0  0  0  0  0
    0.3527   -4.8645    8.1337 C   0  0  0  0  0  0  0  0  0  0  0  0
    0.9046    1.7958    3.7359 C   0  0  0  0  0  0  0  0  0  0  0  0
   -0.5538    2.0161    3.7818 C   0  0  0  0  0  0  0  0  0  0  0  0
    0.9342   -1.3312    4.3894 F   0  0  0  0  0  0  0  0  0  0  0  0
    0.7941   -5.1974    9.2545 O   0  0  0  0  0  0  0  0  0  0  0  0
   -1.1465    2.4271    4.8116 O   0  0  0  0  0  0  0  0  0  0  0  0
    1.3650   -0.1541    1.0094 C   0  0  0  0  0  0  0  0  0  0  0  0
    3.5372   -4.2624    4.6275 C   0  0  0  0  0  0  0  0  0  0  0  0
    3.1852   -0.0058    3.5627 O   0  0  0  0  0  0  0  0  0  0  0  0
   -1.2514   -1.8699    0.6657 F   0  0  0  0  0  0  0  0  0  0  0  0
   -1.3121   -5.4195    7.8601 C   0  0  0  0  0  0  0  0  0  0  0  0
   -2.5006   -4.6536    7.9721 O   0  0  0  0  0  0  0  0  0  0  0  0
    1.0776   -3.6332    2.3561 H   0  0  0  0  0  0  0  0  0  0  0  0
    0.4726   -4.4996    4.4997 H   0  0  0  0  0  0  0  0  0  0  0  0
    1.5648   -1.3568    7.1733 C   0  0  0  0  0  0  0  0  0  0  0  0
    0.6771   -5.2437    6.3085 O   0  0  0  0  0  0  0  0  0  0  0  0
    3.3803   -1.6872    2.5083 H   0  0  0  0  0  0  0  0  0  0  0  0
   -0.1557    0.0896    4.3372 H   0  0  0  0  0  0  0  0  0  0  0  0
    4.1781   -2.0293    4.7202 H   0  0  0  0  0  0  0  0  0  0  0  0
    3.1435   -1.2731    5.5715 H   0  0  0  0  0  0  0  0  0  0  0  0
    0.2402   -2.6308    8.0779 H   0  0  0  0  0  0  0  0  0  0  0  0
   -1.1175   -2.8943    5.8579 H   0  0  0  0  0  0  0  0  0  0  0  0
   -0.1943   -1.5673    5.6880 H   0  0  0  0  0  0  0  0  0  0  0  0
   -1.3929   -3.6297    2.7781 H   0  0  0  0  0  0  0  0  0  0  0  0
   -1.2334   -2.3370    3.8682 H   0  0  0  0  0  0  0  0  0  0  0  0
   -2.5359   -1.5522    2.1381 H   0  0  0  0  0  0  0  0  0  0  0  0
   -0.7294    2.2661    2.0195 H   0  0  0  0  0  0  0  0  0  0  0  0
    1.5250    2.1083    2.9087 H   0  0  0  0  0  0  0  0  0  0  0  0
    0.7079    0.1542    0.1799 H   0  0  0  0  0  0  0  0  0  0  0  0
    2.1965    0.5434    1.0735 H   0  0  0  0  0  0  0  0  0  0  0  0
    1.7652   -1.1210    0.6537 H   0  0  0  0  0  0  0  0  0  0  0  0
    3.5071   -4.1855    3.5236 H   0  0  0  0  0  0  0  0  0  0  0  0
    4.4923   -3.7056    4.8135 H   0  0  0  0  0  0  0  0  0  0  0  0
    3.8815   -5.2236    4.9806 H   0  0  0  0  0  0  0  0  0  0  0  0
    2.7857    0.2791    4.4151 H   0  0  0  0  0  0  0  0  0  0  0  0
   -1.4235   -6.0228    6.9447 H   0  0  0  0  0  0  0  0  0  0  0  0
   -1.4804   -6.2385    8.6067 H   0  0  0  0  0  0  0  0  0  0  0  0
   -2.6169   -4.3986    8.9051 H   0  0  0  0  0  0  0  0  0  0  0  0
    1.6366   -0.9296    6.1860 H   0  0  0  0  0  0  0  0  0  0  0  0
    1.0262   -0.5006    7.5929 H   0  0  0  0  0  0  0  0  0  0  0  0
    2.5618   -1.4553    7.6071 H   0  0  0  0  0  0  0  0  0  0  0  0
    0.8114   -6.1097    6.7538 H   0  0  0  0  0  0  0  0  0  0  0  0
  1 22  1  1  0  0  0
  2 23  1  1  0  0  0
  3  1  1  0  0  0  0
  3 19  1  6  0  0  0
  4  1  1  0  0  0  0
  5  2  1  0  0  0  0
  5 29  1  6  0  0  0
  6  3  1  0  0  0  0
  6  5  1  0  0  0  0
  6 28  1  1  0  0  0
  7  2  1  0  0  0  0
  7 31  1  6  0  0  0
  7 16  1  0  0  0  0
  8  3  1  0  0  0  0
  8 32  1  6  0  0  0
  8 24  1  0  0  0  0
  9  1  1  0  0  0  0
  9 33  1  0  0  0  0
 10  2  1  0  0  0  0
 10  8  1  0  0  0  0
 10 34  1  0  0  0  0
 10 35  1  0  0  0  0
 11  7  1  0  0  0  0
 11 36  1  1  0  0  0
 11 30  1  0  0  0  0
 12  5  1  0  0  0  0
 12 11  1  0  0  0  0
 12 37  1  0  0  0  0
 12 38  1  0  0  0  0
 13  6  1  0  0  0  0
 13 39  1  0  0  0  0
 13 40  1  0  0  0  0
 14  4  1  0  0  0  0
 14 13  1  0  0  0  0
 14 25  1  0  0  0  0
 14 41  1  1  0  0  0
 15  4  2  0  0  0  0
 15 42  1  0  0  0  0
 17  9  2  0  0  0  0
 17 43  1  0  0  0  0
 18 15  1  0  0  0  0
 18 17  1  0  0  0  0
 20 16  2  0  0  0  0
 21 18  2  0  0  0  0
 22 44  1  0  0  0  0
 22 45  1  0  0  0  0
 22 46  1  0  0  0  0
 23 47  1  0  0  0  0
 23 48  1  0  0  0  0
 23 49  1  0  0  0  0
 24 50  1  0  0  0  0
 26 16  1  0  0  0  0
 26 51  1  0  0  0  0
 26 52  1  0  0  0  0
 27 26  1  0  0  0  0
 27 53  1  0  0  0  0
 30 54  1  0  0  0  0
 30 55  1  0  0  0  0
 30 56  1  0  0  0  0
 31 57  1  0  0  0  0
M  END
>  <DRUGBANK_ID>
DB00223

>  <SECONDARY_ACCESSION_NUMBERS>
APRD00921

>  <COMMON_NAME>
Diflorasone

>  <CAS_NUMBER>
2557-49-5

>  <UNII>
T2DHJ9645W

>  <SYNONYMS>
(6α,11β,16β)-6,9-difluoro-11,17,21-trihydroxy-16-methylpregna-1,4-diene-3,20-dione; Diflorasona; Diflorasone; Diflorasonum

$$$$
