
 OpenBabel10282417113D

 57 59  0  0  0  0  0  0  0  0999 V2000
    1.4218   -0.3328    0.0007 C   0  0  0  0  0  0  0  0  0  0  0  0
    0.6052   -1.4451   -0.0018 C   0  0  0  0  0  0  0  0  0  0  0  0
   -0.7722   -1.2790   -0.0818 C   0  0  0  0  0  0  0  0  0  0  0  0
   -1.3138   -0.0007   -0.1246 C   0  0  0  0  0  0  0  0  0  0  0  0
   -0.5456    1.1444    0.0291 C   0  0  0  0  0  0  0  0  0  0  0  0
    0.8600    0.9419    0.0121 C   0  0  0  0  0  0  0  0  0  0  0  0
    0.7520    4.0671   -0.5308 C   0  0  0  0  0  0  0  0  0  0  0  0
   -0.0578    3.6012    0.5255 C   0  0  0  0  0  0  0  0  0  0  0  0
   -1.0949    2.5324    0.3052 C   0  0  0  0  0  0  0  0  0  0  0  0
    1.8197    4.9476   -0.2801 C   0  0  0  0  0  0  0  0  0  0  0  0
    2.1318    5.3319    1.0416 C   0  0  0  0  0  0  0  0  0  0  0  0
    1.3706    4.7947    2.0987 C   0  0  0  0  0  0  0  0  0  0  0  0
    0.2486    3.9961    1.8317 C   0  0  0  0  0  0  0  0  0  0  0  0
   -2.4207    2.8441    0.5269 C   0  0  0  0  0  0  0  0  0  0  0  0
    2.8258    6.5349    1.1468 O   0  0  0  0  0  0  0  0  0  0  0  0
    2.7134    7.2983    2.3747 C   0  0  0  0  0  0  0  0  0  0  0  0
    1.4456    8.2201    2.6335 C   0  0  0  0  0  0  0  0  0  0  0  0
    0.1162    7.6000    2.5728 N   0  0  0  0  0  0  0  0  0  0  0  0
   -1.0198    8.2930    3.1687 C   0  0  0  0  0  0  0  0  0  0  0  0
   -1.4748    9.4587    2.3105 C   0  0  0  0  0  0  0  0  0  0  0  0
   -0.2469    7.1635    1.2349 C   0  0  0  0  0  0  0  0  0  0  0  0
   -0.1879    7.9567   -0.0557 C   0  0  0  0  0  0  0  0  0  0  0  0
   -3.7695    1.7121    0.4496 Cl  0  0  0  0  0  0  0  0  0  0  0  0
   -2.9859    4.1846    0.8175 C   0  0  0  0  0  0  0  0  0  0  0  0
   -2.6717    5.2737    0.0074 C   0  0  0  0  0  0  0  0  0  0  0  0
   -3.2861    6.5083    0.2087 C   0  0  0  0  0  0  0  0  0  0  0  0
   -4.2685    6.6607    1.1818 C   0  0  0  0  0  0  0  0  0  0  0  0
   -4.6541    5.5682    1.9450 C   0  0  0  0  0  0  0  0  0  0  0  0
   -3.9871    4.3546    1.8003 C   0  0  0  0  0  0  0  0  0  0  0  0
    2.5054   -0.4375    0.0304 H   0  0  0  0  0  0  0  0  0  0  0  0
    1.0236   -2.4415    0.0398 H   0  0  0  0  0  0  0  0  0  0  0  0
   -1.4412   -2.1295   -0.0968 H   0  0  0  0  0  0  0  0  0  0  0  0
   -2.3825    0.0203   -0.2691 H   0  0  0  0  0  0  0  0  0  0  0  0
    1.5671    1.7640    0.0382 H   0  0  0  0  0  0  0  0  0  0  0  0
    0.5410    3.7540   -1.5520 H   0  0  0  0  0  0  0  0  0  0  0  0
    2.2731    5.4645   -1.1259 H   0  0  0  0  0  0  0  0  0  0  0  0
    1.4235    5.2116    3.0999 H   0  0  0  0  0  0  0  0  0  0  0  0
   -0.4450    3.7801    2.6432 H   0  0  0  0  0  0  0  0  0  0  0  0
    2.9216    6.6528    3.2332 H   0  0  0  0  0  0  0  0  0  0  0  0
    3.5636    7.9933    2.3391 H   0  0  0  0  0  0  0  0  0  0  0  0
    1.5862    8.6293    3.6450 H   0  0  0  0  0  0  0  0  0  0  0  0
    1.4845    9.0780    1.9558 H   0  0  0  0  0  0  0  0  0  0  0  0
   -1.8504    7.5720    3.2472 H   0  0  0  0  0  0  0  0  0  0  0  0
   -0.8154    8.5999    4.1990 H   0  0  0  0  0  0  0  0  0  0  0  0
   -1.9240    9.0948    1.3857 H   0  0  0  0  0  0  0  0  0  0  0  0
   -2.2566   10.0430    2.7895 H   0  0  0  0  0  0  0  0  0  0  0  0
   -0.6292   10.1040    2.0568 H   0  0  0  0  0  0  0  0  0  0  0  0
    0.5423    6.5463    0.9785 H   0  0  0  0  0  0  0  0  0  0  0  0
   -1.0576    6.4534    1.3212 H   0  0  0  0  0  0  0  0  0  0  0  0
    0.6738    8.6252   -0.0664 H   0  0  0  0  0  0  0  0  0  0  0  0
   -0.0397    7.2443   -0.8804 H   0  0  0  0  0  0  0  0  0  0  0  0
   -1.0897    8.5096   -0.2896 H   0  0  0  0  0  0  0  0  0  0  0  0
   -1.9015    5.1890   -0.7557 H   0  0  0  0  0  0  0  0  0  0  0  0
   -2.9672    7.3627   -0.3770 H   0  0  0  0  0  0  0  0  0  0  0  0
   -4.7291    7.6297    1.3363 H   0  0  0  0  0  0  0  0  0  0  0  0
   -5.4847    5.6511    2.6414 H   0  0  0  0  0  0  0  0  0  0  0  0
   -4.2935    3.5218    2.4317 H   0  0  0  0  0  0  0  0  0  0  0  0
  1  2  2  0  0  0  0
  1  6  1  0  0  0  0
  1 30  1  0  0  0  0
  2  3  1  0  0  0  0
  2 31  1  0  0  0  0
  3  4  2  0  0  0  0
  3 32  1  0  0  0  0
  4  5  1  0  0  0  0
  4 33  1  0  0  0  0
  5  6  2  0  0  0  0
  5  9  1  0  0  0  0
  6 34  1  0  0  0  0
  7  8  1  0  0  0  0
  7 10  2  0  0  0  0
  7 35  1  0  0  0  0
  8  9  1  0  0  0  0
  8 13  2  0  0  0  0
  9 14  2  3  0  0  0
 10 11  1  0  0  0  0
 10 36  1  0  0  0  0
 11 12  2  0  0  0  0
 11 15  1  0  0  0  0
 12 13  1  0  0  0  0
 12 37  1  0  0  0  0
 13 38  1  0  0  0  0
 14 23  1  0  0  0  0
 14 24  1  0  0  0  0
 15 16  1  0  0  0  0
 16 17  1  0  0  0  0
 16 39  1  0  0  0  0
 16 40  1  0  0  0  0
 17 18  1  0  0  0  0
 17 41  1  0  0  0  0
 17 42  1  0  0  0  0
 18 19  1  0  0  0  0
 18 21  1  0  0  0  0
 19 20  1  0  0  0  0
 19 43  1  0  0  0  0
 19 44  1  0  0  0  0
 20 45  1  0  0  0  0
 20 46  1  0  0  0  0
 20 47  1  0  0  0  0
 21 22  1  0  0  0  0
 21 48  1  0  0  0  0
 21 49  1  0  0  0  0
 22 50  1  0  0  0  0
 22 51  1  0  0  0  0
 22 52  1  0  0  0  0
 24 25  2  0  0  0  0
 24 29  1  0  0  0  0
 25 26  1  0  0  0  0
 25 53  1  0  0  0  0
 26 27  2  0  0  0  0
 26 54  1  0  0  0  0
 27 28  1  0  0  0  0
 27 55  1  0  0  0  0
 28 29  2  0  0  0  0
 28 56  1  0  0  0  0
 29 57  1  0  0  0  0
M  END
>  <DRUGBANK_ID>
DB00882

>  <SECONDARY_ACCESSION_NUMBERS>
APRD00880

>  <COMMON_NAME>
Clomifene

>  <CAS_NUMBER>
911-45-5

>  <UNII>
1HRS458QU2

>  <SYNONYMS>
2-(4-(2-chloro-1,2-diphenylethenyl)phenoxy)-N,N-diethylethanamine; 2-(p-(2-chloro-1,2-diphenylvinyl)phenoxy)triethylamine; 2-(p-(β-chloro-α-phenylstyryl)phenoxy)triethylamine; Clomifene; Clomifeno; Clomifenum; Clomiphene

$$$$
