
 OpenBabel10282417173D

 42 43  0  0  0  0  0  0  0  0999 V2000
    0.5758    0.0687    0.1801 C   0  0  0  0  0  0  0  0  0  0  0  0
    2.7027   -2.5928   -2.3172 C   0  0  0  0  0  0  0  0  0  0  0  0
    0.2746    0.7772   -1.1129 C   0  0  0  0  0  0  0  0  0  0  0  0
    2.2083    4.5141   -0.4300 C   0  0  0  0  0  0  0  0  0  0  0  0
    2.5109    4.2372   -1.7573 C   0  0  0  0  0  0  0  0  0  0  0  0
    2.4157    3.5479    0.5482 C   0  0  0  0  0  0  0  0  0  0  0  0
    4.9353   -0.6430   -3.4314 C   0  0  0  0  0  0  0  0  0  0  0  0
    2.9862    2.9803   -2.1077 C   0  0  0  0  0  0  0  0  0  0  0  0
    2.9699    2.3143    0.2086 C   0  0  0  0  0  0  0  0  0  0  0  0
    4.7650    0.4775   -2.3971 C   0  0  0  0  0  0  0  0  0  0  0  0
    3.5489   -0.5595   -0.4882 C   0  0  0  0  0  0  0  0  0  0  0  0
    5.0374   -2.0797   -2.9110 C   0  0  0  0  0  0  0  0  0  0  0  0
    4.3238   -1.8714   -0.6548 C   0  0  0  0  0  0  0  0  0  0  0  0
    3.1894    1.9759   -1.1353 C   0  0  0  0  0  0  0  0  0  0  0  0
    2.1416    0.3498   -2.7072 C   0  0  0  0  0  0  0  0  0  0  0  0
    3.3943    0.5236   -1.6513 C   0  0  3  0  0  0  0  0  0  0  0  0
    4.0989   -2.5809   -1.9055 N   0  0  0  0  0  0  0  0  0  0  0  0
    2.2779    0.3087   -3.9088 O   0  0  0  0  0  0  0  0  0  0  0  0
    0.8850    0.1100   -2.2214 O   0  0  0  0  0  0  0  0  0  0  0  0
    0.5210   -1.0206    0.0674 H   0  0  0  0  0  0  0  0  0  0  0  0
   -0.0149    0.4091    1.0237 H   0  0  0  0  0  0  0  0  0  0  0  0
    1.5758    0.3207    0.4894 H   0  0  0  0  0  0  0  0  0  0  0  0
    2.3690   -1.5954   -2.3292 H   0  0  0  0  0  0  0  0  0  0  0  0
    2.5059   -2.9322   -3.3356 H   0  0  0  0  0  0  0  0  0  0  0  0
    2.0003   -3.0401   -1.6037 H   0  0  0  0  0  0  0  0  0  0  0  0
   -0.8050    0.7392   -1.2800 H   0  0  0  0  0  0  0  0  0  0  0  0
    0.5517    1.8297   -1.1102 H   0  0  0  0  0  0  0  0  0  0  0  0
    1.8062    5.4840   -0.1576 H   0  0  0  0  0  0  0  0  0  0  0  0
    2.3344    4.9756   -2.5334 H   0  0  0  0  0  0  0  0  0  0  0  0
    2.1113    3.7340    1.5753 H   0  0  0  0  0  0  0  0  0  0  0  0
    4.1705   -0.6082   -4.2039 H   0  0  0  0  0  0  0  0  0  0  0  0
    5.8575   -0.4241   -3.9850 H   0  0  0  0  0  0  0  0  0  0  0  0
    3.1244    2.7621   -3.1685 H   0  0  0  0  0  0  0  0  0  0  0  0
    3.1138    1.6096    1.0217 H   0  0  0  0  0  0  0  0  0  0  0  0
    5.5737    0.4013   -1.6535 H   0  0  0  0  0  0  0  0  0  0  0  0
    4.9681    1.4274   -2.9050 H   0  0  0  0  0  0  0  0  0  0  0  0
    3.9994   -0.0958    0.3972 H   0  0  0  0  0  0  0  0  0  0  0  0
    2.5935   -0.9620   -0.1944 H   0  0  0  0  0  0  0  0  0  0  0  0
    5.0046   -2.7545   -3.7720 H   0  0  0  0  0  0  0  0  0  0  0  0
    6.0478   -2.1942   -2.4984 H   0  0  0  0  0  0  0  0  0  0  0  0
    5.3923   -1.7106   -0.4592 H   0  0  0  0  0  0  0  0  0  0  0  0
    4.0138   -2.5380    0.1664 H   0  0  0  0  0  0  0  0  0  0  0  0
  1 20  1  0  0  0  0
  1 21  1  0  0  0  0
  1 22  1  0  0  0  0
  2 23  1  0  0  0  0
  2 24  1  0  0  0  0
  2 25  1  0  0  0  0
  3  1  1  0  0  0  0
  3 26  1  0  0  0  0
  3 27  1  0  0  0  0
  4 28  1  0  0  0  0
  5  4  2  0  0  0  0
  5 29  1  0  0  0  0
  6  4  1  0  0  0  0
  6 30  1  0  0  0  0
  7 31  1  0  0  0  0
  7 32  1  0  0  0  0
  8  5  1  0  0  0  0
  8 33  1  0  0  0  0
  9  6  2  0  0  0  0
  9 34  1  0  0  0  0
 10  7  1  0  0  0  0
 10 35  1  0  0  0  0
 10 36  1  0  0  0  0
 11 37  1  0  0  0  0
 11 38  1  0  0  0  0
 12  7  1  0  0  0  0
 12 39  1  0  0  0  0
 12 40  1  0  0  0  0
 13 11  1  0  0  0  0
 13 41  1  0  0  0  0
 13 42  1  0  0  0  0
 14  8  2  0  0  0  0
 14  9  1  0  0  0  0
 16 10  1  0  0  0  0
 16 11  1  0  0  0  0
 16 14  1  0  0  0  0
 16 15  1  0  0  0  0
 17  2  1  0  0  0  0
 17 12  1  0  0  0  0
 17 13  1  0  0  0  0
 18 15  2  0  0  0  0
 19  3  1  0  0  0  0
 19 15  1  0  0  0  0
M  END
>  <DRUGBANK_ID>
DB08988

>  <COMMON_NAME>
Ethoheptazine

>  <CAS_NUMBER>
77-15-6

>  <UNII>
3A4G3A848U

>  <SYNONYMS>
Ethoheptazin; Ethoheptazine; Ethoheptazinum; Etoheptazina

$$$$
