
 OpenBabel10282417143D

 97 99  0  0  1  0  0  0  0  0999 V2000
   -2.9876   -9.6670    3.9233 C   0  0  0  0  0  0  0  0  0  0  0  0
   -2.6251  -10.1077    2.5569 C   0  0  0  0  0  0  0  0  0  0  0  0
   -2.5878  -11.5923    2.7618 C   0  0  0  0  0  0  0  0  0  0  0  0
   -3.6052   -9.5868    1.4972 C   0  0  0  0  0  0  0  0  0  0  0  0
   -3.7273   -8.0608    1.2112 C   0  0  2  0  0  0  0  0  0  0  0  0
   -4.7546   -7.7508    0.1907 N   0  0  0  0  0  0  0  0  0  0  0  0
   -6.1205   -7.8805    0.2260 C   0  0  0  0  0  0  0  0  0  0  0  0
   -6.7493   -7.5110   -0.7719 O   0  0  0  0  0  0  0  0  0  0  0  0
   -6.8971   -8.2515    1.5263 C   0  0  1  0  0  0  0  0  0  0  0  0
   -6.3740   -9.4070    2.2814 N   0  0  0  0  0  0  0  0  0  0  0  0
   -5.7384   -9.5508    3.5122 C   0  0  0  0  0  0  0  0  0  0  0  0
   -5.6879  -10.7538    3.8352 O   0  0  0  0  0  0  0  0  0  0  0  0
   -5.1906   -8.2793    4.6728 C   0  0  2  0  0  0  0  0  0  0  0  0
   -6.0825   -8.4547    5.9219 C   0  0  0  0  0  0  0  0  0  0  0  0
   -4.6989   -6.8260    4.3410 N   0  0  0  0  0  0  0  0  0  0  0  0
   -3.5143   -6.1878    3.9360 C   0  0  0  0  0  0  0  0  0  0  0  0
   -3.6772   -5.2740    3.1177 O   0  0  0  0  0  0  0  0  0  0  0  0
   -2.2091   -6.5294    4.4968 C   0  0  0  0  0  0  0  0  0  0  0  0
   -1.7121   -5.8405    5.5375 N   0  0  0  0  0  0  0  0  0  0  0  0
   -0.7189   -6.6590    6.0817 O   0  0  0  0  0  0  0  0  0  0  0  0
   -0.5866   -7.7576    5.2980 C   0  0  0  0  0  0  0  0  0  0  0  0
    0.1645   -8.9398    5.7542 C   0  0  0  0  0  0  0  0  0  0  0  0
   -1.2750   -7.5263    4.1470 C   0  0  0  0  0  0  0  0  0  0  0  0
   -6.8528   -7.0989    2.4652 C   0  0  0  0  0  0  0  0  0  0  0  0
   -7.1239   -5.6643    2.1514 C   0  0  0  0  0  0  0  0  0  0  0  0
   -7.5887   -7.3854    3.7589 C   0  0  0  0  0  0  0  0  0  0  0  0
   -2.3438   -7.4664    0.8905 C   0  0  0  0  0  0  0  0  0  0  0  0
   -1.8007   -6.5758    1.5261 O   0  0  0  0  0  0  0  0  0  0  0  0
   -1.6446   -8.0533   -0.0997 N   0  0  0  0  0  0  0  0  0  0  0  0
   -2.1538   -9.0051   -1.0435 C   0  0  1  0  0  0  0  0  0  0  0  0
   -2.1312   -8.3935   -2.4190 C   0  0  0  0  0  0  0  0  0  0  0  0
   -0.7489   -7.9778   -2.9210 C   0  0  2  0  0  0  0  0  0  0  0  0
   -0.4984   -8.6398   -4.2692 C   0  0  0  0  0  0  0  0  0  0  0  0
    0.0897   -9.9926   -3.8998 C   0  0  0  0  0  0  0  0  0  0  0  0
    0.8486   -9.6950   -2.7259 N   0  0  0  0  0  0  0  0  0  0  0  0
    0.4404   -8.5131   -2.1301 C   0  0  0  0  0  0  0  0  0  0  0  0
    0.8417   -8.0991   -1.0624 O   0  0  0  0  0  0  0  0  0  0  0  0
   -1.4437  -10.3163   -0.8453 C   0  0  0  0  0  0  0  0  0  0  0  0
   -1.9811  -11.5249   -0.6429 C   0  0  0  0  0  0  0  0  0  0  0  0
   -1.2087  -12.7855   -0.5467 C   0  0  0  0  0  0  0  0  0  0  0  0
   -1.7302  -13.8100   -0.2248 O   0  0  0  0  0  0  0  0  0  0  0  0
    0.0949  -12.5918   -0.9068 O   0  0  0  0  0  0  0  0  0  0  0  0
    0.8903  -13.7820   -0.8484 C   0  0  0  0  0  0  0  0  0  0  0  0
    1.0863  -14.3209    0.5476 C   0  0  0  0  0  0  0  0  0  0  0  0
    1.4781  -15.6542    0.7255 C   0  0  0  0  0  0  0  0  0  0  0  0
    1.7891  -16.1295    1.9989 C   0  0  0  0  0  0  0  0  0  0  0  0
    1.7205  -15.2756    3.0991 C   0  0  0  0  0  0  0  0  0  0  0  0
    1.3270  -13.9512    2.9326 C   0  0  0  0  0  0  0  0  0  0  0  0
    0.9745  -13.4873    1.6702 C   0  0  0  0  0  0  0  0  0  0  0  0
   -3.7533  -10.2686    4.3995 H   0  0  0  0  0  0  0  0  0  0  0  0
   -3.2925   -8.6592    3.7356 H   0  0  0  0  0  0  0  0  0  0  0  0
   -2.2485   -9.6974    4.7120 H   0  0  0  0  0  0  0  0  0  0  0  0
   -1.6349   -9.7612    2.2685 H   0  0  0  0  0  0  0  0  0  0  0  0
   -3.5722  -11.9787    3.0438 H   0  0  0  0  0  0  0  0  0  0  0  0
   -2.2360  -12.0948    1.8800 H   0  0  0  0  0  0  0  0  0  0  0  0
   -1.8996  -11.7882    3.5942 H   0  0  0  0  0  0  0  0  0  0  0  0
   -3.3785  -10.1008    0.6006 H   0  0  0  0  0  0  0  0  0  0  0  0
   -4.5555  -10.0503    1.6063 H   0  0  0  0  0  0  0  0  0  0  0  0
   -4.0359   -7.5341    2.0859 H   0  0  0  0  0  0  0  0  0  0  0  0
   -4.4458   -7.2497   -0.6394 H   0  0  0  0  0  0  0  0  0  0  0  0
   -7.9301   -8.5028    1.2624 H   0  0  0  0  0  0  0  0  0  0  0  0
   -6.4914  -10.3024    1.8003 H   0  0  0  0  0  0  0  0  0  0  0  0
   -4.3035   -8.6154    5.1953 H   0  0  0  0  0  0  0  0  0  0  0  0
   -5.5370   -8.1446    6.8107 H   0  0  0  0  0  0  0  0  0  0  0  0
   -7.0264   -7.9194    5.9662 H   0  0  0  0  0  0  0  0  0  0  0  0
   -6.3478   -9.5171    5.9966 H   0  0  0  0  0  0  0  0  0  0  0  0
   -5.3721   -6.2071    3.9227 H   0  0  0  0  0  0  0  0  0  0  0  0
    1.2102   -8.8291    5.4779 H   0  0  0  0  0  0  0  0  0  0  0  0
    0.0500   -9.1073    6.8278 H   0  0  0  0  0  0  0  0  0  0  0  0
   -0.1958   -9.8576    5.2619 H   0  0  0  0  0  0  0  0  0  0  0  0
   -1.2490   -8.2260    3.3411 H   0  0  0  0  0  0  0  0  0  0  0  0
   -5.7849   -7.0952    2.5485 H   0  0  0  0  0  0  0  0  0  0  0  0
   -8.1976   -5.5163    2.1064 H   0  0  0  0  0  0  0  0  0  0  0  0
   -6.7420   -5.0577    2.9897 H   0  0  0  0  0  0  0  0  0  0  0  0
   -6.5999   -5.3269    1.2615 H   0  0  0  0  0  0  0  0  0  0  0  0
   -7.4978   -8.4244    4.0595 H   0  0  0  0  0  0  0  0  0  0  0  0
   -7.1804   -6.7095    4.5161 H   0  0  0  0  0  0  0  0  0  0  0  0
   -8.6596   -7.2673    3.7680 H   0  0  0  0  0  0  0  0  0  0  0  0
   -0.6832   -7.7032   -0.1661 H   0  0  0  0  0  0  0  0  0  0  0  0
   -3.2204   -9.1536   -0.9138 H   0  0  0  0  0  0  0  0  0  0  0  0
   -2.6504   -9.0875   -3.0924 H   0  0  0  0  0  0  0  0  0  0  0  0
   -2.7758   -7.4976   -2.4069 H   0  0  0  0  0  0  0  0  0  0  0  0
   -0.6844   -6.8872   -2.9599 H   0  0  0  0  0  0  0  0  0  0  0  0
   -1.3938   -8.7199   -4.8909 H   0  0  0  0  0  0  0  0  0  0  0  0
    0.2485   -8.0448   -4.7997 H   0  0  0  0  0  0  0  0  0  0  0  0
   -0.6791  -10.7401   -3.6660 H   0  0  0  0  0  0  0  0  0  0  0  0
    0.7646  -10.3848   -4.6583 H   0  0  0  0  0  0  0  0  0  0  0  0
    1.3912  -10.3656   -2.1893 H   0  0  0  0  0  0  0  0  0  0  0  0
   -0.3665  -10.2862   -0.8230 H   0  0  0  0  0  0  0  0  0  0  0  0
   -3.0389  -11.6867   -0.4761 H   0  0  0  0  0  0  0  0  0  0  0  0
    0.4755  -14.5304   -1.5335 H   0  0  0  0  0  0  0  0  0  0  0  0
    1.8857  -13.5140   -1.2264 H   0  0  0  0  0  0  0  0  0  0  0  0
    1.5476  -16.3277   -0.1263 H   0  0  0  0  0  0  0  0  0  0  0  0
    2.1076  -17.1599    2.1306 H   0  0  0  0  0  0  0  0  0  0  0  0
    1.9721  -15.6416    4.0899 H   0  0  0  0  0  0  0  0  0  0  0  0
    1.3102  -13.2705    3.7783 H   0  0  0  0  0  0  0  0  0  0  0  0
    0.6124  -12.4671    1.5721 H   0  0  0  0  0  0  0  0  0  0  0  0
  1  2  1  0  0  0  0
  1 50  1  0  0  0  0
  1 51  1  0  0  0  0
  1 52  1  0  0  0  0
  2  3  1  0  0  0  0
  2  4  1  0  0  0  0
  2 53  1  0  0  0  0
  3 54  1  0  0  0  0
  3 55  1  0  0  0  0
  3 56  1  0  0  0  0
  4 57  1  0  0  0  0
  4 58  1  0  0  0  0
  5 27  1  0  0  0  0
  5 59  1  1  0  0  0
  5  6  1  0  0  0  0
  5  4  1  0  0  0  0
  6  7  1  0  0  0  0
  6 60  1  0  0  0  0
  7  8  2  0  0  0  0
  7  9  1  0  0  0  0
  9 10  1  0  0  0  0
  9 24  1  0  0  0  0
  9 61  1  6  0  0  0
 10 11  1  0  0  0  0
 10 62  1  0  0  0  0
 11 12  2  0  0  0  0
 13 15  1  0  0  0  0
 13 63  1  1  0  0  0
 13 14  1  0  0  0  0
 13 11  1  0  0  0  0
 14 64  1  0  0  0  0
 14 65  1  0  0  0  0
 14 66  1  0  0  0  0
 15 16  1  0  0  0  0
 15 67  1  0  0  0  0
 16 17  2  0  0  0  0
 16 18  1  0  0  0  0
 18 19  2  0  0  0  0
 18 23  1  0  0  0  0
 19 20  1  0  0  0  0
 20 21  1  0  0  0  0
 21 22  1  0  0  0  0
 21 23  2  0  0  0  0
 22 68  1  0  0  0  0
 22 69  1  0  0  0  0
 22 70  1  0  0  0  0
 23 71  1  0  0  0  0
 24 25  1  0  0  0  0
 24 26  1  0  0  0  0
 24 72  1  0  0  0  0
 25 73  1  0  0  0  0
 25 74  1  0  0  0  0
 25 75  1  0  0  0  0
 26 76  1  0  0  0  0
 26 77  1  0  0  0  0
 26 78  1  0  0  0  0
 27 28  2  0  0  0  0
 27 29  1  0  0  0  0
 29 79  1  0  0  0  0
 30 29  1  0  0  0  0
 30 31  1  0  0  0  0
 30 38  1  0  0  0  0
 30 80  1  1  0  0  0
 31 81  1  0  0  0  0
 31 82  1  0  0  0  0
 32 33  1  0  0  0  0
 32 36  1  0  0  0  0
 32 83  1  6  0  0  0
 32 31  1  0  0  0  0
 33 34  1  0  0  0  0
 33 84  1  0  0  0  0
 33 85  1  0  0  0  0
 34 35  1  0  0  0  0
 34 86  1  0  0  0  0
 34 87  1  0  0  0  0
 35 36  1  0  0  0  0
 35 88  1  0  0  0  0
 36 37  2  0  0  0  0
 38 39  2  0  0  0  0
 38 89  1  0  0  0  0
 39 40  1  0  0  0  0
 39 90  1  0  0  0  0
 40 41  2  0  0  0  0
 40 42  1  0  0  0  0
 42 43  1  0  0  0  0
 43 44  1  0  0  0  0
 43 91  1  0  0  0  0
 43 92  1  0  0  0  0
 44 45  2  0  0  0  0
 44 49  1  0  0  0  0
 45 46  1  0  0  0  0
 45 93  1  0  0  0  0
 46 47  2  0  0  0  0
 46 94  1  0  0  0  0
 47 48  1  0  0  0  0
 47 95  1  0  0  0  0
 48 49  2  0  0  0  0
 48 96  1  0  0  0  0
 49 97  1  0  0  0  0
M  END
>  <DRUGBANK_ID>
DB04595

>  <COMMON_NAME>
(E)-(4S,6S)-8-METHYL-6-((S)-3-METHYL-2-{(S)-2-[(5-METHYL-ISOXAZOLE-3-CARBONYL)-AMINO]-PROPIONYLAMINO}-BUTYRYLAMINO)-5-OXO-4-((R)-2-OXO-PYRROLIDIN-3-YLMETHYL)-NON-2-ENOIC ACID BENZYL ESTER

$$$$
