
 OpenBabel10282417223D

 53 56  0  0  0  0  0  0  0  0999 V2000
    0.8006   -0.3344    0.0378 C   0  0  0  0  0  0  0  0  0  0  0  0
    0.1319   -0.1077   -1.6689 S   0  0  0  0  0  0  0  0  0  0  0  0
    0.6516   -1.2258   -2.4415 O   0  0  0  0  0  0  0  0  0  0  0  0
   -1.3011    0.0469   -1.5235 O   0  0  0  0  0  0  0  0  0  0  0  0
    0.7372    1.4308   -2.5307 C   0  0  0  0  0  0  0  0  0  0  0  0
    0.4567    2.6997   -1.7734 C   0  0  0  0  0  0  0  0  0  0  0  0
    1.1246    2.7263   -0.4139 C   0  0  0  0  0  0  0  0  0  0  0  0
    2.5827    2.6247   -0.3580 N   0  0  0  0  0  0  0  0  0  0  0  0
    3.3477    3.6052    0.2644 C   0  0  0  0  0  0  0  0  0  0  0  0
    2.8167    4.8075    1.0111 C   0  0  0  0  0  0  0  0  0  0  0  0
    3.2691    4.7613    2.3703 N   0  0  0  0  0  0  0  0  0  0  0  0
    4.6072    4.8885    2.7540 C   0  0  0  0  0  0  0  0  0  0  0  0
    5.5882    5.1218    2.0540 O   0  0  0  0  0  0  0  0  0  0  0  0
    4.6530    4.7392    4.1385 N   0  0  0  0  0  0  0  0  0  0  0  0
    5.8982    4.6447    4.8519 C   0  0  0  0  0  0  0  0  0  0  0  0
    6.7171    3.4025    4.4868 C   0  0  0  0  0  0  0  0  0  0  0  0
    7.0833    3.3466    3.1921 F   0  0  0  0  0  0  0  0  0  0  0  0
    7.8541    3.3684    5.2227 F   0  0  0  0  0  0  0  0  0  0  0  0
    6.0261    2.2722    4.7677 F   0  0  0  0  0  0  0  0  0  0  0  0
    3.3491    4.6671    4.6295 C   0  0  0  0  0  0  0  0  0  0  0  0
    2.4853    4.6934    3.5344 C   0  0  0  0  0  0  0  0  0  0  0  0
    1.1330    4.6905    3.7563 C   0  0  0  0  0  0  0  0  0  0  0  0
    0.6285    4.6688    5.0159 N   0  0  0  0  0  0  0  0  0  0  0  0
    1.5116    4.6392    6.0572 C   0  0  0  0  0  0  0  0  0  0  0  0
    2.8904    4.6287    5.9224 C   0  0  0  0  0  0  0  0  0  0  0  0
    4.6731    3.2909    0.0102 C   0  0  0  0  0  0  0  0  0  0  0  0
    4.7703    2.0680   -0.6612 C   0  0  0  0  0  0  0  0  0  0  0  0
    3.4617    1.6455   -0.8791 C   0  0  0  0  0  0  0  0  0  0  0  0
    3.3589    0.4190   -1.5679 C   0  0  0  0  0  0  0  0  0  0  0  0
    4.4104   -0.3310   -2.0643 C   0  0  0  0  0  0  0  0  0  0  0  0
    5.6774    0.1048   -1.8263 C   0  0  0  0  0  0  0  0  0  0  0  0
    6.9892   -0.8306   -2.4097 Cl  0  0  0  0  0  0  0  0  0  0  0  0
    5.8710    1.2914   -1.1182 C   0  0  0  0  0  0  0  0  0  0  0  0
    0.5318   -1.3350    0.3756 H   0  0  0  0  0  0  0  0  0  0  0  0
    0.3482    0.3430    0.7557 H   0  0  0  0  0  0  0  0  0  0  0  0
    1.8826   -0.2760    0.1252 H   0  0  0  0  0  0  0  0  0  0  0  0
    1.7850    1.4345   -2.8188 H   0  0  0  0  0  0  0  0  0  0  0  0
    0.2571    1.4420   -3.5144 H   0  0  0  0  0  0  0  0  0  0  0  0
    0.8010    3.5725   -2.3456 H   0  0  0  0  0  0  0  0  0  0  0  0
   -0.6283    2.8069   -1.6630 H   0  0  0  0  0  0  0  0  0  0  0  0
    0.7878    3.6547    0.0476 H   0  0  0  0  0  0  0  0  0  0  0  0
    0.6982    2.0145    0.2684 H   0  0  0  0  0  0  0  0  0  0  0  0
    3.2074    5.7140    0.5391 H   0  0  0  0  0  0  0  0  0  0  0  0
    1.7328    4.9049    1.0182 H   0  0  0  0  0  0  0  0  0  0  0  0
    6.4790    5.5409    4.6070 H   0  0  0  0  0  0  0  0  0  0  0  0
    5.7066    4.6513    5.9273 H   0  0  0  0  0  0  0  0  0  0  0  0
    0.3970    4.7280    2.9634 H   0  0  0  0  0  0  0  0  0  0  0  0
    1.0554    4.6316    7.0444 H   0  0  0  0  0  0  0  0  0  0  0  0
    3.5435    4.6199    6.7822 H   0  0  0  0  0  0  0  0  0  0  0  0
    5.5360    3.8703    0.2915 H   0  0  0  0  0  0  0  0  0  0  0  0
    2.4508   -0.0613   -1.8138 H   0  0  0  0  0  0  0  0  0  0  0  0
    4.1812   -1.2362   -2.6249 H   0  0  0  0  0  0  0  0  0  0  0  0
    6.8789    1.6364   -0.9238 H   0  0  0  0  0  0  0  0  0  0  0  0
  1  2  1  0  0  0  0
  1 34  1  0  0  0  0
  1 35  1  0  0  0  0
  1 36  1  0  0  0  0
  2  3  2  0  0  0  0
  2  4  2  0  0  0  0
  2  5  1  0  0  0  0
  5  6  1  0  0  0  0
  5 37  1  0  0  0  0
  5 38  1  0  0  0  0
  6  7  1  0  0  0  0
  6 39  1  0  0  0  0
  6 40  1  0  0  0  0
  7  8  1  0  0  0  0
  7 41  1  0  0  0  0
  7 42  1  0  0  0  0
  8  9  1  0  0  0  0
  8 28  1  0  0  0  0
  9 10  1  0  0  0  0
  9 26  2  0  0  0  0
 10 11  1  0  0  0  0
 10 43  1  0  0  0  0
 10 44  1  0  0  0  0
 11 12  1  0  0  0  0
 11 21  1  0  0  0  0
 12 13  2  0  0  0  0
 12 14  1  0  0  0  0
 14 15  1  0  0  0  0
 14 20  1  0  0  0  0
 15 16  1  0  0  0  0
 15 45  1  0  0  0  0
 15 46  1  0  0  0  0
 16 17  1  0  0  0  0
 16 18  1  0  0  0  0
 16 19  1  0  0  0  0
 20 21  2  0  0  0  0
 20 25  1  0  0  0  0
 21 22  1  0  0  0  0
 22 23  2  0  0  0  0
 22 47  1  0  0  0  0
 23 24  1  0  0  0  0
 24 25  2  0  0  0  0
 24 48  1  0  0  0  0
 25 49  1  0  0  0  0
 26 27  1  0  0  0  0
 26 50  1  0  0  0  0
 27 28  2  0  0  0  0
 27 33  1  0  0  0  0
 28 29  1  0  0  0  0
 29 30  2  0  0  0  0
 29 51  1  0  0  0  0
 30 31  1  0  0  0  0
 30 52  1  0  0  0  0
 31 32  1  0  0  0  0
 31 33  2  0  0  0  0
 33 53  1  0  0  0  0
M  END
>  <DRUGBANK_ID>
DB15672

>  <COMMON_NAME>
Rilematovir

>  <CAS_NUMBER>
1383450-81-4

>  <UNII>
NQ99E8OH3P

>  <SYNONYMS>
Rilematovir

$$$$
