
 OpenBabel10282417133D

 21 20  0  0  1  0  0  0  0  0999 V2000
    0.9623    0.0197   -0.0652 C   0  0  0  0  0  0  0  0  0  0  0  0
    0.5011   -0.5744   -1.3870 C   0  0  0  0  0  0  0  0  0  0  0  0
    0.9739   -2.0219   -1.5451 C   0  0  0  0  0  0  0  0  0  0  0  0
    0.4254   -2.9560   -0.4555 C   0  0  0  0  0  0  0  0  0  0  0  0
   -1.6677   -3.5425   -1.7078 C   0  0  0  0  0  0  0  0  0  0  0  0
   -1.1064   -2.9739   -0.4057 C   0  0  1  0  0  0  0  0  0  0  0  0
   -1.5638   -3.7777    0.7386 N   0  0  0  0  0  0  0  0  0  0  0  0
   -2.3747   -4.5497   -1.7761 O   0  0  0  0  0  0  0  0  0  0  0  0
   -1.5182   -1.9694   -0.2745 H   0  0  0  0  0  0  0  0  0  0  0  0
    0.5727   -0.5387    0.7917 H   0  0  0  0  0  0  0  0  0  0  0  0
    0.6127    1.0493    0.0374 H   0  0  0  0  0  0  0  0  0  0  0  0
    2.0550    0.0096   -0.0081 H   0  0  0  0  0  0  0  0  0  0  0  0
   -0.5902   -0.5101   -1.4594 H   0  0  0  0  0  0  0  0  0  0  0  0
    0.8879    0.0269   -2.2165 H   0  0  0  0  0  0  0  0  0  0  0  0
    0.6838   -2.3917   -2.5352 H   0  0  0  0  0  0  0  0  0  0  0  0
    2.0699   -2.0528   -1.5278 H   0  0  0  0  0  0  0  0  0  0  0  0
    0.8151   -3.9671   -0.6285 H   0  0  0  0  0  0  0  0  0  0  0  0
    0.8262   -2.6503    0.5195 H   0  0  0  0  0  0  0  0  0  0  0  0
   -1.4249   -2.9739   -2.6206 H   0  0  0  0  0  0  0  0  0  0  0  0
   -2.5854   -3.8184    0.6968 H   0  0  0  0  0  0  0  0  0  0  0  0
   -1.2780   -4.7459    0.5795 H   0  0  0  0  0  0  0  0  0  0  0  0
  1 10  1  0  0  0  0
  1 11  1  0  0  0  0
  1 12  1  0  0  0  0
  2  1  1  0  0  0  0
  2 13  1  0  0  0  0
  2 14  1  0  0  0  0
  3  2  1  0  0  0  0
  3 15  1  0  0  0  0
  3 16  1  0  0  0  0
  4  3  1  0  0  0  0
  4 17  1  0  0  0  0
  4 18  1  0  0  0  0
  5 19  1  0  0  0  0
  6  4  1  0  0  0  0
  6  5  1  0  0  0  0
  6  7  1  0  0  0  0
  6  9  1  1  0  0  0
  7 20  1  0  0  0  0
  7 21  1  0  0  0  0
  8  5  2  0  0  0  0
M  END
>  <DRUGBANK_ID>
DB03241

>  <SECONDARY_ACCESSION_NUMBERS>
EXPT02081

>  <COMMON_NAME>
1-Amino-1-Carbonyl Pentane

$$$$
