
 OpenBabel10282417133D

 43 42  0  0  0  0  0  0  0  0999 V2000
    1.3033   -0.1139    0.1320 C   0  0  0  0  0  0  0  0  0  0  0  0
    0.5739   -1.1465   -0.7718 C   0  0  0  0  0  0  0  0  0  0  0  0
    0.8064   -2.5311   -0.2357 C   0  0  0  0  0  0  0  0  0  0  0  0
    0.0186   -2.6390    1.0944 C   0  0  0  0  0  0  0  0  0  0  0  0
   -1.4620   -2.6924    1.0809 C   0  0  0  0  0  0  0  0  0  0  0  0
   -1.7429   -3.9651    0.3486 C   0  0  0  0  0  0  0  0  0  0  0  0
   -1.0630   -5.1595    1.0736 C   0  0  0  0  0  0  0  0  0  0  0  0
   -1.5034   -5.2270    2.5469 C   0  0  0  0  0  0  0  0  0  0  0  0
   -3.0316   -5.2289    2.5982 C   0  0  0  0  0  0  0  0  0  0  0  0
   -3.5750   -6.4212    1.8035 C   0  0  0  0  0  0  0  0  0  0  0  0
    1.2830   -0.2991    1.5573 O   0  0  0  0  0  0  0  0  0  0  0  0
   -3.0628   -7.7384    2.3836 C   0  0  0  0  0  0  0  0  0  0  0  0
   -3.5114   -7.8752    3.8280 C   0  0  0  0  0  0  0  0  0  0  0  0
    2.2603   -1.2888    2.4768 S   0  0  0  0  0  0  0  0  0  0  0  0
    2.4089   -2.6516    1.9629 O   0  0  0  0  0  0  0  0  0  0  0  0
    3.4320   -0.5821    2.8428 O   0  0  0  0  0  0  0  0  0  0  0  0
    1.3390   -1.5128    3.8012 O   0  0  0  0  0  0  0  0  0  0  0  0
    0.8014    0.8431   -0.0835 H   0  0  0  0  0  0  0  0  0  0  0  0
    2.3414   -0.0101   -0.1695 H   0  0  0  0  0  0  0  0  0  0  0  0
   -0.5096   -0.9765   -0.8353 H   0  0  0  0  0  0  0  0  0  0  0  0
    0.9342   -1.0579   -1.8054 H   0  0  0  0  0  0  0  0  0  0  0  0
    0.5843   -3.3292   -0.9518 H   0  0  0  0  0  0  0  0  0  0  0  0
    1.8963   -2.6095   -0.1371 H   0  0  0  0  0  0  0  0  0  0  0  0
    0.4067   -3.4208    1.7469 H   0  0  0  0  0  0  0  0  0  0  0  0
    0.0462   -1.7546    1.6859 H   0  0  0  0  0  0  0  0  0  0  0  0
   -1.7825   -2.6843    2.1369 H   0  0  0  0  0  0  0  0  0  0  0  0
   -1.8848   -1.7749    0.6625 H   0  0  0  0  0  0  0  0  0  0  0  0
   -2.8211   -4.0629    0.2505 H   0  0  0  0  0  0  0  0  0  0  0  0
   -1.3568   -3.8887   -0.6681 H   0  0  0  0  0  0  0  0  0  0  0  0
   -1.2935   -6.0703    0.5217 H   0  0  0  0  0  0  0  0  0  0  0  0
    0.0351   -5.1443    1.0368 H   0  0  0  0  0  0  0  0  0  0  0  0
   -1.0652   -6.1074    3.0281 H   0  0  0  0  0  0  0  0  0  0  0  0
   -1.1151   -4.3964    3.1505 H   0  0  0  0  0  0  0  0  0  0  0  0
   -3.3755   -5.2269    3.6339 H   0  0  0  0  0  0  0  0  0  0  0  0
   -3.4464   -4.2994    2.1951 H   0  0  0  0  0  0  0  0  0  0  0  0
   -4.6669   -6.3919    1.7994 H   0  0  0  0  0  0  0  0  0  0  0  0
   -3.2900   -6.3597    0.7456 H   0  0  0  0  0  0  0  0  0  0  0  0
   -3.4320   -8.5727    1.7825 H   0  0  0  0  0  0  0  0  0  0  0  0
   -1.9689   -7.8032    2.3293 H   0  0  0  0  0  0  0  0  0  0  0  0
   -4.6034   -7.8383    3.8772 H   0  0  0  0  0  0  0  0  0  0  0  0
   -3.1555   -8.8109    4.2571 H   0  0  0  0  0  0  0  0  0  0  0  0
   -3.1200   -7.0715    4.4605 H   0  0  0  0  0  0  0  0  0  0  0  0
    1.0978   -2.4621    3.8940 H   0  0  0  0  0  0  0  0  0  0  0  0
  1  2  1  0  0  0  0
  1 11  1  0  0  0  0
  1 18  1  0  0  0  0
  1 19  1  0  0  0  0
  2  3  1  0  0  0  0
  2 20  1  0  0  0  0
  2 21  1  0  0  0  0
  3  4  1  0  0  0  0
  3 22  1  0  0  0  0
  3 23  1  0  0  0  0
  4  5  1  0  0  0  0
  4 24  1  0  0  0  0
  4 25  1  0  0  0  0
  5  6  1  0  0  0  0
  5 26  1  0  0  0  0
  5 27  1  0  0  0  0
  6  7  1  0  0  0  0
  6 28  1  0  0  0  0
  6 29  1  0  0  0  0
  7  8  1  0  0  0  0
  7 30  1  0  0  0  0
  7 31  1  0  0  0  0
  8  9  1  0  0  0  0
  8 32  1  0  0  0  0
  8 33  1  0  0  0  0
  9 10  1  0  0  0  0
  9 34  1  0  0  0  0
  9 35  1  0  0  0  0
 10 36  1  0  0  0  0
 10 37  1  0  0  0  0
 12 10  1  0  0  0  0
 12 38  1  0  0  0  0
 12 39  1  0  0  0  0
 13 12  1  0  0  0  0
 13 40  1  0  0  0  0
 13 41  1  0  0  0  0
 13 42  1  0  0  0  0
 14 11  1  0  0  0  0
 15 14  2  0  0  0  0
 16 14  2  0  0  0  0
 17 14  1  0  0  0  0
 17 43  1  0  0  0  0
M  END
>  <DRUGBANK_ID>
DB03967

>  <SECONDARY_ACCESSION_NUMBERS>
EXPT02877

>  <COMMON_NAME>
Dodecyl sulfate

>  <CAS_NUMBER>
151-41-7

>  <UNII>
DIQ16UC154

>  <SYNONYMS>
Dodecyl hydrogen sulfate; Dodecylsulfuric acid; Lauryl sulfate; Lauryl sulfuric acid; Lauryl sulphate; Monododecyl hydrogen sulfate; N-Dodecyl sulfate; Sulfuric acid, monododecyl ester

$$$$
