
 OpenBabel10282417133D

 27 27  0  0  0  0  0  0  0  0999 V2000
   -0.6557   -1.8086    0.5550 N   0  0  0  0  0  0  0  0  0  0  0  0
    0.1774   -1.1358   -0.4618 C   0  0  2  0  0  0  0  0  0  0  0  0
    1.0329    0.0221    0.0913 C   0  0  0  0  0  0  0  0  0  0  0  0
    1.9587    0.5808   -0.4825 O   0  0  0  0  0  0  0  0  0  0  0  0
    0.6685    0.4802    1.3072 O   0  0  0  0  0  0  0  0  0  0  0  0
   -0.6963   -0.6803   -1.6453 C   0  0  0  0  0  0  0  0  0  0  0  0
    0.0987   -0.0705   -2.7773 C   0  0  0  0  0  0  0  0  0  0  0  0
    0.0152    1.3092   -3.0089 C   0  0  0  0  0  0  0  0  0  0  0  0
    0.8390    1.9212   -3.9518 C   0  0  0  0  0  0  0  0  0  0  0  0
    1.7653    1.1633   -4.6632 C   0  0  0  0  0  0  0  0  0  0  0  0
    1.8675   -0.2075   -4.4318 C   0  0  0  0  0  0  0  0  0  0  0  0
    1.0082   -0.8325   -3.5251 C   0  0  0  0  0  0  0  0  0  0  0  0
   -0.2120   -2.9500    1.1464 C   0  0  0  0  0  0  0  0  0  0  0  0
   -1.0101   -3.4393    2.1174 N   0  0  0  0  0  0  0  0  0  0  0  0
    0.8075   -3.5506    0.8228 O   0  0  0  0  0  0  0  0  0  0  0  0
   -1.3978   -1.2872    0.9990 H   0  0  0  0  0  0  0  0  0  0  0  0
    0.9057   -1.8709   -0.8202 H   0  0  0  0  0  0  0  0  0  0  0  0
    1.3489    1.1702    1.4789 H   0  0  0  0  0  0  0  0  0  0  0  0
   -1.2643   -1.5335   -2.0400 H   0  0  0  0  0  0  0  0  0  0  0  0
   -1.4496    0.0386   -1.2959 H   0  0  0  0  0  0  0  0  0  0  0  0
   -0.6667    1.9236   -2.4267 H   0  0  0  0  0  0  0  0  0  0  0  0
    0.7801    2.9950   -4.1039 H   0  0  0  0  0  0  0  0  0  0  0  0
    2.4146    1.6428   -5.3903 H   0  0  0  0  0  0  0  0  0  0  0  0
    2.6365   -0.7840   -4.9400 H   0  0  0  0  0  0  0  0  0  0  0  0
    1.0852   -1.9086   -3.3824 H   0  0  0  0  0  0  0  0  0  0  0  0
   -0.6991   -4.2969    2.5569 H   0  0  0  0  0  0  0  0  0  0  0  0
   -1.8344   -2.9873    2.4756 H   0  0  0  0  0  0  0  0  0  0  0  0
  1 13  1  0  0  0  0
  1 16  1  0  0  0  0
  2  6  1  0  0  0  0
  2 17  1  6  0  0  0
  2  3  1  0  0  0  0
  2  1  1  0  0  0  0
  3  5  1  0  0  0  0
  4  3  2  0  0  0  0
  5 18  1  0  0  0  0
  6  7  1  0  0  0  0
  6 19  1  0  0  0  0
  6 20  1  0  0  0  0
  7 12  1  0  0  0  0
  8  7  2  0  0  0  0
  8 21  1  0  0  0  0
  9  8  1  0  0  0  0
  9 22  1  0  0  0  0
 10  9  2  0  0  0  0
 10 23  1  0  0  0  0
 11 10  1  0  0  0  0
 11 24  1  0  0  0  0
 12 11  2  0  0  0  0
 12 25  1  0  0  0  0
 13 14  1  0  0  0  0
 13 15  2  0  0  0  0
 14 26  1  0  0  0  0
 14 27  1  0  0  0  0
M  END
>  <DRUGBANK_ID>
DB04058

>  <SECONDARY_ACCESSION_NUMBERS>
EXPT01885

>  <COMMON_NAME>
N-Carbamoylphenylalanine

>  <CAS_NUMBER>
949-45-1

>  <UNII>
7XS3UG99LC

>  <SYNONYMS>
(-)-N-Carbamoylphenylalanine; N-(Aminocarbonyl)-L-phenylalanine

$$$$
