
 OpenBabel10282417123D

 25 26  0  0  1  0  0  0  0  0999 V2000
    1.2208   -0.1352    0.1066 C   0  0  0  0  0  0  0  0  0  0  0  0
    0.5415   -1.4888   -0.0515 C   0  0  1  0  0  0  0  0  0  0  0  0
    0.9503   -2.3205    1.0379 O   0  0  0  0  0  0  0  0  0  0  0  0
   -0.9977   -1.4090   -0.0722 C   0  0  0  0  0  0  0  0  0  0  0  0
   -1.5248   -0.6285   -1.1728 N   0  0  0  0  0  0  0  0  0  0  0  0
   -2.0396   -1.1324   -2.3375 C   0  0  0  0  0  0  0  0  0  0  0  0
   -2.2196   -0.1888   -3.2411 N   0  0  0  0  0  0  0  0  0  0  0  0
   -1.8219    0.9781   -2.6209 C   0  0  0  0  0  0  0  0  0  0  0  0
   -1.4660    0.7355   -1.3015 C   0  0  0  0  0  0  0  0  0  0  0  0
   -1.0356    1.6335   -0.4048 N   0  0  0  0  0  0  0  0  0  0  0  0
   -0.8894    2.8518   -0.9622 C   0  0  0  0  0  0  0  0  0  0  0  0
   -1.1913    3.2315   -2.2217 N   0  0  0  0  0  0  0  0  0  0  0  0
   -1.6868    2.3024   -3.0700 C   0  0  0  0  0  0  0  0  0  0  0  0
   -1.9877    2.6885   -4.3601 N   0  0  0  0  0  0  0  0  0  0  0  0
    0.8284    0.3880    0.9865 H   0  0  0  0  0  0  0  0  0  0  0  0
    1.0812    0.4784   -0.7855 H   0  0  0  0  0  0  0  0  0  0  0  0
    2.2997   -0.2295    0.2468 H   0  0  0  0  0  0  0  0  0  0  0  0
    0.8982   -1.9641   -0.9724 H   0  0  0  0  0  0  0  0  0  0  0  0
    1.9237   -2.2854    1.0805 H   0  0  0  0  0  0  0  0  0  0  0  0
   -1.4087   -2.4249   -0.1548 H   0  0  0  0  0  0  0  0  0  0  0  0
   -1.3955   -1.0004    0.8638 H   0  0  0  0  0  0  0  0  0  0  0  0
   -2.2356   -2.1859   -2.4858 H   0  0  0  0  0  0  0  0  0  0  0  0
   -0.4454    3.6137   -0.3290 H   0  0  0  0  0  0  0  0  0  0  0  0
   -2.4699    2.0247   -4.9484 H   0  0  0  0  0  0  0  0  0  0  0  0
   -1.9985    3.6773   -4.5545 H   0  0  0  0  0  0  0  0  0  0  0  0
  1  2  1  0  0  0  0
  1 15  1  0  0  0  0
  1 16  1  0  0  0  0
  1 17  1  0  0  0  0
  2  3  1  0  0  0  0
  2  4  1  0  0  0  0
  2 18  1  6  0  0  0
  3 19  1  0  0  0  0
  4  5  1  0  0  0  0
  4 20  1  0  0  0  0
  4 21  1  0  0  0  0
  5  6  1  0  0  0  0
  5  9  1  0  0  0  0
  6  7  2  0  0  0  0
  6 22  1  0  0  0  0
  7  8  1  0  0  0  0
  8  9  2  0  0  0  0
  8 13  1  0  0  0  0
  9 10  1  0  0  0  0
 10 11  2  0  0  0  0
 11 12  1  0  0  0  0
 11 23  1  0  0  0  0
 12 13  2  0  0  0  0
 13 14  1  0  0  0  0
 14 24  1  0  0  0  0
 14 25  1  0  0  0  0
M  END
>  <DRUGBANK_ID>
DB02765

>  <SECONDARY_ACCESSION_NUMBERS>
EXPT00559

>  <COMMON_NAME>
R-9-(2-hydroxypropyl)adenine

>  <CAS_NUMBER>
14047-28-0

>  <UNII>
43H6SBP55W

>  <SYNONYMS>
9-Hydroxypropyladenine, R-Isomer

$$$$
