
 OpenBabel10282417203D

 49 50  0  0  0  0  0  0  0  0999 V2000
    1.1958   -0.0157   -0.0213 C   0  0  0  0  0  0  0  0  0  0  0  0
    0.5535    1.2941    0.4917 C   0  0  0  0  0  0  0  0  0  0  0  0
    0.9646    2.4089   -0.4839 C   0  0  0  0  0  0  0  0  0  0  0  0
   -0.9994    1.1395    0.4311 C   0  0  0  0  0  0  0  0  0  0  0  0
   -1.4338    0.0784    1.2900 O   0  0  0  0  0  0  0  0  0  0  0  0
   -1.3332   -1.2147    0.8789 C   0  0  0  0  0  0  0  0  0  0  0  0
   -1.0722   -1.5332   -0.2854 O   0  0  0  0  0  0  0  0  0  0  0  0
   -1.7115   -2.2251    1.9984 C   0  0  0  0  0  0  0  0  0  0  0  0
   -1.1615   -1.9799    3.4272 C   0  0  0  0  0  0  0  0  0  0  0  0
   -1.1134   -0.6935    3.9925 C   0  0  0  0  0  0  0  0  0  0  0  0
   -0.8006   -0.4795    5.3336 C   0  0  0  0  0  0  0  0  0  0  0  0
   -0.5607   -1.5579    6.1694 C   0  0  0  0  0  0  0  0  0  0  0  0
   -0.6134   -2.8478    5.6562 C   0  0  0  0  0  0  0  0  0  0  0  0
   -0.8649   -3.0555    4.2953 C   0  0  0  0  0  0  0  0  0  0  0  0
   -3.2503   -2.2786    2.0475 C   0  0  0  0  0  0  0  0  0  0  0  0
   -3.9477   -3.4900    2.0886 C   0  0  0  0  0  0  0  0  0  0  0  0
   -5.3344   -3.5015    2.2115 C   0  0  0  0  0  0  0  0  0  0  0  0
   -6.0470   -2.3082    2.3019 C   0  0  0  0  0  0  0  0  0  0  0  0
   -5.3794   -1.0945    2.2676 C   0  0  0  0  0  0  0  0  0  0  0  0
   -4.0010   -1.0816    2.1120 C   0  0  0  0  0  0  0  0  0  0  0  0
   -1.1624   -3.4793    1.5274 O   0  0  0  0  0  0  0  0  0  0  0  0
    1.0186    1.5524    1.8937 N   0  0  0  0  0  0  0  0  0  0  0  0
    2.4793    1.5235    2.0190 C   0  0  0  0  0  0  0  0  0  0  0  0
    0.5090    2.7995    2.4721 C   0  0  0  0  0  0  0  0  0  0  0  0
    0.7589   -0.2979   -0.9847 H   0  0  0  0  0  0  0  0  0  0  0  0
    1.0670   -0.8313    0.7002 H   0  0  0  0  0  0  0  0  0  0  0  0
    2.2695    0.0616   -0.1984 H   0  0  0  0  0  0  0  0  0  0  0  0
    0.5819    2.2041   -1.4885 H   0  0  0  0  0  0  0  0  0  0  0  0
    0.5796    3.3870   -0.1844 H   0  0  0  0  0  0  0  0  0  0  0  0
    2.0537    2.4779   -0.5629 H   0  0  0  0  0  0  0  0  0  0  0  0
   -1.4981    2.0506    0.7883 H   0  0  0  0  0  0  0  0  0  0  0  0
   -1.3823    0.9871   -0.5843 H   0  0  0  0  0  0  0  0  0  0  0  0
   -1.3481    0.1961    3.4230 H   0  0  0  0  0  0  0  0  0  0  0  0
   -0.7814    0.5371    5.7152 H   0  0  0  0  0  0  0  0  0  0  0  0
   -0.3374   -1.3905    7.2177 H   0  0  0  0  0  0  0  0  0  0  0  0
   -0.4776   -3.6989    6.3185 H   0  0  0  0  0  0  0  0  0  0  0  0
   -0.8452   -4.0854    3.9501 H   0  0  0  0  0  0  0  0  0  0  0  0
   -3.4375   -4.4446    2.0238 H   0  0  0  0  0  0  0  0  0  0  0  0
   -5.8543   -4.4531    2.2500 H   0  0  0  0  0  0  0  0  0  0  0  0
   -7.1266   -2.3237    2.3977 H   0  0  0  0  0  0  0  0  0  0  0  0
   -5.9146   -0.1552    2.3730 H   0  0  0  0  0  0  0  0  0  0  0  0
   -3.5354   -0.1015    2.0520 H   0  0  0  0  0  0  0  0  0  0  0  0
   -1.4977   -4.1852    2.0920 H   0  0  0  0  0  0  0  0  0  0  0  0
    2.9528    2.2961    1.4065 H   0  0  0  0  0  0  0  0  0  0  0  0
    2.7914    1.6728    3.0564 H   0  0  0  0  0  0  0  0  0  0  0  0
    2.8924    0.5512    1.7351 H   0  0  0  0  0  0  0  0  0  0  0  0
    0.8404    3.6798    1.9137 H   0  0  0  0  0  0  0  0  0  0  0  0
   -0.5835    2.8124    2.5272 H   0  0  0  0  0  0  0  0  0  0  0  0
    0.8545    2.9198    3.5050 H   0  0  0  0  0  0  0  0  0  0  0  0
  1  2  1  0  0  0  0
  1 25  1  0  0  0  0
  1 26  1  0  0  0  0
  1 27  1  0  0  0  0
  2  3  1  0  0  0  0
  2  4  1  0  0  0  0
  2 22  1  0  0  0  0
  3 28  1  0  0  0  0
  3 29  1  0  0  0  0
  3 30  1  0  0  0  0
  4  5  1  0  0  0  0
  4 31  1  0  0  0  0
  4 32  1  0  0  0  0
  5  6  1  0  0  0  0
  6  7  2  0  0  0  0
  6  8  1  0  0  0  0
  8  9  1  0  0  0  0
  8 15  1  0  0  0  0
  8 21  1  0  0  0  0
  9 10  2  0  0  0  0
  9 14  1  0  0  0  0
 10 11  1  0  0  0  0
 10 33  1  0  0  0  0
 11 12  2  0  0  0  0
 11 34  1  0  0  0  0
 12 13  1  0  0  0  0
 12 35  1  0  0  0  0
 13 14  2  0  0  0  0
 13 36  1  0  0  0  0
 14 37  1  0  0  0  0
 15 16  2  0  0  0  0
 15 20  1  0  0  0  0
 16 17  1  0  0  0  0
 16 38  1  0  0  0  0
 17 18  2  0  0  0  0
 17 39  1  0  0  0  0
 18 19  1  0  0  0  0
 18 40  1  0  0  0  0
 19 20  2  0  0  0  0
 19 41  1  0  0  0  0
 20 42  1  0  0  0  0
 21 43  1  0  0  0  0
 22 23  1  0  0  0  0
 22 24  1  0  0  0  0
 23 44  1  0  0  0  0
 23 45  1  0  0  0  0
 23 46  1  0  0  0  0
 24 47  1  0  0  0  0
 24 48  1  0  0  0  0
 24 49  1  0  0  0  0
M  END
>  <DRUGBANK_ID>
DB13380

>  <COMMON_NAME>
Difemerine

>  <CAS_NUMBER>
80387-96-8

>  <UNII>
843C4UPZ2F

>  <SYNONYMS>
Difemerine

$$$$
