
 OpenBabel10282417103D

 87 89  0  0  0  0  0  0  0  0999 V2000
   -9.6619    6.4676    0.7389 N   0  0  0  0  0  0  0  0  0  0  0  0
   -9.9376    6.8962   -0.6410 C   0  0  1  0  0  0  0  0  0  0  0  0
   -8.7930    7.0635   -1.6273 C   0  0  0  0  0  0  0  0  0  0  0  0
   -8.8886    6.7267   -2.9417 C   0  0  0  0  0  0  0  0  0  0  0  0
   -9.9702    5.8519   -3.5317 C   0  0  2  0  0  0  0  0  0  0  0  0
  -10.8279    5.2317   -2.4794 C   0  0  1  0  0  0  0  0  0  0  0  0
  -11.1234    6.2114   -1.3775 C   0  0  1  0  0  0  0  0  0  0  0  0
  -11.9269    5.3686   -0.5925 O   0  0  0  0  0  0  0  0  0  0  0  0
  -12.0732    4.7739   -3.0522 O   0  0  0  0  0  0  0  0  0  0  0  0
   -9.4000    4.7724   -4.2638 O   0  0  0  0  0  0  0  0  0  0  0  0
   -8.0448    7.3948   -3.9906 C   0  0  0  0  0  0  0  0  0  0  0  0
   -7.2594    6.4443   -4.6751 O   0  0  0  0  0  0  0  0  0  0  0  0
  -10.1875    7.9445   -0.4598 H   0  0  0  0  0  0  0  0  0  0  0  0
  -10.7848    6.8831    1.7583 C   0  0  1  0  0  0  0  0  0  0  0  0
  -12.0477    5.9674    1.7482 C   0  0  1  0  0  0  0  0  0  0  0  0
  -12.7849    5.6273    3.0170 C   0  0  2  0  0  0  0  0  0  0  0  0
  -11.8530    5.3090    4.1699 C   0  0  2  0  0  0  0  0  0  0  0  0
  -11.0364    6.4877    4.3438 O   0  0  0  0  0  0  0  0  0  0  0  0
  -10.2505    6.8425    3.1890 C   0  0  2  0  0  0  0  0  0  0  0  0
   -9.0185    7.7420    3.5608 C   0  0  0  0  0  0  0  0  0  0  0  0
  -11.2413    3.9804    4.1850 O   0  0  0  0  0  0  0  0  0  0  0  0
  -10.2300    3.6517    3.2480 C   0  0  1  0  0  0  0  0  0  0  0  0
   -8.8065    4.1509    3.6345 C   0  0  1  0  0  0  0  0  0  0  0  0
   -7.9570    4.1305    2.3477 C   0  0  2  0  0  0  0  0  0  0  0  0
   -7.7462    2.7167    2.1219 C   0  0  2  0  0  0  0  0  0  0  0  0
   -9.0274    2.1266    1.8720 O   0  0  0  0  0  0  0  0  0  0  0  0
   -9.9356    2.1549    2.9937 C   0  0  2  0  0  0  0  0  0  0  0  0
  -11.1134    1.2855    2.5795 C   0  0  0  0  0  0  0  0  0  0  0  0
  -11.7986    0.7759    3.7102 O   0  0  0  0  0  0  0  0  0  0  0  0
   -7.1620    2.3498    3.3593 O   0  0  0  0  0  0  0  0  0  0  0  0
   -5.9258    1.7570    3.1565 C   0  0  1  0  0  0  0  0  0  0  0  0
   -6.2550    0.4162    2.4324 C   0  0  2  0  0  0  0  0  0  0  0  0
   -7.4950    0.3604    1.7228 O   0  0  0  0  0  0  0  0  0  0  0  0
   -6.3160   -0.6987    3.4551 C   0  0  2  0  0  0  0  0  0  0  0  0
   -7.6962   -0.8225    4.1056 C   0  0  0  0  0  0  0  0  0  0  0  0
   -7.8999   -1.5059    5.1413 O   0  0  0  0  0  0  0  0  0  0  0  0
   -5.2636   -0.5631    4.3967 O   0  0  0  0  0  0  0  0  0  0  0  0
   -4.8066    2.6361    2.5303 C   0  0  2  0  0  0  0  0  0  0  0  0
   -3.7885    1.7702    2.0085 O   0  0  0  0  0  0  0  0  0  0  0  0
   -4.1289    3.5463    3.5793 C   0  0  0  0  0  0  0  0  0  0  0  0
   -3.0549    4.2734    2.9823 O   0  0  0  0  0  0  0  0  0  0  0  0
   -7.0954    2.6121    1.2448 H   0  0  0  0  0  0  0  0  0  0  0  0
   -6.7768    4.9357    2.4634 O   0  0  0  0  0  0  0  0  0  0  0  0
   -8.4514    5.4142    4.0927 O   0  0  0  0  0  0  0  0  0  0  0  0
  -13.7473    4.5961    2.7487 O   0  0  0  0  0  0  0  0  0  0  0  0
  -13.0566    6.6412    0.9861 O   0  0  0  0  0  0  0  0  0  0  0  0
   -8.5510   -0.3321    3.6303 H   0  0  0  0  0  0  0  0  0  0  0  0
  -10.5357    3.9714    2.2579 H   0  0  0  0  0  0  0  0  0  0  0  0
   -5.5645    1.6178    4.1771 H   0  0  0  0  0  0  0  0  0  0  0  0
   -9.5630    5.4623    0.6998 H   0  0  0  0  0  0  0  0  0  0  0  0
   -8.0044    7.7539   -1.3216 H   0  0  0  0  0  0  0  0  0  0  0  0
  -10.6163    6.4199   -4.2102 H   0  0  0  0  0  0  0  0  0  0  0  0
  -10.3635    4.3235   -2.0650 H   0  0  0  0  0  0  0  0  0  0  0  0
  -11.7611    7.0353   -1.7107 H   0  0  0  0  0  0  0  0  0  0  0  0
  -11.4560    4.5352   -0.4065 H   0  0  0  0  0  0  0  0  0  0  0  0
  -12.6930    5.5267   -3.0668 H   0  0  0  0  0  0  0  0  0  0  0  0
   -8.8788    4.2362   -3.6446 H   0  0  0  0  0  0  0  0  0  0  0  0
   -8.6954    7.9098   -4.7107 H   0  0  0  0  0  0  0  0  0  0  0  0
   -7.3777    8.1420   -3.5585 H   0  0  0  0  0  0  0  0  0  0  0  0
   -6.8476    5.8804   -4.0029 H   0  0  0  0  0  0  0  0  0  0  0  0
  -11.0392    7.9143    1.5306 H   0  0  0  0  0  0  0  0  0  0  0  0
  -11.7876    4.9772    1.3618 H   0  0  0  0  0  0  0  0  0  0  0  0
  -13.3360    6.5417    3.2543 H   0  0  0  0  0  0  0  0  0  0  0  0
  -12.5173    5.2573    5.0412 H   0  0  0  0  0  0  0  0  0  0  0  0
   -9.9421    5.8607    2.9781 H   0  0  0  0  0  0  0  0  0  0  0  0
   -8.8200    7.6871    4.6444 H   0  0  0  0  0  0  0  0  0  0  0  0
   -8.0569    7.4529    3.0925 H   0  0  0  0  0  0  0  0  0  0  0  0
   -9.0986    8.7672    3.2273 H   0  0  0  0  0  0  0  0  0  0  0  0
   -8.5094    3.5870    4.5180 H   0  0  0  0  0  0  0  0  0  0  0  0
   -8.4392    4.4681    1.4483 H   0  0  0  0  0  0  0  0  0  0  0  0
   -9.4660    1.7030    3.8775 H   0  0  0  0  0  0  0  0  0  0  0  0
  -11.8111    1.8437    1.9498 H   0  0  0  0  0  0  0  0  0  0  0  0
  -10.7624    0.4336    1.9792 H   0  0  0  0  0  0  0  0  0  0  0  0
  -11.1568    0.2805    4.2508 H   0  0  0  0  0  0  0  0  0  0  0  0
   -5.5224    0.2657    1.6474 H   0  0  0  0  0  0  0  0  0  0  0  0
   -7.5817   -0.4180    1.1572 H   0  0  0  0  0  0  0  0  0  0  0  0
   -6.1630   -1.6102    2.8761 H   0  0  0  0  0  0  0  0  0  0  0  0
   -5.6252   -0.0406    5.1438 H   0  0  0  0  0  0  0  0  0  0  0  0
   -5.1407    3.2689    1.7018 H   0  0  0  0  0  0  0  0  0  0  0  0
   -3.7660    0.9771    2.5771 H   0  0  0  0  0  0  0  0  0  0  0  0
   -4.8186    4.2635    4.0323 H   0  0  0  0  0  0  0  0  0  0  0  0
   -3.6867    2.9414    4.3768 H   0  0  0  0  0  0  0  0  0  0  0  0
   -2.5148    3.6099    2.5109 H   0  0  0  0  0  0  0  0  0  0  0  0
   -6.7398    5.2952    3.3778 H   0  0  0  0  0  0  0  0  0  0  0  0
   -8.2870    5.8391    3.2202 H   0  0  0  0  0  0  0  0  0  0  0  0
  -13.5379    3.8169    3.2901 H   0  0  0  0  0  0  0  0  0  0  0  0
  -12.6317    6.9089    0.1621 H   0  0  0  0  0  0  0  0  0  0  0  0
  1 50  1  0  0  0  0
  2  1  1  0  0  0  0
  2  7  1  0  0  0  0
  2 13  1  1  0  0  0
  3  2  1  0  0  0  0
  3 51  1  0  0  0  0
  4  3  2  0  0  0  0
  4 11  1  0  0  0  0
  5  4  1  0  0  0  0
  5 10  1  0  0  0  0
  5 52  1  6  0  0  0
  6  5  1  0  0  0  0
  6  9  1  0  0  0  0
  6 53  1  1  0  0  0
  7  6  1  0  0  0  0
  7  8  1  0  0  0  0
  7 54  1  6  0  0  0
  8 55  1  0  0  0  0
  9 56  1  0  0  0  0
 10 57  1  0  0  0  0
 11 58  1  0  0  0  0
 11 59  1  0  0  0  0
 12 11  1  0  0  0  0
 12 60  1  0  0  0  0
 14 19  1  0  0  0  0
 14 61  1  6  0  0  0
 14  1  1  0  0  0  0
 15 14  1  0  0  0  0
 15 46  1  0  0  0  0
 15 62  1  6  0  0  0
 16 15  1  0  0  0  0
 16 63  1  1  0  0  0
 16 45  1  0  0  0  0
 17 16  1  0  0  0  0
 17 64  1  1  0  0  0
 17 21  1  0  0  0  0
 18 17  1  0  0  0  0
 19 18  1  0  0  0  0
 19 65  1  6  0  0  0
 19 20  1  0  0  0  0
 20 66  1  0  0  0  0
 20 67  1  0  0  0  0
 20 68  1  0  0  0  0
 22 27  1  0  0  0  0
 22 48  1  6  0  0  0
 22 21  1  0  0  0  0
 23 22  1  0  0  0  0
 23 44  1  0  0  0  0
 23 69  1  1  0  0  0
 24 23  1  0  0  0  0
 24 70  1  6  0  0  0
 24 43  1  0  0  0  0
 25 24  1  0  0  0  0
 25 42  1  6  0  0  0
 25 30  1  0  0  0  0
 26 25  1  0  0  0  0
 27 26  1  0  0  0  0
 27 71  1  1  0  0  0
 27 28  1  0  0  0  0
 28 72  1  0  0  0  0
 28 73  1  0  0  0  0
 29 28  1  0  0  0  0
 29 74  1  0  0  0  0
 31 30  1  0  0  0  0
 31 49  1  1  0  0  0
 32 75  1  6  0  0  0
 32 33  1  0  0  0  0
 32 31  1  0  0  0  0
 33 76  1  0  0  0  0
 34 37  1  0  0  0  0
 34 77  1  6  0  0  0
 34 35  1  0  0  0  0
 34 32  1  0  0  0  0
 35 36  2  0  0  0  0
 35 47  1  0  0  0  0
 37 78  1  0  0  0  0
 38 40  1  0  0  0  0
 38 79  1  6  0  0  0
 38 39  1  0  0  0  0
 38 31  1  0  0  0  0
 39 80  1  0  0  0  0
 40 81  1  0  0  0  0
 40 82  1  0  0  0  0
 41 40  1  0  0  0  0
 41 83  1  0  0  0  0
 43 84  1  0  0  0  0
 44 85  1  0  0  0  0
 45 86  1  0  0  0  0
 46 87  1  0  0  0  0
M  END
>  <DRUGBANK_ID>
DB00284

>  <SECONDARY_ACCESSION_NUMBERS>
APRD00656

>  <COMMON_NAME>
Acarbose

>  <CAS_NUMBER>
56180-94-0

>  <UNII>
T58MSI464G

>  <SYNONYMS>
Acarbosa; Acarbose; Acarbosum

$$$$
