
 OpenBabel10282417123D

 14 15  0  0  0  0  0  0  0  0999 V2000
    2.0789    0.6894    0.0033 N   0  0  0  0  0  0  0  0  0  0  0  0
    2.1216   -0.6934   -0.0004 C   0  0  0  0  0  0  0  0  0  0  0  0
    0.9173   -1.3564   -0.0000 N   0  0  0  0  0  0  0  0  0  0  0  0
   -0.2505   -0.6519    0.0004 C   0  0  0  0  0  0  0  0  0  0  0  0
   -0.2373    0.7075   -0.0004 C   0  0  0  0  0  0  0  0  0  0  0  0
    0.9455    1.4773   -0.0008 C   0  0  0  0  0  0  0  0  0  0  0  0
   -1.5454    1.0579   -0.0004 N   0  0  0  0  0  0  0  0  0  0  0  0
   -2.3264   -0.0457    0.0008 N   0  0  0  0  0  0  0  0  0  0  0  0
   -1.5227   -1.1134    0.0010 N   0  0  0  0  0  0  0  0  0  0  0  0
    3.1925   -1.2938   -0.0045 O   0  0  0  0  0  0  0  0  0  0  0  0
    0.9763    2.7013   -0.0050 O   0  0  0  0  0  0  0  0  0  0  0  0
    2.9669    1.1672    0.0037 H   0  0  0  0  0  0  0  0  0  0  0  0
    0.8999   -2.3667   -0.0011 H   0  0  0  0  0  0  0  0  0  0  0  0
   -1.9700    1.9798   -0.0005 H   0  0  0  0  0  0  0  0  0  0  0  0
  1 12  1  0  0  0  0
  2  1  1  0  0  0  0
  3  2  1  0  0  0  0
  3 13  1  0  0  0  0
  4  3  1  0  0  0  0
  4  5  2  0  0  0  0
  5  6  1  0  0  0  0
  6  1  1  0  0  0  0
  7  5  1  0  0  0  0
  7  8  1  0  0  0  0
  7 14  1  0  0  0  0
  8  9  2  0  0  0  0
  9  4  1  0  0  0  0
 10  2  2  0  0  0  0
 11  6  2  0  0  0  0
M  END
>  <DRUGBANK_ID>
DB01875

>  <SECONDARY_ACCESSION_NUMBERS>
EXPT00599

>  <COMMON_NAME>
8-azaxanthine

>  <CAS_NUMBER>
1468-26-4

>  <UNII>
97MRZ3ZY2U

>  <SYNONYMS>
Xanthazol

$$$$
