
 OpenBabel10282417193D

 34 35  0  0  1  0  0  0  0  0999 V2000
    0.9891   -0.0100   -0.0989 C   0  0  0  0  0  0  0  0  0  0  0  0
    0.4824    1.1938    0.6786 C   0  0  0  0  0  0  0  0  0  0  0  0
    0.0478    2.2265    1.3454 C   0  0  0  0  0  0  0  0  0  0  0  0
   -0.3451    3.3982    2.0888 C   0  0  0  0  0  0  0  0  0  0  0  0
   -1.2983    3.3760    3.0332 C   0  0  0  0  0  0  0  0  0  0  0  0
   -1.8261    4.5051    3.6616 N   0  0  0  0  0  0  0  0  0  0  0  0
   -1.2506    5.7530    3.4377 C   0  0  0  0  0  0  0  0  0  0  0  0
   -1.6959    6.8169    3.8582 O   0  0  0  0  0  0  0  0  0  0  0  0
   -0.1300    5.7438    2.6445 N   0  0  0  0  0  0  0  0  0  0  0  0
    0.2642    4.7225    1.8248 C   0  0  0  0  0  0  0  0  0  0  0  0
    1.0708    4.9026    0.9119 O   0  0  0  0  0  0  0  0  0  0  0  0
   -3.0685    4.4792    4.4802 C   0  0  1  0  0  0  0  0  0  0  0  0
   -4.2894    3.8332    3.7922 C   0  0  2  0  0  0  0  0  0  0  0  0
   -4.1826    2.3867    4.2639 C   0  0  1  0  0  0  0  0  0  0  0  0
   -3.6798    2.5637    5.6955 C   0  0  2  0  0  0  0  0  0  0  0  0
   -2.8543    3.7480    5.7008 O   0  0  0  0  0  0  0  0  0  0  0  0
   -2.8585    1.3798    6.2158 C   0  0  0  0  0  0  0  0  0  0  0  0
   -1.5294    1.3810    5.7007 O   0  0  0  0  0  0  0  0  0  0  0  0
   -5.3672    1.6142    4.1556 O   0  0  0  0  0  0  0  0  0  0  0  0
   -4.3199    3.9770    2.3779 O   0  0  0  0  0  0  0  0  0  0  0  0
    0.6288    0.0337   -1.1304 H   0  0  0  0  0  0  0  0  0  0  0  0
    0.6288   -0.9322    0.3653 H   0  0  0  0  0  0  0  0  0  0  0  0
    2.0826   -0.0175   -0.1037 H   0  0  0  0  0  0  0  0  0  0  0  0
   -1.7345    2.4291    3.2711 H   0  0  0  0  0  0  0  0  0  0  0  0
    0.2794    6.6458    2.4587 H   0  0  0  0  0  0  0  0  0  0  0  0
   -3.3395    5.4997    4.7786 H   0  0  0  0  0  0  0  0  0  0  0  0
   -5.2199    4.2721    4.1740 H   0  0  0  0  0  0  0  0  0  0  0  0
   -3.4685    1.8421    3.6538 H   0  0  0  0  0  0  0  0  0  0  0  0
   -4.5352    2.7175    6.3687 H   0  0  0  0  0  0  0  0  0  0  0  0
   -2.7613    1.4413    7.3037 H   0  0  0  0  0  0  0  0  0  0  0  0
   -3.3252    0.4234    5.9640 H   0  0  0  0  0  0  0  0  0  0  0  0
   -1.5793    1.2244    4.7494 H   0  0  0  0  0  0  0  0  0  0  0  0
   -6.1145    2.0921    4.5495 H   0  0  0  0  0  0  0  0  0  0  0  0
   -3.4511    3.7237    2.0232 H   0  0  0  0  0  0  0  0  0  0  0  0
  1  2  1  0  0  0  0
  1 21  1  0  0  0  0
  1 22  1  0  0  0  0
  1 23  1  0  0  0  0
  2  3  3  0  0  0  0
  3  4  1  0  0  0  0
  4  5  2  0  0  0  0
  4 10  1  0  0  0  0
  5  6  1  0  0  0  0
  5 24  1  0  0  0  0
  6  7  1  0  0  0  0
  7  8  2  0  0  0  0
  7  9  1  0  0  0  0
  9 10  1  0  0  0  0
  9 25  1  0  0  0  0
 10 11  2  0  0  0  0
 12  6  1  0  0  0  0
 12 13  1  0  0  0  0
 12 16  1  0  0  0  0
 12 26  1  1  0  0  0
 13 14  1  0  0  0  0
 13 20  1  0  0  0  0
 13 27  1  1  0  0  0
 14 15  1  0  0  0  0
 14 19  1  0  0  0  0
 14 28  1  6  0  0  0
 15 16  1  0  0  0  0
 15 29  1  1  0  0  0
 15 17  1  0  0  0  0
 17 18  1  0  0  0  0
 17 30  1  0  0  0  0
 17 31  1  0  0  0  0
 18 32  1  0  0  0  0
 19 33  1  0  0  0  0
 20 34  1  0  0  0  0
M  END
>  <DRUGBANK_ID>
DB12606

>  <COMMON_NAME>
Netivudine

>  <CAS_NUMBER>
84558-93-0

>  <UNII>
F7K51T0Q1W

>  <SYNONYMS>
Netivudine

$$$$
