
 OpenBabel10282417133D

 86 89  0  0  0  0  0  0  0  0999 V2000
   -1.5564    0.0490    0.1611 S   0  0  0  0  0  0  0  0  0  0  0  0
    5.8944    3.5761   -2.9759 O   0  0  0  0  0  0  0  0  0  0  0  0
    3.7339    3.4186   -4.3374 O   0  0  0  0  0  0  0  0  0  0  0  0
    5.1918   -0.6797   -4.3553 O   0  0  0  0  0  0  0  0  0  0  0  0
    6.9656    0.9667   -2.6426 O   0  0  0  0  0  0  0  0  0  0  0  0
    5.1668    1.5603   -6.2067 O   0  0  0  0  0  0  0  0  0  0  0  0
    4.9880    4.4004   -0.0780 O   0  0  0  0  0  0  0  0  0  0  0  0
    3.2940    0.2269    0.2339 O   0  0  0  0  0  0  0  0  0  0  0  0
   -2.2485    3.5914   -1.2405 O   0  0  0  0  0  0  0  0  0  0  0  0
    7.5226   -1.1570   -0.0733 N   0  0  0  0  0  0  0  0  0  0  0  0
    9.4953   -2.2494    1.5650 N   0  0  0  0  0  0  0  0  0  0  0  0
    4.0545   -1.2763   -1.0353 N   0  0  0  0  0  0  0  0  0  0  0  0
   12.3645   -1.1468   -1.0588 N   0  0  0  0  0  0  0  0  0  0  0  0
   -0.6775    2.7609   -2.5786 N   0  0  0  0  0  0  0  0  0  0  0  0
    5.0163    0.7050   -4.0049 C   0  0  1  0  0  0  0  0  0  0  0  0
    5.5992    1.3258   -2.5739 C   0  0  2  0  0  0  0  0  0  0  0  0
    7.4319   -2.5768    0.1629 C   0  0  0  0  0  0  0  0  0  0  0  0
    8.8239   -0.6282   -0.1985 C   0  0  0  0  0  0  0  0  0  0  0  0
    8.1082   -2.7877    1.4937 C   0  0  0  0  0  0  0  0  0  0  0  0
    9.5565   -0.8393    1.1429 C   0  0  0  0  0  0  0  0  0  0  0  0
    5.6480    1.7143   -4.8821 C   0  0  2  0  0  0  0  0  0  0  0  0
    5.3098    2.8138   -1.9678 C   0  0  1  0  0  0  0  0  0  0  0  0
    5.2432    3.1472   -4.2588 C   0  0  2  0  0  0  0  0  0  0  0  0
    6.7972   -0.3421    0.8224 C   0  0  0  0  0  0  0  0  0  0  0  0
   10.4822   -3.0480    0.8228 C   0  0  0  0  0  0  0  0  0  0  0  0
    6.0677    0.2101   -0.2950 C   0  0  0  0  0  0  0  0  0  0  0  0
    5.3362    3.0573   -0.3956 C   0  0  0  0  0  0  0  0  0  0  0  0
   10.6028   -3.0296   -0.7288 C   0  0  0  0  0  0  0  0  0  0  0  0
    5.4371   -0.9570   -1.3137 C   0  0  0  0  0  0  0  0  0  0  0  0
   11.0897   -1.7259   -1.4243 C   0  0  0  0  0  0  0  0  0  0  0  0
    2.6864    2.6997   -3.7542 C   0  0  0  0  0  0  0  0  0  0  0  0
    2.8936    1.6425   -2.8414 C   0  0  0  0  0  0  0  0  0  0  0  0
    2.2851    0.6356   -2.1122 C   0  0  0  0  0  0  0  0  0  0  0  0
    3.1591   -0.1932   -0.9487 C   0  0  0  0  0  0  0  0  0  0  0  0
    1.3784    2.9785   -3.8222 C   0  0  0  0  0  0  0  0  0  0  0  0
    0.5477    2.2116   -2.9371 C   0  0  0  0  0  0  0  0  0  0  0  0
    0.9886    0.9874   -2.2541 C   0  0  0  0  0  0  0  0  0  0  0  0
   -1.1786    2.9906   -1.3090 C   0  0  0  0  0  0  0  0  0  0  0  0
   -0.4146    2.6772   -0.0130 C   0  0  0  0  0  0  0  0  0  0  0  0
   -0.3133    1.2163    0.3240 C   0  0  0  0  0  0  0  0  0  0  0  0
    0.8499    0.6033    0.7193 C   0  0  0  0  0  0  0  0  0  0  0  0
    0.8111   -0.8253    0.5727 C   0  0  0  0  0  0  0  0  0  0  0  0
   -0.4344   -1.2564    0.1978 C   0  0  0  0  0  0  0  0  0  0  0  0
    6.0006   -1.0543   -3.9827 H   0  0  0  0  0  0  0  0  0  0  0  0
    7.4665    1.7893   -2.7380 H   0  0  0  0  0  0  0  0  0  0  0  0
    4.1949    1.5864   -6.1472 H   0  0  0  0  0  0  0  0  0  0  0  0
    5.6162    4.9363   -0.5830 H   0  0  0  0  0  0  0  0  0  0  0  0
    4.1750   -1.5780   -0.0694 H   0  0  0  0  0  0  0  0  0  0  0  0
   12.2943   -0.1505   -1.3212 H   0  0  0  0  0  0  0  0  0  0  0  0
   12.3511   -1.0841   -0.0350 H   0  0  0  0  0  0  0  0  0  0  0  0
   -1.1607    3.3056   -3.2843 H   0  0  0  0  0  0  0  0  0  0  0  0
    3.9617    0.7073   -4.2686 H   0  0  0  0  0  0  0  0  0  0  0  0
    5.0105    0.8991   -1.7972 H   0  0  0  0  0  0  0  0  0  0  0  0
    6.3794   -2.8852    0.1527 H   0  0  0  0  0  0  0  0  0  0  0  0
    7.8463   -3.1524   -0.6705 H   0  0  0  0  0  0  0  0  0  0  0  0
    9.0279   -1.2332   -1.0720 H   0  0  0  0  0  0  0  0  0  0  0  0
    8.9365    0.4010   -0.5780 H   0  0  0  0  0  0  0  0  0  0  0  0
    7.4959   -2.2465    2.2315 H   0  0  0  0  0  0  0  0  0  0  0  0
    8.0221   -3.8342    1.7759 H   0  0  0  0  0  0  0  0  0  0  0  0
    9.0897   -0.2278    1.9287 H   0  0  0  0  0  0  0  0  0  0  0  0
   10.5813   -0.4564    1.1353 H   0  0  0  0  0  0  0  0  0  0  0  0
    6.7155    1.4586   -4.8724 H   0  0  0  0  0  0  0  0  0  0  0  0
    4.2846    3.2034   -1.9931 H   0  0  0  0  0  0  0  0  0  0  0  0
    5.7447    3.8317   -4.9370 H   0  0  0  0  0  0  0  0  0  0  0  0
    7.3567    0.4805    1.2968 H   0  0  0  0  0  0  0  0  0  0  0  0
    6.0917   -0.8062    1.4899 H   0  0  0  0  0  0  0  0  0  0  0  0
   11.4560   -2.7505    1.2195 H   0  0  0  0  0  0  0  0  0  0  0  0
   10.3347   -4.0827    1.1510 H   0  0  0  0  0  0  0  0  0  0  0  0
    6.8078    0.9408   -0.6920 H   0  0  0  0  0  0  0  0  0  0  0  0
    5.3291    0.8130    0.1895 H   0  0  0  0  0  0  0  0  0  0  0  0
    4.5278    2.4865    0.1115 H   0  0  0  0  0  0  0  0  0  0  0  0
    6.2767    2.8417    0.1056 H   0  0  0  0  0  0  0  0  0  0  0  0
   11.2646   -3.8436   -1.0344 H   0  0  0  0  0  0  0  0  0  0  0  0
    9.6450   -3.3399   -1.1572 H   0  0  0  0  0  0  0  0  0  0  0  0
    6.1022   -1.7673   -1.6356 H   0  0  0  0  0  0  0  0  0  0  0  0
    5.2580   -0.6788   -2.3109 H   0  0  0  0  0  0  0  0  0  0  0  0
   10.7582   -1.6777   -2.4747 H   0  0  0  0  0  0  0  0  0  0  0  0
   10.6087   -0.8545   -1.0526 H   0  0  0  0  0  0  0  0  0  0  0  0
    3.8201    1.6765   -2.5886 H   0  0  0  0  0  0  0  0  0  0  0  0
    1.0346    3.8243   -4.4115 H   0  0  0  0  0  0  0  0  0  0  0  0
    0.2237    0.3689   -1.8283 H   0  0  0  0  0  0  0  0  0  0  0  0
   -0.9168    3.1690    0.8276 H   0  0  0  0  0  0  0  0  0  0  0  0
    0.5789    3.1585   -0.0662 H   0  0  0  0  0  0  0  0  0  0  0  0
    1.7308    1.2303    0.8287 H   0  0  0  0  0  0  0  0  0  0  0  0
    1.6593   -1.5086    0.5897 H   0  0  0  0  0  0  0  0  0  0  0  0
   -0.6898   -2.2767   -0.0584 H   0  0  0  0  0  0  0  0  0  0  0  0
  1 40  1  0  0  0  0
  1 43  1  0  0  0  0
  2 22  1  0  0  0  0
  2 23  1  0  0  0  0
  3 31  1  0  0  0  0
  4 44  1  0  0  0  0
  5 45  1  0  0  0  0
  6 46  1  0  0  0  0
  7 27  1  0  0  0  0
  7 47  1  0  0  0  0
  8 34  2  0  0  0  0
  9 38  2  0  0  0  0
 10 17  1  0  0  0  0
 10 18  1  0  0  0  0
 10 24  1  0  0  0  0
 11 19  1  0  0  0  0
 11 20  1  0  0  0  0
 11 25  1  0  0  0  0
 12 29  1  0  0  0  0
 12 34  1  0  0  0  0
 12 48  1  0  0  0  0
 13 30  1  0  0  0  0
 13 49  1  0  0  0  0
 13 50  1  0  0  0  0
 14 36  1  0  0  0  0
 14 38  1  0  0  0  0
 14 51  1  0  0  0  0
 15  4  1  0  0  0  0
 15 16  1  0  0  0  0
 15 21  1  0  0  0  0
 15 52  1  6  0  0  0
 16  5  1  0  0  0  0
 16 22  1  0  0  0  0
 16 53  1  1  0  0  0
 17 19  1  0  0  0  0
 17 54  1  0  0  0  0
 17 55  1  0  0  0  0
 18 20  1  0  0  0  0
 18 56  1  0  0  0  0
 18 57  1  0  0  0  0
 19 58  1  0  0  0  0
 19 59  1  0  0  0  0
 20 60  1  0  0  0  0
 20 61  1  0  0  0  0
 21  6  1  0  0  0  0
 21 23  1  0  0  0  0
 21 62  1  1  0  0  0
 22 27  1  0  0  0  0
 22 63  1  6  0  0  0
 23  3  1  0  0  0  0
 23 64  1  6  0  0  0
 24 26  1  0  0  0  0
 24 65  1  0  0  0  0
 24 66  1  0  0  0  0
 25 28  1  0  0  0  0
 25 67  1  0  0  0  0
 25 68  1  0  0  0  0
 26 29  1  0  0  0  0
 26 69  1  0  0  0  0
 26 70  1  0  0  0  0
 27 71  1  0  0  0  0
 27 72  1  0  0  0  0
 28 30  1  0  0  0  0
 28 73  1  0  0  0  0
 28 74  1  0  0  0  0
 29 75  1  0  0  0  0
 29 76  1  0  0  0  0
 30 77  1  0  0  0  0
 30 78  1  0  0  0  0
 31 32  2  0  0  0  0
 31 35  1  0  0  0  0
 32 33  1  0  0  0  0
 32 79  1  0  0  0  0
 33 34  1  0  0  0  0
 33 37  2  0  0  0  0
 35 36  2  0  0  0  0
 35 80  1  0  0  0  0
 36 37  1  0  0  0  0
 37 81  1  0  0  0  0
 38 39  1  0  0  0  0
 39 40  1  0  0  0  0
 39 82  1  0  0  0  0
 39 83  1  0  0  0  0
 40 41  2  0  0  0  0
 41 42  1  0  0  0  0
 41 84  1  0  0  0  0
 42 43  2  0  0  0  0
 42 85  1  0  0  0  0
 43 86  1  0  0  0  0
M  END
>  <DRUGBANK_ID>
DB03524

>  <SECONDARY_ACCESSION_NUMBERS>
EXPT01953

>  <COMMON_NAME>
N-[3-[4-(3-aminopropyl)piperazin-1-yl]propyl]-3-[(2-thiophen-2-ylacetyl)amino]-5-[(2R,3R,4S,5R,6R)-3,4,5-trihydroxy-6-(hydroxymethyl)oxan-2-yl]oxybenzamide

$$$$
