
 OpenBabel10282417213D

 94 84  0  0  0  0  0  0  0  0999 V2000
    0.3291   -1.4576   -0.5286 C   0  0  0  0  0  0  0  0  0  0  0  0
    1.5919    0.2436    2.9884 C   0  0  0  0  0  0  0  0  0  0  0  0
    0.2240   -2.7506   -2.0142 C   0  0  0  0  0  0  0  0  0  0  0  0
    0.1449    2.1873    2.9589 C   0  0  0  0  0  0  0  0  0  0  0  0
   -1.4977   -0.4948    2.3157 C   0  0  0  0  0  0  0  0  0  0  0  0
    0.3930   -1.1102    1.8687 C   0  0  0  0  0  0  0  0  0  0  0  0
   -0.9180   -2.9228   -1.5536 O   0  0  0  0  0  0  0  0  0  0  0  0
    0.8514   -2.1200   -3.4552 O   0  5  0  0  0  0  0  0  0  0  0  0
   -0.4328    2.4941    3.9584 O   0  0  0  0  0  0  0  0  0  0  0  0
    1.2455    3.0407    2.3814 O   0  5  0  0  0  0  0  0  0  0  0  0
   -2.1229   -1.6727    2.8750 O   0  0  0  0  0  0  0  0  0  0  0  0
   -2.0907    0.2748    1.1714 O   0  5  0  0  0  0  0  0  0  0  0  0
    1.0707   -3.0690    2.5675 O   0  0  0  0  0  0  0  0  0  0  0  0
    0.6300    0.4633    1.5417 C   0  0  0  0  0  0  0  0  0  0  0  0
    1.0745    3.3335    0.5060 C   0  0  0  0  0  0  0  0  0  0  0  0
   -0.3378   -1.6076    0.7661 C   0  0  0  0  0  0  0  0  0  0  0  0
    0.5155    3.6455   -0.6858 C   0  0  0  0  0  0  0  0  0  0  0  0
   -1.3804    2.0123    1.1000 C   0  0  0  0  0  0  0  0  0  0  0  0
    0.0881    1.8359    1.1031 C   0  0  0  0  0  0  0  0  0  0  0  0
   -0.5448   -2.4380    2.2923 O   0  0  0  0  0  0  0  0  0  0  0  0
    0.2222   -3.1543   -0.0048 O   0  5  0  0  0  0  0  0  0  0  0  0
   -0.4940    4.3003   -0.8797 O   0  0  0  0  0  0  0  0  0  0  0  0
    1.2933    2.3930   -1.6354 O   0  5  0  0  0  0  0  0  0  0  0  0
   -1.7265    1.6701    2.2860 O   0  0  0  0  0  0  0  0  0  0  0  0
   -1.9030    1.8060   -0.0747 O   0  5  0  0  0  0  0  0  0  0  0  0
    1.1419    1.3637    1.8288 O   0  0  0  0  0  0  0  0  0  0  0  0
    1.5785   -1.6891    0.3740 C   0  0  0  0  0  0  0  0  0  0  0  0
    1.4249   -1.4495    3.1409 C   0  0  0  0  0  0  0  0  0  0  0  0
    1.3994   -1.3699   -1.9640 C   0  0  0  0  0  0  0  0  0  0  0  0
    0.2309    0.3794    3.8050 C   0  0  0  0  0  0  0  0  0  0  0  0
   -1.5513   -2.5592    1.0932 C   0  0  0  0  0  0  0  0  0  0  0  0
    0.9307   -2.3732    1.2334 C   0  0  0  0  0  0  0  0  0  0  0  0
   -0.2052   -1.2032   -2.5998 O   0  0  0  0  0  0  0  0  0  0  0  0
    1.7800    0.4895   -2.3912 O   0  5  0  0  0  0  0  0  0  0  0  0
   -0.5882   -0.0405    4.5336 O   0  0  0  0  0  0  0  0  0  0  0  0
    1.6156    1.5579    3.9617 O   0  5  0  0  0  0  0  0  0  0  0  0
   -2.0500   -2.7034    0.0099 O   0  0  0  0  0  0  0  0  0  0  0  0
   -2.7348   -1.4048    1.1372 O   0  5  0  0  0  0  0  0  0  0  0  0
    2.0315   -2.9212    0.5837 O   0  0  0  0  0  0  0  0  0  0  0  0
   -2.3436   -0.5706   -0.1921 Fe  0  1  0  0  0  0  0  0  0  0  0  0
    2.2467    2.2133   -0.6165 Fe  0  1  0  0  0  0  0  0  0  0  0  0
    3.4562   -0.9900   -2.3521 Fe  0  1  0  0  0  0  0  0  0  0  0  0
    2.8250    2.0356    2.1635 Fe  0  1  0  0  0  0  0  0  0  0  0  0
    0.9243   -0.0392   -0.0522 O   0  5  0  0  0  0  0  0  0  0  0  0
    3.3788   -1.4027   -0.7702 O   0  5  0  0  0  0  0  0  0  0  0  0
    3.3018    1.4247    0.0622 O   0  0  0  0  0  0  0  0  0  0  0  0
    3.6015    0.8883   -2.0258 O   0  5  0  0  0  0  0  0  0  0  0  0
    5.7512    1.6524   -0.8509 O   0  0  0  0  0  0  0  0  0  0  0  0
    5.4770    0.8895   -3.0003 O   0  0  0  0  0  0  0  0  0  0  0  0
    4.3843   -0.0392   -0.0522 O   0  0  0  0  0  0  0  0  0  0  0  0
    2.6543   -0.0392   -0.0522 P   0  0  0  0  0  0  0  0  0  0  0  0
    4.9609    0.4509   -1.6079 P   0  0  3  0  0  0  0  0  0  0  0  0
    0.9533   -0.0553    0.0690 O   0  0  0  0  0  0  0  0  0  0  0  0
    2.0414   -0.6279   -3.1962 O   0  0  0  0  0  0  0  0  0  0  0  0
   -1.3087   -0.9854   -1.3904 O   0  0  0  0  0  0  0  0  0  0  0  0
   -1.3109    2.7419   -1.8336 O   0  0  0  0  0  0  0  0  0  0  0  0
    1.1295    1.8216   -4.2650 O   0  0  0  0  0  0  0  0  0  0  0  0
   -0.5643    3.5255   -3.8241 O   0  0  0  0  0  0  0  0  0  0  0  0
   -0.2001    0.3338   -3.1699 O   0  0  0  0  0  0  0  0  0  0  0  0
    0.3766    0.1393   -1.5504 P   0  0  0  0  0  0  0  0  0  0  0  0
   -0.3923    2.0180   -3.5151 P   0  0  0  0  0  0  0  0  0  0  0  0
    0.9725   -0.0941   -0.0198 O   0  0  0  0  0  0  0  0  0  0  0  0
   -1.5388    0.6424   -1.6901 O   0  0  0  0  0  0  0  0  0  0  0  0
    0.0340    1.9538   -0.5521 O   0  0  0  0  0  0  0  0  0  0  0  0
    2.6003    3.3353   -1.9616 O   0  0  0  0  0  0  0  0  0  0  0  0
    1.1349    3.6825   -4.4634 O   0  0  0  0  0  0  0  0  0  0  0  0
    1.1491    4.8302   -2.4697 O   0  0  0  0  0  0  0  0  0  0  0  0
   -0.1809    1.8390   -2.6475 O   0  0  0  0  0  0  0  0  0  0  0  0
    0.3958    0.8725   -1.3337 P   0  0  0  0  0  0  0  0  0  0  0  0
    0.5210    3.4174   -2.5537 P   0  0  0  0  0  0  0  0  0  0  0  0
   -0.6975   -0.2580   -0.2646 H   0  0  0  0  0  0  0  0  0  0  0  0
    1.7774   -0.3680   -1.3072 H   0  0  0  0  0  0  0  0  0  0  0  0
    1.4457   -0.3638    4.1797 H   0  0  0  0  0  0  0  0  0  0  0  0
    2.6302    0.1311    2.8464 H   0  0  0  0  0  0  0  0  0  0  0  0
    0.1434   -3.2397    2.4834 H   0  0  0  0  0  0  0  0  0  0  0  0
    1.6270    1.2909    0.4982 H   0  0  0  0  0  0  0  0  0  0  0  0
    2.3541    0.4038    1.5431 H   0  0  0  0  0  0  0  0  0  0  0  0
    0.3557    3.8417    0.9864 H   0  0  0  0  0  0  0  0  0  0  0  0
    2.1632    3.1711    0.6616 H   0  0  0  0  0  0  0  0  0  0  0  0
    1.1370    1.4572    3.0473 H   0  0  0  0  0  0  0  0  0  0  0  0
    0.0602   -0.5743    0.8444 H   0  0  0  0  0  0  0  0  0  0  0  0
    2.6362   -1.3316    1.0813 H   0  0  0  0  0  0  0  0  0  0  0  0
    0.7045   -1.9971    3.5924 H   0  0  0  0  0  0  0  0  0  0  0  0
    2.3731   -1.4127    2.5811 H   0  0  0  0  0  0  0  0  0  0  0  0
    1.0823   -3.4318    0.8032 H   0  0  0  0  0  0  0  0  0  0  0  0
    5.8318    1.6574    0.1115 H   0  0  0  0  0  0  0  0  0  0  0  0
    1.4974   -0.3993    0.9080 H   0  0  0  0  0  0  0  0  0  0  0  0
    2.6104    0.5574   -3.0311 H   0  0  0  0  0  0  0  0  0  0  0  0
   -1.9814    2.1798   -1.4499 H   0  0  0  0  0  0  0  0  0  0  0  0
    1.5471    0.9731   -4.2884 H   0  0  0  0  0  0  0  0  0  0  0  0
    1.4456   -0.8020   -0.4713 H   0  0  0  0  0  0  0  0  0  0  0  0
   -1.3342   -0.3548   -2.3571 H   0  0  0  0  0  0  0  0  0  0  0  0
    2.2365    3.7830   -1.1888 H   0  0  0  0  0  0  0  0  0  0  0  0
    0.4341    3.0173   -4.8840 H   0  0  0  0  0  0  0  0  0  0  0  0
  1 71  1  0  0  0  0
  1 72  1  0  0  0  0
  2 73  1  0  0  0  0
  2 74  1  0  0  0  0
  3  1  1  0  0  0  0
  4  2  1  0  0  0  0
  6  1  1  0  0  0  0
  6  2  1  0  0  0  0
  6  5  1  0  0  0  0
  7  3  2  0  0  0  0
  8  3  1  0  0  0  0
  9  4  2  0  0  0  0
 10  4  1  0  0  0  0
 11  5  2  0  0  0  0
 12  5  1  0  0  0  0
 13  6  1  0  0  0  0
 13 75  1  0  0  0  0
 14 76  1  0  0  0  0
 14 77  1  0  0  0  0
 15 78  1  0  0  0  0
 15 79  1  0  0  0  0
 16 14  1  0  0  0  0
 17 15  1  0  0  0  0
 19 14  1  0  0  0  0
 19 15  1  0  0  0  0
 19 18  1  0  0  0  0
 20 16  2  0  0  0  0
 21 16  1  0  0  0  0
 22 17  2  0  0  0  0
 23 17  1  0  0  0  0
 24 18  2  0  0  0  0
 25 18  1  0  0  0  0
 26 19  1  0  0  0  0
 26 80  1  0  0  0  0
 27 81  1  0  0  0  0
 27 82  1  0  0  0  0
 28 83  1  0  0  0  0
 28 84  1  0  0  0  0
 29 27  1  0  0  0  0
 30 28  1  0  0  0  0
 32 27  1  0  0  0  0
 32 28  1  0  0  0  0
 32 31  1  0  0  0  0
 33 29  2  0  0  0  0
 34 29  1  0  0  0  0
 35 30  2  0  0  0  0
 36 30  1  0  0  0  0
 37 31  2  0  0  0  0
 38 31  1  0  0  0  0
 39 32  1  0  0  0  0
 39 85  1  0  0  0  0
 48 86  1  0  0  0  0
 51 44  1  0  0  0  0
 51 45  1  0  0  0  0
 51 46  2  0  0  0  0
 51 50  1  0  0  0  0
 52 47  1  0  0  0  0
 52 48  1  0  0  0  0
 52 49  2  0  0  0  0
 52 50  1  0  0  0  0
 53 87  1  0  0  0  0
 54 88  1  0  0  0  0
 56 89  1  0  0  0  0
 57 90  1  0  0  0  0
 60 53  1  0  0  0  0
 60 54  1  0  0  0  0
 60 55  2  0  0  0  0
 60 59  1  0  0  0  0
 61 56  1  0  0  0  0
 61 57  1  0  0  0  0
 61 58  2  0  0  0  0
 61 59  1  0  0  0  0
 62 91  1  0  0  0  0
 63 92  1  0  0  0  0
 65 93  1  0  0  0  0
 66 94  1  0  0  0  0
 69 62  1  0  0  0  0
 69 63  1  0  0  0  0
 69 64  2  0  0  0  0
 69 68  1  0  0  0  0
 70 65  1  0  0  0  0
 70 66  1  0  0  0  0
 70 67  2  0  0  0  0
 70 68  1  0  0  0  0
M  CHG  8   8  -1  10  -1  12  -1  21  -1  23  -1  25  -1  34  -1  36  -1
M  CHG  8  38  -1  40   3  41   3  42   3  43   3  44  -1  45  -1  47  -1
M  END
>  <DRUGBANK_ID>
DB13995

>  <SECONDARY_ACCESSION_NUMBERS>
DBSALT001314

>  <COMMON_NAME>
Ferric pyrophosphate citrate

>  <CAS_NUMBER>
1802359-96-1

>  <UNII>
UBY79OCO9G

>  <SYNONYMS>
Ferric pyrophosphate citrate; FPC; SFP; Tetraferric nonahydrogen citrate pyrophosphate; Triferic

$$$$
