
 OpenBabel10282417233D

161178  0  0  1  0  0  0  0  0999 V2000
    1.3733    0.3908   -0.3167 H   0  0  0  0  0  0  0  0  0  0  0  0
    2.3406    0.7728   -0.8899 C   0  0  1  0  0  0  0  0  0  0  0  0
    3.0667    2.8432   -1.0933 C   0  0  1  0  0  0  0  0  0  0  0  0
    2.7692    4.7688   -1.4330 O   0  0  0  0  0  0  0  0  0  0  0  0
    3.6853    3.7758   -0.1336 C   0  0  0  0  0  0  0  0  0  0  0  0
    4.2779    2.6398    0.2690 C   0  0  0  0  0  0  0  0  0  0  0  0
    5.4409    2.3269    1.3654 C   0  0  0  0  0  0  0  0  0  0  0  0
    6.9243    1.0856    0.5341 C   0  0  0  0  0  0  0  0  0  0  0  0
    7.0251   -0.0511   -0.3437 C   0  0  0  0  0  0  0  0  0  0  0  0
    8.5148    0.9126   -0.8510 O   0  0  0  0  0  0  0  0  0  0  0  0
    9.4508    1.5732    0.2217 C   0  0  0  0  0  0  0  0  0  0  0  0
    8.6630    0.6087    0.8573 O   0  0  0  0  0  0  0  0  0  0  0  0
    5.3301   -0.1655   -0.8913 C   0  0  0  0  0  0  0  0  0  0  0  0
    4.2018    1.2867   -0.8721 C   0  0  0  0  0  0  0  0  0  0  0  0
    2.4792    1.9531   -0.4579 C   0  0  1  0  0  0  0  0  0  0  0  0
    1.6533    2.0095    0.2035 H   0  0  0  0  0  0  0  0  0  0  0  0
    1.8794    1.9256   -2.1316 N   0  3  3  0  0  0  0  0  0  0  0  0
    0.5019    1.7804   -2.0812 C   0  0  0  0  0  0  0  0  0  0  0  0
    2.1022    3.5218   -2.4554 C   0  0  0  0  0  0  0  0  0  0  0  0
    4.2516    3.8034   -2.3421 C   0  0  0  0  0  0  0  0  0  0  0  0
    5.3829    2.7061   -2.8433 N   0  0  0  0  0  0  0  0  0  0  0  0
    6.9186    3.1975   -2.6800 P   0  0  3  0  0  0  0  0  0  0  0  0
    6.0607    5.1902   -3.1549 S   0  0  0  0  0  0  0  0  0  0  0  0
    7.0642    2.2704   -1.2196 N   0  0  0  0  0  0  0  0  0  0  0  0
    6.6448    3.3094    0.8080 C   0  0  0  0  0  0  0  0  0  0  0  0
    5.6985    4.6965    1.1206 C   0  0  0  0  0  0  0  0  0  0  0  0
    4.1872    4.2783    1.8131 N   0  3  3  0  0  0  0  0  0  0  0  0
    4.6677    3.6701    3.2629 C   0  0  0  0  0  0  0  0  0  0  0  0
    3.4782    2.5349    2.2989 C   0  0  0  0  0  0  0  0  0  0  0  0
    2.1512    2.3351    2.0935 C   0  0  0  0  0  0  0  0  0  0  0  0
    1.5796    3.5229    1.7850 C   0  0  0  0  0  0  0  0  0  0  0  0
    0.3140    3.2986    1.9032 C   0  0  0  0  0  0  0  0  0  0  0  0
   -0.2515    2.0964    2.2625 C   0  0  0  0  0  0  0  0  0  0  0  0
    0.4176    0.8999    2.2035 C   0  0  0  0  0  0  0  0  0  0  0  0
    1.6988    0.9668    2.0728 C   0  0  0  0  0  0  0  0  0  0  0  0
    2.3112   -0.2817    1.8781 O   0  0  0  0  0  0  0  0  0  0  0  0
    1.1570   -1.1292    1.8139 C   0  0  0  0  0  0  0  0  0  0  0  0
    0.0424   -0.3761    2.2909 O   0  0  0  0  0  0  0  0  0  0  0  0
    2.0503    4.9304    1.4852 C   0  0  1  0  0  0  0  0  0  0  0  0
    1.4820    5.2447    0.5767 H   0  0  0  0  0  0  0  0  0  0  0  0
    2.7615    5.6083    2.7435 C   0  0  1  0  0  0  0  0  0  0  0  0
    3.8860    6.6110    2.5400 O   0  0  0  0  0  0  0  0  0  0  0  0
    1.5340    5.8498    3.4455 C   0  0  0  0  0  0  0  0  0  0  0  0
    0.7666    6.4852    2.3746 C   0  0  0  0  0  0  0  0  0  0  0  0
   -0.6572    6.0396    2.0628 C   0  0  0  0  0  0  0  0  0  0  0  0
   -1.6461    6.6451    1.2743 C   0  0  0  0  0  0  0  0  0  0  0  0
   -1.4990    7.8246    1.7517 C   0  0  0  0  0  0  0  0  0  0  0  0
   -2.4970    6.7993    2.9291 O   0  0  0  0  0  0  0  0  0  0  0  0
   -3.3418    5.6808    2.1330 C   0  0  0  0  0  0  0  0  0  0  0  0
   -2.9637    6.4070    1.0242 O   0  0  0  0  0  0  0  0  0  0  0  0
    0.1921    7.9659    1.2082 C   0  0  0  0  0  0  0  0  0  0  0  0
    1.5519    7.1020    1.4379 C   0  0  0  0  0  0  0  0  0  0  0  0
    3.0277    5.8086    0.9453 C   0  0  1  0  0  0  0  0  0  0  0  0
    3.4463    5.9346   -0.1951 H   0  0  0  0  0  0  0  0  0  0  0  0
    8.4975    3.1412   -2.1789 N   0  0  0  0  0  0  0  0  0  0  0  0
    9.3852    3.9932   -2.7744 C   0  0  0  0  0  0  0  0  0  0  0  0
    8.9638    5.3471   -2.4926 C   0  0  0  0  0  0  0  0  0  0  0  0
    9.0682    6.0194   -0.8066 N   0  3  3  0  0  0  0  0  0  0  0  0
    9.5957    7.1692   -1.5126 C   0  0  0  0  0  0  0  0  0  0  0  0
    7.7071    5.6316   -0.6547 C   0  0  0  0  0  0  0  0  0  0  0  0
    8.0997    4.5689    0.1838 C   0  0  0  0  0  0  0  0  0  0  0  0
    8.6687    4.6801    1.4454 C   0  0  0  0  0  0  0  0  0  0  0  0
    8.7722    3.7734    2.7419 C   0  0  0  0  0  0  0  0  0  0  0  0
    8.2802    2.5429    2.9835 C   0  0  0  0  0  0  0  0  0  0  0  0
    8.0250    2.0688    1.7513 C   0  0  0  0  0  0  0  0  0  0  0  0
    8.0035    3.0061    0.0275 C   0  0  0  0  0  0  0  0  0  0  0  0
    5.8764    2.5742   -0.3015 O   0  0  0  0  0  0  0  0  0  0  0  0
    5.2279    0.8578    0.6901 C   0  0  0  0  0  0  0  0  0  0  0  0
    6.4824    0.9035    2.2024 O   0  0  0  0  0  0  0  0  0  0  0  0
    9.8696    5.2650    1.1549 C   0  0  1  0  0  0  0  0  0  0  0  0
    9.3937    6.0653    1.7911 H   0  0  0  0  0  0  0  0  0  0  0  0
   11.1460    5.0306    0.4319 C   0  0  1  0  0  0  0  0  0  0  0  0
   11.8162    6.3235    0.3395 O   0  0  0  0  0  0  0  0  0  0  0  0
   11.8278    4.0995    1.3390 C   0  0  0  0  0  0  0  0  0  0  0  0
   11.7951    4.9278    2.5655 C   0  0  0  0  0  0  0  0  0  0  0  0
   13.0813    5.4725    3.0676 C   0  0  0  0  0  0  0  0  0  0  0  0
   13.2729    6.3090    4.2472 C   0  0  0  0  0  0  0  0  0  0  0  0
   12.0795    6.8411    4.4298 C   0  0  0  0  0  0  0  0  0  0  0  0
   12.7265    7.7763    3.0384 O   0  0  0  0  0  0  0  0  0  0  0  0
   14.2817    7.9459    3.3100 C   0  0  0  0  0  0  0  0  0  0  0  0
   14.0523    7.4964    4.5832 O   0  0  0  0  0  0  0  0  0  0  0  0
   10.8981    5.9503    4.2478 C   0  0  0  0  0  0  0  0  0  0  0  0
   10.6313    5.7077    2.7901 C   0  0  0  0  0  0  0  0  0  0  0  0
    9.8802    6.5980    1.0309 C   0  0  1  0  0  0  0  0  0  0  0  0
    8.9392    7.3557    0.8346 H   0  0  0  0  0  0  0  0  0  0  0  0
    2.8748    1.0839   -3.0332 C   0  0  0  0  0  0  0  0  0  0  0  0
    3.0082   -0.2845   -2.7217 C   0  0  0  0  0  0  0  0  0  0  0  0
    2.6830   -0.6403   -1.4582 C   0  0  0  0  0  0  0  0  0  0  0  0
    2.6160   -2.0539   -1.2644 C   0  0  0  0  0  0  0  0  0  0  0  0
    3.0679   -2.8999   -2.3597 C   0  0  0  0  0  0  0  0  0  0  0  0
    3.5920   -2.3358   -3.5340 C   0  0  0  0  0  0  0  0  0  0  0  0
    3.6011   -1.0158   -3.6667 C   0  0  0  0  0  0  0  0  0  0  0  0
    4.1441   -0.4910   -4.7913 O   0  0  0  0  0  0  0  0  0  0  0  0
    4.7250   -1.6861   -5.3315 C   0  0  0  0  0  0  0  0  0  0  0  0
    4.1098   -2.8546   -4.6856 O   0  0  0  0  0  0  0  0  0  0  0  0
    3.3570    2.6826   -2.6007 H   0  0  0  0  0  0  0  0  0  0  0  0
    1.9696    5.3144   -1.2396 H   0  0  0  0  0  0  0  0  0  0  0  0
    2.9303    3.8115    0.4841 H   0  0  0  0  0  0  0  0  0  0  0  0
    4.3816    4.6308   -0.2136 H   0  0  0  0  0  0  0  0  0  0  0  0
    5.9743    3.4842    2.1507 H   0  0  0  0  0  0  0  0  0  0  0  0
    9.4850    2.7235    0.8641 H   0  0  0  0  0  0  0  0  0  0  0  0
   10.4606    2.1058    0.0778 H   0  0  0  0  0  0  0  0  0  0  0  0
    4.6990   -0.8584    0.1872 H   0  0  0  0  0  0  0  0  0  0  0  0
    0.2046    2.3902   -1.2110 H   0  0  0  0  0  0  0  0  0  0  0  0
    0.4576    2.1942   -3.0470 H   0  0  0  0  0  0  0  0  0  0  0  0
    0.3937    0.7283   -1.9363 H   0  0  0  0  0  0  0  0  0  0  0  0
    2.0144    3.8533   -3.3940 H   0  0  0  0  0  0  0  0  0  0  0  0
    1.4475    3.7982   -1.2725 H   0  0  0  0  0  0  0  0  0  0  0  0
    4.5584    4.6646   -1.7465 H   0  0  0  0  0  0  0  0  0  0  0  0
    4.7210    3.2123   -1.5283 H   0  0  0  0  0  0  0  0  0  0  0  0
    5.2912    1.8375   -2.3566 H   0  0  0  0  0  0  0  0  0  0  0  0
    6.1232    1.7111   -1.1405 H   0  0  0  0  0  0  0  0  0  0  0  0
    6.6670    2.4730    2.1670 H   0  0  0  0  0  0  0  0  0  0  0  0
    7.3484    3.6382    1.4292 H   0  0  0  0  0  0  0  0  0  0  0  0
    6.1885    5.1400    1.9742 H   0  0  0  0  0  0  0  0  0  0  0  0
    5.8613    4.9634    0.1312 H   0  0  0  0  0  0  0  0  0  0  0  0
    4.2240    2.8088    3.7763 H   0  0  0  0  0  0  0  0  0  0  0  0
    5.5859    3.0497    3.3416 H   0  0  0  0  0  0  0  0  0  0  0  0
    4.9686    4.5457    3.6241 H   0  0  0  0  0  0  0  0  0  0  0  0
    4.3374    1.6956    2.5952 H   0  0  0  0  0  0  0  0  0  0  0  0
    3.5488    1.4635    2.0947 H   0  0  0  0  0  0  0  0  0  0  0  0
   -0.1348    4.2072    1.8761 H   0  0  0  0  0  0  0  0  0  0  0  0
   -1.2493    2.1930    2.5839 H   0  0  0  0  0  0  0  0  0  0  0  0
    1.3558   -1.9142    1.0467 H   0  0  0  0  0  0  0  0  0  0  0  0
    0.8167   -2.1021    2.2013 H   0  0  0  0  0  0  0  0  0  0  0  0
    3.2251    4.9518    3.4105 H   0  0  0  0  0  0  0  0  0  0  0  0
    4.5341    6.4806    3.2387 H   0  0  0  0  0  0  0  0  0  0  0  0
    1.6997    6.4710    4.2758 H   0  0  0  0  0  0  0  0  0  0  0  0
    1.1940    4.8415    3.6751 H   0  0  0  0  0  0  0  0  0  0  0  0
   -1.0819    5.2094    2.6125 H   0  0  0  0  0  0  0  0  0  0  0  0
   -4.3547    5.4677    1.6345 H   0  0  0  0  0  0  0  0  0  0  0  0
   -3.0071    4.5808    2.1763 H   0  0  0  0  0  0  0  0  0  0  0  0
    0.3576    9.0150    0.6676 H   0  0  0  0  0  0  0  0  0  0  0  0
    9.0027    3.4321   -1.3142 H   0  0  0  0  0  0  0  0  0  0  0  0
   10.3310    3.9640   -2.2878 H   0  0  0  0  0  0  0  0  0  0  0  0
    9.1969    3.5398   -3.7080 H   0  0  0  0  0  0  0  0  0  0  0  0
    9.1604    5.9940   -3.3214 H   0  0  0  0  0  0  0  0  0  0  0  0
    7.9792    5.3942   -2.8344 H   0  0  0  0  0  0  0  0  0  0  0  0
    9.5690    8.0535   -0.9380 H   0  0  0  0  0  0  0  0  0  0  0  0
   10.5466    6.6997   -1.6187 H   0  0  0  0  0  0  0  0  0  0  0  0
    9.3929    7.4156   -2.5546 H   0  0  0  0  0  0  0  0  0  0  0  0
    7.0812    4.8134   -1.0884 H   0  0  0  0  0  0  0  0  0  0  0  0
    7.0888    6.4471   -0.9757 H   0  0  0  0  0  0  0  0  0  0  0  0
    9.7444    3.7214    3.1729 H   0  0  0  0  0  0  0  0  0  0  0  0
    8.2428    1.7335    3.6331 H   0  0  0  0  0  0  0  0  0  0  0  0
    4.1072    0.4193    0.8421 H   0  0  0  0  0  0  0  0  0  0  0  0
    3.9610    1.2011    0.8225 H   0  0  0  0  0  0  0  0  0  0  0  0
   11.1199    4.6279   -0.5570 H   0  0  0  0  0  0  0  0  0  0  0  0
   11.6542    6.6551   -0.5416 H   0  0  0  0  0  0  0  0  0  0  0  0
   11.4408    3.0847    1.4266 H   0  0  0  0  0  0  0  0  0  0  0  0
   12.7875    3.8795    0.9595 H   0  0  0  0  0  0  0  0  0  0  0  0
   13.7089    5.7300    2.2018 H   0  0  0  0  0  0  0  0  0  0  0  0
   15.2272    7.2965    3.2647 H   0  0  0  0  0  0  0  0  0  0  0  0
   14.7698    8.9450    3.0589 H   0  0  0  0  0  0  0  0  0  0  0  0
   10.8638    5.0094    5.3160 H   0  0  0  0  0  0  0  0  0  0  0  0
    2.6032    1.4853   -3.9326 H   0  0  0  0  0  0  0  0  0  0  0  0
    3.9385    1.2630   -2.8866 H   0  0  0  0  0  0  0  0  0  0  0  0
    2.2331   -2.6354   -0.4083 H   0  0  0  0  0  0  0  0  0  0  0  0
    3.0248   -3.9878   -2.2836 H   0  0  0  0  0  0  0  0  0  0  0  0
    5.8191   -1.6775   -5.1613 H   0  0  0  0  0  0  0  0  0  0  0  0
    4.6400   -1.6995   -6.4335 H   0  0  0  0  0  0  0  0  0  0  0  0
  2  1  1  1  0  0  0
  2  3  1  0  0  0  0
  2 15  1  0  0  0  0
  2 88  1  0  0  0  0
  3  4  1  0  0  0  0
  3  5  1  0  0  0  0
  3 96  1  6  0  0  0
  4 97  1  0  0  0  0
  5  6  1  0  0  0  0
  5 98  1  0  0  0  0
  5 99  1  0  0  0  0
  6  7  2  0  0  0  0
  6 14  1  0  0  0  0
  7  8  1  0  0  0  0
  7100  1  0  0  0  0
  8  9  2  0  0  0  0
  8 12  1  0  0  0  0
  9 10  1  0  0  0  0
  9 13  1  0  0  0  0
 10 11  1  0  0  0  0
 11 12  1  0  0  0  0
 11101  1  0  0  0  0
 11102  1  0  0  0  0
 13 14  2  0  0  0  0
 13103  1  0  0  0  0
 15 14  1  0  0  0  0
 15 16  1  1  0  0  0
 15 17  1  0  0  0  0
 17 18  1  0  0  0  0
 17 19  1  0  0  0  0
 17 86  1  0  0  0  0
 18104  1  0  0  0  0
 18105  1  0  0  0  0
 18106  1  0  0  0  0
 19 20  1  0  0  0  0
 19107  1  0  0  0  0
 19108  1  0  0  0  0
 20 21  1  0  0  0  0
 20109  1  0  0  0  0
 20110  1  0  0  0  0
 21 22  1  0  0  0  0
 21111  1  0  0  0  0
 22 23  2  0  0  0  0
 22 24  1  0  0  0  0
 22 55  1  0  0  0  0
 24 25  1  0  0  0  0
 24112  1  0  0  0  0
 25 26  1  0  0  0  0
 25113  1  0  0  0  0
 25114  1  0  0  0  0
 26115  1  0  0  0  0
 26116  1  0  0  0  0
 26 27  1  0  0  0  0
 27 29  1  0  0  0  0
 27 28  1  0  0  0  0
 28117  1  0  0  0  0
 28118  1  0  0  0  0
 28119  1  0  0  0  0
 29 30  1  0  0  0  0
 29120  1  0  0  0  0
 29121  1  0  0  0  0
 30 31  2  0  0  0  0
 30 35  1  0  0  0  0
 31 32  1  0  0  0  0
 32 33  2  0  0  0  0
 32122  1  0  0  0  0
 33 34  1  0  0  0  0
 33123  1  0  0  0  0
 34 35  2  0  0  0  0
 34 38  1  0  0  0  0
 35 36  1  0  0  0  0
 36 37  1  0  0  0  0
 37 38  1  0  0  0  0
 37124  1  0  0  0  0
 37125  1  0  0  0  0
 39 31  1  0  0  0  0
 39 41  1  0  0  0  0
 39 53  1  0  0  0  0
 39 40  1  6  0  0  0
 41 43  1  0  0  0  0
 41 42  1  0  0  0  0
 41126  1  1  0  0  0
 42127  1  0  0  0  0
 43 44  1  0  0  0  0
 43128  1  0  0  0  0
 43129  1  0  0  0  0
 44 45  2  0  0  0  0
 44 52  1  0  0  0  0
 45 46  1  0  0  0  0
 45130  1  0  0  0  0
 46 47  2  0  0  0  0
 46 50  1  0  0  0  0
 47 48  1  0  0  0  0
 47 51  1  0  0  0  0
 48 49  1  0  0  0  0
 49 50  1  0  0  0  0
 49131  1  0  0  0  0
 49132  1  0  0  0  0
 51 52  2  0  0  0  0
 51133  1  0  0  0  0
 53 52  1  0  0  0  0
 53 27  1  0  0  0  0
 53 54  1  6  0  0  0
 55 56  1  0  0  0  0
 55134  1  0  0  0  0
 56 57  1  0  0  0  0
 56135  1  0  0  0  0
 56136  1  0  0  0  0
 57137  1  0  0  0  0
 57138  1  0  0  0  0
 57 58  1  0  0  0  0
 58 60  1  0  0  0  0
 58 59  1  0  0  0  0
 59139  1  0  0  0  0
 59140  1  0  0  0  0
 59141  1  0  0  0  0
 60 61  1  0  0  0  0
 60142  1  0  0  0  0
 60143  1  0  0  0  0
 61 62  2  0  0  0  0
 61 66  1  0  0  0  0
 62 63  1  0  0  0  0
 63 64  2  0  0  0  0
 63144  1  0  0  0  0
 64 65  1  0  0  0  0
 64145  1  0  0  0  0
 65 66  2  0  0  0  0
 65 69  1  0  0  0  0
 66 67  1  0  0  0  0
 67 68  1  0  0  0  0
 68 69  1  0  0  0  0
 68146  1  0  0  0  0
 68147  1  0  0  0  0
 70 62  1  0  0  0  0
 70 72  1  0  0  0  0
 70 84  1  0  0  0  0
 70 71  1  1  0  0  0
 72 74  1  0  0  0  0
 72148  1  6  0  0  0
 72 73  1  0  0  0  0
 73149  1  0  0  0  0
 74 75  1  0  0  0  0
 74150  1  0  0  0  0
 74151  1  0  0  0  0
 75 76  2  0  0  0  0
 75 83  1  0  0  0  0
 76 77  1  0  0  0  0
 76152  1  0  0  0  0
 77 78  2  0  0  0  0
 77 81  1  0  0  0  0
 78 79  1  0  0  0  0
 78 82  1  0  0  0  0
 79 80  1  0  0  0  0
 80 81  1  0  0  0  0
 80153  1  0  0  0  0
 80154  1  0  0  0  0
 82 83  2  0  0  0  0
 82155  1  0  0  0  0
 84 83  1  0  0  0  0
 84 58  1  0  0  0  0
 84 85  1  1  0  0  0
 86 87  1  0  0  0  0
 86156  1  0  0  0  0
 86157  1  0  0  0  0
 87 88  2  0  0  0  0
 87 92  1  0  0  0  0
 88 89  1  0  0  0  0
 89 90  2  0  0  0  0
 89158  1  0  0  0  0
 90 91  1  0  0  0  0
 90159  1  0  0  0  0
 91 92  2  0  0  0  0
 91 95  1  0  0  0  0
 92 93  1  0  0  0  0
 93 94  1  0  0  0  0
 94 95  1  0  0  0  0
 94160  1  0  0  0  0
 94161  1  0  0  0  0
M  CHG  3  17   1  27   1  58   1
M  END
>  <DRUGBANK_ID>
DB17150

>  <COMMON_NAME>
Ukrain cation

>  <CAS_NUMBER>
732958-87-1

>  <UNII>
53F09PQ5P5

>  <SYNONYMS>
(1,3)benzodioxolo(5,6-c)-1,3-dioxolo(4,5-i)phenanthridinium, 13,13',13''-(phosphinothioylidynetris(imino-2,1-ethanediyl))tris(5b,6,7,12b,13,14-hexahydro-6-hydroxy-13-methyl-, (5br,5'br,5''br,6s,6's,6''s,12bs,12'bs,12''bs)-; Chelidoninium, 5,5',5''-(phosphinothioylidynetris(imino-2,1-ethanediyl))tris(5-methyl-

$$$$
