
 OpenBabel10282417213D

 62 67  0  0  0  0  0  0  0  0999 V2000
    0.0588   -0.1180   -0.6626 C   0  0  0  0  0  0  0  0  0  0  0  0
   -0.5134   -0.3731   -1.9838 C   0  0  0  0  0  0  0  0  0  0  0  0
   -0.2760   -1.7412   -2.7987 C   0  0  0  0  0  0  0  0  0  0  0  0
   -1.8934   -0.1213   -1.4080 C   0  0  0  0  0  0  0  0  0  0  0  0
   -1.9939    1.2352   -0.4291 C   0  0  0  0  0  0  0  0  0  0  0  0
   -2.4642    2.2406   -0.9969 O   0  0  0  0  0  0  0  0  0  0  0  0
   -1.5139    1.4322    0.9523 N   0  0  0  0  0  0  0  0  0  0  0  0
   -0.4485    0.8813    1.9664 C   0  0  0  0  0  0  0  0  0  0  0  0
    1.0219    0.7556    1.8907 C   0  0  0  0  0  0  0  0  0  0  0  0
    1.9999   -0.1178    2.7608 C   0  0  0  0  0  0  0  0  0  0  0  0
    1.2737   -0.5548    3.8432 C   0  0  0  0  0  0  0  0  0  0  0  0
   -0.0530   -0.2114    4.1219 N   0  0  0  0  0  0  0  0  0  0  0  0
   -0.8528    0.4737    3.2122 C   0  0  0  0  0  0  0  0  0  0  0  0
    3.5680   -0.8947    2.4058 C   0  0  0  0  0  0  0  0  0  0  0  0
    3.7179   -2.3324    2.3995 C   0  0  0  0  0  0  0  0  0  0  0  0
    4.6280   -3.1379    1.5478 C   0  0  0  0  0  0  0  0  0  0  0  0
    5.5300   -2.4587    0.7478 C   0  0  0  0  0  0  0  0  0  0  0  0
    6.2522   -3.4169    0.0736 N   0  0  0  0  0  0  0  0  0  0  0  0
    5.7801   -4.6716    0.2157 N   0  0  0  0  0  0  0  0  0  0  0  0
    4.6975   -4.4999    0.9923 C   0  0  0  0  0  0  0  0  0  0  0  0
    3.4331   -5.3419    0.7087 C   0  0  0  0  0  0  0  0  0  0  0  0
    2.5776   -4.7248   -0.1049 N   0  0  0  0  0  0  0  0  0  0  0  0
    1.8092   -4.0479    0.8016 C   0  0  0  0  0  0  0  0  0  0  0  0
    1.4465   -2.6755    0.8109 C   0  0  0  0  0  0  0  0  0  0  0  0
    0.4976   -2.5660    1.8752 C   0  0  0  0  0  0  0  0  0  0  0  0
    0.3103   -3.3921    2.9913 N   0  0  0  0  0  0  0  0  0  0  0  0
    1.0304   -4.5155    3.0958 C   0  0  0  0  0  0  0  0  0  0  0  0
    1.7038   -4.8703    1.9482 C   0  0  0  0  0  0  0  0  0  0  0  0
    2.6162   -5.8628    1.6944 N   0  0  0  0  0  0  0  0  0  0  0  0
    2.2595   -1.5868   -0.1805 C   0  0  0  0  0  0  0  0  0  0  0  0
    2.1888   -1.7692   -1.5310 C   0  0  0  0  0  0  0  0  0  0  0  0
    2.3301   -0.6348   -2.5482 C   0  0  0  0  0  0  0  0  0  0  0  0
    2.6746    0.6836   -2.2954 C   0  0  0  0  0  0  0  0  0  0  0  0
    3.0462    0.8633   -0.9905 C   0  0  0  0  0  0  0  0  0  0  0  0
    3.1067    2.1086   -0.5028 F   0  0  0  0  0  0  0  0  0  0  0  0
    2.8073   -0.2463   -0.0821 C   0  0  0  0  0  0  0  0  0  0  0  0
    5.5490   -1.0628    0.7368 C   0  0  0  0  0  0  0  0  0  0  0  0
    4.6629   -0.3270    1.6467 C   0  0  0  0  0  0  0  0  0  0  0  0
   -0.2251   -0.7939    0.1411 H   0  0  0  0  0  0  0  0  0  0  0  0
   -0.0157    0.9400   -0.4216 H   0  0  0  0  0  0  0  0  0  0  0  0
    1.0421    0.0952   -0.7181 H   0  0  0  0  0  0  0  0  0  0  0  0
   -0.1632    0.4780   -2.5862 H   0  0  0  0  0  0  0  0  0  0  0  0
   -0.6853   -2.6152   -2.2930 H   0  0  0  0  0  0  0  0  0  0  0  0
   -0.5381   -1.6351   -3.8538 H   0  0  0  0  0  0  0  0  0  0  0  0
    0.7153   -2.1460   -3.0670 H   0  0  0  0  0  0  0  0  0  0  0  0
   -2.4929   -0.0092   -2.3134 H   0  0  0  0  0  0  0  0  0  0  0  0
   -2.2116   -1.0031   -0.8427 H   0  0  0  0  0  0  0  0  0  0  0  0
   -1.7249    2.4053    1.1755 H   0  0  0  0  0  0  0  0  0  0  0  0
    1.4083    1.3846    1.0907 H   0  0  0  0  0  0  0  0  0  0  0  0
    1.6806   -1.3284    4.4882 H   0  0  0  0  0  0  0  0  0  0  0  0
   -1.8761    0.6366    3.5392 H   0  0  0  0  0  0  0  0  0  0  0  0
    2.9715   -2.9180    2.9054 H   0  0  0  0  0  0  0  0  0  0  0  0
    7.0883   -3.2830   -0.4875 H   0  0  0  0  0  0  0  0  0  0  0  0
   -0.1803   -1.7321    1.9860 H   0  0  0  0  0  0  0  0  0  0  0  0
    1.1654   -4.9849    4.0700 H   0  0  0  0  0  0  0  0  0  0  0  0
    2.6126   -6.8026    2.0685 H   0  0  0  0  0  0  0  0  0  0  0  0
    1.5843   -2.6619   -1.6674 H   0  0  0  0  0  0  0  0  0  0  0  0
    1.7462   -0.6566   -3.4786 H   0  0  0  0  0  0  0  0  0  0  0  0
    2.3491    1.5341   -2.8885 H   0  0  0  0  0  0  0  0  0  0  0  0
    2.8313    0.3059    0.8281 H   0  0  0  0  0  0  0  0  0  0  0  0
    6.0767   -0.5403   -0.0683 H   0  0  0  0  0  0  0  0  0  0  0  0
    4.6704    0.7468    1.4388 H   0  0  0  0  0  0  0  0  0  0  0  0
  1  2  1  0  0  0  0
  1 39  1  0  0  0  0
  1 40  1  0  0  0  0
  1 41  1  0  0  0  0
  2  3  1  0  0  0  0
  2  4  1  0  0  0  0
  2 42  1  0  0  0  0
  3 43  1  0  0  0  0
  3 44  1  0  0  0  0
  3 45  1  0  0  0  0
  4  5  1  0  0  0  0
  4 46  1  0  0  0  0
  4 47  1  0  0  0  0
  5  6  2  0  0  0  0
  5  7  1  0  0  0  0
  7  8  1  0  0  0  0
  7 48  1  0  0  0  0
  8  9  2  0  0  0  0
  8 13  1  0  0  0  0
  9 10  1  0  0  0  0
  9 49  1  0  0  0  0
 10 11  2  0  0  0  0
 10 14  1  0  0  0  0
 11 12  1  0  0  0  0
 11 50  1  0  0  0  0
 12 13  2  0  0  0  0
 13 51  1  0  0  0  0
 14 15  2  0  0  0  0
 14 38  1  0  0  0  0
 15 16  1  0  0  0  0
 15 52  1  0  0  0  0
 16 17  2  0  0  0  0
 16 20  1  0  0  0  0
 17 18  1  0  0  0  0
 17 37  1  0  0  0  0
 18 19  1  0  0  0  0
 18 53  1  0  0  0  0
 19 20  2  0  0  0  0
 20 21  1  0  0  0  0
 21 22  2  0  0  0  0
 21 29  1  0  0  0  0
 22 23  1  0  0  0  0
 23 24  2  0  0  0  0
 23 28  1  0  0  0  0
 24 25  1  0  0  0  0
 24 30  1  0  0  0  0
 25 26  2  0  0  0  0
 25 54  1  0  0  0  0
 26 27  1  0  0  0  0
 27 28  2  0  0  0  0
 27 55  1  0  0  0  0
 28 29  1  0  0  0  0
 29 56  1  0  0  0  0
 30 31  2  0  0  0  0
 30 36  1  0  0  0  0
 31 32  1  0  0  0  0
 31 57  1  0  0  0  0
 32 33  2  0  0  0  0
 32 58  1  0  0  0  0
 33 34  1  0  0  0  0
 33 59  1  0  0  0  0
 34 35  1  0  0  0  0
 34 36  2  0  0  0  0
 36 60  1  0  0  0  0
 37 38  2  0  0  0  0
 37 61  1  0  0  0  0
 38 62  1  0  0  0  0
M  END
>  <DRUGBANK_ID>
DB14883

>  <COMMON_NAME>
Lorecivivint

>  <CAS_NUMBER>
1467093-03-3

>  <UNII>
42EK42WHI5

>  <SYNONYMS>
Lorecivivint

$$$$
