
 OpenBabel10282417193D

 65 66  0  0  1  0  0  0  0  0999 V2000
    0.9884    0.0703   -0.0790 C   0  0  0  0  0  0  0  0  0  0  0  0
    0.5488    1.1696   -1.0429 C   0  0  0  0  0  0  0  0  0  0  0  0
    1.0474    0.8661   -2.4495 C   0  0  0  0  0  0  0  0  0  0  0  0
   -0.9417    1.4506   -1.0654 C   0  0  0  0  0  0  0  0  0  0  0  0
   -1.4493    2.4574   -0.5987 O   0  0  0  0  0  0  0  0  0  0  0  0
   -1.6176    0.4715   -1.7000 O   0  0  0  0  0  0  0  0  0  0  0  0
   -3.0620    0.4383   -1.6114 C   0  0  0  0  0  0  0  0  0  0  0  0
   -3.6590    0.3184   -0.1353 C   0  0  2  0  0  0  0  0  0  0  0  0
   -4.9904   -0.4006    0.1732 C   0  0  2  0  0  0  0  0  0  0  0  0
   -5.6875    0.6274    1.1292 C   0  0  2  0  0  0  0  0  0  0  0  0
   -5.2839    1.8992    0.4100 C   0  0  1  0  0  0  0  0  0  0  0  0
   -4.0657    1.6686   -0.2299 O   0  0  0  0  0  0  0  0  0  0  0  0
   -6.1395    2.6375   -0.4442 N   0  0  0  0  0  0  0  0  0  0  0  0
   -5.6347    3.1043   -1.6307 C   0  0  0  0  0  0  0  0  0  0  0  0
   -6.4802    3.4874   -2.5669 C   0  0  0  0  0  0  0  0  0  0  0  0
   -7.7634    3.9506   -2.0236 C   0  0  0  0  0  0  0  0  0  0  0  0
   -8.1655    3.7645   -0.8075 N   0  0  0  0  0  0  0  0  0  0  0  0
   -7.4050    2.9835    0.0136 C   0  0  0  0  0  0  0  0  0  0  0  0
   -7.8298    2.5872    1.0945 O   0  0  0  0  0  0  0  0  0  0  0  0
   -8.5676    4.6565   -2.8469 N   0  0  0  0  0  0  0  0  0  0  0  0
   -5.2189    0.5474    2.5376 O   0  0  0  0  0  0  0  0  0  0  0  0
   -4.6283    1.3732    3.4532 C   0  0  0  0  0  0  0  0  0  0  0  0
   -4.5405    1.0004    4.6233 O   0  0  0  0  0  0  0  0  0  0  0  0
   -4.0078    2.7234    3.0803 C   0  0  0  0  0  0  0  0  0  0  0  0
   -2.8855    2.5889    2.0581 C   0  0  0  0  0  0  0  0  0  0  0  0
   -5.1634    3.6893    2.7781 C   0  0  0  0  0  0  0  0  0  0  0  0
   -4.8966   -1.7533    0.6766 O   0  0  0  0  0  0  0  0  0  0  0  0
   -4.2883   -2.8337    0.1102 C   0  0  0  0  0  0  0  0  0  0  0  0
   -4.2638   -3.9015    0.7193 O   0  0  0  0  0  0  0  0  0  0  0  0
   -3.5830   -2.7538   -1.2385 C   0  0  0  0  0  0  0  0  0  0  0  0
   -4.5170   -2.2193   -2.3465 C   0  0  0  0  0  0  0  0  0  0  0  0
   -2.1789   -2.1869   -1.0731 C   0  0  0  0  0  0  0  0  0  0  0  0
   -2.5609   -0.0391    0.8580 N   0  0  0  0  0  0  0  0  0  0  0  0
   -2.6941   -0.4753    2.0479 N   0  3  0  0  0  0  0  0  0  0  0  0
   -2.6834   -0.7972    3.1214 N   0  5  0  0  0  0  0  0  0  0  0  0
    0.6402   -0.9209   -0.3895 H   0  0  0  0  0  0  0  0  0  0  0  0
    0.6315    0.2503    0.9394 H   0  0  0  0  0  0  0  0  0  0  0  0
    2.0853    0.0307   -0.0438 H   0  0  0  0  0  0  0  0  0  0  0  0
    1.0058    2.1077   -0.7091 H   0  0  0  0  0  0  0  0  0  0  0  0
    0.6925   -0.1107   -2.7996 H   0  0  0  0  0  0  0  0  0  0  0  0
    0.6921    1.6224   -3.1558 H   0  0  0  0  0  0  0  0  0  0  0  0
    2.1408    0.8542   -2.4704 H   0  0  0  0  0  0  0  0  0  0  0  0
   -3.4672    1.2509   -2.2267 H   0  0  0  0  0  0  0  0  0  0  0  0
   -3.3302   -0.3932   -2.2208 H   0  0  0  0  0  0  0  0  0  0  0  0
   -5.6860   -0.4053   -0.6690 H   0  0  0  0  0  0  0  0  0  0  0  0
   -6.7674    0.4443    1.1731 H   0  0  0  0  0  0  0  0  0  0  0  0
   -4.9482    2.6570    1.0329 H   0  0  0  0  0  0  0  0  0  0  0  0
   -4.5720    3.0118   -1.8381 H   0  0  0  0  0  0  0  0  0  0  0  0
   -6.2027    3.5804   -3.6005 H   0  0  0  0  0  0  0  0  0  0  0  0
   -8.2532    4.9428   -3.7610 H   0  0  0  0  0  0  0  0  0  0  0  0
   -9.3426    5.1401   -2.4140 H   0  0  0  0  0  0  0  0  0  0  0  0
   -3.4779    3.1314    3.9399 H   0  0  0  0  0  0  0  0  0  0  0  0
   -3.2207    1.7527    1.5298 H   0  0  0  0  0  0  0  0  0  0  0  0
   -2.7798    3.3757    1.3066 H   0  0  0  0  0  0  0  0  0  0  0  0
   -1.9148    2.1773    2.3578 H   0  0  0  0  0  0  0  0  0  0  0  0
   -5.6733    3.9988    3.6827 H   0  0  0  0  0  0  0  0  0  0  0  0
   -4.8513    4.5284    2.1465 H   0  0  0  0  0  0  0  0  0  0  0  0
   -6.0059    3.2089    2.2821 H   0  0  0  0  0  0  0  0  0  0  0  0
   -3.3482   -3.7682   -1.5628 H   0  0  0  0  0  0  0  0  0  0  0  0
   -5.0669   -1.3056   -2.1241 H   0  0  0  0  0  0  0  0  0  0  0  0
   -3.9839   -2.0075   -3.2797 H   0  0  0  0  0  0  0  0  0  0  0  0
   -5.3114   -2.9381   -2.5469 H   0  0  0  0  0  0  0  0  0  0  0  0
   -1.4975   -2.5627   -0.3028 H   0  0  0  0  0  0  0  0  0  0  0  0
   -1.6623   -1.9226   -1.9979 H   0  0  0  0  0  0  0  0  0  0  0  0
   -2.3491   -1.2821   -0.5938 H   0  0  0  0  0  0  0  0  0  0  0  0
  1  2  1  0  0  0  0
  1 36  1  0  0  0  0
  1 37  1  0  0  0  0
  1 38  1  0  0  0  0
  2  3  1  0  0  0  0
  2  4  1  0  0  0  0
  2 39  1  0  0  0  0
  3 40  1  0  0  0  0
  3 41  1  0  0  0  0
  3 42  1  0  0  0  0
  4  5  2  0  0  0  0
  4  6  1  0  0  0  0
  6  7  1  0  0  0  0
  7 43  1  0  0  0  0
  7 44  1  0  0  0  0
  8  7  1  0  0  0  0
  8  9  1  0  0  0  0
  8 12  1  0  0  0  0
  8 33  1  1  0  0  0
  9 10  1  0  0  0  0
  9 45  1  6  0  0  0
  9 27  1  0  0  0  0
 10 11  1  0  0  0  0
 10 46  1  6  0  0  0
 10 21  1  0  0  0  0
 11 12  1  0  0  0  0
 11 13  1  0  0  0  0
 11 47  1  1  0  0  0
 13 14  1  0  0  0  0
 13 18  1  0  0  0  0
 14 15  2  0  0  0  0
 14 48  1  0  0  0  0
 15 16  1  0  0  0  0
 15 49  1  0  0  0  0
 16 17  2  0  0  0  0
 16 20  1  0  0  0  0
 17 18  1  0  0  0  0
 18 19  2  0  0  0  0
 20 50  1  0  0  0  0
 20 51  1  0  0  0  0
 21 22  1  0  0  0  0
 22 23  2  0  0  0  0
 22 24  1  0  0  0  0
 24 25  1  0  0  0  0
 24 26  1  0  0  0  0
 24 52  1  0  0  0  0
 25 53  1  0  0  0  0
 25 54  1  0  0  0  0
 25 55  1  0  0  0  0
 26 56  1  0  0  0  0
 26 57  1  0  0  0  0
 26 58  1  0  0  0  0
 27 28  1  0  0  0  0
 28 29  2  0  0  0  0
 28 30  1  0  0  0  0
 30 31  1  0  0  0  0
 30 32  1  0  0  0  0
 30 59  1  0  0  0  0
 31 60  1  0  0  0  0
 31 61  1  0  0  0  0
 31 62  1  0  0  0  0
 32 63  1  0  0  0  0
 32 64  1  0  0  0  0
 32 65  1  0  0  0  0
 33 34  2  0  0  0  0
 34 35  2  0  0  0  0
M  CHG  2  34   1  35  -1
M  END
>  <DRUGBANK_ID>
DB12283

>  <COMMON_NAME>
Balapiravir

>  <CAS_NUMBER>
690270-29-2

>  <UNII>
VOT0LP7I9K

>  <SYNONYMS>
Balapiravir

$$$$
