SX7
 OpenBabel10282417173D

 50 53  0  0  0  0  0  0  0  0999 V2000
    1.0260    0.1265   -0.1214 O   0  0  0  0  0  0  0  0  0  0  0  0
    9.8202   -5.0384    1.9603 C   0  0  0  0  0  0  0  0  0  0  0  0
    9.4137   -4.3960    0.8109 C   0  0  0  0  0  0  0  0  0  0  0  0
   10.1453   -7.2988   -2.1189 C   0  0  0  0  0  0  0  0  0  0  0  0
   10.9031   -5.1705   -1.1034 N   0  0  0  0  0  0  0  0  0  0  0  0
   10.2627   -4.2017   -0.3796 C   0  0  0  0  0  0  0  0  0  0  0  0
   10.5512   -3.0049   -0.9927 C   0  0  0  0  0  0  0  0  0  0  0  0
   11.3966   -3.3515   -2.0621 C   0  0  0  0  0  0  0  0  0  0  0  0
   10.7979   -6.6077   -0.9343 C   0  0  0  0  0  0  0  0  0  0  0  0
    2.2607    0.1112   -0.0577 C   0  0  0  0  0  0  0  0  0  0  0  0
    2.9930    1.1852    0.4619 N   0  0  0  0  0  0  0  0  0  0  0  0
    4.4436    1.3167    0.4452 C   0  0  0  0  0  0  0  0  0  0  0  0
    2.2527    2.3317    0.9711 C   0  0  0  0  0  0  0  0  0  0  0  0
    2.9593   -1.1156   -0.5412 C   0  0  0  0  0  0  0  0  0  0  0  0
    2.5958   -1.7372   -1.7542 C   0  0  0  0  0  0  0  0  0  0  0  0
    1.7513   -1.1194   -2.6965 N   0  0  0  0  0  0  0  0  0  0  0  0
    3.3041   -2.8822   -2.1502 C   0  0  0  0  0  0  0  0  0  0  0  0
    4.3241   -3.4153   -1.3558 C   0  0  0  0  0  0  0  0  0  0  0  0
    3.9448   -1.6939    0.2749 C   0  0  0  0  0  0  0  0  0  0  0  0
    4.6698   -2.8157   -0.1402 C   0  0  0  0  0  0  0  0  0  0  0  0
    5.7687   -3.3324    0.6750 C   0  0  0  0  0  0  0  0  0  0  0  0
    5.5683   -3.7175    2.0048 C   0  0  0  0  0  0  0  0  0  0  0  0
    6.4883   -4.2646    2.8366 N   0  0  0  0  0  0  0  0  0  0  0  0
    7.0610   -3.4673    0.1478 C   0  0  0  0  0  0  0  0  0  0  0  0
    8.0550   -4.0273    0.9654 C   0  0  0  0  0  0  0  0  0  0  0  0
    7.6878   -4.4117    2.2494 C   0  0  0  0  0  0  0  0  0  0  0  0
    8.7691   -5.0053    2.8409 N   0  0  0  0  0  0  0  0  0  0  0  0
   11.6094   -4.6680   -2.1421 N   0  0  0  0  0  0  0  0  0  0  0  0
   10.7671   -5.4789    2.2416 H   0  0  0  0  0  0  0  0  0  0  0  0
   10.7333   -7.1625   -3.0316 H   0  0  0  0  0  0  0  0  0  0  0  0
   10.0577   -8.3726   -1.9267 H   0  0  0  0  0  0  0  0  0  0  0  0
    9.1410   -6.9009   -2.3010 H   0  0  0  0  0  0  0  0  0  0  0  0
   10.2425   -2.0170   -0.6821 H   0  0  0  0  0  0  0  0  0  0  0  0
   11.8698   -2.6972   -2.7832 H   0  0  0  0  0  0  0  0  0  0  0  0
   11.8083   -6.9871   -0.7550 H   0  0  0  0  0  0  0  0  0  0  0  0
   10.2015   -6.8164   -0.0425 H   0  0  0  0  0  0  0  0  0  0  0  0
    4.7172    2.2201   -0.1040 H   0  0  0  0  0  0  0  0  0  0  0  0
    4.7885    1.3878    1.4816 H   0  0  0  0  0  0  0  0  0  0  0  0
    4.9480    0.4862   -0.0430 H   0  0  0  0  0  0  0  0  0  0  0  0
    1.6238    2.7471    0.1775 H   0  0  0  0  0  0  0  0  0  0  0  0
    1.6141    2.0145    1.8013 H   0  0  0  0  0  0  0  0  0  0  0  0
    2.9393    3.1071    1.3264 H   0  0  0  0  0  0  0  0  0  0  0  0
    1.3273   -1.7478   -3.3711 H   0  0  0  0  0  0  0  0  0  0  0  0
    1.0649   -0.5003   -2.2570 H   0  0  0  0  0  0  0  0  0  0  0  0
    3.0748   -3.3705   -3.0948 H   0  0  0  0  0  0  0  0  0  0  0  0
    4.8498   -4.3066   -1.6964 H   0  0  0  0  0  0  0  0  0  0  0  0
    4.1907   -1.2280    1.2268 H   0  0  0  0  0  0  0  0  0  0  0  0
    4.5850   -3.6018    2.4588 H   0  0  0  0  0  0  0  0  0  0  0  0
    7.2894   -3.1821   -0.8753 H   0  0  0  0  0  0  0  0  0  0  0  0
    8.7579   -5.3754    3.7798 H   0  0  0  0  0  0  0  0  0  0  0  0
  1 10  2  0  0  0  0
  2  3  2  0  0  0  0
  2 27  1  0  0  0  0
  2 29  1  0  0  0  0
  3  6  1  0  0  0  0
  3 25  1  0  0  0  0
  4  9  1  0  0  0  0
  4 30  1  0  0  0  0
  4 31  1  0  0  0  0
  4 32  1  0  0  0  0
  5  6  1  0  0  0  0
  5  9  1  0  0  0  0
  5 28  1  0  0  0  0
  6  7  2  0  0  0  0
  7  8  1  0  0  0  0
  7 33  1  0  0  0  0
  8 28  2  0  0  0  0
  8 34  1  0  0  0  0
  9 35  1  0  0  0  0
  9 36  1  0  0  0  0
 10 11  1  0  0  0  0
 10 14  1  0  0  0  0
 11 12  1  0  0  0  0
 11 13  1  0  0  0  0
 12 37  1  0  0  0  0
 12 38  1  0  0  0  0
 12 39  1  0  0  0  0
 13 40  1  0  0  0  0
 13 41  1  0  0  0  0
 13 42  1  0  0  0  0
 14 15  2  0  0  0  0
 14 19  1  0  0  0  0
 15 16  1  0  0  0  0
 15 17  1  0  0  0  0
 16 43  1  0  0  0  0
 16 44  1  0  0  0  0
 17 18  2  0  0  0  0
 17 45  1  0  0  0  0
 18 20  1  0  0  0  0
 18 46  1  0  0  0  0
 19 20  2  0  0  0  0
 19 47  1  0  0  0  0
 20 21  1  0  0  0  0
 21 22  2  0  0  0  0
 21 24  1  0  0  0  0
 22 23  1  0  0  0  0
 22 48  1  0  0  0  0
 23 26  2  0  0  0  0
 24 25  2  0  0  0  0
 24 49  1  0  0  0  0
 25 26  1  0  0  0  0
 26 27  1  0  0  0  0
 27 50  1  0  0  0  0
M  END
>  <DRUGBANK_ID>
DB08583

>  <COMMON_NAME>
2-amino-5-[3-(1-ethyl-1H-pyrazol-5-yl)-1H-pyrrolo[2,3-b]pyridin-5-yl]-N,N-dimethylbenzamide

>  <UNII>
DH982UZX58

$$$$
