OST
 OpenBabel10282417173D

 40 41  0  0  0  0  0  0  0  0999 V2000
    0.9971   -0.0139   -0.1047 C   0  0  0  0  0  0  0  0  0  0  0  0
    0.5087   -1.3013   -0.5226 O   0  0  0  0  0  0  0  0  0  0  0  0
    0.8997   -1.6311   -1.7889 C   0  0  0  0  0  0  0  0  0  0  0  0
    1.6066   -0.9176   -2.4776 O   0  0  0  0  0  0  0  0  0  0  0  0
    0.3886   -2.9760   -2.2678 C   0  0  0  0  0  0  0  0  0  0  0  0
   -0.2797   -3.8185   -1.4376 C   0  0  0  0  0  0  0  0  0  0  0  0
   -0.7648   -5.1044   -1.5758 O   0  0  0  0  0  0  0  0  0  0  0  0
   -0.4622   -5.9347   -2.6941 C   0  0  0  0  0  0  0  0  0  0  0  0
    0.6884   -3.3395   -3.6828 C   0  0  0  0  0  0  0  0  0  0  0  0
    2.0420   -3.4288   -4.0695 C   0  0  0  0  0  0  0  0  0  0  0  0
   -0.3191   -3.7375   -4.5969 C   0  0  0  0  0  0  0  0  0  0  0  0
    0.0891   -4.4371   -5.7458 C   0  0  0  0  0  0  0  0  0  0  0  0
    1.4264   -4.5158   -6.1206 C   0  0  0  0  0  0  0  0  0  0  0  0
    2.4021   -3.9694   -5.3029 C   0  0  0  0  0  0  0  0  0  0  0  0
   -1.7665   -3.6260   -4.2650 C   0  0  0  0  0  0  0  0  0  0  0  0
   -2.7700   -4.2572   -4.9006 C   0  0  0  0  0  0  0  0  0  0  0  0
   -4.1652   -4.1689   -4.4656 C   0  0  0  0  0  0  0  0  0  0  0  0
   -4.6541   -2.9517   -3.9828 C   0  0  0  0  0  0  0  0  0  0  0  0
   -6.0101   -2.7784   -3.7416 C   0  0  0  0  0  0  0  0  0  0  0  0
   -5.0515   -5.2343   -4.6695 C   0  0  0  0  0  0  0  0  0  0  0  0
   -6.4212   -5.0428   -4.4744 C   0  0  0  0  0  0  0  0  0  0  0  0
   -6.8957   -3.8198   -3.9989 C   0  0  0  0  0  0  0  0  0  0  0  0
    0.6303    0.1936    0.9052 H   0  0  0  0  0  0  0  0  0  0  0  0
    0.6275    0.7769   -0.7681 H   0  0  0  0  0  0  0  0  0  0  0  0
    2.0932    0.0003   -0.0773 H   0  0  0  0  0  0  0  0  0  0  0  0
   -0.5627   -3.5153   -0.4306 H   0  0  0  0  0  0  0  0  0  0  0  0
   -1.0538   -5.6747   -3.5578 H   0  0  0  0  0  0  0  0  0  0  0  0
    0.6045   -5.9414   -2.9296 H   0  0  0  0  0  0  0  0  0  0  0  0
   -0.8082   -6.9568   -2.5301 H   0  0  0  0  0  0  0  0  0  0  0  0
    2.8340   -3.0966   -3.3996 H   0  0  0  0  0  0  0  0  0  0  0  0
   -0.6214   -5.0106   -6.3327 H   0  0  0  0  0  0  0  0  0  0  0  0
    1.6917   -5.0173   -7.0465 H   0  0  0  0  0  0  0  0  0  0  0  0
    3.4457   -4.0141   -5.5992 H   0  0  0  0  0  0  0  0  0  0  0  0
   -2.0005   -3.1052   -3.3384 H   0  0  0  0  0  0  0  0  0  0  0  0
   -2.6090   -4.8686   -5.7799 H   0  0  0  0  0  0  0  0  0  0  0  0
   -3.9814   -2.1131   -3.8259 H   0  0  0  0  0  0  0  0  0  0  0  0
   -6.3666   -1.8154   -3.3911 H   0  0  0  0  0  0  0  0  0  0  0  0
   -4.6942   -6.2086   -4.9978 H   0  0  0  0  0  0  0  0  0  0  0  0
   -7.1235   -5.8361   -4.7176 H   0  0  0  0  0  0  0  0  0  0  0  0
   -7.9586   -3.6724   -3.8341 H   0  0  0  0  0  0  0  0  0  0  0  0
  1  2  1  0  0  0  0
  1 23  1  0  0  0  0
  1 24  1  0  0  0  0
  1 25  1  0  0  0  0
  2  3  1  0  0  0  0
  3  4  2  0  0  0  0
  3  5  1  0  0  0  0
  5  6  2  0  0  0  0
  5  9  1  0  0  0  0
  6  7  1  0  0  0  0
  6 26  1  0  0  0  0
  7  8  1  0  0  0  0
  8 27  1  0  0  0  0
  8 28  1  0  0  0  0
  8 29  1  0  0  0  0
  9 10  1  0  0  0  0
  9 11  2  0  0  0  0
 10 14  2  0  0  0  0
 10 30  1  0  0  0  0
 11 12  1  0  0  0  0
 11 15  1  0  0  0  0
 12 13  2  0  0  0  0
 12 31  1  0  0  0  0
 13 14  1  0  0  0  0
 13 32  1  0  0  0  0
 14 33  1  0  0  0  0
 15 16  2  0  0  0  0
 15 34  1  0  0  0  0
 16 17  1  0  0  0  0
 16 35  1  0  0  0  0
 17 18  1  0  0  0  0
 17 20  2  0  0  0  0
 18 19  2  0  0  0  0
 18 36  1  0  0  0  0
 19 22  1  0  0  0  0
 19 37  1  0  0  0  0
 20 21  1  0  0  0  0
 20 38  1  0  0  0  0
 21 22  2  0  0  0  0
 21 39  1  0  0  0  0
 22 40  1  0  0  0  0
M  END
>  <DRUGBANK_ID>
DB08330

>  <COMMON_NAME>
METHYL (2Z)-3-METHOXY-2-{2-[(E)-2-PHENYLVINYL]PHENYL}ACRYLATE

$$$$
