
 OpenBabel10282417183D

 60 63  0  0  0  0  0  0  0  0999 V2000
    2.6314    0.6865   -0.1290 C   0  0  0  0  0  0  0  0  0  0  0  0
    1.1836    0.2556   -0.3491 C   0  0  0  0  0  0  0  0  0  0  0  0
    1.1399   -1.1652   -0.2796 C   0  0  0  0  0  0  0  0  0  0  0  0
   -0.0486   -1.8468   -0.1957 C   0  0  0  0  0  0  0  0  0  0  0  0
   -1.2248   -1.1244   -0.2035 C   0  0  0  0  0  0  0  0  0  0  0  0
   -1.2638    0.2955   -0.3032 C   0  0  0  0  0  0  0  0  0  0  0  0
   -0.0515    1.0729   -0.3936 C   0  0  0  0  0  0  0  0  0  0  0  0
   -0.0708    2.6192   -0.2602 N   0  0  0  0  0  0  0  0  0  0  0  0
   -1.3024    3.3827   -0.0809 C   0  0  0  0  0  0  0  0  0  0  0  0
   -1.6630    4.0070    1.2732 C   0  0  0  0  0  0  0  0  0  0  0  0
   -2.1366    5.1548    1.2820 O   0  0  0  0  0  0  0  0  0  0  0  0
   -1.6023    3.3760    2.4881 N   0  0  0  0  0  0  0  0  0  0  0  0
   -1.2115    2.0932    2.8776 C   0  0  0  0  0  0  0  0  0  0  0  0
   -0.0723    1.4731    2.4236 C   0  0  0  0  0  0  0  0  0  0  0  0
    0.1548    0.1148    2.6408 C   0  0  0  0  0  0  0  0  0  0  0  0
   -0.7300   -0.6316    3.3880 C   0  0  0  0  0  0  0  0  0  0  0  0
   -1.7194    0.0581    4.0832 C   0  0  0  0  0  0  0  0  0  0  0  0
   -1.9710    1.4149    3.8190 C   0  0  0  0  0  0  0  0  0  0  0  0
   -0.6027   -2.0750    3.4200 C   0  0  0  0  0  0  0  0  0  0  0  0
    0.6119   -2.7011    3.5848 N   0  0  0  0  0  0  0  0  0  0  0  0
    0.2664   -3.9625    3.6048 C   0  0  0  0  0  0  0  0  0  0  0  0
   -1.0537   -4.1773    3.3808 O   0  0  0  0  0  0  0  0  0  0  0  0
   -1.6369   -2.9158    3.2436 N   0  0  0  0  0  0  0  0  0  0  0  0
    1.0832    3.3561   -0.3816 C   0  0  0  0  0  0  0  0  0  0  0  0
    2.0908    2.8368   -0.8950 O   0  0  0  0  0  0  0  0  0  0  0  0
    1.3968    4.8352   -0.0734 C   0  0  0  0  0  0  0  0  0  0  0  0
    2.8572    4.7852    0.5146 C   0  0  0  0  0  0  0  0  0  0  0  0
    2.8532    4.1322    1.9027 C   0  0  0  0  0  0  0  0  0  0  0  0
    2.1029    5.2447    3.0677 S   0  0  0  0  0  0  0  0  0  0  0  0
    1.7675    4.4939    4.2632 O   0  0  0  0  0  0  0  0  0  0  0  0
    2.8767    6.4641    3.1224 O   0  0  0  0  0  0  0  0  0  0  0  0
    0.5921    5.5792    2.2432 C   0  0  0  0  0  0  0  0  0  0  0  0
    0.6664    5.8815    0.7575 C   0  0  0  0  0  0  0  0  0  0  0  0
   -2.6710    0.8108   -0.1402 C   0  0  0  0  0  0  0  0  0  0  0  0
    3.0355    1.1219   -1.0421 H   0  0  0  0  0  0  0  0  0  0  0  0
    2.7117    1.2927    0.7795 H   0  0  0  0  0  0  0  0  0  0  0  0
    3.3498   -0.1270    0.0403 H   0  0  0  0  0  0  0  0  0  0  0  0
    2.0607   -1.7346   -0.1343 H   0  0  0  0  0  0  0  0  0  0  0  0
   -0.0530   -2.9183   -0.0249 H   0  0  0  0  0  0  0  0  0  0  0  0
   -2.1466   -1.6806   -0.0342 H   0  0  0  0  0  0  0  0  0  0  0  0
   -1.2789    4.1738   -0.8458 H   0  0  0  0  0  0  0  0  0  0  0  0
   -2.2053    2.8860   -0.3587 H   0  0  0  0  0  0  0  0  0  0  0  0
   -1.8514    3.9948    3.2546 H   0  0  0  0  0  0  0  0  0  0  0  0
    0.6452    2.0048    1.8300 H   0  0  0  0  0  0  0  0  0  0  0  0
    0.9802   -0.3772    2.1396 H   0  0  0  0  0  0  0  0  0  0  0  0
   -2.2985   -0.4632    4.8362 H   0  0  0  0  0  0  0  0  0  0  0  0
   -2.8080    1.9065    4.3024 H   0  0  0  0  0  0  0  0  0  0  0  0
    0.8808   -4.8310    3.7855 H   0  0  0  0  0  0  0  0  0  0  0  0
    1.4137    5.2548   -1.0923 H   0  0  0  0  0  0  0  0  0  0  0  0
    3.2792    5.7929    0.5621 H   0  0  0  0  0  0  0  0  0  0  0  0
    3.5443    4.2323   -0.1349 H   0  0  0  0  0  0  0  0  0  0  0  0
    3.8533    3.8794    2.2542 H   0  0  0  0  0  0  0  0  0  0  0  0
    2.2727    3.2068    1.9381 H   0  0  0  0  0  0  0  0  0  0  0  0
    0.1516    4.6143    2.3800 H   0  0  0  0  0  0  0  0  0  0  0  0
    0.0054    6.3134    2.7985 H   0  0  0  0  0  0  0  0  0  0  0  0
    1.2039    6.8344    0.6510 H   0  0  0  0  0  0  0  0  0  0  0  0
   -0.3073    6.0887    0.3071 H   0  0  0  0  0  0  0  0  0  0  0  0
   -2.7705    1.3756    0.7914 H   0  0  0  0  0  0  0  0  0  0  0  0
   -2.9532    1.3759   -1.0305 H   0  0  0  0  0  0  0  0  0  0  0  0
   -3.4301    0.0295   -0.0523 H   0  0  0  0  0  0  0  0  0  0  0  0
  1  2  1  0  0  0  0
  1 35  1  0  0  0  0
  1 36  1  0  0  0  0
  1 37  1  0  0  0  0
  2  3  2  0  0  0  0
  2  7  1  0  0  0  0
  3  4  1  0  0  0  0
  3 38  1  0  0  0  0
  4  5  2  0  0  0  0
  4 39  1  0  0  0  0
  5  6  1  0  0  0  0
  5 40  1  0  0  0  0
  6  7  2  0  0  0  0
  6 34  1  0  0  0  0
  7  8  1  0  0  0  0
  8  9  1  0  0  0  0
  8 24  1  0  0  0  0
  9 10  1  0  0  0  0
  9 41  1  0  0  0  0
  9 42  1  0  0  0  0
 10 11  2  0  0  0  0
 10 12  1  0  0  0  0
 12 13  1  0  0  0  0
 12 43  1  0  0  0  0
 13 14  2  0  0  0  0
 13 18  1  0  0  0  0
 14 15  1  0  0  0  0
 14 44  1  0  0  0  0
 15 16  2  0  0  0  0
 15 45  1  0  0  0  0
 16 17  1  0  0  0  0
 16 19  1  0  0  0  0
 17 18  2  0  0  0  0
 17 46  1  0  0  0  0
 18 47  1  0  0  0  0
 19 20  1  0  0  0  0
 19 23  2  0  0  0  0
 20 21  2  0  0  0  0
 21 22  1  0  0  0  0
 21 48  1  0  0  0  0
 22 23  1  0  0  0  0
 24 25  2  0  0  0  0
 24 26  1  0  0  0  0
 26 27  1  0  0  0  0
 26 33  1  0  0  0  0
 26 49  1  0  0  0  0
 27 28  1  0  0  0  0
 27 50  1  0  0  0  0
 27 51  1  0  0  0  0
 28 29  1  0  0  0  0
 28 52  1  0  0  0  0
 28 53  1  0  0  0  0
 29 30  2  0  0  0  0
 29 31  2  0  0  0  0
 29 32  1  0  0  0  0
 32 33  1  0  0  0  0
 32 54  1  0  0  0  0
 32 55  1  0  0  0  0
 33 56  1  0  0  0  0
 33 57  1  0  0  0  0
 34 58  1  0  0  0  0
 34 59  1  0  0  0  0
 34 60  1  0  0  0  0
M  END
>  <DRUGBANK_ID>
DB11701

>  <COMMON_NAME>
Amenamevir

>  <CAS_NUMBER>
841301-32-4

>  <UNII>
94X46KW4AE

>  <SYNONYMS>
Amenamevir

$$$$
