
 OpenBabel10282417233D

  3  2  0  0  0  0  0  0  0  0999 V2000
    1.0344   -0.0331   -0.0879 Zr  0  0  0  0  0  0  0  0  0  0  0  0
   -1.1225   -0.0331   -0.0879 O   0  0  0  0  0  0  0  0  0  0  0  0
    3.1914   -0.0331   -0.0879 O   0  0  0  0  0  0  0  0  0  0  0  0
  1  2  2  0  0  0  0
  1  3  2  0  0  0  0
M  END
>  <DRUGBANK_ID>
DB16552

>  <COMMON_NAME>
Zirconium dioxide

>  <CAS_NUMBER>
1314-23-4

>  <UNII>
S38N85C5G0

>  <SYNONYMS>
Zirconia; Zirconium oxide; ZrO2

$$$$
