
 OpenBabel10282417123D

 48 50  0  0  0  0  0  0  0  0999 V2000
    1.3077   -0.1878    0.2323 S   0  0  0  0  0  0  0  0  0  0  0  0
    2.9825   -4.0393   -0.4032 S   0  0  0  0  0  0  0  0  0  0  0  0
   -1.0590   -0.2779   -2.5482 O   0  0  0  0  0  0  0  0  0  0  0  0
    0.2473    3.2279   -2.5638 O   0  0  0  0  0  0  0  0  0  0  0  0
    1.0999    1.2329   -4.3256 O   0  0  0  0  0  0  0  0  0  0  0  0
    0.6741   -1.4796   -0.5155 O   0  0  0  0  0  0  0  0  0  0  0  0
    1.1968    0.1434    1.6296 O   0  0  0  0  0  0  0  0  0  0  0  0
    0.6222    0.7682   -0.4527 O   0  0  0  0  0  0  0  0  0  0  0  0
    4.8559   -0.9103    0.7537 O   0  0  0  0  0  0  0  0  0  0  0  0
   -1.9486    0.9888   -0.6929 N   0  0  0  0  0  0  0  0  0  0  0  0
   -3.4626    1.7953    0.7791 N   0  0  0  0  0  0  0  0  0  0  0  0
   -1.2008   -0.8833    0.8173 N   0  0  0  0  0  0  0  0  0  0  0  0
    2.8803   -0.2881   -0.1241 N   0  0  0  0  0  0  0  0  0  0  0  0
   -1.5864   -0.3813    3.1498 N   0  0  0  0  0  0  0  0  0  0  0  0
   -3.3453    0.9096    3.8075 N   0  0  0  0  0  0  0  0  0  0  0  0
    2.1976   -1.5402    2.7867 N   0  0  0  0  0  0  0  0  0  0  0  0
    0.2813    1.8697   -2.1787 C   0  0  2  0  0  0  0  0  0  0  0  0
    1.0825    0.7869   -2.9759 C   0  0  1  0  0  0  0  0  0  0  0  0
   -1.1682    1.0618   -1.9708 C   0  0  1  0  0  0  0  0  0  0  0  0
    0.3081   -0.5708   -2.8781 C   0  0  1  0  0  0  0  0  0  0  0  0
    0.8705   -1.6668   -1.9241 C   0  0  0  0  0  0  0  0  0  0  0  0
   -1.8719    0.2349    0.4944 C   0  0  0  0  0  0  0  0  0  0  0  0
   -3.0603    1.7810   -0.4772 C   0  0  0  0  0  0  0  0  0  0  0  0
   -2.6434    0.9056    1.4294 C   0  0  0  0  0  0  0  0  0  0  0  0
   -2.5236    0.4971    2.7855 C   0  0  0  0  0  0  0  0  0  0  0  0
   -1.0067   -1.0280    2.1523 C   0  0  0  0  0  0  0  0  0  0  0  0
    3.6467   -1.0837    0.7539 C   0  0  0  0  0  0  0  0  0  0  0  0
    2.9412   -2.1615    1.7015 C   0  0  2  0  0  0  0  0  0  0  0  0
    2.1023   -3.2163    0.9611 C   0  0  0  0  0  0  0  0  0  0  0  0
    3.2874    0.5606   -0.5102 H   0  0  0  0  0  0  0  0  0  0  0  0
   -4.2106    1.3374    3.5231 H   0  0  0  0  0  0  0  0  0  0  0  0
   -3.2496    0.3821    4.6661 H   0  0  0  0  0  0  0  0  0  0  0  0
    1.6295   -2.0920    3.4082 H   0  0  0  0  0  0  0  0  0  0  0  0
    2.5678   -0.6923    3.2148 H   0  0  0  0  0  0  0  0  0  0  0  0
    3.4446   -2.9486   -1.0531 H   0  0  0  0  0  0  0  0  0  0  0  0
    0.0242    3.2897   -3.4863 H   0  0  0  0  0  0  0  0  0  0  0  0
    0.1693    1.4077   -4.5424 H   0  0  0  0  0  0  0  0  0  0  0  0
    0.9289    2.1809   -1.3399 H   0  0  0  0  0  0  0  0  0  0  0  0
    2.1254    0.6190   -2.6607 H   0  0  0  0  0  0  0  0  0  0  0  0
   -1.8297    1.5768   -2.6771 H   0  0  0  0  0  0  0  0  0  0  0  0
    0.3145   -1.0432   -3.8762 H   0  0  0  0  0  0  0  0  0  0  0  0
    1.9402   -1.7972   -2.1028 H   0  0  0  0  0  0  0  0  0  0  0  0
    0.4181   -2.6440   -2.1796 H   0  0  0  0  0  0  0  0  0  0  0  0
   -3.5179    2.3356   -1.2814 H   0  0  0  0  0  0  0  0  0  0  0  0
   -0.1801   -1.6655    2.4418 H   0  0  0  0  0  0  0  0  0  0  0  0
    3.7300   -2.6895    2.2174 H   0  0  0  0  0  0  0  0  0  0  0  0
    1.5765   -3.9105    1.6191 H   0  0  0  0  0  0  0  0  0  0  0  0
    1.2079   -2.8239    0.5506 H   0  0  0  0  0  0  0  0  0  0  0  0
  1  6  1  0  0  0  0
  1  7  2  0  0  0  0
  1  8  2  0  0  0  0
  1 13  1  0  0  0  0
  2 29  1  0  0  0  0
  2 35  1  0  0  0  0
  3 19  1  0  0  0  0
  3 20  1  0  0  0  0
  4 36  1  0  0  0  0
  5 37  1  0  0  0  0
  6 21  1  0  0  0  0
  9 27  2  0  0  0  0
 10 22  1  0  0  0  0
 10 23  1  0  0  0  0
 11 23  2  0  0  0  0
 11 24  1  0  0  0  0
 12 22  2  0  0  0  0
 12 26  1  0  0  0  0
 13 27  1  0  0  0  0
 13 30  1  0  0  0  0
 14 25  1  0  0  0  0
 14 26  2  0  0  0  0
 15 25  1  0  0  0  0
 15 31  1  0  0  0  0
 15 32  1  0  0  0  0
 16 33  1  0  0  0  0
 16 34  1  0  0  0  0
 17  4  1  0  0  0  0
 17 18  1  0  0  0  0
 17 19  1  0  0  0  0
 17 38  1  1  0  0  0
 18  5  1  0  0  0  0
 18 20  1  0  0  0  0
 18 39  1  1  0  0  0
 19 40  1  6  0  0  0
 19 10  1  0  0  0  0
 20 21  1  0  0  0  0
 20 41  1  6  0  0  0
 21 42  1  0  0  0  0
 21 43  1  0  0  0  0
 22 24  1  0  0  0  0
 23 44  1  0  0  0  0
 24 25  2  0  0  0  0
 26 45  1  0  0  0  0
 27 28  1  0  0  0  0
 28 16  1  0  0  0  0
 28 29  1  0  0  0  0
 28 46  1  1  0  0  0
 29 47  1  0  0  0  0
 29 48  1  0  0  0  0
M  END
>  <DRUGBANK_ID>
DB02684

>  <SECONDARY_ACCESSION_NUMBERS>
EXPT00241

>  <COMMON_NAME>
5'-O-(L-Cysteinylsulfamoyl)adenosine

>  <SYNONYMS>
5'-O-(N-(L-Cysteinyl)-sulfamoyl)adenosine

$$$$
