
 OpenBabel10282417133D

  9  8  0  0  0  0  0  0  0  0999 V2000
    1.0700    0.0119   -0.1000 N   0  0  0  0  0  0  0  0  0  0  0  0
    0.3347    1.0804   -0.5618 C   0  0  0  0  0  0  0  0  0  0  0  0
   -0.8881    1.0314   -0.5406 O   0  0  0  0  0  0  0  0  0  0  0  0
    1.0847    2.3396   -1.1061 C   0  0  0  0  0  0  0  0  0  0  0  0
    2.4256    2.2868   -1.0832 O   0  0  0  0  0  0  0  0  0  0  0  0
    0.4785    3.3108   -1.5258 O   0  0  0  0  0  0  0  0  0  0  0  0
    0.5180   -0.7706    0.2382 H   0  0  0  0  0  0  0  0  0  0  0  0
    2.0673   -0.0920   -0.0551 H   0  0  0  0  0  0  0  0  0  0  0  0
    2.8170    1.4742   -0.7320 H   0  0  0  0  0  0  0  0  0  0  0  0
  1  2  1  0  0  0  0
  1  7  1  0  0  0  0
  1  8  1  0  0  0  0
  2  3  2  0  0  0  0
  2  4  1  0  0  0  0
  4  5  1  0  0  0  0
  4  6  2  0  0  0  0
  5  9  1  0  0  0  0
M  END
>  <DRUGBANK_ID>
DB03940

>  <SECONDARY_ACCESSION_NUMBERS>
EXPT02460

>  <COMMON_NAME>
Oxamic Acid

>  <CAS_NUMBER>
471-47-6

>  <UNII>
QU60N5OPLG

$$$$
