
 OpenBabel10282417173D

 56 59  0  0  1  0  0  0  0  0999 V2000
    0.4342   -5.6016    2.9883 C   0  0  0  0  0  0  0  0  0  0  0  0
    0.0142   -4.6384    1.6846 C   0  0  0  0  0  0  0  0  0  0  0  0
    1.1514   -4.0484    0.8243 C   0  0  0  0  0  0  0  0  0  0  0  0
    1.4723   -3.1280    1.7499 C   0  0  0  0  0  0  0  0  0  0  0  0
    1.9442   -3.7019    3.0548 C   0  0  2  0  0  0  0  0  0  0  0  0
    1.8959   -5.3274    2.8279 C   0  0  0  0  0  0  0  0  0  0  0  0
    1.0887   -1.6782    1.7478 C   0  0  0  0  0  0  0  0  0  0  0  0
    0.2320   -1.1405    3.0275 C   0  0  0  0  0  0  0  0  0  0  0  0
    0.9007   -1.5000    4.4737 C   0  0  2  0  0  0  0  0  0  0  0  0
    1.0164   -3.1276    4.3302 C   0  0  2  0  0  0  0  0  0  0  0  0
    0.5836   -0.5886    6.1285 C   0  0  1  0  0  0  0  0  0  0  0  0
    0.5465   -1.8621    6.7807 C   0  0  2  0  0  0  0  0  0  0  0  0
    0.4958   -3.3105    6.6367 C   0  0  0  0  0  0  0  0  0  0  0  0
    1.4267   -3.8298    5.6262 C   0  0  2  0  0  0  0  0  0  0  0  0
    0.9437   -0.7287    8.1646 C   0  0  0  0  0  0  0  0  0  0  0  0
   -0.1847   -1.4403    8.9565 C   0  0  0  0  0  0  0  0  0  0  0  0
   -0.8289   -1.2271    7.6953 C   0  0  2  0  0  0  0  0  0  0  0  0
   -1.1064   -4.2143    1.4047 O   0  0  0  0  0  0  0  0  0  0  0  0
   -2.2493   -1.6914    7.5282 C   0  0  0  0  0  0  0  0  0  0  0  0
   -2.5030   -3.1501    7.4374 C   0  0  0  0  0  0  0  0  0  0  0  0
   -3.1596   -0.8590    7.4453 O   0  0  0  0  0  0  0  0  0  0  0  0
   -3.5541   -3.7353    8.7543 S   0  0  0  0  0  0  0  0  0  0  0  0
   -1.0358    0.2739    7.7780 O   0  0  0  0  0  0  0  0  0  0  0  0
    2.7558   -3.6363    6.0038 O   0  0  0  0  0  0  0  0  0  0  0  0
    3.3790   -3.2578    3.2009 C   0  0  0  0  0  0  0  0  0  0  0  0
    1.8732   -1.1104    4.2133 H   0  0  0  0  0  0  0  0  0  0  0  0
   -0.0463   -3.4066    4.1436 H   0  0  0  0  0  0  0  0  0  0  0  0
   -0.2885   -0.0093    5.8989 H   0  0  0  0  0  0  0  0  0  0  0  0
    2.3549   -1.2143    6.6315 C   0  0  0  0  0  0  0  0  0  0  0  0
    0.8062   -5.3619    3.9883 H   0  0  0  0  0  0  0  0  0  0  0  0
   -0.4344   -5.5540    3.6800 H   0  0  0  0  0  0  0  0  0  0  0  0
    0.9624   -3.9558   -0.2393 H   0  0  0  0  0  0  0  0  0  0  0  0
    2.7859   -5.8297    3.2240 H   0  0  0  0  0  0  0  0  0  0  0  0
    1.9082   -5.8999    1.8766 H   0  0  0  0  0  0  0  0  0  0  0  0
    2.0281   -1.1247    1.7025 H   0  0  0  0  0  0  0  0  0  0  0  0
    0.5424   -1.4720    0.8149 H   0  0  0  0  0  0  0  0  0  0  0  0
    0.1753   -0.0610    2.8899 H   0  0  0  0  0  0  0  0  0  0  0  0
   -0.7867   -1.5526    2.9278 H   0  0  0  0  0  0  0  0  0  0  0  0
    0.7134   -3.7813    7.6056 H   0  0  0  0  0  0  0  0  0  0  0  0
   -0.4746   -3.6488    6.2793 H   0  0  0  0  0  0  0  0  0  0  0  0
    1.2877   -4.9066    5.6677 H   0  0  0  0  0  0  0  0  0  0  0  0
    1.3763    0.0806    8.7627 H   0  0  0  0  0  0  0  0  0  0  0  0
    1.7215   -1.4855    8.4709 H   0  0  0  0  0  0  0  0  0  0  0  0
   -0.5874   -0.9149    9.8255 H   0  0  0  0  0  0  0  0  0  0  0  0
   -0.0048   -2.4977    9.2121 H   0  0  0  0  0  0  0  0  0  0  0  0
   -2.8137   -3.3488    6.4070 H   0  0  0  0  0  0  0  0  0  0  0  0
   -1.5984   -3.6923    7.6649 H   0  0  0  0  0  0  0  0  0  0  0  0
   -2.6372   -3.5227    9.7165 H   0  0  0  0  0  0  0  0  0  0  0  0
   -1.7652    0.5126    7.1795 H   0  0  0  0  0  0  0  0  0  0  0  0
    3.0625   -2.8643    5.5070 H   0  0  0  0  0  0  0  0  0  0  0  0
    3.8294   -3.7142    4.0742 H   0  0  0  0  0  0  0  0  0  0  0  0
    3.9858   -3.5735    2.3547 H   0  0  0  0  0  0  0  0  0  0  0  0
    3.4251   -2.1691    3.2860 H   0  0  0  0  0  0  0  0  0  0  0  0
    2.7988   -1.1524    5.6451 H   0  0  0  0  0  0  0  0  0  0  0  0
    2.4573   -0.1143    6.8846 H   0  0  0  0  0  0  0  0  0  0  0  0
    3.0441   -1.7509    7.2779 H   0  0  0  0  0  0  0  0  0  0  0  0
  1  2  1  0  0  0  0
  1  6  1  0  0  0  0
  1 30  1  0  0  0  0
  1 31  1  0  0  0  0
  2  3  1  0  0  0  0
  2 18  2  0  0  0  0
  3  4  2  0  0  0  0
  3 32  1  0  0  0  0
  4  5  1  0  0  0  0
  4  7  1  0  0  0  0
  5  6  1  0  0  0  0
  5 10  1  0  0  0  0
  5 25  1  1  0  0  0
  6 33  1  0  0  0  0
  6 34  1  0  0  0  0
  7  8  1  0  0  0  0
  7 35  1  0  0  0  0
  7 36  1  0  0  0  0
  8  9  1  0  0  0  0
  8 37  1  0  0  0  0
  8 38  1  0  0  0  0
  9 10  1  0  0  0  0
  9 11  1  0  0  0  0
  9 26  1  6  0  0  0
 10 14  1  0  0  0  0
 10 27  1  6  0  0  0
 11 12  1  0  0  0  0
 11 15  1  0  0  0  0
 11 28  1  6  0  0  0
 12 13  1  0  0  0  0
 12 17  1  0  0  0  0
 12 29  1  1  0  0  0
 13 14  1  0  0  0  0
 13 39  1  0  0  0  0
 13 40  1  0  0  0  0
 14 24  1  0  0  0  0
 14 41  1  6  0  0  0
 15 16  1  0  0  0  0
 15 42  1  0  0  0  0
 15 43  1  0  0  0  0
 16 17  1  0  0  0  0
 16 44  1  0  0  0  0
 16 45  1  0  0  0  0
 17 23  1  6  0  0  0
 17 19  1  0  0  0  0
 19 20  1  0  0  0  0
 19 21  2  0  0  0  0
 20 22  1  0  0  0  0
 20 46  1  0  0  0  0
 20 47  1  0  0  0  0
 22 48  1  0  0  0  0
 23 49  1  0  0  0  0
 24 50  1  0  0  0  0
 25 51  1  0  0  0  0
 25 52  1  0  0  0  0
 25 53  1  0  0  0  0
 29 54  1  0  0  0  0
 29 55  1  0  0  0  0
 29 56  1  0  0  0  0
M  END
>  <DRUGBANK_ID>
DB09091

>  <COMMON_NAME>
Tixocortol

>  <CAS_NUMBER>
61951-99-3

>  <UNII>
ZX3KEK657Z

>  <SYNONYMS>
Tixocortol

$$$$
