
 OpenBabel10282417233D

 30 30  0  0  1  0  0  0  0  0999 V2000
   -3.0273   -1.0719   -1.9749 O   0  0  0  0  0  0  0  0  0  0  0  0
   -1.5943   -1.0601   -1.7552 C   0  0  0  0  0  0  0  0  0  0  0  0
   -0.9679   -0.9183   -3.1253 C   0  0  1  0  0  0  0  0  0  0  0  0
   -1.3982    0.4343   -3.2937 O   0  0  0  0  0  0  0  0  0  0  0  0
    0.5338   -0.8613   -3.4345 C   0  0  2  0  0  0  0  0  0  0  0  0
    1.2282   -0.0404   -2.3399 C   0  0  0  0  0  0  0  0  0  0  0  0
    1.7969   -0.9033   -1.3570 O   0  0  0  0  0  0  0  0  0  0  0  0
    0.7679   -0.3858   -4.8066 O   0  0  0  0  0  0  0  0  0  0  0  0
    0.4091    0.9797   -5.1292 C   0  0  0  0  0  0  0  0  0  0  0  0
   -0.9893    1.1259   -5.5953 N   0  0  0  0  0  0  0  0  0  0  0  0
   -1.8646    0.0743   -5.8812 C   0  0  0  0  0  0  0  0  0  0  0  0
   -3.1268    0.5291   -5.5374 C   0  0  0  0  0  0  0  0  0  0  0  0
   -3.0759    1.8510   -5.1764 N   0  0  0  0  0  0  0  0  0  0  0  0
   -1.8099    2.2113   -5.3139 C   0  0  0  0  0  0  0  0  0  0  0  0
   -1.3268    3.5349   -5.0069 N   0  3  0  0  0  0  0  0  0  0  0  0
   -2.1907    4.4226   -4.8414 O   0  5  0  0  0  0  0  0  0  0  0  0
   -0.1136    3.7141   -4.9540 O   0  0  0  0  0  0  0  0  0  0  0  0
   -3.3117   -0.1605   -2.1897 H   0  0  0  0  0  0  0  0  0  0  0  0
   -1.4097   -0.1570   -1.1557 H   0  0  0  0  0  0  0  0  0  0  0  0
   -1.3012   -1.9438   -1.2040 H   0  0  0  0  0  0  0  0  0  0  0  0
   -1.4438   -1.6096   -3.8379 H   0  0  0  0  0  0  0  0  0  0  0  0
   -2.3316    0.3568   -3.5445 H   0  0  0  0  0  0  0  0  0  0  0  0
    0.9444   -1.8820   -3.4371 H   0  0  0  0  0  0  0  0  0  0  0  0
    2.0037    0.6215   -2.7266 H   0  0  0  0  0  0  0  0  0  0  0  0
    0.5139    0.6025   -1.8172 H   0  0  0  0  0  0  0  0  0  0  0  0
    1.1411   -1.5758   -1.1055 H   0  0  0  0  0  0  0  0  0  0  0  0
    0.5899    1.6143   -4.2583 H   0  0  0  0  0  0  0  0  0  0  0  0
    1.0307    1.3294   -5.9600 H   0  0  0  0  0  0  0  0  0  0  0  0
   -1.5003   -0.9401   -5.9809 H   0  0  0  0  0  0  0  0  0  0  0  0
   -4.0121   -0.0684   -5.3299 H   0  0  0  0  0  0  0  0  0  0  0  0
  1  2  1  0  0  0  0
  1 18  1  0  0  0  0
  2 19  1  0  0  0  0
  2 20  1  0  0  0  0
  3  2  1  0  0  0  0
  3  4  1  0  0  0  0
  3 21  1  6  0  0  0
  4 22  1  0  0  0  0
  5  8  1  0  0  0  0
  5 23  1  1  0  0  0
  5  6  1  0  0  0  0
  5  3  1  0  0  0  0
  6  7  1  0  0  0  0
  6 24  1  0  0  0  0
  6 25  1  0  0  0  0
  7 26  1  0  0  0  0
  8  9  1  0  0  0  0
  9 10  1  0  0  0  0
  9 27  1  0  0  0  0
  9 28  1  0  0  0  0
 10 11  1  0  0  0  0
 10 14  1  0  0  0  0
 11 12  2  0  0  0  0
 11 29  1  0  0  0  0
 12 13  1  0  0  0  0
 12 30  1  0  0  0  0
 13 14  2  0  0  0  0
 14 15  1  0  0  0  0
 15 16  1  0  0  0  0
 15 17  2  0  0  0  0
M  CHG  2  15   1  16  -1
M  END
>  <DRUGBANK_ID>
DB17304

>  <COMMON_NAME>
Doranidazole

>  <CAS_NUMBER>
149838-23-3

>  <UNII>
911XR034RX

>  <SYNONYMS>
(2rs,3sr)-3-((2-nitroimidazol-1-yl)methoxy)butane-1,2,4-triol; 1,2,4-butanetriol, 3-((2-nitro-1h-imidazol-1-yl)methoxy)-, (2r,3s)-rel-

$$$$
