
 OpenBabel10282417123D

 26 26  0  0  1  0  0  0  0  0999 V2000
    0.9629    0.0027    0.2759 N   0  0  0  0  0  0  0  0  0  0  0  0
    0.4114    1.3382    0.5591 C   0  0  1  0  0  0  0  0  0  0  0  0
    0.9163    2.4397   -0.3993 C   0  0  0  0  0  0  0  0  0  0  0  0
    0.4909    2.2398   -1.8114 C   0  0  0  0  0  0  0  0  0  0  0  0
    0.4220    1.0765   -2.5587 C   0  0  0  0  0  0  0  0  0  0  0  0
   -0.1031    1.3845   -3.7739 N   0  3  0  0  0  0  0  0  0  0  0  0
   -0.2395    2.7095   -3.8790 C   0  0  0  0  0  0  0  0  0  0  0  0
    0.0493    3.2332   -2.6844 N   0  0  0  0  0  0  0  0  0  0  0  0
    0.0192    4.9792   -2.3394 P   0  0  0  0  0  0  0  0  0  0  0  0
    1.6434    4.8151   -2.4258 O   0  0  0  0  0  0  0  0  0  0  0  0
   -0.3149    5.1824   -3.9304 O   0  0  0  0  0  0  0  0  0  0  0  0
   -0.0070    6.4980   -2.0393 O   0  0  0  0  0  0  0  0  0  0  0  0
   -1.1268    1.3069    0.5190 C   0  0  0  0  0  0  0  0  0  0  0  0
   -1.7455    1.5239    1.6889 O   0  0  0  0  0  0  0  0  0  0  0  0
   -1.7618    1.1505   -0.5276 O   0  0  0  0  0  0  0  0  0  0  0  0
    0.4714   -0.4580   -0.4882 H   0  0  0  0  0  0  0  0  0  0  0  0
    1.9568    0.0352    0.0447 H   0  0  0  0  0  0  0  0  0  0  0  0
    0.7359    1.5913    1.5734 H   0  0  0  0  0  0  0  0  0  0  0  0
    0.5492    3.4123   -0.0516 H   0  0  0  0  0  0  0  0  0  0  0  0
    2.0123    2.4818   -0.3842 H   0  0  0  0  0  0  0  0  0  0  0  0
    0.6263    0.0356   -2.3992 H   0  0  0  0  0  0  0  0  0  0  0  0
   -0.3288    0.7121   -4.5040 H   0  0  0  0  0  0  0  0  0  0  0  0
   -0.5583    3.1837   -4.7962 H   0  0  0  0  0  0  0  0  0  0  0  0
    2.0877    5.2819   -1.6978 H   0  0  0  0  0  0  0  0  0  0  0  0
   -1.2681    5.0862   -4.1166 H   0  0  0  0  0  0  0  0  0  0  0  0
   -1.1803    1.5354    2.4867 H   0  0  0  0  0  0  0  0  0  0  0  0
  1 16  1  0  0  0  0
  1 17  1  0  0  0  0
  2  1  1  0  0  0  0
  2  3  1  0  0  0  0
  2 13  1  0  0  0  0
  2 18  1  1  0  0  0
  3  4  1  0  0  0  0
  3 19  1  0  0  0  0
  3 20  1  0  0  0  0
  4  5  2  0  0  0  0
  4  8  1  0  0  0  0
  5  6  1  0  0  0  0
  5 21  1  0  0  0  0
  6  7  2  0  0  0  0
  6 22  1  0  0  0  0
  7  8  1  0  0  0  0
  7 23  1  0  0  0  0
  8  9  1  0  0  0  0
  9 10  1  0  0  0  0
  9 11  1  0  0  0  0
  9 12  2  0  0  0  0
 10 24  1  0  0  0  0
 11 25  1  0  0  0  0
 13 14  1  0  0  0  0
 13 15  2  0  0  0  0
 14 26  1  0  0  0  0
M  CHG  1   6   1
M  END
>  <DRUGBANK_ID>
DB01899

>  <SECONDARY_ACCESSION_NUMBERS>
EXPT01752

>  <COMMON_NAME>
Nd1-Phosphonohistidine

$$$$
