
 OpenBabel10282417183D

 31 32  0  0  0  0  0  0  0  0999 V2000
    1.0148   -0.0081   -0.0517 C   0  0  0  0  0  0  0  0  0  0  0  0
    0.4090   -1.4357   -0.0369 C   0  0  3  0  0  0  0  0  0  0  0  0
    0.7555   -2.1623    1.2714 C   0  0  0  0  0  0  0  0  0  0  0  0
    0.5153   -3.4364    1.7663 C   0  0  0  0  0  0  0  0  0  0  0  0
    1.1094   -3.6603    2.9749 N   0  0  0  0  0  0  0  0  0  0  0  0
    1.7074   -2.5407    3.2545 C   0  0  0  0  0  0  0  0  0  0  0  0
    1.5136   -1.6012    2.2825 N   0  0  0  0  0  0  0  0  0  0  0  0
   -1.0952   -1.4331   -0.3830 C   0  0  0  0  0  0  0  0  0  0  0  0
   -1.8064   -0.2134   -0.4783 C   0  0  0  0  0  0  0  0  0  0  0  0
   -3.1658   -0.1673   -0.7815 C   0  0  0  0  0  0  0  0  0  0  0  0
   -3.8706   -1.3454   -0.9635 C   0  0  0  0  0  0  0  0  0  0  0  0
   -3.2120   -2.5748   -0.8893 C   0  0  0  0  0  0  0  0  0  0  0  0
   -4.0054   -3.8481   -1.0152 C   0  0  0  0  0  0  0  0  0  0  0  0
   -1.8138   -2.6248   -0.6627 C   0  0  0  0  0  0  0  0  0  0  0  0
   -1.1774   -3.9897   -0.7059 C   0  0  0  0  0  0  0  0  0  0  0  0
    0.6562    0.5813    0.8029 H   0  0  0  0  0  0  0  0  0  0  0  0
    0.7564    0.5412   -0.9656 H   0  0  0  0  0  0  0  0  0  0  0  0
    2.1082   -0.0317   -0.0024 H   0  0  0  0  0  0  0  0  0  0  0  0
    0.9141   -1.9590   -0.8627 H   0  0  0  0  0  0  0  0  0  0  0  0
   -0.0326   -4.2586    1.3484 H   0  0  0  0  0  0  0  0  0  0  0  0
    2.2912   -2.3586    4.1460 H   0  0  0  0  0  0  0  0  0  0  0  0
    1.8818   -0.6670    2.3065 H   0  0  0  0  0  0  0  0  0  0  0  0
   -1.3232    0.7488   -0.3304 H   0  0  0  0  0  0  0  0  0  0  0  0
   -3.6723    0.7913   -0.8555 H   0  0  0  0  0  0  0  0  0  0  0  0
   -4.9370   -1.3014   -1.1652 H   0  0  0  0  0  0  0  0  0  0  0  0
   -3.6243   -4.4539   -1.8422 H   0  0  0  0  0  0  0  0  0  0  0  0
   -3.9345   -4.4199   -0.0824 H   0  0  0  0  0  0  0  0  0  0  0  0
   -5.0624   -3.6515   -1.2067 H   0  0  0  0  0  0  0  0  0  0  0  0
   -1.5493   -4.5730    0.1455 H   0  0  0  0  0  0  0  0  0  0  0  0
   -1.4300   -4.5362   -1.6158 H   0  0  0  0  0  0  0  0  0  0  0  0
   -0.0881   -3.9537   -0.7038 H   0  0  0  0  0  0  0  0  0  0  0  0
  1  2  1  0  0  0  0
  1 16  1  0  0  0  0
  1 17  1  0  0  0  0
  1 18  1  0  0  0  0
  2  3  1  0  0  0  0
  2  8  1  0  0  0  0
  2 19  1  0  0  0  0
  3  4  2  0  0  0  0
  3  7  1  0  0  0  0
  4  5  1  0  0  0  0
  4 20  1  0  0  0  0
  5  6  2  0  0  0  0
  6  7  1  0  0  0  0
  6 21  1  0  0  0  0
  7 22  1  0  0  0  0
  8  9  2  0  0  0  0
  8 14  1  0  0  0  0
  9 10  1  0  0  0  0
  9 23  1  0  0  0  0
 10 11  2  0  0  0  0
 10 24  1  0  0  0  0
 11 12  1  0  0  0  0
 11 25  1  0  0  0  0
 12 13  1  0  0  0  0
 12 14  2  0  0  0  0
 13 26  1  0  0  0  0
 13 27  1  0  0  0  0
 13 28  1  0  0  0  0
 14 15  1  0  0  0  0
 15 29  1  0  0  0  0
 15 30  1  0  0  0  0
 15 31  1  0  0  0  0
M  END
>  <DRUGBANK_ID>
DB11428

>  <COMMON_NAME>
Medetomidine

>  <CAS_NUMBER>
86347-14-0

>  <UNII>
MR15E85MQM

>  <SYNONYMS>
(Â±)-4-(Î±,2,3-trimethylbenzyl)imidazole; Medetomidina; Medetomidine; Medetomidinum

$$$$
