991
 OpenBabel10282417123D

 46 49  0  0  0  0  0  0  0  0999 V2000
    0.9670   -1.4373   -0.0123 C   0  0  0  0  0  0  0  0  0  0  0  0
    1.2924   -0.0579    0.0071 C   0  0  0  0  0  0  0  0  0  0  0  0
    2.9290    0.5287   -0.0103 Cl  0  0  0  0  0  0  0  0  0  0  0  0
    0.3185    0.9537    0.0480 C   0  0  0  0  0  0  0  0  0  0  0  0
   -1.0166    0.5566    0.1074 C   0  0  0  0  0  0  0  0  0  0  0  0
   -1.3992   -0.7783    0.0922 C   0  0  0  0  0  0  0  0  0  0  0  0
   -0.4058   -1.7700    0.0106 C   0  0  0  0  0  0  0  0  0  0  0  0
    1.9785   -2.5306   -0.0508 C   0  0  0  0  0  0  0  0  0  0  0  0
    1.6263   -3.8040   -0.0699 N   0  0  0  0  0  0  0  0  0  0  0  0
    3.2674   -2.2714   -0.0591 N   0  3  0  0  0  0  0  0  0  0  0  0
   -2.1775    1.2965    0.1317 N   0  0  0  0  0  0  0  0  0  0  0  0
   -2.8141   -0.8240    0.1276 C   0  0  0  0  0  0  0  0  0  0  0  0
   -3.2797    0.4661    0.2424 C   0  0  0  0  0  0  0  0  0  0  0  0
   -4.6553    0.9759    0.0651 C   0  0  0  0  0  0  0  0  0  0  0  0
   -5.6362    0.6847    1.0112 C   0  0  0  0  0  0  0  0  0  0  0  0
   -6.9281    1.1693    0.8489 C   0  0  0  0  0  0  0  0  0  0  0  0
   -7.2353    1.9738   -0.2454 C   0  0  0  0  0  0  0  0  0  0  0  0
   -6.2642    2.2456   -1.2298 C   0  0  0  0  0  0  0  0  0  0  0  0
   -6.7746    3.0531   -2.2330 O   0  0  0  0  0  0  0  0  0  0  0  0
   -4.9510    1.6917   -1.1190 C   0  0  0  0  0  0  0  0  0  0  0  0
   -4.0245    1.7376   -1.9996 O   0  5  0  0  0  0  0  0  0  0  0  0
   -5.5196    2.4288   -4.2918 C   0  0  0  0  0  0  0  0  0  0  0  0
   -5.9560    3.5145   -3.3075 C   0  0  0  0  0  0  0  0  0  0  0  0
   -4.7335    4.3613   -2.9056 C   0  0  0  0  0  0  0  0  0  0  0  0
   -3.5808    3.8775   -3.7929 C   0  0  0  0  0  0  0  0  0  0  0  0
   -4.2058    2.9632   -4.8558 C   0  0  0  0  0  0  0  0  0  0  0  0
    0.5871    2.0068    0.0426 H   0  0  0  0  0  0  0  0  0  0  0  0
   -0.7769   -2.7856   -0.0195 H   0  0  0  0  0  0  0  0  0  0  0  0
    2.3070   -4.5495   -0.0975 H   0  0  0  0  0  0  0  0  0  0  0  0
    0.6576   -4.0958   -0.0702 H   0  0  0  0  0  0  0  0  0  0  0  0
    3.5782   -1.3034   -0.0460 H   0  0  0  0  0  0  0  0  0  0  0  0
    3.9862   -2.9772   -0.0861 H   0  0  0  0  0  0  0  0  0  0  0  0
   -2.2665    2.2854   -0.0728 H   0  0  0  0  0  0  0  0  0  0  0  0
   -3.4597   -1.6807    0.0042 H   0  0  0  0  0  0  0  0  0  0  0  0
   -5.3766    0.0643    1.8573 H   0  0  0  0  0  0  0  0  0  0  0  0
   -7.6911    0.9216    1.5772 H   0  0  0  0  0  0  0  0  0  0  0  0
   -8.2400    2.3768   -0.3521 H   0  0  0  0  0  0  0  0  0  0  0  0
   -5.4215    1.4384   -3.8375 H   0  0  0  0  0  0  0  0  0  0  0  0
   -6.2659    2.2521   -5.0731 H   0  0  0  0  0  0  0  0  0  0  0  0
   -6.5989    4.1907   -3.8912 H   0  0  0  0  0  0  0  0  0  0  0  0
   -4.9222    5.4257   -3.0778 H   0  0  0  0  0  0  0  0  0  0  0  0
   -4.4997    4.2980   -1.8361 H   0  0  0  0  0  0  0  0  0  0  0  0
   -3.0224    4.7065   -4.2321 H   0  0  0  0  0  0  0  0  0  0  0  0
   -2.8237    3.3402   -3.2080 H   0  0  0  0  0  0  0  0  0  0  0  0
   -3.5325    2.1452   -5.1359 H   0  0  0  0  0  0  0  0  0  0  0  0
   -4.4165    3.5549   -5.7489 H   0  0  0  0  0  0  0  0  0  0  0  0
  1  2  2  0  0  0  0
  1  7  1  0  0  0  0
  1  8  1  0  0  0  0
  2  3  1  0  0  0  0
  2  4  1  0  0  0  0
  4  5  2  0  0  0  0
  4 27  1  0  0  0  0
  5  6  1  0  0  0  0
  5 11  1  0  0  0  0
  6  7  2  0  0  0  0
  6 12  1  0  0  0  0
  7 28  1  0  0  0  0
  8  9  1  0  0  0  0
  8 10  2  0  0  0  0
  9 29  1  0  0  0  0
  9 30  1  0  0  0  0
 10 31  1  0  0  0  0
 10 32  1  0  0  0  0
 11 13  1  0  0  0  0
 11 33  1  0  0  0  0
 12 13  2  0  0  0  0
 12 34  1  0  0  0  0
 13 14  1  0  0  0  0
 14 15  2  0  0  0  0
 14 20  1  0  0  0  0
 15 16  1  0  0  0  0
 15 35  1  0  0  0  0
 16 17  2  0  0  0  0
 16 36  1  0  0  0  0
 17 18  1  0  0  0  0
 17 37  1  0  0  0  0
 18 19  1  0  0  0  0
 18 20  2  0  0  0  0
 19 23  1  0  0  0  0
 20 21  1  0  0  0  0
 22 23  1  0  0  0  0
 22 26  1  0  0  0  0
 22 38  1  0  0  0  0
 22 39  1  0  0  0  0
 23 24  1  0  0  0  0
 23 40  1  0  0  0  0
 24 25  1  0  0  0  0
 24 41  1  0  0  0  0
 24 42  1  0  0  0  0
 25 26  1  0  0  0  0
 25 43  1  0  0  0  0
 25 44  1  0  0  0  0
 26 45  1  0  0  0  0
 26 46  1  0  0  0  0
M  CHG  2  10   1  21  -1
M  END
>  <DRUGBANK_ID>
DB01771

>  <SECONDARY_ACCESSION_NUMBERS>
EXPT00350

>  <COMMON_NAME>
CRA_10991

$$$$
