
 OpenBabel10282417233D

101105  0  0  0  0  0  0  0  0999 V2000
    3.1903   -2.2839    0.5607 Na  0  3  0  0  0  0  0  0  0  0  0  0
    1.5778   -0.4643    0.1986 C   0  0  0  0  0  0  0  0  0  0  0  0
    0.4019   -1.7000   -0.7153 C   0  0  0  0  0  0  0  0  0  0  0  0
   -1.5289   -1.9232   -0.8713 C   0  0  0  0  0  0  0  0  0  0  0  0
    0.3134   -2.9756   -0.0004 C   0  0  0  0  0  0  0  0  0  0  0  0
   -0.1441   -1.8106    0.8023 C   0  0  0  0  0  0  0  0  0  0  0  0
   -0.6915   -0.2317    0.0973 C   0  0  0  0  0  0  0  0  0  0  0  0
   -0.8150    1.0866    0.6068 C   0  0  0  0  0  0  0  0  0  0  0  0
   -0.2524    2.1390   -0.2046 C   0  0  0  0  0  0  0  0  0  0  0  0
    0.7022    2.9578    0.3251 C   0  0  0  0  0  0  0  0  0  0  0  0
    1.6440    3.4504   -0.6090 C   0  0  0  0  0  0  0  0  0  0  0  0
    1.8235    4.6771   -1.0866 C   0  0  0  0  0  0  0  0  0  0  0  0
    2.3517    4.4655   -2.4755 C   0  0  0  0  0  0  0  0  0  0  0  0
    2.7808    3.3209   -3.1432 N   0  3  0  0  0  0  0  0  0  0  0  0
    2.9438    1.7941   -3.3920 C   0  0  0  0  0  0  0  0  0  0  0  0
    3.4417    1.0919   -4.6861 C   0  0  0  0  0  0  0  0  0  0  0  0
    4.8717    0.7912   -4.7169 C   0  0  0  0  0  0  0  0  0  0  0  0
    5.2199    0.0159   -3.4067 C   0  0  0  0  0  0  0  0  0  0  0  0
    4.8835   -1.6761   -3.2849 S   0  0  0  0  0  0  0  0  0  0  0  0
    5.2747   -2.1748   -4.5451 O   0  5  0  0  0  0  0  0  0  0  0  0
    5.5837   -2.0706   -2.0555 O   0  0  0  0  0  0  0  0  0  0  0  0
    3.4502   -1.5578   -2.9527 O   0  0  0  0  0  0  0  0  0  0  0  0
    4.0473    3.7002   -3.3643 C   0  0  0  0  0  0  0  0  0  0  0  0
    5.0128    2.8560   -2.8298 C   0  0  0  0  0  0  0  0  0  0  0  0
    6.2950    3.0730   -2.9918 C   0  0  0  0  0  0  0  0  0  0  0  0
    6.4854    4.3880   -3.0761 C   0  0  0  0  0  0  0  0  0  0  0  0
    7.7829    4.7169   -3.0552 C   0  0  0  0  0  0  0  0  0  0  0  0
    8.0059    6.0259   -3.3645 C   0  0  0  0  0  0  0  0  0  0  0  0
    7.0140    6.9885   -3.1430 C   0  0  0  0  0  0  0  0  0  0  0  0
    5.7375    6.6321   -2.8157 C   0  0  0  0  0  0  0  0  0  0  0  0
    5.4149    5.3658   -3.1434 C   0  0  0  0  0  0  0  0  0  0  0  0
    4.1390    5.0181   -3.4810 C   0  0  0  0  0  0  0  0  0  0  0  0
    2.7422    5.6150   -3.4376 C   0  0  0  0  0  0  0  0  0  0  0  0
    1.4324    5.2653   -4.2973 C   0  0  0  0  0  0  0  0  0  0  0  0
    2.9166    7.0475   -3.9064 C   0  0  0  0  0  0  0  0  0  0  0  0
    0.6481   -3.8117   -1.2474 N   0  0  0  0  0  0  0  0  0  0  0  0
    0.2950   -5.2403   -1.8339 C   0  0  0  0  0  0  0  0  0  0  0  0
   -0.6786   -5.3710   -3.1257 C   0  0  0  0  0  0  0  0  0  0  0  0
   -0.2364   -4.7846   -4.4922 C   0  0  0  0  0  0  0  0  0  0  0  0
    1.1650   -5.2953   -5.0066 C   0  0  0  0  0  0  0  0  0  0  0  0
    1.2134   -6.9136   -5.5937 S   0  0  0  0  0  0  0  0  0  0  0  0
    0.2827   -6.8269   -6.7082 O   0  5  0  0  0  0  0  0  0  0  0  0
    2.6262   -7.0796   -5.9291 O   0  0  0  0  0  0  0  0  0  0  0  0
    0.7810   -7.6646   -4.4153 O   0  0  0  0  0  0  0  0  0  0  0  0
    0.9957   -2.9696   -2.3216 C   0  0  0  0  0  0  0  0  0  0  0  0
    1.5794   -3.1593   -3.5348 C   0  0  0  0  0  0  0  0  0  0  0  0
    1.5000   -2.2335   -4.6280 C   0  0  0  0  0  0  0  0  0  0  0  0
    0.9453   -1.0110   -4.4491 C   0  0  0  0  0  0  0  0  0  0  0  0
    0.8836    0.0810   -5.3688 C   0  0  0  0  0  0  0  0  0  0  0  0
    0.4841    1.3754   -4.9634 C   0  0  0  0  0  0  0  0  0  0  0  0
    0.2028    1.5628   -3.5897 C   0  0  0  0  0  0  0  0  0  0  0  0
    0.5837    0.5037   -2.7288 C   0  0  0  0  0  0  0  0  0  0  0  0
    0.7205   -0.7553   -3.0852 C   0  0  0  0  0  0  0  0  0  0  0  0
    0.8211   -1.7475   -2.1265 C   0  0  0  0  0  0  0  0  0  0  0  0
    1.3049   -0.1898    1.2716 H   0  0  0  0  0  0  0  0  0  0  0  0
    1.4288    0.4849   -0.2718 H   0  0  0  0  0  0  0  0  0  0  0  0
    2.6764   -0.3587    0.1476 H   0  0  0  0  0  0  0  0  0  0  0  0
   -2.0456   -1.1691   -1.4753 H   0  0  0  0  0  0  0  0  0  0  0  0
   -1.8954   -2.9358   -1.1138 H   0  0  0  0  0  0  0  0  0  0  0  0
   -2.0680   -1.7581    0.1447 H   0  0  0  0  0  0  0  0  0  0  0  0
   -0.3049   -1.9096    1.8667 H   0  0  0  0  0  0  0  0  0  0  0  0
   -0.6309   -0.0967   -1.0181 H   0  0  0  0  0  0  0  0  0  0  0  0
   -0.7539    0.9462    1.6277 H   0  0  0  0  0  0  0  0  0  0  0  0
   -0.2716    2.0996   -1.2912 H   0  0  0  0  0  0  0  0  0  0  0  0
    0.9385    2.9233    1.3672 H   0  0  0  0  0  0  0  0  0  0  0  0
    2.0525    2.6414   -1.1772 H   0  0  0  0  0  0  0  0  0  0  0  0
    1.5044    5.5621   -0.5268 H   0  0  0  0  0  0  0  0  0  0  0  0
    3.0758    1.3140   -2.4329 H   0  0  0  0  0  0  0  0  0  0  0  0
    2.0675    1.4298   -3.6755 H   0  0  0  0  0  0  0  0  0  0  0  0
    3.0937    0.0543   -4.6840 H   0  0  0  0  0  0  0  0  0  0  0  0
    3.0781    1.5066   -5.6388 H   0  0  0  0  0  0  0  0  0  0  0  0
    5.0889    0.2596   -5.6423 H   0  0  0  0  0  0  0  0  0  0  0  0
    5.2165    1.8132   -4.8784 H   0  0  0  0  0  0  0  0  0  0  0  0
    6.2410    0.1934   -3.1262 H   0  0  0  0  0  0  0  0  0  0  0  0
    4.6110    0.2677   -2.5230 H   0  0  0  0  0  0  0  0  0  0  0  0
    4.7760    1.9470   -2.3451 H   0  0  0  0  0  0  0  0  0  0  0  0
    6.9830    2.2427   -2.9445 H   0  0  0  0  0  0  0  0  0  0  0  0
    8.5488    3.9618   -2.9188 H   0  0  0  0  0  0  0  0  0  0  0  0
    8.9737    6.3007   -3.7384 H   0  0  0  0  0  0  0  0  0  0  0  0
    7.2164    8.0420   -3.2230 H   0  0  0  0  0  0  0  0  0  0  0  0
    5.0301    7.3472   -2.4469 H   0  0  0  0  0  0  0  0  0  0  0  0
    0.6893    6.0733   -4.2328 H   0  0  0  0  0  0  0  0  0  0  0  0
    1.7038    4.9903   -5.3102 H   0  0  0  0  0  0  0  0  0  0  0  0
    0.7974    4.4471   -3.9177 H   0  0  0  0  0  0  0  0  0  0  0  0
    2.0123    7.6527   -3.9716 H   0  0  0  0  0  0  0  0  0  0  0  0
    3.6020    7.7044   -3.3952 H   0  0  0  0  0  0  0  0  0  0  0  0
    3.3293    6.9700   -4.9341 H   0  0  0  0  0  0  0  0  0  0  0  0
    1.2517   -5.6941   -2.1408 H   0  0  0  0  0  0  0  0  0  0  0  0
   -0.1075   -5.9208   -1.0739 H   0  0  0  0  0  0  0  0  0  0  0  0
   -0.8669   -6.4296   -3.3481 H   0  0  0  0  0  0  0  0  0  0  0  0
   -1.6647   -4.9687   -2.8709 H   0  0  0  0  0  0  0  0  0  0  0  0
   -0.9561   -4.8798   -5.3126 H   0  0  0  0  0  0  0  0  0  0  0  0
   -0.3795   -3.7073   -4.3390 H   0  0  0  0  0  0  0  0  0  0  0  0
    1.6021   -4.6217   -5.7591 H   0  0  0  0  0  0  0  0  0  0  0  0
    1.9483   -5.4734   -4.2558 H   0  0  0  0  0  0  0  0  0  0  0  0
    2.1201   -4.0406   -3.5568 H   0  0  0  0  0  0  0  0  0  0  0  0
    1.9786   -2.4972   -5.5725 H   0  0  0  0  0  0  0  0  0  0  0  0
    1.5465   -0.0512   -6.2431 H   0  0  0  0  0  0  0  0  0  0  0  0
    0.9288    2.2464   -5.4933 H   0  0  0  0  0  0  0  0  0  0  0  0
    0.4017    2.5515   -3.1657 H   0  0  0  0  0  0  0  0  0  0  0  0
    1.3466    0.6921   -1.9416 H   0  0  0  0  0  0  0  0  0  0  0  0
  2  3  1  0  0  0  0
  2 55  1  0  0  0  0
  2 56  1  0  0  0  0
  2 57  1  0  0  0  0
  3  4  1  0  0  0  0
  3  5  1  0  0  0  0
  3 54  1  0  0  0  0
  4 58  1  0  0  0  0
  4 59  1  0  0  0  0
  4 60  1  0  0  0  0
  5  6  2  3  0  0  0
  5 36  1  0  0  0  0
  6  7  1  0  0  0  0
  6 61  1  0  0  0  0
  7  8  2  3  0  0  0
  7 62  1  0  0  0  0
  8  9  1  0  0  0  0
  8 63  1  0  0  0  0
  9 10  2  3  0  0  0
  9 64  1  0  0  0  0
 10 11  1  0  0  0  0
 10 65  1  0  0  0  0
 11 12  2  3  0  0  0
 11 66  1  0  0  0  0
 12 13  1  0  0  0  0
 12 67  1  0  0  0  0
 13 14  2  0  0  0  0
 13 33  1  0  0  0  0
 14 15  1  0  0  0  0
 14 23  1  0  0  0  0
 15 16  1  0  0  0  0
 15 68  1  0  0  0  0
 15 69  1  0  0  0  0
 16 17  1  0  0  0  0
 16 70  1  0  0  0  0
 16 71  1  0  0  0  0
 17 18  1  0  0  0  0
 17 72  1  0  0  0  0
 17 73  1  0  0  0  0
 18 19  1  0  0  0  0
 18 74  1  0  0  0  0
 18 75  1  0  0  0  0
 19 20  1  0  0  0  0
 19 21  2  0  0  0  0
 19 22  2  0  0  0  0
 23 24  2  0  0  0  0
 23 32  1  0  0  0  0
 24 25  1  0  0  0  0
 24 76  1  0  0  0  0
 25 26  2  0  0  0  0
 25 77  1  0  0  0  0
 26 27  1  0  0  0  0
 26 31  1  0  0  0  0
 27 28  2  0  0  0  0
 27 78  1  0  0  0  0
 28 29  1  0  0  0  0
 28 79  1  0  0  0  0
 29 30  2  0  0  0  0
 29 80  1  0  0  0  0
 30 31  1  0  0  0  0
 30 81  1  0  0  0  0
 31 32  2  0  0  0  0
 32 33  1  0  0  0  0
 33 34  1  0  0  0  0
 33 35  1  0  0  0  0
 34 82  1  0  0  0  0
 34 83  1  0  0  0  0
 34 84  1  0  0  0  0
 35 85  1  0  0  0  0
 35 86  1  0  0  0  0
 35 87  1  0  0  0  0
 36 37  1  0  0  0  0
 36 45  1  0  0  0  0
 37 38  1  0  0  0  0
 37 88  1  0  0  0  0
 37 89  1  0  0  0  0
 38 39  1  0  0  0  0
 38 90  1  0  0  0  0
 38 91  1  0  0  0  0
 39 40  1  0  0  0  0
 39 92  1  0  0  0  0
 39 93  1  0  0  0  0
 40 41  1  0  0  0  0
 40 94  1  0  0  0  0
 40 95  1  0  0  0  0
 41 42  1  0  0  0  0
 41 43  2  0  0  0  0
 41 44  2  0  0  0  0
 45 46  2  0  0  0  0
 45 54  1  0  0  0  0
 46 47  1  0  0  0  0
 46 96  1  0  0  0  0
 47 48  2  0  0  0  0
 47 97  1  0  0  0  0
 48 49  1  0  0  0  0
 48 53  1  0  0  0  0
 49 50  2  0  0  0  0
 49 98  1  0  0  0  0
 50 51  1  0  0  0  0
 50 99  1  0  0  0  0
 51 52  2  0  0  0  0
 51100  1  0  0  0  0
 52 53  1  0  0  0  0
 52101  1  0  0  0  0
 53 54  2  0  0  0  0
M  CHG  4   1   1  14   1  20  -1  42  -1
M  END
>  <DRUGBANK_ID>
DB16024

>  <COMMON_NAME>
Indocyanine green

>  <CAS_NUMBER>
3599-32-4

>  <SYNONYMS>
Indocyanine green

$$$$
