MDX
 OpenBabel10282417173D

 36 35  0  0  0  0  0  0  0  0999 V2000
    0.8448   -0.0599    0.0464 O   0  0  0  0  0  0  0  0  0  0  0  0
    2.0701   -0.0732    0.1145 C   0  0  0  0  0  0  0  0  0  0  0  0
    2.7220    0.7810    0.9278 O   0  0  0  0  0  0  0  0  0  0  0  0
    2.9084   -1.0565   -0.6671 C   0  0  0  0  0  0  0  0  0  0  0  0
    3.7766   -0.3969   -1.7353 C   0  0  0  0  0  0  0  0  0  0  0  0
    4.8565    0.4926   -1.1234 C   0  0  0  0  0  0  0  0  0  0  0  0
    5.7226   -0.3133   -0.1418 C   0  0  0  0  0  0  0  0  0  0  0  0
    6.4895   -1.4015   -0.8970 C   0  0  0  0  0  0  0  0  0  0  0  0
    7.3922   -0.7575   -1.9515 C   0  0  0  0  0  0  0  0  0  0  0  0
    8.3821    0.2012   -1.2799 C   0  0  0  0  0  0  0  0  0  0  0  0
    9.2768   -0.5587   -0.2945 C   0  0  0  0  0  0  0  0  0  0  0  0
   10.1087   -1.6203   -1.0216 C   0  0  0  0  0  0  0  0  0  0  0  0
   10.9930   -1.0215   -2.1162 C   0  0  0  0  0  0  0  0  0  0  0  0
   12.2415    0.1192   -1.4386 S   0  0  0  0  0  0  0  0  0  0  0  0
    3.6907    0.7079    0.9875 H   0  0  0  0  0  0  0  0  0  0  0  0
    3.4723   -1.6941    0.0220 H   0  0  0  0  0  0  0  0  0  0  0  0
    2.2232   -1.7480   -1.1711 H   0  0  0  0  0  0  0  0  0  0  0  0
    4.2412   -1.1778   -2.3536 H   0  0  0  0  0  0  0  0  0  0  0  0
    3.1653    0.1885   -2.4280 H   0  0  0  0  0  0  0  0  0  0  0  0
    5.4554    0.9491   -1.9164 H   0  0  0  0  0  0  0  0  0  0  0  0
    4.4182    1.3687   -0.6434 H   0  0  0  0  0  0  0  0  0  0  0  0
    6.3895    0.3616    0.4031 H   0  0  0  0  0  0  0  0  0  0  0  0
    5.1444   -0.7801    0.6598 H   0  0  0  0  0  0  0  0  0  0  0  0
    7.0589   -2.0129   -0.1898 H   0  0  0  0  0  0  0  0  0  0  0  0
    5.8140   -2.1196   -1.3714 H   0  0  0  0  0  0  0  0  0  0  0  0
    7.8963   -1.5336   -2.5324 H   0  0  0  0  0  0  0  0  0  0  0  0
    6.8134   -0.2186   -2.7073 H   0  0  0  0  0  0  0  0  0  0  0  0
    8.9618    0.7245   -2.0438 H   0  0  0  0  0  0  0  0  0  0  0  0
    7.8716    1.0150   -0.7547 H   0  0  0  0  0  0  0  0  0  0  0  0
    9.9087    0.1451    0.2505 H   0  0  0  0  0  0  0  0  0  0  0  0
    8.6867   -1.0360    0.4962 H   0  0  0  0  0  0  0  0  0  0  0  0
   10.7033   -2.1893   -0.3005 H   0  0  0  0  0  0  0  0  0  0  0  0
    9.4441   -2.3671   -1.4772 H   0  0  0  0  0  0  0  0  0  0  0  0
   11.5045   -1.8203   -2.6562 H   0  0  0  0  0  0  0  0  0  0  0  0
   10.3973   -0.4866   -2.8636 H   0  0  0  0  0  0  0  0  0  0  0  0
   11.3984    0.9693   -0.8267 H   0  0  0  0  0  0  0  0  0  0  0  0
  1  2  2  0  0  0  0
  2  4  1  0  0  0  0
  2  3  1  0  0  0  0
  3 15  1  0  0  0  0
  4  5  1  0  0  0  0
  4 16  1  0  0  0  0
  4 17  1  0  0  0  0
  5  6  1  0  0  0  0
  5 18  1  0  0  0  0
  5 19  1  0  0  0  0
  6  7  1  0  0  0  0
  6 20  1  0  0  0  0
  6 21  1  0  0  0  0
  7  8  1  0  0  0  0
  7 22  1  0  0  0  0
  7 23  1  0  0  0  0
  8  9  1  0  0  0  0
  8 24  1  0  0  0  0
  8 25  1  0  0  0  0
  9 10  1  0  0  0  0
  9 26  1  0  0  0  0
  9 27  1  0  0  0  0
 10 11  1  0  0  0  0
 10 28  1  0  0  0  0
 10 29  1  0  0  0  0
 11 12  1  0  0  0  0
 11 30  1  0  0  0  0
 11 31  1  0  0  0  0
 12 13  1  0  0  0  0
 12 32  1  0  0  0  0
 12 33  1  0  0  0  0
 13 14  1  0  0  0  0
 13 34  1  0  0  0  0
 13 35  1  0  0  0  0
 14 36  1  0  0  0  0
M  END
>  <DRUGBANK_ID>
DB08171

>  <COMMON_NAME>
11-MERCAPTOUNDECANOIC ACID

$$$$
