
 OpenBabel10282417123D

 12 11  0  0  0  0  0  0  0  0999 V2000
    1.0468    0.1043    0.0146 O   0  0  0  0  0  0  0  0  0  0  0  0
    0.5821   -0.0853   -1.3089 C   0  0  0  0  0  0  0  0  0  0  0  0
    1.0780    0.9971   -2.2527 C   0  0  0  0  0  0  0  0  0  0  0  0
    1.7875    0.7298   -3.2263 O   0  0  0  0  0  0  0  0  0  0  0  0
    0.6594    2.4240   -1.9414 C   0  0  0  0  0  0  0  0  0  0  0  0
   -0.7460    2.5888   -1.9738 O   0  0  0  0  0  0  0  0  0  0  0  0
    2.0174    0.0314   -0.0060 H   0  0  0  0  0  0  0  0  0  0  0  0
    0.9218   -1.0622   -1.6679 H   0  0  0  0  0  0  0  0  0  0  0  0
   -0.5121   -0.0887   -1.3129 H   0  0  0  0  0  0  0  0  0  0  0  0
    1.0349    2.6982   -0.9508 H   0  0  0  0  0  0  0  0  0  0  0  0
    1.1133    3.1019   -2.6715 H   0  0  0  0  0  0  0  0  0  0  0  0
   -1.0381    2.4061   -2.8842 H   0  0  0  0  0  0  0  0  0  0  0  0
  1  2  1  0  0  0  0
  1  7  1  0  0  0  0
  2  3  1  0  0  0  0
  2  8  1  0  0  0  0
  2  9  1  0  0  0  0
  3  4  2  0  0  0  0
  3  5  1  0  0  0  0
  5  6  1  0  0  0  0
  5 10  1  0  0  0  0
  5 11  1  0  0  0  0
  6 12  1  0  0  0  0
M  END
>  <DRUGBANK_ID>
DB01775

>  <SECONDARY_ACCESSION_NUMBERS>
EXPT00122

>  <COMMON_NAME>
Dihydroxyacetone

>  <CAS_NUMBER>
96-26-4

>  <UNII>
O10DDW6JOO

>  <SYNONYMS>
Dihydroxyacetone

$$$$
