2RD
 OpenBabel10282417163D

 48 48  0  0  0  0  0  0  0  0999 V2000
    1.0953    0.0473   -0.0979 C   0  0  0  0  0  0  0  0  0  0  0  0
    0.6477   -1.0778   -1.0164 C   0  0  0  0  0  0  0  0  0  0  0  0
    1.1479   -2.4227   -0.4883 C   0  0  0  0  0  0  0  0  0  0  0  0
    0.5966   -2.7053    0.9139 C   0  0  0  0  0  0  0  0  0  0  0  0
   -0.9357   -2.7227    0.8953 C   0  0  0  0  0  0  0  0  0  0  0  0
   -1.4283   -3.8240   -0.0484 C   0  0  0  0  0  0  0  0  0  0  0  0
   -0.8869   -5.1821    0.4170 C   0  0  0  0  0  0  0  0  0  0  0  0
   -1.3737   -5.4711    1.8312 C   0  0  0  0  0  0  0  0  0  0  0  0
   -2.8899   -5.4838    1.8255 C   0  0  0  0  0  0  0  0  0  0  0  0
   -3.4089   -6.5636    0.8656 C   0  0  0  0  0  0  0  0  0  0  0  0
   -3.0741   -7.9477    1.3962 C   0  0  0  0  0  0  0  0  0  0  0  0
   -3.6112   -8.1742    2.8151 C   0  0  0  0  0  0  0  0  0  0  0  0
   -5.4360   -8.1346    3.0393 S   0  0  0  0  0  0  0  0  0  0  0  0
   -6.0542   -6.6519    2.3684 C   0  0  0  0  0  0  0  0  0  0  0  0
   -5.6779   -5.4202    2.8235 N   0  0  0  0  0  0  0  0  0  0  0  0
   -6.1495   -4.4337    2.0356 N   0  0  0  0  0  0  0  0  0  0  0  0
   -6.9445   -4.9934    1.1315 N   0  0  0  0  0  0  0  0  0  0  0  0
   -6.9316   -6.3613    1.3332 C   0  0  0  0  0  0  0  0  0  0  0  0
   -7.6781   -7.2902    0.5044 C   0  0  0  0  0  0  0  0  0  0  0  0
   -7.6163   -8.5121    0.6268 O   0  0  0  0  0  0  0  0  0  0  0  0
   -8.4771   -6.7266   -0.4422 O   0  0  0  0  0  0  0  0  0  0  0  0
    0.7010   -0.0670    0.9173 H   0  0  0  0  0  0  0  0  0  0  0  0
    0.7414    1.0109   -0.4644 H   0  0  0  0  0  0  0  0  0  0  0  0
    2.1871    0.0594   -0.0341 H   0  0  0  0  0  0  0  0  0  0  0  0
   -0.4452   -1.0673   -1.1071 H   0  0  0  0  0  0  0  0  0  0  0  0
    1.0248   -0.9169   -2.0297 H   0  0  0  0  0  0  0  0  0  0  0  0
    0.8646   -3.2171   -1.1901 H   0  0  0  0  0  0  0  0  0  0  0  0
    2.2411   -2.4433   -0.4639 H   0  0  0  0  0  0  0  0  0  0  0  0
    1.0076   -3.6499    1.2854 H   0  0  0  0  0  0  0  0  0  0  0  0
    0.9499   -1.9739    1.6438 H   0  0  0  0  0  0  0  0  0  0  0  0
   -1.3153   -2.8541    1.9141 H   0  0  0  0  0  0  0  0  0  0  0  0
   -1.3577   -1.7604    0.5941 H   0  0  0  0  0  0  0  0  0  0  0  0
   -2.5221   -3.7997   -0.1002 H   0  0  0  0  0  0  0  0  0  0  0  0
   -1.1298   -3.6481   -1.0844 H   0  0  0  0  0  0  0  0  0  0  0  0
   -1.1865   -5.9603   -0.2880 H   0  0  0  0  0  0  0  0  0  0  0  0
    0.2021   -5.2367    0.3906 H   0  0  0  0  0  0  0  0  0  0  0  0
   -0.9687   -6.4170    2.1988 H   0  0  0  0  0  0  0  0  0  0  0  0
   -1.0219   -4.7346    2.5612 H   0  0  0  0  0  0  0  0  0  0  0  0
   -3.1927   -5.6258    2.8610 H   0  0  0  0  0  0  0  0  0  0  0  0
   -3.3186   -4.5111    1.5639 H   0  0  0  0  0  0  0  0  0  0  0  0
   -4.4703   -6.4752    0.6883 H   0  0  0  0  0  0  0  0  0  0  0  0
   -3.0393   -6.4346   -0.1538 H   0  0  0  0  0  0  0  0  0  0  0  0
   -3.4350   -8.7159    0.7068 H   0  0  0  0  0  0  0  0  0  0  0  0
   -1.9806   -8.0699    1.4012 H   0  0  0  0  0  0  0  0  0  0  0  0
   -3.2545   -9.1578    3.1429 H   0  0  0  0  0  0  0  0  0  0  0  0
   -3.1592   -7.4815    3.5328 H   0  0  0  0  0  0  0  0  0  0  0  0
   -5.0135   -5.1842    3.5505 H   0  0  0  0  0  0  0  0  0  0  0  0
   -8.4350   -5.7492   -0.4441 H   0  0  0  0  0  0  0  0  0  0  0  0
  1  2  1  0  0  0  0
  1 22  1  0  0  0  0
  1 23  1  0  0  0  0
  1 24  1  0  0  0  0
  2  3  1  0  0  0  0
  2 25  1  0  0  0  0
  2 26  1  0  0  0  0
  3  4  1  0  0  0  0
  3 27  1  0  0  0  0
  3 28  1  0  0  0  0
  4  5  1  0  0  0  0
  4 29  1  0  0  0  0
  4 30  1  0  0  0  0
  5 31  1  0  0  0  0
  5 32  1  0  0  0  0
  6  5  1  0  0  0  0
  6  7  1  0  0  0  0
  6 33  1  0  0  0  0
  6 34  1  0  0  0  0
  7  8  1  0  0  0  0
  7 35  1  0  0  0  0
  7 36  1  0  0  0  0
  8 37  1  0  0  0  0
  8 38  1  0  0  0  0
  9  8  1  0  0  0  0
  9 10  1  0  0  0  0
  9 39  1  0  0  0  0
  9 40  1  0  0  0  0
 10 41  1  0  0  0  0
 10 42  1  0  0  0  0
 11 10  1  0  0  0  0
 11 12  1  0  0  0  0
 11 43  1  0  0  0  0
 11 44  1  0  0  0  0
 12 13  1  0  0  0  0
 12 45  1  0  0  0  0
 12 46  1  0  0  0  0
 13 14  1  0  0  0  0
 14 18  2  0  0  0  0
 14 15  1  0  0  0  0
 15 16  1  0  0  0  0
 15 47  1  0  0  0  0
 17 16  2  0  0  0  0
 18 17  1  0  0  0  0
 19 18  1  0  0  0  0
 19 21  1  0  0  0  0
 20 19  2  0  0  0  0
 21 48  1  0  0  0  0
M  END
>  <DRUGBANK_ID>
DB06979

>  <COMMON_NAME>
5-(dodecylthio)-1H-1,2,3-triazole-4-carboxylic acid

$$$$
