
 OpenBabel10282417123D

 19 18  0  0  1  0  0  0  0  0999 V2000
    0.9249    0.0206    0.0637 C   0  0  0  0  0  0  0  0  0  0  0  0
    0.4270   -1.3952   -0.0400 C   0  0  0  0  0  0  0  0  0  0  0  0
   -0.2785   -1.9028    0.8270 O   0  0  0  0  0  0  0  0  0  0  0  0
    0.7898   -2.1187   -1.1388 N   0  0  0  0  0  0  0  0  0  0  0  0
    1.6163   -1.6845   -2.2710 C   0  0  1  0  0  0  0  0  0  0  0  0
    2.8983   -2.5247   -2.3563 C   0  0  0  0  0  0  0  0  0  0  0  0
    2.6637   -3.9090   -2.5864 O   0  0  0  0  0  0  0  0  0  0  0  0
    0.8248   -1.7743   -3.5810 C   0  0  0  0  0  0  0  0  0  0  0  0
    0.6485   -0.5947   -4.2238 O   0  0  0  0  0  0  0  0  0  0  0  0
    0.3238   -2.8077   -4.0085 O   0  0  0  0  0  0  0  0  0  0  0  0
    0.5557    0.4786    0.9851 H   0  0  0  0  0  0  0  0  0  0  0  0
    0.5531    0.6055   -0.7825 H   0  0  0  0  0  0  0  0  0  0  0  0
    2.0180    0.0330    0.0841 H   0  0  0  0  0  0  0  0  0  0  0  0
    0.3602   -3.0384   -1.1849 H   0  0  0  0  0  0  0  0  0  0  0  0
    1.9163   -0.6447   -2.1181 H   0  0  0  0  0  0  0  0  0  0  0  0
    3.5360   -2.1586   -3.1663 H   0  0  0  0  0  0  0  0  0  0  0  0
    3.4612   -2.4497   -1.4196 H   0  0  0  0  0  0  0  0  0  0  0  0
    2.0151   -4.2304   -1.9372 H   0  0  0  0  0  0  0  0  0  0  0  0
    0.9912    0.2097   -3.7928 H   0  0  0  0  0  0  0  0  0  0  0  0
  1  2  1  0  0  0  0
  1 11  1  0  0  0  0
  1 12  1  0  0  0  0
  1 13  1  0  0  0  0
  2  3  2  0  0  0  0
  2  4  1  0  0  0  0
  4 14  1  0  0  0  0
  5  4  1  0  0  0  0
  5  6  1  0  0  0  0
  5  8  1  0  0  0  0
  5 15  1  1  0  0  0
  6  7  1  0  0  0  0
  6 16  1  0  0  0  0
  6 17  1  0  0  0  0
  7 18  1  0  0  0  0
  8  9  1  0  0  0  0
  8 10  2  0  0  0  0
  9 19  1  0  0  0  0
M  END
>  <DRUGBANK_ID>
DB02340

>  <SECONDARY_ACCESSION_NUMBERS>
EXPT02839

>  <COMMON_NAME>
N-Acetyl-Serine

>  <CAS_NUMBER>
16354-58-8

>  <UNII>
W98518XGZ3

$$$$
