
 OpenBabel10282417213D

 35 34  0  0  0  0  0  0  0  0999 V2000
    0.9791    0.1145   -0.0074 C   0  0  0  0  0  0  0  0  0  0  0  0
   -0.7411    0.5503   -1.8436 C   0  0  0  0  0  0  0  0  0  0  0  0
    0.1436    1.1807   -0.7411 C   0  0  1  0  0  0  0  0  0  0  0  0
    5.9990    0.2457   -0.1910 C   0  0  0  0  0  0  0  0  0  0  0  0
    0.4585   -0.7601    0.6868 O   0  0  0  0  0  0  0  0  0  0  0  0
    7.1952    0.4355   -0.2703 O   0  0  0  0  0  0  0  0  0  0  0  0
    2.3306    0.1365   -0.1389 N   0  0  0  0  0  0  0  0  0  0  0  0
   -2.7043    0.1751   -0.4130 O   0  0  0  0  0  0  0  0  0  0  0  0
   -1.7747   -0.4467   -1.2879 C   0  0  0  0  0  0  0  0  0  0  0  0
    5.3683   -0.5496   -1.0788 O   0  0  0  0  0  0  0  0  0  0  0  0
   -0.5507    2.0016    0.1883 O   0  0  0  0  0  0  0  0  0  0  0  0
   -1.4792    1.6886   -2.5757 C   0  0  0  0  0  0  0  0  0  0  0  0
    0.1581   -0.1777   -2.8719 C   0  0  0  0  0  0  0  0  0  0  0  0
    5.0731    0.8379    0.8435 C   0  0  0  0  0  0  0  0  0  0  0  0
    3.1386    1.1626   -0.7631 C   0  0  0  0  0  0  0  0  0  0  0  0
    4.0692    1.8147    0.2444 C   0  0  0  0  0  0  0  0  0  0  0  0
    0.7774    1.8872   -1.2625 H   0  0  0  0  0  0  0  0  0  0  0  0
    2.7944   -0.6466    0.3124 H   0  0  0  0  0  0  0  0  0  0  0  0
   -2.2991    0.2162    0.4667 H   0  0  0  0  0  0  0  0  0  0  0  0
   -2.3539   -0.8788   -2.1091 H   0  0  0  0  0  0  0  0  0  0  0  0
   -1.3091   -1.2907   -0.7712 H   0  0  0  0  0  0  0  0  0  0  0  0
    6.0322   -0.7741   -1.7644 H   0  0  0  0  0  0  0  0  0  0  0  0
   -0.9465    1.4222    0.8561 H   0  0  0  0  0  0  0  0  0  0  0  0
   -0.7704    2.3935   -3.0267 H   0  0  0  0  0  0  0  0  0  0  0  0
   -2.1086    1.2908   -3.3779 H   0  0  0  0  0  0  0  0  0  0  0  0
   -2.1200    2.2569   -1.8941 H   0  0  0  0  0  0  0  0  0  0  0  0
    0.8869    0.5087   -3.3207 H   0  0  0  0  0  0  0  0  0  0  0  0
    0.7194   -1.0011   -2.4164 H   0  0  0  0  0  0  0  0  0  0  0  0
   -0.4384   -0.6036   -3.6857 H   0  0  0  0  0  0  0  0  0  0  0  0
    5.6852    1.3739    1.5766 H   0  0  0  0  0  0  0  0  0  0  0  0
    4.5769    0.0288    1.3893 H   0  0  0  0  0  0  0  0  0  0  0  0
    3.6475    0.7094   -1.6120 H   0  0  0  0  0  0  0  0  0  0  0  0
    2.5499    1.9581   -1.2044 H   0  0  0  0  0  0  0  0  0  0  0  0
    4.5925    2.6417   -0.2491 H   0  0  0  0  0  0  0  0  0  0  0  0
    3.4681    2.2579    1.0515 H   0  0  0  0  0  0  0  0  0  0  0  0
  2  3  1  0  0  0  0
  3  1  1  0  0  0  0
  3 11  1  0  0  0  0
  3 17  1  6  0  0  0
  4 14  1  0  0  0  0
  5  1  2  0  0  0  0
  6  4  2  0  0  0  0
  7  1  1  0  0  0  0
  7 18  1  0  0  0  0
  8  9  1  0  0  0  0
  8 19  1  0  0  0  0
  9  2  1  0  0  0  0
  9 20  1  0  0  0  0
  9 21  1  0  0  0  0
 10  4  1  0  0  0  0
 10 22  1  0  0  0  0
 11 23  1  0  0  0  0
 12  2  1  0  0  0  0
 12 24  1  0  0  0  0
 12 25  1  0  0  0  0
 12 26  1  0  0  0  0
 13  2  1  0  0  0  0
 13 27  1  0  0  0  0
 13 28  1  0  0  0  0
 13 29  1  0  0  0  0
 14 16  1  0  0  0  0
 14 30  1  0  0  0  0
 14 31  1  0  0  0  0
 15  7  1  0  0  0  0
 15 32  1  0  0  0  0
 15 33  1  0  0  0  0
 16 15  1  0  0  0  0
 16 34  1  0  0  0  0
 16 35  1  0  0  0  0
M  END
>  <DRUGBANK_ID>
DB14044

>  <COMMON_NAME>
Hopantenic acid

>  <CAS_NUMBER>
18679-90-8

>  <UNII>
H473MVB16U

>  <SYNONYMS>
Acide hopantenique; Acido hopantenico; Acidum hopantenicum; D-Homopantothenic acid; Hopantenic acid; Hopanteninsaeure; N-pantoyl-GABA; Pantocalcin

$$$$
