
 OpenBabel10282417113D

 48 50  0  0  0  0  0  0  0  0999 V2000
    1.1228    0.0534    0.3192 O   0  0  0  0  0  0  0  0  0  0  0  0
    0.7668    0.5139   -3.8876 O   0  0  0  0  0  0  0  0  0  0  0  0
    0.3035   -0.6503   -2.0615 O   0  0  0  0  0  0  0  0  0  0  0  0
    3.1921   -0.5797    1.0240 N   0  0  0  0  0  0  0  0  0  0  0  0
    5.0531   -1.0027    2.3119 C   0  0  1  0  0  0  0  0  0  0  0  0
    3.9022   -1.7962    2.9499 C   0  0  2  0  0  0  0  0  0  0  0  0
    4.3054    0.1276    1.6233 C   0  0  0  0  0  0  0  0  0  0  0  0
    2.8131   -1.7268    1.8549 C   0  0  0  0  0  0  0  0  0  0  0  0
    6.1161   -0.5438    3.2881 C   0  0  0  0  0  0  0  0  0  0  0  0
    3.3724   -1.1560    4.2430 C   0  0  0  0  0  0  0  0  0  0  0  0
    2.3333    0.0255    0.1336 C   0  0  0  0  0  0  0  0  0  0  0  0
    5.5334    0.1838    4.4901 C   0  0  0  0  0  0  0  0  0  0  0  0
    4.4344   -0.6075    5.1919 C   0  0  0  0  0  0  0  0  0  0  0  0
    2.9970    0.6108   -1.1196 C   0  0  0  0  0  0  0  0  0  0  0  0
    2.6490   -0.1410   -2.4317 C   0  0  1  0  0  0  0  0  0  0  0  0
    1.1545   -0.0999   -2.7526 C   0  0  0  0  0  0  0  0  0  0  0  0
    3.4999    0.3666   -3.6216 C   0  0  0  0  0  0  0  0  0  0  0  0
    4.9835    0.2611   -3.3997 C   0  0  0  0  0  0  0  0  0  0  0  0
    5.7393    1.4268   -3.2179 C   0  0  0  0  0  0  0  0  0  0  0  0
    5.5966   -0.9893   -3.2641 C   0  0  0  0  0  0  0  0  0  0  0  0
    7.0798    1.3422   -2.8554 C   0  0  0  0  0  0  0  0  0  0  0  0
    6.9230   -1.0692   -2.8478 C   0  0  0  0  0  0  0  0  0  0  0  0
    7.6691    0.0943   -2.6644 C   0  0  0  0  0  0  0  0  0  0  0  0
    5.5254   -1.6175    1.5317 H   0  0  0  0  0  0  0  0  0  0  0  0
    4.2090   -2.8302    3.1551 H   0  0  0  0  0  0  0  0  0  0  0  0
    2.8850   -1.2061   -2.2901 H   0  0  0  0  0  0  0  0  0  0  0  0
    1.4300    0.8515   -4.5108 H   0  0  0  0  0  0  0  0  0  0  0  0
    4.9041    0.6837    0.9034 H   0  0  0  0  0  0  0  0  0  0  0  0
    3.8915    0.8551    2.3353 H   0  0  0  0  0  0  0  0  0  0  0  0
    1.7957   -1.6459    2.2537 H   0  0  0  0  0  0  0  0  0  0  0  0
    2.8534   -2.6050    1.2011 H   0  0  0  0  0  0  0  0  0  0  0  0
    6.8197    0.1181    2.7693 H   0  0  0  0  0  0  0  0  0  0  0  0
    6.6892   -1.4153    3.6272 H   0  0  0  0  0  0  0  0  0  0  0  0
    2.7040   -0.3259    3.9854 H   0  0  0  0  0  0  0  0  0  0  0  0
    2.7466   -1.8854    4.7728 H   0  0  0  0  0  0  0  0  0  0  0  0
    5.1287    1.1496    4.1672 H   0  0  0  0  0  0  0  0  0  0  0  0
    6.3374    0.4119    5.1981 H   0  0  0  0  0  0  0  0  0  0  0  0
    3.9363    0.0570    5.9100 H   0  0  0  0  0  0  0  0  0  0  0  0
    4.8743   -1.4212    5.7791 H   0  0  0  0  0  0  0  0  0  0  0  0
    2.7536    1.6748   -1.1919 H   0  0  0  0  0  0  0  0  0  0  0  0
    4.0819    0.5522   -0.9788 H   0  0  0  0  0  0  0  0  0  0  0  0
    3.2532   -0.1922   -4.5350 H   0  0  0  0  0  0  0  0  0  0  0  0
    3.2483    1.4160   -3.8265 H   0  0  0  0  0  0  0  0  0  0  0  0
    5.2791    2.4068   -3.3252 H   0  0  0  0  0  0  0  0  0  0  0  0
    5.0369   -1.9048   -3.4445 H   0  0  0  0  0  0  0  0  0  0  0  0
    7.6544    2.2500   -2.6941 H   0  0  0  0  0  0  0  0  0  0  0  0
    7.3693   -2.0393   -2.6458 H   0  0  0  0  0  0  0  0  0  0  0  0
    8.7131    0.0275   -2.3724 H   0  0  0  0  0  0  0  0  0  0  0  0
  1 11  2  0  0  0  0
  2 16  1  0  0  0  0
  2 27  1  0  0  0  0
  3 16  2  0  0  0  0
  4  7  1  0  0  0  0
  4  8  1  0  0  0  0
  4 11  1  0  0  0  0
  5  6  1  0  0  0  0
  5  7  1  0  0  0  0
  5  9  1  0  0  0  0
  5 24  1  6  0  0  0
  6  8  1  0  0  0  0
  6 10  1  0  0  0  0
  6 25  1  1  0  0  0
  7 28  1  0  0  0  0
  7 29  1  0  0  0  0
  8 30  1  0  0  0  0
  8 31  1  0  0  0  0
  9 12  1  0  0  0  0
  9 32  1  0  0  0  0
  9 33  1  0  0  0  0
 10 13  1  0  0  0  0
 10 34  1  0  0  0  0
 10 35  1  0  0  0  0
 11 14  1  0  0  0  0
 12 13  1  0  0  0  0
 12 36  1  0  0  0  0
 12 37  1  0  0  0  0
 13 38  1  0  0  0  0
 13 39  1  0  0  0  0
 14 15  1  0  0  0  0
 14 40  1  0  0  0  0
 14 41  1  0  0  0  0
 15 16  1  0  0  0  0
 15 17  1  0  0  0  0
 15 26  1  1  0  0  0
 17 18  1  0  0  0  0
 17 42  1  0  0  0  0
 17 43  1  0  0  0  0
 18 19  2  0  0  0  0
 18 20  1  0  0  0  0
 19 21  1  0  0  0  0
 19 44  1  0  0  0  0
 20 22  2  0  0  0  0
 20 45  1  0  0  0  0
 21 23  2  0  0  0  0
 21 46  1  0  0  0  0
 22 23  1  0  0  0  0
 22 47  1  0  0  0  0
 23 48  1  0  0  0  0
M  END
>  <DRUGBANK_ID>
DB01252

>  <COMMON_NAME>
Mitiglinide

>  <CAS_NUMBER>
145375-43-5

>  <UNII>
D86I0XLB13

>  <SYNONYMS>
Mitiglinide

$$$$
