
 OpenBabel10282417203D

 22 22  0  0  0  0  0  0  0  0999 V2000
    1.7375    1.1776    0.0101 C   0  0  0  0  0  0  0  0  0  0  0  0
    0.3443    1.1824   -0.0114 C   0  0  0  0  0  0  0  0  0  0  0  0
    1.7146   -1.2518   -0.0056 C   0  0  0  0  0  0  0  0  0  0  0  0
    2.4245   -0.0381    0.0248 C   0  0  0  0  0  0  0  0  0  0  0  0
   -0.3850   -0.0151   -0.0230 C   0  0  0  0  0  0  0  0  0  0  0  0
    0.2959   -1.2396   -0.0382 C   0  0  0  0  0  0  0  0  0  0  0  0
   -2.0973    0.1903    0.0035 Cl  0  0  0  0  0  0  0  0  0  0  0  0
    4.6468   -0.7650    1.4384 N   0  0  0  0  0  0  0  0  0  0  0  0
   -0.0713   -3.5500   -1.4490 N   0  0  0  0  0  0  0  0  0  0  0  0
    4.6710   -0.7977   -1.0890 O   0  0  0  0  0  0  0  0  0  0  0  0
    4.6295    1.3794    0.1928 O   0  0  0  0  0  0  0  0  0  0  0  0
   -0.0396   -3.5819    1.0720 O   0  0  0  0  0  0  0  0  0  0  0  0
   -1.9853   -2.6346   -0.2149 O   0  0  0  0  0  0  0  0  0  0  0  0
    4.2057    0.0133    0.0148 S   0  0  0  0  0  0  0  0  0  0  0  0
   -0.5654   -2.7973   -0.0199 S   0  0  0  0  0  0  0  0  0  0  0  0
    2.2686    2.1287    0.0062 H   0  0  0  0  0  0  0  0  0  0  0  0
   -0.1785    2.1382   -0.0175 H   0  0  0  0  0  0  0  0  0  0  0  0
    2.2593   -2.1963   -0.0006 H   0  0  0  0  0  0  0  0  0  0  0  0
    5.6647   -0.8876    1.4302 H   0  0  0  0  0  0  0  0  0  0  0  0
    4.3704   -0.2297    2.2622 H   0  0  0  0  0  0  0  0  0  0  0  0
   -0.5012   -4.4823   -1.4545 H   0  0  0  0  0  0  0  0  0  0  0  0
   -0.4114   -3.0378   -2.2648 H   0  0  0  0  0  0  0  0  0  0  0  0
  1 16  1  0  0  0  0
  2  1  2  0  0  0  0
  2 17  1  0  0  0  0
  3 18  1  0  0  0  0
  4  1  1  0  0  0  0
  4  3  2  0  0  0  0
  5  2  1  0  0  0  0
  6  3  1  0  0  0  0
  6  5  2  0  0  0  0
  7  5  1  0  0  0  0
  8 19  1  0  0  0  0
  8 20  1  0  0  0  0
  9 21  1  0  0  0  0
  9 22  1  0  0  0  0
 14  4  1  0  0  0  0
 14  8  1  0  0  0  0
 14 10  2  0  0  0  0
 14 11  2  0  0  0  0
 15  6  1  0  0  0  0
 15  9  1  0  0  0  0
 15 12  2  0  0  0  0
 15 13  2  0  0  0  0
M  END
>  <DRUGBANK_ID>
DB13663

>  <COMMON_NAME>
Clofenamide

>  <CAS_NUMBER>
671-95-4

>  <UNII>
582ILN204B

>  <SYNONYMS>
Clofenamide

$$$$
