
 OpenBabel10282417133D

 63 66  0  0  0  0  0  0  0  0999 V2000
    0.8697    1.4621    0.6075 C   0  0  2  0  0  0  0  0  0  0  0  0
    2.0378    0.6350    0.3587 O   0  0  0  0  0  0  0  0  0  0  0  0
   -0.2856    0.8842   -0.1096 C   0  0  1  0  0  0  0  0  0  0  0  0
    0.1368   -0.5384   -0.1577 C   0  0  2  0  0  0  0  0  0  0  0  0
   -1.5335    1.1471    0.5587 O   0  0  0  0  0  0  0  0  0  0  0  0
   -0.3442   -1.2081    0.9996 O   0  0  0  0  0  0  0  0  0  0  0  0
    1.6226   -0.6004   -0.2581 C   0  0  1  0  0  0  0  0  0  0  0  0
    2.1236   -0.8278   -1.7332 C   0  0  0  0  0  0  0  0  0  0  0  0
    1.3373   -1.7441   -2.5724 O   0  0  0  0  0  0  0  0  0  0  0  0
    2.0874   -3.8852   -3.0034 O   0  0  0  0  0  0  0  0  0  0  0  0
    1.2796   -3.3125   -1.8445 P   0  0  3  0  0  0  0  0  0  0  0  0
    1.2219   -4.8808   -1.1165 O   0  0  0  0  0  0  0  0  0  0  0  0
   -0.3937   -3.4453   -2.2633 O   0  0  0  0  0  0  0  0  0  0  0  0
   -0.5817   -3.5826    0.0800 O   0  0  0  0  0  0  0  0  0  0  0  0
   -1.3621   -2.8126   -0.9769 P   0  0  3  0  0  0  0  0  0  0  0  0
   -2.3305   -2.1799    0.3094 O   0  0  0  0  0  0  0  0  0  0  0  0
   -2.5786   -3.7968   -1.4546 O   0  0  0  0  0  0  0  0  0  0  0  0
   -3.4534   -3.2917   -2.4406 C   0  0  1  0  0  0  0  0  0  0  0  0
   -3.4473   -1.8719   -2.5290 O   0  0  0  0  0  0  0  0  0  0  0  0
   -3.2032   -3.8167   -3.8776 C   0  0  1  0  0  0  0  0  0  0  0  0
   -4.1288   -3.1955   -4.7877 O   0  0  0  0  0  0  0  0  0  0  0  0
   -1.8053   -3.4443   -4.3742 C   0  0  1  0  0  0  0  0  0  0  0  0
   -1.5104   -3.8584   -5.6965 O   0  0  0  0  0  0  0  0  0  0  0  0
   -1.6305   -1.9023   -4.3319 C   0  0  2  0  0  0  0  0  0  0  0  0
   -0.2655   -1.4849   -4.4204 O   0  0  0  0  0  0  0  0  0  0  0  0
   -2.2935   -1.3150   -3.1328 C   0  0  1  0  0  0  0  0  0  0  0  0
   -1.8290    0.3203   -1.6730 O   0  0  0  0  0  0  0  0  0  0  0  0
   -2.2623    0.0887   -2.8040 C   0  0  0  0  0  0  0  0  0  0  0  0
   -2.6721    1.1197   -3.4649 O   0  0  0  0  0  0  0  0  0  0  0  0
    0.2433    3.8344    0.5708 C   0  0  0  0  0  0  0  0  0  0  0  0
    0.9902    2.7970    0.0500 N   0  0  0  0  0  0  0  0  0  0  0  0
    1.2794    3.1289   -1.2611 C   0  0  0  0  0  0  0  0  0  0  0  0
    0.7922    4.4064   -1.3982 C   0  0  0  0  0  0  0  0  0  0  0  0
    2.0168    2.9573   -3.3770 C   0  0  0  0  0  0  0  0  0  0  0  0
    2.5979    2.3304   -4.4320 N   0  0  0  0  0  0  0  0  0  0  0  0
    0.9867    5.0675   -2.6652 C   0  0  0  0  0  0  0  0  0  0  0  0
    0.6425    6.2150   -2.9237 O   0  0  0  0  0  0  0  0  0  0  0  0
    1.6299    4.2639   -3.5963 N   0  0  0  0  0  0  0  0  0  0  0  0
    1.8413    2.3526   -2.2290 N   0  0  0  0  0  0  0  0  0  0  0  0
    0.1399    4.8362   -0.2714 N   0  0  0  0  0  0  0  0  0  0  0  0
    0.5965    1.4830    1.6710 H   0  0  0  0  0  0  0  0  0  0  0  0
   -0.2943    1.3324   -1.1101 H   0  0  0  0  0  0  0  0  0  0  0  0
   -0.1962   -1.0142   -1.0536 H   0  0  0  0  0  0  0  0  0  0  0  0
   -1.9372    0.3093    0.8562 H   0  0  0  0  0  0  0  0  0  0  0  0
   -0.1299   -0.7159    1.8102 H   0  0  0  0  0  0  0  0  0  0  0  0
    1.9680   -1.4533    0.3425 H   0  0  0  0  0  0  0  0  0  0  0  0
    2.1661    0.1063   -2.2757 H   0  0  0  0  0  0  0  0  0  0  0  0
    3.1491   -1.2119   -1.6905 H   0  0  0  0  0  0  0  0  0  0  0  0
    0.7586   -5.4828   -1.7275 H   0  0  0  0  0  0  0  0  0  0  0  0
   -1.6760   -2.0193    1.0244 H   0  0  0  0  0  0  0  0  0  0  0  0
   -4.4662   -3.5725   -2.1222 H   0  0  0  0  0  0  0  0  0  0  0  0
   -3.3321   -4.8999   -3.9132 H   0  0  0  0  0  0  0  0  0  0  0  0
   -4.0916   -2.2293   -4.6492 H   0  0  0  0  0  0  0  0  0  0  0  0
   -1.1382   -4.1058   -3.8359 H   0  0  0  0  0  0  0  0  0  0  0  0
   -1.9799   -3.2367   -6.2695 H   0  0  0  0  0  0  0  0  0  0  0  0
   -2.1022   -1.4032   -5.1642 H   0  0  0  0  0  0  0  0  0  0  0  0
    0.3168   -1.9906   -3.8116 H   0  0  0  0  0  0  0  0  0  0  0  0
   -1.4551   -1.5223   -2.5093 H   0  0  0  0  0  0  0  0  0  0  0  0
   -2.3525    1.7971   -2.8084 H   0  0  0  0  0  0  0  0  0  0  0  0
   -0.2459    3.7593    1.5366 H   0  0  0  0  0  0  0  0  0  0  0  0
    2.9048    1.3690   -4.3407 H   0  0  0  0  0  0  0  0  0  0  0  0
    2.8042    2.7825   -5.3126 H   0  0  0  0  0  0  0  0  0  0  0  0
    1.8103    4.7067   -4.4803 H   0  0  0  0  0  0  0  0  0  0  0  0
  1 41  1  1  0  0  0
  1 31  1  0  0  0  0
  2  7  1  0  0  0  0
  2  1  1  0  0  0  0
  3  1  1  0  0  0  0
  3  5  1  0  0  0  0
  3 42  1  6  0  0  0
  4  3  1  0  0  0  0
  4  6  1  0  0  0  0
  4 43  1  6  0  0  0
  5 44  1  0  0  0  0
  6 45  1  0  0  0  0
  7  4  1  0  0  0  0
  7 46  1  1  0  0  0
  7  8  1  0  0  0  0
  8  9  1  0  0  0  0
  8 47  1  0  0  0  0
  8 48  1  0  0  0  0
  9 11  1  0  0  0  0
 11 13  1  0  0  0  0
 11 10  2  0  0  0  0
 11 12  1  0  0  0  0
 12 49  1  0  0  0  0
 13 15  1  0  0  0  0
 15 17  1  0  0  0  0
 15 14  2  0  0  0  0
 15 16  1  0  0  0  0
 16 50  1  0  0  0  0
 18 17  1  0  0  0  0
 18 51  1  1  0  0  0
 19 18  1  0  0  0  0
 19 26  1  0  0  0  0
 20 18  1  0  0  0  0
 20 21  1  0  0  0  0
 20 52  1  6  0  0  0
 21 53  1  0  0  0  0
 22 20  1  0  0  0  0
 22 23  1  0  0  0  0
 22 54  1  1  0  0  0
 23 55  1  0  0  0  0
 24 22  1  0  0  0  0
 24 25  1  0  0  0  0
 24 56  1  6  0  0  0
 25 57  1  0  0  0  0
 26 24  1  0  0  0  0
 26 28  1  0  0  0  0
 26 58  1  1  0  0  0
 28 27  2  0  0  0  0
 28 29  1  0  0  0  0
 29 59  1  0  0  0  0
 30 60  1  0  0  0  0
 31 30  1  0  0  0  0
 32 31  1  0  0  0  0
 32 33  2  0  0  0  0
 34 39  2  0  0  0  0
 34 35  1  0  0  0  0
 35 61  1  0  0  0  0
 35 62  1  0  0  0  0
 36 33  1  0  0  0  0
 36 38  1  0  0  0  0
 36 37  2  0  0  0  0
 38 34  1  0  0  0  0
 38 63  1  0  0  0  0
 39 32  1  0  0  0  0
 40 33  1  0  0  0  0
 40 30  2  0  0  0  0
M  END
>  <DRUGBANK_ID>
DB04023

>  <SECONDARY_ACCESSION_NUMBERS>
EXPT01577

>  <COMMON_NAME>
GDP-alpha-D-mannuronic acid

>  <SYNONYMS>
GDP-Î±-D-mannuronic acid

$$$$
