
 OpenBabel10282417133D

 48 50  0  0  0  0  0  0  0  0999 V2000
   -0.5869    4.2719    1.3095 P   0  0  0  0  0  0  0  0  0  0  0  0
    4.1405    0.5617    2.4331 P   0  0  3  0  0  0  0  0  0  0  0  0
    4.8846   -2.1352    2.8255 P   0  0  0  0  0  0  0  0  0  0  0  0
    2.7366    2.9199    1.2481 O   0  0  0  0  0  0  0  0  0  0  0  0
   -0.4172    3.0757    0.1997 O   0  0  0  0  0  0  0  0  0  0  0  0
    2.0447    5.3345   -0.5174 O   0  0  0  0  0  0  0  0  0  0  0  0
    2.4921    0.1552    2.7654 O   0  0  0  0  0  0  0  0  0  0  0  0
   -0.7945    5.5166    0.2851 O   0  0  0  0  0  0  0  0  0  0  0  0
    1.1128    4.5530    1.1520 O   0  0  0  0  0  0  0  0  0  0  0  0
   -2.1081    4.0202    1.4505 O   0  0  0  0  0  0  0  0  0  0  0  0
    4.3620   -0.9695    1.6590 O   0  0  0  0  0  0  0  0  0  0  0  0
    3.7979    1.2513    1.0877 O   0  0  0  0  0  0  0  0  0  0  0  0
    5.6159    0.9255    2.1357 O   0  0  0  0  0  0  0  0  0  0  0  0
    5.4975    2.3554   -5.4286 O   0  0  0  0  0  0  0  0  0  0  0  0
    3.5100   -1.8473    3.6505 O   0  0  0  0  0  0  0  0  0  0  0  0
    4.2656   -3.2319    1.7782 O   0  0  0  0  0  0  0  0  0  0  0  0
    5.3524   -3.1785    3.8696 O   0  0  0  0  0  0  0  0  0  0  0  0
    3.8018    2.7420   -1.2294 N   0  0  0  0  0  0  0  0  0  0  0  0
    3.5227    4.6587   -2.7782 N   0  0  0  0  0  0  0  0  0  0  0  0
    4.9119    1.4258   -2.6315 N   0  0  0  0  0  0  0  0  0  0  0  0
    4.3453    4.3088   -4.9700 N   0  0  0  0  0  0  0  0  0  0  0  0
    3.2019    6.2341   -4.3959 N   0  0  0  0  0  0  0  0  0  0  0  0
    0.8842    2.6350   -0.0652 C   0  0  1  0  0  0  0  0  0  0  0  0
    1.8123    3.8644   -0.7374 C   0  0  2  0  0  0  0  0  0  0  0  0
    3.1074    3.4220   -0.1533 C   0  0  1  0  0  0  0  0  0  0  0  0
    1.5137    2.0932    1.2492 C   0  0  1  0  0  0  0  0  0  0  0  0
    1.6167    0.5077    1.5865 C   0  0  0  0  0  0  0  0  0  0  0  0
    3.9501    3.4291   -2.4165 C   0  0  0  0  0  0  0  0  0  0  0  0
    4.4316    1.5554   -1.4099 C   0  0  0  0  0  0  0  0  0  0  0  0
    4.6058    2.5994   -3.2707 C   0  0  0  0  0  0  0  0  0  0  0  0
    4.8614    3.0572   -4.6252 C   0  0  0  0  0  0  0  0  0  0  0  0
    3.7188    5.0258   -4.0786 C   0  0  0  0  0  0  0  0  0  0  0  0
    2.0488    5.4594    0.4663 H   0  0  0  0  0  0  0  0  0  0  0  0
   -1.7597    5.5886    0.1370 H   0  0  0  0  0  0  0  0  0  0  0  0
    1.6305    4.1501    1.8822 H   0  0  0  0  0  0  0  0  0  0  0  0
    3.7845    2.1531    1.4755 H   0  0  0  0  0  0  0  0  0  0  0  0
    3.6831   -1.4208    4.5065 H   0  0  0  0  0  0  0  0  0  0  0  0
    4.4449   -2.9604    0.8598 H   0  0  0  0  0  0  0  0  0  0  0  0
    3.0053    5.3057   -2.1742 H   0  0  0  0  0  0  0  0  0  0  0  0
    2.6769    6.8219   -3.7645 H   0  0  0  0  0  0  0  0  0  0  0  0
    3.3466    6.5719   -5.3393 H   0  0  0  0  0  0  0  0  0  0  0  0
    0.8525    1.8032   -0.7749 H   0  0  0  0  0  0  0  0  0  0  0  0
    1.4811    3.9260   -1.7656 H   0  0  0  0  0  0  0  0  0  0  0  0
    3.8406    4.1897    0.1403 H   0  0  0  0  0  0  0  0  0  0  0  0
    0.9872    2.3999    2.1689 H   0  0  0  0  0  0  0  0  0  0  0  0
    0.6211    0.1255    1.8388 H   0  0  0  0  0  0  0  0  0  0  0  0
    1.9717   -0.0607    0.7199 H   0  0  0  0  0  0  0  0  0  0  0  0
    4.5611    0.7821   -0.6718 H   0  0  0  0  0  0  0  0  0  0  0  0
  1  5  1  0  0  0  0
  1  8  1  0  0  0  0
  1  9  1  0  0  0  0
  1 10  2  0  0  0  0
  2  7  1  0  0  0  0
  2 11  1  0  0  0  0
  2 12  1  0  0  0  0
  2 13  2  0  0  0  0
  3 11  1  0  0  0  0
  3 15  1  0  0  0  0
  3 16  1  0  0  0  0
  3 17  2  0  0  0  0
  4 25  1  0  0  0  0
  4 26  1  0  0  0  0
  6 33  1  0  0  0  0
  7 27  1  0  0  0  0
  8 34  1  0  0  0  0
  9 35  1  0  0  0  0
 12 36  1  0  0  0  0
 14 31  2  0  0  0  0
 15 37  1  0  0  0  0
 16 38  1  0  0  0  0
 18 28  1  0  0  0  0
 18 29  1  0  0  0  0
 19 28  1  0  0  0  0
 19 32  1  0  0  0  0
 19 39  1  0  0  0  0
 20 29  2  0  0  0  0
 20 30  1  0  0  0  0
 21 31  1  0  0  0  0
 21 32  2  0  0  0  0
 22 32  1  0  0  0  0
 22 40  1  0  0  0  0
 22 41  1  0  0  0  0
 23 24  1  0  0  0  0
 23 26  1  0  0  0  0
 23 42  1  6  0  0  0
 23  5  1  0  0  0  0
 24  6  1  0  0  0  0
 24 25  1  0  0  0  0
 24 43  1  6  0  0  0
 25 18  1  0  0  0  0
 25 44  1  1  0  0  0
 26 27  1  0  0  0  0
 26 45  1  1  0  0  0
 27 46  1  0  0  0  0
 27 47  1  0  0  0  0
 28 30  2  0  0  0  0
 29 48  1  0  0  0  0
 30 31  1  0  0  0  0
M  END
>  <DRUGBANK_ID>
DB04121

>  <SECONDARY_ACCESSION_NUMBERS>
EXPT01529

>  <COMMON_NAME>
Guanosine-3'-monophosphate-5'-diphosphate

>  <SYNONYMS>
Guanosine 3'-(dihydrogen phosphate) 5'-(trihydrogen diphosphate)

$$$$
