
 OpenBabel10282417183D

 72 72  0  0  0  0  0  0  0  0999 V2000
    1.1045   -0.0387   -0.0416 N   0  3  0  0  0  0  0  0  0  0  0  0
    0.6385    0.7179    1.2139 C   0  0  0  0  0  0  0  0  0  0  0  0
    1.1376    2.1660    1.2892 C   0  0  0  0  0  0  0  0  0  0  0  0
    0.5277    0.5625   -1.3400 C   0  0  0  0  0  0  0  0  0  0  0  0
    0.5942    3.1044    0.2152 C   0  0  0  0  0  0  0  0  0  0  0  0
    0.6105   -1.4678    0.1000 C   0  0  0  0  0  0  0  0  0  0  0  0
    2.6278   -0.0326   -0.0824 C   0  0  0  0  0  0  0  0  0  0  0  0
   -0.9339    2.9937    0.1461 C   0  0  0  0  0  0  0  0  0  0  0  0
   -1.4904    3.6181    1.4164 C   0  0  0  0  0  0  0  0  0  0  0  0
   -1.0068    5.0675    1.4882 C   0  0  0  0  0  0  0  0  0  0  0  0
   -1.4773    5.8110    0.2311 C   0  0  0  0  0  0  0  0  0  0  0  0
    0.9517    0.0070   -2.6492 C   0  0  0  0  0  0  0  0  0  0  0  0
   -3.0066    5.7921    0.2043 C   0  0  0  0  0  0  0  0  0  0  0  0
   -3.5258    6.4412    1.4907 C   0  0  0  0  0  0  0  0  0  0  0  0
   -3.0016    7.8787    1.5763 C   0  0  0  0  0  0  0  0  0  0  0  0
   -3.5013    8.6737    0.3673 C   0  0  0  0  0  0  0  0  0  0  0  0
   -5.0324    8.6781    0.3525 C   0  0  0  0  0  0  0  0  0  0  0  0
    1.7307    0.7862   -3.5294 C   0  0  0  0  0  0  0  0  0  0  0  0
    0.6103   -1.2969   -2.9957 C   0  0  0  0  0  0  0  0  0  0  0  0
   -5.5703    9.3247    1.6337 C   0  0  0  0  0  0  0  0  0  0  0  0
   -5.1057   10.7807    1.7456 C   0  0  0  0  0  0  0  0  0  0  0  0
    2.2311    0.2235   -4.6828 C   0  0  0  0  0  0  0  0  0  0  0  0
    1.2241   -1.8923   -4.0671 C   0  0  0  0  0  0  0  0  0  0  0  0
   -5.5705   11.6101    0.5478 C   0  0  0  0  0  0  0  0  0  0  0  0
    2.0112   -1.1331   -4.9339 C   0  0  0  0  0  0  0  0  0  0  0  0
   -7.0880   11.6151    0.4594 C   0  0  0  0  0  0  0  0  0  0  0  0
   -0.4538    0.6334    1.2644 H   0  0  0  0  0  0  0  0  0  0  0  0
    1.0198    0.1670    2.0823 H   0  0  0  0  0  0  0  0  0  0  0  0
    0.8434    2.5581    2.2715 H   0  0  0  0  0  0  0  0  0  0  0  0
    2.2269    2.2240    1.3119 H   0  0  0  0  0  0  0  0  0  0  0  0
   -0.5604    0.6319   -1.2645 H   0  0  0  0  0  0  0  0  0  0  0  0
    0.9590    1.5325   -1.3971 H   0  0  0  0  0  0  0  0  0  0  0  0
    0.9546    4.1078    0.4293 H   0  0  0  0  0  0  0  0  0  0  0  0
    1.0596    3.0439   -0.7618 H   0  0  0  0  0  0  0  0  0  0  0  0
    1.0957   -2.0815   -0.6580 H   0  0  0  0  0  0  0  0  0  0  0  0
    0.8952   -1.8518    1.0807 H   0  0  0  0  0  0  0  0  0  0  0  0
   -0.4792   -1.4645   -0.0147 H   0  0  0  0  0  0  0  0  0  0  0  0
    2.9820    0.9998   -0.1394 H   0  0  0  0  0  0  0  0  0  0  0  0
    2.9891   -0.5105    0.8323 H   0  0  0  0  0  0  0  0  0  0  0  0
    2.9681   -0.5761   -0.9633 H   0  0  0  0  0  0  0  0  0  0  0  0
   -1.3127    3.4543   -0.7726 H   0  0  0  0  0  0  0  0  0  0  0  0
   -1.3243    1.9785    0.0699 H   0  0  0  0  0  0  0  0  0  0  0  0
   -2.5810    3.5301    1.4280 H   0  0  0  0  0  0  0  0  0  0  0  0
   -1.1762    3.0651    2.3050 H   0  0  0  0  0  0  0  0  0  0  0  0
   -1.3408    5.5209    2.4210 H   0  0  0  0  0  0  0  0  0  0  0  0
    0.0745    5.1636    1.5912 H   0  0  0  0  0  0  0  0  0  0  0  0
   -1.0615    6.8212    0.2207 H   0  0  0  0  0  0  0  0  0  0  0  0
   -1.0854    5.3905   -0.7000 H   0  0  0  0  0  0  0  0  0  0  0  0
   -3.3708    6.2888   -0.6984 H   0  0  0  0  0  0  0  0  0  0  0  0
   -3.4113    4.7804    0.1079 H   0  0  0  0  0  0  0  0  0  0  0  0
   -4.6154    6.3827    1.5235 H   0  0  0  0  0  0  0  0  0  0  0  0
   -3.2346    5.8882    2.3879 H   0  0  0  0  0  0  0  0  0  0  0  0
   -3.3026    8.3266    2.5260 H   0  0  0  0  0  0  0  0  0  0  0  0
   -1.9092    7.9260    1.6220 H   0  0  0  0  0  0  0  0  0  0  0  0
   -3.0843    9.6835    0.3896 H   0  0  0  0  0  0  0  0  0  0  0  0
   -3.1251    8.2668   -0.5769 H   0  0  0  0  0  0  0  0  0  0  0  0
   -5.3914    9.1825   -0.5476 H   0  0  0  0  0  0  0  0  0  0  0  0
   -5.4423    7.6676    0.2530 H   0  0  0  0  0  0  0  0  0  0  0  0
    1.9548    1.8367   -3.3165 H   0  0  0  0  0  0  0  0  0  0  0  0
   -0.0973   -1.8636   -2.3966 H   0  0  0  0  0  0  0  0  0  0  0  0
   -6.6598    9.2467    1.6559 H   0  0  0  0  0  0  0  0  0  0  0  0
   -5.2570    8.7732    2.5268 H   0  0  0  0  0  0  0  0  0  0  0  0
   -5.4809   11.2133    2.6778 H   0  0  0  0  0  0  0  0  0  0  0  0
   -4.0128   10.8368    1.8237 H   0  0  0  0  0  0  0  0  0  0  0  0
    2.8159    0.8217   -5.3798 H   0  0  0  0  0  0  0  0  0  0  0  0
    1.0883   -2.9593   -4.2320 H   0  0  0  0  0  0  0  0  0  0  0  0
   -5.1927   12.6319    0.6411 H   0  0  0  0  0  0  0  0  0  0  0  0
   -5.1477   11.2261   -0.3884 H   0  0  0  0  0  0  0  0  0  0  0  0
    2.4317   -1.5955   -5.8147 H   0  0  0  0  0  0  0  0  0  0  0  0
   -7.5116   12.0314    1.3780 H   0  0  0  0  0  0  0  0  0  0  0  0
   -7.4241   12.2061   -0.3932 H   0  0  0  0  0  0  0  0  0  0  0  0
   -7.4962   10.6077    0.3269 H   0  0  0  0  0  0  0  0  0  0  0  0
  1  2  1  0  0  0  0
  1  4  1  0  0  0  0
  1  6  1  0  0  0  0
  1  7  1  0  0  0  0
  2  3  1  0  0  0  0
  2 27  1  0  0  0  0
  2 28  1  0  0  0  0
  3  5  1  0  0  0  0
  3 29  1  0  0  0  0
  3 30  1  0  0  0  0
  4 12  1  0  0  0  0
  4 31  1  0  0  0  0
  4 32  1  0  0  0  0
  5  8  1  0  0  0  0
  5 33  1  0  0  0  0
  5 34  1  0  0  0  0
  6 35  1  0  0  0  0
  6 36  1  0  0  0  0
  6 37  1  0  0  0  0
  7 38  1  0  0  0  0
  7 39  1  0  0  0  0
  7 40  1  0  0  0  0
  8  9  1  0  0  0  0
  8 41  1  0  0  0  0
  8 42  1  0  0  0  0
  9 10  1  0  0  0  0
  9 43  1  0  0  0  0
  9 44  1  0  0  0  0
 10 11  1  0  0  0  0
 10 45  1  0  0  0  0
 10 46  1  0  0  0  0
 11 13  1  0  0  0  0
 11 47  1  0  0  0  0
 11 48  1  0  0  0  0
 12 18  2  0  0  0  0
 12 19  1  0  0  0  0
 13 14  1  0  0  0  0
 13 49  1  0  0  0  0
 13 50  1  0  0  0  0
 14 15  1  0  0  0  0
 14 51  1  0  0  0  0
 14 52  1  0  0  0  0
 15 16  1  0  0  0  0
 15 53  1  0  0  0  0
 15 54  1  0  0  0  0
 16 17  1  0  0  0  0
 16 55  1  0  0  0  0
 16 56  1  0  0  0  0
 17 20  1  0  0  0  0
 17 57  1  0  0  0  0
 17 58  1  0  0  0  0
 18 22  1  0  0  0  0
 18 59  1  0  0  0  0
 19 23  2  0  0  0  0
 19 60  1  0  0  0  0
 20 21  1  0  0  0  0
 20 61  1  0  0  0  0
 20 62  1  0  0  0  0
 21 24  1  0  0  0  0
 21 63  1  0  0  0  0
 21 64  1  0  0  0  0
 22 25  2  0  0  0  0
 22 65  1  0  0  0  0
 23 25  1  0  0  0  0
 23 66  1  0  0  0  0
 24 26  1  0  0  0  0
 24 67  1  0  0  0  0
 24 68  1  0  0  0  0
 25 69  1  0  0  0  0
 26 70  1  0  0  0  0
 26 71  1  0  0  0  0
 26 72  1  0  0  0  0
M  CHG  1   1   1
M  END
>  <DRUGBANK_ID>
DB11583

>  <COMMON_NAME>
Cetalkonium

>  <CAS_NUMBER>
10328-34-4

>  <UNII>
FHG725432Z

>  <SYNONYMS>
Benzylhexadecyldimethylammonium; Cetalkonium cation; Cetalkonium ion

$$$$
