
 OpenBabel10282417213D

 20 19  0  0  0  0  0  0  0  0999 V2000
    0.7823   -0.0806    0.1195 O   0  0  0  0  0  0  0  0  0  0  0  0
    2.0045   -0.1230   -0.0033 C   0  0  0  0  0  0  0  0  0  0  0  0
    2.7406   -0.9038    0.8198 O   0  0  0  0  0  0  0  0  0  0  0  0
    2.7937    0.7172   -1.0265 C   0  0  3  0  0  0  0  0  0  0  0  0
    2.4714    0.3322   -2.4090 N   0  0  0  0  0  0  0  0  0  0  0  0
    2.5917    2.2102   -0.7684 C   0  0  0  0  0  0  0  0  0  0  0  0
    3.0624    2.6349    0.6278 C   0  0  0  0  0  0  0  0  0  0  0  0
    4.8993    2.6486    0.8606 S   0  0  0  0  0  0  0  0  0  0  0  0
    5.4046    0.9012    0.8711 C   0  0  0  0  0  0  0  0  0  0  0  0
    3.6953   -0.9803    0.6550 H   0  0  0  0  0  0  0  0  0  0  0  0
    3.8416    0.4952   -0.9772 H   0  0  0  0  0  0  0  0  0  0  0  0
    3.0390    0.8918   -3.0471 H   0  0  0  0  0  0  0  0  0  0  0  0
    2.7671   -0.6343   -2.5526 H   0  0  0  0  0  0  0  0  0  0  0  0
    3.1117    2.8166   -1.5225 H   0  0  0  0  0  0  0  0  0  0  0  0
    1.5245    2.4558   -0.8736 H   0  0  0  0  0  0  0  0  0  0  0  0
    2.7507    3.6794    0.7706 H   0  0  0  0  0  0  0  0  0  0  0  0
    2.5599    2.0725    1.4226 H   0  0  0  0  0  0  0  0  0  0  0  0
    4.8381    0.3327    1.6090 H   0  0  0  0  0  0  0  0  0  0  0  0
    5.3708    0.4205   -0.1070 H   0  0  0  0  0  0  0  0  0  0  0  0
    6.4616    0.8234    1.1297 H   0  0  0  0  0  0  0  0  0  0  0  0
  2  1  2  0  0  0  0
  3  2  1  0  0  0  0
  3 10  1  0  0  0  0
  4  2  1  0  0  0  0
  4  5  1  0  0  0  0
  4 11  1  0  0  0  0
  5 12  1  0  0  0  0
  5 13  1  0  0  0  0
  6  4  1  0  0  0  0
  6 14  1  0  0  0  0
  6 15  1  0  0  0  0
  7  6  1  0  0  0  0
  7 16  1  0  0  0  0
  7 17  1  0  0  0  0
  8  7  1  0  0  0  0
  9  8  1  0  0  0  0
  9 18  1  0  0  0  0
  9 19  1  0  0  0  0
  9 20  1  0  0  0  0
M  END
>  <DRUGBANK_ID>
DB13972

>  <COMMON_NAME>
Racemethionine

>  <CAS_NUMBER>
59-51-8

>  <UNII>
73JWT2K6T3

>  <SYNONYMS>
(+-)-Methionine; DL-Methionine; DL-Methioninum; metionina; Racemethionine

$$$$
