
 OpenBabel10282417123D

 45 47  0  0  0  0  0  0  0  0999 V2000
    3.6041    2.1924    1.8108 N   0  0  0  0  0  0  0  0  0  0  0  0
    4.7162    2.9679    1.9516 C   0  0  0  0  0  0  0  0  0  0  0  0
    2.4482    2.8652    1.2790 C   0  0  2  0  0  0  0  0  0  0  0  0
    3.9985    0.8818    1.6681 C   0  0  0  0  0  0  0  0  0  0  0  0
    5.7692    2.0626    1.8510 C   0  0  0  0  0  0  0  0  0  0  0  0
    4.8031    4.2985    1.8648 N   0  0  0  0  0  0  0  0  0  0  0  0
    2.9685    3.3766    0.0367 O   0  0  0  0  0  0  0  0  0  0  0  0
    1.9846    4.1183    2.0404 C   0  0  0  0  0  0  0  0  0  0  0  0
    5.3111    0.7712    1.7260 N   0  0  0  0  0  0  0  0  0  0  0  0
    7.0125    2.6690    1.8393 C   0  0  0  0  0  0  0  0  0  0  0  0
    6.0357    4.7382    1.5960 C   0  0  0  0  0  0  0  0  0  0  0  0
    2.8982    4.8422   -0.0273 C   0  0  1  0  0  0  0  0  0  0  0  0
    2.5177    5.4543    1.2748 C   0  0  0  0  0  0  0  0  0  0  0  0
    7.1554    4.0132    1.7090 N   0  0  0  0  0  0  0  0  0  0  0  0
    8.1456    1.8759    1.9427 N   0  0  0  0  0  0  0  0  0  0  0  0
    3.2445    5.5088   -1.7911 C   0  0  0  0  0  0  0  0  0  0  0  0
    3.5148    4.2039   -2.8339 O   0  0  0  0  0  0  0  0  0  0  0  0
    4.6051    3.7443   -1.5718 P   0  0  3  0  0  0  0  0  0  0  0  0
    4.3011    2.1978   -1.9089 O   0  0  0  0  0  0  0  0  0  0  0  0
    5.7512    4.0486   -2.6999 O   0  0  0  0  0  0  0  0  0  0  0  0
    5.5810    3.3330   -0.4423 O   0  0  0  0  0  0  0  0  0  0  0  0
    3.0491    1.2985   -1.5946 P   0  0  3  0  0  0  0  0  0  0  0  0
    1.8795    2.1858   -2.1320 O   0  0  0  0  0  0  0  0  0  0  0  0
    3.4808    0.0803   -2.5370 O   0  0  0  0  0  0  0  0  0  0  0  0
    2.5214    0.6615   -0.3643 O   0  0  0  0  0  0  0  0  0  0  0  0
    1.5052    3.8134   -1.6807 P   0  0  0  0  0  0  0  0  0  0  0  0
    0.6531    3.8699   -3.0832 O   0  0  0  0  0  0  0  0  0  0  0  0
    0.2635    3.1541   -0.8183 O   0  0  0  0  0  0  0  0  0  0  0  0
    1.1703    5.2701   -1.2767 O   0  0  0  0  0  0  0  0  0  0  0  0
    1.6294    2.1447    1.0938 H   0  0  0  0  0  0  0  0  0  0  0  0
    3.3419    0.0469    1.4328 H   0  0  0  0  0  0  0  0  0  0  0  0
    0.8811    4.0703    1.9733 H   0  0  0  0  0  0  0  0  0  0  0  0
    2.2735    4.0371    3.0801 H   0  0  0  0  0  0  0  0  0  0  0  0
    6.1029    5.7070    1.1012 H   0  0  0  0  0  0  0  0  0  0  0  0
    1.8474    4.6895    0.0974 H   0  0  0  0  0  0  0  0  0  0  0  0
    1.6860    6.1757    1.1702 H   0  0  0  0  0  0  0  0  0  0  0  0
    3.4063    5.9982    1.5430 H   0  0  0  0  0  0  0  0  0  0  0  0
    7.8773    0.9782    2.3315 H   0  0  0  0  0  0  0  0  0  0  0  0
    8.8834    2.4102    2.3693 H   0  0  0  0  0  0  0  0  0  0  0  0
    2.4742    5.9854   -2.4320 H   0  0  0  0  0  0  0  0  0  0  0  0
    4.0538    6.2334   -1.8161 H   0  0  0  0  0  0  0  0  0  0  0  0
    5.5881    4.8825   -3.1745 H   0  0  0  0  0  0  0  0  0  0  0  0
    4.2536   -0.3090   -2.0525 H   0  0  0  0  0  0  0  0  0  0  0  0
    1.1722    4.2072   -3.8334 H   0  0  0  0  0  0  0  0  0  0  0  0
    0.3226    2.1815   -0.7812 H   0  0  0  0  0  0  0  0  0  0  0  0
  1  2  1  0  0  0  0
  1  4  1  0  0  0  0
  2  5  1  0  0  0  0
  2  6  2  0  0  0  0
  3  7  1  0  0  0  0
  3  8  1  0  0  0  0
  3 30  1  6  0  0  0
  3  1  1  0  0  0  0
  4  9  2  0  0  0  0
  4 31  1  0  0  0  0
  5 10  2  0  0  0  0
  5  9  1  0  0  0  0
  6 11  1  0  0  0  0
  7 12  1  0  0  0  0
  8 13  1  0  0  0  0
  8 32  1  0  0  0  0
  8 33  1  0  0  0  0
 10 14  1  0  0  0  0
 10 15  1  0  0  0  0
 11 14  2  0  0  0  0
 11 34  1  0  0  0  0
 12 13  1  0  0  0  0
 12 35  1  6  0  0  0
 12 16  1  0  0  0  0
 13 36  1  0  0  0  0
 13 37  1  0  0  0  0
 15 38  1  0  0  0  0
 15 39  1  0  0  0  0
 16 17  1  0  0  0  0
 16 40  1  0  0  0  0
 16 41  1  0  0  0  0
 17 18  1  0  0  0  0
 18 19  1  0  0  0  0
 18 20  1  0  0  0  0
 18 21  2  0  0  0  0
 19 22  1  0  0  0  0
 20 42  1  0  0  0  0
 22 23  1  0  0  0  0
 22 24  1  0  0  0  0
 22 25  2  0  0  0  0
 23 26  1  0  0  0  0
 24 43  1  0  0  0  0
 26 27  1  0  0  0  0
 26 28  1  0  0  0  0
 26 29  2  0  0  0  0
 27 44  1  0  0  0  0
 28 45  1  0  0  0  0
M  END
>  <DRUGBANK_ID>
DB02189

>  <SECONDARY_ACCESSION_NUMBERS>
EXPT01104

>  <COMMON_NAME>
2',3'-Dideoxyadenosine triphosphate

>  <CAS_NUMBER>
24027-80-3

>  <UNII>
9MCI2H1EJ6

>  <SYNONYMS>
2',3'-DDATP; 2',3'-Dideoxy-ATP; 2',3'-dideoxyadenosine 5'-triphosphate; 2',3'-dideoxyadenosine triphosphate; DDATP; Dideoxyadenosine 5'-triphosphate

$$$$
