
 OpenBabel10282417203D

 23 23  0  0  0  0  0  0  0  0999 V2000
    0.0669   -2.3249    0.0019 C   0  0  0  0  0  0  0  0  0  0  0  0
    1.3120   -1.6722    0.0072 C   0  0  0  0  0  0  0  0  0  0  0  0
    1.4090   -0.2872    0.0073 C   0  0  0  0  0  0  0  0  0  0  0  0
    0.2318    0.4289    0.0069 C   0  0  0  0  0  0  0  0  0  0  0  0
   -1.0477   -0.2373    0.0029 C   0  0  0  0  0  0  0  0  0  0  0  0
   -1.1186   -1.6121   -0.0011 C   0  0  0  0  0  0  0  0  0  0  0  0
   -2.6292    0.5278    0.0048 Cl  0  0  0  0  0  0  0  0  0  0  0  0
    0.1837    1.8739   -0.0052 C   0  0  0  0  0  0  0  0  0  0  0  0
    1.0487    2.8474    0.0229 N   0  0  0  0  0  0  0  0  0  0  0  0
    0.7858    4.2509    0.0080 N   0  0  0  0  0  0  0  0  0  0  0  0
   -0.2314    5.2364   -0.0013 C   0  0  0  0  0  0  0  0  0  0  0  0
   -0.0028    6.5135    0.0042 N   0  0  0  0  0  0  0  0  0  0  0  0
   -1.5650    4.9477   -0.0174 N   0  0  0  0  0  0  0  0  0  0  0  0
   -1.9050    3.6624   -0.0206 O   0  0  0  0  0  0  0  0  0  0  0  0
    2.9710    0.4368    0.0035 Cl  0  0  0  0  0  0  0  0  0  0  0  0
    0.0195   -3.4066    0.0010 H   0  0  0  0  0  0  0  0  0  0  0  0
    2.2224   -2.2608    0.0114 H   0  0  0  0  0  0  0  0  0  0  0  0
   -2.0879   -2.1081   -0.0044 H   0  0  0  0  0  0  0  0  0  0  0  0
   -0.8567    1.9903   -0.0509 H   0  0  0  0  0  0  0  0  0  0  0  0
    1.6948    4.7231    0.0218 H   0  0  0  0  0  0  0  0  0  0  0  0
    0.9874    6.7302    0.0161 H   0  0  0  0  0  0  0  0  0  0  0  0
   -2.3067    5.6270   -0.0242 H   0  0  0  0  0  0  0  0  0  0  0  0
   -0.9750    3.4196    0.0058 H   0  0  0  0  0  0  0  0  0  0  0  0
  1  2  2  0  0  0  0
  1  6  1  0  0  0  0
  1 16  1  0  0  0  0
  2  3  1  0  0  0  0
  2 17  1  0  0  0  0
  3  4  2  0  0  0  0
  3 15  1  0  0  0  0
  4  5  1  0  0  0  0
  4  8  1  0  0  0  0
  5  6  2  0  0  0  0
  5  7  1  0  0  0  0
  6 18  1  0  0  0  0
  8  9  2  0  0  0  0
  8 19  1  0  0  0  0
  9 10  1  0  0  0  0
 10 11  1  0  0  0  0
 10 20  1  0  0  0  0
 11 12  2  0  0  0  0
 11 13  1  0  0  0  0
 12 21  1  0  0  0  0
 13 14  1  0  0  0  0
 13 22  1  0  0  0  0
 14 23  1  0  0  0  0
M  END
>  <DRUGBANK_ID>
DB13410

>  <COMMON_NAME>
Guanoxabenz

>  <CAS_NUMBER>
24047-25-4

>  <UNII>
P9HIK5V7WK

>  <SYNONYMS>
Guanoxabenz

$$$$
