
 OpenBabel10282417143D

 19 20  0  0  1  0  0  0  0  0999 V2000
    7.9917    5.3039   -0.5054 O   0  5  0  0  0  0  0  0  0  0  0  0
    7.6744    5.7299    0.6182 N   0  3  0  0  0  0  0  0  0  0  0  0
    7.8385    6.8884    1.0139 O   0  0  0  0  0  0  0  0  0  0  0  0
    7.1090    4.7746    1.5642 C   0  0  0  0  0  0  0  0  0  0  0  0
    7.6458    3.4906    1.6215 C   0  0  0  0  0  0  0  0  0  0  0  0
    7.1841    2.6048    2.5968 C   0  0  0  0  0  0  0  0  0  0  0  0
    6.1673    2.9606    3.5040 C   0  0  0  0  0  0  0  0  0  0  0  0
    5.6825    4.2835    3.4513 C   0  0  0  0  0  0  0  0  0  0  0  0
    6.1116    5.1781    2.4575 C   0  0  0  0  0  0  0  0  0  0  0  0
    5.4773    1.8715    4.2864 C   0  0  1  0  0  0  0  0  0  0  0  0
    6.1391    1.1129    5.4116 C   0  0  0  0  0  0  0  0  0  0  0  0
    5.1000    2.0717    5.6536 O   0  0  0  0  0  0  0  0  0  0  0  0
    8.4002    3.1643    0.9096 H   0  0  0  0  0  0  0  0  0  0  0  0
    7.5873    1.5944    2.6204 H   0  0  0  0  0  0  0  0  0  0  0  0
    4.9264    4.6096    4.1658 H   0  0  0  0  0  0  0  0  0  0  0  0
    5.6488    6.1599    2.3734 H   0  0  0  0  0  0  0  0  0  0  0  0
    4.7722    1.3049    3.6840 H   0  0  0  0  0  0  0  0  0  0  0  0
    5.9102    0.0526    5.4720 H   0  0  0  0  0  0  0  0  0  0  0  0
    7.1095    1.3760    5.8082 H   0  0  0  0  0  0  0  0  0  0  0  0
  1  2  1  0  0  0  0
  2  3  2  0  0  0  0
  2  4  1  0  0  0  0
  4  5  2  0  0  0  0
  4  9  1  0  0  0  0
  5  6  1  0  0  0  0
  5 13  1  0  0  0  0
  6  7  2  0  0  0  0
  6 14  1  0  0  0  0
  7  8  1  0  0  0  0
  8  9  2  0  0  0  0
  8 15  1  0  0  0  0
  9 16  1  0  0  0  0
 10 11  1  0  0  0  0
 10 12  1  0  0  0  0
 10 17  1  6  0  0  0
 10  7  1  0  0  0  0
 11 12  1  0  0  0  0
 11 18  1  0  0  0  0
 11 19  1  0  0  0  0
M  CHG  2   1  -1   2   1
M  END
>  <DRUGBANK_ID>
DB04782

>  <COMMON_NAME>
(S)-4-Nitrostyrene oxide

>  <CAS_NUMBER>
78038-42-3

>  <SYNONYMS>
(2S)-2-(4-nitrophenyl)oxirane

$$$$
