
 OpenBabel10282417153D

 34 35  0  0  0  0  0  0  0  0999 V2000
    0.9098   -0.0309   -0.0030 C   0  0  0  0  0  0  0  0  0  0  0  0
    0.4905   -1.4067   -0.4929 C   0  0  0  0  0  0  0  0  0  0  0  0
    0.5074    0.1679    1.4809 C   0  0  0  0  0  0  0  0  0  0  0  0
    0.3705    1.3811   -1.0672 S   0  0  1  0  0  0  0  0  0  0  0  0
    1.3250   -2.5129   -0.2292 C   0  0  0  0  0  0  0  0  0  0  0  0
   -0.7572   -1.6344   -1.0930 C   0  0  0  0  0  0  0  0  0  0  0  0
    0.2470   -0.9407    2.3203 C   0  0  0  0  0  0  0  0  0  0  0  0
    0.4545    1.4369    2.0772 C   0  0  0  0  0  0  0  0  0  0  0  0
    1.0403    1.0245   -2.6977 C   0  0  0  0  0  0  0  0  0  0  0  0
   -1.1224    1.4971   -1.1172 O   0  0  0  0  0  0  0  0  0  0  0  0
    0.9196   -3.7989   -0.5745 C   0  0  0  0  0  0  0  0  0  0  0  0
   -1.1398   -2.9132   -1.4747 C   0  0  0  0  0  0  0  0  0  0  0  0
   -0.0651   -0.7980    3.6685 C   0  0  0  0  0  0  0  0  0  0  0  0
    0.1760    1.5805    3.4402 C   0  0  0  0  0  0  0  0  0  0  0  0
    0.6623   -0.2567   -3.3895 C   0  0  0  0  0  0  0  0  0  0  0  0
   -0.2976   -3.9914   -1.2252 C   0  0  0  0  0  0  0  0  0  0  0  0
   -0.1038    0.4674    4.2285 C   0  0  0  0  0  0  0  0  0  0  0  0
   -0.3408   -0.2198   -4.3111 N   0  0  0  0  0  0  0  0  0  0  0  0
    1.2733   -1.3128   -3.2163 O   0  0  0  0  0  0  0  0  0  0  0  0
    2.0094    0.0243   -0.0265 H   0  0  0  0  0  0  0  0  0  0  0  0
    2.2685   -2.3781    0.2989 H   0  0  0  0  0  0  0  0  0  0  0  0
   -1.4235   -0.8116   -1.3365 H   0  0  0  0  0  0  0  0  0  0  0  0
    0.2547   -1.9606    1.9466 H   0  0  0  0  0  0  0  0  0  0  0  0
    0.6025    2.3438    1.4969 H   0  0  0  0  0  0  0  0  0  0  0  0
    0.7190    1.8592   -3.3315 H   0  0  0  0  0  0  0  0  0  0  0  0
    2.1311    1.0687   -2.6453 H   0  0  0  0  0  0  0  0  0  0  0  0
    1.5521   -4.6483   -0.3356 H   0  0  0  0  0  0  0  0  0  0  0  0
   -2.0906   -3.0508   -1.9792 H   0  0  0  0  0  0  0  0  0  0  0  0
   -0.2736   -1.6827    4.2640 H   0  0  0  0  0  0  0  0  0  0  0  0
    0.1746    2.5709    3.8855 H   0  0  0  0  0  0  0  0  0  0  0  0
   -0.5894   -4.9838   -1.5506 H   0  0  0  0  0  0  0  0  0  0  0  0
   -0.3611    0.5853    5.2756 H   0  0  0  0  0  0  0  0  0  0  0  0
   -0.5590   -1.1012   -4.7621 H   0  0  0  0  0  0  0  0  0  0  0  0
   -0.6279    0.6280   -4.7814 H   0  0  0  0  0  0  0  0  0  0  0  0
  1 20  1  0  0  0  0
  2  1  1  0  0  0  0
  3  1  1  0  0  0  0
  4  1  1  0  0  0  0
  4  9  1  0  0  0  0
  4 10  2  6  0  0  0
  5  2  1  0  0  0  0
  5 21  1  0  0  0  0
  6  2  2  0  0  0  0
  6 22  1  0  0  0  0
  7  3  1  0  0  0  0
  7 23  1  0  0  0  0
  8  3  2  0  0  0  0
  8 24  1  0  0  0  0
  9 25  1  0  0  0  0
  9 26  1  0  0  0  0
 11  5  2  0  0  0  0
 11 27  1  0  0  0  0
 12  6  1  0  0  0  0
 12 28  1  0  0  0  0
 13  7  2  0  0  0  0
 13 29  1  0  0  0  0
 14  8  1  0  0  0  0
 14 30  1  0  0  0  0
 15  9  1  0  0  0  0
 16 11  1  0  0  0  0
 16 12  2  0  0  0  0
 16 31  1  0  0  0  0
 17 13  1  0  0  0  0
 17 14  2  0  0  0  0
 17 32  1  0  0  0  0
 18 15  1  0  0  0  0
 18 33  1  0  0  0  0
 18 34  1  0  0  0  0
 19 15  2  0  0  0  0
M  END
>  <DRUGBANK_ID>
DB06413

>  <COMMON_NAME>
Armodafinil

>  <CAS_NUMBER>
112111-43-0

>  <UNII>
V63XWA605I

>  <SYNONYMS>
(–)-2-[(R)-(diphenylmethyl)sulfinyl]acetamide; (−)-(R)-modafinil; (−)-modafinil; (R)-(−)-modafinil; (R)-modafinil; Armodafinil; Armodafinilo; Armodafinilum; R-modafinil

$$$$
