
 OpenBabel10282417233D

 29 28  0  0  0  0  0  0  0  0999 V2000
    0.8903   -0.0986    0.1263 C   0  0  0  0  0  0  0  0  0  0  0  0
    0.3745    1.3004   -0.2471 C   0  0  0  0  0  0  0  0  0  0  0  0
    0.8803    1.5836   -1.7086 C   0  0  0  0  0  0  0  0  0  0  0  0
    0.4754    0.5660   -2.7984 C   0  0  0  0  0  0  0  0  0  0  0  0
   -1.0293    0.5079   -3.0365 C   0  0  0  0  0  0  0  0  0  0  0  0
   -1.6303    1.8902   -3.3037 C   0  0  0  0  0  0  0  0  0  0  0  0
   -1.1532    2.3499   -4.6672 C   0  0  0  0  0  0  0  0  0  0  0  0
   -1.5584    1.4359   -5.5896 F   0  0  0  0  0  0  0  0  0  0  0  0
   -1.1622    1.3195    0.0029 C   0  0  0  0  0  0  0  0  0  0  0  0
   -1.7113    2.4015    0.5884 O   0  0  0  0  0  0  0  0  0  0  0  0
   -1.9031    0.3588   -0.2211 O   0  0  0  0  0  0  0  0  0  0  0  0
    0.9864    2.3898    0.6245 C   0  0  0  0  0  0  0  0  0  0  0  0
    1.7940    2.0260    1.6339 O   0  0  0  0  0  0  0  0  0  0  0  0
    0.6610    3.5652    0.4916 O   0  0  0  0  0  0  0  0  0  0  0  0
    0.5035   -0.8775   -0.5381 H   0  0  0  0  0  0  0  0  0  0  0  0
    0.5781   -0.3758    1.1359 H   0  0  0  0  0  0  0  0  0  0  0  0
    1.9850   -0.1376    0.0682 H   0  0  0  0  0  0  0  0  0  0  0  0
    0.6216    2.6013   -2.0278 H   0  0  0  0  0  0  0  0  0  0  0  0
    1.9828    1.6005   -1.7010 H   0  0  0  0  0  0  0  0  0  0  0  0
    0.9850    0.8091   -3.7402 H   0  0  0  0  0  0  0  0  0  0  0  0
    0.8418   -0.4358   -2.5538 H   0  0  0  0  0  0  0  0  0  0  0  0
   -1.2724   -0.1740   -3.8575 H   0  0  0  0  0  0  0  0  0  0  0  0
   -1.4957    0.0149   -2.1968 H   0  0  0  0  0  0  0  0  0  0  0  0
   -2.7225    1.8296   -3.2757 H   0  0  0  0  0  0  0  0  0  0  0  0
   -1.3579    2.6324   -2.5442 H   0  0  0  0  0  0  0  0  0  0  0  0
   -1.5608    3.3225   -4.9399 H   0  0  0  0  0  0  0  0  0  0  0  0
   -0.0617    2.4100   -4.7138 H   0  0  0  0  0  0  0  0  0  0  0  0
   -1.1141    3.1211    0.8921 H   0  0  0  0  0  0  0  0  0  0  0  0
    1.9742    1.0793    1.7757 H   0  0  0  0  0  0  0  0  0  0  0  0
  1  2  1  0  0  0  0
  1 15  1  0  0  0  0
  1 16  1  0  0  0  0
  1 17  1  0  0  0  0
  2  3  1  0  0  0  0
  2  9  1  0  0  0  0
  2 12  1  0  0  0  0
  3  4  1  0  0  0  0
  3 18  1  0  0  0  0
  3 19  1  0  0  0  0
  4  5  1  0  0  0  0
  4 20  1  0  0  0  0
  4 21  1  0  0  0  0
  5  6  1  0  0  0  0
  5 22  1  0  0  0  0
  5 23  1  0  0  0  0
  6  7  1  0  0  0  0
  6 24  1  0  0  0  0
  6 25  1  0  0  0  0
  7  8  1  0  0  0  0
  7 26  1  0  0  0  0
  7 27  1  0  0  0  0
  9 10  1  0  0  0  0
  9 11  2  0  0  0  0
 10 28  1  0  0  0  0
 12 13  1  0  0  0  0
 12 14  2  0  0  0  0
 13 29  1  0  0  0  0
M  ISO  1   8  18
M  END
>  <DRUGBANK_ID>
DB16029

>  <COMMON_NAME>
2-(5-fluoro-pentyl)-2-methyl-malonic-acid

>  <CAS_NUMBER>
1236354-10-1

>  <UNII>
AK3K0K6CM5

$$$$
