
 OpenBabel10282417153D

348349  0  0  0  0  0  0  0  0999 V2000
   12.9013   17.4099   14.3608 C   0  0  0  0  0  0  0  0  0  0  0  0
   16.2053   15.1600   11.8874 C   0  0  0  0  0  0  0  0  0  0  0  0
   14.0379   14.0969   10.9495 C   0  0  0  0  0  0  0  0  0  0  0  0
   15.1706   10.3739   16.3464 C   0  0  0  0  0  0  0  0  0  0  0  0
   14.8038    8.8506   14.4972 C   0  0  0  0  0  0  0  0  0  0  0  0
   15.6188   22.6372   24.7364 C   0  0  0  0  0  0  0  0  0  0  0  0
   14.8134   20.5334   25.6812 C   0  0  0  0  0  0  0  0  0  0  0  0
   16.2182   13.5315   16.0853 C   0  0  0  0  0  0  0  0  0  0  0  0
   18.1045   13.0470   17.3579 C   0  0  0  0  0  0  0  0  0  0  0  0
   11.9520   27.4728   29.3473 C   0  0  0  0  0  0  0  0  0  0  0  0
   10.3932   25.5582   29.5630 C   0  0  0  0  0  0  0  0  0  0  0  0
   16.2683   12.8445    6.8628 C   0  0  0  0  0  0  0  0  0  0  0  0
   16.1827   14.0924    5.1390 C   0  0  0  0  0  0  0  0  0  0  0  0
   19.9191   12.4996   13.2545 C   0  0  0  0  0  0  0  0  0  0  0  0
   17.2549   11.9690   12.6624 C   0  0  0  0  0  0  0  0  0  0  0  0
   14.3848   21.3942   15.2179 C   0  0  0  0  0  0  0  0  0  0  0  0
   16.1987   19.8694   16.0862 C   0  0  0  0  0  0  0  0  0  0  0  0
   13.4636   16.0798   18.4638 C   0  0  0  0  0  0  0  0  0  0  0  0
   15.7815   22.7729   21.4820 C   0  0  0  0  0  0  0  0  0  0  0  0
    5.8387   31.8672   30.4281 C   0  0  0  0  0  0  0  0  0  0  0  0
   18.8492   10.9454   16.0932 C   0  0  0  0  0  0  0  0  0  0  0  0
    8.4960   31.4218   26.9080 C   0  0  0  0  0  0  0  0  0  0  0  0
   11.8755   17.7952   15.8091 C   0  0  0  0  0  0  0  0  0  0  0  0
   11.6273   15.3041   15.1283 C   0  0  0  0  0  0  0  0  0  0  0  0
   12.5052   21.7228   19.4140 C   0  0  0  0  0  0  0  0  0  0  0  0
    8.0965   33.7252   32.6582 C   0  0  0  0  0  0  0  0  0  0  0  0
   12.5145   15.8644   16.3991 C   0  0  0  0  0  0  0  0  0  0  0  0
   13.9641   21.7081   19.8031 C   0  0  0  0  0  0  0  0  0  0  0  0
    7.8602   32.4273   33.4479 C   0  0  0  0  0  0  0  0  0  0  0  0
    7.9627   29.4250   24.8948 C   0  0  0  0  0  0  0  0  0  0  0  0
    8.2360   28.7196   26.0866 C   0  0  0  0  0  0  0  0  0  0  0  0
   12.5264   15.0199   13.9475 C   0  0  0  0  0  0  0  0  0  0  0  0
   11.9479   20.3648   19.9020 C   0  0  0  0  0  0  0  0  0  0  0  0
    7.8083   33.4653   31.2226 C   0  0  0  0  0  0  0  0  0  0  0  0
   16.0608   14.0140    9.2451 C   0  0  0  0  0  0  0  0  0  0  0  0
   14.1727   11.0165   13.9610 C   0  0  0  0  0  0  0  0  0  0  0  0
   13.1509   22.4127   25.2613 C   0  0  0  0  0  0  0  0  0  0  0  0
   17.0651   15.0752   17.0961 C   0  0  0  0  0  0  0  0  0  0  0  0
    9.6259   27.8576   28.9726 C   0  0  0  0  0  0  0  0  0  0  0  0
    5.6224   27.7243   28.8090 C   0  0  0  0  0  0  0  0  0  0  0  0
   10.6975   25.7472   23.3596 C   0  0  0  0  0  0  0  0  0  0  0  0
    4.3432   29.7923   23.0677 C   0  0  0  0  0  0  0  0  0  0  0  0
   18.8216   13.2158   11.2531 C   0  0  0  0  0  0  0  0  0  0  0  0
   19.3165   11.0700    9.5310 C   0  0  0  0  0  0  0  0  0  0  0  0
   16.0603   10.7311   10.8438 C   0  0  0  0  0  0  0  0  0  0  0  0
   13.4025   28.1409   26.2850 C   0  0  0  0  0  0  0  0  0  0  0  0
   15.5043   14.1087   10.9394 C   0  0  0  0  0  0  0  0  0  0  0  0
   14.9892   10.2490   14.8327 C   0  0  0  0  0  0  0  0  0  0  0  0
   14.3860   21.6873   24.8907 C   0  0  0  0  0  0  0  0  0  0  0  0
   16.8274   13.6847   17.3549 C   0  0  0  0  0  0  0  0  0  0  0  0
   10.6471   26.8347   28.8933 C   0  0  0  0  0  0  0  0  0  0  0  0
   17.0236   14.1920    6.3295 C   0  0  0  0  0  0  0  0  0  0  0  0
   18.6245   11.5901   13.1810 C   0  0  0  0  0  0  0  0  0  0  0  0
   14.7024   20.1471   15.9659 C   0  0  0  0  0  0  0  0  0  0  0  0
   12.5128   17.4947   17.6651 C   0  0  1  0  0  0  0  0  0  0  0  0
   14.7171   21.9567   22.2192 C   0  0  1  0  0  0  0  0  0  0  0  0
    6.2457   30.4764   30.6459 C   0  0  1  0  0  0  0  0  0  0  0  0
   17.5559   11.3701   15.4272 C   0  0  1  0  0  0  0  0  0  0  0  0
    8.7229   32.6790   27.5620 C   0  0  2  0  0  0  0  0  0  0  0  0
   14.0155   17.1041   16.5294 C   0  0  1  0  0  0  0  0  0  0  0  0
    6.5359   29.5197   25.1658 C   0  0  1  0  0  0  0  0  0  0  0  0
   17.9251   13.5656    8.4846 C   0  0  1  0  0  0  0  0  0  0  0  0
   14.5839   12.5827   14.5268 C   0  0  1  0  0  0  0  0  0  0  0  0
   12.8428   23.3611   24.1424 C   0  0  1  0  0  0  0  0  0  0  0  0
   15.6965   15.4638   16.6940 C   0  0  1  0  0  0  0  0  0  0  0  0
   10.1265   28.9773   28.0288 C   0  0  1  0  0  0  0  0  0  0  0  0
    6.2721   28.9652   28.3163 C   0  0  1  0  0  0  0  0  0  0  0  0
   11.8055   25.7883   24.3602 C   0  0  1  0  0  0  0  0  0  0  0  0
    5.3071   28.6035   22.7610 C   0  0  1  0  0  0  0  0  0  0  0  0
   12.1502   27.4340   26.3809 C   0  0  1  0  0  0  0  0  0  0  0  0
   14.3640   20.2563   20.3154 C   0  0  1  0  0  0  0  0  0  0  0  0
    8.1820   31.3022   32.4944 C   0  0  1  0  0  0  0  0  0  0  0  0
    5.0055   28.0098   30.0787 C   0  0  0  0  0  0  0  0  0  0  0  0
   17.5309   13.1244   10.6211 C   0  0  0  0  0  0  0  0  0  0  0  0
   20.2843   12.1854    9.9185 C   0  0  0  0  0  0  0  0  0  0  0  0
   17.2339    9.7559   10.8485 C   0  0  0  0  0  0  0  0  0  0  0  0
    8.1239   27.1153   26.3654 C   0  0  0  0  0  0  0  0  0  0  0  0
   10.3654   24.4272   22.8510 C   0  0  0  0  0  0  0  0  0  0  0  0
    4.6545   30.9861   23.9427 C   0  0  0  0  0  0  0  0  0  0  0  0
   17.0834   15.5513    7.1393 C   0  0  1  0  0  0  0  0  0  0  0  0
   18.5881   10.1161   12.9583 C   0  0  1  0  0  0  0  0  0  0  0  0
   14.0805   20.1258   17.3270 C   0  0  1  0  0  0  0  0  0  0  0  0
   11.7821   18.0750   18.7594 C   0  0  1  0  0  0  0  0  0  0  0  0
    9.5937   32.4248   28.7803 C   0  0  1  0  0  0  0  0  0  0  0  0
   13.2011   22.0328   22.3425 C   0  0  0  0  0  0  0  0  0  0  0  0
    7.4377   29.6540   30.2248 C   0  0  0  0  0  0  0  0  0  0  0  0
   17.1181   12.9077   14.4347 C   0  0  0  0  0  0  0  0  0  0  0  0
   18.6340   12.2145    7.6042 C   0  0  0  0  0  0  0  0  0  0  0  0
    5.7480   28.2635   24.9554 C   0  0  0  0  0  0  0  0  0  0  0  0
   14.9632   17.9033   18.0250 C   0  0  0  0  0  0  0  0  0  0  0  0
   15.6700   16.3458   15.4582 C   0  0  0  0  0  0  0  0  0  0  0  0
   13.9263   13.1991   16.3881 C   0  0  0  0  0  0  0  0  0  0  0  0
   13.5827   24.5935   23.6970 C   0  0  0  0  0  0  0  0  0  0  0  0
    5.8097   30.1244   27.4975 C   0  0  0  0  0  0  0  0  0  0  0  0
   11.6529   25.3232   25.7996 C   0  0  0  0  0  0  0  0  0  0  0  0
   11.0183   30.3470   28.1331 C   0  0  0  0  0  0  0  0  0  0  0  0
   10.9796   28.0303   25.7994 C   0  0  0  0  0  0  0  0  0  0  0  0
   14.9440   19.8430   21.6600 C   0  0  0  0  0  0  0  0  0  0  0  0
    6.9580   30.3062   32.7659 C   0  0  0  0  0  0  0  0  0  0  0  0
   18.3796   15.6719    8.0157 C   0  0  0  0  0  0  0  0  0  0  0  0
   17.5352    9.5489   13.7687 C   0  0  0  0  0  0  0  0  0  0  0  0
   12.3694   20.0479   17.3276 C   0  0  0  0  0  0  0  0  0  0  0  0
   12.8355   18.2181   19.9269 C   0  0  0  0  0  0  0  0  0  0  0  0
    9.0802   31.7179   29.9852 C   0  0  0  0  0  0  0  0  0  0  0  0
    6.6187   28.8739   22.0177 C   0  0  0  0  0  0  0  0  0  0  0  0
   12.4354   12.6052   14.5329 C   0  0  0  0  0  0  0  0  0  0  0  0
    3.8803   28.6085   30.1831 N   0  0  0  0  0  0  0  0  0  0  0  0
   17.1809   16.6340    6.1956 N   0  0  0  0  0  0  0  0  0  0  0  0
   12.6526   11.5401   15.4371 N   0  0  0  0  0  0  0  0  0  0  0  0
   12.3890   12.3737   13.1113 N   0  0  0  0  0  0  0  0  0  0  0  0
   12.9124   13.9659   14.6576 N   0  0  0  0  0  0  0  0  0  0  0  0
   20.0769   13.2855   10.5709 N   0  0  0  0  0  0  0  0  0  0  0  0
   16.6052   12.1391   10.2322 N   0  0  0  0  0  0  0  0  0  0  0  0
   19.0856   11.1211    8.1136 N   0  0  0  0  0  0  0  0  0  0  0  0
   15.2506   20.6606   22.5842 N   0  0  0  0  0  0  0  0  0  0  0  0
    5.9438   30.0960   32.0082 N   0  0  0  0  0  0  0  0  0  0  0  0
   17.2247   10.0598   14.8589 N   0  0  0  0  0  0  0  0  0  0  0  0
   15.0798   17.3637   15.4829 N   0  0  0  0  0  0  0  0  0  0  0  0
    6.0463   30.3804   26.2713 N   0  0  0  0  0  0  0  0  0  0  0  0
   12.3851   22.6242   23.0630 N   0  0  0  0  0  0  0  0  0  0  0  0
   15.9017   13.2237   13.9883 N   0  0  0  0  0  0  0  0  0  0  0  0
    7.4874   29.1400   29.0744 N   0  0  0  0  0  0  0  0  0  0  0  0
   14.4191   14.1934   17.0711 N   0  0  0  0  0  0  0  0  0  0  0  0
   10.2351   28.4603   26.6611 N   0  0  0  0  0  0  0  0  0  0  0  0
   13.1886   25.7537   23.9337 N   0  0  0  0  0  0  0  0  0  0  0  0
   18.9275   14.6661    8.5523 N   0  0  0  0  0  0  0  0  0  0  0  0
    5.4685   27.6622   23.8749 N   0  0  0  0  0  0  0  0  0  0  0  0
   12.1213   26.0138   26.7514 N   0  0  0  0  0  0  0  0  0  0  0  0
   18.2776    9.5781   11.6178 N   0  0  0  0  0  0  0  0  0  0  0  0
   14.8927   19.1642   18.1691 N   0  0  0  0  0  0  0  0  0  0  0  0
   11.4839   19.2459   17.8774 N   0  0  0  0  0  0  0  0  0  0  0  0
   10.8514   31.6185   28.3745 N   0  0  0  0  0  0  0  0  0  0  0  0
   13.1076   19.5327   20.0572 N   0  0  0  0  0  0  0  0  0  0  0  0
    8.3762   32.1262   31.0975 N   0  0  0  0  0  0  0  0  0  0  0  0
   14.0329   27.7427   25.1236 O   0  0  0  0  0  0  0  0  0  0  0  0
    7.3934   33.1183   27.7778 O   0  0  0  0  0  0  0  0  0  0  0  0
    5.8009   27.8727   31.1307 O   0  0  0  0  0  0  0  0  0  0  0  0
   17.6191   14.6711   10.2954 O   0  0  0  0  0  0  0  0  0  0  0  0
   21.4382   12.0110    9.3038 O   0  0  0  0  0  0  0  0  0  0  0  0
   17.2549    9.2720    9.6038 O   0  0  0  0  0  0  0  0  0  0  0  0
    8.9134   26.1991   26.3008 O   0  0  0  0  0  0  0  0  0  0  0  0
    6.9104   26.7260   26.7809 O   0  0  0  0  0  0  0  0  0  0  0  0
    9.6782   23.5911   23.4066 O   0  0  0  0  0  0  0  0  0  0  0  0
   11.1510   24.1186   21.8154 O   0  0  0  0  0  0  0  0  0  0  0  0
    5.4433   31.8894   23.7125 O   0  0  0  0  0  0  0  0  0  0  0  0
    4.1629   30.8346   25.1867 O   0  0  0  0  0  0  0  0  0  0  0  0
   12.3828   21.3202   21.7229 O   0  0  0  0  0  0  0  0  0  0  0  0
    8.4114   29.3439   31.1477 O   0  0  0  0  0  0  0  0  0  0  0  0
   18.0197   13.9509   14.3211 O   0  0  0  0  0  0  0  0  0  0  0  0
   18.7719   12.1686    6.2753 O   0  0  0  0  0  0  0  0  0  0  0  0
    5.1361   27.7319   25.9897 O   0  0  0  0  0  0  0  0  0  0  0  0
   15.5890   17.1982   19.0505 O   0  0  0  0  0  0  0  0  0  0  0  0
   16.3822   16.3443   14.3545 O   0  0  0  0  0  0  0  0  0  0  0  0
   12.4656   12.8754   16.8764 O   0  0  0  0  0  0  0  0  0  0  0  0
   14.5680   24.6372   22.8352 O   0  0  0  0  0  0  0  0  0  0  0  0
    5.1852   31.0868   28.1603 O   0  0  0  0  0  0  0  0  0  0  0  0
   11.2372   24.0928   26.0903 O   0  0  0  0  0  0  0  0  0  0  0  0
   12.2561   30.0887   27.7179 O   0  0  0  0  0  0  0  0  0  0  0  0
   10.7192   28.1566   24.4802 O   0  0  0  0  0  0  0  0  0  0  0  0
   15.2968   18.5673   21.8531 O   0  0  0  0  0  0  0  0  0  0  0  0
    6.9081   29.5636   33.8733 O   0  0  0  0  0  0  0  0  0  0  0  0
   19.0273   16.8172    8.2065 O   0  0  0  0  0  0  0  0  0  0  0  0
   16.9231    8.4473   13.3001 O   0  0  0  0  0  0  0  0  0  0  0  0
   11.7545   21.0734   16.6921 O   0  0  0  0  0  0  0  0  0  0  0  0
   13.4099   17.3068   20.5115 O   0  0  0  0  0  0  0  0  0  0  0  0
    9.5459   30.5839   29.9461 O   0  0  0  0  0  0  0  0  0  0  0  0
    6.9952   28.2945   21.0153 O   0  0  0  0  0  0  0  0  0  0  0  0
    7.4044   29.7949   22.5852 O   0  0  0  0  0  0  0  0  0  0  0  0
   13.1840   18.2865   17.7171 H   0  0  0  0  0  0  0  0  0  0  0  0
   14.6835   22.6084   23.0023 H   0  0  0  0  0  0  0  0  0  0  0  0
    5.5138   30.1022   29.9893 H   0  0  0  0  0  0  0  0  0  0  0  0
   16.9444   11.4789   16.2601 H   0  0  0  0  0  0  0  0  0  0  0  0
    9.2591   33.1821   26.7545 H   0  0  0  0  0  0  0  0  0  0  0  0
   13.6541   18.0913   16.1776 H   0  0  0  0  0  0  0  0  0  0  0  0
    6.4185   30.1195   24.3193 H   0  0  0  0  0  0  0  0  0  0  0  0
   18.4191   12.9777    9.1706 H   0  0  0  0  0  0  0  0  0  0  0  0
   14.2712   13.2812   13.7121 H   0  0  0  0  0  0  0  0  0  0  0  0
   11.8627   23.6685   24.3622 H   0  0  0  0  0  0  0  0  0  0  0  0
   15.7071   16.1919   17.4128 H   0  0  0  0  0  0  0  0  0  0  0  0
    9.2461   29.5391   28.0266 H   0  0  0  0  0  0  0  0  0  0  0  0
    6.5824   28.5023   27.4419 H   0  0  0  0  0  0  0  0  0  0  0  0
   11.9593   26.8273   24.3515 H   0  0  0  0  0  0  0  0  0  0  0  0
    4.7279   27.9713   22.0800 H   0  0  0  0  0  0  0  0  0  0  0  0
   11.9030   27.8277   27.3088 H   0  0  0  0  0  0  0  0  0  0  0  0
   15.3142   20.0860   19.8025 H   0  0  0  0  0  0  0  0  0  0  0  0
    9.1139   30.7799   32.7768 H   0  0  0  0  0  0  0  0  0  0  0  0
   16.1727   15.7198    7.6734 H   0  0  0  0  0  0  0  0  0  0  0  0
   19.4030    9.7717   13.5912 H   0  0  0  0  0  0  0  0  0  0  0  0
   14.3456   21.0994   17.7292 H   0  0  0  0  0  0  0  0  0  0  0  0
   11.1208   17.2481   18.9461 H   0  0  0  0  0  0  0  0  0  0  0  0
    9.8724   33.3789   29.2035 H   0  0  0  0  0  0  0  0  0  0  0  0
   13.8344   17.8709   13.9785 H   0  0  0  0  0  0  0  0  0  0  0  0
   12.4562   17.0811   13.4237 H   0  0  0  0  0  0  0  0  0  0  0  0
   13.4360   16.5720   14.7673 H   0  0  0  0  0  0  0  0  0  0  0  0
   16.0456   16.1923   11.6452 H   0  0  0  0  0  0  0  0  0  0  0  0
   16.2406   14.8848   12.9026 H   0  0  0  0  0  0  0  0  0  0  0  0
   17.2960   15.1670   11.9825 H   0  0  0  0  0  0  0  0  0  0  0  0
   13.6240   13.2477   10.3762 H   0  0  0  0  0  0  0  0  0  0  0  0
   13.8839   13.8735   11.9798 H   0  0  0  0  0  0  0  0  0  0  0  0
   13.6937   15.0866   10.7448 H   0  0  0  0  0  0  0  0  0  0  0  0
   14.4128   10.0572   17.0262 H   0  0  0  0  0  0  0  0  0  0  0  0
   16.1149   10.0006   16.7781 H   0  0  0  0  0  0  0  0  0  0  0  0
   15.1723   11.4027   16.5584 H   0  0  0  0  0  0  0  0  0  0  0  0
   14.6988    8.7966   13.4042 H   0  0  0  0  0  0  0  0  0  0  0  0
   15.6584    8.3325   14.9139 H   0  0  0  0  0  0  0  0  0  0  0  0
   13.9348    8.5715   15.0568 H   0  0  0  0  0  0  0  0  0  0  0  0
   15.7699   23.2536   25.6061 H   0  0  0  0  0  0  0  0  0  0  0  0
   16.4765   22.1552   24.2562 H   0  0  0  0  0  0  0  0  0  0  0  0
   15.5541   23.4741   24.0672 H   0  0  0  0  0  0  0  0  0  0  0  0
   14.0000   19.8036   25.6909 H   0  0  0  0  0  0  0  0  0  0  0  0
   15.6717   20.1070   25.1463 H   0  0  0  0  0  0  0  0  0  0  0  0
   15.0614   20.9591   26.6374 H   0  0  0  0  0  0  0  0  0  0  0  0
   16.4339   14.3319   15.3718 H   0  0  0  0  0  0  0  0  0  0  0  0
   15.9288   12.5787   15.8410 H   0  0  0  0  0  0  0  0  0  0  0  0
   15.3506   13.9547   15.6594 H   0  0  0  0  0  0  0  0  0  0  0  0
   18.8325   13.2421   18.0969 H   0  0  0  0  0  0  0  0  0  0  0  0
   17.7512   12.0702   17.6297 H   0  0  0  0  0  0  0  0  0  0  0  0
   18.5726   13.2143   16.3884 H   0  0  0  0  0  0  0  0  0  0  0  0
   11.8836   27.9208   30.3305 H   0  0  0  0  0  0  0  0  0  0  0  0
   12.8089   26.8680   29.0749 H   0  0  0  0  0  0  0  0  0  0  0  0
   12.2025   28.3841   28.8437 H   0  0  0  0  0  0  0  0  0  0  0  0
    9.4698   25.1199   29.1687 H   0  0  0  0  0  0  0  0  0  0  0  0
   11.2468   24.9421   29.2725 H   0  0  0  0  0  0  0  0  0  0  0  0
   10.3421   25.7897   30.6173 H   0  0  0  0  0  0  0  0  0  0  0  0
   15.2211   12.7407    7.1257 H   0  0  0  0  0  0  0  0  0  0  0  0
   16.6988   11.8503    7.0257 H   0  0  0  0  0  0  0  0  0  0  0  0
   16.4077   13.2198    7.7576 H   0  0  0  0  0  0  0  0  0  0  0  0
   16.4215   14.8664    4.4491 H   0  0  0  0  0  0  0  0  0  0  0  0
   16.3626   13.0977    4.7004 H   0  0  0  0  0  0  0  0  0  0  0  0
   15.1521   14.1119    5.5179 H   0  0  0  0  0  0  0  0  0  0  0  0
   20.5318   12.1777   12.4530 H   0  0  0  0  0  0  0  0  0  0  0  0
   19.8232   13.6161   13.2443 H   0  0  0  0  0  0  0  0  0  0  0  0
   20.4837   12.4020   14.1700 H   0  0  0  0  0  0  0  0  0  0  0  0
   16.2268   11.7131   12.9085 H   0  0  0  0  0  0  0  0  0  0  0  0
   17.0706   13.0048   12.4551 H   0  0  0  0  0  0  0  0  0  0  0  0
   17.3840   11.5167   11.7942 H   0  0  0  0  0  0  0  0  0  0  0  0
   14.7772   22.2517   15.7541 H   0  0  0  0  0  0  0  0  0  0  0  0
   14.8034   21.2856   14.2209 H   0  0  0  0  0  0  0  0  0  0  0  0
   13.3071   21.4818   15.0764 H   0  0  0  0  0  0  0  0  0  0  0  0
   16.4528   18.9435   16.6174 H   0  0  0  0  0  0  0  0  0  0  0  0
   16.6215   19.7341   15.1002 H   0  0  0  0  0  0  0  0  0  0  0  0
   16.6740   20.6582   16.6674 H   0  0  0  0  0  0  0  0  0  0  0  0
   14.5032   15.6093   18.5944 H   0  0  0  0  0  0  0  0  0  0  0  0
   12.8997   15.4149   19.0549 H   0  0  0  0  0  0  0  0  0  0  0  0
   13.7986   15.7257   17.5598 H   0  0  0  0  0  0  0  0  0  0  0  0
   16.1075   22.2763   20.5821 H   0  0  0  0  0  0  0  0  0  0  0  0
   15.4113   23.7555   21.1789 H   0  0  0  0  0  0  0  0  0  0  0  0
   16.6879   22.8774   22.0808 H   0  0  0  0  0  0  0  0  0  0  0  0
    6.1345   32.1770   31.3872 H   0  0  0  0  0  0  0  0  0  0  0  0
    6.2761   32.4535   29.6233 H   0  0  0  0  0  0  0  0  0  0  0  0
    4.7834   32.0975   30.5207 H   0  0  0  0  0  0  0  0  0  0  0  0
   19.6403   11.6058   15.7932 H   0  0  0  0  0  0  0  0  0  0  0  0
   18.8550   10.8567   17.1783 H   0  0  0  0  0  0  0  0  0  0  0  0
   18.9630    9.8923   15.8815 H   0  0  0  0  0  0  0  0  0  0  0  0
    8.0024   30.8368   27.6693 H   0  0  0  0  0  0  0  0  0  0  0  0
    7.8440   31.5619   26.0619 H   0  0  0  0  0  0  0  0  0  0  0  0
    9.4534   31.0631   26.5715 H   0  0  0  0  0  0  0  0  0  0  0  0
   11.6292   18.7672   15.4025 H   0  0  0  0  0  0  0  0  0  0  0  0
   10.8951   17.2910   15.7990 H   0  0  0  0  0  0  0  0  0  0  0  0
   11.0914   14.4076   15.5504 H   0  0  0  0  0  0  0  0  0  0  0  0
   10.8016   15.8690   14.7557 H   0  0  0  0  0  0  0  0  0  0  0  0
   12.5547   21.9627   18.3773 H   0  0  0  0  0  0  0  0  0  0  0  0
   11.9740   22.6069   19.7692 H   0  0  0  0  0  0  0  0  0  0  0  0
    9.1460   33.9845   32.6676 H   0  0  0  0  0  0  0  0  0  0  0  0
    7.4343   34.5036   33.0287 H   0  0  0  0  0  0  0  0  0  0  0  0
   12.4084   14.9682   17.1363 H   0  0  0  0  0  0  0  0  0  0  0  0
   11.5287   16.0894   17.0595 H   0  0  0  0  0  0  0  0  0  0  0  0
   14.6744   22.2614   19.1718 H   0  0  0  0  0  0  0  0  0  0  0  0
   13.8955   22.5026   20.4956 H   0  0  0  0  0  0  0  0  0  0  0  0
    8.5053   32.3473   34.3233 H   0  0  0  0  0  0  0  0  0  0  0  0
    6.8223   32.3351   33.8087 H   0  0  0  0  0  0  0  0  0  0  0  0
    8.3893   28.8179   24.1276 H   0  0  0  0  0  0  0  0  0  0  0  0
    8.4984   30.4116   24.7315 H   0  0  0  0  0  0  0  0  0  0  0  0
    9.0586   29.4179   26.0611 H   0  0  0  0  0  0  0  0  0  0  0  0
    7.9371   29.2001   26.9657 H   0  0  0  0  0  0  0  0  0  0  0  0
   12.1281   14.8538   12.9661 H   0  0  0  0  0  0  0  0  0  0  0  0
   13.5684   15.3866   13.7111 H   0  0  0  0  0  0  0  0  0  0  0  0
   11.4481   20.0801   20.8504 H   0  0  0  0  0  0  0  0  0  0  0  0
   10.9976   20.0975   19.4576 H   0  0  0  0  0  0  0  0  0  0  0  0
    6.7235   33.6526   31.2298 H   0  0  0  0  0  0  0  0  0  0  0  0
    8.0511   34.0694   30.3541 H   0  0  0  0  0  0  0  0  0  0  0  0
   15.7236   15.0145    9.0529 H   0  0  0  0  0  0  0  0  0  0  0  0
   15.2814   13.2805    8.9439 H   0  0  0  0  0  0  0  0  0  0  0  0
   13.1969   10.5149   14.0876 H   0  0  0  0  0  0  0  0  0  0  0  0
   14.1644   10.7635   12.8770 H   0  0  0  0  0  0  0  0  0  0  0  0
   13.2776   22.8976   26.2145 H   0  0  0  0  0  0  0  0  0  0  0  0
   12.2984   21.6970   25.3045 H   0  0  0  0  0  0  0  0  0  0  0  0
   17.7346   15.3234   16.2422 H   0  0  0  0  0  0  0  0  0  0  0  0
   17.4525   15.4181   18.0206 H   0  0  0  0  0  0  0  0  0  0  0  0
    9.5029   28.0786   30.0097 H   0  0  0  0  0  0  0  0  0  0  0  0
    8.6714   27.3733   28.6820 H   0  0  0  0  0  0  0  0  0  0  0  0
    4.8710   27.4056   28.1097 H   0  0  0  0  0  0  0  0  0  0  0  0
    6.4065   26.9726   28.9879 H   0  0  0  0  0  0  0  0  0  0  0  0
    9.7681   26.0742   23.8125 H   0  0  0  0  0  0  0  0  0  0  0  0
   10.9621   26.3836   22.5072 H   0  0  0  0  0  0  0  0  0  0  0  0
    4.1513   30.2804   22.1233 H   0  0  0  0  0  0  0  0  0  0  0  0
    3.4137   29.3937   23.4956 H   0  0  0  0  0  0  0  0  0  0  0  0
   18.6504   13.9192   12.0647 H   0  0  0  0  0  0  0  0  0  0  0  0
   18.8646   12.2071   11.4547 H   0  0  0  0  0  0  0  0  0  0  0  0
   19.6014   10.0726    9.8408 H   0  0  0  0  0  0  0  0  0  0  0  0
   18.3940   11.2363    9.9942 H   0  0  0  0  0  0  0  0  0  0  0  0
   15.0283   10.5131   10.5279 H   0  0  0  0  0  0  0  0  0  0  0  0
   15.7462   10.6272   11.8782 H   0  0  0  0  0  0  0  0  0  0  0  0
   13.2052   29.2001   26.2075 H   0  0  0  0  0  0  0  0  0  0  0  0
   13.9484   27.8362   27.1763 H   0  0  0  0  0  0  0  0  0  0  0  0
   15.4951   13.1201   11.4254 H   0  0  0  0  0  0  0  0  0  0  0  0
   15.7151   10.7821   14.2629 H   0  0  0  0  0  0  0  0  0  0  0  0
   13.9683   21.0851   24.0843 H   0  0  0  0  0  0  0  0  0  0  0  0
   16.0898   13.2129   18.0023 H   0  0  0  0  0  0  0  0  0  0  0  0
   10.4845   26.5276   27.8763 H   0  0  0  0  0  0  0  0  0  0  0  0
   18.1135   14.1450    6.1236 H   0  0  0  0  0  0  0  0  0  0  0  0
   18.6901   11.7824   14.1758 H   0  0  0  0  0  0  0  0  0  0  0  0
   14.2303   19.4501   15.3049 H   0  0  0  0  0  0  0  0  0  0  0  0
    3.4910   28.6705   29.2345 H   0  0  0  0  0  0  0  0  0  0  0  0
   17.0660   17.5001    6.7100 H   0  0  0  0  0  0  0  0  0  0  0  0
   18.0959   16.5454    5.7616 H   0  0  0  0  0  0  0  0  0  0  0  0
   13.2601   11.5530   16.4447 H   0  0  0  0  0  0  0  0  0  0  0  0
   12.2959   13.2131   12.5746 H   0  0  0  0  0  0  0  0  0  0  0  0
   13.3265   12.2129   12.6733 H   0  0  0  0  0  0  0  0  0  0  0  0
   13.6076   14.5094   15.3119 H   0  0  0  0  0  0  0  0  0  0  0  0
   13.7746   26.7988   25.0613 H   0  0  0  0  0  0  0  0  0  0  0  0
    6.8774   32.3022   27.9610 H   0  0  0  0  0  0  0  0  0  0  0  0
    5.6029   28.6636   31.6806 H   0  0  0  0  0  0  0  0  0  0  0  0
   18.4907   15.1199   10.3665 H   0  0  0  0  0  0  0  0  0  0  0  0
   21.2644   11.3237    8.6395 H   0  0  0  0  0  0  0  0  0  0  0  0
   16.9805   10.0268    9.0360 H   0  0  0  0  0  0  0  0  0  0  0  0
    6.8733   25.8082   27.1018 H   0  0  0  0  0  0  0  0  0  0  0  0
   11.3625   23.2447   22.2180 H   0  0  0  0  0  0  0  0  0  0  0  0
    4.9819   31.1370   25.6794 H   0  0  0  0  0  0  0  0  0  0  0  0
   11.5713   21.8146   21.4925 H   0  0  0  0  0  0  0  0  0  0  0  0
    9.3063   29.6601   30.8232 H   0  0  0  0  0  0  0  0  0  0  0  0
   18.8485   13.7324   14.7557 H   0  0  0  0  0  0  0  0  0  0  0  0
   18.0515   12.4990    5.7317 H   0  0  0  0  0  0  0  0  0  0  0  0
    5.3168   26.7744   25.9343 H   0  0  0  0  0  0  0  0  0  0  0  0
   15.0424   16.6017   19.6438 H   0  0  0  0  0  0  0  0  0  0  0  0
   16.9274   15.5806   14.2558 H   0  0  0  0  0  0  0  0  0  0  0  0
   11.9202   12.2021   16.3061 H   0  0  0  0  0  0  0  0  0  0  0  0
   15.2875   25.2144   23.1442 H   0  0  0  0  0  0  0  0  0  0  0  0
    4.9299   31.8762   27.6588 H   0  0  0  0  0  0  0  0  0  0  0  0
   11.4461   23.8185   26.9971 H   0  0  0  0  0  0  0  0  0  0  0  0
   12.8712   30.1889   28.4512 H   0  0  0  0  0  0  0  0  0  0  0  0
    9.8161   28.0102   24.1733 H   0  0  0  0  0  0  0  0  0  0  0  0
   15.5342   18.4174   22.7825 H   0  0  0  0  0  0  0  0  0  0  0  0
    6.1460   28.9491   33.7680 H   0  0  0  0  0  0  0  0  0  0  0  0
   18.7831   17.4823    7.5626 H   0  0  0  0  0  0  0  0  0  0  0  0
   16.9153    8.3484   12.3383 H   0  0  0  0  0  0  0  0  0  0  0  0
   12.2895   21.8727   16.5925 H   0  0  0  0  0  0  0  0  0  0  0  0
    8.3469   29.8175   22.3165 H   0  0  0  0  0  0  0  0  0  0  0  0
  1192  1  0  0  0  0
  1193  1  0  0  0  0
  1194  1  0  0  0  0
  2195  1  0  0  0  0
  2196  1  0  0  0  0
  2197  1  0  0  0  0
  3198  1  0  0  0  0
  3199  1  0  0  0  0
  3200  1  0  0  0  0
  4201  1  0  0  0  0
  4202  1  0  0  0  0
  4203  1  0  0  0  0
  5204  1  0  0  0  0
  5205  1  0  0  0  0
  5206  1  0  0  0  0
  6207  1  0  0  0  0
  6208  1  0  0  0  0
  6209  1  0  0  0  0
  7210  1  0  0  0  0
  7211  1  0  0  0  0
  7212  1  0  0  0  0
  8213  1  0  0  0  0
  8214  1  0  0  0  0
  8215  1  0  0  0  0
  9216  1  0  0  0  0
  9217  1  0  0  0  0
  9218  1  0  0  0  0
 10219  1  0  0  0  0
 10220  1  0  0  0  0
 10221  1  0  0  0  0
 11222  1  0  0  0  0
 11223  1  0  0  0  0
 11224  1  0  0  0  0
 12225  1  0  0  0  0
 12226  1  0  0  0  0
 12227  1  0  0  0  0
 13228  1  0  0  0  0
 13229  1  0  0  0  0
 13230  1  0  0  0  0
 14231  1  0  0  0  0
 14232  1  0  0  0  0
 14233  1  0  0  0  0
 15234  1  0  0  0  0
 15235  1  0  0  0  0
 15236  1  0  0  0  0
 16237  1  0  0  0  0
 16238  1  0  0  0  0
 16239  1  0  0  0  0
 17240  1  0  0  0  0
 17241  1  0  0  0  0
 17242  1  0  0  0  0
 18243  1  0  0  0  0
 18244  1  0  0  0  0
 18245  1  0  0  0  0
 19246  1  0  0  0  0
 19247  1  0  0  0  0
 19248  1  0  0  0  0
 20249  1  0  0  0  0
 20250  1  0  0  0  0
 20251  1  0  0  0  0
 21252  1  0  0  0  0
 21253  1  0  0  0  0
 21254  1  0  0  0  0
 22255  1  0  0  0  0
 22256  1  0  0  0  0
 22257  1  0  0  0  0
 23  1  1  0  0  0  0
 23258  1  0  0  0  0
 23259  1  0  0  0  0
 24260  1  0  0  0  0
 24261  1  0  0  0  0
 25262  1  0  0  0  0
 25263  1  0  0  0  0
 26264  1  0  0  0  0
 26265  1  0  0  0  0
 27 24  1  0  0  0  0
 27266  1  0  0  0  0
 27267  1  0  0  0  0
 28 25  1  0  0  0  0
 28268  1  0  0  0  0
 28269  1  0  0  0  0
 29 26  1  0  0  0  0
 29270  1  0  0  0  0
 29271  1  0  0  0  0
 30272  1  0  0  0  0
 30273  1  0  0  0  0
 31 30  1  0  0  0  0
 31274  1  0  0  0  0
 31275  1  0  0  0  0
 32 24  1  0  0  0  0
 32276  1  0  0  0  0
 32277  1  0  0  0  0
 33 25  1  0  0  0  0
 33278  1  0  0  0  0
 33279  1  0  0  0  0
 34 26  1  0  0  0  0
 34280  1  0  0  0  0
 34281  1  0  0  0  0
 35282  1  0  0  0  0
 35283  1  0  0  0  0
 36284  1  0  0  0  0
 36285  1  0  0  0  0
 37286  1  0  0  0  0
 37287  1  0  0  0  0
 38288  1  0  0  0  0
 38289  1  0  0  0  0
 39290  1  0  0  0  0
 39291  1  0  0  0  0
 40292  1  0  0  0  0
 40293  1  0  0  0  0
 41294  1  0  0  0  0
 41295  1  0  0  0  0
 42296  1  0  0  0  0
 42297  1  0  0  0  0
 43298  1  0  0  0  0
 43299  1  0  0  0  0
 44300  1  0  0  0  0
 44301  1  0  0  0  0
 45302  1  0  0  0  0
 45303  1  0  0  0  0
 46304  1  0  0  0  0
 46305  1  0  0  0  0
 47  2  1  0  0  0  0
 47  3  1  0  0  0  0
 47 35  1  0  0  0  0
 47306  1  0  0  0  0
 48  4  1  0  0  0  0
 48  5  1  0  0  0  0
 48 36  1  0  0  0  0
 48307  1  0  0  0  0
 49  6  1  0  0  0  0
 49  7  1  0  0  0  0
 49 37  1  0  0  0  0
 49308  1  0  0  0  0
 50  8  1  0  0  0  0
 50  9  1  0  0  0  0
 50 38  1  0  0  0  0
 50309  1  0  0  0  0
 51 10  1  0  0  0  0
 51 11  1  0  0  0  0
 51 39  1  0  0  0  0
 51310  1  0  0  0  0
 52 12  1  0  0  0  0
 52 13  1  0  0  0  0
 52311  1  0  0  0  0
 53 14  1  0  0  0  0
 53 15  1  0  0  0  0
 53312  1  0  0  0  0
 54 16  1  0  0  0  0
 54 17  1  0  0  0  0
 54313  1  0  0  0  0
 55 83  1  0  0  0  0
 55169  1  6  0  0  0
 55 23  1  0  0  0  0
 55 18  1  0  0  0  0
 56 19  1  0  0  0  0
 56 85  1  0  0  0  0
 56115  1  0  0  0  0
 56170  1  1  0  0  0
 57 20  1  0  0  0  0
 57 86  1  0  0  0  0
 57116  1  0  0  0  0
 57171  1  6  0  0  0
 58117  1  0  0  0  0
 58172  1  1  0  0  0
 58 87  1  0  0  0  0
 58 21  1  0  0  0  0
 59 22  1  0  0  0  0
 59 84  1  0  0  0  0
 59136  1  0  0  0  0
 59173  1  6  0  0  0
 60118  1  0  0  0  0
 60174  1  6  0  0  0
 60 90  1  0  0  0  0
 60 27  1  0  0  0  0
 61 30  1  0  0  0  0
 61 89  1  0  0  0  0
 61119  1  0  0  0  0
 61175  1  6  0  0  0
 62126  1  0  0  0  0
 62176  1  1  0  0  0
 62 88  1  0  0  0  0
 62 35  1  0  0  0  0
 63121  1  0  0  0  0
 63177  1  6  0  0  0
 63 92  1  0  0  0  0
 63 36  1  0  0  0  0
 64 37  1  0  0  0  0
 64 93  1  0  0  0  0
 64120  1  0  0  0  0
 64178  1  1  0  0  0
 65123  1  0  0  0  0
 65179  1  1  0  0  0
 65 91  1  0  0  0  0
 65 38  1  0  0  0  0
 66 39  1  0  0  0  0
 66 96  1  0  0  0  0
 66124  1  0  0  0  0
 66180  1  6  0  0  0
 67 40  1  0  0  0  0
 67 94  1  0  0  0  0
 67122  1  0  0  0  0
 67181  1  6  0  0  0
 68 41  1  0  0  0  0
 68 95  1  0  0  0  0
 68125  1  0  0  0  0
 68182  1  1  0  0  0
 69 42  1  0  0  0  0
 69105  1  0  0  0  0
 69127  1  0  0  0  0
 69183  1  6  0  0  0
 70 46  1  0  0  0  0
 70 97  1  0  0  0  0
 70128  1  0  0  0  0
 70184  1  1  0  0  0
 71 28  1  0  0  0  0
 71133  1  0  0  0  0
 71185  1  6  0  0  0
 71 98  1  0  0  0  0
 72 29  1  0  0  0  0
 72134  1  0  0  0  0
 72186  1  1  0  0  0
 72 99  1  0  0  0  0
 73 40  1  0  0  0  0
 74 43  1  0  0  0  0
 75 44  1  0  0  0  0
 76 45  1  0  0  0  0
 76140  1  0  0  0  0
 77 31  1  0  0  0  0
 78 41  1  0  0  0  0
 79 42  1  0  0  0  0
 80108  1  0  0  0  0
 80187  1  1  0  0  0
 80100  1  0  0  0  0
 80 52  1  0  0  0  0
 81129  1  0  0  0  0
 81188  1  1  0  0  0
 81101  1  0  0  0  0
 81 53  1  0  0  0  0
 82130  1  0  0  0  0
 82189  1  1  0  0  0
 82102  1  0  0  0  0
 82 54  1  0  0  0  0
 83103  1  0  0  0  0
 83131  1  0  0  0  0
 83190  1  1  0  0  0
 84104  1  0  0  0  0
 84132  1  0  0  0  0
 84191  1  1  0  0  0
 85147  1  0  0  0  0
 86148  1  0  0  0  0
 87149  1  0  0  0  0
 89151  1  0  0  0  0
 90152  1  0  0  0  0
 91153  1  0  0  0  0
 92154  1  0  0  0  0
 93155  1  0  0  0  0
 94156  1  0  0  0  0
 95157  1  0  0  0  0
 96158  1  0  0  0  0
 97159  1  0  0  0  0
 98160  1  0  0  0  0
 99161  1  0  0  0  0
100162  1  0  0  0  0
101163  1  0  0  0  0
102164  1  0  0  0  0
107 73  2  0  0  0  0
107314  1  0  0  0  0
108315  1  0  0  0  0
108316  1  0  0  0  0
109106  2  0  0  0  0
109317  1  0  0  0  0
110106  1  0  0  0  0
110318  1  0  0  0  0
110319  1  0  0  0  0
111 32  1  0  0  0  0
111106  1  0  0  0  0
111320  1  0  0  0  0
112 43  1  0  0  0  0
112 75  2  3  0  0  0
113 45  1  0  0  0  0
113 74  2  3  0  0  0
114 44  1  0  0  0  0
114 88  2  3  0  0  0
115 98  2  3  0  0  0
116 99  2  3  0  0  0
117101  2  3  0  0  0
118 91  2  3  0  0  0
119 94  2  3  0  0  0
120 85  2  3  0  0  0
121 87  2  3  0  0  0
122 86  2  3  0  0  0
123 92  2  3  0  0  0
124 97  2  3  0  0  0
125 93  2  3  0  0  0
126100  2  3  0  0  0
127 89  2  3  0  0  0
128 95  2  3  0  0  0
129 76  2  3  0  0  0
130 90  2  3  0  0  0
131102  2  3  0  0  0
132 96  2  3  0  0  0
133 33  1  0  0  0  0
133103  1  0  0  0  0
134 34  1  0  0  0  0
134104  1  0  0  0  0
135 46  1  0  0  0  0
135321  1  0  0  0  0
136322  1  0  0  0  0
137 73  1  0  0  0  0
137323  1  0  0  0  0
138 74  1  0  0  0  0
138324  1  0  0  0  0
139 75  1  0  0  0  0
139325  1  0  0  0  0
140326  1  0  0  0  0
141 77  2  0  0  0  0
142 77  1  0  0  0  0
142327  1  0  0  0  0
143 78  2  0  0  0  0
144 78  1  0  0  0  0
144328  1  0  0  0  0
145 79  2  0  0  0  0
146 79  1  0  0  0  0
146329  1  0  0  0  0
147330  1  0  0  0  0
148331  1  0  0  0  0
149332  1  0  0  0  0
150 88  1  0  0  0  0
150333  1  0  0  0  0
151334  1  0  0  0  0
152335  1  0  0  0  0
153336  1  0  0  0  0
154337  1  0  0  0  0
155338  1  0  0  0  0
156339  1  0  0  0  0
157340  1  0  0  0  0
158341  1  0  0  0  0
159342  1  0  0  0  0
160343  1  0  0  0  0
161344  1  0  0  0  0
162345  1  0  0  0  0
163346  1  0  0  0  0
164347  1  0  0  0  0
165103  2  0  0  0  0
166104  2  0  0  0  0
167105  2  0  0  0  0
168105  1  0  0  0  0
168348  1  0  0  0  0
M  END
>  <DRUGBANK_ID>
DB06651

>  <COMMON_NAME>
DiaPep 277

>  <CAS_NUMBER>
179822-83-4

>  <UNII>
F8778UWB0A

$$$$
