
 OpenBabel10282417143D

 31 33  0  0  1  0  0  0  0  0999 V2000
    1.6705    0.4391    0.2625 O   0  0  0  0  0  0  0  0  0  0  0  0
   -1.9134    0.8356    0.0646 O   0  0  0  0  0  0  0  0  0  0  0  0
   -0.7516   -1.5229    0.6527 O   0  0  0  0  0  0  0  0  0  0  0  0
    1.4218   -1.7705   -2.6372 O   0  0  0  0  0  0  0  0  0  0  0  0
    2.8336    6.1507   -2.0726 O   0  0  0  0  0  0  0  0  0  0  0  0
    0.8467    2.5995   -0.0335 N   0  0  0  0  0  0  0  0  0  0  0  0
    1.0672    2.5383   -2.4899 N   0  0  0  0  0  0  0  0  0  0  0  0
    1.6747    4.6523    0.2717 N   0  0  0  0  0  0  0  0  0  0  0  0
    2.1323    4.4488   -3.4538 N   0  0  0  0  0  0  0  0  0  0  0  0
   -0.6151    0.6090   -0.4724 C   0  0  1  0  0  0  0  0  0  0  0  0
    0.4870    1.2570    0.3581 C   0  0  1  0  0  0  0  0  0  0  0  0
   -0.1951   -0.8498   -0.4843 C   0  0  1  0  0  0  0  0  0  0  0  0
    1.3352   -0.7971   -0.3923 C   0  0  1  0  0  0  0  0  0  0  0  0
    2.0644   -0.8777   -1.7402 C   0  0  0  0  0  0  0  0  0  0  0  0
    1.1664    3.0817   -1.2655 C   0  0  0  0  0  0  0  0  0  0  0  0
    1.1274    3.6086    0.8607 C   0  0  0  0  0  0  0  0  0  0  0  0
    1.7234    4.3211   -1.0648 C   0  0  0  0  0  0  0  0  0  0  0  0
    2.2741    5.0643   -2.2062 C   0  0  0  0  0  0  0  0  0  0  0  0
    1.5640    3.2876   -3.5283 C   0  0  0  0  0  0  0  0  0  0  0  0
   -2.0142    0.2975    0.8704 H   0  0  0  0  0  0  0  0  0  0  0  0
   -0.4155   -1.1203    1.4704 H   0  0  0  0  0  0  0  0  0  0  0  0
    1.3703   -2.6457   -2.2100 H   0  0  0  0  0  0  0  0  0  0  0  0
    0.6386    1.6530   -2.7284 H   0  0  0  0  0  0  0  0  0  0  0  0
   -0.6448    0.9751   -1.4958 H   0  0  0  0  0  0  0  0  0  0  0  0
    0.1988    1.2826    1.4169 H   0  0  0  0  0  0  0  0  0  0  0  0
   -0.5631   -1.3729   -1.3701 H   0  0  0  0  0  0  0  0  0  0  0  0
    1.7107   -1.6037    0.2475 H   0  0  0  0  0  0  0  0  0  0  0  0
    2.1315    0.0986   -2.2244 H   0  0  0  0  0  0  0  0  0  0  0  0
    3.0990   -1.2120   -1.5973 H   0  0  0  0  0  0  0  0  0  0  0  0
    0.9464    3.5170    1.9255 H   0  0  0  0  0  0  0  0  0  0  0  0
    1.4369    2.7889   -4.5045 H   0  0  0  0  0  0  0  0  0  0  0  0
  1 11  1  0  0  0  0
  1 13  1  0  0  0  0
  2 20  1  0  0  0  0
  3 21  1  0  0  0  0
  4 14  1  0  0  0  0
  4 22  1  0  0  0  0
  5 18  2  0  0  0  0
  6 15  1  0  0  0  0
  6 16  1  0  0  0  0
  7 15  1  0  0  0  0
  7 19  1  0  0  0  0
  7 23  1  0  0  0  0
  8 16  2  0  0  0  0
  8 17  1  0  0  0  0
  9 18  1  0  0  0  0
  9 19  2  0  0  0  0
 10  2  1  0  0  0  0
 10 11  1  0  0  0  0
 10 12  1  0  0  0  0
 10 24  1  6  0  0  0
 11 25  1  1  0  0  0
 11  6  1  0  0  0  0
 12  3  1  0  0  0  0
 12 13  1  0  0  0  0
 12 26  1  6  0  0  0
 13 27  1  1  0  0  0
 13 14  1  0  0  0  0
 14 28  1  0  0  0  0
 14 29  1  0  0  0  0
 15 17  2  0  0  0  0
 16 30  1  0  0  0  0
 17 18  1  0  0  0  0
 19 31  1  0  0  0  0
M  END
>  <DRUGBANK_ID>
DB04335

>  <SECONDARY_ACCESSION_NUMBERS>
EXPT02378

>  <COMMON_NAME>
Inosine

>  <CAS_NUMBER>
58-63-9

>  <UNII>
5A614L51CT

>  <SYNONYMS>
9-β-D-ribofuranosyl-9H-purin-6-ol; 9-β-D-ribofuranosylhypoxanthine; beta-Inosine; hypoxanthine D-riboside; Hypoxanthosine; INO; Inosin; Inosina; Inosine; Inosinum

$$$$
