
 OpenBabel10282417123D

 71 73  0  0  0  0  0  0  0  0999 V2000
    1.7211    8.2465   -1.7829 C   0  0  0  0  0  0  0  0  0  0  0  0
    0.7117    7.2294   -2.1085 C   0  0  0  0  0  0  0  0  0  0  0  0
   -0.0829    6.8924   -0.8386 C   0  0  2  0  0  0  0  0  0  0  0  0
   -1.0827    5.9168   -1.0787 N   0  0  0  0  0  0  0  0  0  0  0  0
   -0.7523    4.8317   -1.8369 C   0  0  0  0  0  0  0  0  0  0  0  0
   -1.8018    3.9052   -1.9128 C   0  0  1  0  0  0  0  0  0  0  0  0
   -2.5264    3.8606   -3.6510 N   0  0  0  0  0  0  0  0  0  0  0  0
   -3.9043    2.7735   -3.9479 P   0  0  3  0  0  0  0  0  0  0  0  0
   -3.1129    1.4459   -4.4641 O   0  0  0  0  0  0  0  0  0  0  0  0
   -2.0499    2.0533   -3.9088 C   0  0  2  0  0  0  0  0  0  0  0  0
    1.4656    9.4580   -1.1910 C   0  0  0  0  0  0  0  0  0  0  0  0
    2.6361   10.0407   -0.8558 N   0  0  0  0  0  0  0  0  0  0  0  0
    3.6561    9.3386   -1.4319 C   0  0  0  0  0  0  0  0  0  0  0  0
    3.1158    8.1783   -1.9870 C   0  0  0  0  0  0  0  0  0  0  0  0
    5.0027    9.6560   -1.5172 C   0  0  0  0  0  0  0  0  0  0  0  0
    5.8110    8.7641   -2.2217 C   0  0  0  0  0  0  0  0  0  0  0  0
    5.3056    7.5794   -2.7582 C   0  0  0  0  0  0  0  0  0  0  0  0
    3.9589    7.2539   -2.6223 C   0  0  0  0  0  0  0  0  0  0  0  0
   -0.7698    8.1369   -0.2673 C   0  0  0  0  0  0  0  0  0  0  0  0
   -1.4674    2.4052   -1.3814 C   0  0  0  0  0  0  0  0  0  0  0  0
    0.2196    4.6002   -2.5335 O   0  0  0  0  0  0  0  0  0  0  0  0
   -0.5213    8.6419    0.8183 O   0  0  0  0  0  0  0  0  0  0  0  0
   -1.5848    8.7645   -1.1580 O   0  0  0  0  0  0  0  0  0  0  0  0
   -1.3954    2.4626    0.0742 C   0  0  0  0  0  0  0  0  0  0  0  0
   -2.7227    2.9480    0.6877 C   0  0  0  0  0  0  0  0  0  0  0  0
   -1.1198    1.0108    0.3703 C   0  0  0  0  0  0  0  0  0  0  0  0
   -3.1548    2.9011   -2.4716 O   0  0  0  0  0  0  0  0  0  0  0  0
   -4.0404    4.5057   -3.1605 C   0  0  2  0  0  0  0  0  0  0  0  0
   -3.3881    5.0115   -5.0546 C   0  0  1  0  0  0  0  0  0  0  0  0
   -2.6804    3.7899   -6.1587 C   0  0  2  0  0  0  0  0  0  0  0  0
   -1.5148    2.8974   -5.5559 C   0  0  1  0  0  0  0  0  0  0  0  0
   -2.2426    4.3785   -7.4158 O   0  0  0  0  0  0  0  0  0  0  0  0
   -0.2587    3.6181   -5.6167 O   0  0  0  0  0  0  0  0  0  0  0  0
   -3.8669    5.7808   -2.4101 C   0  0  0  0  0  0  0  0  0  0  0  0
   -4.3404    5.6975   -5.7947 O   0  0  0  0  0  0  0  0  0  0  0  0
   -4.9070    2.5631   -2.6088 O   0  0  0  0  0  0  0  0  0  0  0  0
   -5.2435    1.7170   -4.2365 O   0  0  0  0  0  0  0  0  0  0  0  0
    0.0325    7.5540   -2.9062 H   0  0  0  0  0  0  0  0  0  0  0  0
    1.2431    6.3680   -2.5300 H   0  0  0  0  0  0  0  0  0  0  0  0
    0.5662    6.4588   -0.0715 H   0  0  0  0  0  0  0  0  0  0  0  0
   -1.9975    6.0322   -0.6341 H   0  0  0  0  0  0  0  0  0  0  0  0
   -2.6850    4.2282   -1.3132 H   0  0  0  0  0  0  0  0  0  0  0  0
   -1.9879    4.7047   -3.8522 H   0  0  0  0  0  0  0  0  0  0  0  0
   -1.0801    1.5030   -3.7595 H   0  0  0  0  0  0  0  0  0  0  0  0
    0.5562    9.9394   -0.8901 H   0  0  0  0  0  0  0  0  0  0  0  0
    2.6963   10.9081   -0.3443 H   0  0  0  0  0  0  0  0  0  0  0  0
    5.3897   10.5744   -1.0939 H   0  0  0  0  0  0  0  0  0  0  0  0
    6.8596    9.0040   -2.3568 H   0  0  0  0  0  0  0  0  0  0  0  0
    5.9579    6.9051   -3.3038 H   0  0  0  0  0  0  0  0  0  0  0  0
    3.5646    6.3366   -3.0509 H   0  0  0  0  0  0  0  0  0  0  0  0
   -2.2836    1.5993   -1.4515 H   0  0  0  0  0  0  0  0  0  0  0  0
   -0.6682    1.9869   -1.9720 H   0  0  0  0  0  0  0  0  0  0  0  0
   -1.7266    9.6820   -0.8313 H   0  0  0  0  0  0  0  0  0  0  0  0
   -0.5722    3.1463    0.2488 H   0  0  0  0  0  0  0  0  0  0  0  0
   -3.5845    2.3218    0.4033 H   0  0  0  0  0  0  0  0  0  0  0  0
   -2.5989    2.9691    1.7615 H   0  0  0  0  0  0  0  0  0  0  0  0
   -3.0089    3.9723    0.4209 H   0  0  0  0  0  0  0  0  0  0  0  0
   -0.2846    0.6652   -0.2571 H   0  0  0  0  0  0  0  0  0  0  0  0
   -0.8904    0.9414    1.4173 H   0  0  0  0  0  0  0  0  0  0  0  0
   -1.9818    0.3690    0.1109 H   0  0  0  0  0  0  0  0  0  0  0  0
   -5.1159    4.3622   -3.5374 H   0  0  0  0  0  0  0  0  0  0  0  0
   -2.4649    5.6680   -5.0665 H   0  0  0  0  0  0  0  0  0  0  0  0
   -3.4798    3.1122   -6.4751 H   0  0  0  0  0  0  0  0  0  0  0  0
   -1.2996    2.1152   -6.3501 H   0  0  0  0  0  0  0  0  0  0  0  0
   -1.4155    4.8785   -7.2797 H   0  0  0  0  0  0  0  0  0  0  0  0
   -0.2693    4.3537   -4.9913 H   0  0  0  0  0  0  0  0  0  0  0  0
   -4.5349    6.4561   -2.9080 H   0  0  0  0  0  0  0  0  0  0  0  0
   -4.1518    5.4225   -1.4369 H   0  0  0  0  0  0  0  0  0  0  0  0
   -2.8475    6.1257   -2.5728 H   0  0  0  0  0  0  0  0  0  0  0  0
   -5.0471    5.0485   -5.9016 H   0  0  0  0  0  0  0  0  0  0  0  0
   -4.8931    0.9148   -4.6617 H   0  0  0  0  0  0  0  0  0  0  0  0
  1  2  1  0  0  0  0
  1 11  2  0  0  0  0
  1 14  1  0  0  0  0
  2 38  1  0  0  0  0
  2 39  1  0  0  0  0
  3 19  1  0  0  0  0
  3 40  1  1  0  0  0
  3  4  1  0  0  0  0
  3  2  1  0  0  0  0
  4  5  1  0  0  0  0
  4 41  1  0  0  0  0
  5  6  1  0  0  0  0
  5 21  2  0  0  0  0
  6  7  1  0  0  0  0
  6 20  1  0  0  0  0
  6 42  1  1  0  0  0
  7  8  1  0  0  0  0
  7 43  1  0  0  0  0
  8  9  1  0  0  0  0
  8 36  2  0  0  0  0
  8 37  1  0  0  0  0
 10 27  1  0  0  0  0
 10 31  1  0  0  0  0
 10 44  1  1  0  0  0
 10  9  1  0  0  0  0
 11 12  1  0  0  0  0
 11 45  1  0  0  0  0
 12 13  1  0  0  0  0
 12 46  1  0  0  0  0
 13 14  1  0  0  0  0
 13 15  2  0  0  0  0
 14 18  2  0  0  0  0
 15 16  1  0  0  0  0
 15 47  1  0  0  0  0
 16 17  2  0  0  0  0
 16 48  1  0  0  0  0
 17 18  1  0  0  0  0
 17 49  1  0  0  0  0
 18 50  1  0  0  0  0
 19 22  2  0  0  0  0
 19 23  1  0  0  0  0
 20 24  1  0  0  0  0
 20 51  1  0  0  0  0
 20 52  1  0  0  0  0
 23 53  1  0  0  0  0
 24 25  1  0  0  0  0
 24 26  1  0  0  0  0
 24 54  1  0  0  0  0
 25 55  1  0  0  0  0
 25 56  1  0  0  0  0
 25 57  1  0  0  0  0
 26 58  1  0  0  0  0
 26 59  1  0  0  0  0
 26 60  1  0  0  0  0
 27 28  1  0  0  0  0
 28 29  1  0  0  0  0
 28 34  1  0  0  0  0
 28 61  1  6  0  0  0
 29 30  1  0  0  0  0
 29 35  1  0  0  0  0
 29 62  1  1  0  0  0
 30 31  1  0  0  0  0
 30 32  1  0  0  0  0
 30 63  1  6  0  0  0
 31 33  1  0  0  0  0
 31 64  1  6  0  0  0
 32 65  1  0  0  0  0
 33 66  1  0  0  0  0
 34 67  1  0  0  0  0
 34 68  1  0  0  0  0
 34 69  1  0  0  0  0
 35 70  1  0  0  0  0
 37 71  1  0  0  0  0
M  END
>  <DRUGBANK_ID>
DB02557

>  <SECONDARY_ACCESSION_NUMBERS>
EXPT02764

>  <COMMON_NAME>
Phosphoramidon

>  <CAS_NUMBER>
36357-77-4

>  <UNII>
T3G94E2LB1

$$$$
