
 OpenBabel10282417143D

 36 38  0  0  0  0  0  0  0  0999 V2000
   -4.2825    1.0267    4.7482 C   0  0  0  0  0  0  0  0  0  0  0  0
   -4.5439    1.1581    5.9623 O   0  0  0  0  0  0  0  0  0  0  0  0
   -4.1198   -0.1883    4.1922 N   0  0  0  0  0  0  0  0  0  0  0  0
   -4.1438    2.1952    3.8497 C   0  0  0  0  0  0  0  0  0  0  0  0
   -3.8532    2.0346    2.5502 C   0  0  0  0  0  0  0  0  0  0  0  0
   -3.6878    0.7151    2.0139 C   0  0  0  0  0  0  0  0  0  0  0  0
   -3.8547   -0.3550    2.8693 C   0  0  0  0  0  0  0  0  0  0  0  0
   -3.6834   -1.7984    2.4811 C   0  0  0  0  0  0  0  0  0  0  0  0
   -2.7992   -1.6813    1.2849 C   0  0  2  0  0  0  0  0  0  0  0  0
   -1.4079   -0.8641    1.7190 C   0  0  0  0  0  0  0  0  0  0  0  0
   -6.1420   -0.4976    0.0385 C   0  0  0  0  0  0  0  0  0  0  0  0
   -4.9271   -1.3856   -0.0460 C   0  0  0  0  0  0  0  0  0  0  0  0
   -3.6919   -0.9006    0.2603 C   0  0  0  0  0  0  0  0  0  0  0  0
   -3.3451    0.5588    0.4550 C   0  0  1  0  0  0  0  0  0  0  0  0
   -4.1435    1.4797   -0.3774 N   0  0  0  0  0  0  0  0  0  0  0  0
   -1.7900    0.7410    0.0431 C   0  0  0  0  0  0  0  0  0  0  0  0
   -0.8742   -0.4189    0.5775 C   0  0  0  0  0  0  0  0  0  0  0  0
   -0.5539   -1.7447   -0.1066 C   0  0  0  0  0  0  0  0  0  0  0  0
   -2.5821   -2.6767    0.8994 H   0  0  0  0  0  0  0  0  0  0  0  0
   -4.2043   -1.0075    4.7852 H   0  0  0  0  0  0  0  0  0  0  0  0
   -4.2860    3.1694    4.2793 H   0  0  0  0  0  0  0  0  0  0  0  0
   -3.7507    2.8743    1.8756 H   0  0  0  0  0  0  0  0  0  0  0  0
   -3.2076   -2.5178    3.1560 H   0  0  0  0  0  0  0  0  0  0  0  0
   -4.6877   -2.2089    2.3055 H   0  0  0  0  0  0  0  0  0  0  0  0
   -1.3370   -0.1200    2.5301 H   0  0  0  0  0  0  0  0  0  0  0  0
   -7.0767   -1.0528    0.1148 H   0  0  0  0  0  0  0  0  0  0  0  0
   -6.0948    0.0848    0.9703 H   0  0  0  0  0  0  0  0  0  0  0  0
   -6.2089    0.1705   -0.8203 H   0  0  0  0  0  0  0  0  0  0  0  0
   -5.1339   -2.4367    0.1577 H   0  0  0  0  0  0  0  0  0  0  0  0
   -3.7076    2.3928   -0.4509 H   0  0  0  0  0  0  0  0  0  0  0  0
   -5.0339    1.6478    0.0857 H   0  0  0  0  0  0  0  0  0  0  0  0
   -1.6422    0.8958   -1.0390 H   0  0  0  0  0  0  0  0  0  0  0  0
   -1.5013    1.7051    0.4945 H   0  0  0  0  0  0  0  0  0  0  0  0
   -1.3183   -2.0371   -0.8286 H   0  0  0  0  0  0  0  0  0  0  0  0
    0.4619   -1.8788   -0.4539 H   0  0  0  0  0  0  0  0  0  0  0  0
   -0.5768   -2.5456    0.6782 H   0  0  0  0  0  0  0  0  0  0  0  0
  1  3  1  0  0  0  0
  1  4  1  0  0  0  0
  1  2  2  0  0  0  0
  3  7  1  0  0  0  0
  3 20  1  0  0  0  0
  4  5  2  0  0  0  0
  4 21  1  0  0  0  0
  5  6  1  0  0  0  0
  5 22  1  0  0  0  0
  6  7  2  0  0  0  0
  6 14  1  0  0  0  0
  7  8  1  0  0  0  0
  8  9  1  0  0  0  0
  8 23  1  0  0  0  0
  8 24  1  0  0  0  0
  9 10  1  0  0  0  0
  9 13  1  0  0  0  0
  9 19  1  6  0  0  0
 10 17  2  0  0  0  0
 10 25  1  0  0  0  0
 11 12  1  0  0  0  0
 11 26  1  0  0  0  0
 11 27  1  0  0  0  0
 11 28  1  0  0  0  0
 12 29  1  0  0  0  0
 12 13  2  0  0  0  0
 13 14  1  0  0  0  0
 14 16  1  0  0  0  0
 14 15  1  6  0  0  0
 15 30  1  0  0  0  0
 15 31  1  0  0  0  0
 16 17  1  0  0  0  0
 16 32  1  0  0  0  0
 16 33  1  0  0  0  0
 17 18  1  0  0  0  0
 18 34  1  0  0  0  0
 18 35  1  0  0  0  0
 18 36  1  0  0  0  0
M  END
>  <DRUGBANK_ID>
DB04864

>  <SECONDARY_ACCESSION_NUMBERS>
EXPT01795; DB01928; DB05510

>  <COMMON_NAME>
Huperzine A

>  <CAS_NUMBER>
102518-79-6

>  <UNII>
0111871I23

>  <SYNONYMS>
(-)-Huperzine A; (âˆ’)-huperazine A; (âˆ’)-selagine; Huperzine-A; L-huperzine A; Selagine

$$$$
