
 OpenBabel10282417133D

 13 13  0  0  0  0  0  0  0  0999 V2000
    0.5463   -2.0361   -0.0006 O   0  0  0  0  0  0  0  0  0  0  0  0
   -0.2617   -0.9319    0.0019 C   0  0  0  0  0  0  0  0  0  0  0  0
   -1.6493   -1.0846    0.0174 C   0  0  0  0  0  0  0  0  0  0  0  0
   -2.4703    0.0462    0.0140 C   0  0  0  0  0  0  0  0  0  0  0  0
   -1.9078    1.3226   -0.0084 C   0  0  0  0  0  0  0  0  0  0  0  0
   -0.5199    1.4735   -0.0203 C   0  0  0  0  0  0  0  0  0  0  0  0
    0.3044    0.3463   -0.0117 C   0  0  0  0  0  0  0  0  0  0  0  0
    2.0152    0.5742   -0.0144 Cl  0  0  0  0  0  0  0  0  0  0  0  0
   -0.0000   -2.8377   -0.0108 H   0  0  0  0  0  0  0  0  0  0  0  0
   -2.1073   -2.0688    0.0337 H   0  0  0  0  0  0  0  0  0  0  0  0
   -3.5521   -0.0673    0.0285 H   0  0  0  0  0  0  0  0  0  0  0  0
   -2.5487    2.2012   -0.0149 H   0  0  0  0  0  0  0  0  0  0  0  0
   -0.0862    2.4696   -0.0355 H   0  0  0  0  0  0  0  0  0  0  0  0
  1  2  1  0  0  0  0
  1  9  1  0  0  0  0
  2  3  2  0  0  0  0
  2  7  1  0  0  0  0
  3  4  1  0  0  0  0
  3 10  1  0  0  0  0
  4  5  2  0  0  0  0
  4 11  1  0  0  0  0
  5  6  1  0  0  0  0
  5 12  1  0  0  0  0
  6  7  2  0  0  0  0
  6 13  1  0  0  0  0
  7  8  1  0  0  0  0
M  END
>  <DRUGBANK_ID>
DB03110

>  <SECONDARY_ACCESSION_NUMBERS>
EXPT00108

>  <COMMON_NAME>
2-Chlorophenol

>  <CAS_NUMBER>
95-57-8

>  <UNII>
K9KAV4K6BN

>  <SYNONYMS>
2-chloro-1-hydroxybenzene; o-chlorophenol

$$$$
