
 OpenBabel10282417133D

 36 37  0  0  1  0  0  0  0  0999 V2000
    0.3759    1.0600    0.2970 C   0  0  0  0  0  0  0  0  0  0  0  0
    0.2583   -1.2932    0.0225 C   0  0  0  0  0  0  0  0  0  0  0  0
   -0.9580    1.0354    0.6595 C   0  0  0  0  0  0  0  0  0  0  0  0
   -1.1482   -1.2607    0.1844 C   0  0  0  0  0  0  0  0  0  0  0  0
   -4.0523    4.3739    1.9474 C   0  0  0  0  0  0  0  0  0  0  0  0
    1.0337   -0.1333    0.0808 C   0  0  0  0  0  0  0  0  0  0  0  0
   -1.7757   -0.0515    0.4892 C   0  0  0  0  0  0  0  0  0  0  0  0
   -3.4089    3.2827    1.0680 C   0  0  2  0  0  0  0  0  0  0  0  0
   -2.8803    3.8822   -0.2657 C   0  0  1  0  0  0  0  0  0  0  0  0
   -2.3739    2.8291   -1.2722 C   0  0  1  0  0  0  0  0  0  0  0  0
   -3.3747    1.6627   -1.4094 C   0  0  2  0  0  0  0  0  0  0  0  0
   -3.8700    1.1352   -0.0236 C   0  0  1  0  0  0  0  0  0  0  0  0
    2.3838   -0.0957   -0.2505 N   0  0  0  0  0  0  0  0  0  0  0  0
   -4.5879    3.8055    3.1420 O   0  0  0  0  0  0  0  0  0  0  0  0
   -3.9289    4.6183   -0.9184 O   0  0  0  0  0  0  0  0  0  0  0  0
   -2.0073    3.4056   -2.5329 O   0  0  0  0  0  0  0  0  0  0  0  0
   -2.8976    0.6170   -2.2580 O   0  0  0  0  0  0  0  0  0  0  0  0
   -3.1297    0.0443    0.6169 O   0  0  0  0  0  0  0  0  0  0  0  0
   -4.3332    2.2072    0.8398 O   0  0  0  0  0  0  0  0  0  0  0  0
   -2.6359    2.8889    1.7225 H   0  0  0  0  0  0  0  0  0  0  0  0
   -2.0804    4.6022   -0.0544 H   0  0  0  0  0  0  0  0  0  0  0  0
   -1.4088    2.4734   -0.9629 H   0  0  0  0  0  0  0  0  0  0  0  0
   -4.2474    2.0696   -1.9356 H   0  0  0  0  0  0  0  0  0  0  0  0
   -4.8157    0.6241   -0.2516 H   0  0  0  0  0  0  0  0  0  0  0  0
    0.8779    2.0172    0.2142 H   0  0  0  0  0  0  0  0  0  0  0  0
    0.7505   -2.2468   -0.1623 H   0  0  0  0  0  0  0  0  0  0  0  0
   -1.3455    1.9718    0.9913 H   0  0  0  0  0  0  0  0  0  0  0  0
   -1.7205   -2.1750    0.0591 H   0  0  0  0  0  0  0  0  0  0  0  0
   -3.2898    5.1025    2.2486 H   0  0  0  0  0  0  0  0  0  0  0  0
   -4.8614    4.9016    1.4396 H   0  0  0  0  0  0  0  0  0  0  0  0
    2.9033   -0.9288    0.0073 H   0  0  0  0  0  0  0  0  0  0  0  0
    2.8595    0.7587    0.0314 H   0  0  0  0  0  0  0  0  0  0  0  0
   -5.2319    3.1318    2.8543 H   0  0  0  0  0  0  0  0  0  0  0  0
   -4.6927    4.0244   -1.0268 H   0  0  0  0  0  0  0  0  0  0  0  0
   -2.7922    3.7997   -2.9426 H   0  0  0  0  0  0  0  0  0  0  0  0
   -2.0503    0.2961   -1.8993 H   0  0  0  0  0  0  0  0  0  0  0  0
  1 25  1  0  0  0  0
  2 26  1  0  0  0  0
  3  1  1  0  0  0  0
  3 27  1  0  0  0  0
  4  2  2  0  0  0  0
  4 28  1  0  0  0  0
  5 29  1  0  0  0  0
  5 30  1  0  0  0  0
  6  1  2  0  0  0  0
  6  2  1  0  0  0  0
  7  3  2  0  0  0  0
  7  4  1  0  0  0  0
  8  5  1  0  0  0  0
  8 20  1  1  0  0  0
  9  8  1  0  0  0  0
  9 15  1  0  0  0  0
  9 21  1  1  0  0  0
 10  9  1  0  0  0  0
 10 16  1  0  0  0  0
 10 22  1  1  0  0  0
 11 10  1  0  0  0  0
 11 17  1  0  0  0  0
 11 23  1  6  0  0  0
 12 11  1  0  0  0  0
 12 18  1  0  0  0  0
 12 24  1  6  0  0  0
 13  6  1  0  0  0  0
 13 31  1  0  0  0  0
 13 32  1  0  0  0  0
 14  5  1  0  0  0  0
 14 33  1  0  0  0  0
 15 34  1  0  0  0  0
 16 35  1  0  0  0  0
 17 36  1  0  0  0  0
 18  7  1  0  0  0  0
 19  8  1  0  0  0  0
 19 12  1  0  0  0  0
M  END
>  <DRUGBANK_ID>
DB03242

>  <SECONDARY_ACCESSION_NUMBERS>
EXPT01548

>  <COMMON_NAME>
P-Aminophenyl-Alpha-D-Galactopyranoside

$$$$
