
 OpenBabel10282417233D

 50 50  0  0  0  0  0  0  0  0999 V2000
    1.3003    0.3534   -0.8390 C   0  0  0  0  0  0  0  0  0  0  0  0
    0.2529   -0.9901   -1.2353 C   0  0  0  0  0  0  0  0  0  0  0  0
   -1.1312   -0.8197   -0.7746 C   0  0  0  0  0  0  0  0  0  0  0  0
   -1.5481    0.4665   -0.2981 C   0  0  0  0  0  0  0  0  0  0  0  0
   -0.6556    1.6195   -0.1579 C   0  0  0  0  0  0  0  0  0  0  0  0
    0.7522    1.6094   -0.4250 C   0  0  0  0  0  0  0  0  0  0  0  0
    0.6826   -2.7560   -1.0947 C   0  0  0  0  0  0  0  0  0  0  0  0
   -0.1852   -3.6223   -0.6650 O   0  0  0  0  0  0  0  0  0  0  0  0
    2.2787   -3.2311   -0.9601 C   0  0  0  0  0  0  0  0  0  0  0  0
    3.2241   -2.4378   -1.9201 C   0  0  0  0  0  0  0  0  0  0  0  0
    3.3072   -0.8956   -2.0487 C   0  0  0  0  0  0  0  0  0  0  0  0
    2.7313    0.3112    0.2203 O   0  0  0  0  0  0  0  0  0  0  0  0
    3.6043   -1.0922    0.9523 C   0  0  0  0  0  0  0  0  0  0  0  0
    2.8319   -2.2755    2.1198 C   0  0  0  0  0  0  0  0  0  0  0  0
    1.3258   -2.5207    2.0744 N   0  0  0  0  0  0  0  0  0  0  0  0
    0.5307   -3.3724    2.9075 C   0  0  0  0  0  0  0  0  0  0  0  0
    0.6224   -1.2873    2.1467 C   0  0  0  0  0  0  0  0  0  0  0  0
    1.0687   -0.0193    2.8402 C   0  0  0  0  0  0  0  0  0  0  0  0
    0.9222   -1.1633    0.8505 C   0  0  0  0  0  0  0  0  0  0  0  0
    0.7883   -2.7347    4.2563 C   0  0  0  0  0  0  0  0  0  0  0  0
   -1.0223   -3.3367    2.5571 C   0  0  0  0  0  0  0  0  0  0  0  0
   -1.7281   -1.6906   -0.3928 H   0  0  0  0  0  0  0  0  0  0  0  0
   -2.5846    0.5722    0.0545 H   0  0  0  0  0  0  0  0  0  0  0  0
   -1.0868    2.5174    0.2985 H   0  0  0  0  0  0  0  0  0  0  0  0
    1.4170    2.4155   -0.0929 H   0  0  0  0  0  0  0  0  0  0  0  0
    2.7003   -3.2164    0.0540 H   0  0  0  0  0  0  0  0  0  0  0  0
    2.3897   -4.3372   -0.9780 H   0  0  0  0  0  0  0  0  0  0  0  0
    4.2558   -2.7384   -1.7079 H   0  0  0  0  0  0  0  0  0  0  0  0
    2.8659   -2.7773   -2.8765 H   0  0  0  0  0  0  0  0  0  0  0  0
    3.8263   -0.3674   -1.2449 H   0  0  0  0  0  0  0  0  0  0  0  0
    3.8293   -0.4390   -2.8805 H   0  0  0  0  0  0  0  0  0  0  0  0
    2.3226   -0.5361   -2.2579 H   0  0  0  0  0  0  0  0  0  0  0  0
    3.5743   -1.6833    0.0867 H   0  0  0  0  0  0  0  0  0  0  0  0
    4.7085   -1.0807    0.9309 H   0  0  0  0  0  0  0  0  0  0  0  0
    3.2716   -3.2807    2.0015 H   0  0  0  0  0  0  0  0  0  0  0  0
    3.1281   -1.8904    3.0818 H   0  0  0  0  0  0  0  0  0  0  0  0
    0.8718   -4.3960    2.7840 H   0  0  0  0  0  0  0  0  0  0  0  0
   -0.4431   -1.2227    1.9547 H   0  0  0  0  0  0  0  0  0  0  0  0
    2.1480    0.0214    2.9561 H   0  0  0  0  0  0  0  0  0  0  0  0
    0.7639    0.8969    2.3171 H   0  0  0  0  0  0  0  0  0  0  0  0
    0.5291    0.0065    3.7657 H   0  0  0  0  0  0  0  0  0  0  0  0
    1.4289   -1.6884    0.0623 H   0  0  0  0  0  0  0  0  0  0  0  0
    0.5075   -0.2196    0.7605 H   0  0  0  0  0  0  0  0  0  0  0  0
    1.9192   -1.0414    0.7941 H   0  0  0  0  0  0  0  0  0  0  0  0
    0.2762   -1.7735    4.3286 H   0  0  0  0  0  0  0  0  0  0  0  0
    0.4067   -3.3068    5.0729 H   0  0  0  0  0  0  0  0  0  0  0  0
    1.8536   -2.5246    4.3957 H   0  0  0  0  0  0  0  0  0  0  0  0
   -1.2600   -3.7907    1.5881 H   0  0  0  0  0  0  0  0  0  0  0  0
   -1.5767   -3.8221    3.3515 H   0  0  0  0  0  0  0  0  0  0  0  0
   -1.5257   -2.3573    2.5200 H   0  0  0  0  0  0  0  0  0  0  0  0
  1 12  1  0  0  0  0
  1  2  2  0  0  0  0
  2  3  1  0  0  0  0
  2  7  1  0  0  0  0
  3  4  2  0  0  0  0
  3 22  1  0  0  0  0
  4  5  1  0  0  0  0
  4 23  1  0  0  0  0
  5  6  2  0  0  0  0
  5 24  1  0  0  0  0
  6  1  1  0  0  0  0
  6 25  1  0  0  0  0
  7  8  2  0  0  0  0
  7  9  1  0  0  0  0
  9 10  1  0  0  0  0
  9 26  1  0  0  0  0
  9 27  1  0  0  0  0
 10 11  1  0  0  0  0
 10 28  1  0  0  0  0
 10 29  1  0  0  0  0
 11 30  1  0  0  0  0
 11 31  1  0  0  0  0
 11 32  1  0  0  0  0
 12 13  1  0  0  0  0
 13 14  1  0  0  0  0
 13 33  1  0  0  0  0
 13 34  1  0  0  0  0
 14 15  1  0  0  0  0
 14 35  1  0  0  0  0
 14 36  1  0  0  0  0
 15 16  1  0  0  0  0
 15 17  1  0  0  0  0
 16 20  1  0  0  0  0
 16 21  1  0  0  0  0
 16 37  1  0  0  0  0
 17 18  1  0  0  0  0
 17 19  1  0  0  0  0
 17 38  1  0  0  0  0
 18 39  1  0  0  0  0
 18 40  1  0  0  0  0
 18 41  1  0  0  0  0
 19 42  1  0  0  0  0
 19 43  1  0  0  0  0
 19 44  1  0  0  0  0
 20 45  1  0  0  0  0
 20 46  1  0  0  0  0
 20 47  1  0  0  0  0
 21 48  1  0  0  0  0
 21 49  1  0  0  0  0
 21 50  1  0  0  0  0
M  END
>  <DRUGBANK_ID>
DB16020

>  <COMMON_NAME>
Ketocaine

>  <CAS_NUMBER>
1092-46-2

>  <UNII>
WA1RT89G9X

>  <SYNONYMS>
Cetocaina; Ketocaine; Ketocainum

$$$$
