PB2
 OpenBabel10282417173D

 32 34  0  0  0  0  0  0  0  0999 V2000
    1.3746   -0.2561    0.0101 C   0  0  0  0  0  0  0  0  0  0  0  0
    0.4914   -1.3344    0.0291 C   0  0  0  0  0  0  0  0  0  0  0  0
   -0.8843   -1.1097    0.0101 C   0  0  0  0  0  0  0  0  0  0  0  0
   -1.3802    0.1917    0.0275 C   0  0  0  0  0  0  0  0  0  0  0  0
   -0.4971    1.2690    0.0338 C   0  0  0  0  0  0  0  0  0  0  0  0
    0.8893    1.0570   -0.0377 C   0  0  0  0  0  0  0  0  0  0  0  0
    1.7882    2.1847   -0.2793 C   0  0  0  0  0  0  0  0  0  0  0  0
    2.5513    2.2434   -1.4588 C   0  0  0  0  0  0  0  0  0  0  0  0
    3.3233    3.3670   -1.7688 C   0  0  0  0  0  0  0  0  0  0  0  0
    1.8386    3.2635    0.5996 C   0  0  0  0  0  0  0  0  0  0  0  0
    2.6053    4.3818    0.2904 C   0  0  0  0  0  0  0  0  0  0  0  0
    3.3546    4.4586   -0.8939 C   0  0  0  0  0  0  0  0  0  0  0  0
    4.2276    5.6584   -1.1760 C   0  0  0  0  0  0  0  0  0  0  0  0
    3.4744    6.8957   -1.3320 N   0  0  0  0  0  0  0  0  0  0  0  0
    2.7263    7.5435   -0.3872 C   0  0  0  0  0  0  0  0  0  0  0  0
    2.1958    8.6368   -1.0331 C   0  0  0  0  0  0  0  0  0  0  0  0
    2.6774    8.7219   -2.3089 N   0  0  0  0  0  0  0  0  0  0  0  0
    3.4582    7.6715   -2.4581 C   0  0  0  0  0  0  0  0  0  0  0  0
    2.4468   -0.4406    0.0056 H   0  0  0  0  0  0  0  0  0  0  0  0
    0.8794   -2.3489    0.0289 H   0  0  0  0  0  0  0  0  0  0  0  0
   -1.5716   -1.9501   -0.0199 H   0  0  0  0  0  0  0  0  0  0  0  0
   -2.4514    0.3721    0.0051 H   0  0  0  0  0  0  0  0  0  0  0  0
   -0.8964    2.2819    0.0421 H   0  0  0  0  0  0  0  0  0  0  0  0
    2.5205    1.4120   -2.1619 H   0  0  0  0  0  0  0  0  0  0  0  0
    3.8867    3.3729   -2.6998 H   0  0  0  0  0  0  0  0  0  0  0  0
    1.2760    3.2493    1.5302 H   0  0  0  0  0  0  0  0  0  0  0  0
    2.5930    5.1967    1.0036 H   0  0  0  0  0  0  0  0  0  0  0  0
    4.9402    5.8002   -0.3561 H   0  0  0  0  0  0  0  0  0  0  0  0
    4.8119    5.5059   -2.0925 H   0  0  0  0  0  0  0  0  0  0  0  0
    2.5927    7.1964    0.6216 H   0  0  0  0  0  0  0  0  0  0  0  0
    1.5061    9.3631   -0.6282 H   0  0  0  0  0  0  0  0  0  0  0  0
    4.0204    7.4339   -3.3492 H   0  0  0  0  0  0  0  0  0  0  0  0
  1  2  2  0  0  0  0
  1  6  1  0  0  0  0
  1 19  1  0  0  0  0
  2  3  1  0  0  0  0
  2 20  1  0  0  0  0
  3  4  2  0  0  0  0
  3 21  1  0  0  0  0
  4  5  1  0  0  0  0
  4 22  1  0  0  0  0
  5  6  2  0  0  0  0
  5 23  1  0  0  0  0
  6  7  1  0  0  0  0
  7  8  2  0  0  0  0
  7 10  1  0  0  0  0
  8  9  1  0  0  0  0
  8 24  1  0  0  0  0
  9 12  2  0  0  0  0
  9 25  1  0  0  0  0
 10 11  2  0  0  0  0
 10 26  1  0  0  0  0
 11 12  1  0  0  0  0
 11 27  1  0  0  0  0
 12 13  1  0  0  0  0
 13 14  1  0  0  0  0
 13 28  1  0  0  0  0
 13 29  1  0  0  0  0
 14 15  1  0  0  0  0
 14 18  1  0  0  0  0
 15 16  2  0  0  0  0
 15 30  1  0  0  0  0
 16 17  1  0  0  0  0
 16 31  1  0  0  0  0
 17 18  2  0  0  0  0
 18 32  1  0  0  0  0
M  END
>  <DRUGBANK_ID>
DB08369

>  <COMMON_NAME>
1-(biphenyl-4-ylmethyl)-1H-imidazole

$$$$
