
 OpenBabel10282417183D

 34 36  0  0  0  0  0  0  0  0999 V2000
   -0.7903   -2.1368    0.0670 O   0  0  0  0  0  0  0  0  0  0  0  0
   -2.1502   -1.9019   -0.0313 C   0  0  0  0  0  0  0  0  0  0  0  0
   -2.7118   -0.6878   -0.0629 C   0  0  0  0  0  0  0  0  0  0  0  0
   -1.8620    0.5061   -0.0036 C   0  0  0  0  0  0  0  0  0  0  0  0
   -2.3977    1.6092    0.0060 O   0  0  0  0  0  0  0  0  0  0  0  0
    0.0961    2.6257    0.0005 O   0  0  0  0  0  0  0  0  0  0  0  0
    0.5230    1.3288    0.0058 C   0  0  0  0  0  0  0  0  0  0  0  0
    1.8933    1.0658   -0.0136 C   0  0  0  0  0  0  0  0  0  0  0  0
   -0.4026    0.2759    0.0233 C   0  0  0  0  0  0  0  0  0  0  0  0
    0.0549   -1.0477    0.0445 C   0  0  0  0  0  0  0  0  0  0  0  0
    1.4269   -1.3142    0.0367 C   0  0  0  0  0  0  0  0  0  0  0  0
    2.3316   -0.2557   -0.0019 C   0  0  0  0  0  0  0  0  0  0  0  0
    3.6626   -0.5531   -0.0324 O   0  0  0  0  0  0  0  0  0  0  0  0
   -3.8876   -5.9848    1.9852 O   0  0  0  0  0  0  0  0  0  0  0  0
   -3.8811   -5.1250    0.9202 C   0  0  0  0  0  0  0  0  0  0  0  0
   -3.0209   -4.0210    0.9604 C   0  0  0  0  0  0  0  0  0  0  0  0
   -3.0058   -3.0964   -0.0910 C   0  0  0  0  0  0  0  0  0  0  0  0
   -3.8575   -3.2992   -1.1853 C   0  0  0  0  0  0  0  0  0  0  0  0
   -4.7044   -4.4115   -1.2293 C   0  0  0  0  0  0  0  0  0  0  0  0
   -4.7243   -5.3391   -0.1795 C   0  0  0  0  0  0  0  0  0  0  0  0
   -5.6000   -6.3791   -0.3664 O   0  0  0  0  0  0  0  0  0  0  0  0
   -5.6548   -7.3669    0.6583 C   0  0  0  0  0  0  0  0  0  0  0  0
   -3.7790   -0.5188   -0.1292 H   0  0  0  0  0  0  0  0  0  0  0  0
    0.8409    3.2450   -0.0060 H   0  0  0  0  0  0  0  0  0  0  0  0
    2.6068    1.8822   -0.0436 H   0  0  0  0  0  0  0  0  0  0  0  0
    1.7908   -2.3384    0.0487 H   0  0  0  0  0  0  0  0  0  0  0  0
    4.1755    0.2717   -0.0770 H   0  0  0  0  0  0  0  0  0  0  0  0
   -3.2722   -5.6893    2.6720 H   0  0  0  0  0  0  0  0  0  0  0  0
   -2.3741   -3.8662    1.8191 H   0  0  0  0  0  0  0  0  0  0  0  0
   -3.8699   -2.5912   -2.0125 H   0  0  0  0  0  0  0  0  0  0  0  0
   -5.3548   -4.5489   -2.0911 H   0  0  0  0  0  0  0  0  0  0  0  0
   -4.6858   -7.8642    0.7812 H   0  0  0  0  0  0  0  0  0  0  0  0
   -6.0214   -6.9359    1.5967 H   0  0  0  0  0  0  0  0  0  0  0  0
   -6.3705   -8.1389    0.3642 H   0  0  0  0  0  0  0  0  0  0  0  0
  1  2  1  0  0  0  0
  1 10  1  0  0  0  0
  2  3  2  0  0  0  0
  2 17  1  0  0  0  0
  3  4  1  0  0  0  0
  3 23  1  0  0  0  0
  4  5  2  0  0  0  0
  4  9  1  0  0  0  0
  6  7  1  0  0  0  0
  6 24  1  0  0  0  0
  7  8  2  0  0  0  0
  7  9  1  0  0  0  0
  8 12  1  0  0  0  0
  8 25  1  0  0  0  0
  9 10  2  0  0  0  0
 10 11  1  0  0  0  0
 11 12  2  0  0  0  0
 11 26  1  0  0  0  0
 12 13  1  0  0  0  0
 13 27  1  0  0  0  0
 14 15  1  0  0  0  0
 14 28  1  0  0  0  0
 15 16  1  0  0  0  0
 15 20  2  0  0  0  0
 16 17  2  0  0  0  0
 16 29  1  0  0  0  0
 17 18  1  0  0  0  0
 18 19  2  0  0  0  0
 18 30  1  0  0  0  0
 19 20  1  0  0  0  0
 19 31  1  0  0  0  0
 20 21  1  0  0  0  0
 21 22  1  0  0  0  0
 22 32  1  0  0  0  0
 22 33  1  0  0  0  0
 22 34  1  0  0  0  0
M  END
>  <DRUGBANK_ID>
DB11259

>  <COMMON_NAME>
Diosmetin

>  <CAS_NUMBER>
520-34-3

>  <UNII>
TWZ37241OT

>  <SYNONYMS>
3',5,7-trihydroxy-4'-methoxyflavone; 5,7-Dihydroxy-2-(3-hydroxy-4-methoxyphenyl)-4-benzopyrone; Luteolin 4'-methyl ether; Salinigricoflavonol

$$$$
