
 OpenBabel10282417123D

 31 31  0  0  0  0  0  0  0  0999 V2000
    1.4420    0.0470   -0.0030 C   0  0  0  0  0  0  0  0  0  0  0  0
   -5.9693   -4.9020   -2.7288 C   0  0  0  0  0  0  0  0  0  0  0  0
    0.6770    1.2160    0.0070 C   0  0  0  0  0  0  0  0  0  0  0  0
   -5.4793   -4.9407   -4.0366 C   0  0  0  0  0  0  0  0  0  0  0  0
   -1.7382   -4.5990    1.1346 C   0  0  0  0  0  0  0  0  0  0  0  0
    0.7650   -1.1660   -0.0050 C   0  0  0  0  0  0  0  0  0  0  0  0
   -5.0736   -4.5889   -1.7142 C   0  0  0  0  0  0  0  0  0  0  0  0
   -1.1015   -3.3558    1.1015 C   0  0  0  0  0  0  0  0  0  0  0  0
   -2.5982   -4.9104    0.0891 C   0  0  0  0  0  0  0  0  0  0  0  0
   -0.7010    1.1260   -0.0040 C   0  0  0  0  0  0  0  0  0  0  0  0
   -4.1494   -4.6532   -4.2723 C   0  0  0  0  0  0  0  0  0  0  0  0
   -0.6110   -1.1650    0.0090 C   0  0  0  0  0  0  0  0  0  0  0  0
   -3.7588   -4.3396   -2.0349 C   0  0  0  0  0  0  0  0  0  0  0  0
   -1.3312   -2.5032    0.0397 C   0  0  0  0  0  0  0  0  0  0  0  0
   -2.7886   -3.9919   -0.9177 C   0  0  0  0  0  0  0  0  0  0  0  0
   -1.3480   -0.0500   -0.0030 N   0  0  0  0  0  0  0  0  0  0  0  0
   -3.2892   -4.3543   -3.2862 N   0  0  0  0  0  0  0  0  0  0  0  0
   -2.1659   -2.8101   -0.9655 N   0  0  0  0  0  0  0  0  0  0  0  0
    1.0546    0.0617    0.0568 Cl  0  5  0  0  0  0  0  0  0  0  0  0
    0.9148    0.0098   -0.0515 Pt  0  2  0  0  0  0  0  0  0  0  0  0
    2.5113    0.0847   -0.0089 H   0  0  0  0  0  0  0  0  0  0  0  0
   -6.9979   -5.1063   -2.5162 H   0  0  0  0  0  0  0  0  0  0  0  0
    1.1549    2.1732    0.0231 H   0  0  0  0  0  0  0  0  0  0  0  0
   -6.1293   -5.1911   -4.8488 H   0  0  0  0  0  0  0  0  0  0  0  0
   -1.5695   -5.2867    1.9368 H   0  0  0  0  0  0  0  0  0  0  0  0
    1.3063   -2.0889   -0.0173 H   0  0  0  0  0  0  0  0  0  0  0  0
   -5.4017   -4.5421   -0.6968 H   0  0  0  0  0  0  0  0  0  0  0  0
   -0.4413   -3.0668    1.8924 H   0  0  0  0  0  0  0  0  0  0  0  0
   -3.1057   -5.8521    0.0668 H   0  0  0  0  0  0  0  0  0  0  0  0
   -1.2752    2.0288   -0.0137 H   0  0  0  0  0  0  0  0  0  0  0  0
   -3.7906   -4.6694   -5.2803 H   0  0  0  0  0  0  0  0  0  0  0  0
  1 21  1  0  0  0  0
  2 22  1  0  0  0  0
  3  1  2  0  0  0  0
  3 23  1  0  0  0  0
  4  2  2  0  0  0  0
  4 24  1  0  0  0  0
  5 25  1  0  0  0  0
  6  1  1  0  0  0  0
  6 26  1  0  0  0  0
  7  2  1  0  0  0  0
  7 27  1  0  0  0  0
  8  5  2  0  0  0  0
  8 28  1  0  0  0  0
  9  5  1  0  0  0  0
  9 29  1  0  0  0  0
 10  3  1  0  0  0  0
 10 30  1  0  0  0  0
 11  4  1  0  0  0  0
 11 31  1  0  0  0  0
 12  6  2  0  0  0  0
 13  7  2  0  0  0  0
 14  8  1  0  0  0  0
 14 12  1  0  0  0  0
 15  9  2  0  0  0  0
 15 13  1  0  0  0  0
 16 10  2  0  0  0  0
 16 12  1  0  0  0  0
 17 11  2  0  0  0  0
 17 13  1  0  0  0  0
 18 14  2  0  0  0  0
 18 15  1  0  0  0  0
M  CHG  2  19  -1  20   2
M  END
>  <DRUGBANK_ID>
DB01912

>  <SECONDARY_ACCESSION_NUMBERS>
EXPT03097

>  <COMMON_NAME>
2,2':6',2''-Terpyridine Platinum(Ii)

$$$$
