8226
 OpenBabel10282417103D

 50 53  0  0  1  0  0  0  0  0999 V2000
    2.1319    2.9740   -1.8256 O   0  0  0  0  0  0  0  0  0  0  0  0
    3.1528   -0.3072   -4.5197 O   0  0  0  0  0  0  0  0  0  0  0  0
    5.0810   -0.5635   -0.7525 N   0  0  0  0  0  0  0  0  0  0  0  0
    9.2271    2.3039    2.4197 N   0  0  0  0  0  0  0  0  0  0  0  0
    1.4282    1.0665   -2.7172 N   0  0  0  0  0  0  0  0  0  0  0  0
    6.0020    0.4921   -0.2752 C   0  0  1  0  0  0  0  0  0  0  0  0
    5.2067    1.7222    0.2744 C   0  0  0  0  0  0  0  0  0  0  0  0
    7.0217   -0.1135    0.7399 C   0  0  0  0  0  0  0  0  0  0  0  0
    3.1224    0.9491   -0.8664 C   0  0  1  0  0  0  0  0  0  0  0  0
    4.1189    0.0766   -1.6519 C   0  0  0  0  0  0  0  0  0  0  0  0
    7.7980    0.9704    1.3823 C   0  0  0  0  0  0  0  0  0  0  0  0
    5.9832    2.7190    1.0373 C   0  0  0  0  0  0  0  0  0  0  0  0
    7.2249    2.2542    1.4914 C   0  0  0  0  0  0  0  0  0  0  0  0
    3.8879    1.8862    0.0430 C   0  0  0  0  0  0  0  0  0  0  0  0
    8.1135    3.0753    2.1602 C   0  0  0  0  0  0  0  0  0  0  0  0
    5.7544   -1.6530   -1.4566 C   0  0  0  0  0  0  0  0  0  0  0  0
    2.2181    1.7407   -1.8273 C   0  0  0  0  0  0  0  0  0  0  0  0
    9.0492    1.0234    1.9435 C   0  0  0  0  0  0  0  0  0  0  0  0
    5.6527    4.0494    1.3061 C   0  0  0  0  0  0  0  0  0  0  0  0
    7.7967    4.4059    2.4423 C   0  0  0  0  0  0  0  0  0  0  0  0
    6.5441    4.8712    2.0058 C   0  0  0  0  0  0  0  0  0  0  0  0
    1.2931   -0.3791   -2.9076 C   0  0  1  0  0  0  0  0  0  0  0  0
   -0.1237   -0.8713   -2.6458 C   0  0  0  0  0  0  0  0  0  0  0  0
    1.8328   -0.7949   -4.2919 C   0  0  0  0  0  0  0  0  0  0  0  0
   -1.1216   -0.3399   -3.6497 C   0  0  0  0  0  0  0  0  0  0  0  0
    6.5781    0.8739   -1.1343 H   0  0  0  0  0  0  0  0  0  0  0  0
    3.1053    0.6647   -4.4527 H   0  0  0  0  0  0  0  0  0  0  0  0
   10.0545    2.6318    2.8957 H   0  0  0  0  0  0  0  0  0  0  0  0
    0.8681    1.6886   -3.2906 H   0  0  0  0  0  0  0  0  0  0  0  0
    6.4870   -0.6818    1.5118 H   0  0  0  0  0  0  0  0  0  0  0  0
    7.7087   -0.7966    0.2293 H   0  0  0  0  0  0  0  0  0  0  0  0
    2.4686    0.3356   -0.2324 H   0  0  0  0  0  0  0  0  0  0  0  0
    4.6125    0.6638   -2.4395 H   0  0  0  0  0  0  0  0  0  0  0  0
    3.6296   -0.7381   -2.1665 H   0  0  0  0  0  0  0  0  0  0  0  0
    3.3328    2.7214    0.4615 H   0  0  0  0  0  0  0  0  0  0  0  0
    6.3097   -1.2971   -2.3299 H   0  0  0  0  0  0  0  0  0  0  0  0
    6.4295   -2.2005   -0.7949 H   0  0  0  0  0  0  0  0  0  0  0  0
    5.0197   -2.3952   -1.7939 H   0  0  0  0  0  0  0  0  0  0  0  0
    9.8174    0.2702    2.0544 H   0  0  0  0  0  0  0  0  0  0  0  0
    4.7095    4.4640    0.9608 H   0  0  0  0  0  0  0  0  0  0  0  0
    8.4801    5.0572    2.9738 H   0  0  0  0  0  0  0  0  0  0  0  0
    6.2585    5.9014    2.2065 H   0  0  0  0  0  0  0  0  0  0  0  0
    1.8531   -0.8828   -2.1266 H   0  0  0  0  0  0  0  0  0  0  0  0
   -0.1195   -1.9687   -2.6737 H   0  0  0  0  0  0  0  0  0  0  0  0
   -0.4254   -0.5840   -1.6304 H   0  0  0  0  0  0  0  0  0  0  0  0
    1.8553   -1.8855   -4.3746 H   0  0  0  0  0  0  0  0  0  0  0  0
    1.2163   -0.3987   -5.1019 H   0  0  0  0  0  0  0  0  0  0  0  0
   -0.8646   -0.6552   -4.6641 H   0  0  0  0  0  0  0  0  0  0  0  0
   -2.1181   -0.7222   -3.4246 H   0  0  0  0  0  0  0  0  0  0  0  0
   -1.1503    0.7526   -3.6243 H   0  0  0  0  0  0  0  0  0  0  0  0
  1 17  2  0  0  0  0
  2 24  1  0  0  0  0
  2 27  1  0  0  0  0
  3  6  1  0  0  0  0
  3 10  1  0  0  0  0
  3 16  1  0  0  0  0
  4 15  1  0  0  0  0
  4 18  1  0  0  0  0
  4 28  1  0  0  0  0
  5 17  1  0  0  0  0
  5 29  1  0  0  0  0
  6  7  1  0  0  0  0
  6  8  1  0  0  0  0
  6 26  1  6  0  0  0
  7 12  1  0  0  0  0
  7 14  2  0  0  0  0
  8 11  1  0  0  0  0
  8 30  1  0  0  0  0
  8 31  1  0  0  0  0
  9 10  1  0  0  0  0
  9 14  1  0  0  0  0
  9 32  1  1  0  0  0
  9 17  1  0  0  0  0
 10 33  1  0  0  0  0
 10 34  1  0  0  0  0
 11 13  1  0  0  0  0
 11 18  2  0  0  0  0
 12 13  2  0  0  0  0
 12 19  1  0  0  0  0
 13 15  1  0  0  0  0
 14 35  1  0  0  0  0
 15 20  2  0  0  0  0
 16 36  1  0  0  0  0
 16 37  1  0  0  0  0
 16 38  1  0  0  0  0
 18 39  1  0  0  0  0
 19 21  2  0  0  0  0
 19 40  1  0  0  0  0
 20 21  1  0  0  0  0
 20 41  1  0  0  0  0
 21 42  1  0  0  0  0
 22  5  1  0  0  0  0
 22 23  1  0  0  0  0
 22 24  1  0  0  0  0
 22 43  1  1  0  0  0
 23 25  1  0  0  0  0
 23 44  1  0  0  0  0
 23 45  1  0  0  0  0
 24 46  1  0  0  0  0
 24 47  1  0  0  0  0
 25 48  1  0  0  0  0
 25 49  1  0  0  0  0
 25 50  1  0  0  0  0
M  END
>  <DRUGBANK_ID>
DB00353

>  <SECONDARY_ACCESSION_NUMBERS>
APRD00739

>  <COMMON_NAME>
Methylergometrine

>  <CAS_NUMBER>
113-42-8

>  <UNII>
W53L6FE61V

>  <SYNONYMS>
9,10-Didehydro-N-[1-(hydroxymethyl)-propyl]-D-lysergamide; D-lysergic acid 1-butanolamide; Ergotyl; Methylergobasin; Methylergometrin; Méthylergométrine; Methylergometrine; Methylergometrinum; Methylergonovine; Metilergometrina; Metilergometrinio

$$$$
