
 OpenBabel10282417223D

 56 60  0  0  1  0  0  0  0  0999 V2000
   -2.6975    0.1946    0.0208 C   0  0  0  0  0  0  0  0  0  0  0  0
   -1.2511   -0.0509   -0.0646 C   0  0  0  0  0  0  0  0  0  0  0  0
   -0.0737   -0.2695   -0.0889 C   0  0  0  0  0  0  0  0  0  0  0  0
    1.3488   -0.5600    0.0496 C   0  0  0  0  0  0  0  0  0  0  0  0
    2.1348    0.3738    0.1391 O   0  0  0  0  0  0  0  0  0  0  0  0
    1.6808   -1.8791    0.2525 N   0  0  0  0  0  0  0  0  0  0  0  0
    1.0484   -3.0042   -0.4070 C   0  0  0  0  0  0  0  0  0  0  0  0
    1.4164   -4.1722    0.4927 C   0  0  0  0  0  0  0  0  0  0  0  0
    2.8356   -3.8424    1.0344 C   0  0  2  0  0  0  0  0  0  0  0  0
    2.8559   -2.2898    1.0171 C   0  0  0  0  0  0  0  0  0  0  0  0
    3.8857   -4.3912    0.1938 N   0  0  0  0  0  0  0  0  0  0  0  0
    4.1016   -3.9771   -1.1279 C   0  0  0  0  0  0  0  0  0  0  0  0
    3.5041   -3.1234   -1.7592 O   0  0  0  0  0  0  0  0  0  0  0  0
    5.1436   -4.7331   -1.6317 N   0  0  0  0  0  0  0  0  0  0  0  0
    5.6409   -5.5576   -0.6302 C   0  0  0  0  0  0  0  0  0  0  0  0
    6.7278   -6.3919   -0.5736 C   0  0  0  0  0  0  0  0  0  0  0  0
    7.5118   -6.6741   -1.6708 N   0  0  0  0  0  0  0  0  0  0  0  0
    7.0082   -7.0173    0.5790 N   0  0  0  0  0  0  0  0  0  0  0  0
    6.1972   -6.7648    1.6421 C   0  0  0  0  0  0  0  0  0  0  0  0
    5.1209   -5.9433    1.6857 N   0  0  0  0  0  0  0  0  0  0  0  0
    4.8797   -5.3478    0.5182 C   0  0  0  0  0  0  0  0  0  0  0  0
    5.5691   -4.6282   -2.9433 C   0  0  0  0  0  0  0  0  0  0  0  0
    5.9229   -3.3740   -3.4344 C   0  0  0  0  0  0  0  0  0  0  0  0
    6.2503   -3.2334   -4.7721 C   0  0  0  0  0  0  0  0  0  0  0  0
    6.2396   -4.3407   -5.6277 C   0  0  0  0  0  0  0  0  0  0  0  0
    6.5550   -4.2931   -6.9723 O   0  0  0  0  0  0  0  0  0  0  0  0
    7.0025   -3.0960   -7.4821 C   0  0  0  0  0  0  0  0  0  0  0  0
    8.1668   -2.4880   -7.0007 C   0  0  0  0  0  0  0  0  0  0  0  0
    8.5294   -1.2245   -7.4602 C   0  0  0  0  0  0  0  0  0  0  0  0
    7.7691   -0.6025   -8.4496 C   0  0  0  0  0  0  0  0  0  0  0  0
    6.6449   -1.2411   -8.9770 C   0  0  0  0  0  0  0  0  0  0  0  0
    6.2583   -2.4919   -8.4940 C   0  0  0  0  0  0  0  0  0  0  0  0
    5.8564   -5.5907   -5.1316 C   0  0  0  0  0  0  0  0  0  0  0  0
    5.5034   -5.7321   -3.7924 C   0  0  0  0  0  0  0  0  0  0  0  0
   -2.9246    1.2640   -0.0261 H   0  0  0  0  0  0  0  0  0  0  0  0
   -3.2208   -0.3002   -0.8023 H   0  0  0  0  0  0  0  0  0  0  0  0
   -3.1097   -0.1926    0.9591 H   0  0  0  0  0  0  0  0  0  0  0  0
    1.4609   -3.1214   -1.4099 H   0  0  0  0  0  0  0  0  0  0  0  0
   -0.0184   -2.8655   -0.5851 H   0  0  0  0  0  0  0  0  0  0  0  0
    0.6927   -4.1784    1.3169 H   0  0  0  0  0  0  0  0  0  0  0  0
    1.3601   -5.1350   -0.0230 H   0  0  0  0  0  0  0  0  0  0  0  0
    2.9535   -4.2308    2.0537 H   0  0  0  0  0  0  0  0  0  0  0  0
    2.7625   -1.8743    2.0266 H   0  0  0  0  0  0  0  0  0  0  0  0
    3.7692   -1.8755    0.5747 H   0  0  0  0  0  0  0  0  0  0  0  0
    7.4696   -6.0893   -2.4926 H   0  0  0  0  0  0  0  0  0  0  0  0
    8.3305   -7.2486   -1.5473 H   0  0  0  0  0  0  0  0  0  0  0  0
    6.4560   -7.2933    2.5569 H   0  0  0  0  0  0  0  0  0  0  0  0
    5.9389   -2.4966   -2.7897 H   0  0  0  0  0  0  0  0  0  0  0  0
    6.5049   -2.2366   -5.1146 H   0  0  0  0  0  0  0  0  0  0  0  0
    8.7476   -2.9655   -6.2159 H   0  0  0  0  0  0  0  0  0  0  0  0
    9.3935   -0.7211   -7.0359 H   0  0  0  0  0  0  0  0  0  0  0  0
    8.0528    0.3820   -8.8121 H   0  0  0  0  0  0  0  0  0  0  0  0
    6.0624   -0.7547   -9.7549 H   0  0  0  0  0  0  0  0  0  0  0  0
    5.3687   -2.9749   -8.8881 H   0  0  0  0  0  0  0  0  0  0  0  0
    5.8111   -6.4564   -5.7855 H   0  0  0  0  0  0  0  0  0  0  0  0
    5.1552   -6.6911   -3.4160 H   0  0  0  0  0  0  0  0  0  0  0  0
  1  2  1  0  0  0  0
  1 35  1  0  0  0  0
  1 36  1  0  0  0  0
  1 37  1  0  0  0  0
  2  3  3  0  0  0  0
  3  4  1  0  0  0  0
  4  5  2  0  0  0  0
  4  6  1  0  0  0  0
  6  7  1  0  0  0  0
  6 10  1  0  0  0  0
  7  8  1  0  0  0  0
  7 38  1  0  0  0  0
  7 39  1  0  0  0  0
  8 40  1  0  0  0  0
  8 41  1  0  0  0  0
  9  8  1  0  0  0  0
  9 10  1  0  0  0  0
  9 42  1  1  0  0  0
  9 11  1  0  0  0  0
 10 43  1  0  0  0  0
 10 44  1  0  0  0  0
 11 12  1  0  0  0  0
 11 21  1  0  0  0  0
 12 13  2  0  0  0  0
 12 14  1  0  0  0  0
 14 15  1  0  0  0  0
 14 22  1  0  0  0  0
 15 16  2  0  0  0  0
 15 21  1  0  0  0  0
 16 17  1  0  0  0  0
 16 18  1  0  0  0  0
 17 45  1  0  0  0  0
 17 46  1  0  0  0  0
 18 19  2  0  0  0  0
 19 20  1  0  0  0  0
 19 47  1  0  0  0  0
 20 21  2  0  0  0  0
 22 23  2  0  0  0  0
 22 34  1  0  0  0  0
 23 24  1  0  0  0  0
 23 48  1  0  0  0  0
 24 25  2  0  0  0  0
 24 49  1  0  0  0  0
 25 26  1  0  0  0  0
 25 33  1  0  0  0  0
 26 27  1  0  0  0  0
 27 28  2  0  0  0  0
 27 32  1  0  0  0  0
 28 29  1  0  0  0  0
 28 50  1  0  0  0  0
 29 30  2  0  0  0  0
 29 51  1  0  0  0  0
 30 31  1  0  0  0  0
 30 52  1  0  0  0  0
 31 32  2  0  0  0  0
 31 53  1  0  0  0  0
 32 54  1  0  0  0  0
 33 34  2  0  0  0  0
 33 55  1  0  0  0  0
 34 56  1  0  0  0  0
M  END
>  <DRUGBANK_ID>
DB15227

>  <COMMON_NAME>
Tirabrutinib

>  <CAS_NUMBER>
1351636-18-4

>  <UNII>
LXG44NDL2T

>  <SYNONYMS>
6-amino-9-[(3R)-1-but-2-ynoylpyrrolidin-3-yl]-7-(4-phenoxyphenyl)purin-8-one; ONO-4059 (free base); Tirabrutinib

$$$$
