TCM
 OpenBabel10282417123D

 27 28  0  0  0  0  0  0  0  0999 V2000
   -0.0229    1.1003   -0.3974 C   0  0  2  0  0  0  0  0  0  0  0  0
    1.0845    0.6142    0.5280 C   0  0  0  0  0  0  0  0  0  0  0  0
    1.1575   -0.8914    0.4506 C   0  0  0  0  0  0  0  0  0  0  0  0
   -0.1356   -1.1347   -0.4131 C   0  0  1  0  0  0  0  0  0  0  0  0
   -1.3175   -0.7653    0.5005 C   0  0  0  0  0  0  0  0  0  0  0  0
   -1.2876    0.7815    0.4887 C   0  0  0  0  0  0  0  0  0  0  0  0
   -0.1292   -0.0161   -1.5072 C   0  0  0  0  0  0  0  0  0  0  0  0
    0.9340   -0.3327   -2.5915 C   0  0  0  0  0  0  0  0  0  0  0  0
   -1.3796    0.2675   -2.3871 C   0  0  0  0  0  0  0  0  0  0  0  0
    0.0441    2.5376   -0.8858 C   0  0  0  0  0  0  0  0  0  0  0  0
    1.8285    1.4944    1.7434 S   0  0  0  0  0  0  0  0  0  0  0  0
   -0.1723   -2.1673   -0.7832 H   0  0  0  0  0  0  0  0  0  0  0  0
    2.0949   -1.1945   -0.0148 H   0  0  0  0  0  0  0  0  0  0  0  0
    1.0733   -1.3462    1.4464 H   0  0  0  0  0  0  0  0  0  0  0  0
   -2.2652   -1.1558    0.1211 H   0  0  0  0  0  0  0  0  0  0  0  0
   -1.1806   -1.1543    1.5180 H   0  0  0  0  0  0  0  0  0  0  0  0
   -2.2197    1.1777    0.0862 H   0  0  0  0  0  0  0  0  0  0  0  0
   -1.2046    1.1659    1.5139 H   0  0  0  0  0  0  0  0  0  0  0  0
    1.4527    0.5519   -2.9593 H   0  0  0  0  0  0  0  0  0  0  0  0
    1.6427   -1.1280   -2.3336 H   0  0  0  0  0  0  0  0  0  0  0  0
    0.4257   -0.7607   -3.4776 H   0  0  0  0  0  0  0  0  0  0  0  0
   -1.0660    0.7889   -3.3073 H   0  0  0  0  0  0  0  0  0  0  0  0
   -1.8929   -0.6411   -2.6815 H   0  0  0  0  0  0  0  0  0  0  0  0
   -2.1057    0.9728   -1.9567 H   0  0  0  0  0  0  0  0  0  0  0  0
    0.9412    2.7020   -1.4902 H   0  0  0  0  0  0  0  0  0  0  0  0
   -0.8246    2.7949   -1.4958 H   0  0  0  0  0  0  0  0  0  0  0  0
    0.0631    3.2489   -0.0549 H   0  0  0  0  0  0  0  0  0  0  0  0
  1  2  1  0  0  0  0
  1  6  1  0  0  0  0
  1  7  1  0  0  0  0
  1 10  1  6  0  0  0
  2  3  1  0  0  0  0
  2 11  2  0  0  0  0
  3  4  1  0  0  0  0
  3 13  1  0  0  0  0
  3 14  1  0  0  0  0
  4  5  1  0  0  0  0
  4  7  1  0  0  0  0
  4 12  1  6  0  0  0
  5  6  1  0  0  0  0
  5 15  1  0  0  0  0
  5 16  1  0  0  0  0
  6 17  1  0  0  0  0
  6 18  1  0  0  0  0
  7  8  1  0  0  0  0
  7  9  1  0  0  0  0
  8 19  1  0  0  0  0
  8 20  1  0  0  0  0
  8 21  1  0  0  0  0
  9 22  1  0  0  0  0
  9 23  1  0  0  0  0
  9 24  1  0  0  0  0
 10 25  1  0  0  0  0
 10 26  1  0  0  0  0
 10 27  1  0  0  0  0
M  END
>  <DRUGBANK_ID>
DB02851

>  <SECONDARY_ACCESSION_NUMBERS>
EXPT03025

>  <COMMON_NAME>
Thiocamphor

>  <CAS_NUMBER>
7519-74-6

>  <UNII>
7WA22E7HFY

$$$$
