
 OpenBabel10282417133D

 19 20  0  0  0  0  0  0  0  0999 V2000
    2.0754    0.7473    0.0020 N   0  3  0  0  0  0  0  0  0  0  0  0
   -1.5687    1.0864   -0.0006 N   0  0  0  0  0  0  0  0  0  0  0  0
    0.9008   -1.3510   -0.0022 N   0  0  0  0  0  0  0  0  0  0  0  0
   -1.4942   -1.1285    0.0002 N   0  0  0  0  0  0  0  0  0  0  0  0
    0.9501    2.8622   -0.0017 N   0  0  0  0  0  0  0  0  0  0  0  0
   -0.2364    0.7566   -0.0011 C   0  0  0  0  0  0  0  0  0  0  0  0
    0.9427    1.4838   -0.0009 C   0  0  0  0  0  0  0  0  0  0  0  0
   -0.2297   -0.6268   -0.0011 C   0  0  0  0  0  0  0  0  0  0  0  0
    2.0077   -0.5994   -0.0005 C   0  0  0  0  0  0  0  0  0  0  0  0
    3.3890    1.4012    0.0119 C   0  0  0  0  0  0  0  0  0  0  0  0
   -2.2848   -0.0786    0.0006 C   0  0  0  0  0  0  0  0  0  0  0  0
   -1.9671    2.0163   -0.0001 H   0  0  0  0  0  0  0  0  0  0  0  0
    0.0779    3.3775   -0.0126 H   0  0  0  0  0  0  0  0  0  0  0  0
    1.7842    3.4307   -0.0110 H   0  0  0  0  0  0  0  0  0  0  0  0
    2.9436   -1.1545   -0.0012 H   0  0  0  0  0  0  0  0  0  0  0  0
    3.4642    2.0205   -0.8867 H   0  0  0  0  0  0  0  0  0  0  0  0
    3.4524    2.0148    0.9154 H   0  0  0  0  0  0  0  0  0  0  0  0
    4.1934    0.6628    0.0151 H   0  0  0  0  0  0  0  0  0  0  0  0
   -3.3686   -0.0947    0.0017 H   0  0  0  0  0  0  0  0  0  0  0  0
  1  7  2  0  0  0  0
  1  9  1  0  0  0  0
  1 10  1  0  0  0  0
  2  6  1  0  0  0  0
  2 11  1  0  0  0  0
  2 12  1  0  0  0  0
  3  8  1  0  0  0  0
  3  9  2  0  0  0  0
  4  8  1  0  0  0  0
  4 11  2  0  0  0  0
  5  7  1  0  0  0  0
  5 13  1  0  0  0  0
  5 14  1  0  0  0  0
  6  7  1  0  0  0  0
  6  8  2  0  0  0  0
  9 15  1  0  0  0  0
 10 16  1  0  0  0  0
 10 17  1  0  0  0  0
 10 18  1  0  0  0  0
 11 19  1  0  0  0  0
M  CHG  1   1   1
M  END
>  <DRUGBANK_ID>
DB03164

>  <SECONDARY_ACCESSION_NUMBERS>
EXPT02082

>  <COMMON_NAME>
6-amino-1-methyl-7H-purin-1-ium

>  <UNII>
98K2TG3E3W

>  <SYNONYMS>
6-amino-1-methylpurine

$$$$
