
 OpenBabel10282417113D

138140  0  0  1  0  0  0  0  0999 V2000
    6.4205    4.6266   12.6116 N   0  0  0  0  0  0  0  0  0  0  0  0
    5.2392    4.3917   11.9652 C   0  0  0  0  0  0  0  0  0  0  0  0
    5.2423    4.6073   10.4519 C   0  0  0  0  0  0  0  0  0  0  0  0
    4.8665    3.3962    9.7546 N   0  0  0  0  0  0  0  0  0  0  0  0
    3.6881    3.3334    9.0548 C   0  0  0  0  0  0  0  0  0  0  0  0
    3.4465    1.9895    8.3913 C   0  0  1  0  0  0  0  0  0  0  0  0
    2.1003    1.5206    8.6714 N   0  0  0  0  0  0  0  0  0  0  0  0
    0.9581    1.8411    8.0080 C   0  0  0  0  0  0  0  0  0  0  0  0
   -0.0751    1.7446    8.6726 O   0  0  0  0  0  0  0  0  0  0  0  0
    4.2691    3.9760   12.5910 O   0  0  0  0  0  0  0  0  0  0  0  0
    2.9463    4.2941    8.8667 O   0  0  0  0  0  0  0  0  0  0  0  0
    3.6605    2.2140    6.9260 C   0  0  0  0  0  0  0  0  0  0  0  0
    4.9174    2.7141    6.2979 C   0  0  0  0  0  0  0  0  0  0  0  0
    5.9335    1.6472    6.5956 C   0  0  0  0  0  0  0  0  0  0  0  0
    0.9876    2.1038    6.4453 C   0  0  2  0  0  0  0  0  0  0  0  0
    1.0125    3.4937    5.9169 C   0  0  0  0  0  0  0  0  0  0  0  0
   -0.1671    1.6548    5.7913 N   0  0  0  0  0  0  0  0  0  0  0  0
    0.8498    3.2994    4.4165 C   0  0  0  0  0  0  0  0  0  0  0  0
   -0.0966    2.1208    4.3335 C   0  0  0  0  0  0  0  0  0  0  0  0
   -0.1735    0.3690    6.2781 C   0  0  0  0  0  0  0  0  0  0  0  0
    0.1412   -0.4771    5.2113 C   0  0  1  0  0  0  0  0  0  0  0  0
    1.8623   -1.0606    5.5997 N   0  0  0  0  0  0  0  0  0  0  0  0
    3.2480   -0.8170    5.0700 C   0  0  0  0  0  0  0  0  0  0  0  0
    4.6195   -1.8274    4.7482 C   0  0  1  0  0  0  0  0  0  0  0  0
    4.1620   -3.1093    5.1441 N   0  0  0  0  0  0  0  0  0  0  0  0
   -0.3066   -0.1521    7.3722 O   0  0  0  0  0  0  0  0  0  0  0  0
   -1.7628   -0.6343    5.6402 C   0  0  0  0  0  0  0  0  0  0  0  0
   -2.7948   -1.7729    6.7923 S   0  0  0  0  0  0  0  0  0  0  0  0
   -2.9533   -3.2730    5.8168 C   0  0  0  0  0  0  0  0  0  0  0  0
    3.5287    0.3578    4.8388 O   0  0  0  0  0  0  0  0  0  0  0  0
    5.2866   -1.6020    3.2620 C   0  0  0  0  0  0  0  0  0  0  0  0
    4.9933   -0.2808    2.6309 C   0  0  0  0  0  0  0  0  0  0  0  0
    5.8587    0.4694    2.1984 O   0  0  0  0  0  0  0  0  0  0  0  0
    3.6622   -0.0004    2.4578 N   0  0  0  0  0  0  0  0  0  0  0  0
    3.8424   -3.8971    4.1114 C   0  0  0  0  0  0  0  0  0  0  0  0
    2.6249   -4.6838    4.0399 C   0  0  2  0  0  0  0  0  0  0  0  0
    4.6038   -3.9499    3.1007 O   0  0  0  0  0  0  0  0  0  0  0  0
    3.0344   -6.1121    3.7850 C   0  0  0  0  0  0  0  0  0  0  0  0
    2.6308   -6.2717    2.3700 C   0  0  0  0  0  0  0  0  0  0  0  0
    3.2738   -5.2065    1.2669 C   0  0  0  0  0  0  0  0  0  0  0  0
    3.5323   -5.7545    0.0735 N   0  0  0  0  0  0  0  0  0  0  0  0
    3.2480   -3.9717    1.1371 O   0  0  0  0  0  0  0  0  0  0  0  0
    1.7111   -3.9768    2.7562 N   0  0  0  0  0  0  0  0  0  0  0  0
   -3.2302   -6.1504    1.5688 C   0  0  0  0  0  0  0  0  0  0  0  0
   -1.9696   -5.9749    2.3424 C   0  0  1  0  0  0  0  0  0  0  0  0
   -1.1951   -4.6803    1.5571 C   0  0  1  0  0  0  0  0  0  0  0  0
    0.7008   -4.5248    1.4846 C   0  0  0  0  0  0  0  0  0  0  0  0
   -3.3867   -7.6235    1.4355 C   0  0  0  0  0  0  0  0  0  0  0  0
   -2.9232   -2.2503    1.5076 N   0  0  0  0  0  0  0  0  0  0  0  0
   -3.0991   -2.0485    2.8383 C   0  0  0  0  0  0  0  0  0  0  0  0
   -4.2882   -2.4349    3.6877 C   0  0  0  0  0  0  0  0  0  0  0  0
   -4.1533   -3.4274    4.8721 C   0  0  0  0  0  0  0  0  0  0  0  0
   -1.2423   -3.2424   -0.2181 C   0  0  0  0  0  0  0  0  0  0  0  0
   -0.8103   -3.0195   -1.3435 O   0  0  0  0  0  0  0  0  0  0  0  0
   -1.5413   -2.1129    0.8784 C   0  0  2  0  0  0  0  0  0  0  0  0
   -1.3669   -4.5514    0.1866 N   0  0  0  0  0  0  0  0  0  0  0  0
    1.0244   -5.3686    0.6177 O   0  0  0  0  0  0  0  0  0  0  0  0
   -0.3648   -2.0493    2.0290 C   0  0  0  0  0  0  0  0  0  0  0  0
   -0.0938   -2.8383    4.6333 C   0  0  0  0  0  0  0  0  0  0  0  0
   -0.3760   -3.1512    3.3851 C   0  0  0  0  0  0  0  0  0  0  0  0
    0.2293   -3.6463    5.7564 C   0  0  0  0  0  0  0  0  0  0  0  0
    0.3103   -5.0157    5.5917 C   0  0  0  0  0  0  0  0  0  0  0  0
   -0.2941   -4.5499    3.5643 C   0  0  0  0  0  0  0  0  0  0  0  0
    0.0110   -5.5244    4.4496 C   0  0  0  0  0  0  0  0  0  0  0  0
   -2.1955   -1.4312    3.3784 O   0  0  0  0  0  0  0  0  0  0  0  0
   -1.7740   -3.9089    2.0218 H   0  0  0  0  0  0  0  0  0  0  0  0
    0.8349   -6.0523    6.2338 O   0  0  0  0  0  0  0  0  0  0  0  0
    4.7483    2.9663    4.7835 C   0  0  0  0  0  0  0  0  0  0  0  0
   -2.5159   -5.7891    3.8352 C   0  0  0  0  0  0  0  0  0  0  0  0
    0.8780   -5.6556    7.5386 C   0  0  0  0  0  0  0  0  0  0  0  0
    7.2632    4.9611   12.1664 H   0  0  0  0  0  0  0  0  0  0  0  0
    6.4312    4.5002   13.6169 H   0  0  0  0  0  0  0  0  0  0  0  0
    4.5386    5.4136   10.2264 H   0  0  0  0  0  0  0  0  0  0  0  0
    6.2316    4.8972   10.0908 H   0  0  0  0  0  0  0  0  0  0  0  0
    5.4058    2.5532    9.9064 H   0  0  0  0  0  0  0  0  0  0  0  0
    4.0952    1.1905    8.7523 H   0  0  0  0  0  0  0  0  0  0  0  0
    1.8475    1.3569    9.6419 H   0  0  0  0  0  0  0  0  0  0  0  0
    3.3948    1.2761    6.5026 H   0  0  0  0  0  0  0  0  0  0  0  0
    2.9900    2.9744    6.6438 H   0  0  0  0  0  0  0  0  0  0  0  0
    5.1483    3.6793    6.7565 H   0  0  0  0  0  0  0  0  0  0  0  0
    5.6583    0.7112    6.1007 H   0  0  0  0  0  0  0  0  0  0  0  0
    6.9154    1.9565    6.2620 H   0  0  0  0  0  0  0  0  0  0  0  0
    5.9564    1.4351    7.6684 H   0  0  0  0  0  0  0  0  0  0  0  0
    1.7158    1.4526    5.9423 H   0  0  0  0  0  0  0  0  0  0  0  0
    0.1634    3.9676    6.3975 H   0  0  0  0  0  0  0  0  0  0  0  0
    1.8684    4.1241    6.0975 H   0  0  0  0  0  0  0  0  0  0  0  0
    0.4635    4.2045    3.9607 H   0  0  0  0  0  0  0  0  0  0  0  0
    1.8062    3.0445    3.9265 H   0  0  0  0  0  0  0  0  0  0  0  0
   -1.0864    2.3835    3.9534 H   0  0  0  0  0  0  0  0  0  0  0  0
    0.3366    1.4299    3.5851 H   0  0  0  0  0  0  0  0  0  0  0  0
    0.1283   -0.2018    4.1737 H   0  0  0  0  0  0  0  0  0  0  0  0
    2.0399   -0.4733    6.4172 H   0  0  0  0  0  0  0  0  0  0  0  0
    5.5320   -1.7312    5.3907 H   0  0  0  0  0  0  0  0  0  0  0  0
    3.7697   -3.1731    6.0833 H   0  0  0  0  0  0  0  0  0  0  0  0
   -2.1797    0.3265    6.0568 H   0  0  0  0  0  0  0  0  0  0  0  0
   -2.4197   -0.3932    4.8052 H   0  0  0  0  0  0  0  0  0  0  0  0
   -2.0912   -3.2494    5.2166 H   0  0  0  0  0  0  0  0  0  0  0  0
   -2.7941   -4.1386    6.4767 H   0  0  0  0  0  0  0  0  0  0  0  0
    6.3690   -1.8518    3.2161 H   0  0  0  0  0  0  0  0  0  0  0  0
    4.9073   -2.2042    2.4346 H   0  0  0  0  0  0  0  0  0  0  0  0
    2.9979   -0.4580    3.0620 H   0  0  0  0  0  0  0  0  0  0  0  0
    3.5040    0.9963    2.4678 H   0  0  0  0  0  0  0  0  0  0  0  0
    2.3109   -4.5038    5.0772 H   0  0  0  0  0  0  0  0  0  0  0  0
    4.0900   -6.3481    3.9059 H   0  0  0  0  0  0  0  0  0  0  0  0
    2.4769   -6.7873    4.4539 H   0  0  0  0  0  0  0  0  0  0  0  0
    2.4450   -7.2715    2.0010 H   0  0  0  0  0  0  0  0  0  0  0  0
    1.5731   -6.1108    2.5388 H   0  0  0  0  0  0  0  0  0  0  0  0
    3.4973   -4.9145   -0.5082 H   0  0  0  0  0  0  0  0  0  0  0  0
    2.7591   -6.3689   -0.1324 H   0  0  0  0  0  0  0  0  0  0  0  0
    1.5928   -3.0481    3.1354 H   0  0  0  0  0  0  0  0  0  0  0  0
   -4.0657   -5.6204    2.0450 H   0  0  0  0  0  0  0  0  0  0  0  0
   -3.1436   -5.7324    0.5763 H   0  0  0  0  0  0  0  0  0  0  0  0
   -1.2986   -6.8425    2.3618 H   0  0  0  0  0  0  0  0  0  0  0  0
   -3.5898   -8.0736    2.4097 H   0  0  0  0  0  0  0  0  0  0  0  0
   -4.1837   -7.7960    0.7259 H   0  0  0  0  0  0  0  0  0  0  0  0
   -2.4503   -8.0474    1.0464 H   0  0  0  0  0  0  0  0  0  0  0  0
   -3.6664   -2.6301    0.9465 H   0  0  0  0  0  0  0  0  0  0  0  0
   -5.0677   -2.7684    3.0095 H   0  0  0  0  0  0  0  0  0  0  0  0
   -4.5835   -1.4967    4.1623 H   0  0  0  0  0  0  0  0  0  0  0  0
   -4.2338   -4.4226    4.4392 H   0  0  0  0  0  0  0  0  0  0  0  0
   -5.0482   -3.4684    5.4881 H   0  0  0  0  0  0  0  0  0  0  0  0
   -1.5565   -1.1855    0.2849 H   0  0  0  0  0  0  0  0  0  0  0  0
   -0.7512   -5.2094   -0.2883 H   0  0  0  0  0  0  0  0  0  0  0  0
    0.6193   -1.9452    1.5248 H   0  0  0  0  0  0  0  0  0  0  0  0
   -0.4457   -1.0081    2.3998 H   0  0  0  0  0  0  0  0  0  0  0  0
   -0.6154   -1.9760    4.7598 H   0  0  0  0  0  0  0  0  0  0  0  0
    0.4091   -3.1357    6.6831 H   0  0  0  0  0  0  0  0  0  0  0  0
   -0.1502   -5.3332    2.8597 H   0  0  0  0  0  0  0  0  0  0  0  0
    0.1153   -6.5707    4.1398 H   0  0  0  0  0  0  0  0  0  0  0  0
    3.9668    3.7030    4.5605 H   0  0  0  0  0  0  0  0  0  0  0  0
    5.6919    3.3046    4.3578 H   0  0  0  0  0  0  0  0  0  0  0  0
    4.4800    2.0902    4.2019 H   0  0  0  0  0  0  0  0  0  0  0  0
   -3.3284   -6.4422    4.1529 H   0  0  0  0  0  0  0  0  0  0  0  0
   -1.9648   -5.8154    4.7831 H   0  0  0  0  0  0  0  0  0  0  0  0
   -2.7097   -4.7371    3.7966 H   0  0  0  0  0  0  0  0  0  0  0  0
    1.6659   -4.9020    7.5865 H   0  0  0  0  0  0  0  0  0  0  0  0
   -0.1229   -5.2852    7.7833 H   0  0  0  0  0  0  0  0  0  0  0  0
    1.1142   -6.5795    8.0299 H   0  0  0  0  0  0  0  0  0  0  0  0
  1 71  1  0  0  0  0
  1 72  1  0  0  0  0
  2  1  1  0  0  0  0
  3  2  1  0  0  0  0
  3 73  1  0  0  0  0
  3 74  1  0  0  0  0
  4  3  1  0  0  0  0
  4 75  1  0  0  0  0
  5  4  1  0  0  0  0
  6  5  1  0  0  0  0
  6 12  1  0  0  0  0
  6 76  1  1  0  0  0
  7  6  1  0  0  0  0
  7 77  1  0  0  0  0
  8  7  1  0  0  0  0
  9  8  2  0  0  0  0
 10  2  2  0  0  0  0
 11  5  2  0  0  0  0
 12 78  1  0  0  0  0
 12 79  1  0  0  0  0
 13 12  1  0  0  0  0
 13 80  1  0  0  0  0
 14 13  1  0  0  0  0
 14 81  1  0  0  0  0
 14 82  1  0  0  0  0
 14 83  1  0  0  0  0
 15  8  1  0  0  0  0
 15 84  1  6  0  0  0
 16 15  1  0  0  0  0
 16 85  1  0  0  0  0
 16 86  1  0  0  0  0
 17 15  1  0  0  0  0
 18 16  1  0  0  0  0
 18 87  1  0  0  0  0
 18 88  1  0  0  0  0
 19 17  1  0  0  0  0
 19 18  1  0  0  0  0
 19 89  1  0  0  0  0
 19 90  1  0  0  0  0
 20 17  1  0  0  0  0
 21 22  1  0  0  0  0
 21 91  1  6  0  0  0
 21 20  1  0  0  0  0
 22 92  1  0  0  0  0
 23 22  1  0  0  0  0
 24 23  1  0  0  0  0
 24 93  1  1  0  0  0
 24 31  1  0  0  0  0
 25 24  1  0  0  0  0
 25 94  1  0  0  0  0
 26 20  2  0  0  0  0
 27 21  1  0  0  0  0
 27 95  1  0  0  0  0
 27 96  1  0  0  0  0
 28 27  1  0  0  0  0
 29 28  1  0  0  0  0
 29 97  1  0  0  0  0
 29 98  1  0  0  0  0
 30 23  2  0  0  0  0
 31 99  1  0  0  0  0
 31100  1  0  0  0  0
 32 31  1  0  0  0  0
 33 32  2  0  0  0  0
 34 32  1  0  0  0  0
 34101  1  0  0  0  0
 34102  1  0  0  0  0
 35 25  1  0  0  0  0
 36 35  1  0  0  0  0
 36103  1  1  0  0  0
 36 38  1  0  0  0  0
 37 35  2  0  0  0  0
 38104  1  0  0  0  0
 38105  1  0  0  0  0
 39 38  1  0  0  0  0
 39106  1  0  0  0  0
 39107  1  0  0  0  0
 40 39  1  0  0  0  0
 41 40  1  0  0  0  0
 41108  1  0  0  0  0
 41109  1  0  0  0  0
 42 40  2  0  0  0  0
 43 36  1  0  0  0  0
 43110  1  0  0  0  0
 44111  1  0  0  0  0
 44112  1  0  0  0  0
 45 69  1  0  0  0  0
 45113  1  6  0  0  0
 45 46  1  0  0  0  0
 45 44  1  0  0  0  0
 46 66  1  1  0  0  0
 47 43  1  0  0  0  0
 47 46  1  0  0  0  0
 48 44  1  0  0  0  0
 48114  1  0  0  0  0
 48115  1  0  0  0  0
 48116  1  0  0  0  0
 49117  1  0  0  0  0
 50 49  1  0  0  0  0
 51 50  1  0  0  0  0
 51118  1  0  0  0  0
 51119  1  0  0  0  0
 52 29  1  0  0  0  0
 52 51  1  0  0  0  0
 52120  1  0  0  0  0
 52121  1  0  0  0  0
 54 53  2  0  0  0  0
 55 49  1  0  0  0  0
 55 53  1  0  0  0  0
 55122  1  6  0  0  0
 55 58  1  0  0  0  0
 56 46  1  0  0  0  0
 56 53  1  0  0  0  0
 56123  1  0  0  0  0
 57 47  2  0  0  0  0
 58124  1  0  0  0  0
 58125  1  0  0  0  0
 59126  1  0  0  0  0
 60 58  1  0  0  0  0
 60 59  1  0  0  0  0
 61 59  2  0  0  0  0
 61127  1  0  0  0  0
 62 61  1  0  0  0  0
 63 60  2  0  0  0  0
 63128  1  0  0  0  0
 64 62  2  0  0  0  0
 64 63  1  0  0  0  0
 64129  1  0  0  0  0
 65 50  2  0  0  0  0
 67 62  1  0  0  0  0
 68 13  1  0  0  0  0
 68130  1  0  0  0  0
 68131  1  0  0  0  0
 68132  1  0  0  0  0
 69133  1  0  0  0  0
 69134  1  0  0  0  0
 69135  1  0  0  0  0
 70 67  1  0  0  0  0
 70136  1  0  0  0  0
 70137  1  0  0  0  0
 70138  1  0  0  0  0
M  END
>  <DRUGBANK_ID>
DB01282

>  <COMMON_NAME>
Carbetocin

>  <CAS_NUMBER>
37025-55-1

>  <UNII>
88TWF8015Y

>  <SYNONYMS>
1-butanoic acid-2-(O-methyl-L-tyrosine)-1-carbaoxytocin; 1-butyric acid-2-(3-(p-methoxyphenyl)-L-alanine)oxytocin; Carbetocin; Carbetocina; Carbetocino; Carbetocinum; deamino-2-O-methyltyrosine-1-carbaoxytocin

$$$$
