
 OpenBabel10282417133D

 27 28  0  0  1  0  0  0  0  0999 V2000
    2.4030    5.5957   -0.9308 C   0  0  0  0  0  0  0  0  0  0  0  0
    2.8766    5.1293    0.3036 C   0  0  0  0  0  0  0  0  0  0  0  0
    2.4886    4.7922   -2.0734 C   0  0  0  0  0  0  0  0  0  0  0  0
    3.4978    3.8836    0.3969 C   0  0  0  0  0  0  0  0  0  0  0  0
    3.2049    2.4602   -2.9918 C   0  0  0  0  0  0  0  0  0  0  0  0
    4.3123    1.7990   -0.8912 C   0  0  0  0  0  0  0  0  0  0  0  0
    3.0443    3.5250   -1.9520 C   0  0  0  0  0  0  0  0  0  0  0  0
    3.6045    3.1086   -0.7451 C   0  0  0  0  0  0  0  0  0  0  0  0
    3.6655    1.2143   -2.1643 C   0  0  0  0  0  0  0  0  0  0  0  0
    2.6542    0.0636   -1.8489 C   0  0  2  0  0  0  0  0  0  0  0  0
    2.2815   -0.0661   -0.3383 C   0  0  0  0  0  0  0  0  0  0  0  0
    3.2900   -1.2199   -2.2842 N   0  0  0  0  0  0  0  0  0  0  0  0
    1.6295    0.7347    0.3207 O   0  0  0  0  0  0  0  0  0  0  0  0
    2.8744   -1.1104    0.2939 O   0  0  0  0  0  0  0  0  0  0  0  0
    1.7158    0.1434   -2.4080 H   0  0  0  0  0  0  0  0  0  0  0  0
    1.9524    6.5842   -0.9900 H   0  0  0  0  0  0  0  0  0  0  0  0
    2.7659    5.7435    1.1936 H   0  0  0  0  0  0  0  0  0  0  0  0
    2.1214    5.1655   -3.0248 H   0  0  0  0  0  0  0  0  0  0  0  0
    3.8684    3.5213    1.3495 H   0  0  0  0  0  0  0  0  0  0  0  0
    4.0287    2.7684   -3.6522 H   0  0  0  0  0  0  0  0  0  0  0  0
    2.3100    2.3076   -3.6007 H   0  0  0  0  0  0  0  0  0  0  0  0
    4.2100    1.1890    0.0055 H   0  0  0  0  0  0  0  0  0  0  0  0
    5.3816    1.9496   -1.0606 H   0  0  0  0  0  0  0  0  0  0  0  0
    4.4533    0.7684   -2.7865 H   0  0  0  0  0  0  0  0  0  0  0  0
    3.5177   -1.1869   -3.2742 H   0  0  0  0  0  0  0  0  0  0  0  0
    4.1754   -1.3170   -1.7797 H   0  0  0  0  0  0  0  0  0  0  0  0
    2.6388   -1.0060    1.2385 H   0  0  0  0  0  0  0  0  0  0  0  0
  1 16  1  0  0  0  0
  2  1  2  0  0  0  0
  2 17  1  0  0  0  0
  3  1  1  0  0  0  0
  3 18  1  0  0  0  0
  4  2  1  0  0  0  0
  4 19  1  0  0  0  0
  5 20  1  0  0  0  0
  5 21  1  0  0  0  0
  6 22  1  0  0  0  0
  6 23  1  0  0  0  0
  7  3  2  0  0  0  0
  7  5  1  0  0  0  0
  8  4  2  0  0  0  0
  8  6  1  0  0  0  0
  8  7  1  0  0  0  0
  9  5  1  0  0  0  0
  9  6  1  0  0  0  0
  9 24  1  0  0  0  0
 10 12  1  0  0  0  0
 10 15  1  6  0  0  0
 10 11  1  0  0  0  0
 10  9  1  0  0  0  0
 12 25  1  0  0  0  0
 12 26  1  0  0  0  0
 13 11  2  0  0  0  0
 14 11  1  0  0  0  0
 14 27  1  0  0  0  0
M  END
>  <DRUGBANK_ID>
DB04061

>  <SECONDARY_ACCESSION_NUMBERS>
EXPT01849

>  <COMMON_NAME>
Alpha-Amino-2-Indanacetic Acid

$$$$
