
 OpenBabel10282417133D

 17 17  0  0  0  0  0  0  0  0999 V2000
    0.9879   -0.0489   -0.1061 C   0  0  0  0  0  0  0  0  0  0  0  0
    0.4749   -1.4218   -0.4296 C   0  0  0  0  0  0  0  0  0  0  0  0
    1.3392   -2.5165   -0.2822 C   0  0  0  0  0  0  0  0  0  0  0  0
    0.8654   -3.8284   -0.4067 C   0  0  0  0  0  0  0  0  0  0  0  0
   -0.4421   -4.0565   -0.8240 C   0  0  0  0  0  0  0  0  0  0  0  0
   -1.2777   -2.9790   -1.0549 C   0  0  0  0  0  0  0  0  0  0  0  0
   -2.5371   -3.2111   -1.5318 O   0  0  0  0  0  0  0  0  0  0  0  0
   -0.8512   -1.6703   -0.7981 C   0  0  0  0  0  0  0  0  0  0  0  0
   -1.7941   -0.6859   -0.9137 O   0  0  0  0  0  0  0  0  0  0  0  0
    0.6316    0.2454    0.8864 H   0  0  0  0  0  0  0  0  0  0  0  0
    0.6561    0.6855   -0.8456 H   0  0  0  0  0  0  0  0  0  0  0  0
    2.0830   -0.0247   -0.0933 H   0  0  0  0  0  0  0  0  0  0  0  0
    2.3911   -2.3617   -0.0521 H   0  0  0  0  0  0  0  0  0  0  0  0
    1.5194   -4.6635   -0.1778 H   0  0  0  0  0  0  0  0  0  0  0  0
   -0.8052   -5.0711   -0.9705 H   0  0  0  0  0  0  0  0  0  0  0  0
   -2.9125   -2.3229   -1.6839 H   0  0  0  0  0  0  0  0  0  0  0  0
   -1.4407    0.1228   -0.5032 H   0  0  0  0  0  0  0  0  0  0  0  0
  1  2  1  0  0  0  0
  1 10  1  0  0  0  0
  1 11  1  0  0  0  0
  1 12  1  0  0  0  0
  2  3  2  0  0  0  0
  2  8  1  0  0  0  0
  3  4  1  0  0  0  0
  3 13  1  0  0  0  0
  4  5  2  0  0  0  0
  4 14  1  0  0  0  0
  5  6  1  0  0  0  0
  5 15  1  0  0  0  0
  6  7  1  0  0  0  0
  6  8  2  0  0  0  0
  7 16  1  0  0  0  0
  8  9  1  0  0  0  0
  9 17  1  0  0  0  0
M  END
>  <DRUGBANK_ID>
DB03454

>  <SECONDARY_ACCESSION_NUMBERS>
EXPT02120

>  <COMMON_NAME>
3-methyl-benzene-1,2-diol

>  <CAS_NUMBER>
488-17-5

>  <UNII>
0HUZ4Q9R8C

$$$$
