
 OpenBabel10282417143D

 49 53  0  0  1  0  0  0  0  0999 V2000
    0.7279   -2.5733    0.1474 C   0  0  0  0  0  0  0  0  0  0  0  0
   -0.5890   -1.5537   -0.0107 N   0  3  1  0  0  0  0  0  0  0  0  0
   -2.1777   -2.2663   -0.7259 C   0  0  0  0  0  0  0  0  0  0  0  0
   -2.3072   -3.3369    0.2759 C   0  0  0  0  0  0  0  0  0  0  0  0
   -2.7274   -2.7410    1.7271 C   0  0  2  0  0  0  0  0  0  0  0  0
   -3.3575   -3.7664    2.6667 C   0  0  1  0  0  0  0  0  0  0  0  0
   -4.7882   -3.5941    2.5571 O   0  0  0  0  0  0  0  0  0  0  0  0
   -4.9476   -2.2549    2.2730 C   0  0  0  0  0  0  0  0  0  0  0  0
   -6.0796   -1.4741    2.3416 C   0  0  0  0  0  0  0  0  0  0  0  0
   -7.2956   -1.9867    2.6656 O   0  0  0  0  0  0  0  0  0  0  0  0
   -5.9855   -0.1013    2.0522 C   0  0  0  0  0  0  0  0  0  0  0  0
   -4.7820    0.4700    1.5888 C   0  0  0  0  0  0  0  0  0  0  0  0
   -3.6806   -0.3563    1.3998 C   0  0  0  0  0  0  0  0  0  0  0  0
   -2.4407   -0.0330    0.6504 C   0  0  0  0  0  0  0  0  0  0  0  0
   -1.2069   -0.9817    1.2499 C   0  0  2  0  0  0  0  0  0  0  0  0
   -1.4613   -2.1623    2.2883 C   0  0  1  0  0  0  0  0  0  0  0  0
   -1.4987   -1.4942    3.5520 O   0  0  0  0  0  0  0  0  0  0  0  0
   -0.5584   -3.4652    2.5273 C   0  0  0  0  0  0  0  0  0  0  0  0
   -1.0907   -4.8757    2.0813 C   0  0  0  0  0  0  0  0  0  0  0  0
   -2.6015   -5.0205    2.2730 C   0  0  0  0  0  0  0  0  0  0  0  0
   -3.2058   -6.0871    1.8952 O   0  0  0  0  0  0  0  0  0  0  0  0
   -3.7936   -1.6970    1.7922 C   0  0  0  0  0  0  0  0  0  0  0  0
    0.3652   -0.3237   -0.3727 C   0  0  0  0  0  0  0  0  0  0  0  0
    0.7226   -0.4523   -1.7764 C   0  0  0  0  0  0  0  0  0  0  0  0
   -0.0915    0.1847   -2.6068 C   0  0  0  0  0  0  0  0  0  0  0  0
    1.2291   -2.3011    1.0912 H   0  0  0  0  0  0  0  0  0  0  0  0
    1.5341   -2.3320   -0.5478 H   0  0  0  0  0  0  0  0  0  0  0  0
    0.5158   -3.6255   -0.0380 H   0  0  0  0  0  0  0  0  0  0  0  0
   -2.1644   -2.6018   -1.7592 H   0  0  0  0  0  0  0  0  0  0  0  0
   -3.2519   -2.0061   -0.4666 H   0  0  0  0  0  0  0  0  0  0  0  0
   -1.2749   -3.5645    0.1466 H   0  0  0  0  0  0  0  0  0  0  0  0
   -2.6556   -4.3314    0.0077 H   0  0  0  0  0  0  0  0  0  0  0  0
   -3.1105   -3.6056    3.7291 H   0  0  0  0  0  0  0  0  0  0  0  0
   -7.2020   -2.9543    2.7388 H   0  0  0  0  0  0  0  0  0  0  0  0
   -6.8648    0.5295    2.1763 H   0  0  0  0  0  0  0  0  0  0  0  0
   -4.7484    1.5359    1.3671 H   0  0  0  0  0  0  0  0  0  0  0  0
   -3.0657   -0.3140   -0.2412 H   0  0  0  0  0  0  0  0  0  0  0  0
   -1.9905    0.3954   -0.2730 H   0  0  0  0  0  0  0  0  0  0  0  0
   -0.5647   -0.2240    1.7232 H   0  0  0  0  0  0  0  0  0  0  0  0
   -1.7343   -2.0939    4.2793 H   0  0  0  0  0  0  0  0  0  0  0  0
   -0.2086   -3.5208    3.5569 H   0  0  0  0  0  0  0  0  0  0  0  0
    0.3784   -3.4262    2.0290 H   0  0  0  0  0  0  0  0  0  0  0  0
   -0.8487   -5.0449    1.0154 H   0  0  0  0  0  0  0  0  0  0  0  0
   -0.5211   -5.6817    2.5332 H   0  0  0  0  0  0  0  0  0  0  0  0
   -0.0310    0.6516   -0.0545 H   0  0  0  0  0  0  0  0  0  0  0  0
    1.2712   -0.3928    0.2768 H   0  0  0  0  0  0  0  0  0  0  0  0
    1.3831   -1.2441   -2.1129 H   0  0  0  0  0  0  0  0  0  0  0  0
   -0.1785   -0.1844   -3.6106 H   0  0  0  0  0  0  0  0  0  0  0  0
   -0.7584    0.9400   -2.2057 H   0  0  0  0  0  0  0  0  0  0  0  0
  1 26  1  0  0  0  0
  1 27  1  0  0  0  0
  1 28  1  0  0  0  0
  2  3  1  0  0  0  0
  2 15  1  0  0  0  0
  2 23  1  6  0  0  0
  2  1  1  0  0  0  0
  3  4  1  0  0  0  0
  3 29  1  0  0  0  0
  3 30  1  0  0  0  0
  4  5  1  0  0  0  0
  4 31  1  0  0  0  0
  4 32  1  0  0  0  0
  5  6  1  0  0  0  0
  5 16  1  0  0  0  0
  5 22  1  1  0  0  0
  6  7  1  0  0  0  0
  6 20  1  0  0  0  0
  6 33  1  1  0  0  0
  7  8  1  0  0  0  0
  8  9  2  0  0  0  0
  8 22  1  0  0  0  0
  9 10  1  0  0  0  0
  9 11  1  0  0  0  0
 10 34  1  0  0  0  0
 11 12  2  0  0  0  0
 11 35  1  0  0  0  0
 12 13  1  0  0  0  0
 12 36  1  0  0  0  0
 13 14  1  0  0  0  0
 13 22  2  0  0  0  0
 14 37  1  0  0  0  0
 14 38  1  0  0  0  0
 15 14  1  0  0  0  0
 15 16  1  0  0  0  0
 15 39  1  6  0  0  0
 16 17  1  1  0  0  0
 16 18  1  0  0  0  0
 17 40  1  0  0  0  0
 18 19  1  0  0  0  0
 18 41  1  0  0  0  0
 18 42  1  0  0  0  0
 19 20  1  0  0  0  0
 19 43  1  0  0  0  0
 19 44  1  0  0  0  0
 20 21  2  0  0  0  0
 23 24  1  0  0  0  0
 23 45  1  0  0  0  0
 23 46  1  0  0  0  0
 24 25  2  0  0  0  0
 24 47  1  0  0  0  0
 25 48  1  0  0  0  0
 25 49  1  0  0  0  0
M  CHG  1   2   1
M  END
>  <DRUGBANK_ID>
DB04509

>  <SECONDARY_ACCESSION_NUMBERS>
EXPT02359

>  <COMMON_NAME>
N-Methylnaloxonium

$$$$
