
 OpenBabel10282417123D

 22 22  0  0  1  0  0  0  0  0999 V2000
   -1.3745   -0.4117   -0.0112 C   0  0  0  0  0  0  0  0  0  0  0  0
    0.4299    1.4607    0.0182 C   0  0  0  0  0  0  0  0  0  0  0  0
   -0.4516   -1.3723   -0.0210 C   0  0  0  0  0  0  0  0  0  0  0  0
    1.4814    0.3615    0.0280 C   0  0  2  0  0  0  0  0  0  0  0  0
    1.0144   -1.1081   -0.0483 C   0  0  2  0  0  0  0  0  0  0  0  0
   -1.5716    1.5323    1.4317 C   0  0  0  0  0  0  0  0  0  0  0  0
   -1.0474    1.0422    0.0563 C   0  0  2  0  0  0  0  0  0  0  0  0
   -0.8776   -2.6565   -0.0154 F   0  0  0  0  0  0  0  0  0  0  0  0
    2.2968    0.5926    1.1880 O   0  0  0  0  0  0  0  0  0  0  0  0
    1.5131   -1.6430   -1.2810 O   0  0  0  0  0  0  0  0  0  0  0  0
   -2.3538    2.4539    1.6296 O   0  0  0  0  0  0  0  0  0  0  0  0
   -0.9873    0.8791    2.4670 O   0  0  0  0  0  0  0  0  0  0  0  0
   -1.6763    1.6030   -1.0905 O   0  0  0  0  0  0  0  0  0  0  0  0
    2.1401    0.5603   -0.8282 H   0  0  0  0  0  0  0  0  0  0  0  0
    1.4762   -1.6827    0.7620 H   0  0  0  0  0  0  0  0  0  0  0  0
   -2.4264   -0.6910   -0.0126 H   0  0  0  0  0  0  0  0  0  0  0  0
    0.6348    2.1406    0.8583 H   0  0  0  0  0  0  0  0  0  0  0  0
    0.6165    2.0856   -0.8649 H   0  0  0  0  0  0  0  0  0  0  0  0
    2.8982   -0.1648    1.2931 H   0  0  0  0  0  0  0  0  0  0  0  0
    1.0577   -1.1605   -1.9956 H   0  0  0  0  0  0  0  0  0  0  0  0
   -1.2862    1.3228    3.2861 H   0  0  0  0  0  0  0  0  0  0  0  0
   -1.4118    2.5372   -1.1516 H   0  0  0  0  0  0  0  0  0  0  0  0
  1 16  1  0  0  0  0
  2 17  1  0  0  0  0
  2 18  1  0  0  0  0
  3  1  2  0  0  0  0
  4  2  1  0  0  0  0
  4 14  1  6  0  0  0
  4  9  1  0  0  0  0
  5  3  1  0  0  0  0
  5  4  1  0  0  0  0
  5 10  1  0  0  0  0
  5 15  1  1  0  0  0
  7  1  1  0  0  0  0
  7  2  1  0  0  0  0
  7  6  1  1  0  0  0
  7 13  1  0  0  0  0
  8  3  1  0  0  0  0
  9 19  1  0  0  0  0
 10 20  1  0  0  0  0
 11  6  2  0  0  0  0
 12  6  1  0  0  0  0
 12 21  1  0  0  0  0
 13 22  1  0  0  0  0
M  END
>  <DRUGBANK_ID>
DB02786

>  <SECONDARY_ACCESSION_NUMBERS>
EXPT01387

>  <COMMON_NAME>
2-Anhydro-3-Fluoro-Quinic Acid

$$$$
