
 OpenBabel10282417183D

 85 91  0  0  0  0  0  0  0  0999 V2000
    1.6673   -1.9986   -0.0462 C   0  0  0  0  0  0  0  0  0  0  0  0
    2.7599   -1.1714    0.0275 C   0  0  0  0  0  0  0  0  0  0  0  0
    2.6371    0.2124   -0.1666 C   0  0  0  0  0  0  0  0  0  0  0  0
    1.4375    0.6654   -0.7378 C   0  0  0  0  0  0  0  0  0  0  0  0
    0.9363    1.9093   -0.9734 N   0  0  0  0  0  0  0  0  0  0  0  0
   -0.4581    1.8585   -1.1923 C   0  0  0  0  0  0  0  0  0  0  0  0
   -0.8777    0.5384   -1.1956 C   0  0  0  0  0  0  0  0  0  0  0  0
    0.4523   -1.4185   -0.2950 C   0  0  0  0  0  0  0  0  0  0  0  0
    0.3450   -0.1579   -0.8842 C   0  0  0  0  0  0  0  0  0  0  0  0
   -2.2408   -0.1986   -1.1141 C   0  0  0  0  0  0  0  0  0  0  0  0
   -0.8044   -2.1218   -0.1570 C   0  0  2  0  0  0  0  0  0  0  0  0
   -2.1029   -1.7594   -0.7320 C   0  0  2  0  0  0  0  0  0  0  0  0
   -2.1392   -3.2028   -1.6752 N   0  0  0  0  0  0  0  0  0  0  0  0
   -2.9931   -4.0430   -0.8530 C   0  0  0  0  0  0  0  0  0  0  0  0
   -2.5190   -3.9736    0.6772 C   0  0  1  0  0  0  0  0  0  0  0  0
   -1.0748   -3.3378    0.8111 C   0  0  0  0  0  0  0  0  0  0  0  0
   -3.7021   -3.2151    1.3366 C   0  0  0  0  0  0  0  0  0  0  0  0
   -3.5667   -2.4051    2.5100 N   0  0  0  0  0  0  0  0  0  0  0  0
   -0.7669   -4.0042   -1.8962 C   0  0  0  0  0  0  0  0  0  0  0  0
   -2.6830   -1.7452    0.2014 H   0  0  0  0  0  0  0  0  0  0  0  0
   -4.7500   -3.3836    0.6981 O   0  0  0  0  0  0  0  0  0  0  0  0
   -4.4621   -0.9982    3.0193 C   0  0  1  0  0  0  0  0  0  0  0  0
   -4.3336    0.9000    3.4921 C   0  0  0  0  0  0  0  0  0  0  0  0
   -3.4075   -0.3871    2.3897 O   0  0  0  0  0  0  0  0  0  0  0  0
   -2.7671    0.2134    3.5301 C   0  0  2  0  0  0  0  0  0  0  0  0
   -2.9917    1.4361    3.1789 N   0  0  0  0  0  0  0  0  0  0  0  0
   -2.3425    1.5266    1.8178 C   0  0  2  0  0  0  0  0  0  0  0  0
   -0.9878    0.1597    1.7174 C   0  0  0  0  0  0  0  0  0  0  0  0
   -1.3927   -0.2518    3.5227 C   0  0  1  0  0  0  0  0  0  0  0  0
   -0.9681   -1.1139    2.7597 N   0  0  0  0  0  0  0  0  0  0  0  0
   -0.1017   -1.7878    4.2388 C   0  0  0  0  0  0  0  0  0  0  0  0
    0.1166   -0.3170    5.0736 C   0  0  0  0  0  0  0  0  0  0  0  0
   -0.0664    0.4046    3.8641 C   0  0  0  0  0  0  0  0  0  0  0  0
   -3.1392   -0.2494    4.8947 O   0  0  0  0  0  0  0  0  0  0  0  0
   -1.8352   -1.1074    4.0049 H   0  0  0  0  0  0  0  0  0  0  0  0
   -4.7019    1.5117    4.5275 O   0  0  0  0  0  0  0  0  0  0  0  0
    0.1287    0.4635    1.3901 O   0  0  0  0  0  0  0  0  0  0  0  0
   -2.2192    3.0522    1.3056 C   0  0  0  0  0  0  0  0  0  0  0  0
   -1.0307    3.8736    1.8623 C   0  0  0  0  0  0  0  0  0  0  0  0
   -5.7646   -1.3470    2.2778 C   0  0  0  0  0  0  0  0  0  0  0  0
   -5.6671   -0.9746    0.7707 C   0  0  0  0  0  0  0  0  0  0  0  0
   -6.2325   -2.8797    2.5623 C   0  0  0  0  0  0  0  0  0  0  0  0
    0.2609    3.2341    1.5238 C   0  0  0  0  0  0  0  0  0  0  0  0
   -0.7895    5.2585    1.2587 C   0  0  0  0  0  0  0  0  0  0  0  0
   -0.5451   -2.2144   -1.2006 H   0  0  0  0  0  0  0  0  0  0  0  0
    1.7056   -3.0676    0.1050 H   0  0  0  0  0  0  0  0  0  0  0  0
    3.7096   -1.6170    0.2766 H   0  0  0  0  0  0  0  0  0  0  0  0
    3.4251    0.8876    0.1390 H   0  0  0  0  0  0  0  0  0  0  0  0
    1.4497    2.7006   -0.6106 H   0  0  0  0  0  0  0  0  0  0  0  0
   -0.9942    2.7945   -1.1316 H   0  0  0  0  0  0  0  0  0  0  0  0
   -2.9376    0.0016   -1.9257 H   0  0  0  0  0  0  0  0  0  0  0  0
   -2.8347    0.2451   -0.2894 H   0  0  0  0  0  0  0  0  0  0  0  0
   -3.4054   -5.0226   -1.1632 H   0  0  0  0  0  0  0  0  0  0  0  0
   -3.8769   -3.4558   -1.1220 H   0  0  0  0  0  0  0  0  0  0  0  0
   -2.4958   -4.9900    1.0941 H   0  0  0  0  0  0  0  0  0  0  0  0
   -0.2985   -4.1007    0.7390 H   0  0  0  0  0  0  0  0  0  0  0  0
   -0.9377   -3.0742    1.8458 H   0  0  0  0  0  0  0  0  0  0  0  0
   -2.5814   -2.3024    2.7002 H   0  0  0  0  0  0  0  0  0  0  0  0
   -0.1059   -3.3604   -2.4882 H   0  0  0  0  0  0  0  0  0  0  0  0
   -0.1567   -4.2891   -1.0191 H   0  0  0  0  0  0  0  0  0  0  0  0
   -0.7891   -4.9594   -2.4217 H   0  0  0  0  0  0  0  0  0  0  0  0
   -3.1943    1.2793    1.1659 H   0  0  0  0  0  0  0  0  0  0  0  0
   -0.4700   -1.9340    5.3306 H   0  0  0  0  0  0  0  0  0  0  0  0
   -0.9741   -2.5198    4.3715 H   0  0  0  0  0  0  0  0  0  0  0  0
    1.0940   -0.1584    5.5052 H   0  0  0  0  0  0  0  0  0  0  0  0
   -0.6580    0.1652    5.7000 H   0  0  0  0  0  0  0  0  0  0  0  0
    0.8079   -0.0317    3.2821 H   0  0  0  0  0  0  0  0  0  0  0  0
    0.0089    1.4605    3.7234 H   0  0  0  0  0  0  0  0  0  0  0  0
   -2.5112    0.1895    5.4901 H   0  0  0  0  0  0  0  0  0  0  0  0
   -2.3222    3.0962    0.2087 H   0  0  0  0  0  0  0  0  0  0  0  0
   -3.1344    3.6104    1.5768 H   0  0  0  0  0  0  0  0  0  0  0  0
   -1.1296    3.8886    2.9460 H   0  0  0  0  0  0  0  0  0  0  0  0
   -6.5784   -0.7627    2.7106 H   0  0  0  0  0  0  0  0  0  0  0  0
   -4.8221   -1.3814    0.2085 H   0  0  0  0  0  0  0  0  0  0  0  0
   -6.5556   -1.3206    0.2420 H   0  0  0  0  0  0  0  0  0  0  0  0
   -5.5094    0.0949    0.6264 H   0  0  0  0  0  0  0  0  0  0  0  0
   -6.4030   -3.1003    3.6148 H   0  0  0  0  0  0  0  0  0  0  0  0
   -7.0805   -3.1254    1.9198 H   0  0  0  0  0  0  0  0  0  0  0  0
   -5.5651   -3.7367    2.3822 H   0  0  0  0  0  0  0  0  0  0  0  0
    0.2767    3.3644    0.4645 H   0  0  0  0  0  0  0  0  0  0  0  0
    1.2171    3.6144    1.8681 H   0  0  0  0  0  0  0  0  0  0  0  0
    0.2184    2.2504    1.8809 H   0  0  0  0  0  0  0  0  0  0  0  0
   -1.5638    5.9694    1.5135 H   0  0  0  0  0  0  0  0  0  0  0  0
    0.1821    5.6207    1.6352 H   0  0  0  0  0  0  0  0  0  0  0  0
   -0.6695    5.2298    0.1627 H   0  0  0  0  0  0  0  0  0  0  0  0
  1  2  2  0  0  0  0
  1 46  1  0  0  0  0
  2  3  1  0  0  0  0
  2 47  1  0  0  0  0
  3  4  2  0  0  0  0
  3 48  1  0  0  0  0
  4  5  1  0  0  0  0
  5  6  1  0  0  0  0
  5 49  1  0  0  0  0
  6  7  2  0  0  0  0
  6 50  1  0  0  0  0
  7 10  1  0  0  0  0
  7  9  1  0  0  0  0
  8  1  1  0  0  0  0
  8  9  2  0  0  0  0
  8 11  1  0  0  0  0
  9  4  1  0  0  0  0
 10 12  1  0  0  0  0
 10 51  1  0  0  0  0
 10 52  1  0  0  0  0
 11 12  1  0  0  0  0
 11 16  1  0  0  0  0
 11 45  1  6  0  0  0
 12 13  1  0  0  0  0
 12 20  1  1  0  0  0
 13 14  1  0  0  0  0
 13 19  1  0  0  0  0
 14 15  1  0  0  0  0
 14 53  1  0  0  0  0
 14 54  1  0  0  0  0
 15 16  1  0  0  0  0
 15 55  1  1  0  0  0
 15 17  1  0  0  0  0
 16 56  1  0  0  0  0
 16 57  1  0  0  0  0
 17 18  1  0  0  0  0
 17 21  2  0  0  0  0
 18 58  1  0  0  0  0
 19 59  1  0  0  0  0
 19 60  1  0  0  0  0
 19 61  1  0  0  0  0
 22 18  1  1  0  0  0
 22 23  1  0  0  0  0
 22 40  1  0  0  0  0
 23 26  1  0  0  0  0
 23 36  2  0  0  0  0
 24 22  1  0  0  0  0
 25 24  1  0  0  0  0
 25 26  1  0  0  0  0
 25 29  1  0  0  0  0
 25 34  1  1  0  0  0
 26 27  1  0  0  0  0
 27 28  1  0  0  0  0
 27 62  1  6  0  0  0
 27 38  1  0  0  0  0
 28 30  1  0  0  0  0
 28 37  2  0  0  0  0
 29 30  1  0  0  0  0
 29 35  1  1  0  0  0
 30 31  1  0  0  0  0
 31 32  1  0  0  0  0
 31 63  1  0  0  0  0
 31 64  1  0  0  0  0
 32 33  1  0  0  0  0
 32 65  1  0  0  0  0
 32 66  1  0  0  0  0
 33 29  1  0  0  0  0
 33 67  1  0  0  0  0
 33 68  1  0  0  0  0
 34 69  1  0  0  0  0
 38 39  1  0  0  0  0
 38 70  1  0  0  0  0
 38 71  1  0  0  0  0
 39 43  1  0  0  0  0
 39 72  1  0  0  0  0
 40 41  1  0  0  0  0
 40 42  1  0  0  0  0
 40 73  1  0  0  0  0
 41 74  1  0  0  0  0
 41 75  1  0  0  0  0
 41 76  1  0  0  0  0
 42 77  1  0  0  0  0
 42 78  1  0  0  0  0
 42 79  1  0  0  0  0
 43 80  1  0  0  0  0
 43 81  1  0  0  0  0
 43 82  1  0  0  0  0
 44 39  1  0  0  0  0
 44 83  1  0  0  0  0
 44 84  1  0  0  0  0
 44 85  1  0  0  0  0
M  END
>  <DRUGBANK_ID>
DB11274

>  <COMMON_NAME>
Dihydro-alpha-ergocryptine

>  <CAS_NUMBER>
25447-66-9

>  <UNII>
202229IR8Y

>  <SYNONYMS>
9,10-dihydro-α-ergocryptine; alpha-Dihydroergocriptine; dihydro-α-ergocryptine; α-dihydroergocryptine

$$$$
