
 OpenBabel10282417123D

125131  0  0  1  0  0  0  0  0999 V2000
   17.5833  -14.7723   -8.2827 C   0  0  0  0  0  0  0  0  0  0  0  0
   11.8407  -13.0989   -9.9422 C   0  0  0  0  0  0  0  0  0  0  0  0
   13.6656   -7.3266  -16.7191 C   0  0  0  0  0  0  0  0  0  0  0  0
   10.4710   -6.8468  -13.8500 C   0  0  0  0  0  0  0  0  0  0  0  0
   11.2307  -12.4388  -18.4999 C   0  0  0  0  0  0  0  0  0  0  0  0
   10.3818   -8.6206   -8.7569 C   0  0  0  0  0  0  0  0  0  0  0  0
    7.5446  -10.8370  -17.5259 C   0  0  0  0  0  0  0  0  0  0  0  0
    7.9522  -10.4579  -18.9108 C   0  0  0  0  0  0  0  0  0  0  0  0
   13.1878  -12.1864  -11.6662 C   0  0  0  0  0  0  0  0  0  0  0  0
   12.7284  -11.0030  -12.0636 C   0  0  0  0  0  0  0  0  0  0  0  0
   12.0563  -11.8683   -5.9839 C   0  0  0  0  0  0  0  0  0  0  0  0
   11.8531  -13.3567   -6.3788 C   0  0  0  0  0  0  0  0  0  0  0  0
   10.6774   -7.1271  -17.1859 C   0  0  0  0  0  0  0  0  0  0  0  0
   12.7930   -9.7057  -13.9900 C   0  0  0  0  0  0  0  0  0  0  0  0
   15.9418  -11.3746  -16.4905 C   0  0  0  0  0  0  0  0  0  0  0  0
    8.7839  -11.1823  -16.8737 C   0  0  0  0  0  0  0  0  0  0  0  0
    9.4737   -8.2014  -16.7428 C   0  0  0  0  0  0  0  0  0  0  0  0
   13.6843   -9.7033  -15.2402 C   0  0  0  0  0  0  0  0  0  0  0  0
   16.0249  -10.7359  -15.1245 C   0  0  0  0  0  0  0  0  0  0  0  0
    9.0652   -9.4040  -19.0609 C   0  0  0  0  0  0  0  0  0  0  0  0
   15.6522  -14.0903   -9.8419 C   0  0  0  0  0  0  0  0  0  0  0  0
    9.5252   -9.5681  -14.1735 C   0  0  0  0  0  0  0  0  0  0  0  0
   15.6286  -13.6388   -7.3120 C   0  0  0  0  0  0  0  0  0  0  0  0
   11.7899   -9.8898   -7.0490 C   0  0  0  0  0  0  0  0  0  0  0  0
   16.2448  -14.1430   -8.4189 C   0  0  0  0  0  0  0  0  0  0  0  0
   13.2468  -12.6046  -10.3144 C   0  0  2  0  0  0  0  0  0  0  0  0
   12.0201   -7.6347  -16.6028 C   0  0  2  0  0  0  0  0  0  0  0  0
   10.5234   -8.3209  -14.0521 C   0  0  1  0  0  0  0  0  0  0  0  0
   11.9119  -11.4827  -17.8615 C   0  0  0  0  0  0  0  0  0  0  0  0
   13.0185  -10.9801  -13.4238 C   0  0  1  0  0  0  0  0  0  0  0  0
   12.6649  -11.2466   -7.2314 C   0  0  1  0  0  0  0  0  0  0  0  0
   10.3502  -11.1019  -14.9003 C   0  0  1  0  0  0  0  0  0  0  0  0
   14.7016  -12.8040  -16.4550 C   0  0  2  0  0  0  0  0  0  0  0  0
   14.4569  -13.1984   -9.7140 C   0  0  1  0  0  0  0  0  0  0  0  0
   13.2602  -13.9486   -6.2604 C   0  0  2  0  0  0  0  0  0  0  0  0
   13.3894  -11.0739  -18.2613 C   0  0  2  0  0  0  0  0  0  0  0  0
   11.5266   -8.2841  -15.3399 C   0  0  1  0  0  0  0  0  0  0  0  0
   11.6819  -11.5763  -16.2825 C   0  0  1  0  0  0  0  0  0  0  0  0
   13.8459  -11.9602  -17.2660 C   0  0  2  0  0  0  0  0  0  0  0  0
   12.5037   -9.4608   -9.3431 C   0  0  0  0  0  0  0  0  0  0  0  0
   11.8084   -8.8521   -8.1939 C   0  0  1  0  0  0  0  0  0  0  0  0
    9.8922   -9.6287  -16.9563 C   0  0  2  0  0  0  0  0  0  0  0  0
   14.6109  -10.6806  -14.8294 C   0  0  1  0  0  0  0  0  0  0  0  0
   14.2031  -13.1476   -7.2640 C   0  0  1  0  0  0  0  0  0  0  0  0
    9.8611  -12.2950  -14.3375 O   0  0  0  0  0  0  0  0  0  0  0  0
   13.6567  -15.3065   -6.2960 O   0  0  0  0  0  0  0  0  0  0  0  0
   14.3429  -10.1221  -18.6510 O   0  0  0  0  0  0  0  0  0  0  0  0
   13.6154   -9.2705   -9.7916 O   0  0  0  0  0  0  0  0  0  0  0  0
   11.6283  -10.4397   -9.6357 O   0  0  0  0  0  0  0  0  0  0  0  0
   12.4846   -7.6835   -7.8026 O   0  0  0  0  0  0  0  0  0  0  0  0
   10.2522   -9.6456  -18.3292 O   0  0  0  0  0  0  0  0  0  0  0  0
   12.8129  -12.9316  -15.9688 O   0  0  0  0  0  0  0  0  0  0  0  0
   14.3998  -10.9415  -13.4866 O   0  0  0  0  0  0  0  0  0  0  0  0
   14.0599  -11.7420   -6.9837 O   0  0  0  0  0  0  0  0  0  0  0  0
   13.7557  -13.5294   -8.5346 O   0  0  0  0  0  0  0  0  0  0  0  0
   11.0496   -9.4454  -16.0079 O   0  0  0  0  0  0  0  0  0  0  0  0
   14.0227  -11.6445  -15.5757 O   0  0  0  0  0  0  0  0  0  0  0  0
   13.5721  -12.8763  -12.4096 H   0  0  0  0  0  0  0  0  0  0  0  0
   12.3003  -10.0853  -11.6660 H   0  0  0  0  0  0  0  0  0  0  0  0
   13.4200  -11.6582   -9.7711 H   0  0  0  0  0  0  0  0  0  0  0  0
   12.1824   -8.3923  -17.3868 H   0  0  0  0  0  0  0  0  0  0  0  0
   10.8189   -8.6420  -13.0257 H   0  0  0  0  0  0  0  0  0  0  0  0
   12.3756  -11.7635  -13.8719 H   0  0  0  0  0  0  0  0  0  0  0  0
   13.3232  -10.5021   -7.6491 H   0  0  0  0  0  0  0  0  0  0  0  0
    9.4910  -10.7324  -15.3724 H   0  0  0  0  0  0  0  0  0  0  0  0
   15.0272  -13.4877  -17.2252 H   0  0  0  0  0  0  0  0  0  0  0  0
   15.0621  -12.3031   -9.9703 H   0  0  0  0  0  0  0  0  0  0  0  0
   13.2965  -13.8395   -5.1816 H   0  0  0  0  0  0  0  0  0  0  0  0
   12.9234  -10.9500  -19.2523 H   0  0  0  0  0  0  0  0  0  0  0  0
   12.4818   -8.0037  -14.8416 H   0  0  0  0  0  0  0  0  0  0  0  0
   12.0601  -10.6260  -16.6692 H   0  0  0  0  0  0  0  0  0  0  0  0
   13.4501  -12.9881  -17.6449 H   0  0  0  0  0  0  0  0  0  0  0  0
   17.4662  -15.8444   -8.1041 H   0  0  0  0  0  0  0  0  0  0  0  0
   18.1134  -14.3217   -7.4389 H   0  0  0  0  0  0  0  0  0  0  0  0
   18.1856  -14.6151   -9.1798 H   0  0  0  0  0  0  0  0  0  0  0  0
   11.5962  -12.7037   -8.9629 H   0  0  0  0  0  0  0  0  0  0  0  0
   11.0236  -12.6887  -10.5497 H   0  0  0  0  0  0  0  0  0  0  0  0
   11.7933  -14.1788   -9.9500 H   0  0  0  0  0  0  0  0  0  0  0  0
   14.0820   -7.9207  -17.5658 H   0  0  0  0  0  0  0  0  0  0  0  0
   14.0560   -6.3227  -16.7631 H   0  0  0  0  0  0  0  0  0  0  0  0
   14.3117   -7.6378  -15.8730 H   0  0  0  0  0  0  0  0  0  0  0  0
   11.4027   -6.5877  -13.3189 H   0  0  0  0  0  0  0  0  0  0  0  0
   10.6311   -6.3340  -14.7936 H   0  0  0  0  0  0  0  0  0  0  0  0
    9.5542   -6.4789  -13.4332 H   0  0  0  0  0  0  0  0  0  0  0  0
   10.3644  -12.6915  -17.9508 H   0  0  0  0  0  0  0  0  0  0  0  0
   11.8044  -13.3223  -18.7430 H   0  0  0  0  0  0  0  0  0  0  0  0
   10.4324   -7.9924   -9.6526 H   0  0  0  0  0  0  0  0  0  0  0  0
    9.8801   -9.5541   -9.0942 H   0  0  0  0  0  0  0  0  0  0  0  0
    9.7284   -8.2144   -8.0004 H   0  0  0  0  0  0  0  0  0  0  0  0
    6.7978  -11.6419  -17.4219 H   0  0  0  0  0  0  0  0  0  0  0  0
    7.1872  -10.0206  -16.8901 H   0  0  0  0  0  0  0  0  0  0  0  0
    8.2658  -11.3678  -19.4313 H   0  0  0  0  0  0  0  0  0  0  0  0
    7.0346  -10.0553  -19.3117 H   0  0  0  0  0  0  0  0  0  0  0  0
   11.0906  -11.5086   -5.5962 H   0  0  0  0  0  0  0  0  0  0  0  0
   12.7292  -11.6197   -5.1413 H   0  0  0  0  0  0  0  0  0  0  0  0
   11.0299  -13.7751   -5.7959 H   0  0  0  0  0  0  0  0  0  0  0  0
   11.4684  -13.4875   -7.3843 H   0  0  0  0  0  0  0  0  0  0  0  0
   11.0675   -6.1125  -17.0928 H   0  0  0  0  0  0  0  0  0  0  0  0
    9.9876   -6.5143  -16.5950 H   0  0  0  0  0  0  0  0  0  0  0  0
   12.8499   -8.8592  -13.2933 H   0  0  0  0  0  0  0  0  0  0  0  0
   11.7496   -9.9460  -14.0443 H   0  0  0  0  0  0  0  0  0  0  0  0
   16.9531  -11.5519  -16.8619 H   0  0  0  0  0  0  0  0  0  0  0  0
   15.6524  -10.5853  -17.2021 H   0  0  0  0  0  0  0  0  0  0  0  0
    9.1777  -12.2317  -16.9087 H   0  0  0  0  0  0  0  0  0  0  0  0
    8.2477  -11.4787  -15.9302 H   0  0  0  0  0  0  0  0  0  0  0  0
    8.4316   -8.0995  -16.9724 H   0  0  0  0  0  0  0  0  0  0  0  0
    9.3586   -7.9939  -15.7059 H   0  0  0  0  0  0  0  0  0  0  0  0
   14.4506   -9.1899  -15.7526 H   0  0  0  0  0  0  0  0  0  0  0  0
   13.2321   -9.8081  -16.2010 H   0  0  0  0  0  0  0  0  0  0  0  0
   16.7788   -9.9555  -14.9528 H   0  0  0  0  0  0  0  0  0  0  0  0
   16.3117  -11.4053  -14.3291 H   0  0  0  0  0  0  0  0  0  0  0  0
    9.3760   -9.2081  -20.0778 H   0  0  0  0  0  0  0  0  0  0  0  0
    8.6592   -8.4518  -18.7374 H   0  0  0  0  0  0  0  0  0  0  0  0
   15.4214  -15.0639  -10.2686 H   0  0  0  0  0  0  0  0  0  0  0  0
   16.4306  -13.6107  -10.4681 H   0  0  0  0  0  0  0  0  0  0  0  0
    8.5686   -9.1964  -14.6755 H   0  0  0  0  0  0  0  0  0  0  0  0
    8.9652   -9.9625  -13.3091 H   0  0  0  0  0  0  0  0  0  0  0  0
   16.1005  -13.7716   -6.3524 H   0  0  0  0  0  0  0  0  0  0  0  0
   10.7492  -10.2536   -7.0504 H   0  0  0  0  0  0  0  0  0  0  0  0
   11.9783   -9.3758   -6.1020 H   0  0  0  0  0  0  0  0  0  0  0  0
    8.9220  -12.1600  -14.1402 H   0  0  0  0  0  0  0  0  0  0  0  0
   14.5371  -15.2163   -5.8525 H   0  0  0  0  0  0  0  0  0  0  0  0
   14.9305  -10.6232  -19.2725 H   0  0  0  0  0  0  0  0  0  0  0  0
   11.9587  -11.0071  -10.3106 H   0  0  0  0  0  0  0  0  0  0  0  0
   13.4061   -7.9771   -7.6428 H   0  0  0  0  0  0  0  0  0  0  0  0
  1 73  1  0  0  0  0
  1 74  1  0  0  0  0
  1 75  1  0  0  0  0
  2 76  1  0  0  0  0
  2 77  1  0  0  0  0
  2 78  1  0  0  0  0
  3 79  1  0  0  0  0
  3 80  1  0  0  0  0
  3 81  1  0  0  0  0
  4 82  1  0  0  0  0
  4 83  1  0  0  0  0
  4 84  1  0  0  0  0
  5 85  1  0  0  0  0
  5 86  1  0  0  0  0
  6 87  1  0  0  0  0
  6 88  1  0  0  0  0
  6 89  1  0  0  0  0
  7 90  1  0  0  0  0
  7 91  1  0  0  0  0
  8  7  1  0  0  0  0
  8 92  1  0  0  0  0
  8 93  1  0  0  0  0
 10  9  2  0  0  0  0
 11 94  1  0  0  0  0
 11 95  1  0  0  0  0
 12 11  1  0  0  0  0
 12 96  1  0  0  0  0
 12 97  1  0  0  0  0
 13 98  1  0  0  0  0
 13 99  1  0  0  0  0
 14100  1  0  0  0  0
 14101  1  0  0  0  0
 15102  1  0  0  0  0
 15103  1  0  0  0  0
 16  7  1  0  0  0  0
 16104  1  0  0  0  0
 16105  1  0  0  0  0
 17 13  1  0  0  0  0
 17106  1  0  0  0  0
 17107  1  0  0  0  0
 18 14  1  0  0  0  0
 18108  1  0  0  0  0
 18109  1  0  0  0  0
 19 15  1  0  0  0  0
 19110  1  0  0  0  0
 19111  1  0  0  0  0
 20  8  1  0  0  0  0
 20112  1  0  0  0  0
 20113  1  0  0  0  0
 21114  1  0  0  0  0
 21115  1  0  0  0  0
 22116  1  0  0  0  0
 22117  1  0  0  0  0
 23118  1  0  0  0  0
 24119  1  0  0  0  0
 24120  1  0  0  0  0
 25 21  1  0  0  0  0
 25 23  2  0  0  0  0
 25  1  1  0  0  0  0
 26 60  1  1  0  0  0
 26  9  1  0  0  0  0
 26  2  1  0  0  0  0
 27 13  1  0  0  0  0
 27  3  1  0  0  0  0
 27 61  1  6  0  0  0
 28 62  1  1  0  0  0
 28 22  1  0  0  0  0
 28  4  1  0  0  0  0
 29  5  2  0  0  0  0
 30 14  1  0  0  0  0
 30 10  1  0  0  0  0
 30 63  1  6  0  0  0
 31 11  1  0  0  0  0
 31 24  1  0  0  0  0
 31 64  1  6  0  0  0
 32 65  1  6  0  0  0
 32 45  1  0  0  0  0
 32 22  1  0  0  0  0
 33 15  1  0  0  0  0
 33 66  1  6  0  0  0
 34 21  1  0  0  0  0
 34 26  1  0  0  0  0
 34 67  1  1  0  0  0
 35 12  1  0  0  0  0
 35 68  1  1  0  0  0
 35 46  1  0  0  0  0
 36 29  1  0  0  0  0
 36 47  1  0  0  0  0
 36 69  1  6  0  0  0
 37 27  1  0  0  0  0
 37 70  1  1  0  0  0
 37 28  1  0  0  0  0
 38 29  1  0  0  0  0
 38 71  1  1  0  0  0
 38 32  1  0  0  0  0
 39 33  1  0  0  0  0
 39 36  1  0  0  0  0
 39 72  1  1  0  0  0
 41 40  1  6  0  0  0
 41 50  1  0  0  0  0
 41 24  1  0  0  0  0
 41  6  1  0  0  0  0
 42 16  1  0  0  0  0
 42 17  1  0  0  0  0
 42 51  1  6  0  0  0
 43 18  1  0  0  0  0
 43 19  1  0  0  0  0
 43 53  1  1  0  0  0
 44 23  1  1  0  0  0
 44 35  1  0  0  0  0
 44 54  1  0  0  0  0
 45121  1  0  0  0  0
 46122  1  0  0  0  0
 47123  1  0  0  0  0
 48 40  2  0  0  0  0
 49 40  1  0  0  0  0
 49124  1  0  0  0  0
 50125  1  0  0  0  0
 51 20  1  0  0  0  0
 52 33  1  0  0  0  0
 52 38  1  0  0  0  0
 53 30  1  0  0  0  0
 54 31  1  0  0  0  0
 55 34  1  0  0  0  0
 55 44  1  0  0  0  0
 56 37  1  0  0  0  0
 56 42  1  0  0  0  0
 57 39  1  0  0  0  0
 57 43  1  0  0  0  0
 58  9  1  0  0  0  0
 59 10  1  0  0  0  0
M  END
>  <DRUGBANK_ID>
DB02169

>  <SECONDARY_ACCESSION_NUMBERS>
EXPT02429

>  <COMMON_NAME>
9,10-Deepithio-9,10-Didehydroacanthifolicin

>  <CAS_NUMBER>
78111-17-8

>  <UNII>
1W21G5Q4N2

$$$$
