
 OpenBabel10282417213D

 28 28  0  0  0  0  0  0  0  0999 V2000
    0.7428   -0.2886   -0.1133 N   0  0  0  0  0  0  0  0  0  0  0  0
   -0.1670    0.5747    0.5191 N   0  0  0  0  0  0  0  0  0  0  0  0
    0.2208   -1.1051   -1.0750 C   0  0  0  0  0  0  0  0  0  0  0  0
    0.8993   -1.8490   -1.8518 N   0  0  0  0  0  0  0  0  0  0  0  0
   -1.1299   -1.0646   -1.0885 N   0  0  0  0  0  0  0  0  0  0  0  0
   -0.6460    0.0234    1.7918 C   0  0  0  0  0  0  0  0  0  0  0  0
    0.4582   -0.5197    2.6958 C   0  0  0  0  0  0  0  0  0  0  0  0
    1.1830    0.5394    3.3774 O   0  0  0  0  0  0  0  0  0  0  0  0
    2.1681    1.2234    2.7013 C   0  0  0  0  0  0  0  0  0  0  0  0
    3.5002    1.0847    3.1042 C   0  0  0  0  0  0  0  0  0  0  0  0
    4.5203    1.8475    2.5022 C   0  0  0  0  0  0  0  0  0  0  0  0
    4.2528    2.6541    1.3990 C   0  0  0  0  0  0  0  0  0  0  0  0
    2.9451    2.8082    0.9931 C   0  0  0  0  0  0  0  0  0  0  0  0
    1.9311    2.2622    1.7824 C   0  0  0  0  0  0  0  0  0  0  0  0
    0.4325    3.1412    1.6681 Cl  0  0  0  0  0  0  0  0  0  0  0  0
    3.9432    0.0741    4.4325 Cl  0  0  0  0  0  0  0  0  0  0  0  0
    1.7401   -0.0765   -0.1431 H   0  0  0  0  0  0  0  0  0  0  0  0
    0.2609    1.4741    0.7030 H   0  0  0  0  0  0  0  0  0  0  0  0
    1.8938   -1.7360   -1.6340 H   0  0  0  0  0  0  0  0  0  0  0  0
   -1.5296   -0.2737   -0.5948 H   0  0  0  0  0  0  0  0  0  0  0  0
   -1.6741   -1.6221   -1.7141 H   0  0  0  0  0  0  0  0  0  0  0  0
   -1.1602    0.8296    2.3277 H   0  0  0  0  0  0  0  0  0  0  0  0
   -1.4139   -0.7290    1.5795 H   0  0  0  0  0  0  0  0  0  0  0  0
   -0.0603   -1.0979    3.4771 H   0  0  0  0  0  0  0  0  0  0  0  0
    1.1036   -1.2567    2.1943 H   0  0  0  0  0  0  0  0  0  0  0  0
    5.5303    1.8311    2.9031 H   0  0  0  0  0  0  0  0  0  0  0  0
    5.0334    3.2339    0.9134 H   0  0  0  0  0  0  0  0  0  0  0  0
    2.7042    3.4441    0.1430 H   0  0  0  0  0  0  0  0  0  0  0  0
  1  2  1  0  0  0  0
  1  3  1  0  0  0  0
  1 17  1  0  0  0  0
  2  6  1  0  0  0  0
  2 18  1  0  0  0  0
  3  4  2  0  0  0  0
  3  5  1  0  0  0  0
  4 19  1  0  0  0  0
  5 20  1  0  0  0  0
  5 21  1  0  0  0  0
  6  7  1  0  0  0  0
  6 22  1  0  0  0  0
  6 23  1  0  0  0  0
  7  8  1  0  0  0  0
  7 24  1  0  0  0  0
  7 25  1  0  0  0  0
  8  9  1  0  0  0  0
  9 10  1  0  0  0  0
  9 14  2  0  0  0  0
 10 11  2  0  0  0  0
 10 16  1  0  0  0  0
 11 12  1  0  0  0  0
 11 26  1  0  0  0  0
 12 13  2  0  0  0  0
 12 27  1  0  0  0  0
 13 14  1  0  0  0  0
 13 28  1  0  0  0  0
 14 15  1  0  0  0  0
M  END
>  <DRUGBANK_ID>
DB13779

>  <COMMON_NAME>
Guanoclor

>  <CAS_NUMBER>
5001-32-1

>  <UNII>
M4HBT852YO

>  <SYNONYMS>
Guanoclor; Guanocloro; Guanoclorum

$$$$
