348
 OpenBabel10282417103D

 33 34  0  0  0  0  0  0  0  0999 V2000
    0.9874    0.1700   -0.2235 F   0  0  0  0  0  0  0  0  0  0  0  0
    2.8362   -0.6172   -1.0541 F   0  0  0  0  0  0  0  0  0  0  0  0
    2.8205    1.3422   -0.0937 F   0  0  0  0  0  0  0  0  0  0  0  0
    4.0943   -6.6498    4.6650 O   0  0  0  0  0  0  0  0  0  0  0  0
    1.9806   -3.6798    4.7826 O   0  0  0  0  0  0  0  0  0  0  0  0
    4.8450   -1.9140    5.8608 O   0  0  0  0  0  0  0  0  0  0  0  0
    0.9499   -4.1992    1.2661 O   0  5  0  0  0  0  0  0  0  0  0  0
    1.6023   -5.0446    3.0965 O   0  0  0  0  0  0  0  0  0  0  0  0
    1.3978   -4.0279    2.4102 N   0  3  0  0  0  0  0  0  0  0  0  0
    4.0668   -4.2633    5.3082 C   0  0  0  0  0  0  0  0  0  0  0  0
    4.4638   -4.4679    1.9755 C   0  0  0  0  0  0  0  0  0  0  0  0
    5.1634   -5.3584    2.9545 C   0  0  0  0  0  0  0  0  0  0  0  0
    4.1876   -3.4144    2.9230 C   0  0  0  0  0  0  0  0  0  0  0  0
    4.4792   -5.5084    4.3654 C   0  0  0  0  0  0  0  0  0  0  0  0
    3.1090   -3.9593    4.3287 C   0  0  0  0  0  0  0  0  0  0  0  0
    4.0043   -2.5626    5.1868 C   0  0  0  0  0  0  0  0  0  0  0  0
    2.9177   -1.7158    3.9455 C   0  0  0  0  0  0  0  0  0  0  0  0
    1.9321   -2.3969    2.7685 C   0  0  0  0  0  0  0  0  0  0  0  0
    3.5788   -0.5105    3.6098 C   0  0  0  0  0  0  0  0  0  0  0  0
    2.5767   -0.5538    1.3308 C   0  0  0  0  0  0  0  0  0  0  0  0
    1.9365   -1.7794    1.5161 C   0  0  0  0  0  0  0  0  0  0  0  0
    3.3475    0.0703    2.3492 C   0  0  0  0  0  0  0  0  0  0  0  0
    2.3276    0.0860   -0.0072 C   0  0  0  0  0  0  0  0  0  0  0  0
    3.5200   -4.6316    6.1924 H   0  0  0  0  0  0  0  0  0  0  0  0
    5.0736   -4.0192    1.1767 H   0  0  0  0  0  0  0  0  0  0  0  0
    3.5620   -4.8399    1.4900 H   0  0  0  0  0  0  0  0  0  0  0  0
    6.1495   -4.9396    3.1588 H   0  0  0  0  0  0  0  0  0  0  0  0
    5.2532   -6.3113    2.4414 H   0  0  0  0  0  0  0  0  0  0  0  0
    5.1423   -3.0648    3.3790 H   0  0  0  0  0  0  0  0  0  0  0  0
    4.0354   -2.5382    2.3074 H   0  0  0  0  0  0  0  0  0  0  0  0
    4.4403   -0.1484    4.1870 H   0  0  0  0  0  0  0  0  0  0  0  0
    1.6094   -2.3083    0.6103 H   0  0  0  0  0  0  0  0  0  0  0  0
    3.8354    1.0193    2.1176 H   0  0  0  0  0  0  0  0  0  0  0  0
  1 23  1  0  0  0  0
  2 23  1  0  0  0  0
  3 23  1  0  0  0  0
  4 14  2  0  0  0  0
  5 15  2  0  0  0  0
  6 16  2  0  0  0  0
  7  9  1  0  0  0  0
  8  9  2  0  0  0  0
  9 18  1  0  0  0  0
 10 14  1  0  0  0  0
 10 15  1  0  0  0  0
 10 16  1  0  0  0  0
 10 24  1  0  0  0  0
 11 12  1  0  0  0  0
 11 13  1  0  0  0  0
 11 25  1  0  0  0  0
 11 26  1  0  0  0  0
 12 14  1  0  0  0  0
 12 27  1  0  0  0  0
 12 28  1  0  0  0  0
 13 15  1  0  0  0  0
 13 29  1  0  0  0  0
 13 30  1  0  0  0  0
 16 17  1  0  0  0  0
 17 18  2  0  0  0  0
 17 19  1  0  0  0  0
 18 21  1  0  0  0  0
 19 22  2  0  0  0  0
 19 31  1  0  0  0  0
 20 21  2  0  0  0  0
 20 22  1  0  0  0  0
 20 23  1  0  0  0  0
 21 32  1  0  0  0  0
 22 33  1  0  0  0  0
M  CHG  2   7  -1   9   1
M  END
>  <DRUGBANK_ID>
DB00348

>  <SECONDARY_ACCESSION_NUMBERS>
APRD01141

>  <COMMON_NAME>
Nitisinone

>  <CAS_NUMBER>
104206-65-7

>  <UNII>
K5BN214699

>  <SYNONYMS>
2-(alpha,alpha,alpha-Trifluoro-2-nitro-p-tuluoyl)-1,3-cyclohexanedione; Nitisinona; Nitisinone; Nitisinonum

$$$$
