
 OpenBabel10282417243D

 29 29  0  0  1  0  0  0  0  0999 V2000
    1.9402    2.2482    2.2667 O   0  0  0  0  0  0  0  0  0  0  0  0
    1.0899    2.9006    1.3606 C   0  0  0  0  0  0  0  0  0  0  0  0
    1.4456    2.6723   -0.1091 C   0  0  1  0  0  0  0  0  0  0  0  0
    0.7990    3.7068   -0.8525 O   0  0  0  0  0  0  0  0  0  0  0  0
    0.6494    3.5565   -2.2635 C   0  0  2  0  0  0  0  0  0  0  0  0
   -0.3929    2.6596   -2.6285 O   0  0  0  0  0  0  0  0  0  0  0  0
   -0.5715    1.3684   -1.4909 P   0  0  0  0  0  0  0  0  0  0  0  0
   -1.9620    2.1207   -1.0815 O   0  0  0  0  0  0  0  0  0  0  0  0
   -1.1670    0.5278   -2.7541 O   0  0  0  0  0  0  0  0  0  0  0  0
   -0.7313    0.2129   -0.4728 O   0  0  0  0  0  0  0  0  0  0  0  0
    1.9891    3.1965   -2.9245 C   0  0  1  0  0  0  0  0  0  0  0  0
    2.9549    4.2497   -2.7821 O   0  0  0  0  0  0  0  0  0  0  0  0
    2.5532    1.9333   -2.2686 C   0  0  1  0  0  0  0  0  0  0  0  0
    3.7809    1.5575   -2.8886 O   0  0  0  0  0  0  0  0  0  0  0  0
    2.7366    2.1106   -0.7240 C   0  0  2  0  0  0  0  0  0  0  0  0
    3.0136    0.8265   -0.1373 O   0  0  0  0  0  0  0  0  0  0  0  0
    1.9705    1.3032    2.0228 H   0  0  0  0  0  0  0  0  0  0  0  0
    0.0689    2.4974    1.5144 H   0  0  0  0  0  0  0  0  0  0  0  0
    0.9837    3.9627    1.5956 H   0  0  0  0  0  0  0  0  0  0  0  0
    0.9121    1.7477   -0.1471 H   0  0  0  0  0  0  0  0  0  0  0  0
    0.3361    4.5409   -2.6300 H   0  0  0  0  0  0  0  0  0  0  0  0
   -1.8779    2.6504   -0.2683 H   0  0  0  0  0  0  0  0  0  0  0  0
   -0.8228    0.8502   -3.6117 H   0  0  0  0  0  0  0  0  0  0  0  0
    1.8492    3.0378   -4.0012 H   0  0  0  0  0  0  0  0  0  0  0  0
    2.9523    4.5610   -1.8584 H   0  0  0  0  0  0  0  0  0  0  0  0
    1.8742    1.0974   -2.4789 H   0  0  0  0  0  0  0  0  0  0  0  0
    4.3810    2.3246   -2.8322 H   0  0  0  0  0  0  0  0  0  0  0  0
    3.5884    2.7581   -0.5145 H   0  0  0  0  0  0  0  0  0  0  0  0
    2.4631    0.1327   -0.5519 H   0  0  0  0  0  0  0  0  0  0  0  0
  1  2  1  0  0  0  0
  1 17  1  0  0  0  0
  2 18  1  0  0  0  0
  2 19  1  0  0  0  0
  3  4  1  0  0  0  0
  3 20  1  6  0  0  0
  3  2  1  0  0  0  0
  5  4  1  0  0  0  0
  5 21  1  6  0  0  0
  5  6  1  0  0  0  0
  6  7  1  0  0  0  0
  7  8  1  0  0  0  0
  7  9  1  0  0  0  0
  7 10  2  0  0  0  0
  8 22  1  0  0  0  0
  9 23  1  0  0  0  0
 11  5  1  0  0  0  0
 11 12  1  0  0  0  0
 11 13  1  0  0  0  0
 11 24  1  6  0  0  0
 12 25  1  0  0  0  0
 13 14  1  0  0  0  0
 13 15  1  0  0  0  0
 13 26  1  6  0  0  0
 14 27  1  0  0  0  0
 15  3  1  0  0  0  0
 15 16  1  0  0  0  0
 15 28  1  1  0  0  0
 16 29  1  0  0  0  0
M  END
>  <DRUGBANK_ID>
DB17678

>  <COMMON_NAME>
Alpha-D-mannose 1-phosphate

>  <CAS_NUMBER>
15978-07-1

>  <UNII>
KT83C2DH0W

>  <SYNONYMS>
.alpha.-d-mannopyranose, 1-(dihydrogen phosphate); .alpha.-d-mannose 1-phosphate; Mannopyranose, 1-(dihydrogen phosphate), .alpha.-d-; Mannose 1-phosphate, .alpha.-d-

$$$$
