
 OpenBabel10282417243D

115119  0  0  1  0  0  0  0  0999 V2000
  -12.3726    7.6701   -6.0170 C   0  0  0  0  0  0  0  0  0  0  0  0
  -10.4586    8.9222   -6.8900 C   0  0  1  0  0  0  0  0  0  0  0  0
   -9.2541    8.9190   -7.9154 N   0  0  0  0  0  0  0  0  0  0  0  0
  -10.8101   10.4615   -6.0611 C   0  0  0  0  0  0  0  0  0  0  0  0
  -10.6412   10.6792   -4.8366 O   0  0  0  0  0  0  0  0  0  0  0  0
  -11.8341   10.9912   -6.7062 N   0  0  0  0  0  0  0  0  0  0  0  0
  -12.2871   10.5121   -8.0114 C   0  0  2  0  0  0  0  0  0  0  0  0
  -13.7656    9.8865   -7.9448 C   0  0  0  0  0  0  0  0  0  0  0  0
  -14.0960    8.8758   -9.1328 C   0  0  0  0  0  0  0  0  0  0  0  0
  -13.2038    8.0997   -9.9582 C   0  0  0  0  0  0  0  0  0  0  0  0
  -13.3719    7.2815  -11.0112 C   0  0  0  0  0  0  0  0  0  0  0  0
  -14.6496    7.2536  -11.3682 C   0  0  0  0  0  0  0  0  0  0  0  0
  -14.9376    6.5325  -12.4927 C   0  0  0  0  0  0  0  0  0  0  0  0
  -16.2446    6.5050  -12.9265 C   0  0  0  0  0  0  0  0  0  0  0  0
  -17.2346    7.1864  -12.2216 C   0  0  0  0  0  0  0  0  0  0  0  0
  -16.9337    7.9145  -11.0784 C   0  0  0  0  0  0  0  0  0  0  0  0
  -15.6440    7.9564  -10.6216 C   0  0  0  0  0  0  0  0  0  0  0  0
  -15.3669    8.7028   -9.4807 C   0  0  0  0  0  0  0  0  0  0  0  0
  -11.0901    9.6072   -9.1032 C   0  0  0  0  0  0  0  0  0  0  0  0
  -10.7464   10.0900  -10.1764 O   0  0  0  0  0  0  0  0  0  0  0  0
  -10.7125    7.9582   -8.8556 N   0  0  0  0  0  0  0  0  0  0  0  0
  -10.8976    7.1680   -7.1540 C   0  0  1  0  0  0  0  0  0  0  0  0
  -12.2802    5.5546   -6.9977 C   0  0  0  0  0  0  0  0  0  0  0  0
   -9.5459    7.1631   -5.5851 C   0  0  0  0  0  0  0  0  0  0  0  0
   -9.5085    7.8391   -4.5233 O   0  0  0  0  0  0  0  0  0  0  0  0
   -8.8267    5.7933   -5.7560 N   0  0  0  0  0  0  0  0  0  0  0  0
   -8.6278    5.0103   -7.6378 C   0  0  1  0  0  0  0  0  0  0  0  0
   -7.5036    5.6721   -8.7277 C   0  0  0  0  0  0  0  0  0  0  0  0
   -6.1175    5.4114   -7.7671 C   0  0  0  0  0  0  0  0  0  0  0  0
   -5.5737    6.0071   -6.3855 C   0  0  0  0  0  0  0  0  0  0  0  0
   -4.5568    5.3760   -5.9340 N   0  0  0  0  0  0  0  0  0  0  0  0
   -4.2486    4.7759   -7.0909 C   0  0  0  0  0  0  0  0  0  0  0  0
   -3.1033    4.1839   -7.2870 C   0  0  0  0  0  0  0  0  0  0  0  0
   -2.9294    3.7734   -8.5880 C   0  0  0  0  0  0  0  0  0  0  0  0
   -3.8554    3.8707   -9.6404 C   0  0  0  0  0  0  0  0  0  0  0  0
   -5.0565    4.4020   -9.4688 C   0  0  0  0  0  0  0  0  0  0  0  0
   -5.1073    4.8026   -8.1891 C   0  0  0  0  0  0  0  0  0  0  0  0
   -8.6641    3.6332   -7.3940 C   0  0  0  0  0  0  0  0  0  0  0  0
   -9.4564    2.7964   -7.7354 O   0  0  0  0  0  0  0  0  0  0  0  0
   -7.8993    3.5034   -6.3427 N   0  0  0  0  0  0  0  0  0  0  0  0
   -7.2323    4.7156   -5.8342 C   0  0  2  0  0  0  0  0  0  0  0  0
   -7.5822    5.0079   -4.2122 C   0  0  0  0  0  0  0  0  0  0  0  0
   -7.4249    6.6420   -3.8849 C   0  0  0  0  0  0  0  0  0  0  0  0
   -7.5455    7.1078   -2.6865 C   0  0  0  0  0  0  0  0  0  0  0  0
   -7.5304    8.5062   -2.6195 C   0  0  0  0  0  0  0  0  0  0  0  0
   -7.5925    9.4835   -3.6799 C   0  0  0  0  0  0  0  0  0  0  0  0
   -7.4362    9.1448   -4.9260 C   0  0  0  0  0  0  0  0  0  0  0  0
   -7.3504    7.8156   -4.8519 C   0  0  0  0  0  0  0  0  0  0  0  0
   -7.4929    6.5138   -6.8871 C   0  0  0  0  0  0  0  0  0  0  0  0
   -6.7803    7.4772   -7.3183 O   0  0  0  0  0  0  0  0  0  0  0  0
   -8.9236    6.7492   -7.2922 N   0  0  0  0  0  0  0  0  0  0  0  0
  -10.3430    5.4896   -6.4745 C   0  0  1  0  0  0  0  0  0  0  0  0
  -11.0480    6.4301   -4.8347 C   0  0  0  0  0  0  0  0  0  0  0  0
  -11.1800    8.3811   -5.5042 C   0  0  0  0  0  0  0  0  0  0  0  0
  -12.4410    7.8784   -7.5897 C   0  0  0  0  0  0  0  0  0  0  0  0
  -14.1535    7.1212   -6.7783 C   0  0  0  0  0  0  0  0  0  0  0  0
  -14.6062    8.1120   -5.5359 N   0  0  0  0  0  0  0  0  0  0  0  0
  -10.7980    4.7653   -7.8905 C   0  0  0  0  0  0  0  0  0  0  0  0
  -11.4478    3.6371   -7.5657 N   0  0  0  0  0  0  0  0  0  0  0  0
  -10.9881    5.3822   -8.9489 O   0  0  0  0  0  0  0  0  0  0  0  0
  -13.1289    8.4197   -6.3178 H   0  0  0  0  0  0  0  0  0  0  0  0
  -12.6156    7.3404   -5.0293 H   0  0  0  0  0  0  0  0  0  0  0  0
  -12.4716    6.8558   -6.4281 H   0  0  0  0  0  0  0  0  0  0  0  0
   -9.5316    8.5813   -6.5531 H   0  0  0  0  0  0  0  0  0  0  0  0
   -8.4181    9.2763   -7.5125 H   0  0  0  0  0  0  0  0  0  0  0  0
   -9.4710    7.8661   -8.2463 H   0  0  0  0  0  0  0  0  0  0  0  0
  -12.0991   11.7607   -6.1294 H   0  0  0  0  0  0  0  0  0  0  0  0
  -12.5150   11.3823   -8.5586 H   0  0  0  0  0  0  0  0  0  0  0  0
  -13.7741    9.5869   -6.9107 H   0  0  0  0  0  0  0  0  0  0  0  0
  -14.6263   10.3783   -7.5354 H   0  0  0  0  0  0  0  0  0  0  0  0
  -12.1712    7.9816   -9.8626 H   0  0  0  0  0  0  0  0  0  0  0  0
  -12.4865    6.8385  -11.4663 H   0  0  0  0  0  0  0  0  0  0  0  0
  -14.1591    5.9992  -13.0229 H   0  0  0  0  0  0  0  0  0  0  0  0
  -16.4905    5.9503  -13.8212 H   0  0  0  0  0  0  0  0  0  0  0  0
  -18.2609    7.1512  -12.5588 H   0  0  0  0  0  0  0  0  0  0  0  0
  -17.7158    8.4509  -10.5605 H   0  0  0  0  0  0  0  0  0  0  0  0
  -16.0712    9.2376   -8.8816 H   0  0  0  0  0  0  0  0  0  0  0  0
  -10.1464    7.4915   -9.5469 H   0  0  0  0  0  0  0  0  0  0  0  0
  -11.7226    8.6942   -6.8658 H   0  0  0  0  0  0  0  0  0  0  0  0
  -12.5725    5.0477   -7.8683 H   0  0  0  0  0  0  0  0  0  0  0  0
  -12.3560    5.2260   -5.8791 H   0  0  0  0  0  0  0  0  0  0  0  0
  -13.1280    5.7988   -7.6477 H   0  0  0  0  0  0  0  0  0  0  0  0
   -8.0756    6.1827   -5.3576 H   0  0  0  0  0  0  0  0  0  0  0  0
   -9.3079    5.5937   -8.4429 H   0  0  0  0  0  0  0  0  0  0  0  0
   -7.8289    5.2623   -9.6757 H   0  0  0  0  0  0  0  0  0  0  0  0
   -7.6838    6.8471   -8.9571 H   0  0  0  0  0  0  0  0  0  0  0  0
   -6.0692    6.5329   -5.5694 H   0  0  0  0  0  0  0  0  0  0  0  0
   -4.3486    5.4804   -4.9348 H   0  0  0  0  0  0  0  0  0  0  0  0
   -2.4430    4.1616   -6.4621 H   0  0  0  0  0  0  0  0  0  0  0  0
   -1.9868    3.3480   -8.7958 H   0  0  0  0  0  0  0  0  0  0  0  0
   -3.6669    3.5205  -10.6242 H   0  0  0  0  0  0  0  0  0  0  0  0
   -5.8655    4.5426  -10.1798 H   0  0  0  0  0  0  0  0  0  0  0  0
   -7.8768    2.5408   -6.0895 H   0  0  0  0  0  0  0  0  0  0  0  0
   -6.3085    4.1841   -5.7173 H   0  0  0  0  0  0  0  0  0  0  0  0
   -8.6178    4.5851   -4.0724 H   0  0  0  0  0  0  0  0  0  0  0  0
   -6.8669    4.5197   -3.6114 H   0  0  0  0  0  0  0  0  0  0  0  0
   -7.5693    6.3679   -1.9359 H   0  0  0  0  0  0  0  0  0  0  0  0
   -7.3954    8.8997   -1.6584 H   0  0  0  0  0  0  0  0  0  0  0  0
   -7.7649   10.5195   -3.5849 H   0  0  0  0  0  0  0  0  0  0  0  0
   -7.5949    9.6229   -5.8941 H   0  0  0  0  0  0  0  0  0  0  0  0
   -7.7364    7.8532   -5.8269 H   0  0  0  0  0  0  0  0  0  0  0  0
   -8.5054    7.6994   -7.4231 H   0  0  0  0  0  0  0  0  0  0  0  0
  -10.0074    4.5435   -5.7718 H   0  0  0  0  0  0  0  0  0  0  0  0
  -11.9209    6.0664   -4.3484 H   0  0  0  0  0  0  0  0  0  0  0  0
  -10.2320    6.3579   -3.9548 H   0  0  0  0  0  0  0  0  0  0  0  0
  -11.9211    8.9818   -4.8733 H   0  0  0  0  0  0  0  0  0  0  0  0
   -9.9957    9.1332   -5.3227 H   0  0  0  0  0  0  0  0  0  0  0  0
  -12.4309    8.7166   -8.1706 H   0  0  0  0  0  0  0  0  0  0  0  0
  -12.1626    7.0461   -8.3523 H   0  0  0  0  0  0  0  0  0  0  0  0
  -14.6082    6.7537   -7.6730 H   0  0  0  0  0  0  0  0  0  0  0  0
  -13.9147    6.2219   -5.9949 H   0  0  0  0  0  0  0  0  0  0  0  0
  -14.9982    7.4550   -4.9182 H   0  0  0  0  0  0  0  0  0  0  0  0
  -13.7230    8.4368   -4.9527 H   0  0  0  0  0  0  0  0  0  0  0  0
  -11.9385    3.4810   -8.4158 H   0  0  0  0  0  0  0  0  0  0  0  0
  -10.9287    3.1201   -6.8836 H   0  0  0  0  0  0  0  0  0  0  0  0
  1 61  1  0  0  0  0
  1 62  1  0  0  0  0
  1 63  1  0  0  0  0
  2  1  1  0  0  0  0
  2  3  1  0  0  0  0
  2  4  1  0  0  0  0
  2 64  1  1  0  0  0
  3 65  1  0  0  0  0
  3 66  1  0  0  0  0
  4  5  2  0  0  0  0
  4  6  1  0  0  0  0
  6 67  1  0  0  0  0
  7 19  1  0  0  0  0
  7 68  1  6  0  0  0
  7  8  1  0  0  0  0
  7  6  1  0  0  0  0
  8  9  1  0  0  0  0
  8 69  1  0  0  0  0
  8 70  1  0  0  0  0
  9 10  1  0  0  0  0
  9 18  2  0  0  0  0
 10 11  2  0  0  0  0
 10 71  1  0  0  0  0
 11 12  1  0  0  0  0
 11 72  1  0  0  0  0
 12 13  2  0  0  0  0
 12 17  1  0  0  0  0
 13 14  1  0  0  0  0
 13 73  1  0  0  0  0
 14 15  2  0  0  0  0
 14 74  1  0  0  0  0
 15 16  1  0  0  0  0
 15 75  1  0  0  0  0
 16 17  2  0  0  0  0
 16 76  1  0  0  0  0
 17 18  1  0  0  0  0
 18 77  1  0  0  0  0
 19 20  2  0  0  0  0
 19 21  1  0  0  0  0
 21 78  1  0  0  0  0
 22 21  1  0  0  0  0
 22 23  1  0  0  0  0
 22 24  1  0  0  0  0
 22 79  1  1  0  0  0
 23 80  1  0  0  0  0
 23 81  1  0  0  0  0
 23 82  1  0  0  0  0
 24 25  2  0  0  0  0
 24 26  1  0  0  0  0
 26 83  1  0  0  0  0
 27 26  1  0  0  0  0
 27 28  1  0  0  0  0
 27 38  1  0  0  0  0
 27 84  1  6  0  0  0
 28 29  1  0  0  0  0
 28 85  1  0  0  0  0
 28 86  1  0  0  0  0
 29 30  2  0  0  0  0
 29 37  1  0  0  0  0
 30 31  1  0  0  0  0
 30 87  1  0  0  0  0
 31 32  1  0  0  0  0
 31 88  1  0  0  0  0
 32 33  2  0  0  0  0
 32 37  1  0  0  0  0
 33 34  1  0  0  0  0
 33 89  1  0  0  0  0
 34 35  2  0  0  0  0
 34 90  1  0  0  0  0
 35 36  1  0  0  0  0
 35 91  1  0  0  0  0
 36 37  2  0  0  0  0
 36 92  1  0  0  0  0
 38 39  2  0  0  0  0
 38 40  1  0  0  0  0
 40 93  1  0  0  0  0
 41 49  1  0  0  0  0
 41 94  1  6  0  0  0
 41 42  1  0  0  0  0
 41 40  1  0  0  0  0
 42 43  1  0  0  0  0
 42 95  1  0  0  0  0
 42 96  1  0  0  0  0
 43 44  2  0  0  0  0
 43 48  1  0  0  0  0
 44 45  1  0  0  0  0
 44 97  1  0  0  0  0
 45 46  2  0  0  0  0
 45 98  1  0  0  0  0
 46 47  1  0  0  0  0
 46 99  1  0  0  0  0
 47 48  2  0  0  0  0
 47100  1  0  0  0  0
 48101  1  0  0  0  0
 49 50  2  0  0  0  0
 49 51  1  0  0  0  0
 51102  1  0  0  0  0
 52 51  1  0  0  0  0
 52 53  1  0  0  0  0
 52 58  1  0  0  0  0
 52103  1  1  0  0  0
 53 54  1  0  0  0  0
 53104  1  0  0  0  0
 53105  1  0  0  0  0
 54 55  1  0  0  0  0
 54106  1  0  0  0  0
 54107  1  0  0  0  0
 55 56  1  0  0  0  0
 55108  1  0  0  0  0
 55109  1  0  0  0  0
 56 57  1  0  0  0  0
 56110  1  0  0  0  0
 56111  1  0  0  0  0
 57112  1  0  0  0  0
 57113  1  0  0  0  0
 58 59  1  0  0  0  0
 58 60  2  0  0  0  0
 59114  1  0  0  0  0
 59115  1  0  0  0  0
M  END
>  <DRUGBANK_ID>
DB18252

>  <COMMON_NAME>
Pralmorelin

>  <CAS_NUMBER>
158861-67-7

>  <UNII>
E6S6E1F19M

>  <SYNONYMS>
D-ala-3-(2-naphthyl)-d-ala-ala-trp-d-phe-lys-nh2; D-alanyl-3-(2-naphthyl)-d-alanyl-l-alanyl-l-tryptophyl-d-phenylalanyl-l-lysinamide; Growth hormone-releasing peptide 2; L-lysinamide, d-alanyl-3-(2-naphthalenyl)-d-alanyl-l-alanyl-l-tryptophyl-d-phenylalanyl-

$$$$
