
 OpenBabel10282417133D

 34 35  0  0  1  0  0  0  0  0999 V2000
    1.0764   -0.0228   -0.1076 C   0  0  0  0  0  0  0  0  0  0  0  0
    0.6944   -1.4015   -0.1240 O   0  0  0  0  0  0  0  0  0  0  0  0
    1.0301   -2.0829   -1.2589 C   0  0  0  0  0  0  0  0  0  0  0  0
    1.6908   -1.6088   -2.1810 O   0  0  0  0  0  0  0  0  0  0  0  0
    0.4144   -3.4828   -1.2855 C   0  0  1  0  0  0  0  0  0  0  0  0
    0.9417   -4.2976   -0.1028 C   0  0  0  0  0  0  0  0  0  0  0  0
   -1.1080   -3.4921   -1.3267 C   0  0  0  0  0  0  0  0  0  0  0  0
   -1.8177   -4.7055   -1.3373 C   0  0  0  0  0  0  0  0  0  0  0  0
   -3.2147   -4.7112   -1.3304 C   0  0  0  0  0  0  0  0  0  0  0  0
   -3.9352   -3.5067   -1.3324 C   0  0  0  0  0  0  0  0  0  0  0  0
   -3.2234   -2.3105   -1.3451 C   0  0  0  0  0  0  0  0  0  0  0  0
   -3.8613   -1.1302   -1.3543 F   0  0  0  0  0  0  0  0  0  0  0  0
   -1.8408   -2.2992   -1.3575 C   0  0  0  0  0  0  0  0  0  0  0  0
   -5.3909   -3.5040   -1.3968 C   0  0  0  0  0  0  0  0  0  0  0  0
   -6.0393   -2.8872   -2.4782 C   0  0  0  0  0  0  0  0  0  0  0  0
   -7.4232   -2.9427   -2.6003 C   0  0  0  0  0  0  0  0  0  0  0  0
   -8.1716   -3.6298   -1.6484 C   0  0  0  0  0  0  0  0  0  0  0  0
   -7.5403   -4.2467   -0.5687 C   0  0  0  0  0  0  0  0  0  0  0  0
   -6.1592   -4.1477   -0.4197 C   0  0  0  0  0  0  0  0  0  0  0  0
    0.6725    0.4312    0.8027 H   0  0  0  0  0  0  0  0  0  0  0  0
    0.6588    0.5164   -0.9658 H   0  0  0  0  0  0  0  0  0  0  0  0
    2.1653    0.0598   -0.0875 H   0  0  0  0  0  0  0  0  0  0  0  0
    0.7635   -3.9551   -2.2146 H   0  0  0  0  0  0  0  0  0  0  0  0
    0.5877   -3.8866    0.8494 H   0  0  0  0  0  0  0  0  0  0  0  0
    0.6131   -5.3417   -0.1486 H   0  0  0  0  0  0  0  0  0  0  0  0
    2.0356   -4.2984   -0.0873 H   0  0  0  0  0  0  0  0  0  0  0  0
   -1.2977   -5.6624   -1.3524 H   0  0  0  0  0  0  0  0  0  0  0  0
   -3.7429   -5.6637   -1.3478 H   0  0  0  0  0  0  0  0  0  0  0  0
   -1.3734   -1.3221   -1.3823 H   0  0  0  0  0  0  0  0  0  0  0  0
   -5.4572   -2.3647   -3.2359 H   0  0  0  0  0  0  0  0  0  0  0  0
   -7.9075   -2.4654   -3.4470 H   0  0  0  0  0  0  0  0  0  0  0  0
   -9.2516   -3.6807   -1.7455 H   0  0  0  0  0  0  0  0  0  0  0  0
   -8.1207   -4.8136    0.1529 H   0  0  0  0  0  0  0  0  0  0  0  0
   -5.6808   -4.5748    0.4594 H   0  0  0  0  0  0  0  0  0  0  0  0
  1  2  1  0  0  0  0
  1 20  1  0  0  0  0
  1 21  1  0  0  0  0
  1 22  1  0  0  0  0
  2  3  1  0  0  0  0
  3  4  2  0  0  0  0
  3  5  1  0  0  0  0
  5  6  1  0  0  0  0
  5  7  1  0  0  0  0
  5 23  1  6  0  0  0
  6 24  1  0  0  0  0
  6 25  1  0  0  0  0
  6 26  1  0  0  0  0
  7  8  2  0  0  0  0
  7 13  1  0  0  0  0
  8  9  1  0  0  0  0
  8 27  1  0  0  0  0
  9 10  2  0  0  0  0
  9 28  1  0  0  0  0
 10 11  1  0  0  0  0
 10 14  1  0  0  0  0
 11 12  1  0  0  0  0
 11 13  2  0  0  0  0
 13 29  1  0  0  0  0
 14 15  2  0  0  0  0
 14 19  1  0  0  0  0
 15 16  1  0  0  0  0
 15 30  1  0  0  0  0
 16 17  2  0  0  0  0
 16 31  1  0  0  0  0
 17 18  1  0  0  0  0
 17 32  1  0  0  0  0
 18 19  2  0  0  0  0
 18 33  1  0  0  0  0
 19 34  1  0  0  0  0
M  END
>  <DRUGBANK_ID>
DB03753

>  <SECONDARY_ACCESSION_NUMBERS>
EXPT01438

>  <COMMON_NAME>
Flurbiprofen Methyl Ester

$$$$
