
 OpenBabel10282417113D

 53 56  0  0  1  0  0  0  0  0999 V2000
    1.2712    0.9159   -0.2208 S   0  0  0  0  0  0  0  0  0  0  0  0
   -0.2239    0.6620   -1.0834 C   0  0  1  0  0  0  0  0  0  0  0  0
   -0.8485   -0.5962   -0.6758 N   0  0  0  0  0  0  0  0  0  0  0  0
   -0.2203   -1.8187   -0.4207 C   0  0  0  0  0  0  0  0  0  0  0  0
    1.1398   -1.9423   -0.3863 C   0  0  0  0  0  0  0  0  0  0  0  0
    1.9910   -0.7395   -0.8717 C   0  0  0  0  0  0  0  0  0  0  0  0
   -1.5048    1.3965   -0.6458 C   0  0  1  0  0  0  0  0  0  0  0  0
   -1.8911    0.0157   -0.0291 C   0  0  0  0  0  0  0  0  0  0  0  0
   -1.1165   -3.0225   -0.1837 C   0  0  0  0  0  0  0  0  0  0  0  0
   -2.3304   -3.0312   -0.1985 O   0  0  0  0  0  0  0  0  0  0  0  0
   -0.4450   -4.1783   -0.0559 O   0  0  0  0  0  0  0  0  0  0  0  0
   -2.6842   -0.3782    0.8008 O   0  0  0  0  0  0  0  0  0  0  0  0
   -1.4734    2.6509    0.2176 N   0  0  0  0  0  0  0  0  0  0  0  0
   -2.1458    3.7760   -0.2501 C   0  0  0  0  0  0  0  0  0  0  0  0
   -2.1915    5.0505    0.6183 C   0  0  1  0  0  0  0  0  0  0  0  0
   -1.6028    6.2601   -0.0984 C   0  0  0  0  0  0  0  0  0  0  0  0
   -2.7015    3.7658   -1.3532 O   0  0  0  0  0  0  0  0  0  0  0  0
   -0.0014    0.7736   -2.1410 H   0  0  0  0  0  0  0  0  0  0  0  0
    1.8768   -3.2514    0.1051 C   0  0  0  0  0  0  0  0  0  0  0  0
    1.5157   -3.8526    1.9274 S   0  0  0  0  0  0  0  0  0  0  0  0
    1.8370   -2.0625    5.3666 N   0  0  0  0  0  0  0  0  0  0  0  0
    1.5159   -0.9933    4.6683 N   0  0  0  0  0  0  0  0  0  0  0  0
    1.3995   -1.4388    3.4140 N   0  0  0  0  0  0  0  0  0  0  0  0
    1.6001   -2.7840    3.3216 C   0  0  0  0  0  0  0  0  0  0  0  0
    1.8723   -3.1824    4.5531 N   0  0  0  0  0  0  0  0  0  0  0  0
    1.4658   -0.4734    2.3814 C   0  0  0  0  0  0  0  0  0  0  0  0
   -0.4756    6.1550   -0.9320 C   0  0  0  0  0  0  0  0  0  0  0  0
    0.0991    7.2957   -1.4988 C   0  0  0  0  0  0  0  0  0  0  0  0
   -0.4939    8.5425   -1.3154 C   0  0  0  0  0  0  0  0  0  0  0  0
   -1.6179    8.6637   -0.5054 C   0  0  0  0  0  0  0  0  0  0  0  0
   -2.1528    7.5360    0.1142 C   0  0  0  0  0  0  0  0  0  0  0  0
   -3.5815    5.2900    0.8914 O   0  0  0  0  0  0  0  0  0  0  0  0
    3.3410   -0.3104    1.9523 S   0  0  0  0  0  0  0  0  0  0  0  0
    3.5689   -1.7437    1.2587 O   0  0  0  0  0  0  0  0  0  0  0  0
    3.6746    0.6611    0.9478 O   0  0  0  0  0  0  0  0  0  0  0  0
    4.1794   -0.3798    3.1332 O   0  0  0  0  0  0  0  0  0  0  0  0
    2.0473   -0.6512   -1.9579 H   0  0  0  0  0  0  0  0  0  0  0  0
    3.0431   -0.8559   -0.6243 H   0  0  0  0  0  0  0  0  0  0  0  0
   -2.0807    1.6069   -1.5528 H   0  0  0  0  0  0  0  0  0  0  0  0
   -1.0382   -4.9050    0.2178 H   0  0  0  0  0  0  0  0  0  0  0  0
   -1.0562    2.6771    1.1446 H   0  0  0  0  0  0  0  0  0  0  0  0
   -1.6848    4.9142    1.5781 H   0  0  0  0  0  0  0  0  0  0  0  0
    1.6279   -4.0687   -0.6008 H   0  0  0  0  0  0  0  0  0  0  0  0
    2.9630   -3.2979   -0.0463 H   0  0  0  0  0  0  0  0  0  0  0  0
    0.7425   -0.8499    1.6610 H   0  0  0  0  0  0  0  0  0  0  0  0
    1.0742    0.4883    2.7220 H   0  0  0  0  0  0  0  0  0  0  0  0
   -0.0359    5.1884   -1.1701 H   0  0  0  0  0  0  0  0  0  0  0  0
    1.0122    7.2137   -2.0835 H   0  0  0  0  0  0  0  0  0  0  0  0
   -0.0817    9.4198   -1.8058 H   0  0  0  0  0  0  0  0  0  0  0  0
   -2.0751    9.6352   -0.3397 H   0  0  0  0  0  0  0  0  0  0  0  0
   -3.0207    7.6585    0.7598 H   0  0  0  0  0  0  0  0  0  0  0  0
   -3.9842    5.4992    0.0246 H   0  0  0  0  0  0  0  0  0  0  0  0
    3.4079   -2.4968    1.8647 H   0  0  0  0  0  0  0  0  0  0  0  0
  1  2  1  0  0  0  0
  1  6  1  0  0  0  0
  2  3  1  0  0  0  0
  2  7  1  0  0  0  0
  2 18  1  6  0  0  0
  3  4  1  0  0  0  0
  3  8  1  0  0  0  0
  4  5  2  0  0  0  0
  4  9  1  0  0  0  0
  5  6  1  0  0  0  0
  5 19  1  0  0  0  0
  6 37  1  0  0  0  0
  6 38  1  0  0  0  0
  7  8  1  0  0  0  0
  7 13  1  0  0  0  0
  7 39  1  6  0  0  0
  8 12  2  0  0  0  0
  9 10  2  0  0  0  0
  9 11  1  0  0  0  0
 11 40  1  0  0  0  0
 13 14  1  0  0  0  0
 13 41  1  0  0  0  0
 14 15  1  0  0  0  0
 14 17  2  0  0  0  0
 15 16  1  0  0  0  0
 15 32  1  0  0  0  0
 15 42  1  1  0  0  0
 19 20  1  0  0  0  0
 19 43  1  0  0  0  0
 19 44  1  0  0  0  0
 20 24  1  0  0  0  0
 21 22  2  0  0  0  0
 21 25  1  0  0  0  0
 22 23  1  0  0  0  0
 23 24  1  0  0  0  0
 23 26  1  0  0  0  0
 24 25  2  0  0  0  0
 26 33  1  0  0  0  0
 26 45  1  0  0  0  0
 26 46  1  0  0  0  0
 27 16  1  0  0  0  0
 27 28  2  0  0  0  0
 27 47  1  0  0  0  0
 28 29  1  0  0  0  0
 28 48  1  0  0  0  0
 29 30  2  0  0  0  0
 29 49  1  0  0  0  0
 30 31  1  0  0  0  0
 30 50  1  0  0  0  0
 31 16  2  0  0  0  0
 31 51  1  0  0  0  0
 32 52  1  0  0  0  0
 33 34  1  0  0  0  0
 33 35  2  0  0  0  0
 33 36  2  0  0  0  0
 34 53  1  0  0  0  0
M  END
>  <DRUGBANK_ID>
DB01328

>  <COMMON_NAME>
Cefonicid

>  <CAS_NUMBER>
61270-58-4

>  <UNII>
6532B86WFG

>  <SYNONYMS>
(6R,7R)-7-{[(2R)-2-hydroxy-2-phenylacetyl]amino}-8-oxo-3-({[1-(sulfomethyl)-1H-tetrazol-5-yl]sulfanyl}methyl)-5-thia-1-azabicyclo[4.2.0]oct-2-ene-2-carboxylic acid; Cefonicid; Cefonicido; Cefonicidum

$$$$
