XP1
 OpenBabel10282417173D

 23 23  0  0  0  0  0  0  0  0999 V2000
    0.9624   -0.1094    0.0122 C   0  0  0  0  0  0  0  0  0  0  0  0
    0.3934    0.0432    1.3417 N   0  0  0  0  0  0  0  0  0  0  0  0
   -0.3713    1.2526    1.6377 C   0  0  0  0  0  0  0  0  0  0  0  0
    0.8295   -0.7221    2.4167 C   0  0  0  0  0  0  0  0  0  0  0  0
    2.1414   -1.2058    2.5277 C   0  0  0  0  0  0  0  0  0  0  0  0
    2.5894   -1.8751    3.6797 C   0  0  0  0  0  0  0  0  0  0  0  0
    1.7172   -2.1026    4.7458 C   0  0  0  0  0  0  0  0  0  0  0  0
    2.1167   -2.8653    5.9545 C   0  0  0  0  0  0  0  0  0  0  0  0
    1.3918   -3.1280    6.9015 O   0  0  0  0  0  0  0  0  0  0  0  0
    0.4032   -1.6430    4.6503 C   0  0  0  0  0  0  0  0  0  0  0  0
   -0.0382   -1.0077    3.4827 C   0  0  0  0  0  0  0  0  0  0  0  0
    3.3868   -3.3055    5.9065 O   0  0  0  0  0  0  0  0  0  0  0  0
    0.6006    0.6662   -0.6726 H   0  0  0  0  0  0  0  0  0  0  0  0
    0.6493   -1.0724   -0.4042 H   0  0  0  0  0  0  0  0  0  0  0  0
    2.0545   -0.0521   -0.0002 H   0  0  0  0  0  0  0  0  0  0  0  0
   -1.3654    1.0018    2.0208 H   0  0  0  0  0  0  0  0  0  0  0  0
    0.1442    1.8816    2.3741 H   0  0  0  0  0  0  0  0  0  0  0  0
   -0.5263    1.8665    0.7436 H   0  0  0  0  0  0  0  0  0  0  0  0
    2.8632   -1.0357    1.7352 H   0  0  0  0  0  0  0  0  0  0  0  0
    3.6266   -2.1960    3.7348 H   0  0  0  0  0  0  0  0  0  0  0  0
   -0.2894   -1.7725    5.4787 H   0  0  0  0  0  0  0  0  0  0  0  0
   -1.0938   -0.7587    3.4009 H   0  0  0  0  0  0  0  0  0  0  0  0
    3.4993   -3.8274    6.7292 H   0  0  0  0  0  0  0  0  0  0  0  0
  1  2  1  0  0  0  0
  1 13  1  0  0  0  0
  1 14  1  0  0  0  0
  1 15  1  0  0  0  0
  2  3  1  0  0  0  0
  2  4  1  0  0  0  0
  3 16  1  0  0  0  0
  3 17  1  0  0  0  0
  3 18  1  0  0  0  0
  4  5  1  0  0  0  0
  4 11  2  0  0  0  0
  5  6  2  0  0  0  0
  5 19  1  0  0  0  0
  6  7  1  0  0  0  0
  6 20  1  0  0  0  0
  7  8  1  0  0  0  0
  7 10  2  0  0  0  0
  8  9  2  0  0  0  0
  8 12  1  0  0  0  0
 10 11  1  0  0  0  0
 10 21  1  0  0  0  0
 11 22  1  0  0  0  0
 12 23  1  0  0  0  0
M  END
>  <DRUGBANK_ID>
DB08748

>  <COMMON_NAME>
4-(Dimethylamino)benzoic acid

>  <CAS_NUMBER>
619-84-1

>  <UNII>
D1MA908EV0

>  <SYNONYMS>
N,N-Dimethyl-4-aminobenzoic acid; N,N-Dimethyl-p-aminobenzoic acid; p-Dimethylamino benzoic acid; p-N,N-(Dimethylamino)benzoic acid

$$$$
