
 OpenBabel10282417193D

 41 43  0  0  0  0  0  0  0  0999 V2000
    1.4210   -1.4288   -0.0507 C   0  0  0  0  0  0  0  0  0  0  0  0
    2.6928   -0.8182   -0.0413 C   0  0  0  0  0  0  0  0  0  0  0  0
    2.8343    0.5810    0.0156 C   0  0  0  0  0  0  0  0  0  0  0  0
    1.7092    1.3968    0.0462 C   0  0  0  0  0  0  0  0  0  0  0  0
    0.2986   -0.6149   -0.0175 C   0  0  0  0  0  0  0  0  0  0  0  0
    0.4764    0.7756    0.0234 C   0  0  0  0  0  0  0  0  0  0  0  0
   -1.7935    0.5537   -0.0230 C   0  0  0  0  0  0  0  0  0  0  0  0
   -1.1686   -0.8218   -0.0368 C   0  0  0  0  0  0  0  0  0  0  0  0
   -0.7416    1.4336    0.0194 N   0  0  0  0  0  0  0  0  0  0  0  0
   -2.9680    0.8872   -0.0747 O   0  0  0  0  0  0  0  0  0  0  0  0
   -1.8733   -1.9664   -0.0200 C   0  0  0  0  0  0  0  0  0  0  0  0
   -3.2958   -1.9886    0.0691 C   0  0  0  0  0  0  0  0  0  0  0  0
   -5.4049   -1.5612   -0.6286 C   0  0  0  0  0  0  0  0  0  0  0  0
   -5.4975   -2.1693    0.6215 C   0  0  0  0  0  0  0  0  0  0  0  0
   -4.1424   -2.3722    1.0954 C   0  0  0  0  0  0  0  0  0  0  0  0
   -4.0692   -1.5029   -0.9578 N   0  0  0  0  0  0  0  0  0  0  0  0
   -3.6580   -2.8249    2.4402 C   0  0  0  0  0  0  0  0  0  0  0  0
   -6.4461   -0.9991   -1.5434 C   0  0  0  0  0  0  0  0  0  0  0  0
   -6.7724   -2.4923    1.3505 C   0  0  0  0  0  0  0  0  0  0  0  0
   -7.0422   -3.9906    1.5122 C   0  0  0  0  0  0  0  0  0  0  0  0
   -5.9395   -4.8206    2.1101 C   0  0  0  0  0  0  0  0  0  0  0  0
   -5.0144   -5.2746    1.4492 O   0  0  0  0  0  0  0  0  0  0  0  0
   -6.0406   -5.0801    3.4323 O   0  0  0  0  0  0  0  0  0  0  0  0
    1.3483   -2.5106   -0.0932 H   0  0  0  0  0  0  0  0  0  0  0  0
    3.5928   -1.4307   -0.0842 H   0  0  0  0  0  0  0  0  0  0  0  0
    3.8247    1.0321    0.0304 H   0  0  0  0  0  0  0  0  0  0  0  0
    1.7962    2.4766    0.0798 H   0  0  0  0  0  0  0  0  0  0  0  0
   -0.8869    2.4291    0.0197 H   0  0  0  0  0  0  0  0  0  0  0  0
   -1.3703   -2.9269    0.0664 H   0  0  0  0  0  0  0  0  0  0  0  0
   -3.7047   -1.0479   -1.7832 H   0  0  0  0  0  0  0  0  0  0  0  0
   -4.0906   -2.2037    3.2269 H   0  0  0  0  0  0  0  0  0  0  0  0
   -3.8615   -3.8580    2.7002 H   0  0  0  0  0  0  0  0  0  0  0  0
   -2.5673   -2.7732    2.4955 H   0  0  0  0  0  0  0  0  0  0  0  0
   -7.1451   -1.7793   -1.8604 H   0  0  0  0  0  0  0  0  0  0  0  0
   -7.0219   -0.2098   -1.0456 H   0  0  0  0  0  0  0  0  0  0  0  0
   -6.0086   -0.5581   -2.4474 H   0  0  0  0  0  0  0  0  0  0  0  0
   -6.7928   -1.9647    2.3112 H   0  0  0  0  0  0  0  0  0  0  0  0
   -7.6209   -2.0831    0.7775 H   0  0  0  0  0  0  0  0  0  0  0  0
   -7.9698   -4.1593    2.0691 H   0  0  0  0  0  0  0  0  0  0  0  0
   -7.1969   -4.4278    0.5194 H   0  0  0  0  0  0  0  0  0  0  0  0
   -6.9139   -4.9233    3.8311 H   0  0  0  0  0  0  0  0  0  0  0  0
  1  2  1  0  0  0  0
  1  5  2  0  0  0  0
  1 24  1  0  0  0  0
  2  3  2  0  0  0  0
  2 25  1  0  0  0  0
  3  4  1  0  0  0  0
  3 26  1  0  0  0  0
  4  6  2  0  0  0  0
  4 27  1  0  0  0  0
  5  8  1  0  0  0  0
  5  6  1  0  0  0  0
  6  9  1  0  0  0  0
  7  9  1  0  0  0  0
  7  8  1  0  0  0  0
  7 10  2  0  0  0  0
  8 11  2  0  0  0  0
  9 28  1  0  0  0  0
 11 12  1  0  0  0  0
 11 29  1  0  0  0  0
 12 15  2  0  0  0  0
 12 16  1  0  0  0  0
 13 16  1  0  0  0  0
 13 14  2  0  0  0  0
 13 18  1  0  0  0  0
 14 15  1  0  0  0  0
 14 19  1  0  0  0  0
 15 17  1  0  0  0  0
 16 30  1  0  0  0  0
 17 31  1  0  0  0  0
 17 32  1  0  0  0  0
 17 33  1  0  0  0  0
 18 34  1  0  0  0  0
 18 35  1  0  0  0  0
 18 36  1  0  0  0  0
 19 20  1  0  0  0  0
 19 37  1  0  0  0  0
 19 38  1  0  0  0  0
 20 21  1  0  0  0  0
 20 39  1  0  0  0  0
 20 40  1  0  0  0  0
 21 23  1  0  0  0  0
 21 22  2  0  0  0  0
 23 41  1  0  0  0  0
M  END
>  <DRUGBANK_ID>
DB12072

>  <COMMON_NAME>
Orantinib

>  <CAS_NUMBER>
252916-29-3

>  <UNII>
9RL37ZZ665

>  <SYNONYMS>
Orantinib; Orantinibum

$$$$
