BIG
 OpenBabel10282417163D

 48 50  0  0  0  0  0  0  0  0999 V2000
    1.5104   -1.5130    0.0091 C   0  0  0  0  0  0  0  0  0  0  0  0
   -0.0850    0.5448   -0.2490 C   0  0  0  0  0  0  0  0  0  0  0  0
   -0.5703   -0.7554   -0.2990 C   0  0  0  0  0  0  0  0  0  0  0  0
   -2.2833    0.6715   -0.6517 C   0  0  0  0  0  0  0  0  0  0  0  0
   -2.8855    1.3376    2.1173 O   0  0  0  0  0  0  0  0  0  0  0  0
   -3.9752    0.5154    2.5430 C   0  0  2  0  0  0  0  0  0  0  0  0
   -3.3876   -0.5608    3.4770 C   0  0  1  0  0  0  0  0  0  0  0  0
   -4.4784   -1.1374    4.3925 C   0  0  0  0  0  0  0  0  0  0  0  0
   -4.1504   -2.6775    5.3564 S   0  0  0  0  0  0  0  0  0  0  0  0
   -4.0706   -4.1060    4.1807 C   0  0  0  0  0  0  0  0  0  0  0  0
   -5.3189   -4.5061    3.3788 C   0  0  0  0  0  0  0  0  0  0  0  0
   -5.8814   -3.5290    2.3631 C   0  0  0  0  0  0  0  0  0  0  0  0
   -5.0249   -3.5217    1.1284 C   0  0  0  0  0  0  0  0  0  0  0  0
   -2.7527   -1.5175    2.4728 C   0  0  0  0  0  0  0  0  0  0  0  0
   -3.4822   -1.3024    1.2392 N   0  0  0  0  0  0  0  0  0  0  0  0
   -4.5162   -0.2951    1.3668 C   0  0  0  0  0  0  0  0  0  0  0  0
   -2.9322   -1.7010   -0.0478 C   0  0  0  0  0  0  0  0  0  0  0  0
   -1.1621    1.3909   -0.3698 N   0  0  0  0  0  0  0  0  0  0  0  0
    1.2377    0.7770   -0.0327 C   0  0  0  0  0  0  0  0  0  0  0  0
    1.7426    2.0566    0.0906 N   0  0  0  0  0  0  0  0  0  0  0  0
    0.2184   -1.8357   -0.1178 N   0  0  0  0  0  0  0  0  0  0  0  0
   -1.9688   -0.6569   -0.4105 C   0  0  0  0  0  0  0  0  0  0  0  0
    2.0626   -0.2801    0.0585 N   0  0  0  0  0  0  0  0  0  0  0  0
   -4.7333    1.1635    2.9845 H   0  0  0  0  0  0  0  0  0  0  0  0
   -2.5918   -0.1351    4.0984 H   0  0  0  0  0  0  0  0  0  0  0  0
    2.2028   -2.3480    0.0770 H   0  0  0  0  0  0  0  0  0  0  0  0
   -3.2424    1.1674   -0.6995 H   0  0  0  0  0  0  0  0  0  0  0  0
   -2.2555    0.6924    1.7361 H   0  0  0  0  0  0  0  0  0  0  0  0
   -4.6203   -0.3737    5.1716 H   0  0  0  0  0  0  0  0  0  0  0  0
   -5.4678   -1.1539    3.9357 H   0  0  0  0  0  0  0  0  0  0  0  0
   -3.1609   -4.1118    3.5749 H   0  0  0  0  0  0  0  0  0  0  0  0
   -3.8670   -4.9588    4.8424 H   0  0  0  0  0  0  0  0  0  0  0  0
   -5.0628   -5.4183    2.8222 H   0  0  0  0  0  0  0  0  0  0  0  0
   -6.1115   -4.7726    4.0791 H   0  0  0  0  0  0  0  0  0  0  0  0
   -6.8993   -3.7804    2.0590 H   0  0  0  0  0  0  0  0  0  0  0  0
   -5.9610   -2.5400    2.7965 H   0  0  0  0  0  0  0  0  0  0  0  0
   -5.0383   -4.4154    0.5135 H   0  0  0  0  0  0  0  0  0  0  0  0
   -5.3244   -2.6849    0.4918 H   0  0  0  0  0  0  0  0  0  0  0  0
   -3.9904   -3.4694    1.4495 H   0  0  0  0  0  0  0  0  0  0  0  0
   -2.8342   -2.5324    2.7973 H   0  0  0  0  0  0  0  0  0  0  0  0
   -1.6766   -1.3513    2.3712 H   0  0  0  0  0  0  0  0  0  0  0  0
   -5.4711   -0.7556    1.6391 H   0  0  0  0  0  0  0  0  0  0  0  0
   -4.7111    0.2598    0.4481 H   0  0  0  0  0  0  0  0  0  0  0  0
   -3.7119   -1.7992   -0.8132 H   0  0  0  0  0  0  0  0  0  0  0  0
   -2.4546   -2.6885    0.0228 H   0  0  0  0  0  0  0  0  0  0  0  0
   -1.1586    2.3728   -0.1319 H   0  0  0  0  0  0  0  0  0  0  0  0
    1.1491    2.8551   -0.0474 H   0  0  0  0  0  0  0  0  0  0  0  0
    2.7400    2.1442    0.0351 H   0  0  0  0  0  0  0  0  0  0  0  0
  1 21  2  0  0  0  0
  1 23  1  0  0  0  0
  1 26  1  0  0  0  0
  2  3  2  0  0  0  0
  2 18  1  0  0  0  0
  2 19  1  0  0  0  0
  3 21  1  0  0  0  0
  3 22  1  0  0  0  0
  4 18  1  0  0  0  0
  4 22  2  0  0  0  0
  4 27  1  0  0  0  0
  5 28  1  0  0  0  0
  6  5  1  0  0  0  0
  6  7  1  0  0  0  0
  6 16  1  0  0  0  0
  6 24  1  1  0  0  0
  7 14  1  0  0  0  0
  7 25  1  1  0  0  0
  7  8  1  0  0  0  0
  8  9  1  0  0  0  0
  8 29  1  0  0  0  0
  8 30  1  0  0  0  0
  9 10  1  0  0  0  0
 10 11  1  0  0  0  0
 10 31  1  0  0  0  0
 10 32  1  0  0  0  0
 11 12  1  0  0  0  0
 11 33  1  0  0  0  0
 11 34  1  0  0  0  0
 12 13  1  0  0  0  0
 12 35  1  0  0  0  0
 12 36  1  0  0  0  0
 13 37  1  0  0  0  0
 13 38  1  0  0  0  0
 13 39  1  0  0  0  0
 14 15  1  0  0  0  0
 14 40  1  0  0  0  0
 14 41  1  0  0  0  0
 15 16  1  0  0  0  0
 15 17  1  0  0  0  0
 16 42  1  0  0  0  0
 16 43  1  0  0  0  0
 17 22  1  0  0  0  0
 17 44  1  0  0  0  0
 17 45  1  0  0  0  0
 18 46  1  0  0  0  0
 19 20  1  0  0  0  0
 19 23  2  0  0  0  0
 20 47  1  0  0  0  0
 20 48  1  0  0  0  0
M  END
>  <DRUGBANK_ID>
DB07463

>  <COMMON_NAME>
(3R,4S)-1-[(4-amino-5H-pyrrolo[3,2-d]pyrimidin-7-yl)methyl]-4-[(butylsulfanyl)methyl]pyrrolidin-3-ol

$$$$
