
 OpenBabel10282417163D

 54 55  0  0  0  0  0  0  0  0999 V2000
    1.0888    0.0284    0.0785 C   0  0  0  0  0  0  0  0  0  0  0  0
    0.8410    3.2399   -3.2087 C   0  0  0  0  0  0  0  0  0  0  0  0
    5.5991    4.0738   -5.3275 C   0  0  0  0  0  0  0  0  0  0  0  0
    5.1699    3.4830   -3.3103 C   0  0  0  0  0  0  0  0  0  0  0  0
    0.5908    1.3642    0.5792 C   0  0  0  0  0  0  0  0  0  0  0  0
    1.7362    8.0956   -4.4929 C   0  0  0  0  0  0  0  0  0  0  0  0
    7.3778    3.6364   -1.2682 C   0  0  0  0  0  0  0  0  0  0  0  0
    1.2669    6.8383   -4.6608 C   0  0  0  0  0  0  0  0  0  0  0  0
    2.4664    8.3870   -3.3298 C   0  0  0  0  0  0  0  0  0  0  0  0
    6.6841    2.4295   -1.0789 C   0  0  0  0  0  0  0  0  0  0  0  0
    6.6682    4.8346   -1.1395 C   0  0  0  0  0  0  0  0  0  0  0  0
    1.5523    5.9481   -3.6485 C   0  0  0  0  0  0  0  0  0  0  0  0
    2.7363    7.4323   -2.3172 C   0  0  0  0  0  0  0  0  0  0  0  0
    5.2713    2.4209   -0.7962 C   0  0  0  0  0  0  0  0  0  0  0  0
    5.2760    4.8481   -0.8202 C   0  0  0  0  0  0  0  0  0  0  0  0
    2.2960    5.1398   -1.2530 C   0  0  0  0  0  0  0  0  0  0  0  0
    3.2655    3.7435   -4.3530 C   0  0  0  0  0  0  0  0  0  0  0  0
    2.4327    3.1252   -2.9936 C   0  0  1  0  0  0  0  0  0  0  0  0
    2.2302    6.1546   -2.4245 C   0  0  0  0  0  0  0  0  0  0  0  0
    4.5003    3.6457   -0.8033 C   0  0  0  0  0  0  0  0  0  0  0  0
    0.9403    2.5518   -0.2767 C   0  0  0  0  0  0  0  0  0  0  0  0
    2.8927    3.6741   -1.4201 C   0  0  1  0  0  0  0  0  0  0  0  0
    4.6400    3.2533   -4.5869 N   0  0  0  0  0  0  0  0  0  0  0  0
    0.0792    3.3058   -0.6290 O   0  0  0  0  0  0  0  0  0  0  0  0
    2.2823    2.6692   -0.4953 O   0  0  0  0  0  0  0  0  0  0  0  0
    2.5806    2.0391   -3.0237 H   0  0  0  0  0  0  0  0  0  0  0  0
    0.7165   -0.1887   -0.9288 H   0  0  0  0  0  0  0  0  0  0  0  0
    0.7300   -0.7610    0.7479 H   0  0  0  0  0  0  0  0  0  0  0  0
    2.1807   -0.0099    0.0523 H   0  0  0  0  0  0  0  0  0  0  0  0
    0.3995    4.1473   -2.7623 H   0  0  0  0  0  0  0  0  0  0  0  0
    0.5781    3.2488   -4.2751 H   0  0  0  0  0  0  0  0  0  0  0  0
    0.2334    2.4551   -2.7671 H   0  0  0  0  0  0  0  0  0  0  0  0
    5.6082    5.1291   -5.0115 H   0  0  0  0  0  0  0  0  0  0  0  0
    6.6228    3.7072   -5.0930 H   0  0  0  0  0  0  0  0  0  0  0  0
    5.4670    3.9555   -6.3877 H   0  0  0  0  0  0  0  0  0  0  0  0
    4.9867    4.5386   -3.0282 H   0  0  0  0  0  0  0  0  0  0  0  0
    4.6246    2.7433   -2.7700 H   0  0  0  0  0  0  0  0  0  0  0  0
    6.2158    3.2565   -3.2350 H   0  0  0  0  0  0  0  0  0  0  0  0
   -0.5066    1.3285    0.5960 H   0  0  0  0  0  0  0  0  0  0  0  0
    0.9333    1.5812    1.5920 H   0  0  0  0  0  0  0  0  0  0  0  0
    1.5638    8.8074   -5.2878 H   0  0  0  0  0  0  0  0  0  0  0  0
    8.3492    3.6385   -1.7781 H   0  0  0  0  0  0  0  0  0  0  0  0
    0.7447    6.4695   -5.5434 H   0  0  0  0  0  0  0  0  0  0  0  0
    2.8258    9.3986   -3.2036 H   0  0  0  0  0  0  0  0  0  0  0  0
    7.1427    1.5285   -1.5137 H   0  0  0  0  0  0  0  0  0  0  0  0
    7.1001    5.7346   -1.5952 H   0  0  0  0  0  0  0  0  0  0  0  0
    1.3318    5.0012   -4.0689 H   0  0  0  0  0  0  0  0  0  0  0  0
    3.3485    7.7082   -1.4651 H   0  0  0  0  0  0  0  0  0  0  0  0
    4.7632    1.4767   -1.0209 H   0  0  0  0  0  0  0  0  0  0  0  0
    4.7940    5.8100   -0.9636 H   0  0  0  0  0  0  0  0  0  0  0  0
    1.2619    5.0641   -0.9228 H   0  0  0  0  0  0  0  0  0  0  0  0
    2.7455    5.6041   -0.3635 H   0  0  0  0  0  0  0  0  0  0  0  0
    2.6897    3.5717   -5.2628 H   0  0  0  0  0  0  0  0  0  0  0  0
    3.3918    4.8202   -4.2424 H   0  0  0  0  0  0  0  0  0  0  0  0
  1 27  1  0  0  0  0
  1 28  1  0  0  0  0
  1 29  1  0  0  0  0
  2 30  1  0  0  0  0
  2 31  1  0  0  0  0
  2 32  1  0  0  0  0
  3 33  1  0  0  0  0
  3 34  1  0  0  0  0
  3 35  1  0  0  0  0
  4 36  1  0  0  0  0
  4 37  1  0  0  0  0
  4 38  1  0  0  0  0
  5  1  1  0  0  0  0
  5 39  1  0  0  0  0
  5 40  1  0  0  0  0
  6 41  1  0  0  0  0
  7 42  1  0  0  0  0
  8  6  2  0  0  0  0
  8 43  1  0  0  0  0
  9  6  1  0  0  0  0
  9 44  1  0  0  0  0
 10  7  2  0  0  0  0
 10 45  1  0  0  0  0
 11  7  1  0  0  0  0
 11 46  1  0  0  0  0
 12  8  1  0  0  0  0
 12 47  1  0  0  0  0
 13  9  2  0  0  0  0
 13 48  1  0  0  0  0
 14 10  1  0  0  0  0
 14 49  1  0  0  0  0
 15 11  2  0  0  0  0
 15 50  1  0  0  0  0
 16 51  1  0  0  0  0
 16 52  1  0  0  0  0
 17 53  1  0  0  0  0
 17 54  1  0  0  0  0
 18  2  1  0  0  0  0
 18 17  1  0  0  0  0
 18 26  1  6  0  0  0
 19 12  2  0  0  0  0
 19 13  1  0  0  0  0
 19 16  1  0  0  0  0
 20 14  2  0  0  0  0
 20 15  1  0  0  0  0
 21  5  1  0  0  0  0
 22 20  1  0  0  0  0
 22 25  1  1  0  0  0
 22 18  1  0  0  0  0
 22 16  1  0  0  0  0
 23  3  1  0  0  0  0
 23  4  1  0  0  0  0
 23 17  1  0  0  0  0
 24 21  2  0  0  0  0
 25 21  1  0  0  0  0
M  END
>  <DRUGBANK_ID>
DB06793

>  <COMMON_NAME>
Levopropoxyphene

>  <CAS_NUMBER>
2338-37-6

>  <UNII>
U75VZ9PK1J

>  <SYNONYMS>
(-)-Propoxyphene; (l)-Propoxyphene; levopropoxifeno; Levopropoxyphene

$$$$
