
 OpenBabel10282417183D

 27 27  0  0  0  0  0  0  0  0999 V2000
    0.8497   -0.0153    0.2853 C   0  0  0  0  0  0  0  0  0  0  0  0
    0.4256    1.4377    0.4297 C   0  0  0  0  0  0  0  0  0  0  0  0
    0.9636    2.3350   -0.6870 C   0  0  0  0  0  0  0  0  0  0  0  0
    0.4391    1.9440   -1.9693 O   0  0  0  0  0  0  0  0  0  0  0  0
    1.0268    0.9021   -2.6192 C   0  0  0  0  0  0  0  0  0  0  0  0
    2.0671    0.3568   -2.2633 O   0  0  0  0  0  0  0  0  0  0  0  0
    0.2993    0.5050   -3.8973 C   0  0  0  0  0  0  0  0  0  0  0  0
   -1.1882    0.4443   -3.8115 N   0  0  0  0  0  0  0  0  0  0  0  0
   -1.9569    1.5717   -3.5382 C   0  0  0  0  0  0  0  0  0  0  0  0
   -3.2981    1.6123   -3.5044 C   0  0  0  0  0  0  0  0  0  0  0  0
   -4.0417    0.3566   -3.8463 C   0  0  0  0  0  0  0  0  0  0  0  0
   -5.2722    0.3178   -3.8508 O   0  0  0  0  0  0  0  0  0  0  0  0
   -3.2135   -0.8449   -4.1994 C   0  0  0  0  0  0  0  0  0  0  0  0
   -1.8758   -0.7187   -4.1581 C   0  0  0  0  0  0  0  0  0  0  0  0
   -4.1365   -2.5920   -4.7318 I   0  0  0  0  0  0  0  0  0  0  0  0
   -4.3224    3.3105   -3.0083 I   0  0  0  0  0  0  0  0  0  0  0  0
    0.3735   -0.4738   -0.5868 H   0  0  0  0  0  0  0  0  0  0  0  0
    0.5502   -0.6105    1.1495 H   0  0  0  0  0  0  0  0  0  0  0  0
    1.9377   -0.0877    0.1839 H   0  0  0  0  0  0  0  0  0  0  0  0
   -0.6700    1.4776    0.4306 H   0  0  0  0  0  0  0  0  0  0  0  0
    0.7729    1.8164    1.3972 H   0  0  0  0  0  0  0  0  0  0  0  0
    0.6107    3.3589   -0.5072 H   0  0  0  0  0  0  0  0  0  0  0  0
    2.0587    2.3789   -0.7004 H   0  0  0  0  0  0  0  0  0  0  0  0
    0.6065    1.1942   -4.6896 H   0  0  0  0  0  0  0  0  0  0  0  0
    0.6834   -0.4897   -4.1598 H   0  0  0  0  0  0  0  0  0  0  0  0
   -1.3810    2.4683   -3.3289 H   0  0  0  0  0  0  0  0  0  0  0  0
   -1.2344   -1.5595   -4.4137 H   0  0  0  0  0  0  0  0  0  0  0  0
  1  2  1  0  0  0  0
  1 17  1  0  0  0  0
  1 18  1  0  0  0  0
  1 19  1  0  0  0  0
  2  3  1  0  0  0  0
  2 20  1  0  0  0  0
  2 21  1  0  0  0  0
  3  4  1  0  0  0  0
  3 22  1  0  0  0  0
  3 23  1  0  0  0  0
  4  5  1  0  0  0  0
  5  6  2  0  0  0  0
  5  7  1  0  0  0  0
  7  8  1  0  0  0  0
  7 24  1  0  0  0  0
  7 25  1  0  0  0  0
  8  9  1  0  0  0  0
  8 14  1  0  0  0  0
  9 10  2  0  0  0  0
  9 26  1  0  0  0  0
 10 11  1  0  0  0  0
 10 16  1  0  0  0  0
 11 12  2  0  0  0  0
 11 13  1  0  0  0  0
 13 14  2  0  0  0  0
 13 15  1  0  0  0  0
 14 27  1  0  0  0  0
M  END
>  <DRUGBANK_ID>
DB09366

>  <COMMON_NAME>
Propyliodone

>  <CAS_NUMBER>
587-61-1

>  <UNII>
5NPJ6BPX36

>  <SYNONYMS>
Propiliodona; Propiodone; Propyliodone; Propyliodonum

$$$$
