
 OpenBabel10282417153D

 56 58  0  0  0  0  0  0  0  0999 V2000
   -0.2852    0.6959    0.0156 C   0  0  0  0  0  0  0  0  0  0  0  0
   -0.3430   -0.6925    0.0139 C   0  0  0  0  0  0  0  0  0  0  0  0
    1.0221   -1.1468   -0.0784 C   0  0  0  0  0  0  0  0  0  0  0  0
    1.8553   -0.0602    0.0258 N   0  0  0  0  0  0  0  0  0  0  0  0
    1.1227    1.1007    0.0291 C   0  0  0  0  0  0  0  0  0  0  0  0
    1.5203    2.2447    0.0146 O   0  0  0  0  0  0  0  0  0  0  0  0
    1.2437   -2.3303   -0.2961 O   0  0  0  0  0  0  0  0  0  0  0  0
   -1.4215    1.4683   -0.0130 C   0  0  0  0  0  0  0  0  0  0  0  0
   -2.6327    0.7856   -0.0084 C   0  0  0  0  0  0  0  0  0  0  0  0
   -2.6798   -0.6228    0.0281 C   0  0  0  0  0  0  0  0  0  0  0  0
   -1.5308   -1.4142    0.0385 C   0  0  0  0  0  0  0  0  0  0  0  0
   -1.5753   -2.8449    0.0823 N   0  0  0  0  0  0  0  0  0  0  0  0
   -2.7440   -3.5947    0.1290 C   0  0  0  0  0  0  0  0  0  0  0  0
   -2.6071   -5.0923    0.1812 C   0  0  0  0  0  0  0  0  0  0  0  0
   -3.8878   -3.1413    0.1404 O   0  0  0  0  0  0  0  0  0  0  0  0
    3.3160   -0.0497   -0.1366 C   0  0  1  0  0  0  0  0  0  0  0  0
    4.0017   -0.7683    1.0246 C   0  0  0  0  0  0  0  0  0  0  0  0
    3.7730   -0.6811   -1.4615 C   0  0  0  0  0  0  0  0  0  0  0  0
    3.1093    0.1172   -2.9134 S   0  0  0  0  0  0  0  0  0  0  0  0
    3.6895   -2.1099    1.2630 C   0  0  0  0  0  0  0  0  0  0  0  0
    4.3590   -2.8982    2.1637 C   0  0  0  0  0  0  0  0  0  0  0  0
    5.4603   -2.3907    2.8040 C   0  0  0  0  0  0  0  0  0  0  0  0
    5.8102   -1.0304    2.6266 C   0  0  0  0  0  0  0  0  0  0  0  0
    5.0301   -0.2022    1.7880 C   0  0  0  0  0  0  0  0  0  0  0  0
    6.2618   -3.2478    3.4994 O   0  0  0  0  0  0  0  0  0  0  0  0
    6.9048   -0.4007    3.1771 O   0  0  0  0  0  0  0  0  0  0  0  0
    7.7961   -1.2189    3.9423 C   0  0  0  0  0  0  0  0  0  0  0  0
    7.1982   -1.5418    5.3132 C   0  0  0  0  0  0  0  0  0  0  0  0
    5.6783   -4.3920    4.1077 C   0  0  0  0  0  0  0  0  0  0  0  0
    3.7466    1.7783   -2.8876 C   0  0  0  0  0  0  0  0  0  0  0  0
    3.6925   -0.5435   -4.0665 O   0  0  0  0  0  0  0  0  0  0  0  0
    1.6661    0.1929   -2.7864 O   0  0  0  0  0  0  0  0  0  0  0  0
   -1.3810    2.5502   -0.0479 H   0  0  0  0  0  0  0  0  0  0  0  0
   -3.5746    1.3266   -0.0308 H   0  0  0  0  0  0  0  0  0  0  0  0
   -3.6704   -1.0590    0.0365 H   0  0  0  0  0  0  0  0  0  0  0  0
   -0.6742   -3.3259    0.0644 H   0  0  0  0  0  0  0  0  0  0  0  0
   -3.1120   -5.4450    1.0886 H   0  0  0  0  0  0  0  0  0  0  0  0
   -3.1371   -5.5104   -0.6824 H   0  0  0  0  0  0  0  0  0  0  0  0
   -1.5773   -5.4455    0.1813 H   0  0  0  0  0  0  0  0  0  0  0  0
    3.6583    0.9940   -0.1275 H   0  0  0  0  0  0  0  0  0  0  0  0
    4.8663   -0.6735   -1.5576 H   0  0  0  0  0  0  0  0  0  0  0  0
    3.4609   -1.7296   -1.5334 H   0  0  0  0  0  0  0  0  0  0  0  0
    2.9591   -2.6489    0.6916 H   0  0  0  0  0  0  0  0  0  0  0  0
    4.0636   -3.9355    2.2477 H   0  0  0  0  0  0  0  0  0  0  0  0
    5.2805    0.8557    1.6952 H   0  0  0  0  0  0  0  0  0  0  0  0
    8.1279   -2.0902    3.3579 H   0  0  0  0  0  0  0  0  0  0  0  0
    8.7184   -0.6512    4.0989 H   0  0  0  0  0  0  0  0  0  0  0  0
    6.1867   -1.9595    5.2867 H   0  0  0  0  0  0  0  0  0  0  0  0
    7.8296   -2.2531    5.8501 H   0  0  0  0  0  0  0  0  0  0  0  0
    7.0645   -0.6235    5.8840 H   0  0  0  0  0  0  0  0  0  0  0  0
    4.6589   -4.2234    4.4750 H   0  0  0  0  0  0  0  0  0  0  0  0
    5.7170   -5.2172    3.3950 H   0  0  0  0  0  0  0  0  0  0  0  0
    6.2966   -4.6492    4.9726 H   0  0  0  0  0  0  0  0  0  0  0  0
    4.8351    1.7438   -2.9520 H   0  0  0  0  0  0  0  0  0  0  0  0
    3.3405    2.3023   -3.7567 H   0  0  0  0  0  0  0  0  0  0  0  0
    3.4246    2.2876   -1.9804 H   0  0  0  0  0  0  0  0  0  0  0  0
  1  2  1  0  0  0  0
  1  5  1  0  0  0  0
  1  8  2  0  0  0  0
  2  3  1  0  0  0  0
  2 11  2  0  0  0  0
  3  4  1  0  0  0  0
  3  7  2  0  0  0  0
  4  5  1  0  0  0  0
  4 16  1  0  0  0  0
  5  6  2  0  0  0  0
  8  9  1  0  0  0  0
  8 33  1  0  0  0  0
  9 10  2  0  0  0  0
  9 34  1  0  0  0  0
 10 11  1  0  0  0  0
 10 35  1  0  0  0  0
 11 12  1  0  0  0  0
 12 13  1  0  0  0  0
 12 36  1  0  0  0  0
 13 14  1  0  0  0  0
 13 15  2  0  0  0  0
 14 37  1  0  0  0  0
 14 38  1  0  0  0  0
 14 39  1  0  0  0  0
 16 17  1  0  0  0  0
 16 18  1  0  0  0  0
 16 40  1  1  0  0  0
 17 20  2  0  0  0  0
 17 24  1  0  0  0  0
 18 19  1  0  0  0  0
 18 41  1  0  0  0  0
 18 42  1  0  0  0  0
 19 30  1  0  0  0  0
 20 21  1  0  0  0  0
 20 43  1  0  0  0  0
 21 22  2  0  0  0  0
 21 44  1  0  0  0  0
 22 23  1  0  0  0  0
 22 25  1  0  0  0  0
 23 24  2  0  0  0  0
 23 26  1  0  0  0  0
 24 45  1  0  0  0  0
 25 29  1  0  0  0  0
 26 27  1  0  0  0  0
 27 28  1  0  0  0  0
 27 46  1  0  0  0  0
 27 47  1  0  0  0  0
 28 48  1  0  0  0  0
 28 49  1  0  0  0  0
 28 50  1  0  0  0  0
 29 51  1  0  0  0  0
 29 52  1  0  0  0  0
 29 53  1  0  0  0  0
 30 54  1  0  0  0  0
 30 55  1  0  0  0  0
 30 56  1  0  0  0  0
 31 19  2  0  0  0  0
 32 19  2  0  0  0  0
M  END
>  <DRUGBANK_ID>
DB05676

>  <COMMON_NAME>
Apremilast

>  <CAS_NUMBER>
608141-41-9

>  <UNII>
UP7QBP99PN

>  <SYNONYMS>
Apremilast; Apr√©milast; Apremilastum; N-{2-[(1S)-1-(3-Ethoxy-4-methoxyphenyl)-2-(methylsulfonyl)ethyl]-1,3-dioxo-2,3-dihydro-1H-isoindol-4-yl}acetamide

$$$$
