C18
 OpenBabel10282417163D

 39 41  0  0  0  0  0  0  0  0999 V2000
   -3.2266    0.5489    0.0867 O   0  0  0  0  0  0  0  0  0  0  0  0
   -2.0757    0.1528   -0.0011 C   0  0  0  0  0  0  0  0  0  0  0  0
   -0.9972    1.0123   -0.0246 O   0  0  0  0  0  0  0  0  0  0  0  0
    0.3084    0.5120    0.0926 C   0  0  0  0  0  0  0  0  0  0  0  0
    0.5976   -0.8445    0.0631 C   0  0  0  0  0  0  0  0  0  0  0  0
   -0.5260   -1.7813   -0.0596 C   0  0  0  0  0  0  0  0  0  0  0  0
    0.5266   -3.6199   -1.2708 N   0  0  0  0  0  0  0  0  0  0  0  0
   -0.2676   -3.2590   -0.0995 C   0  0  0  0  0  0  0  0  0  0  0  0
    0.8042   -5.0442   -1.2849 C   0  0  0  0  0  0  0  0  0  0  0  0
   -1.7726   -1.2848   -0.0843 C   0  0  0  0  0  0  0  0  0  0  0  0
    1.3027    1.4698    0.2195 C   0  0  0  0  0  0  0  0  0  0  0  0
    2.6447    1.0870    0.2307 C   0  0  0  0  0  0  0  0  0  0  0  0
    2.9650   -0.2683    0.2063 C   0  0  0  0  0  0  0  0  0  0  0  0
    1.9462   -1.2254    0.1418 C   0  0  0  0  0  0  0  0  0  0  0  0
    3.7012    1.9522    0.0938 O   0  0  0  0  0  0  0  0  0  0  0  0
    3.3917    3.3371   -0.1423 C   0  0  0  0  0  0  0  0  0  0  0  0
    2.7404    3.6552   -1.4864 C   0  0  0  0  0  0  0  0  0  0  0  0
    2.5347    4.9864   -1.8670 C   0  0  0  0  0  0  0  0  0  0  0  0
    1.8503    5.2831   -3.0533 C   0  0  0  0  0  0  0  0  0  0  0  0
    1.3019    4.2634   -3.8365 C   0  0  0  0  0  0  0  0  0  0  0  0
    1.4782    2.9452   -3.4576 C   0  0  0  0  0  0  0  0  0  0  0  0
    0.7395    1.6596   -4.3301 Cl  0  0  0  0  0  0  0  0  0  0  0  0
    2.2435    2.6507   -2.3392 C   0  0  0  0  0  0  0  0  0  0  0  0
    0.0346   -3.3454   -2.1199 H   0  0  0  0  0  0  0  0  0  0  0  0
    0.2545   -3.5437    0.8236 H   0  0  0  0  0  0  0  0  0  0  0  0
   -1.2150   -3.8112   -0.1109 H   0  0  0  0  0  0  0  0  0  0  0  0
   -0.1215   -5.6239   -1.3403 H   0  0  0  0  0  0  0  0  0  0  0  0
    1.4182   -5.2885   -2.1560 H   0  0  0  0  0  0  0  0  0  0  0  0
    1.3634   -5.3414   -0.3916 H   0  0  0  0  0  0  0  0  0  0  0  0
   -2.6467   -1.9216   -0.1481 H   0  0  0  0  0  0  0  0  0  0  0  0
    0.9899    2.5067    0.1734 H   0  0  0  0  0  0  0  0  0  0  0  0
    4.0042   -0.5894    0.1806 H   0  0  0  0  0  0  0  0  0  0  0  0
    2.2380   -2.2725    0.1130 H   0  0  0  0  0  0  0  0  0  0  0  0
    2.7843    3.7134    0.6936 H   0  0  0  0  0  0  0  0  0  0  0  0
    4.3443    3.8771   -0.0907 H   0  0  0  0  0  0  0  0  0  0  0  0
    2.9042    5.8026   -1.2482 H   0  0  0  0  0  0  0  0  0  0  0  0
    1.7303    6.3169   -3.3650 H   0  0  0  0  0  0  0  0  0  0  0  0
    0.7485    4.4960   -4.7400 H   0  0  0  0  0  0  0  0  0  0  0  0
    2.3921    1.5996   -2.1201 H   0  0  0  0  0  0  0  0  0  0  0  0
  1  2  2  0  0  0  0
  2 10  1  0  0  0  0
  2  3  1  0  0  0  0
  3  4  1  0  0  0  0
  4 11  1  0  0  0  0
  4  5  2  0  0  0  0
  5 14  1  0  0  0  0
  5  6  1  0  0  0  0
  6  8  1  0  0  0  0
  6 10  2  0  0  0  0
  7  9  1  0  0  0  0
  7  8  1  0  0  0  0
  7 24  1  0  0  0  0
  8 25  1  0  0  0  0
  8 26  1  0  0  0  0
  9 27  1  0  0  0  0
  9 28  1  0  0  0  0
  9 29  1  0  0  0  0
 10 30  1  0  0  0  0
 11 12  2  0  0  0  0
 11 31  1  0  0  0  0
 12 15  1  0  0  0  0
 12 13  1  0  0  0  0
 13 14  2  0  0  0  0
 13 32  1  0  0  0  0
 14 33  1  0  0  0  0
 15 16  1  0  0  0  0
 16 17  1  0  0  0  0
 16 34  1  0  0  0  0
 16 35  1  0  0  0  0
 17 23  1  0  0  0  0
 17 18  2  0  0  0  0
 18 19  1  0  0  0  0
 18 36  1  0  0  0  0
 19 20  2  0  0  0  0
 19 37  1  0  0  0  0
 20 21  1  0  0  0  0
 20 38  1  0  0  0  0
 21 22  1  0  0  0  0
 21 23  2  0  0  0  0
 23 39  1  0  0  0  0
M  END
>  <DRUGBANK_ID>
DB07513

>  <COMMON_NAME>
7-[(3-CHLOROBENZYL)OXY]-4-[(METHYLAMINO)METHYL]-2H-CHROMEN-2-ONE

>  <UNII>
XT4DJB88UB

$$$$
