
 OpenBabel10282417103D

 72 74  0  0  1  0  0  0  0  0999 V2000
    1.9047    3.2555    0.7416 C   0  0  0  0  0  0  0  0  0  0  0  0
    1.5467    6.1209    0.0145 C   0  0  0  0  0  0  0  0  0  0  0  0
    1.2690    5.2322   -2.4494 C   0  0  0  0  0  0  0  0  0  0  0  0
    1.2580    3.7806   -2.9604 C   0  0  0  0  0  0  0  0  0  0  0  0
    1.7105    4.2184    1.8756 C   0  0  0  0  0  0  0  0  0  0  0  0
    1.0656    7.3662   -0.1382 C   0  0  0  0  0  0  0  0  0  0  0  0
    2.0219    5.5806    1.3340 C   0  0  0  0  0  0  0  0  0  0  0  0
    1.0902    8.3440    0.9396 C   0  0  0  0  0  0  0  0  0  0  0  0
    2.1758    8.7321    1.6501 C   0  0  0  0  0  0  0  0  0  0  0  0
    3.5799    8.2937    1.4261 C   0  0  0  0  0  0  0  0  0  0  0  0
    2.0464    9.7453    2.7587 C   0  0  0  0  0  0  0  0  0  0  0  0
    4.6002    9.3704    1.2281 C   0  0  0  0  0  0  0  0  0  0  0  0
    4.1615    7.1647    1.8006 C   0  0  0  0  0  0  0  0  0  0  0  0
    3.1069   10.8439    2.6116 C   0  0  2  0  0  0  0  0  0  0  0  0
    4.5121   10.2554    2.4686 C   0  0  0  0  0  0  0  0  0  0  0  0
    3.0691   11.7097    3.7404 O   0  0  0  0  0  0  0  0  0  0  0  0
   -0.0647    1.0825   -0.4196 C   0  0  0  0  0  0  0  0  0  0  0  0
    0.5511    1.5675   -1.7429 C   0  0  2  0  0  0  0  0  0  0  0  0
    1.3951    0.3752   -2.2315 C   0  0  0  0  0  0  0  0  0  0  0  0
    0.5158   -0.8753   -2.3829 C   0  0  0  0  0  0  0  0  0  0  0  0
    0.7922   -1.4902   -5.2447 C   0  0  0  0  0  0  0  0  0  0  0  0
   -0.0499   -0.3092   -4.7683 C   0  0  0  0  0  0  0  0  0  0  0  0
   -1.1668    0.0043   -5.7471 C   0  0  0  0  0  0  0  0  0  0  0  0
   -0.6201   -0.6194   -3.3791 C   0  0  0  0  0  0  0  0  0  0  0  0
    1.4088    2.8482   -1.7103 C   0  0  2  0  0  0  0  0  0  0  0  0
    2.4722    2.5511   -1.6970 H   0  0  0  0  0  0  0  0  0  0  0  0
    1.7873    5.0822   -1.0314 C   0  0  2  0  0  0  0  0  0  0  0  0
    2.8818    4.9689   -1.1199 H   0  0  0  0  0  0  0  0  0  0  0  0
    1.1460    3.7660   -0.5172 C   0  0  2  0  0  0  0  0  0  0  0  0
   -0.3516    4.1039   -0.2299 C   0  0  0  0  0  0  0  0  0  0  0  0
    2.9812    3.1593    0.5199 H   0  0  0  0  0  0  0  0  0  0  0  0
    1.6102    2.2870    1.1256 H   0  0  0  0  0  0  0  0  0  0  0  0
    0.2610    5.6594   -2.4781 H   0  0  0  0  0  0  0  0  0  0  0  0
    1.9056    5.8881   -3.0539 H   0  0  0  0  0  0  0  0  0  0  0  0
    0.3361    3.5989   -3.5185 H   0  0  0  0  0  0  0  0  0  0  0  0
    2.0969    3.6304   -3.6524 H   0  0  0  0  0  0  0  0  0  0  0  0
    2.4226    4.0001    2.6841 H   0  0  0  0  0  0  0  0  0  0  0  0
    0.7100    4.1757    2.3094 H   0  0  0  0  0  0  0  0  0  0  0  0
    0.6447    7.6963   -1.0854 H   0  0  0  0  0  0  0  0  0  0  0  0
    3.0774    5.4322    1.1014 H   0  0  0  0  0  0  0  0  0  0  0  0
    1.7866    6.2536    2.1539 H   0  0  0  0  0  0  0  0  0  0  0  0
    0.1090    8.7805    1.1511 H   0  0  0  0  0  0  0  0  0  0  0  0
    2.1585    9.2308    3.7239 H   0  0  0  0  0  0  0  0  0  0  0  0
    1.0483   10.2033    2.7966 H   0  0  0  0  0  0  0  0  0  0  0  0
    4.4640    9.8990    0.2862 H   0  0  0  0  0  0  0  0  0  0  0  0
    5.6089    8.9310    1.2132 H   0  0  0  0  0  0  0  0  0  0  0  0
    3.7102    6.4799    2.5089 H   0  0  0  0  0  0  0  0  0  0  0  0
    5.1278    6.8441    1.4078 H   0  0  0  0  0  0  0  0  0  0  0  0
    2.8850   11.4422    1.7211 H   0  0  0  0  0  0  0  0  0  0  0  0
    5.2710   11.0372    2.4173 H   0  0  0  0  0  0  0  0  0  0  0  0
    4.7464    9.6700    3.3749 H   0  0  0  0  0  0  0  0  0  0  0  0
    3.2295   11.1691    4.5329 H   0  0  0  0  0  0  0  0  0  0  0  0
    0.7032    0.9084    0.3274 H   0  0  0  0  0  0  0  0  0  0  0  0
   -0.8666    1.6820   -0.0372 H   0  0  0  0  0  0  0  0  0  0  0  0
   -0.6144    0.1522   -0.4933 H   0  0  0  0  0  0  0  0  0  0  0  0
   -0.2635    1.7871   -2.4382 H   0  0  0  0  0  0  0  0  0  0  0  0
    1.9114    0.6169   -3.1673 H   0  0  0  0  0  0  0  0  0  0  0  0
    2.1948    0.1663   -1.5096 H   0  0  0  0  0  0  0  0  0  0  0  0
    1.1304   -1.7319   -2.6581 H   0  0  0  0  0  0  0  0  0  0  0  0
    0.0976   -1.2110   -1.4319 H   0  0  0  0  0  0  0  0  0  0  0  0
    0.1859   -2.4015   -5.2596 H   0  0  0  0  0  0  0  0  0  0  0  0
    1.2029   -1.3096   -6.2379 H   0  0  0  0  0  0  0  0  0  0  0  0
    1.6494   -1.6725   -4.5883 H   0  0  0  0  0  0  0  0  0  0  0  0
    0.5832    0.5858   -4.7337 H   0  0  0  0  0  0  0  0  0  0  0  0
   -1.7223    0.8921   -5.4251 H   0  0  0  0  0  0  0  0  0  0  0  0
   -0.7501    0.2093   -6.7377 H   0  0  0  0  0  0  0  0  0  0  0  0
   -1.8635   -0.8339   -5.8229 H   0  0  0  0  0  0  0  0  0  0  0  0
   -1.2826   -1.4899   -3.4069 H   0  0  0  0  0  0  0  0  0  0  0  0
   -1.2697    0.2029   -3.0506 H   0  0  0  0  0  0  0  0  0  0  0  0
   -0.8675    4.4532   -1.1249 H   0  0  0  0  0  0  0  0  0  0  0  0
   -0.9565    3.3257    0.1926 H   0  0  0  0  0  0  0  0  0  0  0  0
   -0.4664    4.8700    0.5402 H   0  0  0  0  0  0  0  0  0  0  0  0
  1  5  1  0  0  0  0
  1 31  1  0  0  0  0
  1 32  1  0  0  0  0
  2  6  2  0  0  0  0
  2  7  1  0  0  0  0
  3  4  1  0  0  0  0
  3 33  1  0  0  0  0
  3 34  1  0  0  0  0
  4 35  1  0  0  0  0
  4 36  1  0  0  0  0
  5  7  1  0  0  0  0
  5 37  1  0  0  0  0
  5 38  1  0  0  0  0
  6  8  1  0  0  0  0
  6 39  1  0  0  0  0
  7 40  1  0  0  0  0
  7 41  1  0  0  0  0
  8  9  2  0  0  0  0
  8 42  1  0  0  0  0
  9 10  1  0  0  0  0
  9 11  1  0  0  0  0
 10 12  1  0  0  0  0
 10 13  2  0  0  0  0
 11 14  1  0  0  0  0
 11 43  1  0  0  0  0
 11 44  1  0  0  0  0
 12 15  1  0  0  0  0
 12 45  1  0  0  0  0
 12 46  1  0  0  0  0
 13 47  1  0  0  0  0
 13 48  1  0  0  0  0
 14 16  1  0  0  0  0
 14 15  1  0  0  0  0
 14 49  1  6  0  0  0
 15 50  1  0  0  0  0
 15 51  1  0  0  0  0
 16 52  1  0  0  0  0
 17 53  1  0  0  0  0
 17 54  1  0  0  0  0
 17 55  1  0  0  0  0
 18 19  1  0  0  0  0
 18 56  1  6  0  0  0
 18 17  1  0  0  0  0
 19 20  1  0  0  0  0
 19 57  1  0  0  0  0
 19 58  1  0  0  0  0
 20 24  1  0  0  0  0
 20 59  1  0  0  0  0
 20 60  1  0  0  0  0
 21 61  1  0  0  0  0
 21 62  1  0  0  0  0
 21 63  1  0  0  0  0
 22 21  1  0  0  0  0
 22 23  1  0  0  0  0
 22 64  1  0  0  0  0
 23 65  1  0  0  0  0
 23 66  1  0  0  0  0
 23 67  1  0  0  0  0
 24 22  1  0  0  0  0
 24 68  1  0  0  0  0
 24 69  1  0  0  0  0
 25  4  1  0  0  0  0
 25 18  1  0  0  0  0
 25 26  1  1  0  0  0
 27 29  1  0  0  0  0
 27  2  1  0  0  0  0
 27  3  1  0  0  0  0
 27 28  1  6  0  0  0
 29 25  1  0  0  0  0
 29  1  1  0  0  0  0
 29 30  1  1  0  0  0
 30 70  1  0  0  0  0
 30 71  1  0  0  0  0
 30 72  1  0  0  0  0
M  END
>  <DRUGBANK_ID>
DB00169

>  <SECONDARY_ACCESSION_NUMBERS>
NUTR00008; APRD00506

>  <COMMON_NAME>
Cholecalciferol

>  <CAS_NUMBER>
67-97-0

>  <UNII>
1C6V77QF41

>  <SYNONYMS>
(+)-vitamin D3; (3Î²,5Z,7E)-9,10-secocholesta-5,7,10(19)-trien-3-ol; (5Z,7E)-(3S)-9,10-secocholesta-5,7,10(19)-trien-3-ol; Activated 7-dehydrocholesterol; Calciol; CC; Cholecalciferol; Cholecalciferolum; Colecalciferol; Colecalciferolum; Oleovitamin D3; Vitamin D-3; Vitamin D3

$$$$
