
 OpenBabel10282417113D

 27 27  0  0  0  0  0  0  0  0999 V2000
    0.9842   -2.4802    0.8339 C   0  0  2  0  0  0  0  0  0  0  0  0
    0.4338   -1.5081   -0.2542 C   0  0  2  0  0  0  0  0  0  0  0  0
    0.9552   -0.0710   -0.0307 C   0  0  0  0  0  0  0  0  0  0  0  0
    0.5954   -2.0209    2.1358 O   0  0  0  0  0  0  0  0  0  0  0  0
   -1.0490   -1.4900   -0.3110 N   0  0  0  0  0  0  0  0  0  0  0  0
   -1.6121   -2.8079   -0.5916 C   0  0  0  0  0  0  0  0  0  0  0  0
    2.4722   -2.7468    0.8398 C   0  0  0  0  0  0  0  0  0  0  0  0
    3.3844   -2.1351   -0.0260 C   0  0  0  0  0  0  0  0  0  0  0  0
    2.9532   -3.6857    1.7685 C   0  0  0  0  0  0  0  0  0  0  0  0
    4.7472   -2.4148    0.0567 C   0  0  0  0  0  0  0  0  0  0  0  0
    4.3157   -3.9557    1.8610 C   0  0  0  0  0  0  0  0  0  0  0  0
    5.2088   -3.3266    1.0038 C   0  0  0  0  0  0  0  0  0  0  0  0
    0.5340   -3.4681    0.6985 H   0  0  0  0  0  0  0  0  0  0  0  0
    0.7850   -1.8404   -1.2401 H   0  0  0  0  0  0  0  0  0  0  0  0
    1.6538   -0.0100    0.8124 H   0  0  0  0  0  0  0  0  0  0  0  0
    1.4998    0.2691   -0.9202 H   0  0  0  0  0  0  0  0  0  0  0  0
    0.1640    0.6593    0.1598 H   0  0  0  0  0  0  0  0  0  0  0  0
   -0.3467   -1.7978    2.0807 H   0  0  0  0  0  0  0  0  0  0  0  0
   -1.4463   -1.1051    0.5426 H   0  0  0  0  0  0  0  0  0  0  0  0
   -1.4039   -3.5348    0.1991 H   0  0  0  0  0  0  0  0  0  0  0  0
   -2.7006   -2.7441   -0.6641 H   0  0  0  0  0  0  0  0  0  0  0  0
   -1.2322   -3.2000   -1.5406 H   0  0  0  0  0  0  0  0  0  0  0  0
    3.0708   -1.4193   -0.7807 H   0  0  0  0  0  0  0  0  0  0  0  0
    2.2557   -4.1959    2.4278 H   0  0  0  0  0  0  0  0  0  0  0  0
    5.4404   -1.9135   -0.6094 H   0  0  0  0  0  0  0  0  0  0  0  0
    4.6715   -4.6520    2.6157 H   0  0  0  0  0  0  0  0  0  0  0  0
    6.2708   -3.5432    1.0684 H   0  0  0  0  0  0  0  0  0  0  0  0
  1  4  1  0  0  0  0
  1 13  1  6  0  0  0
  2 14  1  6  0  0  0
  2  3  1  0  0  0  0
  2  1  1  0  0  0  0
  3 15  1  0  0  0  0
  3 16  1  0  0  0  0
  3 17  1  0  0  0  0
  4 18  1  0  0  0  0
  5  2  1  0  0  0  0
  5 19  1  0  0  0  0
  6  5  1  0  0  0  0
  6 20  1  0  0  0  0
  6 21  1  0  0  0  0
  6 22  1  0  0  0  0
  7  1  1  0  0  0  0
  8  7  1  0  0  0  0
  8 23  1  0  0  0  0
  9  7  2  0  0  0  0
  9 24  1  0  0  0  0
 10  8  2  0  0  0  0
 10 25  1  0  0  0  0
 11  9  1  0  0  0  0
 11 26  1  0  0  0  0
 12 10  1  0  0  0  0
 12 11  2  0  0  0  0
 12 27  1  0  0  0  0
M  END
>  <DRUGBANK_ID>
DB01364

>  <COMMON_NAME>
Ephedrine

>  <CAS_NUMBER>
299-42-3

>  <UNII>
GN83C131XS

>  <SYNONYMS>
(-)-Ephedrine; (1R,2S)-1-Phenyl-1-hydroxy-2-methylaminopropane; Efedrina; Ephedrine; L-Ephedrine; L-erythro-2-(Methylamino)-1-phenylpropan-1-ol; L(âˆ’)-ephedrine

$$$$
