
 OpenBabel10282417133D

 44 45  0  0  1  0  0  0  0  0999 V2000
    0.8907    1.5220    0.9298 C   0  0  0  0  0  0  0  0  0  0  0  0
   -2.2597    0.9166   -4.2735 C   0  0  0  0  0  0  0  0  0  0  0  0
   -0.8302   -1.4675    1.9680 C   0  0  0  0  0  0  0  0  0  0  0  0
    1.5917    0.1397    0.5805 C   0  0  2  0  0  0  0  0  0  0  0  0
   -2.0126    1.0602   -2.7860 C   0  0  2  0  0  0  0  0  0  0  0  0
   -0.7214   -1.0393    0.4923 C   0  0  2  0  0  0  0  0  0  0  0  0
   -0.6093    1.2690    1.2483 C   0  0  1  0  0  0  0  0  0  0  0  0
   -1.3133    2.4426   -2.5756 C   0  0  2  0  0  0  0  0  0  0  0  0
    0.1972    2.3342   -2.9361 C   0  0  1  0  0  0  0  0  0  0  0  0
    0.7649    0.9998   -2.4871 C   0  0  2  0  0  0  0  0  0  0  0  0
    0.7013   -1.0474   -0.1216 C   0  0  1  0  0  0  0  0  0  0  0  0
    0.0578   -0.3249   -2.5984 C   0  0  2  0  0  0  0  0  0  0  0  0
   -2.6651   -0.4045   -4.5793 O   0  0  0  0  0  0  0  0  0  0  0  0
   -0.9890   -2.8623    2.1438 O   0  0  0  0  0  0  0  0  0  0  0  0
    1.9745   -0.3145    1.8919 O   0  0  0  0  0  0  0  0  0  0  0  0
   -1.4236    2.4318    1.2357 O   0  0  0  0  0  0  0  0  0  0  0  0
   -1.4849    2.9334   -1.2297 O   0  0  0  0  0  0  0  0  0  0  0  0
    0.4695    2.5937   -4.3003 O   0  0  0  0  0  0  0  0  0  0  0  0
    0.3659    1.1889   -1.1599 O   0  0  0  0  0  0  0  0  0  0  0  0
   -1.2655    0.3008    0.3968 O   0  0  0  0  0  0  0  0  0  0  0  0
   -1.3404   -0.1523   -2.3142 O   0  0  0  0  0  0  0  0  0  0  0  0
    0.6873   -1.2491   -1.6223 O   0  0  0  0  0  0  0  0  0  0  0  0
    2.5112    0.2843   -0.0036 H   0  0  0  0  0  0  0  0  0  0  0  0
   -2.9603    1.0513   -2.2313 H   0  0  0  0  0  0  0  0  0  0  0  0
   -1.3485   -1.7163   -0.1082 H   0  0  0  0  0  0  0  0  0  0  0  0
   -0.6536    0.9297    2.2762 H   0  0  0  0  0  0  0  0  0  0  0  0
   -1.7829    3.2119   -3.1899 H   0  0  0  0  0  0  0  0  0  0  0  0
    0.7214    3.1092   -2.3465 H   0  0  0  0  0  0  0  0  0  0  0  0
    1.8397    0.9165   -2.5315 H   0  0  0  0  0  0  0  0  0  0  0  0
    1.1785   -1.9895    0.1954 H   0  0  0  0  0  0  0  0  0  0  0  0
    0.1788   -0.7534   -3.6051 H   0  0  0  0  0  0  0  0  0  0  0  0
    1.3808    2.0751    1.7349 H   0  0  0  0  0  0  0  0  0  0  0  0
    1.0414    2.3101    0.1617 H   0  0  0  0  0  0  0  0  0  0  0  0
   -3.0084    1.6434   -4.6002 H   0  0  0  0  0  0  0  0  0  0  0  0
   -1.3413    1.0969   -4.8270 H   0  0  0  0  0  0  0  0  0  0  0  0
    0.0300   -1.1552    2.5556 H   0  0  0  0  0  0  0  0  0  0  0  0
   -1.6984   -0.9712    2.4197 H   0  0  0  0  0  0  0  0  0  0  0  0
   -2.1431   -0.9872   -3.9918 H   0  0  0  0  0  0  0  0  0  0  0  0
   -1.9093   -3.0617    1.9005 H   0  0  0  0  0  0  0  0  0  0  0  0
    2.9427   -0.3020    1.9549 H   0  0  0  0  0  0  0  0  0  0  0  0
   -1.0925    3.0038    0.5154 H   0  0  0  0  0  0  0  0  0  0  0  0
   -2.3243    2.5959   -0.8565 H   0  0  0  0  0  0  0  0  0  0  0  0
    0.6038    1.7611   -4.7490 H   0  0  0  0  0  0  0  0  0  0  0  0
   -0.5410    0.8925   -1.0292 H   0  0  0  0  0  0  0  0  0  0  0  0
  1 32  1  0  0  0  0
  1 33  1  0  0  0  0
  2 34  1  0  0  0  0
  2 35  1  0  0  0  0
  3 36  1  0  0  0  0
  3 37  1  0  0  0  0
  4  1  1  0  0  0  0
  4 23  1  6  0  0  0
  4 15  1  0  0  0  0
  5 24  1  1  0  0  0
  5  2  1  0  0  0  0
  6 25  1  6  0  0  0
  6  3  1  0  0  0  0
  7  1  1  0  0  0  0
  7 26  1  1  0  0  0
  7 16  1  0  0  0  0
  8  5  1  0  0  0  0
  8 27  1  6  0  0  0
  8 17  1  0  0  0  0
  9  8  1  0  0  0  0
  9 18  1  0  0  0  0
  9 28  1  1  0  0  0
 10  9  1  0  0  0  0
 10 29  1  6  0  0  0
 10 19  1  0  0  0  0
 11  4  1  0  0  0  0
 11  6  1  0  0  0  0
 11 22  1  0  0  0  0
 11 30  1  1  0  0  0
 12 10  1  0  0  0  0
 12 22  1  0  0  0  0
 12 31  1  6  0  0  0
 13  2  1  0  0  0  0
 13 38  1  0  0  0  0
 14  3  1  0  0  0  0
 14 39  1  0  0  0  0
 15 40  1  0  0  0  0
 16 41  1  0  0  0  0
 17 42  1  0  0  0  0
 18 43  1  0  0  0  0
 19 44  1  0  0  0  0
 20  6  1  0  0  0  0
 20  7  1  0  0  0  0
 21  5  1  0  0  0  0
 21 12  1  0  0  0  0
M  END
>  <DRUGBANK_ID>
DB03281

>  <SECONDARY_ACCESSION_NUMBERS>
EXPT01247

>  <COMMON_NAME>
2'-Deoxymaltose

$$$$
