
 OpenBabel10282417133D

 46 49  0  0  1  0  0  0  0  0999 V2000
    0.9275    0.0460    0.0562 C   0  0  0  0  0  0  0  0  0  0  0  0
    0.3611   -0.8349    1.1775 C   0  0  2  0  0  0  0  0  0  0  0  0
    1.0899   -2.1836    1.1098 C   0  0  0  0  0  0  0  0  0  0  0  0
    0.3580   -3.3864    1.0133 O   0  0  0  0  0  0  0  0  0  0  0  0
   -0.9950   -3.3334    0.8514 C   0  0  0  0  0  0  0  0  0  0  0  0
   -1.6363   -4.5882    0.6565 C   0  0  0  0  0  0  0  0  0  0  0  0
   -0.9708   -5.8047    0.7274 N   0  0  0  0  0  0  0  0  0  0  0  0
   -0.8900   -6.7238   -0.4181 C   0  0  0  0  0  0  0  0  0  0  0  0
   -0.9001   -8.1888    0.0943 C   0  0  0  0  0  0  0  0  0  0  0  0
    0.1750   -8.4255    1.0906 N   0  0  0  0  0  0  0  0  0  0  0  0
    0.1831   -9.8098    1.5436 C   0  0  0  0  0  0  0  0  0  0  0  0
   -0.0494   -7.5078    2.2303 C   0  0  0  0  0  0  0  0  0  0  0  0
    0.0116   -6.0322    1.7889 C   0  0  0  0  0  0  0  0  0  0  0  0
   -3.0324   -4.5833    0.5059 C   0  0  0  0  0  0  0  0  0  0  0  0
   -3.6968   -5.7431    0.3747 F   0  0  0  0  0  0  0  0  0  0  0  0
   -3.7752   -3.4164    0.5774 C   0  0  0  0  0  0  0  0  0  0  0  0
   -3.1168   -2.2034    0.7655 C   0  0  0  0  0  0  0  0  0  0  0  0
   -1.7152   -2.1303    0.8950 C   0  0  0  0  0  0  0  0  0  0  0  0
   -1.1067   -0.8771    1.0809 N   0  0  0  0  0  0  0  0  0  0  0  0
   -1.8984    0.2658    1.1453 C   0  0  0  0  0  0  0  0  0  0  0  0
   -3.2340    0.3191    1.0270 C   0  0  0  0  0  0  0  0  0  0  0  0
   -3.9326    1.6199    1.0830 C   0  0  0  0  0  0  0  0  0  0  0  0
   -5.2758    1.5506    0.9608 O   0  0  0  0  0  0  0  0  0  0  0  0
   -3.3486    2.6883    1.2246 O   0  0  0  0  0  0  0  0  0  0  0  0
   -3.9283   -0.9666    0.8349 C   0  0  0  0  0  0  0  0  0  0  0  0
   -5.1536   -0.9926    0.7353 O   0  0  0  0  0  0  0  0  0  0  0  0
    0.5970    1.0840    0.1429 H   0  0  0  0  0  0  0  0  0  0  0  0
    0.6012   -0.3331   -0.9190 H   0  0  0  0  0  0  0  0  0  0  0  0
    2.0228    0.0497    0.0739 H   0  0  0  0  0  0  0  0  0  0  0  0
    0.6209   -0.3725    2.1407 H   0  0  0  0  0  0  0  0  0  0  0  0
    1.7973   -2.1958    0.2709 H   0  0  0  0  0  0  0  0  0  0  0  0
    1.7236   -2.2759    2.0012 H   0  0  0  0  0  0  0  0  0  0  0  0
    0.0461   -6.5471   -0.9660 H   0  0  0  0  0  0  0  0  0  0  0  0
   -1.7137   -6.5822   -1.1269 H   0  0  0  0  0  0  0  0  0  0  0  0
   -0.7763   -8.8679   -0.7573 H   0  0  0  0  0  0  0  0  0  0  0  0
   -1.8811   -8.3992    0.5432 H   0  0  0  0  0  0  0  0  0  0  0  0
    0.9885   -9.9635    2.2709 H   0  0  0  0  0  0  0  0  0  0  0  0
   -0.7644  -10.1006    2.0088 H   0  0  0  0  0  0  0  0  0  0  0  0
    0.3850  -10.4840    0.7048 H   0  0  0  0  0  0  0  0  0  0  0  0
   -1.0334   -7.7038    2.6802 H   0  0  0  0  0  0  0  0  0  0  0  0
    0.7064   -7.6679    3.0062 H   0  0  0  0  0  0  0  0  0  0  0  0
    1.0224   -5.7909    1.4394 H   0  0  0  0  0  0  0  0  0  0  0  0
   -0.2148   -5.4112    2.6640 H   0  0  0  0  0  0  0  0  0  0  0  0
   -4.8572   -3.4669    0.5085 H   0  0  0  0  0  0  0  0  0  0  0  0
   -1.3308    1.1839    1.2933 H   0  0  0  0  0  0  0  0  0  0  0  0
   -5.6281    0.6330    0.8485 H   0  0  0  0  0  0  0  0  0  0  0  0
  1 27  1  0  0  0  0
  1 28  1  0  0  0  0
  1 29  1  0  0  0  0
  2  1  1  0  0  0  0
  2  3  1  0  0  0  0
  2 19  1  0  0  0  0
  2 30  1  1  0  0  0
  3  4  1  0  0  0  0
  3 31  1  0  0  0  0
  3 32  1  0  0  0  0
  4  5  1  0  0  0  0
  5  6  2  0  0  0  0
  5 18  1  0  0  0  0
  6  7  1  0  0  0  0
  6 14  1  0  0  0  0
  7  8  1  0  0  0  0
  7 13  1  0  0  0  0
  8  9  1  0  0  0  0
  8 33  1  0  0  0  0
  8 34  1  0  0  0  0
  9 10  1  0  0  0  0
  9 35  1  0  0  0  0
  9 36  1  0  0  0  0
 10 11  1  0  0  0  0
 10 12  1  0  0  0  0
 11 37  1  0  0  0  0
 11 38  1  0  0  0  0
 11 39  1  0  0  0  0
 12 13  1  0  0  0  0
 12 40  1  0  0  0  0
 12 41  1  0  0  0  0
 13 42  1  0  0  0  0
 13 43  1  0  0  0  0
 14 15  1  0  0  0  0
 14 16  2  0  0  0  0
 16 17  1  0  0  0  0
 16 44  1  0  0  0  0
 17 18  2  0  0  0  0
 17 25  1  0  0  0  0
 18 19  1  0  0  0  0
 19 20  1  0  0  0  0
 20 21  2  0  0  0  0
 20 45  1  0  0  0  0
 21 22  1  0  0  0  0
 21 25  1  0  0  0  0
 22 23  1  0  0  0  0
 22 24  2  0  0  0  0
 23 46  1  0  0  0  0
 25 26  2  0  0  0  0
M  END
>  <DRUGBANK_ID>
DB03034

>  <SECONDARY_ACCESSION_NUMBERS>
EXPT03256

>  <COMMON_NAME>
D-Levofloxacin

>  <CAS_NUMBER>
100986-86-5

>  <UNII>
36OPE0O92Z

>  <SYNONYMS>
D-Ofloxacin; R-Ofloxacin

$$$$
