
 OpenBabel10282417133D

 21 20  0  0  1  0  0  0  0  0999 V2000
    0.9795   -0.2617    0.3202 N   0  0  0  0  0  0  0  0  0  0  0  0
    0.4359    0.6899    1.3104 C   0  0  1  0  0  0  0  0  0  0  0  0
    0.9760    2.1209    1.1203 C   0  0  0  0  0  0  0  0  0  0  0  0
    0.4463    3.0866   -0.3591 S   0  0  0  0  0  0  0  0  0  0  0  0
    1.0764    2.1327   -1.7884 C   0  0  0  0  0  0  0  0  0  0  0  0
    2.5911    2.0600   -1.7703 C   0  0  0  0  0  0  0  0  0  0  0  0
    3.1594    0.8214   -1.6511 N   0  0  0  0  0  0  0  0  0  0  0  0
    3.3165    3.0489   -1.8214 O   0  0  0  0  0  0  0  0  0  0  0  0
   -1.1041    0.6599    1.2728 C   0  0  0  0  0  0  0  0  0  0  0  0
   -1.6933    0.1393    2.3711 O   0  0  0  0  0  0  0  0  0  0  0  0
   -1.7731    1.0198    0.3081 O   0  0  0  0  0  0  0  0  0  0  0  0
    0.4856   -0.0705   -0.5511 H   0  0  0  0  0  0  0  0  0  0  0  0
    1.9628   -0.0326    0.1636 H   0  0  0  0  0  0  0  0  0  0  0  0
    0.7755    0.3212    2.2859 H   0  0  0  0  0  0  0  0  0  0  0  0
    0.6425    2.7101    1.9851 H   0  0  0  0  0  0  0  0  0  0  0  0
    2.0719    2.1280    1.1651 H   0  0  0  0  0  0  0  0  0  0  0  0
    0.6080    1.1548   -1.9100 H   0  0  0  0  0  0  0  0  0  0  0  0
    0.7824    2.6747   -2.6938 H   0  0  0  0  0  0  0  0  0  0  0  0
    4.1723    0.8028   -1.7151 H   0  0  0  0  0  0  0  0  0  0  0  0
    2.6702   -0.0526   -1.7933 H   0  0  0  0  0  0  0  0  0  0  0  0
   -1.0848   -0.2410    3.0302 H   0  0  0  0  0  0  0  0  0  0  0  0
  1 12  1  0  0  0  0
  1 13  1  0  0  0  0
  2  1  1  0  0  0  0
  2  3  1  0  0  0  0
  2  9  1  0  0  0  0
  2 14  1  1  0  0  0
  3  4  1  0  0  0  0
  3 15  1  0  0  0  0
  3 16  1  0  0  0  0
  4  5  1  0  0  0  0
  5  6  1  0  0  0  0
  5 17  1  0  0  0  0
  5 18  1  0  0  0  0
  6  7  1  0  0  0  0
  6  8  2  0  0  0  0
  7 19  1  0  0  0  0
  7 20  1  0  0  0  0
  9 10  1  0  0  0  0
  9 11  2  0  0  0  0
 10 21  1  0  0  0  0
M  END
>  <DRUGBANK_ID>
DB02987

>  <SECONDARY_ACCESSION_NUMBERS>
EXPT03271

>  <COMMON_NAME>
Cysteine-S-acetamide

>  <CAS_NUMBER>
17528-66-4

>  <UNII>
LAH55Q7GIH

>  <SYNONYMS>
S-(Carbamoylmethyl)cysteine; S-Carbamidomethylcysteine

$$$$
