
 OpenBabel10282417133D

 76 80  0  0  0  0  0  0  0  0999 V2000
    1.1437    0.3446    0.1617 Br  0  0  0  0  0  0  0  0  0  0  0  0
    0.5810   -3.4167   -1.3273 P   0  0  0  0  0  0  0  0  0  0  0  0
    6.4262   -3.7485   -1.2712 P   0  0  1  0  0  0  0  0  0  0  0  0
    7.6708   -5.7842   -1.5612 P   0  0  3  0  0  0  0  0  0  0  0  0
    3.6633   -3.1043    1.2276 O   0  0  0  0  0  0  0  0  0  0  0  0
    8.9795   -8.8600   -3.6774 O   0  0  0  0  0  0  0  0  0  0  0  0
    1.9963   -3.8476   -1.8814 O   0  0  0  0  0  0  0  0  0  0  0  0
    2.4441   -5.7266   -0.1883 O   0  0  0  0  0  0  0  0  0  0  0  0
    6.5390   -3.7559    0.3559 O   0  0  0  0  0  0  0  0  0  0  0  0
    9.3831   -9.4422   -0.4998 O   0  0  0  0  0  0  0  0  0  0  0  0
   11.6064   -8.0655   -1.2119 O   0  0  0  0  0  0  0  0  0  0  0  0
    7.1266   -6.3978   -2.9727 O   0  0  0  0  0  0  0  0  0  0  0  0
    6.0503   -5.3022   -1.1944 O   0  0  0  0  0  0  0  0  0  0  0  0
    0.8469   -3.4278    0.2477 O   0  0  0  0  0  0  0  0  0  0  0  0
    0.7225   -1.9342   -1.8849 O   0  0  0  0  0  0  0  0  0  0  0  0
   -0.4909   -4.3214   -1.7939 O   0  0  0  0  0  0  0  0  0  0  0  0
    5.2493   -2.8881   -0.7434 O   0  0  0  0  0  0  0  0  0  0  0  0
    5.9837   -3.2890   -2.6305 O   0  0  0  0  0  0  0  0  0  0  0  0
    8.3176   -4.4103   -1.8122 O   0  5  0  0  0  0  0  0  0  0  0  0
    9.1211   -6.2156   -1.8895 O   0  0  0  0  0  0  0  0  0  0  0  0
    9.4648   -3.5875   -7.2488 O   0  0  0  0  0  0  0  0  0  0  0  0
    3.7895   -0.9786    0.0350 N   0  0  0  0  0  0  0  0  0  0  0  0
   10.6344   -7.3114   -4.4906 N   0  3  0  0  0  0  0  0  0  0  0  0
    3.7422    1.2812    0.0323 N   0  0  0  0  0  0  0  0  0  0  0  0
    6.2326   -1.1969    0.4460 N   0  0  0  0  0  0  0  0  0  0  0  0
    7.4222    0.8375    0.0586 N   0  0  0  0  0  0  0  0  0  0  0  0
    6.3360    2.9021   -0.0059 N   0  0  0  0  0  0  0  0  0  0  0  0
    7.8881   -4.2546   -5.7732 N   0  0  0  0  0  0  0  0  0  0  0  0
    3.1643   -3.4875   -1.1892 C   0  0  2  0  0  0  0  0  0  0  0  0
    3.5425   -4.8248   -0.4787 C   0  0  1  0  0  0  0  0  0  0  0  0
    3.2197   -2.3626    0.0304 C   0  0  1  0  0  0  0  0  0  0  0  0
    4.1250   -4.4560    0.8949 C   0  0  1  0  0  0  0  0  0  0  0  0
    9.1061   -8.3240   -1.3438 C   0  0  1  0  0  0  0  0  0  0  0  0
   10.4773   -7.8013   -2.0342 C   0  0  2  0  0  0  0  0  0  0  0  0
    8.1382   -8.6888   -2.5115 C   0  0  1  0  0  0  0  0  0  0  0  0
   10.2971   -8.3433   -3.4359 C   0  0  1  0  0  0  0  0  0  0  0  0
    5.6620   -4.6262    1.1342 C   0  0  0  0  0  0  0  0  0  0  0  0
    6.8935   -7.7922   -2.9011 C   0  0  0  0  0  0  0  0  0  0  0  0
    5.0904   -0.5077    0.2401 C   0  0  0  0  0  0  0  0  0  0  0  0
    3.0160    0.1820    0.0503 C   0  0  0  0  0  0  0  0  0  0  0  0
    5.0382    0.8558    0.0903 C   0  0  0  0  0  0  0  0  0  0  0  0
    9.7583   -6.3327   -4.8679 C   0  0  0  0  0  0  0  0  0  0  0  0
   11.8712   -7.3466   -5.0232 C   0  0  0  0  0  0  0  0  0  0  0  0
   10.0781   -5.4042   -5.8577 C   0  0  0  0  0  0  0  0  0  0  0  0
    6.2663    1.5344    0.0596 C   0  0  0  0  0  0  0  0  0  0  0  0
   12.2454   -6.4562   -6.0181 C   0  0  0  0  0  0  0  0  0  0  0  0
   11.3409   -5.4910   -6.4489 C   0  0  0  0  0  0  0  0  0  0  0  0
    7.3467   -0.4839    0.2233 C   0  0  0  0  0  0  0  0  0  0  0  0
    9.1267   -4.3585   -6.3195 C   0  0  0  0  0  0  0  0  0  0  0  0
    5.4706    3.4152    0.0752 H   0  0  0  0  0  0  0  0  0  0  0  0
    7.2452    3.3258    0.0678 H   0  0  0  0  0  0  0  0  0  0  0  0
    7.5780   -4.6817   -4.9012 H   0  0  0  0  0  0  0  0  0  0  0  0
    7.3131   -3.4685   -6.0633 H   0  0  0  0  0  0  0  0  0  0  0  0
    1.5860   -5.3689   -0.4462 H   0  0  0  0  0  0  0  0  0  0  0  0
   10.1337   -9.9074   -0.8898 H   0  0  0  0  0  0  0  0  0  0  0  0
   11.2892   -7.7654   -0.3279 H   0  0  0  0  0  0  0  0  0  0  0  0
    1.5632   -3.9506    0.6751 H   0  0  0  0  0  0  0  0  0  0  0  0
    1.1663   -1.9363   -2.7621 H   0  0  0  0  0  0  0  0  0  0  0  0
    5.6605   -2.5134    0.0736 H   0  0  0  0  0  0  0  0  0  0  0  0
    3.7961   -3.1915   -2.0335 H   0  0  0  0  0  0  0  0  0  0  0  0
    4.1168   -5.4743   -1.1261 H   0  0  0  0  0  0  0  0  0  0  0  0
    2.2191   -2.0657    0.2277 H   0  0  0  0  0  0  0  0  0  0  0  0
    3.6625   -5.1174    1.6413 H   0  0  0  0  0  0  0  0  0  0  0  0
    8.5869   -7.7004   -0.6011 H   0  0  0  0  0  0  0  0  0  0  0  0
   10.7584   -6.7655   -2.3191 H   0  0  0  0  0  0  0  0  0  0  0  0
    7.6937   -9.6675   -2.3010 H   0  0  0  0  0  0  0  0  0  0  0  0
   11.0087   -9.1642   -3.5305 H   0  0  0  0  0  0  0  0  0  0  0  0
    5.8882   -4.4146    2.1825 H   0  0  0  0  0  0  0  0  0  0  0  0
    5.9691   -5.6727    0.9837 H   0  0  0  0  0  0  0  0  0  0  0  0
    6.0576   -7.9295   -2.2058 H   0  0  0  0  0  0  0  0  0  0  0  0
    6.5241   -8.0770   -3.8958 H   0  0  0  0  0  0  0  0  0  0  0  0
    8.8170   -6.2940   -4.3556 H   0  0  0  0  0  0  0  0  0  0  0  0
   12.5573   -8.0858   -4.6255 H   0  0  0  0  0  0  0  0  0  0  0  0
   13.2428   -6.5101   -6.4446 H   0  0  0  0  0  0  0  0  0  0  0  0
   11.6309   -4.7933   -7.2356 H   0  0  0  0  0  0  0  0  0  0  0  0
    8.2728   -1.0524    0.1374 H   0  0  0  0  0  0  0  0  0  0  0  0
  1 40  1  0  0  0  0
  2  7  1  0  0  0  0
  2 14  1  0  0  0  0
  2 15  1  0  0  0  0
  2 16  2  0  0  0  0
  3  9  1  0  0  0  0
  3 13  1  0  0  0  0
  3 17  1  0  0  0  0
  3 18  2  6  0  0  0
  4 12  1  0  0  0  0
  4 13  1  0  0  0  0
  4 19  1  0  0  0  0
  4 20  2  0  0  0  0
  5 31  1  0  0  0  0
  5 32  1  0  0  0  0
  6 35  1  0  0  0  0
  6 36  1  0  0  0  0
  8 54  1  0  0  0  0
  9 37  1  0  0  0  0
 10 55  1  0  0  0  0
 11 56  1  0  0  0  0
 12 38  1  0  0  0  0
 14 57  1  0  0  0  0
 15 58  1  0  0  0  0
 17 59  1  0  0  0  0
 21 49  2  0  0  0  0
 22 39  1  0  0  0  0
 22 40  1  0  0  0  0
 23 42  1  0  0  0  0
 23 43  2  0  0  0  0
 24 40  2  0  0  0  0
 24 41  1  0  0  0  0
 25 39  2  0  0  0  0
 25 48  1  0  0  0  0
 26 45  1  0  0  0  0
 26 48  2  0  0  0  0
 27 45  1  0  0  0  0
 27 50  1  0  0  0  0
 27 51  1  0  0  0  0
 28 49  1  0  0  0  0
 28 52  1  0  0  0  0
 28 53  1  0  0  0  0
 29 30  1  0  0  0  0
 29 31  1  0  0  0  0
 29 60  1  6  0  0  0
 29  7  1  0  0  0  0
 30  8  1  0  0  0  0
 30 32  1  0  0  0  0
 30 61  1  6  0  0  0
 31 22  1  0  0  0  0
 31 62  1  1  0  0  0
 32 63  1  1  0  0  0
 32 37  1  0  0  0  0
 33 10  1  0  0  0  0
 33 34  1  0  0  0  0
 33 35  1  0  0  0  0
 33 64  1  1  0  0  0
 34 36  1  0  0  0  0
 34 65  1  6  0  0  0
 34 11  1  0  0  0  0
 35 38  1  0  0  0  0
 35 66  1  1  0  0  0
 36 67  1  6  0  0  0
 36 23  1  0  0  0  0
 37 68  1  0  0  0  0
 37 69  1  0  0  0  0
 38 70  1  0  0  0  0
 38 71  1  0  0  0  0
 39 41  1  0  0  0  0
 41 45  2  0  0  0  0
 42 44  2  0  0  0  0
 42 72  1  0  0  0  0
 43 46  1  0  0  0  0
 43 73  1  0  0  0  0
 44 47  1  0  0  0  0
 44 49  1  0  0  0  0
 46 47  2  0  0  0  0
 46 74  1  0  0  0  0
 47 75  1  0  0  0  0
 48 76  1  0  0  0  0
M  CHG  2  19  -1  23   1
M  END
>  <DRUGBANK_ID>
DB03962

>  <SECONDARY_ACCESSION_NUMBERS>
EXPT02303

>  <COMMON_NAME>
Nicotinamide 8-bromo-adenine dinucleotide phosphate

$$$$
