
 OpenBabel10282417143D

 60 63  0  0  0  0  0  0  0  0999 V2000
    1.5207    0.3251   -0.3619 O   0  0  0  0  0  0  0  0  0  0  0  0
   -3.9426    6.1931    6.3687 O   0  0  0  0  0  0  0  0  0  0  0  0
   -1.1588    5.6242    3.0794 C   0  0  1  0  0  0  0  0  0  0  0  0
   -0.6294    1.7714    0.4600 C   0  0  2  0  0  0  0  0  0  0  0  0
   -1.3762    2.9055    1.2615 C   0  0  2  0  0  0  0  0  0  0  0  0
   -1.4361    4.1333    3.4869 C   0  0  2  0  0  0  0  0  0  0  0  0
   -0.8824    2.9324    2.7012 C   0  0  2  0  0  0  0  0  0  0  0  0
   -0.7057    0.1502    0.9414 C   0  0  1  0  0  0  0  0  0  0  0  0
   -2.1592    6.3005    4.4514 C   0  0  2  0  0  0  0  0  0  0  0  0
   -1.6416    5.5861    1.4548 C   0  0  0  0  0  0  0  0  0  0  0  0
   -1.1186    4.3280    0.6579 C   0  0  0  0  0  0  0  0  0  0  0  0
   -1.1319    1.5349    3.3185 C   0  0  0  0  0  0  0  0  0  0  0  0
   -3.0111    4.2294    3.4904 C   0  0  0  0  0  0  0  0  0  0  0  0
   -1.1835    1.8141   -1.0122 C   0  0  0  0  0  0  0  0  0  0  0  0
   -0.5202    0.2406    2.5267 C   0  0  0  0  0  0  0  0  0  0  0  0
   -3.4099    5.6959    3.7982 C   0  0  0  0  0  0  0  0  0  0  0  0
    0.1260   -0.9582   -0.3229 C   0  0  0  0  0  0  0  0  0  0  0  0
    0.5231    0.0431   -1.3945 C   0  0  1  0  0  0  0  0  0  0  0  0
    0.2004    6.3401    2.7831 C   0  0  0  0  0  0  0  0  0  0  0  0
    0.8687    2.2039    0.6770 C   0  0  0  0  0  0  0  0  0  0  0  0
   -2.7875    6.4287    6.0997 C   0  0  0  0  0  0  0  0  0  0  0  0
   -0.9447    0.4682   -1.6312 C   0  0  0  0  0  0  0  0  0  0  0  0
    1.3656    0.8936   -2.3754 C   0  0  0  0  0  0  0  0  0  0  0  0
   -1.9006    6.7439    7.3424 C   0  0  0  0  0  0  0  0  0  0  0  0
    0.1960    3.0936    2.7931 H   0  0  0  0  0  0  0  0  0  0  0  0
   -1.0011    3.9871    4.4868 H   0  0  0  0  0  0  0  0  0  0  0  0
   -2.4512    2.6950    1.2226 H   0  0  0  0  0  0  0  0  0  0  0  0
   -1.7422   -0.2194    0.8323 H   0  0  0  0  0  0  0  0  0  0  0  0
    2.4225    0.0428   -0.5822 H   0  0  0  0  0  0  0  0  0  0  0  0
   -1.6243    5.5554    5.0751 H   0  0  0  0  0  0  0  0  0  0  0  0
   -2.6983    5.7755    1.2718 H   0  0  0  0  0  0  0  0  0  0  0  0
   -1.1834    6.4149    0.8855 H   0  0  0  0  0  0  0  0  0  0  0  0
   -1.4486    4.3755   -0.3871 H   0  0  0  0  0  0  0  0  0  0  0  0
   -0.0378    4.4667    0.5563 H   0  0  0  0  0  0  0  0  0  0  0  0
   -2.2101    1.4408    3.5088 H   0  0  0  0  0  0  0  0  0  0  0  0
   -0.6745    1.5547    4.3208 H   0  0  0  0  0  0  0  0  0  0  0  0
   -3.4819    3.5195    4.1698 H   0  0  0  0  0  0  0  0  0  0  0  0
   -3.4047    4.0191    2.4940 H   0  0  0  0  0  0  0  0  0  0  0  0
   -2.2727    1.9849   -1.0041 H   0  0  0  0  0  0  0  0  0  0  0  0
   -0.7375    2.6227   -1.5874 H   0  0  0  0  0  0  0  0  0  0  0  0
   -0.9349   -0.6402    3.0357 H   0  0  0  0  0  0  0  0  0  0  0  0
    0.5466    0.2519    2.7530 H   0  0  0  0  0  0  0  0  0  0  0  0
   -4.3761    5.8012    4.2925 H   0  0  0  0  0  0  0  0  0  0  0  0
   -3.5766    6.2820    2.8884 H   0  0  0  0  0  0  0  0  0  0  0  0
   -0.6008   -1.7077   -0.7092 H   0  0  0  0  0  0  0  0  0  0  0  0
    1.0249   -1.6115   -0.2454 H   0  0  0  0  0  0  0  0  0  0  0  0
    0.6319    5.9934    1.8240 H   0  0  0  0  0  0  0  0  0  0  0  0
    0.0168    7.4094    2.5549 H   0  0  0  0  0  0  0  0  0  0  0  0
    1.0290    6.2520    3.4770 H   0  0  0  0  0  0  0  0  0  0  0  0
    1.0999    3.1157    1.2104 H   0  0  0  0  0  0  0  0  0  0  0  0
    1.3924    1.4828    1.3237 H   0  0  0  0  0  0  0  0  0  0  0  0
    1.3607    2.3956   -0.2672 H   0  0  0  0  0  0  0  0  0  0  0  0
   -1.7638   -0.1063   -1.1521 H   0  0  0  0  0  0  0  0  0  0  0  0
   -1.2024    0.0780   -2.6291 H   0  0  0  0  0  0  0  0  0  0  0  0
    0.7767    1.7263   -2.7986 H   0  0  0  0  0  0  0  0  0  0  0  0
    2.1959    1.4799   -1.9269 H   0  0  0  0  0  0  0  0  0  0  0  0
    1.7819    0.3376   -3.2050 H   0  0  0  0  0  0  0  0  0  0  0  0
   -1.2289    5.9246    7.6095 H   0  0  0  0  0  0  0  0  0  0  0  0
   -1.3926    7.7019    7.2747 H   0  0  0  0  0  0  0  0  0  0  0  0
   -2.5623    6.8397    8.2351 H   0  0  0  0  0  0  0  0  0  0  0  0
  1 29  1  0  0  0  0
  2 21  2  0  0  0  0
  3  6  1  0  0  0  0
  3  9  1  0  0  0  0
  3 10  1  0  0  0  0
  3 19  1  6  0  0  0
  4  5  1  0  0  0  0
  4  8  1  0  0  0  0
  4 14  1  0  0  0  0
  4 20  1  1  0  0  0
  5  7  1  0  0  0  0
  5 11  1  0  0  0  0
  5 27  1  1  0  0  0
  6  7  1  0  0  0  0
  6 13  1  0  0  0  0
  6 26  1  1  0  0  0
  7 12  1  0  0  0  0
  7 25  1  1  0  0  0
  8 15  1  0  0  0  0
  8 17  1  0  0  0  0
  8 28  1  1  0  0  0
  9 16  1  0  0  0  0
  9 21  1  0  0  0  0
  9 30  1  1  0  0  0
 10 11  1  0  0  0  0
 10 31  1  0  0  0  0
 10 32  1  0  0  0  0
 11 33  1  0  0  0  0
 11 34  1  0  0  0  0
 12 15  1  0  0  0  0
 12 35  1  0  0  0  0
 12 36  1  0  0  0  0
 13 16  1  0  0  0  0
 13 37  1  0  0  0  0
 13 38  1  0  0  0  0
 14 22  1  0  0  0  0
 14 39  1  0  0  0  0
 14 40  1  0  0  0  0
 15 41  1  0  0  0  0
 15 42  1  0  0  0  0
 16 43  1  0  0  0  0
 16 44  1  0  0  0  0
 17 18  1  0  0  0  0
 17 45  1  0  0  0  0
 17 46  1  0  0  0  0
 18 22  1  0  0  0  0
 18  1  1  1  0  0  0
 18 23  1  0  0  0  0
 19 47  1  0  0  0  0
 19 48  1  0  0  0  0
 19 49  1  0  0  0  0
 20 50  1  0  0  0  0
 20 51  1  0  0  0  0
 20 52  1  0  0  0  0
 21 24  1  0  0  0  0
 22 53  1  0  0  0  0
 22 54  1  0  0  0  0
 23 55  1  0  0  0  0
 23 56  1  0  0  0  0
 23 57  1  0  0  0  0
 24 58  1  0  0  0  0
 24 59  1  0  0  0  0
 24 60  1  0  0  0  0
M  END
>  <DRUGBANK_ID>
DB05087

>  <COMMON_NAME>
Ganaxolone

>  <CAS_NUMBER>
38398-32-2

>  <UNII>
98WI44OHIQ

>  <SYNONYMS>
Ganaxolone

$$$$
