
 OpenBabel10282417233D

 47 50  0  0  0  0  0  0  0  0999 V2000
    1.0524   -0.0712   -0.1068 C   0  0  0  0  0  0  0  0  0  0  0  0
    0.5463   -0.7724   -1.2447 O   0  0  0  0  0  0  0  0  0  0  0  0
    0.9105   -0.2093   -2.4400 C   0  0  0  0  0  0  0  0  0  0  0  0
   -0.0577   -0.0351   -3.4231 C   0  0  0  0  0  0  0  0  0  0  0  0
   -1.3248   -0.4075   -3.1818 F   0  0  0  0  0  0  0  0  0  0  0  0
    0.2631    0.5457   -4.6571 C   0  0  0  0  0  0  0  0  0  0  0  0
   -0.8162    0.7500   -5.6783 C   0  0  0  0  0  0  0  0  0  0  0  0
    1.5934    0.9343   -4.9078 C   0  0  0  0  0  0  0  0  0  0  0  0
    2.5931    0.7438   -3.9426 C   0  0  0  0  0  0  0  0  0  0  0  0
    3.9373    1.0736   -4.2174 N   0  0  0  0  0  0  0  0  0  0  0  0
    4.9932    0.9471   -3.3092 C   0  0  0  0  0  0  0  0  0  0  0  0
    5.2781   -0.2851   -2.8792 N   0  0  0  0  0  0  0  0  0  0  0  0
    6.2333   -0.4096   -1.9542 C   0  0  0  0  0  0  0  0  0  0  0  0
    6.9180    0.6502   -1.4024 C   0  0  0  0  0  0  0  0  0  0  0  0
    7.9612    0.3807   -0.3687 C   0  0  0  0  0  0  0  0  0  0  0  0
    6.5656    1.9016   -1.8932 C   0  0  0  0  0  0  0  0  0  0  0  0
    7.2169    3.0635   -1.4345 N   0  0  0  0  0  0  0  0  0  0  0  0
    6.8550    4.3916   -1.7310 C   0  0  0  0  0  0  0  0  0  0  0  0
    7.8301    5.2850   -2.2382 C   0  0  0  0  0  0  0  0  0  0  0  0
    7.4936    6.5932   -2.6178 C   0  0  0  0  0  0  0  0  0  0  0  0
    6.1855    6.9861   -2.4444 C   0  0  0  0  0  0  0  0  0  0  0  0
    5.6599    8.2324   -2.7417 O   0  0  0  0  0  0  0  0  0  0  0  0
    4.3192    8.0928   -2.3502 C   0  0  0  0  0  0  0  0  0  0  0  0
    3.4914    8.9822   -2.4246 O   0  0  0  0  0  0  0  0  0  0  0  0
    4.0750    6.8257   -1.8691 N   0  0  0  0  0  0  0  0  0  0  0  0
    5.2446    6.1259   -1.9243 C   0  0  0  0  0  0  0  0  0  0  0  0
    5.5333    4.8321   -1.5611 C   0  0  0  0  0  0  0  0  0  0  0  0
    5.6253    2.0401   -2.8639 N   0  0  0  0  0  0  0  0  0  0  0  0
    2.2283    0.1360   -2.7281 C   0  0  0  0  0  0  0  0  0  0  0  0
    0.6751   -0.5712    0.7903 H   0  0  0  0  0  0  0  0  0  0  0  0
    0.6925    0.9637   -0.0950 H   0  0  0  0  0  0  0  0  0  0  0  0
    2.1454   -0.0949   -0.0475 H   0  0  0  0  0  0  0  0  0  0  0  0
   -1.2498   -0.2113   -5.9729 H   0  0  0  0  0  0  0  0  0  0  0  0
   -1.6065    1.3884   -5.2689 H   0  0  0  0  0  0  0  0  0  0  0  0
   -0.4299    1.2359   -6.5799 H   0  0  0  0  0  0  0  0  0  0  0  0
    1.8446    1.3862   -5.8650 H   0  0  0  0  0  0  0  0  0  0  0  0
    4.1053    1.7909   -4.9055 H   0  0  0  0  0  0  0  0  0  0  0  0
    6.4297   -1.4370   -1.6626 H   0  0  0  0  0  0  0  0  0  0  0  0
    8.9402    0.7262   -0.7121 H   0  0  0  0  0  0  0  0  0  0  0  0
    7.7057    0.8612    0.5801 H   0  0  0  0  0  0  0  0  0  0  0  0
    8.0504   -0.6954   -0.1713 H   0  0  0  0  0  0  0  0  0  0  0  0
    7.9233    2.9596   -0.7202 H   0  0  0  0  0  0  0  0  0  0  0  0
    8.8508    4.9401   -2.3912 H   0  0  0  0  0  0  0  0  0  0  0  0
    8.2294    7.2662   -3.0430 H   0  0  0  0  0  0  0  0  0  0  0  0
    3.1783    6.5136   -1.5356 H   0  0  0  0  0  0  0  0  0  0  0  0
    4.7715    4.1708   -1.1663 H   0  0  0  0  0  0  0  0  0  0  0  0
    2.9920   -0.0826   -1.9914 H   0  0  0  0  0  0  0  0  0  0  0  0
  1  2  1  0  0  0  0
  1 30  1  0  0  0  0
  1 31  1  0  0  0  0
  1 32  1  0  0  0  0
  2  3  1  0  0  0  0
  3  4  2  0  0  0  0
  3 29  1  0  0  0  0
  4  5  1  0  0  0  0
  4  6  1  0  0  0  0
  6  7  1  0  0  0  0
  6  8  2  0  0  0  0
  7 33  1  0  0  0  0
  7 34  1  0  0  0  0
  7 35  1  0  0  0  0
  8  9  1  0  0  0  0
  8 36  1  0  0  0  0
  9 10  1  0  0  0  0
  9 29  2  0  0  0  0
 10 11  1  0  0  0  0
 10 37  1  0  0  0  0
 11 12  2  0  0  0  0
 11 28  1  0  0  0  0
 12 13  1  0  0  0  0
 13 14  2  0  0  0  0
 13 38  1  0  0  0  0
 14 15  1  0  0  0  0
 14 16  1  0  0  0  0
 15 39  1  0  0  0  0
 15 40  1  0  0  0  0
 15 41  1  0  0  0  0
 16 17  1  0  0  0  0
 16 28  2  0  0  0  0
 17 18  1  0  0  0  0
 17 42  1  0  0  0  0
 18 19  2  0  0  0  0
 18 27  1  0  0  0  0
 19 20  1  0  0  0  0
 19 43  1  0  0  0  0
 20 21  2  0  0  0  0
 20 44  1  0  0  0  0
 21 22  1  0  0  0  0
 21 26  1  0  0  0  0
 22 23  1  0  0  0  0
 23 24  2  0  0  0  0
 23 25  1  0  0  0  0
 25 26  1  0  0  0  0
 25 45  1  0  0  0  0
 26 27  2  0  0  0  0
 27 46  1  0  0  0  0
 29 47  1  0  0  0  0
M  END
>  <DRUGBANK_ID>
DB16191

>  <COMMON_NAME>
Ifidancitinib

>  <CAS_NUMBER>
1236667-40-5

>  <UNII>
R105E71J13

>  <SYNONYMS>
Ifidancitinib

$$$$
