
 OpenBabel10282417203D

 74 77  0  0  1  0  0  0  0  0999 V2000
    0.8870    0.0807    2.0764 C   0  0  0  0  0  0  0  0  0  0  0  0
    0.2090   -0.9113    1.1756 C   0  0  2  0  0  0  0  0  0  0  0  0
    0.6437   -0.0492   -0.1249 C   0  0  0  0  0  0  0  0  0  0  0  0
    0.7500    1.5855   -0.0800 C   0  0  0  0  0  0  0  0  0  0  0  0
    1.7720    2.4097    0.8524 C   0  0  0  0  0  0  0  0  0  0  0  0
    3.2617    1.9821    0.7749 C   0  0  0  0  0  0  0  0  0  0  0  0
    3.8267    2.3540   -0.5752 C   0  0  0  0  0  0  0  0  0  0  0  0
    4.0886    2.6393    1.8799 C   0  0  0  0  0  0  0  0  0  0  0  0
   -1.4264   -1.3605    1.7420 C   0  0  1  0  0  0  0  0  0  0  0  0
   -2.1710   -2.9240    2.6405 C   0  0  0  0  0  0  0  0  0  0  0  0
   -1.4737   -3.0912    4.0452 C   0  0  0  0  0  0  0  0  0  0  0  0
   -0.5862   -2.1620    3.4914 C   0  0  2  0  0  0  0  0  0  0  0  0
   -1.5510   -0.8632    3.1357 C   0  0  2  0  0  0  0  0  0  0  0  0
   -1.2657    0.2694    4.0673 C   0  0  0  0  0  0  0  0  0  0  0  0
    0.1101    0.4315    4.6897 C   0  0  0  0  0  0  0  0  0  0  0  0
    0.9419   -0.8796    4.9775 C   0  0  1  0  0  0  0  0  0  0  0  0
    0.8033   -2.0090    4.0027 C   0  0  1  0  0  0  0  0  0  0  0  0
    1.5040   -3.2988    4.3484 C   0  0  0  0  0  0  0  0  0  0  0  0
    3.0058   -3.0441    4.1140 C   0  0  2  0  0  0  0  0  0  0  0  0
    3.3559   -1.6208    4.6535 C   0  0  0  0  0  0  0  0  0  0  0  0
    2.4568   -0.6700    5.0144 C   0  0  0  0  0  0  0  0  0  0  0  0
    2.8406    0.7593    5.3206 C   0  0  0  0  0  0  0  0  0  0  0  0
    4.2727    0.8570    5.7656 C   0  0  0  0  0  0  0  0  0  0  0  0
    5.1964    0.1137    4.8112 C   0  0  1  0  0  0  0  0  0  0  0  0
    4.8472   -1.3646    4.7306 C   0  0  0  0  0  0  0  0  0  0  0  0
    5.1262    0.6245    3.4883 O   0  0  0  0  0  0  0  0  0  0  0  0
    3.4431   -3.1921    2.6038 C   0  0  0  0  0  0  0  0  0  0  0  0
    2.8493   -5.0309    1.6220 I   0  0  0  0  0  0  0  0  0  0  0  0
   -3.2090   -0.6955    2.9735 C   0  0  0  0  0  0  0  0  0  0  0  0
    1.8230    0.3946    1.6692 H   0  0  0  0  0  0  0  0  0  0  0  0
    1.4259   -0.1879    2.9390 H   0  0  0  0  0  0  0  0  0  0  0  0
    0.2194    0.9246    2.2410 H   0  0  0  0  0  0  0  0  0  0  0  0
    0.7750   -1.8456    1.0666 H   0  0  0  0  0  0  0  0  0  0  0  0
    1.7029   -0.3414   -0.2970 H   0  0  0  0  0  0  0  0  0  0  0  0
    0.1192   -0.3855   -1.0152 H   0  0  0  0  0  0  0  0  0  0  0  0
    1.0091    1.8948   -1.0968 H   0  0  0  0  0  0  0  0  0  0  0  0
   -0.2528    1.9678    0.1321 H   0  0  0  0  0  0  0  0  0  0  0  0
    1.7045    3.4770    0.5997 H   0  0  0  0  0  0  0  0  0  0  0  0
    1.4541    2.4254    1.9070 H   0  0  0  0  0  0  0  0  0  0  0  0
    3.3980    0.8992    0.8827 H   0  0  0  0  0  0  0  0  0  0  0  0
    3.7743    3.4374   -0.7041 H   0  0  0  0  0  0  0  0  0  0  0  0
    4.8678    2.0318   -0.6575 H   0  0  0  0  0  0  0  0  0  0  0  0
    3.2574    1.8690   -1.3706 H   0  0  0  0  0  0  0  0  0  0  0  0
    3.6943    2.3815    2.8648 H   0  0  0  0  0  0  0  0  0  0  0  0
    5.1306    2.3001    1.8172 H   0  0  0  0  0  0  0  0  0  0  0  0
    4.0886    3.7271    1.8240 H   0  0  0  0  0  0  0  0  0  0  0  0
   -2.1055   -0.9037    1.0248 H   0  0  0  0  0  0  0  0  0  0  0  0
   -3.0063   -2.7843    3.3898 H   0  0  0  0  0  0  0  0  0  0  0  0
   -3.0689   -3.2544    2.1030 H   0  0  0  0  0  0  0  0  0  0  0  0
   -1.0572   -4.0642    4.3473 H   0  0  0  0  0  0  0  0  0  0  0  0
   -1.8162   -2.5584    4.9644 H   0  0  0  0  0  0  0  0  0  0  0  0
   -0.2215   -2.7582    2.5962 H   0  0  0  0  0  0  0  0  0  0  0  0
   -1.6119    1.2117    3.6214 H   0  0  0  0  0  0  0  0  0  0  0  0
   -1.9205    0.1017    4.9359 H   0  0  0  0  0  0  0  0  0  0  0  0
    0.6513    1.1786    4.1007 H   0  0  0  0  0  0  0  0  0  0  0  0
   -0.0151    0.9950    5.6174 H   0  0  0  0  0  0  0  0  0  0  0  0
    0.5878   -1.2399    5.9441 H   0  0  0  0  0  0  0  0  0  0  0  0
    1.3494   -1.8451    3.0805 H   0  0  0  0  0  0  0  0  0  0  0  0
    1.2774   -3.5743    5.3779 H   0  0  0  0  0  0  0  0  0  0  0  0
    1.1492   -4.1198    3.7187 H   0  0  0  0  0  0  0  0  0  0  0  0
    3.5496   -3.7933    4.6942 H   0  0  0  0  0  0  0  0  0  0  0  0
    2.6928    1.3707    4.4205 H   0  0  0  0  0  0  0  0  0  0  0  0
    2.1872    1.1855    6.0865 H   0  0  0  0  0  0  0  0  0  0  0  0
    4.5365    1.9157    5.8422 H   0  0  0  0  0  0  0  0  0  0  0  0
    4.3368    0.4090    6.7625 H   0  0  0  0  0  0  0  0  0  0  0  0
    6.2305    0.2414    5.1339 H   0  0  0  0  0  0  0  0  0  0  0  0
    5.2128   -1.8851    5.6169 H   0  0  0  0  0  0  0  0  0  0  0  0
    5.3501   -1.7773    3.8520 H   0  0  0  0  0  0  0  0  0  0  0  0
    4.2546    0.3762    3.1253 H   0  0  0  0  0  0  0  0  0  0  0  0
    3.1076   -2.3512    1.9819 H   0  0  0  0  0  0  0  0  0  0  0  0
    4.5362   -3.1896    2.5345 H   0  0  0  0  0  0  0  0  0  0  0  0
   -3.4467    0.3091    2.6016 H   0  0  0  0  0  0  0  0  0  0  0  0
   -3.6832   -1.2919    2.1628 H   0  0  0  0  0  0  0  0  0  0  0  0
   -3.7675   -0.9260    3.8810 H   0  0  0  0  0  0  0  0  0  0  0  0
  1 30  1  0  0  0  0
  1 31  1  0  0  0  0
  1 32  1  0  0  0  0
  2 33  1  1  0  0  0
  2  3  1  0  0  0  0
  2  1  1  0  0  0  0
  3  4  1  0  0  0  0
  3 34  1  0  0  0  0
  3 35  1  0  0  0  0
  4  5  1  0  0  0  0
  4 36  1  0  0  0  0
  4 37  1  0  0  0  0
  5  6  1  0  0  0  0
  5 38  1  0  0  0  0
  5 39  1  0  0  0  0
  6  7  1  0  0  0  0
  6  8  1  0  0  0  0
  6 40  1  0  0  0  0
  7 41  1  0  0  0  0
  7 42  1  0  0  0  0
  7 43  1  0  0  0  0
  8 44  1  0  0  0  0
  8 45  1  0  0  0  0
  8 46  1  0  0  0  0
  9  2  1  0  0  0  0
  9 10  1  0  0  0  0
  9 13  1  0  0  0  0
  9 47  1  6  0  0  0
 10 11  1  0  0  0  0
 10 48  1  0  0  0  0
 10 49  1  0  0  0  0
 11 50  1  0  0  0  0
 11 51  1  0  0  0  0
 12 11  1  0  0  0  0
 12 13  1  0  0  0  0
 12 17  1  0  0  0  0
 12 52  1  1  0  0  0
 13 14  1  0  0  0  0
 13 29  1  6  0  0  0
 14 15  1  0  0  0  0
 14 53  1  0  0  0  0
 14 54  1  0  0  0  0
 15 55  1  0  0  0  0
 15 56  1  0  0  0  0
 16 15  1  0  0  0  0
 16 17  1  0  0  0  0
 16 21  1  0  0  0  0
 16 57  1  1  0  0  0
 17 18  1  0  0  0  0
 17 58  1  6  0  0  0
 18 19  1  0  0  0  0
 18 59  1  0  0  0  0
 18 60  1  0  0  0  0
 19 20  1  0  0  0  0
 19 61  1  1  0  0  0
 19 27  1  0  0  0  0
 20 21  2  0  0  0  0
 20 25  1  0  0  0  0
 21 22  1  0  0  0  0
 22 23  1  0  0  0  0
 22 62  1  0  0  0  0
 22 63  1  0  0  0  0
 23 24  1  0  0  0  0
 23 64  1  0  0  0  0
 23 65  1  0  0  0  0
 24 25  1  0  0  0  0
 24 26  1  0  0  0  0
 24 66  1  1  0  0  0
 25 67  1  0  0  0  0
 25 68  1  0  0  0  0
 26 69  1  0  0  0  0
 27 28  1  0  0  0  0
 27 70  1  0  0  0  0
 27 71  1  0  0  0  0
 29 72  1  0  0  0  0
 29 73  1  0  0  0  0
 29 74  1  0  0  0  0
M  ISO  1  28 131
M  END
>  <DRUGBANK_ID>
DB13487

>  <COMMON_NAME>
Iodine (131I) norcholesterol

>  <CAS_NUMBER>
56897-09-7

>  <UNII>
HFE9M7UF0L

>  <SYNONYMS>
Norcholestenol iodomethyl i-131

$$$$
