CM9
 OpenBabel10282417163D

 51 52  0  0  0  0  0  0  0  0999 V2000
    2.5663   -2.4006    2.8473 O   0  0  0  0  0  0  0  0  0  0  0  0
    2.6757   -1.3442    2.2121 C   0  0  0  0  0  0  0  0  0  0  0  0
    2.9881   -1.2688    0.7147 C   0  0  2  0  0  0  0  0  0  0  0  0
    2.5992   -2.5807    0.0241 C   0  0  0  0  0  0  0  0  0  0  0  0
    3.4220   -3.7580    0.5459 C   0  0  0  0  0  0  0  0  0  0  0  0
    4.9290   -3.4845    0.4779 C   0  0  2  0  0  0  0  0  0  0  0  0
    5.6781   -4.6157    1.1741 C   0  0  0  0  0  0  0  0  0  0  0  0
    5.3085   -2.1350    1.1114 C   0  0  0  0  0  0  0  0  0  0  0  0
    4.4813   -0.9906    0.5293 C   0  0  0  0  0  0  0  0  0  0  0  0
    2.6467   -0.1653    2.8920 N   0  0  0  0  0  0  0  0  0  0  0  0
    2.0908   -0.1380    4.2262 C   0  0  1  0  0  0  0  0  0  0  0  0
    2.5313    1.0396    5.1349 C   0  0  0  0  0  0  0  0  0  0  0  0
    1.8862    2.4640    4.9386 C   0  0  0  0  0  0  0  0  0  0  0  0
   -0.3164    2.7809    5.3617 S   0  0  0  0  0  0  0  0  0  0  0  0
   -1.7048    2.0662    3.7055 C   0  0  0  0  0  0  0  0  0  0  0  0
    0.6716    0.0661    3.9393 C   0  0  0  0  0  0  0  0  0  0  0  0
   -0.1847   -0.4937    4.6940 O   0  0  0  0  0  0  0  0  0  0  0  0
    0.3761    1.2911    3.3692 N   0  0  0  0  0  0  0  0  0  0  0  0
    0.7618    2.4898    2.5231 C   0  0  0  0  0  0  0  0  0  0  0  0
    1.5194    2.2679    1.4468 C   0  0  0  0  0  0  0  0  0  0  0  0
    2.4285    3.2598    1.1455 C   0  0  0  0  0  0  0  0  0  0  0  0
    2.4636    4.5208    1.6586 N   0  0  0  0  0  0  0  0  0  0  0  0
    1.4485    4.8693    2.4470 C   0  0  0  0  0  0  0  0  0  0  0  0
    0.5285    3.9133    2.8431 C   0  0  0  0  0  0  0  0  0  0  0  0
    2.4170   -0.4560    0.2481 H   0  0  0  0  0  0  0  0  0  0  0  0
    5.2206   -3.4642   -0.5794 H   0  0  0  0  0  0  0  0  0  0  0  0
    2.2289   -1.1092    4.7259 H   0  0  0  0  0  0  0  0  0  0  0  0
    1.5308   -2.7769    0.1756 H   0  0  0  0  0  0  0  0  0  0  0  0
    2.7552   -2.4890   -1.0590 H   0  0  0  0  0  0  0  0  0  0  0  0
    3.1558   -3.9886    1.5797 H   0  0  0  0  0  0  0  0  0  0  0  0
    3.1551   -4.6672    0.0005 H   0  0  0  0  0  0  0  0  0  0  0  0
    5.4191   -5.5802    0.7268 H   0  0  0  0  0  0  0  0  0  0  0  0
    6.7592   -4.4752    1.0895 H   0  0  0  0  0  0  0  0  0  0  0  0
    5.4225   -4.6589    2.2394 H   0  0  0  0  0  0  0  0  0  0  0  0
    5.1564   -2.1751    2.1979 H   0  0  0  0  0  0  0  0  0  0  0  0
    6.3738   -1.9298    0.9637 H   0  0  0  0  0  0  0  0  0  0  0  0
    4.7123   -0.8847   -0.5385 H   0  0  0  0  0  0  0  0  0  0  0  0
    4.7612   -0.0455    1.0099 H   0  0  0  0  0  0  0  0  0  0  0  0
    2.6741    0.6932    2.3819 H   0  0  0  0  0  0  0  0  0  0  0  0
    2.3499    0.8026    6.1813 H   0  0  0  0  0  0  0  0  0  0  0  0
    3.6207    1.0947    4.9794 H   0  0  0  0  0  0  0  0  0  0  0  0
    2.4236    3.2555    5.4861 H   0  0  0  0  0  0  0  0  0  0  0  0
    2.2869    2.7361    3.9497 H   0  0  0  0  0  0  0  0  0  0  0  0
   -1.3810    2.1200    2.6259 H   0  0  0  0  0  0  0  0  0  0  0  0
   -1.8147    0.9806    3.8527 H   0  0  0  0  0  0  0  0  0  0  0  0
   -2.6896    2.5076    3.6894 H   0  0  0  0  0  0  0  0  0  0  0  0
    0.0290    1.6369    4.2687 H   0  0  0  0  0  0  0  0  0  0  0  0
    1.4624    1.2930    1.0098 H   0  0  0  0  0  0  0  0  0  0  0  0
    3.2535    3.0104    0.4986 H   0  0  0  0  0  0  0  0  0  0  0  0
    1.4336    5.8961    2.8263 H   0  0  0  0  0  0  0  0  0  0  0  0
   -0.2185    4.3481    3.5156 H   0  0  0  0  0  0  0  0  0  0  0  0
  1  2  2  0  0  0  0
  2 10  1  0  0  0  0
  3  4  1  0  0  0  0
  3  9  1  0  0  0  0
  3 25  1  6  0  0  0
  3  2  1  0  0  0  0
  4  5  1  0  0  0  0
  4 28  1  0  0  0  0
  4 29  1  0  0  0  0
  5  6  1  0  0  0  0
  5 30  1  0  0  0  0
  5 31  1  0  0  0  0
  6  7  1  0  0  0  0
  6  8  1  0  0  0  0
  6 26  1  6  0  0  0
  7 32  1  0  0  0  0
  7 33  1  0  0  0  0
  7 34  1  0  0  0  0
  8  9  1  0  0  0  0
  8 35  1  0  0  0  0
  8 36  1  0  0  0  0
  9 37  1  0  0  0  0
  9 38  1  0  0  0  0
 10 39  1  0  0  0  0
 11 10  1  0  0  0  0
 11 12  1  0  0  0  0
 11 16  1  0  0  0  0
 11 27  1  1  0  0  0
 12 13  1  0  0  0  0
 12 40  1  0  0  0  0
 12 41  1  0  0  0  0
 13 14  1  0  0  0  0
 13 42  1  0  0  0  0
 13 43  1  0  0  0  0
 14 15  1  0  0  0  0
 15 44  1  0  0  0  0
 15 45  1  0  0  0  0
 15 46  1  0  0  0  0
 16 17  2  0  0  0  0
 16 18  1  0  0  0  0
 18 19  1  0  0  0  0
 18 47  1  0  0  0  0
 19 20  1  0  0  0  0
 19 24  2  0  0  0  0
 20 21  2  0  0  0  0
 20 48  1  0  0  0  0
 21 22  1  0  0  0  0
 21 49  1  0  0  0  0
 22 23  2  0  0  0  0
 23 24  1  0  0  0  0
 23 50  1  0  0  0  0
 24 51  1  0  0  0  0
M  END
>  <DRUGBANK_ID>
DB07569

>  <COMMON_NAME>
CIS-4-METHYL-N-[(1S)-3-(METHYLSULFANYL)-1-(PYRIDIN-4-YLCARBAMOYL)PROPYL]CYCLOHEXANECARBOXAMIDE

$$$$
