
 OpenBabel10282417203D

 28 30  0  0  0  0  0  0  0  0999 V2000
    1.1135   -0.0165    0.0909 C   0  0  0  0  0  0  0  0  0  0  0  0
    0.6802   -0.8599   -1.0591 C   0  0  0  0  0  0  0  0  0  0  0  0
    0.8989   -2.2373   -1.0759 C   0  0  0  0  0  0  0  0  0  0  0  0
    0.5705   -2.9740   -2.2105 C   0  0  0  0  0  0  0  0  0  0  0  0
    0.0197   -2.3538   -3.3389 C   0  0  0  0  0  0  0  0  0  0  0  0
   -0.2180   -0.9768   -3.3068 C   0  0  0  0  0  0  0  0  0  0  0  0
    0.1133   -0.2491   -2.1652 C   0  0  0  0  0  0  0  0  0  0  0  0
   -0.8889    0.0422   -4.5671 S   0  0  0  0  0  0  0  0  0  0  0  0
   -1.1941   -1.0286   -5.9190 C   0  0  0  0  0  0  0  0  0  0  0  0
   -1.7350   -0.3623   -7.0250 C   0  0  0  0  0  0  0  0  0  0  0  0
   -2.0490   -1.0472   -8.1816 C   0  0  0  0  0  0  0  0  0  0  0  0
   -1.8225   -2.4208   -8.2513 C   0  0  0  0  0  0  0  0  0  0  0  0
   -1.2804   -3.0880   -7.1520 C   0  0  0  0  0  0  0  0  0  0  0  0
   -0.9613   -2.4061   -5.9771 C   0  0  0  0  0  0  0  0  0  0  0  0
   -0.2950   -3.4302   -4.7004 S   0  0  0  0  0  0  0  0  0  0  0  0
   -2.1600   -3.1688   -9.4943 C   0  0  0  0  0  0  0  0  0  0  0  0
    0.7390   -0.4343    1.0266 H   0  0  0  0  0  0  0  0  0  0  0  0
    0.7257    1.0044   -0.0052 H   0  0  0  0  0  0  0  0  0  0  0  0
    2.2052    0.0345    0.0998 H   0  0  0  0  0  0  0  0  0  0  0  0
    1.3382   -2.7379   -0.2211 H   0  0  0  0  0  0  0  0  0  0  0  0
    0.7663   -4.0471   -2.2123 H   0  0  0  0  0  0  0  0  0  0  0  0
   -0.0611    0.8287   -2.1499 H   0  0  0  0  0  0  0  0  0  0  0  0
   -1.9167    0.7124   -6.9804 H   0  0  0  0  0  0  0  0  0  0  0  0
   -2.4702   -0.5033   -9.0214 H   0  0  0  0  0  0  0  0  0  0  0  0
   -1.1064   -4.1633   -7.2152 H   0  0  0  0  0  0  0  0  0  0  0  0
   -3.2296   -3.0714   -9.6971 H   0  0  0  0  0  0  0  0  0  0  0  0
   -1.5786   -2.7672  -10.3282 H   0  0  0  0  0  0  0  0  0  0  0  0
   -1.9245   -4.2324   -9.3904 H   0  0  0  0  0  0  0  0  0  0  0  0
  1  2  1  0  0  0  0
  1 17  1  0  0  0  0
  1 18  1  0  0  0  0
  1 19  1  0  0  0  0
  2  3  2  0  0  0  0
  2  7  1  0  0  0  0
  3  4  1  0  0  0  0
  3 20  1  0  0  0  0
  4  5  2  0  0  0  0
  4 21  1  0  0  0  0
  5  6  1  0  0  0  0
  5 15  1  0  0  0  0
  6  7  2  0  0  0  0
  6  8  1  0  0  0  0
  7 22  1  0  0  0  0
  8  9  1  0  0  0  0
  9 10  2  0  0  0  0
  9 14  1  0  0  0  0
 10 11  1  0  0  0  0
 10 23  1  0  0  0  0
 11 12  2  0  0  0  0
 11 24  1  0  0  0  0
 12 13  1  0  0  0  0
 12 16  1  0  0  0  0
 13 14  2  0  0  0  0
 13 25  1  0  0  0  0
 14 15  1  0  0  0  0
 16 26  1  0  0  0  0
 16 27  1  0  0  0  0
 16 28  1  0  0  0  0
M  END
>  <DRUGBANK_ID>
DB13356

>  <COMMON_NAME>
Mesulfen

>  <CAS_NUMBER>
135-58-0

>  <UNII>
EG6V6W7WDD

>  <SYNONYMS>
Mesulfen

$$$$
