
 OpenBabel10282417213D

 40 42  0  0  1  0  0  0  0  0999 V2000
    2.3528    0.4259    0.3301 C   0  0  0  0  0  0  0  0  0  0  0  0
    0.9232    0.1348    0.5414 C   0  0  1  0  0  0  0  0  0  0  0  0
    0.1894    1.3465   -0.0524 C   0  0  0  0  0  0  0  0  0  0  0  0
   -1.2966    1.2173    0.1674 C   0  0  0  0  0  0  0  0  0  0  0  0
   -1.8096   -0.1216   -0.3965 C   0  0  2  0  0  0  0  0  0  0  0  0
   -0.9979   -1.3141    0.1973 C   0  0  0  0  0  0  0  0  0  0  0  0
    0.4665   -1.1657    0.0094 N   0  0  0  0  0  0  0  0  0  0  0  0
    1.1304   -2.2233   -0.6563 C   0  0  0  0  0  0  0  0  0  0  0  0
    0.5208   -3.2469   -0.9521 O   0  0  0  0  0  0  0  0  0  0  0  0
    2.5843   -2.2223   -1.2159 C   0  0  0  0  0  0  0  0  0  0  0  0
    3.6785   -1.4554   -1.3255 C   0  0  0  0  0  0  0  0  0  0  0  0
   -1.8939   -0.1076   -1.8725 N   0  0  0  0  0  0  0  0  0  0  0  0
   -0.8014   -0.0265   -2.7166 C   0  0  0  0  0  0  0  0  0  0  0  0
    0.0548   -1.0605   -2.7973 N   0  0  0  0  0  0  0  0  0  0  0  0
    1.2267   -0.9208   -3.4503 C   0  0  0  0  0  0  0  0  0  0  0  0
    1.7258    0.1675   -4.0294 N   0  0  0  0  0  0  0  0  0  0  0  0
    0.7706    1.0904   -4.1118 C   0  0  0  0  0  0  0  0  0  0  0  0
   -0.5054    1.0601   -3.5596 C   0  0  0  0  0  0  0  0  0  0  0  0
   -1.1514    2.2323   -4.0217 C   0  0  0  0  0  0  0  0  0  0  0  0
   -0.2734    2.8956   -4.8586 C   0  0  0  0  0  0  0  0  0  0  0  0
    0.9167    2.2230   -4.8435 N   0  0  0  0  0  0  0  0  0  0  0  0
    2.8971   -0.4171    0.7575 H   0  0  0  0  0  0  0  0  0  0  0  0
    2.4326    0.5828   -0.7537 H   0  0  0  0  0  0  0  0  0  0  0  0
    2.7463    1.3318    0.7839 H   0  0  0  0  0  0  0  0  0  0  0  0
    0.7337    0.0971    1.6205 H   0  0  0  0  0  0  0  0  0  0  0  0
    0.5647    2.2732    0.3985 H   0  0  0  0  0  0  0  0  0  0  0  0
    0.4100    1.4587   -1.1155 H   0  0  0  0  0  0  0  0  0  0  0  0
   -1.4632    1.2601    1.2538 H   0  0  0  0  0  0  0  0  0  0  0  0
   -1.8182    2.0777   -0.2655 H   0  0  0  0  0  0  0  0  0  0  0  0
   -2.8406   -0.2160   -0.0265 H   0  0  0  0  0  0  0  0  0  0  0  0
   -1.1533   -1.3225    1.2882 H   0  0  0  0  0  0  0  0  0  0  0  0
   -1.4004   -2.2623   -0.1716 H   0  0  0  0  0  0  0  0  0  0  0  0
    2.6793   -3.1339   -1.8257 H   0  0  0  0  0  0  0  0  0  0  0  0
    4.5316   -1.6915   -1.9536 H   0  0  0  0  0  0  0  0  0  0  0  0
    3.8720   -0.4905   -0.8996 H   0  0  0  0  0  0  0  0  0  0  0  0
   -2.8058   -0.0417   -2.2978 H   0  0  0  0  0  0  0  0  0  0  0  0
    1.8615   -1.7943   -3.4990 H   0  0  0  0  0  0  0  0  0  0  0  0
   -2.1736    2.5105   -3.8135 H   0  0  0  0  0  0  0  0  0  0  0  0
   -0.3858    3.7799   -5.4655 H   0  0  0  0  0  0  0  0  0  0  0  0
    1.7632    2.4339   -5.3531 H   0  0  0  0  0  0  0  0  0  0  0  0
  1 22  1  0  0  0  0
  1 23  1  0  0  0  0
  1 24  1  0  0  0  0
  2  1  1  0  0  0  0
  2  3  1  0  0  0  0
  2  7  1  0  0  0  0
  2 25  1  1  0  0  0
  3  4  1  0  0  0  0
  3 26  1  0  0  0  0
  3 27  1  0  0  0  0
  4 28  1  0  0  0  0
  4 29  1  0  0  0  0
  5  4  1  0  0  0  0
  5  6  1  0  0  0  0
  5 30  1  1  0  0  0
  5 12  1  0  0  0  0
  6  7  1  0  0  0  0
  6 31  1  0  0  0  0
  6 32  1  0  0  0  0
  7  8  1  0  0  0  0
  8  9  2  0  0  0  0
  8 10  1  0  0  0  0
 10 11  2  0  0  0  0
 10 33  1  0  0  0  0
 11 34  1  0  0  0  0
 11 35  1  0  0  0  0
 12 13  1  0  0  0  0
 12 36  1  0  0  0  0
 13 14  2  0  0  0  0
 13 18  1  0  0  0  0
 14 15  1  0  0  0  0
 15 16  2  0  0  0  0
 15 37  1  0  0  0  0
 16 17  1  0  0  0  0
 17 18  2  0  0  0  0
 17 21  1  0  0  0  0
 18 19  1  0  0  0  0
 19 20  2  0  0  0  0
 19 38  1  0  0  0  0
 20 21  1  0  0  0  0
 20 39  1  0  0  0  0
 21 40  1  0  0  0  0
M  END
>  <DRUGBANK_ID>
DB14924

>  <COMMON_NAME>
Ritlecitinib

>  <CAS_NUMBER>
1792180-81-4

>  <UNII>
2OYE00PC25

>  <SYNONYMS>
2-propen-1-one, 1-((2S,5R)-2-methyl-5-(7H-pyrrolo(2,3-D)pyrimidin-4-ylamino)-1-piperidinyl)-

$$$$
