
 OpenBabel10282417123D

 67 69  0  0  1  0  0  0  0  0999 V2000
    2.9859   -1.0907    0.6363 C   0  0  0  0  0  0  0  0  0  0  0  0
    2.2480   -0.9137   -0.5701 O   0  0  0  0  0  0  0  0  0  0  0  0
    1.2614    0.1453   -0.6086 C   0  0  2  0  0  0  0  0  0  0  0  0
    1.2731    1.0766    0.6529 C   0  0  1  0  0  0  0  0  0  0  0  0
    0.3263    2.2613    0.5750 C   0  0  0  0  0  0  0  0  0  0  0  0
   -1.1072    1.8368    0.4626 C   0  0  0  0  0  0  0  0  0  0  0  0
   -1.2308    0.9262   -0.7639 C   0  0  1  0  0  0  0  0  0  0  0  0
   -2.5775    1.1238   -1.5115 C   0  0  0  0  0  0  0  0  0  0  0  0
   -1.3824    1.7333   -1.9448 O   0  0  0  0  0  0  0  0  0  0  0  0
   -0.1679   -0.3290   -0.9280 C   0  0  1  0  0  0  0  0  0  0  0  0
   -0.4599   -1.3218   -2.0343 C   0  0  1  0  0  0  0  0  0  0  0  0
   -1.7204   -2.0998   -1.8065 C   0  0  0  0  0  0  0  0  0  0  0  0
   -0.1688   -0.8635   -3.3484 O   0  0  0  0  0  0  0  0  0  0  0  0
    0.5794   -2.0089   -2.8999 C   0  0  2  0  0  0  0  0  0  0  0  0
    0.2548   -3.3048   -3.5906 C   0  0  0  0  0  0  0  0  0  0  0  0
   -0.7426   -3.2016   -4.7194 C   0  0  0  0  0  0  0  0  0  0  0  0
   -0.4632   -3.4824   -6.0014 C   0  0  0  0  0  0  0  0  0  0  0  0
   -1.4887   -3.3127   -7.0798 C   0  0  0  0  0  0  0  0  0  0  0  0
    0.9006   -3.9585   -6.4001 C   0  0  0  0  0  0  0  0  0  0  0  0
    1.3235    0.4835    2.0339 O   0  0  0  0  0  0  0  0  0  0  0  0
    0.7853   -0.3057    2.9909 C   0  0  0  0  0  0  0  0  0  0  0  0
    1.4630   -0.5755    3.9816 O   0  0  0  0  0  0  0  0  0  0  0  0
   -0.5912   -0.8727    2.9583 C   0  0  0  0  0  0  0  0  0  0  0  0
   -1.4160   -0.8009    1.9229 C   0  0  0  0  0  0  0  0  0  0  0  0
   -2.8153   -1.1441    1.6666 C   0  0  0  0  0  0  0  0  0  0  0  0
   -3.4157   -0.9427    0.4719 C   0  0  0  0  0  0  0  0  0  0  0  0
   -4.7571   -1.1266   -0.0956 C   0  0  0  0  0  0  0  0  0  0  0  0
   -5.2110   -0.8217   -1.3460 C   0  0  0  0  0  0  0  0  0  0  0  0
   -6.5773   -1.0093   -1.8167 C   0  0  0  0  0  0  0  0  0  0  0  0
   -7.0711   -0.6397   -3.0217 C   0  0  0  0  0  0  0  0  0  0  0  0
   -8.4789   -0.9724   -3.3166 C   0  0  0  0  0  0  0  0  0  0  0  0
   -8.9192   -0.6072   -4.5283 O   0  0  0  0  0  0  0  0  0  0  0  0
   -9.2134   -1.5642   -2.5086 O   0  0  0  0  0  0  0  0  0  0  0  0
    2.3437   -1.5879    1.3647 H   0  0  0  0  0  0  0  0  0  0  0  0
    3.3942   -0.1515    1.0238 H   0  0  0  0  0  0  0  0  0  0  0  0
    3.8524   -1.7345    0.4735 H   0  0  0  0  0  0  0  0  0  0  0  0
    1.5337    0.7465   -1.4831 H   0  0  0  0  0  0  0  0  0  0  0  0
    2.2656    1.5344    0.5806 H   0  0  0  0  0  0  0  0  0  0  0  0
    0.4661    2.8972    1.4507 H   0  0  0  0  0  0  0  0  0  0  0  0
    0.5793    2.8262   -0.3272 H   0  0  0  0  0  0  0  0  0  0  0  0
   -1.4392    1.4606    1.4325 H   0  0  0  0  0  0  0  0  0  0  0  0
   -1.8114    2.6736    0.3580 H   0  0  0  0  0  0  0  0  0  0  0  0
   -3.3583    1.5688   -0.8753 H   0  0  0  0  0  0  0  0  0  0  0  0
   -2.9983    0.4232   -2.2001 H   0  0  0  0  0  0  0  0  0  0  0  0
   -0.2472   -1.0897   -0.1516 H   0  0  0  0  0  0  0  0  0  0  0  0
   -1.8574   -3.0757   -2.2607 H   0  0  0  0  0  0  0  0  0  0  0  0
   -1.7763   -2.3393   -0.7422 H   0  0  0  0  0  0  0  0  0  0  0  0
   -2.5589   -1.4994   -2.1322 H   0  0  0  0  0  0  0  0  0  0  0  0
    1.6309   -1.9184   -2.6727 H   0  0  0  0  0  0  0  0  0  0  0  0
    1.1985   -3.7321   -3.9355 H   0  0  0  0  0  0  0  0  0  0  0  0
   -0.1163   -4.0370   -2.8621 H   0  0  0  0  0  0  0  0  0  0  0  0
   -1.7359   -2.8323   -4.4664 H   0  0  0  0  0  0  0  0  0  0  0  0
   -1.1382   -2.5949   -7.8277 H   0  0  0  0  0  0  0  0  0  0  0  0
   -1.6808   -4.2725   -7.5674 H   0  0  0  0  0  0  0  0  0  0  0  0
   -2.4429   -2.9417   -6.6875 H   0  0  0  0  0  0  0  0  0  0  0  0
    1.6551   -3.2062   -6.1407 H   0  0  0  0  0  0  0  0  0  0  0  0
    1.1385   -4.8916   -5.8759 H   0  0  0  0  0  0  0  0  0  0  0  0
    0.9712   -4.1500   -7.4713 H   0  0  0  0  0  0  0  0  0  0  0  0
   -0.9147   -1.3509    3.8688 H   0  0  0  0  0  0  0  0  0  0  0  0
   -0.9116   -0.2949    1.1557 H   0  0  0  0  0  0  0  0  0  0  0  0
   -3.3573   -1.5306    2.5098 H   0  0  0  0  0  0  0  0  0  0  0  0
   -2.7487   -0.6001   -0.2741 H   0  0  0  0  0  0  0  0  0  0  0  0
   -5.4468   -1.5695    0.6067 H   0  0  0  0  0  0  0  0  0  0  0  0
   -4.6214   -0.4087   -2.1556 H   0  0  0  0  0  0  0  0  0  0  0  0
   -7.2327   -1.5047   -1.1055 H   0  0  0  0  0  0  0  0  0  0  0  0
   -6.4932   -0.1263   -3.7829 H   0  0  0  0  0  0  0  0  0  0  0  0
   -8.3001   -0.1486   -5.1260 H   0  0  0  0  0  0  0  0  0  0  0  0
  1  2  1  0  0  0  0
  1 34  1  0  0  0  0
  1 35  1  0  0  0  0
  1 36  1  0  0  0  0
  3  4  1  0  0  0  0
  3 10  1  0  0  0  0
  3  2  1  0  0  0  0
  3 37  1  6  0  0  0
  4  5  1  0  0  0  0
  4 20  1  0  0  0  0
  4 38  1  6  0  0  0
  5  6  1  0  0  0  0
  5 39  1  0  0  0  0
  5 40  1  0  0  0  0
  6  7  1  0  0  0  0
  6 41  1  0  0  0  0
  6 42  1  0  0  0  0
  7  8  1  0  0  0  0
  7  9  1  6  0  0  0
  7 10  1  0  0  0  0
  8  9  1  0  0  0  0
  8 43  1  0  0  0  0
  8 44  1  0  0  0  0
 10 45  1  1  0  0  0
 11 13  1  0  0  0  0
 11 14  1  0  0  0  0
 11 10  1  0  0  0  0
 11 12  1  1  0  0  0
 12 46  1  0  0  0  0
 12 47  1  0  0  0  0
 12 48  1  0  0  0  0
 13 14  1  0  0  0  0
 14 49  1  1  0  0  0
 14 15  1  0  0  0  0
 15 16  1  0  0  0  0
 15 50  1  0  0  0  0
 15 51  1  0  0  0  0
 16 17  2  0  0  0  0
 16 52  1  0  0  0  0
 17 18  1  0  0  0  0
 17 19  1  0  0  0  0
 18 53  1  0  0  0  0
 18 54  1  0  0  0  0
 18 55  1  0  0  0  0
 19 56  1  0  0  0  0
 19 57  1  0  0  0  0
 19 58  1  0  0  0  0
 20 21  1  0  0  0  0
 21 22  2  0  0  0  0
 21 23  1  0  0  0  0
 23 24  2  0  0  0  0
 23 59  1  0  0  0  0
 24 25  1  0  0  0  0
 24 60  1  0  0  0  0
 25 26  2  0  0  0  0
 25 61  1  0  0  0  0
 26 27  1  0  0  0  0
 26 62  1  0  0  0  0
 27 28  2  0  0  0  0
 27 63  1  0  0  0  0
 28 29  1  0  0  0  0
 28 64  1  0  0  0  0
 29 30  2  0  0  0  0
 29 65  1  0  0  0  0
 30 31  1  0  0  0  0
 30 66  1  0  0  0  0
 31 32  1  0  0  0  0
 31 33  2  0  0  0  0
 32 67  1  0  0  0  0
M  END
>  <DRUGBANK_ID>
DB02640

>  <SECONDARY_ACCESSION_NUMBERS>
EXPT01509

>  <COMMON_NAME>
Fumagillin

>  <CAS_NUMBER>
23110-15-8

>  <UNII>
7OW73204U1

>  <SYNONYMS>
fumagilina; Fumagillin

$$$$
