
 OpenBabel10282417223D

 55 58  0  0  1  0  0  0  0  0999 V2000
   -3.6247  -10.8378   12.5246 C   0  0  0  0  0  0  0  0  0  0  0  0
   -2.2534  -11.2555   12.5353 N   0  0  0  0  0  0  0  0  0  0  0  0
   -1.5312  -11.6534   13.6374 C   0  0  0  0  0  0  0  0  0  0  0  0
   -1.9592  -11.7430   14.7867 O   0  0  0  0  0  0  0  0  0  0  0  0
   -0.2052  -11.9528   13.2953 O   0  0  0  0  0  0  0  0  0  0  0  0
   -0.1854  -11.6987   11.9336 C   0  0  0  0  0  0  0  0  0  0  0  0
    0.9063  -11.8459   11.1082 C   0  0  0  0  0  0  0  0  0  0  0  0
    0.7234  -11.5449    9.7576 C   0  0  0  0  0  0  0  0  0  0  0  0
   -0.5305  -11.0982    9.2600 C   0  0  0  0  0  0  0  0  0  0  0  0
   -1.6164  -10.9552   10.1325 C   0  0  0  0  0  0  0  0  0  0  0  0
   -1.4066  -11.2686   11.4550 C   0  0  0  0  0  0  0  0  0  0  0  0
   -0.6697  -10.7844    7.8423 C   0  0  0  0  0  0  0  0  0  0  0  0
   -0.4312  -11.7709    6.8888 C   0  0  0  0  0  0  0  0  0  0  0  0
   -0.3731  -11.4366    5.5468 C   0  0  0  0  0  0  0  0  0  0  0  0
   -0.5869  -10.1234    5.1122 C   0  0  0  0  0  0  0  0  0  0  0  0
   -0.3065   -9.7532    3.6714 C   0  0  0  0  0  0  0  0  0  0  0  0
    1.2217   -9.8469    3.3286 C   0  0  2  0  0  0  0  0  0  0  0  0
    1.5170   -9.2333    2.0292 N   0  0  0  0  0  0  0  0  0  0  0  0
    2.0611   -7.9899    1.7792 C   0  0  0  0  0  0  0  0  0  0  0  0
    2.1237   -7.6124    0.6102 O   0  0  0  0  0  0  0  0  0  0  0  0
    2.6024   -7.1612    2.9824 C   0  0  2  0  0  0  0  0  0  0  0  0
    1.4130   -6.7731    3.8806 C   0  0  0  0  0  0  0  0  0  0  0  0
    1.7881   -6.6636    5.2952 N   0  0  0  0  0  0  0  0  0  0  0  0
    2.1163   -5.2854    5.6374 C   0  0  0  0  0  0  0  0  0  0  0  0
    2.8539   -4.5036    4.5446 C   0  0  0  0  0  0  0  0  0  0  0  0
    3.9178   -5.3418    3.8325 C   0  0  0  0  0  0  0  0  0  0  0  0
    3.3767   -6.0015    2.6736 O   0  0  0  0  0  0  0  0  0  0  0  0
    1.5828  -11.3230    3.3583 C   0  0  0  0  0  0  0  0  0  0  0  0
    1.8825  -12.5476    3.3830 N   0  0  0  0  0  0  0  0  0  0  0  0
   -0.9921   -9.1696    6.0487 C   0  0  0  0  0  0  0  0  0  0  0  0
   -0.9938   -9.4909    7.4084 C   0  0  0  0  0  0  0  0  0  0  0  0
   -4.1443  -11.2480   13.3949 H   0  0  0  0  0  0  0  0  0  0  0  0
   -4.1232  -11.1858   11.6154 H   0  0  0  0  0  0  0  0  0  0  0  0
   -3.6635   -9.7456   12.5745 H   0  0  0  0  0  0  0  0  0  0  0  0
    1.8673  -12.1786   11.4824 H   0  0  0  0  0  0  0  0  0  0  0  0
    1.5680  -11.6457    9.0752 H   0  0  0  0  0  0  0  0  0  0  0  0
   -2.5820  -10.6244    9.7681 H   0  0  0  0  0  0  0  0  0  0  0  0
   -0.2545  -12.8055    7.1758 H   0  0  0  0  0  0  0  0  0  0  0  0
   -0.1172  -12.2357    4.8594 H   0  0  0  0  0  0  0  0  0  0  0  0
   -0.8947  -10.4009    3.0108 H   0  0  0  0  0  0  0  0  0  0  0  0
   -0.7080   -8.7533    3.4753 H   0  0  0  0  0  0  0  0  0  0  0  0
    1.8288   -9.3737    4.1042 H   0  0  0  0  0  0  0  0  0  0  0  0
    1.2025   -9.7132    1.1906 H   0  0  0  0  0  0  0  0  0  0  0  0
    3.2881   -7.8548    3.4867 H   0  0  0  0  0  0  0  0  0  0  0  0
    0.8886   -5.8858    3.5079 H   0  0  0  0  0  0  0  0  0  0  0  0
    0.6474   -7.5217    3.8650 H   0  0  0  0  0  0  0  0  0  0  0  0
    2.5992   -7.2552    5.4880 H   0  0  0  0  0  0  0  0  0  0  0  0
    1.1824   -4.7689    5.8869 H   0  0  0  0  0  0  0  0  0  0  0  0
    2.7155   -5.2985    6.5546 H   0  0  0  0  0  0  0  0  0  0  0  0
    2.1295   -4.1276    3.8105 H   0  0  0  0  0  0  0  0  0  0  0  0
    3.3111   -3.6270    5.0142 H   0  0  0  0  0  0  0  0  0  0  0  0
    4.7109   -4.6770    3.4788 H   0  0  0  0  0  0  0  0  0  0  0  0
    4.3889   -6.0715    4.5033 H   0  0  0  0  0  0  0  0  0  0  0  0
   -1.2737   -8.1630    5.7466 H   0  0  0  0  0  0  0  0  0  0  0  0
   -1.2084   -8.7121    8.1375 H   0  0  0  0  0  0  0  0  0  0  0  0
  1  2  1  0  0  0  0
  1 32  1  0  0  0  0
  1 33  1  0  0  0  0
  1 34  1  0  0  0  0
  2  3  1  0  0  0  0
  2 11  1  0  0  0  0
  3  4  2  0  0  0  0
  3  5  1  0  0  0  0
  5  6  1  0  0  0  0
  6  7  2  0  0  0  0
  6 11  1  0  0  0  0
  7  8  1  0  0  0  0
  7 35  1  0  0  0  0
  8  9  2  0  0  0  0
  8 36  1  0  0  0  0
  9 10  1  0  0  0  0
  9 12  1  0  0  0  0
 10 11  2  0  0  0  0
 10 37  1  0  0  0  0
 12 13  2  0  0  0  0
 12 31  1  0  0  0  0
 13 14  1  0  0  0  0
 13 38  1  0  0  0  0
 14 15  2  0  0  0  0
 14 39  1  0  0  0  0
 15 16  1  0  0  0  0
 15 30  1  0  0  0  0
 16 40  1  0  0  0  0
 16 41  1  0  0  0  0
 17 28  1  0  0  0  0
 17 42  1  1  0  0  0
 17 18  1  0  0  0  0
 17 16  1  0  0  0  0
 18 19  1  0  0  0  0
 18 43  1  0  0  0  0
 19 20  2  0  0  0  0
 21 19  1  0  0  0  0
 21 22  1  0  0  0  0
 21 27  1  0  0  0  0
 21 44  1  1  0  0  0
 22 23  1  0  0  0  0
 22 45  1  0  0  0  0
 22 46  1  0  0  0  0
 23 24  1  0  0  0  0
 23 47  1  0  0  0  0
 24 25  1  0  0  0  0
 24 48  1  0  0  0  0
 24 49  1  0  0  0  0
 25 26  1  0  0  0  0
 25 50  1  0  0  0  0
 25 51  1  0  0  0  0
 26 27  1  0  0  0  0
 26 52  1  0  0  0  0
 26 53  1  0  0  0  0
 28 29  3  0  0  0  0
 30 31  2  0  0  0  0
 30 54  1  0  0  0  0
 31 55  1  0  0  0  0
M  END
>  <DRUGBANK_ID>
DB15638

>  <COMMON_NAME>
Brensocatib

>  <CAS_NUMBER>
1802148-05-5

>  <UNII>
25CG88L0BB

>  <SYNONYMS>
(S)-N-((S)-1-Cyano-2-(4-(3-methyl-2-oxo-2,3-dihydrobenzo-(d)oxazol-5-yl)phenyl)ethyl)-1,4-oxazepane-2-carboxamide; Brensocatib

$$$$
