
 OpenBabel10282417183D

 49 52  0  0  1  0  0  0  0  0999 V2000
   14.8249   -0.1656    3.7321 C   0  0  0  0  0  0  0  0  0  0  0  0
   15.0223   -1.4854    3.3470 C   0  0  0  0  0  0  0  0  0  0  0  0
   14.0114   -2.2131    2.7012 C   0  0  0  0  0  0  0  0  0  0  0  0
   12.7848   -1.5761    2.4354 C   0  0  0  0  0  0  0  0  0  0  0  0
   12.5885   -0.2469    2.8029 C   0  0  0  0  0  0  0  0  0  0  0  0
   13.6115    0.4571    3.4692 C   0  0  0  0  0  0  0  0  0  0  0  0
   11.3133    0.2149    2.3997 C   0  0  0  0  0  0  0  0  0  0  0  0
   10.5215   -0.7369    1.8027 C   0  0  0  0  0  0  0  0  0  0  0  0
   11.3702   -2.2179    1.6667 S   0  0  0  0  0  0  0  0  0  0  0  0
    9.1053   -0.5487    1.3148 C   0  0  0  0  0  0  0  0  0  0  0  0
    8.1595   -0.1695    2.4348 C   0  0  0  0  0  0  0  0  0  0  0  0
    7.1742   -1.0747    2.8165 C   0  0  0  0  0  0  0  0  0  0  0  0
    6.4850   -0.9432    4.0342 C   0  0  0  0  0  0  0  0  0  0  0  0
    6.6935    0.1984    4.8158 C   0  0  0  0  0  0  0  0  0  0  0  0
    7.5871    1.1768    4.3798 C   0  0  0  0  0  0  0  0  0  0  0  0
    8.2831    0.9927    3.1914 C   0  0  0  0  0  0  0  0  0  0  0  0
    9.0921    1.9835    2.7870 F   0  0  0  0  0  0  0  0  0  0  0  0
    5.6618   -2.1360    4.4864 C   0  0  1  0  0  0  0  0  0  0  0  0
    6.6076   -3.3456    4.7390 C   0  0  1  0  0  0  0  0  0  0  0  0
    5.8130   -4.5348    5.2767 C   0  0  2  0  0  0  0  0  0  0  0  0
    4.9438   -4.1253    6.4645 C   0  0  1  0  0  0  0  0  0  0  0  0
    4.0932   -2.9020    6.1058 C   0  0  2  0  0  0  0  0  0  0  0  0
    4.9235   -1.8130    5.6721 O   0  0  0  0  0  0  0  0  0  0  0  0
    3.2978   -2.4464    7.3327 C   0  0  0  0  0  0  0  0  0  0  0  0
    2.5079   -1.3050    7.0075 O   0  0  0  0  0  0  0  0  0  0  0  0
    4.1130   -5.2093    6.8801 O   0  0  0  0  0  0  0  0  0  0  0  0
    6.6987   -5.5985    5.6477 O   0  0  0  0  0  0  0  0  0  0  0  0
    7.3051   -3.7884    3.5640 O   0  0  0  0  0  0  0  0  0  0  0  0
   15.6109    0.3934    4.2318 H   0  0  0  0  0  0  0  0  0  0  0  0
   15.9786   -1.9593    3.5520 H   0  0  0  0  0  0  0  0  0  0  0  0
   14.1783   -3.2445    2.4072 H   0  0  0  0  0  0  0  0  0  0  0  0
   13.4437    1.4900    3.7643 H   0  0  0  0  0  0  0  0  0  0  0  0
   11.0033    1.2308    2.5779 H   0  0  0  0  0  0  0  0  0  0  0  0
    9.0742    0.2295    0.5459 H   0  0  0  0  0  0  0  0  0  0  0  0
    8.7555   -1.4709    0.8281 H   0  0  0  0  0  0  0  0  0  0  0  0
    7.0111   -1.9495    2.1944 H   0  0  0  0  0  0  0  0  0  0  0  0
    6.1846    0.3369    5.7658 H   0  0  0  0  0  0  0  0  0  0  0  0
    7.7793    2.0647    4.9725 H   0  0  0  0  0  0  0  0  0  0  0  0
    4.9479   -2.3606    3.6822 H   0  0  0  0  0  0  0  0  0  0  0  0
    7.3799   -3.0621    5.4664 H   0  0  0  0  0  0  0  0  0  0  0  0
    5.1891   -4.9499    4.4758 H   0  0  0  0  0  0  0  0  0  0  0  0
    5.6052   -3.8860    7.3063 H   0  0  0  0  0  0  0  0  0  0  0  0
    3.3821   -3.1333    5.3009 H   0  0  0  0  0  0  0  0  0  0  0  0
    2.6256   -3.2356    7.6823 H   0  0  0  0  0  0  0  0  0  0  0  0
    3.9689   -2.1652    8.1509 H   0  0  0  0  0  0  0  0  0  0  0  0
    3.1354   -0.6354    6.6763 H   0  0  0  0  0  0  0  0  0  0  0  0
    3.6214   -5.5418    6.1087 H   0  0  0  0  0  0  0  0  0  0  0  0
    7.3729   -5.2368    6.2506 H   0  0  0  0  0  0  0  0  0  0  0  0
    6.6548   -4.0785    2.9026 H   0  0  0  0  0  0  0  0  0  0  0  0
  1  2  2  0  0  0  0
  1  6  1  0  0  0  0
  1 29  1  0  0  0  0
  2  3  1  0  0  0  0
  2 30  1  0  0  0  0
  3  4  2  0  0  0  0
  3 31  1  0  0  0  0
  4  5  1  0  0  0  0
  4  9  1  0  0  0  0
  5  6  2  0  0  0  0
  5  7  1  0  0  0  0
  6 32  1  0  0  0  0
  7  8  2  0  0  0  0
  7 33  1  0  0  0  0
  8  9  1  0  0  0  0
  8 10  1  0  0  0  0
 10 11  1  0  0  0  0
 10 34  1  0  0  0  0
 10 35  1  0  0  0  0
 11 12  2  0  0  0  0
 11 16  1  0  0  0  0
 12 13  1  0  0  0  0
 12 36  1  0  0  0  0
 13 14  2  0  0  0  0
 14 15  1  0  0  0  0
 14 37  1  0  0  0  0
 15 16  2  0  0  0  0
 15 38  1  0  0  0  0
 16 17  1  0  0  0  0
 18 19  1  0  0  0  0
 18 23  1  0  0  0  0
 18 39  1  6  0  0  0
 18 13  1  0  0  0  0
 19 20  1  0  0  0  0
 19 28  1  0  0  0  0
 19 40  1  1  0  0  0
 20 21  1  0  0  0  0
 20 27  1  0  0  0  0
 20 41  1  6  0  0  0
 21 22  1  0  0  0  0
 21 26  1  0  0  0  0
 21 42  1  1  0  0  0
 22 23  1  0  0  0  0
 22 24  1  0  0  0  0
 22 43  1  6  0  0  0
 24 25  1  0  0  0  0
 24 44  1  0  0  0  0
 24 45  1  0  0  0  0
 25 46  1  0  0  0  0
 26 47  1  0  0  0  0
 27 48  1  0  0  0  0
 28 49  1  0  0  0  0
M  END
>  <DRUGBANK_ID>
DB11698

>  <COMMON_NAME>
Ipragliflozin

>  <CAS_NUMBER>
761423-87-4

>  <UNII>
3N2N8OOR7X

>  <SYNONYMS>
Ipragliflozin

$$$$
