
 OpenBabel10282417153D

 43 45  0  0  0  0  0  0  0  0999 V2000
    0.9183    0.1093    0.0511 C   0  0  0  0  0  0  0  0  0  0  0  0
    0.4300    0.1205    1.4652 C   0  0  0  0  0  0  0  0  0  0  0  0
    0.1500   -0.9763    2.2157 C   0  0  0  0  0  0  0  0  0  0  0  0
   -0.3330   -0.5206    3.5342 C   0  0  0  0  0  0  0  0  0  0  0  0
   -0.7588   -1.2364    4.6505 C   0  0  0  0  0  0  0  0  0  0  0  0
   -1.1575   -0.5292    5.7891 C   0  0  0  0  0  0  0  0  0  0  0  0
   -1.1765    0.8575    5.8147 C   0  0  0  0  0  0  0  0  0  0  0  0
   -0.8136    1.5571    4.6765 C   0  0  0  0  0  0  0  0  0  0  0  0
   -0.3435    0.8806    3.5612 C   0  0  0  0  0  0  0  0  0  0  0  0
    0.1780    1.3421    2.2617 C   0  0  0  0  0  0  0  0  0  0  0  0
    0.4001    2.6212    1.8848 C   0  0  0  0  0  0  0  0  0  0  0  0
    0.1727    3.8381    2.7014 C   0  0  0  0  0  0  0  0  0  0  0  0
    0.7874    4.0312    3.9512 C   0  0  0  0  0  0  0  0  0  0  0  0
    0.3246    5.0265    4.8280 C   0  0  0  0  0  0  0  0  0  0  0  0
   -0.6169    5.9570    4.3830 C   0  0  0  0  0  0  0  0  0  0  0  0
   -1.0849    5.8934    3.0701 C   0  0  0  0  0  0  0  0  0  0  0  0
   -0.7425    4.8003    2.2604 C   0  0  0  0  0  0  0  0  0  0  0  0
   -1.2131    7.1729    5.5426 S   0  0  0  0  0  0  0  0  0  0  0  0
   -2.0087    6.4583    6.5214 O   0  0  0  0  0  0  0  0  0  0  0  0
   -0.0609    7.9595    5.9433 O   0  0  0  0  0  0  0  0  0  0  0  0
   -2.3080    8.2470    4.6530 C   0  0  0  0  0  0  0  0  0  0  0  0
   -1.5563   -1.1914    6.8819 F   0  0  0  0  0  0  0  0  0  0  0  0
    0.2857   -2.4202    1.8467 C   0  0  0  0  0  0  0  0  0  0  0  0
    1.2442   -3.1601    2.7495 C   0  0  0  0  0  0  0  0  0  0  0  0
    0.9657   -4.1373    3.4374 O   0  0  0  0  0  0  0  0  0  0  0  0
    2.4972   -2.6685    2.7358 O   0  0  0  0  0  0  0  0  0  0  0  0
    0.5421    0.9609   -0.5227 H   0  0  0  0  0  0  0  0  0  0  0  0
    0.5819   -0.7854   -0.4864 H   0  0  0  0  0  0  0  0  0  0  0  0
    2.0126    0.1225    0.0223 H   0  0  0  0  0  0  0  0  0  0  0  0
   -0.7912   -2.3187    4.6747 H   0  0  0  0  0  0  0  0  0  0  0  0
   -1.4867    1.4022    6.7005 H   0  0  0  0  0  0  0  0  0  0  0  0
   -0.9250    2.6259    4.7045 H   0  0  0  0  0  0  0  0  0  0  0  0
    0.7484    2.8352    0.8773 H   0  0  0  0  0  0  0  0  0  0  0  0
    1.5222    3.3133    4.3140 H   0  0  0  0  0  0  0  0  0  0  0  0
    0.6644    5.0363    5.8635 H   0  0  0  0  0  0  0  0  0  0  0  0
   -1.7385    6.6517    2.6552 H   0  0  0  0  0  0  0  0  0  0  0  0
   -1.2276    4.6893    1.2928 H   0  0  0  0  0  0  0  0  0  0  0  0
   -1.7584    8.7272    3.8417 H   0  0  0  0  0  0  0  0  0  0  0  0
   -3.1520    7.6682    4.2716 H   0  0  0  0  0  0  0  0  0  0  0  0
   -2.6790    9.0108    5.3406 H   0  0  0  0  0  0  0  0  0  0  0  0
   -0.6929   -2.9118    1.8960 H   0  0  0  0  0  0  0  0  0  0  0  0
    0.6462   -2.5592    0.8216 H   0  0  0  0  0  0  0  0  0  0  0  0
    2.9924   -3.2149    3.3813 H   0  0  0  0  0  0  0  0  0  0  0  0
  1  2  1  0  0  0  0
  1 27  1  0  0  0  0
  1 28  1  0  0  0  0
  1 29  1  0  0  0  0
  2  3  2  0  0  0  0
  2 10  1  0  0  0  0
  3  4  1  0  0  0  0
  3 23  1  0  0  0  0
  4  5  2  0  0  0  0
  4  9  1  0  0  0  0
  5  6  1  0  0  0  0
  5 30  1  0  0  0  0
  6  7  2  0  0  0  0
  6 22  1  0  0  0  0
  7  8  1  0  0  0  0
  7 31  1  0  0  0  0
  8  9  2  0  0  0  0
  8 32  1  0  0  0  0
  9 10  1  0  0  0  0
 10 11  2  0  0  0  0
 11 12  1  0  0  0  0
 11 33  1  0  0  0  0
 12 13  2  0  0  0  0
 12 17  1  0  0  0  0
 13 14  1  0  0  0  0
 13 34  1  0  0  0  0
 14 15  2  0  0  0  0
 14 35  1  0  0  0  0
 15 16  1  0  0  0  0
 15 18  1  0  0  0  0
 16 17  2  0  0  0  0
 16 36  1  0  0  0  0
 17 37  1  0  0  0  0
 18 19  2  0  0  0  0
 18 20  2  0  0  0  0
 18 21  1  0  0  0  0
 21 38  1  0  0  0  0
 21 39  1  0  0  0  0
 21 40  1  0  0  0  0
 23 24  1  0  0  0  0
 23 41  1  0  0  0  0
 23 42  1  0  0  0  0
 24 25  2  0  0  0  0
 24 26  1  0  0  0  0
 26 43  1  0  0  0  0
M  END
>  <DRUGBANK_ID>
DB06246

>  <COMMON_NAME>
Exisulind

>  <CAS_NUMBER>
59973-80-7

>  <UNII>
K619IIG2R9

>  <SYNONYMS>
5-Fluoro-2-methyl-1-((Z)-p-(methylsulfonyl)benzylidene)indene-3-acetic acid; cis-5-Fluoro-2-methyl-1-(p-methylsulfonylbenzylidenyl)indene-3-acetic acid; Exisulind; Sulindac sulfone

$$$$
