
 OpenBabel10282417123D

 41 43  0  0  0  0  0  0  0  0999 V2000
    1.3643   -0.2787    0.1246 C   0  0  0  0  0  0  0  0  0  0  0  0
   -1.8130   -3.9982   -1.4099 N   0  0  0  0  0  0  0  0  0  0  0  0
   -1.8311   -4.5527   -0.1605 C   0  0  0  0  0  0  0  0  0  0  0  0
   -0.9503   -1.0608    0.1537 C   0  0  0  0  0  0  0  0  0  0  0  0
    0.4047   -1.3077    0.1409 C   0  0  0  0  0  0  0  0  0  0  0  0
   -1.9933   -2.1461    0.0604 C   0  0  3  0  0  0  0  0  0  0  0  0
    2.6968   -0.5303    0.2781 O   0  0  0  0  0  0  0  0  0  0  0  0
   -2.1584   -3.4736    0.8257 C   0  0  0  0  0  0  0  0  0  0  0  0
    0.9420    1.0551    0.0064 C   0  0  0  0  0  0  0  0  0  0  0  0
   -2.0434   -2.5817   -1.4072 C   0  0  0  0  0  0  0  0  0  0  0  0
   -1.6929   -5.7491    0.0828 O   0  0  0  0  0  0  0  0  0  0  0  0
   -1.3563    0.2748    0.0624 C   0  0  0  0  0  0  0  0  0  0  0  0
   -0.4303    1.3190    0.0300 C   0  0  0  0  0  0  0  0  0  0  0  0
    3.2028   -1.8532    0.2636 C   0  0  0  0  0  0  0  0  0  0  0  0
    1.7145    2.1798   -0.1530 O   0  0  0  0  0  0  0  0  0  0  0  0
    3.1045    1.9961   -0.4038 C   0  0  0  0  0  0  0  0  0  0  0  0
    2.9510   -2.5865   -1.0522 C   0  0  0  0  0  0  0  0  0  0  0  0
    2.7603   -2.8028    1.3814 C   0  0  0  0  0  0  0  0  0  0  0  0
    3.1300   -4.1696    0.8237 C   0  0  0  0  0  0  0  0  0  0  0  0
    3.1080   -4.0565   -0.7063 C   0  0  0  0  0  0  0  0  0  0  0  0
   -1.6183   -4.5628   -2.2288 H   0  0  0  0  0  0  0  0  0  0  0  0
    0.6758   -2.3505    0.0938 H   0  0  0  0  0  0  0  0  0  0  0  0
   -2.8687   -1.6034    0.4255 H   0  0  0  0  0  0  0  0  0  0  0  0
   -3.2400   -3.5970    1.0043 H   0  0  0  0  0  0  0  0  0  0  0  0
   -1.6326   -3.5834    1.7733 H   0  0  0  0  0  0  0  0  0  0  0  0
   -3.0174   -2.3568   -1.8417 H   0  0  0  0  0  0  0  0  0  0  0  0
   -1.2591   -2.1495   -2.0397 H   0  0  0  0  0  0  0  0  0  0  0  0
   -2.4152    0.5088   -0.0180 H   0  0  0  0  0  0  0  0  0  0  0  0
   -0.7957    2.3431    0.0294 H   0  0  0  0  0  0  0  0  0  0  0  0
    4.2893   -1.7398    0.3781 H   0  0  0  0  0  0  0  0  0  0  0  0
    3.6036    1.6169    0.4920 H   0  0  0  0  0  0  0  0  0  0  0  0
    3.2843    1.3566   -1.2767 H   0  0  0  0  0  0  0  0  0  0  0  0
    3.5527    2.9709   -0.6222 H   0  0  0  0  0  0  0  0  0  0  0  0
    1.9566   -2.4213   -1.4761 H   0  0  0  0  0  0  0  0  0  0  0  0
    3.6261   -2.2410   -1.8407 H   0  0  0  0  0  0  0  0  0  0  0  0
    3.2514   -2.5816    2.3341 H   0  0  0  0  0  0  0  0  0  0  0  0
    1.6984   -2.7801    1.6326 H   0  0  0  0  0  0  0  0  0  0  0  0
    2.4460   -4.9473    1.1795 H   0  0  0  0  0  0  0  0  0  0  0  0
    4.1381   -4.4361    1.1549 H   0  0  0  0  0  0  0  0  0  0  0  0
    2.2799   -4.6349   -1.1316 H   0  0  0  0  0  0  0  0  0  0  0  0
    4.0366   -4.4435   -1.1343 H   0  0  0  0  0  0  0  0  0  0  0  0
  2 10  1  0  0  0  0
  2  3  1  0  0  0  0
  2 21  1  0  0  0  0
  3  8  1  0  0  0  0
  4  5  2  0  0  0  0
  5  1  1  0  0  0  0
  5 22  1  0  0  0  0
  6  4  1  0  0  0  0
  6  8  1  0  0  0  0
  6 10  1  0  0  0  0
  6 23  1  0  0  0  0
  7  1  1  0  0  0  0
  8 24  1  0  0  0  0
  8 25  1  0  0  0  0
  9  1  2  0  0  0  0
 10 26  1  0  0  0  0
 10 27  1  0  0  0  0
 11  3  2  0  0  0  0
 12 13  2  0  0  0  0
 12  4  1  0  0  0  0
 12 28  1  0  0  0  0
 13  9  1  0  0  0  0
 13 29  1  0  0  0  0
 14  7  1  0  0  0  0
 14 30  1  0  0  0  0
 15  9  1  0  0  0  0
 16 15  1  0  0  0  0
 16 31  1  0  0  0  0
 16 32  1  0  0  0  0
 16 33  1  0  0  0  0
 17 14  1  0  0  0  0
 17 34  1  0  0  0  0
 17 35  1  0  0  0  0
 18 14  1  0  0  0  0
 18 36  1  0  0  0  0
 18 37  1  0  0  0  0
 19 18  1  0  0  0  0
 19 38  1  0  0  0  0
 19 39  1  0  0  0  0
 20 17  1  0  0  0  0
 20 19  1  0  0  0  0
 20 40  1  0  0  0  0
 20 41  1  0  0  0  0
M  END
>  <DRUGBANK_ID>
DB01954

>  <SECONDARY_ACCESSION_NUMBERS>
EXPT02804

>  <COMMON_NAME>
Rolipram

>  <CAS_NUMBER>
61413-54-5

>  <UNII>
K676NL63N7

>  <SYNONYMS>
4-(3-(Cyclopentyloxy)-4-methoxyphenyl)-2-pyrrolidinone; Rolipram; Rolipramum

$$$$
