
 OpenBabel10282417203D

 47 49  0  0  0  0  0  0  0  0999 V2000
    0.2284   -0.5977    0.0269 C   0  0  0  0  0  0  0  0  0  0  0  0
    1.6197   -1.0281    0.1184 C   0  0  0  0  0  0  0  0  0  0  0  0
    2.6834   -0.0622    0.2570 C   0  0  0  0  0  0  0  0  0  0  0  0
    2.2507    1.2457    0.1222 C   0  0  0  0  0  0  0  0  0  0  0  0
    0.9388    1.6590    0.0150 C   0  0  0  0  0  0  0  0  0  0  0  0
   -0.0978    0.7575    0.0071 C   0  0  0  0  0  0  0  0  0  0  0  0
   -1.4224    1.3381   -0.0057 C   0  0  0  0  0  0  0  0  0  0  0  0
   -2.3988    1.9347   -0.0080 N   0  0  0  0  0  0  0  0  0  0  0  0
    4.2413   -0.1023    0.3261 C   0  0  0  0  0  0  0  0  0  0  0  0
    5.0635    0.8459    0.9963 N   0  0  0  0  0  0  0  0  0  0  0  0
    6.0841    1.1427    0.0045 N   0  0  0  0  0  0  0  0  0  0  0  0
    5.2926    0.9201   -1.1658 C   0  0  0  0  0  0  0  0  0  0  0  0
    5.0458   -0.4327   -0.8230 C   0  0  0  0  0  0  0  0  0  0  0  0
    7.4969    0.6684    0.0822 C   0  0  0  0  0  0  0  0  0  0  0  0
    7.7303   -0.1709    1.3513 C   0  0  1  0  0  0  0  0  0  0  0  0
    6.7158   -1.2302    1.6011 N   0  0  0  0  0  0  0  0  0  0  0  0
    6.8498   -2.5944    1.3731 C   0  0  0  0  0  0  0  0  0  0  0  0
    5.6209   -3.4156    1.3350 C   0  0  0  0  0  0  0  0  0  0  0  0
    5.5259   -4.5386    2.0711 N   0  0  0  0  0  0  0  0  0  0  0  0
    4.3709   -5.1051    1.6994 N   0  0  0  0  0  0  0  0  0  0  0  0
    3.6994   -4.4115    0.7378 C   0  0  0  0  0  0  0  0  0  0  0  0
    4.5106   -3.3390    0.4553 C   0  0  0  0  0  0  0  0  0  0  0  0
    2.4151   -4.8198    0.1230 C   0  0  3  0  0  0  0  0  0  0  0  0
    2.4813   -6.1672   -0.5593 C   0  0  0  0  0  0  0  0  0  0  0  0
    1.4332   -4.7898    1.1425 O   0  0  0  0  0  0  0  0  0  0  0  0
    7.9358   -3.1271    1.1708 O   0  0  0  0  0  0  0  0  0  0  0  0
    9.1215   -0.7579    1.2981 C   0  0  0  0  0  0  0  0  0  0  0  0
   -1.0858   -1.7417   -0.0174 Cl  0  0  0  0  0  0  0  0  0  0  0  0
    1.7410   -2.1125    0.0843 H   0  0  0  0  0  0  0  0  0  0  0  0
    2.9619    2.0519    0.0799 H   0  0  0  0  0  0  0  0  0  0  0  0
    0.8018    2.7319   -0.0188 H   0  0  0  0  0  0  0  0  0  0  0  0
    4.5137    1.6828   -1.1820 H   0  0  0  0  0  0  0  0  0  0  0  0
    5.9280   -1.0864   -0.7245 H   0  0  0  0  0  0  0  0  0  0  0  0
    7.7320    0.1002   -0.8421 H   0  0  0  0  0  0  0  0  0  0  0  0
    8.2062    1.5177    0.0265 H   0  0  0  0  0  0  0  0  0  0  0  0
    7.6440    0.5320    2.1896 H   0  0  0  0  0  0  0  0  0  0  0  0
    5.7936   -0.8605    1.8201 H   0  0  0  0  0  0  0  0  0  0  0  0
    4.1166   -5.9831    2.1372 H   0  0  0  0  0  0  0  0  0  0  0  0
    4.2982   -2.6566   -0.3452 H   0  0  0  0  0  0  0  0  0  0  0  0
    2.1168   -4.0846   -0.6320 H   0  0  0  0  0  0  0  0  0  0  0  0
    2.7331   -6.9587    0.1518 H   0  0  0  0  0  0  0  0  0  0  0  0
    1.5095   -6.4172   -0.9968 H   0  0  0  0  0  0  0  0  0  0  0  0
    3.2328   -6.1569   -1.3561 H   0  0  0  0  0  0  0  0  0  0  0  0
    1.6191   -5.4968    1.7796 H   0  0  0  0  0  0  0  0  0  0  0  0
    9.8989    0.0033    1.2625 H   0  0  0  0  0  0  0  0  0  0  0  0
    9.2740   -1.3859    2.1799 H   0  0  0  0  0  0  0  0  0  0  0  0
    9.2195   -1.3685    0.3914 H   0  0  0  0  0  0  0  0  0  0  0  0
  1  6  1  0  0  0  0
  1 28  1  0  0  0  0
  2  1  2  0  0  0  0
  2 29  1  0  0  0  0
  3  2  1  0  0  0  0
  3  9  1  0  0  0  0
  4  3  2  0  0  0  0
  4 30  1  0  0  0  0
  5  4  1  0  0  0  0
  5 31  1  0  0  0  0
  6  5  2  0  0  0  0
  6  7  1  0  0  0  0
  7  8  3  0  0  0  0
 10  9  2  0  0  0  0
 10 11  1  0  0  0  0
 11 12  1  0  0  0  0
 11 14  1  0  0  0  0
 12 13  2  0  0  0  0
 12 32  1  0  0  0  0
 13  9  1  0  0  0  0
 13 33  1  0  0  0  0
 14 15  1  0  0  0  0
 14 34  1  0  0  0  0
 14 35  1  0  0  0  0
 15 16  1  0  0  0  0
 15 27  1  0  0  0  0
 15 36  1  1  0  0  0
 16 17  1  0  0  0  0
 16 37  1  0  0  0  0
 17 18  1  0  0  0  0
 17 26  2  0  0  0  0
 19 18  2  0  0  0  0
 19 20  1  0  0  0  0
 20 21  1  0  0  0  0
 20 38  1  0  0  0  0
 21 22  2  0  0  0  0
 21 23  1  0  0  0  0
 22 18  1  0  0  0  0
 22 39  1  0  0  0  0
 23 24  1  0  0  0  0
 23 25  1  0  0  0  0
 23 40  1  0  0  0  0
 24 41  1  0  0  0  0
 24 42  1  0  0  0  0
 24 43  1  0  0  0  0
 25 44  1  0  0  0  0
 27 45  1  0  0  0  0
 27 46  1  0  0  0  0
 27 47  1  0  0  0  0
M  END
>  <DRUGBANK_ID>
DB12941

>  <COMMON_NAME>
Darolutamide

>  <CAS_NUMBER>
1297538-32-9

>  <UNII>
X05U0N2RCO

>  <SYNONYMS>
Darolutamide

$$$$
