1AW
 OpenBabel10282417163D

 49 51  0  0  0  0  0  0  0  0999 V2000
    1.3985   -0.1219   -0.0183 C   0  0  0  0  0  0  0  0  0  0  0  0
    0.5504   -1.2511    0.0017 C   0  0  0  0  0  0  0  0  0  0  0  0
   -0.8369   -1.1054   -0.0155 C   0  0  0  0  0  0  0  0  0  0  0  0
   -1.3791    0.1648    0.0123 C   0  0  0  0  0  0  0  0  0  0  0  0
   -0.5370    1.2734    0.0532 C   0  0  0  0  0  0  0  0  0  0  0  0
    0.8573    1.1709   -0.0464 C   0  0  0  0  0  0  0  0  0  0  0  0
    1.6924    2.3281   -0.2175 N   0  0  0  0  0  0  0  0  0  0  0  0
    1.1937    3.6162   -0.3660 C   0  0  0  0  0  0  0  0  0  0  0  0
   -0.0095    3.8955   -0.3297 O   0  0  0  0  0  0  0  0  0  0  0  0
    2.1308    4.6157   -0.5871 N   0  0  0  0  0  0  0  0  0  0  0  0
    1.6316    5.9285   -0.6871 C   0  0  0  0  0  0  0  0  0  0  0  0
    0.6544    6.5271    0.0788 C   0  0  0  0  0  0  0  0  0  0  0  0
    0.5156    7.8523   -0.3845 C   0  0  0  0  0  0  0  0  0  0  0  0
   -0.4430    8.9117    0.1584 C   0  0  0  0  0  0  0  0  0  0  0  0
   -1.4954    9.3197   -0.8907 C   0  0  0  0  0  0  0  0  0  0  0  0
    0.3329   10.1661    0.5979 C   0  0  0  0  0  0  0  0  0  0  0  0
   -1.2068    8.3765    1.3956 C   0  0  0  0  0  0  0  0  0  0  0  0
    1.4062    8.1053   -1.3577 N   0  0  0  0  0  0  0  0  0  0  0  0
    2.0425    6.9125   -1.5712 N   0  0  0  0  0  0  0  0  0  0  0  0
    2.8831    6.7570   -2.6953 C   0  0  0  0  0  0  0  0  0  0  0  0
    3.9331    7.6623   -2.8930 C   0  0  0  0  0  0  0  0  0  0  0  0
    2.6292    5.7384   -3.6203 C   0  0  0  0  0  0  0  0  0  0  0  0
    3.4519    5.6187   -4.7380 C   0  0  0  0  0  0  0  0  0  0  0  0
    4.5094    6.5140   -4.9267 C   0  0  0  0  0  0  0  0  0  0  0  0
    4.7123    7.5852   -4.0494 C   0  0  0  0  0  0  0  0  0  0  0  0
    5.8138    8.4346   -4.2251 N   0  0  0  0  0  0  0  0  0  0  0  0
    2.4712   -0.2943   -0.0074 H   0  0  0  0  0  0  0  0  0  0  0  0
    0.9662   -2.2563    0.0155 H   0  0  0  0  0  0  0  0  0  0  0  0
   -1.4980   -1.9675   -0.0288 H   0  0  0  0  0  0  0  0  0  0  0  0
   -2.4539    0.3242   -0.0009 H   0  0  0  0  0  0  0  0  0  0  0  0
   -1.0442    2.2218    0.1627 H   0  0  0  0  0  0  0  0  0  0  0  0
    2.6821    2.1688   -0.3473 H   0  0  0  0  0  0  0  0  0  0  0  0
    3.0280    4.4017   -1.0010 H   0  0  0  0  0  0  0  0  0  0  0  0
    0.1233    6.0600    0.8959 H   0  0  0  0  0  0  0  0  0  0  0  0
   -2.0942    8.4600   -1.2128 H   0  0  0  0  0  0  0  0  0  0  0  0
   -2.1888   10.0672   -0.4822 H   0  0  0  0  0  0  0  0  0  0  0  0
   -1.0316    9.7563   -1.7815 H   0  0  0  0  0  0  0  0  0  0  0  0
    0.8561   10.6301   -0.2454 H   0  0  0  0  0  0  0  0  0  0  0  0
   -0.3397   10.9197    1.0245 H   0  0  0  0  0  0  0  0  0  0  0  0
    1.0816    9.9174    1.3586 H   0  0  0  0  0  0  0  0  0  0  0  0
   -1.8104    7.4961    1.1407 H   0  0  0  0  0  0  0  0  0  0  0  0
   -0.5120    8.0827    2.1918 H   0  0  0  0  0  0  0  0  0  0  0  0
   -1.8864    9.1274    1.8129 H   0  0  0  0  0  0  0  0  0  0  0  0
    4.1533    8.4069   -2.1315 H   0  0  0  0  0  0  0  0  0  0  0  0
    1.7718    5.0770   -3.5122 H   0  0  0  0  0  0  0  0  0  0  0  0
    3.2629    4.8431   -5.4761 H   0  0  0  0  0  0  0  0  0  0  0  0
    5.1668    6.3805   -5.7824 H   0  0  0  0  0  0  0  0  0  0  0  0
    5.6980    9.3376   -3.7721 H   0  0  0  0  0  0  0  0  0  0  0  0
    6.0778    8.5435   -5.2009 H   0  0  0  0  0  0  0  0  0  0  0  0
  1 27  1  0  0  0  0
  2  1  1  0  0  0  0
  2 28  1  0  0  0  0
  3  2  2  0  0  0  0
  3 29  1  0  0  0  0
  4  3  1  0  0  0  0
  4  5  2  0  0  0  0
  4 30  1  0  0  0  0
  5  6  1  0  0  0  0
  5 31  1  0  0  0  0
  6  1  2  0  0  0  0
  6  7  1  0  0  0  0
  7 32  1  0  0  0  0
  8  7  1  0  0  0  0
  8 10  1  0  0  0  0
  9  8  2  0  0  0  0
 10 33  1  0  0  0  0
 11 10  1  0  0  0  0
 11 19  1  0  0  0  0
 12 11  2  0  0  0  0
 12 13  1  0  0  0  0
 12 34  1  0  0  0  0
 13 18  2  0  0  0  0
 14 13  1  0  0  0  0
 14 16  1  0  0  0  0
 15 14  1  0  0  0  0
 15 35  1  0  0  0  0
 15 36  1  0  0  0  0
 15 37  1  0  0  0  0
 16 38  1  0  0  0  0
 16 39  1  0  0  0  0
 16 40  1  0  0  0  0
 17 14  1  0  0  0  0
 17 41  1  0  0  0  0
 17 42  1  0  0  0  0
 17 43  1  0  0  0  0
 18 19  1  0  0  0  0
 19 20  1  0  0  0  0
 20 22  2  0  0  0  0
 20 21  1  0  0  0  0
 21 25  2  0  0  0  0
 21 44  1  0  0  0  0
 22 23  1  0  0  0  0
 22 45  1  0  0  0  0
 23 24  2  0  0  0  0
 23 46  1  0  0  0  0
 24 47  1  0  0  0  0
 25 24  1  0  0  0  0
 25 26  1  0  0  0  0
 26 48  1  0  0  0  0
 26 49  1  0  0  0  0
M  END
>  <DRUGBANK_ID>
DB06883

>  <COMMON_NAME>
1-[1-(3-aminophenyl)-3-tert-butyl-1H-pyrazol-5-yl]-3-phenylurea

$$$$
