
 OpenBabel10282417173D

 47 47  0  0  0  0  0  0  0  0999 V2000
    0.9699    0.0185    0.0201 C   0  0  0  0  0  0  0  0  0  0  0  0
   -2.7488    0.5882    5.5518 C   0  0  0  0  0  0  0  0  0  0  0  0
   -0.4781   -4.5083   -2.3665 C   0  0  0  0  0  0  0  0  0  0  0  0
    4.3226   -2.7791   -2.0843 C   0  0  0  0  0  0  0  0  0  0  0  0
    5.2225   -5.2553   -3.3721 C   0  0  0  0  0  0  0  0  0  0  0  0
   -0.7570   -0.3062    2.4542 C   0  0  0  0  0  0  0  0  0  0  0  0
   -0.3557   -1.4252    1.6190 C   0  0  0  0  0  0  0  0  0  0  0  0
   -1.5205   -0.3310    3.5570 C   0  0  0  0  0  0  0  0  0  0  0  0
    0.7974   -2.4865   -0.2627 C   0  0  0  0  0  0  0  0  0  0  0  0
    1.4848   -2.4718   -1.4197 C   0  0  0  0  0  0  0  0  0  0  0  0
   -1.4790    2.1191    4.0619 C   0  0  0  0  0  0  0  0  0  0  0  0
    1.4769   -5.8325   -3.2131 C   0  0  0  0  0  0  0  0  0  0  0  0
    0.4208   -1.3018    0.5158 C   0  0  0  0  0  0  0  0  0  0  0  0
   -1.8795    0.8586    4.3519 C   0  0  0  0  0  0  0  0  0  0  0  0
    1.0063   -4.6719   -2.5703 C   0  0  0  0  0  0  0  0  0  0  0  0
    3.3049   -3.8340   -2.4519 C   0  0  0  0  0  0  0  0  0  0  0  0
    3.7613   -5.0131   -3.0923 C   0  0  0  0  0  0  0  0  0  0  0  0
    1.9258   -3.6798   -2.1519 C   0  0  0  0  0  0  0  0  0  0  0  0
    2.8374   -5.9992   -3.4549 C   0  0  0  0  0  0  0  0  0  0  0  0
   -1.7844    3.3669    4.7930 C   0  0  0  0  0  0  0  0  0  0  0  0
    3.3112   -7.1351   -4.0548 O   0  0  0  0  0  0  0  0  0  0  0  0
   -1.3747    4.4689    4.4525 O   0  0  0  0  0  0  0  0  0  0  0  0
   -2.5546    3.2182    5.8762 O   0  0  0  0  0  0  0  0  0  0  0  0
   -0.3885    0.6561    2.1408 H   0  0  0  0  0  0  0  0  0  0  0  0
   -0.7162   -2.4083    1.9221 H   0  0  0  0  0  0  0  0  0  0  0  0
   -1.9091   -1.2881    3.9019 H   0  0  0  0  0  0  0  0  0  0  0  0
    0.4988   -3.4474    0.1520 H   0  0  0  0  0  0  0  0  0  0  0  0
    1.8257   -1.5368   -1.8551 H   0  0  0  0  0  0  0  0  0  0  0  0
   -0.8524    2.3336    3.2022 H   0  0  0  0  0  0  0  0  0  0  0  0
    0.6966    0.8835    0.6218 H   0  0  0  0  0  0  0  0  0  0  0  0
    0.5991    0.2337   -0.9868 H   0  0  0  0  0  0  0  0  0  0  0  0
    2.0646   -0.0025    0.0171 H   0  0  0  0  0  0  0  0  0  0  0  0
   -2.2301    0.9037    6.4649 H   0  0  0  0  0  0  0  0  0  0  0  0
   -3.6938    1.1362    5.4567 H   0  0  0  0  0  0  0  0  0  0  0  0
   -3.0059   -0.4644    5.6824 H   0  0  0  0  0  0  0  0  0  0  0  0
   -0.7223   -4.4430   -1.3044 H   0  0  0  0  0  0  0  0  0  0  0  0
   -0.8336   -3.6088   -2.8806 H   0  0  0  0  0  0  0  0  0  0  0  0
   -1.0394   -5.3627   -2.7554 H   0  0  0  0  0  0  0  0  0  0  0  0
    5.0410   -3.1971   -1.3726 H   0  0  0  0  0  0  0  0  0  0  0  0
    4.8406   -2.4377   -2.9879 H   0  0  0  0  0  0  0  0  0  0  0  0
    3.9039   -1.8882   -1.6165 H   0  0  0  0  0  0  0  0  0  0  0  0
    5.5607   -6.1445   -2.8310 H   0  0  0  0  0  0  0  0  0  0  0  0
    5.3845   -5.3853   -4.4462 H   0  0  0  0  0  0  0  0  0  0  0  0
    5.8655   -4.4327   -3.0537 H   0  0  0  0  0  0  0  0  0  0  0  0
    0.7717   -6.6024   -3.5147 H   0  0  0  0  0  0  0  0  0  0  0  0
    2.5752   -7.7369   -4.2474 H   0  0  0  0  0  0  0  0  0  0  0  0
   -2.6776    4.1079    6.2604 H   0  0  0  0  0  0  0  0  0  0  0  0
  1 30  1  0  0  0  0
  1 31  1  0  0  0  0
  1 32  1  0  0  0  0
  2 33  1  0  0  0  0
  2 34  1  0  0  0  0
  2 35  1  0  0  0  0
  3 36  1  0  0  0  0
  3 37  1  0  0  0  0
  3 38  1  0  0  0  0
  4 39  1  0  0  0  0
  4 40  1  0  0  0  0
  4 41  1  0  0  0  0
  5 42  1  0  0  0  0
  5 43  1  0  0  0  0
  5 44  1  0  0  0  0
  7  6  1  0  0  0  0
  8  6  2  0  0  0  0
 10  9  2  0  0  0  0
 12 45  1  0  0  0  0
 13  1  1  0  0  0  0
 13  7  2  0  0  0  0
 13  9  1  0  0  0  0
 14  2  1  0  0  0  0
 14  8  1  0  0  0  0
 14 11  2  0  0  0  0
 15  3  1  0  0  0  0
 15 12  1  0  0  0  0
 16  4  1  0  0  0  0
 17  5  1  0  0  0  0
 17 16  2  0  0  0  0
 18 10  1  0  0  0  0
 18 15  2  0  0  0  0
 18 16  1  0  0  0  0
 19 12  2  0  0  0  0
 19 17  1  0  0  0  0
 20 11  1  0  0  0  0
 21 19  1  0  0  0  0
 21 46  1  0  0  0  0
 22 20  2  0  0  0  0
 23 20  1  0  0  0  0
 23 47  1  0  0  0  0
 24  6  1  0  0  0  0
 25  7  1  0  0  0  0
 26  8  1  0  0  0  0
 27  9  1  0  0  0  0
 28 10  1  0  0  0  0
 29 11  1  0  0  0  0
M  END
>  <DRUGBANK_ID>
DB08455

>  <COMMON_NAME>
Ro 12-7310

>  <CAS_NUMBER>
65316-65-6

>  <UNII>
G2CPU7AI1D

>  <SYNONYMS>
(2E,4E,6E,8E)-9-(4-Hydroxy-2,3,6-trimethylphenyl)-3,7-dimethyl-2,4,6,8-nonatetraenoic acid

$$$$
