
 OpenBabel10282417193D

 72 76  0  0  1  0  0  0  0  0999 V2000
    1.4049    0.1068   -0.3500 C   0  0  0  0  0  0  0  0  0  0  0  0
    0.3119    0.7381    1.1265 C   0  0  1  0  0  0  0  0  0  0  0  0
    0.0851    2.2022    1.2532 C   0  0  0  0  0  0  0  0  0  0  0  0
    1.1762    3.2085    0.6478 C   0  0  1  0  0  0  0  0  0  0  0  0
    2.4958    3.2829    1.4607 C   0  0  0  0  0  0  0  0  0  0  0  0
    3.4565    4.4500    1.8143 C   0  0  0  0  0  0  0  0  0  0  0  0
    4.1508    6.2781    1.8417 C   0  0  0  0  0  0  0  0  0  0  0  0
    4.2456    7.1126    3.3544 C   0  0  0  0  0  0  0  0  0  0  0  0
    3.3338    6.0960    3.7846 C   0  0  0  0  0  0  0  0  0  0  0  0
    2.1527    6.1835    3.4428 O   0  0  0  0  0  0  0  0  0  0  0  0
    4.1141    4.8574    4.0406 C   0  0  0  0  0  0  0  0  0  0  0  0
    4.0852    3.9708    3.0336 C   0  0  0  0  0  0  0  0  0  0  0  0
    4.4839    2.5609    3.3333 C   0  0  0  0  0  0  0  0  0  0  0  0
    3.7372    1.2755    2.8443 C   0  0  0  0  0  0  0  0  0  0  0  0
    2.5452    1.4350    1.8191 C   0  0  1  0  0  0  0  0  0  0  0  0
    1.3712   -0.1084    1.4038 C   0  0  2  0  0  0  0  0  0  0  0  0
   -0.3876   -0.6115    0.3449 C   0  0  0  0  0  0  0  0  0  0  0  0
   -1.7068   -0.4420    1.1152 C   0  0  0  0  0  0  0  0  0  0  0  0
   -0.6813   -0.4401    2.1181 C   0  0  2  0  0  0  0  0  0  0  0  0
   -1.1284   -0.0692    3.4899 C   0  0  0  0  0  0  0  0  0  0  0  0
   -0.6391   -1.1048    4.5072 C   0  0  0  0  0  0  0  0  0  0  0  0
    0.8883   -1.2837    4.5224 C   0  0  0  0  0  0  0  0  0  0  0  0
    1.5096   -0.0302    4.7259 O   0  0  0  0  0  0  0  0  0  0  0  0
   -0.3273   -1.9295    2.0239 O   0  0  0  0  0  0  0  0  0  0  0  0
    1.4993    2.8095   -0.7844 C   0  0  0  0  0  0  0  0  0  0  0  0
    0.4975    2.6708   -1.7476 C   0  0  0  0  0  0  0  0  0  0  0  0
    0.8162    2.1622   -3.0211 C   0  0  0  0  0  0  0  0  0  0  0  0
    2.1197    1.7399   -3.3703 C   0  0  0  0  0  0  0  0  0  0  0  0
    3.0878    1.8618   -2.3840 C   0  0  0  0  0  0  0  0  0  0  0  0
    2.7896    2.3690   -1.1367 C   0  0  0  0  0  0  0  0  0  0  0  0
    2.4391    1.2060   -4.6031 N   0  0  0  0  0  0  0  0  0  0  0  0
    3.7853    0.7617   -4.9438 C   0  0  0  0  0  0  0  0  0  0  0  0
    1.4243    1.1142   -5.6355 C   0  0  0  0  0  0  0  0  0  0  0  0
    0.9959    0.4772   -1.2602 H   0  0  0  0  0  0  0  0  0  0  0  0
    1.3419   -1.0208   -0.5216 H   0  0  0  0  0  0  0  0  0  0  0  0
    2.4972    0.1226   -0.2786 H   0  0  0  0  0  0  0  0  0  0  0  0
   -0.8505    2.3171    0.6853 H   0  0  0  0  0  0  0  0  0  0  0  0
   -0.2033    2.4530    2.2846 H   0  0  0  0  0  0  0  0  0  0  0  0
    0.6787    4.1753    0.6566 H   0  0  0  0  0  0  0  0  0  0  0  0
    3.7087    7.1782    1.3488 H   0  0  0  0  0  0  0  0  0  0  0  0
    5.2072    6.3626    1.4555 H   0  0  0  0  0  0  0  0  0  0  0  0
    3.7047    8.0584    3.5865 H   0  0  0  0  0  0  0  0  0  0  0  0
    5.1880    7.1250    3.9424 H   0  0  0  0  0  0  0  0  0  0  0  0
    5.0861    4.9313    4.5266 H   0  0  0  0  0  0  0  0  0  0  0  0
    4.3995    2.4996    4.4269 H   0  0  0  0  0  0  0  0  0  0  0  0
    5.5524    2.4763    3.1074 H   0  0  0  0  0  0  0  0  0  0  0  0
    3.4872    0.6691    3.7150 H   0  0  0  0  0  0  0  0  0  0  0  0
    4.5390    0.6817    2.3677 H   0  0  0  0  0  0  0  0  0  0  0  0
    3.2070    1.1417    1.0107 H   0  0  0  0  0  0  0  0  0  0  0  0
    1.5477   -0.8167    2.1618 H   0  0  0  0  0  0  0  0  0  0  0  0
   -0.5097   -1.5651   -0.2237 H   0  0  0  0  0  0  0  0  0  0  0  0
   -0.6233    0.0253   -0.5584 H   0  0  0  0  0  0  0  0  0  0  0  0
   -2.4002   -1.2958    1.1430 H   0  0  0  0  0  0  0  0  0  0  0  0
   -2.2407    0.4893    0.9041 H   0  0  0  0  0  0  0  0  0  0  0  0
   -0.7470    0.9207    3.7253 H   0  0  0  0  0  0  0  0  0  0  0  0
   -2.2233   -0.0016    3.5143 H   0  0  0  0  0  0  0  0  0  0  0  0
   -0.9677   -0.7760    5.4890 H   0  0  0  0  0  0  0  0  0  0  0  0
   -1.1432   -2.0657    4.3214 H   0  0  0  0  0  0  0  0  0  0  0  0
    1.1952   -1.9892    5.2905 H   0  0  0  0  0  0  0  0  0  0  0  0
    1.3285   -1.7463    3.6389 H   0  0  0  0  0  0  0  0  0  0  0  0
    1.2708    0.5562    3.9853 H   0  0  0  0  0  0  0  0  0  0  0  0
   -0.1607   -2.4355    2.8184 H   0  0  0  0  0  0  0  0  0  0  0  0
   -0.5496    2.8063   -1.4831 H   0  0  0  0  0  0  0  0  0  0  0  0
   -0.0062    2.0675   -3.7217 H   0  0  0  0  0  0  0  0  0  0  0  0
    4.1164    1.5522   -2.4974 H   0  0  0  0  0  0  0  0  0  0  0  0
    3.5908    2.2143   -0.4191 H   0  0  0  0  0  0  0  0  0  0  0  0
    3.7665   -0.2862   -5.2542 H   0  0  0  0  0  0  0  0  0  0  0  0
    4.1890    1.3794   -5.7500 H   0  0  0  0  0  0  0  0  0  0  0  0
    4.5202    0.8067   -4.1388 H   0  0  0  0  0  0  0  0  0  0  0  0
    0.6225    0.4333   -5.3289 H   0  0  0  0  0  0  0  0  0  0  0  0
    0.9990    2.1008   -5.8503 H   0  0  0  0  0  0  0  0  0  0  0  0
    1.8459    0.7292   -6.5681 H   0  0  0  0  0  0  0  0  0  0  0  0
  1 34  1  0  0  0  0
  1 35  1  0  0  0  0
  1 36  1  0  0  0  0
  2  1  1  1  0  0  0
  2  3  1  0  0  0  0
  2 16  1  0  0  0  0
  2 19  1  0  0  0  0
  3  4  1  0  0  0  0
  3 37  1  0  0  0  0
  3 38  1  0  0  0  0
  4  5  1  0  0  0  0
  4 25  1  0  0  0  0
  4 39  1  6  0  0  0
  5  6  2  0  0  0  0
  5 15  1  0  0  0  0
  6  7  1  0  0  0  0
  6 12  1  0  0  0  0
  7  8  1  0  0  0  0
  7 40  1  0  0  0  0
  7 41  1  0  0  0  0
  8  9  1  0  0  0  0
  8 42  1  0  0  0  0
  8 43  1  0  0  0  0
  9 10  2  0  0  0  0
  9 11  1  0  0  0  0
 11 12  2  0  0  0  0
 11 44  1  0  0  0  0
 12 13  1  0  0  0  0
 13 14  1  0  0  0  0
 13 45  1  0  0  0  0
 13 46  1  0  0  0  0
 14 47  1  0  0  0  0
 14 48  1  0  0  0  0
 15 14  1  0  0  0  0
 15 16  1  0  0  0  0
 15 49  1  6  0  0  0
 16 17  1  0  0  0  0
 16 50  1  1  0  0  0
 17 18  1  0  0  0  0
 17 51  1  0  0  0  0
 17 52  1  0  0  0  0
 18 19  1  0  0  0  0
 18 53  1  0  0  0  0
 18 54  1  0  0  0  0
 19 24  1  1  0  0  0
 19 20  1  0  0  0  0
 20 21  1  0  0  0  0
 20 55  1  0  0  0  0
 20 56  1  0  0  0  0
 21 22  1  0  0  0  0
 21 57  1  0  0  0  0
 21 58  1  0  0  0  0
 22 23  1  0  0  0  0
 22 59  1  0  0  0  0
 22 60  1  0  0  0  0
 23 61  1  0  0  0  0
 24 62  1  0  0  0  0
 25 26  2  0  0  0  0
 25 30  1  0  0  0  0
 26 27  1  0  0  0  0
 26 63  1  0  0  0  0
 27 28  2  0  0  0  0
 27 64  1  0  0  0  0
 28 29  1  0  0  0  0
 28 31  1  0  0  0  0
 29 30  2  0  0  0  0
 29 65  1  0  0  0  0
 30 66  1  0  0  0  0
 31 32  1  0  0  0  0
 31 33  1  0  0  0  0
 32 67  1  0  0  0  0
 32 68  1  0  0  0  0
 32 69  1  0  0  0  0
 33 70  1  0  0  0  0
 33 71  1  0  0  0  0
 33 72  1  0  0  0  0
M  END
>  <DRUGBANK_ID>
DB12637

>  <COMMON_NAME>
Onapristone

>  <CAS_NUMBER>
96346-61-1

>  <UNII>
H6H7G23O3N

>  <SYNONYMS>
Onapristone

$$$$
