
 OpenBabel10282417193D

 60 59  0  0  0  0  0  0  0  0999 V2000
    1.0366   -0.0232   -0.0511 C   0  0  0  0  0  0  0  0  0  0  0  0
    0.5306    0.1226    1.3927 C   0  0  0  0  0  0  0  0  0  0  0  0
    0.9743    1.4670    1.9638 C   0  0  0  0  0  0  0  0  0  0  0  0
   -1.0213    0.0832    1.3436 C   0  0  0  0  0  0  0  0  0  0  0  0
   -1.5830   -1.2179    0.7535 C   0  0  0  0  0  0  0  0  0  0  0  0
   -1.1681   -2.4192    1.5929 C   0  0  0  0  0  0  0  0  0  0  0  0
   -1.6715   -2.2434    3.0309 C   0  0  0  0  0  0  0  0  0  0  0  0
   -3.1910   -2.2358    3.0103 C   0  0  0  0  0  0  0  0  0  0  0  0
   -3.6657   -3.5448    2.3720 C   0  0  0  0  0  0  0  0  0  0  0  0
   -3.1663   -4.7061    3.2284 C   0  0  0  0  0  0  0  0  0  0  0  0
   -3.6577   -4.5466    4.6606 C   0  0  0  0  0  0  0  0  0  0  0  0
   -5.1930   -4.5620    4.7307 C   0  0  0  0  0  0  0  0  0  0  0  0
   -5.7047   -5.8831    4.1847 C   0  0  0  0  0  0  0  0  0  0  0  0
   -5.1968   -7.0138    5.0883 C   0  0  0  0  0  0  0  0  0  0  0  0
   -5.6500   -6.8717    6.5752 C   0  0  0  0  0  0  0  0  0  0  0  0
   -7.1888   -6.8598    6.5611 C   0  0  0  0  0  0  0  0  0  0  0  0
   -5.1374   -8.0896    7.3357 C   0  0  0  0  0  0  0  0  0  0  0  0
   -5.0521   -5.6930    7.3978 C   0  0  0  0  0  0  0  0  0  0  0  0
   -3.9910   -5.1326    7.2645 O   0  0  0  0  0  0  0  0  0  0  0  0
   -5.8121   -5.2813    8.4304 O   0  0  0  0  0  0  0  0  0  0  0  0
   -5.0631   -3.5383    2.1480 O   0  0  0  0  0  0  0  0  0  0  0  0
    1.2158   -0.9388    2.2722 C   0  0  0  0  0  0  0  0  0  0  0  0
    1.9709   -1.8211    1.8907 O   0  0  0  0  0  0  0  0  0  0  0  0
    0.8464   -0.9002    3.5690 O   0  0  0  0  0  0  0  0  0  0  0  0
    0.6327    0.7747   -0.6839 H   0  0  0  0  0  0  0  0  0  0  0  0
    0.7381   -0.9793   -0.4965 H   0  0  0  0  0  0  0  0  0  0  0  0
    2.1264    0.0047   -0.0964 H   0  0  0  0  0  0  0  0  0  0  0  0
    0.6004    2.2971    1.3600 H   0  0  0  0  0  0  0  0  0  0  0  0
    0.6068    1.5996    2.9888 H   0  0  0  0  0  0  0  0  0  0  0  0
    2.0672    1.5166    1.9971 H   0  0  0  0  0  0  0  0  0  0  0  0
   -1.4495    0.2810    2.3345 H   0  0  0  0  0  0  0  0  0  0  0  0
   -1.3996    0.9121    0.7298 H   0  0  0  0  0  0  0  0  0  0  0  0
   -2.6753   -1.1470    0.6835 H   0  0  0  0  0  0  0  0  0  0  0  0
   -1.2728   -1.3630   -0.2831 H   0  0  0  0  0  0  0  0  0  0  0  0
   -1.5064   -3.3433    1.1230 H   0  0  0  0  0  0  0  0  0  0  0  0
   -0.1044   -2.6044    1.5639 H   0  0  0  0  0  0  0  0  0  0  0  0
   -1.2380   -3.0148    3.6768 H   0  0  0  0  0  0  0  0  0  0  0  0
   -1.3624   -1.3173    3.5129 H   0  0  0  0  0  0  0  0  0  0  0  0
   -3.5727   -2.0709    4.0239 H   0  0  0  0  0  0  0  0  0  0  0  0
   -3.5944   -1.3731    2.4751 H   0  0  0  0  0  0  0  0  0  0  0  0
   -3.2858   -3.6844    1.3652 H   0  0  0  0  0  0  0  0  0  0  0  0
   -3.4625   -5.6659    2.8020 H   0  0  0  0  0  0  0  0  0  0  0  0
   -2.0709   -4.7723    3.2465 H   0  0  0  0  0  0  0  0  0  0  0  0
   -3.1782   -5.3553    5.2156 H   0  0  0  0  0  0  0  0  0  0  0  0
   -3.2701   -3.6502    5.1554 H   0  0  0  0  0  0  0  0  0  0  0  0
   -5.5836   -4.3781    5.7255 H   0  0  0  0  0  0  0  0  0  0  0  0
   -5.6638   -3.7091    4.2610 H   0  0  0  0  0  0  0  0  0  0  0  0
   -6.7942   -5.8680    4.1099 H   0  0  0  0  0  0  0  0  0  0  0  0
   -5.3865   -6.0542    3.1495 H   0  0  0  0  0  0  0  0  0  0  0  0
   -5.5636   -7.9584    4.6633 H   0  0  0  0  0  0  0  0  0  0  0  0
   -4.1055   -7.1049    5.0224 H   0  0  0  0  0  0  0  0  0  0  0  0
   -7.5698   -7.7706    6.0827 H   0  0  0  0  0  0  0  0  0  0  0  0
   -7.6111   -6.7959    7.5637 H   0  0  0  0  0  0  0  0  0  0  0  0
   -7.5950   -6.0083    6.0026 H   0  0  0  0  0  0  0  0  0  0  0  0
   -4.0403   -8.1025    7.3348 H   0  0  0  0  0  0  0  0  0  0  0  0
   -5.4671   -8.0462    8.3782 H   0  0  0  0  0  0  0  0  0  0  0  0
   -5.4967   -9.0194    6.8904 H   0  0  0  0  0  0  0  0  0  0  0  0
   -5.2635   -4.5279    8.7476 H   0  0  0  0  0  0  0  0  0  0  0  0
   -5.4557   -2.8884    2.7508 H   0  0  0  0  0  0  0  0  0  0  0  0
    1.1154   -1.7700    3.9380 H   0  0  0  0  0  0  0  0  0  0  0  0
  1  2  1  0  0  0  0
  1 25  1  0  0  0  0
  1 26  1  0  0  0  0
  1 27  1  0  0  0  0
  2  3  1  0  0  0  0
  2  4  1  0  0  0  0
  2 22  1  0  0  0  0
  3 28  1  0  0  0  0
  3 29  1  0  0  0  0
  3 30  1  0  0  0  0
  4  5  1  0  0  0  0
  4 31  1  0  0  0  0
  4 32  1  0  0  0  0
  5  6  1  0  0  0  0
  5 33  1  0  0  0  0
  5 34  1  0  0  0  0
  6  7  1  0  0  0  0
  6 35  1  0  0  0  0
  6 36  1  0  0  0  0
  7  8  1  0  0  0  0
  7 37  1  0  0  0  0
  7 38  1  0  0  0  0
  8  9  1  0  0  0  0
  8 39  1  0  0  0  0
  8 40  1  0  0  0  0
  9 10  1  0  0  0  0
  9 21  1  0  0  0  0
  9 41  1  0  0  0  0
 10 11  1  0  0  0  0
 10 42  1  0  0  0  0
 10 43  1  0  0  0  0
 11 12  1  0  0  0  0
 11 44  1  0  0  0  0
 11 45  1  0  0  0  0
 12 13  1  0  0  0  0
 12 46  1  0  0  0  0
 12 47  1  0  0  0  0
 13 14  1  0  0  0  0
 13 48  1  0  0  0  0
 13 49  1  0  0  0  0
 14 15  1  0  0  0  0
 14 50  1  0  0  0  0
 14 51  1  0  0  0  0
 15 16  1  0  0  0  0
 15 17  1  0  0  0  0
 15 18  1  0  0  0  0
 16 52  1  0  0  0  0
 16 53  1  0  0  0  0
 16 54  1  0  0  0  0
 17 55  1  0  0  0  0
 17 56  1  0  0  0  0
 17 57  1  0  0  0  0
 18 19  2  0  0  0  0
 18 20  1  0  0  0  0
 20 58  1  0  0  0  0
 21 59  1  0  0  0  0
 22 23  2  0  0  0  0
 22 24  1  0  0  0  0
 24 60  1  0  0  0  0
M  END
>  <DRUGBANK_ID>
DB11936

>  <COMMON_NAME>
Bempedoic acid

>  <CAS_NUMBER>
738606-46-7

>  <UNII>
1EJ6Z6Q368

>  <SYNONYMS>
Bempedoic acid

$$$$
