
 OpenBabel10282417223D

 72 77  0  0  0  0  0  0  0  0999 V2000
   -0.9194   -1.0623   -0.2480 C   0  0  2  0  0  0  0  0  0  0  0  0
   -1.3586    0.3024   -0.1672 O   0  0  0  0  0  0  0  0  0  0  0  0
   -0.2729    1.2109   -0.4824 C   0  0  0  0  0  0  0  0  0  0  0  0
    0.9827    0.4240   -0.4407 C   0  0  0  0  0  0  0  0  0  0  0  0
    0.5759   -0.9951   -0.4384 C   0  0  0  0  0  0  0  0  0  0  0  0
    2.9118    1.0525    2.0028 C   0  0  0  0  0  0  0  0  0  0  0  0
    3.2628   -0.2639    1.6989 C   0  0  0  0  0  0  0  0  0  0  0  0
    2.4669   -1.3297    2.0827 C   0  0  0  0  0  0  0  0  0  0  0  0
    1.2634   -1.1692    2.7812 C   0  0  0  0  0  0  0  0  0  0  0  0
    0.8577    0.1455    3.0522 C   0  0  0  0  0  0  0  0  0  0  0  0
    1.7022    1.2270    2.7293 C   0  0  0  0  0  0  0  0  0  0  0  0
    0.3753   -2.3864    3.0259 C   0  0  1  0  0  0  0  0  0  0  0  0
   -1.0959   -2.0453    2.4121 C   0  0  0  0  0  0  0  0  0  0  0  0
    0.6003   -3.9368    1.0075 C   0  0  1  0  0  0  0  0  0  0  0  0
    1.1068   -3.7939    2.5941 C   0  0  0  0  0  0  0  0  0  0  0  0
    1.6973   -6.1531    0.9360 C   0  0  2  0  0  0  0  0  0  0  0  0
    0.9427   -5.1357    0.1507 C   0  0  0  0  0  0  0  0  0  0  0  0
    1.8020   -5.9936    2.4201 C   0  0  0  0  0  0  0  0  0  0  0  0
    2.0388   -4.7533    3.1725 C   0  0  0  0  0  0  0  0  0  0  0  0
    3.1618   -5.4203    4.5304 C   0  0  0  0  0  0  0  0  0  0  0  0
    2.8010   -6.9214    5.1429 C   0  0  0  0  0  0  0  0  0  0  0  0
    1.4899   -6.8035    4.5869 C   0  0  0  0  0  0  0  0  0  0  0  0
    1.5466   -7.0843    3.1560 C   0  0  0  0  0  0  0  0  0  0  0  0
   -1.3479   -1.9582    0.9130 C   0  0  1  0  0  0  0  0  0  0  0  0
   -0.6819   -3.2970    0.3775 C   0  0  1  0  0  0  0  0  0  0  0  0
   -1.8544   -3.6365   -0.4340 C   0  0  0  0  0  0  0  0  0  0  0  0
   -1.6396   -2.0809   -1.3201 C   0  0  0  0  0  0  0  0  0  0  0  0
   -3.0606   -1.6773    0.7906 C   0  0  0  0  0  0  0  0  0  0  0  0
    1.3699   -3.2785    0.5665 H   0  0  0  0  0  0  0  0  0  0  0  0
    3.0704   -6.3086    0.3431 C   0  0  0  0  0  0  0  0  0  0  0  0
   -0.1318   -3.2364   -0.5912 H   0  0  0  0  0  0  0  0  0  0  0  0
    0.6254   -6.0723    5.1660 O   0  0  0  0  0  0  0  0  0  0  0  0
    3.5603    2.1143    1.3866 N   0  0  0  0  0  0  0  0  0  0  0  0
    4.7047    1.9404    0.4994 C   0  0  0  0  0  0  0  0  0  0  0  0
    3.1601    3.4752    1.6975 C   0  0  0  0  0  0  0  0  0  0  0  0
   -0.2155    2.0466    0.2390 H   0  0  0  0  0  0  0  0  0  0  0  0
   -0.4069    1.6210   -1.4792 H   0  0  0  0  0  0  0  0  0  0  0  0
    1.3311    0.6357    0.5363 H   0  0  0  0  0  0  0  0  0  0  0  0
    1.8344    0.6804   -1.0733 H   0  0  0  0  0  0  0  0  0  0  0  0
    0.9475   -1.4132    0.4641 H   0  0  0  0  0  0  0  0  0  0  0  0
    1.0480   -1.5925   -1.2164 H   0  0  0  0  0  0  0  0  0  0  0  0
    4.0192   -0.5270    0.9687 H   0  0  0  0  0  0  0  0  0  0  0  0
    2.6884   -2.2544    1.5573 H   0  0  0  0  0  0  0  0  0  0  0  0
   -0.1627    0.3787    3.3656 H   0  0  0  0  0  0  0  0  0  0  0  0
    1.2843    2.2210    2.8737 H   0  0  0  0  0  0  0  0  0  0  0  0
    0.1810   -2.4562    4.0994 H   0  0  0  0  0  0  0  0  0  0  0  0
   -1.5445   -1.1416    2.8393 H   0  0  0  0  0  0  0  0  0  0  0  0
   -1.7739   -2.8537    2.7488 H   0  0  0  0  0  0  0  0  0  0  0  0
    1.0891   -7.0525    0.7786 H   0  0  0  0  0  0  0  0  0  0  0  0
    0.0616   -5.5896   -0.3263 H   0  0  0  0  0  0  0  0  0  0  0  0
    1.5075   -4.8010   -0.7465 H   0  0  0  0  0  0  0  0  0  0  0  0
    3.2947   -4.8785    5.4815 H   0  0  0  0  0  0  0  0  0  0  0  0
    4.2108   -5.5407    4.1613 H   0  0  0  0  0  0  0  0  0  0  0  0
    2.6476   -7.1150    6.2203 H   0  0  0  0  0  0  0  0  0  0  0  0
    3.3119   -7.8198    4.7279 H   0  0  0  0  0  0  0  0  0  0  0  0
    2.0755   -7.9587    2.7883 H   0  0  0  0  0  0  0  0  0  0  0  0
   -1.8310   -4.5828   -0.9675 H   0  0  0  0  0  0  0  0  0  0  0  0
   -2.5669   -3.8089    0.4059 H   0  0  0  0  0  0  0  0  0  0  0  0
   -2.5327   -1.6622   -1.7880 H   0  0  0  0  0  0  0  0  0  0  0  0
   -0.9038   -2.1957   -2.1232 H   0  0  0  0  0  0  0  0  0  0  0  0
   -3.2968   -0.6477    1.0759 H   0  0  0  0  0  0  0  0  0  0  0  0
   -3.5133   -1.7400   -0.2189 H   0  0  0  0  0  0  0  0  0  0  0  0
   -3.6667   -2.3899    1.3515 H   0  0  0  0  0  0  0  0  0  0  0  0
    3.0561   -6.2168   -0.7472 H   0  0  0  0  0  0  0  0  0  0  0  0
    3.7406   -5.5379    0.7374 H   0  0  0  0  0  0  0  0  0  0  0  0
    3.4386   -7.2986    0.6043 H   0  0  0  0  0  0  0  0  0  0  0  0
    4.5763    2.5269   -0.4169 H   0  0  0  0  0  0  0  0  0  0  0  0
    5.6111    2.2640    1.0148 H   0  0  0  0  0  0  0  0  0  0  0  0
    4.8839    0.9217    0.1499 H   0  0  0  0  0  0  0  0  0  0  0  0
    2.1804    3.7081    1.2619 H   0  0  0  0  0  0  0  0  0  0  0  0
    3.1171    3.6194    2.7815 H   0  0  0  0  0  0  0  0  0  0  0  0
    3.8776    4.1984    1.3004 H   0  0  0  0  0  0  0  0  0  0  0  0
  1  5  1  0  0  0  0
  1  2  1  6  0  0  0
  1 24  1  0  0  0  0
  2  3  1  0  0  0  0
  3  4  1  0  0  0  0
  3 36  1  0  0  0  0
  3 37  1  0  0  0  0
  4  5  1  0  0  0  0
  4 38  1  0  0  0  0
  4 39  1  0  0  0  0
  5 40  1  0  0  0  0
  5 41  1  0  0  0  0
  6  7  2  0  0  0  0
  6 33  1  0  0  0  0
  7  8  1  0  0  0  0
  7 42  1  0  0  0  0
  8  9  2  0  0  0  0
  8 43  1  0  0  0  0
  9 10  1  0  0  0  0
 10 11  2  0  0  0  0
 10 44  1  0  0  0  0
 11  6  1  0  0  0  0
 11 45  1  0  0  0  0
 12  9  1  0  0  0  0
 12 15  1  0  0  0  0
 12 13  1  0  0  0  0
 12 46  1  1  0  0  0
 13 47  1  0  0  0  0
 13 48  1  0  0  0  0
 14 17  1  0  0  0  0
 14 25  1  0  0  0  0
 14 29  1  6  0  0  0
 14 15  1  0  0  0  0
 15 19  2  0  0  0  0
 16 17  1  0  0  0  0
 16 49  1  6  0  0  0
 16 30  1  0  0  0  0
 17 50  1  0  0  0  0
 17 51  1  0  0  0  0
 18 16  1  0  0  0  0
 18 19  1  0  0  0  0
 18 23  2  0  0  0  0
 19 20  1  0  0  0  0
 20 21  1  0  0  0  0
 20 52  1  0  0  0  0
 20 53  1  0  0  0  0
 21 22  1  0  0  0  0
 21 54  1  0  0  0  0
 21 55  1  0  0  0  0
 22 23  1  0  0  0  0
 22 32  2  0  0  0  0
 23 56  1  0  0  0  0
 24 25  1  0  0  0  0
 24 28  1  1  0  0  0
 24 13  1  0  0  0  0
 25 26  1  0  0  0  0
 25 31  1  1  0  0  0
 26 27  1  0  0  0  0
 26 57  1  0  0  0  0
 26 58  1  0  0  0  0
 27  1  1  0  0  0  0
 27 59  1  0  0  0  0
 27 60  1  0  0  0  0
 28 61  1  0  0  0  0
 28 62  1  0  0  0  0
 28 63  1  0  0  0  0
 30 64  1  0  0  0  0
 30 65  1  0  0  0  0
 30 66  1  0  0  0  0
 33 34  1  0  0  0  0
 33 35  1  0  0  0  0
 34 67  1  0  0  0  0
 34 68  1  0  0  0  0
 34 69  1  0  0  0  0
 35 70  1  0  0  0  0
 35 71  1  0  0  0  0
 35 72  1  0  0  0  0
M  END
>  <DRUGBANK_ID>
DB15585

>  <COMMON_NAME>
ORG-31710

>  <CAS_NUMBER>
118968-41-5

>  <UNII>
X2V3MG6PE8

$$$$
