
 OpenBabel10282417223D

 59 61  0  0  0  0  0  0  0  0999 V2000
    1.1990    0.1501   -0.4855 C   0  0  0  0  0  0  0  0  0  0  0  0
    0.4634    1.4089   -0.5724 N   0  0  0  0  0  0  0  0  0  0  0  0
   -0.9958    1.2915   -0.5410 C   0  0  0  0  0  0  0  0  0  0  0  0
    0.9221    2.3144    0.5071 C   0  0  0  0  0  0  0  0  0  0  0  0
    0.4265    2.0236    1.9814 C   0  0  3  0  0  0  0  0  0  0  0  0
    0.7552    0.6077    2.5285 C   0  0  0  0  0  0  0  0  0  0  0  0
    1.8215    0.4434    3.4007 C   0  0  0  0  0  0  0  0  0  0  0  0
    2.0257   -0.7411    4.0594 C   0  0  0  0  0  0  0  0  0  0  0  0
    1.4959   -1.9149    3.5651 C   0  0  0  0  0  0  0  0  0  0  0  0
    1.8988   -3.1832    4.0164 O   0  0  0  0  0  0  0  0  0  0  0  0
    2.7023   -3.2537    5.1299 C   0  0  0  0  0  0  0  0  0  0  0  0
    3.1286   -2.3490    5.8625 O   0  0  0  0  0  0  0  0  0  0  0  0
    3.0604   -4.6083    5.4988 C   0  0  0  0  0  0  0  0  0  0  0  0
    3.5498   -5.5191    4.5674 C   0  0  0  0  0  0  0  0  0  0  0  0
    4.1372   -6.6931    5.0355 C   0  0  0  0  0  0  0  0  0  0  0  0
    4.2405   -6.9413    6.4151 C   0  0  0  0  0  0  0  0  0  0  0  0
    4.7868   -8.2363    6.9314 C   0  0  0  0  0  0  0  0  0  0  0  0
    3.7789   -5.9924    7.3318 C   0  0  0  0  0  0  0  0  0  0  0  0
    3.1423   -4.8536    6.8749 C   0  0  0  0  0  0  0  0  0  0  0  0
    0.5598   -1.8396    2.5463 C   0  0  0  0  0  0  0  0  0  0  0  0
    0.0783   -0.5784    2.1578 C   0  0  0  0  0  0  0  0  0  0  0  0
    0.9476    3.1619    2.9542 C   0  0  0  0  0  0  0  0  0  0  0  0
    2.3659    3.2833    2.7354 O   0  0  0  0  0  0  0  0  0  0  0  0
    0.6254    2.8399    4.4455 C   0  0  0  0  0  0  0  0  0  0  0  0
   -0.8686    2.7991    4.6962 C   0  0  0  0  0  0  0  0  0  0  0  0
   -1.4421    4.1724    4.4494 C   0  0  0  0  0  0  0  0  0  0  0  0
   -1.1400    4.6592    3.0325 C   0  0  0  0  0  0  0  0  0  0  0  0
    0.3458    4.5615    2.6861 C   0  0  0  0  0  0  0  0  0  0  0  0
    0.6828   -0.7079   -0.9228 H   0  0  0  0  0  0  0  0  0  0  0  0
    1.3878   -0.1119    0.5298 H   0  0  0  0  0  0  0  0  0  0  0  0
    2.2407    0.2044   -0.8155 H   0  0  0  0  0  0  0  0  0  0  0  0
   -1.4164    1.0501    0.4372 H   0  0  0  0  0  0  0  0  0  0  0  0
   -1.4491    2.2497   -0.8221 H   0  0  0  0  0  0  0  0  0  0  0  0
   -1.3687    0.5307   -1.2305 H   0  0  0  0  0  0  0  0  0  0  0  0
    2.0184    2.3586    0.4696 H   0  0  0  0  0  0  0  0  0  0  0  0
    0.5918    3.3194    0.2114 H   0  0  0  0  0  0  0  0  0  0  0  0
   -0.6647    2.0993    1.9878 H   0  0  0  0  0  0  0  0  0  0  0  0
    2.4629    1.2569    3.7237 H   0  0  0  0  0  0  0  0  0  0  0  0
    2.6330   -0.6476    4.9449 H   0  0  0  0  0  0  0  0  0  0  0  0
    3.5209   -5.3032    3.5033 H   0  0  0  0  0  0  0  0  0  0  0  0
    4.5409   -7.4047    4.3196 H   0  0  0  0  0  0  0  0  0  0  0  0
    5.6641   -8.0680    7.5625 H   0  0  0  0  0  0  0  0  0  0  0  0
    4.0102   -8.7373    7.5200 H   0  0  0  0  0  0  0  0  0  0  0  0
    5.0658   -8.9045    6.1124 H   0  0  0  0  0  0  0  0  0  0  0  0
    3.9246   -6.1251    8.4007 H   0  0  0  0  0  0  0  0  0  0  0  0
    2.7549   -4.1218    7.5834 H   0  0  0  0  0  0  0  0  0  0  0  0
    0.2088   -2.7296    2.0315 H   0  0  0  0  0  0  0  0  0  0  0  0
   -0.6801   -0.5711    1.3821 H   0  0  0  0  0  0  0  0  0  0  0  0
    2.7177    4.0475    3.2163 H   0  0  0  0  0  0  0  0  0  0  0  0
    0.9653    1.8830    4.8233 H   0  0  0  0  0  0  0  0  0  0  0  0
    1.1620    3.5396    5.0945 H   0  0  0  0  0  0  0  0  0  0  0  0
   -1.3579    2.0582    4.0508 H   0  0  0  0  0  0  0  0  0  0  0  0
   -1.0504    2.4666    5.7224 H   0  0  0  0  0  0  0  0  0  0  0  0
   -2.5205    4.1490    4.6237 H   0  0  0  0  0  0  0  0  0  0  0  0
   -0.9985    4.8615    5.1777 H   0  0  0  0  0  0  0  0  0  0  0  0
   -1.7224    4.0771    2.3101 H   0  0  0  0  0  0  0  0  0  0  0  0
   -1.4653    5.7002    2.9418 H   0  0  0  0  0  0  0  0  0  0  0  0
    0.8920    5.2867    3.3075 H   0  0  0  0  0  0  0  0  0  0  0  0
    0.5248    4.8981    1.6595 H   0  0  0  0  0  0  0  0  0  0  0  0
  1  2  1  0  0  0  0
  1 29  1  0  0  0  0
  1 30  1  0  0  0  0
  1 31  1  0  0  0  0
  2  3  1  0  0  0  0
  2  4  1  0  0  0  0
  3 32  1  0  0  0  0
  3 33  1  0  0  0  0
  3 34  1  0  0  0  0
  4  5  1  0  0  0  0
  4 35  1  0  0  0  0
  4 36  1  0  0  0  0
  5  6  1  0  0  0  0
  5 22  1  0  0  0  0
  5 37  1  0  0  0  0
  6  7  2  0  0  0  0
  6 21  1  0  0  0  0
  7  8  1  0  0  0  0
  7 38  1  0  0  0  0
  8  9  2  0  0  0  0
  8 39  1  0  0  0  0
  9 10  1  0  0  0  0
  9 20  1  0  0  0  0
 10 11  1  0  0  0  0
 11 12  2  0  0  0  0
 11 13  1  0  0  0  0
 13 14  2  0  0  0  0
 13 19  1  0  0  0  0
 14 15  1  0  0  0  0
 14 40  1  0  0  0  0
 15 16  2  0  0  0  0
 15 41  1  0  0  0  0
 16 17  1  0  0  0  0
 16 18  1  0  0  0  0
 17 42  1  0  0  0  0
 17 43  1  0  0  0  0
 17 44  1  0  0  0  0
 18 19  2  0  0  0  0
 18 45  1  0  0  0  0
 19 46  1  0  0  0  0
 20 21  2  0  0  0  0
 20 47  1  0  0  0  0
 21 48  1  0  0  0  0
 22 23  1  0  0  0  0
 22 24  1  0  0  0  0
 22 28  1  0  0  0  0
 23 49  1  0  0  0  0
 24 25  1  0  0  0  0
 24 50  1  0  0  0  0
 24 51  1  0  0  0  0
 25 26  1  0  0  0  0
 25 52  1  0  0  0  0
 25 53  1  0  0  0  0
 26 27  1  0  0  0  0
 26 54  1  0  0  0  0
 26 55  1  0  0  0  0
 27 28  1  0  0  0  0
 27 56  1  0  0  0  0
 27 57  1  0  0  0  0
 28 58  1  0  0  0  0
 28 59  1  0  0  0  0
M  END
>  <DRUGBANK_ID>
DB15052

>  <COMMON_NAME>
Ansofaxine

>  <CAS_NUMBER>
916918-80-4

>  <UNII>
A7CGH459FN

$$$$
