
 OpenBabel10282417213D

168168  0  0  0  0  0  0  0  0999 V2000
    5.0676   -1.4220   -7.0454 N   0  0  0  0  0  0  0  0  0  0  0  0
    3.6126   -0.4982   -4.2363 C   0  0  0  0  0  0  0  0  0  0  0  0
    2.2666    0.5504   -1.3194 C   0  0  2  0  0  0  0  0  0  0  0  0
    2.5498   -0.2812   -2.5916 O   0  0  0  0  0  0  0  0  0  0  0  0
    1.1758    1.3723    1.4222 C   0  0  0  0  0  0  0  0  0  0  0  0
    1.1239    2.2390    0.3108 O   0  0  0  0  0  0  0  0  0  0  0  0
    0.9439    3.8074   -0.1386 C   0  0  0  0  0  0  0  0  0  0  0  0
    1.5243    2.9777   -1.1722 C   0  0  1  0  0  0  0  0  0  0  0  0
    0.6207    4.9594   -0.4593 O   0  0  0  0  0  0  0  0  0  0  0  0
    2.0532    1.9543   -0.8962 C   0  0  0  0  0  0  0  0  0  0  0  0
    0.5545    0.4506   -1.8039 C   0  0  0  0  0  0  0  0  0  0  0  0
    3.4572    1.1477   -0.5620 C   0  0  0  0  0  0  0  0  0  0  0  0
    0.6528    2.6658   -2.2753 N   0  0  0  0  0  0  0  0  0  0  0  0
    1.0943    2.9938   -3.5906 C   0  0  0  0  0  0  0  0  0  0  0  0
    0.1461    2.7780   -4.7768 C   0  0  1  0  0  0  0  0  0  0  0  0
    2.2318    3.4544   -3.7805 O   0  0  0  0  0  0  0  0  0  0  0  0
   -0.1285    4.1045   -5.4659 C   0  0  0  0  0  0  0  0  0  0  0  0
    0.7441    1.8621   -5.7221 O   0  0  0  0  0  0  0  0  0  0  0  0
   -1.0680    3.8951   -6.6327 C   0  0  0  0  0  0  0  0  0  0  0  0
    1.1560    4.7133   -5.9658 C   0  0  0  0  0  0  0  0  0  0  0  0
    6.6306   -2.2734   -9.9319 C   0  0  2  0  0  0  0  0  0  0  0  0
    8.4417   -3.0924  -12.5218 C   0  0  0  0  0  0  0  0  0  0  0  0
    7.8499   -2.6873  -12.7799 C   0  0  0  0  0  0  0  0  0  0  0  0
    7.9368   -3.9063  -14.0667 C   0  0  0  0  0  0  0  0  0  0  0  0
    9.2796   -2.1382  -15.0251 C   0  0  0  0  0  0  0  0  0  0  0  0
    9.2308   -3.5961  -14.4290 O   0  0  0  0  0  0  0  0  0  0  0  0
    9.7987   -3.2272  -14.6801 O   0  0  0  0  0  0  0  0  0  0  0  0
   11.0539   -1.6337  -15.6117 C   0  0  2  0  0  0  0  0  0  0  0  0
   10.7284   -2.5428  -14.0183 C   0  0  0  0  0  0  0  0  0  0  0  0
    9.1573   -1.3060  -16.5473 C   0  0  0  0  0  0  0  0  0  0  0  0
    9.2208   -0.8025  -17.6026 O   0  0  0  0  0  0  0  0  0  0  0  0
    7.9673   -1.7325  -15.8894 N   0  0  0  0  0  0  0  0  0  0  0  0
   12.0665   -2.7933  -13.9527 C   0  0  0  0  0  0  0  0  0  0  0  0
    9.8264   -1.8235  -13.3439 C   0  0  0  0  0  0  0  0  0  0  0  0
    6.7832   -1.7346  -16.4237 C   0  0  2  0  0  0  0  0  0  0  0  0
    6.0206   -0.9725  -15.5085 C   0  0  0  0  0  0  0  0  0  0  0  0
    6.1037   -3.0683  -16.7575 C   0  0  0  0  0  0  0  0  0  0  0  0
    6.6260   -3.8522  -17.5593 O   0  0  0  0  0  0  0  0  0  0  0  0
    4.8668   -3.3820  -16.1510 O   0  0  0  0  0  0  0  0  0  0  0  0
    6.1540   -1.9088  -14.4106 C   0  0  0  0  0  0  0  0  0  0  0  0
    6.6097    0.4175  -15.1433 C   0  0  0  0  0  0  0  0  0  0  0  0
    4.1876   -2.4872  -15.2291 C   0  0  2  0  0  0  0  0  0  0  0  0
    4.6769   -2.3380  -13.8072 C   0  0  0  0  0  0  0  0  0  0  0  0
    5.5260   -3.3697  -13.2926 O   0  0  0  0  0  0  0  0  0  0  0  0
    5.8081   -0.5323  -13.5939 N   0  0  0  0  0  0  0  0  0  0  0  0
    6.6520   -0.6427  -12.5440 C   0  0  2  0  0  0  0  0  0  0  0  0
    7.9466   -0.0843  -13.0290 C   0  0  0  0  0  0  0  0  0  0  0  0
    6.7702   -1.8785  -11.8637 C   0  0  0  0  0  0  0  0  0  0  0  0
    8.0187   -1.7173  -10.7732 C   0  0  0  0  0  0  0  0  0  0  0  0
    2.9570   -3.0655  -14.7072 C   0  0  0  0  0  0  0  0  0  0  0  0
    8.5894   -0.4870  -13.9268 O   0  0  0  0  0  0  0  0  0  0  0  0
    5.4978   -2.6132  -11.4158 C   0  0  0  0  0  0  0  0  0  0  0  0
    8.3804    1.1238  -12.6154 O   0  0  0  0  0  0  0  0  0  0  0  0
    7.5925    1.8451  -11.6757 C   0  0  2  0  0  0  0  0  0  0  0  0
    7.4600    1.0410  -10.4104 C   0  0  0  0  0  0  0  0  0  0  0  0
    6.2178    2.1586  -12.2785 C   0  0  0  0  0  0  0  0  0  0  0  0
    6.1359    2.8207  -13.3225 O   0  0  0  0  0  0  0  0  0  0  0  0
    5.0590    1.6451  -11.6501 N   0  0  0  0  0  0  0  0  0  0  0  0
    3.7053    1.9200  -12.2062 C   0  0  2  0  0  0  0  0  0  0  0  0
    2.8746    2.8022  -11.2958 C   0  0  0  0  0  0  0  0  0  0  0  0
    2.9994    0.5911  -12.5355 C   0  0  0  0  0  0  0  0  0  0  0  0
    3.5076   -0.1879  -13.3408 O   0  0  0  0  0  0  0  0  0  0  0  0
    1.7663    0.2675  -11.9366 O   0  0  0  0  0  0  0  0  0  0  0  0
    2.4294    2.2994  -10.1709 C   0  0  0  0  0  0  0  0  0  0  0  0
    3.4757    4.0562  -10.8810 C   0  0  0  0  0  0  0  0  0  0  0  0
    8.8489    0.8404   -9.8644 C   0  0  0  0  0  0  0  0  0  0  0  0
    6.6556    1.7621   -9.4179 C   0  0  0  0  0  0  0  0  0  0  0  0
    1.9755    2.2006   -6.3029 C   0  0  0  0  0  0  0  0  0  0  0  0
    2.6239    3.2103   -6.0108 O   0  0  0  0  0  0  0  0  0  0  0  0
    2.5946    1.2401   -7.3063 C   0  0  2  0  0  0  0  0  0  0  0  0
    3.9201    1.8275   -7.7510 C   0  0  0  0  0  0  0  0  0  0  0  0
    1.6633    0.9845   -8.3556 N   0  0  0  0  0  0  0  0  0  0  0  0
    4.7910    0.6567   -8.1427 C   0  0  0  0  0  0  0  0  0  0  0  0
    3.8434    2.9523   -8.7179 C   0  0  0  0  0  0  0  0  0  0  0  0
    1.7674    1.0499   -9.5703 C   0  0  0  0  0  0  0  0  0  0  0  0
    1.0690    1.1315  -11.0073 C   0  0  2  0  0  0  0  0  0  0  0  0
    3.4206    1.1683  -10.4164 O   0  0  0  0  0  0  0  0  0  0  0  0
   -0.1481    0.5868  -10.4890 C   0  0  0  0  0  0  0  0  0  0  0  0
    4.2020   -1.2360   -5.3913 H   0  0  0  0  0  0  0  0  0  0  0  0
    2.0337    1.3934    0.8448 H   0  0  0  0  0  0  0  0  0  0  0  0
    0.9428    0.8870    3.2699 H   0  0  0  0  0  0  0  0  0  0  0  0
    1.1940    2.3961    3.3018 H   0  0  0  0  0  0  0  0  0  0  0  0
   -0.1955    1.9401    2.9504 H   0  0  0  0  0  0  0  0  0  0  0  0
    2.4911    3.2724   -1.4734 H   0  0  0  0  0  0  0  0  0  0  0  0
    2.1904    1.6567   -0.0062 H   0  0  0  0  0  0  0  0  0  0  0  0
    1.1657    0.5168   -2.4923 H   0  0  0  0  0  0  0  0  0  0  0  0
    0.9956   -0.5785   -0.6644 H   0  0  0  0  0  0  0  0  0  0  0  0
   -0.1942    0.7995   -1.1036 H   0  0  0  0  0  0  0  0  0  0  0  0
    3.9435    1.8303   -0.1241 H   0  0  0  0  0  0  0  0  0  0  0  0
    3.4421    0.1344   -0.0863 H   0  0  0  0  0  0  0  0  0  0  0  0
    3.5703    1.0023   -1.6315 H   0  0  0  0  0  0  0  0  0  0  0  0
   -0.2756    2.2613   -2.0923 H   0  0  0  0  0  0  0  0  0  0  0  0
   -0.7878    2.3610   -4.4243 H   0  0  0  0  0  0  0  0  0  0  0  0
   -0.5759    4.7874   -4.7619 H   0  0  0  0  0  0  0  0  0  0  0  0
   -1.9994    3.4817   -6.2820 H   0  0  0  0  0  0  0  0  0  0  0  0
   -1.2603    4.8353   -7.1222 H   0  0  0  0  0  0  0  0  0  0  0  0
   -0.6249    3.2134   -7.3415 H   0  0  0  0  0  0  0  0  0  0  0  0
    1.5722    4.0708   -6.7151 H   0  0  0  0  0  0  0  0  0  0  0  0
    0.9950    5.6351   -6.4532 H   0  0  0  0  0  0  0  0  0  0  0  0
    1.8475    4.8537   -5.1431 H   0  0  0  0  0  0  0  0  0  0  0  0
    7.4441   -3.3894  -11.5149 H   0  0  0  0  0  0  0  0  0  0  0  0
    8.0646   -3.2024  -14.8917 H   0  0  0  0  0  0  0  0  0  0  0  0
    9.4255   -4.7711  -14.0595 H   0  0  0  0  0  0  0  0  0  0  0  0
    7.7415   -2.3301  -13.0139 H   0  0  0  0  0  0  0  0  0  0  0  0
    7.8153   -4.8497  -14.8371 H   0  0  0  0  0  0  0  0  0  0  0  0
   10.2765   -2.0790  -16.6249 H   0  0  0  0  0  0  0  0  0  0  0  0
    9.7537   -1.5105  -14.8538 H   0  0  0  0  0  0  0  0  0  0  0  0
   11.1178   -3.0477  -15.1997 H   0  0  0  0  0  0  0  0  0  0  0  0
   11.2266   -0.7086  -15.6398 H   0  0  0  0  0  0  0  0  0  0  0  0
   10.6322   -3.7790  -14.1699 H   0  0  0  0  0  0  0  0  0  0  0  0
    8.0084   -2.2275  -14.9254 H   0  0  0  0  0  0  0  0  0  0  0  0
   12.3951   -1.8437  -13.8579 H   0  0  0  0  0  0  0  0  0  0  0  0
   11.9279   -3.4159  -13.1700 H   0  0  0  0  0  0  0  0  0  0  0  0
   12.5860   -3.3218  -14.8054 H   0  0  0  0  0  0  0  0  0  0  0  0
    8.7230   -1.8487  -13.9019 H   0  0  0  0  0  0  0  0  0  0  0  0
    9.7821   -2.4437  -12.6046 H   0  0  0  0  0  0  0  0  0  0  0  0
   10.1559   -0.9266  -13.3474 H   0  0  0  0  0  0  0  0  0  0  0  0
    6.9077   -1.1587  -17.3021 H   0  0  0  0  0  0  0  0  0  0  0  0
    5.0486   -0.7756  -15.8579 H   0  0  0  0  0  0  0  0  0  0  0  0
    6.8096   -1.9267  -13.7368 H   0  0  0  0  0  0  0  0  0  0  0  0
    4.9767   -1.3152  -13.1615 H   0  0  0  0  0  0  0  0  0  0  0  0
    5.6908   -2.9721  -14.6744 H   0  0  0  0  0  0  0  0  0  0  0  0
    6.6831    0.9629  -15.9856 H   0  0  0  0  0  0  0  0  0  0  0  0
    5.9768    0.9835  -14.4122 H   0  0  0  0  0  0  0  0  0  0  0  0
    7.5183    0.2762  -14.6873 H   0  0  0  0  0  0  0  0  0  0  0  0
    4.0169   -1.5769  -15.6821 H   0  0  0  0  0  0  0  0  0  0  0  0
    5.3297   -0.1021  -14.2735 H   0  0  0  0  0  0  0  0  0  0  0  0
    6.1726   -0.0421  -11.8938 H   0  0  0  0  0  0  0  0  0  0  0  0
    6.7032   -2.7868  -12.3683 H   0  0  0  0  0  0  0  0  0  0  0  0
    7.4553   -1.1065  -10.0090 H   0  0  0  0  0  0  0  0  0  0  0  0
    8.1479   -2.7764  -10.2365 H   0  0  0  0  0  0  0  0  0  0  0  0
    8.8187   -1.4015  -11.1028 H   0  0  0  0  0  0  0  0  0  0  0  0
    2.5103   -2.3846  -13.9957 H   0  0  0  0  0  0  0  0  0  0  0  0
    2.2938   -3.2152  -15.5275 H   0  0  0  0  0  0  0  0  0  0  0  0
    3.1490   -4.0072  -14.2145 H   0  0  0  0  0  0  0  0  0  0  0  0
    4.8526   -2.7589  -12.1384 H   0  0  0  0  0  0  0  0  0  0  0  0
    5.7355   -3.5932  -10.9306 H   0  0  0  0  0  0  0  0  0  0  0  0
    5.1067   -1.9393  -10.7026 H   0  0  0  0  0  0  0  0  0  0  0  0
    8.0943    2.7784  -11.4407 H   0  0  0  0  0  0  0  0  0  0  0  0
    7.0156    0.0980  -10.6209 H   0  0  0  0  0  0  0  0  0  0  0  0
    5.0865    1.0729  -10.7790 H   0  0  0  0  0  0  0  0  0  0  0  0
    3.8133    2.4965  -13.0820 H   0  0  0  0  0  0  0  0  0  0  0  0
    1.9416    2.8904  -11.6492 H   0  0  0  0  0  0  0  0  0  0  0  0
    3.7269    1.5388   -9.2776 H   0  0  0  0  0  0  0  0  0  0  0  0
    2.0333    2.5420   -9.1780 H   0  0  0  0  0  0  0  0  0  0  0  0
    2.4535    0.5218  -10.4432 H   0  0  0  0  0  0  0  0  0  0  0  0
    3.5827    4.6133  -11.7551 H   0  0  0  0  0  0  0  0  0  0  0  0
    2.8431    4.5702  -10.1662 H   0  0  0  0  0  0  0  0  0  0  0  0
    4.4503    3.9249  -10.4467 H   0  0  0  0  0  0  0  0  0  0  0  0
    9.2815    1.7995   -9.6441 H   0  0  0  0  0  0  0  0  0  0  0  0
    8.8144    0.2487   -8.9657 H   0  0  0  0  0  0  0  0  0  0  0  0
    9.4617    0.3381  -10.5952 H   0  0  0  0  0  0  0  0  0  0  0  0
    5.6265    1.8817   -9.7567 H   0  0  0  0  0  0  0  0  0  0  0  0
    6.7845    1.1733   -8.4772 H   0  0  0  0  0  0  0  0  0  0  0  0
    7.0186    2.7037   -9.1567 H   0  0  0  0  0  0  0  0  0  0  0  0
    2.7880    0.2984   -6.8249 H   0  0  0  0  0  0  0  0  0  0  0  0
    4.3688    2.4133   -7.0265 H   0  0  0  0  0  0  0  0  0  0  0  0
    0.7546    0.6466   -8.2624 H   0  0  0  0  0  0  0  0  0  0  0  0
    4.4079    0.0720   -8.9524 H   0  0  0  0  0  0  0  0  0  0  0  0
    5.5590    1.0331   -8.4911 H   0  0  0  0  0  0  0  0  0  0  0  0
    5.0287    0.1062   -7.3201 H   0  0  0  0  0  0  0  0  0  0  0  0
    3.0161    3.5450   -8.7352 H   0  0  0  0  0  0  0  0  0  0  0  0
    4.6377    3.0914   -9.3422 H   0  0  0  0  0  0  0  0  0  0  0  0
    3.4903    2.7218   -9.4772 H   0  0  0  0  0  0  0  0  0  0  0  0
    0.9153    2.0732  -11.4604 H   0  0  0  0  0  0  0  0  0  0  0  0
   -0.7998    1.3976  -10.2161 H   0  0  0  0  0  0  0  0  0  0  0  0
   -0.5848   -0.0050  -11.2542 H   0  0  0  0  0  0  0  0  0  0  0  0
    0.0240   -0.0316   -9.6178 H   0  0  0  0  0  0  0  0  0  0  0  0
  1 21  1  0  0  0  0
  1  2  1  0  0  0  0
  1 79  1  0  0  0  0
  2  3  1  0  0  0  0
  2  4  2  0  0  0  0
  3  6  1  0  0  0  0
  3  5  1  0  0  0  0
  3 80  1  1  0  0  0
  5 81  1  0  0  0  0
  5 82  1  0  0  0  0
  5 83  1  0  0  0  0
  6  7  1  0  0  0  0
  7  8  1  0  0  0  0
  7  9  2  0  0  0  0
  8 13  1  0  0  0  0
  8 84  1  6  0  0  0
  8 10  1  0  0  0  0
 10 11  1  0  0  0  0
 10 12  1  0  0  0  0
 10 85  1  0  0  0  0
 11 86  1  0  0  0  0
 11 87  1  0  0  0  0
 11 88  1  0  0  0  0
 12 89  1  0  0  0  0
 12 90  1  0  0  0  0
 12 91  1  0  0  0  0
 13 14  1  0  0  0  0
 13 92  1  0  0  0  0
 14 15  1  0  0  0  0
 14 16  2  0  0  0  0
 15 17  1  0  0  0  0
 15 18  1  0  0  0  0
 15 93  1  1  0  0  0
 17 20  1  0  0  0  0
 17 19  1  0  0  0  0
 17 94  1  0  0  0  0
 18 68  1  0  0  0  0
 19 95  1  0  0  0  0
 19 96  1  0  0  0  0
 19 97  1  0  0  0  0
 20 98  1  0  0  0  0
 20 99  1  0  0  0  0
 20100  1  0  0  0  0
 21 22  1  0  0  0  0
 21101  1  6  0  0  0
 21 23  1  0  0  0  0
 22 26  2  0  0  0  0
 22 27  1  0  0  0  0
 23 24  1  0  0  0  0
 23 25  1  0  0  0  0
 23102  1  0  0  0  0
 24103  1  0  0  0  0
 24104  1  0  0  0  0
 24105  1  0  0  0  0
 25106  1  0  0  0  0
 25107  1  0  0  0  0
 25108  1  0  0  0  0
 28 27  1  0  0  0  0
 28 30  1  0  0  0  0
 28109  1  6  0  0  0
 28 29  1  0  0  0  0
 29 33  1  0  0  0  0
 29 34  1  0  0  0  0
 29110  1  0  0  0  0
 30 31  2  0  0  0  0
 30 32  1  0  0  0  0
 32 35  1  0  0  0  0
 32111  1  0  0  0  0
 33112  1  0  0  0  0
 33113  1  0  0  0  0
 33114  1  0  0  0  0
 34115  1  0  0  0  0
 34116  1  0  0  0  0
 34117  1  0  0  0  0
 35 37  1  0  0  0  0
 35118  1  6  0  0  0
 35 36  1  0  0  0  0
 36 40  1  0  0  0  0
 36 41  1  0  0  0  0
 36119  1  0  0  0  0
 37 38  2  0  0  0  0
 37 39  1  0  0  0  0
 40120  1  0  0  0  0
 40121  1  0  0  0  0
 40122  1  0  0  0  0
 41123  1  0  0  0  0
 41124  1  0  0  0  0
 41125  1  0  0  0  0
 42 39  1  0  0  0  0
 42 50  1  0  0  0  0
 42 43  1  0  0  0  0
 42126  1  6  0  0  0
 43 44  2  0  0  0  0
 43 45  1  0  0  0  0
 45 46  1  0  0  0  0
 45127  1  0  0  0  0
 46 47  1  0  0  0  0
 46 48  1  0  0  0  0
 46128  1  1  0  0  0
 47 51  2  0  0  0  0
 47 53  1  0  0  0  0
 48 49  1  0  0  0  0
 48 52  1  0  0  0  0
 48129  1  0  0  0  0
 49130  1  0  0  0  0
 49131  1  0  0  0  0
 49132  1  0  0  0  0
 50133  1  0  0  0  0
 50134  1  0  0  0  0
 50135  1  0  0  0  0
 52136  1  0  0  0  0
 52137  1  0  0  0  0
 52138  1  0  0  0  0
 54 53  1  0  0  0  0
 54 56  1  0  0  0  0
 54139  1  1  0  0  0
 54 55  1  0  0  0  0
 55 66  1  0  0  0  0
 55 67  1  0  0  0  0
 55140  1  0  0  0  0
 56 57  2  0  0  0  0
 56 58  1  0  0  0  0
 58 59  1  0  0  0  0
 58141  1  0  0  0  0
 59 61  1  0  0  0  0
 59142  1  6  0  0  0
 59 60  1  0  0  0  0
 60 64  1  0  0  0  0
 60 65  1  0  0  0  0
 60143  1  0  0  0  0
 61 62  2  0  0  0  0
 61 63  1  0  0  0  0
 64144  1  0  0  0  0
 64145  1  0  0  0  0
 64146  1  0  0  0  0
 65147  1  0  0  0  0
 65148  1  0  0  0  0
 65149  1  0  0  0  0
 66150  1  0  0  0  0
 66151  1  0  0  0  0
 66152  1  0  0  0  0
 67153  1  0  0  0  0
 67154  1  0  0  0  0
 67155  1  0  0  0  0
 68 69  2  0  0  0  0
 70 68  1  0  0  0  0
 70 72  1  0  0  0  0
 70156  1  1  0  0  0
 70 71  1  0  0  0  0
 71 73  1  0  0  0  0
 71 74  1  0  0  0  0
 71157  1  0  0  0  0
 72 75  1  0  0  0  0
 72158  1  0  0  0  0
 73159  1  0  0  0  0
 73160  1  0  0  0  0
 73161  1  0  0  0  0
 74162  1  0  0  0  0
 74163  1  0  0  0  0
 74164  1  0  0  0  0
 75 77  2  0  0  0  0
 76 75  1  0  0  0  0
 76 63  1  0  0  0  0
 76165  1  6  0  0  0
 76 78  1  0  0  0  0
 78166  1  0  0  0  0
 78167  1  0  0  0  0
 78168  1  0  0  0  0
M  END
>  <DRUGBANK_ID>
DB14057

>  <COMMON_NAME>
Valinomycin

>  <CAS_NUMBER>
2001-95-8

>  <UNII>
N561YS75MN

>  <SYNONYMS>
Potassium ionophore I; Valinomicin

$$$$
