11N
 OpenBabel10282417163D

 50 53  0  0  0  0  0  0  0  0999 V2000
    1.3479    1.5821   -0.0348 C   0  0  0  0  0  0  0  0  0  0  0  0
    2.7649    1.6717   -0.0460 C   0  0  0  0  0  0  0  0  0  0  0  0
    3.5408    0.4963   -0.0130 C   0  0  0  0  0  0  0  0  0  0  0  0
   -0.7251   -0.0552   -0.0151 C   0  0  3  0  0  0  0  0  0  0  0  0
   -0.5385   -1.6063    0.0117 C   0  0  0  0  0  0  0  0  0  0  0  0
   -1.5261    0.3781   -1.2921 C   0  0  0  0  0  0  0  0  0  0  0  0
   -2.9535   -0.1560    1.1526 C   0  0  0  0  0  0  0  0  0  0  0  0
    3.4519    3.0174   -0.0965 C   0  0  0  0  0  0  0  0  0  0  0  0
   -4.6034    1.4645   -0.0009 C   0  0  0  0  0  0  0  0  0  0  0  0
   -4.8562    1.8654    2.5159 C   0  0  0  0  0  0  0  0  0  0  0  0
   -6.7821    2.6255    3.9416 C   0  0  0  0  0  0  0  0  0  0  0  0
   -6.3028    3.3892    6.1893 C   0  0  0  0  0  0  0  0  0  0  0  0
   -4.5350    2.5222    4.8303 C   0  0  0  0  0  0  0  0  0  0  0  0
    2.9200   -0.7494    0.0199 C   0  0  0  0  0  0  0  0  0  0  0  0
    1.5336   -0.7958    0.0161 C   0  0  0  0  0  0  0  0  0  0  0  0
    0.7303    0.3360   -0.0107 C   0  0  0  0  0  0  0  0  0  0  0  0
    0.8525   -1.9766    0.0317 O   0  0  0  0  0  0  0  0  0  0  0  0
   -3.0296    0.0064   -1.2271 C   0  0  0  0  0  0  0  0  0  0  0  0
   -3.6227    0.4729    0.0272 N   0  0  0  0  0  0  0  0  0  0  0  0
   -1.5157    0.3779    1.2540 C   0  0  0  0  0  0  0  0  0  0  0  0
    3.0726    3.7551   -1.2949 N   0  0  0  0  0  0  0  0  0  0  0  0
   -5.0514    1.8965   -1.0610 O   0  0  0  0  0  0  0  0  0  0  0  0
   -5.2147    2.0549    1.2446 C   0  0  0  0  0  0  0  0  0  0  0  0
   -5.4265    2.3804    3.7535 C   0  0  0  0  0  0  0  0  0  0  0  0
   -7.2062    3.1961    5.1404 C   0  0  0  0  0  0  0  0  0  0  0  0
   -4.9791    2.9855    6.0589 C   0  0  0  0  0  0  0  0  0  0  0  0
    0.7603    2.4957   -0.0635 H   0  0  0  0  0  0  0  0  0  0  0  0
    4.6288    0.5458   -0.0196 H   0  0  0  0  0  0  0  0  0  0  0  0
   -0.9824   -2.0592    0.9053 H   0  0  0  0  0  0  0  0  0  0  0  0
   -0.9927   -2.0894   -0.8586 H   0  0  0  0  0  0  0  0  0  0  0  0
   -1.4462    1.4636   -1.4340 H   0  0  0  0  0  0  0  0  0  0  0  0
   -1.0893   -0.0826   -2.1878 H   0  0  0  0  0  0  0  0  0  0  0  0
   -3.5005   -0.1485    2.0796 H   0  0  0  0  0  0  0  0  0  0  0  0
   -2.9557   -1.2308    0.9507 H   0  0  0  0  0  0  0  0  0  0  0  0
    3.1861    3.5899    0.7985 H   0  0  0  0  0  0  0  0  0  0  0  0
    4.5434    2.8998   -0.0843 H   0  0  0  0  0  0  0  0  0  0  0  0
   -3.9883    1.3025    2.7718 H   0  0  0  0  0  0  0  0  0  0  0  0
   -7.5081    2.3772    3.1721 H   0  0  0  0  0  0  0  0  0  0  0  0
   -6.6341    3.8466    7.1160 H   0  0  0  0  0  0  0  0  0  0  0  0
   -3.4813    2.2712    4.7136 H   0  0  0  0  0  0  0  0  0  0  0  0
    3.5081   -1.6616    0.0403 H   0  0  0  0  0  0  0  0  0  0  0  0
   -3.1355   -1.0873   -1.2280 H   0  0  0  0  0  0  0  0  0  0  0  0
   -3.5796    0.3592   -2.1045 H   0  0  0  0  0  0  0  0  0  0  0  0
   -1.5116    1.4730    1.3576 H   0  0  0  0  0  0  0  0  0  0  0  0
   -1.0462   -0.0179    2.1627 H   0  0  0  0  0  0  0  0  0  0  0  0
    3.5788    4.6369   -1.3249 H   0  0  0  0  0  0  0  0  0  0  0  0
    3.3683    3.2221   -2.1121 H   0  0  0  0  0  0  0  0  0  0  0  0
   -6.0247    2.7519    1.0214 H   0  0  0  0  0  0  0  0  0  0  0  0
   -8.2451    3.4892    5.2587 H   0  0  0  0  0  0  0  0  0  0  0  0
   -4.2889    3.0459    6.8950 H   0  0  0  0  0  0  0  0  0  0  0  0
  1  2  2  0  0  0  0
  1 16  1  0  0  0  0
  1 27  1  0  0  0  0
  2  3  1  0  0  0  0
  2  8  1  0  0  0  0
  3 14  2  0  0  0  0
  3 28  1  0  0  0  0
  4  5  1  0  0  0  0
  4  6  1  0  0  0  0
  4 16  1  0  0  0  0
  4 20  1  0  0  0  0
  5 17  1  0  0  0  0
  5 29  1  0  0  0  0
  5 30  1  0  0  0  0
  6 18  1  0  0  0  0
  6 31  1  0  0  0  0
  6 32  1  0  0  0  0
  7 19  1  0  0  0  0
  7 20  1  0  0  0  0
  7 33  1  0  0  0  0
  7 34  1  0  0  0  0
  8 21  1  0  0  0  0
  8 35  1  0  0  0  0
  8 36  1  0  0  0  0
  9 19  1  0  0  0  0
  9 22  2  0  0  0  0
  9 23  1  0  0  0  0
 10 23  2  0  0  0  0
 10 24  1  0  0  0  0
 10 37  1  0  0  0  0
 11 24  2  0  0  0  0
 11 25  1  0  0  0  0
 11 38  1  0  0  0  0
 12 25  2  0  0  0  0
 12 26  1  0  0  0  0
 12 39  1  0  0  0  0
 13 24  1  0  0  0  0
 13 26  2  0  0  0  0
 13 40  1  0  0  0  0
 14 15  1  0  0  0  0
 14 41  1  0  0  0  0
 15 16  2  0  0  0  0
 15 17  1  0  0  0  0
 18 19  1  0  0  0  0
 18 42  1  0  0  0  0
 18 43  1  0  0  0  0
 20 44  1  0  0  0  0
 20 45  1  0  0  0  0
 21 46  1  0  0  0  0
 21 47  1  0  0  0  0
 23 48  1  0  0  0  0
 25 49  1  0  0  0  0
 26 50  1  0  0  0  0
M  END
>  <DRUGBANK_ID>
DB06849

>  <COMMON_NAME>
1-[1'-(3-phenylacryloyl)spiro[1-benzofuran-3,4'-piperidin]-5-yl]methanamine

$$$$
