196
 OpenBabel10282417103D

 34 36  0  0  0  0  0  0  0  0999 V2000
    2.0882    1.0742    0.5077 F   0  0  0  0  0  0  0  0  0  0  0  0
   -2.5088    0.8461   -0.0683 F   0  0  0  0  0  0  0  0  0  0  0  0
    2.6572   -2.6621    1.0866 O   0  0  0  0  0  0  0  0  0  0  0  0
    2.0361   -2.1170   -2.5659 N   0  0  0  0  0  0  0  0  0  0  0  0
    4.0767    0.0262   -1.1469 N   0  0  0  0  0  0  0  0  0  0  0  0
    1.6478   -0.8353   -2.6369 N   0  0  0  0  0  0  0  0  0  0  0  0
    3.9665    1.3640   -1.0195 N   0  0  0  0  0  0  0  0  0  0  0  0
    2.2266   -1.6179   -4.6834 N   0  0  0  0  0  0  0  0  0  0  0  0
    4.4875    0.8013   -3.1543 N   0  0  0  0  0  0  0  0  0  0  0  0
    2.5034   -1.7676   -0.0574 C   0  0  0  0  0  0  0  0  0  0  0  0
    2.4508   -2.7124   -1.3086 C   0  0  0  0  0  0  0  0  0  0  0  0
    3.8029   -0.8719   -0.0439 C   0  0  0  0  0  0  0  0  0  0  0  0
    1.1515   -1.0814    0.1527 C   0  0  0  0  0  0  0  0  0  0  0  0
    1.0277    0.3080    0.2362 C   0  0  0  0  0  0  0  0  0  0  0  0
   -0.0513   -1.8235    0.0961 C   0  0  0  0  0  0  0  0  0  0  0  0
   -0.1735    0.9685    0.1006 C   0  0  0  0  0  0  0  0  0  0  0  0
   -1.2818   -1.1690    0.0263 C   0  0  0  0  0  0  0  0  0  0  0  0
    2.2412   -2.6106   -3.8188 C   0  0  0  0  0  0  0  0  0  0  0  0
    4.5205   -0.2767   -2.3992 C   0  0  0  0  0  0  0  0  0  0  0  0
   -1.3338    0.2199    0.0033 C   0  0  0  0  0  0  0  0  0  0  0  0
    1.9015   -0.5419   -3.9146 C   0  0  0  0  0  0  0  0  0  0  0  0
    4.0652    1.7631   -2.2885 C   0  0  0  0  0  0  0  0  0  0  0  0
    2.4878   -2.1400    1.8947 H   0  0  0  0  0  0  0  0  0  0  0  0
    3.4417   -3.1614   -1.4645 H   0  0  0  0  0  0  0  0  0  0  0  0
    1.7795   -3.5643   -1.1371 H   0  0  0  0  0  0  0  0  0  0  0  0
    3.8220   -0.2804    0.8824 H   0  0  0  0  0  0  0  0  0  0  0  0
    4.6857   -1.5194    0.0419 H   0  0  0  0  0  0  0  0  0  0  0  0
   -0.0396   -2.9116    0.0615 H   0  0  0  0  0  0  0  0  0  0  0  0
   -0.1910    2.0498    0.0773 H   0  0  0  0  0  0  0  0  0  0  0  0
   -2.2093   -1.7324   -0.0410 H   0  0  0  0  0  0  0  0  0  0  0  0
    2.4486   -3.6448   -4.0389 H   0  0  0  0  0  0  0  0  0  0  0  0
    4.7096   -1.2804   -2.7454 H   0  0  0  0  0  0  0  0  0  0  0  0
    1.9200    0.4869   -4.2561 H   0  0  0  0  0  0  0  0  0  0  0  0
    3.8179    2.7733   -2.5887 H   0  0  0  0  0  0  0  0  0  0  0  0
  1 14  1  0  0  0  0
  2 20  1  0  0  0  0
  3 10  1  0  0  0  0
  3 23  1  0  0  0  0
  4  6  1  0  0  0  0
  4 11  1  0  0  0  0
  4 18  1  0  0  0  0
  5  7  1  0  0  0  0
  5 12  1  0  0  0  0
  5 19  1  0  0  0  0
  6 21  2  0  0  0  0
  7 22  2  0  0  0  0
  8 18  2  0  0  0  0
  8 21  1  0  0  0  0
  9 19  2  0  0  0  0
  9 22  1  0  0  0  0
 10 11  1  0  0  0  0
 10 12  1  0  0  0  0
 10 13  1  0  0  0  0
 11 24  1  0  0  0  0
 11 25  1  0  0  0  0
 12 26  1  0  0  0  0
 12 27  1  0  0  0  0
 13 14  2  0  0  0  0
 13 15  1  0  0  0  0
 14 16  1  0  0  0  0
 15 17  2  0  0  0  0
 15 28  1  0  0  0  0
 16 20  2  0  0  0  0
 16 29  1  0  0  0  0
 17 20  1  0  0  0  0
 17 30  1  0  0  0  0
 18 31  1  0  0  0  0
 19 32  1  0  0  0  0
 21 33  1  0  0  0  0
 22 34  1  0  0  0  0
M  END
>  <DRUGBANK_ID>
DB00196

>  <SECONDARY_ACCESSION_NUMBERS>
APRD00327

>  <COMMON_NAME>
Fluconazole

>  <CAS_NUMBER>
86386-73-4

>  <UNII>
8VZV102JFY

>  <SYNONYMS>
Diflucan; Difluconazole; Fluconazol; Fluconazole; Fluconazolum; Triflucan

$$$$
