
 OpenBabel10282417113D

 48 52  0  0  0  0  0  0  0  0999 V2000
   -0.7635    2.0844   -0.9160 C   0  0  0  0  0  0  0  0  0  0  0  0
   -0.6224   -0.2268   -0.3346 C   0  0  0  0  0  0  0  0  0  0  0  0
   -3.5060    3.8795    6.2308 C   0  0  0  0  0  0  0  0  0  0  0  0
   -1.4813    9.0388    2.5351 C   0  0  0  0  0  0  0  0  0  0  0  0
   -2.4178    3.8496    5.3075 C   0  0  0  0  0  0  0  0  0  0  0  0
   -1.5821    7.9660    3.4353 C   0  0  0  0  0  0  0  0  0  0  0  0
   -4.0084    5.1438    6.3966 C   0  0  0  0  0  0  0  0  0  0  0  0
   -0.7331    8.7047    1.4371 C   0  0  0  0  0  0  0  0  0  0  0  0
   -0.5154    2.9238    1.8593 C   0  0  0  0  0  0  0  0  0  0  0  0
    1.6906    2.2547    1.4918 C   0  0  0  0  0  0  0  0  0  0  0  0
    0.8017    2.9249    2.5295 C   0  0  1  0  0  0  0  0  0  0  0  0
   -1.2568    1.6341    1.5076 C   0  0  1  0  0  0  0  0  0  0  0  0
    0.9706    0.9395    1.1051 C   0  0  2  0  0  0  0  0  0  0  0  0
   -2.1389    5.1035    4.7670 C   0  0  0  0  0  0  0  0  0  0  0  0
   -1.1317    6.7659    2.9449 C   0  0  0  0  0  0  0  0  0  0  0  0
   -1.0770    0.5369    2.5013 C   0  0  1  0  0  0  0  0  0  0  0  0
    0.4247    0.0804    2.2996 C   0  0  2  0  0  0  0  0  0  0  0  0
    0.2941    4.9331    3.9248 C   0  0  0  0  0  0  0  0  0  0  0  0
   -1.3067    5.3580    3.5060 C   0  0  0  0  0  0  0  0  0  0  0  0
   -0.4143    1.1749    0.2740 N   0  3  0  0  0  0  0  0  0  0  0  0
    0.8405    5.4401    4.9474 O   0  0  0  0  0  0  0  0  0  0  0  0
   -2.3025    4.8217    2.6199 O   0  0  0  0  0  0  0  0  0  0  0  0
    1.1082    4.2610    3.0128 O   0  0  0  0  0  0  0  0  0  0  0  0
   -0.0676    0.6376    3.4923 O   0  0  0  0  0  0  0  0  0  0  0  0
   -3.2338    6.2552    5.4085 S   0  0  0  0  0  0  0  0  0  0  0  0
   -0.3167    7.0388    1.4350 S   0  0  0  0  0  0  0  0  0  0  0  0
    0.9352    2.3359    3.4419 H   0  0  0  0  0  0  0  0  0  0  0  0
   -2.2944    1.8174    1.1896 H   0  0  0  0  0  0  0  0  0  0  0  0
    1.6079    0.3657    0.4349 H   0  0  0  0  0  0  0  0  0  0  0  0
   -1.9937    0.3030    3.0194 H   0  0  0  0  0  0  0  0  0  0  0  0
    0.8427   -0.9069    2.3432 H   0  0  0  0  0  0  0  0  0  0  0  0
   -1.7853    1.7958   -1.2173 H   0  0  0  0  0  0  0  0  0  0  0  0
   -0.0617    1.9189   -1.7262 H   0  0  0  0  0  0  0  0  0  0  0  0
   -0.8540    3.1473   -0.6921 H   0  0  0  0  0  0  0  0  0  0  0  0
   -1.6108   -0.3125   -0.7796 H   0  0  0  0  0  0  0  0  0  0  0  0
    0.1619   -0.3155   -1.0994 H   0  0  0  0  0  0  0  0  0  0  0  0
   -0.4592   -1.0100    0.4056 H   0  0  0  0  0  0  0  0  0  0  0  0
   -3.9263    3.0173    6.7268 H   0  0  0  0  0  0  0  0  0  0  0  0
   -1.9057   10.0096    2.7495 H   0  0  0  0  0  0  0  0  0  0  0  0
   -1.9418    2.9349    4.9735 H   0  0  0  0  0  0  0  0  0  0  0  0
   -2.0553    8.0976    4.3866 H   0  0  0  0  0  0  0  0  0  0  0  0
   -4.8237    5.4902    7.0113 H   0  0  0  0  0  0  0  0  0  0  0  0
   -0.4320    9.3764    0.6450 H   0  0  0  0  0  0  0  0  0  0  0  0
   -0.9666    3.7415    2.2569 H   0  0  0  0  0  0  0  0  0  0  0  0
   -0.3641    3.4411    0.9334 H   0  0  0  0  0  0  0  0  0  0  0  0
    2.5996    2.3866    2.0690 H   0  0  0  0  0  0  0  0  0  0  0  0
    2.2874    2.4809    0.5906 H   0  0  0  0  0  0  0  0  0  0  0  0
   -2.1292    5.1191    1.7143 H   0  0  0  0  0  0  0  0  0  0  0  0
  1 32  1  0  0  0  0
  1 33  1  0  0  0  0
  1 34  1  0  0  0  0
  2 35  1  0  0  0  0
  2 36  1  0  0  0  0
  2 37  1  0  0  0  0
  3 38  1  0  0  0  0
  4 39  1  0  0  0  0
  5  3  1  0  0  0  0
  5 40  1  0  0  0  0
  6  4  1  0  0  0  0
  6 41  1  0  0  0  0
  7  3  2  0  0  0  0
  7 42  1  0  0  0  0
  8  4  2  0  0  0  0
  8 43  1  0  0  0  0
  9 44  1  0  0  0  0
  9 45  1  0  0  0  0
 10 46  1  0  0  0  0
 10 47  1  0  0  0  0
 11  9  1  0  0  0  0
 11 10  1  0  0  0  0
 11 23  1  0  0  0  0
 11 27  1  1  0  0  0
 12  9  1  0  0  0  0
 12 28  1  1  0  0  0
 13 10  1  0  0  0  0
 13 29  1  1  0  0  0
 14  5  2  0  0  0  0
 15  6  2  0  0  0  0
 16 12  1  0  0  0  0
 16 30  1  1  0  0  0
 17 13  1  0  0  0  0
 17 16  1  0  0  0  0
 17 31  1  6  0  0  0
 19 14  1  0  0  0  0
 19 15  1  0  0  0  0
 19 18  1  0  0  0  0
 20 12  1  0  0  0  0
 20 13  1  0  0  0  0
 20  1  1  0  0  0  0
 20  2  1  0  0  0  0
 21 18  2  0  0  0  0
 22 19  1  0  0  0  0
 22 48  1  0  0  0  0
 23 18  1  0  0  0  0
 24 16  1  0  0  0  0
 24 17  1  0  0  0  0
 25  7  1  0  0  0  0
 25 14  1  0  0  0  0
 26  8  1  0  0  0  0
 26 15  1  0  0  0  0
M  CHG  1  20   1
M  END
>  <DRUGBANK_ID>
DB01409

>  <COMMON_NAME>
Tiotropium

>  <CAS_NUMBER>
186691-13-4

>  <UNII>
0EB439235F

$$$$
