
 OpenBabel10282417193D

 27 26  0  0  0  0  0  0  0  0999 V2000
    0.9672   -0.0760   -0.0464 C   0  0  0  0  0  0  0  0  0  0  0  0
    0.4766   -0.8710    1.1697 C   0  0  0  0  0  0  0  0  0  0  0  0
    0.4978    1.3774   -0.0867 C   0  0  0  0  0  0  0  0  0  0  0  0
    0.9214   -0.3339    2.5377 C   0  0  0  0  0  0  0  0  0  0  0  0
    0.9343    2.1770   -1.2992 C   0  0  0  0  0  0  0  0  0  0  0  0
    0.3562    1.0179    2.9893 C   0  0  0  0  0  0  0  0  0  0  0  0
    0.3860    1.6247   -2.5954 C   0  0  0  0  0  0  0  0  0  0  0  0
   -1.1491    1.1455    2.8061 C   0  0  0  0  0  0  0  0  0  0  0  0
   -1.0322    1.6282   -2.5857 O   0  0  0  0  0  0  0  0  0  0  0  0
    0.6139   -0.6072   -0.9377 H   0  0  0  0  0  0  0  0  0  0  0  0
    2.0621   -0.1043   -0.0758 H   0  0  0  0  0  0  0  0  0  0  0  0
   -0.6127   -0.9850    1.1293 H   0  0  0  0  0  0  0  0  0  0  0  0
    0.8657   -1.8944    1.0720 H   0  0  0  0  0  0  0  0  0  0  0  0
   -0.5881    1.4339    0.0307 H   0  0  0  0  0  0  0  0  0  0  0  0
    0.9499    1.9307    0.7241 H   0  0  0  0  0  0  0  0  0  0  0  0
    0.6321   -1.0736    3.2939 H   0  0  0  0  0  0  0  0  0  0  0  0
    2.0174   -0.2878    2.5565 H   0  0  0  0  0  0  0  0  0  0  0  0
    0.5718    3.2040   -1.1533 H   0  0  0  0  0  0  0  0  0  0  0  0
    2.0285    2.2228   -1.3239 H   0  0  0  0  0  0  0  0  0  0  0  0
    0.6053    1.1795    4.0427 H   0  0  0  0  0  0  0  0  0  0  0  0
    0.8753    1.8451    2.5059 H   0  0  0  0  0  0  0  0  0  0  0  0
    0.7202    2.2520   -3.4259 H   0  0  0  0  0  0  0  0  0  0  0  0
    0.7422    0.6073   -2.7748 H   0  0  0  0  0  0  0  0  0  0  0  0
   -1.6647    0.5578    3.5681 H   0  0  0  0  0  0  0  0  0  0  0  0
   -1.4587    2.1910    2.8925 H   0  0  0  0  0  0  0  0  0  0  0  0
   -1.5063    0.7960    1.8349 H   0  0  0  0  0  0  0  0  0  0  0  0
   -1.3311    1.0516   -1.8517 H   0  0  0  0  0  0  0  0  0  0  0  0
  1  2  1  0  0  0  0
  1  3  1  0  0  0  0
  1 10  1  0  0  0  0
  1 11  1  0  0  0  0
  2  4  1  0  0  0  0
  2 12  1  0  0  0  0
  2 13  1  0  0  0  0
  3  5  1  0  0  0  0
  3 14  1  0  0  0  0
  3 15  1  0  0  0  0
  4  6  1  0  0  0  0
  4 16  1  0  0  0  0
  4 17  1  0  0  0  0
  5  7  1  0  0  0  0
  5 18  1  0  0  0  0
  5 19  1  0  0  0  0
  6  8  1  0  0  0  0
  6 20  1  0  0  0  0
  6 21  1  0  0  0  0
  7  9  1  0  0  0  0
  7 22  1  0  0  0  0
  7 23  1  0  0  0  0
  8 24  1  0  0  0  0
  8 25  1  0  0  0  0
  8 26  1  0  0  0  0
  9 27  1  0  0  0  0
M  END
>  <DRUGBANK_ID>
DB12452

>  <COMMON_NAME>
Caprylic alcohol

>  <CAS_NUMBER>
111-87-5

>  <UNII>
NV1779205D

>  <SYNONYMS>
1-Octanol

$$$$
