
 OpenBabel10282417143D

 22 22  0  0  1  0  0  0  0  0999 V2000
   -2.5435    0.1697   -0.2854 O   0  0  0  0  0  0  0  0  0  0  0  0
   -1.2856   -0.2193    0.2610 C   0  0  1  0  0  0  0  0  0  0  0  0
   -0.9685   -1.6606   -0.1172 C   0  0  0  0  0  0  0  0  0  0  0  0
    0.4317   -2.0250    0.3565 C   0  0  2  0  0  0  0  0  0  0  0  0
    1.4168   -1.1073   -0.1307 O   0  0  0  0  0  0  0  0  0  0  0  0
    1.1794    0.2295    0.2734 C   0  0  1  0  0  0  0  0  0  0  0  0
    2.2443    1.0105   -0.2385 O   0  0  0  0  0  0  0  0  0  0  0  0
   -0.1919    0.7490   -0.1994 C   0  0  2  0  0  0  0  0  0  0  0  0
   -0.4953    2.0510    0.3266 O   0  0  0  0  0  0  0  0  0  0  0  0
    0.9018   -3.4022   -0.1028 C   0  0  0  0  0  0  0  0  0  0  0  0
    2.2203   -3.5855    0.1773 O   0  0  0  0  0  0  0  0  0  0  0  0
    0.2078   -4.2671   -0.6162 O   0  0  0  0  0  0  0  0  0  0  0  0
   -2.6308    1.1314   -0.1298 H   0  0  0  0  0  0  0  0  0  0  0  0
   -1.3941   -0.1472    1.3501 H   0  0  0  0  0  0  0  0  0  0  0  0
   -1.7096   -2.3295    0.3386 H   0  0  0  0  0  0  0  0  0  0  0  0
   -1.0691   -1.7940   -1.2014 H   0  0  0  0  0  0  0  0  0  0  0  0
    0.4666   -2.0321    1.4531 H   0  0  0  0  0  0  0  0  0  0  0  0
    1.2505    0.2895    1.3650 H   0  0  0  0  0  0  0  0  0  0  0  0
    2.1268    1.0338   -1.2036 H   0  0  0  0  0  0  0  0  0  0  0  0
   -0.2060    0.8507   -1.2914 H   0  0  0  0  0  0  0  0  0  0  0  0
   -0.4611    2.0076    1.2989 H   0  0  0  0  0  0  0  0  0  0  0  0
    2.6143   -2.7407    0.4876 H   0  0  0  0  0  0  0  0  0  0  0  0
  1 13  1  0  0  0  0
  2  1  1  0  0  0  0
  2  3  1  0  0  0  0
  2  8  1  0  0  0  0
  2 14  1  1  0  0  0
  3  4  1  0  0  0  0
  3 15  1  0  0  0  0
  3 16  1  0  0  0  0
  4  5  1  0  0  0  0
  4 17  1  1  0  0  0
  4 10  1  0  0  0  0
  5  6  1  0  0  0  0
  6  7  1  0  0  0  0
  6  8  1  0  0  0  0
  6 18  1  1  0  0  0
  7 19  1  0  0  0  0
  8  9  1  0  0  0  0
  8 20  1  6  0  0  0
  9 21  1  0  0  0  0
 10 11  1  0  0  0  0
 10 12  2  0  0  0  0
 11 22  1  0  0  0  0
M  END
>  <DRUGBANK_ID>
DB04548

>  <SECONDARY_ACCESSION_NUMBERS>
EXPT01554

>  <COMMON_NAME>
4-Deoxy-D-Glucuronic Acid

$$$$
