
 OpenBabel10282417123D

 43 42  0  0  1  0  0  0  0  0999 V2000
    0.9717    0.1194    0.0247 C   0  0  0  0  0  0  0  0  0  0  0  0
    4.8941    2.2285    1.4959 C   0  0  0  0  0  0  0  0  0  0  0  0
    4.0591    1.1506    0.8389 C   0  0  0  0  0  0  0  0  0  0  0  0
    5.7983    1.6045    2.5439 C   0  0  0  0  0  0  0  0  0  0  0  0
    3.2402    0.3811    1.8990 C   0  0  0  0  0  0  0  0  0  0  0  0
    8.5416    2.3239    3.6914 C   0  0  0  0  0  0  0  0  0  0  0  0
    0.4953   -0.0421    1.5115 C   0  0  1  0  0  0  0  0  0  0  0  0
    6.8579    0.6623    1.9366 C   0  0  1  0  0  0  0  0  0  0  0  0
    2.1346    1.2710    2.5690 C   0  0  0  0  0  0  0  0  0  0  0  0
    8.3957    0.8038    3.7434 C   0  0  0  0  0  0  0  0  0  0  0  0
    7.7728    1.3035    0.8710 C   0  0  0  0  0  0  0  0  0  0  0  0
    8.0376    2.9246    4.9338 N   0  0  0  0  0  0  0  0  0  0  0  0
    0.8931    1.0758    2.3207 N   0  0  0  0  0  0  0  0  0  0  0  0
    7.6675    0.0447    3.0101 N   0  0  0  0  0  0  0  0  0  0  0  0
    2.5133    2.1634    3.3589 O   0  5  0  0  0  0  0  0  0  0  0  0
    9.1340    0.2238    4.7129 O   0  0  0  0  0  0  0  0  0  0  0  0
    8.9854    1.4548    0.9370 O   0  0  0  0  0  0  0  0  0  0  0  0
    7.1202    1.7957   -0.1994 O   0  0  0  0  0  0  0  0  0  0  0  0
   -1.3008   -0.9159    0.1105 O   0  0  0  0  0  0  0  0  0  0  0  0
   -1.2475   -1.3245    2.5652 O   0  0  0  0  0  0  0  0  0  0  0  0
   -2.8831   -0.0421    1.5115 O   0  0  0  0  0  0  0  0  0  0  0  0
   -1.3347   -0.0421    1.5115 P   0  0  0  0  0  0  0  0  0  0  0  0
    0.8930   -0.9903    1.8922 H   0  0  0  0  0  0  0  0  0  0  0  0
    6.3639   -0.1837    1.4428 H   0  0  0  0  0  0  0  0  0  0  0  0
    0.5443    1.0170   -0.4285 H   0  0  0  0  0  0  0  0  0  0  0  0
    0.6991   -0.7563   -0.5753 H   0  0  0  0  0  0  0  0  0  0  0  0
    2.0370    0.1578   -0.1510 H   0  0  0  0  0  0  0  0  0  0  0  0
    5.4541    2.8131    0.7665 H   0  0  0  0  0  0  0  0  0  0  0  0
    4.2651    2.9973    1.9470 H   0  0  0  0  0  0  0  0  0  0  0  0
    4.6993    0.4452    0.2912 H   0  0  0  0  0  0  0  0  0  0  0  0
    3.4363    1.6246    0.0731 H   0  0  0  0  0  0  0  0  0  0  0  0
    6.1750    2.4434    3.1155 H   0  0  0  0  0  0  0  0  0  0  0  0
    5.2480    1.0563    3.3175 H   0  0  0  0  0  0  0  0  0  0  0  0
    3.8588   -0.0636    2.6801 H   0  0  0  0  0  0  0  0  0  0  0  0
    2.8564   -0.5304    1.4397 H   0  0  0  0  0  0  0  0  0  0  0  0
    9.5877    2.5769    3.5198 H   0  0  0  0  0  0  0  0  0  0  0  0
    8.0088    2.7690    2.8547 H   0  0  0  0  0  0  0  0  0  0  0  0
    7.9116    3.9239    4.7534 H   0  0  0  0  0  0  0  0  0  0  0  0
    7.0698    2.6003    5.0748 H   0  0  0  0  0  0  0  0  0  0  0  0
    9.5663    0.9018    5.2559 H   0  0  0  0  0  0  0  0  0  0  0  0
    7.7617    2.3735   -0.6576 H   0  0  0  0  0  0  0  0  0  0  0  0
   -1.5934   -0.3254   -0.6090 H   0  0  0  0  0  0  0  0  0  0  0  0
   -0.5467   -1.1970    3.2365 H   0  0  0  0  0  0  0  0  0  0  0  0
  1 25  1  0  0  0  0
  1 26  1  0  0  0  0
  1 27  1  0  0  0  0
  2 28  1  0  0  0  0
  2 29  1  0  0  0  0
  3  2  1  0  0  0  0
  3 30  1  0  0  0  0
  3 31  1  0  0  0  0
  4  2  1  0  0  0  0
  4 32  1  0  0  0  0
  4 33  1  0  0  0  0
  5  3  1  0  0  0  0
  5 34  1  0  0  0  0
  5 35  1  0  0  0  0
  6 36  1  0  0  0  0
  6 37  1  0  0  0  0
  7  1  1  0  0  0  0
  7 23  1  1  0  0  0
  8  4  1  0  0  0  0
  8 14  1  0  0  0  0
  8 24  1  6  0  0  0
  9  5  1  0  0  0  0
  9 15  1  0  0  0  0
 10  6  1  0  0  0  0
 10 16  1  0  0  0  0
 11  8  1  0  0  0  0
 12  6  1  0  0  0  0
 12 38  1  0  0  0  0
 12 39  1  0  0  0  0
 13  7  1  0  0  0  0
 13  9  2  3  0  0  0
 14 10  2  3  0  0  0
 16 40  1  0  0  0  0
 17 11  2  0  0  0  0
 18 11  1  0  0  0  0
 18 41  1  0  0  0  0
 19 42  1  0  0  0  0
 20 43  1  0  0  0  0
 22  7  1  0  0  0  0
 22 19  1  0  0  0  0
 22 20  1  0  0  0  0
 22 21  2  0  0  0  0
M  CHG  1  15  -1
M  END
>  <DRUGBANK_ID>
DB01868

>  <SECONDARY_ACCESSION_NUMBERS>
EXPT02767

>  <COMMON_NAME>
Glycyl-L-a-Aminopimelyl-E-(D-2-Aminoethyl)Phosphonate

$$$$
