
 OpenBabel10282417203D

 45 47  0  0  1  0  0  0  0  0999 V2000
    2.5130    1.1913   -1.1271 C   0  0  0  0  0  0  0  0  0  0  0  0
    1.6089    0.7255   -0.0112 C   0  0  0  0  0  0  0  0  0  0  0  0
    0.3058    1.5894    0.1088 C   0  0  1  0  0  0  0  0  0  0  0  0
   -0.7948    0.7092    0.4657 N   0  0  0  0  0  0  0  0  0  0  0  0
   -0.4256   -0.6740    0.4188 C   0  0  2  0  0  0  0  0  0  0  0  0
    1.0040   -0.8422   -0.6622 S   0  0  0  0  0  0  0  0  0  0  0  0
   -1.7519   -1.0178   -0.1802 C   0  0  1  0  0  0  0  0  0  0  0  0
   -1.9583    0.4959   -0.2076 C   0  0  0  0  0  0  0  0  0  0  0  0
   -2.8322    1.2584   -0.6048 O   0  0  0  0  0  0  0  0  0  0  0  0
   -1.9171   -1.9486   -1.3424 N   0  0  0  0  0  0  0  0  0  0  0  0
   -2.1875   -3.3244   -1.3366 C   0  0  0  0  0  0  0  0  0  0  0  0
   -2.2049   -3.8883   -2.4397 O   0  0  0  0  0  0  0  0  0  0  0  0
   -2.4470   -4.1956    0.0177 C   0  0  3  0  0  0  0  0  0  0  0  0
   -1.2347   -4.3262    0.9746 C   0  0  0  0  0  0  0  0  0  0  0  0
   -0.2568   -3.3716    0.9201 C   0  0  0  0  0  0  0  0  0  0  0  0
    0.6499   -3.0585    1.9340 C   0  0  0  0  0  0  0  0  0  0  0  0
    0.8237   -3.9390    2.9525 C   0  0  0  0  0  0  0  0  0  0  0  0
    0.0997   -5.1261    2.8761 C   0  0  0  0  0  0  0  0  0  0  0  0
   -0.9546   -5.3039    1.9206 C   0  0  0  0  0  0  0  0  0  0  0  0
    0.5175   -6.4349    3.9103 Cl  0  0  0  0  0  0  0  0  0  0  0  0
    2.0059   -3.5169    4.1307 Cl  0  0  0  0  0  0  0  0  0  0  0  0
   -3.6760   -3.9249    0.7295 O   0  0  0  0  0  0  0  0  0  0  0  0
   -3.8491   -2.5888    1.1559 C   0  0  0  0  0  0  0  0  0  0  0  0
    0.3696    2.7383    1.1024 C   0  0  0  0  0  0  0  0  0  0  0  0
   -0.3527    3.7210    1.0975 O   0  0  0  0  0  0  0  0  0  0  0  0
    1.2568    2.5651    2.0988 O   0  0  0  0  0  0  0  0  0  0  0  0
    2.3979    0.3970    1.2738 C   0  0  0  0  0  0  0  0  0  0  0  0
    2.8898    2.1847   -0.8980 H   0  0  0  0  0  0  0  0  0  0  0  0
    3.3621    0.5085   -1.2627 H   0  0  0  0  0  0  0  0  0  0  0  0
    1.9684    1.2364   -2.0801 H   0  0  0  0  0  0  0  0  0  0  0  0
    0.0393    1.9886   -0.8744 H   0  0  0  0  0  0  0  0  0  0  0  0
   -0.3399   -0.9494    1.4756 H   0  0  0  0  0  0  0  0  0  0  0  0
   -2.1779   -1.4609    0.6773 H   0  0  0  0  0  0  0  0  0  0  0  0
   -1.7959   -1.5861   -2.2877 H   0  0  0  0  0  0  0  0  0  0  0  0
   -2.6006   -5.2164   -0.3634 H   0  0  0  0  0  0  0  0  0  0  0  0
   -0.2134   -2.8498   -0.0066 H   0  0  0  0  0  0  0  0  0  0  0  0
    1.2383   -2.1464    1.9121 H   0  0  0  0  0  0  0  0  0  0  0  0
   -1.5042   -6.2386    1.8990 H   0  0  0  0  0  0  0  0  0  0  0  0
   -3.0572   -2.3643    1.8827 H   0  0  0  0  0  0  0  0  0  0  0  0
   -3.9035   -1.9412    0.2725 H   0  0  0  0  0  0  0  0  0  0  0  0
   -4.7730   -2.3605    1.6836 H   0  0  0  0  0  0  0  0  0  0  0  0
    1.3013    3.3786    2.6382 H   0  0  0  0  0  0  0  0  0  0  0  0
    3.1592   -0.3811    1.1408 H   0  0  0  0  0  0  0  0  0  0  0  0
    2.9611    1.2725    1.6063 H   0  0  0  0  0  0  0  0  0  0  0  0
    1.7481    0.0798    2.1020 H   0  0  0  0  0  0  0  0  0  0  0  0
  1  2  1  0  0  0  0
  1 28  1  0  0  0  0
  1 29  1  0  0  0  0
  1 30  1  0  0  0  0
  2  3  1  0  0  0  0
  2  6  1  0  0  0  0
  2 27  1  0  0  0  0
  3  4  1  0  0  0  0
  3 31  1  6  0  0  0
  3 24  1  0  0  0  0
  4  8  1  0  0  0  0
  5  4  1  0  0  0  0
  5  6  1  0  0  0  0
  5  7  1  0  0  0  0
  5 32  1  1  0  0  0
  7  8  1  0  0  0  0
  7 33  1  1  0  0  0
  7 10  1  0  0  0  0
  8  9  2  0  0  0  0
 10 11  1  0  0  0  0
 10 34  1  0  0  0  0
 11 12  2  0  0  0  0
 11 13  1  0  0  0  0
 13 14  1  0  0  0  0
 13 22  1  0  0  0  0
 13 35  1  0  0  0  0
 14 15  2  0  0  0  0
 14 19  1  0  0  0  0
 15 16  1  0  0  0  0
 15 36  1  0  0  0  0
 16 17  2  0  0  0  0
 16 37  1  0  0  0  0
 17 18  1  0  0  0  0
 17 21  1  0  0  0  0
 18 19  2  0  0  0  0
 18 20  1  0  0  0  0
 19 38  1  0  0  0  0
 22 23  1  0  0  0  0
 23 39  1  0  0  0  0
 23 40  1  0  0  0  0
 23 41  1  0  0  0  0
 24 25  2  0  0  0  0
 24 26  1  0  0  0  0
 26 42  1  0  0  0  0
 27 43  1  0  0  0  0
 27 44  1  0  0  0  0
 27 45  1  0  0  0  0
M  END
>  <DRUGBANK_ID>
DB13686

>  <COMMON_NAME>
Clometocillin

>  <CAS_NUMBER>
1926-49-4

>  <UNII>
YI8LL014GF

>  <SYNONYMS>
clometocilina; Clometocillin

$$$$
