
 OpenBabel10282417223D

 58 61  0  0  1  0  0  0  0  0999 V2000
    1.1360    0.0664   -0.1100 C   0  0  0  0  0  0  0  0  0  0  0  0
    0.5280    0.7356   -1.3554 C   0  0  1  0  0  0  0  0  0  0  0  0
    0.9972    0.1022   -2.6111 N   0  0  0  0  0  0  0  0  0  0  0  0
    0.1928   -0.4032   -3.6291 C   0  0  0  0  0  0  0  0  0  0  0  0
   -0.9438    0.2714   -4.0977 C   0  0  0  0  0  0  0  0  0  0  0  0
   -1.8527   -0.3302   -4.9657 C   0  0  0  0  0  0  0  0  0  0  0  0
   -2.9603    0.3356   -5.3185 F   0  0  0  0  0  0  0  0  0  0  0  0
   -1.6385   -1.6060   -5.4451 C   0  0  0  0  0  0  0  0  0  0  0  0
   -0.5030   -2.2771   -5.0216 C   0  0  0  0  0  0  0  0  0  0  0  0
   -0.2902   -3.5255   -5.4613 F   0  0  0  0  0  0  0  0  0  0  0  0
    0.3995   -1.7000   -4.1178 C   0  0  0  0  0  0  0  0  0  0  0  0
   -0.9783    0.7021   -1.1921 C   0  0  0  0  0  0  0  0  0  0  0  0
   -1.7424    1.9136   -1.2365 C   0  0  0  0  0  0  0  0  0  0  0  0
   -3.1484    1.8824   -1.2778 C   0  0  0  0  0  0  0  0  0  0  0  0
   -3.6974    0.6102   -1.2829 C   0  0  0  0  0  0  0  0  0  0  0  0
   -2.9839   -0.5696   -1.1942 C   0  0  0  0  0  0  0  0  0  0  0  0
   -1.6271   -0.5502   -1.1384 C   0  0  0  0  0  0  0  0  0  0  0  0
   -0.9130   -1.7236   -1.1459 O   0  0  0  0  0  0  0  0  0  0  0  0
   -1.5782   -2.9304   -1.3079 C   0  0  0  0  0  0  0  0  0  0  0  0
   -2.9106   -3.0383   -1.3056 C   0  0  0  0  0  0  0  0  0  0  0  0
   -3.7261   -1.8346   -1.2406 C   0  0  0  0  0  0  0  0  0  0  0  0
   -4.9385   -1.8914   -1.2650 O   0  0  0  0  0  0  0  0  0  0  0  0
   -0.7858   -4.0376   -1.5299 N   0  0  0  0  0  0  0  0  0  0  0  0
   -0.9802   -4.8990   -2.7064 C   0  0  0  0  0  0  0  0  0  0  0  0
   -1.0624   -6.3515   -2.2463 C   0  0  0  0  0  0  0  0  0  0  0  0
    0.1265   -6.7252   -1.5269 O   0  0  0  0  0  0  0  0  0  0  0  0
    0.3023   -5.8786   -0.3724 C   0  0  0  0  0  0  0  0  0  0  0  0
    0.4125   -4.3894   -0.7633 C   0  0  0  0  0  0  0  0  0  0  0  0
   -3.9540    3.1695   -1.3446 C   0  0  0  0  0  0  0  0  0  0  0  0
   -3.2958    4.2165   -1.3744 O   0  0  0  0  0  0  0  0  0  0  0  0
   -5.3662    3.2290   -1.3516 N   0  0  0  0  0  0  0  0  0  0  0  0
   -6.3647    2.1786   -1.3321 C   0  0  0  0  0  0  0  0  0  0  0  0
   -5.9907    4.5477   -1.3709 C   0  0  0  0  0  0  0  0  0  0  0  0
    0.8686   -0.9896   -0.0082 H   0  0  0  0  0  0  0  0  0  0  0  0
    0.7681    0.5590    0.8005 H   0  0  0  0  0  0  0  0  0  0  0  0
    2.2257    0.1009   -0.1145 H   0  0  0  0  0  0  0  0  0  0  0  0
    0.8803    1.7741   -1.3709 H   0  0  0  0  0  0  0  0  0  0  0  0
    1.9705   -0.1804   -2.6223 H   0  0  0  0  0  0  0  0  0  0  0  0
   -1.1724    1.2751   -3.7602 H   0  0  0  0  0  0  0  0  0  0  0  0
   -2.3419   -2.0647   -6.1286 H   0  0  0  0  0  0  0  0  0  0  0  0
    1.2213   -2.3086   -3.7523 H   0  0  0  0  0  0  0  0  0  0  0  0
   -1.2243    2.8738   -1.3080 H   0  0  0  0  0  0  0  0  0  0  0  0
   -4.7141    0.3709   -1.3989 H   0  0  0  0  0  0  0  0  0  0  0  0
   -3.4381   -3.9771   -1.3826 H   0  0  0  0  0  0  0  0  0  0  0  0
   -0.1189   -4.7689   -3.3700 H   0  0  0  0  0  0  0  0  0  0  0  0
   -1.8807   -4.6259   -3.2680 H   0  0  0  0  0  0  0  0  0  0  0  0
   -1.9348   -6.5048   -1.5999 H   0  0  0  0  0  0  0  0  0  0  0  0
   -1.1601   -7.0081   -3.1152 H   0  0  0  0  0  0  0  0  0  0  0  0
    1.2098   -6.2066    0.1421 H   0  0  0  0  0  0  0  0  0  0  0  0
   -0.5464   -6.0382    0.3042 H   0  0  0  0  0  0  0  0  0  0  0  0
    1.2983   -4.2345   -1.3905 H   0  0  0  0  0  0  0  0  0  0  0  0
    0.5169   -3.7760    0.1386 H   0  0  0  0  0  0  0  0  0  0  0  0
   -6.9629    2.2721   -0.4248 H   0  0  0  0  0  0  0  0  0  0  0  0
   -6.9613    2.2381   -2.2444 H   0  0  0  0  0  0  0  0  0  0  0  0
   -6.0384    1.1769   -1.3027 H   0  0  0  0  0  0  0  0  0  0  0  0
   -5.7034    5.1114   -0.4801 H   0  0  0  0  0  0  0  0  0  0  0  0
   -5.7066    5.0875   -2.2769 H   0  0  0  0  0  0  0  0  0  0  0  0
   -7.0840    4.4371   -1.3662 H   0  0  0  0  0  0  0  0  0  0  0  0
  1 34  1  0  0  0  0
  1 35  1  0  0  0  0
  1 36  1  0  0  0  0
  2  1  1  0  0  0  0
  2  3  1  0  0  0  0
  2 12  1  0  0  0  0
  2 37  1  6  0  0  0
  3  4  1  0  0  0  0
  3 38  1  0  0  0  0
  4  5  2  0  0  0  0
  4 11  1  0  0  0  0
  5  6  1  0  0  0  0
  5 39  1  0  0  0  0
  6  7  1  0  0  0  0
  6  8  2  0  0  0  0
  8  9  1  0  0  0  0
  8 40  1  0  0  0  0
  9 10  1  0  0  0  0
  9 11  2  0  0  0  0
 11 41  1  0  0  0  0
 12 13  2  0  0  0  0
 12 17  1  0  0  0  0
 13 14  1  0  0  0  0
 13 42  1  0  0  0  0
 14 15  2  0  0  0  0
 14 29  1  0  0  0  0
 15 16  1  0  0  0  0
 15 43  1  0  0  0  0
 16 17  2  0  0  0  0
 16 21  1  0  0  0  0
 17 18  1  0  0  0  0
 18 19  1  0  0  0  0
 19 20  2  0  0  0  0
 19 23  1  0  0  0  0
 20 21  1  0  0  0  0
 20 44  1  0  0  0  0
 21 22  2  0  0  0  0
 23 24  1  0  0  0  0
 23 28  1  0  0  0  0
 24 25  1  0  0  0  0
 24 45  1  0  0  0  0
 24 46  1  0  0  0  0
 25 26  1  0  0  0  0
 25 47  1  0  0  0  0
 25 48  1  0  0  0  0
 26 27  1  0  0  0  0
 27 28  1  0  0  0  0
 27 49  1  0  0  0  0
 27 50  1  0  0  0  0
 28 51  1  0  0  0  0
 28 52  1  0  0  0  0
 29 30  2  0  0  0  0
 29 31  1  0  0  0  0
 31 32  1  0  0  0  0
 31 33  1  0  0  0  0
 32 53  1  0  0  0  0
 32 54  1  0  0  0  0
 32 55  1  0  0  0  0
 33 56  1  0  0  0  0
 33 57  1  0  0  0  0
 33 58  1  0  0  0  0
M  END
>  <DRUGBANK_ID>
DB15029

>  <COMMON_NAME>
AZD-8186

>  <CAS_NUMBER>
1627494-13-6

>  <UNII>
AIQ4OWD0RA

$$$$
