
 OpenBabel10282417203D

 75 72  0  0  1  0  0  0  0  0999 V2000
    6.2077   -3.0617   -4.0665 C   0  0  0  0  0  0  0  0  0  0  0  0
    5.8337   -4.4567   -3.8766 N   0  0  0  0  0  0  0  0  0  0  0  0
    5.0326   -4.6153   -2.6762 C   0  0  0  0  0  0  0  0  0  0  0  0
    5.1772   -5.0249   -5.0794 C   0  0  0  0  0  0  0  0  0  0  0  0
    3.9192   -4.3072   -5.5178 C   0  0  0  0  0  0  0  0  0  0  0  0
    3.7271   -3.8783   -6.6709 O   0  0  0  0  0  0  0  0  0  0  0  0
    3.0143   -4.2285   -4.5158 O   0  0  0  0  0  0  0  0  0  0  0  0
    1.8341   -3.4764   -4.7673 C   0  0  0  0  0  0  0  0  0  0  0  0
    2.1013   -1.9560   -4.9077 C   0  0  2  0  0  0  0  0  0  0  0  0
    0.7913   -1.1777   -4.9255 C   0  0  2  0  0  0  0  0  0  0  0  0
    0.4124   -0.5904   -3.5550 C   0  0  1  0  0  0  0  0  0  0  0  0
   -1.0973   -0.6989   -3.3288 C   0  0  2  0  0  0  0  0  0  0  0  0
   -1.5113    0.5357   -2.5096 C   0  0  0  0  0  0  0  0  0  0  0  0
   -0.6446    1.4560   -2.3692 O   0  0  0  0  0  0  0  0  0  0  0  0
   -2.2805    0.2962   -1.5400 O   0  5  0  0  0  0  0  0  0  0  0  0
   -1.2453   -1.9515   -2.5802 O   0  0  0  0  0  0  0  0  0  0  0  0
    1.0419   -1.2161   -2.3799 O   0  0  0  0  0  0  0  0  0  0  0  0
   -0.2700   -1.9876   -5.4443 O   0  0  0  0  0  0  0  0  0  0  0  0
    2.7575   -1.6018   -6.1271 O   0  0  0  0  0  0  0  0  0  0  0  0
    2.6989   -5.8551   -0.9333 C   0  0  0  0  0  0  0  0  0  0  0  0
    3.0023   -6.9546   -0.0296 N   0  0  0  0  0  0  0  0  0  0  0  0
    3.0789   -6.4654    1.3476 C   0  0  0  0  0  0  0  0  0  0  0  0
    2.0317   -8.0647   -0.1919 C   0  0  0  0  0  0  0  0  0  0  0  0
    0.5870   -7.6697    0.0523 C   0  0  0  0  0  0  0  0  0  0  0  0
   -0.2876   -7.7171   -0.8088 O   0  0  0  0  0  0  0  0  0  0  0  0
    0.4192   -7.1461    1.2922 O   0  0  0  0  0  0  0  0  0  0  0  0
   -0.8518   -6.5597    1.5510 C   0  0  0  0  0  0  0  0  0  0  0  0
   -1.2494   -5.3272    0.6777 C   0  0  2  0  0  0  0  0  0  0  0  0
   -2.7536   -5.4448    0.3663 C   0  0  2  0  0  0  0  0  0  0  0  0
   -3.5878   -4.1856    0.0682 C   0  0  1  0  0  0  0  0  0  0  0  0
   -3.1309   -2.7691    0.4362 C   0  0  2  0  0  0  0  0  0  0  0  0
   -2.5212   -2.4539    1.8372 C   0  0  0  0  0  0  0  0  0  0  0  0
   -2.3720   -3.4236    2.6229 O   0  0  0  0  0  0  0  0  0  0  0  0
   -2.0618   -1.2630    1.9499 O   0  5  0  0  0  0  0  0  0  0  0  0
   -4.2789   -1.8965    0.2278 O   0  0  0  0  0  0  0  0  0  0  0  0
   -3.9946   -4.2394   -1.3253 O   0  0  0  0  0  0  0  0  0  0  0  0
   -3.4172   -6.1290    1.4475 O   0  0  0  0  0  0  0  0  0  0  0  0
   -0.5146   -5.1441   -0.5447 O   0  0  0  0  0  0  0  0  0  0  0  0
   -0.0744    0.2612   -0.2743 Ca  0  2  0  0  0  0  0  0  0  0  0  0
    6.7216   -2.6824   -3.1764 H   0  0  0  0  0  0  0  0  0  0  0  0
    5.3401   -2.4201   -4.2516 H   0  0  0  0  0  0  0  0  0  0  0  0
    6.9031   -2.9676   -4.9051 H   0  0  0  0  0  0  0  0  0  0  0  0
    4.1280   -3.9995   -2.6762 H   0  0  0  0  0  0  0  0  0  0  0  0
    4.7599   -5.6676   -2.5632 H   0  0  0  0  0  0  0  0  0  0  0  0
    5.5756   -4.3193   -1.7742 H   0  0  0  0  0  0  0  0  0  0  0  0
    5.8851   -4.9892   -5.9145 H   0  0  0  0  0  0  0  0  0  0  0  0
    4.9242   -6.0821   -4.9309 H   0  0  0  0  0  0  0  0  0  0  0  0
    1.3501   -3.9173   -5.6431 H   0  0  0  0  0  0  0  0  0  0  0  0
    1.1718   -3.6558   -3.9117 H   0  0  0  0  0  0  0  0  0  0  0  0
    2.7765   -1.6069   -4.1186 H   0  0  0  0  0  0  0  0  0  0  0  0
    0.8586   -0.3245   -5.6151 H   0  0  0  0  0  0  0  0  0  0  0  0
    0.8279    0.4209   -3.5550 H   0  0  0  0  0  0  0  0  0  0  0  0
   -1.7175   -0.7629   -4.2226 H   0  0  0  0  0  0  0  0  0  0  0  0
   -1.2483   -1.7431   -1.6376 H   0  0  0  0  0  0  0  0  0  0  0  0
    0.8204   -2.1699   -2.5124 H   0  0  0  0  0  0  0  0  0  0  0  0
    0.0447   -2.5679   -6.1536 H   0  0  0  0  0  0  0  0  0  0  0  0
    2.4334   -2.1785   -6.8441 H   0  0  0  0  0  0  0  0  0  0  0  0
    3.4369   -5.0622   -0.8007 H   0  0  0  0  0  0  0  0  0  0  0  0
    1.7359   -5.3907   -0.7471 H   0  0  0  0  0  0  0  0  0  0  0  0
    2.7179   -6.1878   -1.9769 H   0  0  0  0  0  0  0  0  0  0  0  0
    2.1816   -5.9287    1.6665 H   0  0  0  0  0  0  0  0  0  0  0  0
    3.2671   -7.2913    2.0401 H   0  0  0  0  0  0  0  0  0  0  0  0
    3.8959   -5.7466    1.4583 H   0  0  0  0  0  0  0  0  0  0  0  0
    2.0891   -8.4340   -1.2244 H   0  0  0  0  0  0  0  0  0  0  0  0
    2.2825   -8.9131    0.4521 H   0  0  0  0  0  0  0  0  0  0  0  0
   -1.5750   -7.3806    1.5065 H   0  0  0  0  0  0  0  0  0  0  0  0
   -0.8590   -6.2319    2.6007 H   0  0  0  0  0  0  0  0  0  0  0  0
   -0.9847   -4.4414    1.2422 H   0  0  0  0  0  0  0  0  0  0  0  0
   -2.8246   -6.1086   -0.5129 H   0  0  0  0  0  0  0  0  0  0  0  0
   -4.5313   -4.3226    0.6042 H   0  0  0  0  0  0  0  0  0  0  0  0
   -2.3935   -2.4186   -0.2851 H   0  0  0  0  0  0  0  0  0  0  0  0
   -4.9570   -2.2011    0.8587 H   0  0  0  0  0  0  0  0  0  0  0  0
   -3.2173   -4.0654   -1.8837 H   0  0  0  0  0  0  0  0  0  0  0  0
   -3.9420   -6.8563    1.0774 H   0  0  0  0  0  0  0  0  0  0  0  0
   -0.5654   -6.0034   -1.0157 H   0  0  0  0  0  0  0  0  0  0  0  0
  1  2  1  0  0  0  0
  1 40  1  0  0  0  0
  1 41  1  0  0  0  0
  1 42  1  0  0  0  0
  2  3  1  0  0  0  0
  2  4  1  0  0  0  0
  3 43  1  0  0  0  0
  3 44  1  0  0  0  0
  3 45  1  0  0  0  0
  4  5  1  0  0  0  0
  4 46  1  0  0  0  0
  4 47  1  0  0  0  0
  5  6  2  0  0  0  0
  5  7  1  0  0  0  0
  7  8  1  0  0  0  0
  8 48  1  0  0  0  0
  8 49  1  0  0  0  0
  9 19  1  0  0  0  0
  9 50  1  1  0  0  0
  9 10  1  0  0  0  0
  9  8  1  0  0  0  0
 10 51  1  6  0  0  0
 10 18  1  0  0  0  0
 10 11  1  0  0  0  0
 11 17  1  0  0  0  0
 11 52  1  6  0  0  0
 12 16  1  0  0  0  0
 12 53  1  6  0  0  0
 12 13  1  0  0  0  0
 12 11  1  0  0  0  0
 13 14  2  0  0  0  0
 13 15  1  0  0  0  0
 16 54  1  0  0  0  0
 17 55  1  0  0  0  0
 18 56  1  0  0  0  0
 19 57  1  0  0  0  0
 20 21  1  0  0  0  0
 20 58  1  0  0  0  0
 20 59  1  0  0  0  0
 20 60  1  0  0  0  0
 21 22  1  0  0  0  0
 21 23  1  0  0  0  0
 22 61  1  0  0  0  0
 22 62  1  0  0  0  0
 22 63  1  0  0  0  0
 23 24  1  0  0  0  0
 23 64  1  0  0  0  0
 23 65  1  0  0  0  0
 24 25  2  0  0  0  0
 24 26  1  0  0  0  0
 26 27  1  0  0  0  0
 27 66  1  0  0  0  0
 27 67  1  0  0  0  0
 28 38  1  0  0  0  0
 28 68  1  1  0  0  0
 28 29  1  0  0  0  0
 28 27  1  0  0  0  0
 29 69  1  6  0  0  0
 29 37  1  0  0  0  0
 29 30  1  0  0  0  0
 30 36  1  0  0  0  0
 30 70  1  1  0  0  0
 31 35  1  0  0  0  0
 31 71  1  6  0  0  0
 31 32  1  0  0  0  0
 31 30  1  0  0  0  0
 32 33  2  0  0  0  0
 32 34  1  0  0  0  0
 35 72  1  0  0  0  0
 36 73  1  0  0  0  0
 37 74  1  0  0  0  0
 38 75  1  0  0  0  0
M  CHG  3  15  -1  34  -1  39   2
M  END
>  <DRUGBANK_ID>
DB13590

>  <COMMON_NAME>
Calcium pangamate

>  <CAS_NUMBER>
20310-61-6

>  <UNII>
492G10Q871

$$$$
