695
 OpenBabel10282417103D

 32 33  0  0  0  0  0  0  0  0999 V2000
   -2.1137   -0.2334    0.0118 Cl  0  0  0  0  0  0  0  0  0  0  0  0
   -0.5315    2.7993   -0.0421 S   0  0  0  0  0  0  0  0  0  0  0  0
    1.9202   -5.8369   -1.3679 O   0  0  0  0  0  0  0  0  0  0  0  0
   -0.2423    3.4396    1.2256 O   0  0  0  0  0  0  0  0  0  0  0  0
   -0.2388    3.4288   -1.3030 O   0  0  0  0  0  0  0  0  0  0  0  0
    4.7926   -0.9099    0.0287 O   0  0  0  0  0  0  0  0  0  0  0  0
    4.4218    1.2687    0.0520 O   0  0  0  0  0  0  0  0  0  0  0  0
    2.3474   -2.5290    0.2050 N   0  0  0  0  0  0  0  0  0  0  0  0
   -2.1884    2.5541   -0.0259 N   0  0  0  0  0  0  0  0  0  0  0  0
    1.7424   -1.2823    0.0098 C   0  0  0  0  0  0  0  0  0  0  0  0
    0.2705    1.2097   -0.0303 C   0  0  0  0  0  0  0  0  0  0  0  0
    2.4419   -0.0508    0.0250 C   0  0  0  0  0  0  0  0  0  0  0  0
    1.6875    1.1750   -0.0077 C   0  0  0  0  0  0  0  0  0  0  0  0
    1.6788   -3.8292    0.0023 C   0  0  0  0  0  0  0  0  0  0  0  0
    0.3327   -1.1928   -0.0162 C   0  0  0  0  0  0  0  0  0  0  0  0
   -0.4035    0.0044   -0.0294 C   0  0  0  0  0  0  0  0  0  0  0  0
    2.0634   -4.4833   -1.2836 C   0  0  0  0  0  0  0  0  0  0  0  0
    3.9464    0.1380    0.0581 C   0  0  0  0  0  0  0  0  0  0  0  0
    2.5279   -3.9822   -2.4828 C   0  0  0  0  0  0  0  0  0  0  0  0
    2.6136   -5.0791   -3.3677 C   0  0  0  0  0  0  0  0  0  0  0  0
    2.2435   -6.1868   -2.6418 C   0  0  0  0  0  0  0  0  0  0  0  0
    4.5112   -1.7961    0.2835 H   0  0  0  0  0  0  0  0  0  0  0  0
    3.2458   -2.6320   -0.2297 H   0  0  0  0  0  0  0  0  0  0  0  0
   -2.5082    1.9770    0.7524 H   0  0  0  0  0  0  0  0  0  0  0  0
   -2.7211    3.4164   -0.1357 H   0  0  0  0  0  0  0  0  0  0  0  0
    2.2281    2.1278   -0.0022 H   0  0  0  0  0  0  0  0  0  0  0  0
    1.9902   -4.4601    0.8415 H   0  0  0  0  0  0  0  0  0  0  0  0
    0.5889   -3.7953    0.0491 H   0  0  0  0  0  0  0  0  0  0  0  0
   -0.2712   -2.0934   -0.0119 H   0  0  0  0  0  0  0  0  0  0  0  0
    2.7338   -2.9427   -2.6979 H   0  0  0  0  0  0  0  0  0  0  0  0
    2.8937   -5.0601   -4.4115 H   0  0  0  0  0  0  0  0  0  0  0  0
    2.1447   -7.2364   -2.8830 H   0  0  0  0  0  0  0  0  0  0  0  0
  1 16  1  0  0  0  0
  2  4  2  0  0  0  0
  2  5  2  0  0  0  0
  2  9  1  0  0  0  0
  2 11  1  0  0  0  0
  3 17  1  0  0  0  0
  3 21  1  0  0  0  0
  6 18  1  0  0  0  0
  6 22  1  0  0  0  0
  7 18  2  0  0  0  0
  8 10  1  0  0  0  0
  8 14  1  0  0  0  0
  8 23  1  0  0  0  0
  9 24  1  0  0  0  0
  9 25  1  0  0  0  0
 10 12  1  0  0  0  0
 10 15  2  0  0  0  0
 11 13  1  0  0  0  0
 11 16  2  0  0  0  0
 12 13  2  0  0  0  0
 12 18  1  0  0  0  0
 13 26  1  0  0  0  0
 14 17  1  0  0  0  0
 14 27  1  0  0  0  0
 14 28  1  0  0  0  0
 15 16  1  0  0  0  0
 15 29  1  0  0  0  0
 17 19  2  0  0  0  0
 19 20  1  0  0  0  0
 19 30  1  0  0  0  0
 20 21  2  0  0  0  0
 20 31  1  0  0  0  0
 21 32  1  0  0  0  0
M  END
>  <DRUGBANK_ID>
DB00695

>  <SECONDARY_ACCESSION_NUMBERS>
APRD00608; DB07799

>  <COMMON_NAME>
Furosemide

>  <CAS_NUMBER>
54-31-9

>  <UNII>
7LXU5N7ZO5

>  <SYNONYMS>
2-Furfurylamino-4-chloro-5-sulfamoylbenzoic acid; 4-Chloro-5-sulfamoyl-N-furfuryl-anthranilic acid; 4-Chloro-N-(2-furylmethyl)-5-sulfamoylanthranilic acid; 4-Chloro-N-furfuryl-5-sulfamoylanthranilic acid; Frusemide; Furosemid; Furosemida; Furosemide; Furosemidu; Furosemidum

$$$$
