
 OpenBabel10282417173D

 25 25  0  0  0  0  0  0  0  0999 V2000
    1.4811    1.3484    0.7126 C   0  0  0  0  0  0  0  0  0  0  0  0
   -3.4309    0.9704   -0.1012 C   0  0  0  0  0  0  0  0  0  0  0  0
   -2.4370    1.4592   -0.9155 C   0  0  0  0  0  0  0  0  0  0  0  0
   -3.0576    0.1927    0.9789 C   0  0  0  0  0  0  0  0  0  0  0  0
   -1.1019    1.2188   -0.5780 C   0  0  0  0  0  0  0  0  0  0  0  0
   -1.5772   -0.1286    2.9513 C   0  0  0  0  0  0  0  0  0  0  0  0
   -2.5079   -0.2527    3.9270 C   0  0  0  0  0  0  0  0  0  0  0  0
   -1.7803    0.2322    1.5257 C   0  0  0  0  0  0  0  0  0  0  0  0
   -3.9919   -0.0064    3.8463 C   0  0  0  0  0  0  0  0  0  0  0  0
   -0.7623    0.6515    0.6643 C   0  0  0  0  0  0  0  0  0  0  0  0
   -4.9247   -0.5775    4.8854 C   0  0  0  0  0  0  0  0  0  0  0  0
   -4.5922    0.6467    2.9957 O   0  0  0  0  0  0  0  0  0  0  0  0
   -6.1926   -0.5837    4.4155 O   0  0  0  0  0  0  0  0  0  0  0  0
   -4.5662   -0.9357    5.9972 O   0  0  0  0  0  0  0  0  0  0  0  0
    0.5282    0.3366    1.0071 O   0  0  0  0  0  0  0  0  0  0  0  0
   -0.5263   -0.2172    3.2434 H   0  0  0  0  0  0  0  0  0  0  0  0
   -2.1666   -0.5266    4.9248 H   0  0  0  0  0  0  0  0  0  0  0  0
    2.4674    0.9697    0.9974 H   0  0  0  0  0  0  0  0  0  0  0  0
    1.2670    2.2386    1.3101 H   0  0  0  0  0  0  0  0  0  0  0  0
    1.5267    1.5920   -0.3520 H   0  0  0  0  0  0  0  0  0  0  0  0
   -4.4861    1.1231   -0.3068 H   0  0  0  0  0  0  0  0  0  0  0  0
   -2.7115    1.9335   -1.8512 H   0  0  0  0  0  0  0  0  0  0  0  0
   -3.8143   -0.4490    1.4044 H   0  0  0  0  0  0  0  0  0  0  0  0
   -0.3479    1.4668   -1.3145 H   0  0  0  0  0  0  0  0  0  0  0  0
   -6.2077   -0.1674    3.5156 H   0  0  0  0  0  0  0  0  0  0  0  0
  1 18  1  0  0  0  0
  1 19  1  0  0  0  0
  1 20  1  0  0  0  0
  2 21  1  0  0  0  0
  3  2  2  0  0  0  0
  3 22  1  0  0  0  0
  4  2  1  0  0  0  0
  4 23  1  0  0  0  0
  5  3  1  0  0  0  0
  5 24  1  0  0  0  0
  7  6  2  0  0  0  0
  8  4  2  0  0  0  0
  8  6  1  0  0  0  0
  9  7  1  0  0  0  0
 10  5  2  0  0  0  0
 10  8  1  0  0  0  0
 11  9  1  0  0  0  0
 12  9  2  0  0  0  0
 13 11  1  0  0  0  0
 13 25  1  0  0  0  0
 14 11  2  0  0  0  0
 15  1  1  0  0  0  0
 15 10  1  0  0  0  0
 16  6  1  0  0  0  0
 17  7  1  0  0  0  0
M  END
>  <DRUGBANK_ID>
DB08637

>  <COMMON_NAME>
4-(2-METHOXYPHENYL)-2-OXOBUT-3-ENOIC ACID

$$$$
