
 OpenBabel10282417103D

 39 39  0  0  0  0  0  0  0  0999 V2000
    1.2054   -1.0086    0.0002 C   0  0  0  0  0  0  0  0  0  0  0  0
    0.0555   -1.7812   -0.0024 C   0  0  0  0  0  0  0  0  0  0  0  0
   -1.1674   -1.1501   -0.0038 C   0  0  0  0  0  0  0  0  0  0  0  0
    1.1475    0.4101    0.0005 C   0  0  0  0  0  0  0  0  0  0  0  0
    2.4842    1.1133    0.0080 C   0  0  0  0  0  0  0  0  0  0  0  0
   -1.2710    0.2512    0.0006 C   0  0  0  0  0  0  0  0  0  0  0  0
   -2.6886    0.7217   -0.0007 C   0  0  0  0  0  0  0  0  0  0  0  0
   -0.1188    1.0772    0.0072 C   0  0  0  0  0  0  0  0  0  0  0  0
   -0.1581    2.5215    0.0133 N   0  0  0  0  0  0  0  0  0  0  0  0
   -1.2762    3.3669    0.0845 C   0  0  0  0  0  0  0  0  0  0  0  0
   -2.4518    3.0919    0.1956 O   0  0  0  0  0  0  0  0  0  0  0  0
   -1.0276    4.8559   -0.0265 C   0  0  0  0  0  0  0  0  0  0  0  0
   -1.8509    6.7989   -1.2644 C   0  0  0  0  0  0  0  0  0  0  0  0
   -0.5469    7.5750   -1.1692 C   0  0  0  0  0  0  0  0  0  0  0  0
   -1.6779    5.3507   -1.2584 N   0  0  0  0  0  0  0  0  0  0  0  0
   -1.1666    4.7521   -2.4930 C   0  0  0  0  0  0  0  0  0  0  0  0
    0.3228    4.9667   -2.7180 C   0  0  0  0  0  0  0  0  0  0  0  0
    2.1598   -1.5330    0.0058 H   0  0  0  0  0  0  0  0  0  0  0  0
    0.0948   -2.8656   -0.0023 H   0  0  0  0  0  0  0  0  0  0  0  0
   -2.0756   -1.7493   -0.0061 H   0  0  0  0  0  0  0  0  0  0  0  0
    2.6025    1.7347   -0.8836 H   0  0  0  0  0  0  0  0  0  0  0  0
    2.5978    1.7171    0.9122 H   0  0  0  0  0  0  0  0  0  0  0  0
    3.3178    0.3952    0.0030 H   0  0  0  0  0  0  0  0  0  0  0  0
   -2.8730    1.2372    0.9466 H   0  0  0  0  0  0  0  0  0  0  0  0
   -2.8654    1.2946   -0.9179 H   0  0  0  0  0  0  0  0  0  0  0  0
   -3.4332   -0.0746   -0.0119 H   0  0  0  0  0  0  0  0  0  0  0  0
    0.7436    2.9774   -0.0356 H   0  0  0  0  0  0  0  0  0  0  0  0
   -1.5550    5.2738    0.8444 H   0  0  0  0  0  0  0  0  0  0  0  0
    0.0249    5.1097    0.0785 H   0  0  0  0  0  0  0  0  0  0  0  0
   -2.4154    7.1096   -2.1530 H   0  0  0  0  0  0  0  0  0  0  0  0
   -2.4881    7.0775   -0.4137 H   0  0  0  0  0  0  0  0  0  0  0  0
    0.0010    7.5418   -2.1075 H   0  0  0  0  0  0  0  0  0  0  0  0
   -0.7281    8.6299   -0.9677 H   0  0  0  0  0  0  0  0  0  0  0  0
    0.1010    7.1889   -0.3773 H   0  0  0  0  0  0  0  0  0  0  0  0
   -1.3606    3.6705   -2.4821 H   0  0  0  0  0  0  0  0  0  0  0  0
   -1.7383    5.1155   -3.3566 H   0  0  0  0  0  0  0  0  0  0  0  0
    0.9078    4.7630   -1.8171 H   0  0  0  0  0  0  0  0  0  0  0  0
    0.7011    4.3228   -3.5116 H   0  0  0  0  0  0  0  0  0  0  0  0
    0.5296    5.9845   -3.0385 H   0  0  0  0  0  0  0  0  0  0  0  0
  1  2  1  0  0  0  0
  1  4  2  0  0  0  0
  1 18  1  0  0  0  0
  2  3  2  0  0  0  0
  2 19  1  0  0  0  0
  3  6  1  0  0  0  0
  3 20  1  0  0  0  0
  4  5  1  0  0  0  0
  5 21  1  0  0  0  0
  5 22  1  0  0  0  0
  5 23  1  0  0  0  0
  6  8  2  0  0  0  0
  6  7  1  0  0  0  0
  7 24  1  0  0  0  0
  7 25  1  0  0  0  0
  7 26  1  0  0  0  0
  8  4  1  0  0  0  0
  8  9  1  0  0  0  0
  9 10  1  0  0  0  0
  9 27  1  0  0  0  0
 10 12  1  0  0  0  0
 10 11  2  0  0  0  0
 12 15  1  0  0  0  0
 12 28  1  0  0  0  0
 12 29  1  0  0  0  0
 13 14  1  0  0  0  0
 13 30  1  0  0  0  0
 13 31  1  0  0  0  0
 14 32  1  0  0  0  0
 14 33  1  0  0  0  0
 14 34  1  0  0  0  0
 15 13  1  0  0  0  0
 15 16  1  0  0  0  0
 16 17  1  0  0  0  0
 16 35  1  0  0  0  0
 16 36  1  0  0  0  0
 17 37  1  0  0  0  0
 17 38  1  0  0  0  0
 17 39  1  0  0  0  0
M  END
>  <DRUGBANK_ID>
DB00281

>  <SECONDARY_ACCESSION_NUMBERS>
APRD00479; DB05291

>  <COMMON_NAME>
Lidocaine

>  <CAS_NUMBER>
137-58-6

>  <UNII>
98PI200987

>  <SYNONYMS>
2-(Diethylamino)-2',6'-acetoxylidide; 2-(Diethylamino)-N-(2,6-dimethylphenyl)acetamide; alpha-diethylamino-2,6-dimethylacetanilide; Lidocaína; Lidocaina; Lidocaine; Lidocainum; Lignocaine; α-diethylamino-2,6-dimethylacetanilide

$$$$
