
 OpenBabel10282417193D

 99106  0  0  1  0  0  0  0  0999 V2000
    1.2366   -0.3185    0.2547 C   0  0  0  0  0  0  0  0  0  0  0  0
    0.3117   -1.3297    0.1661 C   0  0  0  0  0  0  0  0  0  0  0  0
   -1.0398   -1.0738    0.0516 C   0  0  0  0  0  0  0  0  0  0  0  0
   -1.4340    0.2513   -0.0341 C   0  0  0  0  0  0  0  0  0  0  0  0
   -0.4945    1.2721    0.0006 C   0  0  0  0  0  0  0  0  0  0  0  0
    0.8801    1.0032    0.0706 C   0  0  0  0  0  0  0  0  0  0  0  0
    1.7784    2.1796   -0.0060 C   0  0  0  0  0  0  0  0  0  0  0  0
    1.1397    3.2395    0.1021 O   0  0  0  0  0  0  0  0  0  0  0  0
    3.1456    2.1955   -0.2167 N   0  0  0  0  0  0  0  0  0  0  0  0
    3.9172    1.0339   -0.2562 C   0  0  0  0  0  0  0  0  0  0  0  0
    4.4885    0.8281   -1.6085 C   0  0  0  0  0  0  0  0  0  0  0  0
    5.7478    1.3634   -2.0415 N   0  0  0  0  0  0  0  0  0  0  0  0
    6.9741    0.7968   -1.9926 C   0  0  0  0  0  0  0  0  0  0  0  0
    8.2753    1.7710   -2.3585 S   0  0  0  0  0  0  0  0  0  0  0  0
    7.1683   -0.4984   -1.6097 N   0  0  0  0  0  0  0  0  0  0  0  0
    6.1901   -1.4983   -1.4165 C   0  0  0  0  0  0  0  0  0  0  0  0
    5.1492   -1.5891   -2.3705 C   0  0  0  0  0  0  0  0  0  0  0  0
    3.9690   -2.2254   -2.0491 C   0  0  0  0  0  0  0  0  0  0  0  0
    4.0338   -3.1642   -1.0375 C   0  0  0  0  0  0  0  0  0  0  0  0
    5.0683   -3.1649   -0.1203 C   0  0  0  0  0  0  0  0  0  0  0  0
    6.1650   -2.3065   -0.2639 C   0  0  0  0  0  0  0  0  0  0  0  0
    4.9655   -4.4430    0.6016 C   0  0  0  0  0  0  0  0  0  0  0  0
    5.8377   -4.9353    1.2801 O   0  0  0  0  0  0  0  0  0  0  0  0
    3.7880   -5.0625    0.1309 O   0  0  0  0  0  0  0  0  0  0  0  0
    3.5190   -4.6024   -1.2223 C   0  0  0  0  0  0  0  0  0  0  0  0
    4.5743   -5.3552   -2.2040 C   0  0  0  0  0  0  0  0  0  0  0  0
    5.7856   -5.8284   -1.6442 C   0  0  0  0  0  0  0  0  0  0  0  0
    6.9251   -5.0350   -1.7882 C   0  0  0  0  0  0  0  0  0  0  0  0
    6.9465   -4.0877   -2.7951 C   0  0  0  0  0  0  0  0  0  0  0  0
    5.8543   -3.9886   -3.6923 C   0  0  0  0  0  0  0  0  0  0  0  0
    4.6399   -4.6757   -3.4150 C   0  0  0  0  0  0  0  0  0  0  0  0
    3.4611   -4.3496   -4.0804 O   0  0  0  0  0  0  0  0  0  0  0  0
    2.2287   -4.3708   -3.3867 C   0  0  0  0  0  0  0  0  0  0  0  0
    2.1463   -4.5027   -1.9669 C   0  0  0  0  0  0  0  0  0  0  0  0
    0.8842   -4.2038   -1.4042 C   0  0  0  0  0  0  0  0  0  0  0  0
   -0.2072   -3.7458   -2.2067 C   0  0  0  0  0  0  0  0  0  0  0  0
   -0.0904   -3.6090   -3.5755 C   0  0  0  0  0  0  0  0  0  0  0  0
    1.1081   -3.9738   -4.1707 C   0  0  0  0  0  0  0  0  0  0  0  0
   -1.0982   -3.0925   -4.3437 O   0  0  0  0  0  0  0  0  0  0  0  0
    7.9235   -3.1187   -2.7505 O   0  0  0  0  0  0  0  0  0  0  0  0
    4.0165    3.3611   -0.4993 C   0  0  1  0  0  0  0  0  0  0  0  0
    3.7134    4.0381   -1.8489 C   0  0  0  0  0  0  0  0  0  0  0  0
    2.3146    4.6111   -1.9891 C   0  0  0  0  0  0  0  0  0  0  0  0
    2.0203    5.7335   -0.9906 C   0  0  0  0  0  0  0  0  0  0  0  0
    1.9073    6.8898   -1.3267 O   0  0  0  0  0  0  0  0  0  0  0  0
    1.9724    5.4284    0.3358 N   0  0  0  0  0  0  0  0  0  0  0  0
    4.4326    4.1379    0.7264 C   0  0  0  0  0  0  0  0  0  0  0  0
    5.4641    4.8112    0.8292 O   0  0  0  0  0  0  0  0  0  0  0  0
    3.5272    4.1192    1.7117 O   0  0  0  0  0  0  0  0  0  0  0  0
   -1.8971   -2.1374    0.1327 N   0  0  0  0  0  0  0  0  0  0  0  0
   -3.3368   -2.0186    0.0842 C   0  0  0  0  0  0  0  0  0  0  0  0
   -3.8688   -2.7118   -1.1414 C   0  0  0  0  0  0  0  0  0  0  0  0
   -3.7260   -4.0921   -1.2536 C   0  0  0  0  0  0  0  0  0  0  0  0
   -4.0817   -4.7842   -2.3561 N   0  0  0  0  0  0  0  0  0  0  0  0
   -4.6287   -4.0574   -3.3555 C   0  0  0  0  0  0  0  0  0  0  0  0
   -4.7927   -2.6831   -3.2380 C   0  0  0  0  0  0  0  0  0  0  0  0
   -4.4010   -1.9691   -2.1475 N   0  0  0  0  0  0  0  0  0  0  0  0
   -5.4138   -1.9970   -4.3887 C   0  0  0  0  0  0  0  0  0  0  0  0
   -5.6321   -0.7909   -4.4176 O   0  0  0  0  0  0  0  0  0  0  0  0
   -5.7404   -2.8110   -5.4518 N   0  0  0  0  0  0  0  0  0  0  0  0
   -5.5211   -4.1578   -5.4747 C   0  0  0  0  0  0  0  0  0  0  0  0
   -4.9871   -4.7932   -4.4855 N   0  0  0  0  0  0  0  0  0  0  0  0
   -5.8893   -4.8275   -6.5831 N   0  0  0  0  0  0  0  0  0  0  0  0
    2.1861   -0.6984    0.5820 H   0  0  0  0  0  0  0  0  0  0  0  0
    0.7122   -2.3221    0.2798 H   0  0  0  0  0  0  0  0  0  0  0  0
   -2.4722    0.5506   -0.0901 H   0  0  0  0  0  0  0  0  0  0  0  0
   -0.8737    2.2938    0.0292 H   0  0  0  0  0  0  0  0  0  0  0  0
    4.6249    0.9742    0.5772 H   0  0  0  0  0  0  0  0  0  0  0  0
    3.3158    0.1707   -0.1766 H   0  0  0  0  0  0  0  0  0  0  0  0
    4.7444   -0.1033   -1.2317 H   0  0  0  0  0  0  0  0  0  0  0  0
    3.7726    0.7219   -2.4314 H   0  0  0  0  0  0  0  0  0  0  0  0
    5.7546    2.3105   -2.3962 H   0  0  0  0  0  0  0  0  0  0  0  0
    8.1282   -0.8042   -1.7267 H   0  0  0  0  0  0  0  0  0  0  0  0
    5.1745   -1.0009   -3.2891 H   0  0  0  0  0  0  0  0  0  0  0  0
    3.1581   -2.1768   -2.7647 H   0  0  0  0  0  0  0  0  0  0  0  0
    7.0248   -2.3622    0.3959 H   0  0  0  0  0  0  0  0  0  0  0  0
    5.7690   -6.5189   -0.8023 H   0  0  0  0  0  0  0  0  0  0  0  0
    7.6646   -5.0185   -0.9832 H   0  0  0  0  0  0  0  0  0  0  0  0
    5.8380   -3.1463   -4.3860 H   0  0  0  0  0  0  0  0  0  0  0  0
    0.7254   -4.2261   -0.3288 H   0  0  0  0  0  0  0  0  0  0  0  0
   -1.1537   -3.4592   -1.7694 H   0  0  0  0  0  0  0  0  0  0  0  0
    1.1861   -3.8870   -5.2497 H   0  0  0  0  0  0  0  0  0  0  0  0
   -1.8070   -2.7185   -3.7872 H   0  0  0  0  0  0  0  0  0  0  0  0
    8.1374   -2.9508   -1.8077 H   0  0  0  0  0  0  0  0  0  0  0  0
    5.0209    2.9559   -0.6651 H   0  0  0  0  0  0  0  0  0  0  0  0
    4.4625    4.8060   -2.0731 H   0  0  0  0  0  0  0  0  0  0  0  0
    3.8205    3.2955   -2.6601 H   0  0  0  0  0  0  0  0  0  0  0  0
    2.1940    5.0384   -2.9906 H   0  0  0  0  0  0  0  0  0  0  0  0
    1.5768    3.8032   -1.9929 H   0  0  0  0  0  0  0  0  0  0  0  0
    1.8639    4.4518    0.6298 H   0  0  0  0  0  0  0  0  0  0  0  0
    1.6774    6.1102    1.0134 H   0  0  0  0  0  0  0  0  0  0  0  0
    3.5254    5.0595    1.9883 H   0  0  0  0  0  0  0  0  0  0  0  0
   -1.4893   -3.0587    0.2324 H   0  0  0  0  0  0  0  0  0  0  0  0
   -3.7429   -2.4728    0.9910 H   0  0  0  0  0  0  0  0  0  0  0  0
   -3.6845   -0.9856    0.0774 H   0  0  0  0  0  0  0  0  0  0  0  0
   -3.2657   -4.6780   -0.4638 H   0  0  0  0  0  0  0  0  0  0  0  0
   -6.1624   -2.3511   -6.2432 H   0  0  0  0  0  0  0  0  0  0  0  0
   -6.3236   -4.4075   -7.3893 H   0  0  0  0  0  0  0  0  0  0  0  0
   -5.7231   -5.8277   -6.5953 H   0  0  0  0  0  0  0  0  0  0  0  0
  1  2  2  0  0  0  0
  1  6  1  0  0  0  0
  1 64  1  0  0  0  0
  2  3  1  0  0  0  0
  2 65  1  0  0  0  0
  3  4  2  0  0  0  0
  3 50  1  0  0  0  0
  4  5  1  0  0  0  0
  4 66  1  0  0  0  0
  5  6  2  0  0  0  0
  5 67  1  0  0  0  0
  6  7  1  0  0  0  0
  7  8  2  0  0  0  0
  7  9  1  0  0  0  0
  9 10  1  0  0  0  0
 10 11  1  0  0  0  0
 10 68  1  0  0  0  0
 10 69  1  0  0  0  0
 11 12  1  0  0  0  0
 11 70  1  0  0  0  0
 11 71  1  0  0  0  0
 12 13  1  0  0  0  0
 12 72  1  0  0  0  0
 13 14  2  0  0  0  0
 13 15  1  0  0  0  0
 15 16  1  0  0  0  0
 15 73  1  0  0  0  0
 16 17  2  0  0  0  0
 16 21  1  0  0  0  0
 17 18  1  0  0  0  0
 17 74  1  0  0  0  0
 18 19  2  0  0  0  0
 18 75  1  0  0  0  0
 19 20  1  0  0  0  0
 19 25  1  0  0  0  0
 20 21  2  0  0  0  0
 20 22  1  0  0  0  0
 21 76  1  0  0  0  0
 22 23  2  0  0  0  0
 22 24  1  0  0  0  0
 24 25  1  0  0  0  0
 25 26  1  0  0  0  0
 25 34  1  0  0  0  0
 26 27  2  0  0  0  0
 26 31  1  0  0  0  0
 27 28  1  0  0  0  0
 27 77  1  0  0  0  0
 28 29  2  0  0  0  0
 28 78  1  0  0  0  0
 29 30  1  0  0  0  0
 29 40  1  0  0  0  0
 30 31  2  0  0  0  0
 30 79  1  0  0  0  0
 31 32  1  0  0  0  0
 32 33  1  0  0  0  0
 33 34  2  0  0  0  0
 33 38  1  0  0  0  0
 34 35  1  0  0  0  0
 35 36  2  0  0  0  0
 35 80  1  0  0  0  0
 36 37  1  0  0  0  0
 36 81  1  0  0  0  0
 37 38  2  0  0  0  0
 37 39  1  0  0  0  0
 38 82  1  0  0  0  0
 39 83  1  0  0  0  0
 40 84  1  0  0  0  0
 41  9  1  0  0  0  0
 41 42  1  0  0  0  0
 41 47  1  0  0  0  0
 41 85  1  6  0  0  0
 42 43  1  0  0  0  0
 42 86  1  0  0  0  0
 42 87  1  0  0  0  0
 43 44  1  0  0  0  0
 43 88  1  0  0  0  0
 43 89  1  0  0  0  0
 44 45  2  0  0  0  0
 44 46  1  0  0  0  0
 46 90  1  0  0  0  0
 46 91  1  0  0  0  0
 47 48  2  0  0  0  0
 47 49  1  0  0  0  0
 49 92  1  0  0  0  0
 50 51  1  0  0  0  0
 50 93  1  0  0  0  0
 51 52  1  0  0  0  0
 51 94  1  0  0  0  0
 51 95  1  0  0  0  0
 52 53  2  0  0  0  0
 52 57  1  0  0  0  0
 53 54  1  0  0  0  0
 53 96  1  0  0  0  0
 54 55  2  0  0  0  0
 55 56  1  0  0  0  0
 55 62  1  0  0  0  0
 56 57  2  0  0  0  0
 56 58  1  0  0  0  0
 58 59  2  0  0  0  0
 58 60  1  0  0  0  0
 60 61  1  0  0  0  0
 60 97  1  0  0  0  0
 61 62  2  0  0  0  0
 61 63  1  0  0  0  0
 63 98  1  0  0  0  0
 63 99  1  0  0  0  0
M  END
>  <DRUGBANK_ID>
DB12559

>  <COMMON_NAME>
EC-17

>  <CAS_NUMBER>
583037-91-6

>  <UNII>
V7YQ6134AE

>  <SYNONYMS>
EC17 (Folate-FITC); Folate-FITC; Folate-fluorescein conjugate

$$$$
