
 OpenBabel10282417173D

 41 41  0  0  0  0  0  0  0  0999 V2000
    0.1141    0.0479    3.1295 P   0  0  2  0  0  0  0  0  0  0  0  0
   -1.0169    1.1983    1.2249 O   0  0  0  0  0  0  0  0  0  0  0  0
   -2.6498    2.5757    0.6773 O   0  0  0  0  0  0  0  0  0  0  0  0
    0.9349    1.5223    3.2640 O   0  0  0  0  0  0  0  0  0  0  0  0
    1.2253   -0.9676    3.8191 O   0  0  0  0  0  0  0  0  0  0  0  0
    0.6690   -0.1370    1.6959 O   0  0  0  0  0  0  0  0  0  0  0  0
   -0.3018    2.4231    1.1643 C   0  0  1  0  0  0  0  0  0  0  0  0
   -2.1885    1.2499    0.4786 C   0  0  0  0  0  0  0  0  0  0  0  0
   -1.4413    3.3790    0.8224 C   0  0  0  0  0  0  0  0  0  0  0  0
    0.5053    2.6840    2.4747 C   0  0  0  0  0  0  0  0  0  0  0  0
   -1.9246    0.9455   -0.9934 C   0  0  0  0  0  0  0  0  0  0  0  0
   -3.0894    0.1659    1.0693 C   0  0  0  0  0  0  0  0  0  0  0  0
   -0.5417    0.2664    4.8239 C   0  0  0  0  0  0  0  0  0  0  0  0
   -0.6000    1.6760    5.3728 C   0  0  0  0  0  0  0  0  0  0  0  0
   -1.5626    2.4551    4.4992 C   0  0  0  0  0  0  0  0  0  0  0  0
   -3.0103    2.0936    4.4886 C   0  0  0  0  0  0  0  0  0  0  0  0
   -3.5372    2.3253    5.8446 C   0  0  0  0  0  0  0  0  0  0  0  0
   -4.4627    3.2361    6.0551 C   0  0  0  0  0  0  0  0  0  0  0  0
    0.8614   -1.6447    4.4198 H   0  0  0  0  0  0  0  0  0  0  0  0
    0.4403    2.3892    0.3584 H   0  0  0  0  0  0  0  0  0  0  0  0
   -1.6249    4.1535    1.5697 H   0  0  0  0  0  0  0  0  0  0  0  0
   -1.2592    3.8513   -0.1461 H   0  0  0  0  0  0  0  0  0  0  0  0
   -0.0617    3.3668    3.1046 H   0  0  0  0  0  0  0  0  0  0  0  0
    1.3725    3.3358    2.3216 H   0  0  0  0  0  0  0  0  0  0  0  0
   -2.8479    1.0403   -1.5719 H   0  0  0  0  0  0  0  0  0  0  0  0
   -1.1892    1.6323   -1.4224 H   0  0  0  0  0  0  0  0  0  0  0  0
   -1.5236   -0.0672   -1.1290 H   0  0  0  0  0  0  0  0  0  0  0  0
   -3.1486    0.2500    2.1578 H   0  0  0  0  0  0  0  0  0  0  0  0
   -4.1028    0.2099    0.6698 H   0  0  0  0  0  0  0  0  0  0  0  0
   -2.6764   -0.8383    0.8842 H   0  0  0  0  0  0  0  0  0  0  0  0
   -1.5327   -0.1995    4.8418 H   0  0  0  0  0  0  0  0  0  0  0  0
    0.0305   -0.3032    5.5668 H   0  0  0  0  0  0  0  0  0  0  0  0
   -0.8673    1.6975    6.4320 H   0  0  0  0  0  0  0  0  0  0  0  0
    0.4074    2.1174    5.3456 H   0  0  0  0  0  0  0  0  0  0  0  0
   -1.4031    3.5301    4.6357 H   0  0  0  0  0  0  0  0  0  0  0  0
   -1.3730    2.1757    3.4776 H   0  0  0  0  0  0  0  0  0  0  0  0
   -3.4819    2.7243    3.7214 H   0  0  0  0  0  0  0  0  0  0  0  0
   -3.1576    1.0606    4.1692 H   0  0  0  0  0  0  0  0  0  0  0  0
   -3.0733    1.7720    6.6628 H   0  0  0  0  0  0  0  0  0  0  0  0
   -4.8052    3.4443    7.0614 H   0  0  0  0  0  0  0  0  0  0  0  0
   -4.8779    3.8035    5.2211 H   0  0  0  0  0  0  0  0  0  0  0  0
  1  4  1  0  0  0  0
  1  5  1  0  0  0  0
  1  6  2  6  0  0  0
  1 13  1  0  0  0  0
  2  7  1  0  0  0  0
  2  8  1  0  0  0  0
  3  8  1  0  0  0  0
  3  9  1  0  0  0  0
  4 10  1  0  0  0  0
  5 19  1  0  0  0  0
  7  9  1  0  0  0  0
  7 20  1  6  0  0  0
  7 10  1  0  0  0  0
  8 11  1  0  0  0  0
  8 12  1  0  0  0  0
  9 21  1  0  0  0  0
  9 22  1  0  0  0  0
 10 23  1  0  0  0  0
 10 24  1  0  0  0  0
 11 25  1  0  0  0  0
 11 26  1  0  0  0  0
 11 27  1  0  0  0  0
 12 28  1  0  0  0  0
 12 29  1  0  0  0  0
 12 30  1  0  0  0  0
 13 14  1  0  0  0  0
 13 31  1  0  0  0  0
 13 32  1  0  0  0  0
 14 15  1  0  0  0  0
 14 33  1  0  0  0  0
 14 34  1  0  0  0  0
 15 16  1  0  0  0  0
 15 35  1  0  0  0  0
 15 36  1  0  0  0  0
 16 17  1  0  0  0  0
 16 37  1  0  0  0  0
 16 38  1  0  0  0  0
 17 18  2  0  0  0  0
 17 39  1  0  0  0  0
 18 40  1  0  0  0  0
 18 41  1  0  0  0  0
M  END
>  <DRUGBANK_ID>
DB08475

>  <COMMON_NAME>
[(4R)-2,2-dimethyl-1,3-dioxolan-4-yl]methyl hydrogen hex-5-enylphosphonate

$$$$
