
 OpenBabel10282417193D

 73 78  0  0  1  0  0  0  0  0999 V2000
    2.0059   -0.2154    0.0142 C   0  0  0  0  0  0  0  0  0  0  0  0
    1.6375    0.9610   -0.8305 O   0  0  0  0  0  0  0  0  0  0  0  0
    1.4053    2.3437   -0.7115 C   0  0  0  0  0  0  0  0  0  0  0  0
    2.6237    2.8091   -0.4074 C   0  0  0  0  0  0  0  0  0  0  0  0
    2.9091    4.1226   -0.6175 C   0  0  0  0  0  0  0  0  0  0  0  0
    1.9472    5.0948   -0.9300 C   0  0  0  0  0  0  0  0  0  0  0  0
    0.6551    4.6821   -1.1693 C   0  0  0  0  0  0  0  0  0  0  0  0
    0.3890    3.3042   -1.2203 C   0  0  0  0  0  0  0  0  0  0  0  0
   -0.7241    3.2341   -2.0579 O   0  0  0  0  0  0  0  0  0  0  0  0
   -1.6199    2.1546   -2.1295 C   0  0  0  0  0  0  0  0  0  0  0  0
   -1.2287    0.9245   -2.9057 C   0  0  0  0  0  0  0  0  0  0  0  0
    0.0078    0.4751   -2.2535 C   0  0  0  0  0  0  0  0  0  0  0  0
   -0.3452   -0.0219   -0.7844 O   0  0  0  0  0  0  0  0  0  0  0  0
   -0.6210    0.7075    0.4392 C   0  0  0  0  0  0  0  0  0  0  0  0
    0.2815    1.2703    1.4764 C   0  0  0  0  0  0  0  0  0  0  0  0
   -0.0661    2.0365    2.5809 C   0  0  0  0  0  0  0  0  0  0  0  0
   -1.3799    2.4227    2.5518 C   0  0  0  0  0  0  0  0  0  0  0  0
   -2.2826    1.9021    1.5841 C   0  0  0  0  0  0  0  0  0  0  0  0
   -1.9534    0.9038    0.6761 C   0  0  0  0  0  0  0  0  0  0  0  0
   -2.8167    0.2644   -0.1656 O   0  0  0  0  0  0  0  0  0  0  0  0
   -3.9130    1.0433   -0.6172 C   0  0  0  0  0  0  0  0  0  0  0  0
   -1.9530    3.2757    3.5696 C   0  0  0  0  0  0  0  0  0  0  0  0
   -3.1711    3.0872    3.8328 O   0  0  0  0  0  0  0  0  0  0  0  0
   -1.2087    4.2156    4.2095 N   0  0  0  0  0  0  0  0  0  0  0  0
   -1.8411    5.0466    5.1943 C   0  0  0  0  0  0  0  0  0  0  0  0
   -0.8729    6.1738    5.3506 C   0  0  0  0  0  0  0  0  0  0  0  0
   -1.2002    7.4184    5.7140 C   0  0  0  0  0  0  0  0  0  0  0  0
    0.4926    5.7154    4.9339 C   0  0  0  0  0  0  0  0  0  0  0  0
    0.1812    4.5859    3.9518 C   0  0  1  0  0  0  0  0  0  0  0  0
    1.0171    3.3673    4.2351 C   0  0  0  0  0  0  0  0  0  0  0  0
    0.9207    2.2501    3.5827 N   0  0  0  0  0  0  0  0  0  0  0  0
    2.2113    6.4536   -1.1141 N   0  0  0  0  0  0  0  0  0  0  0  0
    3.0115    7.0288   -0.2756 C   0  0  0  0  0  0  0  0  0  0  0  0
    3.6812    6.3508    0.9058 C   0  0  2  0  0  0  0  0  0  0  0  0
    4.5402    7.3385    1.6628 C   0  0  0  0  0  0  0  0  0  0  0  0
    5.8212    6.5870    1.8710 C   0  0  0  0  0  0  0  0  0  0  0  0
    6.6634    6.7624    2.8923 C   0  0  0  0  0  0  0  0  0  0  0  0
    5.9765    5.5484    0.8141 C   0  0  0  0  0  0  0  0  0  0  0  0
    4.6313    5.3939    0.3669 N   0  0  0  0  0  0  0  0  0  0  0  0
    4.3258    4.3088   -0.3826 C   0  0  0  0  0  0  0  0  0  0  0  0
    5.1324    3.4643   -0.7324 O   0  0  0  0  0  0  0  0  0  0  0  0
    1.5639   -1.1065   -0.4642 H   0  0  0  0  0  0  0  0  0  0  0  0
    1.5835   -0.3927    1.0241 H   0  0  0  0  0  0  0  0  0  0  0  0
    3.0723   -0.3174    0.0940 H   0  0  0  0  0  0  0  0  0  0  0  0
    3.3999    2.0787   -0.2163 H   0  0  0  0  0  0  0  0  0  0  0  0
   -0.0881    5.4218   -1.4908 H   0  0  0  0  0  0  0  0  0  0  0  0
   -1.7325    1.9439   -1.1127 H   0  0  0  0  0  0  0  0  0  0  0  0
   -2.6100    2.4625   -2.4691 H   0  0  0  0  0  0  0  0  0  0  0  0
   -1.9113    0.0880   -2.7857 H   0  0  0  0  0  0  0  0  0  0  0  0
   -1.1130    1.1725   -3.9661 H   0  0  0  0  0  0  0  0  0  0  0  0
    0.5937   -0.3000   -2.7759 H   0  0  0  0  0  0  0  0  0  0  0  0
    0.6727    1.3367   -2.4640 H   0  0  0  0  0  0  0  0  0  0  0  0
    1.3741    1.2612    1.4908 H   0  0  0  0  0  0  0  0  0  0  0  0
   -3.2697    2.3430    1.5401 H   0  0  0  0  0  0  0  0  0  0  0  0
   -4.7548    0.8342    0.0282 H   0  0  0  0  0  0  0  0  0  0  0  0
   -3.7206    2.1248   -0.6289 H   0  0  0  0  0  0  0  0  0  0  0  0
   -4.1246    0.7515   -1.6522 H   0  0  0  0  0  0  0  0  0  0  0  0
   -1.9235    4.4535    6.1098 H   0  0  0  0  0  0  0  0  0  0  0  0
   -2.8329    5.3541    4.8485 H   0  0  0  0  0  0  0  0  0  0  0  0
   -0.4553    8.2033    5.7829 H   0  0  0  0  0  0  0  0  0  0  0  0
   -2.2262    7.6748    5.9642 H   0  0  0  0  0  0  0  0  0  0  0  0
    1.0928    6.5019    4.4657 H   0  0  0  0  0  0  0  0  0  0  0  0
    1.0266    5.3599    5.8229 H   0  0  0  0  0  0  0  0  0  0  0  0
    0.3183    4.8884    2.9076 H   0  0  0  0  0  0  0  0  0  0  0  0
    1.7672    3.4395    5.0488 H   0  0  0  0  0  0  0  0  0  0  0  0
    3.2271    8.0892   -0.4560 H   0  0  0  0  0  0  0  0  0  0  0  0
    2.9387    5.8439    1.5416 H   0  0  0  0  0  0  0  0  0  0  0  0
    4.0523    7.6548    2.5867 H   0  0  0  0  0  0  0  0  0  0  0  0
    4.7513    8.2185    1.0487 H   0  0  0  0  0  0  0  0  0  0  0  0
    6.4860    7.5282    3.6371 H   0  0  0  0  0  0  0  0  0  0  0  0
    7.5580    6.1540    2.9859 H   0  0  0  0  0  0  0  0  0  0  0  0
    6.5408    5.9034   -0.0505 H   0  0  0  0  0  0  0  0  0  0  0  0
    6.3883    4.5960    1.1702 H   0  0  0  0  0  0  0  0  0  0  0  0
  1  2  1  0  0  0  0
  1 42  1  0  0  0  0
  1 43  1  0  0  0  0
  1 44  1  0  0  0  0
  2  3  1  0  0  0  0
  3  4  2  0  0  0  0
  3  8  1  0  0  0  0
  4  5  1  0  0  0  0
  4 45  1  0  0  0  0
  5  6  2  0  0  0  0
  5 40  1  0  0  0  0
  6  7  1  0  0  0  0
  6 32  1  0  0  0  0
  7  8  2  0  0  0  0
  7 46  1  0  0  0  0
  8  9  1  0  0  0  0
  9 10  1  0  0  0  0
 10 11  1  0  0  0  0
 10 47  1  0  0  0  0
 10 48  1  0  0  0  0
 11 12  1  0  0  0  0
 11 49  1  0  0  0  0
 11 50  1  0  0  0  0
 12 13  1  0  0  0  0
 12 51  1  0  0  0  0
 12 52  1  0  0  0  0
 13 14  1  0  0  0  0
 14 15  2  0  0  0  0
 14 19  1  0  0  0  0
 15 16  1  0  0  0  0
 15 53  1  0  0  0  0
 16 17  2  0  0  0  0
 16 31  1  0  0  0  0
 17 18  1  0  0  0  0
 17 22  1  0  0  0  0
 18 19  2  0  0  0  0
 18 54  1  0  0  0  0
 19 20  1  0  0  0  0
 20 21  1  0  0  0  0
 21 55  1  0  0  0  0
 21 56  1  0  0  0  0
 21 57  1  0  0  0  0
 22 23  2  0  0  0  0
 22 24  1  0  0  0  0
 24 25  1  0  0  0  0
 25 26  1  0  0  0  0
 25 58  1  0  0  0  0
 25 59  1  0  0  0  0
 26 27  2  0  0  0  0
 26 28  1  0  0  0  0
 27 60  1  0  0  0  0
 27 61  1  0  0  0  0
 28 29  1  0  0  0  0
 28 62  1  0  0  0  0
 28 63  1  0  0  0  0
 29 24  1  0  0  0  0
 29 30  1  0  0  0  0
 29 64  1  6  0  0  0
 30 31  2  0  0  0  0
 30 65  1  0  0  0  0
 32 33  2  0  0  0  0
 33 34  1  0  0  0  0
 33 66  1  0  0  0  0
 34 35  1  0  0  0  0
 34 39  1  0  0  0  0
 34 67  1  1  0  0  0
 35 36  1  0  0  0  0
 35 68  1  0  0  0  0
 35 69  1  0  0  0  0
 36 37  2  0  0  0  0
 36 38  1  0  0  0  0
 37 70  1  0  0  0  0
 37 71  1  0  0  0  0
 38 39  1  0  0  0  0
 38 72  1  0  0  0  0
 38 73  1  0  0  0  0
 39 40  1  0  0  0  0
 40 41  2  0  0  0  0
M  END
>  <DRUGBANK_ID>
DB11965

>  <COMMON_NAME>
SJG-136

>  <CAS_NUMBER>
232931-57-6

>  <UNII>
KT0ZQ64X1A

$$$$
