
 OpenBabel10282417183D

 19 18  0  0  0  0  0  0  0  0999 V2000
    0.8285    0.0151   -0.0379 C   0  0  0  0  0  0  0  0  0  0  0  0
    0.0846   -0.9449   -0.9312 C   0  0  0  0  0  0  0  0  0  0  0  0
   -1.0128   -2.0217    0.0625 S   0  0  3  0  0  0  0  0  0  0  0  0
   -1.8194   -3.3171   -1.2688 S   0  0  0  0  0  0  0  0  0  0  0  0
   -2.9093   -2.3243   -2.3119 C   0  0  0  0  0  0  0  0  0  0  0  0
   -3.8969   -1.5100   -1.5349 C   0  0  0  0  0  0  0  0  0  0  0  0
   -0.1411   -2.9782    0.8227 O   0  0  0  0  0  0  0  0  0  0  0  0
   -3.9653   -0.1712   -1.6151 C   0  0  0  0  0  0  0  0  0  0  0  0
    0.2325    0.8836    0.7949 C   0  0  0  0  0  0  0  0  0  0  0  0
    1.9160   -0.0317   -0.0580 H   0  0  0  0  0  0  0  0  0  0  0  0
   -0.5119   -0.3854   -1.6580 H   0  0  0  0  0  0  0  0  0  0  0  0
    0.7989   -1.5711   -1.4773 H   0  0  0  0  0  0  0  0  0  0  0  0
   -2.2976   -1.6969   -2.9664 H   0  0  0  0  0  0  0  0  0  0  0  0
   -3.4660   -3.0121   -2.9592 H   0  0  0  0  0  0  0  0  0  0  0  0
   -4.6160   -2.0397   -0.9121 H   0  0  0  0  0  0  0  0  0  0  0  0
   -4.7084    0.3884   -1.0563 H   0  0  0  0  0  0  0  0  0  0  0  0
   -3.2886    0.3923   -2.2496 H   0  0  0  0  0  0  0  0  0  0  0  0
    0.8115    1.5243    1.4521 H   0  0  0  0  0  0  0  0  0  0  0  0
   -0.8490    0.9471    0.8654 H   0  0  0  0  0  0  0  0  0  0  0  0
  1  2  1  0  0  0  0
  1  9  2  0  0  0  0
  1 10  1  0  0  0  0
  2  3  1  0  0  0  0
  2 11  1  0  0  0  0
  2 12  1  0  0  0  0
  3  4  1  0  0  0  0
  3  7  2  0  0  0  0
  4  5  1  0  0  0  0
  5  6  1  0  0  0  0
  5 13  1  0  0  0  0
  5 14  1  0  0  0  0
  6  8  2  0  0  0  0
  6 15  1  0  0  0  0
  8 16  1  0  0  0  0
  8 17  1  0  0  0  0
  9 18  1  0  0  0  0
  9 19  1  0  0  0  0
M  END
>  <DRUGBANK_ID>
DB11780

>  <COMMON_NAME>
Allicin

>  <CAS_NUMBER>
539-86-6

>  <UNII>
3C39BY17Y6

$$$$
