
 OpenBabel10282417143D

 22 21  0  0  1  0  0  0  0  0999 V2000
    1.0161   -0.2600    0.0664 N   0  0  0  0  0  0  0  0  0  0  0  0
    0.5091    0.5410    1.1982 C   0  0  1  0  0  0  0  0  0  0  0  0
    1.0615    1.9794    1.2083 C   0  0  0  0  0  0  0  0  0  0  0  0
    0.7006    3.0914   -0.2226 S   0  0  0  0  0  0  0  0  0  0  0  0
    1.3350    2.0793   -1.9050 S   0  0  0  0  0  0  0  0  0  0  0  0
    0.5451    2.9417   -3.3205 C   0  0  0  0  0  0  0  0  0  0  0  0
   -0.9799    2.8933   -3.3526 C   0  0  0  0  0  0  0  0  0  0  0  0
   -1.5646    3.5468   -2.2382 O   0  0  0  0  0  0  0  0  0  0  0  0
   -1.0289    0.5493    1.1836 C   0  0  0  0  0  0  0  0  0  0  0  0
   -1.6152   -0.0696    2.2344 O   0  0  0  0  0  0  0  0  0  0  0  0
   -1.7002    1.0656    0.2948 O   0  0  0  0  0  0  0  0  0  0  0  0
    0.6824    0.2209   -0.7829 H   0  0  0  0  0  0  0  0  0  0  0  0
    2.0292   -0.1376   -0.0019 H   0  0  0  0  0  0  0  0  0  0  0  0
    0.8515    0.0371    2.1106 H   0  0  0  0  0  0  0  0  0  0  0  0
    0.6855    2.4915    2.1030 H   0  0  0  0  0  0  0  0  0  0  0  0
    2.1530    1.9563    1.3035 H   0  0  0  0  0  0  0  0  0  0  0  0
    0.9059    3.9740   -3.3158 H   0  0  0  0  0  0  0  0  0  0  0  0
    0.9260    2.4639   -4.2311 H   0  0  0  0  0  0  0  0  0  0  0  0
   -1.3350    3.4178   -4.2466 H   0  0  0  0  0  0  0  0  0  0  0  0
   -1.3555    1.8664   -3.4034 H   0  0  0  0  0  0  0  0  0  0  0  0
   -1.2357    3.0796   -1.4425 H   0  0  0  0  0  0  0  0  0  0  0  0
   -1.0140   -0.5389    2.8421 H   0  0  0  0  0  0  0  0  0  0  0  0
  1 12  1  0  0  0  0
  1 13  1  0  0  0  0
  2  1  1  0  0  0  0
  2  3  1  0  0  0  0
  2  9  1  0  0  0  0
  2 14  1  1  0  0  0
  3  4  1  0  0  0  0
  3 15  1  0  0  0  0
  3 16  1  0  0  0  0
  4  5  1  0  0  0  0
  5  6  1  0  0  0  0
  6  7  1  0  0  0  0
  6 17  1  0  0  0  0
  6 18  1  0  0  0  0
  7  8  1  0  0  0  0
  7 19  1  0  0  0  0
  7 20  1  0  0  0  0
  8 21  1  0  0  0  0
  9 10  1  0  0  0  0
  9 11  2  0  0  0  0
 10 22  1  0  0  0  0
M  END
>  <DRUGBANK_ID>
DB04530

>  <SECONDARY_ACCESSION_NUMBERS>
EXPT00954

>  <COMMON_NAME>
S,S-(2-Hydroxyethyl)Thiocysteine

>  <UNII>
7N9D5X3NW4

$$$$
