
 OpenBabel10282417133D

 34 33  0  0  0  0  0  0  0  0999 V2000
    1.0470    0.0360   -0.0097 O   0  0  0  0  0  0  0  0  0  0  0  0
    0.4716    0.5655    1.0904 C   0  0  0  0  0  0  0  0  0  0  0  0
    1.1282    0.8861    2.0609 O   0  0  0  0  0  0  0  0  0  0  0  0
   -1.0566    0.5276    1.0497 C   0  0  1  0  0  0  0  0  0  0  0  0
   -1.6159    1.3317   -0.0344 N   0  0  0  0  0  0  0  0  0  0  0  0
   -1.4962   -0.9283    0.9321 C   0  0  0  0  0  0  0  0  0  0  0  0
   -0.9292   -1.7112    2.1240 C   0  0  0  0  0  0  0  0  0  0  0  0
   -1.6040   -1.3158    3.4392 C   0  0  0  0  0  0  0  0  0  0  0  0
   -3.1396   -1.3638    3.4384 C   0  0  0  0  0  0  0  0  0  0  0  0
   -3.7157   -2.7805    3.2520 N   0  3  0  0  0  0  0  0  0  0  0  0
   -3.2214   -3.6633    4.3882 C   0  0  0  0  0  0  0  0  0  0  0  0
   -5.2380   -2.6941    3.2958 C   0  0  0  0  0  0  0  0  0  0  0  0
   -3.4045   -3.4460    1.9166 C   0  0  0  0  0  0  0  0  0  0  0  0
    2.0107    0.0510    0.1578 H   0  0  0  0  0  0  0  0  0  0  0  0
   -1.4288    0.9543    1.9873 H   0  0  0  0  0  0  0  0  0  0  0  0
   -2.6324    1.3409    0.0218 H   0  0  0  0  0  0  0  0  0  0  0  0
   -1.3180    2.2994    0.0990 H   0  0  0  0  0  0  0  0  0  0  0  0
   -2.5893   -0.9662    0.8846 H   0  0  0  0  0  0  0  0  0  0  0  0
   -1.1614   -1.3891   -0.0056 H   0  0  0  0  0  0  0  0  0  0  0  0
   -0.9499   -2.7783    1.9363 H   0  0  0  0  0  0  0  0  0  0  0  0
    0.1496   -1.5615    2.2213 H   0  0  0  0  0  0  0  0  0  0  0  0
   -1.1871   -1.9120    4.2553 H   0  0  0  0  0  0  0  0  0  0  0  0
   -1.3003   -0.2925    3.6939 H   0  0  0  0  0  0  0  0  0  0  0  0
   -3.5113   -0.9918    4.4036 H   0  0  0  0  0  0  0  0  0  0  0  0
   -3.5823   -0.7136    2.6748 H   0  0  0  0  0  0  0  0  0  0  0  0
   -3.5469   -3.2187    5.3330 H   0  0  0  0  0  0  0  0  0  0  0  0
   -3.6312   -4.6639    4.2514 H   0  0  0  0  0  0  0  0  0  0  0  0
   -2.1305   -3.7168    4.3482 H   0  0  0  0  0  0  0  0  0  0  0  0
   -5.5644   -2.0544    2.4684 H   0  0  0  0  0  0  0  0  0  0  0  0
   -5.6318   -3.7065    3.1648 H   0  0  0  0  0  0  0  0  0  0  0  0
   -5.5438   -2.2809    4.2578 H   0  0  0  0  0  0  0  0  0  0  0  0
   -3.6408   -2.7520    1.1074 H   0  0  0  0  0  0  0  0  0  0  0  0
   -2.3803   -3.7897    1.9083 H   0  0  0  0  0  0  0  0  0  0  0  0
   -4.0016   -4.3541    1.8195 H   0  0  0  0  0  0  0  0  0  0  0  0
  1 14  1  0  0  0  0
  2  1  1  0  0  0  0
  3  2  2  0  0  0  0
  4  2  1  0  0  0  0
  4  5  1  0  0  0  0
  4 15  1  1  0  0  0
  5 16  1  0  0  0  0
  5 17  1  0  0  0  0
  6  4  1  0  0  0  0
  6 18  1  0  0  0  0
  6 19  1  0  0  0  0
  7  6  1  0  0  0  0
  7 20  1  0  0  0  0
  7 21  1  0  0  0  0
  8  7  1  0  0  0  0
  8 22  1  0  0  0  0
  8 23  1  0  0  0  0
  9  8  1  0  0  0  0
  9 24  1  0  0  0  0
  9 25  1  0  0  0  0
 10  9  1  0  0  0  0
 11 10  1  0  0  0  0
 11 26  1  0  0  0  0
 11 27  1  0  0  0  0
 11 28  1  0  0  0  0
 12 10  1  0  0  0  0
 12 29  1  0  0  0  0
 12 30  1  0  0  0  0
 12 31  1  0  0  0  0
 13 10  1  0  0  0  0
 13 32  1  0  0  0  0
 13 33  1  0  0  0  0
 13 34  1  0  0  0  0
M  CHG  1  10   1
M  END
>  <DRUGBANK_ID>
DB03977

>  <SECONDARY_ACCESSION_NUMBERS>
EXPT02087

>  <COMMON_NAME>
Trimethyllysine

>  <CAS_NUMBER>
19253-88-4

>  <UNII>
3YGF0495O2

>  <SYNONYMS>
(S)-2-amino-6-(trimethylammonio)hexanoic acid; (S)-5-amino-5-carboxy-N,N,N-trimethyl-1-pentanaminium; epsilon-N-Trimethyl-L-lysine; epsilon-Trimethyl-L-lysine; epsilon-Trimethyllysine; N-Trimethyllysine; N6,N6,N6-Trimethyl-L-lysine; Nε-trimethyllysine; trimethyllysine; ε-N-trimethyl-L-lysine; ε-trimethyl-L-lysine; ε-trimethyllysine

$$$$
