
 OpenBabel10282417123D

 78 82  0  0  0  0  0  0  0  0999 V2000
    1.9864    0.9099    0.0608 N   0  0  0  0  0  0  0  0  0  0  0  0
    0.9062    0.3475   -0.4340 C   0  0  0  0  0  0  0  0  0  0  0  0
    2.2337    2.3808    0.1845 C   0  0  2  0  0  0  0  0  0  0  0  0
    2.7767   -0.2015    0.1384 C   0  0  0  0  0  0  0  0  0  0  0  0
    0.8621   -1.0089   -0.3482 C   0  0  0  0  0  0  0  0  0  0  0  0
   -0.0819    1.1732   -0.7177 N   0  0  0  0  0  0  0  0  0  0  0  0
    1.4702    3.0555    1.2139 O   0  0  0  0  0  0  0  0  0  0  0  0
    1.8430    3.2441   -1.0344 C   0  0  1  0  0  0  0  0  0  0  0  0
    2.1201   -1.3582    0.0358 N   0  0  0  0  0  0  0  0  0  0  0  0
   -0.3873   -1.6705   -0.5525 C   0  0  0  0  0  0  0  0  0  0  0  0
   -1.1104    0.4931   -0.5315 C   0  0  0  0  0  0  0  0  0  0  0  0
    1.1027    4.4396    0.8732 C   0  0  1  0  0  0  0  0  0  0  0  0
    1.6722    4.6771   -0.5107 C   0  0  1  0  0  0  0  0  0  0  0  0
   -1.4237   -0.8255   -0.7205 N   0  0  0  0  0  0  0  0  0  0  0  0
   -0.7176   -3.0005   -0.3468 N   0  0  0  0  0  0  0  0  0  0  0  0
   -0.4192    4.5634    1.0275 C   0  0  0  0  0  0  0  0  0  0  0  0
    2.9644    5.3095   -0.4621 O   0  0  0  0  0  0  0  0  0  0  0  0
   -1.0470    3.4660    0.3869 O   0  0  0  0  0  0  0  0  0  0  0  0
   -3.5713    0.7005   -0.6234 O   0  0  0  0  0  0  0  0  0  0  0  0
   -3.1996    0.8222    1.0342 C   0  0  0  0  0  0  0  0  0  0  0  0
   -1.9266   -0.0257    1.7907 C   0  0  1  0  0  0  0  0  0  0  0  0
   -0.7329    0.7783    1.9389 O   0  0  0  0  0  0  0  0  0  0  0  0
   -1.9558   -1.0473    2.9080 C   0  0  2  0  0  0  0  0  0  0  0  0
    0.1303    0.1848    2.9186 C   0  0  2  0  0  0  0  0  0  0  0  0
   -0.9115   -0.4481    3.8563 C   0  0  2  0  0  0  0  0  0  0  0  0
   -1.5043   -2.3745    2.4665 O   0  0  0  0  0  0  0  0  0  0  0  0
    0.9188    1.2791    3.5049 N   0  0  0  0  0  0  0  0  0  0  0  0
   -0.3855   -1.3895    4.7716 O   0  0  0  0  0  0  0  0  0  0  0  0
    0.2729    2.5023    3.6812 C   0  0  0  0  0  0  0  0  0  0  0  0
    2.2875    1.2227    3.7693 C   0  0  0  0  0  0  0  0  0  0  0  0
    0.8836    3.6557    3.9865 C   0  0  0  0  0  0  0  0  0  0  0  0
    3.0098    2.3228    4.0571 C   0  0  0  0  0  0  0  0  0  0  0  0
    2.3831    3.6990    3.9953 C   0  0  0  0  0  0  0  0  0  0  0  0
    0.0082    4.8213    4.2227 C   0  0  0  0  0  0  0  0  0  0  0  0
   -1.2266    4.7562    4.2271 O   0  0  0  0  0  0  0  0  0  0  0  0
    0.6148    6.0112    4.4070 N   0  0  0  0  0  0  0  0  0  0  0  0
   -2.0998    2.7709   -1.7311 O   0  0  0  0  0  0  0  0  0  0  0  0
   -1.0786    4.9996   -1.4044 O   0  0  0  0  0  0  0  0  0  0  0  0
   -3.7850    1.4401   -3.3159 O   0  0  0  0  0  0  0  0  0  0  0  0
   -2.8636    1.3907   -2.1369 P   0  0  3  0  0  0  0  0  0  0  0  0
   -1.6851    0.3907   -2.7092 O   0  0  0  0  0  0  0  0  0  0  0  0
   -0.6494    3.5276   -1.2956 P   0  0  3  0  0  0  0  0  0  0  0  0
   -0.2517    3.5891   -2.9782 O   0  0  0  0  0  0  0  0  0  0  0  0
    2.4522    3.3014   -2.2601 O   0  0  0  0  0  0  0  0  0  0  0  0
    4.0914    1.8102   -1.4498 O   0  0  0  0  0  0  0  0  0  0  0  0
    4.5602    3.5172   -3.1851 O   0  0  0  0  0  0  0  0  0  0  0  0
    4.0712    3.3212   -1.6507 P   0  0  0  0  0  0  0  0  0  0  0  0
    5.6902    3.3410   -1.0414 O   0  0  0  0  0  0  0  0  0  0  0  0
    3.2542    2.4710    0.5267 H   0  0  0  0  0  0  0  0  0  0  0  0
    3.8384   -0.1069    0.2239 H   0  0  0  0  0  0  0  0  0  0  0  0
    1.0865    2.6516   -1.4485 H   0  0  0  0  0  0  0  0  0  0  0  0
   -1.7924    1.2605   -0.2204 H   0  0  0  0  0  0  0  0  0  0  0  0
    1.5666    5.1482    1.5659 H   0  0  0  0  0  0  0  0  0  0  0  0
    1.1007    5.3664   -1.1411 H   0  0  0  0  0  0  0  0  0  0  0  0
    0.0102   -3.6136   -0.0109 H   0  0  0  0  0  0  0  0  0  0  0  0
   -1.6701   -3.2372   -0.0562 H   0  0  0  0  0  0  0  0  0  0  0  0
   -0.7483    4.4814    2.0419 H   0  0  0  0  0  0  0  0  0  0  0  0
   -0.8118    5.5351    0.6990 H   0  0  0  0  0  0  0  0  0  0  0  0
    3.4490    5.0571    0.3364 H   0  0  0  0  0  0  0  0  0  0  0  0
   -2.9811    1.8906    1.1775 H   0  0  0  0  0  0  0  0  0  0  0  0
   -4.1209    0.5978    1.5739 H   0  0  0  0  0  0  0  0  0  0  0  0
   -1.5735   -0.7587    1.1400 H   0  0  0  0  0  0  0  0  0  0  0  0
   -2.9799   -1.1904    3.2304 H   0  0  0  0  0  0  0  0  0  0  0  0
    0.8049   -0.5656    2.4705 H   0  0  0  0  0  0  0  0  0  0  0  0
   -1.4208    0.3576    4.3879 H   0  0  0  0  0  0  0  0  0  0  0  0
   -0.6478   -2.3406    1.9965 H   0  0  0  0  0  0  0  0  0  0  0  0
    0.4793   -1.6828    4.4393 H   0  0  0  0  0  0  0  0  0  0  0  0
   -0.7914    2.4819    3.4536 H   0  0  0  0  0  0  0  0  0  0  0  0
    2.7429    0.2359    3.7520 H   0  0  0  0  0  0  0  0  0  0  0  0
    4.0559    2.2575    4.3327 H   0  0  0  0  0  0  0  0  0  0  0  0
    2.7556    4.1727    3.0743 H   0  0  0  0  0  0  0  0  0  0  0  0
    2.7342    4.3127    4.8219 H   0  0  0  0  0  0  0  0  0  0  0  0
    1.6087    6.1301    4.5186 H   0  0  0  0  0  0  0  0  0  0  0  0
    0.0069    6.7832    4.6514 H   0  0  0  0  0  0  0  0  0  0  0  0
   -1.6942   -0.5259   -2.3130 H   0  0  0  0  0  0  0  0  0  0  0  0
   -0.4541    2.7399   -3.4162 H   0  0  0  0  0  0  0  0  0  0  0  0
    4.1124    2.8364   -3.7287 H   0  0  0  0  0  0  0  0  0  0  0  0
    5.7273    3.0599   -0.1137 H   0  0  0  0  0  0  0  0  0  0  0  0
  1  2  1  0  0  0  0
  1  4  1  0  0  0  0
  2  5  2  0  0  0  0
  2  6  1  0  0  0  0
  3  1  1  0  0  0  0
  3  7  1  0  0  0  0
  3  8  1  0  0  0  0
  3 49  1  1  0  0  0
  4  9  2  0  0  0  0
  4 50  1  0  0  0  0
  5 10  1  0  0  0  0
  5  9  1  0  0  0  0
  6 11  2  0  0  0  0
  7 12  1  0  0  0  0
  8 13  1  0  0  0  0
  8 51  1  6  0  0  0
  8 44  1  0  0  0  0
 10 14  2  0  0  0  0
 10 15  1  0  0  0  0
 11 14  1  0  0  0  0
 11 52  1  0  0  0  0
 12 13  1  0  0  0  0
 12 53  1  1  0  0  0
 12 16  1  0  0  0  0
 13 17  1  0  0  0  0
 13 54  1  6  0  0  0
 15 55  1  0  0  0  0
 15 56  1  0  0  0  0
 16 18  1  0  0  0  0
 16 57  1  0  0  0  0
 16 58  1  0  0  0  0
 17 59  1  0  0  0  0
 18 42  1  0  0  0  0
 19 20  1  0  0  0  0
 20 60  1  0  0  0  0
 20 61  1  0  0  0  0
 21 20  1  0  0  0  0
 21 22  1  0  0  0  0
 21 23  1  0  0  0  0
 21 62  1  6  0  0  0
 22 24  1  0  0  0  0
 23 25  1  0  0  0  0
 23 26  1  0  0  0  0
 23 63  1  1  0  0  0
 24 25  1  0  0  0  0
 24 64  1  6  0  0  0
 24 27  1  0  0  0  0
 25 65  1  1  0  0  0
 25 28  1  0  0  0  0
 26 66  1  0  0  0  0
 27 29  1  0  0  0  0
 27 30  1  0  0  0  0
 28 67  1  0  0  0  0
 29 31  2  0  0  0  0
 29 68  1  0  0  0  0
 30 32  2  0  0  0  0
 30 69  1  0  0  0  0
 31 33  1  0  0  0  0
 31 34  1  0  0  0  0
 32 33  1  0  0  0  0
 32 70  1  0  0  0  0
 33 71  1  0  0  0  0
 33 72  1  0  0  0  0
 34 35  2  0  0  0  0
 34 36  1  0  0  0  0
 36 73  1  0  0  0  0
 36 74  1  0  0  0  0
 37 40  1  0  0  0  0
 40 19  1  0  0  0  0
 40 39  2  0  0  0  0
 40 41  1  0  0  0  0
 41 75  1  0  0  0  0
 42 37  1  0  0  0  0
 42 38  2  0  0  0  0
 42 43  1  0  0  0  0
 43 76  1  0  0  0  0
 44 47  1  0  0  0  0
 46 77  1  0  0  0  0
 47 45  2  0  0  0  0
 47 46  1  0  0  0  0
 47 48  1  0  0  0  0
 48 78  1  0  0  0  0
M  END
>  <DRUGBANK_ID>
DB02338

>  <SECONDARY_ACCESSION_NUMBERS>
EXPT02321

>  <COMMON_NAME>
NADPH

>  <CAS_NUMBER>
53-57-6

>  <UNII>
381Q4X082D

>  <SYNONYMS>
Dihydronicotinamide-adenine dinucleotide phosphate; Reduced nicotinamide adenine dinucleotide phosphate; TPNH

$$$$
