
 OpenBabel10282417233D

 64 69  0  0  1  0  0  0  0  0999 V2000
   -0.8781    0.0885    0.5861 H   0  0  0  0  0  0  0  0  0  0  0  0
   -1.0632    0.1719   -0.4869 C   0  0  2  0  0  0  0  0  0  0  0  0
    0.6472    0.6485   -0.9338 C   0  0  0  0  0  0  0  0  0  0  0  0
    1.0552    1.9940   -0.2009 C   0  0  0  0  0  0  0  0  0  0  0  0
   -0.2212    2.5713    0.1089 N   0  0  0  0  0  0  0  0  0  0  0  0
   -1.1735    2.4858   -1.0205 C   0  0  0  0  0  0  0  0  0  0  0  0
   -2.2064    1.4189   -0.7657 C   0  0  1  0  0  0  0  0  0  0  0  0
   -3.0013    1.3349   -2.0841 C   0  0  0  0  0  0  0  0  0  0  0  0
   -3.3465   -0.0373   -2.4206 C   0  0  0  0  0  0  0  0  0  0  0  0
   -2.7955   -1.1738   -1.8670 C   0  0  0  0  0  0  0  0  0  0  0  0
   -1.7417   -1.2345   -0.7797 C   0  0  0  0  0  0  0  0  0  0  0  0
   -3.5242   -2.2109   -2.4419 N   0  0  0  0  0  0  0  0  0  0  0  0
   -4.3404   -1.7775   -3.4414 N   0  0  0  0  0  0  0  0  0  0  0  0
   -4.2720   -0.4540   -3.3822 C   0  0  0  0  0  0  0  0  0  0  0  0
   -3.4435   -3.5884   -2.1843 C   0  0  0  0  0  0  0  0  0  0  0  0
   -3.8922   -4.1252   -0.9717 C   0  0  0  0  0  0  0  0  0  0  0  0
   -3.7335   -5.4950   -0.7435 C   0  0  0  0  0  0  0  0  0  0  0  0
   -3.1358   -6.2934   -1.7173 C   0  0  0  0  0  0  0  0  0  0  0  0
   -2.9506   -7.5981   -1.4776 F   0  0  0  0  0  0  0  0  0  0  0  0
   -2.7229   -5.7596   -2.9340 C   0  0  0  0  0  0  0  0  0  0  0  0
   -2.9002   -4.4019   -3.1838 C   0  0  0  0  0  0  0  0  0  0  0  0
   -3.2859    1.9980    0.2435 C   0  0  0  0  0  0  0  0  0  0  0  0
   -3.0775    2.8254    1.1004 O   0  0  0  0  0  0  0  0  0  0  0  0
   -4.7506    1.9857    0.1091 C   0  0  0  0  0  0  0  0  0  0  0  0
   -5.5149    0.8594    0.0411 C   0  0  0  0  0  0  0  0  0  0  0  0
   -6.8887    1.0606   -0.1086 C   0  0  0  0  0  0  0  0  0  0  0  0
   -7.4264    2.3635   -0.0921 C   0  0  0  0  0  0  0  0  0  0  0  0
   -6.5803    3.4293    0.0764 C   0  0  0  0  0  0  0  0  0  0  0  0
   -5.2637    3.2548    0.1344 N   0  0  0  0  0  0  0  0  0  0  0  0
   -7.7896   -0.1130   -0.3319 C   0  0  0  0  0  0  0  0  0  0  0  0
   -8.7689   -0.1973    0.6036 F   0  0  0  0  0  0  0  0  0  0  0  0
   -8.4044   -0.0518   -1.5405 F   0  0  0  0  0  0  0  0  0  0  0  0
   -7.1242   -1.2998   -0.2962 F   0  0  0  0  0  0  0  0  0  0  0  0
   -0.5849    3.1447    1.6476 S   0  0  0  0  0  0  0  0  0  0  0  0
    0.6714    3.2186    2.4142 O   0  0  0  0  0  0  0  0  0  0  0  0
   -1.3110    4.3551    1.4227 O   0  0  0  0  0  0  0  0  0  0  0  0
   -1.5813    1.9839    2.6885 C   0  0  0  0  0  0  0  0  0  0  0  0
   -2.0061    0.7043    2.4213 N   0  0  0  0  0  0  0  0  0  0  0  0
   -3.0701    0.5778    3.2725 N   0  0  0  0  0  0  0  0  0  0  0  0
   -3.9713   -0.5634    3.2392 C   0  0  0  0  0  0  0  0  0  0  0  0
   -3.2687    1.5759    4.1539 N   0  0  0  0  0  0  0  0  0  0  0  0
   -2.3504    2.4745    3.7621 C   0  0  0  0  0  0  0  0  0  0  0  0
    0.7584    0.9378   -1.9964 H   0  0  0  0  0  0  0  0  0  0  0  0
    1.4462   -0.1034   -0.8469 H   0  0  0  0  0  0  0  0  0  0  0  0
    1.5328    2.7668   -0.8393 H   0  0  0  0  0  0  0  0  0  0  0  0
    1.7281    1.8970    0.6619 H   0  0  0  0  0  0  0  0  0  0  0  0
   -1.3666    3.4136   -1.5451 H   0  0  0  0  0  0  0  0  0  0  0  0
   -0.6904    2.0118   -1.8931 H   0  0  0  0  0  0  0  0  0  0  0  0
   -3.9203    1.9368   -2.0538 H   0  0  0  0  0  0  0  0  0  0  0  0
   -2.4696    1.7863   -2.9202 H   0  0  0  0  0  0  0  0  0  0  0  0
   -2.3631   -1.5002    0.0960 H   0  0  0  0  0  0  0  0  0  0  0  0
   -1.0052   -2.0462   -0.8036 H   0  0  0  0  0  0  0  0  0  0  0  0
   -4.8743    0.1639   -4.0418 H   0  0  0  0  0  0  0  0  0  0  0  0
   -4.3935   -3.5125   -0.2273 H   0  0  0  0  0  0  0  0  0  0  0  0
   -4.0628   -5.9516    0.1853 H   0  0  0  0  0  0  0  0  0  0  0  0
   -2.2537   -6.3997   -3.6733 H   0  0  0  0  0  0  0  0  0  0  0  0
   -2.5778   -3.9719   -4.1297 H   0  0  0  0  0  0  0  0  0  0  0  0
   -5.0722   -0.1282    0.0774 H   0  0  0  0  0  0  0  0  0  0  0  0
   -8.4875    2.5466   -0.2221 H   0  0  0  0  0  0  0  0  0  0  0  0
   -6.9153    4.4601    0.1452 H   0  0  0  0  0  0  0  0  0  0  0  0
   -4.6229   -0.5175    2.3608 H   0  0  0  0  0  0  0  0  0  0  0  0
   -3.3817   -1.4812    3.2036 H   0  0  0  0  0  0  0  0  0  0  0  0
   -4.6069   -0.5701    4.1325 H   0  0  0  0  0  0  0  0  0  0  0  0
   -2.3283    3.4613    4.1943 H   0  0  0  0  0  0  0  0  0  0  0  0
  2  3  1  0  0  0  0
  2  7  1  0  0  0  0
  2 11  1  0  0  0  0
  2  1  1  6  0  0  0
  3  4  1  0  0  0  0
  3 43  1  0  0  0  0
  3 44  1  0  0  0  0
  4  5  1  0  0  0  0
  4 45  1  0  0  0  0
  4 46  1  0  0  0  0
  5  6  1  0  0  0  0
  5 34  1  0  0  0  0
  6 47  1  0  0  0  0
  6 48  1  0  0  0  0
  7  6  1  0  0  0  0
  7  8  1  0  0  0  0
  7 22  1  1  0  0  0
  8  9  1  0  0  0  0
  8 49  1  0  0  0  0
  8 50  1  0  0  0  0
  9 10  2  0  0  0  0
  9 14  1  0  0  0  0
 10 11  1  0  0  0  0
 10 12  1  0  0  0  0
 11 51  1  0  0  0  0
 11 52  1  0  0  0  0
 12 13  1  0  0  0  0
 12 15  1  0  0  0  0
 13 14  2  0  0  0  0
 14 53  1  0  0  0  0
 15 16  2  0  0  0  0
 15 21  1  0  0  0  0
 16 17  1  0  0  0  0
 16 54  1  0  0  0  0
 17 18  2  0  0  0  0
 17 55  1  0  0  0  0
 18 19  1  0  0  0  0
 18 20  1  0  0  0  0
 20 21  2  0  0  0  0
 20 56  1  0  0  0  0
 21 57  1  0  0  0  0
 22 23  2  0  0  0  0
 22 24  1  0  0  0  0
 24 25  2  0  0  0  0
 24 29  1  0  0  0  0
 25 26  1  0  0  0  0
 25 58  1  0  0  0  0
 26 27  2  0  0  0  0
 26 30  1  0  0  0  0
 27 28  1  0  0  0  0
 27 59  1  0  0  0  0
 28 29  2  0  0  0  0
 28 60  1  0  0  0  0
 30 31  1  0  0  0  0
 30 32  1  0  0  0  0
 30 33  1  0  0  0  0
 34 35  2  0  0  0  0
 34 36  2  0  0  0  0
 34 37  1  0  0  0  0
 37 38  2  0  0  0  0
 37 42  1  0  0  0  0
 38 39  1  0  0  0  0
 39 40  1  0  0  0  0
 39 41  1  0  0  0  0
 40 61  1  0  0  0  0
 40 62  1  0  0  0  0
 40 63  1  0  0  0  0
 41 42  2  0  0  0  0
 42 64  1  0  0  0  0
M  END
>  <DRUGBANK_ID>
DB16162

>  <COMMON_NAME>
Exicorilant

>  <CAS_NUMBER>
1781244-77-6

>  <UNII>
GTB859B7K8

>  <SYNONYMS>
Exicorilant

$$$$
