1656
 OpenBabel10282417123D

 40 42  0  0  0  0  0  0  0  0999 V2000
   -2.6978   -0.9156    0.0586 Cl  0  0  0  0  0  0  0  0  0  0  0  0
    2.0003   -0.0493   -1.8620 Cl  0  0  0  0  0  0  0  0  0  0  0  0
    7.8479   -1.0324   -0.5636 F   0  0  0  0  0  0  0  0  0  0  0  0
    7.6748    0.5153   -2.0998 F   0  0  0  0  0  0  0  0  0  0  0  0
    5.2769   -1.9864   -2.4851 O   0  0  0  0  0  0  0  0  0  0  0  0
    5.9649    0.2982   -0.4563 O   0  0  0  0  0  0  0  0  0  0  0  0
    1.1782   -4.1566   -0.1830 O   0  0  0  0  0  0  0  0  0  0  0  0
    0.1886   -2.1046   -0.1057 N   0  0  0  0  0  0  0  0  0  0  0  0
   -0.1576    2.1405    0.2368 N   0  0  0  0  0  0  0  0  0  0  0  0
    5.3202    0.4147   -3.1441 C   0  0  0  0  0  0  0  0  0  0  0  0
    5.6580    1.6464   -3.9698 C   0  0  0  0  0  0  0  0  0  0  0  0
    5.6210    1.8273   -2.4952 C   0  0  0  0  0  0  0  0  0  0  0  0
    6.0745   -0.9490   -3.1075 C   0  0  0  0  0  0  0  0  0  0  0  0
    4.7852   -1.7920   -1.2116 C   0  0  0  0  0  0  0  0  0  0  0  0
    5.0631   -0.7332   -0.3310 C   0  0  0  0  0  0  0  0  0  0  0  0
    3.6770   -2.6681   -0.9559 C   0  0  0  0  0  0  0  0  0  0  0  0
    2.7305   -2.3889    0.0495 C   0  0  0  0  0  0  0  0  0  0  0  0
    4.1333   -0.5360    0.7282 C   0  0  0  0  0  0  0  0  0  0  0  0
    3.0246   -1.3847    0.9657 C   0  0  0  0  0  0  0  0  0  0  0  0
    1.3289   -2.9225   -0.0793 C   0  0  0  0  0  0  0  0  0  0  0  0
    0.0300   -0.6747   -0.1409 C   0  0  0  0  0  0  0  0  0  0  0  0
    7.3690    0.1993   -0.8036 C   0  0  0  0  0  0  0  0  0  0  0  0
   -1.2096   -0.0502    0.0468 C   0  0  0  0  0  0  0  0  0  0  0  0
    1.0682    0.2063   -0.4257 C   0  0  0  0  0  0  0  0  0  0  0  0
   -1.2522    1.3467    0.1589 C   0  0  0  0  0  0  0  0  0  0  0  0
    1.0044    1.5367   -0.0412 C   0  0  0  0  0  0  0  0  0  0  0  0
   -0.6764   -2.6446   -0.0837 H   0  0  0  0  0  0  0  0  0  0  0  0
    4.2709    0.1582   -3.1949 H   0  0  0  0  0  0  0  0  0  0  0  0
    6.6350    1.8094   -4.4078 H   0  0  0  0  0  0  0  0  0  0  0  0
    4.8478    2.1319   -4.5023 H   0  0  0  0  0  0  0  0  0  0  0  0
    4.8049    2.3473   -1.9942 H   0  0  0  0  0  0  0  0  0  0  0  0
    6.5542    2.2396   -2.1063 H   0  0  0  0  0  0  0  0  0  0  0  0
    7.0474   -1.1301   -2.6554 H   0  0  0  0  0  0  0  0  0  0  0  0
    6.2937   -1.2738   -4.1325 H   0  0  0  0  0  0  0  0  0  0  0  0
    3.4587   -3.4653   -1.6683 H   0  0  0  0  0  0  0  0  0  0  0  0
    4.1683    0.3916    1.3017 H   0  0  0  0  0  0  0  0  0  0  0  0
    2.3052   -1.1461    1.7485 H   0  0  0  0  0  0  0  0  0  0  0  0
    7.9170    0.9718   -0.2743 H   0  0  0  0  0  0  0  0  0  0  0  0
   -2.1906    1.8951    0.1766 H   0  0  0  0  0  0  0  0  0  0  0  0
    1.8857    2.1705   -0.0905 H   0  0  0  0  0  0  0  0  0  0  0  0
  1 23  1  0  0  0  0
  2 24  1  0  0  0  0
  3 22  1  0  0  0  0
  4 22  1  0  0  0  0
  5 13  1  0  0  0  0
  5 14  1  0  0  0  0
  6 15  1  0  0  0  0
  6 22  1  0  0  0  0
  7 20  2  0  0  0  0
  8 20  1  0  0  0  0
  8 21  1  0  0  0  0
  8 27  1  0  0  0  0
  9 25  2  0  0  0  0
  9 26  1  0  0  0  0
 10 11  1  0  0  0  0
 10 12  1  0  0  0  0
 10 13  1  0  0  0  0
 10 28  1  0  0  0  0
 11 12  1  0  0  0  0
 11 29  1  0  0  0  0
 11 30  1  0  0  0  0
 12 31  1  0  0  0  0
 12 32  1  0  0  0  0
 13 33  1  0  0  0  0
 13 34  1  0  0  0  0
 14 15  2  0  0  0  0
 14 16  1  0  0  0  0
 15 18  1  0  0  0  0
 16 17  2  0  0  0  0
 16 35  1  0  0  0  0
 17 19  1  0  0  0  0
 17 20  1  0  0  0  0
 18 19  2  0  0  0  0
 18 36  1  0  0  0  0
 19 37  1  0  0  0  0
 21 23  2  0  0  0  0
 21 24  1  0  0  0  0
 22 38  1  0  0  0  0
 23 25  1  0  0  0  0
 24 26  2  0  0  0  0
 25 39  1  0  0  0  0
 26 40  1  0  0  0  0
M  END
>  <DRUGBANK_ID>
DB01656

>  <SECONDARY_ACCESSION_NUMBERS>
EXPT02802

>  <COMMON_NAME>
Roflumilast

>  <CAS_NUMBER>
162401-32-3

>  <UNII>
0P6C6ZOP5U

>  <SYNONYMS>
Roflumilast; Roflumilastum

$$$$
