
 OpenBabel10282417153D

 44 46  0  0  0  0  0  0  0  0999 V2000
   -9.0854    0.6736   -0.1363 Cl  0  0  0  0  0  0  0  0  0  0  0  0
   -8.5225   -2.5312    0.0142 Cl  0  0  0  0  0  0  0  0  0  0  0  0
   -2.8059    2.1656    3.4604 O   0  0  0  0  0  0  0  0  0  0  0  0
   -3.6075    4.3855   -0.3094 N   0  0  0  0  0  0  0  0  0  0  0  0
   -3.1492    3.6451    0.8672 C   0  0  1  0  0  0  0  0  0  0  0  0
   -3.2147    3.5494   -1.4425 C   0  0  2  0  0  0  0  0  0  0  0  0
   -3.9326    2.3397    1.1506 C   0  0  1  0  0  0  0  0  0  0  0  0
   -3.9482    1.4314   -0.1220 C   0  0  2  0  0  0  0  0  0  0  0  0
   -3.9905    2.2257   -1.4588 C   0  0  0  0  0  0  0  0  0  0  0  0
   -1.7166    3.3800    0.3788 C   0  0  0  0  0  0  0  0  0  0  0  0
   -1.7477    3.3161   -1.1289 C   0  0  0  0  0  0  0  0  0  0  0  0
   -3.4987    1.5049    2.4014 C   0  0  0  0  0  0  0  0  0  0  0  0
   -5.0962    0.4377   -0.0893 C   0  0  0  0  0  0  0  0  0  0  0  0
   -4.9792    4.8442   -0.2812 C   0  0  0  0  0  0  0  0  0  0  0  0
   -6.4235    0.8893   -0.1006 C   0  0  0  0  0  0  0  0  0  0  0  0
   -4.8561   -0.9456   -0.0577 C   0  0  0  0  0  0  0  0  0  0  0  0
   -1.4563    2.5595    3.2326 C   0  0  0  0  0  0  0  0  0  0  0  0
   -7.4955    0.0052   -0.0848 C   0  0  0  0  0  0  0  0  0  0  0  0
   -5.9298   -1.8357   -0.0257 C   0  0  0  0  0  0  0  0  0  0  0  0
   -7.2470   -1.3716   -0.0369 C   0  0  0  0  0  0  0  0  0  0  0  0
   -0.5435    1.4873    2.6391 C   0  0  0  0  0  0  0  0  0  0  0  0
   -3.1925    4.2913    1.7516 H   0  0  0  0  0  0  0  0  0  0  0  0
   -3.3067    4.0720   -2.3982 H   0  0  0  0  0  0  0  0  0  0  0  0
   -4.9623    2.6480    1.3803 H   0  0  0  0  0  0  0  0  0  0  0  0
   -3.0056    0.8639   -0.1276 H   0  0  0  0  0  0  0  0  0  0  0  0
   -5.0207    2.4517   -1.7502 H   0  0  0  0  0  0  0  0  0  0  0  0
   -3.5939    1.5823   -2.2552 H   0  0  0  0  0  0  0  0  0  0  0  0
   -1.0248    4.1616    0.7132 H   0  0  0  0  0  0  0  0  0  0  0  0
   -1.3498    2.4157    0.6883 H   0  0  0  0  0  0  0  0  0  0  0  0
   -1.3747    2.3457   -1.4779 H   0  0  0  0  0  0  0  0  0  0  0  0
   -1.0888    4.0928   -1.5301 H   0  0  0  0  0  0  0  0  0  0  0  0
   -4.4199    1.1244    2.8677 H   0  0  0  0  0  0  0  0  0  0  0  0
   -2.9709    0.5872    2.1271 H   0  0  0  0  0  0  0  0  0  0  0  0
   -5.7162    4.0406   -0.2408 H   0  0  0  0  0  0  0  0  0  0  0  0
   -5.1444    5.4916    0.5871 H   0  0  0  0  0  0  0  0  0  0  0  0
   -5.1839    5.4467   -1.1713 H   0  0  0  0  0  0  0  0  0  0  0  0
   -6.6283    1.9610   -0.1308 H   0  0  0  0  0  0  0  0  0  0  0  0
   -3.8403   -1.3327   -0.0568 H   0  0  0  0  0  0  0  0  0  0  0  0
   -1.4659    3.4731    2.6490 H   0  0  0  0  0  0  0  0  0  0  0  0
   -1.0257    2.9184    4.1709 H   0  0  0  0  0  0  0  0  0  0  0  0
   -5.7305   -2.9083    0.0064 H   0  0  0  0  0  0  0  0  0  0  0  0
   -1.0134    0.8654    1.8701 H   0  0  0  0  0  0  0  0  0  0  0  0
    0.3368    1.9484    2.1751 H   0  0  0  0  0  0  0  0  0  0  0  0
   -0.2161    0.7975    3.4149 H   0  0  0  0  0  0  0  0  0  0  0  0
  1 18  1  0  0  0  0
  2 20  1  0  0  0  0
  3 12  1  0  0  0  0
  3 17  1  0  0  0  0
  4  5  1  0  0  0  0
  4  6  1  0  0  0  0
  4 14  1  0  0  0  0
  5  7  1  0  0  0  0
  5 10  1  0  0  0  0
  5 22  1  1  0  0  0
  6  9  1  0  0  0  0
  6 11  1  0  0  0  0
  6 23  1  6  0  0  0
  7  8  1  0  0  0  0
  7 24  1  1  0  0  0
  7 12  1  0  0  0  0
  8  9  1  0  0  0  0
  8 25  1  1  0  0  0
  8 13  1  0  0  0  0
  9 26  1  0  0  0  0
  9 27  1  0  0  0  0
 10 11  1  0  0  0  0
 10 28  1  0  0  0  0
 10 29  1  0  0  0  0
 11 30  1  0  0  0  0
 11 31  1  0  0  0  0
 12 32  1  0  0  0  0
 12 33  1  0  0  0  0
 13 15  2  0  0  0  0
 13 16  1  0  0  0  0
 14 34  1  0  0  0  0
 14 35  1  0  0  0  0
 14 36  1  0  0  0  0
 15 18  1  0  0  0  0
 15 37  1  0  0  0  0
 16 19  2  0  0  0  0
 16 38  1  0  0  0  0
 17 21  1  0  0  0  0
 17 39  1  0  0  0  0
 17 40  1  0  0  0  0
 18 20  2  0  0  0  0
 19 20  1  0  0  0  0
 19 41  1  0  0  0  0
 21 42  1  0  0  0  0
 21 43  1  0  0  0  0
 21 44  1  0  0  0  0
M  END
>  <DRUGBANK_ID>
DB06156

>  <COMMON_NAME>
Tesofensine

>  <CAS_NUMBER>
195875-84-4

>  <UNII>
BLH9UKX9V1

>  <SYNONYMS>
Tesofensine

$$$$
