
 OpenBabel10282417103D

216219  0  0  0  0  0  0  0  0999 V2000
    5.8017    4.5863   -0.2239 C   0  0  0  0  0  0  0  0  0  0  0  0
    5.2924    3.2903    0.1665 N   0  0  0  0  0  0  0  0  0  0  0  0
    4.1580    3.1519    1.0888 C   0  0  2  0  0  0  0  0  0  0  0  0
    4.5949    2.3918    2.3363 C   0  0  0  0  0  0  0  0  0  0  0  0
    5.1656    1.1074    2.1395 N   0  0  0  0  0  0  0  0  0  0  0  0
    5.4226    0.4054    0.9214 C   0  0  1  0  0  0  0  0  0  0  0  0
    6.7290    0.6692    0.4054 C   0  0  0  0  0  0  0  0  0  0  0  0
    7.8409    0.2177    1.2059 N   0  0  0  0  0  0  0  0  0  0  0  0
    7.6624   -0.5404    2.4582 C   0  0  2  0  0  0  0  0  0  0  0  0
    9.3690   -0.6017    3.6596 C   0  0  0  0  0  0  0  0  0  0  0  0
   11.4305   -2.5569    3.4180 N   0  0  0  0  0  0  0  0  0  0  0  0
   13.3912   -5.2922    2.8187 C   0  0  2  0  0  0  0  0  0  0  0  0
   16.7920  -14.7512    8.8997 O   0  0  0  0  0  0  0  0  0  0  0  0
   16.0862  -14.8048    7.8740 C   0  0  0  0  0  0  0  0  0  0  0  0
   15.6247  -16.0413    7.3768 O   0  0  0  0  0  0  0  0  0  0  0  0
   15.7163  -13.5325    7.1306 C   0  0  0  0  0  0  0  0  0  0  0  0
   21.6562  -18.3977    1.5002 C   0  0  2  0  0  0  0  0  0  0  0  0
   23.2959  -20.6342    0.5910 N   0  0  0  0  0  0  0  0  0  0  0  0
   22.6378  -20.1739    1.1450 C   0  0  0  0  0  0  0  0  0  0  0  0
   22.2943  -19.0868    0.0078 C   0  0  1  0  0  0  0  0  0  0  0  0
   20.6016  -19.2361   -0.0365 N   0  0  0  0  0  0  0  0  0  0  0  0
   19.6013  -18.1019    0.8255 C   0  0  0  0  0  0  0  0  0  0  0  0
   18.3844  -18.2848    0.7705 C   0  0  2  0  0  0  0  0  0  0  0  0
   17.9107  -18.2143    2.1506 N   0  0  0  0  0  0  0  0  0  0  0  0
   17.0003  -17.1468    2.5276 C   0  0  0  0  0  0  0  0  0  0  0  0
   12.7291  -10.4276    4.7489 N   0  0  0  0  0  0  0  0  0  0  0  0
   11.9720   -9.3467    5.3067 C   0  0  0  0  0  0  0  0  0  0  0  0
   11.0631   -4.3607    5.2438 C   0  0  0  0  0  0  0  0  0  0  0  0
   10.5874   -3.4484    4.3321 N   0  0  0  0  0  0  0  0  0  0  0  0
   10.6859   -9.3591    5.2466 C   0  0  1  0  0  0  0  0  0  0  0  0
   10.0296   -9.2794    6.9739 N   0  0  0  0  0  0  0  0  0  0  0  0
    8.9647   -8.3149    7.0898 C   0  0  0  0  0  0  0  0  0  0  0  0
    8.5099   -7.2372    6.0898 C   0  0  1  0  0  0  0  0  0  0  0  0
    9.5978   -6.4613    5.5914 N   0  0  0  0  0  0  0  0  0  0  0  0
    9.8235   -5.0918    5.7568 C   0  0  0  0  0  0  0  0  0  0  0  0
   11.9142   -3.0539    3.9534 C   0  0  0  0  0  0  0  0  0  0  0  0
   14.2018  -10.3465    4.7664 C   0  0  1  0  0  0  0  0  0  0  0  0
   14.7780  -11.5059    5.5806 C   0  0  0  0  0  0  0  0  0  0  0  0
   15.6884  -12.4432    4.9388 N   0  0  0  0  0  0  0  0  0  0  0  0
   16.2442  -13.5723    5.7104 C   0  0  2  0  0  0  0  0  0  0  0  0
   15.8283  -14.8967    5.0579 C   0  0  0  0  0  0  0  0  0  0  0  0
   16.8556  -15.8141    4.5903 N   0  0  0  0  0  0  0  0  0  0  0  0
   16.4688  -17.0895    3.9614 C   0  0  0  0  0  0  0  0  0  0  0  0
   19.5152  -14.9763    1.5844 C   0  0  0  0  0  0  0  0  0  0  0  0
   17.6459  -11.8327    1.8240 O   0  0  0  0  0  0  0  0  0  0  0  0
   15.5888   -8.3065    2.1799 C   0  0  2  0  0  0  0  0  0  0  0  0
   20.5670  -17.0676    1.1841 O   0  0  0  0  0  0  0  0  0  0  0  0
   22.3690  -20.3599    2.3912 O   0  0  0  0  0  0  0  0  0  0  0  0
   20.0139  -16.8800    2.2017 O   0  0  0  0  0  0  0  0  0  0  0  0
   16.6514  -16.2749    1.6998 O   0  0  0  0  0  0  0  0  0  0  0  0
   14.6124  -15.1729    4.9408 O   0  0  0  0  0  0  0  0  0  0  0  0
   14.4523  -11.6294    6.7812 O   0  0  0  0  0  0  0  0  0  0  0  0
   14.7346  -10.3976    3.3543 C   0  0  0  0  0  0  0  0  0  0  0  0
   12.4915   -8.3422    5.7984 O   0  0  0  0  0  0  0  0  0  0  0  0
    8.5116   -8.2751    8.2315 O   0  0  0  0  0  0  0  0  0  0  0  0
    7.6940   -7.9387    4.8590 C   0  0  0  0  0  0  0  0  0  0  0  0
    8.6315   -9.0391    4.1543 C   0  0  0  0  0  0  0  0  0  0  0  0
    8.9825  -10.0688    5.1775 C   0  0  0  0  0  0  0  0  0  0  0  0
    7.9999  -10.7090    5.7075 N   0  0  0  0  0  0  0  0  0  0  0  0
    8.9170   -4.4642    6.3276 O   0  0  0  0  0  0  0  0  0  0  0  0
   14.4238   -5.1517    2.1380 C   0  0  0  0  0  0  0  0  0  0  0  0
    7.7862    0.8055    4.0897 O   0  0  0  0  0  0  0  0  0  0  0  0
    8.2652   -1.8907    2.3551 C   0  0  0  0  0  0  0  0  0  0  0  0
    8.6840   -2.1098    0.9102 C   0  0  0  0  0  0  0  0  0  0  0  0
    9.8187   -1.7659    0.5257 O   0  0  0  0  0  0  0  0  0  0  0  0
    7.7570   -2.6872    0.0188 O   0  0  0  0  0  0  0  0  0  0  0  0
    6.8954    1.2869   -0.6679 O   0  0  0  0  0  0  0  0  0  0  0  0
    5.3287   -1.0497    1.0418 C   0  0  0  0  0  0  0  0  0  0  0  0
    4.2879   -0.6325    1.5967 C   0  0  0  0  0  0  0  0  0  0  0  0
    2.5259   -0.4525    1.0500 O   0  0  0  0  0  0  0  0  0  0  0  0
    4.2796    0.2251    3.3183 N   0  0  0  0  0  0  0  0  0  0  0  0
    4.5182    2.9245    3.4657 O   0  0  0  0  0  0  0  0  0  0  0  0
    3.0134    2.4255    0.4074 C   0  0  0  0  0  0  0  0  0  0  0  0
    5.1462    5.8465    0.3439 C   0  0  0  0  0  0  0  0  0  0  0  0
    6.7667    4.6881   -1.0147 O   0  0  0  0  0  0  0  0  0  0  0  0
    3.3515    1.1382   -0.0836 C   0  0  0  0  0  0  0  0  0  0  0  0
    4.2480   -0.6257   -1.3445 N   0  0  0  0  0  0  0  0  0  0  0  0
    3.7345    0.6783   -1.2995 C   0  0  0  0  0  0  0  0  0  0  0  0
    3.8792   -1.0559   -0.1871 C   0  0  0  0  0  0  0  0  0  0  0  0
    3.6578    0.1432    0.4325 C   0  0  0  0  0  0  0  0  0  0  0  0
    3.0361   -0.3771    2.4198 C   0  0  0  0  0  0  0  0  0  0  0  0
    3.8412   -1.6659    2.8271 C   0  0  0  0  0  0  0  0  0  0  0  0
    4.2580   -2.6665    1.9443 C   0  0  0  0  0  0  0  0  0  0  0  0
    4.3994   -2.5826    0.5301 C   0  0  0  0  0  0  0  0  0  0  0  0
    6.1729    6.6506    1.1173 C   0  0  0  0  0  0  0  0  0  0  0  0
    7.3103    7.0480    0.1961 C   0  0  0  0  0  0  0  0  0  0  0  0
    6.7720    7.8905   -0.9440 C   0  0  0  0  0  0  0  0  0  0  0  0
    6.1222    9.1421   -0.3870 C   0  0  0  0  0  0  0  0  0  0  0  0
    7.1487    9.9454    0.3882 C   0  0  0  0  0  0  0  0  0  0  0  0
    8.2864   10.3412   -0.5329 C   0  0  0  0  0  0  0  0  0  0  0  0
    7.7496   11.1843   -1.6727 C   0  0  0  0  0  0  0  0  0  0  0  0
    7.0972   12.4330   -1.1197 C   0  0  0  0  0  0  0  0  0  0  0  0
   23.1789  -21.1814    2.1954 C   0  0  0  0  0  0  0  0  0  0  0  0
   24.0541  -23.4906    3.2811 C   0  0  0  0  0  0  0  0  0  0  0  0
   24.9720  -23.5629    4.6042 C   0  0  0  0  0  0  0  0  0  0  0  0
   23.7120  -24.7327    2.9212 O   0  0  0  0  0  0  0  0  0  0  0  0
   25.9669  -24.5211    4.7505 C   0  0  0  0  0  0  0  0  0  0  0  0
   26.7438  -24.5454    5.9045 C   0  0  0  0  0  0  0  0  0  0  0  0
   26.5207  -23.6213    6.9221 C   0  0  0  0  0  0  0  0  0  0  0  0
   25.5142  -22.6854    6.7848 C   0  0  0  0  0  0  0  0  0  0  0  0
   24.7394  -22.6321    5.6216 C   0  0  0  0  0  0  0  0  0  0  0  0
   22.7659  -17.7443    0.8353 C   0  0  1  0  0  0  0  0  0  0  0  0
   23.7632  -21.6927    5.4910 N   0  0  0  0  0  0  0  0  0  0  0  0
   11.5922   -1.7197    5.4079 O   0  0  0  0  0  0  0  0  0  0  0  0
   10.1424   -8.2738    4.7695 C   0  0  0  0  0  0  0  0  0  0  0  0
   11.0546   -7.2121    4.2957 C   0  0  0  0  0  0  0  0  0  0  0  0
   11.4360   -6.6945    3.2694 O   0  0  0  0  0  0  0  0  0  0  0  0
   11.3199   -6.6584    5.5877 O   0  0  0  0  0  0  0  0  0  0  0  0
   18.0224  -19.5853    0.1274 C   0  0  0  0  0  0  0  0  0  0  0  0
   16.6086  -19.6836    0.1043 O   0  0  0  0  0  0  0  0  0  0  0  0
   24.1364  -18.2013    0.9973 C   0  0  0  0  0  0  0  0  0  0  0  0
   22.4838  -16.6397    0.0031 C   0  0  0  0  0  0  0  0  0  0  0  0
   24.6800  -18.5279   -0.3969 C   0  0  0  0  0  0  0  0  0  0  0  0
   25.6005  -17.8535   -0.8733 O   0  0  0  0  0  0  0  0  0  0  0  0
   24.1259  -19.5970   -1.1380 O   0  0  0  0  0  0  0  0  0  0  0  0
    5.7309    2.4384   -0.2117 H   0  0  0  0  0  0  0  0  0  0  0  0
    3.8254    4.1308    1.3831 H   0  0  0  0  0  0  0  0  0  0  0  0
    5.4383    0.5673    2.9571 H   0  0  0  0  0  0  0  0  0  0  0  0
    4.8410    0.8681    0.1679 H   0  0  0  0  0  0  0  0  0  0  0  0
    8.7995    0.4046    0.8878 H   0  0  0  0  0  0  0  0  0  0  0  0
    6.5899   -0.6277    2.6459 H   0  0  0  0  0  0  0  0  0  0  0  0
   10.5287   -0.6941    4.2679 H   0  0  0  0  0  0  0  0  0  0  0  0
   11.9086   -3.4314    2.7275 H   0  0  0  0  0  0  0  0  0  0  0  0
   15.8661  -16.8852    7.8548 H   0  0  0  0  0  0  0  0  0  0  0  0
   16.1440  -12.6782    7.6446 H   0  0  0  0  0  0  0  0  0  0  0  0
   14.6436  -13.4220    7.1151 H   0  0  0  0  0  0  0  0  0  0  0  0
   23.5441  -20.3861    1.3525 H   0  0  0  0  0  0  0  0  0  0  0  0
   23.9777  -21.1536   -0.5476 H   0  0  0  0  0  0  0  0  0  0  0  0
   22.6100  -19.2097   -0.7871 H   0  0  0  0  0  0  0  0  0  0  0  0
   20.3144  -20.1128   -0.1650 H   0  0  0  0  0  0  0  0  0  0  0  0
   18.0343  -17.4570    0.2022 H   0  0  0  0  0  0  0  0  0  0  0  0
   18.2047  -18.9256    2.8232 H   0  0  0  0  0  0  0  0  0  0  0  0
   12.2871  -11.2593    4.3481 H   0  0  0  0  0  0  0  0  0  0  0  0
   11.7469   -5.0447    4.7769 H   0  0  0  0  0  0  0  0  0  0  0  0
   11.5660   -3.8843    6.0713 H   0  0  0  0  0  0  0  0  0  0  0  0
   10.1806   -3.6202    3.4157 H   0  0  0  0  0  0  0  0  0  0  0  0
   10.4470  -10.1511    4.8248 H   0  0  0  0  0  0  0  0  0  0  0  0
   10.1719  -10.1207    7.3535 H   0  0  0  0  0  0  0  0  0  0  0  0
    7.8647   -6.5682    6.5043 H   0  0  0  0  0  0  0  0  0  0  0  0
   10.3155   -6.9789    5.3452 H   0  0  0  0  0  0  0  0  0  0  0  0
   14.4948   -9.4139    5.2262 H   0  0  0  0  0  0  0  0  0  0  0  0
   15.9499  -12.3378    3.9560 H   0  0  0  0  0  0  0  0  0  0  0  0
   17.3173  -13.5014    5.7267 H   0  0  0  0  0  0  0  0  0  0  0  0
   17.8477  -15.5896    4.6841 H   0  0  0  0  0  0  0  0  0  0  0  0
   16.8674  -17.9098    4.5291 H   0  0  0  0  0  0  0  0  0  0  0  0
   15.3932  -17.1638    3.9437 H   0  0  0  0  0  0  0  0  0  0  0  0
   14.8480   -6.3992    2.0612 H   0  0  0  0  0  0  0  0  0  0  0  0
   14.3303   -9.5837    2.7844 H   0  0  0  0  0  0  0  0  0  0  0  0
   15.8094  -10.3272    3.3661 H   0  0  0  0  0  0  0  0  0  0  0  0
   14.4477  -11.3243    2.8919 H   0  0  0  0  0  0  0  0  0  0  0  0
    6.9582   -8.4669    5.2218 H   0  0  0  0  0  0  0  0  0  0  0  0
    7.5393   -7.1920    4.1443 H   0  0  0  0  0  0  0  0  0  0  0  0
    8.2829   -9.4129    3.3585 H   0  0  0  0  0  0  0  0  0  0  0  0
    9.3405   -8.1722    3.7631 H   0  0  0  0  0  0  0  0  0  0  0  0
    9.6378  -10.9601    4.6901 H   0  0  0  0  0  0  0  0  0  0  0  0
    9.4293   -9.5989    5.8267 H   0  0  0  0  0  0  0  0  0  0  0  0
    8.3065  -11.4007    6.3820 H   0  0  0  0  0  0  0  0  0  0  0  0
    7.3853  -10.0377    6.1473 H   0  0  0  0  0  0  0  0  0  0  0  0
   13.2306   -3.1301    1.7962 H   0  0  0  0  0  0  0  0  0  0  0  0
   13.9709   -2.8154    2.0518 H   0  0  0  0  0  0  0  0  0  0  0  0
   13.5440   -3.0438    2.6919 H   0  0  0  0  0  0  0  0  0  0  0  0
    9.0746   -1.5124    2.8682 H   0  0  0  0  0  0  0  0  0  0  0  0
    8.0247   -2.8349    2.8209 H   0  0  0  0  0  0  0  0  0  0  0  0
    8.0214   -2.8261   -0.9385 H   0  0  0  0  0  0  0  0  0  0  0  0
    5.2296   -1.4865   -0.0256 H   0  0  0  0  0  0  0  0  0  0  0  0
    5.4943   -1.9007    1.6037 H   0  0  0  0  0  0  0  0  0  0  0  0
    4.9130   -0.0757    3.6593 H   0  0  0  0  0  0  0  0  0  0  0  0
    3.2323    0.6489    3.6718 H   0  0  0  0  0  0  0  0  0  0  0  0
    2.1837    2.3415    1.0829 H   0  0  0  0  0  0  0  0  0  0  0  0
    2.7100    2.9720   -0.4657 H   0  0  0  0  0  0  0  0  0  0  0  0
    4.7577    6.4435   -0.4647 H   0  0  0  0  0  0  0  0  0  0  0  0
    4.3391    5.5819    0.9925 H   0  0  0  0  0  0  0  0  0  0  0  0
    4.5786   -1.1513   -2.1392 H   0  0  0  0  0  0  0  0  0  0  0  0
    3.5931    1.3006   -2.1313 H   0  0  0  0  0  0  0  0  0  0  0  0
    3.1108    0.5587    2.5604 H   0  0  0  0  0  0  0  0  0  0  0  0
    3.7905   -1.7156    3.7849 H   0  0  0  0  0  0  0  0  0  0  0  0
    4.5789   -3.5247    2.3449 H   0  0  0  0  0  0  0  0  0  0  0  0
    4.9312   -3.1834   -0.0954 H   0  0  0  0  0  0  0  0  0  0  0  0
    5.7112    7.5366    1.5188 H   0  0  0  0  0  0  0  0  0  0  0  0
    6.5548    6.0587    1.9285 H   0  0  0  0  0  0  0  0  0  0  0  0
    8.0420    7.6103    0.7460 H   0  0  0  0  0  0  0  0  0  0  0  0
    7.7790    6.1659   -0.1970 H   0  0  0  0  0  0  0  0  0  0  0  0
    7.5765    8.1640   -1.6018 H   0  0  0  0  0  0  0  0  0  0  0  0
    6.0472    7.3244   -1.5000 H   0  0  0  0  0  0  0  0  0  0  0  0
    5.7337    9.7366   -1.1936 H   0  0  0  0  0  0  0  0  0  0  0  0
    5.3117    8.8687    0.2635 H   0  0  0  0  0  0  0  0  0  0  0  0
    6.6873   10.8290    0.7897 H   0  0  0  0  0  0  0  0  0  0  0  0
    7.5303    9.3541    1.2004 H   0  0  0  0  0  0  0  0  0  0  0  0
    9.0172   10.9054    0.0173 H   0  0  0  0  0  0  0  0  0  0  0  0
    8.7538    9.4559   -0.9275 H   0  0  0  0  0  0  0  0  0  0  0  0
    8.5542   11.4590   -2.3295 H   0  0  0  0  0  0  0  0  0  0  0  0
    7.0234   10.6165   -2.2290 H   0  0  0  0  0  0  0  0  0  0  0  0
    7.8217   13.0031   -0.5664 H   0  0  0  0  0  0  0  0  0  0  0  0
    6.7128   13.0310   -1.9238 H   0  0  0  0  0  0  0  0  0  0  0  0
    6.2882   12.1611   -0.4654 H   0  0  0  0  0  0  0  0  0  0  0  0
   24.1802  -21.4887    3.1340 H   0  0  0  0  0  0  0  0  0  0  0  0
   22.6574  -22.2471    2.6087 H   0  0  0  0  0  0  0  0  0  0  0  0
   26.1349  -25.2399    3.9707 H   0  0  0  0  0  0  0  0  0  0  0  0
   27.5192  -25.2822    6.0107 H   0  0  0  0  0  0  0  0  0  0  0  0
   27.1263  -23.6338    7.8095 H   0  0  0  0  0  0  0  0  0  0  0  0
   25.3276  -21.9926    7.5841 H   0  0  0  0  0  0  0  0  0  0  0  0
   22.3186  -17.5630    1.9185 H   0  0  0  0  0  0  0  0  0  0  0  0
   23.1991  -21.6699    4.6458 H   0  0  0  0  0  0  0  0  0  0  0  0
   23.6034  -21.0218    6.2317 H   0  0  0  0  0  0  0  0  0  0  0  0
    9.8407   -8.8354    3.1053 H   0  0  0  0  0  0  0  0  0  0  0  0
    9.0948   -7.8962    4.9266 H   0  0  0  0  0  0  0  0  0  0  0  0
   11.1643   -7.1041    2.4250 H   0  0  0  0  0  0  0  0  0  0  0  0
   18.4038  -19.6294   -0.8806 H   0  0  0  0  0  0  0  0  0  0  0  0
   18.4297  -20.4087    0.6907 H   0  0  0  0  0  0  0  0  0  0  0  0
   16.2626  -19.6446    1.0318 H   0  0  0  0  0  0  0  0  0  0  0  0
   24.6713  -17.3795    1.4114 H   0  0  0  0  0  0  0  0  0  0  0  0
   24.2610  -19.0549    1.6446 H   0  0  0  0  0  0  0  0  0  0  0  0
   21.4436  -16.3887   -0.0685 H   0  0  0  0  0  0  0  0  0  0  0  0
   23.0214  -15.8121    0.4134 H   0  0  0  0  0  0  0  0  0  0  0  0
   22.8536  -16.8695   -0.9745 H   0  0  0  0  0  0  0  0  0  0  0  0
   24.4487  -19.8077   -2.0408 H   0  0  0  0  0  0  0  0  0  0  0  0
  1 74  1  0  0  0  0
  1 75  2  0  0  0  0
  1  2  1  0  0  0  0
  2116  1  0  0  0  0
  3  2  1  0  0  0  0
  3 73  1  0  0  0  0
  3  4  1  0  0  0  0
  3117  1  1  0  0  0
  4 72  2  0  0  0  0
  4  5  1  0  0  0  0
  5118  1  0  0  0  0
  6  7  1  0  0  0  0
  6119  1  6  0  0  0
  6  5  1  0  0  0  0
  6 68  1  0  0  0  0
  7 67  2  0  0  0  0
  7  8  1  0  0  0  0
  8120  1  0  0  0  0
  9  8  1  0  0  0  0
  9121  1  1  0  0  0
  9 63  1  0  0  0  0
  9 10  1  0  0  0  0
 10 62  2  0  0  0  0
 10 11  1  0  0  0  0
 11122  1  0  0  0  0
 12 11  1  0  0  0  0
 12 36  1  0  0  0  0
 12123  1  1  0  0  0
 13 14  2  0  0  0  0
 14 15  1  0  0  0  0
 14 16  1  0  0  0  0
 15124  1  0  0  0  0
 16125  1  0  0  0  0
 16126  1  0  0  0  0
 17 18  1  0  0  0  0
 17 44  1  0  0  0  0
 17127  1  6  0  0  0
 17 93  1  0  0  0  0
 18 19  1  0  0  0  0
 18128  1  0  0  0  0
 19 48  2  0  0  0  0
 20 21  1  0  0  0  0
 20 19  1  0  0  0  0
 20129  1  6  0  0  0
 20102  1  0  0  0  0
 21 22  1  0  0  0  0
 21130  1  0  0  0  0
 22 49  2  0  0  0  0
 23 22  1  0  0  0  0
 23 24  1  0  0  0  0
 23109  1  0  0  0  0
 23131  1  6  0  0  0
 24 25  1  0  0  0  0
 24132  1  0  0  0  0
 25 50  2  0  0  0  0
 26 37  1  0  0  0  0
 26 27  1  0  0  0  0
 26133  1  0  0  0  0
 27 54  2  0  0  0  0
 28 29  1  0  0  0  0
 28134  1  0  0  0  0
 28135  1  0  0  0  0
 29 36  1  0  0  0  0
 29136  1  0  0  0  0
 30 27  1  0  0  0  0
 30 31  1  0  0  0  0
 30137  1  6  0  0  0
 30105  1  0  0  0  0
 31 32  1  0  0  0  0
 31138  1  0  0  0  0
 32 55  2  0  0  0  0
 33 56  1  0  0  0  0
 33 34  1  0  0  0  0
 33 32  1  0  0  0  0
 33139  1  1  0  0  0
 34 35  1  0  0  0  0
 34140  1  0  0  0  0
 35 28  1  0  0  0  0
 35 60  2  0  0  0  0
 36104  2  0  0  0  0
 37 38  1  0  0  0  0
 37 53  1  0  0  0  0
 37141  1  1  0  0  0
 38 39  1  0  0  0  0
 38 52  2  0  0  0  0
 39 40  1  0  0  0  0
 39142  1  0  0  0  0
 40 41  1  0  0  0  0
 40143  1  1  0  0  0
 40 16  1  0  0  0  0
 41 42  1  0  0  0  0
 41 51  2  0  0  0  0
 42 43  1  0  0  0  0
 42144  1  0  0  0  0
 43 25  1  0  0  0  0
 43145  1  0  0  0  0
 43146  1  0  0  0  0
 44 45  1  0  0  0  0
 44 47  2  0  0  0  0
 45 46  1  0  0  0  0
 46 61  1  0  0  0  0
 46 12  1  0  0  0  0
 46147  1  6  0  0  0
 53148  1  0  0  0  0
 53149  1  0  0  0  0
 53150  1  0  0  0  0
 56 57  1  0  0  0  0
 56151  1  0  0  0  0
 56152  1  0  0  0  0
 57 58  1  0  0  0  0
 57153  1  0  0  0  0
 57154  1  0  0  0  0
 58 59  1  0  0  0  0
 58155  1  0  0  0  0
 58156  1  0  0  0  0
 59157  1  0  0  0  0
 59158  1  0  0  0  0
 61159  1  0  0  0  0
 61160  1  0  0  0  0
 61161  1  0  0  0  0
 63 64  1  0  0  0  0
 63162  1  0  0  0  0
 63163  1  0  0  0  0
 64 65  2  0  0  0  0
 64 66  1  0  0  0  0
 66164  1  0  0  0  0
 68 69  1  0  0  0  0
 68165  1  0  0  0  0
 68166  1  0  0  0  0
 69 70  2  0  0  0  0
 69 71  1  0  0  0  0
 71167  1  0  0  0  0
 71168  1  0  0  0  0
 73 76  1  0  0  0  0
 73169  1  0  0  0  0
 73170  1  0  0  0  0
 74 85  1  0  0  0  0
 74171  1  0  0  0  0
 74172  1  0  0  0  0
 76 80  1  0  0  0  0
 77 78  1  0  0  0  0
 77173  1  0  0  0  0
 78 76  2  0  0  0  0
 78174  1  0  0  0  0
 79 77  1  0  0  0  0
 79 80  2  0  0  0  0
 80 81  1  0  0  0  0
 81 82  2  0  0  0  0
 81175  1  0  0  0  0
 82 83  1  0  0  0  0
 82176  1  0  0  0  0
 83 84  2  0  0  0  0
 83177  1  0  0  0  0
 84 79  1  0  0  0  0
 84178  1  0  0  0  0
 85 86  1  0  0  0  0
 85179  1  0  0  0  0
 85180  1  0  0  0  0
 86 87  1  0  0  0  0
 86181  1  0  0  0  0
 86182  1  0  0  0  0
 87 88  1  0  0  0  0
 87183  1  0  0  0  0
 87184  1  0  0  0  0
 88 89  1  0  0  0  0
 88185  1  0  0  0  0
 88186  1  0  0  0  0
 89 90  1  0  0  0  0
 89187  1  0  0  0  0
 89188  1  0  0  0  0
 90 91  1  0  0  0  0
 90189  1  0  0  0  0
 90190  1  0  0  0  0
 91 92  1  0  0  0  0
 91191  1  0  0  0  0
 91192  1  0  0  0  0
 92193  1  0  0  0  0
 92194  1  0  0  0  0
 92195  1  0  0  0  0
 93 94  1  0  0  0  0
 93196  1  0  0  0  0
 93197  1  0  0  0  0
 94 95  1  0  0  0  0
 94 96  2  0  0  0  0
 95 97  2  0  0  0  0
 97 98  1  0  0  0  0
 97198  1  0  0  0  0
 98 99  2  0  0  0  0
 98199  1  0  0  0  0
 99100  1  0  0  0  0
 99200  1  0  0  0  0
100101  2  0  0  0  0
100201  1  0  0  0  0
101 95  1  0  0  0  0
101103  1  0  0  0  0
102111  1  0  0  0  0
102112  1  0  0  0  0
102202  1  1  0  0  0
103203  1  0  0  0  0
103204  1  0  0  0  0
105106  1  0  0  0  0
105205  1  0  0  0  0
105206  1  0  0  0  0
106107  1  0  0  0  0
106108  2  0  0  0  0
107207  1  0  0  0  0
109110  1  0  0  0  0
109208  1  0  0  0  0
109209  1  0  0  0  0
110210  1  0  0  0  0
111113  1  0  0  0  0
111211  1  0  0  0  0
111212  1  0  0  0  0
112213  1  0  0  0  0
112214  1  0  0  0  0
112215  1  0  0  0  0
113114  2  0  0  0  0
113115  1  0  0  0  0
115216  1  0  0  0  0
M  END
>  <DRUGBANK_ID>
DB00080

>  <SECONDARY_ACCESSION_NUMBERS>
BTD00111; BIOD00111

>  <COMMON_NAME>
Daptomycin

>  <CAS_NUMBER>
103060-53-3

>  <UNII>
NWQ5N31VKK

>  <SYNONYMS>
Daptomicina; Daptomycin; Daptomycine; Daptomycinum

$$$$
