906
 OpenBabel10282417113D

 50 52  0  0  1  0  0  0  0  0999 V2000
   -1.2777   -0.4379   -0.0075 S   0  0  0  0  0  0  0  0  0  0  0  0
    2.7306   -3.8770   -1.2837 S   0  0  0  0  0  0  0  0  0  0  0  0
   -3.7797   -3.8982    3.1530 O   0  0  0  0  0  0  0  0  0  0  0  0
   -5.8572   -3.3633    2.4696 O   0  0  0  0  0  0  0  0  0  0  0  0
   -2.3458   -5.4157    1.2472 N   0  0  0  0  0  0  0  0  0  0  0  0
   -4.2583   -3.8777    0.7573 C   0  0  1  0  0  0  0  0  0  0  0  0
   -2.7906   -4.1449    0.6650 C   0  0  0  0  0  0  0  0  0  0  0  0
   -4.9677   -4.9949    0.0034 C   0  0  0  0  0  0  0  0  0  0  0  0
   -4.5063   -6.3596    0.5198 C   0  0  0  0  0  0  0  0  0  0  0  0
   -2.9807   -6.5131    0.4918 C   0  0  0  0  0  0  0  0  0  0  0  0
   -0.8719   -5.5281    1.1785 C   0  0  0  0  0  0  0  0  0  0  0  0
   -0.1919   -4.9318   -0.0783 C   0  0  0  0  0  0  0  0  0  0  0  0
   -4.7031   -3.6962    2.1879 C   0  0  0  0  0  0  0  0  0  0  0  0
   -0.2681   -3.4130   -0.2274 C   0  0  0  0  0  0  0  0  0  0  0  0
    0.6931   -2.4895   -0.1050 C   0  0  0  0  0  0  0  0  0  0  0  0
    0.3613   -1.0574   -0.1003 C   0  0  0  0  0  0  0  0  0  0  0  0
    2.0042   -3.0316    0.0476 C   0  0  0  0  0  0  0  0  0  0  0  0
    1.2365    0.0327   -0.1064 C   0  0  0  0  0  0  0  0  0  0  0  0
    2.8820   -2.8805    1.1101 C   0  0  0  0  0  0  0  0  0  0  0  0
    0.5744    1.2989   -0.0248 C   0  0  0  0  0  0  0  0  0  0  0  0
    4.1594   -3.4417    0.7892 C   0  0  0  0  0  0  0  0  0  0  0  0
    2.7202   -0.0228   -0.1686 C   0  0  0  0  0  0  0  0  0  0  0  0
    2.5987   -2.0547    2.3273 C   0  0  0  0  0  0  0  0  0  0  0  0
   -0.7892    1.1912   -0.0067 C   0  0  0  0  0  0  0  0  0  0  0  0
    4.1846   -4.0753   -0.4317 C   0  0  0  0  0  0  0  0  0  0  0  0
   -2.9507   -4.3336    2.8410 H   0  0  0  0  0  0  0  0  0  0  0  0
   -4.4307   -2.9197    0.2438 H   0  0  0  0  0  0  0  0  0  0  0  0
   -2.5928   -4.1654   -0.4120 H   0  0  0  0  0  0  0  0  0  0  0  0
   -2.2808   -3.3221    1.1794 H   0  0  0  0  0  0  0  0  0  0  0  0
   -6.0506   -4.8863    0.0869 H   0  0  0  0  0  0  0  0  0  0  0  0
   -4.7194   -4.9229   -1.0678 H   0  0  0  0  0  0  0  0  0  0  0  0
   -4.8562   -6.4795    1.5509 H   0  0  0  0  0  0  0  0  0  0  0  0
   -4.9611   -7.1517   -0.0813 H   0  0  0  0  0  0  0  0  0  0  0  0
   -2.7117   -7.4778    0.9373 H   0  0  0  0  0  0  0  0  0  0  0  0
   -2.6293   -6.5254   -0.5490 H   0  0  0  0  0  0  0  0  0  0  0  0
   -0.5850   -6.5883    1.2562 H   0  0  0  0  0  0  0  0  0  0  0  0
   -0.4463   -5.0632    2.0786 H   0  0  0  0  0  0  0  0  0  0  0  0
   -0.6163   -5.3818   -0.9816 H   0  0  0  0  0  0  0  0  0  0  0  0
    0.8359   -5.2883   -0.0221 H   0  0  0  0  0  0  0  0  0  0  0  0
   -1.2175   -2.9852   -0.4957 H   0  0  0  0  0  0  0  0  0  0  0  0
    1.1006    2.2451   -0.0013 H   0  0  0  0  0  0  0  0  0  0  0  0
    5.0346   -3.3428    1.4148 H   0  0  0  0  0  0  0  0  0  0  0  0
    3.0955    0.5315   -1.0244 H   0  0  0  0  0  0  0  0  0  0  0  0
    3.1438    0.3647    0.7616 H   0  0  0  0  0  0  0  0  0  0  0  0
    3.1101   -1.0143   -0.3231 H   0  0  0  0  0  0  0  0  0  0  0  0
    2.7404   -2.6277    3.2423 H   0  0  0  0  0  0  0  0  0  0  0  0
    3.2787   -1.1969    2.3442 H   0  0  0  0  0  0  0  0  0  0  0  0
    1.5792   -1.6538    2.3354 H   0  0  0  0  0  0  0  0  0  0  0  0
   -1.5054    2.0037    0.0182 H   0  0  0  0  0  0  0  0  0  0  0  0
    5.0093   -4.5888   -0.9023 H   0  0  0  0  0  0  0  0  0  0  0  0
  1 16  1  0  0  0  0
  1 24  1  0  0  0  0
  2 17  1  0  0  0  0
  2 25  1  0  0  0  0
  3 13  1  0  0  0  0
  3 26  1  0  0  0  0
  4 13  2  0  0  0  0
  5  7  1  0  0  0  0
  5 10  1  0  0  0  0
  5 11  1  0  0  0  0
  6  7  1  0  0  0  0
  6  8  1  0  0  0  0
  6 27  1  6  0  0  0
  6 13  1  0  0  0  0
  7 28  1  0  0  0  0
  7 29  1  0  0  0  0
  8  9  1  0  0  0  0
  8 30  1  0  0  0  0
  8 31  1  0  0  0  0
  9 10  1  0  0  0  0
  9 32  1  0  0  0  0
  9 33  1  0  0  0  0
 10 34  1  0  0  0  0
 10 35  1  0  0  0  0
 11 12  1  0  0  0  0
 11 36  1  0  0  0  0
 11 37  1  0  0  0  0
 12 14  1  0  0  0  0
 12 38  1  0  0  0  0
 12 39  1  0  0  0  0
 14 15  2  0  0  0  0
 14 40  1  0  0  0  0
 15 16  1  0  0  0  0
 15 17  1  0  0  0  0
 16 18  2  0  0  0  0
 17 19  2  0  0  0  0
 18 20  1  0  0  0  0
 18 22  1  0  0  0  0
 19 21  1  0  0  0  0
 19 23  1  0  0  0  0
 20 24  2  0  0  0  0
 20 41  1  0  0  0  0
 21 25  2  0  0  0  0
 21 42  1  0  0  0  0
 22 43  1  0  0  0  0
 22 44  1  0  0  0  0
 22 45  1  0  0  0  0
 23 46  1  0  0  0  0
 23 47  1  0  0  0  0
 23 48  1  0  0  0  0
 24 49  1  0  0  0  0
 25 50  1  0  0  0  0
M  END
>  <DRUGBANK_ID>
DB00906

>  <SECONDARY_ACCESSION_NUMBERS>
APRD00344

>  <COMMON_NAME>
Tiagabine

>  <CAS_NUMBER>
115103-54-3

>  <UNII>
Z80I64HMNP

>  <SYNONYMS>
Tiagabina; Tiagabine; Tiagabinum

$$$$
