SNX
 OpenBabel10282417173D

 51 54  0  0  0  0  0  0  0  0999 V2000
    1.1365   -0.1084   -0.2906 O   0  0  0  0  0  0  0  0  0  0  0  0
    2.3639   -0.1447   -0.2977 C   0  0  0  0  0  0  0  0  0  0  0  0
    3.0290    0.7107    0.5649 N   0  0  0  0  0  0  0  0  0  0  0  0
    3.1904   -1.0932   -1.2411 C   0  0  0  0  0  0  0  0  0  0  0  0
    2.8239   -1.2330   -2.5949 C   0  0  0  0  0  0  0  0  0  0  0  0
    3.5416   -2.0468   -3.6453 C   0  0  0  0  0  0  0  0  0  0  0  0
    4.2708   -1.9162   -0.8476 C   0  0  0  0  0  0  0  0  0  0  0  0
    4.5218   -1.8738    0.5503 N   0  0  0  0  0  0  0  0  0  0  0  0
    5.3986   -2.6311    1.4455 C   0  0  0  0  0  0  0  0  0  0  0  0
    6.2590   -1.6927    2.3435 C   0  0  0  0  0  0  0  0  0  0  0  0
    5.5960   -1.0929    3.4734 O   0  0  0  0  0  0  0  0  0  0  0  0
    4.5989   -0.1535    3.1148 C   0  0  0  0  0  0  0  0  0  0  0  0
    5.0810   -2.6932   -1.9789 C   0  0  0  0  0  0  0  0  0  0  0  0
    4.7422   -2.7830   -3.4678 C   0  0  0  0  0  0  0  0  0  0  0  0
    5.4515   -3.5926   -4.8353 N   0  0  0  0  0  0  0  0  0  0  0  0
    4.8280   -3.7828   -6.3513 C   0  0  0  0  0  0  0  0  0  0  0  0
    4.3076   -4.1028   -7.8103 C   0  0  0  0  0  0  0  0  0  0  0  0
    4.0310   -5.2837   -8.7207 C   0  0  0  0  0  0  0  0  0  0  0  0
    4.1939   -6.5321   -8.2553 C   0  0  0  0  0  0  0  0  0  0  0  0
    4.7260   -6.4815   -7.0033 C   0  0  0  0  0  0  0  0  0  0  0  0
    6.7475   -4.3452   -4.9965 C   0  0  0  0  0  0  0  0  0  0  0  0
    8.2984   -4.9157   -4.5867 C   0  0  0  0  0  0  0  0  0  0  0  0
    8.5743   -6.1740   -5.6067 C   0  0  0  0  0  0  0  0  0  0  0  0
    7.4349   -7.1923   -5.5473 C   0  0  0  0  0  0  0  0  0  0  0  0
    6.4451   -6.6565   -4.5202 C   0  0  0  0  0  0  0  0  0  0  0  0
    6.4403   -6.8751   -3.3645 O   0  0  0  0  0  0  0  0  0  0  0  0
    5.8978   -5.4403   -5.0427 C   0  0  0  0  0  0  0  0  0  0  0  0
    5.0753   -5.3045   -6.1467 C   0  0  0  0  0  0  0  0  0  0  0  0
    4.0323    0.8195    0.5647 H   0  0  0  0  0  0  0  0  0  0  0  0
    2.4940    1.3431    1.1627 H   0  0  0  0  0  0  0  0  0  0  0  0
    1.9287   -0.6761   -2.8896 H   0  0  0  0  0  0  0  0  0  0  0  0
    3.0634   -2.0223   -4.6190 H   0  0  0  0  0  0  0  0  0  0  0  0
    3.6565   -1.6564    1.0680 H   0  0  0  0  0  0  0  0  0  0  0  0
    4.7917   -3.2589    2.1182 H   0  0  0  0  0  0  0  0  0  0  0  0
    6.0469   -3.2699    0.8544 H   0  0  0  0  0  0  0  0  0  0  0  0
    7.0581   -2.2965    2.7893 H   0  0  0  0  0  0  0  0  0  0  0  0
    6.7381   -0.9101    1.7463 H   0  0  0  0  0  0  0  0  0  0  0  0
    4.9867    0.5460    2.3703 H   0  0  0  0  0  0  0  0  0  0  0  0
    3.7195   -0.6907    2.7632 H   0  0  0  0  0  0  0  0  0  0  0  0
    4.2697    0.4230    3.9843 H   0  0  0  0  0  0  0  0  0  0  0  0
    5.9499   -3.2105   -1.5705 H   0  0  0  0  0  0  0  0  0  0  0  0
    4.0721   -3.2102   -8.4237 H   0  0  0  0  0  0  0  0  0  0  0  0
    3.6666   -5.2131   -9.7585 H   0  0  0  0  0  0  0  0  0  0  0  0
    4.0174   -7.4695   -8.7901 H   0  0  0  0  0  0  0  0  0  0  0  0
    5.0530   -7.4654   -6.6567 H   0  0  0  0  0  0  0  0  0  0  0  0
    9.2249   -4.3364   -4.7163 H   0  0  0  0  0  0  0  0  0  0  0  0
    8.3224   -5.3304   -3.5649 H   0  0  0  0  0  0  0  0  0  0  0  0
    9.5118   -6.7521   -5.5444 H   0  0  0  0  0  0  0  0  0  0  0  0
    8.6339   -5.7184   -6.6100 H   0  0  0  0  0  0  0  0  0  0  0  0
    7.6569   -8.2108   -5.2473 H   0  0  0  0  0  0  0  0  0  0  0  0
    7.0451   -7.2333   -6.5674 H   0  0  0  0  0  0  0  0  0  0  0  0
  1  2  2  0  0  0  0
  2  3  1  0  0  0  0
  2  4  1  0  0  0  0
  3 29  1  0  0  0  0
  3 30  1  0  0  0  0
  4  5  2  0  0  0  0
  4  7  1  0  0  0  0
  5  6  1  0  0  0  0
  5 31  1  0  0  0  0
  6 14  2  0  0  0  0
  6 32  1  0  0  0  0
  7  8  1  0  0  0  0
  7 13  2  0  0  0  0
  8  9  1  0  0  0  0
  8 33  1  0  0  0  0
  9 10  1  0  0  0  0
  9 34  1  0  0  0  0
  9 35  1  0  0  0  0
 10 11  1  0  0  0  0
 10 36  1  0  0  0  0
 10 37  1  0  0  0  0
 11 12  1  0  0  0  0
 12 38  1  0  0  0  0
 12 39  1  0  0  0  0
 12 40  1  0  0  0  0
 13 14  1  0  0  0  0
 13 41  1  0  0  0  0
 14 15  1  0  0  0  0
 15 16  1  0  0  0  0
 15 21  1  0  0  0  0
 16 17  2  0  0  0  0
 16 28  1  0  0  0  0
 17 18  1  0  0  0  0
 17 42  1  0  0  0  0
 18 19  2  0  0  0  0
 18 43  1  0  0  0  0
 19 20  1  0  0  0  0
 19 44  1  0  0  0  0
 20 28  2  0  0  0  0
 20 45  1  0  0  0  0
 21 22  1  0  0  0  0
 21 27  2  0  0  0  0
 22 23  1  0  0  0  0
 22 46  1  0  0  0  0
 22 47  1  0  0  0  0
 23 24  1  0  0  0  0
 23 48  1  0  0  0  0
 23 49  1  0  0  0  0
 24 25  1  0  0  0  0
 24 50  1  0  0  0  0
 24 51  1  0  0  0  0
 25 26  2  0  0  0  0
 25 27  1  0  0  0  0
 27 28  1  0  0  0  0
M  END
>  <DRUGBANK_ID>
DB08557

>  <COMMON_NAME>
2-[(2-methoxyethyl)amino]-4-(4-oxo-1,2,3,4-tetrahydro-9H-carbazol-9-yl)benzamide

$$$$
