
 OpenBabel10282417113D

 59 62  0  0  0  0  0  0  0  0999 V2000
    1.0598    1.4960   -1.2134 C   0  0  0  0  0  0  0  0  0  0  0  0
    0.4499    2.3221   -2.8187 C   0  0  0  0  0  0  0  0  0  0  0  0
   -0.1973    1.2456   -1.3557 C   0  0  0  0  0  0  0  0  0  0  0  0
    1.0474    0.3763   -2.4835 C   0  0  1  0  0  0  0  0  0  0  0  0
   -0.0364    0.1855   -3.4596 C   0  0  0  0  0  0  0  0  0  0  0  0
   -1.0924   -0.8527   -3.2189 C   0  0  0  0  0  0  0  0  0  0  0  0
   -0.3351   -2.1359   -3.0720 C   0  0  0  0  0  0  0  0  0  0  0  0
    1.7835   -0.9121   -2.2570 C   0  0  2  0  0  0  0  0  0  0  0  0
    0.7541   -1.9888   -1.9854 C   0  0  2  0  0  0  0  0  0  0  0  0
    3.7320   -2.1656   -1.1297 C   0  0  0  0  0  0  0  0  0  0  0  0
    3.0085   -0.8913   -1.2656 C   0  0  0  0  0  0  0  0  0  0  0  0
    2.6443   -3.2136   -0.8621 C   0  0  1  0  0  0  0  0  0  0  0  0
    1.5144   -3.2483   -1.8992 C   0  0  1  0  0  0  0  0  0  0  0  0
    2.2122   -3.5639   -3.2188 C   0  0  0  0  0  0  0  0  0  0  0  0
    3.0360   -4.7332   -2.8216 C   0  0  0  0  0  0  0  0  0  0  0  0
    3.2185   -4.5878   -1.2442 C   0  0  2  0  0  0  0  0  0  0  0  0
    0.7858    3.4515   -3.3228 O   0  0  0  0  0  0  0  0  0  0  0  0
   -0.2795    1.4007   -3.9394 C   0  0  0  0  0  0  0  0  0  0  0  0
    2.5784    1.4176   -2.8880 C   0  0  0  0  0  0  0  0  0  0  0  0
    2.2732   -1.0631   -3.2328 H   0  0  0  0  0  0  0  0  0  0  0  0
    3.4523    0.0620   -0.6277 O   0  0  0  0  0  0  0  0  0  0  0  0
    0.2484   -1.8012   -1.0325 H   0  0  0  0  0  0  0  0  0  0  0  0
    2.0757   -2.8799    0.5638 C   0  0  0  0  0  0  0  0  0  0  0  0
    0.8034   -4.0450   -1.6407 H   0  0  0  0  0  0  0  0  0  0  0  0
    2.4286   -5.6808   -0.4667 C   0  0  0  0  0  0  0  0  0  0  0  0
    2.2377   -6.9813   -1.1913 C   0  0  0  0  0  0  0  0  0  0  0  0
    2.0510   -5.5746    0.6995 O   0  0  0  0  0  0  0  0  0  0  0  0
    2.5932   -8.1166   -0.4072 O   0  0  0  0  0  0  0  0  0  0  0  0
    3.8406   -8.3335    0.0894 C   0  0  0  0  0  0  0  0  0  0  0  0
    4.9100   -7.3027   -0.0856 C   0  0  0  0  0  0  0  0  0  0  0  0
    4.0999   -9.3865    0.6611 O   0  0  0  0  0  0  0  0  0  0  0  0
    4.6216   -4.5486   -1.0344 O   0  0  0  0  0  0  0  0  0  0  0  0
    0.9820    0.4481   -0.6303 H   0  0  0  0  0  0  0  0  0  0  0  0
    1.7306    1.9192   -0.4113 H   0  0  0  0  0  0  0  0  0  0  0  0
   -0.8907    0.6048   -0.7447 H   0  0  0  0  0  0  0  0  0  0  0  0
   -0.2494    2.2196   -0.7768 H   0  0  0  0  0  0  0  0  0  0  0  0
   -1.8561   -0.8932   -3.9948 H   0  0  0  0  0  0  0  0  0  0  0  0
   -1.6267   -0.6613   -2.2719 H   0  0  0  0  0  0  0  0  0  0  0  0
    0.0981   -2.3403   -4.0551 H   0  0  0  0  0  0  0  0  0  0  0  0
   -1.0082   -2.9633   -2.8207 H   0  0  0  0  0  0  0  0  0  0  0  0
    4.4495   -2.0879   -0.2978 H   0  0  0  0  0  0  0  0  0  0  0  0
    4.3235   -2.3169   -2.0388 H   0  0  0  0  0  0  0  0  0  0  0  0
    1.5164   -3.7851   -4.0282 H   0  0  0  0  0  0  0  0  0  0  0  0
    2.8963   -2.7984   -3.5962 H   0  0  0  0  0  0  0  0  0  0  0  0
    3.9819   -4.7459   -3.3743 H   0  0  0  0  0  0  0  0  0  0  0  0
    2.4486   -5.5706   -3.2039 H   0  0  0  0  0  0  0  0  0  0  0  0
   -1.0472    1.6320   -4.6525 H   0  0  0  0  0  0  0  0  0  0  0  0
    2.4991    2.4879   -2.5992 H   0  0  0  0  0  0  0  0  0  0  0  0
    3.4412    1.2887   -2.2238 H   0  0  0  0  0  0  0  0  0  0  0  0
    2.8782    1.3330   -3.9224 H   0  0  0  0  0  0  0  0  0  0  0  0
    1.6232   -1.8761    0.6018 H   0  0  0  0  0  0  0  0  0  0  0  0
    1.2530   -3.5259    0.8744 H   0  0  0  0  0  0  0  0  0  0  0  0
    2.8476   -2.8700    1.3415 H   0  0  0  0  0  0  0  0  0  0  0  0
    1.1794   -7.0144   -1.4844 H   0  0  0  0  0  0  0  0  0  0  0  0
    2.8423   -7.0156   -2.0926 H   0  0  0  0  0  0  0  0  0  0  0  0
    5.2176   -6.8468    0.8593 H   0  0  0  0  0  0  0  0  0  0  0  0
    5.7616   -7.6574   -0.6667 H   0  0  0  0  0  0  0  0  0  0  0  0
    4.5169   -6.5389   -0.6990 H   0  0  0  0  0  0  0  0  0  0  0  0
    5.0527   -5.0959   -1.7158 H   0  0  0  0  0  0  0  0  0  0  0  0
  1  2  1  0  0  0  0
  1  3  1  0  0  0  0
  1 33  1  0  0  0  0
  1 34  1  0  0  0  0
  2 17  2  0  0  0  0
  2 18  1  0  0  0  0
  3 35  1  0  0  0  0
  3 36  1  0  0  0  0
  4  3  1  0  0  0  0
  4 19  1  1  0  0  0
  4  5  1  0  0  0  0
  4  8  1  0  0  0  0
  5 18  2  0  0  0  0
  5  6  1  0  0  0  0
  6  7  1  0  0  0  0
  6 37  1  0  0  0  0
  6 38  1  0  0  0  0
  7  9  1  0  0  0  0
  7 39  1  0  0  0  0
  7 40  1  0  0  0  0
  8  9  1  0  0  0  0
  8 20  1  6  0  0  0
  8 11  1  0  0  0  0
  9 22  1  1  0  0  0
  9 13  1  0  0  0  0
 10 11  1  0  0  0  0
 10 41  1  0  0  0  0
 10 42  1  0  0  0  0
 11 21  2  0  0  0  0
 12 23  1  1  0  0  0
 12 10  1  0  0  0  0
 12 13  1  0  0  0  0
 13 14  1  0  0  0  0
 13 24  1  6  0  0  0
 14 15  1  0  0  0  0
 14 43  1  0  0  0  0
 14 44  1  0  0  0  0
 15 16  1  0  0  0  0
 15 45  1  0  0  0  0
 15 46  1  0  0  0  0
 16 12  1  0  0  0  0
 16 25  1  1  0  0  0
 16 32  1  0  0  0  0
 18 47  1  0  0  0  0
 19 48  1  0  0  0  0
 19 49  1  0  0  0  0
 19 50  1  0  0  0  0
 23 51  1  0  0  0  0
 23 52  1  0  0  0  0
 23 53  1  0  0  0  0
 25 26  1  0  0  0  0
 25 27  2  0  0  0  0
 26 28  1  0  0  0  0
 26 54  1  0  0  0  0
 26 55  1  0  0  0  0
 28 29  1  0  0  0  0
 29 30  1  0  0  0  0
 29 31  2  0  0  0  0
 30 56  1  0  0  0  0
 30 57  1  0  0  0  0
 30 58  1  0  0  0  0
 32 59  1  0  0  0  0
M  END
>  <DRUGBANK_ID>
DB01380

>  <COMMON_NAME>
Cortisone acetate

>  <CAS_NUMBER>
50-04-4

>  <UNII>
883WKN7W8X

>  <SYNONYMS>
Cortisone 21-acetate; Cortisone acetate; Cortone acetate

$$$$
