
 OpenBabel10282417173D

 43 45  0  0  0  0  0  0  0  0999 V2000
   -1.5577    0.1554    0.0051 N   0  0  0  0  0  0  0  0  0  0  0  0
   -1.3123   -1.0328   -0.8042 C   0  0  0  0  0  0  0  0  0  0  0  0
    0.1685   -0.9982   -1.1560 C   0  0  0  0  0  0  0  0  0  0  0  0
    0.8203    0.2397   -1.6549 N   0  0  0  0  0  0  0  0  0  0  0  0
    0.4707    1.3690   -0.7682 C   0  0  0  0  0  0  0  0  0  0  0  0
   -1.0654    1.4162   -0.6118 C   0  0  0  0  0  0  0  0  0  0  0  0
   -2.6367    0.1299    0.8940 C   0  0  0  0  0  0  0  0  0  0  0  0
   -2.6401   -0.5750    2.1252 C   0  0  0  0  0  0  0  0  0  0  0  0
   -3.7603   -0.3675    2.9956 C   0  0  0  0  0  0  0  0  0  0  0  0
   -4.8389    0.4434    2.6332 C   0  0  0  0  0  0  0  0  0  0  0  0
   -4.8600    1.0648    1.4070 C   0  0  0  0  0  0  0  0  0  0  0  0
   -3.7631    0.8959    0.5384 C   0  0  0  0  0  0  0  0  0  0  0  0
   -1.4583   -1.7831    2.8343 S   0  0  0  0  0  0  0  0  0  0  0  0
    0.1922   -1.6906    2.1119 C   0  0  0  0  0  0  0  0  0  0  0  0
    0.9899   -0.5252    2.0384 C   0  0  0  0  0  0  0  0  0  0  0  0
    2.2175   -0.6017    1.2256 C   0  0  0  0  0  0  0  0  0  0  0  0
    2.5771   -1.7718    0.4472 C   0  0  0  0  0  0  0  0  0  0  0  0
    1.8317   -2.9388    0.6788 C   0  0  0  0  0  0  0  0  0  0  0  0
    0.6686   -2.8878    1.4914 C   0  0  0  0  0  0  0  0  0  0  0  0
    3.3367   -1.7035   -0.9043 C   0  0  0  0  0  0  0  0  0  0  0  0
    0.3671    0.8061    2.5094 C   0  0  0  0  0  0  0  0  0  0  0  0
   -1.5350   -1.9476   -0.2344 H   0  0  0  0  0  0  0  0  0  0  0  0
   -1.8827   -1.0636   -1.7311 H   0  0  0  0  0  0  0  0  0  0  0  0
    0.5440   -1.0898   -0.1784 H   0  0  0  0  0  0  0  0  0  0  0  0
    0.4930   -1.8979   -1.6792 H   0  0  0  0  0  0  0  0  0  0  0  0
    1.8268    0.1201   -1.5723 H   0  0  0  0  0  0  0  0  0  0  0  0
    0.9969    1.3049    0.1826 H   0  0  0  0  0  0  0  0  0  0  0  0
    0.8819    2.3001   -1.1679 H   0  0  0  0  0  0  0  0  0  0  0  0
   -1.4553    1.5102   -1.6299 H   0  0  0  0  0  0  0  0  0  0  0  0
   -1.3567    2.3044   -0.0426 H   0  0  0  0  0  0  0  0  0  0  0  0
   -3.7914   -0.8351    3.9762 H   0  0  0  0  0  0  0  0  0  0  0  0
   -5.6842    0.5753    3.3197 H   0  0  0  0  0  0  0  0  0  0  0  0
   -5.6920    1.6870    1.1007 H   0  0  0  0  0  0  0  0  0  0  0  0
   -3.8130    1.3629   -0.4366 H   0  0  0  0  0  0  0  0  0  0  0  0
    2.7344    0.3266    0.9724 H   0  0  0  0  0  0  0  0  0  0  0  0
    1.9839   -3.8173    0.0463 H   0  0  0  0  0  0  0  0  0  0  0  0
    0.0165   -3.7621    1.4696 H   0  0  0  0  0  0  0  0  0  0  0  0
    4.2423   -2.3122   -0.9580 H   0  0  0  0  0  0  0  0  0  0  0  0
    2.6901   -2.0770   -1.7236 H   0  0  0  0  0  0  0  0  0  0  0  0
    3.5955   -0.6820   -1.2087 H   0  0  0  0  0  0  0  0  0  0  0  0
    1.0628    1.4812    3.0029 H   0  0  0  0  0  0  0  0  0  0  0  0
   -0.0984    1.3827    1.7096 H   0  0  0  0  0  0  0  0  0  0  0  0
   -0.4838    0.6753    3.1863 H   0  0  0  0  0  0  0  0  0  0  0  0
  1  2  1  0  0  0  0
  1  6  1  0  0  0  0
  1  7  1  0  0  0  0
  2  3  1  0  0  0  0
  2 22  1  0  0  0  0
  2 23  1  0  0  0  0
  3  4  1  0  0  0  0
  3 24  1  0  0  0  0
  3 25  1  0  0  0  0
  4  5  1  0  0  0  0
  4 26  1  0  0  0  0
  5  6  1  0  0  0  0
  5 27  1  0  0  0  0
  5 28  1  0  0  0  0
  6 29  1  0  0  0  0
  6 30  1  0  0  0  0
  7  8  1  0  0  0  0
  7 12  2  0  0  0  0
  8  9  2  0  0  0  0
  8 13  1  0  0  0  0
  9 10  1  0  0  0  0
  9 31  1  0  0  0  0
 10 11  2  0  0  0  0
 10 32  1  0  0  0  0
 11 12  1  0  0  0  0
 11 33  1  0  0  0  0
 12 34  1  0  0  0  0
 13 14  1  0  0  0  0
 14 15  1  0  0  0  0
 14 19  2  0  0  0  0
 15 16  2  0  0  0  0
 15 21  1  0  0  0  0
 16 17  1  0  0  0  0
 16 35  1  0  0  0  0
 17 18  2  0  0  0  0
 17 20  1  0  0  0  0
 18 19  1  0  0  0  0
 18 36  1  0  0  0  0
 19 37  1  0  0  0  0
 20 38  1  0  0  0  0
 20 39  1  0  0  0  0
 20 40  1  0  0  0  0
 21 41  1  0  0  0  0
 21 42  1  0  0  0  0
 21 43  1  0  0  0  0
M  END
>  <DRUGBANK_ID>
DB09068

>  <SECONDARY_ACCESSION_NUMBERS>
DB05700

>  <COMMON_NAME>
Vortioxetine

>  <CAS_NUMBER>
508233-74-7

>  <UNII>
3O2K1S3WQV

>  <SYNONYMS>
Vortioxetina; Vortioxetine; Vortiox√©tine; vortioxetinum

$$$$
