
 OpenBabel10282417213D

 31 32  0  0  0  0  0  0  0  0999 V2000
    1.0468   -0.0544   -0.0307 C   0  0  0  0  0  0  0  0  0  0  0  0
    0.5718   -5.2069    7.8568 C   0  0  0  0  0  0  0  0  0  0  0  0
   -0.1544   -4.2878    9.9566 C   0  0  0  0  0  0  0  0  0  0  0  0
    0.6588   -3.9221    7.3133 C   0  0  0  0  0  0  0  0  0  0  0  0
   -0.0700   -2.9924    9.4258 C   0  0  0  0  0  0  0  0  0  0  0  0
    2.4728   -0.8683    3.9567 C   0  0  0  0  0  0  0  0  0  0  0  0
    2.2016   -0.4396    2.6434 C   0  0  0  0  0  0  0  0  0  0  0  0
    0.1640   -5.4051    9.1784 C   0  0  0  0  0  0  0  0  0  0  0  0
    0.3471   -2.8148    8.1024 C   0  0  0  0  0  0  0  0  0  0  0  0
    1.4660   -0.8253    4.9135 C   0  0  0  0  0  0  0  0  0  0  0  0
    0.9277   -0.0031    2.3298 C   0  0  0  0  0  0  0  0  0  0  0  0
    0.1635   -6.6756    9.7257 N   0  0  0  0  0  0  0  0  0  0  0  0
    0.2363   -0.4538    4.5511 N   0  0  0  0  0  0  0  0  0  0  0  0
   -0.0320   -0.0054    3.2669 N   0  0  0  0  0  0  0  0  0  0  0  0
    1.6632   -1.4053    6.2013 N   0  0  0  0  0  0  0  0  0  0  0  0
    1.1817   -0.3831    8.4613 O   0  0  0  0  0  0  0  0  0  0  0  0
   -0.7952   -0.8170    6.9457 O   0  0  0  0  0  0  0  0  0  0  0  0
    0.5579    0.5674    1.1484 O   0  0  0  0  0  0  0  0  0  0  0  0
    0.5207   -1.1611    7.4379 S   0  0  0  0  0  0  0  0  0  0  0  0
    0.6626    0.5147   -0.8850 H   0  0  0  0  0  0  0  0  0  0  0  0
    0.6766   -1.0807   -0.1203 H   0  0  0  0  0  0  0  0  0  0  0  0
    2.1379   -0.0240   -0.0913 H   0  0  0  0  0  0  0  0  0  0  0  0
    0.8226   -6.0593    7.2315 H   0  0  0  0  0  0  0  0  0  0  0  0
   -0.4734   -4.4197   10.9882 H   0  0  0  0  0  0  0  0  0  0  0  0
    0.9634   -3.8062    6.2780 H   0  0  0  0  0  0  0  0  0  0  0  0
   -0.3360   -2.1402   10.0476 H   0  0  0  0  0  0  0  0  0  0  0  0
    3.4690   -1.2246    4.1981 H   0  0  0  0  0  0  0  0  0  0  0  0
    2.9975   -0.4231    1.9084 H   0  0  0  0  0  0  0  0  0  0  0  0
   -0.1973   -6.8336   10.6570 H   0  0  0  0  0  0  0  0  0  0  0  0
    0.3325   -7.4839    9.1418 H   0  0  0  0  0  0  0  0  0  0  0  0
    2.6163   -1.3665    6.5599 H   0  0  0  0  0  0  0  0  0  0  0  0
  1 20  1  0  0  0  0
  1 21  1  0  0  0  0
  1 22  1  0  0  0  0
  2 23  1  0  0  0  0
  3 24  1  0  0  0  0
  4  2  1  0  0  0  0
  4 25  1  0  0  0  0
  5  3  2  0  0  0  0
  5 26  1  0  0  0  0
  6 27  1  0  0  0  0
  7  6  2  0  0  0  0
  7 28  1  0  0  0  0
  8  2  2  0  0  0  0
  8  3  1  0  0  0  0
  9  4  2  0  0  0  0
  9  5  1  0  0  0  0
 10  6  1  0  0  0  0
 11  7  1  0  0  0  0
 12  8  1  0  0  0  0
 12 29  1  0  0  0  0
 12 30  1  0  0  0  0
 13 10  2  0  0  0  0
 14 11  2  0  0  0  0
 14 13  1  0  0  0  0
 15 10  1  0  0  0  0
 15 31  1  0  0  0  0
 18  1  1  0  0  0  0
 18 11  1  0  0  0  0
 19  9  1  0  0  0  0
 19 15  1  0  0  0  0
 19 16  2  0  0  0  0
 19 17  2  0  0  0  0
M  END
>  <DRUGBANK_ID>
DB13773

>  <COMMON_NAME>
Sulfamethoxypyridazine

>  <CAS_NUMBER>
80-35-3

>  <UNII>
T034E4NS2Z

>  <SYNONYMS>
Sulfamethoxypyridazine; sulfametoxipiridazina

$$$$
