
 OpenBabel10282417153D

  7  0  0  0  0  0  0  0  0  0999 V2000
    0.9325   -0.0153    0.0722 Fe  0  2  0  0  0  0  0  0  0  0  0  0
    1.0844   -0.0283    0.0456 Fe  0  1  0  0  0  0  0  0  0  0  0  0
    0.9114   -0.0039   -0.0462 Fe  0  1  0  0  0  0  0  0  0  0  0  0
    0.9166   -0.0106    0.0541 O   0  6  0  0  0  0  0  0  0  0  0  0
    0.9704    0.0431    0.0852 O   0  6  0  0  0  0  0  0  0  0  0  0
    0.9934    0.0784   -0.0617 O   0  6  0  0  0  0  0  0  0  0  0  0
    0.9634    0.0925   -0.0100 O   0  6  0  0  0  0  0  0  0  0  0  0
M  CHG  7   1   2   2   3   3   3   4  -2   5  -2   6  -2   7  -2
M  END
>  <DRUGBANK_ID>
DB06215

>  <COMMON_NAME>
Ferumoxytol

>  <CAS_NUMBER>
722492-56-0

>  <UNII>
G6N3J05W84

>  <SYNONYMS>
Ferumoxytol; Ferumoxytol non-stoichiometric magnetite

$$$$
