
 OpenBabel10282417193D

212212  0  0  1  0  0  0  0  0999 V2000
   -1.0474    5.7400   -0.2866 C   0  0  0  0  0  0  0  0  0  0  0  0
   -4.0716    3.3822    1.3450 C   0  0  0  0  0  0  0  0  0  0  0  0
   -7.2407    0.1912    3.1316 C   0  0  1  0  0  0  0  0  0  0  0  0
  -10.5301   -3.5432    4.4824 C   0  0  0  0  0  0  0  0  0  0  0  0
  -11.8693   -5.3753    5.2971 O   0  0  0  0  0  0  0  0  0  0  0  0
  -13.6640   -7.1149    5.7426 N   0  0  0  0  0  0  0  0  0  0  0  0
  -16.2882   -9.8724    7.3848 C   0  0  1  0  0  0  0  0  0  0  0  0
  -17.5421  -12.6848    8.9304 C   0  0  0  0  0  0  0  0  0  0  0  0
  -17.3121  -14.5380    9.4832 O   0  0  0  0  0  0  0  0  0  0  0  0
  -17.0283  -12.5001    9.2468 N   0  0  0  0  0  0  0  0  0  0  0  0
  -15.5867  -12.2475    8.8866 C   0  0  2  0  0  0  0  0  0  0  0  0
  -15.1724  -11.9087    7.3493 C   0  0  0  0  0  0  0  0  0  0  0  0
  -15.5650  -12.6489    6.4060 O   0  0  0  0  0  0  0  0  0  0  0  0
  -14.3787  -10.7394    7.1784 N   0  0  0  0  0  0  0  0  0  0  0  0
  -13.8913  -10.4129    5.8281 C   0  0  2  0  0  0  0  0  0  0  0  0
  -14.3793   -9.0944    5.3404 C   0  0  0  0  0  0  0  0  0  0  0  0
  -15.6613   -8.8259    5.3166 O   0  0  0  0  0  0  0  0  0  0  0  0
  -13.3322   -8.0996    4.9173 N   0  0  0  0  0  0  0  0  0  0  0  0
  -13.9619   -6.5846    4.5973 C   0  0  2  0  0  0  0  0  0  0  0  0
  -13.6137   -5.4138    5.7083 C   0  0  0  0  0  0  0  0  0  0  0  0
  -13.7444   -5.6737    6.9366 O   0  0  0  0  0  0  0  0  0  0  0  0
  -12.7238   -4.3462    5.2197 N   0  0  0  0  0  0  0  0  0  0  0  0
  -12.1006   -3.4764    6.1955 C   0  0  2  0  0  0  0  0  0  0  0  0
  -10.5559   -3.4725    6.2352 C   0  0  0  0  0  0  0  0  0  0  0  0
   -9.9353   -4.5336    6.4978 O   0  0  0  0  0  0  0  0  0  0  0  0
   -9.8391   -2.2639    5.8270 N   0  0  0  0  0  0  0  0  0  0  0  0
   -8.3691   -2.2604    5.8242 C   0  0  1  0  0  0  0  0  0  0  0  0
   -7.8588   -1.9296    4.4244 C   0  0  0  0  0  0  0  0  0  0  0  0
   -8.1697   -2.6711    3.4558 O   0  0  0  0  0  0  0  0  0  0  0  0
   -7.0157   -0.7808    4.2493 N   0  0  0  0  0  0  0  0  0  0  0  0
   -6.3908   -0.6900    2.7892 C   0  0  2  0  0  0  0  0  0  0  0  0
   -7.2510    1.0080    1.8944 C   0  0  0  0  0  0  0  0  0  0  0  0
   -8.3299    1.1893    2.3867 O   0  0  0  0  0  0  0  0  0  0  0  0
   -6.2010    1.9302    2.0207 N   0  0  0  0  0  0  0  0  0  0  0  0
   -6.5791    3.3600    1.7494 C   0  0  2  0  0  0  0  0  0  0  0  0
   -6.0687    4.4038    2.7471 C   0  0  0  0  0  0  0  0  0  0  0  0
   -6.3516    4.2687    3.9645 O   0  0  0  0  0  0  0  0  0  0  0  0
   -5.2306    5.5126    2.2704 N   0  0  0  0  0  0  0  0  0  0  0  0
   -4.7267    6.5062    3.2287 C   0  0  2  0  0  0  0  0  0  0  0  0
   -3.2236    6.5261    3.2706 C   0  0  0  0  0  0  0  0  0  0  0  0
   -2.5759    5.4570    3.5636 O   0  0  0  0  0  0  0  0  0  0  0  0
   -2.4779    7.7312    2.8738 N   0  0  0  0  0  0  0  0  0  0  0  0
   -1.0343    7.6703    2.9392 C   0  0  2  0  0  0  0  0  0  0  0  0
   -2.4959    5.7562    1.9486 C   0  0  0  0  0  0  0  0  0  0  0  0
   -0.9468    7.1823    0.7942 O   0  0  0  0  0  0  0  0  0  0  0  0
   -4.6285    3.3515    2.5912 N   0  0  0  0  0  0  0  0  0  0  0  0
   -0.4827    6.3556    3.2802 C   0  0  1  0  0  0  0  0  0  0  0  0
    1.0282    6.3546    3.2753 C   0  0  2  0  0  0  0  0  0  0  0  0
    1.5330    5.6779    4.5355 C   0  0  0  0  0  0  0  0  0  0  0  0
    1.5404    7.7836    3.2271 C   0  0  0  0  0  0  0  0  0  0  0  0
    3.0529    7.7891    3.2229 C   0  0  0  0  0  0  0  0  0  0  0  0
    3.7356    8.3400    2.1917 C   0  0  0  0  0  0  0  0  0  0  0  0
    5.2501    8.3421    2.1876 C   0  0  0  0  0  0  0  0  0  0  0  0
   -0.9611    6.0471    4.5825 O   0  0  0  0  0  0  0  0  0  0  0  0
   -3.2025    8.9477    2.5064 C   0  0  0  0  0  0  0  0  0  0  0  0
   -5.2298    6.1779    4.6228 C   0  0  0  0  0  0  0  0  0  0  0  0
   -4.7252    7.2100    5.6073 C   0  0  0  0  0  0  0  0  0  0  0  0
   -6.7509    6.1813    4.6259 C   0  0  0  0  0  0  0  0  0  0  0  0
   -4.8699    5.6135    0.8513 C   0  0  0  0  0  0  0  0  0  0  0  0
   -8.0851    3.3632    1.7536 C   0  0  0  0  0  0  0  0  0  0  0  0
   -8.5944    4.7284    1.3471 C   0  0  0  0  0  0  0  0  0  0  0  0
   -8.0877    5.0648   -0.0429 C   0  0  0  0  0  0  0  0  0  0  0  0
  -10.1106    4.7297    1.3489 C   0  0  0  0  0  0  0  0  0  0  0  0
   -4.5994    1.7161    2.2121 C   0  0  0  0  0  0  0  0  0  0  0  0
   -7.0289   -1.4658    1.8751 C   0  0  0  0  0  0  0  0  0  0  0  0
   -6.5239   -1.1268    0.4910 C   0  0  0  0  0  0  0  0  0  0  0  0
   -5.0067   -1.1237    0.4905 C   0  0  0  0  0  0  0  0  0  0  0  0
   -7.0309   -2.1609   -0.4937 C   0  0  0  0  0  0  0  0  0  0  0  0
   -6.6393    0.1355    5.3257 C   0  0  0  0  0  0  0  0  0  0  0  0
   -7.8973   -1.2623    6.8393 C   0  0  0  0  0  0  0  0  0  0  0  0
  -12.5954   -3.8133    7.5775 C   0  0  0  0  0  0  0  0  0  0  0  0
  -15.4580   -6.6267    4.7042 C   0  0  0  0  0  0  0  0  0  0  0  0
  -15.9622   -5.2622    4.3026 C   0  0  0  0  0  0  0  0  0  0  0  0
  -15.4546   -4.9258    2.9129 C   0  0  0  0  0  0  0  0  0  0  0  0
  -17.4778   -5.2610    4.3047 C   0  0  0  0  0  0  0  0  0  0  0  0
  -11.9941   -8.2244    5.1782 C   0  0  0  0  0  0  0  0  0  0  0  0
  -14.3938  -11.4476    4.8371 C   0  0  0  0  0  0  0  0  0  0  0  0
  -13.8929  -11.1150    3.4491 C   0  0  0  0  0  0  0  0  0  0  0  0
  -13.8851  -12.8227    5.2394 C   0  0  0  0  0  0  0  0  0  0  0  0
  -14.9668  -13.6340    9.2730 C   0  0  0  0  0  0  0  0  0  0  0  0
  -13.6834  -13.6281    9.1888 C   0  0  0  0  0  0  0  0  0  0  0  0
  -13.1993  -12.5900   10.1708 C   0  0  0  0  0  0  0  0  0  0  0  0
  -13.2002  -14.9997    9.5912 C   0  0  0  0  0  0  0  0  0  0  0  0
  -13.2253  -13.3159    7.8875 O   0  0  0  0  0  0  0  0  0  0  0  0
  -18.0232  -10.7257    8.8045 C   0  0  0  0  0  0  0  0  0  0  0  0
  -19.6863  -11.6379    8.4300 S   0  0  0  0  0  0  0  0  0  0  0  0
  -18.8351  -11.0264    7.4967 C   0  0  0  0  0  0  0  0  0  0  0  0
  -16.7883  -11.6245    8.1860 C   0  0  0  0  0  0  0  0  0  0  0  0
  -17.3427  -13.2150    7.6923 N   0  0  0  0  0  0  0  0  0  0  0  0
  -16.3116  -13.7164    8.3077 C   0  0  0  0  0  0  0  0  0  0  0  0
  -18.6713  -13.9626    8.4397 C   0  0  0  0  0  0  0  0  0  0  0  0
  -16.3580  -10.4219    6.1099 C   0  0  0  0  0  0  0  0  0  0  0  0
    0.9432    7.5217   -1.4731 H   0  0  0  0  0  0  0  0  0  0  0  0
    0.7631    6.8590   -1.9939 H   0  0  0  0  0  0  0  0  0  0  0  0
    1.3775    7.0104   -0.7884 H   0  0  0  0  0  0  0  0  0  0  0  0
   -2.5761    5.5647    0.2112 H   0  0  0  0  0  0  0  0  0  0  0  0
   -2.3521    5.4865    0.4107 H   0  0  0  0  0  0  0  0  0  0  0  0
   -5.6102    2.4086    2.6366 H   0  0  0  0  0  0  0  0  0  0  0  0
  -18.1593  -11.8855    8.6962 H   0  0  0  0  0  0  0  0  0  0  0  0
  -15.3706  -11.5140    9.4827 H   0  0  0  0  0  0  0  0  0  0  0  0
  -14.1349  -10.1366    7.9635 H   0  0  0  0  0  0  0  0  0  0  0  0
  -12.8225  -10.4136    5.8301 H   0  0  0  0  0  0  0  0  0  0  0  0
  -13.5741   -6.3993    3.7248 H   0  0  0  0  0  0  0  0  0  0  0  0
  -12.3504   -4.4181    4.2373 H   0  0  0  0  0  0  0  0  0  0  0  0
  -12.4492   -2.5132    5.8973 H   0  0  0  0  0  0  0  0  0  0  0  0
  -10.3463   -1.4158    5.5724 H   0  0  0  0  0  0  0  0  0  0  0  0
   -8.0089   -3.2317    6.1089 H   0  0  0  0  0  0  0  0  0  0  0  0
   -5.4470   -0.4253    2.8740 H   0  0  0  0  0  0  0  0  0  0  0  0
   -6.2113    3.5865    0.7735 H   0  0  0  0  0  0  0  0  0  0  0  0
   -5.0847    7.4727    2.9415 H   0  0  0  0  0  0  0  0  0  0  0  0
   -0.6474    8.4639    3.5649 H   0  0  0  0  0  0  0  0  0  0  0  0
   -2.9689    5.3988    2.3413 H   0  0  0  0  0  0  0  0  0  0  0  0
   -0.8386    5.6148    2.5820 H   0  0  0  0  0  0  0  0  0  0  0  0
    1.3845    5.8203    2.4146 H   0  0  0  0  0  0  0  0  0  0  0  0
    0.6631    5.1903    4.9239 H   0  0  0  0  0  0  0  0  0  0  0  0
    2.2990    4.9476    4.3630 H   0  0  0  0  0  0  0  0  0  0  0  0
    1.8838    6.3993    5.2488 H   0  0  0  0  0  0  0  0  0  0  0  0
    1.1784    8.2633    2.3360 H   0  0  0  0  0  0  0  0  0  0  0  0
    1.1782    8.3204    4.0856 H   0  0  0  0  0  0  0  0  0  0  0  0
    3.5894    7.3488    4.0451 H   0  0  0  0  0  0  0  0  0  0  0  0
    3.1991    8.7796    1.3696 H   0  0  0  0  0  0  0  0  0  0  0  0
    5.6115    7.8084    1.3297 H   0  0  0  0  0  0  0  0  0  0  0  0
    5.6115    9.3520    2.1552 H   0  0  0  0  0  0  0  0  0  0  0  0
    5.6122    7.8653    3.0790 H   0  0  0  0  0  0  0  0  0  0  0  0
   -0.6342    6.7227    5.2227 H   0  0  0  0  0  0  0  0  0  0  0  0
   -2.9453    9.7360    3.1857 H   0  0  0  0  0  0  0  0  0  0  0  0
   -2.9453    9.2393    1.5069 H   0  0  0  0  0  0  0  0  0  0  0  0
   -4.2561    8.7652    2.5600 H   0  0  0  0  0  0  0  0  0  0  0  0
   -4.8719    5.2043    4.9101 H   0  0  0  0  0  0  0  0  0  0  0  0
   -5.0815    8.1811    5.3220 H   0  0  0  0  0  0  0  0  0  0  0  0
   -5.0815    6.9756    6.5911 H   0  0  0  0  0  0  0  0  0  0  0  0
   -3.6525    7.2120    5.6091 H   0  0  0  0  0  0  0  0  0  0  0  0
   -7.1288    5.4681    3.9281 H   0  0  0  0  0  0  0  0  0  0  0  0
   -7.1091    5.9363    5.6043 H   0  0  0  0  0  0  0  0  0  0  0  0
   -7.1092    7.1418    4.3347 H   0  0  0  0  0  0  0  0  0  0  0  0
   -5.2232    6.5347    0.4583 H   0  0  0  0  0  0  0  0  0  0  0  0
   -3.8262    5.5961    0.7356 H   0  0  0  0  0  0  0  0  0  0  0  0
   -5.3001    4.7959    0.3097 H   0  0  0  0  0  0  0  0  0  0  0  0
   -8.4447    2.6248    1.0573 H   0  0  0  0  0  0  0  0  0  0  0  0
   -8.4444    3.1216    2.7385 H   0  0  0  0  0  0  0  0  0  0  0  0
   -8.2363    5.4629    2.0443 H   0  0  0  0  0  0  0  0  0  0  0  0
   -8.4433    4.3319   -0.7412 H   0  0  0  0  0  0  0  0  0  0  0  0
   -8.4433    6.0337   -0.3318 H   0  0  0  0  0  0  0  0  0  0  0  0
   -7.0173    5.0660   -0.0468 H   0  0  0  0  0  0  0  0  0  0  0  0
  -10.4707    4.4933    2.3313 H   0  0  0  0  0  0  0  0  0  0  0  0
  -10.4707    5.6986    1.0620 H   0  0  0  0  0  0  0  0  0  0  0  0
  -10.4709    3.9967    0.6528 H   0  0  0  0  0  0  0  0  0  0  0  0
   -4.1871    1.9269    1.2610 H   0  0  0  0  0  0  0  0  0  0  0  0
   -4.1689    2.3875    2.9595 H   0  0  0  0  0  0  0  0  0  0  0  0
   -4.4603    0.7558    2.5258 H   0  0  0  0  0  0  0  0  0  0  0  0
   -6.6731   -2.4285    2.1695 H   0  0  0  0  0  0  0  0  0  0  0  0
   -8.1038   -1.4577    1.8828 H   0  0  0  0  0  0  0  0  0  0  0  0
   -6.8818   -0.1552    0.2032 H   0  0  0  0  0  0  0  0  0  0  0  0
   -4.6467   -2.0925    0.7785 H   0  0  0  0  0  0  0  0  0  0  0  0
   -4.6470   -0.8872   -0.4908 H   0  0  0  0  0  0  0  0  0  0  0  0
   -4.6461   -0.3926    1.1845 H   0  0  0  0  0  0  0  0  0  0  0  0
   -8.1035   -2.1630   -0.4953 H   0  0  0  0  0  0  0  0  0  0  0  0
   -6.6744   -1.9267   -1.4779 H   0  0  0  0  0  0  0  0  0  0  0  0
   -6.6744   -3.1322   -0.2087 H   0  0  0  0  0  0  0  0  0  0  0  0
   -5.5922    0.1411    5.4667 H   0  0  0  0  0  0  0  0  0  0  0  0
   -7.0227    1.1118    5.1804 H   0  0  0  0  0  0  0  0  0  0  0  0
   -6.9320    0.0734    6.2009 H   0  0  0  0  0  0  0  0  0  0  0  0
   -7.3835   -0.8510    6.3559 H   0  0  0  0  0  0  0  0  0  0  0  0
   -8.6931   -0.7043    7.2429 H   0  0  0  0  0  0  0  0  0  0  0  0
   -7.3004   -1.7098    7.5853 H   0  0  0  0  0  0  0  0  0  0  0  0
  -12.2410   -3.0855    8.2737 H   0  0  0  0  0  0  0  0  0  0  0  0
  -13.6702   -3.8156    7.5790 H   0  0  0  0  0  0  0  0  0  0  0  0
  -12.2392   -4.7862    7.8662 H   0  0  0  0  0  0  0  0  0  0  0  0
  -15.8117   -7.3665    4.0133 H   0  0  0  0  0  0  0  0  0  0  0  0
  -15.8144   -6.8678    5.6935 H   0  0  0  0  0  0  0  0  0  0  0  0
  -15.6037   -4.5276    5.0002 H   0  0  0  0  0  0  0  0  0  0  0  0
  -15.8105   -5.6588    2.2146 H   0  0  0  0  0  0  0  0  0  0  0  0
  -15.8105   -3.9569    2.6240 H   0  0  0  0  0  0  0  0  0  0  0  0
  -14.3820   -4.9247    2.9096 H   0  0  0  0  0  0  0  0  0  0  0  0
  -17.8379   -5.4974    5.2871 H   0  0  0  0  0  0  0  0  0  0  0  0
  -17.8379   -4.2921    4.0179 H   0  0  0  0  0  0  0  0  0  0  0  0
  -17.8381   -5.9940    3.6087 H   0  0  0  0  0  0  0  0  0  0  0  0
  -11.5540   -8.0566    4.2188 H   0  0  0  0  0  0  0  0  0  0  0  0
  -11.5533   -7.5615    5.8978 H   0  0  0  0  0  0  0  0  0  0  0  0
  -11.8277   -9.2340    5.4799 H   0  0  0  0  0  0  0  0  0  0  0  0
  -15.4694  -11.4486    4.8368 H   0  0  0  0  0  0  0  0  0  0  0  0
  -12.8199  -11.1140    3.4470 H   0  0  0  0  0  0  0  0  0  0  0  0
  -14.2492  -11.8468    2.7513 H   0  0  0  0  0  0  0  0  0  0  0  0
  -14.2491  -10.1453    3.1598 H   0  0  0  0  0  0  0  0  0  0  0  0
  -14.2180  -13.0725    6.2201 H   0  0  0  0  0  0  0  0  0  0  0  0
  -14.2489  -13.5569    4.5515 H   0  0  0  0  0  0  0  0  0  0  0  0
  -12.8194  -12.8240    5.2475 H   0  0  0  0  0  0  0  0  0  0  0  0
  -15.5012  -13.8962   10.2551 H   0  0  0  0  0  0  0  0  0  0  0  0
  -15.3103  -14.4488    8.5700 H   0  0  0  0  0  0  0  0  0  0  0  0
  -13.5574  -12.8239   11.1551 H   0  0  0  0  0  0  0  0  0  0  0  0
  -12.1283  -12.5876   10.1721 H   0  0  0  0  0  0  0  0  0  0  0  0
  -13.5554  -11.6186    9.8861 H   0  0  0  0  0  0  0  0  0  0  0  0
  -13.5572  -15.7351    8.8957 H   0  0  0  0  0  0  0  0  0  0  0  0
  -12.1283  -15.0024    9.5915 H   0  0  0  0  0  0  0  0  0  0  0  0
  -13.5574  -15.2386   10.5745 H   0  0  0  0  0  0  0  0  0  0  0  0
  -12.2365  -13.3148    7.8835 H   0  0  0  0  0  0  0  0  0  0  0  0
  -17.6474  -10.1802    9.1474 H   0  0  0  0  0  0  0  0  0  0  0  0
  -17.7892  -10.4218    7.1649 H   0  0  0  0  0  0  0  0  0  0  0  0
  -18.8356  -11.1104    8.7591 H   0  0  0  0  0  0  0  0  0  0  0  0
  -18.7415  -11.1434    6.7447 H   0  0  0  0  0  0  0  0  0  0  0  0
  -18.7059   -9.9118    8.0748 H   0  0  0  0  0  0  0  0  0  0  0  0
  -16.3024  -11.2472    7.9171 H   0  0  0  0  0  0  0  0  0  0  0  0
  -17.2660  -11.4249    9.5526 H   0  0  0  0  0  0  0  0  0  0  0  0
  -16.2439  -13.6149    9.5175 H   0  0  0  0  0  0  0  0  0  0  0  0
  -16.2468  -14.8427    8.1535 H   0  0  0  0  0  0  0  0  0  0  0  0
  -15.2873  -13.2860    7.9415 H   0  0  0  0  0  0  0  0  0  0  0  0
  -18.5903  -13.7442    9.8365 H   0  0  0  0  0  0  0  0  0  0  0  0
  -19.4614  -13.3246    8.1950 H   0  0  0  0  0  0  0  0  0  0  0  0
  -18.5303  -14.8377    8.3703 H   0  0  0  0  0  0  0  0  0  0  0  0
  -18.6508  -12.4138    6.3163 H   0  0  0  0  0  0  0  0  0  0  0  0
  -17.8416  -13.0487    6.4761 H   0  0  0  0  0  0  0  0  0  0  0  0
  -18.2547  -12.8484    6.2636 H   0  0  0  0  0  0  0  0  0  0  0  0
  1  2  1  0  0  0  0
  1 93  1  0  0  0  0
  1 94  1  0  0  0  0
  1 95  1  0  0  0  0
  2 96  1  0  0  0  0
  2 97  1  0  0  0  0
  3  4  1  0  0  0  0
  3 46  1  0  0  0  0
  3 98  1  6  0  0  0
  3  2  1  0  0  0  0
  4  5  2  0  0  0  0
  4  6  1  0  0  0  0
  6  7  1  0  0  0  0
  6 92  1  0  0  0  0
  7  8  1  0  0  0  0
  7 99  1  6  0  0  0
  7 86  1  0  0  0  0
  8  9  2  0  0  0  0
  8 10  1  0  0  0  0
 10 11  1  0  0  0  0
 10 85  1  0  0  0  0
 11 12  1  0  0  0  0
 11 80  1  0  0  0  0
 11100  1  1  0  0  0
 12 13  2  0  0  0  0
 12 14  1  0  0  0  0
 14 15  1  0  0  0  0
 14101  1  0  0  0  0
 15 16  1  0  0  0  0
 15 77  1  0  0  0  0
 15102  1  1  0  0  0
 16 17  2  0  0  0  0
 16 18  1  0  0  0  0
 18 19  1  0  0  0  0
 18 76  1  0  0  0  0
 19 20  1  0  0  0  0
 19 72  1  0  0  0  0
 19103  1  6  0  0  0
 20 21  2  0  0  0  0
 20 22  1  0  0  0  0
 22 23  1  0  0  0  0
 22104  1  0  0  0  0
 23 24  1  0  0  0  0
 23 71  1  0  0  0  0
 23105  1  6  0  0  0
 24 25  2  0  0  0  0
 24 26  1  0  0  0  0
 26 27  1  0  0  0  0
 26106  1  0  0  0  0
 27 28  1  0  0  0  0
 27107  1  1  0  0  0
 27 70  1  0  0  0  0
 28 29  2  0  0  0  0
 28 30  1  0  0  0  0
 30 31  1  0  0  0  0
 30 69  1  0  0  0  0
 31 32  1  0  0  0  0
 31 65  1  0  0  0  0
 31108  1  6  0  0  0
 32 33  2  0  0  0  0
 32 34  1  0  0  0  0
 34 35  1  0  0  0  0
 34 64  1  0  0  0  0
 35 36  1  0  0  0  0
 35 60  1  0  0  0  0
 35109  1  6  0  0  0
 36 37  2  0  0  0  0
 36 38  1  0  0  0  0
 38 39  1  0  0  0  0
 38 59  1  0  0  0  0
 39 40  1  0  0  0  0
 39 56  1  0  0  0  0
 39110  1  6  0  0  0
 40 41  2  0  0  0  0
 40 42  1  0  0  0  0
 42 43  1  0  0  0  0
 42 55  1  0  0  0  0
 43 44  1  0  0  0  0
 43 47  1  0  0  0  0
 43111  1  6  0  0  0
 44 45  2  0  0  0  0
 44 46  1  0  0  0  0
 46112  1  0  0  0  0
 47 54  1  0  0  0  0
 47113  1  6  0  0  0
 48 50  1  0  0  0  0
 48114  1  6  0  0  0
 48 49  1  0  0  0  0
 48 47  1  0  0  0  0
 49115  1  0  0  0  0
 49116  1  0  0  0  0
 49117  1  0  0  0  0
 50 51  1  0  0  0  0
 50118  1  0  0  0  0
 50119  1  0  0  0  0
 51 52  2  0  0  0  0
 51120  1  0  0  0  0
 52 53  1  0  0  0  0
 52121  1  0  0  0  0
 53122  1  0  0  0  0
 53123  1  0  0  0  0
 53124  1  0  0  0  0
 54125  1  0  0  0  0
 55126  1  0  0  0  0
 55127  1  0  0  0  0
 55128  1  0  0  0  0
 56 57  1  0  0  0  0
 56 58  1  0  0  0  0
 56129  1  0  0  0  0
 57130  1  0  0  0  0
 57131  1  0  0  0  0
 57132  1  0  0  0  0
 58133  1  0  0  0  0
 58134  1  0  0  0  0
 58135  1  0  0  0  0
 59136  1  0  0  0  0
 59137  1  0  0  0  0
 59138  1  0  0  0  0
 60 61  1  0  0  0  0
 60139  1  0  0  0  0
 60140  1  0  0  0  0
 61 62  1  0  0  0  0
 61 63  1  0  0  0  0
 61141  1  0  0  0  0
 62142  1  0  0  0  0
 62143  1  0  0  0  0
 62144  1  0  0  0  0
 63145  1  0  0  0  0
 63146  1  0  0  0  0
 63147  1  0  0  0  0
 64148  1  0  0  0  0
 64149  1  0  0  0  0
 64150  1  0  0  0  0
 65 66  1  0  0  0  0
 65151  1  0  0  0  0
 65152  1  0  0  0  0
 66 67  1  0  0  0  0
 66 68  1  0  0  0  0
 66153  1  0  0  0  0
 67154  1  0  0  0  0
 67155  1  0  0  0  0
 67156  1  0  0  0  0
 68157  1  0  0  0  0
 68158  1  0  0  0  0
 68159  1  0  0  0  0
 69160  1  0  0  0  0
 69161  1  0  0  0  0
 69162  1  0  0  0  0
 70163  1  0  0  0  0
 70164  1  0  0  0  0
 70165  1  0  0  0  0
 71166  1  0  0  0  0
 71167  1  0  0  0  0
 71168  1  0  0  0  0
 72 73  1  0  0  0  0
 72169  1  0  0  0  0
 72170  1  0  0  0  0
 73 74  1  0  0  0  0
 73 75  1  0  0  0  0
 73171  1  0  0  0  0
 74172  1  0  0  0  0
 74173  1  0  0  0  0
 74174  1  0  0  0  0
 75175  1  0  0  0  0
 75176  1  0  0  0  0
 75177  1  0  0  0  0
 76178  1  0  0  0  0
 76179  1  0  0  0  0
 76180  1  0  0  0  0
 77 78  1  0  0  0  0
 77 79  1  0  0  0  0
 77181  1  0  0  0  0
 78182  1  0  0  0  0
 78183  1  0  0  0  0
 78184  1  0  0  0  0
 79185  1  0  0  0  0
 79186  1  0  0  0  0
 79187  1  0  0  0  0
 80 81  1  0  0  0  0
 80188  1  0  0  0  0
 80189  1  0  0  0  0
 81 82  1  0  0  0  0
 81 83  1  0  0  0  0
 81 84  1  0  0  0  0
 82190  1  0  0  0  0
 82191  1  0  0  0  0
 82192  1  0  0  0  0
 83193  1  0  0  0  0
 83194  1  0  0  0  0
 83195  1  0  0  0  0
 84196  1  0  0  0  0
 85197  1  0  0  0  0
 85198  1  0  0  0  0
 85199  1  0  0  0  0
 86 87  1  0  0  0  0
 87 88  1  0  0  0  0
 87200  1  0  0  0  0
 87201  1  0  0  0  0
 88 89  1  0  0  0  0
 88202  1  0  0  0  0
 88203  1  0  0  0  0
 89 90  1  0  0  0  0
 89 91  1  0  0  0  0
 90204  1  0  0  0  0
 90205  1  0  0  0  0
 90206  1  0  0  0  0
 91207  1  0  0  0  0
 91208  1  0  0  0  0
 91209  1  0  0  0  0
 92210  1  0  0  0  0
 92211  1  0  0  0  0
 92212  1  0  0  0  0
M  END
>  <DRUGBANK_ID>
DB12451

>  <COMMON_NAME>
SCY-635

>  <CAS_NUMBER>
210759-10-7

>  <UNII>
WSU5343074

$$$$
