COQ
 OpenBabel10282417133D

 45 47  0  0  0  0  0  0  0  0999 V2000
    2.3421   -0.6203    0.0035 C   0  0  0  0  0  0  0  0  0  0  0  0
    1.2493    1.3741    0.0123 C   0  0  0  0  0  0  0  0  0  0  0  0
    0.0256    0.7089    0.0041 C   0  0  0  0  0  0  0  0  0  0  0  0
   -1.2242    1.3655    0.0023 C   0  0  0  0  0  0  0  0  0  0  0  0
   -2.4399    0.6875   -0.0084 C   0  0  0  0  0  0  0  0  0  0  0  0
   -2.2764   -0.6915    0.0065 C   0  0  0  0  0  0  0  0  0  0  0  0
    0.0622   -0.6706    0.0047 C   0  0  0  0  0  0  0  0  0  0  0  0
   -4.9625    0.7265    0.0175 C   0  0  0  0  0  0  0  0  0  0  0  0
   -5.7366    1.0485    1.2852 C   0  0  0  0  0  0  0  0  0  0  0  0
   -5.9155    2.3708    1.7154 C   0  0  0  0  0  0  0  0  0  0  0  0
   -6.5756    2.7131    2.8830 C   0  0  0  0  0  0  0  0  0  0  0  0
   -7.1543    1.7002    3.6283 C   0  0  0  0  0  0  0  0  0  0  0  0
   -7.0645    0.3674    3.2049 C   0  0  0  0  0  0  0  0  0  0  0  0
   -6.3547    0.0449    2.0386 C   0  0  0  0  0  0  0  0  0  0  0  0
   -6.0627    5.0200    2.5918 C   0  0  0  0  0  0  0  0  0  0  0  0
   -8.3375   -0.3741    5.0497 C   0  0  0  0  0  0  0  0  0  0  0  0
   -3.5947    2.8401   -0.1887 C   0  0  0  0  0  0  0  0  0  0  0  0
    1.2169   -1.3332    0.0023 N   0  0  0  0  0  0  0  0  0  0  0  0
    3.5238   -1.3101   -0.0050 N   0  0  0  0  0  0  0  0  0  0  0  0
    2.4099    0.7110    0.0099 N   0  0  0  0  0  0  0  0  0  0  0  0
    1.3297    2.7536   -0.0445 N   0  0  0  0  0  0  0  0  0  0  0  0
   -1.0831   -1.3636    0.0079 N   0  0  0  0  0  0  0  0  0  0  0  0
   -3.6416    1.3816   -0.0453 N   0  0  0  0  0  0  0  0  0  0  0  0
   -6.7021    3.9926    3.3533 O   0  0  0  0  0  0  0  0  0  0  0  0
   -7.6294   -0.6979    3.8573 O   0  0  0  0  0  0  0  0  0  0  0  0
   -1.2214    2.4448    0.0129 H   0  0  0  0  0  0  0  0  0  0  0  0
   -3.1226   -1.3705    0.0079 H   0  0  0  0  0  0  0  0  0  0  0  0
   -5.5573    1.0310   -0.8529 H   0  0  0  0  0  0  0  0  0  0  0  0
   -4.8780   -0.3604   -0.0669 H   0  0  0  0  0  0  0  0  0  0  0  0
   -5.5312    3.1790    1.1306 H   0  0  0  0  0  0  0  0  0  0  0  0
   -7.6771    1.9848    4.5331 H   0  0  0  0  0  0  0  0  0  0  0  0
   -6.2933   -0.9966    1.7272 H   0  0  0  0  0  0  0  0  0  0  0  0
   -4.9774    4.8655    2.5379 H   0  0  0  0  0  0  0  0  0  0  0  0
   -6.4930    5.0929    1.5854 H   0  0  0  0  0  0  0  0  0  0  0  0
   -6.2349    5.9769    3.0906 H   0  0  0  0  0  0  0  0  0  0  0  0
   -7.6671    0.0757    5.7908 H   0  0  0  0  0  0  0  0  0  0  0  0
   -9.1852    0.2861    4.8332 H   0  0  0  0  0  0  0  0  0  0  0  0
   -8.7346   -1.2981    5.4761 H   0  0  0  0  0  0  0  0  0  0  0  0
   -3.2478    3.2958    0.7515 H   0  0  0  0  0  0  0  0  0  0  0  0
   -2.9473    3.1681   -1.0062 H   0  0  0  0  0  0  0  0  0  0  0  0
   -4.5637    3.2687   -0.4538 H   0  0  0  0  0  0  0  0  0  0  0  0
    3.4855   -2.3141    0.0051 H   0  0  0  0  0  0  0  0  0  0  0  0
    4.3825   -0.7894    0.0057 H   0  0  0  0  0  0  0  0  0  0  0  0
    0.5250    3.3462    0.0672 H   0  0  0  0  0  0  0  0  0  0  0  0
    2.2499    3.1623    0.0207 H   0  0  0  0  0  0  0  0  0  0  0  0
  1 18  2  0  0  0  0
  1 19  1  0  0  0  0
  1 20  1  0  0  0  0
  2  3  1  0  0  0  0
  2 20  2  0  0  0  0
  2 21  1  0  0  0  0
  3  4  2  0  0  0  0
  3  7  1  0  0  0  0
  4  5  1  0  0  0  0
  4 26  1  0  0  0  0
  5  6  2  0  0  0  0
  5 23  1  0  0  0  0
  6 22  1  0  0  0  0
  6 27  1  0  0  0  0
  7 18  1  0  0  0  0
  7 22  2  0  0  0  0
  8  9  1  0  0  0  0
  8 23  1  0  0  0  0
  8 28  1  0  0  0  0
  8 29  1  0  0  0  0
  9 10  2  0  0  0  0
  9 14  1  0  0  0  0
 10 11  1  0  0  0  0
 10 30  1  0  0  0  0
 11 12  2  0  0  0  0
 11 24  1  0  0  0  0
 12 13  1  0  0  0  0
 12 31  1  0  0  0  0
 13 14  2  0  0  0  0
 13 25  1  0  0  0  0
 14 32  1  0  0  0  0
 15 24  1  0  0  0  0
 15 33  1  0  0  0  0
 15 34  1  0  0  0  0
 15 35  1  0  0  0  0
 16 25  1  0  0  0  0
 16 36  1  0  0  0  0
 16 37  1  0  0  0  0
 16 38  1  0  0  0  0
 17 23  1  0  0  0  0
 17 39  1  0  0  0  0
 17 40  1  0  0  0  0
 17 41  1  0  0  0  0
 19 42  1  0  0  0  0
 19 43  1  0  0  0  0
 21 44  1  0  0  0  0
 21 45  1  0  0  0  0
M  END
>  <DRUGBANK_ID>
DB03987

>  <SECONDARY_ACCESSION_NUMBERS>
EXPT00988

>  <COMMON_NAME>
2,4-Diamino-6-[N-(3',5'-Dimethoxybenzyl)-N-Methylamino]Pyrido[2,3-D]Pyrimidine

$$$$
