
 OpenBabel10282417143D

 30 32  0  0  0  0  0  0  0  0999 V2000
   -0.0211   -0.7080    0.0021 C   0  0  0  0  0  0  0  0  0  0  0  0
   -1.2139   -1.4164   -0.0409 O   0  0  0  0  0  0  0  0  0  0  0  0
    2.4010   -0.7243   -0.0326 C   0  0  0  0  0  0  0  0  0  0  0  0
    2.4442    0.6659    0.0417 C   0  0  0  0  0  0  0  0  0  0  0  0
    1.2584    1.3821    0.0956 C   0  0  0  0  0  0  0  0  0  0  0  0
    0.0455    0.6905    0.0745 C   0  0  0  0  0  0  0  0  0  0  0  0
    1.1823   -1.4204   -0.0604 C   0  0  0  0  0  0  0  0  0  0  0  0
   -1.1963    1.4535    0.0705 C   0  0  0  0  0  0  0  0  0  0  0  0
   -2.3844    0.6922   -0.3718 C   0  0  0  0  0  0  0  0  0  0  0  0
   -2.3752   -0.6423    0.3720 C   0  0  1  0  0  0  0  0  0  0  0  0
    3.6075   -1.3620   -0.0741 O   0  0  0  0  0  0  0  0  0  0  0  0
   -3.7196   -1.3750    0.2041 C   0  0  0  0  0  0  0  0  0  0  0  0
   -3.9276   -2.6842    0.6636 C   0  0  0  0  0  0  0  0  0  0  0  0
   -5.2050   -3.2712    0.5942 C   0  0  0  0  0  0  0  0  0  0  0  0
   -6.3106   -2.5287    0.1789 C   0  0  0  0  0  0  0  0  0  0  0  0
   -6.1391   -1.2122   -0.2048 C   0  0  0  0  0  0  0  0  0  0  0  0
   -4.8564   -0.6788   -0.2639 C   0  0  0  0  0  0  0  0  0  0  0  0
   -1.2391    2.6442    0.3723 O   0  0  0  0  0  0  0  0  0  0  0  0
    3.3959    1.1908    0.0532 H   0  0  0  0  0  0  0  0  0  0  0  0
    1.2725    2.4693    0.1364 H   0  0  0  0  0  0  0  0  0  0  0  0
    1.1663   -2.5033   -0.1249 H   0  0  0  0  0  0  0  0  0  0  0  0
   -2.3410    0.5539   -1.4598 H   0  0  0  0  0  0  0  0  0  0  0  0
   -3.2395    1.3211   -0.1151 H   0  0  0  0  0  0  0  0  0  0  0  0
   -2.2737   -0.4703    1.4541 H   0  0  0  0  0  0  0  0  0  0  0  0
    3.4709   -2.3220   -0.1079 H   0  0  0  0  0  0  0  0  0  0  0  0
   -3.1150   -3.2583    1.1039 H   0  0  0  0  0  0  0  0  0  0  0  0
   -5.3534   -4.3049    0.8975 H   0  0  0  0  0  0  0  0  0  0  0  0
   -7.3052   -2.9645    0.1608 H   0  0  0  0  0  0  0  0  0  0  0  0
   -6.9884   -0.5813   -0.4535 H   0  0  0  0  0  0  0  0  0  0  0  0
   -4.7988    0.3264   -0.6663 H   0  0  0  0  0  0  0  0  0  0  0  0
  1  2  1  0  0  0  0
  1  7  1  0  0  0  0
  3 11  1  0  0  0  0
  3  4  1  0  0  0  0
  3  7  2  0  0  0  0
  4  5  2  0  0  0  0
  4 19  1  0  0  0  0
  5  6  1  0  0  0  0
  5 20  1  0  0  0  0
  6  1  2  0  0  0  0
  6  8  1  0  0  0  0
  7 21  1  0  0  0  0
  8 18  2  0  0  0  0
  8  9  1  0  0  0  0
  9 10  1  0  0  0  0
  9 22  1  0  0  0  0
  9 23  1  0  0  0  0
 10  2  1  0  0  0  0
 10 24  1  1  0  0  0
 10 12  1  0  0  0  0
 11 25  1  0  0  0  0
 12 13  2  0  0  0  0
 12 17  1  0  0  0  0
 13 14  1  0  0  0  0
 13 26  1  0  0  0  0
 14 15  2  0  0  0  0
 14 27  1  0  0  0  0
 15 16  1  0  0  0  0
 15 28  1  0  0  0  0
 16 17  2  0  0  0  0
 16 29  1  0  0  0  0
 17 30  1  0  0  0  0
M  END
>  <DRUGBANK_ID>
DB04274

>  <SECONDARY_ACCESSION_NUMBERS>
EXPT01141

>  <COMMON_NAME>
(2S)-7-hydroxyflavanone

>  <CAS_NUMBER>
2545-13-3

>  <UNII>
MF98742K2H

>  <SYNONYMS>
(-)-7-Hydroxyflavanone

$$$$
