FSP
 OpenBabel10282417123D

 61 63  0  0  0  0  0  0  0  0999 V2000
   -4.0912    3.5728    3.6715 C   0  0  0  0  0  0  0  0  0  0  0  0
   -2.7106    4.1879    3.7868 C   0  0  0  0  0  0  0  0  0  0  0  0
   -1.6140    3.2153    4.2530 C   0  0  0  0  0  0  0  0  0  0  0  0
   -1.4537    1.9856    3.3696 C   0  0  0  0  0  0  0  0  0  0  0  0
   -0.8615    2.3077    1.9779 C   0  0  2  0  0  0  0  0  0  0  0  0
    0.5785    2.2655    2.0294 N   0  0  0  0  0  0  0  0  0  0  0  0
    1.3358    1.1364    1.8903 C   0  0  0  0  0  0  0  0  0  0  0  0
    2.4875    1.1077    2.2400 O   0  0  0  0  0  0  0  0  0  0  0  0
    0.6637    0.1294    1.2813 O   0  0  0  0  0  0  0  0  0  0  0  0
    1.4206   -1.0548    0.9942 C   0  0  0  0  0  0  0  0  0  0  0  0
    2.0221   -1.0350   -0.4089 C   0  0  0  0  0  0  0  0  0  0  0  0
    0.9954   -1.4264   -1.5037 C   0  0  0  0  0  0  0  0  0  0  0  0
    0.4570   -2.8634   -1.3823 C   0  0  0  0  0  0  0  0  0  0  0  0
   -0.2324   -3.3977   -0.2643 C   0  0  0  0  0  0  0  0  0  0  0  0
   -0.5513   -4.7388   -0.1119 C   0  0  0  0  0  0  0  0  0  0  0  0
   -0.3328   -5.5704   -1.1764 C   0  0  0  0  0  0  0  0  0  0  0  0
   -0.6919   -6.8542   -1.0779 F   0  0  0  0  0  0  0  0  0  0  0  0
    0.2170   -5.0747   -2.3556 C   0  0  0  0  0  0  0  0  0  0  0  0
    0.6289   -3.7368   -2.4551 C   0  0  0  0  0  0  0  0  0  0  0  0
    3.3959   -1.7603   -0.5406 C   0  0  0  0  0  0  0  0  0  0  0  0
    3.9429   -0.5188   -1.2836 C   0  0  0  0  0  0  0  0  0  0  0  0
    2.8287    0.2906   -0.6390 C   0  0  0  0  0  0  0  0  0  0  0  0
   -2.4193    3.5894    0.2471 C   0  0  0  0  0  0  0  0  0  0  0  0
   -2.9318    4.6401   -0.1002 O   0  0  0  0  0  0  0  0  0  0  0  0
   -2.8551    2.4467   -0.5151 N   0  0  0  0  0  0  0  0  0  0  0  0
   -2.6904    1.1249   -0.1926 C   0  0  0  0  0  0  0  0  0  0  0  0
   -2.9914    0.5207    1.0057 C   0  0  0  0  0  0  0  0  0  0  0  0
   -2.2085   -0.6407    1.0148 C   0  0  0  0  0  0  0  0  0  0  0  0
   -1.7693   -0.9096   -0.2089 N   0  0  0  0  0  0  0  0  0  0  0  0
   -2.0698    0.1690   -0.9396 N   0  0  0  0  0  0  0  0  0  0  0  0
   -1.2656    3.5864    1.2782 C   0  0  0  0  0  0  0  0  0  0  0  0
   -0.6900    4.6488    1.5246 O   0  0  0  0  0  0  0  0  0  0  0  0
   -1.0464    1.5277    1.2866 H   0  0  0  0  0  0  0  0  0  0  0  0
   -4.1006    2.7089    3.0035 H   0  0  0  0  0  0  0  0  0  0  0  0
   -4.7747    4.2993    3.2218 H   0  0  0  0  0  0  0  0  0  0  0  0
   -4.4652    3.2694    4.6490 H   0  0  0  0  0  0  0  0  0  0  0  0
   -2.5301    4.6087    2.8066 H   0  0  0  0  0  0  0  0  0  0  0  0
   -2.7074    5.0669    4.4353 H   0  0  0  0  0  0  0  0  0  0  0  0
   -0.6423    3.7175    4.3055 H   0  0  0  0  0  0  0  0  0  0  0  0
   -1.8549    2.8846    5.2709 H   0  0  0  0  0  0  0  0  0  0  0  0
   -0.8155    1.2401    3.8688 H   0  0  0  0  0  0  0  0  0  0  0  0
   -2.4218    1.4837    3.3629 H   0  0  0  0  0  0  0  0  0  0  0  0
    1.0837    3.0750    2.3626 H   0  0  0  0  0  0  0  0  0  0  0  0
    2.0825   -1.3763    1.8014 H   0  0  0  0  0  0  0  0  0  0  0  0
    0.6884   -1.8186    1.0404 H   0  0  0  0  0  0  0  0  0  0  0  0
    0.1851   -0.7060   -1.4988 H   0  0  0  0  0  0  0  0  0  0  0  0
    1.4334   -1.2819   -2.5033 H   0  0  0  0  0  0  0  0  0  0  0  0
   -0.6049   -2.8199    0.5676 H   0  0  0  0  0  0  0  0  0  0  0  0
   -0.9838   -5.0939    0.8190 H   0  0  0  0  0  0  0  0  0  0  0  0
    0.3347   -5.7457   -3.1963 H   0  0  0  0  0  0  0  0  0  0  0  0
    1.0785   -3.3863   -3.3806 H   0  0  0  0  0  0  0  0  0  0  0  0
    3.8704   -1.9562    0.4288 H   0  0  0  0  0  0  0  0  0  0  0  0
    3.4208   -2.6815   -1.1266 H   0  0  0  0  0  0  0  0  0  0  0  0
    4.9459   -0.1930   -0.9872 H   0  0  0  0  0  0  0  0  0  0  0  0
    3.8758   -0.5517   -2.3725 H   0  0  0  0  0  0  0  0  0  0  0  0
    2.3348    1.0834   -1.2059 H   0  0  0  0  0  0  0  0  0  0  0  0
    3.2596    0.7551    0.2489 H   0  0  0  0  0  0  0  0  0  0  0  0
   -3.3532    2.6783   -1.3690 H   0  0  0  0  0  0  0  0  0  0  0  0
   -3.4714    0.9766    1.8469 H   0  0  0  0  0  0  0  0  0  0  0  0
   -1.8741   -1.2484    1.8547 H   0  0  0  0  0  0  0  0  0  0  0  0
   -1.6570    0.2415   -1.8647 H   0  0  0  0  0  0  0  0  0  0  0  0
  1  2  1  0  0  0  0
  1 34  1  0  0  0  0
  1 35  1  0  0  0  0
  1 36  1  0  0  0  0
  2  3  1  0  0  0  0
  2 37  1  0  0  0  0
  2 38  1  0  0  0  0
  3  4  1  0  0  0  0
  3 39  1  0  0  0  0
  3 40  1  0  0  0  0
  4 41  1  0  0  0  0
  4 42  1  0  0  0  0
  5 31  1  0  0  0  0
  5 33  1  6  0  0  0
  5  6  1  0  0  0  0
  5  4  1  0  0  0  0
  6  7  1  0  0  0  0
  6 43  1  0  0  0  0
  7  8  2  0  0  0  0
  7  9  1  0  0  0  0
  9 10  1  0  0  0  0
 10 11  1  0  0  0  0
 10 44  1  0  0  0  0
 10 45  1  0  0  0  0
 11 12  1  0  0  0  0
 11 20  1  0  0  0  0
 11 22  1  0  0  0  0
 12 13  1  0  0  0  0
 12 46  1  0  0  0  0
 12 47  1  0  0  0  0
 13 14  2  0  0  0  0
 13 19  1  0  0  0  0
 14 15  1  0  0  0  0
 14 48  1  0  0  0  0
 15 16  2  0  0  0  0
 15 49  1  0  0  0  0
 16 17  1  0  0  0  0
 16 18  1  0  0  0  0
 18 19  2  0  0  0  0
 18 50  1  0  0  0  0
 19 51  1  0  0  0  0
 20 21  1  0  0  0  0
 20 52  1  0  0  0  0
 20 53  1  0  0  0  0
 21 22  1  0  0  0  0
 21 54  1  0  0  0  0
 21 55  1  0  0  0  0
 22 56  1  0  0  0  0
 22 57  1  0  0  0  0
 23 24  2  0  0  0  0
 23 25  1  0  0  0  0
 23 31  1  0  0  0  0
 25 26  1  0  0  0  0
 25 58  1  0  0  0  0
 26 27  2  0  0  0  0
 26 30  1  0  0  0  0
 27 28  1  0  0  0  0
 27 59  1  0  0  0  0
 28 29  2  0  0  0  0
 28 60  1  0  0  0  0
 29 30  1  0  0  0  0
 30 61  1  0  0  0  0
 31 32  2  0  0  0  0
M  END
>  <DRUGBANK_ID>
DB01858

>  <SECONDARY_ACCESSION_NUMBERS>
EXPT01501

>  <COMMON_NAME>
[1-(4-Fluorobenzyl)Cyclobutyl]Methyl (1s)-1-[Oxo(1h-Pyrazol-5-Ylamino)Acetyl]Pentylcarbamate

$$$$
