
 OpenBabel10282417183D

 46 47  0  0  0  0  0  0  0  0999 V2000
    0.9890    0.9763   -1.1293 C   0  0  0  0  0  0  0  0  0  0  0  0
   -0.3566    1.3543   -0.6845 C   0  0  0  0  0  0  0  0  0  0  0  0
   -1.0543    0.1983   -0.3415 C   0  0  0  0  0  0  0  0  0  0  0  0
   -0.4953   -1.0963   -0.5210 C   0  0  0  0  0  0  0  0  0  0  0  0
    0.7911   -1.3974   -1.0005 C   0  0  0  0  0  0  0  0  0  0  0  0
    1.9364   -0.4498   -1.0074 C   0  0  0  0  0  0  0  0  0  0  0  0
    3.8317   -0.5545   -0.1326 C   0  0  0  0  0  0  0  0  0  0  0  0
    4.5223   -0.9795    1.3735 C   0  0  0  0  0  0  0  0  0  0  0  0
    4.4003   -2.4572    1.4289 C   0  0  0  0  0  0  0  0  0  0  0  0
    4.7717   -3.1555    0.2256 O   0  0  0  0  0  0  0  0  0  0  0  0
    4.2959   -2.6445   -1.0055 C   0  0  0  0  0  0  0  0  0  0  0  0
    2.8250   -2.4672   -0.8638 C   0  0  0  0  0  0  0  0  0  0  0  0
    2.1966   -1.4559    0.7537 C   0  0  0  0  0  0  0  0  0  0  0  0
    2.5538    0.4276    0.6729 N   0  0  0  0  0  0  0  0  0  0  0  0
    3.2647    0.9369   -1.1286 C   0  0  0  0  0  0  0  0  0  0  0  0
    4.0258    2.1557   -1.2261 C   0  0  0  0  0  0  0  0  0  0  0  0
    2.9752    3.1192   -0.6921 C   0  0  0  0  0  0  0  0  0  0  0  0
    2.0724    2.6652    0.8519 C   0  0  0  0  0  0  0  0  0  0  0  0
    1.4932    1.1652    1.2548 C   0  0  0  0  0  0  0  0  0  0  0  0
   -2.6786    0.1462    0.1759 Cl  0  0  0  0  0  0  0  0  0  0  0  0
    1.6226    1.7535   -0.8007 H   0  0  0  0  0  0  0  0  0  0  0  0
   -0.5806    2.3798   -0.2128 H   0  0  0  0  0  0  0  0  0  0  0  0
   -0.8705   -2.0238   -0.0525 H   0  0  0  0  0  0  0  0  0  0  0  0
    0.8929   -2.4445   -0.6672 H   0  0  0  0  0  0  0  0  0  0  0  0
    4.8599   -0.2939   -0.6534 H   0  0  0  0  0  0  0  0  0  0  0  0
    4.2658    0.5862    0.4080 H   0  0  0  0  0  0  0  0  0  0  0  0
    5.5988   -0.6977    1.3805 H   0  0  0  0  0  0  0  0  0  0  0  0
    4.1305   -0.3746    2.2383 H   0  0  0  0  0  0  0  0  0  0  0  0
    4.7648   -2.8385    2.3652 H   0  0  0  0  0  0  0  0  0  0  0  0
    3.4202   -2.7919    1.6480 H   0  0  0  0  0  0  0  0  0  0  0  0
    4.8693   -1.7716   -1.2866 H   0  0  0  0  0  0  0  0  0  0  0  0
    4.5090   -3.1215   -1.9653 H   0  0  0  0  0  0  0  0  0  0  0  0
    2.5687   -2.0059   -1.9540 H   0  0  0  0  0  0  0  0  0  0  0  0
    2.3081   -3.4119   -1.0948 H   0  0  0  0  0  0  0  0  0  0  0  0
    1.1205   -1.4849    0.9571 H   0  0  0  0  0  0  0  0  0  0  0  0
    2.0817   -2.0084    1.7077 H   0  0  0  0  0  0  0  0  0  0  0  0
    2.7003    0.8122   -2.1858 H   0  0  0  0  0  0  0  0  0  0  0  0
    3.8001    0.0071   -1.7983 H   0  0  0  0  0  0  0  0  0  0  0  0
    4.3047    2.0956   -2.3049 H   0  0  0  0  0  0  0  0  0  0  0  0
    4.9258    2.0575   -0.6423 H   0  0  0  0  0  0  0  0  0  0  0  0
    3.4862    4.0652   -0.5860 H   0  0  0  0  0  0  0  0  0  0  0  0
    2.2475    3.2326   -1.5456 H   0  0  0  0  0  0  0  0  0  0  0  0
    2.8450    2.7605    1.6141 H   0  0  0  0  0  0  0  0  0  0  0  0
    1.2272    3.3707    0.8759 H   0  0  0  0  0  0  0  0  0  0  0  0
    0.8774    0.8844    2.1352 H   0  0  0  0  0  0  0  0  0  0  0  0
    0.8195    0.5122    0.7577 H   0  0  0  0  0  0  0  0  0  0  0  0
  1  2  2  0  0  0  0
  1  6  1  0  0  0  0
  1 21  1  0  0  0  0
  2  3  1  0  0  0  0
  2 22  1  0  0  0  0
  3  4  2  0  0  0  0
  3 20  1  0  0  0  0
  4  5  1  0  0  0  0
  4 23  1  0  0  0  0
  5  6  2  0  0  0  0
  5 24  1  0  0  0  0
  6  7  1  0  0  0  0
  7  8  1  0  0  0  0
  7 25  1  0  0  0  0
  7 26  1  0  0  0  0
  8  9  1  0  0  0  0
  8 27  1  0  0  0  0
  8 28  1  0  0  0  0
  9 10  1  0  0  0  0
  9 29  1  0  0  0  0
  9 30  1  0  0  0  0
 10 11  1  0  0  0  0
 11 12  1  0  0  0  0
 11 31  1  0  0  0  0
 11 32  1  0  0  0  0
 12 13  1  0  0  0  0
 12 33  1  0  0  0  0
 12 34  1  0  0  0  0
 13 14  1  0  0  0  0
 13 35  1  0  0  0  0
 13 36  1  0  0  0  0
 14 15  1  0  0  0  0
 14 19  1  0  0  0  0
 15 16  1  0  0  0  0
 15 37  1  0  0  0  0
 15 38  1  0  0  0  0
 16 17  1  0  0  0  0
 16 39  1  0  0  0  0
 16 40  1  0  0  0  0
 17 18  1  0  0  0  0
 17 41  1  0  0  0  0
 17 42  1  0  0  0  0
 18 19  1  0  0  0  0
 18 43  1  0  0  0  0
 18 44  1  0  0  0  0
 19 45  1  0  0  0  0
 19 46  1  0  0  0  0
M  END
>  <DRUGBANK_ID>
DB11642

>  <COMMON_NAME>
Pitolisant

>  <CAS_NUMBER>
362665-56-3

>  <UNII>
4BC83L4PIY

>  <SYNONYMS>
Pitolisant

$$$$
