
 OpenBabel10282417213D

 50 53  0  0  0  0  0  0  0  0999 V2000
   -1.2978    3.8705    5.5230 C   0  0  0  0  0  0  0  0  0  0  0  0
   -3.1080    0.7571    5.2389 C   0  0  0  0  0  0  0  0  0  0  0  0
   -1.8609    5.0341    7.0318 C   0  0  2  0  0  0  0  0  0  0  0  0
   -3.6836    5.2480    4.8360 C   0  0  0  0  0  0  0  0  0  0  0  0
   -0.8450    5.2571    5.9558 C   0  0  0  0  0  0  0  0  0  0  0  0
   -2.2083    2.0884    2.9973 C   0  0  2  0  0  0  0  0  0  0  0  0
   -3.0221    4.4736    3.7222 C   0  0  0  0  0  0  0  0  0  0  0  0
   -1.7055    0.3410    4.3421 C   0  0  0  0  0  0  0  0  0  0  0  0
   -0.8929    1.3741    3.0577 C   0  0  0  0  0  0  0  0  0  0  0  0
   -2.5149    2.2778    1.5012 C   0  0  0  0  0  0  0  0  0  0  0  0
   -0.4194    2.5660    2.2884 C   0  0  0  0  0  0  0  0  0  0  0  0
   -1.2344    1.6997    0.6956 C   0  0  0  0  0  0  0  0  0  0  0  0
   -2.9083    2.2293    5.2625 C   0  0  2  0  0  0  0  0  0  0  0  0
   -1.9021    2.0069    5.7375 H   0  0  0  0  0  0  0  0  0  0  0  0
   -3.1579    2.8450    3.9209 C   0  0  1  0  0  0  0  0  0  0  0  0
   -4.1799    2.5904    3.6775 H   0  0  0  0  0  0  0  0  0  0  0  0
   -3.3554    4.7430    6.2913 C   0  0  2  0  0  0  0  0  0  0  0  0
   -4.4672    5.2395    7.2654 C   0  0  0  0  0  0  0  0  0  0  0  0
   -2.9727    3.3329    6.1738 C   0  0  1  0  0  0  0  0  0  0  0  0
   -3.6833    2.8537    6.8985 H   0  0  0  0  0  0  0  0  0  0  0  0
    1.4427    2.1072    2.1658 O   0  0  0  0  0  0  0  0  0  0  0  0
    0.3561    2.0393    1.1354 C   0  0  2  0  0  0  0  0  0  0  0  0
   -1.4960    2.4926    3.7196 H   0  0  0  0  0  0  0  0  0  0  0  0
   -1.9233    5.7537    8.2880 C   0  0  0  0  0  0  0  0  0  0  0  0
   -1.1567    3.8146    7.6633 O   0  0  0  0  0  0  0  0  0  0  0  0
   -1.9307    5.9327    9.4803 C   0  0  0  0  0  0  0  0  0  0  0  0
   -0.3797    3.2747    5.3371 H   0  0  0  0  0  0  0  0  0  0  0  0
   -1.3323    3.8538    4.4744 H   0  0  0  0  0  0  0  0  0  0  0  0
   -3.3114    0.5322    6.3230 H   0  0  0  0  0  0  0  0  0  0  0  0
   -3.9489    0.2118    4.8174 H   0  0  0  0  0  0  0  0  0  0  0  0
   -4.2133    6.1851    5.0173 H   0  0  0  0  0  0  0  0  0  0  0  0
   -4.5196    5.1631    4.1375 H   0  0  0  0  0  0  0  0  0  0  0  0
   -0.9858    6.3363    5.8697 H   0  0  0  0  0  0  0  0  0  0  0  0
   -0.7020    5.4357    4.8674 H   0  0  0  0  0  0  0  0  0  0  0  0
   -2.2424    5.2414    3.8703 H   0  0  0  0  0  0  0  0  0  0  0  0
   -2.2704    4.4486    2.9240 H   0  0  0  0  0  0  0  0  0  0  0  0
   -1.1959   -0.0819    5.2178 H   0  0  0  0  0  0  0  0  0  0  0  0
   -1.7036   -0.6110    3.8133 H   0  0  0  0  0  0  0  0  0  0  0  0
   -3.1021    3.1954    1.7045 H   0  0  0  0  0  0  0  0  0  0  0  0
   -2.4446    3.0813    0.7274 H   0  0  0  0  0  0  0  0  0  0  0  0
   -0.0152    3.4674    1.6573 H   0  0  0  0  0  0  0  0  0  0  0  0
   -1.8789    1.5031   -0.1676 H   0  0  0  0  0  0  0  0  0  0  0  0
   -0.9598    0.7091    0.3332 H   0  0  0  0  0  0  0  0  0  0  0  0
   -4.4958    6.3411    7.2097 H   0  0  0  0  0  0  0  0  0  0  0  0
   -5.4770    4.8823    7.0449 H   0  0  0  0  0  0  0  0  0  0  0  0
   -4.2867    5.0002    8.3204 H   0  0  0  0  0  0  0  0  0  0  0  0
    1.3207    2.8102    2.8535 H   0  0  0  0  0  0  0  0  0  0  0  0
    0.7061    1.0302    0.9168 H   0  0  0  0  0  0  0  0  0  0  0  0
   -0.2687    3.7418    7.2320 H   0  0  0  0  0  0  0  0  0  0  0  0
   -1.8934    6.0425   10.5396 H   0  0  0  0  0  0  0  0  0  0  0  0
  1 27  1  0  0  0  0
  1 28  1  0  0  0  0
  2  8  1  0  0  0  0
  2 29  1  0  0  0  0
  2 30  1  0  0  0  0
  3  5  1  0  0  0  0
  3 24  1  1  0  0  0
  3 25  1  0  0  0  0
  4  7  1  0  0  0  0
  4 31  1  0  0  0  0
  4 32  1  0  0  0  0
  5  1  1  0  0  0  0
  5 33  1  0  0  0  0
  5 34  1  0  0  0  0
  6  9  1  0  0  0  0
  6 10  1  0  0  0  0
  6 23  1  1  0  0  0
  7 35  1  0  0  0  0
  7 36  1  0  0  0  0
  8  9  1  0  0  0  0
  8 37  1  0  0  0  0
  8 38  1  0  0  0  0
  9 11  2  0  0  0  0
 10 12  1  0  0  0  0
 10 39  1  0  0  0  0
 10 40  1  0  0  0  0
 11 22  1  0  0  0  0
 11 41  1  0  0  0  0
 12 22  1  0  0  0  0
 12 42  1  0  0  0  0
 12 43  1  0  0  0  0
 13 15  1  0  0  0  0
 13  2  1  0  0  0  0
 13 14  1  1  0  0  0
 15  6  1  0  0  0  0
 15  7  1  0  0  0  0
 15 16  1  1  0  0  0
 17  3  1  0  0  0  0
 17  4  1  0  0  0  0
 17 18  1  1  0  0  0
 18 44  1  0  0  0  0
 18 45  1  0  0  0  0
 18 46  1  0  0  0  0
 19 13  1  0  0  0  0
 19 17  1  0  0  0  0
 19  1  1  0  0  0  0
 19 20  1  6  0  0  0
 21 47  1  0  0  0  0
 22 21  1  0  0  0  0
 22 48  1  6  0  0  0
 24 26  3  0  0  0  0
 25 49  1  0  0  0  0
 26 50  1  0  0  0  0
M  END
>  <DRUGBANK_ID>
DB13866

>  <COMMON_NAME>
Etynodiol

>  <CAS_NUMBER>
1231-93-2

>  <UNII>
9E01C36A9S

>  <SYNONYMS>
(3β,17α)-19-Norpregn-4-en-20-yne-3,17-diol; 17α-Ethynyl-19-norandrost-4-ene-3β,17β-diol; 3β-hydroxynorethisterone; Aethynodiolum; Ethinodiol; Ethynodiol; Etinodiol; étynodiol; Etynodiol; Etynodiolum

$$$$
