
 OpenBabel10282417133D

 26 25  0  0  1  0  0  0  0  0999 V2000
    1.1259   -1.1961    2.4724 C   0  0  0  0  0  0  0  0  0  0  0  0
    0.3314   -2.3180    1.7538 C   0  0  1  0  0  0  0  0  0  0  0  0
    0.5319   -2.5292    0.2183 C   0  0  2  0  0  0  0  0  0  0  0  0
    0.1180   -1.2833   -0.6585 C   0  0  1  0  0  0  0  0  0  0  0  0
    0.8927   -0.0529   -0.4478 N   0  0  0  0  0  0  0  0  0  0  0  0
    0.6227   -3.5375    2.4549 O   0  0  0  0  0  0  0  0  0  0  0  0
   -0.0937   -3.7498   -0.2195 O   0  0  0  0  0  0  0  0  0  0  0  0
    0.2529   -1.5986   -2.0348 O   0  0  0  0  0  0  0  0  0  0  0  0
    0.3644    0.9525   -1.3723 O   0  0  0  0  0  0  0  0  0  0  0  0
    3.2598    0.0839    0.7740 O   0  0  0  0  0  0  0  0  0  0  0  0
    4.5475   -1.8981    1.4567 O   0  0  0  0  0  0  0  0  0  0  0  0
    3.6106   -1.7042   -0.6799 O   0  0  0  0  0  0  0  0  0  0  0  0
    2.5456   -1.3646    2.4020 O   0  0  0  0  0  0  0  0  0  0  0  0
    3.1076   -1.5438    0.7757 P   0  0  0  0  0  0  0  0  0  0  0  0
   -0.7358   -2.1333    1.9123 H   0  0  0  0  0  0  0  0  0  0  0  0
    1.5455   -2.8260   -0.0067 H   0  0  0  0  0  0  0  0  0  0  0  0
   -0.9369   -1.0782   -0.4623 H   0  0  0  0  0  0  0  0  0  0  0  0
    0.8750   -1.2065    3.5391 H   0  0  0  0  0  0  0  0  0  0  0  0
    0.8720   -0.1940    2.1331 H   0  0  0  0  0  0  0  0  0  0  0  0
    0.6068    0.4054    0.4171 H   0  0  0  0  0  0  0  0  0  0  0  0
    1.5853   -3.6823    2.4687 H   0  0  0  0  0  0  0  0  0  0  0  0
   -1.0409   -3.6370   -0.2792 H   0  0  0  0  0  0  0  0  0  0  0  0
    1.1944   -1.8227   -2.1735 H   0  0  0  0  0  0  0  0  0  0  0  0
    0.4038    0.5142   -2.2493 H   0  0  0  0  0  0  0  0  0  0  0  0
    2.7672    0.4064   -0.0150 H   0  0  0  0  0  0  0  0  0  0  0  0
    4.4853   -1.8291    2.4239 H   0  0  0  0  0  0  0  0  0  0  0  0
  1 18  1  0  0  0  0
  1 19  1  0  0  0  0
  2  1  1  0  0  0  0
  2  6  1  0  0  0  0
  2 15  1  1  0  0  0
  3  7  1  0  0  0  0
  3 16  1  6  0  0  0
  3  4  1  0  0  0  0
  3  2  1  0  0  0  0
  4  8  1  0  0  0  0
  4 17  1  1  0  0  0
  5  4  1  0  0  0  0
  5 20  1  0  0  0  0
  6 21  1  0  0  0  0
  7 22  1  0  0  0  0
  8 23  1  0  0  0  0
  9  5  1  0  0  0  0
  9 24  1  0  0  0  0
 10 25  1  0  0  0  0
 11 26  1  0  0  0  0
 13  1  1  0  0  0  0
 14 10  1  0  0  0  0
 14 11  1  0  0  0  0
 14 12  2  0  0  0  0
 14 13  1  0  0  0  0
M  END
>  <DRUGBANK_ID>
DB03855

>  <SECONDARY_ACCESSION_NUMBERS>
EXPT03133

>  <COMMON_NAME>
L-Threonohydroxamate 4-Phosphate

$$$$
