
 OpenBabel10282417133D

 37 38  0  0  1  0  0  0  0  0999 V2000
   -1.1599    3.3039    3.9911 C   0  0  0  0  0  0  0  0  0  0  0  0
   -7.4222   -1.2167    4.2837 C   0  0  0  0  0  0  0  0  0  0  0  0
   -6.5033   -0.1005    4.7416 C   0  0  2  0  0  0  0  0  0  0  0  0
   -2.5173    2.6683    4.2485 C   0  0  1  0  0  0  0  0  0  0  0  0
   -3.0268    2.0205    2.9811 C   0  0  1  0  0  0  0  0  0  0  0  0
   -4.0282    1.0738    3.5567 C   0  0  2  0  0  0  0  0  0  0  0  0
   -4.8637   -1.9197    5.5386 C   0  0  2  0  0  0  0  0  0  0  0  0
   -5.4315   -0.5068    5.7774 C   0  0  1  0  0  0  0  0  0  0  0  0
   -5.9727   -2.8942    5.1029 C   0  0  2  0  0  0  0  0  0  0  0  0
   -3.4182    0.6186    4.8911 C   0  0  1  0  0  0  0  0  0  0  0  0
   -0.9931    4.4549    4.8118 O   0  0  0  0  0  0  0  0  0  0  0  0
   -7.1780    1.1060    5.0801 O   0  0  0  0  0  0  0  0  0  0  0  0
   -3.6300    2.9582    2.0944 O   0  0  0  0  0  0  0  0  0  0  0  0
   -4.3224    0.0158    2.6421 O   0  0  0  0  0  0  0  0  0  0  0  0
   -4.1645   -2.3839    6.7042 O   0  0  0  0  0  0  0  0  0  0  0  0
   -5.4179   -4.1468    4.7323 O   0  0  0  0  0  0  0  0  0  0  0  0
   -6.6857   -2.3981    3.9840 O   0  0  0  0  0  0  0  0  0  0  0  0
   -2.4396    1.6245    5.2404 O   0  0  0  0  0  0  0  0  0  0  0  0
   -4.3911    0.4941    5.9370 O   0  0  0  0  0  0  0  0  0  0  0  0
   -6.0342    0.1331    3.8117 H   0  0  0  0  0  0  0  0  0  0  0  0
   -3.2279    3.4116    4.6326 H   0  0  0  0  0  0  0  0  0  0  0  0
   -2.2595    1.4669    2.4308 H   0  0  0  0  0  0  0  0  0  0  0  0
   -4.9387    1.6586    3.7375 H   0  0  0  0  0  0  0  0  0  0  0  0
   -4.1100   -1.9048    4.7484 H   0  0  0  0  0  0  0  0  0  0  0  0
   -5.9269   -0.5118    6.7592 H   0  0  0  0  0  0  0  0  0  0  0  0
   -6.6671   -3.0868    5.9262 H   0  0  0  0  0  0  0  0  0  0  0  0
   -2.8588   -0.3164    4.7947 H   0  0  0  0  0  0  0  0  0  0  0  0
   -1.0763    3.6320    2.9498 H   0  0  0  0  0  0  0  0  0  0  0  0
   -0.3450    2.6065    4.2074 H   0  0  0  0  0  0  0  0  0  0  0  0
   -8.2243   -1.4205    4.9941 H   0  0  0  0  0  0  0  0  0  0  0  0
   -7.8968   -0.8914    3.3480 H   0  0  0  0  0  0  0  0  0  0  0  0
   -1.1366    4.1678    5.7304 H   0  0  0  0  0  0  0  0  0  0  0  0
   -7.6918    0.9807    5.9004 H   0  0  0  0  0  0  0  0  0  0  0  0
   -4.4043    3.3554    2.5373 H   0  0  0  0  0  0  0  0  0  0  0  0
   -3.5705   -0.6005    2.5920 H   0  0  0  0  0  0  0  0  0  0  0  0
   -4.7845   -2.4223    7.4537 H   0  0  0  0  0  0  0  0  0  0  0  0
   -4.7459   -3.9569    4.0567 H   0  0  0  0  0  0  0  0  0  0  0  0
  1 28  1  0  0  0  0
  1 29  1  0  0  0  0
  2 30  1  0  0  0  0
  2 31  1  0  0  0  0
  3  2  1  0  0  0  0
  3 12  1  0  0  0  0
  3 20  1  6  0  0  0
  4 21  1  1  0  0  0
  4  1  1  0  0  0  0
  5  4  1  0  0  0  0
  5 13  1  0  0  0  0
  5 22  1  6  0  0  0
  6  5  1  0  0  0  0
  6 14  1  0  0  0  0
  6 23  1  1  0  0  0
  7 15  1  0  0  0  0
  7 24  1  6  0  0  0
  8  3  1  0  0  0  0
  8  7  1  0  0  0  0
  8 25  1  1  0  0  0
  8 19  1  0  0  0  0
  9  7  1  0  0  0  0
  9 16  1  0  0  0  0
  9 26  1  1  0  0  0
 10  6  1  0  0  0  0
 10 27  1  6  0  0  0
 10 19  1  0  0  0  0
 11  1  1  0  0  0  0
 11 32  1  0  0  0  0
 12 33  1  0  0  0  0
 13 34  1  0  0  0  0
 14 35  1  0  0  0  0
 15 36  1  0  0  0  0
 16 37  1  0  0  0  0
 17  2  1  0  0  0  0
 17  9  1  0  0  0  0
 18  4  1  0  0  0  0
 18 10  1  0  0  0  0
M  END
>  <DRUGBANK_ID>
DB03870

>  <SECONDARY_ACCESSION_NUMBERS>
EXPT01971

>  <COMMON_NAME>
Ara-Alpha(1,3)-Xyl

$$$$
