LZ5
 OpenBabel10282417173D

 23 24  0  0  0  0  0  0  0  0999 V2000
    1.1527    0.1613   -0.0721 O   0  0  0  0  0  0  0  0  0  0  0  0
    2.3807    0.0312   -0.0076 C   0  0  0  0  0  0  0  0  0  0  0  0
    3.1443    1.0567    0.5292 N   0  0  0  0  0  0  0  0  0  0  0  0
    4.5402    1.2085    0.4607 C   0  0  0  0  0  0  0  0  0  0  0  0
    5.2522    0.8228   -0.6788 C   0  0  0  0  0  0  0  0  0  0  0  0
    6.6382    0.9202   -0.7219 C   0  0  0  0  0  0  0  0  0  0  0  0
    7.3221    1.4655    0.3577 C   0  0  0  0  0  0  0  0  0  0  0  0
    6.6152    1.9242    1.4710 C   0  0  0  0  0  0  0  0  0  0  0  0
    5.2248    1.7799    1.5341 C   0  0  0  0  0  0  0  0  0  0  0  0
    3.0491   -1.2025   -0.4677 C   0  0  0  0  0  0  0  0  0  0  0  0
    2.7833   -1.9122   -1.6696 C   0  0  0  0  0  0  0  0  0  0  0  0
    3.7088   -2.9271   -1.7101 C   0  0  0  0  0  0  0  0  0  0  0  0
    4.4479   -2.8037   -0.5731 N   0  0  0  0  0  0  0  0  0  0  0  0
    4.0474   -1.7992    0.2177 N   0  0  0  0  0  0  0  0  0  0  0  0
    2.6104    1.7743    1.0011 H   0  0  0  0  0  0  0  0  0  0  0  0
    4.7388    0.4332   -1.5514 H   0  0  0  0  0  0  0  0  0  0  0  0
    7.1696    0.5706   -1.6015 H   0  0  0  0  0  0  0  0  0  0  0  0
    8.4058    1.5309    0.3296 H   0  0  0  0  0  0  0  0  0  0  0  0
    7.1543    2.3801    2.2972 H   0  0  0  0  0  0  0  0  0  0  0  0
    4.7061    2.0472    2.4513 H   0  0  0  0  0  0  0  0  0  0  0  0
    2.0404   -1.6736   -2.4173 H   0  0  0  0  0  0  0  0  0  0  0  0
    3.9071   -3.7050   -2.4329 H   0  0  0  0  0  0  0  0  0  0  0  0
    5.2366   -3.3667   -0.2698 H   0  0  0  0  0  0  0  0  0  0  0  0
  1  2  2  0  0  0  0
  2  3  1  0  0  0  0
  2 10  1  0  0  0  0
  3  4  1  0  0  0  0
  3 15  1  0  0  0  0
  4  5  1  0  0  0  0
  4  9  2  0  0  0  0
  5  6  2  0  0  0  0
  5 16  1  0  0  0  0
  6  7  1  0  0  0  0
  6 17  1  0  0  0  0
  7  8  2  0  0  0  0
  7 18  1  0  0  0  0
  8  9  1  0  0  0  0
  8 19  1  0  0  0  0
  9 20  1  0  0  0  0
 10 11  1  0  0  0  0
 10 14  2  0  0  0  0
 11 12  2  0  0  0  0
 11 21  1  0  0  0  0
 12 13  1  0  0  0  0
 12 22  1  0  0  0  0
 13 14  1  0  0  0  0
 13 23  1  0  0  0  0
M  END
>  <DRUGBANK_ID>
DB08135

>  <COMMON_NAME>
N-phenyl-1H-pyrazole-3-carboxamide

>  <UNII>
LB4UGM0L6N

$$$$
