
 OpenBabel10282417133D

134133  0  0  1  0  0  0  0  0999 V2000
    1.0949    0.0786   -0.0317 C   0  0  0  0  0  0  0  0  0  0  0  0
    1.0902   -2.3348   -0.4473 C   0  0  0  0  0  0  0  0  0  0  0  0
   -3.1952   -9.1362   -9.9676 C   0  0  0  0  0  0  0  0  0  0  0  0
   -3.0665   -6.6959   -9.6582 C   0  0  0  0  0  0  0  0  0  0  0  0
   -3.0816   -0.0375   -3.8456 C   0  0  0  0  0  0  0  0  0  0  0  0
    1.4413   -9.3752   -6.0353 C   0  0  0  0  0  0  0  0  0  0  0  0
    1.4658   -1.9212   -7.5970 C   0  0  0  0  0  0  0  0  0  0  0  0
    1.4900   -4.7565   -8.1623 C   0  0  0  0  0  0  0  0  0  0  0  0
   -0.6538   -7.1890   -4.1973 C   0  0  0  0  0  0  0  0  0  0  0  0
   -2.2786   -4.8925   -1.7648 C   0  0  0  0  0  0  0  0  0  0  0  0
   -1.5121    0.4519   -1.4001 C   0  0  0  0  0  0  0  0  0  0  0  0
   -1.7471   -9.6492   -7.3858 C   0  0  0  0  0  0  0  0  0  0  0  0
    0.7043    0.1789   -5.2973 C   0  0  0  0  0  0  0  0  0  0  0  0
    0.6006   -7.0786   -8.9790 C   0  0  0  0  0  0  0  0  0  0  0  0
    1.6708   -4.8975   -4.2008 C   0  0  0  0  0  0  0  0  0  0  0  0
   -2.3881   -5.5487   -6.5410 C   0  0  0  0  0  0  0  0  0  0  0  0
   -0.9619   -0.9087   -0.9209 C   0  0  0  0  0  0  0  0  0  0  0  0
   -2.4980   -8.3869   -7.7727 C   0  0  0  0  0  0  0  0  0  0  0  0
   -1.0151    0.9819   -2.7564 C   0  0  0  0  0  0  0  0  0  0  0  0
   -0.2866   -9.6812   -7.8362 C   0  0  0  0  0  0  0  0  0  0  0  0
   -0.8416    0.3501   -5.2459 C   0  0  0  0  0  0  0  0  0  0  0  0
    1.3850   -7.7985   -7.9108 C   0  0  0  0  0  0  0  0  0  0  0  0
    1.5012   -1.0983   -4.9784 C   0  0  0  0  0  0  0  0  0  0  0  0
   -0.4061   -6.2686   -8.3666 C   0  0  0  0  0  0  0  0  0  0  0  0
    2.1674   -4.0598   -5.5825 C   0  0  0  0  0  0  0  0  0  0  0  0
   -0.9265   -4.5856   -7.4335 C   0  0  0  0  0  0  0  0  0  0  0  0
    0.0724   -5.3630   -4.2805 C   0  0  0  0  0  0  0  0  0  0  0  0
   -2.5432   -6.4941   -4.6734 C   0  0  0  0  0  0  0  0  0  0  0  0
   -3.3353   -4.9446   -4.8820 C   0  0  0  0  0  0  0  0  0  0  0  0
   -0.2267   -4.0060   -2.8216 C   0  0  0  0  0  0  0  0  0  0  0  0
   -4.1648   -3.7264   -5.5188 C   0  0  0  0  0  0  0  0  0  0  0  0
    0.3061   -3.1363   -4.3120 C   0  0  0  0  0  0  0  0  0  0  0  0
   -2.2786   -2.1467   -3.9957 C   0  0  0  0  0  0  0  0  0  0  0  0
   -2.3767   -2.6102   -6.6455 C   0  0  0  0  0  0  0  0  0  0  0  0
    0.5604   -0.9991   -0.9431 C   0  0  0  0  0  0  0  0  0  0  0  0
   -2.4653   -8.0397   -9.2616 C   0  0  0  0  0  0  0  0  0  0  0  0
   -1.4991    0.1645   -3.8768 C   0  0  2  0  0  0  0  0  0  0  0  0
    0.5319   -8.6876   -7.0258 C   0  0  2  0  0  0  0  0  0  0  0  0
    1.4450   -2.3531   -6.1641 C   0  0  2  0  0  0  0  0  0  0  0  0
    0.2873   -5.3612   -7.5267 C   0  0  2  0  0  0  0  0  0  0  0  0
   -1.2638   -5.4401   -4.9562 C   0  0  2  0  0  0  0  0  0  0  0  0
   -1.9381   -5.0761   -3.2138 C   0  0  2  0  0  0  0  0  0  0  0  0
   -1.7999   -2.3086   -5.3276 C   0  0  2  0  0  0  0  0  0  0  0  0
   -2.0275   -2.8249   -2.9052 O   0  0  0  0  0  0  0  0  0  0  0  0
   -3.6900   -3.1399   -6.7370 O   0  0  0  0  0  0  0  0  0  0  0  0
   -0.4845   -2.2170   -4.9671 O   0  0  0  0  0  0  0  0  0  0  0  0
   -0.8213   -0.5323   -3.4270 H   0  0  0  0  0  0  0  0  0  0  0  0
   -0.1290   -8.0707   -6.4216 H   0  0  0  0  0  0  0  0  0  0  0  0
    0.3723   -2.3125   -6.4551 H   0  0  0  0  0  0  0  0  0  0  0  0
    0.5456   -5.9290   -6.6282 H   0  0  0  0  0  0  0  0  0  0  0  0
   -0.8030   -5.6157   -5.8696 H   0  0  0  0  0  0  0  0  0  0  0  0
   -2.6073   -4.2916   -3.5381 H   0  0  0  0  0  0  0  0  0  0  0  0
   -2.0005   -1.3884   -5.7546 H   0  0  0  0  0  0  0  0  0  0  0  0
    0.7190   -0.0994    0.9801 H   0  0  0  0  0  0  0  0  0  0  0  0
    0.7734    1.0694   -0.3540 H   0  0  0  0  0  0  0  0  0  0  0  0
    2.1824    0.0713   -0.0351 H   0  0  0  0  0  0  0  0  0  0  0  0
    0.7220   -2.5662    0.5463 H   0  0  0  0  0  0  0  0  0  0  0  0
    0.7722   -3.1915   -0.9974 H   0  0  0  0  0  0  0  0  0  0  0  0
    2.1777   -2.3677   -0.5146 H   0  0  0  0  0  0  0  0  0  0  0  0
   -4.2170   -9.1247   -9.5975 H   0  0  0  0  0  0  0  0  0  0  0  0
   -3.1461   -8.9741  -11.0421 H   0  0  0  0  0  0  0  0  0  0  0  0
   -2.7234  -10.0975   -9.7553 H   0  0  0  0  0  0  0  0  0  0  0  0
   -2.6424   -5.8011   -9.2315 H   0  0  0  0  0  0  0  0  0  0  0  0
   -2.9594   -6.5324  -10.7350 H   0  0  0  0  0  0  0  0  0  0  0  0
   -4.0841   -6.6244   -9.2999 H   0  0  0  0  0  0  0  0  0  0  0  0
   -3.5689    0.8656   -4.1046 H   0  0  0  0  0  0  0  0  0  0  0  0
   -3.5426   -0.6966   -4.6193 H   0  0  0  0  0  0  0  0  0  0  0  0
   -3.4456   -0.4837   -2.8856 H   0  0  0  0  0  0  0  0  0  0  0  0
    1.9689  -10.1777   -6.5482 H   0  0  0  0  0  0  0  0  0  0  0  0
    2.1696   -8.6604   -5.6406 H   0  0  0  0  0  0  0  0  0  0  0  0
    0.8752   -9.7860   -5.1952 H   0  0  0  0  0  0  0  0  0  0  0  0
    2.5237   -1.9604   -7.6884 H   0  0  0  0  0  0  0  0  0  0  0  0
    0.8357   -2.5965   -8.2148 H   0  0  0  0  0  0  0  0  0  0  0  0
    0.9031   -0.9908   -7.7486 H   0  0  0  0  0  0  0  0  0  0  0  0
    2.2712   -5.4839   -8.0055 H   0  0  0  0  0  0  0  0  0  0  0  0
    1.2494   -4.4345   -9.1613 H   0  0  0  0  0  0  0  0  0  0  0  0
    2.0062   -3.9478   -7.7077 H   0  0  0  0  0  0  0  0  0  0  0  0
   -1.0028   -7.2358   -3.1312 H   0  0  0  0  0  0  0  0  0  0  0  0
   -1.0529   -8.1043   -4.6261 H   0  0  0  0  0  0  0  0  0  0  0  0
    0.4325   -7.2750   -4.2983 H   0  0  0  0  0  0  0  0  0  0  0  0
   -1.7072   -5.7104   -1.4054 H   0  0  0  0  0  0  0  0  0  0  0  0
   -1.7697   -3.9965   -1.2982 H   0  0  0  0  0  0  0  0  0  0  0  0
   -3.3298   -4.6217   -1.7826 H   0  0  0  0  0  0  0  0  0  0  0  0
   -2.6003    0.4049   -1.3727 H   0  0  0  0  0  0  0  0  0  0  0  0
   -1.2157    1.2051   -0.6861 H   0  0  0  0  0  0  0  0  0  0  0  0
   -2.2837  -10.4936   -7.7948 H   0  0  0  0  0  0  0  0  0  0  0  0
   -1.7582   -9.7305   -6.2933 H   0  0  0  0  0  0  0  0  0  0  0  0
    0.9666    0.3737   -6.3171 H   0  0  0  0  0  0  0  0  0  0  0  0
    1.0701    0.9092   -4.5963 H   0  0  0  0  0  0  0  0  0  0  0  0
    0.1444   -7.7172   -9.6835 H   0  0  0  0  0  0  0  0  0  0  0  0
    1.1548   -6.3883   -9.5996 H   0  0  0  0  0  0  0  0  0  0  0  0
    2.0671   -5.8265   -3.7799 H   0  0  0  0  0  0  0  0  0  0  0  0
    1.9847   -4.2212   -3.3451 H   0  0  0  0  0  0  0  0  0  0  0  0
   -3.1745   -5.6710   -7.2703 H   0  0  0  0  0  0  0  0  0  0  0  0
   -2.4679   -4.5753   -6.2040 H   0  0  0  0  0  0  0  0  0  0  0  0
   -1.3676   -1.6949   -1.5089 H   0  0  0  0  0  0  0  0  0  0  0  0
   -1.3601   -1.1666    0.0642 H   0  0  0  0  0  0  0  0  0  0  0  0
   -3.5109   -8.3052   -7.3880 H   0  0  0  0  0  0  0  0  0  0  0  0
   -2.0656   -7.6943   -7.1100 H   0  0  0  0  0  0  0  0  0  0  0  0
   -1.3450    1.9574   -3.0435 H   0  0  0  0  0  0  0  0  0  0  0  0
    0.0825    0.9068   -2.7715 H   0  0  0  0  0  0  0  0  0  0  0  0
   -0.1996   -9.5228   -8.9147 H   0  0  0  0  0  0  0  0  0  0  0  0
    0.1236  -10.6769   -7.6791 H   0  0  0  0  0  0  0  0  0  0  0  0
   -1.1567   -0.1853   -6.1307 H   0  0  0  0  0  0  0  0  0  0  0  0
   -1.2485    1.2854   -5.5718 H   0  0  0  0  0  0  0  0  0  0  0  0
    2.1489   -8.3264   -8.4494 H   0  0  0  0  0  0  0  0  0  0  0  0
    1.9103   -7.1391   -7.2068 H   0  0  0  0  0  0  0  0  0  0  0  0
    2.5565   -1.0852   -4.7552 H   0  0  0  0  0  0  0  0  0  0  0  0
    1.1067   -1.2827   -3.9393 H   0  0  0  0  0  0  0  0  0  0  0  0
   -0.9998   -6.7038   -7.6143 H   0  0  0  0  0  0  0  0  0  0  0  0
   -0.9830   -5.7185   -9.0858 H   0  0  0  0  0  0  0  0  0  0  0  0
    1.8427   -4.9250   -6.1204 H   0  0  0  0  0  0  0  0  0  0  0  0
    3.2412   -4.0306   -5.6161 H   0  0  0  0  0  0  0  0  0  0  0  0
   -1.2146   -4.0277   -8.3583 H   0  0  0  0  0  0  0  0  0  0  0  0
   -0.3630   -3.8042   -6.9406 H   0  0  0  0  0  0  0  0  0  0  0  0
   -0.1175   -5.7522   -3.2772 H   0  0  0  0  0  0  0  0  0  0  0  0
   -0.6176   -4.5302   -4.5273 H   0  0  0  0  0  0  0  0  0  0  0  0
   -2.0259   -7.1592   -5.3944 H   0  0  0  0  0  0  0  0  0  0  0  0
   -2.9226   -6.8136   -3.6811 H   0  0  0  0  0  0  0  0  0  0  0  0
   -4.0362   -5.7846   -5.4960 H   0  0  0  0  0  0  0  0  0  0  0  0
   -3.9864   -5.2467   -3.9270 H   0  0  0  0  0  0  0  0  0  0  0  0
    0.4939   -4.6625   -2.2586 H   0  0  0  0  0  0  0  0  0  0  0  0
   -0.0614   -3.0197   -2.4115 H   0  0  0  0  0  0  0  0  0  0  0  0
   -5.2544   -3.8825   -5.5166 H   0  0  0  0  0  0  0  0  0  0  0  0
   -4.0961   -2.9982   -4.7869 H   0  0  0  0  0  0  0  0  0  0  0  0
    0.3548   -3.7289   -5.2627 H   0  0  0  0  0  0  0  0  0  0  0  0
    1.3661   -2.8814   -4.1514 H   0  0  0  0  0  0  0  0  0  0  0  0
   -1.4187   -1.7811   -3.5223 H   0  0  0  0  0  0  0  0  0  0  0  0
   -3.2685   -2.1758   -3.7656 H   0  0  0  0  0  0  0  0  0  0  0  0
   -1.7125   -3.3395   -6.4162 H   0  0  0  0  0  0  0  0  0  0  0  0
   -1.8625   -2.3342   -7.5969 H   0  0  0  0  0  0  0  0  0  0  0  0
    0.9434   -0.8324   -1.9526 H   0  0  0  0  0  0  0  0  0  0  0  0
   -1.4904   -8.1102   -9.7035 H   0  0  0  0  0  0  0  0  0  0  0  0
   -1.4853   -3.3043   -3.5498 H   0  0  0  0  0  0  0  0  0  0  0  0
  1 54  1  0  0  0  0
  1 55  1  0  0  0  0
  1 56  1  0  0  0  0
  2 57  1  0  0  0  0
  2 58  1  0  0  0  0
  2 59  1  0  0  0  0
  3 60  1  0  0  0  0
  3 61  1  0  0  0  0
  3 62  1  0  0  0  0
  4 63  1  0  0  0  0
  4 64  1  0  0  0  0
  4 65  1  0  0  0  0
  5 66  1  0  0  0  0
  5 67  1  0  0  0  0
  5 68  1  0  0  0  0
  6 69  1  0  0  0  0
  6 70  1  0  0  0  0
  6 71  1  0  0  0  0
  7 72  1  0  0  0  0
  7 73  1  0  0  0  0
  7 74  1  0  0  0  0
  8 75  1  0  0  0  0
  8 76  1  0  0  0  0
  8 77  1  0  0  0  0
  9 78  1  0  0  0  0
  9 79  1  0  0  0  0
  9 80  1  0  0  0  0
 10 81  1  0  0  0  0
 10 82  1  0  0  0  0
 10 83  1  0  0  0  0
 11 84  1  0  0  0  0
 11 85  1  0  0  0  0
 12 86  1  0  0  0  0
 12 87  1  0  0  0  0
 13 88  1  0  0  0  0
 13 89  1  0  0  0  0
 14 90  1  0  0  0  0
 14 91  1  0  0  0  0
 15 92  1  0  0  0  0
 15 93  1  0  0  0  0
 16 94  1  0  0  0  0
 16 95  1  0  0  0  0
 17 11  1  0  0  0  0
 17 96  1  0  0  0  0
 17 97  1  0  0  0  0
 18 12  1  0  0  0  0
 18 98  1  0  0  0  0
 18 99  1  0  0  0  0
 19 11  1  0  0  0  0
 19100  1  0  0  0  0
 19101  1  0  0  0  0
 20 12  1  0  0  0  0
 20102  1  0  0  0  0
 20103  1  0  0  0  0
 21 13  1  0  0  0  0
 21104  1  0  0  0  0
 21105  1  0  0  0  0
 22 14  1  0  0  0  0
 22106  1  0  0  0  0
 22107  1  0  0  0  0
 23 13  1  0  0  0  0
 23108  1  0  0  0  0
 23109  1  0  0  0  0
 24 14  1  0  0  0  0
 24110  1  0  0  0  0
 24111  1  0  0  0  0
 25 15  1  0  0  0  0
 25112  1  0  0  0  0
 25113  1  0  0  0  0
 26 16  1  0  0  0  0
 26114  1  0  0  0  0
 26115  1  0  0  0  0
 27 15  1  0  0  0  0
 27116  1  0  0  0  0
 27117  1  0  0  0  0
 28 16  1  0  0  0  0
 28118  1  0  0  0  0
 28119  1  0  0  0  0
 29120  1  0  0  0  0
 29121  1  0  0  0  0
 30122  1  0  0  0  0
 30123  1  0  0  0  0
 31 29  1  0  0  0  0
 31124  1  0  0  0  0
 31125  1  0  0  0  0
 32 30  1  0  0  0  0
 32126  1  0  0  0  0
 32127  1  0  0  0  0
 33128  1  0  0  0  0
 33129  1  0  0  0  0
 34130  1  0  0  0  0
 34131  1  0  0  0  0
 35  1  1  0  0  0  0
 35  2  1  0  0  0  0
 35 17  1  0  0  0  0
 35132  1  0  0  0  0
 36  3  1  0  0  0  0
 36  4  1  0  0  0  0
 36 18  1  0  0  0  0
 36133  1  0  0  0  0
 37  5  1  0  0  0  0
 37 19  1  0  0  0  0
 37 21  1  0  0  0  0
 37 47  1  1  0  0  0
 38 22  1  0  0  0  0
 38 48  1  1  0  0  0
 38 20  1  0  0  0  0
 38  6  1  0  0  0  0
 39  7  1  0  0  0  0
 39 23  1  0  0  0  0
 39 25  1  0  0  0  0
 39 49  1  1  0  0  0
 40 26  1  0  0  0  0
 40 50  1  1  0  0  0
 40 24  1  0  0  0  0
 40  8  1  0  0  0  0
 41  9  1  0  0  0  0
 41 27  1  0  0  0  0
 41 29  1  0  0  0  0
 41 51  1  6  0  0  0
 42 30  1  0  0  0  0
 42 52  1  6  0  0  0
 42 28  1  0  0  0  0
 42 10  1  0  0  0  0
 43 33  1  0  0  0  0
 43 34  1  0  0  0  0
 43 46  1  0  0  0  0
 43 53  1  6  0  0  0
 44 33  1  0  0  0  0
 44134  1  0  0  0  0
 45 31  1  0  0  0  0
 45 34  1  0  0  0  0
 46 32  1  0  0  0  0
M  END
>  <DRUGBANK_ID>
DB03646

>  <SECONDARY_ACCESSION_NUMBERS>
EXPT01991

>  <COMMON_NAME>
2,3-di-O-phytanyl-sn-glycerol

>  <SYNONYMS>
2,3-Di-O-phytanyl-sn-glycerol; 2,3-diphytanyl-sn-glycerol; Archaeol

$$$$
