
 OpenBabel10282417193D

 49 51  0  0  0  0  0  0  0  0999 V2000
    1.1285    0.0042   -0.0015 C   0  0  0  0  0  0  0  0  0  0  0  0
    0.9101    0.2101   -1.5010 C   0  0  0  0  0  0  0  0  0  0  0  0
    1.0233   -1.0928   -2.3113 C   0  0  0  0  0  0  0  0  0  0  0  0
    0.3391   -2.3688   -1.7601 C   0  0  0  0  0  0  0  0  0  0  0  0
   -1.1382   -2.3871   -1.8178 N   0  0  0  0  0  0  0  0  0  0  0  0
   -1.7919   -3.6192   -1.7552 C   0  0  0  0  0  0  0  0  0  0  0  0
   -3.0993   -3.6744   -1.4329 C   0  0  0  0  0  0  0  0  0  0  0  0
   -3.9182   -2.4623   -1.4884 C   0  0  0  0  0  0  0  0  0  0  0  0
   -3.3122   -1.2846   -1.6517 C   0  0  0  0  0  0  0  0  0  0  0  0
   -1.8700   -1.2570   -1.4240 C   0  0  0  0  0  0  0  0  0  0  0  0
   -1.4730   -0.2884   -0.8242 O   0  0  0  0  0  0  0  0  0  0  0  0
   -4.1014    0.2545   -1.7633 Cl  0  0  0  0  0  0  0  0  0  0  0  0
   -5.2908   -2.5796   -1.5075 N   0  0  0  0  0  0  0  0  0  0  0  0
   -6.0729   -2.9633   -0.3461 C   0  0  0  0  0  0  0  0  0  0  0  0
   -6.9481   -4.1108   -0.8070 C   0  0  0  0  0  0  0  0  0  0  0  0
   -7.8019   -3.7192   -2.0476 C   0  0  0  0  0  0  0  0  0  0  0  0
   -6.9379   -3.0530   -3.1359 C   0  0  0  0  0  0  0  0  0  0  0  0
   -6.0850   -1.9567   -2.5641 C   0  0  0  0  0  0  0  0  0  0  0  0
   -8.5059   -4.9604   -2.5638 C   0  0  0  0  0  0  0  0  0  0  0  0
   -9.3159   -5.6934   -1.6881 C   0  0  0  0  0  0  0  0  0  0  0  0
   -9.7183   -6.9818   -2.0240 C   0  0  0  0  0  0  0  0  0  0  0  0
   -9.4500   -7.4878   -3.2931 C   0  0  0  0  0  0  0  0  0  0  0  0
   -8.8017   -6.6982   -4.2336 C   0  0  0  0  0  0  0  0  0  0  0  0
   -8.2918   -5.4632   -3.8563 C   0  0  0  0  0  0  0  0  0  0  0  0
    0.6381   -0.8882    0.4040 H   0  0  0  0  0  0  0  0  0  0  0  0
    0.7246    0.8439    0.5721 H   0  0  0  0  0  0  0  0  0  0  0  0
    2.1964   -0.0898    0.2008 H   0  0  0  0  0  0  0  0  0  0  0  0
   -0.0316    0.7216   -1.7129 H   0  0  0  0  0  0  0  0  0  0  0  0
    1.6017    0.9651   -1.8823 H   0  0  0  0  0  0  0  0  0  0  0  0
    0.6542   -0.9155   -3.3283 H   0  0  0  0  0  0  0  0  0  0  0  0
    2.0975   -1.2975   -2.3961 H   0  0  0  0  0  0  0  0  0  0  0  0
    0.7138   -3.2167   -2.3551 H   0  0  0  0  0  0  0  0  0  0  0  0
    0.6531   -2.5850   -0.7328 H   0  0  0  0  0  0  0  0  0  0  0  0
   -1.1928   -4.5191   -1.8798 H   0  0  0  0  0  0  0  0  0  0  0  0
   -3.5773   -4.6211   -1.2019 H   0  0  0  0  0  0  0  0  0  0  0  0
   -6.6856   -2.1188   -0.0021 H   0  0  0  0  0  0  0  0  0  0  0  0
   -5.4434   -3.2648    0.4997 H   0  0  0  0  0  0  0  0  0  0  0  0
   -7.5768   -4.4332    0.0290 H   0  0  0  0  0  0  0  0  0  0  0  0
   -6.2978   -4.9582   -1.0675 H   0  0  0  0  0  0  0  0  0  0  0  0
   -8.5596   -2.9888   -1.7308 H   0  0  0  0  0  0  0  0  0  0  0  0
   -6.2441   -3.7858   -3.5724 H   0  0  0  0  0  0  0  0  0  0  0  0
   -7.5567   -2.6528   -3.9458 H   0  0  0  0  0  0  0  0  0  0  0  0
   -5.4544   -1.5672   -3.3732 H   0  0  0  0  0  0  0  0  0  0  0  0
   -6.6911   -1.1299   -2.1764 H   0  0  0  0  0  0  0  0  0  0  0  0
   -9.5840   -5.2880   -0.7150 H   0  0  0  0  0  0  0  0  0  0  0  0
  -10.2288   -7.5951   -1.2884 H   0  0  0  0  0  0  0  0  0  0  0  0
   -9.7512   -8.4967   -3.5528 H   0  0  0  0  0  0  0  0  0  0  0  0
   -8.6559   -7.0485   -5.2506 H   0  0  0  0  0  0  0  0  0  0  0  0
   -7.6942   -4.9297   -4.5901 H   0  0  0  0  0  0  0  0  0  0  0  0
  1  2  1  0  0  0  0
  1 25  1  0  0  0  0
  1 26  1  0  0  0  0
  1 27  1  0  0  0  0
  2  3  1  0  0  0  0
  2 28  1  0  0  0  0
  2 29  1  0  0  0  0
  3  4  1  0  0  0  0
  3 30  1  0  0  0  0
  3 31  1  0  0  0  0
  4  5  1  0  0  0  0
  4 32  1  0  0  0  0
  4 33  1  0  0  0  0
  5  6  1  0  0  0  0
  5 10  1  0  0  0  0
  6  7  2  0  0  0  0
  6 34  1  0  0  0  0
  7  8  1  0  0  0  0
  7 35  1  0  0  0  0
  8  9  2  0  0  0  0
  8 13  1  0  0  0  0
  9 10  1  0  0  0  0
  9 12  1  0  0  0  0
 10 11  2  0  0  0  0
 13 14  1  0  0  0  0
 13 18  1  0  0  0  0
 14 15  1  0  0  0  0
 14 36  1  0  0  0  0
 14 37  1  0  0  0  0
 15 16  1  0  0  0  0
 15 38  1  0  0  0  0
 15 39  1  0  0  0  0
 16 17  1  0  0  0  0
 16 19  1  0  0  0  0
 16 40  1  0  0  0  0
 17 18  1  0  0  0  0
 17 41  1  0  0  0  0
 17 42  1  0  0  0  0
 18 43  1  0  0  0  0
 18 44  1  0  0  0  0
 19 20  2  0  0  0  0
 19 24  1  0  0  0  0
 20 21  1  0  0  0  0
 20 45  1  0  0  0  0
 21 22  2  0  0  0  0
 21 46  1  0  0  0  0
 22 23  1  0  0  0  0
 22 47  1  0  0  0  0
 23 24  2  0  0  0  0
 23 48  1  0  0  0  0
 24 49  1  0  0  0  0
M  END
>  <DRUGBANK_ID>
DB12059

>  <COMMON_NAME>
JNJ-40411813

>  <CAS_NUMBER>
1127498-03-6

>  <UNII>
612BYT76F3

$$$$
