
 OpenBabel10282417193D

 83 88  0  0  0  0  0  0  0  0999 V2000
    2.6041    0.1760   -0.1095 C   0  0  0  0  0  0  0  0  0  0  0  0
    1.2364    0.2959   -0.6534 N   0  0  0  0  0  0  0  0  0  0  0  0
    0.5653   -0.9085   -0.1968 C   0  0  0  0  0  0  0  0  0  0  0  0
   -0.9392   -0.9297   -0.4313 C   0  0  0  0  0  0  0  0  0  0  0  0
   -1.7054    0.1330    0.2080 N   0  0  0  0  0  0  0  0  0  0  0  0
   -1.0423    1.3909   -0.2066 C   0  0  0  0  0  0  0  0  0  0  0  0
    0.5140    1.4435   -0.0348 C   0  0  0  0  0  0  0  0  0  0  0  0
   -1.9659    0.0215    1.6578 C   0  0  0  0  0  0  0  0  0  0  0  0
   -0.7755   -0.1713    2.6150 C   0  0  0  0  0  0  0  0  0  0  0  0
   -0.1807   -1.5868    2.6262 C   0  0  0  0  0  0  0  0  0  0  0  0
   -1.1786   -2.5296    3.0057 N   0  0  0  0  0  0  0  0  0  0  0  0
   -2.3524   -2.4211    2.1560 C   0  0  0  0  0  0  0  0  0  0  0  0
   -2.9704   -1.0659    2.0112 C   0  0  0  0  0  0  0  0  0  0  0  0
   -0.7374   -3.6210    3.7191 C   0  0  0  0  0  0  0  0  0  0  0  0
    0.3666   -3.6135    4.2742 O   0  0  0  0  0  0  0  0  0  0  0  0
   -1.5371   -4.7094    3.9099 N   0  0  0  0  0  0  0  0  0  0  0  0
   -2.7177   -5.0577    3.2454 C   0  0  0  0  0  0  0  0  0  0  0  0
   -2.7182   -5.0752    1.8488 C   0  0  0  0  0  0  0  0  0  0  0  0
   -3.9248   -4.9206    1.1444 C   0  0  0  0  0  0  0  0  0  0  0  0
   -5.1028   -4.9744    1.8782 C   0  0  0  0  0  0  0  0  0  0  0  0
   -5.0113   -5.0975    3.2629 C   0  0  0  0  0  0  0  0  0  0  0  0
   -3.8473   -5.1343    3.9645 N   0  0  0  0  0  0  0  0  0  0  0  0
   -4.0643   -4.4944   -0.1822 O   0  0  0  0  0  0  0  0  0  0  0  0
   -2.9600   -4.3221   -0.9853 C   0  0  0  0  0  0  0  0  0  0  0  0
   -1.9669   -5.2599   -0.9843 C   0  0  0  0  0  0  0  0  0  0  0  0
   -0.7772   -4.9836   -1.6250 C   0  0  0  0  0  0  0  0  0  0  0  0
   -0.5374   -3.9078   -2.4650 C   0  0  0  0  0  0  0  0  0  0  0  0
   -1.6124   -3.0362   -2.5901 C   0  0  0  0  0  0  0  0  0  0  0  0
   -2.8039   -3.2135   -1.8313 C   0  0  0  0  0  0  0  0  0  0  0  0
   -1.4763   -1.9373   -3.3506 F   0  0  0  0  0  0  0  0  0  0  0  0
    0.6982   -3.6773   -3.1478 N   0  0  0  0  0  0  0  0  0  0  0  0
    1.8520   -4.4396   -3.1767 C   0  0  0  0  0  0  0  0  0  0  0  0
    2.8415   -4.1296   -3.8737 O   0  0  0  0  0  0  0  0  0  0  0  0
    1.9485   -5.6572   -2.2938 C   0  0  0  0  0  0  0  0  0  0  0  0
    2.5008   -6.9742   -2.8770 C   0  0  0  0  0  0  0  0  0  0  0  0
    1.0339   -6.8091   -2.8530 C   0  0  0  0  0  0  0  0  0  0  0  0
    2.1395   -5.1510   -0.8258 C   0  0  0  0  0  0  0  0  0  0  0  0
    2.3653   -3.9468   -0.6582 O   0  0  0  0  0  0  0  0  0  0  0  0
    1.8318   -5.8124    0.3466 N   0  0  0  0  0  0  0  0  0  0  0  0
    1.6999   -7.1679    0.5549 C   0  0  0  0  0  0  0  0  0  0  0  0
    2.5698   -8.0130   -0.1052 C   0  0  0  0  0  0  0  0  0  0  0  0
    2.3127   -9.3684   -0.1755 C   0  0  0  0  0  0  0  0  0  0  0  0
    1.3058   -9.8868    0.6154 C   0  0  0  0  0  0  0  0  0  0  0  0
    0.5479   -9.0617    1.4470 C   0  0  0  0  0  0  0  0  0  0  0  0
    0.7339   -7.6785    1.4128 C   0  0  0  0  0  0  0  0  0  0  0  0
    1.0916  -11.2064    0.6057 F   0  0  0  0  0  0  0  0  0  0  0  0
    3.2137    1.0161   -0.4283 H   0  0  0  0  0  0  0  0  0  0  0  0
    2.6227    0.1250    0.9922 H   0  0  0  0  0  0  0  0  0  0  0  0
    3.0679   -0.7548   -0.4658 H   0  0  0  0  0  0  0  0  0  0  0  0
    1.0042   -1.8577   -0.5165 H   0  0  0  0  0  0  0  0  0  0  0  0
    0.7938   -0.8310    0.8472 H   0  0  0  0  0  0  0  0  0  0  0  0
   -1.0939   -0.8269   -1.5034 H   0  0  0  0  0  0  0  0  0  0  0  0
   -1.3306   -1.9010   -0.1759 H   0  0  0  0  0  0  0  0  0  0  0  0
   -1.2483    1.5103   -1.2800 H   0  0  0  0  0  0  0  0  0  0  0  0
   -1.5255    2.2410    0.2836 H   0  0  0  0  0  0  0  0  0  0  0  0
    0.7457    1.5018    1.0300 H   0  0  0  0  0  0  0  0  0  0  0  0
    0.8915    2.3740   -0.4576 H   0  0  0  0  0  0  0  0  0  0  0  0
   -2.4926    0.9455    1.9353 H   0  0  0  0  0  0  0  0  0  0  0  0
   -0.0252    0.5916    2.4527 H   0  0  0  0  0  0  0  0  0  0  0  0
   -1.1308    0.0264    3.6343 H   0  0  0  0  0  0  0  0  0  0  0  0
    0.0763   -2.0667    1.6845 H   0  0  0  0  0  0  0  0  0  0  0  0
    0.7690   -1.5985    3.1709 H   0  0  0  0  0  0  0  0  0  0  0  0
   -3.1634   -2.9600    2.5974 H   0  0  0  0  0  0  0  0  0  0  0  0
   -2.0850   -2.8391    1.1870 H   0  0  0  0  0  0  0  0  0  0  0  0
   -3.3940   -0.8536    3.0011 H   0  0  0  0  0  0  0  0  0  0  0  0
   -3.8164   -1.1235    1.3145 H   0  0  0  0  0  0  0  0  0  0  0  0
   -1.4071   -5.0865    4.8367 H   0  0  0  0  0  0  0  0  0  0  0  0
   -1.7491   -4.9414    1.3836 H   0  0  0  0  0  0  0  0  0  0  0  0
   -6.0684   -4.8722    1.3949 H   0  0  0  0  0  0  0  0  0  0  0  0
   -5.9111   -5.1223    3.8726 H   0  0  0  0  0  0  0  0  0  0  0  0
   -2.0190   -6.1730   -0.3984 H   0  0  0  0  0  0  0  0  0  0  0  0
   -0.0555   -5.7033   -1.3341 H   0  0  0  0  0  0  0  0  0  0  0  0
   -3.5527   -2.4281   -1.8603 H   0  0  0  0  0  0  0  0  0  0  0  0
    0.7955   -2.7974   -3.6496 H   0  0  0  0  0  0  0  0  0  0  0  0
    3.0324   -6.9402   -3.8189 H   0  0  0  0  0  0  0  0  0  0  0  0
    2.7595   -7.9011   -2.3954 H   0  0  0  0  0  0  0  0  0  0  0  0
    0.4393   -7.4491   -2.2051 H   0  0  0  0  0  0  0  0  0  0  0  0
    0.5345   -6.6689   -3.8139 H   0  0  0  0  0  0  0  0  0  0  0  0
    1.7010   -5.1828    1.1356 H   0  0  0  0  0  0  0  0  0  0  0  0
    3.4367   -7.5850   -0.6017 H   0  0  0  0  0  0  0  0  0  0  0  0
    2.8910   -9.9985   -0.8411 H   0  0  0  0  0  0  0  0  0  0  0  0
   -0.1927   -9.5078    2.1008 H   0  0  0  0  0  0  0  0  0  0  0  0
    0.1042   -7.0279    2.0138 H   0  0  0  0  0  0  0  0  0  0  0  0
  1  2  1  0  0  0  0
  1 47  1  0  0  0  0
  1 48  1  0  0  0  0
  1 49  1  0  0  0  0
  2  3  1  0  0  0  0
  2  7  1  0  0  0  0
  3  4  1  0  0  0  0
  3 50  1  0  0  0  0
  3 51  1  0  0  0  0
  4  5  1  0  0  0  0
  4 52  1  0  0  0  0
  4 53  1  0  0  0  0
  5  6  1  0  0  0  0
  5  8  1  0  0  0  0
  6  7  1  0  0  0  0
  6 54  1  0  0  0  0
  6 55  1  0  0  0  0
  7 56  1  0  0  0  0
  7 57  1  0  0  0  0
  8  9  1  0  0  0  0
  8 13  1  0  0  0  0
  8 58  1  0  0  0  0
  9 10  1  0  0  0  0
  9 59  1  0  0  0  0
  9 60  1  0  0  0  0
 10 11  1  0  0  0  0
 10 61  1  0  0  0  0
 10 62  1  0  0  0  0
 11 12  1  0  0  0  0
 11 14  1  0  0  0  0
 12 13  1  0  0  0  0
 12 63  1  0  0  0  0
 12 64  1  0  0  0  0
 13 65  1  0  0  0  0
 13 66  1  0  0  0  0
 14 15  2  0  0  0  0
 14 16  1  0  0  0  0
 16 17  1  0  0  0  0
 16 67  1  0  0  0  0
 17 18  2  0  0  0  0
 17 22  1  0  0  0  0
 18 19  1  0  0  0  0
 18 68  1  0  0  0  0
 19 20  2  0  0  0  0
 19 23  1  0  0  0  0
 20 21  1  0  0  0  0
 20 69  1  0  0  0  0
 21 22  2  0  0  0  0
 21 70  1  0  0  0  0
 23 24  1  0  0  0  0
 24 25  2  0  0  0  0
 24 29  1  0  0  0  0
 25 26  1  0  0  0  0
 25 71  1  0  0  0  0
 26 27  2  0  0  0  0
 26 72  1  0  0  0  0
 27 28  1  0  0  0  0
 27 31  1  0  0  0  0
 28 29  2  0  0  0  0
 28 30  1  0  0  0  0
 29 73  1  0  0  0  0
 31 32  1  0  0  0  0
 31 74  1  0  0  0  0
 32 33  2  0  0  0  0
 32 34  1  0  0  0  0
 34 35  1  0  0  0  0
 34 36  1  0  0  0  0
 34 37  1  0  0  0  0
 35 36  1  0  0  0  0
 35 75  1  0  0  0  0
 35 76  1  0  0  0  0
 36 77  1  0  0  0  0
 36 78  1  0  0  0  0
 37 38  2  0  0  0  0
 37 39  1  0  0  0  0
 39 40  1  0  0  0  0
 39 79  1  0  0  0  0
 40 41  2  0  0  0  0
 40 45  1  0  0  0  0
 41 42  1  0  0  0  0
 41 80  1  0  0  0  0
 42 43  2  0  0  0  0
 42 81  1  0  0  0  0
 43 44  1  0  0  0  0
 43 46  1  0  0  0  0
 44 45  2  0  0  0  0
 44 82  1  0  0  0  0
 45 83  1  0  0  0  0
M  END
>  <DRUGBANK_ID>
DB11977

>  <COMMON_NAME>
Golvatinib

>  <CAS_NUMBER>
928037-13-2

>  <UNII>
516Z3YP58E

>  <SYNONYMS>
Golvatinib

$$$$
