
 OpenBabel10282417223D

 45 47  0  0  0  0  0  0  0  0999 V2000
    0.2264   -0.5890    0.0286 C   0  0  0  0  0  0  0  0  0  0  0  0
    1.6173   -1.0158    0.1262 C   0  0  0  0  0  0  0  0  0  0  0  0
    2.6828   -0.0539    0.2605 C   0  0  0  0  0  0  0  0  0  0  0  0
    2.2510    1.2530    0.1231 C   0  0  0  0  0  0  0  0  0  0  0  0
    0.9386    1.6656    0.0145 C   0  0  0  0  0  0  0  0  0  0  0  0
   -0.0989    0.7650    0.0046 C   0  0  0  0  0  0  0  0  0  0  0  0
   -1.4240    1.3441   -0.0088 C   0  0  0  0  0  0  0  0  0  0  0  0
   -2.4020    1.9374   -0.0059 N   0  0  0  0  0  0  0  0  0  0  0  0
    4.2396   -0.1000    0.3279 C   0  0  0  0  0  0  0  0  0  0  0  0
    5.0645    0.8462    0.9985 N   0  0  0  0  0  0  0  0  0  0  0  0
    6.0841    1.1423    0.0046 N   0  0  0  0  0  0  0  0  0  0  0  0
    5.2921    0.9185   -1.1645 C   0  0  0  0  0  0  0  0  0  0  0  0
    5.0433   -0.4340   -0.8202 C   0  0  0  0  0  0  0  0  0  0  0  0
    7.4966    0.6677    0.0818 C   0  0  0  0  0  0  0  0  0  0  0  0
    7.7281   -0.1733    1.3505 C   0  0  1  0  0  0  0  0  0  0  0  0
    6.7096   -1.2325    1.5999 N   0  0  0  0  0  0  0  0  0  0  0  0
    6.8369   -2.5967    1.3655 C   0  0  0  0  0  0  0  0  0  0  0  0
    5.6051   -3.4221    1.3250 C   0  0  0  0  0  0  0  0  0  0  0  0
    5.5111   -4.5376    2.0713 N   0  0  0  0  0  0  0  0  0  0  0  0
    4.3650   -5.1198    1.6954 N   0  0  0  0  0  0  0  0  0  0  0  0
    3.6835   -4.4517    0.7221 C   0  0  0  0  0  0  0  0  0  0  0  0
    4.4900   -3.3637    0.4455 C   0  0  0  0  0  0  0  0  0  0  0  0
    2.4328   -4.8207    0.0888 C   0  0  0  0  0  0  0  0  0  0  0  0
    1.6784   -6.0276    0.5745 C   0  0  0  0  0  0  0  0  0  0  0  0
    1.9551   -4.1634   -0.8373 O   0  0  0  0  0  0  0  0  0  0  0  0
    7.9238   -3.1307    1.1703 O   0  0  0  0  0  0  0  0  0  0  0  0
    9.1193   -0.7603    1.2979 C   0  0  0  0  0  0  0  0  0  0  0  0
   -1.0863   -1.7357   -0.0072 Cl  0  0  0  0  0  0  0  0  0  0  0  0
    1.7394   -2.0977    0.0901 H   0  0  0  0  0  0  0  0  0  0  0  0
    2.9629    2.0579    0.0772 H   0  0  0  0  0  0  0  0  0  0  0  0
    0.8025    2.7383   -0.0205 H   0  0  0  0  0  0  0  0  0  0  0  0
    4.5139    1.6819   -1.1819 H   0  0  0  0  0  0  0  0  0  0  0  0
    5.9250   -1.0883   -0.7238 H   0  0  0  0  0  0  0  0  0  0  0  0
    7.7316    0.1000   -0.8428 H   0  0  0  0  0  0  0  0  0  0  0  0
    8.2063    1.5169    0.0269 H   0  0  0  0  0  0  0  0  0  0  0  0
    7.6427    0.5301    2.1889 H   0  0  0  0  0  0  0  0  0  0  0  0
    5.7898   -0.8569    1.8166 H   0  0  0  0  0  0  0  0  0  0  0  0
    4.1239   -5.9936    2.1474 H   0  0  0  0  0  0  0  0  0  0  0  0
    4.2730   -2.6789   -0.3545 H   0  0  0  0  0  0  0  0  0  0  0  0
    0.7102   -5.7118    0.9753 H   0  0  0  0  0  0  0  0  0  0  0  0
    1.5179   -6.6940   -0.2776 H   0  0  0  0  0  0  0  0  0  0  0  0
    2.2160   -6.5748    1.3475 H   0  0  0  0  0  0  0  0  0  0  0  0
    9.8968    0.0013    1.2623 H   0  0  0  0  0  0  0  0  0  0  0  0
    9.2717   -1.3879    2.1798 H   0  0  0  0  0  0  0  0  0  0  0  0
    9.2176   -1.3707    0.3913 H   0  0  0  0  0  0  0  0  0  0  0  0
  1  6  1  0  0  0  0
  1 28  1  0  0  0  0
  2  1  2  0  0  0  0
  2 29  1  0  0  0  0
  3  2  1  0  0  0  0
  3  9  1  0  0  0  0
  4  3  2  0  0  0  0
  4 30  1  0  0  0  0
  5  4  1  0  0  0  0
  5 31  1  0  0  0  0
  6  5  2  0  0  0  0
  6  7  1  0  0  0  0
  7  8  3  0  0  0  0
 10  9  2  0  0  0  0
 10 11  1  0  0  0  0
 11 12  1  0  0  0  0
 11 14  1  0  0  0  0
 12 13  2  0  0  0  0
 12 32  1  0  0  0  0
 13  9  1  0  0  0  0
 13 33  1  0  0  0  0
 14 15  1  0  0  0  0
 14 34  1  0  0  0  0
 14 35  1  0  0  0  0
 15 16  1  0  0  0  0
 15 27  1  0  0  0  0
 15 36  1  1  0  0  0
 16 17  1  0  0  0  0
 16 37  1  0  0  0  0
 17 18  1  0  0  0  0
 17 26  2  0  0  0  0
 19 18  2  0  0  0  0
 19 20  1  0  0  0  0
 20 21  1  0  0  0  0
 20 38  1  0  0  0  0
 21 22  2  0  0  0  0
 21 23  1  0  0  0  0
 22 18  1  0  0  0  0
 22 39  1  0  0  0  0
 23 24  1  0  0  0  0
 23 25  2  0  0  0  0
 24 40  1  0  0  0  0
 24 41  1  0  0  0  0
 24 42  1  0  0  0  0
 27 43  1  0  0  0  0
 27 44  1  0  0  0  0
 27 45  1  0  0  0  0
M  END
>  <DRUGBANK_ID>
DB15647

>  <COMMON_NAME>
Ketodarolutamide

>  <CAS_NUMBER>
1297537-33-7

>  <UNII>
9EPS75QMTL

$$$$
