UDT
 OpenBabel10282417173D

 36 35  0  0  0  0  0  0  0  0999 V2000
    1.0875    0.0225    0.1544 C   0  0  0  0  0  0  0  0  0  0  0  0
    0.6444    1.4766    0.1473 C   0  0  0  0  0  0  0  0  0  0  0  0
    1.1352    2.1601   -1.1278 C   0  0  0  0  0  0  0  0  0  0  0  0
    0.5770    1.4374   -2.3613 C   0  0  0  0  0  0  0  0  0  0  0  0
   -0.9625    1.3740   -2.2988 C   0  0  0  0  0  0  0  0  0  0  0  0
   -1.5356    2.7724   -2.2275 C   0  0  0  0  0  0  0  0  0  0  0  0
   -1.0408    3.5018   -3.4437 C   0  0  0  0  0  0  0  0  0  0  0  0
   -1.5291    2.8271   -4.7632 C   0  0  0  0  0  0  0  0  0  0  0  0
   -3.0310    2.9884   -4.9061 C   0  0  0  0  0  0  0  0  0  0  0  0
   -3.4008    4.4740   -4.9378 C   0  0  0  0  0  0  0  0  0  0  0  0
   -2.9071    5.1451   -6.1515 O   0  0  0  0  0  0  0  0  0  0  0  0
   -1.7085    5.6470   -6.5821 C   0  0  0  0  0  0  0  0  0  0  0  0
   -1.5893    6.0253   -7.7544 O   0  0  0  0  0  0  0  0  0  0  0  0
   -0.2878    5.8099   -5.5931 S   0  0  0  0  0  0  0  0  0  0  0  0
    0.6908   -0.5384   -0.6988 H   0  0  0  0  0  0  0  0  0  0  0  0
    0.7323   -0.4867    1.0488 H   0  0  0  0  0  0  0  0  0  0  0  0
    2.1788   -0.0279    0.1057 H   0  0  0  0  0  0  0  0  0  0  0  0
   -0.4481    1.5296    0.2290 H   0  0  0  0  0  0  0  0  0  0  0  0
    1.0241    2.0044    1.0248 H   0  0  0  0  0  0  0  0  0  0  0  0
    0.8404    3.2184   -1.1150 H   0  0  0  0  0  0  0  0  0  0  0  0
    2.2287    2.1721   -1.1664 H   0  0  0  0  0  0  0  0  0  0  0  0
    0.9538    1.9267   -3.2678 H   0  0  0  0  0  0  0  0  0  0  0  0
    0.9735    0.4264   -2.4614 H   0  0  0  0  0  0  0  0  0  0  0  0
   -1.3432    0.8369   -3.1690 H   0  0  0  0  0  0  0  0  0  0  0  0
   -1.3386    0.7929   -1.4581 H   0  0  0  0  0  0  0  0  0  0  0  0
   -2.6282    2.7870   -2.1942 H   0  0  0  0  0  0  0  0  0  0  0  0
   -1.2308    3.3236   -1.3289 H   0  0  0  0  0  0  0  0  0  0  0  0
   -1.3897    4.5183   -3.2453 H   0  0  0  0  0  0  0  0  0  0  0  0
    0.0496    3.6163   -3.4700 H   0  0  0  0  0  0  0  0  0  0  0  0
   -1.0586    3.2159   -5.6686 H   0  0  0  0  0  0  0  0  0  0  0  0
   -1.2355    1.7749   -4.8296 H   0  0  0  0  0  0  0  0  0  0  0  0
   -3.3653    2.4962   -5.8254 H   0  0  0  0  0  0  0  0  0  0  0  0
   -3.5418    2.4674   -4.0847 H   0  0  0  0  0  0  0  0  0  0  0  0
   -4.4958    4.5271   -4.9838 H   0  0  0  0  0  0  0  0  0  0  0  0
   -3.1338    5.0220   -4.0292 H   0  0  0  0  0  0  0  0  0  0  0  0
   -0.8999    5.0394   -4.7476 H   0  0  0  0  0  0  0  0  0  0  0  0
  1  2  1  0  0  0  0
  1 15  1  0  0  0  0
  1 16  1  0  0  0  0
  1 17  1  0  0  0  0
  2  3  1  0  0  0  0
  2 18  1  0  0  0  0
  2 19  1  0  0  0  0
  3  4  1  0  0  0  0
  3 20  1  0  0  0  0
  3 21  1  0  0  0  0
  4  5  1  0  0  0  0
  4 22  1  0  0  0  0
  4 23  1  0  0  0  0
  5  6  1  0  0  0  0
  5 24  1  0  0  0  0
  5 25  1  0  0  0  0
  6  7  1  0  0  0  0
  6 26  1  0  0  0  0
  6 27  1  0  0  0  0
  7  8  1  0  0  0  0
  7 28  1  0  0  0  0
  7 29  1  0  0  0  0
  8  9  1  0  0  0  0
  8 30  1  0  0  0  0
  8 31  1  0  0  0  0
  9 10  1  0  0  0  0
  9 32  1  0  0  0  0
  9 33  1  0  0  0  0
 10 11  1  0  0  0  0
 10 34  1  0  0  0  0
 10 35  1  0  0  0  0
 11 12  1  0  0  0  0
 12 14  1  0  0  0  0
 12 13  2  0  0  0  0
 14 36  1  0  0  0  0
M  END
>  <DRUGBANK_ID>
DB08684

>  <COMMON_NAME>
O-Decyl Hydrogen Thiocarbonate

$$$$
