
 OpenBabel10282417123D

 84 86  0  0  1  0  0  0  0  0999 V2000
   -1.0143    0.8603    1.2113 N   0  0  0  0  0  0  0  0  0  0  0  0
    0.1708    1.2920    0.5141 C   0  0  2  0  0  0  0  0  0  0  0  0
   -1.5170   -0.4083    1.3406 C   0  0  0  0  0  0  0  0  0  0  0  0
   -1.9612    1.7196    1.7086 C   0  0  0  0  0  0  0  0  0  0  0  0
    0.0712    0.8119   -0.8428 O   0  0  0  0  0  0  0  0  0  0  0  0
    1.5449    0.8197    0.9880 C   0  0  1  0  0  0  0  0  0  0  0  0
   -2.7349   -0.2532    1.9738 C   0  0  0  0  0  0  0  0  0  0  0  0
   -0.9822   -1.5677    0.9283 N   0  0  0  0  0  0  0  0  0  0  0  0
   -2.9919    1.0784    2.2132 N   0  0  0  0  0  0  0  0  0  0  0  0
    1.0563   -0.2056   -1.0819 C   0  0  1  0  0  0  0  0  0  0  0  0
    1.6887   -0.5137    0.2596 C   0  0  1  0  0  0  0  0  0  0  0  0
    2.5390    1.7582    0.5132 O   0  0  0  0  0  0  0  0  0  0  0  0
   -3.4539   -1.4278    2.2473 C   0  0  0  0  0  0  0  0  0  0  0  0
   -1.7358   -2.6305    1.2724 C   0  0  0  0  0  0  0  0  0  0  0  0
    0.5383   -1.4440   -1.8140 C   0  0  0  0  0  0  0  0  0  0  0  0
    2.9896   -1.0060    0.0932 O   0  0  0  0  0  0  0  0  0  0  0  0
   -2.9245   -2.6196    1.8885 N   0  0  0  0  0  0  0  0  0  0  0  0
   -4.6618   -1.4208    2.8982 N   0  0  0  0  0  0  0  0  0  0  0  0
   -0.2039   -1.0853   -2.9750 O   0  0  0  0  0  0  0  0  0  0  0  0
    3.9667    0.1393   -0.7592 P   0  0  0  0  0  0  0  0  0  0  0  0
   -1.4562    0.0708   -2.6784 P   0  0  3  0  0  0  0  0  0  0  0  0
    5.1763   -0.4297    0.1739 O   0  0  0  0  0  0  0  0  0  0  0  0
    4.0325   -0.9752   -1.9488 O   0  0  0  0  0  0  0  0  0  0  0  0
    4.8413    1.1643   -1.5221 O   0  0  0  0  0  0  0  0  0  0  0  0
   -2.1720   -0.3127   -4.2060 O   0  0  0  0  0  0  0  0  0  0  0  0
   -2.2441   -1.1617   -1.9080 O   0  0  0  0  0  0  0  0  0  0  0  0
   -2.5770    1.1055   -2.4130 O   0  0  0  0  0  0  0  0  0  0  0  0
   -1.5101    0.7177   -5.4279 P   0  0  3  0  0  0  0  0  0  0  0  0
   -0.0117    0.2222   -5.0088 O   0  0  0  0  0  0  0  0  0  0  0  0
   -1.9857   -0.4837   -6.4387 O   0  0  0  0  0  0  0  0  0  0  0  0
   -0.9178    1.6399   -6.5215 O   0  0  0  0  0  0  0  0  0  0  0  0
    0.7187    1.1387   -4.2104 C   0  0  0  0  0  0  0  0  0  0  0  0
    0.7625    2.6046   -4.6078 C   0  0  0  0  0  0  0  0  0  0  0  0
   -0.5975    3.4369   -4.7927 C   0  0  2  0  0  0  0  0  0  0  0  0
    1.5391    3.3376   -3.4756 C   0  0  0  0  0  0  0  0  0  0  0  0
    1.6730    2.6021   -5.8515 C   0  0  0  0  0  0  0  0  0  0  0  0
   -1.0385    3.9947   -3.4833 C   0  0  0  0  0  0  0  0  0  0  0  0
   -1.9731    2.8831   -4.8756 O   0  0  0  0  0  0  0  0  0  0  0  0
   -1.4605    5.2789   -3.5431 N   0  0  0  0  0  0  0  0  0  0  0  0
   -1.2108    3.2657   -2.5266 O   0  0  0  0  0  0  0  0  0  0  0  0
   -1.9673    5.8584   -2.3441 C   0  0  0  0  0  0  0  0  0  0  0  0
   -0.8683    6.6281   -1.6456 C   0  0  0  0  0  0  0  0  0  0  0  0
   -0.3395    7.6751   -2.5997 C   0  0  0  0  0  0  0  0  0  0  0  0
   -0.5281    8.9691   -2.2028 N   0  0  0  0  0  0  0  0  0  0  0  0
    0.1727    7.3723   -3.6767 O   0  0  0  0  0  0  0  0  0  0  0  0
   -0.1237   10.0838   -3.0436 C   0  0  0  0  0  0  0  0  0  0  0  0
   -1.2992   10.9830   -3.4165 C   0  0  0  0  0  0  0  0  0  0  0  0
   -2.0218   11.8008   -1.9533 S   0  0  0  0  0  0  0  0  0  0  0  0
    0.1547    2.3895    0.4814 H   0  0  0  0  0  0  0  0  0  0  0  0
   -1.8567    2.7973    1.6642 H   0  0  0  0  0  0  0  0  0  0  0  0
    1.6735    0.7431    2.0696 H   0  0  0  0  0  0  0  0  0  0  0  0
    1.7583    0.2656   -1.7725 H   0  0  0  0  0  0  0  0  0  0  0  0
    1.1719   -1.2888    0.8120 H   0  0  0  0  0  0  0  0  0  0  0  0
    2.2939    2.1056   -0.3719 H   0  0  0  0  0  0  0  0  0  0  0  0
   -1.3418   -3.6066    0.9976 H   0  0  0  0  0  0  0  0  0  0  0  0
    1.3615   -2.0905   -2.1262 H   0  0  0  0  0  0  0  0  0  0  0  0
   -0.0721   -2.0771   -1.1765 H   0  0  0  0  0  0  0  0  0  0  0  0
   -5.0875   -0.5308    3.1137 H   0  0  0  0  0  0  0  0  0  0  0  0
   -5.1463   -2.2950    3.0197 H   0  0  0  0  0  0  0  0  0  0  0  0
    5.3672    0.2114    0.8813 H   0  0  0  0  0  0  0  0  0  0  0  0
    3.3982   -1.7000   -1.8623 H   0  0  0  0  0  0  0  0  0  0  0  0
   -1.8704   -1.4181   -1.0518 H   0  0  0  0  0  0  0  0  0  0  0  0
   -2.8957   -0.7355   -6.1884 H   0  0  0  0  0  0  0  0  0  0  0  0
    0.3202    1.1831   -3.2162 H   0  0  0  0  0  0  0  0  0  0  0  0
    1.7125    0.6939   -4.0723 H   0  0  0  0  0  0  0  0  0  0  0  0
   -0.4990    4.1594   -5.6081 H   0  0  0  0  0  0  0  0  0  0  0  0
    2.5264    2.9182   -3.2864 H   0  0  0  0  0  0  0  0  0  0  0  0
    1.6234    4.3994   -3.7218 H   0  0  0  0  0  0  0  0  0  0  0  0
    1.0198    3.2597   -2.5118 H   0  0  0  0  0  0  0  0  0  0  0  0
    2.6690    2.2181   -5.5856 H   0  0  0  0  0  0  0  0  0  0  0  0
    1.3224    1.9297   -6.6406 H   0  0  0  0  0  0  0  0  0  0  0  0
    1.7847    3.6011   -6.2654 H   0  0  0  0  0  0  0  0  0  0  0  0
   -2.2860    2.5475   -3.9974 H   0  0  0  0  0  0  0  0  0  0  0  0
   -1.0606    5.8685   -4.2729 H   0  0  0  0  0  0  0  0  0  0  0  0
   -2.8172    6.4721   -2.6412 H   0  0  0  0  0  0  0  0  0  0  0  0
   -2.3371    5.0676   -1.6795 H   0  0  0  0  0  0  0  0  0  0  0  0
   -1.2667    7.0620   -0.7267 H   0  0  0  0  0  0  0  0  0  0  0  0
   -0.0309    5.9709   -1.3772 H   0  0  0  0  0  0  0  0  0  0  0  0
   -0.9110    9.1668   -1.2881 H   0  0  0  0  0  0  0  0  0  0  0  0
    0.6511   10.6382   -2.5050 H   0  0  0  0  0  0  0  0  0  0  0  0
    0.3333    9.7066   -3.9660 H   0  0  0  0  0  0  0  0  0  0  0  0
   -0.9572   11.7634   -4.1022 H   0  0  0  0  0  0  0  0  0  0  0  0
   -2.0808   10.4050   -3.9219 H   0  0  0  0  0  0  0  0  0  0  0  0
   -2.4021   10.6935   -1.3020 H   0  0  0  0  0  0  0  0  0  0  0  0
  1  3  1  0  0  0  0
  1  4  1  0  0  0  0
  2  5  1  0  0  0  0
  2  6  1  0  0  0  0
  2 49  1  6  0  0  0
  2  1  1  0  0  0  0
  3  7  2  0  0  0  0
  3  8  1  0  0  0  0
  4  9  2  0  0  0  0
  4 50  1  0  0  0  0
  5 10  1  0  0  0  0
  6 11  1  0  0  0  0
  6 12  1  0  0  0  0
  6 51  1  1  0  0  0
  7 13  1  0  0  0  0
  7  9  1  0  0  0  0
  8 14  2  0  0  0  0
 10 15  1  0  0  0  0
 10 11  1  0  0  0  0
 10 52  1  6  0  0  0
 11 16  1  0  0  0  0
 11 53  1  1  0  0  0
 12 54  1  0  0  0  0
 13 17  2  0  0  0  0
 13 18  1  0  0  0  0
 14 17  1  0  0  0  0
 14 55  1  0  0  0  0
 15 19  1  0  0  0  0
 15 56  1  0  0  0  0
 15 57  1  0  0  0  0
 16 20  1  0  0  0  0
 18 58  1  0  0  0  0
 18 59  1  0  0  0  0
 19 21  1  0  0  0  0
 20 22  1  0  0  0  0
 20 23  1  0  0  0  0
 20 24  2  0  0  0  0
 21 25  1  0  0  0  0
 21 26  1  0  0  0  0
 21 27  2  0  0  0  0
 22 60  1  0  0  0  0
 23 61  1  0  0  0  0
 25 28  1  0  0  0  0
 26 62  1  0  0  0  0
 28 29  1  0  0  0  0
 28 30  1  0  0  0  0
 28 31  2  0  0  0  0
 29 32  1  0  0  0  0
 30 63  1  0  0  0  0
 32 33  1  0  0  0  0
 32 64  1  0  0  0  0
 32 65  1  0  0  0  0
 33 35  1  0  0  0  0
 33 36  1  0  0  0  0
 34 38  1  0  0  0  0
 34 66  1  6  0  0  0
 34 37  1  0  0  0  0
 34 33  1  0  0  0  0
 35 67  1  0  0  0  0
 35 68  1  0  0  0  0
 35 69  1  0  0  0  0
 36 70  1  0  0  0  0
 36 71  1  0  0  0  0
 36 72  1  0  0  0  0
 37 39  1  0  0  0  0
 37 40  2  0  0  0  0
 38 73  1  0  0  0  0
 39 41  1  0  0  0  0
 39 74  1  0  0  0  0
 41 42  1  0  0  0  0
 41 75  1  0  0  0  0
 41 76  1  0  0  0  0
 42 43  1  0  0  0  0
 42 77  1  0  0  0  0
 42 78  1  0  0  0  0
 43 44  1  0  0  0  0
 43 45  2  0  0  0  0
 44 46  1  0  0  0  0
 44 79  1  0  0  0  0
 46 47  1  0  0  0  0
 46 80  1  0  0  0  0
 46 81  1  0  0  0  0
 47 48  1  0  0  0  0
 47 82  1  0  0  0  0
 47 83  1  0  0  0  0
 48 84  1  0  0  0  0
M  END
>  <DRUGBANK_ID>
DB01992

>  <SECONDARY_ACCESSION_NUMBERS>
EXPT00991

>  <COMMON_NAME>
Coenzyme A

>  <CAS_NUMBER>
85-61-0

>  <UNII>
SAA04E81UX

>  <SYNONYMS>
3'-phosphoadenosine-(5')diphospho(4')pantatheine; CoA; CoA-SH; CoASH; HSCoA

$$$$
