
 OpenBabel10282417233D

 40 42  0  0  0  0  0  0  0  0999 V2000
    0.9960    0.0555   -0.0211 C   0  0  0  0  0  0  0  0  0  0  0  0
    0.3938    0.5210    1.1803 O   0  0  0  0  0  0  0  0  0  0  0  0
    0.8673   -0.0137    2.3458 C   0  0  0  0  0  0  0  0  0  0  0  0
    2.1840   -0.4139    2.5538 C   0  0  0  0  0  0  0  0  0  0  0  0
    2.6126   -0.7836    3.8336 C   0  0  0  0  0  0  0  0  0  0  0  0
    1.7002   -0.7695    4.9000 C   0  0  0  0  0  0  0  0  0  0  0  0
    0.3879   -0.3678    4.6973 C   0  0  0  0  0  0  0  0  0  0  0  0
   -0.0329   -0.0221    3.4151 C   0  0  0  0  0  0  0  0  0  0  0  0
    4.0141   -1.0621    4.1119 C   0  0  0  0  0  0  0  0  0  0  0  0
    5.0006   -0.0956    3.8642 C   0  0  0  0  0  0  0  0  0  0  0  0
    6.3180   -0.3283    4.2424 C   0  0  0  0  0  0  0  0  0  0  0  0
    7.2585    0.5615    3.8906 F   0  0  0  0  0  0  0  0  0  0  0  0
    6.6852   -1.5123    4.8939 C   0  0  0  0  0  0  0  0  0  0  0  0
    8.0615   -1.9204    4.8503 N   0  0  0  0  0  0  0  0  0  0  0  0
    8.5515   -3.1456    5.3502 C   0  0  0  0  0  0  0  0  0  0  0  0
    8.1926   -4.3787    4.7749 C   0  0  0  0  0  0  0  0  0  0  0  0
    8.6596   -5.5503    5.3901 C   0  0  0  0  0  0  0  0  0  0  0  0
    9.4608   -5.4790    6.5223 C   0  0  0  0  0  0  0  0  0  0  0  0
    9.7782   -4.2250    7.0079 C   0  0  0  0  0  0  0  0  0  0  0  0
    9.3613   -3.0654    6.4384 N   0  0  0  0  0  0  0  0  0  0  0  0
    7.3612   -4.5616    3.5442 C   0  0  0  0  0  0  0  0  0  0  0  0
    7.0406   -3.4728    2.8191 O   0  0  0  0  0  0  0  0  0  0  0  0
    7.0015   -5.6769    3.1734 O   0  0  0  0  0  0  0  0  0  0  0  0
    5.6581   -2.4183    5.2135 C   0  0  0  0  0  0  0  0  0  0  0  0
    5.9125   -3.5433    5.8950 F   0  0  0  0  0  0  0  0  0  0  0  0
    4.3700   -2.2503    4.7445 C   0  0  0  0  0  0  0  0  0  0  0  0
    0.6237    0.6784   -0.8397 H   0  0  0  0  0  0  0  0  0  0  0  0
    0.6884   -0.9775   -0.2041 H   0  0  0  0  0  0  0  0  0  0  0  0
    2.0861    0.1453   -0.0353 H   0  0  0  0  0  0  0  0  0  0  0  0
    2.9145   -0.4001    1.7528 H   0  0  0  0  0  0  0  0  0  0  0  0
    2.0270   -1.0330    5.9052 H   0  0  0  0  0  0  0  0  0  0  0  0
   -0.2889   -0.2894    5.5430 H   0  0  0  0  0  0  0  0  0  0  0  0
   -1.0698    0.2563    3.2511 H   0  0  0  0  0  0  0  0  0  0  0  0
    4.7487    0.8316    3.3551 H   0  0  0  0  0  0  0  0  0  0  0  0
    8.6891   -1.1512    5.0847 H   0  0  0  0  0  0  0  0  0  0  0  0
    8.3955   -6.5238    4.9811 H   0  0  0  0  0  0  0  0  0  0  0  0
    9.8312   -6.3801    7.0006 H   0  0  0  0  0  0  0  0  0  0  0  0
   10.3969   -4.1214    7.8973 H   0  0  0  0  0  0  0  0  0  0  0  0
    7.4234   -2.6434    3.1654 H   0  0  0  0  0  0  0  0  0  0  0  0
    3.6601   -3.0663    4.8607 H   0  0  0  0  0  0  0  0  0  0  0  0
  1  2  1  0  0  0  0
  1 27  1  0  0  0  0
  1 28  1  0  0  0  0
  1 29  1  0  0  0  0
  2  3  1  0  0  0  0
  3  4  2  0  0  0  0
  3  8  1  0  0  0  0
  4  5  1  0  0  0  0
  4 30  1  0  0  0  0
  5  6  2  0  0  0  0
  5  9  1  0  0  0  0
  6  7  1  0  0  0  0
  6 31  1  0  0  0  0
  7  8  2  0  0  0  0
  7 32  1  0  0  0  0
  8 33  1  0  0  0  0
  9 10  2  0  0  0  0
  9 26  1  0  0  0  0
 10 11  1  0  0  0  0
 10 34  1  0  0  0  0
 11 12  1  0  0  0  0
 11 13  2  0  0  0  0
 13 14  1  0  0  0  0
 13 24  1  0  0  0  0
 14 15  1  0  0  0  0
 14 35  1  0  0  0  0
 15 16  2  0  0  0  0
 15 20  1  0  0  0  0
 16 17  1  0  0  0  0
 16 21  1  0  0  0  0
 17 18  2  0  0  0  0
 17 36  1  0  0  0  0
 18 19  1  0  0  0  0
 18 37  1  0  0  0  0
 19 20  2  0  0  0  0
 19 38  1  0  0  0  0
 21 22  1  0  0  0  0
 21 23  2  0  0  0  0
 22 39  1  0  0  0  0
 24 25  1  0  0  0  0
 24 26  2  0  0  0  0
 26 40  1  0  0  0  0
M  END
>  <DRUGBANK_ID>
DB16049

>  <COMMON_NAME>
Farudodstat

>  <CAS_NUMBER>
1035688-66-4

>  <UNII>
I58WE41H6X

>  <SYNONYMS>
2-((3,5-difluoro-3'-methoxy-1,1'-biphenyl-4-yl)amino)nicotinic acid; 2-((3,5-DIFLUORO-3'-METHOXY(1,1'-BIPHENYL)-4-YL)AMINO)-3-PYRIDINECARBOXYLIC ACID; 2-(3,5-difluoro-3'-methoxybiphenyl-4-ylamino)nicotinic acid; 3-PYRIDINECARBOXYLIC ACID, 2-((3,5-DIFLUORO-3'-METHOXY(1,1'-BIPHENYL)-4-YL)AMINO)-

$$$$
