
 OpenBabel10282417153D

 53 55  0  0  0  0  0  0  0  0999 V2000
    1.1425   -0.0592    0.1205 C   0  0  0  0  0  0  0  0  0  0  0  0
    0.4676    0.9449   -0.7964 C   0  0  0  0  0  0  0  0  0  0  0  0
    0.9610    0.9174   -2.2467 C   0  0  0  0  0  0  0  0  0  0  0  0
   -1.0073    0.9249   -0.7335 N   0  0  0  0  0  0  0  0  0  0  0  0
   -1.6035    2.1599   -0.9866 C   0  0  0  0  0  0  0  0  0  0  0  0
   -0.8527    3.0158   -1.3998 O   0  0  0  0  0  0  0  0  0  0  0  0
   -3.1202    2.3462   -0.8394 C   0  0  0  0  0  0  0  0  0  0  0  0
   -3.8464    1.1967   -0.8050 C   0  0  0  0  0  0  0  0  0  0  0  0
   -3.2216   -0.0964   -0.8223 C   0  0  0  0  0  0  0  0  0  0  0  0
   -1.8508   -0.1600   -0.8111 C   0  0  0  0  0  0  0  0  0  0  0  0
   -1.2625   -1.7271   -1.0124 S   0  0  0  0  0  0  0  0  0  0  0  0
   -2.8105   -2.3893   -0.8470 C   0  0  0  0  0  0  0  0  0  0  0  0
   -3.7851   -1.4111   -0.8176 C   0  0  0  0  0  0  0  0  0  0  0  0
   -5.2316    1.1278   -0.7840 O   0  0  0  0  0  0  0  0  0  0  0  0
   -3.8916    3.6627   -0.8183 C   0  0  0  0  0  0  0  0  0  0  0  0
   -5.1330    3.6416   -0.8028 O   0  0  0  0  0  0  0  0  0  0  0  0
   -3.3285    4.9017   -0.7875 N   0  0  0  0  0  0  0  0  0  0  0  0
   -1.9370    5.2161   -0.6866 C   0  0  0  0  0  0  0  0  0  0  0  0
   -1.3369    5.7033   -2.0108 C   0  0  0  0  0  0  0  0  0  0  0  0
   -1.6232    7.1893   -2.0931 C   0  0  0  0  0  0  0  0  0  0  0  0
   -1.1383    7.8692   -0.8826 N   0  0  0  0  0  0  0  0  0  0  0  0
    0.2360    7.5147   -0.4828 C   0  0  0  0  0  0  0  0  0  0  0  0
    0.5879    8.1509    0.8559 C   0  0  0  0  0  0  0  0  0  0  0  0
    0.4135    9.6568    0.7806 C   0  0  0  0  0  0  0  0  0  0  0  0
   -0.9807   10.0149    0.2751 C   0  0  0  0  0  0  0  0  0  0  0  0
   -1.3009    9.3072   -1.0341 C   0  0  0  0  0  0  0  0  0  0  0  0
    1.0442   -1.0823   -0.2299 H   0  0  0  0  0  0  0  0  0  0  0  0
    0.7078    0.0170    1.1238 H   0  0  0  0  0  0  0  0  0  0  0  0
    2.2151    0.1326    0.1796 H   0  0  0  0  0  0  0  0  0  0  0  0
    0.8022    1.9087   -0.3809 H   0  0  0  0  0  0  0  0  0  0  0  0
    0.6219    0.0197   -2.7675 H   0  0  0  0  0  0  0  0  0  0  0  0
    0.5782    1.7723   -2.8202 H   0  0  0  0  0  0  0  0  0  0  0  0
    2.0511    0.9712   -2.2881 H   0  0  0  0  0  0  0  0  0  0  0  0
   -2.8974   -3.4641   -0.8186 H   0  0  0  0  0  0  0  0  0  0  0  0
   -4.8399   -1.6453   -0.7809 H   0  0  0  0  0  0  0  0  0  0  0  0
   -5.5957    2.0433   -0.8044 H   0  0  0  0  0  0  0  0  0  0  0  0
   -3.9730    5.6863   -0.7412 H   0  0  0  0  0  0  0  0  0  0  0  0
   -1.7466    5.8462    0.1835 H   0  0  0  0  0  0  0  0  0  0  0  0
   -1.4710    4.3539   -0.2893 H   0  0  0  0  0  0  0  0  0  0  0  0
   -0.2515    5.5345   -2.0556 H   0  0  0  0  0  0  0  0  0  0  0  0
   -1.7333    5.1804   -2.8915 H   0  0  0  0  0  0  0  0  0  0  0  0
   -1.2097    7.6250   -3.0092 H   0  0  0  0  0  0  0  0  0  0  0  0
   -2.7156    7.3067   -2.1460 H   0  0  0  0  0  0  0  0  0  0  0  0
    0.9465    7.8074   -1.2624 H   0  0  0  0  0  0  0  0  0  0  0  0
    0.3696    6.4391   -0.3188 H   0  0  0  0  0  0  0  0  0  0  0  0
    1.6213    7.8975    1.1188 H   0  0  0  0  0  0  0  0  0  0  0  0
   -0.0502    7.7346    1.6482 H   0  0  0  0  0  0  0  0  0  0  0  0
    0.5853   10.1020    1.7644 H   0  0  0  0  0  0  0  0  0  0  0  0
    1.1651   10.0634    0.0941 H   0  0  0  0  0  0  0  0  0  0  0  0
   -1.7265    9.7393    1.0322 H   0  0  0  0  0  0  0  0  0  0  0  0
   -1.0526   11.0947    0.1197 H   0  0  0  0  0  0  0  0  0  0  0  0
   -2.3350    9.5373   -1.3173 H   0  0  0  0  0  0  0  0  0  0  0  0
   -0.6454    9.6652   -1.8358 H   0  0  0  0  0  0  0  0  0  0  0  0
  1  2  1  0  0  0  0
  1 27  1  0  0  0  0
  1 28  1  0  0  0  0
  1 29  1  0  0  0  0
  2  3  1  0  0  0  0
  2  4  1  0  0  0  0
  2 30  1  0  0  0  0
  3 31  1  0  0  0  0
  3 32  1  0  0  0  0
  3 33  1  0  0  0  0
  4  5  1  0  0  0  0
  4 10  1  0  0  0  0
  5  6  2  0  0  0  0
  5  7  1  0  0  0  0
  7  8  2  0  0  0  0
  7 15  1  0  0  0  0
  8  9  1  0  0  0  0
  8 14  1  0  0  0  0
  9 10  2  0  0  0  0
  9 13  1  0  0  0  0
 10 11  1  0  0  0  0
 11 12  1  0  0  0  0
 12 13  2  0  0  0  0
 12 34  1  0  0  0  0
 13 35  1  0  0  0  0
 14 36  1  0  0  0  0
 15 16  2  0  0  0  0
 15 17  1  0  0  0  0
 17 18  1  0  0  0  0
 17 37  1  0  0  0  0
 18 19  1  0  0  0  0
 18 38  1  0  0  0  0
 18 39  1  0  0  0  0
 19 20  1  0  0  0  0
 19 40  1  0  0  0  0
 19 41  1  0  0  0  0
 20 21  1  0  0  0  0
 20 42  1  0  0  0  0
 20 43  1  0  0  0  0
 21 22  1  0  0  0  0
 21 26  1  0  0  0  0
 22 23  1  0  0  0  0
 22 44  1  0  0  0  0
 22 45  1  0  0  0  0
 23 24  1  0  0  0  0
 23 46  1  0  0  0  0
 23 47  1  0  0  0  0
 24 25  1  0  0  0  0
 24 48  1  0  0  0  0
 24 49  1  0  0  0  0
 25 26  1  0  0  0  0
 25 50  1  0  0  0  0
 25 51  1  0  0  0  0
 26 52  1  0  0  0  0
 26 53  1  0  0  0  0
M  END
>  <DRUGBANK_ID>
DB05596

>  <COMMON_NAME>
PRX-03140

>  <CAS_NUMBER>
869493-21-0

>  <UNII>
7QGN8QXG7I

$$$$
