
 OpenBabel10282417173D

 41 41  0  0  0  0  0  0  0  0999 V2000
    0.9551    0.0378    0.1735 C   0  0  2  0  0  0  0  0  0  0  0  0
    0.4596    1.4781    0.2592 C   0  0  0  0  0  0  0  0  0  0  0  0
   -0.2992    1.9073   -0.7802 O   0  0  0  0  0  0  0  0  0  0  0  0
    0.7424    2.2140    1.1928 O   0  0  0  0  0  0  0  0  0  0  0  0
    0.4728   -0.6040   -1.0226 N   0  0  0  0  0  0  0  0  0  0  0  0
    0.5705   -0.7166    1.4419 C   0  0  0  0  0  0  0  0  0  0  0  0
   -0.2307   -1.7726   -0.9096 C   0  0  0  0  0  0  0  0  0  0  0  0
   -0.4705   -2.3439   -2.2061 C   0  0  0  0  0  0  0  0  0  0  0  0
   -0.8010   -2.2662    0.0323 O   0  0  0  0  0  0  0  0  0  0  0  0
   -0.0585   -3.8310   -2.3250 C   0  0  0  0  0  0  0  0  0  0  0  0
   -0.8848   -4.7093   -1.4064 C   0  0  0  0  0  0  0  0  0  0  0  0
   -2.7148   -4.7093   -1.4064 P   0  0  3  0  0  0  0  0  0  0  0  0
   -2.8803   -5.0584   -3.1242 O   0  0  0  0  0  0  0  0  0  0  0  0
   -3.0821   -4.1242   -4.1556 C   0  0  0  0  0  0  0  0  0  0  0  0
   -3.7750   -4.1976   -5.3331 C   0  0  0  0  0  0  0  0  0  0  0  0
   -3.5829   -3.1771   -6.3594 C   0  0  0  0  0  0  0  0  0  0  0  0
   -2.7287   -2.0593   -6.1835 C   0  0  0  0  0  0  0  0  0  0  0  0
   -1.9997   -2.0059   -5.0497 C   0  0  0  0  0  0  0  0  0  0  0  0
   -2.2582   -3.0477   -4.1790 C   0  0  0  0  0  0  0  0  0  0  0  0
   -2.7028   -6.0114   -0.6026 O   0  0  0  0  0  0  0  0  0  0  0  0
   -4.4448   -4.7093   -1.4064 O   0  0  0  0  0  0  0  0  0  0  0  0
   -2.5971   -0.9390   -7.1154 N   0  3  0  0  0  0  0  0  0  0  0  0
   -3.2838   -0.9690   -8.1390 O   0  0  0  0  0  0  0  0  0  0  0  0
   -1.8321   -0.0085   -6.7988 O   0  5  0  0  0  0  0  0  0  0  0  0
    2.0425    0.0472    0.0510 H   0  0  0  0  0  0  0  0  0  0  0  0
   -0.5154    1.2146   -1.4308 H   0  0  0  0  0  0  0  0  0  0  0  0
    0.8587   -0.3300   -1.9228 H   0  0  0  0  0  0  0  0  0  0  0  0
    0.9354   -1.7545    1.3978 H   0  0  0  0  0  0  0  0  0  0  0  0
    0.9670   -0.2688    2.3449 H   0  0  0  0  0  0  0  0  0  0  0  0
   -0.5243   -0.7259    1.5525 H   0  0  0  0  0  0  0  0  0  0  0  0
   -1.5675   -2.1583   -2.1340 H   0  0  0  0  0  0  0  0  0  0  0  0
   -0.0961   -1.7434   -3.0373 H   0  0  0  0  0  0  0  0  0  0  0  0
   -0.1938   -4.2631   -3.3336 H   0  0  0  0  0  0  0  0  0  0  0  0
    1.0188   -3.9326   -2.1885 H   0  0  0  0  0  0  0  0  0  0  0  0
   -0.5555   -5.7432   -1.5860 H   0  0  0  0  0  0  0  0  0  0  0  0
   -0.5677   -4.5152   -0.3759 H   0  0  0  0  0  0  0  0  0  0  0  0
   -4.4567   -5.0209   -5.5010 H   0  0  0  0  0  0  0  0  0  0  0  0
   -4.0880   -3.2898   -7.3117 H   0  0  0  0  0  0  0  0  0  0  0  0
   -1.2339   -1.2603   -4.8385 H   0  0  0  0  0  0  0  0  0  0  0  0
   -1.6234   -3.2008   -3.4121 H   0  0  0  0  0  0  0  0  0  0  0  0
   -4.8118   -3.8144   -1.5019 H   0  0  0  0  0  0  0  0  0  0  0  0
  1  2  1  0  0  0  0
  1  5  1  0  0  0  0
  1  6  1  0  0  0  0
  1 25  1  6  0  0  0
  2  3  1  0  0  0  0
  2  4  2  0  0  0  0
  3 26  1  0  0  0  0
  5  7  1  0  0  0  0
  5 27  1  0  0  0  0
  6 28  1  0  0  0  0
  6 29  1  0  0  0  0
  6 30  1  0  0  0  0
  7  8  1  0  0  0  0
  7  9  2  0  0  0  0
  8 10  1  0  0  0  0
  8 31  1  0  0  0  0
  8 32  1  0  0  0  0
 10 11  1  0  0  0  0
 10 33  1  0  0  0  0
 10 34  1  0  0  0  0
 11 12  1  0  0  0  0
 11 35  1  0  0  0  0
 11 36  1  0  0  0  0
 12 13  1  0  0  0  0
 12 20  2  0  0  0  0
 12 21  1  0  0  0  0
 13 14  1  0  0  0  0
 15 14  1  0  0  0  0
 15 16  2  0  0  0  0
 15 37  1  0  0  0  0
 16 17  1  0  0  0  0
 16 38  1  0  0  0  0
 17 18  2  0  0  0  0
 17 22  1  0  0  0  0
 18 19  1  0  0  0  0
 18 39  1  0  0  0  0
 19 14  2  0  0  0  0
 19 40  1  0  0  0  0
 21 41  1  0  0  0  0
 22 23  2  0  0  0  0
 22 24  1  0  0  0  0
M  CHG  2  22   1  24  -1
M  END
>  <DRUGBANK_ID>
DB08377

>  <COMMON_NAME>
N-[4-(4-nitrophenylphospho)butanoyl]-D-alanine

>  <SYNONYMS>
N-[4-(4-nitrophenylphospho)butyryl]-D-alanine; p-nitrophenyl phosphonobutanoyl D-alanine

$$$$
