
 OpenBabel10282417203D

 54 54  0  0  0  0  0  0  0  0999 V2000
    1.0592   -0.0926   -0.2435 C   0  0  0  0  0  0  0  0  0  0  0  0
    0.9732    4.0931    6.2147 C   0  0  0  0  0  0  0  0  0  0  0  0
    0.6853    2.1358    4.4795 C   0  0  0  0  0  0  0  0  0  0  0  0
    0.6994    0.9633    2.1690 C   0  0  0  0  0  0  0  0  0  0  0  0
    0.3730    0.6147    7.9415 C   0  0  0  0  0  0  0  0  0  0  0  0
    0.5518   -0.9679    0.9089 C   0  0  0  0  0  0  0  0  0  0  0  0
    0.5013    3.0224    7.2061 C   0  0  0  0  0  0  0  0  0  0  0  0
    0.2267    1.3522    5.6285 C   0  0  0  0  0  0  0  0  0  0  0  0
    1.8210   -5.3906    2.7598 C   0  0  0  0  0  0  0  0  0  0  0  0
    0.7752   -5.1379    3.6515 C   0  0  0  0  0  0  0  0  0  0  0  0
    2.5272   -4.3560    2.1629 C   0  0  0  0  0  0  0  0  0  0  0  0
    0.3667   -3.8387    3.8740 C   0  0  0  0  0  0  0  0  0  0  0  0
    2.2137   -3.0680    2.4967 C   0  0  0  0  0  0  0  0  0  0  0  0
    2.4753    1.3014    6.7567 C   0  0  0  0  0  0  0  0  0  0  0  0
    2.8946   -0.1832    6.3999 C   0  0  0  0  0  0  0  0  0  0  0  0
    1.1207   -0.4744    2.2487 C   0  0  3  0  0  0  0  0  0  0  0  0
    1.0603   -2.8058    3.2386 C   0  0  0  0  0  0  0  0  0  0  0  0
    0.6955   -1.3783    3.5065 C   0  0  3  0  0  0  0  0  0  0  0  0
    1.2714   -1.2856    4.9580 C   0  0  0  0  0  0  0  0  0  0  0  0
    0.9337    1.5852    6.8767 N   0  3  0  0  0  0  0  0  0  0  0  0
    0.5631   -1.6101    5.9476 O   0  0  0  0  0  0  0  0  0  0  0  0
    2.4636   -0.6466    5.0788 O   0  0  0  0  0  0  0  0  0  0  0  0
    0.6311    0.9153   -0.2533 H   0  0  0  0  0  0  0  0  0  0  0  0
    0.7635   -0.5030   -1.2004 H   0  0  0  0  0  0  0  0  0  0  0  0
    2.1481    0.0155   -0.1736 H   0  0  0  0  0  0  0  0  0  0  0  0
    0.3161    4.1542    5.3472 H   0  0  0  0  0  0  0  0  0  0  0  0
    0.8289    5.0998    6.5898 H   0  0  0  0  0  0  0  0  0  0  0  0
    2.0082    3.9556    5.8840 H   0  0  0  0  0  0  0  0  0  0  0  0
    1.7553    1.9367    4.3225 H   0  0  0  0  0  0  0  0  0  0  0  0
   -0.0528    1.6606    3.8804 H   0  0  0  0  0  0  0  0  0  0  0  0
    0.4924    3.1036    4.0287 H   0  0  0  0  0  0  0  0  0  0  0  0
   -0.3802    1.0476    2.3543 H   0  0  0  0  0  0  0  0  0  0  0  0
    1.4890    1.4312    2.7165 H   0  0  0  0  0  0  0  0  0  0  0  0
    0.8382    1.6434    1.3317 H   0  0  0  0  0  0  0  0  0  0  0  0
    0.7212    0.9547    8.9148 H   0  0  0  0  0  0  0  0  0  0  0  0
   -0.7172    0.5907    7.8696 H   0  0  0  0  0  0  0  0  0  0  0  0
    0.7525   -0.3938    7.7846 H   0  0  0  0  0  0  0  0  0  0  0  0
   -0.5457   -0.9343    0.9554 H   0  0  0  0  0  0  0  0  0  0  0  0
    0.8361   -1.9948    0.7025 H   0  0  0  0  0  0  0  0  0  0  0  0
   -0.6000    2.9952    7.1714 H   0  0  0  0  0  0  0  0  0  0  0  0
    0.8406    3.2364    8.2110 H   0  0  0  0  0  0  0  0  0  0  0  0
    0.5836    0.4348    5.3158 H   0  0  0  0  0  0  0  0  0  0  0  0
   -0.8449    1.1490    5.7209 H   0  0  0  0  0  0  0  0  0  0  0  0
    2.1073   -6.4091    2.5372 H   0  0  0  0  0  0  0  0  0  0  0  0
    0.2690   -5.9521    4.1580 H   0  0  0  0  0  0  0  0  0  0  0  0
    3.3172   -4.5228    1.4411 H   0  0  0  0  0  0  0  0  0  0  0  0
   -0.4378   -3.6305    4.5815 H   0  0  0  0  0  0  0  0  0  0  0  0
    2.8520   -2.2729    2.1227 H   0  0  0  0  0  0  0  0  0  0  0  0
    2.9016    1.6024    7.7180 H   0  0  0  0  0  0  0  0  0  0  0  0
    2.8817    1.9643    5.9903 H   0  0  0  0  0  0  0  0  0  0  0  0
    2.6408   -0.8955    7.1953 H   0  0  0  0  0  0  0  0  0  0  0  0
    3.9913   -0.1931    6.3564 H   0  0  0  0  0  0  0  0  0  0  0  0
    2.2138   -0.4242    2.2547 H   0  0  0  0  0  0  0  0  0  0  0  0
   -0.3999   -1.2701    3.6030 H   0  0  0  0  0  0  0  0  0  0  0  0
  1 23  1  0  0  0  0
  1 24  1  0  0  0  0
  1 25  1  0  0  0  0
  2 26  1  0  0  0  0
  2 27  1  0  0  0  0
  2 28  1  0  0  0  0
  3 29  1  0  0  0  0
  3 30  1  0  0  0  0
  3 31  1  0  0  0  0
  4 32  1  0  0  0  0
  4 33  1  0  0  0  0
  4 34  1  0  0  0  0
  5 35  1  0  0  0  0
  5 36  1  0  0  0  0
  5 37  1  0  0  0  0
  6  1  1  0  0  0  0
  6 38  1  0  0  0  0
  6 39  1  0  0  0  0
  7  2  1  0  0  0  0
  7 40  1  0  0  0  0
  7 41  1  0  0  0  0
  8  3  1  0  0  0  0
  8 42  1  0  0  0  0
  8 43  1  0  0  0  0
  9 44  1  0  0  0  0
 10  9  2  0  0  0  0
 10 45  1  0  0  0  0
 11  9  1  0  0  0  0
 11 46  1  0  0  0  0
 12 10  1  0  0  0  0
 12 47  1  0  0  0  0
 13 11  2  0  0  0  0
 13 48  1  0  0  0  0
 14 49  1  0  0  0  0
 14 50  1  0  0  0  0
 15 14  1  0  0  0  0
 15 51  1  0  0  0  0
 15 52  1  0  0  0  0
 16  4  1  0  0  0  0
 16  6  1  0  0  0  0
 16 53  1  0  0  0  0
 17 12  2  0  0  0  0
 17 13  1  0  0  0  0
 18 16  1  0  0  0  0
 18 17  1  0  0  0  0
 18 54  1  0  0  0  0
 19 18  1  0  0  0  0
 20  5  1  0  0  0  0
 20  7  1  0  0  0  0
 20  8  1  0  0  0  0
 20 14  1  0  0  0  0
 21 19  2  0  0  0  0
 22 15  1  0  0  0  0
 22 19  1  0  0  0  0
M  CHG  1  20   1
M  END
>  <DRUGBANK_ID>
DB13497

>  <COMMON_NAME>
Valethamate

>  <CAS_NUMBER>
16376-74-2

>  <UNII>
D64S64QVX7

$$$$
