VGA
 OpenBabel10282417173D

 46 50  0  0  0  0  0  0  0  0999 V2000
   -0.9231   -1.6228   -0.6655 N   0  0  0  0  0  0  0  0  0  0  0  0
   -2.0413   -1.3622   -0.0265 C   0  0  0  0  0  0  0  0  0  0  0  0
   -2.2451   -0.0676    0.8528 C   0  0  2  0  0  0  0  0  0  0  0  0
   -1.0412    1.4221   -0.6322 C   0  0  0  0  0  0  0  0  0  0  0  0
   -2.1284    1.1454    0.0260 N   0  0  0  0  0  0  0  0  0  0  0  0
    0.2193    0.6306   -0.5987 C   0  0  0  0  0  0  0  0  0  0  0  0
    0.2185   -0.7773   -0.5578 C   0  0  0  0  0  0  0  0  0  0  0  0
    1.4501   -1.3978   -0.2390 C   0  0  0  0  0  0  0  0  0  0  0  0
    2.6180   -0.6629    0.0596 C   0  0  0  0  0  0  0  0  0  0  0  0
    2.5982    0.7261    0.0252 C   0  0  0  0  0  0  0  0  0  0  0  0
    1.4081    1.3716   -0.3076 C   0  0  0  0  0  0  0  0  0  0  0  0
   -0.9924    2.6885   -1.4085 C   0  0  0  0  0  0  0  0  0  0  0  0
   -3.1278   -2.2523    0.0166 N   0  0  0  0  0  0  0  0  0  0  0  0
   -4.2952   -2.1632   -0.8341 C   0  0  0  0  0  0  0  0  0  0  0  0
   -4.5305   -3.6548   -0.4679 C   0  0  3  0  0  0  0  0  0  0  0  0
   -2.9978   -3.6599   -0.2447 C   0  0  0  0  0  0  0  0  0  0  0  0
   -0.4552    2.6574   -2.6997 C   0  0  0  0  0  0  0  0  0  0  0  0
   -0.1543    3.8498   -3.3496 C   0  0  0  0  0  0  0  0  0  0  0  0
   -0.4766    5.0680   -2.7517 C   0  0  0  0  0  0  0  0  0  0  0  0
   -1.1065    5.0960   -1.5044 C   0  0  0  0  0  0  0  0  0  0  0  0
   -1.3304    3.9065   -0.8090 C   0  0  0  0  0  0  0  0  0  0  0  0
   -1.4942   -0.0264    2.2091 C   0  0  0  0  0  0  0  0  0  0  0  0
    0.1969    0.1553    2.3544 S   0  0  0  0  0  0  0  0  0  0  0  0
    0.2664    0.1417    4.0154 C   0  0  0  0  0  0  0  0  0  0  0  0
   -0.9966    0.0451    4.5308 C   0  0  0  0  0  0  0  0  0  0  0  0
   -2.0068   -0.0433    3.5025 C   0  0  0  0  0  0  0  0  0  0  0  0
   -5.3613   -3.8955    0.6996 O   0  0  0  0  0  0  0  0  0  0  0  0
   -3.3120   -0.0945    1.1302 H   0  0  0  0  0  0  0  0  0  0  0  0
    1.4748   -2.4763   -0.0972 H   0  0  0  0  0  0  0  0  0  0  0  0
    3.5160   -1.1756    0.4000 H   0  0  0  0  0  0  0  0  0  0  0  0
    3.4644    1.3028    0.3480 H   0  0  0  0  0  0  0  0  0  0  0  0
    1.3730    2.4548   -0.1835 H   0  0  0  0  0  0  0  0  0  0  0  0
   -4.1359   -2.0102   -1.9080 H   0  0  0  0  0  0  0  0  0  0  0  0
   -5.0666   -1.4840   -0.4618 H   0  0  0  0  0  0  0  0  0  0  0  0
   -4.8712   -4.3038   -1.2831 H   0  0  0  0  0  0  0  0  0  0  0  0
   -2.6543   -4.2098    0.6329 H   0  0  0  0  0  0  0  0  0  0  0  0
   -2.4288   -3.9460   -1.1356 H   0  0  0  0  0  0  0  0  0  0  0  0
   -0.2418    1.7066   -3.1802 H   0  0  0  0  0  0  0  0  0  0  0  0
    0.3383    3.8256   -4.3177 H   0  0  0  0  0  0  0  0  0  0  0  0
   -0.2381    5.9976   -3.2622 H   0  0  0  0  0  0  0  0  0  0  0  0
   -1.4017    6.0478   -1.0693 H   0  0  0  0  0  0  0  0  0  0  0  0
   -1.7280    3.9331    0.2033 H   0  0  0  0  0  0  0  0  0  0  0  0
    1.2283    0.2244    4.5032 H   0  0  0  0  0  0  0  0  0  0  0  0
   -1.1744    0.0473    5.5951 H   0  0  0  0  0  0  0  0  0  0  0  0
   -3.0642   -0.1048    3.7170 H   0  0  0  0  0  0  0  0  0  0  0  0
   -5.0478   -3.2405    1.3502 H   0  0  0  0  0  0  0  0  0  0  0  0
  1  2  2  0  0  0  0
  1  7  1  0  0  0  0
  2  3  1  0  0  0  0
  2 13  1  0  0  0  0
  3  5  1  0  0  0  0
  3 28  1  1  0  0  0
  3 22  1  0  0  0  0
  4  5  2  0  0  0  0
  4  6  1  0  0  0  0
  4 12  1  0  0  0  0
  6  7  1  0  0  0  0
  6 11  2  0  0  0  0
  7  8  2  0  0  0  0
  8  9  1  0  0  0  0
  8 29  1  0  0  0  0
  9 10  2  0  0  0  0
  9 30  1  0  0  0  0
 10 11  1  0  0  0  0
 10 31  1  0  0  0  0
 11 32  1  0  0  0  0
 12 17  1  0  0  0  0
 12 21  2  0  0  0  0
 13 14  1  0  0  0  0
 13 16  1  0  0  0  0
 14 15  1  0  0  0  0
 14 33  1  0  0  0  0
 14 34  1  0  0  0  0
 15 16  1  0  0  0  0
 15 27  1  0  0  0  0
 15 35  1  0  0  0  0
 16 36  1  0  0  0  0
 16 37  1  0  0  0  0
 17 18  2  0  0  0  0
 17 38  1  0  0  0  0
 18 19  1  0  0  0  0
 18 39  1  0  0  0  0
 19 20  2  0  0  0  0
 19 40  1  0  0  0  0
 20 21  1  0  0  0  0
 20 41  1  0  0  0  0
 21 42  1  0  0  0  0
 22 23  1  0  0  0  0
 22 26  2  0  0  0  0
 23 24  1  0  0  0  0
 24 25  2  0  0  0  0
 24 43  1  0  0  0  0
 25 26  1  0  0  0  0
 25 44  1  0  0  0  0
 26 45  1  0  0  0  0
 27 46  1  0  0  0  0
M  END
>  <DRUGBANK_ID>
DB08698

>  <COMMON_NAME>
1-[(3S)-5-PHENYL-3-THIOPHEN-2-YL-3H-1,4-BENZODIAZEPIN-2-YL]AZETIDIN-3-OL

$$$$
