
 OpenBabel10282417173D

 53 53  0  0  0  0  0  0  0  0999 V2000
    1.0970   -0.0738   -0.0866 C   0  0  0  0  0  0  0  0  0  0  0  0
    0.4369   -0.8551   -1.0070 N   0  0  0  0  0  0  0  0  0  0  0  0
    2.2906   -0.1901    0.1614 O   0  0  0  0  0  0  0  0  0  0  0  0
    0.3056    0.9924    0.6141 C   0  0  0  0  0  0  0  0  0  0  0  0
   -0.7910    0.6520    1.4491 C   0  0  0  0  0  0  0  0  0  0  0  0
   -1.3644    1.6047    2.3399 C   0  0  0  0  0  0  0  0  0  0  0  0
   -0.8694    2.9666    2.2406 C   0  0  0  0  0  0  0  0  0  0  0  0
    0.1813    3.3866    1.3269 C   0  0  0  0  0  0  0  0  0  0  0  0
    0.7538    2.3468    0.5284 C   0  0  0  0  0  0  0  0  0  0  0  0
   -1.9516    4.4026    3.5322 I   0  0  0  0  0  0  0  0  0  0  0  0
    2.2014    2.6983   -1.1550 I   0  0  0  0  0  0  0  0  0  0  0  0
   -1.8469   -1.2690    0.9015 I   0  0  0  0  0  0  0  0  0  0  0  0
    0.6359    4.8641    1.2512 C   0  0  0  0  0  0  0  0  0  0  0  0
    1.6087    5.2238    0.3460 N   0  0  0  0  0  0  0  0  0  0  0  0
    2.1446    6.5881    0.1427 C   0  0  0  0  0  0  0  0  0  0  0  0
    3.6500    6.6201    0.4599 C   0  0  0  0  0  0  0  0  0  0  0  0
    0.1687    5.7404    1.9647 O   0  0  0  0  0  0  0  0  0  0  0  0
    4.3907    5.8012   -0.4475 O   0  0  0  0  0  0  0  0  0  0  0  0
   -2.4128    1.3112    3.3172 N   0  0  0  0  0  0  0  0  0  0  0  0
   -2.6961    0.0694    3.8460 C   0  0  0  0  0  0  0  0  0  0  0  0
   -3.8918   -0.1397    4.7975 C   0  0  1  0  0  0  0  0  0  0  0  0
    1.9115    7.0383   -1.3137 C   0  0  0  0  0  0  0  0  0  0  0  0
   -1.9760   -0.9132    3.6365 O   0  0  0  0  0  0  0  0  0  0  0  0
    1.0668   -1.9953   -1.6988 C   0  0  0  0  0  0  0  0  0  0  0  0
    0.6693   -3.3690   -1.1168 C   0  0  0  0  0  0  0  0  0  0  0  0
    0.6694   -1.9224   -3.1767 C   0  0  0  0  0  0  0  0  0  0  0  0
    0.9705   -0.6296   -3.7021 O   0  0  0  0  0  0  0  0  0  0  0  0
   -5.0524   -0.6838    4.1777 O   0  0  0  0  0  0  0  0  0  0  0  0
   -3.3735   -1.2139    5.7727 C   0  0  0  0  0  0  0  0  0  0  0  0
   -0.7200   -3.6397   -1.3104 O   0  0  0  0  0  0  0  0  0  0  0  0
    0.5284    6.9870   -1.6552 O   0  0  0  0  0  0  0  0  0  0  0  0
   -0.5762   -0.8518   -0.9853 H   0  0  0  0  0  0  0  0  0  0  0  0
    2.0150    4.5190   -0.2450 H   0  0  0  0  0  0  0  0  0  0  0  0
    1.6186    7.2707    0.8175 H   0  0  0  0  0  0  0  0  0  0  0  0
    4.0372    7.6395    0.3634 H   0  0  0  0  0  0  0  0  0  0  0  0
    3.8526    6.2712    1.4774 H   0  0  0  0  0  0  0  0  0  0  0  0
    4.1421    4.8754   -0.2873 H   0  0  0  0  0  0  0  0  0  0  0  0
   -2.7112    2.1080    3.8811 H   0  0  0  0  0  0  0  0  0  0  0  0
   -4.1717    0.7752    5.3289 H   0  0  0  0  0  0  0  0  0  0  0  0
    2.2563    8.0677   -1.4550 H   0  0  0  0  0  0  0  0  0  0  0  0
    2.4465    6.4019   -2.0271 H   0  0  0  0  0  0  0  0  0  0  0  0
    2.1506   -1.8796   -1.5975 H   0  0  0  0  0  0  0  0  0  0  0  0
    1.2130   -4.1623   -1.6409 H   0  0  0  0  0  0  0  0  0  0  0  0
    0.8995   -3.4572   -0.0497 H   0  0  0  0  0  0  0  0  0  0  0  0
    1.2075   -2.6742   -3.7591 H   0  0  0  0  0  0  0  0  0  0  0  0
   -0.4068   -2.0784   -3.3077 H   0  0  0  0  0  0  0  0  0  0  0  0
    0.6042    0.0050   -3.0597 H   0  0  0  0  0  0  0  0  0  0  0  0
   -5.2893   -0.1470    3.4049 H   0  0  0  0  0  0  0  0  0  0  0  0
   -2.4477   -0.8762    6.2550 H   0  0  0  0  0  0  0  0  0  0  0  0
   -4.1058   -1.5019    6.5257 H   0  0  0  0  0  0  0  0  0  0  0  0
   -3.1278   -2.1424    5.2320 H   0  0  0  0  0  0  0  0  0  0  0  0
   -1.2153   -3.0767   -0.6900 H   0  0  0  0  0  0  0  0  0  0  0  0
    0.2263    6.0880   -1.4415 H   0  0  0  0  0  0  0  0  0  0  0  0
  1  2  1  0  0  0  0
  1  3  2  0  0  0  0
  2 24  1  0  0  0  0
  2 32  1  0  0  0  0
  4  5  1  0  0  0  0
  4  1  1  0  0  0  0
  5  6  2  0  0  0  0
  5 12  1  0  0  0  0
  6  7  1  0  0  0  0
  6 19  1  0  0  0  0
  7  8  2  0  0  0  0
  7 10  1  0  0  0  0
  8 13  1  0  0  0  0
  8  9  1  0  0  0  0
  9  4  2  0  0  0  0
  9 11  1  0  0  0  0
 13 14  1  0  0  0  0
 13 17  2  0  0  0  0
 14 15  1  0  0  0  0
 14 33  1  0  0  0  0
 15 16  1  0  0  0  0
 15 22  1  0  0  0  0
 15 34  1  0  0  0  0
 16 18  1  0  0  0  0
 16 35  1  0  0  0  0
 16 36  1  0  0  0  0
 18 37  1  0  0  0  0
 19 20  1  0  0  0  0
 19 38  1  0  0  0  0
 20 21  1  0  0  0  0
 20 23  2  0  0  0  0
 21 28  1  0  0  0  0
 21 29  1  0  0  0  0
 21 39  1  1  0  0  0
 22 31  1  0  0  0  0
 22 40  1  0  0  0  0
 22 41  1  0  0  0  0
 24 25  1  0  0  0  0
 24 26  1  0  0  0  0
 24 42  1  0  0  0  0
 25 30  1  0  0  0  0
 25 43  1  0  0  0  0
 25 44  1  0  0  0  0
 26 27  1  0  0  0  0
 26 45  1  0  0  0  0
 26 46  1  0  0  0  0
 27 47  1  0  0  0  0
 28 48  1  0  0  0  0
 29 49  1  0  0  0  0
 29 50  1  0  0  0  0
 29 51  1  0  0  0  0
 30 52  1  0  0  0  0
 31 53  1  0  0  0  0
M  END
>  <DRUGBANK_ID>
DB08947

>  <COMMON_NAME>
Iopamidol

>  <CAS_NUMBER>
60166-93-0

>  <UNII>
JR13W81H44

>  <SYNONYMS>
Iopamidol; Iopamidolum

$$$$
