
 OpenBabel10282417213D

 88 94  0  0  0  0  0  0  0  0999 V2000
   -2.6542    1.9087   -0.4093 C   0  0  0  0  0  0  0  0  0  0  0  0
   -1.3618    2.2076   -0.9693 C   0  0  0  0  0  0  0  0  0  0  0  0
   -2.9059    0.5370    0.2257 C   0  0  2  0  0  0  0  0  0  0  0  0
   -3.6658    2.8871   -0.3909 C   0  0  0  0  0  0  0  0  0  0  0  0
   -1.1419    3.4137   -1.6690 C   0  0  0  0  0  0  0  0  0  0  0  0
   -0.3912    1.2773   -0.6362 O   0  0  0  0  0  0  0  0  0  0  0  0
   -3.1559   -0.4321   -0.9585 C   0  0  0  0  0  0  0  0  0  0  0  0
   -4.0036    0.5001    1.2303 N   0  0  0  0  0  0  0  0  0  0  0  0
   -3.3901    4.1381   -0.9534 C   0  0  0  0  0  0  0  0  0  0  0  0
   -4.9471    2.6695    0.3860 C   0  0  0  0  0  0  0  0  0  0  0  0
   -2.1611    4.4044   -1.5992 C   0  0  0  0  0  0  0  0  0  0  0  0
   -0.0269    3.7959   -2.3493 O   0  0  0  0  0  0  0  0  0  0  0  0
    0.7861    1.6099    0.0246 C   0  0  0  0  0  0  0  0  0  0  0  0
   -3.0382   -1.8854   -0.6088 C   0  0  0  0  0  0  0  0  0  0  0  0
   -5.1956    1.1984    0.7408 C   0  0  0  0  0  0  0  0  0  0  0  0
   -3.5864    0.9889    2.5469 C   0  0  0  0  0  0  0  0  0  0  0  0
   -2.0657    5.7272   -1.9872 O   0  0  0  0  0  0  0  0  0  0  0  0
    1.1372    3.0163   -2.4555 C   0  0  0  0  0  0  0  0  0  0  0  0
    1.8434    0.7698   -0.4210 C   0  0  0  0  0  0  0  0  0  0  0  0
    1.1099    2.6489    0.9143 C   0  0  0  0  0  0  0  0  0  0  0  0
   -1.7823   -2.4500   -0.3972 C   0  0  0  0  0  0  0  0  0  0  0  0
   -4.1753   -2.6974   -0.5427 C   0  0  0  0  0  0  0  0  0  0  0  0
   -0.8162    6.2055   -2.4749 C   0  0  0  0  0  0  0  0  0  0  0  0
    3.1971    1.0011   -0.0905 C   0  0  0  0  0  0  0  0  0  0  0  0
    2.4693    2.9146    1.1724 C   0  0  0  0  0  0  0  0  0  0  0  0
    0.3778    3.5485    1.6372 O   0  0  0  0  0  0  0  0  0  0  0  0
   -1.6372   -3.8124   -0.1293 C   0  0  0  0  0  0  0  0  0  0  0  0
   -4.0417   -4.0569   -0.2819 C   0  0  0  0  0  0  0  0  0  0  0  0
    3.5062    2.1145    0.6896 C   0  0  0  0  0  0  0  0  0  0  0  0
    4.3007    0.0245   -0.5150 C   0  0  2  0  0  0  0  0  0  0  0  0
   -1.0123    3.4914    1.5551 C   0  0  0  0  0  0  0  0  0  0  0  0
   -2.7859   -4.6331   -0.0757 C   0  0  0  0  0  0  0  0  0  0  0  0
   -0.4122   -4.4293    0.0479 O   0  0  0  0  0  0  0  0  0  0  0  0
    4.9329    2.5014    0.9748 C   0  0  0  0  0  0  0  0  0  0  0  0
    4.2453   -1.2207    0.4181 C   0  0  0  0  0  0  0  0  0  0  0  0
    5.6359    0.6935   -0.5341 N   0  0  0  0  0  0  0  0  0  0  0  0
   -2.5783   -5.9660    0.1741 O   0  0  0  0  0  0  0  0  0  0  0  0
    0.6987   -3.6247    0.1381 C   0  0  0  0  0  0  0  0  0  0  0  0
    5.9146    1.3517    0.7491 C   0  0  0  0  0  0  0  0  0  0  0  0
    2.9955   -2.0606    0.3050 C   0  0  0  0  0  0  0  0  0  0  0  0
    6.7298   -0.1971   -0.9124 C   0  0  0  0  0  0  0  0  0  0  0  0
   -3.7362   -6.7924    0.2211 C   0  0  0  0  0  0  0  0  0  0  0  0
    1.5683   -3.5596   -0.9511 C   0  0  0  0  0  0  0  0  0  0  0  0
    0.9620   -2.9155    1.3083 C   0  0  0  0  0  0  0  0  0  0  0  0
    2.7187   -2.7774   -0.8666 C   0  0  0  0  0  0  0  0  0  0  0  0
    2.1012   -2.1206    1.3859 C   0  0  0  0  0  0  0  0  0  0  0  0
   -1.9973    0.2169    0.7516 H   0  0  0  0  0  0  0  0  0  0  0  0
   -4.1224   -0.2349   -1.4357 H   0  0  0  0  0  0  0  0  0  0  0  0
   -2.4244   -0.2503   -1.7593 H   0  0  0  0  0  0  0  0  0  0  0  0
   -4.1051    4.9517   -0.8287 H   0  0  0  0  0  0  0  0  0  0  0  0
   -5.8023    3.0400   -0.1898 H   0  0  0  0  0  0  0  0  0  0  0  0
   -4.8994    3.2576    1.3131 H   0  0  0  0  0  0  0  0  0  0  0  0
   -5.5758    0.6783   -0.1454 H   0  0  0  0  0  0  0  0  0  0  0  0
   -6.0068    1.1169    1.4760 H   0  0  0  0  0  0  0  0  0  0  0  0
   -2.7486    0.4004    2.9385 H   0  0  0  0  0  0  0  0  0  0  0  0
   -3.2900    2.0415    2.5455 H   0  0  0  0  0  0  0  0  0  0  0  0
   -4.4006    0.8856    3.2738 H   0  0  0  0  0  0  0  0  0  0  0  0
    1.7130    3.1076   -1.5419 H   0  0  0  0  0  0  0  0  0  0  0  0
    0.9144    1.9912   -2.7566 H   0  0  0  0  0  0  0  0  0  0  0  0
    1.8008    3.4591   -3.1998 H   0  0  0  0  0  0  0  0  0  0  0  0
    1.6018   -0.0471   -1.1024 H   0  0  0  0  0  0  0  0  0  0  0  0
   -0.9102   -1.7971   -0.4657 H   0  0  0  0  0  0  0  0  0  0  0  0
   -5.1586   -2.2705   -0.7074 H   0  0  0  0  0  0  0  0  0  0  0  0
   -0.0245    6.1265   -1.7183 H   0  0  0  0  0  0  0  0  0  0  0  0
   -0.5534    5.7011   -3.4093 H   0  0  0  0  0  0  0  0  0  0  0  0
   -0.9189    7.2655   -2.7211 H   0  0  0  0  0  0  0  0  0  0  0  0
    2.7151    3.7985    1.7600 H   0  0  0  0  0  0  0  0  0  0  0  0
   -4.9563   -4.6462   -0.2568 H   0  0  0  0  0  0  0  0  0  0  0  0
    4.0919   -0.2713   -1.5525 H   0  0  0  0  0  0  0  0  0  0  0  0
   -1.2703    3.9777    0.6340 H   0  0  0  0  0  0  0  0  0  0  0  0
   -1.3555    2.4664    1.6703 H   0  0  0  0  0  0  0  0  0  0  0  0
   -1.5099    4.1114    2.2994 H   0  0  0  0  0  0  0  0  0  0  0  0
    5.2015    3.3419    0.3211 H   0  0  0  0  0  0  0  0  0  0  0  0
    5.0214    2.8442    2.0121 H   0  0  0  0  0  0  0  0  0  0  0  0
    4.3552   -0.9027    1.4626 H   0  0  0  0  0  0  0  0  0  0  0  0
    5.0802   -1.9004    0.2216 H   0  0  0  0  0  0  0  0  0  0  0  0
    6.9309    1.7642    0.7662 H   0  0  0  0  0  0  0  0  0  0  0  0
    5.8601    0.6426    1.5840 H   0  0  0  0  0  0  0  0  0  0  0  0
    7.6583    0.3716   -1.0391 H   0  0  0  0  0  0  0  0  0  0  0  0
    6.9299   -0.9722   -0.1656 H   0  0  0  0  0  0  0  0  0  0  0  0
    6.5240   -0.6788   -1.8740 H   0  0  0  0  0  0  0  0  0  0  0  0
   -4.4094   -6.4834    1.0282 H   0  0  0  0  0  0  0  0  0  0  0  0
   -4.2548   -6.7997   -0.7439 H   0  0  0  0  0  0  0  0  0  0  0  0
   -3.4143   -7.8161    0.4320 H   0  0  0  0  0  0  0  0  0  0  0  0
    1.3435   -4.1070   -1.8610 H   0  0  0  0  0  0  0  0  0  0  0  0
    0.2727   -2.9630    2.1468 H   0  0  0  0  0  0  0  0  0  0  0  0
    3.3935   -2.7268   -1.7188 H   0  0  0  0  0  0  0  0  0  0  0  0
    2.2836   -1.5380    2.2861 H   0  0  0  0  0  0  0  0  0  0  0  0
  1  2  1  0  0  0  0
  1  3  1  0  0  0  0
  1  4  2  0  0  0  0
  2  5  2  0  0  0  0
  2  6  1  0  0  0  0
  3  7  1  0  0  0  0
  3  8  1  0  0  0  0
  3 47  1  1  0  0  0
  4  9  1  0  0  0  0
  4 10  1  0  0  0  0
  5 11  1  0  0  0  0
  5 12  1  0  0  0  0
  6 13  1  0  0  0  0
  7 14  1  0  0  0  0
  7 48  1  0  0  0  0
  7 49  1  0  0  0  0
  8 15  1  0  0  0  0
  8 16  1  0  0  0  0
  9 11  2  0  0  0  0
  9 50  1  0  0  0  0
 10 15  1  0  0  0  0
 10 51  1  0  0  0  0
 10 52  1  0  0  0  0
 11 17  1  0  0  0  0
 12 18  1  0  0  0  0
 13 19  2  0  0  0  0
 13 20  1  0  0  0  0
 14 21  1  0  0  0  0
 14 22  2  0  0  0  0
 15 53  1  0  0  0  0
 15 54  1  0  0  0  0
 16 55  1  0  0  0  0
 16 56  1  0  0  0  0
 16 57  1  0  0  0  0
 17 23  1  0  0  0  0
 18 58  1  0  0  0  0
 18 59  1  0  0  0  0
 18 60  1  0  0  0  0
 19 24  1  0  0  0  0
 19 61  1  0  0  0  0
 20 25  2  0  0  0  0
 20 26  1  0  0  0  0
 21 27  2  0  0  0  0
 21 62  1  0  0  0  0
 22 28  1  0  0  0  0
 22 63  1  0  0  0  0
 23 64  1  0  0  0  0
 23 65  1  0  0  0  0
 23 66  1  0  0  0  0
 24 29  2  0  0  0  0
 24 30  1  0  0  0  0
 25 29  1  0  0  0  0
 25 67  1  0  0  0  0
 26 31  1  0  0  0  0
 27 32  1  0  0  0  0
 27 33  1  0  0  0  0
 28 32  2  0  0  0  0
 28 68  1  0  0  0  0
 29 34  1  0  0  0  0
 30 35  1  0  0  0  0
 30 36  1  0  0  0  0
 30 69  1  6  0  0  0
 31 70  1  0  0  0  0
 31 71  1  0  0  0  0
 31 72  1  0  0  0  0
 32 37  1  0  0  0  0
 33 38  1  0  0  0  0
 34 39  1  0  0  0  0
 34 73  1  0  0  0  0
 34 74  1  0  0  0  0
 35 40  1  0  0  0  0
 35 75  1  0  0  0  0
 35 76  1  0  0  0  0
 36 41  1  0  0  0  0
 36 39  1  0  0  0  0
 37 42  1  0  0  0  0
 38 43  1  0  0  0  0
 38 44  2  0  0  0  0
 39 77  1  0  0  0  0
 39 78  1  0  0  0  0
 40 45  1  0  0  0  0
 40 46  2  0  0  0  0
 41 79  1  0  0  0  0
 41 80  1  0  0  0  0
 41 81  1  0  0  0  0
 42 82  1  0  0  0  0
 42 83  1  0  0  0  0
 42 84  1  0  0  0  0
 43 45  2  0  0  0  0
 43 85  1  0  0  0  0
 44 46  1  0  0  0  0
 44 86  1  0  0  0  0
 45 87  1  0  0  0  0
 46 88  1  0  0  0  0
M  END
>  <DRUGBANK_ID>
DB14066

>  <COMMON_NAME>
Tetrandrine

>  <CAS_NUMBER>
518-34-3

>  <UNII>
29EX23D5AJ

>  <SYNONYMS>
(+)-Tetrandrine; (S,S)-Tetrandrine; D-Tetrandrine; Fanchinine; Hanjisong; Sinomenine A

$$$$
