
 OpenBabel10282417193D

 60 65  0  0  0  0  0  0  0  0999 V2000
   -2.3880    0.1919    0.5931 C   0  0  0  0  0  0  0  0  0  0  0  0
   -0.9761    0.0673    0.3141 C   0  0  0  0  0  0  0  0  0  0  0  0
   -0.1963   -1.0476    0.0503 C   0  0  0  0  0  0  0  0  0  0  0  0
    1.4519   -0.4143   -0.1030 S   0  0  0  0  0  0  0  0  0  0  0  0
    0.8670    1.1926    0.0299 C   0  0  0  0  0  0  0  0  0  0  0  0
   -0.4154    1.2956    0.1851 N   0  0  0  0  0  0  0  0  0  0  0  0
    1.6378    2.4181    0.0295 C   0  0  0  0  0  0  0  0  0  0  0  0
    2.4484    2.7961   -1.0310 C   0  0  0  0  0  0  0  0  0  0  0  0
    3.0449    4.0536   -1.0093 C   0  0  0  0  0  0  0  0  0  0  0  0
    2.7821    4.9023    0.0585 C   0  0  0  0  0  0  0  0  0  0  0  0
    1.9490    4.5986    1.0731 N   0  0  0  0  0  0  0  0  0  0  0  0
    1.3830    3.3707    1.0243 C   0  0  0  0  0  0  0  0  0  0  0  0
   -0.4349   -2.5219   -0.0184 C   0  0  0  0  0  0  0  0  0  0  0  0
    0.4999   -3.3086    0.0195 O   0  0  0  0  0  0  0  0  0  0  0  0
   -1.7099   -3.1457   -0.0664 N   0  0  0  0  0  0  0  0  0  0  0  0
   -3.0373   -2.6611   -0.2147 C   0  0  0  0  0  0  0  0  0  0  0  0
   -3.2302   -1.7370   -1.2680 C   0  0  0  0  0  0  0  0  0  0  0  0
   -4.3361   -0.8885   -1.2680 C   0  0  0  0  0  0  0  0  0  0  0  0
   -5.2704   -1.0029   -0.2364 C   0  0  0  0  0  0  0  0  0  0  0  0
   -5.1918   -2.0624    0.7267 C   0  0  0  0  0  0  0  0  0  0  0  0
   -4.0812   -2.9534    0.7698 C   0  0  0  0  0  0  0  0  0  0  0  0
   -3.8172   -4.0131    1.8441 C   0  0  0  0  0  0  0  0  0  0  0  0
   -4.5701   -4.7557    2.7955 C   0  0  0  0  0  0  0  0  0  0  0  0
   -3.6379   -5.6034    3.4962 N   0  0  0  0  0  0  0  0  0  0  0  0
   -3.4219   -6.3247    4.7461 C   0  0  0  0  0  0  0  0  0  0  0  0
   -2.1312   -6.7433    4.8283 C   0  0  0  0  0  0  0  0  0  0  0  0
   -1.0936   -6.1597    3.5440 S   0  0  0  0  0  0  0  0  0  0  0  0
   -2.4566   -5.3612    2.8416 C   0  0  0  0  0  0  0  0  0  0  0  0
   -2.4930   -4.3897    1.9843 N   0  0  0  0  0  0  0  0  0  0  0  0
   -4.2722   -6.3996    6.0363 C   0  0  0  0  0  0  0  0  0  0  0  0
   -4.6033   -5.1905    6.8501 N   0  0  0  0  0  0  0  0  0  0  0  0
   -5.1964   -4.1416    6.0120 C   0  0  0  0  0  0  0  0  0  0  0  0
   -4.0758   -3.3501    5.3010 C   0  0  0  0  0  0  0  0  0  0  0  0
   -3.0461   -2.7994    6.1144 O   0  0  0  0  0  0  0  0  0  0  0  0
   -2.4311   -3.8699    6.8622 C   0  0  0  0  0  0  0  0  0  0  0  0
   -3.5446   -4.5317    7.6750 C   0  0  0  0  0  0  0  0  0  0  0  0
   -2.7168    0.8459    1.3906 H   0  0  0  0  0  0  0  0  0  0  0  0
   -2.7935    0.6005   -0.3364 H   0  0  0  0  0  0  0  0  0  0  0  0
   -2.7116   -0.7746    0.9134 H   0  0  0  0  0  0  0  0  0  0  0  0
    2.5721    2.1413   -1.8879 H   0  0  0  0  0  0  0  0  0  0  0  0
    3.6947    4.3685   -1.8162 H   0  0  0  0  0  0  0  0  0  0  0  0
    3.2433    5.8828    0.1221 H   0  0  0  0  0  0  0  0  0  0  0  0
    0.6635    3.1739    1.8200 H   0  0  0  0  0  0  0  0  0  0  0  0
   -1.6552   -4.0656    0.3744 H   0  0  0  0  0  0  0  0  0  0  0  0
   -2.4030   -1.5119   -1.9425 H   0  0  0  0  0  0  0  0  0  0  0  0
   -4.3218   -0.0050   -1.9163 H   0  0  0  0  0  0  0  0  0  0  0  0
   -6.0066   -0.1975   -0.1413 H   0  0  0  0  0  0  0  0  0  0  0  0
   -5.9857   -2.0743    1.4709 H   0  0  0  0  0  0  0  0  0  0  0  0
   -5.5966   -4.6999    3.1380 H   0  0  0  0  0  0  0  0  0  0  0  0
   -1.6695   -7.2108    5.6929 H   0  0  0  0  0  0  0  0  0  0  0  0
   -5.2133   -6.9105    5.7952 H   0  0  0  0  0  0  0  0  0  0  0  0
   -3.7933   -7.0999    6.7472 H   0  0  0  0  0  0  0  0  0  0  0  0
   -5.8033   -3.4549    6.6110 H   0  0  0  0  0  0  0  0  0  0  0  0
   -5.9075   -4.6349    5.3362 H   0  0  0  0  0  0  0  0  0  0  0  0
   -3.4731   -4.0369    4.7739 H   0  0  0  0  0  0  0  0  0  0  0  0
   -4.4483   -2.6645    4.5409 H   0  0  0  0  0  0  0  0  0  0  0  0
   -1.6472   -3.4206    7.4746 H   0  0  0  0  0  0  0  0  0  0  0  0
   -1.9196   -4.6035    6.2298 H   0  0  0  0  0  0  0  0  0  0  0  0
   -4.0358   -3.6929    8.1999 H   0  0  0  0  0  0  0  0  0  0  0  0
   -3.1501   -5.1789    8.4605 H   0  0  0  0  0  0  0  0  0  0  0  0
  1  2  1  0  0  0  0
  1 37  1  0  0  0  0
  1 38  1  0  0  0  0
  1 39  1  0  0  0  0
  2  3  2  0  0  0  0
  2  6  1  0  0  0  0
  3  4  1  0  0  0  0
  3 13  1  0  0  0  0
  4  5  1  0  0  0  0
  5  6  2  0  0  0  0
  5  7  1  0  0  0  0
  7  8  2  0  0  0  0
  7 12  1  0  0  0  0
  8  9  1  0  0  0  0
  8 40  1  0  0  0  0
  9 10  2  0  0  0  0
  9 41  1  0  0  0  0
 10 11  1  0  0  0  0
 10 42  1  0  0  0  0
 11 12  2  0  0  0  0
 12 43  1  0  0  0  0
 13 14  2  0  0  0  0
 13 15  1  0  0  0  0
 15 16  1  0  0  0  0
 15 44  1  0  0  0  0
 16 17  2  0  0  0  0
 16 21  1  0  0  0  0
 17 18  1  0  0  0  0
 17 45  1  0  0  0  0
 18 19  2  0  0  0  0
 18 46  1  0  0  0  0
 19 20  1  0  0  0  0
 19 47  1  0  0  0  0
 20 21  2  0  0  0  0
 20 48  1  0  0  0  0
 21 22  1  0  0  0  0
 22 23  2  0  0  0  0
 22 29  1  0  0  0  0
 23 24  1  0  0  0  0
 23 49  1  0  0  0  0
 24 25  1  0  0  0  0
 24 28  1  0  0  0  0
 25 26  2  0  0  0  0
 25 30  1  0  0  0  0
 26 27  1  0  0  0  0
 26 50  1  0  0  0  0
 27 28  1  0  0  0  0
 28 29  2  0  0  0  0
 30 31  1  0  0  0  0
 30 51  1  0  0  0  0
 30 52  1  0  0  0  0
 31 32  1  0  0  0  0
 31 36  1  0  0  0  0
 32 33  1  0  0  0  0
 32 53  1  0  0  0  0
 32 54  1  0  0  0  0
 33 34  1  0  0  0  0
 33 55  1  0  0  0  0
 33 56  1  0  0  0  0
 34 35  1  0  0  0  0
 35 36  1  0  0  0  0
 35 57  1  0  0  0  0
 35 58  1  0  0  0  0
 36 59  1  0  0  0  0
 36 60  1  0  0  0  0
M  END
>  <DRUGBANK_ID>
DB12186

>  <COMMON_NAME>
SRT-2104

>  <CAS_NUMBER>
1093403-33-8

>  <UNII>
4521NR0J09

$$$$
