
 OpenBabel10282417123D

 82 86  0  0  0  0  0  0  0  0999 V2000
    1.1109    2.5271    3.2424 P   0  0  0  0  0  0  0  0  0  0  0  0
   -2.6918   -1.9992    1.3380 P   0  0  1  0  0  0  0  0  0  0  0  0
   -4.9366   -0.7723    0.7523 P   0  0  1  0  0  0  0  0  0  0  0  0
   -3.3766   -0.8373    5.3744 O   0  0  0  0  0  0  0  0  0  0  0  0
   -3.0556    0.9668    3.6750 O   0  0  0  0  0  0  0  0  0  0  0  0
   -6.7893   -1.5668    4.8488 O   0  0  0  0  0  0  0  0  0  0  0  0
   -4.8985   -3.3172    4.1125 O   0  0  0  0  0  0  0  0  0  0  0  0
   -0.1353    2.5564    4.2490 O   0  0  0  0  0  0  0  0  0  0  0  0
   -1.9698    3.4495    2.8345 O   0  0  0  0  0  0  0  0  0  0  0  0
   -5.8073    1.8549    4.6583 O   0  0  0  0  0  0  0  0  0  0  0  0
   -2.8859   -0.3793    1.9134 O   0  0  0  0  0  0  0  0  0  0  0  0
   -5.3536    4.1080    5.4202 O   0  0  0  0  0  0  0  0  0  0  0  0
   -3.3855   -0.5662    0.0145 O   0  0  0  0  0  0  0  0  0  0  0  0
   -4.2356   -2.0999    1.1020 O   0  0  0  0  0  0  0  0  0  0  0  0
    1.3433    4.1347    3.1399 O   0  0  0  0  0  0  0  0  0  0  0  0
    0.0500    2.7129    1.8886 O   0  0  0  0  0  0  0  0  0  0  0  0
   -1.7021   -1.6680    0.0281 O   0  0  0  0  0  0  0  0  0  0  0  0
   -5.8511    1.0227   10.5254 O   0  0  0  0  0  0  0  0  0  0  0  0
    2.0605    2.3608    4.4541 O   0  0  0  0  0  0  0  0  0  0  0  0
   -4.8122    0.6903    1.3475 O   0  0  0  0  0  0  0  0  0  0  0  0
   -2.5181   -3.4491    0.8231 O   0  0  0  0  0  0  0  0  0  0  0  0
   -6.3249   -0.9568    1.4127 O   0  0  0  0  0  0  0  0  0  0  0  0
   -4.9274    0.6097    6.4563 N   0  0  0  0  0  0  0  0  0  0  0  0
   -1.0054   -0.4794    5.3851 N   0  0  0  0  0  0  0  0  0  0  0  0
   -0.9464   -1.9929    7.1044 N   0  0  0  0  0  0  0  0  0  0  0  0
    0.0760   -2.1235    3.6942 N   0  0  0  0  0  0  0  0  0  0  0  0
   -5.7436    3.2658   10.3793 N   0  0  0  0  0  0  0  0  0  0  0  0
    0.2502   -4.3870    4.5548 N   0  0  0  0  0  0  0  0  0  0  0  0
    0.0324   -4.8853    6.8261 N   0  0  0  0  0  0  0  0  0  0  0  0
   -4.7175   -0.7095    5.8203 C   0  0  1  0  0  0  0  0  0  0  0  0
   -5.5294   -0.9854    4.5846 C   0  0  1  0  0  0  0  0  0  0  0  0
   -4.6488   -1.9518    3.8506 C   0  0  1  0  0  0  0  0  0  0  0  0
   -3.2458   -1.6289    4.1797 C   0  0  1  0  0  0  0  0  0  0  0  0
   -0.8115    1.4677    3.7542 C   0  0  2  0  0  0  0  0  0  0  0  0
   -1.6529    2.0842    2.6402 C   0  0  1  0  0  0  0  0  0  0  0  0
   -1.6961    0.9092    4.7295 C   0  0  1  0  0  0  0  0  0  0  0  0
   -2.8506    1.5698    2.1635 C   0  0  1  0  0  0  0  0  0  0  0  0
   -4.7874    1.7780    5.6254 C   0  0  2  0  0  0  0  0  0  0  0  0
   -4.6395    3.1586    6.2412 C   0  0  2  0  0  0  0  0  0  0  0  0
   -2.3469   -1.0176    3.0702 C   0  0  0  0  0  0  0  0  0  0  0  0
   -5.1941    0.7627    7.8030 C   0  0  0  0  0  0  0  0  0  0  0  0
   -5.0654    3.2510    7.6830 C   0  0  0  0  0  0  0  0  0  0  0  0
   -2.3660    0.7343    0.4893 C   0  0  0  0  0  0  0  0  0  0  0  0
   -5.2931    1.9568    8.4041 C   0  0  0  0  0  0  0  0  0  0  0  0
   -0.3622   -1.7116    4.9216 C   0  0  0  0  0  0  0  0  0  0  0  0
   -1.2663   -0.7728    6.7320 C   0  0  0  0  0  0  0  0  0  0  0  0
   -5.6515    1.9991    9.8547 C   0  0  0  0  0  0  0  0  0  0  0  0
   -0.4339   -2.6062    5.9948 C   0  0  0  0  0  0  0  0  0  0  0  0
   -0.0283   -3.9561    5.7979 C   0  0  0  0  0  0  0  0  0  0  0  0
    0.2402   -3.4776    3.5759 C   0  0  0  0  0  0  0  0  0  0  0  0
   -5.6133    4.1204    9.8657 H   0  0  0  0  0  0  0  0  0  0  0  0
   -6.0069    3.3371   11.3503 H   0  0  0  0  0  0  0  0  0  0  0  0
    0.0001   -4.4796    7.7535 H   0  0  0  0  0  0  0  0  0  0  0  0
    0.6603   -5.6625    6.6575 H   0  0  0  0  0  0  0  0  0  0  0  0
   -6.6046   -2.5239    4.9178 H   0  0  0  0  0  0  0  0  0  0  0  0
   -4.4464   -3.5517    4.9412 H   0  0  0  0  0  0  0  0  0  0  0  0
   -2.6556    3.4011    3.5225 H   0  0  0  0  0  0  0  0  0  0  0  0
   -6.6196    1.7329    5.1789 H   0  0  0  0  0  0  0  0  0  0  0  0
   -5.4730    3.6423    4.5583 H   0  0  0  0  0  0  0  0  0  0  0  0
    1.8291    4.3734    3.9592 H   0  0  0  0  0  0  0  0  0  0  0  0
    0.3495    3.5347    1.4428 H   0  0  0  0  0  0  0  0  0  0  0  0
   -2.3048   -1.4215   -0.7065 H   0  0  0  0  0  0  0  0  0  0  0  0
   -4.9455    1.3518    0.6459 H   0  0  0  0  0  0  0  0  0  0  0  0
   -4.8740   -1.5135    6.5481 H   0  0  0  0  0  0  0  0  0  0  0  0
   -5.6302   -0.1228    3.9255 H   0  0  0  0  0  0  0  0  0  0  0  0
   -4.8694   -1.7662    2.8514 H   0  0  0  0  0  0  0  0  0  0  0  0
   -2.7189   -2.5452    4.4570 H   0  0  0  0  0  0  0  0  0  0  0  0
   -0.1011    0.6785    3.4079 H   0  0  0  0  0  0  0  0  0  0  0  0
   -1.1945    1.6819    1.7473 H   0  0  0  0  0  0  0  0  0  0  0  0
   -1.9174    1.5036    5.6169 H   0  0  0  0  0  0  0  0  0  0  0  0
   -3.6183    2.3056    1.9316 H   0  0  0  0  0  0  0  0  0  0  0  0
   -3.8449    1.7267    5.1622 H   0  0  0  0  0  0  0  0  0  0  0  0
   -3.5885    3.4730    6.1695 H   0  0  0  0  0  0  0  0  0  0  0  0
   -1.4851   -1.5963    2.7646 H   0  0  0  0  0  0  0  0  0  0  0  0
   -1.6209   -0.3394    3.3159 H   0  0  0  0  0  0  0  0  0  0  0  0
   -5.3385   -0.1738    8.3447 H   0  0  0  0  0  0  0  0  0  0  0  0
   -4.2545    3.7810    8.1996 H   0  0  0  0  0  0  0  0  0  0  0  0
   -5.9654    3.8692    7.7439 H   0  0  0  0  0  0  0  0  0  0  0  0
   -1.6179    0.9909   -0.2976 H   0  0  0  0  0  0  0  0  0  0  0  0
   -1.4650    0.1409    0.8851 H   0  0  0  0  0  0  0  0  0  0  0  0
   -1.8539   -0.0932    7.3313 H   0  0  0  0  0  0  0  0  0  0  0  0
    0.3368   -3.8946    2.5657 H   0  0  0  0  0  0  0  0  0  0  0  0
  1  8  1  0  0  0  0
  1 15  1  0  0  0  0
  1 16  1  0  0  0  0
  1 19  2  0  0  0  0
  2 17  1  0  0  0  0
  2 21  2  1  0  0  0
  2 14  1  0  0  0  0
  2 11  1  0  0  0  0
  3 13  1  0  0  0  0
  3 14  1  0  0  0  0
  3 20  1  0  0  0  0
  3 22  2  6  0  0  0
  4 30  1  0  0  0  0
  4 33  1  0  0  0  0
  5 36  1  0  0  0  0
  5 37  1  0  0  0  0
  6 55  1  0  0  0  0
  7 56  1  0  0  0  0
  9 57  1  0  0  0  0
 10 58  1  0  0  0  0
 11 40  1  0  0  0  0
 12 59  1  0  0  0  0
 13 43  1  0  0  0  0
 15 60  1  0  0  0  0
 16 61  1  0  0  0  0
 17 62  1  0  0  0  0
 18 47  2  0  0  0  0
 20 63  1  0  0  0  0
 23 38  1  0  0  0  0
 23 41  1  0  0  0  0
 24 45  1  0  0  0  0
 24 46  1  0  0  0  0
 25 46  2  0  0  0  0
 25 48  1  0  0  0  0
 26 45  2  0  0  0  0
 26 50  1  0  0  0  0
 27 47  1  0  0  0  0
 27 51  1  0  0  0  0
 27 52  1  0  0  0  0
 28 49  1  0  0  0  0
 28 50  2  0  0  0  0
 29 49  1  0  0  0  0
 29 53  1  0  0  0  0
 29 54  1  0  0  0  0
 30 31  1  0  0  0  0
 30 64  1  1  0  0  0
 30 23  1  0  0  0  0
 31  6  1  0  0  0  0
 31 32  1  0  0  0  0
 31 65  1  6  0  0  0
 32  7  1  0  0  0  0
 32 33  1  0  0  0  0
 32 66  1  6  0  0  0
 33 40  1  0  0  0  0
 33 67  1  1  0  0  0
 34  8  1  0  0  0  0
 34 35  1  0  0  0  0
 34 36  1  0  0  0  0
 34 68  1  6  0  0  0
 35  9  1  0  0  0  0
 35 37  1  0  0  0  0
 35 69  1  6  0  0  0
 36 70  1  1  0  0  0
 36 24  1  0  0  0  0
 37 71  1  6  0  0  0
 37 43  1  0  0  0  0
 38 10  1  0  0  0  0
 38 39  1  0  0  0  0
 38 72  1  6  0  0  0
 39 42  1  0  0  0  0
 39 73  1  6  0  0  0
 39 12  1  0  0  0  0
 40 74  1  0  0  0  0
 40 75  1  0  0  0  0
 41 44  2  0  0  0  0
 41 76  1  0  0  0  0
 42 44  1  0  0  0  0
 42 77  1  0  0  0  0
 42 78  1  0  0  0  0
 43 79  1  0  0  0  0
 43 80  1  0  0  0  0
 44 47  1  0  0  0  0
 45 48  1  0  0  0  0
 46 81  1  0  0  0  0
 48 49  2  0  0  0  0
 50 82  1  0  0  0  0
M  END
>  <DRUGBANK_ID>
DB02319

>  <SECONDARY_ACCESSION_NUMBERS>
EXPT02403

>  <COMMON_NAME>
5,6-dihydroxy-NADP

$$$$
