
 OpenBabel10282417163D

 22 22  0  0  0  0  0  0  0  0999 V2000
    1.3523   -0.2566    0.0116 C   0  0  0  0  0  0  0  0  0  0  0  0
    0.4142   -1.3062   -0.0128 C   0  0  0  0  0  0  0  0  0  0  0  0
   -0.9568   -1.0645   -0.0290 C   0  0  0  0  0  0  0  0  0  0  0  0
   -1.4280    0.2403   -0.0115 C   0  0  0  0  0  0  0  0  0  0  0  0
   -0.5266    1.3014    0.0249 C   0  0  0  0  0  0  0  0  0  0  0  0
    0.8511    1.0584    0.0027 C   0  0  0  0  0  0  0  0  0  0  0  0
    3.3236    0.0942    1.3145 O   0  0  0  0  0  0  0  0  0  0  0  0
    2.8596   -0.5279    0.1030 C   0  0  2  0  0  0  0  0  0  0  0  0
    3.6256    0.1034   -1.1063 C   0  0  0  0  0  0  0  0  0  0  0  0
    4.3210   -0.7461   -1.8981 O   0  0  0  0  0  0  0  0  0  0  0  0
    3.6893    1.3140   -1.3183 O   0  0  0  0  0  0  0  0  0  0  0  0
    3.1584   -2.0230    0.2912 C   0  0  0  0  0  0  0  0  0  0  0  0
    0.7196   -2.3475   -0.0022 H   0  0  0  0  0  0  0  0  0  0  0  0
   -1.6462   -1.9040   -0.0350 H   0  0  0  0  0  0  0  0  0  0  0  0
   -2.4972    0.4279   -0.0239 H   0  0  0  0  0  0  0  0  0  0  0  0
   -0.8960    2.3220    0.0843 H   0  0  0  0  0  0  0  0  0  0  0  0
    1.5301    1.9115   -0.0101 H   0  0  0  0  0  0  0  0  0  0  0  0
    4.2962    0.1021    1.2826 H   0  0  0  0  0  0  0  0  0  0  0  0
    4.2812   -1.6959   -1.6919 H   0  0  0  0  0  0  0  0  0  0  0  0
    2.6563   -2.4167    1.1847 H   0  0  0  0  0  0  0  0  0  0  0  0
    2.8287   -2.6118   -0.5732 H   0  0  0  0  0  0  0  0  0  0  0  0
    4.2264   -2.2038    0.4431 H   0  0  0  0  0  0  0  0  0  0  0  0
  1  2  1  0  0  0  0
  1  6  2  0  0  0  0
  1  8  1  0  0  0  0
  2  3  2  0  0  0  0
  2 13  1  0  0  0  0
  3  4  1  0  0  0  0
  3 14  1  0  0  0  0
  4  5  2  0  0  0  0
  4 15  1  0  0  0  0
  5  6  1  0  0  0  0
  5 16  1  0  0  0  0
  6 17  1  0  0  0  0
  7 18  1  0  0  0  0
  8  9  1  6  0  0  0
  8  7  1  0  0  0  0
  9 10  1  0  0  0  0
  9 11  2  0  0  0  0
 10 19  1  0  0  0  0
 12  8  1  0  0  0  0
 12 20  1  0  0  0  0
 12 21  1  0  0  0  0
 12 22  1  0  0  0  0
M  END
>  <DRUGBANK_ID>
DB07381

>  <SECONDARY_ACCESSION_NUMBERS>
DB03954

>  <COMMON_NAME>
(S)-atrolactic acid

>  <CAS_NUMBER>
13113-71-8

>  <UNII>
22Y6G519RU

>  <SYNONYMS>
(S)-(+)-Atrolactic acid; (S)-2-Hydroxy-2-phenylpropanoic acid; (S)-2-Phenyllactic acid; (S)-atrolactic acid

$$$$
