
 OpenBabel10282417183D

 70 74  0  0  1  0  0  0  0  0999 V2000
    2.1379   -7.3598    2.0640 C   0  0  0  0  0  0  0  0  0  0  0  0
    3.2381   -6.3208    1.8846 C   0  0  0  0  0  0  0  0  0  0  0  0
    3.9701   -6.5229    0.5493 C   0  0  2  0  0  0  0  0  0  0  0  0
    5.1439   -7.4522    0.8249 C   0  0  0  0  0  0  0  0  0  0  0  0
    4.3513   -5.1664   -0.0713 C   0  0  2  0  0  0  0  0  0  0  0  0
    5.4220   -4.4108    0.7734 C   0  0  0  0  0  0  0  0  0  0  0  0
    6.1982   -4.8668    1.5976 O   0  0  0  0  0  0  0  0  0  0  0  0
    5.5783   -3.1015    0.4608 N   0  0  0  0  0  0  0  0  0  0  0  0
    4.9437   -2.4988   -0.6769 C   0  0  1  0  0  0  0  0  0  0  0  0
    3.4822   -2.9497   -0.7577 C   0  0  0  0  0  0  0  0  0  0  0  0
    2.6796   -2.2274   -1.2863 O   0  0  0  0  0  0  0  0  0  0  0  0
    3.1947   -4.2387   -0.3111 N   0  0  0  0  0  0  0  0  0  0  0  0
    1.7589   -4.6730   -0.1730 C   0  0  2  0  0  0  0  0  0  0  0  0
    0.9989   -4.6738   -1.4849 C   0  0  0  0  0  0  0  0  0  0  0  0
    0.7176   -3.6435   -2.3605 C   0  0  0  0  0  0  0  0  0  0  0  0
   -0.2610   -4.0172   -3.1940 O   0  0  0  0  0  0  0  0  0  0  0  0
   -0.3683   -5.3452   -2.9677 C   0  0  0  0  0  0  0  0  0  0  0  0
    0.3560   -5.8073   -1.9661 N   0  0  0  0  0  0  0  0  0  0  0  0
   -1.2152   -6.0008   -3.9609 C   0  0  0  0  0  0  0  0  0  0  0  0
    1.0075   -4.0583    1.1463 C   0  0  0  0  0  0  0  0  0  0  0  0
    0.7279   -4.7361    2.1407 O   0  0  0  0  0  0  0  0  0  0  0  0
    0.8062   -2.6897    1.1989 N   0  0  0  0  0  0  0  0  0  0  0  0
   -0.0009   -2.1370    0.1596 C   0  0  0  0  0  0  0  0  0  0  0  0
    0.4901   -0.7586   -0.2074 C   0  0  0  0  0  0  0  0  0  0  0  0
    0.2665    0.0834    0.9307 O   0  0  0  0  0  0  0  0  0  0  0  0
    0.9631   -0.4403    2.0895 C   0  0  0  0  0  0  0  0  0  0  0  0
    0.6051   -1.9072    2.4192 C   0  0  0  0  0  0  0  0  0  0  0  0
    5.0205   -0.9776   -0.5592 C   0  0  0  0  0  0  0  0  0  0  0  0
    6.4725   -0.4874   -0.6665 C   0  0  0  0  0  0  0  0  0  0  0  0
    6.4167    0.7767    0.1208 C   0  0  0  0  0  0  0  0  0  0  0  0
    7.3330    1.8068    0.1103 C   0  0  0  0  0  0  0  0  0  0  0  0
    7.0792    2.9223    0.9071 C   0  0  0  0  0  0  0  0  0  0  0  0
    5.9333    2.9825    1.7162 C   0  0  0  0  0  0  0  0  0  0  0  0
    5.0310    1.9187    1.7496 C   0  0  0  0  0  0  0  0  0  0  0  0
    5.2873    0.8249    0.9396 C   0  0  0  0  0  0  0  0  0  0  0  0
    4.4694   -0.4103    0.7715 C   0  0  0  0  0  0  0  0  0  0  0  0
    1.4580   -7.4152    1.2041 H   0  0  0  0  0  0  0  0  0  0  0  0
    1.5298   -7.1266    2.9406 H   0  0  0  0  0  0  0  0  0  0  0  0
    2.5773   -8.3499    2.1883 H   0  0  0  0  0  0  0  0  0  0  0  0
    2.8439   -5.3144    1.9441 H   0  0  0  0  0  0  0  0  0  0  0  0
    3.9260   -6.3275    2.7320 H   0  0  0  0  0  0  0  0  0  0  0  0
    3.3256   -7.0372   -0.1817 H   0  0  0  0  0  0  0  0  0  0  0  0
    4.8328   -8.2642    1.4880 H   0  0  0  0  0  0  0  0  0  0  0  0
    5.5650   -7.8682   -0.0898 H   0  0  0  0  0  0  0  0  0  0  0  0
    5.9419   -6.9458    1.3569 H   0  0  0  0  0  0  0  0  0  0  0  0
    4.8032   -5.3406   -1.0616 H   0  0  0  0  0  0  0  0  0  0  0  0
    6.3531   -2.6584    0.9400 H   0  0  0  0  0  0  0  0  0  0  0  0
    5.4270   -2.8423   -1.5995 H   0  0  0  0  0  0  0  0  0  0  0  0
    1.7598   -5.7403    0.0304 H   0  0  0  0  0  0  0  0  0  0  0  0
    0.9254   -2.5877   -2.3930 H   0  0  0  0  0  0  0  0  0  0  0  0
   -2.2579   -5.7123   -3.8043 H   0  0  0  0  0  0  0  0  0  0  0  0
   -0.9084   -5.6373   -4.9492 H   0  0  0  0  0  0  0  0  0  0  0  0
   -1.1040   -7.0817   -3.9278 H   0  0  0  0  0  0  0  0  0  0  0  0
   -1.0427   -2.1247    0.4907 H   0  0  0  0  0  0  0  0  0  0  0  0
   -0.0465   -2.8367   -0.6224 H   0  0  0  0  0  0  0  0  0  0  0  0
    1.5515   -0.6868   -0.4363 H   0  0  0  0  0  0  0  0  0  0  0  0
   -0.0413   -0.4053   -1.0947 H   0  0  0  0  0  0  0  0  0  0  0  0
    0.7530    0.2331    2.9188 H   0  0  0  0  0  0  0  0  0  0  0  0
    2.0326   -0.3952    1.9018 H   0  0  0  0  0  0  0  0  0  0  0  0
   -0.4547   -1.9823    2.6905 H   0  0  0  0  0  0  0  0  0  0  0  0
    1.2085   -2.2942    3.2456 H   0  0  0  0  0  0  0  0  0  0  0  0
    4.4379   -0.5106   -1.3687 H   0  0  0  0  0  0  0  0  0  0  0  0
    7.1894   -1.1717   -0.2045 H   0  0  0  0  0  0  0  0  0  0  0  0
    6.7448   -0.3322   -1.7126 H   0  0  0  0  0  0  0  0  0  0  0  0
    8.2169    1.7540   -0.5149 H   0  0  0  0  0  0  0  0  0  0  0  0
    7.7743    3.7567    0.8944 H   0  0  0  0  0  0  0  0  0  0  0  0
    5.7472    3.8696    2.3164 H   0  0  0  0  0  0  0  0  0  0  0  0
    4.1454    1.9677    2.3764 H   0  0  0  0  0  0  0  0  0  0  0  0
    3.4276   -0.1426    0.6370 H   0  0  0  0  0  0  0  0  0  0  0  0
    4.5884   -1.0767    1.6336 H   0  0  0  0  0  0  0  0  0  0  0  0
  1  2  1  0  0  0  0
  1 37  1  0  0  0  0
  1 38  1  0  0  0  0
  1 39  1  0  0  0  0
  2 40  1  0  0  0  0
  2 41  1  0  0  0  0
  3 42  1  6  0  0  0
  3  4  1  0  0  0  0
  3  2  1  0  0  0  0
  4 43  1  0  0  0  0
  4 44  1  0  0  0  0
  4 45  1  0  0  0  0
  5  3  1  0  0  0  0
  5  6  1  0  0  0  0
  5 12  1  0  0  0  0
  5 46  1  6  0  0  0
  6  7  2  0  0  0  0
  6  8  1  0  0  0  0
  8  9  1  0  0  0  0
  8 47  1  0  0  0  0
  9 10  1  0  0  0  0
  9 28  1  0  0  0  0
  9 48  1  6  0  0  0
 10 11  2  0  0  0  0
 10 12  1  0  0  0  0
 13 20  1  0  0  0  0
 13 49  1  1  0  0  0
 13 14  1  0  0  0  0
 13 12  1  0  0  0  0
 14 15  2  0  0  0  0
 14 18  1  0  0  0  0
 15 16  1  0  0  0  0
 15 50  1  0  0  0  0
 16 17  1  0  0  0  0
 17 18  2  0  0  0  0
 17 19  1  0  0  0  0
 19 51  1  0  0  0  0
 19 52  1  0  0  0  0
 19 53  1  0  0  0  0
 20 21  2  0  0  0  0
 20 22  1  0  0  0  0
 22 23  1  0  0  0  0
 22 27  1  0  0  0  0
 23 24  1  0  0  0  0
 23 54  1  0  0  0  0
 23 55  1  0  0  0  0
 24 25  1  0  0  0  0
 24 56  1  0  0  0  0
 24 57  1  0  0  0  0
 25 26  1  0  0  0  0
 26 27  1  0  0  0  0
 26 58  1  0  0  0  0
 26 59  1  0  0  0  0
 27 60  1  0  0  0  0
 27 61  1  0  0  0  0
 28 29  1  0  0  0  0
 28 36  1  0  0  0  0
 28 62  1  0  0  0  0
 29 30  1  0  0  0  0
 29 63  1  0  0  0  0
 29 64  1  0  0  0  0
 30 31  2  0  0  0  0
 30 35  1  0  0  0  0
 31 32  1  0  0  0  0
 31 65  1  0  0  0  0
 32 33  2  0  0  0  0
 32 66  1  0  0  0  0
 33 34  1  0  0  0  0
 33 67  1  0  0  0  0
 34 35  2  0  0  0  0
 34 68  1  0  0  0  0
 35 36  1  0  0  0  0
 36 69  1  0  0  0  0
 36 70  1  0  0  0  0
M  END
>  <DRUGBANK_ID>
DB11818

>  <COMMON_NAME>
Retosiban

>  <CAS_NUMBER>
820957-38-8

>  <UNII>
GIE06H28OX

>  <SYNONYMS>
Retosiban

$$$$
