
 OpenBabel10282417153D

 36 38  0  0  1  0  0  0  0  0999 V2000
    0.7260    0.0551    0.0144 O   0  0  0  0  0  0  0  0  0  0  0  0
    2.2350    0.1012    2.5897 O   0  0  0  0  0  0  0  0  0  0  0  0
    1.3373    6.8512    2.4738 O   0  0  0  0  0  0  0  0  0  0  0  0
   -0.4607    2.0527    0.8253 C   0  0  0  0  0  0  0  0  0  0  0  0
   -1.7064    2.5317    1.7090 C   0  0  0  0  0  0  0  0  0  0  0  0
   -1.8388    1.9215    0.3263 C   0  0  0  0  0  0  0  0  0  0  0  0
    0.3330    0.7492    1.2051 C   0  0  2  0  0  0  0  0  0  0  0  0
    0.3654    3.2785    0.5911 C   0  0  0  0  0  0  0  0  0  0  0  0
    1.4115    3.4846    1.4137 C   0  0  0  0  0  0  0  0  0  0  0  0
    1.5742    1.0098    2.0620 C   0  0  0  0  0  0  0  0  0  0  0  0
   -0.5395   -0.1211    2.1056 C   0  0  0  0  0  0  0  0  0  0  0  0
    1.9715    2.4001    2.1993 C   0  0  0  0  0  0  0  0  0  0  0  0
   -0.2167    4.3252   -0.3246 C   0  0  0  0  0  0  0  0  0  0  0  0
    2.1025    4.6920    1.8135 C   0  0  0  0  0  0  0  0  0  0  0  0
    2.9105    2.8919    3.0158 C   0  0  0  0  0  0  0  0  0  0  0  0
    2.9737    4.3252    2.7839 C   0  0  0  0  0  0  0  0  0  0  0  0
    1.8058    6.0783    1.3752 C   0  0  0  0  0  0  0  0  0  0  0  0
    3.8740    5.1887    3.5775 C   0  0  0  0  0  0  0  0  0  0  0  0
    1.6927   -0.0992    0.0580 H   0  0  0  0  0  0  0  0  0  0  0  0
    0.5590    6.3882    2.8306 H   0  0  0  0  0  0  0  0  0  0  0  0
   -2.7507    2.3343    2.0150 H   0  0  0  0  0  0  0  0  0  0  0  0
   -1.4607    2.2008    2.7331 H   0  0  0  0  0  0  0  0  0  0  0  0
   -2.2782    2.5857   -0.4080 H   0  0  0  0  0  0  0  0  0  0  0  0
   -2.2616    0.9303    0.2108 H   0  0  0  0  0  0  0  0  0  0  0  0
   -1.4948   -0.3604    1.6389 H   0  0  0  0  0  0  0  0  0  0  0  0
   -0.0741   -1.0544    2.4201 H   0  0  0  0  0  0  0  0  0  0  0  0
   -0.7268    0.4399    3.0261 H   0  0  0  0  0  0  0  0  0  0  0  0
   -0.7736    5.0561    0.2717 H   0  0  0  0  0  0  0  0  0  0  0  0
    0.5555    4.8158   -0.9232 H   0  0  0  0  0  0  0  0  0  0  0  0
   -0.9124    3.9157   -1.0595 H   0  0  0  0  0  0  0  0  0  0  0  0
    3.5029    2.3217    3.7162 H   0  0  0  0  0  0  0  0  0  0  0  0
    2.7097    6.5315    0.9638 H   0  0  0  0  0  0  0  0  0  0  0  0
    1.0453    6.1513    0.6067 H   0  0  0  0  0  0  0  0  0  0  0  0
    3.6484    5.1050    4.6448 H   0  0  0  0  0  0  0  0  0  0  0  0
    4.9119    4.8953    3.4025 H   0  0  0  0  0  0  0  0  0  0  0  0
    3.7675    6.2373    3.2904 H   0  0  0  0  0  0  0  0  0  0  0  0
  1 19  1  0  0  0  0
  2 10  2  0  0  0  0
  3 17  1  0  0  0  0
  3 20  1  0  0  0  0
  4  5  1  0  0  0  0
  4  6  1  0  0  0  0
  4  7  1  0  0  0  0
  4  8  1  0  0  0  0
  5  6  1  0  0  0  0
  5 21  1  0  0  0  0
  5 22  1  0  0  0  0
  6 23  1  0  0  0  0
  6 24  1  0  0  0  0
  7  1  1  6  0  0  0
  7 10  1  0  0  0  0
  7 11  1  0  0  0  0
  8  9  2  0  0  0  0
  8 13  1  0  0  0  0
  9 12  1  0  0  0  0
  9 14  1  0  0  0  0
 10 12  1  0  0  0  0
 11 25  1  0  0  0  0
 11 26  1  0  0  0  0
 11 27  1  0  0  0  0
 12 15  2  0  0  0  0
 13 28  1  0  0  0  0
 13 29  1  0  0  0  0
 13 30  1  0  0  0  0
 14 16  2  0  0  0  0
 14 17  1  0  0  0  0
 15 16  1  0  0  0  0
 15 31  1  0  0  0  0
 16 18  1  0  0  0  0
 17 32  1  0  0  0  0
 17 33  1  0  0  0  0
 18 34  1  0  0  0  0
 18 35  1  0  0  0  0
 18 36  1  0  0  0  0
M  END
>  <DRUGBANK_ID>
DB05786

>  <SECONDARY_ACCESSION_NUMBERS>
DB11733

>  <COMMON_NAME>
Irofulven

>  <CAS_NUMBER>
158440-71-2

>  <UNII>
6B799IH05A

>  <SYNONYMS>
6-hydroxymethylacylfulvene; HMAF; Irofulven

$$$$
