
 OpenBabel10282417133D

 37 38  0  0  1  0  0  0  0  0999 V2000
  -12.1202   -0.1056    3.9888 C   0  0  0  0  0  0  0  0  0  0  0  0
  -12.8222    1.2973    2.1546 C   0  0  0  0  0  0  0  0  0  0  0  0
  -13.2456   -0.9186    3.8122 C   0  0  0  0  0  0  0  0  0  0  0  0
  -13.9464    0.4844    1.9759 C   0  0  0  0  0  0  0  0  0  0  0  0
  -10.6962    1.8412    3.3281 C   0  0  0  0  0  0  0  0  0  0  0  0
   -5.8188    1.5624    3.2070 C   0  0  0  0  0  0  0  0  0  0  0  0
   -5.7384   -1.3358    2.0186 C   0  0  0  0  0  0  0  0  0  0  0  0
  -11.8950    1.0056    3.1601 C   0  0  0  0  0  0  0  0  0  0  0  0
  -14.1542   -0.6113    2.8064 C   0  0  0  0  0  0  0  0  0  0  0  0
   -7.1490   -1.3585    2.6060 C   0  0  1  0  0  0  0  0  0  0  0  0
   -9.4589    1.3393    3.2160 C   0  0  0  0  0  0  0  0  0  0  0  0
   -5.0442    0.7679    4.2540 C   0  0  0  0  0  0  0  0  0  0  0  0
   -7.8328    0.0071    2.8694 C   0  0  0  0  0  0  0  0  0  0  0  0
   -8.2059    2.1152    3.3996 C   0  0  0  0  0  0  0  0  0  0  0  0
   -7.9988   -2.1693    1.6853 N   0  0  0  0  0  0  0  0  0  0  0  0
   -9.1369    0.0419    2.9013 N   0  0  0  0  0  0  0  0  0  0  0  0
   -7.2283    1.1764    3.1954 N   0  0  0  0  0  0  0  0  0  0  0  0
   -5.7197   -1.5100    0.6054 O   0  0  0  0  0  0  0  0  0  0  0  0
  -15.2743   -1.3591    2.5911 O   0  0  0  0  0  0  0  0  0  0  0  0
   -4.0718    0.0557    4.0545 O   0  0  0  0  0  0  0  0  0  0  0  0
   -5.5425    0.8678    5.4978 O   0  0  0  0  0  0  0  0  0  0  0  0
   -8.0937    3.3072    3.6394 O   0  0  0  0  0  0  0  0  0  0  0  0
  -10.8571    2.8952    3.5397 H   0  0  0  0  0  0  0  0  0  0  0  0
   -7.1356   -1.8603    3.5840 H   0  0  0  0  0  0  0  0  0  0  0  0
  -11.4034   -0.3544    4.7687 H   0  0  0  0  0  0  0  0  0  0  0  0
  -12.6704    2.1416    1.4874 H   0  0  0  0  0  0  0  0  0  0  0  0
  -13.3828   -1.7797    4.4583 H   0  0  0  0  0  0  0  0  0  0  0  0
  -14.6576    0.7007    1.1841 H   0  0  0  0  0  0  0  0  0  0  0  0
   -5.4071    1.4469    2.1994 H   0  0  0  0  0  0  0  0  0  0  0  0
   -5.6949    2.6245    3.4386 H   0  0  0  0  0  0  0  0  0  0  0  0
   -5.2439   -0.4004    2.1424 H   0  0  0  0  0  0  0  0  0  0  0  0
   -5.1062   -2.0928    2.4922 H   0  0  0  0  0  0  0  0  0  0  0  0
   -8.9558   -2.1637    2.0521 H   0  0  0  0  0  0  0  0  0  0  0  0
   -8.0726   -1.6314    0.8152 H   0  0  0  0  0  0  0  0  0  0  0  0
   -6.1301   -2.3830    0.4667 H   0  0  0  0  0  0  0  0  0  0  0  0
  -15.3152   -2.0703    3.2507 H   0  0  0  0  0  0  0  0  0  0  0  0
   -4.9549    0.2951    6.0381 H   0  0  0  0  0  0  0  0  0  0  0  0
  1 25  1  0  0  0  0
  2 26  1  0  0  0  0
  3  1  1  0  0  0  0
  3 27  1  0  0  0  0
  4  2  2  0  0  0  0
  4 28  1  0  0  0  0
  6 29  1  0  0  0  0
  6 30  1  0  0  0  0
  7 31  1  0  0  0  0
  7 32  1  0  0  0  0
  8  1  2  0  0  0  0
  8  2  1  0  0  0  0
  8  5  1  0  0  0  0
  9  3  2  0  0  0  0
  9  4  1  0  0  0  0
 10 15  1  0  0  0  0
 10 24  1  1  0  0  0
 10 13  1  0  0  0  0
 10  7  1  0  0  0  0
 11  5  2  0  0  0  0
 12  6  1  0  0  0  0
 14 11  1  0  0  0  0
 15 33  1  0  0  0  0
 15 34  1  0  0  0  0
 16 11  1  0  0  0  0
 16 13  2  0  0  0  0
 17  6  1  0  0  0  0
 17 13  1  0  0  0  0
 17 14  1  0  0  0  0
 18  7  1  0  0  0  0
 18 35  1  0  0  0  0
 19  9  1  0  0  0  0
 19 36  1  0  0  0  0
 20 12  2  0  0  0  0
 21 12  1  0  0  0  0
 21 37  1  0  0  0  0
 22 14  2  0  0  0  0
 23  5  1  0  0  0  0
M  END
>  <DRUGBANK_ID>
DB03537

>  <SECONDARY_ACCESSION_NUMBERS>
EXPT01042

>  <COMMON_NAME>
[4-(4-Hydroxy-Benzyl)-2-(2-Hydroxy-1-Methyl-Ethyl)-5-Oxo-Imidazolidin-1-Yl]-Acetic Acid

$$$$
