
 OpenBabel10282417113D

 56 59  0  0  1  0  0  0  0  0999 V2000
   -0.5733   -0.0774    0.4747 C   0  0  0  0  0  0  0  0  0  0  0  0
    0.1792    1.2778    0.4001 C   0  0  2  0  0  0  0  0  0  0  0  0
    1.9208    1.3723   -0.4959 C   0  0  0  0  0  0  0  0  0  0  0  0
    1.9993    2.5945   -1.8834 C   0  0  0  0  0  0  0  0  0  0  0  0
    1.6694    3.9804   -1.1933 C   0  0  2  0  0  0  0  0  0  0  0  0
    1.0215    3.4385    0.0197 C   0  0  0  0  0  0  0  0  0  0  0  0
   -0.0465    2.2801   -0.6559 C   0  0  2  0  0  0  0  0  0  0  0  0
   -1.2365    2.8735   -1.3485 C   0  0  0  0  0  0  0  0  0  0  0  0
   -1.9718    3.7464   -0.3493 C   0  0  0  0  0  0  0  0  0  0  0  0
   -2.5355    2.7632    0.7105 C   0  0  2  0  0  0  0  0  0  0  0  0
   -1.0781    2.1944    1.4160 C   0  0  2  0  0  0  0  0  0  0  0  0
   -1.6407    1.4963    2.6451 C   0  0  0  0  0  0  0  0  0  0  0  0
   -2.1522    2.6585    3.4732 C   0  0  0  0  0  0  0  0  0  0  0  0
   -3.5896    2.9050    2.9297 C   0  0  1  0  0  0  0  0  0  0  0  0
   -4.0510    3.3132    1.6768 C   0  0  1  0  0  0  0  0  0  0  0  0
   -5.4112    3.1746    3.0553 C   0  0  0  0  0  0  0  0  0  0  0  0
   -4.9295    3.6859    4.4362 C   0  0  0  0  0  0  0  0  0  0  0  0
   -4.2683    4.5704    3.4956 C   0  0  1  0  0  0  0  0  0  0  0  0
   -3.5332    5.6782    2.7607 C   0  0  0  0  0  0  0  0  0  0  0  0
   -4.6485    5.5379    4.4969 O   0  0  0  0  0  0  0  0  0  0  0  0
   -4.4813    1.4749    2.0614 C   0  0  0  0  0  0  0  0  0  0  0  0
    0.6310    4.8345   -1.6678 O   0  0  0  0  0  0  0  0  0  0  0  0
   -0.4195   -0.5074    1.4798 H   0  0  0  0  0  0  0  0  0  0  0  0
   -0.4456   -0.8957   -0.2279 H   0  0  0  0  0  0  0  0  0  0  0  0
   -1.6566    0.1294    0.4517 H   0  0  0  0  0  0  0  0  0  0  0  0
    2.7626    1.8516    0.0518 H   0  0  0  0  0  0  0  0  0  0  0  0
    2.4611    0.4301   -0.7020 H   0  0  0  0  0  0  0  0  0  0  0  0
    2.9612    2.6917   -2.4090 H   0  0  0  0  0  0  0  0  0  0  0  0
    1.3193    2.3031   -2.7101 H   0  0  0  0  0  0  0  0  0  0  0  0
    2.5697    4.5956   -1.1173 H   0  0  0  0  0  0  0  0  0  0  0  0
    0.5947    4.1670    0.6971 H   0  0  0  0  0  0  0  0  0  0  0  0
    1.7297    3.0145    0.7696 H   0  0  0  0  0  0  0  0  0  0  0  0
    0.2013    1.5912   -1.4871 H   0  0  0  0  0  0  0  0  0  0  0  0
   -0.9136    3.4374   -2.2368 H   0  0  0  0  0  0  0  0  0  0  0  0
   -1.8010    2.0511   -1.8116 H   0  0  0  0  0  0  0  0  0  0  0  0
   -2.6356    4.4444   -0.8601 H   0  0  0  0  0  0  0  0  0  0  0  0
   -1.2450    4.4051    0.1339 H   0  0  0  0  0  0  0  0  0  0  0  0
   -2.9357    1.9772    0.0650 H   0  0  0  0  0  0  0  0  0  0  0  0
   -0.5154    3.0349    1.8375 H   0  0  0  0  0  0  0  0  0  0  0  0
   -2.4383    0.7395    2.6215 H   0  0  0  0  0  0  0  0  0  0  0  0
   -0.8050    0.9218    3.0224 H   0  0  0  0  0  0  0  0  0  0  0  0
   -2.4151    3.0763    4.4531 H   0  0  0  0  0  0  0  0  0  0  0  0
   -1.7383    2.0558    4.2961 H   0  0  0  0  0  0  0  0  0  0  0  0
   -3.8721    4.3363    1.3044 H   0  0  0  0  0  0  0  0  0  0  0  0
   -6.4144    3.5958    2.8527 H   0  0  0  0  0  0  0  0  0  0  0  0
   -5.7287    2.1603    3.4538 H   0  0  0  0  0  0  0  0  0  0  0  0
   -5.7304    3.9770    5.1412 H   0  0  0  0  0  0  0  0  0  0  0  0
   -4.2737    3.0484    5.0676 H   0  0  0  0  0  0  0  0  0  0  0  0
   -2.4898    5.3989    2.6417 H   0  0  0  0  0  0  0  0  0  0  0  0
   -4.0471    5.8478    1.7948 H   0  0  0  0  0  0  0  0  0  0  0  0
   -3.6214    6.7235    3.0688 H   0  0  0  0  0  0  0  0  0  0  0  0
   -3.9053    5.7677    5.0585 H   0  0  0  0  0  0  0  0  0  0  0  0
   -4.8032    0.6668    2.7100 H   0  0  0  0  0  0  0  0  0  0  0  0
   -5.4531    1.8230    1.5385 H   0  0  0  0  0  0  0  0  0  0  0  0
   -4.0180    1.0642    1.1613 H   0  0  0  0  0  0  0  0  0  0  0  0
    0.8320    5.7707   -1.4901 H   0  0  0  0  0  0  0  0  0  0  0  0
  1 23  1  0  0  0  0
  1 24  1  0  0  0  0
  1 25  1  0  0  0  0
  2  3  1  0  0  0  0
  2  7  1  0  0  0  0
  2 11  1  0  0  0  0
  2  1  1  1  0  0  0
  3  4  1  0  0  0  0
  3 26  1  0  0  0  0
  3 27  1  0  0  0  0
  4  5  1  0  0  0  0
  4 28  1  0  0  0  0
  4 29  1  0  0  0  0
  5  6  1  0  0  0  0
  5 30  1  1  0  0  0
  5 22  1  0  0  0  0
  6 31  1  0  0  0  0
  6 32  1  0  0  0  0
  7  6  1  0  0  0  0
  7  8  1  0  0  0  0
  7 33  1  6  0  0  0
  8  9  1  0  0  0  0
  8 34  1  0  0  0  0
  8 35  1  0  0  0  0
  9 36  1  0  0  0  0
  9 37  1  0  0  0  0
 10  9  1  0  0  0  0
 10 11  1  0  0  0  0
 10 15  1  0  0  0  0
 10 38  1  1  0  0  0
 11 12  1  0  0  0  0
 11 39  1  6  0  0  0
 12 13  1  0  0  0  0
 12 40  1  0  0  0  0
 12 41  1  0  0  0  0
 13 14  1  0  0  0  0
 13 42  1  0  0  0  0
 13 43  1  0  0  0  0
 14 15  1  0  0  0  0
 14 18  1  0  0  0  0
 14 21  1  6  0  0  0
 15 16  1  0  0  0  0
 15 44  1  6  0  0  0
 16 17  1  0  0  0  0
 16 45  1  0  0  0  0
 16 46  1  0  0  0  0
 17 18  1  0  0  0  0
 17 47  1  0  0  0  0
 17 48  1  0  0  0  0
 18 20  1  6  0  0  0
 18 19  1  0  0  0  0
 19 49  1  0  0  0  0
 19 50  1  0  0  0  0
 19 51  1  0  0  0  0
 20 52  1  0  0  0  0
 21 53  1  0  0  0  0
 21 54  1  0  0  0  0
 21 55  1  0  0  0  0
 22 56  1  0  0  0  0
M  END
>  <DRUGBANK_ID>
DB01479

>  <COMMON_NAME>
BA-2664

>  <CAS_NUMBER>
641-82-7

>  <UNII>
56K8Z5YS2Z

>  <SYNONYMS>
17alpha-methyl-3alpha,17beta-dihydroxy-5alpha-androstane

$$$$
