
 OpenBabel10282417203D

 52 54  0  0  0  0  0  0  0  0999 V2000
   -0.5109    0.6211    0.6806 N   0  0  0  0  0  0  0  0  0  0  0  0
   -1.5171   -2.1788    0.7362 C   0  0  0  0  0  0  0  0  0  0  0  0
   -1.3231   -3.3536    0.7919 O   0  0  0  0  0  0  0  0  0  0  0  0
   -0.3546   -0.9438    0.3530 C   0  0  2  0  0  0  0  0  0  0  0  0
    0.6079    1.3410    0.1508 C   0  0  0  0  0  0  0  0  0  0  0  0
    1.6624    0.2035    0.0175 C   0  0  2  0  0  0  0  0  0  0  0  0
    1.0838   -1.1829    0.4556 C   0  0  0  0  0  0  0  0  0  0  0  0
   -2.8062   -1.6731    0.7723 O   0  0  0  0  0  0  0  0  0  0  0  0
   -1.5729    1.1677    1.3847 C   0  0  0  0  0  0  0  0  0  0  0  0
   -2.2122    2.6626    1.1955 C   0  0  1  0  0  0  0  0  0  0  0  0
   -2.1719    0.3841    2.1345 O   0  0  0  0  0  0  0  0  0  0  0  0
   -3.4144    3.1305    0.1579 C   0  0  0  0  0  0  0  0  0  0  0  0
   -2.8069    2.8643    2.5954 C   0  0  0  0  0  0  0  0  0  0  0  0
   -5.2845    2.5292    0.2322 S   0  0  0  0  0  0  0  0  0  0  0  0
   -5.4555    0.8421   -0.4981 C   0  0  0  0  0  0  0  0  0  0  0  0
   -4.4264    0.3268   -1.4255 C   0  0  0  0  0  0  0  0  0  0  0  0
   -6.2919    0.0550   -0.0629 O   0  0  0  0  0  0  0  0  0  0  0  0
   -3.2681    0.7090   -0.9198 C   0  0  0  0  0  0  0  0  0  0  0  0
   -2.1417    0.0711   -1.3122 C   0  0  0  0  0  0  0  0  0  0  0  0
   -1.9593   -0.9488   -2.2095 C   0  0  0  0  0  0  0  0  0  0  0  0
   -3.1354   -1.4717   -2.6044 C   0  0  0  0  0  0  0  0  0  0  0  0
   -4.3539   -0.8037   -2.2663 C   0  0  0  0  0  0  0  0  0  0  0  0
    3.1123    0.5595    1.0208 S   0  0  0  0  0  0  0  0  0  0  0  0
    2.3747    0.6309    2.6571 C   0  0  0  0  0  0  0  0  0  0  0  0
    1.8102   -0.4684    3.3199 C   0  0  0  0  0  0  0  0  0  0  0  0
    2.5577    1.7962    3.3847 C   0  0  0  0  0  0  0  0  0  0  0  0
    1.3916   -0.4211    4.6379 C   0  0  0  0  0  0  0  0  0  0  0  0
    2.3026    1.7931    4.7570 C   0  0  0  0  0  0  0  0  0  0  0  0
    1.6854    0.7042    5.3741 C   0  0  0  0  0  0  0  0  0  0  0  0
   -0.2515   -0.9840   -0.7413 H   0  0  0  0  0  0  0  0  0  0  0  0
    0.8380    2.1735    0.8242 H   0  0  0  0  0  0  0  0  0  0  0  0
    0.3495    1.8019   -0.8206 H   0  0  0  0  0  0  0  0  0  0  0  0
    1.9205    0.1468   -1.0543 H   0  0  0  0  0  0  0  0  0  0  0  0
    1.0123   -1.5147    1.4554 H   0  0  0  0  0  0  0  0  0  0  0  0
    1.4635   -2.0328   -0.1267 H   0  0  0  0  0  0  0  0  0  0  0  0
   -3.6218   -2.2071    0.8713 H   0  0  0  0  0  0  0  0  0  0  0  0
   -1.3756    3.3510    1.0074 H   0  0  0  0  0  0  0  0  0  0  0  0
   -3.5551    4.2102    0.3522 H   0  0  0  0  0  0  0  0  0  0  0  0
   -3.1008    3.1199   -0.8945 H   0  0  0  0  0  0  0  0  0  0  0  0
   -2.1496    2.4241    3.3520 H   0  0  0  0  0  0  0  0  0  0  0  0
   -2.9675    3.9108    2.8439 H   0  0  0  0  0  0  0  0  0  0  0  0
   -3.7619    2.3274    2.6733 H   0  0  0  0  0  0  0  0  0  0  0  0
   -3.3527    0.9228    0.1596 H   0  0  0  0  0  0  0  0  0  0  0  0
   -1.9485   -0.2363   -0.3161 H   0  0  0  0  0  0  0  0  0  0  0  0
   -1.0583   -1.5688   -2.2587 H   0  0  0  0  0  0  0  0  0  0  0  0
   -3.0499   -2.4420   -3.0799 H   0  0  0  0  0  0  0  0  0  0  0  0
   -5.2579   -1.2352   -2.6416 H   0  0  0  0  0  0  0  0  0  0  0  0
    1.7442   -1.4583    2.9058 H   0  0  0  0  0  0  0  0  0  0  0  0
    2.9735    2.6814    2.9125 H   0  0  0  0  0  0  0  0  0  0  0  0
    0.9410   -1.3041    5.0837 H   0  0  0  0  0  0  0  0  0  0  0  0
    2.6330    2.6303    5.3604 H   0  0  0  0  0  0  0  0  0  0  0  0
    1.4686    0.7125    6.4355 H   0  0  0  0  0  0  0  0  0  0  0  0
  1  5  1  0  0  0  0
  1  9  1  0  0  0  0
  2  3  2  0  0  0  0
  4  1  1  0  0  0  0
  4  7  1  0  0  0  0
  4 30  1  6  0  0  0
  4  2  1  0  0  0  0
  5  6  1  0  0  0  0
  5 31  1  0  0  0  0
  5 32  1  0  0  0  0
  6  7  1  0  0  0  0
  6 23  1  0  0  0  0
  6 33  1  6  0  0  0
  7 34  1  0  0  0  0
  7 35  1  0  0  0  0
  8  2  1  0  0  0  0
  8 36  1  0  0  0  0
  9 10  1  0  0  0  0
  9 11  2  0  0  0  0
 10 12  1  0  0  0  0
 10 13  1  0  0  0  0
 10 37  1  6  0  0  0
 12 14  1  0  0  0  0
 12 38  1  0  0  0  0
 12 39  1  0  0  0  0
 13 40  1  0  0  0  0
 13 41  1  0  0  0  0
 13 42  1  0  0  0  0
 14 15  1  0  0  0  0
 15 16  1  0  0  0  0
 15 17  2  0  0  0  0
 16 18  2  0  0  0  0
 16 22  1  0  0  0  0
 18 19  1  0  0  0  0
 18 43  1  0  0  0  0
 19 20  2  0  0  0  0
 19 44  1  0  0  0  0
 20 21  1  0  0  0  0
 20 45  1  0  0  0  0
 21 22  2  0  0  0  0
 21 46  1  0  0  0  0
 22 47  1  0  0  0  0
 23 24  1  0  0  0  0
 25 24  1  0  0  0  0
 25 48  1  0  0  0  0
 26 24  2  0  0  0  0
 26 49  1  0  0  0  0
 27 25  2  0  0  0  0
 27 50  1  0  0  0  0
 28 26  1  0  0  0  0
 28 51  1  0  0  0  0
 29 27  1  0  0  0  0
 29 28  2  0  0  0  0
 29 52  1  0  0  0  0
M  END
>  <DRUGBANK_ID>
DB13166

>  <COMMON_NAME>
Zofenopril

>  <CAS_NUMBER>
81872-10-8

>  <UNII>
290ZY759PI

>  <SYNONYMS>
Zofenil; Zof√©nopril; Zofenopril; Zofenoprilum

$$$$
