
 OpenBabel10282417113D

 83 88  0  0  0  0  0  0  0  0999 V2000
   -3.1504   -9.8795    6.6826 C   0  0  0  0  0  0  0  0  0  0  0  0
   -3.8595  -10.9204    6.1173 C   0  0  0  0  0  0  0  0  0  0  0  0
   -5.3071  -10.2922    6.1045 C   0  0  0  0  0  0  0  0  0  0  0  0
   -5.6219   -9.2987    4.9910 C   0  0  0  0  0  0  0  0  0  0  0  0
   -4.9477   -8.1283    5.4352 C   0  0  0  0  0  0  0  0  0  0  0  0
   -3.5845   -8.8981    5.7374 C   0  0  0  0  0  0  0  0  0  0  0  0
   -3.3928   -4.3170    7.4685 C   0  0  0  0  0  0  0  0  0  0  0  0
   -3.2447   -5.6142    6.7238 C   0  0  0  0  0  0  0  0  0  0  0  0
   -1.2039   -6.1629    6.7075 C   0  0  0  0  0  0  0  0  0  0  0  0
   -2.6853   -5.0035    6.7422 C   0  0  0  0  0  0  0  0  0  0  0  0
   -1.0448   -5.5540    5.4058 C   0  0  1  0  0  0  0  0  0  0  0  0
   -0.6072   -6.8703    5.8718 C   0  0  0  0  0  0  0  0  0  0  0  0
   -0.6451   -8.4102    5.8180 C   0  0  0  0  0  0  0  0  0  0  0  0
    0.4812   -9.2443    6.0596 C   0  0  0  0  0  0  0  0  0  0  0  0
    0.4707   -6.7131    4.8265 C   0  0  2  0  0  0  0  0  0  0  0  0
    0.8581   -8.7743    4.7829 C   0  0  2  0  0  0  0  0  0  0  0  0
    2.1297   -7.4406    4.4658 C   0  0  0  0  0  0  0  0  0  0  0  0
    1.6638   -6.3092    5.5466 C   0  0  2  0  0  0  0  0  0  0  0  0
    0.3605   -8.2778    3.4676 C   0  0  1  0  0  0  0  0  0  0  0  0
    1.0227   -9.5140    3.4434 C   0  0  1  0  0  0  0  0  0  0  0  0
    0.4780  -10.8873    3.6394 C   0  0  0  0  0  0  0  0  0  0  0  0
   -1.3235   -9.4356    3.3192 C   0  0  1  0  0  0  0  0  0  0  0  0
   -1.0029  -10.9256    3.5399 C   0  0  2  0  0  0  0  0  0  0  0  0
   -1.6479  -11.5483    4.7626 O   0  0  0  0  0  0  0  0  0  0  0  0
   -3.0083  -11.1568    4.7082 C   0  0  2  0  0  0  0  0  0  0  0  0
   -2.8574  -10.1236    3.6801 O   0  0  0  0  0  0  0  0  0  0  0  0
   -4.2644   -6.4527    7.0105 O   0  0  0  0  0  0  0  0  0  0  0  0
    0.8640   -6.3691    3.7516 H   0  0  0  0  0  0  0  0  0  0  0  0
    1.4900   -9.3183    2.4695 H   0  0  0  0  0  0  0  0  0  0  0  0
   -1.3167  -11.5750    2.7092 H   0  0  0  0  0  0  0  0  0  0  0  0
   -0.3374   -4.5836    4.3912 C   0  0  0  0  0  0  0  0  0  0  0  0
    1.8766   -9.3013    4.8629 H   0  0  0  0  0  0  0  0  0  0  0  0
    1.5872   -6.5950    6.9563 O   0  0  0  0  0  0  0  0  0  0  0  0
   -0.2140   -8.0394    1.8029 C   0  0  0  0  0  0  0  0  0  0  0  0
   -2.5700   -8.2860    2.8769 C   0  0  0  0  0  0  0  0  0  0  0  0
   -3.6671   -8.4452    2.3373 O   0  0  0  0  0  0  0  0  0  0  0  0
   -2.1847   -6.8728    3.2184 C   0  0  0  0  0  0  0  0  0  0  0  0
   -2.0970   -7.3771    4.5153 O   0  0  0  0  0  0  0  0  0  0  0  0
   -2.8977   -7.0293    5.5222 C   0  0  0  0  0  0  0  0  0  0  0  0
   -3.7179   -6.2663    4.9223 O   0  0  0  0  0  0  0  0  0  0  0  0
   -2.5083   -7.5103    7.6047 C   0  0  0  0  0  0  0  0  0  0  0  0
   -1.5287   -8.7166    8.3711 C   0  0  0  0  0  0  0  0  0  0  0  0
   -1.5433   -6.3373    8.8839 C   0  0  0  0  0  0  0  0  0  0  0  0
   -3.4770   -9.5100    7.6432 H   0  0  0  0  0  0  0  0  0  0  0  0
   -2.0892  -10.2143    6.6084 H   0  0  0  0  0  0  0  0  0  0  0  0
   -3.6777  -11.5560    6.9890 H   0  0  0  0  0  0  0  0  0  0  0  0
   -5.9246  -11.1143    5.9237 H   0  0  0  0  0  0  0  0  0  0  0  0
   -5.5003   -9.7622    7.0842 H   0  0  0  0  0  0  0  0  0  0  0  0
   -5.1189   -9.4624    4.0382 H   0  0  0  0  0  0  0  0  0  0  0  0
   -6.6150   -8.8794    4.9219 H   0  0  0  0  0  0  0  0  0  0  0  0
   -5.1209   -7.4304    4.5446 H   0  0  0  0  0  0  0  0  0  0  0  0
   -5.5243   -7.6529    6.2367 H   0  0  0  0  0  0  0  0  0  0  0  0
   -2.7300   -8.5338    6.1705 H   0  0  0  0  0  0  0  0  0  0  0  0
   -3.0923   -8.9213    4.8349 H   0  0  0  0  0  0  0  0  0  0  0  0
   -2.6374   -4.4168    8.2177 H   0  0  0  0  0  0  0  0  0  0  0  0
   -0.9014   -6.9257    7.2897 H   0  0  0  0  0  0  0  0  0  0  0  0
   -3.1603   -5.7365    8.1236 H   0  0  0  0  0  0  0  0  0  0  0  0
   -1.1648   -8.8416    6.5384 H   0  0  0  0  0  0  0  0  0  0  0  0
   -1.1783   -8.8549    5.0387 H   0  0  0  0  0  0  0  0  0  0  0  0
    0.9938   -8.8097    6.8900 H   0  0  0  0  0  0  0  0  0  0  0  0
    0.1762  -10.2774    6.1234 H   0  0  0  0  0  0  0  0  0  0  0  0
    2.9144   -7.1873    5.4474 H   0  0  0  0  0  0  0  0  0  0  0  0
    2.7524   -8.2653    5.2952 H   0  0  0  0  0  0  0  0  0  0  0  0
    2.1307   -5.3341    5.4369 H   0  0  0  0  0  0  0  0  0  0  0  0
    0.9500  -11.4660    2.8579 H   0  0  0  0  0  0  0  0  0  0  0  0
    0.8382  -11.2480    4.5971 H   0  0  0  0  0  0  0  0  0  0  0  0
   -3.7466  -11.9202    4.4382 H   0  0  0  0  0  0  0  0  0  0  0  0
    0.4566   -4.1269    4.9703 H   0  0  0  0  0  0  0  0  0  0  0  0
    0.3430   -4.8952    3.5248 H   0  0  0  0  0  0  0  0  0  0  0  0
   -1.0923   -4.1555    3.7674 H   0  0  0  0  0  0  0  0  0  0  0  0
    0.7480   -6.1878    7.2148 H   0  0  0  0  0  0  0  0  0  0  0  0
   -0.3895   -9.0014    1.2649 H   0  0  0  0  0  0  0  0  0  0  0  0
   -1.2735   -7.7296    1.5449 H   0  0  0  0  0  0  0  0  0  0  0  0
    0.2392   -7.1925    1.3704 H   0  0  0  0  0  0  0  0  0  0  0  0
   -1.1607   -6.5872    3.0577 H   0  0  0  0  0  0  0  0  0  0  0  0
   -2.8130   -6.0028    3.1529 H   0  0  0  0  0  0  0  0  0  0  0  0
   -3.3787   -7.7475    8.2689 H   0  0  0  0  0  0  0  0  0  0  0  0
   -0.4949   -8.5751    8.0816 H   0  0  0  0  0  0  0  0  0  0  0  0
   -1.5428   -8.6730    9.4420 H   0  0  0  0  0  0  0  0  0  0  0  0
   -1.7575   -9.7669    8.2564 H   0  0  0  0  0  0  0  0  0  0  0  0
   -1.5846   -5.2424    8.9733 H   0  0  0  0  0  0  0  0  0  0  0  0
   -2.0347   -6.4099    9.8201 H   0  0  0  0  0  0  0  0  0  0  0  0
   -0.5378   -5.9540    8.5428 H   0  0  0  0  0  0  0  0  0  0  0  0
  1  2  1  0  0  0  0
  1  6  1  0  0  0  0
  1 44  1  0  0  0  0
  1 45  1  0  0  0  0
  2  3  1  0  0  0  0
  2 46  1  0  0  0  0
  3  4  1  0  0  0  0
  3 47  1  0  0  0  0
  3 48  1  0  0  0  0
  4  5  1  0  0  0  0
  4 49  1  0  0  0  0
  4 50  1  0  0  0  0
  5  6  1  0  0  0  0
  5 51  1  0  0  0  0
  5 52  1  0  0  0  0
  6 53  1  0  0  0  0
  6 54  1  0  0  0  0
  7  8  1  0  0  0  0
  7 10  2  0  0  0  0
  7 55  1  0  0  0  0
  8 27  2  0  0  0  0
  8  9  1  0  0  0  0
  9 12  2  0  0  0  0
  9 56  1  0  0  0  0
 10 57  1  0  0  0  0
 11 10  1  0  0  0  0
 11 12  1  0  0  0  0
 11 15  1  0  0  0  0
 11 31  1  1  0  0  0
 12 13  1  0  0  0  0
 13 14  1  0  0  0  0
 13 58  1  0  0  0  0
 13 59  1  0  0  0  0
 14 16  1  0  0  0  0
 14 60  1  0  0  0  0
 14 61  1  0  0  0  0
 15 28  1  6  0  0  0
 15 16  1  0  0  0  0
 15 18  1  0  0  0  0
 16 32  1  1  0  0  0
 16 20  1  0  0  0  0
 17 18  1  0  0  0  0
 17 62  1  0  0  0  0
 17 63  1  0  0  0  0
 18 33  1  0  0  0  0
 18 64  1  6  0  0  0
 19 34  1  6  0  0  0
 19 17  1  0  0  0  0
 19 20  1  0  0  0  0
 20 21  1  0  0  0  0
 20 29  1  1  0  0  0
 21 23  1  0  0  0  0
 21 65  1  0  0  0  0
 21 66  1  0  0  0  0
 22 19  1  0  0  0  0
 22 23  1  0  0  0  0
 22 35  1  6  0  0  0
 23 24  1  0  0  0  0
 23 30  1  6  0  0  0
 24 25  1  0  0  0  0
 25 26  1  0  0  0  0
 25 67  1  6  0  0  0
 25  2  1  0  0  0  0
 26 22  1  0  0  0  0
 31 68  1  0  0  0  0
 31 69  1  0  0  0  0
 31 70  1  0  0  0  0
 33 71  1  0  0  0  0
 34 72  1  0  0  0  0
 34 73  1  0  0  0  0
 34 74  1  0  0  0  0
 35 36  2  0  0  0  0
 35 37  1  0  0  0  0
 37 38  1  0  0  0  0
 37 75  1  0  0  0  0
 37 76  1  0  0  0  0
 38 39  1  0  0  0  0
 39 40  2  0  0  0  0
 39 41  1  0  0  0  0
 41 42  1  0  0  0  0
 41 43  1  0  0  0  0
 41 77  1  0  0  0  0
 42 78  1  0  0  0  0
 42 79  1  0  0  0  0
 42 80  1  0  0  0  0
 43 81  1  0  0  0  0
 43 82  1  0  0  0  0
 43 83  1  0  0  0  0
M  END
>  <DRUGBANK_ID>
DB01410

>  <COMMON_NAME>
Ciclesonide

>  <CAS_NUMBER>
126544-47-6

>  <UNII>
S59502J185

>  <SYNONYMS>
Ciclesonida; Ciclesonide

$$$$
