
 OpenBabel10282417243D

132131  0  0  1  0  0  0  0  0999 V2000
   -3.3410  -14.3773   -7.2305 C   0  0  0  0  0  0  0  0  0  0  0  0
   -3.3805  -15.3429   -6.0571 C   0  0  0  0  0  0  0  0  0  0  0  0
   -2.5094  -14.8254   -4.9113 C   0  0  0  0  0  0  0  0  0  0  0  0
   -3.0004  -13.4627   -4.4130 C   0  0  0  0  0  0  0  0  0  0  0  0
   -4.4559  -13.5548   -3.9390 C   0  0  0  0  0  0  0  0  0  0  0  0
   -4.5804  -14.5467   -2.7759 C   0  0  0  0  0  0  0  0  0  0  0  0
   -3.7119  -14.0925   -1.6074 C   0  0  0  0  0  0  0  0  0  0  0  0
   -4.0899  -12.6794   -1.2114 C   0  0  0  0  0  0  0  0  0  0  0  0
   -5.4922  -12.7143   -0.7208 C   0  0  0  0  0  0  0  0  0  0  0  0
   -5.7764  -12.4993    0.5496 C   0  0  0  0  0  0  0  0  0  0  0  0
   -4.7698  -11.9798    1.5130 C   0  0  0  0  0  0  0  0  0  0  0  0
   -5.2261  -10.5763    1.8648 C   0  0  0  0  0  0  0  0  0  0  0  0
   -6.6968  -10.6569    2.3557 C   0  0  0  0  0  0  0  0  0  0  0  0
   -6.8768  -11.7968    3.3911 C   0  0  0  0  0  0  0  0  0  0  0  0
   -5.8291  -11.6327    4.3765 C   0  0  0  0  0  0  0  0  0  0  0  0
   -6.1071  -10.2321    4.7658 C   0  0  0  0  0  0  0  0  0  0  0  0
   -7.2145   -9.9376    5.8786 C   0  0  0  0  0  0  0  0  0  0  0  0
   -7.2625  -10.6804    7.2267 C   0  0  0  0  0  0  0  0  0  0  0  0
   -7.6244  -10.1851    8.2816 O   0  0  0  0  0  0  0  0  0  0  0  0
   -6.9062  -11.9740    7.0791 O   0  0  0  0  0  0  0  0  0  0  0  0
   -6.6829  -12.7930    8.2298 C   0  0  0  0  0  0  0  0  0  0  0  0
   -5.5071  -12.4743    9.1947 C   0  0  2  0  0  0  0  0  0  0  0  0
   -4.0468  -12.5907    8.6320 C   0  0  0  0  0  0  0  0  0  0  0  0
   -3.3328  -11.3666    8.2639 O   0  0  0  0  0  0  0  0  0  0  0  0
   -4.2015  -10.2864    7.2287 P   0  0  3  0  0  0  0  0  0  0  0  0
   -4.5681  -11.6068    6.4425 O   0  0  0  0  0  0  0  0  0  0  0  0
   -5.0415   -9.8656    8.4089 O   0  0  0  0  0  0  0  0  0  0  0  0
   -5.0701   -9.2062    6.1935 O   0  0  0  0  0  0  0  0  0  0  0  0
   -4.1279   -8.2965    5.4961 C   0  0  0  0  0  0  0  0  0  0  0  0
   -3.2558   -7.4519    6.4218 C   0  0  2  0  0  0  0  0  0  0  0  0
   -3.8313   -7.4057    7.7624 N   0  0  0  0  0  0  0  0  0  0  0  0
   -3.1736   -6.0563    5.7976 C   0  0  0  0  0  0  0  0  0  0  0  0
   -1.9138   -5.6650    5.4838 O   0  0  0  0  0  0  0  0  0  0  0  0
   -4.1391   -5.3607    5.5773 O   0  0  0  0  0  0  0  0  0  0  0  0
   -5.6665  -13.3944   10.3200 O   0  0  0  0  0  0  0  0  0  0  0  0
   -5.3500  -14.7082   10.1412 C   0  0  0  0  0  0  0  0  0  0  0  0
   -5.0665  -15.2199    9.0888 O   0  0  0  0  0  0  0  0  0  0  0  0
   -5.3543  -15.4487   11.4568 C   0  0  0  0  0  0  0  0  0  0  0  0
   -4.2658  -14.9357   12.3989 C   0  0  0  0  0  0  0  0  0  0  0  0
   -4.5181  -13.4948   12.8535 C   0  0  0  0  0  0  0  0  0  0  0  0
   -5.9029  -13.3696   13.5015 C   0  0  0  0  0  0  0  0  0  0  0  0
   -5.9752  -14.2280   14.7691 C   0  0  0  0  0  0  0  0  0  0  0  0
   -4.9166  -13.7727   15.7689 C   0  0  0  0  0  0  0  0  0  0  0  0
   -5.0873  -12.2934   16.0713 C   0  0  0  0  0  0  0  0  0  0  0  0
   -6.3957  -12.0961   16.7651 C   0  0  0  0  0  0  0  0  0  0  0  0
   -6.4842  -11.6894   18.0274 C   0  0  0  0  0  0  0  0  0  0  0  0
   -5.2960  -11.2440   18.8167 C   0  0  0  0  0  0  0  0  0  0  0  0
   -5.4408   -9.7633   19.1243 C   0  0  0  0  0  0  0  0  0  0  0  0
   -6.6425   -9.5312   20.0354 C   0  0  0  0  0  0  0  0  0  0  0  0
   -6.5063  -10.3638   21.3161 C   0  0  0  0  0  0  0  0  0  0  0  0
   -5.2361   -9.9743   22.0825 C   0  0  0  0  0  0  0  0  0  0  0  0
   -5.2854   -8.5006   22.4986 C   0  0  0  0  0  0  0  0  0  0  0  0
   -6.5060   -8.2115   23.3740 C   0  0  0  0  0  0  0  0  0  0  0  0
   -6.4602   -9.0494   24.6416 C   0  0  0  0  0  0  0  0  0  0  0  0
   -3.7182  -13.3851   -6.9619 H   0  0  0  0  0  0  0  0  0  0  0  0
   -3.9632  -14.7380   -8.0499 H   0  0  0  0  0  0  0  0  0  0  0  0
   -2.3108  -14.2615   -7.5794 H   0  0  0  0  0  0  0  0  0  0  0  0
   -4.4182  -15.4869   -5.7333 H   0  0  0  0  0  0  0  0  0  0  0  0
   -3.0329  -16.3323   -6.3654 H   0  0  0  0  0  0  0  0  0  0  0  0
   -2.5055  -15.5591   -4.0958 H   0  0  0  0  0  0  0  0  0  0  0  0
   -1.4659  -14.7462   -5.2304 H   0  0  0  0  0  0  0  0  0  0  0  0
   -2.3359  -13.1007   -3.6204 H   0  0  0  0  0  0  0  0  0  0  0  0
   -2.9145  -12.6971   -5.1885 H   0  0  0  0  0  0  0  0  0  0  0  0
   -4.8142  -12.5555   -3.6712 H   0  0  0  0  0  0  0  0  0  0  0  0
   -5.1357  -13.8486   -4.7413 H   0  0  0  0  0  0  0  0  0  0  0  0
   -5.6304  -14.6360   -2.4799 H   0  0  0  0  0  0  0  0  0  0  0  0
   -4.2964  -15.5613   -3.0632 H   0  0  0  0  0  0  0  0  0  0  0  0
   -3.8147  -14.7844   -0.7613 H   0  0  0  0  0  0  0  0  0  0  0  0
   -2.6467  -14.1076   -1.8578 H   0  0  0  0  0  0  0  0  0  0  0  0
   -3.3411  -12.3570   -0.4947 H   0  0  0  0  0  0  0  0  0  0  0  0
   -4.0141  -11.9270   -1.9955 H   0  0  0  0  0  0  0  0  0  0  0  0
   -6.3163  -12.9869   -1.3746 H   0  0  0  0  0  0  0  0  0  0  0  0
   -6.8152  -12.6205    0.8542 H   0  0  0  0  0  0  0  0  0  0  0  0
   -4.7088  -12.6916    2.3384 H   0  0  0  0  0  0  0  0  0  0  0  0
   -3.7363  -11.9097    1.1906 H   0  0  0  0  0  0  0  0  0  0  0  0
   -4.5031  -10.1635    2.5899 H   0  0  0  0  0  0  0  0  0  0  0  0
   -5.1606   -9.8857    1.0169 H   0  0  0  0  0  0  0  0  0  0  0  0
   -6.9928   -9.6582    2.6944 H   0  0  0  0  0  0  0  0  0  0  0  0
   -7.4310  -10.8189    1.5803 H   0  0  0  0  0  0  0  0  0  0  0  0
   -7.8050  -11.7257    3.9579 H   0  0  0  0  0  0  0  0  0  0  0  0
   -6.7437  -12.8198    3.0544 H   0  0  0  0  0  0  0  0  0  0  0  0
   -5.9144  -12.3864    5.1451 H   0  0  0  0  0  0  0  0  0  0  0  0
   -4.7684  -11.7487    4.0396 H   0  0  0  0  0  0  0  0  0  0  0  0
   -5.0132  -10.1432    4.7694 H   0  0  0  0  0  0  0  0  0  0  0  0
   -6.1199   -9.3278    4.1302 H   0  0  0  0  0  0  0  0  0  0  0  0
   -7.1710   -8.8645    6.1629 H   0  0  0  0  0  0  0  0  0  0  0  0
   -8.1913  -10.0366    5.4158 H   0  0  0  0  0  0  0  0  0  0  0  0
   -7.6199  -12.8750    8.7917 H   0  0  0  0  0  0  0  0  0  0  0  0
   -6.5114  -13.7883    7.8097 H   0  0  0  0  0  0  0  0  0  0  0  0
   -5.6550  -11.4952    9.6492 H   0  0  0  0  0  0  0  0  0  0  0  0
   -3.3901  -13.0959    9.3479 H   0  0  0  0  0  0  0  0  0  0  0  0
   -4.0549  -13.2652    7.7660 H   0  0  0  0  0  0  0  0  0  0  0  0
   -3.8304  -11.9994    5.9490 H   0  0  0  0  0  0  0  0  0  0  0  0
   -3.4608   -8.8909    4.8520 H   0  0  0  0  0  0  0  0  0  0  0  0
   -4.7338   -7.6783    4.8248 H   0  0  0  0  0  0  0  0  0  0  0  0
   -2.2602   -7.9078    6.4911 H   0  0  0  0  0  0  0  0  0  0  0  0
   -4.8391   -7.6372    7.6948 H   0  0  0  0  0  0  0  0  0  0  0  0
   -3.8238   -6.4661    8.1552 H   0  0  0  0  0  0  0  0  0  0  0  0
   -1.1961   -6.2670    5.7499 H   0  0  0  0  0  0  0  0  0  0  0  0
   -6.3582  -15.4152   11.8905 H   0  0  0  0  0  0  0  0  0  0  0  0
   -5.1693  -16.5028   11.2365 H   0  0  0  0  0  0  0  0  0  0  0  0
   -4.2170  -15.5984   13.2724 H   0  0  0  0  0  0  0  0  0  0  0  0
   -3.2798  -15.0033   11.9292 H   0  0  0  0  0  0  0  0  0  0  0  0
   -3.7170  -13.1741   13.5273 H   0  0  0  0  0  0  0  0  0  0  0  0
   -4.4216  -12.7859   12.0298 H   0  0  0  0  0  0  0  0  0  0  0  0
   -6.1184  -12.3155   13.7012 H   0  0  0  0  0  0  0  0  0  0  0  0
   -6.7124  -13.6550   12.8262 H   0  0  0  0  0  0  0  0  0  0  0  0
   -6.9793  -14.1662   15.1997 H   0  0  0  0  0  0  0  0  0  0  0  0
   -5.8369  -15.2907   14.5526 H   0  0  0  0  0  0  0  0  0  0  0  0
   -4.9703  -14.3741   16.6841 H   0  0  0  0  0  0  0  0  0  0  0  0
   -3.9034  -13.9366   15.3863 H   0  0  0  0  0  0  0  0  0  0  0  0
   -4.2093  -11.9950   16.6357 H   0  0  0  0  0  0  0  0  0  0  0  0
   -5.0481  -11.6381   15.1991 H   0  0  0  0  0  0  0  0  0  0  0  0
   -7.3194  -12.3358   16.2402 H   0  0  0  0  0  0  0  0  0  0  0  0
   -7.4748  -11.6353   18.4764 H   0  0  0  0  0  0  0  0  0  0  0  0
   -5.1945  -11.8857   19.6937 H   0  0  0  0  0  0  0  0  0  0  0  0
   -4.3372  -11.3591   18.3204 H   0  0  0  0  0  0  0  0  0  0  0  0
   -4.5118   -9.4100   19.5851 H   0  0  0  0  0  0  0  0  0  0  0  0
   -5.5402   -9.1763   18.2031 H   0  0  0  0  0  0  0  0  0  0  0  0
   -6.7342   -8.4629   20.2482 H   0  0  0  0  0  0  0  0  0  0  0  0
   -7.5778   -9.7867   19.5280 H   0  0  0  0  0  0  0  0  0  0  0  0
   -7.4065  -10.2462   21.9236 H   0  0  0  0  0  0  0  0  0  0  0  0
   -6.4901  -11.4382   21.1081 H   0  0  0  0  0  0  0  0  0  0  0  0
   -5.1141  -10.6304   22.9485 H   0  0  0  0  0  0  0  0  0  0  0  0
   -4.3324  -10.1585   21.4911 H   0  0  0  0  0  0  0  0  0  0  0  0
   -4.3651   -8.2369   23.0286 H   0  0  0  0  0  0  0  0  0  0  0  0
   -5.3063   -7.8487   21.6167 H   0  0  0  0  0  0  0  0  0  0  0  0
   -6.5373   -7.1472   23.6217 H   0  0  0  0  0  0  0  0  0  0  0  0
   -7.4386   -8.4121   22.8333 H   0  0  0  0  0  0  0  0  0  0  0  0
   -5.5485   -8.8228   25.2020 H   0  0  0  0  0  0  0  0  0  0  0  0
   -7.3300   -8.8513   25.2685 H   0  0  0  0  0  0  0  0  0  0  0  0
   -6.4645  -10.1232   24.4272 H   0  0  0  0  0  0  0  0  0  0  0  0
  1  2  1  0  0  0  0
  1 55  1  0  0  0  0
  1 56  1  0  0  0  0
  1 57  1  0  0  0  0
  2  3  1  0  0  0  0
  2 58  1  0  0  0  0
  2 59  1  0  0  0  0
  3  4  1  0  0  0  0
  3 60  1  0  0  0  0
  3 61  1  0  0  0  0
  4  5  1  0  0  0  0
  4 62  1  0  0  0  0
  4 63  1  0  0  0  0
  5  6  1  0  0  0  0
  5 64  1  0  0  0  0
  5 65  1  0  0  0  0
  6  7  1  0  0  0  0
  6 66  1  0  0  0  0
  6 67  1  0  0  0  0
  7  8  1  0  0  0  0
  7 68  1  0  0  0  0
  7 69  1  0  0  0  0
  8  9  1  0  0  0  0
  8 70  1  0  0  0  0
  8 71  1  0  0  0  0
  9 10  2  0  0  0  0
  9 72  1  0  0  0  0
 10 11  1  0  0  0  0
 10 73  1  0  0  0  0
 11 12  1  0  0  0  0
 11 74  1  0  0  0  0
 11 75  1  0  0  0  0
 12 13  1  0  0  0  0
 12 76  1  0  0  0  0
 12 77  1  0  0  0  0
 13 14  1  0  0  0  0
 13 78  1  0  0  0  0
 13 79  1  0  0  0  0
 14 15  1  0  0  0  0
 14 80  1  0  0  0  0
 14 81  1  0  0  0  0
 15 16  1  0  0  0  0
 15 82  1  0  0  0  0
 15 83  1  0  0  0  0
 16 17  1  0  0  0  0
 16 84  1  0  0  0  0
 16 85  1  0  0  0  0
 17 18  1  0  0  0  0
 17 86  1  0  0  0  0
 17 87  1  0  0  0  0
 18 19  2  0  0  0  0
 18 20  1  0  0  0  0
 20 21  1  0  0  0  0
 21 88  1  0  0  0  0
 21 89  1  0  0  0  0
 22 35  1  0  0  0  0
 22 90  1  1  0  0  0
 22 23  1  0  0  0  0
 22 21  1  0  0  0  0
 23 24  1  0  0  0  0
 23 91  1  0  0  0  0
 23 92  1  0  0  0  0
 24 25  1  0  0  0  0
 25 26  1  0  0  0  0
 25 27  2  0  0  0  0
 25 28  1  0  0  0  0
 26 93  1  0  0  0  0
 28 29  1  0  0  0  0
 29 94  1  0  0  0  0
 29 95  1  0  0  0  0
 30 32  1  0  0  0  0
 30 96  1  1  0  0  0
 30 31  1  0  0  0  0
 30 29  1  0  0  0  0
 31 97  1  0  0  0  0
 31 98  1  0  0  0  0
 32 33  1  0  0  0  0
 32 34  2  0  0  0  0
 33 99  1  0  0  0  0
 35 36  1  0  0  0  0
 36 37  2  0  0  0  0
 36 38  1  0  0  0  0
 38 39  1  0  0  0  0
 38100  1  0  0  0  0
 38101  1  0  0  0  0
 39 40  1  0  0  0  0
 39102  1  0  0  0  0
 39103  1  0  0  0  0
 40 41  1  0  0  0  0
 40104  1  0  0  0  0
 40105  1  0  0  0  0
 41 42  1  0  0  0  0
 41106  1  0  0  0  0
 41107  1  0  0  0  0
 42 43  1  0  0  0  0
 42108  1  0  0  0  0
 42109  1  0  0  0  0
 43 44  1  0  0  0  0
 43110  1  0  0  0  0
 43111  1  0  0  0  0
 44 45  1  0  0  0  0
 44112  1  0  0  0  0
 44113  1  0  0  0  0
 45 46  2  0  0  0  0
 45114  1  0  0  0  0
 46 47  1  0  0  0  0
 46115  1  0  0  0  0
 47 48  1  0  0  0  0
 47116  1  0  0  0  0
 47117  1  0  0  0  0
 48 49  1  0  0  0  0
 48118  1  0  0  0  0
 48119  1  0  0  0  0
 49 50  1  0  0  0  0
 49120  1  0  0  0  0
 49121  1  0  0  0  0
 50 51  1  0  0  0  0
 50122  1  0  0  0  0
 50123  1  0  0  0  0
 51 52  1  0  0  0  0
 51124  1  0  0  0  0
 51125  1  0  0  0  0
 52 53  1  0  0  0  0
 52126  1  0  0  0  0
 52127  1  0  0  0  0
 53 54  1  0  0  0  0
 53128  1  0  0  0  0
 53129  1  0  0  0  0
 54130  1  0  0  0  0
 54131  1  0  0  0  0
 54132  1  0  0  0  0
M  END
>  <DRUGBANK_ID>
DB18573

>  <COMMON_NAME>
1,​2-​Dioleoyl-​sn-​glycero-​3-​phospho-​L-​serine

>  <CAS_NUMBER>
70614-14-1

>  <UNII>
KJ401H4834

>  <SYNONYMS>
1,2-dioleoyl-sn-glycero-3-phospho-l-serine; 4,6,10-trioxa-5-phosphaoctacos-19-enoic acid, 2-amino-5-hydroxy-11-oxo-8-(((9z)-1-oxo-9-octadecen-1-yl)oxy)-, 5-oxide, (2s,8r,19z)-; Dioleoyl phosphatidylserine; L-serine, 2,3-bis((1-oxo-9-octadecenyl)oxy)propyl hydrogen phosphate (ester), (r-(z,z))-

$$$$
