
 OpenBabel10282417193D

 50 52  0  0  1  0  0  0  0  0999 V2000
    2.5352   -1.7476   -3.8487 C   0  0  0  0  0  0  0  0  0  0  0  0
    1.2454   -1.4978   -3.3398 O   0  0  0  0  0  0  0  0  0  0  0  0
    1.1043   -0.3885   -2.4125 C   0  0  2  0  0  0  0  0  0  0  0  0
    0.1128    0.7465   -2.9731 C   0  0  2  0  0  0  0  0  0  0  0  0
    1.1875    1.7125   -2.8633 N   0  0  0  0  0  0  0  0  0  0  0  0
    2.1750    0.8453   -2.5322 C   0  0  0  0  0  0  0  0  0  0  0  0
    3.3370    1.0281   -2.3101 O   0  0  0  0  0  0  0  0  0  0  0  0
    0.9655    3.0635   -2.7148 C   0  0  0  0  0  0  0  0  0  0  0  0
   -0.3286    3.4526   -2.5150 C   0  0  0  0  0  0  0  0  0  0  0  0
   -1.4835    2.4610   -2.5052 C   0  0  0  0  0  0  0  0  0  0  0  0
   -1.0634    1.1202   -2.2464 O   0  0  0  0  0  0  0  0  0  0  0  0
   -0.8005    4.8354   -2.1415 C   0  0  0  0  0  0  0  0  0  0  0  0
   -0.1692    5.3922   -0.5315 S   0  0  0  0  0  0  0  0  0  0  0  0
   -0.7925    4.4474    0.7684 C   0  0  0  0  0  0  0  0  0  0  0  0
   -1.2865    5.0186    1.8460 N   0  0  0  0  0  0  0  0  0  0  0  0
   -1.4481    4.0344    2.7829 N   0  0  0  0  0  0  0  0  0  0  0  0
   -1.0586    2.8686    2.3093 N   0  0  0  0  0  0  0  0  0  0  0  0
   -0.6164    3.1256    1.0672 N   0  0  0  0  0  0  0  0  0  0  0  0
   -0.0149    2.0385    0.3817 C   0  0  0  0  0  0  0  0  0  0  0  0
    1.2238    1.5179    1.0405 C   0  0  0  0  0  0  0  0  0  0  0  0
    0.9817    0.7559    2.1961 O   0  0  0  0  0  0  0  0  0  0  0  0
    2.1506    4.0190   -2.5991 C   0  0  0  0  0  0  0  0  0  0  0  0
    3.3245    3.7258   -2.4881 O   0  0  0  0  0  0  0  0  0  0  0  0
    1.8018    5.3198   -2.6349 O   0  0  0  0  0  0  0  0  0  0  0  0
    0.7801   -0.9021   -1.0486 N   0  0  0  0  0  0  0  0  0  0  0  0
    1.6375   -1.3399   -0.0572 C   0  0  0  0  0  0  0  0  0  0  0  0
    1.1339   -1.9340    0.9022 O   0  0  0  0  0  0  0  0  0  0  0  0
    3.1125   -0.9161   -0.0135 C   0  0  0  0  0  0  0  0  0  0  0  0
    4.3604   -1.7437   -0.9824 S   0  0  0  0  0  0  0  0  0  0  0  0
    3.7565   -3.4195   -1.0218 C   0  0  0  0  0  0  0  0  0  0  0  0
    4.2494   -4.0739    0.0482 F   0  0  0  0  0  0  0  0  0  0  0  0
    2.4107   -3.5183   -0.9890 F   0  0  0  0  0  0  0  0  0  0  0  0
    3.2557   -1.7376   -3.0600 H   0  0  0  0  0  0  0  0  0  0  0  0
    2.8230   -0.9659   -4.5476 H   0  0  0  0  0  0  0  0  0  0  0  0
    2.5816   -2.7459   -4.2843 H   0  0  0  0  0  0  0  0  0  0  0  0
   -0.1419    0.5662   -4.0254 H   0  0  0  0  0  0  0  0  0  0  0  0
   -2.1765    2.7094   -1.6935 H   0  0  0  0  0  0  0  0  0  0  0  0
   -2.0202    2.5115   -3.4557 H   0  0  0  0  0  0  0  0  0  0  0  0
   -0.4877    5.5240   -2.9391 H   0  0  0  0  0  0  0  0  0  0  0  0
   -1.8929    4.9107   -2.1537 H   0  0  0  0  0  0  0  0  0  0  0  0
   -0.7646    1.2513    0.2328 H   0  0  0  0  0  0  0  0  0  0  0  0
    0.3228    2.3886   -0.5655 H   0  0  0  0  0  0  0  0  0  0  0  0
    1.5997    0.8603    0.2927 H   0  0  0  0  0  0  0  0  0  0  0  0
    2.0286    2.2358    1.1917 H   0  0  0  0  0  0  0  0  0  0  0  0
    0.4573    1.3060    2.8084 H   0  0  0  0  0  0  0  0  0  0  0  0
    2.5943    5.8515   -2.4029 H   0  0  0  0  0  0  0  0  0  0  0  0
   -0.1771   -1.2071   -0.8696 H   0  0  0  0  0  0  0  0  0  0  0  0
    3.2041    0.1389   -0.2631 H   0  0  0  0  0  0  0  0  0  0  0  0
    3.4461   -0.9519    1.0236 H   0  0  0  0  0  0  0  0  0  0  0  0
    4.0938   -3.9080   -1.9405 H   0  0  0  0  0  0  0  0  0  0  0  0
  1  2  1  0  0  0  0
  1 33  1  0  0  0  0
  1 34  1  0  0  0  0
  1 35  1  0  0  0  0
  3  4  1  0  0  0  0
  3  6  1  0  0  0  0
  3 25  1  0  0  0  0
  3  2  1  6  0  0  0
  4  5  1  0  0  0  0
  4 11  1  0  0  0  0
  4 36  1  6  0  0  0
  5  6  1  0  0  0  0
  5  8  1  0  0  0  0
  6  7  2  0  0  0  0
  8  9  2  0  0  0  0
  8 22  1  0  0  0  0
  9 10  1  0  0  0  0
  9 12  1  0  0  0  0
 10 11  1  0  0  0  0
 10 37  1  0  0  0  0
 10 38  1  0  0  0  0
 12 13  1  0  0  0  0
 12 39  1  0  0  0  0
 12 40  1  0  0  0  0
 13 14  1  0  0  0  0
 14 15  2  0  0  0  0
 14 18  1  0  0  0  0
 15 16  1  0  0  0  0
 16 17  2  0  0  0  0
 17 18  1  0  0  0  0
 18 19  1  0  0  0  0
 19 20  1  0  0  0  0
 19 41  1  0  0  0  0
 19 42  1  0  0  0  0
 20 21  1  0  0  0  0
 20 43  1  0  0  0  0
 20 44  1  0  0  0  0
 21 45  1  0  0  0  0
 22 23  2  0  0  0  0
 22 24  1  0  0  0  0
 24 46  1  0  0  0  0
 25 26  1  0  0  0  0
 25 47  1  0  0  0  0
 26 27  2  0  0  0  0
 26 28  1  0  0  0  0
 28 29  1  0  0  0  0
 28 48  1  0  0  0  0
 28 49  1  0  0  0  0
 29 30  1  0  0  0  0
 30 31  1  0  0  0  0
 30 32  1  0  0  0  0
 30 50  1  0  0  0  0
M  END
>  <DRUGBANK_ID>
DB11935

>  <COMMON_NAME>
Flomoxef

>  <CAS_NUMBER>
99665-00-6

>  <UNII>
V9E5U5XF42

>  <SYNONYMS>
Flomoxef

$$$$
