
 OpenBabel10282417193D

123125  0  0  1  0  0  0  0  0999 V2000
   11.5781  -11.7348    1.1829 C   0  0  0  0  0  0  0  0  0  0  0  0
   10.9629  -10.4512    1.6202 C   0  0  0  0  0  0  0  0  0  0  0  0
   11.2526   -9.3116    0.6599 C   0  0  2  0  0  0  0  0  0  0  0  0
   12.6803   -9.1633    0.3877 C   0  0  0  0  0  0  0  0  0  0  0  0
   10.7814   -7.8401    1.1026 C   0  0  1  0  0  0  0  0  0  0  0  0
   10.9208   -6.7188    0.0196 C   0  0  1  0  0  0  0  0  0  0  0  0
   10.3165   -7.0712   -1.4000 C   0  0  0  0  0  0  0  0  0  0  0  0
    8.7733   -7.2401   -1.6297 C   0  0  0  0  0  0  0  0  0  0  0  0
    8.3801   -6.1435   -2.0946 O   0  0  0  0  0  0  0  0  0  0  0  0
    7.8971   -8.6150   -0.9055 N   0  0  0  0  0  0  0  0  0  0  0  0
    8.1902   -9.5808    0.9429 C   0  0  0  0  0  0  0  0  0  0  0  0
    8.1919  -10.9186    1.0244 C   0  0  0  0  0  0  0  0  0  0  0  0
    7.0693  -10.8749    0.2030 C   0  0  0  0  0  0  0  0  0  0  0  0
    7.2833   -9.6139   -1.2637 C   0  0  1  0  0  0  0  0  0  0  0  0
    5.9280   -8.0930   -1.2768 C   0  0  1  0  0  0  0  0  0  0  0  0
    5.0973   -6.9434   -0.1611 C   0  0  1  0  0  0  0  0  0  0  0  0
    6.3458   -5.5052   -0.1167 C   0  0  0  0  0  0  0  0  0  0  0  0
    3.7382   -6.4291    0.0269 C   0  0  0  0  0  0  0  0  0  0  0  0
    3.0000   -6.4051    0.9787 O   0  0  0  0  0  0  0  0  0  0  0  0
    3.3779   -5.6983   -0.9602 N   0  0  0  0  0  0  0  0  0  0  0  0
    4.1033   -5.6936   -2.1546 C   0  0  1  0  0  0  0  0  0  0  0  0
    3.5028   -6.5816   -3.2267 C   0  0  0  0  0  0  0  0  0  0  0  0
    2.1825   -6.0170   -3.4264 C   0  0  0  0  0  0  0  0  0  0  0  0
    1.1245   -6.4734   -2.6313 C   0  0  0  0  0  0  0  0  0  0  0  0
   -0.0114   -5.7213   -2.6212 C   0  0  0  0  0  0  0  0  0  0  0  0
   -0.0388   -4.5376   -3.3495 C   0  0  0  0  0  0  0  0  0  0  0  0
    1.0865   -4.0657   -4.0182 C   0  0  0  0  0  0  0  0  0  0  0  0
    2.1711   -4.8699   -4.1698 C   0  0  0  0  0  0  0  0  0  0  0  0
    4.6417   -4.4254   -2.5790 C   0  0  0  0  0  0  0  0  0  0  0  0
    5.7413   -4.3218   -3.2964 N   0  0  0  0  0  0  0  0  0  0  0  0
    5.9053   -3.0123   -3.5760 C   0  0  0  0  0  0  0  0  0  0  0  0
    4.9448   -2.1966   -3.0352 C   0  0  0  0  0  0  0  0  0  0  0  0
    3.8788   -3.0256   -2.0326 S   0  0  0  0  0  0  0  0  0  0  0  0
    5.7957   -8.0329   -2.6492 O   0  0  0  0  0  0  0  0  0  0  0  0
    6.5942   -7.0499   -3.0400 C   0  0  0  0  0  0  0  0  0  0  0  0
   10.5098   -5.4350    0.6249 O   0  0  0  0  0  0  0  0  0  0  0  0
    9.1254   -5.2493    0.7385 C   0  0  0  0  0  0  0  0  0  0  0  0
    9.4436   -7.6483    1.4672 N   0  0  0  0  0  0  0  0  0  0  0  0
    8.8243   -7.7098    2.7683 C   0  0  0  0  0  0  0  0  0  0  0  0
    8.7357   -7.9785    0.4439 C   0  0  0  0  0  0  0  0  0  0  0  0
    9.5606   -8.8740   -0.4745 O   0  0  0  0  0  0  0  0  0  0  0  0
    6.6011   -8.6769    0.4580 C   0  0  2  0  0  0  0  0  0  0  0  0
    5.4858   -9.8419   -0.9877 C   0  0  0  0  0  0  0  0  0  0  0  0
    4.8106  -11.0948   -0.8017 C   0  0  0  0  0  0  0  0  0  0  0  0
    4.0094   -8.9883   -1.8305 C   0  0  0  0  0  0  0  0  0  0  0  0
    6.6395   -7.3664    1.0589 N   0  0  0  0  0  0  0  0  0  0  0  0
    5.6024   -6.6279    1.9730 C   0  0  0  0  0  0  0  0  0  0  0  0
    5.2040   -5.4522    1.8414 O   0  0  0  0  0  0  0  0  0  0  0  0
    4.8542   -7.7400    2.8940 C   0  0  2  0  0  0  0  0  0  0  0  0
    3.3446   -8.1394    2.6272 C   0  0  0  0  0  0  0  0  0  0  0  0
    2.9993   -9.4363    3.3152 C   0  0  0  0  0  0  0  0  0  0  0  0
    2.4339   -7.0682    3.2073 C   0  0  0  0  0  0  0  0  0  0  0  0
    5.1627   -7.2132    4.2230 N   0  0  0  0  0  0  0  0  0  0  0  0
    6.5857   -6.9570    4.2325 C   0  0  0  0  0  0  0  0  0  0  0  0
    4.6238   -5.8654    4.3533 C   0  0  0  0  0  0  0  0  0  0  0  0
   11.3284  -11.9775    0.1360 H   0  0  0  0  0  0  0  0  0  0  0  0
   11.2103  -12.5323    1.8269 H   0  0  0  0  0  0  0  0  0  0  0  0
   12.6329  -11.6203    1.3205 H   0  0  0  0  0  0  0  0  0  0  0  0
   10.0092  -10.8858    1.6949 H   0  0  0  0  0  0  0  0  0  0  0  0
   10.9900  -10.1045    2.6387 H   0  0  0  0  0  0  0  0  0  0  0  0
   10.9917   -9.7466   -0.3232 H   0  0  0  0  0  0  0  0  0  0  0  0
   12.8743   -9.3393   -0.6741 H   0  0  0  0  0  0  0  0  0  0  0  0
   12.9750   -8.1797    0.7013 H   0  0  0  0  0  0  0  0  0  0  0  0
   13.1726   -9.8640    1.0224 H   0  0  0  0  0  0  0  0  0  0  0  0
   11.1569   -7.6405    2.0798 H   0  0  0  0  0  0  0  0  0  0  0  0
   11.9831   -6.6152   -0.1319 H   0  0  0  0  0  0  0  0  0  0  0  0
   10.5670   -6.2550   -2.0816 H   0  0  0  0  0  0  0  0  0  0  0  0
   10.7693   -7.9592   -1.8415 H   0  0  0  0  0  0  0  0  0  0  0  0
    7.6495   -8.9550    1.7931 H   0  0  0  0  0  0  0  0  0  0  0  0
    9.0826   -9.4398    1.5713 H   0  0  0  0  0  0  0  0  0  0  0  0
    9.0122  -10.9840    0.3467 H   0  0  0  0  0  0  0  0  0  0  0  0
    8.1930  -10.9403    2.1500 H   0  0  0  0  0  0  0  0  0  0  0  0
    7.1898  -11.8549   -0.1712 H   0  0  0  0  0  0  0  0  0  0  0  0
    6.2108  -10.8002    0.9648 H   0  0  0  0  0  0  0  0  0  0  0  0
    7.7884  -10.2026   -2.0009 H   0  0  0  0  0  0  0  0  0  0  0  0
    4.9189   -8.5869   -0.3426 H   0  0  0  0  0  0  0  0  0  0  0  0
    4.8625   -7.7389    0.7996 H   0  0  0  0  0  0  0  0  0  0  0  0
    6.5597   -5.0438   -1.0369 H   0  0  0  0  0  0  0  0  0  0  0  0
    6.7156   -5.0510    0.8281 H   0  0  0  0  0  0  0  0  0  0  0  0
    7.3432   -5.9502   -0.2154 H   0  0  0  0  0  0  0  0  0  0  0  0
    2.5242   -5.2638   -0.7189 H   0  0  0  0  0  0  0  0  0  0  0  0
    5.0281   -5.9687   -1.7615 H   0  0  0  0  0  0  0  0  0  0  0  0
    4.1177   -6.7728   -4.0992 H   0  0  0  0  0  0  0  0  0  0  0  0
    3.1083   -7.5504   -2.9774 H   0  0  0  0  0  0  0  0  0  0  0  0
    1.2148   -7.3767   -2.0233 H   0  0  0  0  0  0  0  0  0  0  0  0
   -0.8579   -6.0476   -2.0393 H   0  0  0  0  0  0  0  0  0  0  0  0
   -0.9540   -3.9716   -3.4226 H   0  0  0  0  0  0  0  0  0  0  0  0
    1.1246   -3.0646   -4.4103 H   0  0  0  0  0  0  0  0  0  0  0  0
    3.0686   -4.5865   -4.7150 H   0  0  0  0  0  0  0  0  0  0  0  0
    6.7161   -2.6894   -4.2065 H   0  0  0  0  0  0  0  0  0  0  0  0
    4.8089   -1.1510   -3.1439 H   0  0  0  0  0  0  0  0  0  0  0  0
    6.5477   -6.3760   -2.2191 H   0  0  0  0  0  0  0  0  0  0  0  0
    7.4644   -7.6600   -3.0994 H   0  0  0  0  0  0  0  0  0  0  0  0
    6.1111   -6.6061   -3.8584 H   0  0  0  0  0  0  0  0  0  0  0  0
    8.8218   -5.3316   -0.2692 H   0  0  0  0  0  0  0  0  0  0  0  0
    8.5968   -5.9029    1.4053 H   0  0  0  0  0  0  0  0  0  0  0  0
    8.6496   -4.3536    1.1081 H   0  0  0  0  0  0  0  0  0  0  0  0
    7.9950   -7.0515    2.5839 H   0  0  0  0  0  0  0  0  0  0  0  0
    8.3166   -8.6543    3.1483 H   0  0  0  0  0  0  0  0  0  0  0  0
    9.4678   -7.4890    3.5658 H   0  0  0  0  0  0  0  0  0  0  0  0
    6.1612   -9.1547    1.3102 H   0  0  0  0  0  0  0  0  0  0  0  0
    5.9825   -9.9613   -2.2517 H   0  0  0  0  0  0  0  0  0  0  0  0
    4.1481  -10.7080   -0.0563 H   0  0  0  0  0  0  0  0  0  0  0  0
    4.5655  -11.3139   -1.8413 H   0  0  0  0  0  0  0  0  0  0  0  0
    5.4817  -11.8324   -0.4676 H   0  0  0  0  0  0  0  0  0  0  0  0
    4.2397   -7.8979   -1.8969 H   0  0  0  0  0  0  0  0  0  0  0  0
    4.0786   -9.1117   -2.9372 H   0  0  0  0  0  0  0  0  0  0  0  0
    3.3446   -8.4713   -1.1457 H   0  0  0  0  0  0  0  0  0  0  0  0
    6.8160   -7.1669    0.0715 H   0  0  0  0  0  0  0  0  0  0  0  0
    5.3447   -8.7146    2.7571 H   0  0  0  0  0  0  0  0  0  0  0  0
    3.0844   -8.3721    1.5781 H   0  0  0  0  0  0  0  0  0  0  0  0
    3.3220   -9.3647    4.3515 H   0  0  0  0  0  0  0  0  0  0  0  0
    1.9155   -9.5805    3.2635 H   0  0  0  0  0  0  0  0  0  0  0  0
    3.5002  -10.2724    2.8197 H   0  0  0  0  0  0  0  0  0  0  0  0
    2.6808   -6.0456    2.8691 H   0  0  0  0  0  0  0  0  0  0  0  0
    1.3754   -7.1572    3.0326 H   0  0  0  0  0  0  0  0  0  0  0  0
    2.5730   -7.1569    4.2816 H   0  0  0  0  0  0  0  0  0  0  0  0
    6.8907   -6.1649    3.5160 H   0  0  0  0  0  0  0  0  0  0  0  0
    6.9803   -6.5606    5.1396 H   0  0  0  0  0  0  0  0  0  0  0  0
    7.0263   -7.9265    4.0810 H   0  0  0  0  0  0  0  0  0  0  0  0
    4.8877   -5.1243    3.6169 H   0  0  0  0  0  0  0  0  0  0  0  0
    3.5742   -5.7399    4.3586 H   0  0  0  0  0  0  0  0  0  0  0  0
    4.8994   -5.4910    5.3070 H   0  0  0  0  0  0  0  0  0  0  0  0
  1  2  1  0  0  0  0
  1 56  1  0  0  0  0
  1 57  1  0  0  0  0
  1 58  1  0  0  0  0
  2 59  1  0  0  0  0
  2 60  1  0  0  0  0
  3  5  1  0  0  0  0
  3 61  1  6  0  0  0
  3  4  1  0  0  0  0
  3  2  1  0  0  0  0
  4 62  1  0  0  0  0
  4 63  1  0  0  0  0
  4 64  1  0  0  0  0
  5  6  1  0  0  0  0
  5 38  1  0  0  0  0
  5 65  1  1  0  0  0
  6  7  1  0  0  0  0
  6 36  1  0  0  0  0
  6 66  1  6  0  0  0
  7  8  1  0  0  0  0
  7 67  1  0  0  0  0
  7 68  1  0  0  0  0
  8  9  2  0  0  0  0
  8 10  1  0  0  0  0
 10 11  1  0  0  0  0
 10 14  1  0  0  0  0
 11 12  1  0  0  0  0
 11 69  1  0  0  0  0
 11 70  1  0  0  0  0
 12 13  1  0  0  0  0
 12 71  1  0  0  0  0
 12 72  1  0  0  0  0
 13 14  1  0  0  0  0
 13 73  1  0  0  0  0
 13 74  1  0  0  0  0
 14 75  1  6  0  0  0
 14 15  1  0  0  0  0
 15 16  1  0  0  0  0
 15 34  1  0  0  0  0
 15 76  1  1  0  0  0
 16 17  1  0  0  0  0
 16 18  1  0  0  0  0
 16 77  1  1  0  0  0
 17 78  1  0  0  0  0
 17 79  1  0  0  0  0
 17 80  1  0  0  0  0
 18 19  2  0  0  0  0
 18 20  1  0  0  0  0
 20 81  1  0  0  0  0
 21 20  1  0  0  0  0
 21 22  1  0  0  0  0
 21 29  1  0  0  0  0
 21 82  1  1  0  0  0
 22 23  1  0  0  0  0
 22 83  1  0  0  0  0
 22 84  1  0  0  0  0
 23 24  2  0  0  0  0
 23 28  1  0  0  0  0
 24 25  1  0  0  0  0
 24 85  1  0  0  0  0
 25 26  2  0  0  0  0
 25 86  1  0  0  0  0
 26 27  1  0  0  0  0
 26 87  1  0  0  0  0
 27 28  2  0  0  0  0
 27 88  1  0  0  0  0
 28 89  1  0  0  0  0
 29 30  2  0  0  0  0
 29 33  1  0  0  0  0
 30 31  1  0  0  0  0
 31 32  2  0  0  0  0
 31 90  1  0  0  0  0
 32 33  1  0  0  0  0
 32 91  1  0  0  0  0
 34 35  1  0  0  0  0
 35 92  1  0  0  0  0
 35 93  1  0  0  0  0
 35 94  1  0  0  0  0
 36 37  1  0  0  0  0
 37 95  1  0  0  0  0
 37 96  1  0  0  0  0
 37 97  1  0  0  0  0
 38 39  1  0  0  0  0
 38 40  1  0  0  0  0
 39 98  1  0  0  0  0
 39 99  1  0  0  0  0
 39100  1  0  0  0  0
 40 41  2  0  0  0  0
 42 46  1  0  0  0  0
 42101  1  1  0  0  0
 42 43  1  0  0  0  0
 42 40  1  0  0  0  0
 43 44  1  0  0  0  0
 43 45  1  0  0  0  0
 43102  1  0  0  0  0
 44103  1  0  0  0  0
 44104  1  0  0  0  0
 44105  1  0  0  0  0
 45106  1  0  0  0  0
 45107  1  0  0  0  0
 45108  1  0  0  0  0
 46 47  1  0  0  0  0
 46109  1  0  0  0  0
 47 48  2  0  0  0  0
 49 53  1  0  0  0  0
 49110  1  6  0  0  0
 49 50  1  0  0  0  0
 49 47  1  0  0  0  0
 50 51  1  0  0  0  0
 50 52  1  0  0  0  0
 50111  1  0  0  0  0
 51112  1  0  0  0  0
 51113  1  0  0  0  0
 51114  1  0  0  0  0
 52115  1  0  0  0  0
 52116  1  0  0  0  0
 52117  1  0  0  0  0
 53 54  1  0  0  0  0
 53 55  1  0  0  0  0
 54118  1  0  0  0  0
 54119  1  0  0  0  0
 54120  1  0  0  0  0
 55121  1  0  0  0  0
 55122  1  0  0  0  0
 55123  1  0  0  0  0
M  END
>  <DRUGBANK_ID>
DB12730

>  <COMMON_NAME>
Dolastatin 10

>  <CAS_NUMBER>
110417-88-4

>  <UNII>
EI946JT51X

$$$$
