796
 OpenBabel10282417163D

 47 49  0  0  0  0  0  0  0  0999 V2000
    3.3379    1.7344    2.6495 O   0  0  0  0  0  0  0  0  0  0  0  0
    3.1073    2.9252    2.3918 C   0  0  0  0  0  0  0  0  0  0  0  0
    3.4093    3.8975    3.4055 C   0  0  0  0  0  0  0  0  0  0  0  0
    2.2345    4.9748    3.9981 S   0  0  0  0  0  0  0  0  0  0  0  0
    4.5694    3.9221    4.1572 C   0  0  0  0  0  0  0  0  0  0  0  0
    4.4865    4.8374    5.2341 C   0  0  0  0  0  0  0  0  0  0  0  0
    3.2604    5.4717    5.2817 C   0  0  0  0  0  0  0  0  0  0  0  0
    2.8295    6.4877    6.2315 C   0  0  0  0  0  0  0  0  0  0  0  0
    3.5606    7.6396    6.3847 C   0  0  0  0  0  0  0  0  0  0  0  0
    1.7424    6.1943    6.9637 N   0  0  0  0  0  0  0  0  0  0  0  0
    1.3598    7.0959    7.8750 C   0  0  0  0  0  0  0  0  0  0  0  0
    0.2640    6.8551    8.6545 N   0  0  0  0  0  0  0  0  0  0  0  0
   -0.4995    5.6443    8.5482 C   0  0  0  0  0  0  0  0  0  0  0  0
    1.9996    8.2557    8.0859 N   0  0  0  0  0  0  0  0  0  0  0  0
    3.0895    8.5021    7.3353 C   0  0  0  0  0  0  0  0  0  0  0  0
    2.6601    3.3696    1.1494 N   0  0  0  0  0  0  0  0  0  0  0  0
    2.4140    2.4460    0.0043 C   0  0  2  0  0  0  0  0  0  0  0  0
    3.3802    1.2236    0.1026 C   0  0  0  0  0  0  0  0  0  0  0  0
    2.7080   -0.0505    0.4045 N   0  0  0  0  0  0  0  0  0  0  0  0
    2.6147    3.1209   -1.4021 C   0  0  0  0  0  0  0  0  0  0  0  0
    2.2661    2.2722   -2.6448 C   0  0  0  0  0  0  0  0  0  0  0  0
    2.4341    0.8729   -2.6553 C   0  0  0  0  0  0  0  0  0  0  0  0
    2.3198    0.0604   -3.7707 C   0  0  0  0  0  0  0  0  0  0  0  0
    1.9289    0.6287   -4.9526 C   0  0  0  0  0  0  0  0  0  0  0  0
    1.7264   -0.3889   -6.3171 Cl  0  0  0  0  0  0  0  0  0  0  0  0
    1.6818    1.9996   -5.0069 C   0  0  0  0  0  0  0  0  0  0  0  0
    1.8672    2.8196   -3.8717 C   0  0  0  0  0  0  0  0  0  0  0  0
    1.5546    4.5079   -4.0605 Cl  0  0  0  0  0  0  0  0  0  0  0  0
    1.3486    2.1686    0.0652 H   0  0  0  0  0  0  0  0  0  0  0  0
    5.4164    3.2704    3.9672 H   0  0  0  0  0  0  0  0  0  0  0  0
    5.2740    5.0002    5.9602 H   0  0  0  0  0  0  0  0  0  0  0  0
    4.4401    7.8492    5.7937 H   0  0  0  0  0  0  0  0  0  0  0  0
    0.0065    7.5918    9.2921 H   0  0  0  0  0  0  0  0  0  0  0  0
   -0.5237    5.1365    9.5171 H   0  0  0  0  0  0  0  0  0  0  0  0
   -1.5286    5.8754    8.2579 H   0  0  0  0  0  0  0  0  0  0  0  0
   -0.1028    4.9322    7.8173 H   0  0  0  0  0  0  0  0  0  0  0  0
    3.5925    9.4443    7.5278 H   0  0  0  0  0  0  0  0  0  0  0  0
    2.3517    4.3343    1.0800 H   0  0  0  0  0  0  0  0  0  0  0  0
    3.9781    1.1333   -0.8047 H   0  0  0  0  0  0  0  0  0  0  0  0
    4.2032    1.3813    0.7911 H   0  0  0  0  0  0  0  0  0  0  0  0
    3.4300   -0.7659    0.4845 H   0  0  0  0  0  0  0  0  0  0  0  0
    2.2930    0.0066    1.3386 H   0  0  0  0  0  0  0  0  0  0  0  0
    2.0575    4.0669   -1.4180 H   0  0  0  0  0  0  0  0  0  0  0  0
    3.6740    3.4076   -1.4875 H   0  0  0  0  0  0  0  0  0  0  0  0
    2.6632    0.2789   -1.7948 H   0  0  0  0  0  0  0  0  0  0  0  0
    2.5285   -1.0013   -3.6584 H   0  0  0  0  0  0  0  0  0  0  0  0
    1.3449    2.4321   -5.9429 H   0  0  0  0  0  0  0  0  0  0  0  0
  1  2  2  0  0  0  0
  2  3  1  0  0  0  0
  2 16  1  0  0  0  0
  3  4  1  0  0  0  0
  3  5  2  0  0  0  0
  4  7  1  0  0  0  0
  5  6  1  0  0  0  0
  5 30  1  0  0  0  0
  6  7  2  0  0  0  0
  6 31  1  0  0  0  0
  7  8  1  0  0  0  0
  8  9  2  0  0  0  0
  8 10  1  0  0  0  0
  9 15  1  0  0  0  0
  9 32  1  0  0  0  0
 10 11  2  0  0  0  0
 11 12  1  0  0  0  0
 11 14  1  0  0  0  0
 12 13  1  0  0  0  0
 12 33  1  0  0  0  0
 13 34  1  0  0  0  0
 13 35  1  0  0  0  0
 13 36  1  0  0  0  0
 14 15  2  0  0  0  0
 15 37  1  0  0  0  0
 16 38  1  0  0  0  0
 17 20  1  0  0  0  0
 17 29  1  1  0  0  0
 17 18  1  0  0  0  0
 17 16  1  0  0  0  0
 18 19  1  0  0  0  0
 18 39  1  0  0  0  0
 18 40  1  0  0  0  0
 19 41  1  0  0  0  0
 19 42  1  0  0  0  0
 20 21  1  0  0  0  0
 20 43  1  0  0  0  0
 20 44  1  0  0  0  0
 21 22  1  0  0  0  0
 21 27  2  0  0  0  0
 22 23  2  0  0  0  0
 22 45  1  0  0  0  0
 23 24  1  0  0  0  0
 23 46  1  0  0  0  0
 24 25  1  0  0  0  0
 24 26  2  0  0  0  0
 26 27  1  0  0  0  0
 26 47  1  0  0  0  0
 27 28  1  0  0  0  0
M  END
>  <DRUGBANK_ID>
DB07235

>  <COMMON_NAME>
N-[(1S)-2-AMINO-1-(2,4-DICHLOROBENZYL)ETHYL]-5-[2-(METHYLAMINO)PYRIMIDIN-4-YL]THIOPHENE-2-CARBOXAMIDE

$$$$
