
 OpenBabel10282417203D

 51 54  0  0  0  0  0  0  0  0999 V2000
   -1.2112    1.2541    0.0480 C   0  0  0  0  0  0  0  0  0  0  0  0
    0.1810    1.2083    0.0107 C   0  0  0  0  0  0  0  0  0  0  0  0
    0.8235   -0.0189   -0.0055 C   0  0  0  0  0  0  0  0  0  0  0  0
    0.0952   -1.2030   -0.0053 C   0  0  0  0  0  0  0  0  0  0  0  0
   -1.3057   -1.1565   -0.0045 C   0  0  0  0  0  0  0  0  0  0  0  0
   -1.9721    0.0779    0.0179 C   0  0  0  0  0  0  0  0  0  0  0  0
   -3.3561    0.0346    0.0352 O   0  0  0  0  0  0  0  0  0  0  0  0
   -4.0590    1.2257   -0.0155 C   0  0  0  0  0  0  0  0  0  0  0  0
   -3.9081    2.1026   -1.0831 C   0  0  0  0  0  0  0  0  0  0  0  0
   -4.5537    3.3371   -1.0290 C   0  0  0  0  0  0  0  0  0  0  0  0
   -5.4301    3.6196    0.0263 C   0  0  0  0  0  0  0  0  0  0  0  0
   -5.5607    2.6548    1.0134 C   0  0  0  0  0  0  0  0  0  0  0  0
   -4.8938    1.4684    1.0193 N   0  0  0  0  0  0  0  0  0  0  0  0
   -6.1724    4.9012    0.1824 C   0  0  0  0  0  0  0  0  0  0  0  0
   -6.7509    5.1765    1.2412 O   0  0  0  0  0  0  0  0  0  0  0  0
   -6.1316    5.8004   -0.8596 N   0  0  0  0  0  0  0  0  0  0  0  0
   -6.6304    5.3524   -2.1751 C   0  0  0  0  0  0  0  0  0  0  0  0
   -7.8159    6.0705   -2.7971 C   0  0  0  0  0  0  0  0  0  0  0  0
   -7.9961    7.5730   -2.6197 C   0  0  0  0  0  0  0  0  0  0  0  0
   -6.8248    8.3988   -2.3393 N   0  0  3  0  0  0  0  0  0  0  0  0
   -6.4771    8.3381   -0.9250 C   0  0  0  0  0  0  0  0  0  0  0  0
   -5.6027    7.1557   -0.5363 C   0  0  0  0  0  0  0  0  0  0  0  0
   -5.7767    8.4357   -3.3807 C   0  0  0  0  0  0  0  0  0  0  0  0
   -4.9320    7.1617   -3.5471 C   0  0  0  0  0  0  0  0  0  0  0  0
   -3.6740    7.9758   -3.6468 C   0  0  0  0  0  0  0  0  0  0  0  0
   -4.4509    9.1338   -2.9619 C   0  0  0  0  0  0  0  0  0  0  0  0
    2.1619   -0.0569   -0.0106 F   0  0  0  0  0  0  0  0  0  0  0  0
   -1.6715    2.2337    0.1060 H   0  0  0  0  0  0  0  0  0  0  0  0
    0.7578    2.1268    0.0088 H   0  0  0  0  0  0  0  0  0  0  0  0
    0.6256   -2.1505   -0.0014 H   0  0  0  0  0  0  0  0  0  0  0  0
   -1.8674   -2.0885   -0.0070 H   0  0  0  0  0  0  0  0  0  0  0  0
   -3.2450    1.8635   -1.9081 H   0  0  0  0  0  0  0  0  0  0  0  0
   -4.3440    4.0579   -1.8118 H   0  0  0  0  0  0  0  0  0  0  0  0
   -6.2178    2.8209    1.8646 H   0  0  0  0  0  0  0  0  0  0  0  0
   -6.8929    4.2910   -2.1075 H   0  0  0  0  0  0  0  0  0  0  0  0
   -5.8436    5.2459   -2.9130 H   0  0  0  0  0  0  0  0  0  0  0  0
   -7.7759    5.8793   -3.8773 H   0  0  0  0  0  0  0  0  0  0  0  0
   -8.7210    5.5675   -2.4361 H   0  0  0  0  0  0  0  0  0  0  0  0
   -8.5154    7.9684   -3.5023 H   0  0  0  0  0  0  0  0  0  0  0  0
   -8.7429    7.7139   -1.8206 H   0  0  0  0  0  0  0  0  0  0  0  0
   -7.3861    8.3020   -0.3041 H   0  0  0  0  0  0  0  0  0  0  0  0
   -6.0183    9.2909   -0.6291 H   0  0  0  0  0  0  0  0  0  0  0  0
   -5.3856    7.2258    0.5380 H   0  0  0  0  0  0  0  0  0  0  0  0
   -4.6031    7.2703   -0.9636 H   0  0  0  0  0  0  0  0  0  0  0  0
   -6.1607    8.7780   -4.3496 H   0  0  0  0  0  0  0  0  0  0  0  0
   -4.6832    6.5317   -2.7048 H   0  0  0  0  0  0  0  0  0  0  0  0
   -5.1824    6.5396   -4.4091 H   0  0  0  0  0  0  0  0  0  0  0  0
   -2.8644    7.5203   -3.0575 H   0  0  0  0  0  0  0  0  0  0  0  0
   -3.3671    8.0597   -4.6877 H   0  0  0  0  0  0  0  0  0  0  0  0
   -4.2465   10.1097   -3.4018 H   0  0  0  0  0  0  0  0  0  0  0  0
   -4.2352    9.2032   -1.8908 H   0  0  0  0  0  0  0  0  0  0  0  0
  1  2  2  0  0  0  0
  1  6  1  0  0  0  0
  1 28  1  0  0  0  0
  2  3  1  0  0  0  0
  2 29  1  0  0  0  0
  3  4  2  0  0  0  0
  3 27  1  0  0  0  0
  4  5  1  0  0  0  0
  4 30  1  0  0  0  0
  5  6  2  0  0  0  0
  5 31  1  0  0  0  0
  6  7  1  0  0  0  0
  7  8  1  0  0  0  0
  8  9  2  0  0  0  0
  8 13  1  0  0  0  0
  9 10  1  0  0  0  0
  9 32  1  0  0  0  0
 10 11  2  0  0  0  0
 10 33  1  0  0  0  0
 11 12  1  0  0  0  0
 11 14  1  0  0  0  0
 12 13  2  0  0  0  0
 12 34  1  0  0  0  0
 14 15  2  0  0  0  0
 14 16  1  0  0  0  0
 16 17  1  0  0  0  0
 16 22  1  0  0  0  0
 17 18  1  0  0  0  0
 17 35  1  0  0  0  0
 17 36  1  0  0  0  0
 18 19  1  0  0  0  0
 18 37  1  0  0  0  0
 18 38  1  0  0  0  0
 19 20  1  0  0  0  0
 19 39  1  0  0  0  0
 19 40  1  0  0  0  0
 20 21  1  0  0  0  0
 20 23  1  0  0  0  0
 21 22  1  0  0  0  0
 21 41  1  0  0  0  0
 21 42  1  0  0  0  0
 22 43  1  0  0  0  0
 22 44  1  0  0  0  0
 23 24  1  0  0  0  0
 23 26  1  0  0  0  0
 23 45  1  0  0  0  0
 24 25  1  0  0  0  0
 24 46  1  0  0  0  0
 24 47  1  0  0  0  0
 25 26  1  0  0  0  0
 25 48  1  0  0  0  0
 25 49  1  0  0  0  0
 26 50  1  0  0  0  0
 26 51  1  0  0  0  0
M  END
>  <DRUGBANK_ID>
DB12929

>  <COMMON_NAME>
JNJ-39220675

>  <CAS_NUMBER>
959740-39-7

>  <UNII>
41WC0AZ27V

$$$$
