
 OpenBabel10282417153D

 64 68  0  0  0  0  0  0  0  0999 V2000
    0.1829    0.7315   -0.5991 C   0  0  2  0  0  0  0  0  0  0  0  0
   -0.5102   -0.5015   -0.2809 N   0  0  0  0  0  0  0  0  0  0  0  0
    0.0837   -1.7350   -0.0551 C   0  0  0  0  0  0  0  0  0  0  0  0
    1.4446   -1.7860    0.0786 C   0  0  0  0  0  0  0  0  0  0  0  0
    2.3037   -0.5330    0.0367 C   0  0  0  0  0  0  0  0  0  0  0  0
    1.4873    1.0049    0.5767 S   0  0  0  0  0  0  0  0  0  0  0  0
   -1.1363    1.4428   -0.4096 C   0  0  1  0  0  0  0  0  0  0  0  0
   -1.6612    0.0863    0.1275 C   0  0  0  0  0  0  0  0  0  0  0  0
   -1.3775    2.6952    0.3094 N   0  0  0  0  0  0  0  0  0  0  0  0
   -2.1421    3.7735   -0.1524 C   0  0  0  0  0  0  0  0  0  0  0  0
   -2.1606    4.7621    0.5813 O   0  0  0  0  0  0  0  0  0  0  0  0
   -2.6503   -0.2692    0.7414 O   0  0  0  0  0  0  0  0  0  0  0  0
   -2.8896    3.7672   -1.5603 C   0  0  0  0  0  0  0  0  0  0  0  0
    2.2745   -3.3275    0.3238 S   0  0  0  0  0  0  0  0  0  0  0  0
   -2.9636    2.5672   -2.4539 C   0  0  0  0  0  0  0  0  0  0  0  0
    0.4952    0.8003   -1.6543 H   0  0  0  0  0  0  0  0  0  0  0  0
   -2.4051    2.6244   -3.6724 N   0  0  0  0  0  0  0  0  0  0  0  0
   -2.3871    1.0835   -4.2898 S   0  0  0  0  0  0  0  0  0  0  0  0
   -2.9582    0.2974   -2.8221 C   0  0  0  0  0  0  0  0  0  0  0  0
   -3.3630    1.2656   -1.9994 N   0  0  0  0  0  0  0  0  0  0  0  0
   -3.4571    4.8379   -2.0743 N   0  0  0  0  0  0  0  0  0  0  0  0
   -0.9056   -3.0130    0.0169 C   0  0  0  0  0  0  0  0  0  0  0  0
   -2.0939   -2.7821   -0.3981 O   0  5  0  0  0  0  0  0  0  0  0  0
   -0.4269   -4.1238    0.3575 O   0  0  0  0  0  0  0  0  0  0  0  0
   -2.8607   -1.0513   -2.5095 N   0  0  0  0  0  0  0  0  0  0  0  0
   -3.3760    5.9792   -1.2595 O   0  0  0  0  0  0  0  0  0  0  0  0
   -4.1145    7.0657   -1.8301 C   0  0  0  0  0  0  0  0  0  0  0  0
   -3.4638    7.5783   -3.1025 C   0  0  0  0  0  0  0  0  0  0  0  0
   -2.5503   -2.2192   -3.8164 P   0  0  0  0  0  0  0  0  0  0  0  0
   -1.1421   -1.4155   -4.0930 O   0  0  0  0  0  0  0  0  0  0  0  0
   -2.0181   -3.2903   -2.7293 O   0  0  0  0  0  0  0  0  0  0  0  0
   -2.2803   -3.2352   -4.9532 O   0  0  0  0  0  0  0  0  0  0  0  0
    3.9697   -2.9980    0.5571 C   0  0  0  0  0  0  0  0  0  0  0  0
    5.1499   -3.7364   -0.4568 S   0  0  0  0  0  0  0  0  0  0  0  0
    6.3975   -3.0457    0.4948 C   0  0  0  0  0  0  0  0  0  0  0  0
    5.8472   -2.3252    1.5329 C   0  0  0  0  0  0  0  0  0  0  0  0
    4.4621   -2.3176    1.5776 N   0  0  0  0  0  0  0  0  0  0  0  0
    6.6285   -1.5685    2.5004 C   0  0  0  0  0  0  0  0  0  0  0  0
    6.5429   -1.8486    3.8626 C   0  0  0  0  0  0  0  0  0  0  0  0
    7.1433   -0.9912    4.7821 C   0  0  0  0  0  0  0  0  0  0  0  0
    7.7984    0.1174    4.3668 N   0  3  0  0  0  0  0  0  0  0  0  0
    7.9864    0.3466    3.0464 C   0  0  0  0  0  0  0  0  0  0  0  0
    7.4077   -0.4869    2.0917 C   0  0  0  0  0  0  0  0  0  0  0  0
    8.2228    1.1378    5.3482 C   0  0  0  0  0  0  0  0  0  0  0  0
    2.6988   -0.3979   -0.9779 H   0  0  0  0  0  0  0  0  0  0  0  0
    3.1313   -0.5898    0.7310 H   0  0  0  0  0  0  0  0  0  0  0  0
   -1.3290    1.6662   -1.4327 H   0  0  0  0  0  0  0  0  0  0  0  0
   -1.0310    2.8236    1.2567 H   0  0  0  0  0  0  0  0  0  0  0  0
   -3.1389   -1.3978   -1.5897 H   0  0  0  0  0  0  0  0  0  0  0  0
   -5.1579    6.7771   -2.0035 H   0  0  0  0  0  0  0  0  0  0  0  0
   -4.1224    7.8745   -1.0894 H   0  0  0  0  0  0  0  0  0  0  0  0
   -3.4709    6.8088   -3.8803 H   0  0  0  0  0  0  0  0  0  0  0  0
   -3.9899    8.4586   -3.4852 H   0  0  0  0  0  0  0  0  0  0  0  0
   -2.4184    7.8446   -2.9182 H   0  0  0  0  0  0  0  0  0  0  0  0
   -1.1955   -1.0751   -5.0036 H   0  0  0  0  0  0  0  0  0  0  0  0
   -2.2433   -3.1205   -1.7759 H   0  0  0  0  0  0  0  0  0  0  0  0
    7.4339   -3.2118    0.2429 H   0  0  0  0  0  0  0  0  0  0  0  0
    5.9825   -2.7124    4.2173 H   0  0  0  0  0  0  0  0  0  0  0  0
    7.0775   -1.1672    5.8522 H   0  0  0  0  0  0  0  0  0  0  0  0
    8.5709    1.2185    2.7651 H   0  0  0  0  0  0  0  0  0  0  0  0
    7.5220   -0.2550    1.0347 H   0  0  0  0  0  0  0  0  0  0  0  0
    9.2950    1.3147    5.2374 H   0  0  0  0  0  0  0  0  0  0  0  0
    7.6551    2.0511    5.1409 H   0  0  0  0  0  0  0  0  0  0  0  0
    8.0003    0.7991    6.3634 H   0  0  0  0  0  0  0  0  0  0  0  0
  1  2  1  0  0  0  0
  1  6  1  0  0  0  0
  1  7  1  0  0  0  0
  1 16  1  6  0  0  0
  2  3  1  0  0  0  0
  2  8  1  0  0  0  0
  3  4  2  0  0  0  0
  3 22  1  0  0  0  0
  4  5  1  0  0  0  0
  4 14  1  0  0  0  0
  5  6  1  0  0  0  0
  5 45  1  0  0  0  0
  5 46  1  0  0  0  0
  7  8  1  0  0  0  0
  7  9  1  0  0  0  0
  7 47  1  6  0  0  0
  8 12  2  0  0  0  0
  9 10  1  0  0  0  0
  9 48  1  0  0  0  0
 10 11  2  0  0  0  0
 10 13  1  0  0  0  0
 13 15  1  0  0  0  0
 13 21  2  0  0  0  0
 14 33  1  0  0  0  0
 15 17  2  0  0  0  0
 15 20  1  0  0  0  0
 17 18  1  0  0  0  0
 18 19  1  0  0  0  0
 19 20  2  0  0  0  0
 19 25  1  0  0  0  0
 21 26  1  0  0  0  0
 22 23  1  0  0  0  0
 22 24  2  0  0  0  0
 25 29  1  0  0  0  0
 25 49  1  0  0  0  0
 26 27  1  0  0  0  0
 27 28  1  0  0  0  0
 27 50  1  0  0  0  0
 27 51  1  0  0  0  0
 28 52  1  0  0  0  0
 28 53  1  0  0  0  0
 28 54  1  0  0  0  0
 29 30  1  0  0  0  0
 29 31  1  0  0  0  0
 29 32  2  0  0  0  0
 30 55  1  0  0  0  0
 31 56  1  0  0  0  0
 33 34  1  0  0  0  0
 33 37  2  0  0  0  0
 34 35  1  0  0  0  0
 35 36  2  0  0  0  0
 35 57  1  0  0  0  0
 36 37  1  0  0  0  0
 36 38  1  0  0  0  0
 38 39  2  0  0  0  0
 38 43  1  0  0  0  0
 39 40  1  0  0  0  0
 39 58  1  0  0  0  0
 40 41  2  0  0  0  0
 40 59  1  0  0  0  0
 41 42  1  0  0  0  0
 41 44  1  0  0  0  0
 42 43  2  0  0  0  0
 42 60  1  0  0  0  0
 43 61  1  0  0  0  0
 44 62  1  0  0  0  0
 44 63  1  0  0  0  0
 44 64  1  0  0  0  0
M  CHG  2  23  -1  41   1
M  END
>  <DRUGBANK_ID>
DB06590

>  <COMMON_NAME>
Ceftaroline fosamil

>  <CAS_NUMBER>
229016-73-3

>  <UNII>
7P6FQA5D21

>  <SYNONYMS>
(6R,7R)-7-[(2Z)-2-ethoxyimino-2-[5-(phosphonoamino)-1,2,4-thiadiazol-3-yl]acetyl]amino]-3-[4-(1-methylpyridin-1-ium-4-yl)-1,3-thiazol-2-yl]sulfanyl]-8-oxo-5-thia-1-azabicyclo[4.2.0]oct-2-ene-2-carboxylate; Ceftarolina fosamilo; Ceftaroline; Ceftaroline fosamil; Ceftarolinum fosamilum

$$$$
