
 OpenBabel10282417193D

 47 50  0  0  1  0  0  0  0  0999 V2000
    1.0106   -0.0370   -0.0221 C   0  0  0  0  0  0  0  0  0  0  0  0
    0.3999   -0.3267    1.6165 S   0  0  0  0  0  0  0  0  0  0  0  0
    1.0605    0.6038    2.5059 O   0  0  0  0  0  0  0  0  0  0  0  0
   -1.0576   -0.3829    1.5453 O   0  0  0  0  0  0  0  0  0  0  0  0
    0.8741   -1.9138    2.1692 N   0  0  0  0  0  0  0  0  0  0  0  0
    1.9470   -2.0913    3.0326 C   0  0  0  0  0  0  0  0  0  0  0  0
    1.9566   -3.4270    3.3119 C   0  0  0  0  0  0  0  0  0  0  0  0
    0.8739   -3.9782    2.6421 C   0  0  0  0  0  0  0  0  0  0  0  0
    0.2945   -3.1185    1.8022 N   0  0  0  0  0  0  0  0  0  0  0  0
    0.8720   -5.4618    2.7629 C   0  0  0  0  0  0  0  0  0  0  0  0
    2.1581   -5.7075    3.5175 N   0  0  3  0  0  0  0  0  0  0  0  0
    2.7544   -4.4357    4.0044 C   0  0  0  0  0  0  0  0  0  0  0  0
    3.1545   -6.6174    2.9172 C   0  0  2  0  0  0  0  0  0  0  0  0
    3.9654   -6.0663    1.6998 C   0  0  0  0  0  0  0  0  0  0  0  0
    3.2412   -6.1854    0.3535 C   0  0  1  0  0  0  0  0  0  0  0  0
    2.5539   -7.5910    0.2480 C   0  0  2  0  0  0  0  0  0  0  0  0
    1.7877   -7.9984    1.3919 O   0  0  0  0  0  0  0  0  0  0  0  0
    2.4521   -7.9700    2.6509 C   0  0  0  0  0  0  0  0  0  0  0  0
    3.6404   -8.5998   -0.0815 C   0  0  0  0  0  0  0  0  0  0  0  0
    4.6590   -8.9091    0.8394 C   0  0  0  0  0  0  0  0  0  0  0  0
    5.7984   -9.5894    0.4925 C   0  0  0  0  0  0  0  0  0  0  0  0
    5.9616  -10.0204   -0.8002 C   0  0  0  0  0  0  0  0  0  0  0  0
    4.9449   -9.7845   -1.7333 C   0  0  0  0  0  0  0  0  0  0  0  0
    3.7916   -9.0831   -1.3740 C   0  0  0  0  0  0  0  0  0  0  0  0
    2.8647   -8.8235   -2.3067 F   0  0  0  0  0  0  0  0  0  0  0  0
    6.7496   -9.7465    1.4202 F   0  0  0  0  0  0  0  0  0  0  0  0
    2.4227   -4.9931    0.1273 N   0  0  0  0  0  0  0  0  0  0  0  0
    0.6471    0.9465   -0.3435 H   0  0  0  0  0  0  0  0  0  0  0  0
    0.6292   -0.7970   -0.7033 H   0  0  0  0  0  0  0  0  0  0  0  0
    2.1017   -0.0217   -0.0120 H   0  0  0  0  0  0  0  0  0  0  0  0
    2.5656   -1.2736    3.3726 H   0  0  0  0  0  0  0  0  0  0  0  0
    0.8204   -5.9527    1.7915 H   0  0  0  0  0  0  0  0  0  0  0  0
    0.0157   -5.8318    3.3333 H   0  0  0  0  0  0  0  0  0  0  0  0
    2.6293   -4.3722    5.0860 H   0  0  0  0  0  0  0  0  0  0  0  0
    3.8193   -4.3459    3.7713 H   0  0  0  0  0  0  0  0  0  0  0  0
    3.8988   -6.8101    3.7059 H   0  0  0  0  0  0  0  0  0  0  0  0
    4.3448   -5.0516    1.8630 H   0  0  0  0  0  0  0  0  0  0  0  0
    4.9160   -6.6063    1.6149 H   0  0  0  0  0  0  0  0  0  0  0  0
    3.9752   -6.1019   -0.4579 H   0  0  0  0  0  0  0  0  0  0  0  0
    1.8233   -7.5448   -0.5710 H   0  0  0  0  0  0  0  0  0  0  0  0
    3.1019   -8.8436    2.7499 H   0  0  0  0  0  0  0  0  0  0  0  0
    1.7217   -8.1824    3.4418 H   0  0  0  0  0  0  0  0  0  0  0  0
    4.6876   -8.5548    1.8560 H   0  0  0  0  0  0  0  0  0  0  0  0
    6.8842  -10.5181   -1.0637 H   0  0  0  0  0  0  0  0  0  0  0  0
    5.0627  -10.1161   -2.7574 H   0  0  0  0  0  0  0  0  0  0  0  0
    1.5278   -5.2066   -0.3102 H   0  0  0  0  0  0  0  0  0  0  0  0
    2.1849   -4.5965    1.0270 H   0  0  0  0  0  0  0  0  0  0  0  0
  1  2  1  0  0  0  0
  1 28  1  0  0  0  0
  1 29  1  0  0  0  0
  1 30  1  0  0  0  0
  2  3  2  0  0  0  0
  2  4  2  0  0  0  0
  2  5  1  0  0  0  0
  5  6  1  0  0  0  0
  5  9  1  0  0  0  0
  6  7  2  0  0  0  0
  6 31  1  0  0  0  0
  7  8  1  0  0  0  0
  7 12  1  0  0  0  0
  8  9  2  0  0  0  0
  8 10  1  0  0  0  0
 10 11  1  0  0  0  0
 10 32  1  0  0  0  0
 10 33  1  0  0  0  0
 11 12  1  0  0  0  0
 12 34  1  0  0  0  0
 12 35  1  0  0  0  0
 13 11  1  0  0  0  0
 13 14  1  0  0  0  0
 13 18  1  0  0  0  0
 13 36  1  1  0  0  0
 14 15  1  0  0  0  0
 14 37  1  0  0  0  0
 14 38  1  0  0  0  0
 15 16  1  0  0  0  0
 15 27  1  0  0  0  0
 15 39  1  6  0  0  0
 16 17  1  0  0  0  0
 16 40  1  6  0  0  0
 16 19  1  0  0  0  0
 17 18  1  0  0  0  0
 18 41  1  0  0  0  0
 18 42  1  0  0  0  0
 19 20  2  0  0  0  0
 19 24  1  0  0  0  0
 20 21  1  0  0  0  0
 20 43  1  0  0  0  0
 21 22  2  0  0  0  0
 21 26  1  0  0  0  0
 22 23  1  0  0  0  0
 22 44  1  0  0  0  0
 23 24  2  0  0  0  0
 23 45  1  0  0  0  0
 24 25  1  0  0  0  0
 27 46  1  0  0  0  0
 27 47  1  0  0  0  0
M  END
>  <DRUGBANK_ID>
DB11992

>  <COMMON_NAME>
Omarigliptin

>  <CAS_NUMBER>
1226781-44-7

>  <UNII>
CVP59Q4JE1

>  <SYNONYMS>
Omarigliptin

$$$$
