
 OpenBabel10282417173D

  3  2  0  0  0  0  0  0  0  0999 V2000
    1.0622   -0.0770   -0.0281 O   0  0  0  0  0  0  0  0  0  0  0  0
    0.7833    0.6923    0.4910 H   0  0  0  0  0  0  0  0  0  0  0  0
    2.0301   -0.0385   -0.0021 H   0  0  0  0  0  0  0  0  0  0  0  0
  1  2  1  0  0  0  0
  1  3  1  0  0  0  0
M  END
>  <DRUGBANK_ID>
DB09145

>  <COMMON_NAME>
Water

>  <CAS_NUMBER>
7732-18-5

>  <UNII>
059QF0KO0R

>  <SYNONYMS>
agua; Dihydrogen oxide; Purified water; Sterile water; Water purified

$$$$
