
 OpenBabel10282417243D

 44 46  0  0  0  0  0  0  0  0999 V2000
    1.0812   -0.0177   -0.0124 C   0  0  0  0  0  0  0  0  0  0  0  0
    0.6521   -0.2718    1.3255 O   0  0  0  0  0  0  0  0  0  0  0  0
    0.9957   -1.5371    1.7099 C   0  0  0  0  0  0  0  0  0  0  0  0
    2.3107   -1.9907    1.7153 C   0  0  0  0  0  0  0  0  0  0  0  0
    2.5865   -3.2930    2.1299 C   0  0  0  0  0  0  0  0  0  0  0  0
    1.5433   -4.1720    2.4751 C   0  0  0  0  0  0  0  0  0  0  0  0
    2.0133   -5.3308    3.0427 O   0  0  0  0  0  0  0  0  0  0  0  0
    1.1452   -6.1527    3.8378 C   0  0  0  0  0  0  0  0  0  0  0  0
    0.5075   -5.5194    5.0697 C   0  0  0  0  0  0  0  0  0  0  0  0
   -0.1053   -6.3189    6.0445 C   0  0  0  0  0  0  0  0  0  0  0  0
   -0.5913   -5.7405    7.2283 C   0  0  0  0  0  0  0  0  0  0  0  0
   -0.5162   -4.3519    7.4253 C   0  0  0  0  0  0  0  0  0  0  0  0
   -0.6984   -3.7113    8.7696 C   0  0  0  0  0  0  0  0  0  0  0  0
    0.5138   -3.0255    9.1768 O   0  0  0  0  0  0  0  0  0  0  0  0
    1.5365   -3.7903    9.6872 C   0  0  0  0  0  0  0  0  0  0  0  0
    2.3625   -4.6677    8.9625 C   0  0  0  0  0  0  0  0  0  0  0  0
    2.6624   -4.6477    7.2731 Cl  0  0  0  0  0  0  0  0  0  0  0  0
    3.3623   -5.4300    9.5593 C   0  0  0  0  0  0  0  0  0  0  0  0
    3.7616   -5.1395   10.8528 C   0  0  0  0  0  0  0  0  0  0  0  0
    3.0774   -4.1605   11.5519 C   0  0  0  0  0  0  0  0  0  0  0  0
    1.9570   -3.5163   11.0039 C   0  0  0  0  0  0  0  0  0  0  0  0
    1.1857   -2.3088   11.9727 Cl  0  0  0  0  0  0  0  0  0  0  0  0
   -0.0287   -3.5375    6.4114 C   0  0  0  0  0  0  0  0  0  0  0  0
    0.5301   -4.1290    5.2937 C   0  0  0  0  0  0  0  0  0  0  0  0
    0.2111   -3.7170    2.3697 C   0  0  0  0  0  0  0  0  0  0  0  0
   -1.2255   -4.6647    2.5827 Cl  0  0  0  0  0  0  0  0  0  0  0  0
   -0.0376   -2.3704    2.1076 C   0  0  0  0  0  0  0  0  0  0  0  0
    0.6746    0.9492   -0.3180 H   0  0  0  0  0  0  0  0  0  0  0  0
    0.7050   -0.7817   -0.7043 H   0  0  0  0  0  0  0  0  0  0  0  0
    2.1718    0.0445   -0.0697 H   0  0  0  0  0  0  0  0  0  0  0  0
    3.1267   -1.3292    1.4413 H   0  0  0  0  0  0  0  0  0  0  0  0
    3.6257   -3.6066    2.2233 H   0  0  0  0  0  0  0  0  0  0  0  0
    0.4044   -6.6116    3.1781 H   0  0  0  0  0  0  0  0  0  0  0  0
    1.7702   -6.9886    4.1826 H   0  0  0  0  0  0  0  0  0  0  0  0
   -0.1206   -7.4019    5.9383 H   0  0  0  0  0  0  0  0  0  0  0  0
   -0.9277   -6.3874    8.0339 H   0  0  0  0  0  0  0  0  0  0  0  0
   -1.4781   -2.9425    8.6482 H   0  0  0  0  0  0  0  0  0  0  0  0
   -1.0661   -4.4063    9.5316 H   0  0  0  0  0  0  0  0  0  0  0  0
    3.9339   -6.1339    8.9639 H   0  0  0  0  0  0  0  0  0  0  0  0
    4.6472   -5.6260   11.2374 H   0  0  0  0  0  0  0  0  0  0  0  0
    3.4470   -3.8814   12.5400 H   0  0  0  0  0  0  0  0  0  0  0  0
    0.1496   -2.4752    6.5773 H   0  0  0  0  0  0  0  0  0  0  0  0
    1.1209   -3.4551    4.6880 H   0  0  0  0  0  0  0  0  0  0  0  0
   -1.0456   -1.9758    2.2006 H   0  0  0  0  0  0  0  0  0  0  0  0
  1  2  1  0  0  0  0
  1 28  1  0  0  0  0
  1 29  1  0  0  0  0
  1 30  1  0  0  0  0
  2  3  1  0  0  0  0
  3  4  2  0  0  0  0
  3 27  1  0  0  0  0
  4  5  1  0  0  0  0
  4 31  1  0  0  0  0
  5  6  2  0  0  0  0
  5 32  1  0  0  0  0
  6  7  1  0  0  0  0
  6 25  1  0  0  0  0
  7  8  1  0  0  0  0
  8  9  1  0  0  0  0
  8 33  1  0  0  0  0
  8 34  1  0  0  0  0
  9 10  2  0  0  0  0
  9 24  1  0  0  0  0
 10 11  1  0  0  0  0
 10 35  1  0  0  0  0
 11 12  2  0  0  0  0
 11 36  1  0  0  0  0
 12 13  1  0  0  0  0
 12 23  1  0  0  0  0
 13 14  1  0  0  0  0
 13 37  1  0  0  0  0
 13 38  1  0  0  0  0
 14 15  1  0  0  0  0
 15 16  2  0  0  0  0
 15 21  1  0  0  0  0
 16 17  1  0  0  0  0
 16 18  1  0  0  0  0
 18 19  2  0  0  0  0
 18 39  1  0  0  0  0
 19 20  1  0  0  0  0
 19 40  1  0  0  0  0
 20 21  2  0  0  0  0
 20 41  1  0  0  0  0
 21 22  1  0  0  0  0
 23 24  2  0  0  0  0
 23 42  1  0  0  0  0
 24 43  1  0  0  0  0
 25 26  1  0  0  0  0
 25 27  2  0  0  0  0
 27 44  1  0  0  0  0
M  END
>  <DRUGBANK_ID>
DB17736

>  <COMMON_NAME>
Pocapavir

>  <CAS_NUMBER>
146949-21-5

>  <UNII>
4ILA3VOV97

>  <SYNONYMS>
1-((2-chloro-4-methoxyphenoxy)methyl)-4-((2,6-dichlorophenoxy)methyl)benzene; 1-[(2-Chloro-4-methoxyphenoxy)methyl]-4-[(2,6-dichlorophenoxy) methyl]benzene

$$$$
