
 OpenBabel10282417223D

114121  0  0  1  0  0  0  0  0999 V2000
    0.8349   -0.0129   -0.0606 C   0  0  0  0  0  0  0  0  0  0  0  0
   -0.1650    1.4472   -0.2751 O   0  0  0  0  0  0  0  0  0  0  0  0
   -1.9677    1.6834   -0.1421 C   0  0  0  0  0  0  0  0  0  0  0  0
   -3.8150    2.0714   -0.0467 C   0  0  0  0  0  0  0  0  0  0  0  0
   -5.1623    0.8805    0.1346 C   0  0  0  0  0  0  0  0  0  0  0  0
   -4.4217   -0.1984    0.5136 C   0  0  0  0  0  0  0  0  0  0  0  0
   -3.0341    0.0391    0.5794 C   0  0  0  0  0  0  0  0  0  0  0  0
   -2.3862    0.5835   -0.5313 C   0  0  0  0  0  0  0  0  0  0  0  0
   -4.8921   -1.4405    0.7435 N   0  0  0  0  0  0  0  0  0  0  0  0
   -6.2579   -1.6965    0.6535 C   0  0  0  0  0  0  0  0  0  0  0  0
   -6.6591   -3.1189    0.8113 C   0  0  0  0  0  0  0  0  0  0  0  0
   -6.1022   -3.7203    2.0175 C   0  0  0  0  0  0  0  0  0  0  0  0
   -7.2796   -4.3190    2.7274 C   0  0  0  0  0  0  0  0  0  0  0  0
   -7.4256   -5.7019    2.2034 C   0  0  0  0  0  0  0  0  0  0  0  0
   -8.2912   -6.5238    2.9771 C   0  0  0  0  0  0  0  0  0  0  0  0
   -9.3364   -7.2194    1.9563 C   0  0  2  0  0  0  0  0  0  0  0  0
   -9.9164   -8.6319    2.1816 C   0  0  0  0  0  0  0  0  0  0  0  0
   -8.8685   -8.6829    3.0844 C   0  0  0  0  0  0  0  0  0  0  0  0
  -10.3057   -7.0220    3.4592 C   0  0  0  0  0  0  0  0  0  0  0  0
  -10.5362   -6.4278    2.0157 C   0  0  1  0  0  0  0  0  0  0  0  0
  -11.6049   -6.9525    1.2023 O   0  0  0  0  0  0  0  0  0  0  0  0
  -12.4191   -5.9092    0.9827 C   0  0  0  0  0  0  0  0  0  0  0  0
  -12.7810   -5.5471    2.0678 O   0  0  0  0  0  0  0  0  0  0  0  0
  -12.0853   -4.9992    0.0145 N   0  0  0  0  0  0  0  0  0  0  0  0
  -12.8392   -3.7708    0.0054 C   0  0  1  0  0  0  0  0  0  0  0  0
  -12.6420   -3.1645    1.3146 C   0  0  0  0  0  0  0  0  0  0  0  0
  -13.2677   -3.5789    2.5286 C   0  0  0  0  0  0  0  0  0  0  0  0
  -14.6823   -3.9931    2.1062 C   0  0  0  0  0  0  0  0  0  0  0  0
  -15.4620   -2.8243    1.9394 C   0  0  0  0  0  0  0  0  0  0  0  0
  -15.0782   -2.2905    3.3566 C   0  0  0  0  0  0  0  0  0  0  0  0
  -15.5448   -2.9689    4.5264 C   0  0  0  0  0  0  0  0  0  0  0  0
  -16.0822   -2.2472    5.5127 C   0  0  0  0  0  0  0  0  0  0  0  0
  -17.0657   -3.0387    6.4285 C   0  0  2  0  0  0  0  0  0  0  0  0
  -17.0196   -2.3922    7.8113 C   0  0  0  0  0  0  0  0  0  0  0  0
  -18.2133   -2.0823    7.0400 C   0  0  1  0  0  0  0  0  0  0  0  0
  -17.9396   -2.2880    5.1647 N   0  0  0  0  0  0  0  0  0  0  0  0
  -16.6137   -1.6285    3.5641 C   0  0  0  0  0  0  0  0  0  0  0  0
  -17.8938   -1.5967    4.6138 O   0  0  0  0  0  0  0  0  0  0  0  0
  -14.3516   -1.0655    2.0775 C   0  0  2  0  0  0  0  0  0  0  0  0
  -12.3475   -0.4065    0.9418 C   0  0  0  0  0  0  0  0  0  0  0  0
  -10.3232   -0.6104   -0.1695 C   0  0  2  0  0  0  0  0  0  0  0  0
  -10.9824   -1.7977   -0.6490 C   0  0  0  0  0  0  0  0  0  0  0  0
  -12.8424   -1.4400    0.4303 N   0  0  0  0  0  0  0  0  0  0  0  0
  -12.4640   -2.7588   -0.8978 C   0  0  0  0  0  0  0  0  0  0  0  0
  -11.8203   -3.4700   -1.8785 O   0  0  0  0  0  0  0  0  0  0  0  0
   -8.6170   -1.1605    0.3405 O   0  0  0  0  0  0  0  0  0  0  0  0
   -7.1979   -0.7552    0.3007 C   0  0  0  0  0  0  0  0  0  0  0  0
   -6.7191    0.5105    0.0800 N   0  0  0  0  0  0  0  0  0  0  0  0
  -19.2462   -0.9349    6.5452 C   0  0  0  0  0  0  0  0  0  0  0  0
  -19.3981    0.1551    7.0544 O   0  0  0  0  0  0  0  0  0  0  0  0
  -20.8531   -1.6225    6.4701 N   0  0  0  0  0  0  0  0  0  0  0  0
  -21.5421   -3.4478    6.9739 S   0  0  0  0  0  0  0  0  0  0  0  0
  -22.4519   -3.5286    8.1827 O   0  0  0  0  0  0  0  0  0  0  0  0
  -22.2390   -3.9916    5.8176 O   0  0  0  0  0  0  0  0  0  0  0  0
  -20.1055   -4.7278    7.2051 C   0  0  0  0  0  0  0  0  0  0  0  0
  -20.9834   -5.2857    8.1919 C   0  0  0  0  0  0  0  0  0  0  0  0
  -18.6393   -4.5812    7.5304 C   0  0  0  0  0  0  0  0  0  0  0  0
  -19.0504   -4.9754    6.1439 C   0  0  0  0  0  0  0  0  0  0  0  0
    0.5665   -0.7292   -0.8303 H   0  0  0  0  0  0  0  0  0  0  0  0
    0.5706   -0.3775    0.9182 H   0  0  0  0  0  0  0  0  0  0  0  0
    1.9925   -0.0106   -0.0665 H   0  0  0  0  0  0  0  0  0  0  0  0
   -5.0214    2.8973   -0.1536 H   0  0  0  0  0  0  0  0  0  0  0  0
   -2.4087   -0.2453    1.4288 H   0  0  0  0  0  0  0  0  0  0  0  0
   -2.9165    1.1668   -1.3611 H   0  0  0  0  0  0  0  0  0  0  0  0
   -7.6061   -3.5293    0.5523 H   0  0  0  0  0  0  0  0  0  0  0  0
   -6.1569   -3.2818   -0.1053 H   0  0  0  0  0  0  0  0  0  0  0  0
   -5.5152   -4.4859    2.5780 H   0  0  0  0  0  0  0  0  0  0  0  0
   -5.2689   -3.0656    1.8865 H   0  0  0  0  0  0  0  0  0  0  0  0
   -8.0197   -4.4010    3.5106 H   0  0  0  0  0  0  0  0  0  0  0  0
   -6.8209   -3.6142    3.4180 H   0  0  0  0  0  0  0  0  0  0  0  0
   -7.6365   -6.3722    1.3969 H   0  0  0  0  0  0  0  0  0  0  0  0
   -6.4851   -5.5430    1.7902 H   0  0  0  0  0  0  0  0  0  0  0  0
   -8.6163   -6.9939    3.9121 H   0  0  0  0  0  0  0  0  0  0  0  0
   -7.5079   -6.2192    3.6383 H   0  0  0  0  0  0  0  0  0  0  0  0
   -8.9715   -7.2517    0.9760 H   0  0  0  0  0  0  0  0  0  0  0  0
  -10.6061   -9.2710    2.7036 H   0  0  0  0  0  0  0  0  0  0  0  0
  -10.6642   -8.4230    2.9080 H   0  0  0  0  0  0  0  0  0  0  0  0
   -8.3559  -10.0809    2.5935 H   0  0  0  0  0  0  0  0  0  0  0  0
   -7.6340   -9.3781    2.4033 H   0  0  0  0  0  0  0  0  0  0  0  0
  -11.6142   -6.5699    4.0175 H   0  0  0  0  0  0  0  0  0  0  0  0
  -10.8825   -5.8197    4.1016 H   0  0  0  0  0  0  0  0  0  0  0  0
  -10.2781   -5.4236    1.6765 H   0  0  0  0  0  0  0  0  0  0  0  0
  -11.2109   -5.1245   -0.4874 H   0  0  0  0  0  0  0  0  0  0  0  0
  -13.8414   -3.9313   -0.2615 H   0  0  0  0  0  0  0  0  0  0  0  0
  -13.3314   -2.3636    1.5717 H   0  0  0  0  0  0  0  0  0  0  0  0
  -11.5624   -2.7486    1.2595 H   0  0  0  0  0  0  0  0  0  0  0  0
  -13.3987   -4.2357    3.3496 H   0  0  0  0  0  0  0  0  0  0  0  0
  -12.1555   -3.5943    2.6089 H   0  0  0  0  0  0  0  0  0  0  0  0
  -15.4613   -4.7518    2.1475 H   0  0  0  0  0  0  0  0  0  0  0  0
  -14.2799   -4.8765    1.8250 H   0  0  0  0  0  0  0  0  0  0  0  0
  -16.4181   -2.6486    1.4960 H   0  0  0  0  0  0  0  0  0  0  0  0
  -14.9739   -2.3099    1.1098 H   0  0  0  0  0  0  0  0  0  0  0  0
  -15.4513   -0.8492    3.3887 H   0  0  0  0  0  0  0  0  0  0  0  0
  -14.1619   -2.0573    3.6219 H   0  0  0  0  0  0  0  0  0  0  0  0
  -15.3633   -3.9089    4.6986 H   0  0  0  0  0  0  0  0  0  0  0  0
  -16.3092   -0.8441    5.0334 H   0  0  0  0  0  0  0  0  0  0  0  0
  -17.2418   -4.0088    5.8683 H   0  0  0  0  0  0  0  0  0  0  0  0
  -17.1569   -2.5757    8.8705 H   0  0  0  0  0  0  0  0  0  0  0  0
  -16.0541   -2.3424    8.1215 H   0  0  0  0  0  0  0  0  0  0  0  0
  -18.9281   -2.8394    6.4220 H   0  0  0  0  0  0  0  0  0  0  0  0
  -12.9255   -1.0066    2.3250 H   0  0  0  0  0  0  0  0  0  0  0  0
  -11.5977    0.5897   -0.1223 H   0  0  0  0  0  0  0  0  0  0  0  0
  -11.0337    0.3648    0.3182 H   0  0  0  0  0  0  0  0  0  0  0  0
   -9.0953   -0.5049   -1.3228 H   0  0  0  0  0  0  0  0  0  0  0  0
  -10.5248   -2.4748   -1.9707 H   0  0  0  0  0  0  0  0  0  0  0  0
   -9.5099   -2.0955   -1.3259 H   0  0  0  0  0  0  0  0  0  0  0  0
  -21.7366   -1.1192    6.8378 H   0  0  0  0  0  0  0  0  0  0  0  0
  -21.2372   -4.5390    8.9982 H   0  0  0  0  0  0  0  0  0  0  0  0
  -21.8997   -5.5547    7.6313 H   0  0  0  0  0  0  0  0  0  0  0  0
  -20.6158   -6.0754    8.7335 H   0  0  0  0  0  0  0  0  0  0  0  0
  -18.0307   -3.8299    7.9092 H   0  0  0  0  0  0  0  0  0  0  0  0
  -17.9518   -5.0260    8.2218 H   0  0  0  0  0  0  0  0  0  0  0  0
  -18.7810   -5.8714    5.6491 H   0  0  0  0  0  0  0  0  0  0  0  0
  -19.0046   -4.3385    5.2632 H   0  0  0  0  0  0  0  0  0  0  0  0
  1  2  1  0  0  0  0
  1 59  1  0  0  0  0
  1 60  1  0  0  0  0
  1 61  1  0  0  0  0
  2  3  1  0  0  0  0
  3  4  2  0  0  0  0
  3  8  1  0  0  0  0
  4  5  1  0  0  0  0
  4 62  1  0  0  0  0
  5  6  2  0  0  0  0
  5 48  1  0  0  0  0
  6  7  1  0  0  0  0
  6  9  1  0  0  0  0
  7  8  2  0  0  0  0
  7 63  1  0  0  0  0
  8 64  1  0  0  0  0
  9 10  2  0  0  0  0
 10 11  1  0  0  0  0
 10 47  1  0  0  0  0
 11 12  1  0  0  0  0
 11 65  1  0  0  0  0
 11 66  1  0  0  0  0
 12 13  1  0  0  0  0
 12 67  1  0  0  0  0
 12 68  1  0  0  0  0
 13 14  1  0  0  0  0
 13 69  1  0  0  0  0
 13 70  1  0  0  0  0
 14 15  1  0  0  0  0
 14 71  1  0  0  0  0
 14 72  1  0  0  0  0
 15 73  1  0  0  0  0
 15 74  1  0  0  0  0
 16 15  1  0  0  0  0
 16 17  1  0  0  0  0
 16 20  1  0  0  0  0
 16 75  1  1  0  0  0
 17 18  1  0  0  0  0
 17 76  1  0  0  0  0
 17 77  1  0  0  0  0
 18 19  1  0  0  0  0
 18 78  1  0  0  0  0
 18 79  1  0  0  0  0
 19 80  1  0  0  0  0
 19 81  1  0  0  0  0
 20 19  1  0  0  0  0
 20 21  1  0  0  0  0
 20 82  1  1  0  0  0
 21 22  1  0  0  0  0
 22 24  1  0  0  0  0
 22 23  2  0  0  0  0
 24 83  1  0  0  0  0
 25 24  1  0  0  0  0
 25 26  1  0  0  0  0
 25 44  1  0  0  0  0
 25 84  1  6  0  0  0
 26 27  1  0  0  0  0
 26 85  1  0  0  0  0
 26 86  1  0  0  0  0
 27 28  1  0  0  0  0
 27 87  1  0  0  0  0
 27 88  1  0  0  0  0
 28 29  1  0  0  0  0
 28 89  1  0  0  0  0
 28 90  1  0  0  0  0
 29 30  1  0  0  0  0
 29 91  1  0  0  0  0
 29 92  1  0  0  0  0
 30 31  1  0  0  0  0
 30 93  1  0  0  0  0
 30 94  1  0  0  0  0
 31 32  2  0  0  0  0
 31 95  1  0  0  0  0
 32 96  1  0  0  0  0
 33 32  1  0  0  0  0
 33 34  1  0  0  0  0
 33 35  1  0  0  0  0
 33 97  1  1  0  0  0
 34 98  1  0  0  0  0
 34 99  1  0  0  0  0
 35 34  1  0  0  0  0
 35 36  1  0  0  0  0
 35 49  1  1  0  0  0
 36 37  1  0  0  0  0
 36100  1  0  0  0  0
 37 38  2  0  0  0  0
 39 37  1  0  0  0  0
 39 40  1  0  0  0  0
 39 43  1  0  0  0  0
 39101  1  1  0  0  0
 40102  1  0  0  0  0
 40103  1  0  0  0  0
 41 40  1  0  0  0  0
 41 42  1  0  0  0  0
 41 46  1  0  0  0  0
 41104  1  6  0  0  0
 42 43  1  0  0  0  0
 42105  1  0  0  0  0
 42106  1  0  0  0  0
 43 44  1  0  0  0  0
 44 45  2  0  0  0  0
 46 47  1  0  0  0  0
 47 48  2  0  0  0  0
 49 50  2  0  0  0  0
 49 51  1  0  0  0  0
 51 52  1  0  0  0  0
 51107  1  0  0  0  0
 52 53  2  0  0  0  0
 52 54  2  0  0  0  0
 52 55  1  0  0  0  0
 55 56  1  0  0  0  0
 55 57  1  0  0  0  0
 55 58  1  0  0  0  0
 56108  1  0  0  0  0
 56109  1  0  0  0  0
 56110  1  0  0  0  0
 57 58  1  0  0  0  0
 57111  1  0  0  0  0
 57112  1  0  0  0  0
 58113  1  0  0  0  0
 58114  1  0  0  0  0
M  END
>  <DRUGBANK_ID>
DB15249

>  <COMMON_NAME>
MK-6325

>  <CAS_NUMBER>
1263814-52-3

>  <UNII>
59LD48P07K

$$$$
