
 OpenBabel10282417223D

  9  8  0  0  0  0  0  0  0  0999 V2000
    0.8624   -0.0017    0.0943 O   0  0  0  0  0  0  0  0  0  0  0  0
    0.2858    1.1337    0.5372 C   0  0  0  0  0  0  0  0  0  0  0  0
    0.9743    2.0551    0.9522 O   0  0  0  0  0  0  0  0  0  0  0  0
   -1.2209    1.1038    0.5184 C   0  0  0  0  0  0  0  0  0  0  0  0
   -1.8826    0.8542   -1.1548 S   0  0  0  0  0  0  0  0  0  0  0  0
    1.8280    0.1493    0.1663 H   0  0  0  0  0  0  0  0  0  0  0  0
   -1.5675    0.3048    1.1799 H   0  0  0  0  0  0  0  0  0  0  0  0
   -1.5964    2.0539    0.9117 H   0  0  0  0  0  0  0  0  0  0  0  0
   -1.3466    1.9460   -1.7209 H   0  0  0  0  0  0  0  0  0  0  0  0
  1  2  1  0  0  0  0
  1  6  1  0  0  0  0
  2  3  2  0  0  0  0
  2  4  1  0  0  0  0
  4  5  1  0  0  0  0
  4  7  1  0  0  0  0
  4  8  1  0  0  0  0
  5  9  1  0  0  0  0
M  END
>  <DRUGBANK_ID>
DB15429

>  <COMMON_NAME>
Thioglycolic acid

>  <CAS_NUMBER>
68-11-1

>  <UNII>
7857H94KHM

$$$$
