
 OpenBabel10282417123D

 19 18  0  0  1  0  0  0  0  0999 V2000
    3.3111   -0.1158   -4.5535 C   0  0  0  0  0  0  0  0  0  0  0  0
    2.2692   -0.3349   -3.4907 C   0  0  0  0  0  0  0  0  0  0  0  0
    2.6371    0.1906   -2.2343 O   0  0  0  0  0  0  0  0  0  0  0  0
    2.6533    1.7396   -1.7388 P   0  0  2  0  0  0  0  0  0  0  0  0
    0.9233    1.7396   -1.7388 O   0  0  0  0  0  0  0  0  0  0  0  0
    2.4243    2.8759   -2.7305 O   0  0  0  0  0  0  0  0  0  0  0  0
    4.3833    1.7396   -1.7388 O   0  0  0  0  0  0  0  0  0  0  0  0
    4.9600    2.8930   -2.8922 P   0  0  0  0  0  0  0  0  0  0  0  0
    6.1536    1.8037   -3.1692 O   0  0  0  0  0  0  0  0  0  0  0  0
    4.0288    2.3548   -4.0856 O   0  0  0  0  0  0  0  0  0  0  0  0
    5.4761    3.9252   -3.9244 O   0  0  0  0  0  0  0  0  0  0  0  0
    3.1515    0.8799   -4.9342 H   0  0  0  0  0  0  0  0  0  0  0  0
    3.1682   -0.7047   -5.4571 H   0  0  0  0  0  0  0  0  0  0  0  0
    4.3313   -0.2354   -4.1693 H   0  0  0  0  0  0  0  0  0  0  0  0
    1.3056    0.0653   -3.8086 H   0  0  0  0  0  0  0  0  0  0  0  0
    2.1518   -1.4153   -3.3582 H   0  0  0  0  0  0  0  0  0  0  0  0
    0.6224    1.6238   -2.6557 H   0  0  0  0  0  0  0  0  0  0  0  0
    7.0350    2.1374   -2.9073 H   0  0  0  0  0  0  0  0  0  0  0  0
    3.2142    2.9188   -4.0472 H   0  0  0  0  0  0  0  0  0  0  0  0
  1  2  1  0  0  0  0
  1 12  1  0  0  0  0
  1 13  1  0  0  0  0
  1 14  1  0  0  0  0
  2  3  1  0  0  0  0
  2 15  1  0  0  0  0
  2 16  1  0  0  0  0
  4  6  2  6  0  0  0
  4  7  1  0  0  0  0
  4  5  1  0  0  0  0
  4  3  1  0  0  0  0
  5 17  1  0  0  0  0
  7  8  1  0  0  0  0
  8  9  1  0  0  0  0
  8 10  1  0  0  0  0
  8 11  2  0  0  0  0
  9 18  1  0  0  0  0
 10 19  1  0  0  0  0
M  END
>  <DRUGBANK_ID>
DB01798

>  <SECONDARY_ACCESSION_NUMBERS>
EXPT02470

>  <COMMON_NAME>
Ethyl Dihydrogen Diphosphate

$$$$
