
 OpenBabel10282417103D

 55 57  0  0  0  0  0  0  0  0999 V2000
   -1.0870    0.7521    0.2070 C   0  0  0  0  0  0  0  0  0  0  0  0
   -1.1128   -0.7086   -0.1737 C   0  0  0  0  0  0  0  0  0  0  0  0
    0.3040   -1.1534    0.1164 C   0  0  0  0  0  0  0  0  0  0  0  0
    1.1524    0.0012    0.0341 O   0  0  0  0  0  0  0  0  0  0  0  0
    0.3357    1.1648   -0.1365 C   0  0  3  0  0  0  0  0  0  0  0  0
    0.3860    1.6609   -1.5937 C   0  0  0  0  0  0  0  0  0  0  0  0
    0.7428    2.9857   -1.7536 N   0  0  0  0  0  0  0  0  0  0  0  0
    0.8075    3.5579   -3.0844 C   0  0  0  0  0  0  0  0  0  0  0  0
    0.1294    4.9216   -3.1650 C   0  0  0  0  0  0  0  0  0  0  0  0
    0.6774    6.0002   -2.2141 C   0  0  0  0  0  0  0  0  0  0  0  0
    2.0286    6.4010   -2.5839 N   0  0  0  0  0  0  0  0  0  0  0  0
    2.3364    7.7245   -2.8245 C   0  0  0  0  0  0  0  0  0  0  0  0
    3.5961    9.2553   -4.0246 C   0  0  0  0  0  0  0  0  0  0  0  0
    3.2485    7.9830   -3.7804 N   0  0  0  0  0  0  0  0  0  0  0  0
    1.7581    8.6801   -2.0871 N   0  0  0  0  0  0  0  0  0  0  0  0
    2.1502    9.9467   -2.2950 C   0  0  0  0  0  0  0  0  0  0  0  0
    3.0775   10.3071   -3.2780 C   0  0  0  0  0  0  0  0  0  0  0  0
    3.5006   11.6350   -3.5333 C   0  0  0  0  0  0  0  0  0  0  0  0
    4.4154   11.9373   -4.5378 C   0  0  0  0  0  0  0  0  0  0  0  0
    4.9234   10.8866   -5.3130 C   0  0  0  0  0  0  0  0  0  0  0  0
    4.5044    9.5666   -5.0404 C   0  0  0  0  0  0  0  0  0  0  0  0
    5.8231   10.9850   -6.3503 O   0  0  0  0  0  0  0  0  0  0  0  0
    4.8314   13.2109   -4.7960 O   0  0  0  0  0  0  0  0  0  0  0  0
    0.0819    0.9470   -2.5402 O   0  0  0  0  0  0  0  0  0  0  0  0
    1.5227   10.8930   -1.5060 N   0  0  0  0  0  0  0  0  0  0  0  0
    6.3026   12.2861   -6.6848 C   0  0  0  0  0  0  0  0  0  0  0  0
    4.3346   14.2936   -4.0275 C   0  0  0  0  0  0  0  0  0  0  0  0
    3.1681    5.5207   -2.4272 C   0  0  0  0  0  0  0  0  0  0  0  0
   -1.8542    1.3381   -0.3087 H   0  0  0  0  0  0  0  0  0  0  0  0
   -1.2517    0.8475    1.2861 H   0  0  0  0  0  0  0  0  0  0  0  0
   -1.3317   -0.8230   -1.2418 H   0  0  0  0  0  0  0  0  0  0  0  0
   -1.8592   -1.2875    0.3768 H   0  0  0  0  0  0  0  0  0  0  0  0
    0.3877   -1.5530    1.1321 H   0  0  0  0  0  0  0  0  0  0  0  0
    0.6520   -1.9184   -0.5842 H   0  0  0  0  0  0  0  0  0  0  0  0
    0.6961    1.9446    0.5431 H   0  0  0  0  0  0  0  0  0  0  0  0
    1.1820    3.4772   -0.9842 H   0  0  0  0  0  0  0  0  0  0  0  0
    1.8506    3.5709   -3.3861 H   0  0  0  0  0  0  0  0  0  0  0  0
    0.3386    2.8874   -3.8111 H   0  0  0  0  0  0  0  0  0  0  0  0
    0.1859    5.2854   -4.1985 H   0  0  0  0  0  0  0  0  0  0  0  0
   -0.9365    4.7704   -2.9461 H   0  0  0  0  0  0  0  0  0  0  0  0
   -0.0192    6.8489   -2.2725 H   0  0  0  0  0  0  0  0  0  0  0  0
    0.6327    5.6549   -1.1740 H   0  0  0  0  0  0  0  0  0  0  0  0
    3.0979   12.4334   -2.9260 H   0  0  0  0  0  0  0  0  0  0  0  0
    4.9007    8.7506   -5.6445 H   0  0  0  0  0  0  0  0  0  0  0  0
    1.8069   11.8559   -1.4760 H   0  0  0  0  0  0  0  0  0  0  0  0
    0.9218   10.5270   -0.7820 H   0  0  0  0  0  0  0  0  0  0  0  0
    5.4836   12.9320   -7.0228 H   0  0  0  0  0  0  0  0  0  0  0  0
    6.8589   12.7262   -5.8488 H   0  0  0  0  0  0  0  0  0  0  0  0
    7.0033   12.2055   -7.5196 H   0  0  0  0  0  0  0  0  0  0  0  0
    3.2520   14.3967   -4.1461 H   0  0  0  0  0  0  0  0  0  0  0  0
    4.6188   14.1921   -2.9760 H   0  0  0  0  0  0  0  0  0  0  0  0
    4.7999   15.2068   -4.4116 H   0  0  0  0  0  0  0  0  0  0  0  0
    3.0994    4.9528   -1.4914 H   0  0  0  0  0  0  0  0  0  0  0  0
    3.2285    4.8279   -3.2661 H   0  0  0  0  0  0  0  0  0  0  0  0
    4.1350    6.0329   -2.4252 H   0  0  0  0  0  0  0  0  0  0  0  0
  1  2  1  0  0  0  0
  1  5  1  0  0  0  0
  1 29  1  0  0  0  0
  1 30  1  0  0  0  0
  2  3  1  0  0  0  0
  2 31  1  0  0  0  0
  2 32  1  0  0  0  0
  3  4  1  0  0  0  0
  3 33  1  0  0  0  0
  3 34  1  0  0  0  0
  4  5  1  0  0  0  0
  5  6  1  0  0  0  0
  5 35  1  0  0  0  0
  6  7  1  0  0  0  0
  6 24  2  0  0  0  0
  7  8  1  0  0  0  0
  7 36  1  0  0  0  0
  8  9  1  0  0  0  0
  8 37  1  0  0  0  0
  8 38  1  0  0  0  0
  9 10  1  0  0  0  0
  9 39  1  0  0  0  0
  9 40  1  0  0  0  0
 10 11  1  0  0  0  0
 10 41  1  0  0  0  0
 10 42  1  0  0  0  0
 11 12  1  0  0  0  0
 11 28  1  0  0  0  0
 12 15  1  0  0  0  0
 13 14  1  0  0  0  0
 13 17  2  0  0  0  0
 13 21  1  0  0  0  0
 14 12  2  0  0  0  0
 15 16  2  0  0  0  0
 16 17  1  0  0  0  0
 16 25  1  0  0  0  0
 17 18  1  0  0  0  0
 18 19  2  0  0  0  0
 18 43  1  0  0  0  0
 19 20  1  0  0  0  0
 19 23  1  0  0  0  0
 20 21  2  0  0  0  0
 20 22  1  0  0  0  0
 21 44  1  0  0  0  0
 22 26  1  0  0  0  0
 23 27  1  0  0  0  0
 25 45  1  0  0  0  0
 25 46  1  0  0  0  0
 26 47  1  0  0  0  0
 26 48  1  0  0  0  0
 26 49  1  0  0  0  0
 27 50  1  0  0  0  0
 27 51  1  0  0  0  0
 27 52  1  0  0  0  0
 28 53  1  0  0  0  0
 28 54  1  0  0  0  0
 28 55  1  0  0  0  0
M  END
>  <DRUGBANK_ID>
DB00346

>  <SECONDARY_ACCESSION_NUMBERS>
APRD00490

>  <COMMON_NAME>
Alfuzosin

>  <CAS_NUMBER>
81403-80-7

>  <UNII>
90347YTW5F

>  <SYNONYMS>
(Â±)-N-[3-[(4-amino-6,7-dimethoxy-2-quinazolinyl)methylamino]propyl]tetrahydro-2-furamide; Alfuzosin; Alfuzosina; Alfuzosine; Alfuzosinum; N-[3-[(4-amino-6,7-dimethoxy-quinazolin-2-yl)- methyl-amino]propyl] tetrahydrofuran- 2-carboxamide

$$$$
