
 OpenBabel10282417213D

 29 28  0  0  0  0  0  0  0  0999 V2000
    0.4859    0.0358    1.2495 C   0  0  0  0  0  0  0  0  0  0  0  0
    2.0473   -0.3568   -0.9690 C   0  0  0  0  0  0  0  0  0  0  0  0
    0.7569    2.4800   -0.2869 C   0  0  0  0  0  0  0  0  0  0  0  0
   -0.6755   -0.3308   -1.7704 C   0  0  0  0  0  0  0  0  0  0  0  0
    0.5062    2.3722   -1.8702 C   0  0  0  0  0  0  0  0  0  0  0  0
   -1.3541    1.0550   -1.6296 C   0  0  0  0  0  0  0  0  0  0  0  0
    0.2243    1.5460    1.0150 C   0  0  3  0  0  0  0  0  0  0  0  0
    0.8914   -0.6540   -1.9706 C   0  0  3  0  0  0  0  0  0  0  0  0
   -1.1746    1.6845    1.3066 O   0  0  0  0  0  0  0  0  0  0  0  0
    0.9498   -2.0959   -2.0913 O   0  0  0  0  0  0  0  0  0  0  0  0
   -0.7919    2.0973   -2.3708 O   0  0  0  0  0  0  0  0  0  0  0  0
    0.2342   -0.5489    0.3810 H   0  0  0  0  0  0  0  0  0  0  0  0
   -0.1755   -0.4521    1.9784 H   0  0  0  0  0  0  0  0  0  0  0  0
    1.5125   -0.1744    1.5627 H   0  0  0  0  0  0  0  0  0  0  0  0
    2.1875   -1.1616   -0.2343 H   0  0  0  0  0  0  0  0  0  0  0  0
    3.0376   -0.2236   -1.4181 H   0  0  0  0  0  0  0  0  0  0  0  0
    1.9370    0.5716   -0.4419 H   0  0  0  0  0  0  0  0  0  0  0  0
    0.4285    3.4988   -0.0489 H   0  0  0  0  0  0  0  0  0  0  0  0
    1.8557    2.5235   -0.2210 H   0  0  0  0  0  0  0  0  0  0  0  0
   -1.1055   -0.9705   -0.9879 H   0  0  0  0  0  0  0  0  0  0  0  0
   -1.1404   -0.7342   -2.6787 H   0  0  0  0  0  0  0  0  0  0  0  0
    0.8312    3.2916   -2.3799 H   0  0  0  0  0  0  0  0  0  0  0  0
    1.1668    1.6465   -2.3330 H   0  0  0  0  0  0  0  0  0  0  0  0
   -1.3426    1.4555   -0.6512 H   0  0  0  0  0  0  0  0  0  0  0  0
   -2.4445    1.0006   -1.7678 H   0  0  0  0  0  0  0  0  0  0  0  0
    0.7182    2.0239    1.8667 H   0  0  0  0  0  0  0  0  0  0  0  0
    1.2037   -0.2492   -2.9292 H   0  0  0  0  0  0  0  0  0  0  0  0
   -1.6178    0.8513    1.0378 H   0  0  0  0  0  0  0  0  0  0  0  0
    0.7785   -2.4593   -1.2348 H   0  0  0  0  0  0  0  0  0  0  0  0
  1 12  1  0  0  0  0
  1 13  1  0  0  0  0
  1 14  1  0  0  0  0
  2 15  1  0  0  0  0
  2 16  1  0  0  0  0
  2 17  1  0  0  0  0
  3 18  1  0  0  0  0
  3 19  1  0  0  0  0
  4 20  1  0  0  0  0
  4 21  1  0  0  0  0
  5  3  1  0  0  0  0
  5 22  1  0  0  0  0
  5 23  1  0  0  0  0
  6  4  1  0  0  0  0
  6 24  1  0  0  0  0
  6 25  1  0  0  0  0
  7  1  1  0  0  0  0
  7  3  1  0  0  0  0
  7 26  1  0  0  0  0
  8  2  1  0  0  0  0
  8  4  1  0  0  0  0
  8 27  1  0  0  0  0
  9  7  1  0  0  0  0
  9 28  1  0  0  0  0
 10  8  1  0  0  0  0
 10 29  1  0  0  0  0
 11  5  1  0  0  0  0
 11  6  1  0  0  0  0
M  END
>  <DRUGBANK_ID>
DB14079

>  <COMMON_NAME>
Hydroxybutyloxide

>  <CAS_NUMBER>
821-33-0

>  <UNII>
CR6X2Y7NRR

>  <SYNONYMS>
4,4'-Oxydi-2-butanol; bis(3-hydroxybutyl) ether; Colenormol; Dihydroxydibutylether; Diskin; Dyskinebyl

$$$$
