CHD
 OpenBabel10282417123D

 69 72  0  0  0  0  0  0  0  0999 V2000
   -2.4737    1.5628    0.9887 C   0  0  0  0  0  0  0  0  0  0  0  0
   -3.0894    1.5670   -0.4047 C   0  0  0  0  0  0  0  0  0  0  0  0
   -3.8600    0.2774   -0.6561 C   0  0  1  0  0  0  0  0  0  0  0  0
   -4.3536    0.2740   -1.9926 O   0  0  0  0  0  0  0  0  0  0  0  0
   -2.9658   -0.9366   -0.4579 C   0  0  0  0  0  0  0  0  0  0  0  0
   -2.2573   -0.9636    0.9106 C   0  0  1  0  0  0  0  0  0  0  0  0
   -1.3428   -2.2005    1.0327 C   0  0  0  0  0  0  0  0  0  0  0  0
   -0.0245   -2.1032    0.2734 C   0  0  1  0  0  0  0  0  0  0  0  0
   -0.2118   -2.3227   -1.1185 O   0  0  0  0  0  0  0  0  0  0  0  0
    0.6964   -0.7838    0.5593 C   0  0  2  0  0  0  0  0  0  0  0  0
   -0.2130    0.4683    0.3726 C   0  0  1  0  0  0  0  0  0  0  0  0
   -1.5111    0.3690    1.2441 C   0  0  1  0  0  0  0  0  0  0  0  0
    0.5672    1.7925    0.5827 C   0  0  0  0  0  0  0  0  0  0  0  0
    1.9019    1.8538   -0.1701 C   0  0  2  0  0  0  0  0  0  0  0  0
    1.6514    2.0427   -1.5720 O   0  0  0  0  0  0  0  0  0  0  0  0
    2.7803    0.5995    0.1250 C   0  0  1  0  0  0  0  0  0  0  0  0
    1.9389   -0.6245   -0.3123 C   0  0  1  0  0  0  0  0  0  0  0  0
    2.9281   -1.7703   -0.3301 C   0  0  0  0  0  0  0  0  0  0  0  0
    4.1674   -1.1413   -0.9554 C   0  0  0  0  0  0  0  0  0  0  0  0
    4.0313    0.4157   -0.7842 C   0  0  2  0  0  0  0  0  0  0  0  0
    3.1578    0.4739    1.6428 C   0  0  0  0  0  0  0  0  0  0  0  0
   -1.1675    0.3990    2.7583 C   0  0  0  0  0  0  0  0  0  0  0  0
    5.3412    1.1760   -0.3841 C   0  0  2  0  0  0  0  0  0  0  0  0
    6.3941    0.2192    0.1876 C   0  0  0  0  0  0  0  0  0  0  0  0
    5.1987    2.4206    0.5378 C   0  0  0  0  0  0  0  0  0  0  0  0
    5.4196    3.7703   -0.1138 C   0  0  0  0  0  0  0  0  0  0  0  0
    3.4467    4.9535   -0.8759 O   0  0  0  0  0  0  0  0  0  0  0  0
    4.2933    4.1055   -1.0604 C   0  0  0  0  0  0  0  0  0  0  0  0
    4.2495    3.2853   -2.1287 O   0  0  0  0  0  0  0  0  0  0  0  0
   -4.7227    0.2143    0.0149 H   0  0  0  0  0  0  0  0  0  0  0  0
   -3.0525   -1.0910    1.6587 H   0  0  0  0  0  0  0  0  0  0  0  0
    0.6151   -2.9282    0.6070 H   0  0  0  0  0  0  0  0  0  0  0  0
    1.0030   -0.8371    1.6088 H   0  0  0  0  0  0  0  0  0  0  0  0
   -0.5178    0.4776   -0.6805 H   0  0  0  0  0  0  0  0  0  0  0  0
    2.3910    2.7706    0.1501 H   0  0  0  0  0  0  0  0  0  0  0  0
    1.6110   -0.5102   -1.3544 H   0  0  0  0  0  0  0  0  0  0  0  0
    3.7662    0.7734   -1.7929 H   0  0  0  0  0  0  0  0  0  0  0  0
    5.7818    1.5359   -1.3235 H   0  0  0  0  0  0  0  0  0  0  0  0
   -1.9717    2.5195    1.1667 H   0  0  0  0  0  0  0  0  0  0  0  0
   -3.2924    1.5233    1.7194 H   0  0  0  0  0  0  0  0  0  0  0  0
   -2.3180    1.7095   -1.1720 H   0  0  0  0  0  0  0  0  0  0  0  0
   -3.7651    2.4229   -0.5133 H   0  0  0  0  0  0  0  0  0  0  0  0
   -3.5959    0.3248   -2.6007 H   0  0  0  0  0  0  0  0  0  0  0  0
   -3.5491   -1.8556   -0.5928 H   0  0  0  0  0  0  0  0  0  0  0  0
   -2.2606   -0.9291   -1.2861 H   0  0  0  0  0  0  0  0  0  0  0  0
   -1.1060   -2.3529    2.0933 H   0  0  0  0  0  0  0  0  0  0  0  0
   -1.8856   -3.0928    0.7034 H   0  0  0  0  0  0  0  0  0  0  0  0
   -0.5825   -1.5265   -1.5219 H   0  0  0  0  0  0  0  0  0  0  0  0
   -0.0478    2.6377    0.2546 H   0  0  0  0  0  0  0  0  0  0  0  0
    0.7729    1.9524    1.6444 H   0  0  0  0  0  0  0  0  0  0  0  0
    1.1119    1.3051   -1.9014 H   0  0  0  0  0  0  0  0  0  0  0  0
    3.1448   -2.1319    0.6814 H   0  0  0  0  0  0  0  0  0  0  0  0
    2.5837   -2.6295   -0.9099 H   0  0  0  0  0  0  0  0  0  0  0  0
    5.0240   -1.6180   -0.4849 H   0  0  0  0  0  0  0  0  0  0  0  0
    4.2496   -1.3958   -2.0182 H   0  0  0  0  0  0  0  0  0  0  0  0
    3.6076   -0.4933    1.8667 H   0  0  0  0  0  0  0  0  0  0  0  0
    3.8912    1.1705    2.0352 H   0  0  0  0  0  0  0  0  0  0  0  0
    2.3038    0.6276    2.3014 H   0  0  0  0  0  0  0  0  0  0  0  0
   -0.5040   -0.4141    3.0628 H   0  0  0  0  0  0  0  0  0  0  0  0
   -0.6867    1.3379    3.0498 H   0  0  0  0  0  0  0  0  0  0  0  0
   -2.0759    0.3100    3.3641 H   0  0  0  0  0  0  0  0  0  0  0  0
    7.1236    0.7158    0.8262 H   0  0  0  0  0  0  0  0  0  0  0  0
    5.9543   -0.5650    0.8093 H   0  0  0  0  0  0  0  0  0  0  0  0
    6.9355   -0.2433   -0.6468 H   0  0  0  0  0  0  0  0  0  0  0  0
    4.2102    2.5431    0.9609 H   0  0  0  0  0  0  0  0  0  0  0  0
    5.8700    2.3231    1.4007 H   0  0  0  0  0  0  0  0  0  0  0  0
    5.3843    4.5165    0.6923 H   0  0  0  0  0  0  0  0  0  0  0  0
    6.3923    3.8418   -0.5963 H   0  0  0  0  0  0  0  0  0  0  0  0
    3.3405    3.3786   -2.4931 H   0  0  0  0  0  0  0  0  0  0  0  0
  1  2  1  0  0  0  0
  1 12  1  0  0  0  0
  1 39  1  0  0  0  0
  1 40  1  0  0  0  0
  2  3  1  0  0  0  0
  2 41  1  0  0  0  0
  2 42  1  0  0  0  0
  3  4  1  0  0  0  0
  3  5  1  0  0  0  0
  3 30  1  1  0  0  0
  4 43  1  0  0  0  0
  5  6  1  0  0  0  0
  5 44  1  0  0  0  0
  5 45  1  0  0  0  0
  6  7  1  0  0  0  0
  6 12  1  0  0  0  0
  6 31  1  1  0  0  0
  7  8  1  0  0  0  0
  7 46  1  0  0  0  0
  7 47  1  0  0  0  0
  8  9  1  0  0  0  0
  8 10  1  0  0  0  0
  8 32  1  1  0  0  0
  9 48  1  0  0  0  0
 10 11  1  0  0  0  0
 10 17  1  0  0  0  0
 10 33  1  1  0  0  0
 11 12  1  0  0  0  0
 11 13  1  0  0  0  0
 11 34  1  6  0  0  0
 12 22  1  1  0  0  0
 13 14  1  0  0  0  0
 13 49  1  0  0  0  0
 13 50  1  0  0  0  0
 14 15  1  0  0  0  0
 14 16  1  0  0  0  0
 14 35  1  1  0  0  0
 15 51  1  0  0  0  0
 16 17  1  0  0  0  0
 16 20  1  0  0  0  0
 16 21  1  1  0  0  0
 17 18  1  0  0  0  0
 17 36  1  6  0  0  0
 18 19  1  0  0  0  0
 18 52  1  0  0  0  0
 18 53  1  0  0  0  0
 19 20  1  0  0  0  0
 19 54  1  0  0  0  0
 19 55  1  0  0  0  0
 20 37  1  6  0  0  0
 20 23  1  0  0  0  0
 21 56  1  0  0  0  0
 21 57  1  0  0  0  0
 21 58  1  0  0  0  0
 22 59  1  0  0  0  0
 22 60  1  0  0  0  0
 22 61  1  0  0  0  0
 23 38  1  6  0  0  0
 23 25  1  0  0  0  0
 23 24  1  0  0  0  0
 24 62  1  0  0  0  0
 24 63  1  0  0  0  0
 24 64  1  0  0  0  0
 25 26  1  0  0  0  0
 25 65  1  0  0  0  0
 25 66  1  0  0  0  0
 26 28  1  0  0  0  0
 26 67  1  0  0  0  0
 26 68  1  0  0  0  0
 27 28  2  0  0  0  0
 28 29  1  0  0  0  0
 29 69  1  0  0  0  0
M  END
>  <DRUGBANK_ID>
DB02659

>  <SECONDARY_ACCESSION_NUMBERS>
EXPT00906

>  <COMMON_NAME>
Cholic Acid

>  <CAS_NUMBER>
81-25-4

>  <UNII>
G1JO7801AE

>  <SYNONYMS>
Cholic Acid

$$$$
