235
 OpenBabel10282417103D

 25 26  0  0  0  0  0  0  0  0999 V2000
   -0.7772    1.9806    0.0254 O   0  0  0  0  0  0  0  0  0  0  0  0
    1.2124    0.8970   -0.0329 N   0  0  0  0  0  0  0  0  0  0  0  0
    3.7396   -5.0509    0.3609 N   0  0  0  0  0  0  0  0  0  0  0  0
   -3.3984   -0.5620   -0.0443 N   0  0  0  0  0  0  0  0  0  0  0  0
    1.3992   -1.4620    0.0708 C   0  0  0  0  0  0  0  0  0  0  0  0
    1.9911   -0.2448   -0.0074 C   0  0  0  0  0  0  0  0  0  0  0  0
    2.2032   -2.7067    0.1715 C   0  0  0  0  0  0  0  0  0  0  0  0
   -0.0636   -1.5106    0.0461 C   0  0  0  0  0  0  0  0  0  0  0  0
   -0.8266   -0.4034    0.0132 C   0  0  0  0  0  0  0  0  0  0  0  0
    3.4686    0.0210   -0.0823 C   0  0  0  0  0  0  0  0  0  0  0  0
   -0.1593    0.9222    0.0063 C   0  0  0  0  0  0  0  0  0  0  0  0
    3.0466   -2.9281    1.2665 C   0  0  0  0  0  0  0  0  0  0  0  0
    2.1282   -3.6901   -0.8170 C   0  0  0  0  0  0  0  0  0  0  0  0
    3.7882   -4.0975    1.3129 C   0  0  0  0  0  0  0  0  0  0  0  0
    2.9108   -4.8273   -0.6808 C   0  0  0  0  0  0  0  0  0  0  0  0
   -2.2434   -0.4627   -0.0177 C   0  0  0  0  0  0  0  0  0  0  0  0
    1.6542    1.8101   -0.0596 H   0  0  0  0  0  0  0  0  0  0  0  0
   -0.5246   -2.4960    0.0474 H   0  0  0  0  0  0  0  0  0  0  0  0
    3.6999    0.5420   -1.0170 H   0  0  0  0  0  0  0  0  0  0  0  0
    3.7849    0.6479    0.7576 H   0  0  0  0  0  0  0  0  0  0  0  0
    4.0752   -0.8856   -0.0691 H   0  0  0  0  0  0  0  0  0  0  0  0
    3.1481   -2.1974    2.0620 H   0  0  0  0  0  0  0  0  0  0  0  0
    1.4862   -3.5814   -1.6841 H   0  0  0  0  0  0  0  0  0  0  0  0
    4.4637   -4.2996    2.1399 H   0  0  0  0  0  0  0  0  0  0  0  0
    2.8940   -5.6119   -1.4326 H   0  0  0  0  0  0  0  0  0  0  0  0
  1 11  2  0  0  0  0
  2  6  1  0  0  0  0
  2 11  1  0  0  0  0
  2 17  1  0  0  0  0
  3 14  2  0  0  0  0
  3 15  1  0  0  0  0
  4 16  3  0  0  0  0
  5  6  2  0  0  0  0
  5  7  1  0  0  0  0
  5  8  1  0  0  0  0
  6 10  1  0  0  0  0
  7 12  2  0  0  0  0
  7 13  1  0  0  0  0
  8  9  2  0  0  0  0
  8 18  1  0  0  0  0
  9 11  1  0  0  0  0
  9 16  1  0  0  0  0
 10 19  1  0  0  0  0
 10 20  1  0  0  0  0
 10 21  1  0  0  0  0
 12 14  1  0  0  0  0
 12 22  1  0  0  0  0
 13 15  2  0  0  0  0
 13 23  1  0  0  0  0
 14 24  1  0  0  0  0
 15 25  1  0  0  0  0
M  END
>  <DRUGBANK_ID>
DB00235

>  <SECONDARY_ACCESSION_NUMBERS>
APRD00010

>  <COMMON_NAME>
Milrinone

>  <CAS_NUMBER>
78415-72-2

>  <UNII>
JU9YAX04C7

>  <SYNONYMS>
1,6-Dihydro-2-methyl-6-oxo(3,4'-bipyridine)-5-carbonitrile; Milrinona; Milrinone; Milrinonum

$$$$
