299
 OpenBabel10282417133D

 25 25  0  0  0  0  0  0  0  0999 V2000
    0.3432    1.2232    0.0257 C   0  0  0  0  0  0  0  0  0  0  0  0
    0.9891   -0.0030    0.0155 C   0  0  0  0  0  0  0  0  0  0  0  0
    0.2102   -1.1566    0.0127 C   0  0  0  0  0  0  0  0  0  0  0  0
   -1.2057   -1.0770   -0.0303 C   0  0  0  0  0  0  0  0  0  0  0  0
   -1.8661    0.1903   -0.0786 C   0  0  0  0  0  0  0  0  0  0  0  0
   -1.0519    1.3289   -0.0071 C   0  0  0  0  0  0  0  0  0  0  0  0
    2.4867   -0.0351   -0.0087 C   0  0  0  0  0  0  0  0  0  0  0  0
   -1.9071   -2.3960   -0.0191 C   0  0  0  0  0  0  0  0  0  0  0  0
   -1.4660    2.7295    0.0130 C   0  0  0  0  0  0  0  0  0  0  0  0
   -3.2024    0.2391   -0.3936 O   0  0  0  0  0  0  0  0  0  0  0  0
   -4.4225    1.1902    0.0700 P   0  0  0  0  0  0  0  0  0  0  0  0
   -5.5778    0.2549   -0.5247 O   0  0  0  0  0  0  0  0  0  0  0  0
   -4.5106    0.9396    1.6444 O   0  0  0  0  0  0  0  0  0  0  0  0
   -4.7675    2.5269   -0.4951 O   0  0  0  0  0  0  0  0  0  0  0  0
   -1.2861   -3.4572    0.0130 O   0  0  0  0  0  0  0  0  0  0  0  0
   -2.6289    3.0791    0.1218 O   0  0  0  0  0  0  0  0  0  0  0  0
    0.9442    2.1305    0.0256 H   0  0  0  0  0  0  0  0  0  0  0  0
    0.7117   -2.1282    0.0158 H   0  0  0  0  0  0  0  0  0  0  0  0
    2.8753   -0.5521    0.8716 H   0  0  0  0  0  0  0  0  0  0  0  0
    2.8443   -0.5192   -0.9217 H   0  0  0  0  0  0  0  0  0  0  0  0
    2.8943    0.9838    0.0005 H   0  0  0  0  0  0  0  0  0  0  0  0
   -3.0061   -2.4037   -0.0150 H   0  0  0  0  0  0  0  0  0  0  0  0
   -0.6971    3.5059    0.0069 H   0  0  0  0  0  0  0  0  0  0  0  0
   -5.6452    0.5908   -1.4443 H   0  0  0  0  0  0  0  0  0  0  0  0
   -3.6252    0.9647    2.0488 H   0  0  0  0  0  0  0  0  0  0  0  0
  1  2  2  0  0  0  0
  1  6  1  0  0  0  0
  1 17  1  0  0  0  0
  2  3  1  0  0  0  0
  2  7  1  0  0  0  0
  3  4  2  0  0  0  0
  3 18  1  0  0  0  0
  4  5  1  0  0  0  0
  4  8  1  0  0  0  0
  5  6  2  0  0  0  0
  5 10  1  0  0  0  0
  6  9  1  0  0  0  0
  7 19  1  0  0  0  0
  7 20  1  0  0  0  0
  7 21  1  0  0  0  0
  8 15  2  0  0  0  0
  8 22  1  0  0  0  0
  9 16  2  0  0  0  0
  9 23  1  0  0  0  0
 10 11  1  0  0  0  0
 11 12  1  0  0  0  0
 11 13  1  0  0  0  0
 11 14  2  0  0  0  0
 12 24  1  0  0  0  0
 13 25  1  0  0  0  0
M  END
>  <DRUGBANK_ID>
DB03828

>  <SECONDARY_ACCESSION_NUMBERS>
EXPT00099

>  <COMMON_NAME>
RU78299

$$$$
