
 OpenBabel10282417173D

 35 36  0  0  0  0  0  0  0  0999 V2000
    1.3219   -0.2134   -0.0090 C   0  0  0  0  0  0  0  0  0  0  0  0
    0.4480   -1.2959    0.0014 C   0  0  0  0  0  0  0  0  0  0  0  0
   -0.9591   -1.1360    0.0199 C   0  0  0  0  0  0  0  0  0  0  0  0
   -1.5048    0.1757    0.0207 C   0  0  0  0  0  0  0  0  0  0  0  0
   -0.5867    1.2592    0.0237 C   0  0  0  0  0  0  0  0  0  0  0  0
    0.8043    1.0702   -0.0197 C   0  0  0  0  0  0  0  0  0  0  0  0
   -2.8930    0.5233    0.0840 N   0  0  0  0  0  0  0  0  0  0  0  0
   -3.5918   -0.2811   -0.5594 N   0  0  0  0  0  0  0  0  0  0  0  0
   -4.9784   -0.0494   -0.5294 C   0  0  0  0  0  0  0  0  0  0  0  0
   -5.4957    0.8471   -1.4430 C   0  0  0  0  0  0  0  0  0  0  0  0
   -6.8698    0.9182   -1.6656 C   0  0  0  0  0  0  0  0  0  0  0  0
   -7.7973    0.1019   -0.9918 C   0  0  0  0  0  0  0  0  0  0  0  0
   -7.2471   -0.8465   -0.1189 C   0  0  0  0  0  0  0  0  0  0  0  0
   -5.8683   -0.8944    0.1515 C   0  0  0  0  0  0  0  0  0  0  0  0
   -9.1605    0.2357   -1.2101 N   0  0  0  0  0  0  0  0  0  0  0  0
   -1.6837   -2.4532    0.1046 C   0  0  0  0  0  0  0  0  0  0  0  0
   -2.9940   -2.4525    0.3740 O   0  0  0  0  0  0  0  0  0  0  0  0
   -1.0894   -3.5236    0.0092 O   0  0  0  0  0  0  0  0  0  0  0  0
  -10.1752   -0.4956   -0.4602 C   0  0  0  0  0  0  0  0  0  0  0  0
   -9.6493    1.3418   -2.0323 C   0  0  0  0  0  0  0  0  0  0  0  0
    2.3964   -0.3853    0.0119 H   0  0  0  0  0  0  0  0  0  0  0  0
    0.8790   -2.2976    0.0164 H   0  0  0  0  0  0  0  0  0  0  0  0
   -0.9539    2.2836    0.0846 H   0  0  0  0  0  0  0  0  0  0  0  0
    1.4841    1.9205   -0.0490 H   0  0  0  0  0  0  0  0  0  0  0  0
   -4.8129    1.4531   -2.0282 H   0  0  0  0  0  0  0  0  0  0  0  0
   -7.1881    1.6226   -2.4260 H   0  0  0  0  0  0  0  0  0  0  0  0
   -7.8627   -1.6084    0.3515 H   0  0  0  0  0  0  0  0  0  0  0  0
   -5.5250   -1.6471    0.8600 H   0  0  0  0  0  0  0  0  0  0  0  0
   -3.3462   -1.5439    0.3767 H   0  0  0  0  0  0  0  0  0  0  0  0
  -10.7605    0.1894    0.1635 H   0  0  0  0  0  0  0  0  0  0  0  0
  -10.8542   -0.9895   -1.1631 H   0  0  0  0  0  0  0  0  0  0  0  0
   -9.7940   -1.2744    0.2014 H   0  0  0  0  0  0  0  0  0  0  0  0
   -9.2791    2.3078   -1.6657 H   0  0  0  0  0  0  0  0  0  0  0  0
   -9.3361    1.2075   -3.0735 H   0  0  0  0  0  0  0  0  0  0  0  0
  -10.7426    1.3974   -2.0291 H   0  0  0  0  0  0  0  0  0  0  0  0
  1  2  1  0  0  0  0
  1  6  2  0  0  0  0
  1 21  1  0  0  0  0
  2  3  2  0  0  0  0
  2 22  1  0  0  0  0
  3  4  1  0  0  0  0
  3 16  1  0  0  0  0
  4  5  2  0  0  0  0
  4  7  1  0  0  0  0
  5  6  1  0  0  0  0
  5 23  1  0  0  0  0
  6 24  1  0  0  0  0
  7  8  2  0  0  0  0
  8  9  1  0  0  0  0
  9 10  1  0  0  0  0
  9 14  2  0  0  0  0
 10 11  2  0  0  0  0
 10 25  1  0  0  0  0
 11 12  1  0  0  0  0
 11 26  1  0  0  0  0
 12 13  2  0  0  0  0
 12 15  1  0  0  0  0
 13 14  1  0  0  0  0
 13 27  1  0  0  0  0
 14 28  1  0  0  0  0
 15 19  1  0  0  0  0
 15 20  1  0  0  0  0
 16 17  1  0  0  0  0
 16 18  2  0  0  0  0
 17 29  1  0  0  0  0
 19 30  1  0  0  0  0
 19 31  1  0  0  0  0
 19 32  1  0  0  0  0
 20 33  1  0  0  0  0
 20 34  1  0  0  0  0
 20 35  1  0  0  0  0
M  END
>  <DRUGBANK_ID>
DB08209

>  <COMMON_NAME>
Methyl red

>  <CAS_NUMBER>
493-52-7

>  <UNII>
69083AX1ZX

>  <SYNONYMS>
2-((4-Dimethylamino)phenylazo)benzoic acid; 2-[(p-Dimethylamino)phenyl]azobenzoic acid; 2-Carboxy-4'-(dimethylamino)azobenzene; 4-Dimethylamino-2'-carboxylazobenzene; 4'-(Dimethylamino)azobenzene-2-carboxylic acid; 4'-Dimethylaminoazobenzene-2-carboxylic acid; C.I. Acid Red 2; o-((p-(Dimethylamino)phenyl)azo)benzoic acid; o-Methyl red; p-(Dimethylamino)azobenzene-o-carboxylic acid

$$$$
