801
 OpenBabel10282417113D

 36 38  0  0  0  0  0  0  0  0999 V2000
    0.9598    0.0681   -0.0456 Cl  0  0  0  0  0  0  0  0  0  0  0  0
    9.4085   -1.5181   -0.9094 F   0  0  0  0  0  0  0  0  0  0  0  0
    8.8291   -3.1276    0.4267 F   0  0  0  0  0  0  0  0  0  0  0  0
    7.5378   -2.5828   -1.2400 F   0  0  0  0  0  0  0  0  0  0  0  0
    8.9939    0.8859   -0.4923 O   0  0  0  0  0  0  0  0  0  0  0  0
    6.9226    0.0028   -0.0434 N   0  0  0  0  0  0  0  0  0  0  0  0
    6.4796    3.0162   -0.4594 N   0  0  0  0  0  0  0  0  0  0  0  0
    5.4982    0.0730   -0.0736 C   0  0  0  0  0  0  0  0  0  0  0  0
    4.7803    1.2819    0.0190 C   0  0  0  0  0  0  0  0  0  0  0  0
    7.5798   -1.1323    0.6338 C   0  0  0  0  0  0  0  0  0  0  0  0
    5.4371    2.6144    0.1834 C   0  0  0  0  0  0  0  0  0  0  0  0
    7.7632    0.9662   -0.5955 C   0  0  0  0  0  0  0  0  0  0  0  0
    7.1250    2.0916   -1.3856 C   0  0  0  0  0  0  0  0  0  0  0  0
    4.7637   -1.1252   -0.1730 C   0  0  0  0  0  0  0  0  0  0  0  0
    3.3720    1.2673    0.0323 C   0  0  0  0  0  0  0  0  0  0  0  0
    4.8489    3.5530    1.1802 C   0  0  0  0  0  0  0  0  0  0  0  0
    8.3575   -2.0757   -0.2864 C   0  0  0  0  0  0  0  0  0  0  0  0
    3.3674   -1.1301   -0.1735 C   0  0  0  0  0  0  0  0  0  0  0  0
    2.6775    0.0672   -0.0624 C   0  0  0  0  0  0  0  0  0  0  0  0
    4.5035    4.8568    0.8132 C   0  0  0  0  0  0  0  0  0  0  0  0
    4.6417    3.1066    2.4891 C   0  0  0  0  0  0  0  0  0  0  0  0
    4.0174    5.7353    1.7838 C   0  0  0  0  0  0  0  0  0  0  0  0
    4.0635    3.9589    3.4261 C   0  0  0  0  0  0  0  0  0  0  0  0
    3.7974    5.2852    3.0873 C   0  0  0  0  0  0  0  0  0  0  0  0
    8.2486   -0.7197    1.3996 H   0  0  0  0  0  0  0  0  0  0  0  0
    6.8396   -1.7180    1.1930 H   0  0  0  0  0  0  0  0  0  0  0  0
    6.4502    1.7123   -2.1605 H   0  0  0  0  0  0  0  0  0  0  0  0
    7.9324    2.6198   -1.9064 H   0  0  0  0  0  0  0  0  0  0  0  0
    5.2602   -2.0850   -0.2986 H   0  0  0  0  0  0  0  0  0  0  0  0
    2.8092    2.1939    0.1239 H   0  0  0  0  0  0  0  0  0  0  0  0
    2.8324   -2.0719   -0.2700 H   0  0  0  0  0  0  0  0  0  0  0  0
    4.6068    5.1883   -0.2170 H   0  0  0  0  0  0  0  0  0  0  0  0
    4.9329    2.1028    2.7846 H   0  0  0  0  0  0  0  0  0  0  0  0
    3.8051    6.7705    1.5270 H   0  0  0  0  0  0  0  0  0  0  0  0
    3.8319    3.5922    4.4223 H   0  0  0  0  0  0  0  0  0  0  0  0
    3.4189    5.9700    3.8425 H   0  0  0  0  0  0  0  0  0  0  0  0
  1 19  1  0  0  0  0
  2 17  1  0  0  0  0
  3 17  1  0  0  0  0
  4 17  1  0  0  0  0
  5 12  2  0  0  0  0
  6  8  1  0  0  0  0
  6 10  1  0  0  0  0
  6 12  1  0  0  0  0
  7 11  2  0  0  0  0
  7 13  1  0  0  0  0
  8  9  2  0  0  0  0
  8 14  1  0  0  0  0
  9 11  1  0  0  0  0
  9 15  1  0  0  0  0
 10 17  1  0  0  0  0
 10 25  1  0  0  0  0
 10 26  1  0  0  0  0
 11 16  1  0  0  0  0
 12 13  1  0  0  0  0
 13 27  1  0  0  0  0
 13 28  1  0  0  0  0
 14 18  2  0  0  0  0
 14 29  1  0  0  0  0
 15 19  2  0  0  0  0
 15 30  1  0  0  0  0
 16 20  2  0  0  0  0
 16 21  1  0  0  0  0
 18 19  1  0  0  0  0
 18 31  1  0  0  0  0
 20 22  1  0  0  0  0
 20 32  1  0  0  0  0
 21 23  2  0  0  0  0
 21 33  1  0  0  0  0
 22 24  2  0  0  0  0
 22 34  1  0  0  0  0
 23 24  1  0  0  0  0
 23 35  1  0  0  0  0
 24 36  1  0  0  0  0
M  END
>  <DRUGBANK_ID>
DB00801

>  <SECONDARY_ACCESSION_NUMBERS>
APRD01009

>  <COMMON_NAME>
Halazepam

>  <CAS_NUMBER>
23092-17-3

>  <UNII>
320YC168LF

>  <SYNONYMS>
Halaz√©pam; Halazepam; Halazepamum

$$$$
