
 OpenBabel10282417103D

 32 33  0  0  1  0  0  0  0  0999 V2000
    7.7187   -1.4076   -0.3944 C   0  0  0  0  0  0  0  0  0  0  0  0
    6.4810   -1.9143   -0.1924 C   0  0  0  0  0  0  0  0  0  0  0  0
    7.8449   -0.0131   -0.4198 N   0  0  0  0  0  0  0  0  0  0  0  0
    8.8115   -2.2170   -0.5674 N   0  0  0  0  0  0  0  0  0  0  0  0
    5.3718   -1.1228   -0.0181 N   0  0  0  0  0  0  0  0  0  0  0  0
    6.2852   -3.3856   -0.1961 C   0  0  0  0  0  0  0  0  0  0  0  0
    6.7295    0.8986   -0.0981 C   0  0  0  0  0  0  0  0  0  0  0  0
    8.6260   -3.5005   -0.5786 C   0  0  0  0  0  0  0  0  0  0  0  0
    5.3785    0.2488   -0.5056 C   0  0  2  0  0  0  0  0  0  0  0  0
    7.4215   -4.0983   -0.3977 N   0  0  0  0  0  0  0  0  0  0  0  0
    5.1919   -3.9147   -0.0464 O   0  0  0  0  0  0  0  0  0  0  0  0
    9.6629   -4.3349   -0.7797 N   0  0  0  0  0  0  0  0  0  0  0  0
    4.1399    1.0210   -0.0236 C   0  0  2  0  0  0  0  0  0  0  0  0
    2.8008    0.3867   -0.4891 C   0  0  2  0  0  0  0  0  0  0  0  0
    4.1894    2.3677   -0.5341 O   0  0  0  0  0  0  0  0  0  0  0  0
    2.5925   -1.0735   -0.0962 C   0  0  0  0  0  0  0  0  0  0  0  0
    2.7333    0.4820   -1.9186 O   0  0  0  0  0  0  0  0  0  0  0  0
    5.3601    0.2164   -1.6054 H   0  0  0  0  0  0  0  0  0  0  0  0
    8.7977    0.3168   -0.3391 H   0  0  0  0  0  0  0  0  0  0  0  0
    4.7995   -1.4161    0.7647 H   0  0  0  0  0  0  0  0  0  0  0  0
    6.7239    1.1075    0.9784 H   0  0  0  0  0  0  0  0  0  0  0  0
    6.8727    1.8443   -0.6303 H   0  0  0  0  0  0  0  0  0  0  0  0
    7.3103   -5.0958   -0.4282 H   0  0  0  0  0  0  0  0  0  0  0  0
    9.5834   -5.3364   -0.7154 H   0  0  0  0  0  0  0  0  0  0  0  0
   10.5781   -3.9153   -0.8699 H   0  0  0  0  0  0  0  0  0  0  0  0
    4.1527    1.0906    1.0700 H   0  0  0  0  0  0  0  0  0  0  0  0
    1.9735    0.9779   -0.0782 H   0  0  0  0  0  0  0  0  0  0  0  0
    4.1105    2.2816   -1.5055 H   0  0  0  0  0  0  0  0  0  0  0  0
    2.6995   -1.2119    0.9860 H   0  0  0  0  0  0  0  0  0  0  0  0
    1.6162   -1.4495   -0.4064 H   0  0  0  0  0  0  0  0  0  0  0  0
    3.2831   -1.7337   -0.6285 H   0  0  0  0  0  0  0  0  0  0  0  0
    2.0039    1.0872   -2.1347 H   0  0  0  0  0  0  0  0  0  0  0  0
  1  2  2  0  0  0  0
  1  3  1  0  0  0  0
  1  4  1  0  0  0  0
  2  5  1  0  0  0  0
  2  6  1  0  0  0  0
  3  7  1  0  0  0  0
  3 19  1  0  0  0  0
  4  8  2  0  0  0  0
  5  9  1  0  0  0  0
  5 20  1  0  0  0  0
  6 10  1  0  0  0  0
  6 11  2  0  0  0  0
  7  9  1  0  0  0  0
  7 21  1  0  0  0  0
  7 22  1  0  0  0  0
  8 12  1  0  0  0  0
  8 10  1  0  0  0  0
  9 18  1  6  0  0  0
 10 23  1  0  0  0  0
 12 24  1  0  0  0  0
 12 25  1  0  0  0  0
 13 15  1  0  0  0  0
 13 26  1  1  0  0  0
 13 14  1  0  0  0  0
 13  9  1  0  0  0  0
 14 27  1  1  0  0  0
 14 17  1  0  0  0  0
 14 16  1  0  0  0  0
 15 28  1  0  0  0  0
 16 29  1  0  0  0  0
 16 30  1  0  0  0  0
 16 31  1  0  0  0  0
 17 32  1  0  0  0  0
M  END
>  <DRUGBANK_ID>
DB00360

>  <SECONDARY_ACCESSION_NUMBERS>
APRD01297; EXPT00691; DB02692

>  <COMMON_NAME>
Sapropterin

>  <CAS_NUMBER>
62989-33-7

>  <UNII>
EGX657432I

>  <SYNONYMS>
(âˆ’)-(6R)-2-amino-6-((1R,2S)-1,2-dihydroxypropyl)-5,6,7,8-tetrahydro-4(3H)-pteridinone; (6R)-L-erythro-5,6,7,8-tetrahydrobiopterin; (6R)-L-erythro-tetrahydrobiopterin; 2-Amino-6-(1,2-dihydroxypropyl)-5,6,7,8-tetrahydoro-4(1H)-pteridinone; 5,6,7,8-Tetrahydrobiopterin; 6R-5,6,7,8-tetrahydrobiopterin; 6R-BH4; 6R-L-5,6,7,8-tetrahydrobiopterin; R-THBP; Sapropterin; Sapropterina; sapropterinum; Tetrahydrobiopterin

$$$$
