
 OpenBabel10282417243D

 27 26  0  0  1  0  0  0  0  0999 V2000
    1.0529    0.0260   -0.1064 C   0  0  0  0  0  0  0  0  0  0  0  0
    0.5050    1.3778    0.3450 C   0  0  0  0  0  0  0  0  0  0  0  0
    0.9971    2.4739   -0.6042 C   0  0  0  0  0  0  0  0  0  0  0  0
   -1.0335    1.3711    0.4047 C   0  0  0  0  0  0  0  0  0  0  0  0
   -1.6535    0.3523    1.3939 C   0  0  1  0  0  0  0  0  0  0  0  0
   -1.1956    0.6461    2.7622 N   0  0  0  0  0  0  0  0  0  0  0  0
   -2.0433    0.7600    3.8360 C   0  0  0  0  0  0  0  0  0  0  0  0
   -1.4104    1.1172    5.1480 C   0  0  0  0  0  0  0  0  0  0  0  0
   -3.2567    0.5839    3.7776 O   0  0  0  0  0  0  0  0  0  0  0  0
   -3.1827    0.4080    1.1484 C   0  0  0  0  0  0  0  0  0  0  0  0
   -3.7348   -0.7821    0.8006 O   0  0  0  0  0  0  0  0  0  0  0  0
   -3.8505    1.4337    1.2076 O   0  0  0  0  0  0  0  0  0  0  0  0
    0.6852   -0.2286   -1.1062 H   0  0  0  0  0  0  0  0  0  0  0  0
    0.7618   -0.7759    0.5772 H   0  0  0  0  0  0  0  0  0  0  0  0
    2.1465    0.0404   -0.1358 H   0  0  0  0  0  0  0  0  0  0  0  0
    0.9053    1.6080    1.3390 H   0  0  0  0  0  0  0  0  0  0  0  0
    0.6485    2.3005   -1.6279 H   0  0  0  0  0  0  0  0  0  0  0  0
    0.6417    3.4595   -0.2856 H   0  0  0  0  0  0  0  0  0  0  0  0
    2.0921    2.5043   -0.6205 H   0  0  0  0  0  0  0  0  0  0  0  0
   -1.3770    2.3788    0.6793 H   0  0  0  0  0  0  0  0  0  0  0  0
   -1.4300    1.1839   -0.6034 H   0  0  0  0  0  0  0  0  0  0  0  0
   -1.3007   -0.6555    1.1483 H   0  0  0  0  0  0  0  0  0  0  0  0
   -0.1978    0.6517    2.9372 H   0  0  0  0  0  0  0  0  0  0  0  0
   -1.7704    2.1044    5.4539 H   0  0  0  0  0  0  0  0  0  0  0  0
   -1.7375    0.3745    5.8817 H   0  0  0  0  0  0  0  0  0  0  0  0
   -0.3197    1.1247    5.1119 H   0  0  0  0  0  0  0  0  0  0  0  0
   -3.1330   -1.5476    0.7968 H   0  0  0  0  0  0  0  0  0  0  0  0
  1  2  1  0  0  0  0
  1 13  1  0  0  0  0
  1 14  1  0  0  0  0
  1 15  1  0  0  0  0
  2  3  1  0  0  0  0
  2  4  1  0  0  0  0
  2 16  1  0  0  0  0
  3 17  1  0  0  0  0
  3 18  1  0  0  0  0
  3 19  1  0  0  0  0
  4 20  1  0  0  0  0
  4 21  1  0  0  0  0
  5  4  1  0  0  0  0
  5  6  1  0  0  0  0
  5 10  1  0  0  0  0
  5 22  1  6  0  0  0
  6  7  1  0  0  0  0
  6 23  1  0  0  0  0
  7  8  1  0  0  0  0
  7  9  2  0  0  0  0
  8 24  1  0  0  0  0
  8 25  1  0  0  0  0
  8 26  1  0  0  0  0
 10 11  1  0  0  0  0
 10 12  2  0  0  0  0
 11 27  1  0  0  0  0
M  END
>  <DRUGBANK_ID>
DB17837

>  <COMMON_NAME>
DS-1211

>  <CAS_NUMBER>
19764-30-8

>  <UNII>
91WU82GA22

>  <SYNONYMS>
Ac-D-Leu-OH; ACETYLLEUCINE, (R)-; ACETYLLEUCINE, D-; D-leucine, N-acetyl-; N-Acetyl-D-leucine; N-Acetyl-R-leucine

$$$$
