440
 OpenBabel10282417163D

 34 34  0  0  0  0  0  0  0  0999 V2000
    1.2318   -0.0819    0.1167 C   0  0  0  0  0  0  0  0  0  0  0  0
    0.2699   -1.0471    0.3826 C   0  0  0  0  0  0  0  0  0  0  0  0
   -1.5096    0.3945   -0.0247 C   0  0  0  0  0  0  0  0  0  0  0  0
   -0.5504    1.4565   -0.0426 C   0  0  0  0  0  0  0  0  0  0  0  0
    0.8397    1.2159   -0.0877 C   0  0  0  0  0  0  0  0  0  0  0  0
    1.7174    2.2577   -0.2779 O   0  0  0  0  0  0  0  0  0  0  0  0
    3.1541    1.9724   -0.4386 C   0  0  0  0  0  0  0  0  0  0  0  0
    4.7070    0.1716    3.1966 C   0  0  0  0  0  0  0  0  0  0  0  0
    4.1636    0.8018    1.9246 C   0  0  0  0  0  0  0  0  0  0  0  0
    3.6975    1.3423    0.8334 C   0  0  0  0  0  0  0  0  0  0  0  0
   -1.0662   -0.9028    0.1405 C   0  0  0  0  0  0  0  0  0  0  0  0
   -2.8024   -2.3930    1.3366 O   0  0  0  0  0  0  0  0  0  0  0  0
   -2.7712   -2.3656   -1.1873 O   0  0  0  0  0  0  0  0  0  0  0  0
   -2.0715   -2.3871    0.0713 S   0  0  0  0  0  0  0  0  0  0  0  0
   -1.0397   -3.8811    0.0830 C   0  0  0  0  0  0  0  0  0  0  0  0
   -0.1611   -4.1656   -1.1517 C   0  0  0  0  0  0  0  0  0  0  0  0
    1.0458   -3.2585   -1.3421 C   0  0  0  0  0  0  0  0  0  0  0  0
    2.3337   -3.5589   -0.0228 S   0  0  0  0  0  0  0  0  0  0  0  0
    2.2649   -0.4081    0.1123 H   0  0  0  0  0  0  0  0  0  0  0  0
    0.5772   -1.9997    0.7146 H   0  0  0  0  0  0  0  0  0  0  0  0
   -2.5741    0.5987   -0.0950 H   0  0  0  0  0  0  0  0  0  0  0  0
   -0.9089    2.4815   -0.0132 H   0  0  0  0  0  0  0  0  0  0  0  0
    3.3064    1.3298   -1.3121 H   0  0  0  0  0  0  0  0  0  0  0  0
    3.6484    2.9322   -0.6155 H   0  0  0  0  0  0  0  0  0  0  0  0
    4.7426    0.9167    3.9962 H   0  0  0  0  0  0  0  0  0  0  0  0
    4.0617   -0.6545    3.5079 H   0  0  0  0  0  0  0  0  0  0  0  0
    5.7162   -0.2114    3.0213 H   0  0  0  0  0  0  0  0  0  0  0  0
   -0.4749   -3.9162    1.0187 H   0  0  0  0  0  0  0  0  0  0  0  0
   -1.7537   -4.7160    0.1542 H   0  0  0  0  0  0  0  0  0  0  0  0
    0.2287   -5.1916   -1.0931 H   0  0  0  0  0  0  0  0  0  0  0  0
   -0.7835   -4.1333   -2.0531 H   0  0  0  0  0  0  0  0  0  0  0  0
    1.5746   -3.4396   -2.2786 H   0  0  0  0  0  0  0  0  0  0  0  0
    0.6785   -2.2407   -1.4964 H   0  0  0  0  0  0  0  0  0  0  0  0
    1.6604   -3.2779    1.1221 H   0  0  0  0  0  0  0  0  0  0  0  0
  1 19  1  0  0  0  0
  2  1  1  0  0  0  0
  2 20  1  0  0  0  0
  3  4  2  0  0  0  0
  3 11  1  0  0  0  0
  3 21  1  0  0  0  0
  4  5  1  0  0  0  0
  4 22  1  0  0  0  0
  5  6  1  0  0  0  0
  5  1  2  0  0  0  0
  6  7  1  0  0  0  0
  7 23  1  0  0  0  0
  7 24  1  0  0  0  0
  8  9  1  0  0  0  0
  8 25  1  0  0  0  0
  8 26  1  0  0  0  0
  8 27  1  0  0  0  0
  9 10  3  0  0  0  0
 10  7  1  0  0  0  0
 11  2  2  0  0  0  0
 12 14  2  0  0  0  0
 13 14  2  0  0  0  0
 14 11  1  0  0  0  0
 14 15  1  0  0  0  0
 15 16  1  0  0  0  0
 15 28  1  0  0  0  0
 15 29  1  0  0  0  0
 16 30  1  0  0  0  0
 16 31  1  0  0  0  0
 17 18  1  0  0  0  0
 17 16  1  0  0  0  0
 17 32  1  0  0  0  0
 17 33  1  0  0  0  0
 18 34  1  0  0  0  0
M  END
>  <DRUGBANK_ID>
DB07079

>  <COMMON_NAME>
3-{[4-(but-2-yn-1-yloxy)phenyl]sulfonyl}propane-1-thiol

$$$$
