
 OpenBabel10282417193D

 66 69  0  0  0  0  0  0  0  0999 V2000
    1.0742   -0.5968    0.3429 O   0  0  0  0  0  0  0  0  0  0  0  0
    2.7199    0.9845    2.3621 N   0  0  0  0  0  0  0  0  0  0  0  0
    5.2863    2.1642   -1.1791 N   0  0  0  0  0  0  0  0  0  0  0  0
    2.8802   -1.2253   -0.7073 N   0  0  0  0  0  0  0  0  0  0  0  0
    1.8918    1.5880   -0.7829 N   0  0  0  0  0  0  0  0  0  0  0  0
    3.2649    0.9731    0.9587 C   0  0  0  0  0  0  0  0  0  0  0  0
    3.4223    2.6395    0.5701 C   0  0  0  0  0  0  0  0  0  0  0  0
    4.7055    0.5007    0.6679 C   0  0  0  0  0  0  0  0  0  0  0  0
    4.2130    3.0141   -0.6779 C   0  0  0  0  0  0  0  0  0  0  0  0
    5.0854    0.7610   -0.8083 C   0  0  0  0  0  0  0  0  0  0  0  0
    3.5102    1.9104    3.1703 C   0  0  0  0  0  0  0  0  0  0  0  0
    1.2856    1.4392    2.3866 C   0  0  0  0  0  0  0  0  0  0  0  0
    3.0913    1.9423    4.6045 C   0  0  0  0  0  0  0  0  0  0  0  0
    0.7545    1.4886    3.8160 C   0  0  0  0  0  0  0  0  0  0  0  0
    2.3166   -0.3790    0.2163 C   0  0  0  0  0  0  0  0  0  0  0  0
    1.6334    2.3777    4.6832 C   0  0  0  0  0  0  0  0  0  0  0  0
    5.2999    2.2362   -2.6793 C   0  0  0  0  0  0  0  0  0  0  0  0
    4.1267    1.6230   -3.6112 C   0  0  0  0  0  0  0  0  0  0  0  0
    2.5606    1.9939   -3.4515 C   0  0  0  0  0  0  0  0  0  0  0  0
    2.3813    3.5646   -3.7518 C   0  0  0  0  0  0  0  0  0  0  0  0
    1.6882    1.0975   -4.3964 C   0  0  0  0  0  0  0  0  0  0  0  0
    2.1950    1.7721   -1.9929 C   0  0  0  0  0  0  0  0  0  0  0  0
    1.1244    4.1689   -3.9209 C   0  0  0  0  0  0  0  0  0  0  0  0
    1.8497   -0.2949   -4.3936 C   0  0  0  0  0  0  0  0  0  0  0  0
    3.4481    4.4764   -3.8074 C   0  0  0  0  0  0  0  0  0  0  0  0
    0.6682    1.5813   -5.2484 C   0  0  0  0  0  0  0  0  0  0  0  0
    0.9922    5.5092   -4.3114 C   0  0  0  0  0  0  0  0  0  0  0  0
    1.0188   -1.1272   -5.1552 C   0  0  0  0  0  0  0  0  0  0  0  0
    3.2842    5.8603   -3.8188 C   0  0  0  0  0  0  0  0  0  0  0  0
   -0.2724    0.7551   -5.8595 C   0  0  0  0  0  0  0  0  0  0  0  0
    2.0646    6.3748   -4.1866 C   0  0  0  0  0  0  0  0  0  0  0  0
   -0.0663   -0.6072   -5.8532 C   0  0  0  0  0  0  0  0  0  0  0  0
    3.8661   -1.4232   -0.7691 H   0  0  0  0  0  0  0  0  0  0  0  0
    2.2508   -1.8496   -1.1979 H   0  0  0  0  0  0  0  0  0  0  0  0
    2.4318    3.1434    0.5538 H   0  0  0  0  0  0  0  0  0  0  0  0
    3.9659    3.2320    1.2982 H   0  0  0  0  0  0  0  0  0  0  0  0
    5.4309    1.0221    1.2865 H   0  0  0  0  0  0  0  0  0  0  0  0
    4.7938   -0.5679    0.8756 H   0  0  0  0  0  0  0  0  0  0  0  0
    3.5897    2.7704   -1.4433 H   0  0  0  0  0  0  0  0  0  0  0  0
    4.0929    4.0765   -0.9575 H   0  0  0  0  0  0  0  0  0  0  0  0
    5.9946    0.2125   -1.0616 H   0  0  0  0  0  0  0  0  0  0  0  0
    4.3242    0.3480   -1.4669 H   0  0  0  0  0  0  0  0  0  0  0  0
    3.3518    2.9508    2.8813 H   0  0  0  0  0  0  0  0  0  0  0  0
    4.5736    1.6812    3.0809 H   0  0  0  0  0  0  0  0  0  0  0  0
    0.5971    0.7909    1.8440 H   0  0  0  0  0  0  0  0  0  0  0  0
    1.1425    2.4349    1.9476 H   0  0  0  0  0  0  0  0  0  0  0  0
    3.7285    2.6804    5.1016 H   0  0  0  0  0  0  0  0  0  0  0  0
    3.2578    0.9607    5.0483 H   0  0  0  0  0  0  0  0  0  0  0  0
    0.7207    0.4719    4.2210 H   0  0  0  0  0  0  0  0  0  0  0  0
   -0.2733    1.8734    3.8109 H   0  0  0  0  0  0  0  0  0  0  0  0
    1.3034    2.3538    5.7207 H   0  0  0  0  0  0  0  0  0  0  0  0
    1.5363    3.4147    4.3270 H   0  0  0  0  0  0  0  0  0  0  0  0
    5.5044    3.2821   -2.8743 H   0  0  0  0  0  0  0  0  0  0  0  0
    6.2235    1.7616   -3.0245 H   0  0  0  0  0  0  0  0  0  0  0  0
    4.3981    1.8301   -4.6585 H   0  0  0  0  0  0  0  0  0  0  0  0
    4.2384    0.5366   -3.5278 H   0  0  0  0  0  0  0  0  0  0  0  0
    0.2028    3.5988   -3.8402 H   0  0  0  0  0  0  0  0  0  0  0  0
    2.6320   -0.7689   -3.8098 H   0  0  0  0  0  0  0  0  0  0  0  0
    4.4763    4.1923   -3.8864 H   0  0  0  0  0  0  0  0  0  0  0  0
    0.5476    2.6238   -5.5116 H   0  0  0  0  0  0  0  0  0  0  0  0
    0.0375    5.8769   -4.6749 H   0  0  0  0  0  0  0  0  0  0  0  0
    1.2091   -2.1952   -5.1809 H   0  0  0  0  0  0  0  0  0  0  0  0
    4.1333    6.5060   -3.6095 H   0  0  0  0  0  0  0  0  0  0  0  0
   -1.1344    1.1940   -6.3584 H   0  0  0  0  0  0  0  0  0  0  0  0
    1.9616    7.4355   -4.3835 H   0  0  0  0  0  0  0  0  0  0  0  0
   -0.7317   -1.2521   -6.4172 H   0  0  0  0  0  0  0  0  0  0  0  0
  1 15  2  0  0  0  0
  2  6  1  0  0  0  0
  2 11  1  0  0  0  0
  2 12  1  0  0  0  0
  3  9  1  0  0  0  0
  3 10  1  0  0  0  0
  3 17  1  0  0  0  0
  4 15  1  0  0  0  0
  4 33  1  0  0  0  0
  4 34  1  0  0  0  0
  5 22  3  0  0  0  0
  6  7  1  0  0  0  0
  6  8  1  0  0  0  0
  6 15  1  0  0  0  0
  7  9  1  0  0  0  0
  7 35  1  0  0  0  0
  7 36  1  0  0  0  0
  8 10  1  0  0  0  0
  8 37  1  0  0  0  0
  8 38  1  0  0  0  0
  9 39  1  0  0  0  0
  9 40  1  0  0  0  0
 10 41  1  0  0  0  0
 10 42  1  0  0  0  0
 11 13  1  0  0  0  0
 11 43  1  0  0  0  0
 11 44  1  0  0  0  0
 12 14  1  0  0  0  0
 12 45  1  0  0  0  0
 12 46  1  0  0  0  0
 13 16  1  0  0  0  0
 13 47  1  0  0  0  0
 13 48  1  0  0  0  0
 14 16  1  0  0  0  0
 14 49  1  0  0  0  0
 14 50  1  0  0  0  0
 16 51  1  0  0  0  0
 16 52  1  0  0  0  0
 17 18  1  0  0  0  0
 17 53  1  0  0  0  0
 17 54  1  0  0  0  0
 18 19  1  0  0  0  0
 18 55  1  0  0  0  0
 18 56  1  0  0  0  0
 19 20  1  0  0  0  0
 19 21  1  0  0  0  0
 19 22  1  0  0  0  0
 20 23  2  0  0  0  0
 20 25  1  0  0  0  0
 21 24  2  0  0  0  0
 21 26  1  0  0  0  0
 23 27  1  0  0  0  0
 23 57  1  0  0  0  0
 24 28  1  0  0  0  0
 24 58  1  0  0  0  0
 25 29  2  0  0  0  0
 25 59  1  0  0  0  0
 26 30  2  0  0  0  0
 26 60  1  0  0  0  0
 27 31  2  0  0  0  0
 27 61  1  0  0  0  0
 28 32  2  0  0  0  0
 28 62  1  0  0  0  0
 29 31  1  0  0  0  0
 29 63  1  0  0  0  0
 30 32  1  0  0  0  0
 30 64  1  0  0  0  0
 31 65  1  0  0  0  0
 32 66  1  0  0  0  0
M  END
>  <DRUGBANK_ID>
DB12492

>  <COMMON_NAME>
Piritramide

>  <CAS_NUMBER>
302-41-0

>  <UNII>
4RP92LYZ2F

>  <SYNONYMS>
Piritramida; Piritramide; Piritramidum

$$$$
