
 OpenBabel10282417123D

 24 25  0  0  1  0  0  0  0  0999 V2000
    0.9386   -0.1244    0.0446 C   0  0  0  0  0  0  0  0  0  0  0  0
    0.3603   -0.1886   -1.3832 C   0  0  2  0  0  0  0  0  0  0  0  0
   -0.6634    0.9539   -1.6211 C   0  0  1  0  0  0  0  0  0  0  0  0
   -1.4818    0.7134   -2.8973 C   0  0  1  0  0  0  0  0  0  0  0  0
   -2.2656   -0.6076   -2.7671 C   0  0  2  0  0  0  0  0  0  0  0  0
   -1.3665   -1.7158   -2.3961 C   0  0  0  0  0  0  0  0  0  0  0  0
   -1.5286   -3.0226   -2.4809 N   0  0  0  0  0  0  0  0  0  0  0  0
   -0.4058   -3.5790   -1.9146 N   0  0  0  0  0  0  0  0  0  0  0  0
    0.4342   -2.6415   -1.4901 N   0  0  0  0  0  0  0  0  0  0  0  0
   -0.1899   -1.4815   -1.7503 N   0  0  0  0  0  0  0  0  0  0  0  0
    0.5226   -1.1775    0.9026 O   0  0  0  0  0  0  0  0  0  0  0  0
   -1.6056    1.0695   -0.5428 O   0  0  0  0  0  0  0  0  0  0  0  0
   -2.4050    1.7988   -3.0837 O   0  0  0  0  0  0  0  0  0  0  0  0
   -2.8893   -0.9047   -4.0109 O   0  0  0  0  0  0  0  0  0  0  0  0
    1.1828   -0.0254   -2.0950 H   0  0  0  0  0  0  0  0  0  0  0  0
   -0.1389    1.9157   -1.6870 H   0  0  0  0  0  0  0  0  0  0  0  0
   -0.8214    0.7002   -3.7738 H   0  0  0  0  0  0  0  0  0  0  0  0
   -3.0573   -0.5204   -2.0147 H   0  0  0  0  0  0  0  0  0  0  0  0
    0.6641    0.8155    0.5362 H   0  0  0  0  0  0  0  0  0  0  0  0
    2.0331   -0.1310    0.0094 H   0  0  0  0  0  0  0  0  0  0  0  0
    0.7304   -2.0283    0.4599 H   0  0  0  0  0  0  0  0  0  0  0  0
   -1.4483    1.9171   -0.0857 H   0  0  0  0  0  0  0  0  0  0  0  0
   -3.0029    1.7898   -2.3112 H   0  0  0  0  0  0  0  0  0  0  0  0
   -3.5706   -0.2199   -4.1323 H   0  0  0  0  0  0  0  0  0  0  0  0
  1 19  1  0  0  0  0
  1 20  1  0  0  0  0
  2  1  1  0  0  0  0
  2 15  1  6  0  0  0
  3  2  1  0  0  0  0
  3 16  1  6  0  0  0
  3 12  1  0  0  0  0
  4  3  1  0  0  0  0
  4 13  1  0  0  0  0
  4 17  1  6  0  0  0
  5  4  1  0  0  0  0
  5 18  1  1  0  0  0
  5 14  1  0  0  0  0
  6  5  1  0  0  0  0
  7  6  2  0  0  0  0
  8  7  1  0  0  0  0
  9  8  2  0  0  0  0
 10  2  1  0  0  0  0
 10  6  1  0  0  0  0
 10  9  1  0  0  0  0
 11  1  1  0  0  0  0
 11 21  1  0  0  0  0
 12 22  1  0  0  0  0
 13 23  1  0  0  0  0
 14 24  1  0  0  0  0
M  END
>  <DRUGBANK_ID>
DB02294

>  <SECONDARY_ACCESSION_NUMBERS>
EXPT01666

>  <COMMON_NAME>
(5R,6S,7S,8S)-5-hydroxymethyl-6,7,8-trihydroxy-tetrazolo[1,5-A]piperidine

$$$$
