
 OpenBabel10282417223D

 53 56  0  0  1  0  0  0  0  0999 V2000
    0.8831   -0.0350   -0.1192 C   0  0  0  0  0  0  0  0  0  0  0  0
    0.3928    1.3972   -0.2566 C   0  0  1  0  0  0  0  0  0  0  0  0
    0.9342    1.9473   -1.5219 N   0  0  0  0  0  0  0  0  0  0  0  0
    0.0891    2.4372   -2.6127 C   0  0  0  0  0  0  0  0  0  0  0  0
    0.2252    3.9403   -2.8091 C   0  0  0  0  0  0  0  0  0  0  0  0
   -0.8388    4.8039   -2.5573 C   0  0  0  0  0  0  0  0  0  0  0  0
   -0.6589    6.2009   -2.5978 C   0  0  0  0  0  0  0  0  0  0  0  0
    0.6107    6.7339   -2.8529 C   0  0  0  0  0  0  0  0  0  0  0  0
    1.6796    5.8883   -3.0761 C   0  0  0  0  0  0  0  0  0  0  0  0
    1.4493    4.5259   -3.1575 C   0  0  0  0  0  0  0  0  0  0  0  0
   -1.8606    7.0361   -2.3129 C   0  0  0  0  0  0  0  0  0  0  0  0
   -1.6759    8.3750   -2.3712 O   0  0  0  0  0  0  0  0  0  0  0  0
   -2.9320    6.5459   -2.0445 O   0  0  0  0  0  0  0  0  0  0  0  0
    2.2640    2.3701   -1.4842 C   0  0  0  0  0  0  0  0  0  0  0  0
    2.7057    2.9930   -0.5215 O   0  0  0  0  0  0  0  0  0  0  0  0
    3.1581    1.8207   -2.6215 C   0  0  0  0  0  0  0  0  0  0  0  0
    3.5483    0.5482   -2.2248 C   0  0  0  0  0  0  0  0  0  0  0  0
    4.3602    0.5982   -1.0633 C   0  0  0  0  0  0  0  0  0  0  0  0
    5.2344    1.6969   -1.0272 C   0  0  0  0  0  0  0  0  0  0  0  0
    5.6547    2.1783    0.1990 C   0  0  0  0  0  0  0  0  0  0  0  0
    5.0780    1.7338    1.3916 C   0  0  0  0  0  0  0  0  0  0  0  0
    4.1900    0.6765    1.3663 C   0  0  0  0  0  0  0  0  0  0  0  0
    4.0071   -0.0145    0.1671 C   0  0  0  0  0  0  0  0  0  0  0  0
    5.3991    2.4787   -2.1021 N   0  0  0  0  0  0  0  0  0  0  0  0
    4.3062    2.5582   -2.8897 C   0  0  0  0  0  0  0  0  0  0  0  0
   -1.0982    1.3649   -0.1088 C   0  0  0  0  0  0  0  0  0  0  0  0
   -1.8104    0.1487   -0.0903 C   0  0  0  0  0  0  0  0  0  0  0  0
   -3.1799    0.1334    0.0321 C   0  0  0  0  0  0  0  0  0  0  0  0
   -3.8452    1.3411    0.1271 C   0  0  0  0  0  0  0  0  0  0  0  0
   -5.1793    1.3314    0.1867 F   0  0  0  0  0  0  0  0  0  0  0  0
   -3.1638    2.5566    0.1414 C   0  0  0  0  0  0  0  0  0  0  0  0
   -1.7837    2.5719    0.0223 C   0  0  0  0  0  0  0  0  0  0  0  0
    0.5523   -0.7077   -0.9181 H   0  0  0  0  0  0  0  0  0  0  0  0
    0.6996   -0.4781    0.8673 H   0  0  0  0  0  0  0  0  0  0  0  0
    1.9185    0.0120   -0.2757 H   0  0  0  0  0  0  0  0  0  0  0  0
    0.8204    1.9619    0.5869 H   0  0  0  0  0  0  0  0  0  0  0  0
    0.3590    1.8966   -3.5239 H   0  0  0  0  0  0  0  0  0  0  0  0
   -0.9545    2.1820   -2.4204 H   0  0  0  0  0  0  0  0  0  0  0  0
   -1.8179    4.3906   -2.3188 H   0  0  0  0  0  0  0  0  0  0  0  0
    0.8234    7.7920   -2.9043 H   0  0  0  0  0  0  0  0  0  0  0  0
    2.6916    6.2715   -3.1873 H   0  0  0  0  0  0  0  0  0  0  0  0
    2.2870    3.9282   -3.4642 H   0  0  0  0  0  0  0  0  0  0  0  0
   -0.7888    8.7059   -2.5740 H   0  0  0  0  0  0  0  0  0  0  0  0
    3.9760    0.0262   -3.1004 H   0  0  0  0  0  0  0  0  0  0  0  0
    6.2555    3.0791    0.2097 H   0  0  0  0  0  0  0  0  0  0  0  0
    5.2752    2.2586    2.3207 H   0  0  0  0  0  0  0  0  0  0  0  0
    3.5926    0.4443    2.2498 H   0  0  0  0  0  0  0  0  0  0  0  0
    3.3708   -0.8965    0.2114 H   0  0  0  0  0  0  0  0  0  0  0  0
    4.4563    3.1136   -3.8136 H   0  0  0  0  0  0  0  0  0  0  0  0
   -1.3249   -0.8202   -0.1744 H   0  0  0  0  0  0  0  0  0  0  0  0
   -3.7028   -0.8147    0.0458 H   0  0  0  0  0  0  0  0  0  0  0  0
   -3.7083    3.4880    0.2349 H   0  0  0  0  0  0  0  0  0  0  0  0
   -1.2394    3.5144   -0.0213 H   0  0  0  0  0  0  0  0  0  0  0  0
  1 33  1  0  0  0  0
  1 34  1  0  0  0  0
  1 35  1  0  0  0  0
  2  1  1  0  0  0  0
  2  3  1  0  0  0  0
  2 26  1  0  0  0  0
  2 36  1  1  0  0  0
  3  4  1  0  0  0  0
  3 14  1  0  0  0  0
  4  5  1  0  0  0  0
  4 37  1  0  0  0  0
  4 38  1  0  0  0  0
  5  6  2  0  0  0  0
  5 10  1  0  0  0  0
  6  7  1  0  0  0  0
  6 39  1  0  0  0  0
  7  8  2  0  0  0  0
  7 11  1  0  0  0  0
  8  9  1  0  0  0  0
  8 40  1  0  0  0  0
  9 10  2  0  0  0  0
  9 41  1  0  0  0  0
 10 42  1  0  0  0  0
 11 12  1  0  0  0  0
 11 13  2  0  0  0  0
 12 43  1  0  0  0  0
 14 15  2  0  0  0  0
 14 16  1  0  0  0  0
 16 17  2  0  0  0  0
 16 25  1  0  0  0  0
 17 18  1  0  0  0  0
 17 44  1  0  0  0  0
 18 19  2  0  0  0  0
 18 23  1  0  0  0  0
 19 20  1  0  0  0  0
 19 24  1  0  0  0  0
 20 21  2  0  0  0  0
 20 45  1  0  0  0  0
 21 22  1  0  0  0  0
 21 46  1  0  0  0  0
 22 23  2  0  0  0  0
 22 47  1  0  0  0  0
 23 48  1  0  0  0  0
 24 25  2  0  0  0  0
 25 49  1  0  0  0  0
 26 27  2  0  0  0  0
 26 32  1  0  0  0  0
 27 28  1  0  0  0  0
 27 50  1  0  0  0  0
 28 29  2  0  0  0  0
 28 51  1  0  0  0  0
 29 30  1  0  0  0  0
 29 31  1  0  0  0  0
 31 32  2  0  0  0  0
 31 52  1  0  0  0  0
 32 53  1  0  0  0  0
M  END
>  <DRUGBANK_ID>
DB15450

>  <COMMON_NAME>
PF-05105679

>  <CAS_NUMBER>
1398583-31-7

>  <UNII>
F2B10OFV7Y

$$$$
