
 OpenBabel10282417233D

 50 52  0  0  1  0  0  0  0  0999 V2000
   -1.2366    1.3768    0.5135 N   0  0  0  0  0  0  0  0  0  0  0  0
   -2.4967    0.7921    0.4063 C   0  0  0  0  0  0  0  0  0  0  0  0
   -2.6903   -0.5342    0.2147 C   0  0  0  0  0  0  0  0  0  0  0  0
   -1.4449   -1.3932   -0.0837 C   0  0  2  0  0  0  0  0  0  0  0  0
   -0.0113   -0.7287    0.1998 C   0  0  0  0  0  0  0  0  0  0  0  0
    1.2797   -1.3336    0.1677 C   0  0  0  0  0  0  0  0  0  0  0  0
    2.4284   -0.6148    0.0605 N   0  0  0  0  0  0  0  0  0  0  0  0
    2.3661    0.7259    0.0459 C   0  0  0  0  0  0  0  0  0  0  0  0
    1.1886    1.4327    0.1983 C   0  0  0  0  0  0  0  0  0  0  0  0
   -0.0071    0.6873    0.3404 C   0  0  0  0  0  0  0  0  0  0  0  0
   -3.9687   -1.3647    0.1130 C   0  0  0  0  0  0  0  0  0  0  0  0
   -3.9260   -2.5956    0.1123 O   0  0  0  0  0  0  0  0  0  0  0  0
   -5.2113   -0.8385    0.0360 N   0  0  0  0  0  0  0  0  0  0  0  0
    1.1874    2.9293    0.0601 C   0  0  0  0  0  0  0  0  0  0  0  0
   -3.5830    1.7874    0.1653 C   0  0  0  0  0  0  0  0  0  0  0  0
    1.6332   -2.6459    0.3738 O   0  0  0  0  0  0  0  0  0  0  0  0
    0.5745   -3.5608    0.3469 C   0  0  0  0  0  0  0  0  0  0  0  0
   -0.3058   -3.4389    1.5985 C   0  0  0  0  0  0  0  0  0  0  0  0
   -1.5584   -2.2240   -1.4377 C   0  0  0  0  0  0  0  0  0  0  0  0
   -1.4178   -1.7255   -2.7465 C   0  0  0  0  0  0  0  0  0  0  0  0
   -1.3408   -2.6278   -3.8126 C   0  0  0  0  0  0  0  0  0  0  0  0
   -1.2971   -4.0108   -3.6380 C   0  0  0  0  0  0  0  0  0  0  0  0
   -1.4147   -4.5399   -2.3737 C   0  0  0  0  0  0  0  0  0  0  0  0
   -1.7009   -3.6660   -1.3296 C   0  0  0  0  0  0  0  0  0  0  0  0
   -1.3432   -0.4467   -3.2583 O   0  0  0  0  0  0  0  0  0  0  0  0
   -1.3612    0.5342   -2.2814 C   0  0  0  0  0  0  0  0  0  0  0  0
   -1.2267   -4.8798   -4.7519 C   0  0  0  0  0  0  0  0  0  0  0  0
   -1.2286   -5.6252   -5.6609 N   0  0  0  0  0  0  0  0  0  0  0  0
   -1.2014    2.3405    0.1861 H   0  0  0  0  0  0  0  0  0  0  0  0
   -1.6514   -2.0714    0.7172 H   0  0  0  0  0  0  0  0  0  0  0  0
    3.3279    1.2221   -0.0722 H   0  0  0  0  0  0  0  0  0  0  0  0
   -5.5329    0.1042    0.0876 H   0  0  0  0  0  0  0  0  0  0  0  0
   -5.9687   -1.5045   -0.0207 H   0  0  0  0  0  0  0  0  0  0  0  0
    0.6723    3.2293   -0.8631 H   0  0  0  0  0  0  0  0  0  0  0  0
    0.6732    3.3771    0.9134 H   0  0  0  0  0  0  0  0  0  0  0  0
    2.1982    3.3485    0.0159 H   0  0  0  0  0  0  0  0  0  0  0  0
   -3.7266    2.4545    1.0090 H   0  0  0  0  0  0  0  0  0  0  0  0
   -3.4157    2.3262   -0.7760 H   0  0  0  0  0  0  0  0  0  0  0  0
   -4.5184    1.3250   -0.0246 H   0  0  0  0  0  0  0  0  0  0  0  0
    0.2141   -3.3362   -0.6354 H   0  0  0  0  0  0  0  0  0  0  0  0
    0.8419   -4.6119    0.1960 H   0  0  0  0  0  0  0  0  0  0  0  0
   -0.3919   -2.4070    1.9607 H   0  0  0  0  0  0  0  0  0  0  0  0
   -1.3217   -3.8435    1.4803 H   0  0  0  0  0  0  0  0  0  0  0  0
    0.1405   -3.9232    2.4529 H   0  0  0  0  0  0  0  0  0  0  0  0
   -1.2984   -2.2039   -4.8105 H   0  0  0  0  0  0  0  0  0  0  0  0
   -1.2687   -5.6047   -2.1825 H   0  0  0  0  0  0  0  0  0  0  0  0
   -1.8300   -4.1765   -0.3755 H   0  0  0  0  0  0  0  0  0  0  0  0
   -2.2994    0.3844   -1.7799 H   0  0  0  0  0  0  0  0  0  0  0  0
   -0.4277    0.3971   -1.7707 H   0  0  0  0  0  0  0  0  0  0  0  0
   -1.3713    1.5951   -2.5305 H   0  0  0  0  0  0  0  0  0  0  0  0
  1  2  1  0  0  0  0
  1 10  1  0  0  0  0
  1 29  1  0  0  0  0
  2  3  2  0  0  0  0
  2 15  1  0  0  0  0
  3  4  1  0  0  0  0
  3 11  1  0  0  0  0
  4  5  1  0  0  0  0
  4 30  1  1  0  0  0
  4 19  1  0  0  0  0
  5  6  1  0  0  0  0
  5 10  2  0  0  0  0
  6  7  2  0  0  0  0
  6 16  1  0  0  0  0
  7  8  1  0  0  0  0
  8  9  2  0  0  0  0
  8 31  1  0  0  0  0
  9 10  1  0  0  0  0
  9 14  1  0  0  0  0
 11 12  2  0  0  0  0
 11 13  1  0  0  0  0
 13 32  1  0  0  0  0
 13 33  1  0  0  0  0
 14 34  1  0  0  0  0
 14 35  1  0  0  0  0
 14 36  1  0  0  0  0
 15 37  1  0  0  0  0
 15 38  1  0  0  0  0
 15 39  1  0  0  0  0
 16 17  1  0  0  0  0
 17 18  1  0  0  0  0
 17 40  1  0  0  0  0
 17 41  1  0  0  0  0
 18 42  1  0  0  0  0
 18 43  1  0  0  0  0
 18 44  1  0  0  0  0
 19 20  1  0  0  0  0
 19 24  2  0  0  0  0
 20 21  2  0  0  0  0
 20 25  1  0  0  0  0
 21 22  1  0  0  0  0
 21 45  1  0  0  0  0
 22 23  2  0  0  0  0
 22 27  1  0  0  0  0
 23 24  1  0  0  0  0
 23 46  1  0  0  0  0
 24 47  1  0  0  0  0
 25 26  1  0  0  0  0
 26 48  1  0  0  0  0
 26 49  1  0  0  0  0
 26 50  1  0  0  0  0
 27 28  3  0  0  0  0
M  END
>  <DRUGBANK_ID>
DB16165

>  <COMMON_NAME>
Finerenone

>  <CAS_NUMBER>
1050477-31-0

>  <UNII>
DE2O63YV8R

>  <SYNONYMS>
Finerenone

$$$$
