HQQ
 OpenBabel10282417133D

 37 39  0  0  0  0  0  0  0  0999 V2000
    0.7111    1.1504   -0.2364 N   0  0  0  0  0  0  0  0  0  0  0  0
    1.3933   -0.0050    0.0365 C   0  0  0  0  0  0  0  0  0  0  0  0
    2.4982   -0.0009    0.5586 O   0  0  0  0  0  0  0  0  0  0  0  0
    0.7190   -1.1656   -0.2384 N   0  0  0  0  0  0  0  0  0  0  0  0
   -0.5963   -1.2472    0.1419 C   0  0  0  0  0  0  0  0  0  0  0  0
   -1.0316   -2.2286    0.7468 O   0  0  0  0  0  0  0  0  0  0  0  0
   -1.3911   -0.0187   -0.2849 C   0  0  0  0  0  0  0  0  0  0  0  0
   -0.6040    1.2186    0.1447 C   0  0  0  0  0  0  0  0  0  0  0  0
   -1.0474    2.1962    0.7479 O   0  0  0  0  0  0  0  0  0  0  0  0
   -1.3122   -0.0110   -1.8346 C   0  0  0  0  0  0  0  0  0  0  0  0
   -2.8218   -0.0015    0.2267 C   0  0  0  0  0  0  0  0  0  0  0  0
   -3.0565   -0.0420    1.6059 C   0  0  0  0  0  0  0  0  0  0  0  0
   -4.3498    0.0284    2.1023 C   0  0  0  0  0  0  0  0  0  0  0  0
   -5.4355    0.1829    1.2397 C   0  0  0  0  0  0  0  0  0  0  0  0
   -5.2130    0.2704   -0.1325 C   0  0  0  0  0  0  0  0  0  0  0  0
   -3.9242    0.1178   -0.6360 C   0  0  0  0  0  0  0  0  0  0  0  0
   -6.7560    0.1893    1.6296 O   0  0  0  0  0  0  0  0  0  0  0  0
   -7.0459    0.1326    2.9710 C   0  0  0  0  0  0  0  0  0  0  0  0
   -6.6150    1.1303    3.8491 C   0  0  0  0  0  0  0  0  0  0  0  0
   -6.9608    1.0688    5.1952 C   0  0  0  0  0  0  0  0  0  0  0  0
   -7.8046    0.0559    5.6465 C   0  0  0  0  0  0  0  0  0  0  0  0
   -8.2805   -0.9099    4.7571 C   0  0  0  0  0  0  0  0  0  0  0  0
   -7.8652   -0.8999    3.4248 C   0  0  0  0  0  0  0  0  0  0  0  0
    1.2332    2.0047   -0.1032 H   0  0  0  0  0  0  0  0  0  0  0  0
    1.2496   -2.0150   -0.1083 H   0  0  0  0  0  0  0  0  0  0  0  0
   -1.7808   -0.9054   -2.2548 H   0  0  0  0  0  0  0  0  0  0  0  0
   -1.7723    0.8926   -2.2457 H   0  0  0  0  0  0  0  0  0  0  0  0
   -0.2814   -0.0093   -2.2091 H   0  0  0  0  0  0  0  0  0  0  0  0
   -2.2394   -0.1382    2.3181 H   0  0  0  0  0  0  0  0  0  0  0  0
   -4.4689   -0.0343    3.1775 H   0  0  0  0  0  0  0  0  0  0  0  0
   -6.0355    0.4450   -0.8214 H   0  0  0  0  0  0  0  0  0  0  0  0
   -3.8098    0.0980   -1.7164 H   0  0  0  0  0  0  0  0  0  0  0  0
   -5.9755    1.9326    3.4911 H   0  0  0  0  0  0  0  0  0  0  0  0
   -6.5860    1.8218    5.8821 H   0  0  0  0  0  0  0  0  0  0  0  0
   -8.0962    0.0225    6.6928 H   0  0  0  0  0  0  0  0  0  0  0  0
   -8.9832   -1.6634    5.1024 H   0  0  0  0  0  0  0  0  0  0  0  0
   -8.1812   -1.6902    2.7491 H   0  0  0  0  0  0  0  0  0  0  0  0
  1  2  1  0  0  0  0
  1  8  1  0  0  0  0
  1 24  1  0  0  0  0
  2  3  2  0  0  0  0
  2  4  1  0  0  0  0
  4  5  1  0  0  0  0
  4 25  1  0  0  0  0
  5  6  2  0  0  0  0
  5  7  1  0  0  0  0
  7  8  1  0  0  0  0
  7 10  1  0  0  0  0
  7 11  1  0  0  0  0
  8  9  2  0  0  0  0
 10 26  1  0  0  0  0
 10 27  1  0  0  0  0
 10 28  1  0  0  0  0
 11 12  2  0  0  0  0
 11 16  1  0  0  0  0
 12 13  1  0  0  0  0
 12 29  1  0  0  0  0
 13 14  2  0  0  0  0
 13 30  1  0  0  0  0
 14 15  1  0  0  0  0
 14 17  1  0  0  0  0
 15 16  2  0  0  0  0
 15 31  1  0  0  0  0
 16 32  1  0  0  0  0
 17 18  1  0  0  0  0
 18 19  2  0  0  0  0
 18 23  1  0  0  0  0
 19 20  1  0  0  0  0
 19 33  1  0  0  0  0
 20 21  2  0  0  0  0
 20 34  1  0  0  0  0
 21 22  1  0  0  0  0
 21 35  1  0  0  0  0
 22 23  2  0  0  0  0
 22 36  1  0  0  0  0
 23 37  1  0  0  0  0
M  END
>  <DRUGBANK_ID>
DB03368

>  <SECONDARY_ACCESSION_NUMBERS>
EXPT01778

>  <COMMON_NAME>
5-Methyl-5-(4-Phenoxy-Phenyl)-Pyrimidine-2,4,6-Trione

>  <UNII>
4MPM14604G

$$$$
