1207
 OpenBabel10282417113D

 43 44  0  0  0  0  0  0  0  0999 V2000
    0.9900   -0.1259    0.1612 F   0  0  0  0  0  0  0  0  0  0  0  0
    2.7662    0.6962    1.1162 F   0  0  0  0  0  0  0  0  0  0  0  0
    2.7677   -1.3565    0.3957 F   0  0  0  0  0  0  0  0  0  0  0  0
    4.7520    0.5906   -5.9136 O   0  0  0  0  0  0  0  0  0  0  0  0
    7.5952   -1.9395  -10.3365 O   0  0  0  0  0  0  0  0  0  0  0  0
    6.6895    0.0964  -10.0586 O   0  0  0  0  0  0  0  0  0  0  0  0
    4.8439   -0.7668   -5.6249 N   0  0  0  0  0  0  0  0  0  0  0  0
    6.3274   -4.2507   -3.6131 N   0  0  0  0  0  0  0  0  0  0  0  0
    6.7822    0.8531   -7.2119 C   0  0  0  0  0  0  0  0  0  0  0  0
    7.2323   -0.6113   -7.1579 C   0  0  0  0  0  0  0  0  0  0  0  0
    5.2668    0.9927   -7.1690 C   0  0  0  0  0  0  0  0  0  0  0  0
    6.5522   -1.4779   -8.2223 C   0  0  0  0  0  0  0  0  0  0  0  0
    3.8079   -0.0776   -3.4272 C   0  0  0  0  0  0  0  0  0  0  0  0
    4.4504   -1.0507   -4.4102 C   0  0  0  0  0  0  0  0  0  0  0  0
    3.4093   -0.5060   -2.1595 C   0  0  0  0  0  0  0  0  0  0  0  0
    2.8362    0.3887   -1.2377 C   0  0  0  0  0  0  0  0  0  0  0  0
    4.7116   -2.4678   -3.9755 C   0  0  0  0  0  0  0  0  0  0  0  0
    3.6022    1.2849   -3.7177 C   0  0  0  0  0  0  0  0  0  0  0  0
    6.9385   -1.0197   -9.6078 C   0  0  0  0  0  0  0  0  0  0  0  0
    2.7109    1.7447   -1.5579 C   0  0  0  0  0  0  0  0  0  0  0  0
    3.1347    2.1999   -2.7850 C   0  0  0  0  0  0  0  0  0  0  0  0
    2.3479   -0.0975    0.0952 C   0  0  0  0  0  0  0  0  0  0  0  0
    3.6781   -3.3459   -3.6458 C   0  0  0  0  0  0  0  0  0  0  0  0
    6.0119   -2.9651   -3.9322 C   0  0  0  0  0  0  0  0  0  0  0  0
    3.9741   -4.6677   -3.3052 C   0  0  0  0  0  0  0  0  0  0  0  0
    5.2984   -5.0762   -3.3220 C   0  0  0  0  0  0  0  0  0  0  0  0
    7.7036   -2.7999   -9.8919 H   0  0  0  0  0  0  0  0  0  0  0  0
    7.1653    1.3340   -8.1170 H   0  0  0  0  0  0  0  0  0  0  0  0
    7.2295    1.3999   -6.3729 H   0  0  0  0  0  0  0  0  0  0  0  0
    8.3203   -0.6677   -7.2505 H   0  0  0  0  0  0  0  0  0  0  0  0
    7.0282   -1.0180   -6.1635 H   0  0  0  0  0  0  0  0  0  0  0  0
    4.7318    0.4838   -7.9739 H   0  0  0  0  0  0  0  0  0  0  0  0
    5.0157    2.0554   -7.2761 H   0  0  0  0  0  0  0  0  0  0  0  0
    6.8130   -2.5280   -8.0620 H   0  0  0  0  0  0  0  0  0  0  0  0
    5.4579   -1.4523   -8.1611 H   0  0  0  0  0  0  0  0  0  0  0  0
    3.5180   -1.5404   -1.8471 H   0  0  0  0  0  0  0  0  0  0  0  0
    3.7772    1.7384   -4.6805 H   0  0  0  0  0  0  0  0  0  0  0  0
    2.2749    2.4488   -0.8551 H   0  0  0  0  0  0  0  0  0  0  0  0
    3.0992    3.2536   -3.0486 H   0  0  0  0  0  0  0  0  0  0  0  0
    2.6457   -3.0115   -3.6477 H   0  0  0  0  0  0  0  0  0  0  0  0
    6.8719   -2.3368   -4.1467 H   0  0  0  0  0  0  0  0  0  0  0  0
    3.1868   -5.3682   -3.0468 H   0  0  0  0  0  0  0  0  0  0  0  0
    5.5696   -6.1068   -3.1027 H   0  0  0  0  0  0  0  0  0  0  0  0
  1 22  1  0  0  0  0
  2 22  1  0  0  0  0
  3 22  1  0  0  0  0
  4  7  1  0  0  0  0
  4 11  1  0  0  0  0
  5 19  1  0  0  0  0
  5 27  1  0  0  0  0
  6 19  2  0  0  0  0
  7 14  2  0  0  0  0
  8 24  1  0  0  0  0
  8 26  2  0  0  0  0
  9 10  1  0  0  0  0
  9 11  1  0  0  0  0
  9 28  1  0  0  0  0
  9 29  1  0  0  0  0
 10 12  1  0  0  0  0
 10 30  1  0  0  0  0
 10 31  1  0  0  0  0
 11 32  1  0  0  0  0
 11 33  1  0  0  0  0
 12 19  1  0  0  0  0
 12 34  1  0  0  0  0
 12 35  1  0  0  0  0
 13 14  1  0  0  0  0
 13 15  2  0  0  0  0
 13 18  1  0  0  0  0
 14 17  1  0  0  0  0
 15 16  1  0  0  0  0
 15 36  1  0  0  0  0
 16 20  2  0  0  0  0
 16 22  1  0  0  0  0
 17 23  1  0  0  0  0
 17 24  2  0  0  0  0
 18 21  2  0  0  0  0
 18 37  1  0  0  0  0
 20 21  1  0  0  0  0
 20 38  1  0  0  0  0
 21 39  1  0  0  0  0
 23 25  2  0  0  0  0
 23 40  1  0  0  0  0
 24 41  1  0  0  0  0
 25 26  1  0  0  0  0
 25 42  1  0  0  0  0
 26 43  1  0  0  0  0
M  END
>  <DRUGBANK_ID>
DB01207

>  <SECONDARY_ACCESSION_NUMBERS>
APRD00271

>  <COMMON_NAME>
Ridogrel

>  <CAS_NUMBER>
110140-89-1

>  <UNII>
QTS5QOO42O

>  <SYNONYMS>
Ridogrel; Ridogrelum

$$$$
