
 OpenBabel10282417133D

 18 19  0  0  1  0  0  0  0  0999 V2000
   -1.0034   -1.0507    0.4912 C   0  0  0  0  0  0  0  0  0  0  0  0
   -1.3528    0.4479    0.6131 C   0  0  0  0  0  0  0  0  0  0  0  0
   -0.0483    0.1039   -1.3632 C   0  0  0  0  0  0  0  0  0  0  0  0
    1.4424   -0.5072    0.4259 C   0  0  0  0  0  0  0  0  0  0  0  0
    0.2551   -1.0482   -0.3998 C   0  0  1  0  0  0  0  0  0  0  0  0
   -0.2796    1.1232   -0.2487 C   0  0  2  0  0  0  0  0  0  0  0  0
    1.0201    0.9417    0.5077 C   0  0  0  0  0  0  0  0  0  0  0  0
    1.6097    1.8140    1.1280 O   0  0  0  0  0  0  0  0  0  0  0  0
    0.4617   -2.0123   -0.8689 H   0  0  0  0  0  0  0  0  0  0  0  0
   -0.4704    2.1505   -0.5571 H   0  0  0  0  0  0  0  0  0  0  0  0
   -0.8148   -1.5047    1.4696 H   0  0  0  0  0  0  0  0  0  0  0  0
   -1.8238   -1.5976    0.0139 H   0  0  0  0  0  0  0  0  0  0  0  0
   -2.3575    0.6354    0.2205 H   0  0  0  0  0  0  0  0  0  0  0  0
   -1.3170    0.7779    1.6568 H   0  0  0  0  0  0  0  0  0  0  0  0
   -0.9385   -0.0679   -1.9782 H   0  0  0  0  0  0  0  0  0  0  0  0
    0.8012    0.3507   -2.0104 H   0  0  0  0  0  0  0  0  0  0  0  0
    2.3900   -0.5919   -0.1095 H   0  0  0  0  0  0  0  0  0  0  0  0
    1.4928   -0.9555    1.4208 H   0  0  0  0  0  0  0  0  0  0  0  0
  1 11  1  0  0  0  0
  1 12  1  0  0  0  0
  2  1  1  0  0  0  0
  2 13  1  0  0  0  0
  2 14  1  0  0  0  0
  3 15  1  0  0  0  0
  3 16  1  0  0  0  0
  4 17  1  0  0  0  0
  4 18  1  0  0  0  0
  5  1  1  0  0  0  0
  5  3  1  0  0  0  0
  5  4  1  0  0  0  0
  5  9  1  6  0  0  0
  6  2  1  0  0  0  0
  6  3  1  0  0  0  0
  6 10  1  6  0  0  0
  7  4  1  0  0  0  0
  7  6  1  0  0  0  0
  8  7  2  0  0  0  0
M  END
>  <DRUGBANK_ID>
DB03540

>  <SECONDARY_ACCESSION_NUMBERS>
EXPT02311

>  <COMMON_NAME>
Norcamphor

$$$$
