
 OpenBabel10282417143D

 22 22  0  0  1  0  0  0  0  0999 V2000
    3.2292   -0.4886   -1.6779 O   0  0  0  0  0  0  0  0  0  0  0  0
    2.3318   -0.9777   -2.6685 C   0  0  0  0  0  0  0  0  0  0  0  0
    0.9366   -0.4019   -2.4209 C   0  0  1  0  0  0  0  0  0  0  0  0
    1.0278    1.0351   -2.3030 O   0  0  0  0  0  0  0  0  0  0  0  0
   -0.1578    1.6890   -2.1534 C   0  0  0  0  0  0  0  0  0  0  0  0
   -0.3423    2.5151   -1.2673 O   0  0  0  0  0  0  0  0  0  0  0  0
   -1.1786    1.3551   -3.2391 C   0  0  2  0  0  0  0  0  0  0  0  0
   -2.4560    1.9644   -3.0723 O   0  0  0  0  0  0  0  0  0  0  0  0
   -1.3654   -0.1588   -3.2926 C   0  0  1  0  0  0  0  0  0  0  0  0
   -2.2835   -0.5311   -4.3246 O   0  0  0  0  0  0  0  0  0  0  0  0
   -0.0171   -0.8372   -3.5277 C   0  0  2  0  0  0  0  0  0  0  0  0
   -0.1334   -2.2588   -3.5437 O   0  0  0  0  0  0  0  0  0  0  0  0
    3.1012    0.4790   -1.6495 H   0  0  0  0  0  0  0  0  0  0  0  0
    2.7170   -0.6858   -3.6505 H   0  0  0  0  0  0  0  0  0  0  0  0
    2.3210   -2.0717   -2.6116 H   0  0  0  0  0  0  0  0  0  0  0  0
    0.5948   -0.7750   -1.4455 H   0  0  0  0  0  0  0  0  0  0  0  0
   -0.7892    1.7397   -4.1900 H   0  0  0  0  0  0  0  0  0  0  0  0
   -2.8120    1.6763   -2.2113 H   0  0  0  0  0  0  0  0  0  0  0  0
   -1.8025   -0.5152   -2.3515 H   0  0  0  0  0  0  0  0  0  0  0  0
   -2.4722    0.2554   -4.8694 H   0  0  0  0  0  0  0  0  0  0  0  0
    0.3666   -0.5342   -4.5104 H   0  0  0  0  0  0  0  0  0  0  0  0
   -0.5313   -2.5582   -2.7076 H   0  0  0  0  0  0  0  0  0  0  0  0
  1  2  1  0  0  0  0
  1 13  1  0  0  0  0
  2 14  1  0  0  0  0
  2 15  1  0  0  0  0
  3  4  1  0  0  0  0
  3 11  1  0  0  0  0
  3 16  1  1  0  0  0
  3  2  1  0  0  0  0
  4  5  1  0  0  0  0
  5  6  2  0  0  0  0
  5  7  1  0  0  0  0
  7  8  1  0  0  0  0
  7  9  1  0  0  0  0
  7 17  1  6  0  0  0
  8 18  1  0  0  0  0
  9 11  1  0  0  0  0
  9 19  1  1  0  0  0
  9 10  1  0  0  0  0
 10 20  1  0  0  0  0
 11 21  1  6  0  0  0
 11 12  1  0  0  0  0
 12 22  1  0  0  0  0
M  END
>  <DRUGBANK_ID>
DB04564

>  <SECONDARY_ACCESSION_NUMBERS>
EXPT02023

>  <COMMON_NAME>
Gluconolactone

>  <CAS_NUMBER>
90-80-2

>  <UNII>
WQ29KQ9POT

>  <SYNONYMS>
1,5-D-gluconolactone; 1,5-Gluconolactone; D-gluconic acid delta-lactone; D-glucono-1,5-lactone; D-threo-Aldono-1,5-lactone; delta-gluconolactone; GDL; Gluconic acid lactone; Glucono delta-lactone; Glucono-delta-lactone; Gluconolactone

$$$$
