PM5
 OpenBabel10282417173D

 64 63  0  0  0  0  0  0  0  0999 V2000
    1.8633   -0.5758    2.1911 O   0  0  0  0  0  0  0  0  0  0  0  0
    0.7528   -1.0179    1.0805 P   0  0  2  0  0  0  0  0  0  0  0  0
    1.3113   -1.3047   -0.2731 O   0  0  0  0  0  0  0  0  0  0  0  0
   -0.1273    0.3277    1.0416 O   0  0  0  0  0  0  0  0  0  0  0  0
   -0.4559    1.1123   -0.0931 C   0  0  0  0  0  0  0  0  0  0  0  0
    0.4620    2.2968    0.0630 C   0  0  0  0  0  0  0  0  0  0  0  0
    1.8748    1.7093    0.0073 C   0  0  0  0  0  0  0  0  0  0  0  0
    0.3419    3.1834   -1.1561 C   0  0  0  0  0  0  0  0  0  0  0  0
    0.1511    3.0687    1.3963 C   0  0  1  0  0  0  0  0  0  0  0  0
   -1.0063    3.9104    1.3315 O   0  0  0  0  0  0  0  0  0  0  0  0
   -0.1344    2.2437    2.6597 C   0  0  0  0  0  0  0  0  0  0  0  0
    0.7819    2.0749    3.4784 O   0  0  0  0  0  0  0  0  0  0  0  0
   -1.3646    1.6463    2.8766 N   0  0  0  0  0  0  0  0  0  0  0  0
   -2.4808    1.1703    2.0597 C   0  0  0  0  0  0  0  0  0  0  0  0
   -2.4890   -0.3146    1.5709 C   0  0  0  0  0  0  0  0  0  0  0  0
   -2.4922   -1.3805    2.6313 C   0  0  0  0  0  0  0  0  0  0  0  0
   -3.3893   -2.2301    2.5969 O   0  0  0  0  0  0  0  0  0  0  0  0
   -1.4808   -1.5749    3.5263 N   0  0  0  0  0  0  0  0  0  0  0  0
   -0.3044   -0.8562    4.0325 C   0  0  0  0  0  0  0  0  0  0  0  0
   -0.4009    0.0515    5.2715 C   0  0  0  0  0  0  0  0  0  0  0  0
   -0.7939   -0.6132    6.8485 S   0  0  0  0  0  0  0  0  0  0  0  0
   -2.0555   -1.7709    6.4790 C   0  0  0  0  0  0  0  0  0  0  0  0
   -2.8289   -1.6276    5.5692 O   0  0  0  0  0  0  0  0  0  0  0  0
   -2.1958   -2.9060    7.4531 C   0  0  0  0  0  0  0  0  0  0  0  0
   -1.0199   -3.8810    7.4784 C   0  0  0  0  0  0  0  0  0  0  0  0
    0.3146   -3.2448    7.8859 C   0  0  0  0  0  0  0  0  0  0  0  0
    0.1972   -2.4686    9.2144 C   0  0  0  0  0  0  0  0  0  0  0  0
   -0.1361   -3.3993   10.3683 C   0  0  0  0  0  0  0  0  0  0  0  0
    0.9632   -4.4294   10.5201 C   0  0  0  0  0  0  0  0  0  0  0  0
   -0.0503   -1.8793    1.8502 H   0  0  0  0  0  0  0  0  0  0  0  0
    1.0116    3.7097    1.6371 H   0  0  0  0  0  0  0  0  0  0  0  0
    1.9557    0.3819    2.4077 H   0  0  0  0  0  0  0  0  0  0  0  0
   -0.4251    0.5107   -1.0007 H   0  0  0  0  0  0  0  0  0  0  0  0
   -1.4797    1.5061   -0.1118 H   0  0  0  0  0  0  0  0  0  0  0  0
    1.9940    1.0981   -0.8976 H   0  0  0  0  0  0  0  0  0  0  0  0
    2.6818    2.4229    0.1142 H   0  0  0  0  0  0  0  0  0  0  0  0
    2.0443    1.0444    0.8204 H   0  0  0  0  0  0  0  0  0  0  0  0
   -0.6018    3.7278   -1.1910 H   0  0  0  0  0  0  0  0  0  0  0  0
    1.1773    3.8877   -1.1577 H   0  0  0  0  0  0  0  0  0  0  0  0
    0.4023    2.5649   -2.0575 H   0  0  0  0  0  0  0  0  0  0  0  0
   -0.8817    4.5601    0.6289 H   0  0  0  0  0  0  0  0  0  0  0  0
   -1.4345    1.1811    3.7385 H   0  0  0  0  0  0  0  0  0  0  0  0
   -3.3627    1.2735    2.6945 H   0  0  0  0  0  0  0  0  0  0  0  0
   -2.6104    1.8982    1.2670 H   0  0  0  0  0  0  0  0  0  0  0  0
   -3.3719   -0.4255    0.9269 H   0  0  0  0  0  0  0  0  0  0  0  0
   -1.7667   -0.7149    0.8585 H   0  0  0  0  0  0  0  0  0  0  0  0
   -1.7983   -2.3118    4.1454 H   0  0  0  0  0  0  0  0  0  0  0  0
    0.5220   -1.5712    4.1310 H   0  0  0  0  0  0  0  0  0  0  0  0
   -0.0225   -0.1948    3.2454 H   0  0  0  0  0  0  0  0  0  0  0  0
    0.5434    0.6084    5.3472 H   0  0  0  0  0  0  0  0  0  0  0  0
   -1.1829    0.7991    5.2497 H   0  0  0  0  0  0  0  0  0  0  0  0
   -2.4103   -2.4604    8.4272 H   0  0  0  0  0  0  0  0  0  0  0  0
   -3.1006   -3.4533    7.1683 H   0  0  0  0  0  0  0  0  0  0  0  0
   -1.2699   -4.6803    8.1864 H   0  0  0  0  0  0  0  0  0  0  0  0
   -0.9024   -4.3729    6.5062 H   0  0  0  0  0  0  0  0  0  0  0  0
    1.0942   -4.0074    7.9388 H   0  0  0  0  0  0  0  0  0  0  0  0
    0.7009   -2.6146    7.0810 H   0  0  0  0  0  0  0  0  0  0  0  0
    1.1226   -1.9142    9.4051 H   0  0  0  0  0  0  0  0  0  0  0  0
   -0.5865   -1.7048    9.1980 H   0  0  0  0  0  0  0  0  0  0  0  0
   -0.2520   -2.8158   11.2869 H   0  0  0  0  0  0  0  0  0  0  0  0
   -1.1012   -3.8915   10.1994 H   0  0  0  0  0  0  0  0  0  0  0  0
    1.9181   -3.9241   10.6936 H   0  0  0  0  0  0  0  0  0  0  0  0
    0.7455   -5.1072   11.3425 H   0  0  0  0  0  0  0  0  0  0  0  0
    1.0698   -5.0483    9.6245 H   0  0  0  0  0  0  0  0  0  0  0  0
  1 32  1  0  0  0  0
  2  4  1  0  0  0  0
  2 30  1  1  0  0  0
  2  3  2  0  0  0  0
  2  1  1  0  0  0  0
  4  5  1  0  0  0  0
  5  6  1  0  0  0  0
  5 33  1  0  0  0  0
  5 34  1  0  0  0  0
  6  7  1  0  0  0  0
  6  8  1  0  0  0  0
  6  9  1  0  0  0  0
  7 35  1  0  0  0  0
  7 36  1  0  0  0  0
  7 37  1  0  0  0  0
  8 38  1  0  0  0  0
  8 39  1  0  0  0  0
  8 40  1  0  0  0  0
  9 10  1  0  0  0  0
  9 11  1  0  0  0  0
  9 31  1  1  0  0  0
 10 41  1  0  0  0  0
 11 12  2  0  0  0  0
 11 13  1  0  0  0  0
 13 14  1  0  0  0  0
 13 42  1  0  0  0  0
 14 15  1  0  0  0  0
 14 43  1  0  0  0  0
 14 44  1  0  0  0  0
 15 16  1  0  0  0  0
 15 45  1  0  0  0  0
 15 46  1  0  0  0  0
 16 17  2  0  0  0  0
 16 18  1  0  0  0  0
 18 19  1  0  0  0  0
 18 47  1  0  0  0  0
 19 20  1  0  0  0  0
 19 48  1  0  0  0  0
 19 49  1  0  0  0  0
 20 21  1  0  0  0  0
 20 50  1  0  0  0  0
 20 51  1  0  0  0  0
 21 22  1  0  0  0  0
 22 23  2  0  0  0  0
 22 24  1  0  0  0  0
 24 25  1  0  0  0  0
 24 52  1  0  0  0  0
 24 53  1  0  0  0  0
 25 26  1  0  0  0  0
 25 54  1  0  0  0  0
 25 55  1  0  0  0  0
 26 27  1  0  0  0  0
 26 56  1  0  0  0  0
 26 57  1  0  0  0  0
 27 28  1  0  0  0  0
 27 58  1  0  0  0  0
 27 59  1  0  0  0  0
 28 29  1  0  0  0  0
 28 60  1  0  0  0  0
 28 61  1  0  0  0  0
 29 62  1  0  0  0  0
 29 63  1  0  0  0  0
 29 64  1  0  0  0  0
M  END
>  <DRUGBANK_ID>
DB08405

>  <COMMON_NAME>
S-(2-{[N-(2-HYDROXY-4-{[HYDROXY(OXIDO)PHOSPHINO]OXY}-3,3-DIMETHYLBUTANOYL)-BETA-ALANYL]AMINO}ETHYL) HEPTANETHIOATE

$$$$
