1623
 OpenBabel10282417123D

 59 62  0  0  0  0  0  0  0  0999 V2000
    1.0584    0.1949   -0.0000 S   0  0  0  0  0  0  0  0  0  0  0  0
    7.3512    0.3697   -0.0453 S   0  0  0  0  0  0  0  0  0  0  0  0
    0.7369   -0.4794   -1.2568 O   0  0  0  0  0  0  0  0  0  0  0  0
    0.6645   -0.3901    1.2524 O   0  0  0  0  0  0  0  0  0  0  0  0
    3.0070   -5.6490   -1.1345 N   0  0  0  0  0  0  0  0  0  0  0  0
    2.3218   -8.4622   -1.0386 N   0  0  0  0  0  0  0  0  0  0  0  0
    0.4372    1.7611   -0.1178 N   0  0  0  0  0  0  0  0  0  0  0  0
    2.2097   -6.1973   -0.0223 C   0  0  0  0  0  0  0  0  0  0  0  0
    2.6474   -6.3161   -2.3814 C   0  0  0  0  0  0  0  0  0  0  0  0
    2.5754   -7.6597    0.1703 C   0  0  0  0  0  0  0  0  0  0  0  0
    2.9577   -7.8148   -2.2179 C   0  0  0  0  0  0  0  0  0  0  0  0
    2.8293   -4.2248   -1.2333 C   0  0  0  0  0  0  0  0  0  0  0  0
    3.3702   -3.6725    0.0723 C   0  0  0  0  0  0  0  0  0  0  0  0
    0.8773   -8.5610   -1.2429 C   0  0  0  0  0  0  0  0  0  0  0  0
    4.8328   -3.4305   -0.0011 C   0  0  0  0  0  0  0  0  0  0  0  0
    5.5582   -2.2919   -0.0378 C   0  0  0  0  0  0  0  0  0  0  0  0
    4.8868   -0.9487   -0.0361 C   0  0  0  0  0  0  0  0  0  0  0  0
    7.0587   -2.4489   -0.0384 C   0  0  0  0  0  0  0  0  0  0  0  0
    5.5980    0.2431   -0.0141 C   0  0  0  0  0  0  0  0  0  0  0  0
    3.5076   -0.7747   -0.0836 C   0  0  0  0  0  0  0  0  0  0  0  0
    7.8883   -1.3153   -0.0367 C   0  0  0  0  0  0  0  0  0  0  0  0
    2.8178    0.4089    0.0433 C   0  0  0  0  0  0  0  0  0  0  0  0
    4.9216    1.4804    0.0361 C   0  0  0  0  0  0  0  0  0  0  0  0
    7.7060   -3.7073   -0.0342 C   0  0  0  0  0  0  0  0  0  0  0  0
    3.5355    1.5682    0.1324 C   0  0  0  0  0  0  0  0  0  0  0  0
    9.2841   -1.4484   -0.0333 C   0  0  0  0  0  0  0  0  0  0  0  0
    9.0950   -3.8301   -0.0326 C   0  0  0  0  0  0  0  0  0  0  0  0
    9.8858   -2.6968   -0.0327 C   0  0  0  0  0  0  0  0  0  0  0  0
    0.8541    2.4790   -1.3423 C   0  0  0  0  0  0  0  0  0  0  0  0
   -1.0403    1.7483   -0.0128 C   0  0  0  0  0  0  0  0  0  0  0  0
    2.4080   -5.7525    0.9517 H   0  0  0  0  0  0  0  0  0  0  0  0
    1.1410   -6.0208   -0.1909 H   0  0  0  0  0  0  0  0  0  0  0  0
    1.5892   -6.1471   -2.6189 H   0  0  0  0  0  0  0  0  0  0  0  0
    3.2285   -5.9109   -3.2196 H   0  0  0  0  0  0  0  0  0  0  0  0
    3.6362   -7.7192    0.4558 H   0  0  0  0  0  0  0  0  0  0  0  0
    2.0159   -8.0413    1.0329 H   0  0  0  0  0  0  0  0  0  0  0  0
    4.0480   -7.9277   -2.1317 H   0  0  0  0  0  0  0  0  0  0  0  0
    2.6669   -8.3384   -3.1332 H   0  0  0  0  0  0  0  0  0  0  0  0
    3.3566   -3.7959   -2.1017 H   0  0  0  0  0  0  0  0  0  0  0  0
    1.7726   -3.9560   -1.3640 H   0  0  0  0  0  0  0  0  0  0  0  0
    3.2442   -4.2257    0.9982 H   0  0  0  0  0  0  0  0  0  0  0  0
    2.6499   -2.9454    0.3610 H   0  0  0  0  0  0  0  0  0  0  0  0
    0.3906   -7.5976   -1.4304 H   0  0  0  0  0  0  0  0  0  0  0  0
    0.6722   -9.2099   -2.0950 H   0  0  0  0  0  0  0  0  0  0  0  0
    0.4035   -9.0006   -0.3599 H   0  0  0  0  0  0  0  0  0  0  0  0
    5.3071   -4.4110   -0.0104 H   0  0  0  0  0  0  0  0  0  0  0  0
    2.8029   -1.5342   -0.2790 H   0  0  0  0  0  0  0  0  0  0  0  0
    5.4976    2.4003    0.0161 H   0  0  0  0  0  0  0  0  0  0  0  0
    7.1675   -4.6493   -0.0336 H   0  0  0  0  0  0  0  0  0  0  0  0
    3.0666    2.5341    0.2361 H   0  0  0  0  0  0  0  0  0  0  0  0
    9.9106   -0.5592   -0.0331 H   0  0  0  0  0  0  0  0  0  0  0  0
    9.5430   -4.8193   -0.0324 H   0  0  0  0  0  0  0  0  0  0  0  0
   10.9663   -2.7748   -0.0334 H   0  0  0  0  0  0  0  0  0  0  0  0
    0.4646    1.9903   -2.2364 H   0  0  0  0  0  0  0  0  0  0  0  0
    0.5055    3.5098   -1.2784 H   0  0  0  0  0  0  0  0  0  0  0  0
    1.9350    2.5348   -1.4554 H   0  0  0  0  0  0  0  0  0  0  0  0
   -1.4759    1.2419   -0.8809 H   0  0  0  0  0  0  0  0  0  0  0  0
   -1.3731    1.2486    0.9020 H   0  0  0  0  0  0  0  0  0  0  0  0
   -1.4025    2.7779    0.0169 H   0  0  0  0  0  0  0  0  0  0  0  0
  1  3  2  0  0  0  0
  1  4  2  0  0  0  0
  1  7  1  0  0  0  0
  1 22  1  0  0  0  0
  2 19  1  0  0  0  0
  2 21  1  0  0  0  0
  5  8  1  0  0  0  0
  5  9  1  0  0  0  0
  5 12  1  0  0  0  0
  6 10  1  0  0  0  0
  6 11  1  0  0  0  0
  6 14  1  0  0  0  0
  7 29  1  0  0  0  0
  7 30  1  0  0  0  0
  8 10  1  0  0  0  0
  8 31  1  0  0  0  0
  8 32  1  0  0  0  0
  9 11  1  0  0  0  0
  9 33  1  0  0  0  0
  9 34  1  0  0  0  0
 10 35  1  0  0  0  0
 10 36  1  0  0  0  0
 11 37  1  0  0  0  0
 11 38  1  0  0  0  0
 12 13  1  0  0  0  0
 12 39  1  0  0  0  0
 12 40  1  0  0  0  0
 13 15  1  0  0  0  0
 13 41  1  0  0  0  0
 13 42  1  0  0  0  0
 14 43  1  0  0  0  0
 14 44  1  0  0  0  0
 14 45  1  0  0  0  0
 15 16  2  0  0  0  0
 15 46  1  0  0  0  0
 16 17  1  0  0  0  0
 16 18  1  0  0  0  0
 17 19  2  0  0  0  0
 17 20  1  0  0  0  0
 18 21  1  0  0  0  0
 18 24  2  0  0  0  0
 19 23  1  0  0  0  0
 20 22  2  0  0  0  0
 20 47  1  0  0  0  0
 21 26  2  0  0  0  0
 22 25  1  0  0  0  0
 23 25  2  0  0  0  0
 23 48  1  0  0  0  0
 24 27  1  0  0  0  0
 24 49  1  0  0  0  0
 25 50  1  0  0  0  0
 26 28  1  0  0  0  0
 26 51  1  0  0  0  0
 27 28  2  0  0  0  0
 27 52  1  0  0  0  0
 28 53  1  0  0  0  0
 29 54  1  0  0  0  0
 29 55  1  0  0  0  0
 29 56  1  0  0  0  0
 30 57  1  0  0  0  0
 30 58  1  0  0  0  0
 30 59  1  0  0  0  0
M  END
>  <DRUGBANK_ID>
DB01623

>  <COMMON_NAME>
Thiothixene

>  <CAS_NUMBER>
3313-26-6

>  <UNII>
7318FJ13YJ

>  <SYNONYMS>
cis-thiothixene; Thiothixene; Tiotixene; Tiotixeno; Tiotixenum

$$$$
