
 OpenBabel10282417193D

 66 70  0  0  1  0  0  0  0  0999 V2000
    1.3295    0.1711   -0.3417 C   0  0  0  0  0  0  0  0  0  0  0  0
    0.2055    0.9347    1.0171 C   0  0  2  0  0  0  0  0  0  0  0  0
   -0.1259    2.3747    1.0660 C   0  0  0  0  0  0  0  0  0  0  0  0
    0.8871    3.3749    0.3194 C   0  0  1  0  0  0  0  0  0  0  0  0
    2.2084    3.6426    1.0925 C   0  0  0  0  0  0  0  0  0  0  0  0
    3.0757    4.8901    1.3207 C   0  0  0  0  0  0  0  0  0  0  0  0
    3.6146    6.7552    1.1559 C   0  0  0  0  0  0  0  0  0  0  0  0
    3.6640    7.7313    2.5733 C   0  0  0  0  0  0  0  0  0  0  0  0
    2.8449    6.6967    3.1313 C   0  0  0  0  0  0  0  0  0  0  0  0
    1.6535    6.6544    2.8189 O   0  0  0  0  0  0  0  0  0  0  0  0
    3.7250    5.5558    3.4895 C   0  0  0  0  0  0  0  0  0  0  0  0
    3.7580    4.5799    2.5690 C   0  0  0  0  0  0  0  0  0  0  0  0
    4.2734    3.2440    3.0013 C   0  0  0  0  0  0  0  0  0  0  0  0
    3.6083    1.8780    2.6601 C   0  0  0  0  0  0  0  0  0  0  0  0
    2.4236    1.8751    1.6252 C   0  0  1  0  0  0  0  0  0  0  0  0
    1.2849    0.2814    1.5771 C   0  0  2  0  0  0  0  0  0  0  0  0
   -0.4029   -0.5050    0.5713 C   0  0  0  0  0  0  0  0  0  0  0  0
   -1.7084   -0.4560    1.3228 C   0  0  0  0  0  0  0  0  0  0  0  0
   -0.6309   -0.2515    2.2436 C   0  0  1  0  0  0  0  0  0  0  0  0
    0.1373   -1.8612    2.4802 C   0  0  0  0  0  0  0  0  0  0  0  0
    1.3613   -1.8888    3.3957 C   0  0  0  0  0  0  0  0  0  0  0  0
    1.1181   -1.2043    4.5317 F   0  0  0  0  0  0  0  0  0  0  0  0
    1.7055   -3.1542    3.7270 F   0  0  0  0  0  0  0  0  0  0  0  0
    2.4829   -1.3621    2.8325 F   0  0  0  0  0  0  0  0  0  0  0  0
   -0.8487   -2.6815    2.9649 F   0  0  0  0  0  0  0  0  0  0  0  0
    0.5285   -2.4795    1.3137 F   0  0  0  0  0  0  0  0  0  0  0  0
   -1.1473    0.2695    3.4461 O   0  0  0  0  0  0  0  0  0  0  0  0
    1.2286    2.8236   -1.0782 C   0  0  0  0  0  0  0  0  0  0  0  0
    0.2132    2.5061   -1.9952 C   0  0  0  0  0  0  0  0  0  0  0  0
    0.5300    1.8744   -3.2131 C   0  0  0  0  0  0  0  0  0  0  0  0
    1.8549    1.5099   -3.5026 C   0  0  0  0  0  0  0  0  0  0  0  0
    2.8718    1.7767   -2.6006 C   0  0  0  0  0  0  0  0  0  0  0  0
    2.5536    2.4210   -1.4148 C   0  0  0  0  0  0  0  0  0  0  0  0
    2.3403    0.6994   -4.9974 S   0  0  0  0  0  0  0  0  0  0  0  0
    3.2113    1.6344   -5.6835 O   0  0  0  0  0  0  0  0  0  0  0  0
    2.8039   -0.6277   -4.6368 O   0  0  0  0  0  0  0  0  0  0  0  0
    0.8733    0.5111   -5.9656 C   0  0  0  0  0  0  0  0  0  0  0  0
    0.9190    0.4207   -1.2915 H   0  0  0  0  0  0  0  0  0  0  0  0
    1.2875   -0.9529   -0.4026 H   0  0  0  0  0  0  0  0  0  0  0  0
    2.4128    0.2200   -0.2269 H   0  0  0  0  0  0  0  0  0  0  0  0
   -1.0921    2.3811    0.5384 H   0  0  0  0  0  0  0  0  0  0  0  0
   -0.3879    2.6473    2.1025 H   0  0  0  0  0  0  0  0  0  0  0  0
    0.3127    4.2945    0.2365 H   0  0  0  0  0  0  0  0  0  0  0  0
    3.0864    7.5499    0.5791 H   0  0  0  0  0  0  0  0  0  0  0  0
    4.6543    6.8795    0.7406 H   0  0  0  0  0  0  0  0  0  0  0  0
    3.0565    8.6521    2.7210 H   0  0  0  0  0  0  0  0  0  0  0  0
    4.6124    7.8756    3.1336 H   0  0  0  0  0  0  0  0  0  0  0  0
    4.6931    5.7516    3.9476 H   0  0  0  0  0  0  0  0  0  0  0  0
    4.2146    3.2823    4.0972 H   0  0  0  0  0  0  0  0  0  0  0  0
    5.3406    3.2133    2.7565 H   0  0  0  0  0  0  0  0  0  0  0  0
    3.3692    1.3387    3.5836 H   0  0  0  0  0  0  0  0  0  0  0  0
    4.4465    1.2854    2.2433 H   0  0  0  0  0  0  0  0  0  0  0  0
    3.0727    1.4969    0.8419 H   0  0  0  0  0  0  0  0  0  0  0  0
    1.2054    0.2508    2.6537 H   0  0  0  0  0  0  0  0  0  0  0  0
   -0.4490   -1.5045    0.0724 H   0  0  0  0  0  0  0  0  0  0  0  0
   -0.7197   -0.0019   -0.4133 H   0  0  0  0  0  0  0  0  0  0  0  0
   -2.3033   -1.3660    1.4579 H   0  0  0  0  0  0  0  0  0  0  0  0
   -2.3461    0.3981    1.0660 H   0  0  0  0  0  0  0  0  0  0  0  0
   -1.7119   -0.4421    3.8183 H   0  0  0  0  0  0  0  0  0  0  0  0
   -0.8344    2.6111   -1.7131 H   0  0  0  0  0  0  0  0  0  0  0  0
   -0.2853    1.6443   -3.8865 H   0  0  0  0  0  0  0  0  0  0  0  0
    3.9030    1.4749   -2.7722 H   0  0  0  0  0  0  0  0  0  0  0  0
    3.3704    2.4294   -0.6977 H   0  0  0  0  0  0  0  0  0  0  0  0
    0.1720   -0.1381   -5.4372 H   0  0  0  0  0  0  0  0  0  0  0  0
    0.4385    1.4948   -6.1494 H   0  0  0  0  0  0  0  0  0  0  0  0
    1.1510    0.0507   -6.9151 H   0  0  0  0  0  0  0  0  0  0  0  0
  1 38  1  0  0  0  0
  1 39  1  0  0  0  0
  1 40  1  0  0  0  0
  2  1  1  6  0  0  0
  2  3  1  0  0  0  0
  2 16  1  0  0  0  0
  2 19  1  0  0  0  0
  3  4  1  0  0  0  0
  3 41  1  0  0  0  0
  3 42  1  0  0  0  0
  4  5  1  0  0  0  0
  4 28  1  0  0  0  0
  4 43  1  6  0  0  0
  5  6  2  0  0  0  0
  5 15  1  0  0  0  0
  6  7  1  0  0  0  0
  6 12  1  0  0  0  0
  7  8  1  0  0  0  0
  7 44  1  0  0  0  0
  7 45  1  0  0  0  0
  8  9  1  0  0  0  0
  8 46  1  0  0  0  0
  8 47  1  0  0  0  0
  9 10  2  0  0  0  0
  9 11  1  0  0  0  0
 11 12  2  0  0  0  0
 11 48  1  0  0  0  0
 12 13  1  0  0  0  0
 13 14  1  0  0  0  0
 13 49  1  0  0  0  0
 13 50  1  0  0  0  0
 14 51  1  0  0  0  0
 14 52  1  0  0  0  0
 15 14  1  0  0  0  0
 15 16  1  0  0  0  0
 15 53  1  6  0  0  0
 16 17  1  0  0  0  0
 16 54  1  1  0  0  0
 17 18  1  0  0  0  0
 17 55  1  0  0  0  0
 17 56  1  0  0  0  0
 18 19  1  0  0  0  0
 18 57  1  0  0  0  0
 18 58  1  0  0  0  0
 19 20  1  0  0  0  0
 19 27  1  1  0  0  0
 20 21  1  0  0  0  0
 20 25  1  0  0  0  0
 20 26  1  0  0  0  0
 21 22  1  0  0  0  0
 21 23  1  0  0  0  0
 21 24  1  0  0  0  0
 27 59  1  0  0  0  0
 28 29  2  0  0  0  0
 28 33  1  0  0  0  0
 29 30  1  0  0  0  0
 29 60  1  0  0  0  0
 30 31  2  0  0  0  0
 30 61  1  0  0  0  0
 31 32  1  0  0  0  0
 31 34  1  0  0  0  0
 32 33  2  0  0  0  0
 32 62  1  0  0  0  0
 33 63  1  0  0  0  0
 34 35  2  0  0  0  0
 34 36  2  0  0  0  0
 34 37  1  0  0  0  0
 37 64  1  0  0  0  0
 37 65  1  0  0  0  0
 37 66  1  0  0  0  0
M  END
>  <DRUGBANK_ID>
DB11971

>  <COMMON_NAME>
Vilaprisan

>  <CAS_NUMBER>
1262108-14-4

>  <UNII>
IN59K53GI9

>  <SYNONYMS>
Vilaprisan

$$$$
