
 OpenBabel10282417183D

 36 38  0  0  0  0  0  0  0  0999 V2000
   -0.3018    0.6962    0.1962 C   0  0  0  0  0  0  0  0  0  0  0  0
    0.9867    1.3490    0.4204 C   0  0  0  0  0  0  0  0  0  0  0  0
   -0.6005   -0.6642    0.1813 C   0  0  0  0  0  0  0  0  0  0  0  0
   -1.5464    1.3483   -0.0328 C   0  0  0  0  0  0  0  0  0  0  0  0
    1.0388    2.6321    1.1687 C   0  0  0  0  0  0  0  0  0  0  0  0
    2.0963    0.8939   -0.0433 N   0  0  0  0  0  0  0  0  0  0  0  0
   -1.9731   -0.7453   -0.0340 N   0  0  0  0  0  0  0  0  0  0  0  0
    0.3374   -1.6887    0.4021 N   0  0  0  0  0  0  0  0  0  0  0  0
   -2.5485    0.4761   -0.1894 N   0  0  0  0  0  0  0  0  0  0  0  0
   -1.7444    2.8268   -0.1268 C   0  0  0  0  0  0  0  0  0  0  0  0
    0.5569    2.6995    2.4745 C   0  0  0  0  0  0  0  0  0  0  0  0
    1.5410    3.7896    0.5530 C   0  0  0  0  0  0  0  0  0  0  0  0
    2.1074   -0.3225   -0.8498 C   0  0  0  0  0  0  0  0  0  0  0  0
   -2.8230   -1.9064   -0.2210 C   0  0  0  0  0  0  0  0  0  0  0  0
    1.7191   -1.5327   -0.0310 C   0  0  0  0  0  0  0  0  0  0  0  0
    0.0430   -2.8689    1.2326 C   0  0  0  0  0  0  0  0  0  0  0  0
    0.5526    3.9090    3.1666 C   0  0  0  0  0  0  0  0  0  0  0  0
    0.0587    1.6072    3.0704 F   0  0  0  0  0  0  0  0  0  0  0  0
    1.5272    5.0067    1.2442 C   0  0  0  0  0  0  0  0  0  0  0  0
    2.5158   -2.4300    0.2370 O   0  0  0  0  0  0  0  0  0  0  0  0
    1.0342    5.0654    2.5497 C   0  0  0  0  0  0  0  0  0  0  0  0
   -1.4991    3.2987    0.8290 H   0  0  0  0  0  0  0  0  0  0  0  0
   -1.0615    3.2386   -0.8810 H   0  0  0  0  0  0  0  0  0  0  0  0
   -2.7584    3.1404   -0.3741 H   0  0  0  0  0  0  0  0  0  0  0  0
    1.9151    3.7602   -0.4684 H   0  0  0  0  0  0  0  0  0  0  0  0
    3.1350   -0.4764   -1.1975 H   0  0  0  0  0  0  0  0  0  0  0  0
    1.4813   -0.2427   -1.7439 H   0  0  0  0  0  0  0  0  0  0  0  0
   -3.6127   -1.9045    0.5372 H   0  0  0  0  0  0  0  0  0  0  0  0
   -3.2720   -1.8815   -1.2193 H   0  0  0  0  0  0  0  0  0  0  0  0
   -2.2633   -2.8324   -0.1427 H   0  0  0  0  0  0  0  0  0  0  0  0
   -0.2884   -2.5421    2.2221 H   0  0  0  0  0  0  0  0  0  0  0  0
   -0.7100   -3.4973    0.7639 H   0  0  0  0  0  0  0  0  0  0  0  0
    0.9206   -3.5073    1.3683 H   0  0  0  0  0  0  0  0  0  0  0  0
    0.1648    3.9480    4.1803 H   0  0  0  0  0  0  0  0  0  0  0  0
    1.8968    5.9138    0.7672 H   0  0  0  0  0  0  0  0  0  0  0  0
    1.0255    6.0130    3.0863 H   0  0  0  0  0  0  0  0  0  0  0  0
  1  2  1  0  0  0  0
  1  3  2  0  0  0  0
  1  4  1  0  0  0  0
  2  5  1  0  0  0  0
  2  6  2  0  0  0  0
  3  7  1  0  0  0  0
  3  8  1  0  0  0  0
  4  9  2  0  0  0  0
  4 10  1  0  0  0  0
  5 11  1  0  0  0  0
  5 12  2  0  0  0  0
  6 13  1  0  0  0  0
  7 14  1  0  0  0  0
  7  9  1  0  0  0  0
  8 15  1  0  0  0  0
  8 16  1  0  0  0  0
 10 22  1  0  0  0  0
 10 23  1  0  0  0  0
 10 24  1  0  0  0  0
 11 17  2  0  0  0  0
 11 18  1  0  0  0  0
 12 19  1  0  0  0  0
 12 25  1  0  0  0  0
 13 15  1  0  0  0  0
 13 26  1  0  0  0  0
 13 27  1  0  0  0  0
 14 28  1  0  0  0  0
 14 29  1  0  0  0  0
 14 30  1  0  0  0  0
 15 20  2  0  0  0  0
 16 31  1  0  0  0  0
 16 32  1  0  0  0  0
 16 33  1  0  0  0  0
 17 21  1  0  0  0  0
 17 34  1  0  0  0  0
 19 21  2  0  0  0  0
 19 35  1  0  0  0  0
 21 36  1  0  0  0  0
M  END
>  <DRUGBANK_ID>
DB11555

>  <COMMON_NAME>
Zolazepam

>  <CAS_NUMBER>
31352-82-6

>  <UNII>
G1R474U58U

>  <SYNONYMS>
Zolazepam; Zolazepamum

$$$$
