
 OpenBabel10282417213D

 82 82  0  0  0  0  0  0  0  0999 V2000
    5.3297   -3.7443    3.5073 O   0  0  0  0  0  0  0  0  0  0  0  0
    4.8428   -2.4198    3.7415 C   0  0  1  0  0  0  0  0  0  0  0  0
    4.2983   -2.6902    5.1306 C   0  0  0  0  0  0  0  0  0  0  0  0
    5.9063   -1.2825    3.4197 C   0  0  0  0  0  0  0  0  0  0  0  0
    6.5227   -0.8758    1.8445 C   0  0  0  0  0  0  0  0  0  0  0  0
    5.6697   -0.2340    0.5250 C   0  0  0  0  0  0  0  0  0  0  0  0
    5.2251   -0.8276   -0.6560 C   0  0  0  0  0  0  0  0  0  0  0  0
    5.4697   -2.2193   -1.2780 C   0  0  0  0  0  0  0  0  0  0  0  0
    4.9546    1.0295    0.9590 C   0  0  0  0  0  0  0  0  0  0  0  0
    5.3282    1.6228    2.0059 O   0  0  0  0  0  0  0  0  0  0  0  0
    3.7373    1.5038    0.2532 C   0  0  0  0  0  0  0  0  0  0  0  0
    3.2255    2.8729    0.5644 C   0  0  0  0  0  0  0  0  0  0  0  0
    3.1494    0.7564   -0.7061 C   0  0  0  0  0  0  0  0  0  0  0  0
    1.8626    1.0788   -1.4235 C   0  0  0  0  0  0  0  0  0  0  0  0
    3.8536   -0.4172   -1.1981 C   0  0  0  0  0  0  0  0  0  0  0  0
    3.2479   -1.1403   -2.0279 O   0  0  0  0  0  0  0  0  0  0  0  0
    3.5631   -2.0911    3.0169 C   0  0  0  0  0  0  0  0  0  0  0  0
    3.8223   -2.0505    1.5953 C   0  0  0  0  0  0  0  0  0  0  0  0
    4.6154   -3.2453    1.0908 C   0  0  0  0  0  0  0  0  0  0  0  0
    3.7688   -4.3310    0.4279 C   0  0  2  0  0  0  0  0  0  0  0  0
    4.5904   -5.4904   -0.1041 C   0  0  0  0  0  0  0  0  0  0  0  0
    2.7604   -3.9523   -0.6794 C   0  0  0  0  0  0  0  0  0  0  0  0
    1.5334   -4.8572   -0.7618 C   0  0  0  0  0  0  0  0  0  0  0  0
    0.8397   -4.9913    0.5765 C   0  0  0  0  0  0  0  0  0  0  0  0
    0.2428   -3.6800    1.1333 C   0  0  2  0  0  0  0  0  0  0  0  0
    0.4582   -2.3721    0.3445 C   0  0  0  0  0  0  0  0  0  0  0  0
    0.7188   -3.5439    2.5827 C   0  0  0  0  0  0  0  0  0  0  0  0
    0.4068   -2.1569    3.1710 C   0  0  0  0  0  0  0  0  0  0  0  0
   -1.1106   -2.0439    3.2547 C   0  0  0  0  0  0  0  0  0  0  0  0
   -1.6672   -3.1865    4.1136 C   0  0  0  0  0  0  0  0  0  0  0  0
   -1.1201   -3.0821    5.5332 C   0  0  0  0  0  0  0  0  0  0  0  0
   -3.1741   -3.2043    4.0607 C   0  0  0  0  0  0  0  0  0  0  0  0
    6.2962   -3.7686    3.5276 H   0  0  0  0  0  0  0  0  0  0  0  0
    5.0708   -3.1025    5.7750 H   0  0  0  0  0  0  0  0  0  0  0  0
    3.7827   -1.8354    5.5565 H   0  0  0  0  0  0  0  0  0  0  0  0
    3.5471   -3.5089    5.0391 H   0  0  0  0  0  0  0  0  0  0  0  0
    5.5016   -0.3577    3.8482 H   0  0  0  0  0  0  0  0  0  0  0  0
    6.7914   -1.5543    4.0088 H   0  0  0  0  0  0  0  0  0  0  0  0
    7.2741   -0.1068    2.0851 H   0  0  0  0  0  0  0  0  0  0  0  0
    7.0938   -1.7478    1.5143 H   0  0  0  0  0  0  0  0  0  0  0  0
    4.5379   -2.6640   -0.9696 H   0  0  0  0  0  0  0  0  0  0  0  0
    5.3200   -2.4975   -2.3248 H   0  0  0  0  0  0  0  0  0  0  0  0
    6.2578   -2.8577   -0.8668 H   0  0  0  0  0  0  0  0  0  0  0  0
    3.3232    3.4708   -0.3493 H   0  0  0  0  0  0  0  0  0  0  0  0
    2.1762    2.8805    0.8758 H   0  0  0  0  0  0  0  0  0  0  0  0
    3.8128    3.3782    1.3346 H   0  0  0  0  0  0  0  0  0  0  0  0
    1.0556    1.3942   -0.7540 H   0  0  0  0  0  0  0  0  0  0  0  0
    2.0674    1.8572   -2.1604 H   0  0  0  0  0  0  0  0  0  0  0  0
    1.4493    0.2228   -1.9755 H   0  0  0  0  0  0  0  0  0  0  0  0
    2.8876   -2.8794    3.1429 H   0  0  0  0  0  0  0  0  0  0  0  0
    3.0981   -1.1510    3.3526 H   0  0  0  0  0  0  0  0  0  0  0  0
    3.0541   -1.7153    0.9311 H   0  0  0  0  0  0  0  0  0  0  0  0
    4.3137   -1.1138    1.6613 H   0  0  0  0  0  0  0  0  0  0  0  0
    5.4707   -2.7757    0.6750 H   0  0  0  0  0  0  0  0  0  0  0  0
    5.3382   -3.8155    1.6525 H   0  0  0  0  0  0  0  0  0  0  0  0
    3.2431   -4.6938    1.3059 H   0  0  0  0  0  0  0  0  0  0  0  0
    5.4914   -5.1501   -0.6180 H   0  0  0  0  0  0  0  0  0  0  0  0
    4.8570   -6.1658    0.7100 H   0  0  0  0  0  0  0  0  0  0  0  0
    4.0028   -6.0643   -0.8251 H   0  0  0  0  0  0  0  0  0  0  0  0
    2.4644   -2.9287   -0.5429 H   0  0  0  0  0  0  0  0  0  0  0  0
    3.2043   -3.9440   -1.6814 H   0  0  0  0  0  0  0  0  0  0  0  0
    0.8234   -4.4698   -1.5009 H   0  0  0  0  0  0  0  0  0  0  0  0
    1.8309   -5.8431   -1.1303 H   0  0  0  0  0  0  0  0  0  0  0  0
    0.0409   -5.7347    0.5086 H   0  0  0  0  0  0  0  0  0  0  0  0
    1.5262   -5.4654    1.2897 H   0  0  0  0  0  0  0  0  0  0  0  0
   -0.8371   -3.8316    1.1404 H   0  0  0  0  0  0  0  0  0  0  0  0
   -0.2755   -1.5921    0.5485 H   0  0  0  0  0  0  0  0  0  0  0  0
    1.3736   -1.8979    0.6571 H   0  0  0  0  0  0  0  0  0  0  0  0
    0.4782   -2.4922   -0.7374 H   0  0  0  0  0  0  0  0  0  0  0  0
    0.3341   -4.3460    3.2135 H   0  0  0  0  0  0  0  0  0  0  0  0
    1.7417   -3.8697    2.6277 H   0  0  0  0  0  0  0  0  0  0  0  0
    0.8777   -2.0078    4.1487 H   0  0  0  0  0  0  0  0  0  0  0  0
    0.8035   -1.3240    2.5780 H   0  0  0  0  0  0  0  0  0  0  0  0
   -1.4010   -1.0635    3.6430 H   0  0  0  0  0  0  0  0  0  0  0  0
   -1.5435   -2.0962    2.2487 H   0  0  0  0  0  0  0  0  0  0  0  0
   -1.3944   -4.1654    3.7103 H   0  0  0  0  0  0  0  0  0  0  0  0
   -1.4047   -2.1220    5.9715 H   0  0  0  0  0  0  0  0  0  0  0  0
   -1.4919   -3.8961    6.1557 H   0  0  0  0  0  0  0  0  0  0  0  0
   -0.0261   -3.1497    5.5645 H   0  0  0  0  0  0  0  0  0  0  0  0
   -3.5079   -3.3534    3.0268 H   0  0  0  0  0  0  0  0  0  0  0  0
   -3.5487   -4.0397    4.6577 H   0  0  0  0  0  0  0  0  0  0  0  0
   -3.5809   -2.2666    4.4371 H   0  0  0  0  0  0  0  0  0  0  0  0
  1 33  1  0  0  0  0
  2  1  1  6  0  0  0
  2  3  1  0  0  0  0
  3 34  1  0  0  0  0
  3 35  1  0  0  0  0
  3 36  1  0  0  0  0
  4  2  1  0  0  0  0
  4 37  1  0  0  0  0
  4 38  1  0  0  0  0
  5  4  1  0  0  0  0
  5  6  1  0  0  0  0
  5 39  1  0  0  0  0
  5 40  1  0  0  0  0
  6  9  1  0  0  0  0
  7  6  2  0  0  0  0
  7  8  1  0  0  0  0
  7 15  1  0  0  0  0
  8 41  1  0  0  0  0
  8 42  1  0  0  0  0
  8 43  1  0  0  0  0
  9 10  2  0  0  0  0
  9 11  1  0  0  0  0
 11 13  2  0  0  0  0
 12 11  1  0  0  0  0
 12 44  1  0  0  0  0
 12 45  1  0  0  0  0
 12 46  1  0  0  0  0
 13 15  1  0  0  0  0
 14 13  1  0  0  0  0
 14 47  1  0  0  0  0
 14 48  1  0  0  0  0
 14 49  1  0  0  0  0
 15 16  2  0  0  0  0
 17  2  1  0  0  0  0
 17 18  1  0  0  0  0
 17 50  1  0  0  0  0
 17 51  1  0  0  0  0
 18 19  1  0  0  0  0
 18 52  1  0  0  0  0
 18 53  1  0  0  0  0
 19 54  1  0  0  0  0
 19 55  1  0  0  0  0
 20 22  1  0  0  0  0
 20 56  1  1  0  0  0
 20 21  1  0  0  0  0
 20 19  1  0  0  0  0
 21 57  1  0  0  0  0
 21 58  1  0  0  0  0
 21 59  1  0  0  0  0
 22 23  1  0  0  0  0
 22 60  1  0  0  0  0
 22 61  1  0  0  0  0
 23 24  1  0  0  0  0
 23 62  1  0  0  0  0
 23 63  1  0  0  0  0
 24 64  1  0  0  0  0
 24 65  1  0  0  0  0
 25 27  1  0  0  0  0
 25 66  1  1  0  0  0
 25 26  1  0  0  0  0
 25 24  1  0  0  0  0
 26 67  1  0  0  0  0
 26 68  1  0  0  0  0
 26 69  1  0  0  0  0
 27 28  1  0  0  0  0
 27 70  1  0  0  0  0
 27 71  1  0  0  0  0
 28 29  1  0  0  0  0
 28 72  1  0  0  0  0
 28 73  1  0  0  0  0
 29 30  1  0  0  0  0
 29 74  1  0  0  0  0
 29 75  1  0  0  0  0
 30 31  1  0  0  0  0
 30 32  1  0  0  0  0
 30 76  1  0  0  0  0
 31 77  1  0  0  0  0
 31 78  1  0  0  0  0
 31 79  1  0  0  0  0
 32 80  1  0  0  0  0
 32 81  1  0  0  0  0
 32 82  1  0  0  0  0
M  END
>  <DRUGBANK_ID>
DB14094

>  <COMMON_NAME>
Tocopherylquinone

>  <CAS_NUMBER>
7559-04-8

>  <UNII>
ZO763K43XR

>  <SYNONYMS>
alpha-Tocopherol quinone; alpha-Tocopherolquinone; alpha-Tocopheroquinone; alpha-Tocopherylquinone; alpha-Tocoquinone; ATQ; Metarene; Vitamin E quinone

$$$$
