
 OpenBabel10282417173D

 38 41  0  0  0  0  0  0  0  0999 V2000
    1.0992   -0.2792   -0.1441 C   0  0  0  0  0  0  0  0  0  0  0  0
   -2.9021   -1.4204    3.2169 C   0  0  0  0  0  0  0  0  0  0  0  0
   -5.0039    3.9179   -0.1594 C   0  0  0  0  0  0  0  0  0  0  0  0
   -2.3688   -1.9628    2.0468 C   0  0  0  0  0  0  0  0  0  0  0  0
   -4.4754    3.3927   -1.3425 C   0  0  0  0  0  0  0  0  0  0  0  0
   -2.9917   -0.0368    3.3831 C   0  0  0  0  0  0  0  0  0  0  0  0
   -4.4409    3.6017    1.0757 C   0  0  0  0  0  0  0  0  0  0  0  0
   -1.9113   -1.1290    1.0252 C   0  0  0  0  0  0  0  0  0  0  0  0
   -3.3697    2.5389   -1.3144 C   0  0  0  0  0  0  0  0  0  0  0  0
   -1.1754    2.8426    2.2388 C   0  0  0  0  0  0  0  0  0  0  0  0
   -0.5587    2.3268    0.9134 C   0  0  0  0  0  0  0  0  0  0  0  0
   -0.8904    0.7509   -1.1464 C   0  0  0  0  0  0  0  0  0  0  0  0
   -2.6180    2.3212    2.3812 C   0  0  3  0  0  0  0  0  0  0  0  0
   -2.5289    0.7977    2.3682 C   0  0  0  0  0  0  0  0  0  0  0  0
   -3.3385    2.7544    1.1087 C   0  0  0  0  0  0  0  0  0  0  0  0
   -1.9671    0.2572    1.1836 C   0  0  0  0  0  0  0  0  0  0  0  0
   -2.7872    2.2206   -0.0910 C   0  0  0  0  0  0  0  0  0  0  0  0
   -1.5344    1.3345    0.1541 C   0  0  3  0  0  0  0  0  0  0  0  0
    0.5751    0.6098   -1.1693 N   0  0  0  0  0  0  0  0  0  0  0  0
    0.8049   -1.3125   -0.3335 H   0  0  0  0  0  0  0  0  0  0  0  0
    0.7905   -0.0259    0.8720 H   0  0  0  0  0  0  0  0  0  0  0  0
    2.1903   -0.2226   -0.1512 H   0  0  0  0  0  0  0  0  0  0  0  0
   -3.2632   -2.0861    3.9973 H   0  0  0  0  0  0  0  0  0  0  0  0
   -5.8688    4.5757   -0.2058 H   0  0  0  0  0  0  0  0  0  0  0  0
   -2.3140   -3.0418    1.9201 H   0  0  0  0  0  0  0  0  0  0  0  0
   -4.9271    3.6463   -2.2981 H   0  0  0  0  0  0  0  0  0  0  0  0
   -3.4289    0.3739    4.2865 H   0  0  0  0  0  0  0  0  0  0  0  0
   -4.8577    4.0083    1.9903 H   0  0  0  0  0  0  0  0  0  0  0  0
   -1.5229   -1.5937    0.1263 H   0  0  0  0  0  0  0  0  0  0  0  0
   -2.9982    2.1515   -2.2555 H   0  0  0  0  0  0  0  0  0  0  0  0
   -0.5599    2.4986    3.0813 H   0  0  0  0  0  0  0  0  0  0  0  0
   -1.1408    3.9386    2.2484 H   0  0  0  0  0  0  0  0  0  0  0  0
    0.3964    1.8735    1.1864 H   0  0  0  0  0  0  0  0  0  0  0  0
   -0.3048    3.1767    0.2656 H   0  0  0  0  0  0  0  0  0  0  0  0
   -1.1008    1.4023   -1.9992 H   0  0  0  0  0  0  0  0  0  0  0  0
   -1.3571   -0.1997   -1.4335 H   0  0  0  0  0  0  0  0  0  0  0  0
   -3.0950    2.7008    3.2893 H   0  0  0  0  0  0  0  0  0  0  0  0
    0.9847    1.5380   -1.0631 H   0  0  0  0  0  0  0  0  0  0  0  0
  1 20  1  0  0  0  0
  1 21  1  0  0  0  0
  1 22  1  0  0  0  0
  2 23  1  0  0  0  0
  3 24  1  0  0  0  0
  4  2  2  0  0  0  0
  4 25  1  0  0  0  0
  5  3  2  0  0  0  0
  5 26  1  0  0  0  0
  6  2  1  0  0  0  0
  6 27  1  0  0  0  0
  7  3  1  0  0  0  0
  7 28  1  0  0  0  0
  8  4  1  0  0  0  0
  8 29  1  0  0  0  0
  9  5  1  0  0  0  0
  9 30  1  0  0  0  0
 10 31  1  0  0  0  0
 10 32  1  0  0  0  0
 11 10  1  0  0  0  0
 11 33  1  0  0  0  0
 11 34  1  0  0  0  0
 12 35  1  0  0  0  0
 12 36  1  0  0  0  0
 13 10  1  0  0  0  0
 13 37  1  0  0  0  0
 14  6  2  0  0  0  0
 14 13  1  0  0  0  0
 15  7  2  0  0  0  0
 15 13  1  0  0  0  0
 16  8  2  0  0  0  0
 16 14  1  0  0  0  0
 17  9  2  0  0  0  0
 17 15  1  0  0  0  0
 18 11  1  0  0  0  0
 18 12  1  0  0  0  0
 18 16  1  0  0  0  0
 18 17  1  0  0  0  0
 19  1  1  0  0  0  0
 19 12  1  0  0  0  0
 19 38  1  0  0  0  0
M  END
>  <DRUGBANK_ID>
DB09021

>  <COMMON_NAME>
Benzoctamine

>  <CAS_NUMBER>
17243-39-9

>  <UNII>
734MM7Y191

>  <SYNONYMS>
Benzoctamine; N-Methyl-9,10-ethanoanthracene-9(10H)-methanamine

$$$$
