
 OpenBabel10282417203D

 31 31  0  0  0  0  0  0  0  0999 V2000
    0.9736    0.0814   -0.0512 S   0  0  0  0  0  0  0  0  0  0  0  0
    0.5239   -0.8417   -1.4096 N   0  0  0  0  0  0  0  0  0  0  0  0
    0.6440   -0.5770    1.1944 O   0  0  0  0  0  0  0  0  0  0  0  0
    0.5399    1.4350   -0.3184 O   0  0  0  0  0  0  0  0  0  0  0  0
    2.7576    0.0783   -0.1097 C   0  0  0  0  0  0  0  0  0  0  0  0
   -0.3731   -1.9180   -1.2702 C   0  0  0  0  0  0  0  0  0  0  0  0
    3.4568    1.2889   -0.0853 C   0  0  0  0  0  0  0  0  0  0  0  0
    3.4541   -1.1311   -0.0834 C   0  0  0  0  0  0  0  0  0  0  0  0
   -0.8827   -2.5776   -2.5236 C   0  0  0  0  0  0  0  0  0  0  0  0
   -0.7046   -2.3305   -0.1682 O   0  0  0  0  0  0  0  0  0  0  0  0
    4.8576    1.2834   -0.0690 C   0  0  0  0  0  0  0  0  0  0  0  0
    4.8564   -1.1203   -0.0619 C   0  0  0  0  0  0  0  0  0  0  0  0
   -1.6726   -3.6820   -2.4701 C   0  0  0  0  0  0  0  0  0  0  0  0
    5.5719    0.0825   -0.0392 C   0  0  0  0  0  0  0  0  0  0  0  0
   -2.1867   -4.4010   -3.6940 C   0  0  0  0  0  0  0  0  0  0  0  0
   -2.1114   -4.3111   -1.1644 C   0  0  0  0  0  0  0  0  0  0  0  0
    6.9558    0.0849   -0.1418 N   0  0  0  0  0  0  0  0  0  0  0  0
    0.6007   -0.3355   -2.2874 H   0  0  0  0  0  0  0  0  0  0  0  0
    2.9301    2.2401   -0.0545 H   0  0  0  0  0  0  0  0  0  0  0  0
    2.9221   -2.0791   -0.0541 H   0  0  0  0  0  0  0  0  0  0  0  0
   -0.5913   -2.1597   -3.4806 H   0  0  0  0  0  0  0  0  0  0  0  0
    5.3899    2.2318   -0.0639 H   0  0  0  0  0  0  0  0  0  0  0  0
    5.3921   -2.0664   -0.0448 H   0  0  0  0  0  0  0  0  0  0  0  0
   -1.8378   -5.4413   -3.7028 H   0  0  0  0  0  0  0  0  0  0  0  0
   -3.2834   -4.4200   -3.6979 H   0  0  0  0  0  0  0  0  0  0  0  0
   -1.8577   -3.9331   -4.6258 H   0  0  0  0  0  0  0  0  0  0  0  0
   -1.2391   -4.6354   -0.5853 H   0  0  0  0  0  0  0  0  0  0  0  0
   -2.7047   -3.5986   -0.5798 H   0  0  0  0  0  0  0  0  0  0  0  0
   -2.7377   -5.1957   -1.3088 H   0  0  0  0  0  0  0  0  0  0  0  0
    7.4675   -0.7745    0.0162 H   0  0  0  0  0  0  0  0  0  0  0  0
    7.4628    0.9479    0.0145 H   0  0  0  0  0  0  0  0  0  0  0  0
  1  2  1  0  0  0  0
  1  3  2  0  0  0  0
  1  4  2  0  0  0  0
  1  5  1  0  0  0  0
  2  6  1  0  0  0  0
  2 18  1  0  0  0  0
  5  7  2  0  0  0  0
  5  8  1  0  0  0  0
  6  9  1  0  0  0  0
  6 10  2  0  0  0  0
  7 11  1  0  0  0  0
  7 19  1  0  0  0  0
  8 12  2  0  0  0  0
  8 20  1  0  0  0  0
  9 13  2  0  0  0  0
  9 21  1  0  0  0  0
 11 14  2  0  0  0  0
 11 22  1  0  0  0  0
 12 14  1  0  0  0  0
 12 23  1  0  0  0  0
 13 15  1  0  0  0  0
 13 16  1  0  0  0  0
 14 17  1  0  0  0  0
 15 24  1  0  0  0  0
 15 25  1  0  0  0  0
 15 26  1  0  0  0  0
 16 27  1  0  0  0  0
 16 28  1  0  0  0  0
 16 29  1  0  0  0  0
 17 30  1  0  0  0  0
 17 31  1  0  0  0  0
M  END
>  <DRUGBANK_ID>
DB13214

>  <COMMON_NAME>
Sulfadicramide

>  <CAS_NUMBER>
115-68-4

>  <UNII>
7WZ5EG263C

>  <SYNONYMS>
Sulfadicramide; Sulfadicrolamide

$$$$
