PMD
 OpenBabel10282417173D

 45 49  0  0  0  0  0  0  0  0999 V2000
    0.8924   -0.6931   -6.0384 C   0  0  0  0  0  0  0  0  0  0  0  0
   -0.7210   -1.8555   -4.8968 C   0  0  0  0  0  0  0  0  0  0  0  0
   -1.6203   -0.7582   -4.8273 C   0  0  0  0  0  0  0  0  0  0  0  0
   -3.3405    0.5215   -3.8999 C   0  0  0  0  0  0  0  0  0  0  0  0
   -2.8980    1.6498   -4.5152 C   0  0  0  0  0  0  0  0  0  0  0  0
   -1.1445    0.3727   -5.4678 C   0  0  0  0  0  0  0  0  0  0  0  0
   -3.7643    0.8669   -2.5109 C   0  0  0  0  0  0  0  0  0  0  0  0
   -0.7982    1.6021   -2.4272 C   0  0  0  0  0  0  0  0  0  0  0  0
   -0.0074    2.2348   -3.6014 C   0  0  0  0  0  0  0  0  0  0  0  0
    1.4447    1.7590   -4.1941 C   0  0  0  0  0  0  0  0  0  0  0  0
    2.1158    0.6449   -3.7360 C   0  0  0  0  0  0  0  0  0  0  0  0
    1.4115    0.0881   -2.7346 C   0  0  0  0  0  0  0  0  0  0  0  0
    0.1173    0.5542   -2.0797 C   0  0  0  0  0  0  0  0  0  0  0  0
   -0.2314   -0.6981   -1.5508 C   0  0  0  0  0  0  0  0  0  0  0  0
   -1.5793   -0.8702   -1.3221 C   0  0  0  0  0  0  0  0  0  0  0  0
   -1.9167   -0.2428   -0.1745 C   0  0  0  0  0  0  0  0  0  0  0  0
   -1.4130   -0.6735    1.0374 C   0  0  0  0  0  0  0  0  0  0  0  0
   -2.0398   -0.3149    2.1583 C   0  0  0  0  0  0  0  0  0  0  0  0
   -3.3610    0.1032    2.0102 C   0  0  0  0  0  0  0  0  0  0  0  0
   -3.7958    0.6650    0.7292 C   0  0  0  0  0  0  0  0  0  0  0  0
   -2.8033    0.7976   -0.2948 C   0  0  0  0  0  0  0  0  0  0  0  0
    0.0653    0.3704   -6.0889 N   0  0  0  0  0  0  0  0  0  0  0  0
    2.2324   -0.5539   -6.4683 N   0  0  0  0  0  0  0  0  0  0  0  0
    0.5210   -1.8336   -5.4618 N   0  0  0  0  0  0  0  0  0  0  0  0
   -1.0261   -3.0224   -4.1605 N   0  0  0  0  0  0  0  0  0  0  0  0
   -2.8249   -0.7252   -4.1515 N   0  0  0  0  0  0  0  0  0  0  0  0
   -1.8698    1.5432   -5.3780 N   0  0  0  0  0  0  0  0  0  0  0  0
   -2.4494    1.5977   -1.7335 N   0  0  0  0  0  0  0  0  0  0  0  0
   -3.1111    2.6199   -4.0177 H   0  0  0  0  0  0  0  0  0  0  0  0
   -4.6840    1.4966   -2.5540 H   0  0  0  0  0  0  0  0  0  0  0  0
   -4.1381   -0.0778   -2.0474 H   0  0  0  0  0  0  0  0  0  0  0  0
   -0.3617    2.9041   -4.4132 H   0  0  0  0  0  0  0  0  0  0  0  0
    1.8050    2.0893   -5.1993 H   0  0  0  0  0  0  0  0  0  0  0  0
    2.8130   -0.0594   -4.2321 H   0  0  0  0  0  0  0  0  0  0  0  0
    1.5954   -1.0117   -2.7342 H   0  0  0  0  0  0  0  0  0  0  0  0
   -0.1763   -1.2930   -2.4367 H   0  0  0  0  0  0  0  0  0  0  0  0
   -2.0650   -0.5615   -2.2076 H   0  0  0  0  0  0  0  0  0  0  0  0
   -0.4829   -1.2276    0.9719 H   0  0  0  0  0  0  0  0  0  0  0  0
   -1.5285   -0.5086    3.0938 H   0  0  0  0  0  0  0  0  0  0  0  0
   -3.9971   -0.0973    2.8779 H   0  0  0  0  0  0  0  0  0  0  0  0
   -4.9000    0.7099    0.6877 H   0  0  0  0  0  0  0  0  0  0  0  0
    2.6617    0.3332   -6.2090 H   0  0  0  0  0  0  0  0  0  0  0  0
    2.8424   -1.3173   -6.1963 H   0  0  0  0  0  0  0  0  0  0  0  0
   -2.0141   -3.1371   -3.9569 H   0  0  0  0  0  0  0  0  0  0  0  0
   -0.5298   -3.8392   -4.4988 H   0  0  0  0  0  0  0  0  0  0  0  0
  1 22  2  0  0  0  0
  1 23  1  0  0  0  0
  1 24  1  0  0  0  0
  2  3  1  0  0  0  0
  2 24  2  0  0  0  0
  2 25  1  0  0  0  0
  3  6  2  0  0  0  0
  3 26  1  0  0  0  0
  4  5  1  0  0  0  0
  4  7  1  0  0  0  0
  4 26  2  0  0  0  0
  5 27  2  0  0  0  0
  5 29  1  0  0  0  0
  6 22  1  0  0  0  0
  6 27  1  0  0  0  0
  7 28  1  0  0  0  0
  7 30  1  0  0  0  0
  7 31  1  0  0  0  0
  8  9  2  0  0  0  0
  8 13  1  0  0  0  0
  8 28  1  0  0  0  0
  9 10  1  0  0  0  0
  9 32  1  0  0  0  0
 10 11  2  0  0  0  0
 10 33  1  0  0  0  0
 11 12  1  0  0  0  0
 11 34  1  0  0  0  0
 12 13  2  0  0  0  0
 12 35  1  0  0  0  0
 13 14  1  0  0  0  0
 14 15  2  0  0  0  0
 14 36  1  0  0  0  0
 15 16  1  0  0  0  0
 15 37  1  0  0  0  0
 16 17  2  0  0  0  0
 16 21  1  0  0  0  0
 17 18  1  0  0  0  0
 17 38  1  0  0  0  0
 18 19  2  0  0  0  0
 18 39  1  0  0  0  0
 19 20  1  0  0  0  0
 19 40  1  0  0  0  0
 20 21  2  0  0  0  0
 20 41  1  0  0  0  0
 21 28  1  0  0  0  0
 23 42  1  0  0  0  0
 23 43  1  0  0  0  0
 25 44  1  0  0  0  0
 25 45  1  0  0  0  0
M  END
>  <DRUGBANK_ID>
DB08406

>  <COMMON_NAME>
[N-(2,4-DIAMINOPTERIDIN-6-YL)-METHYL]-DIBENZ[B,F]AZEPINE

$$$$
