
 OpenBabel10282417233D

 52 56  0  0  0  0  0  0  0  0999 V2000
    1.0324    0.8077    0.1402 C   0  0  0  0  0  0  0  0  0  0  0  0
   -0.4063    1.2228   -0.1561 C   0  0  0  0  0  0  0  0  0  0  0  0
   -1.2011    0.0004   -0.0131 N   0  0  0  0  0  0  0  0  0  0  0  0
   -0.3595   -0.9943   -0.0167 C   0  0  0  0  0  0  0  0  0  0  0  0
   -0.6889   -2.3240    0.0462 N   0  0  0  0  0  0  0  0  0  0  0  0
   -1.9513   -2.9036    0.0945 N   0  0  0  0  0  0  0  0  0  0  0  0
   -2.9743   -2.1197    0.2247 C   0  0  0  0  0  0  0  0  0  0  0  0
   -4.3918   -2.5509    0.3234 C   0  0  0  0  0  0  0  0  0  0  0  0
   -4.7437   -3.5378    1.2697 C   0  0  0  0  0  0  0  0  0  0  0  0
   -3.7914   -4.1271    2.1415 C   0  0  0  0  0  0  0  0  0  0  0  0
   -4.1196   -5.1312    3.0396 C   0  0  0  0  0  0  0  0  0  0  0  0
   -5.4294   -5.5509    3.1202 C   0  0  0  0  0  0  0  0  0  0  0  0
   -6.3984   -4.9458    2.3188 C   0  0  0  0  0  0  0  0  0  0  0  0
   -6.1030   -3.9260    1.3702 C   0  0  0  0  0  0  0  0  0  0  0  0
   -7.0742   -3.2683    0.5331 C   0  0  0  0  0  0  0  0  0  0  0  0
   -8.4999   -3.7258    0.6414 C   0  0  0  0  0  0  0  0  0  0  0  0
   -9.5191   -3.0924    0.1367 N   0  0  0  0  0  0  0  0  0  0  0  0
  -10.7699   -3.6301    0.2347 N   0  0  0  0  0  0  0  0  0  0  0  0
  -11.2124   -4.6675    0.9940 C   0  0  0  0  0  0  0  0  0  0  0  0
  -12.0494   -5.5878    0.6105 N   0  0  0  0  0  0  0  0  0  0  0  0
  -12.2057   -6.4410    1.8316 C   0  0  0  0  0  0  0  0  0  0  0  0
  -11.0804   -6.0420    2.7965 C   0  0  0  0  0  0  0  0  0  0  0  0
  -10.7303   -4.7726    2.2538 N   0  0  0  0  0  0  0  0  0  0  0  0
   -6.7102   -2.2323   -0.3863 C   0  0  0  0  0  0  0  0  0  0  0  0
   -5.3481   -1.8573   -0.4787 C   0  0  0  0  0  0  0  0  0  0  0  0
   -5.0030   -0.8105   -1.3841 C   0  0  0  0  0  0  0  0  0  0  0  0
   -5.9405   -0.1584   -2.1844 C   0  0  0  0  0  0  0  0  0  0  0  0
   -7.2596   -0.5370   -2.1161 C   0  0  0  0  0  0  0  0  0  0  0  0
   -7.6224   -1.5506   -1.2406 C   0  0  0  0  0  0  0  0  0  0  0  0
    0.9485   -0.6254   -0.0217 N   0  0  0  0  0  0  0  0  0  0  0  0
    1.7371    1.3011   -0.5329 H   0  0  0  0  0  0  0  0  0  0  0  0
    1.2851    1.0431    1.1791 H   0  0  0  0  0  0  0  0  0  0  0  0
   -0.7762    1.9919    0.5263 H   0  0  0  0  0  0  0  0  0  0  0  0
   -0.5302    1.5694   -1.1867 H   0  0  0  0  0  0  0  0  0  0  0  0
    0.0792   -2.9852    0.0095 H   0  0  0  0  0  0  0  0  0  0  0  0
   -2.9185   -1.0322    0.2956 H   0  0  0  0  0  0  0  0  0  0  0  0
   -2.7497   -3.8076    2.1356 H   0  0  0  0  0  0  0  0  0  0  0  0
   -3.3495   -5.5764    3.6615 H   0  0  0  0  0  0  0  0  0  0  0  0
   -5.7084   -6.3419    3.8088 H   0  0  0  0  0  0  0  0  0  0  0  0
   -7.4085   -5.3126    2.4705 H   0  0  0  0  0  0  0  0  0  0  0  0
   -8.6610   -4.6621    1.1741 H   0  0  0  0  0  0  0  0  0  0  0  0
  -11.3593   -3.4758   -0.5827 H   0  0  0  0  0  0  0  0  0  0  0  0
  -12.1602   -7.5037    1.5774 H   0  0  0  0  0  0  0  0  0  0  0  0
  -13.1849   -6.2195    2.2682 H   0  0  0  0  0  0  0  0  0  0  0  0
  -11.4067   -5.9925    3.8367 H   0  0  0  0  0  0  0  0  0  0  0  0
  -10.2254   -6.7209    2.7067 H   0  0  0  0  0  0  0  0  0  0  0  0
  -10.2430   -4.0264    2.7211 H   0  0  0  0  0  0  0  0  0  0  0  0
   -3.9708   -0.4762   -1.4886 H   0  0  0  0  0  0  0  0  0  0  0  0
   -5.6385    0.6309   -2.8643 H   0  0  0  0  0  0  0  0  0  0  0  0
   -8.0213   -0.0671   -2.7311 H   0  0  0  0  0  0  0  0  0  0  0  0
   -8.6785   -1.7879   -1.2670 H   0  0  0  0  0  0  0  0  0  0  0  0
    1.7458   -1.1994   -0.2406 H   0  0  0  0  0  0  0  0  0  0  0  0
  1  2  1  0  0  0  0
  1 30  1  0  0  0  0
  1 31  1  0  0  0  0
  1 32  1  0  0  0  0
  2  3  1  0  0  0  0
  2 33  1  0  0  0  0
  2 34  1  0  0  0  0
  3  4  2  0  0  0  0
  4  5  1  0  0  0  0
  4 30  1  0  0  0  0
  5  6  1  0  0  0  0
  5 35  1  0  0  0  0
  6  7  2  0  0  0  0
  7  8  1  0  0  0  0
  7 36  1  0  0  0  0
  8  9  2  0  0  0  0
  8 25  1  0  0  0  0
  9 10  1  0  0  0  0
  9 14  1  0  0  0  0
 10 11  2  0  0  0  0
 10 37  1  0  0  0  0
 11 12  1  0  0  0  0
 11 38  1  0  0  0  0
 12 13  2  0  0  0  0
 12 39  1  0  0  0  0
 13 14  1  0  0  0  0
 13 40  1  0  0  0  0
 14 15  2  0  0  0  0
 15 16  1  0  0  0  0
 15 24  1  0  0  0  0
 16 17  2  0  0  0  0
 16 41  1  0  0  0  0
 17 18  1  0  0  0  0
 18 19  1  0  0  0  0
 18 42  1  0  0  0  0
 19 20  2  0  0  0  0
 19 23  1  0  0  0  0
 20 21  1  0  0  0  0
 21 22  1  0  0  0  0
 21 43  1  0  0  0  0
 21 44  1  0  0  0  0
 22 23  1  0  0  0  0
 22 45  1  0  0  0  0
 22 46  1  0  0  0  0
 23 47  1  0  0  0  0
 24 25  2  0  0  0  0
 24 29  1  0  0  0  0
 25 26  1  0  0  0  0
 26 27  2  0  0  0  0
 26 48  1  0  0  0  0
 27 28  1  0  0  0  0
 27 49  1  0  0  0  0
 28 29  2  0  0  0  0
 28 50  1  0  0  0  0
 29 51  1  0  0  0  0
 30 52  1  0  0  0  0
M  END
>  <DRUGBANK_ID>
DB17247

>  <COMMON_NAME>
Bisantrene

>  <CAS_NUMBER>
78186-34-2

>  <UNII>
39C34M111K

>  <SYNONYMS>
9,10-anthracenedicarboxaldehyde bis(2-imidazolin-2-ylhydrazone); 9,10-anthracenedicarboxaldehyde, bis((4,5-dihydro-1h-imidazol-2-yl)hydrazone)

$$$$
