
 OpenBabel10282417133D

 97103  0  0  0  0  0  0  0  0999 V2000
   -1.7439   -0.1208   -0.0248 C   0  0  0  0  0  0  0  0  0  0  0  0
    0.0632   -1.0425    0.0192 C   0  0  0  0  0  0  0  0  0  0  0  0
   -0.0966    1.4529   -0.2155 C   0  0  0  0  0  0  0  0  0  0  0  0
   -1.1269   -1.3130    0.1739 N   0  0  0  0  0  0  0  0  0  0  0  0
   -1.3721    1.2607   -0.1545 N   0  0  0  0  0  0  0  0  0  0  0  0
    1.3155   -1.7953    0.0207 N   0  0  0  0  0  0  0  0  0  0  0  0
    1.3521    2.9272    0.6624 N   0  0  0  0  0  0  0  0  0  0  0  0
    0.2821    0.1834   -0.2142 N   0  0  0  0  0  0  0  0  0  0  0  0
   -1.6100   -7.8660   -1.1248 C   0  0  0  0  0  0  0  0  0  0  0  0
    1.6496    1.1963   -1.2883 C   0  0  0  0  0  0  0  0  0  0  0  0
    2.4669    2.6537   -0.1470 C   0  0  0  0  0  0  0  0  0  0  0  0
   -1.3486   -7.2765    0.1288 C   0  0  0  0  0  0  0  0  0  0  0  0
   -0.7388   -5.9630   -2.2950 C   0  0  0  0  0  0  0  0  0  0  0  0
    3.5466   -1.5524    2.0239 C   0  0  0  0  0  0  0  0  0  0  0  0
   -1.2923   -7.2212   -2.3317 C   0  0  0  0  0  0  0  0  0  0  0  0
    2.1110   -0.3567   -0.9165 C   0  0  0  0  0  0  0  0  0  0  0  0
    3.4373   -0.2083    0.7325 C   0  0  0  0  0  0  0  0  0  0  0  0
    3.0559    2.7791    1.1473 C   0  0  0  0  0  0  0  0  0  0  0  0
   -0.5468   -5.3801   -1.0531 C   0  0  0  0  0  0  0  0  0  0  0  0
   -0.7939   -6.0285    0.1734 C   0  0  0  0  0  0  0  0  0  0  0  0
    2.5249   -3.1171    1.4599 C   0  0  0  0  0  0  0  0  0  0  0  0
    1.9060   -3.4896   -0.4027 C   0  0  0  0  0  0  0  0  0  0  0  0
    1.5126   -2.0649   -1.7199 C   0  0  0  0  0  0  0  0  0  0  0  0
    3.8626    1.4198    1.3539 C   0  0  0  0  0  0  0  0  0  0  0  0
    0.0540   -4.1659   -1.0360 N   0  0  0  0  0  0  0  0  0  0  0  0
    1.0369   -4.4740   -0.3815 N   0  0  0  0  0  0  0  0  0  0  0  0
   -0.4685   -5.3741    1.3451 O   0  0  0  0  0  0  0  0  0  0  0  0
    0.1451   -1.9417   -2.2536 O   0  0  0  0  0  0  0  0  0  0  0  0
   -2.5986   -7.0233   -4.7078 O   0  0  0  0  0  0  0  0  0  0  0  0
   -0.3265   -8.0436   -4.6252 O   0  0  0  0  0  0  0  0  0  0  0  0
   -2.3024   -9.2440   -3.6448 O   0  0  0  0  0  0  0  0  0  0  0  0
    2.2445   -4.2972    3.1958 O   0  0  0  0  0  0  0  0  0  0  0  0
    3.9799   -4.9926    1.2944 O   0  0  0  0  0  0  0  0  0  0  0  0
    4.5399   -3.1855    2.9810 O   0  0  0  0  0  0  0  0  0  0  0  0
    5.6612    2.7158   -0.8534 O   0  0  0  0  0  0  0  0  0  0  0  0
    5.7346    3.0353    1.7302 O   0  0  0  0  0  0  0  0  0  0  0  0
    6.4260    0.8794    1.0525 O   0  0  0  0  0  0  0  0  0  0  0  0
   -1.5839   -8.0161   -3.9114 S   0  0  0  0  0  0  0  0  0  0  0  0
    3.5941   -4.0793    2.3273 S   0  0  0  0  0  0  0  0  0  0  0  0
    5.5773    2.0062    0.7550 S   0  0  0  0  0  0  0  0  0  0  0  0
   -3.2397    7.3964    0.3312 C   0  0  0  0  0  0  0  0  0  0  0  0
    1.8548   -0.8060    1.4789 C   0  0  0  0  0  0  0  0  0  0  0  0
    3.0444   -1.9220    0.2998 C   0  0  0  0  0  0  0  0  0  0  0  0
   -2.8338    6.7777   -0.8634 C   0  0  0  0  0  0  0  0  0  0  0  0
   -1.9907    5.8149    1.6486 C   0  0  0  0  0  0  0  0  0  0  0  0
    3.4218    1.9181   -1.7942 C   0  0  0  0  0  0  0  0  0  0  0  0
   -2.8201    6.9248    1.5856 C   0  0  0  0  0  0  0  0  0  0  0  0
    1.9157    0.7759    0.8740 C   0  0  0  0  0  0  0  0  0  0  0  0
    3.3714    0.9745   -0.6005 C   0  0  0  0  0  0  0  0  0  0  0  0
    3.1859   -1.8735   -0.8947 C   0  0  0  0  0  0  0  0  0  0  0  0
   -1.5930    5.2214    0.4498 C   0  0  0  0  0  0  0  0  0  0  0  0
   -2.0098    5.6902   -0.8045 C   0  0  0  0  0  0  0  0  0  0  0  0
    1.9692    3.0014   -1.9608 C   0  0  0  0  0  0  0  0  0  0  0  0
    0.5257    2.9413   -0.6805 C   0  0  0  0  0  0  0  0  0  0  0  0
    0.5896    1.7351    1.2091 C   0  0  0  0  0  0  0  0  0  0  0  0
    4.0605   -0.5047   -1.1841 C   0  0  0  0  0  0  0  0  0  0  0  0
   -0.7991    4.1155    0.4777 N   0  0  0  0  0  0  0  0  0  0  0  0
   -0.0383    4.1919   -0.4967 N   0  0  0  0  0  0  0  0  0  0  0  0
   -1.5849    5.0157   -1.9265 O   0  0  0  0  0  0  0  0  0  0  0  0
   -0.3685    1.9316    2.0985 O   0  0  0  0  0  0  0  0  0  0  0  0
   -4.1262    6.6724    3.9637 O   0  0  0  0  0  0  0  0  0  0  0  0
   -2.1125    8.1323    3.8088 O   0  0  0  0  0  0  0  0  0  0  0  0
   -4.2665    8.8064    2.7098 O   0  0  0  0  0  0  0  0  0  0  0  0
    1.4017    4.3460   -3.5183 O   0  0  0  0  0  0  0  0  0  0  0  0
    2.8310    5.3421   -1.5711 O   0  0  0  0  0  0  0  0  0  0  0  0
    3.9090    3.7444   -3.2336 O   0  0  0  0  0  0  0  0  0  0  0  0
    6.0538   -1.3626    1.0614 O   0  0  0  0  0  0  0  0  0  0  0  0
    6.1820   -1.9158   -1.4665 O   0  0  0  0  0  0  0  0  0  0  0  0
    6.2724    0.4483   -1.0924 O   0  0  0  0  0  0  0  0  0  0  0  0
   -3.3171    7.7810    3.0898 S   0  0  0  0  0  0  0  0  0  0  0  0
    2.7404    4.3560   -2.6180 S   0  0  0  0  0  0  0  0  0  0  0  0
    5.7852   -0.8314   -0.6278 S   0  0  0  0  0  0  0  0  0  0  0  0
   -2.7603   -0.2475   -0.0989 H   0  0  0  0  0  0  0  0  0  0  0  0
    0.7777   -2.6325    0.4477 H   0  0  0  0  0  0  0  0  0  0  0  0
    0.6228    3.6166    1.0462 H   0  0  0  0  0  0  0  0  0  0  0  0
   -2.0628   -8.8502   -1.1578 H   0  0  0  0  0  0  0  0  0  0  0  0
    0.8080    1.1769   -2.2026 H   0  0  0  0  0  0  0  0  0  0  0  0
    2.4410    4.0399   -0.1089 H   0  0  0  0  0  0  0  0  0  0  0  0
   -1.6025   -7.7917    1.0426 H   0  0  0  0  0  0  0  0  0  0  0  0
   -0.4458   -5.4184   -3.1860 H   0  0  0  0  0  0  0  0  0  0  0  0
    4.3889   -0.8090    1.9562 H   0  0  0  0  0  0  0  0  0  0  0  0
   -0.6361   -5.8944    2.1419 H   0  0  0  0  0  0  0  0  0  0  0  0
   -0.1012   -1.0093   -2.4344 H   0  0  0  0  0  0  0  0  0  0  0  0
   -3.4765   -6.9284   -4.2841 H   0  0  0  0  0  0  0  0  0  0  0  0
    1.8567   -3.3971    3.4219 H   0  0  0  0  0  0  0  0  0  0  0  0
    5.6609    2.2354   -1.7548 H   0  0  0  0  0  0  0  0  0  0  0  0
   -3.8881    8.2635    0.2738 H   0  0  0  0  0  0  0  0  0  0  0  0
    0.9846   -0.9836    2.2064 H   0  0  0  0  0  0  0  0  0  0  0  0
    3.6359   -3.1963    0.0921 H   0  0  0  0  0  0  0  0  0  0  0  0
   -3.1673    7.1428   -1.8228 H   0  0  0  0  0  0  0  0  0  0  0  0
   -1.6422    5.4211    2.5987 H   0  0  0  0  0  0  0  0  0  0  0  0
    4.3024    1.4835   -2.1830 H   0  0  0  0  0  0  0  0  0  0  0  0
   -1.8054    5.4193   -2.7676 H   0  0  0  0  0  0  0  0  0  0  0  0
   -0.5253    1.0416    2.4068 H   0  0  0  0  0  0  0  0  0  0  0  0
   -4.9549    6.3627    3.5434 H   0  0  0  0  0  0  0  0  0  0  0  0
    1.1949    3.3959   -3.7586 H   0  0  0  0  0  0  0  0  0  0  0  0
    5.9566   -0.8485    1.9485 H   0  0  0  0  0  0  0  0  0  0  0  0
  1  4  2  0  0  0  0
  1  5  1  0  0  0  0
  1 73  1  0  0  0  0
  2  4  1  0  0  0  0
  2  6  1  0  0  0  0
  2  8  2  0  0  0  0
  3  5  2  0  0  0  0
  3  7  1  0  0  0  0
  3  8  1  0  0  0  0
  6 74  1  0  0  0  0
  7 75  1  0  0  0  0
  9 12  2  0  0  0  0
  9 15  1  0  0  0  0
  9 76  1  0  0  0  0
 10 11  2  0  0  0  0
 10 16  1  0  0  0  0
 10 77  1  0  0  0  0
 11 18  1  0  0  0  0
 11 78  1  0  0  0  0
 12 20  1  0  0  0  0
 12 79  1  0  0  0  0
 13 15  2  0  0  0  0
 13 19  1  0  0  0  0
 13 80  1  0  0  0  0
 14 17  2  0  0  0  0
 14 21  1  0  0  0  0
 14 81  1  0  0  0  0
 15 38  1  0  0  0  0
 16 17  1  0  0  0  0
 16 23  2  0  0  0  0
 17 24  1  0  0  0  0
 18 24  2  0  0  0  0
 18  7  1  0  0  0  0
 19 20  2  0  0  0  0
 19 25  1  0  0  0  0
 20 27  1  0  0  0  0
 21 22  2  0  0  0  0
 21 39  1  0  0  0  0
 22 23  1  0  0  0  0
 22 26  1  0  0  0  0
 23 28  1  0  0  0  0
 24 40  1  0  0  0  0
 25 26  2  0  0  0  0
 27 82  1  0  0  0  0
 28 83  1  0  0  0  0
 29 38  1  0  0  0  0
 29 84  1  0  0  0  0
 30 38  2  0  0  0  0
 31 38  2  0  0  0  0
 32 39  1  0  0  0  0
 32 85  1  0  0  0  0
 33 39  2  0  0  0  0
 34 39  2  0  0  0  0
 35 40  1  0  0  0  0
 35 86  1  0  0  0  0
 36 40  2  0  0  0  0
 37 40  2  0  0  0  0
 41 44  2  0  0  0  0
 41 47  1  0  0  0  0
 41 87  1  0  0  0  0
 42 43  2  0  0  0  0
 42 48  1  0  0  0  0
 42 88  1  0  0  0  0
 43 50  1  0  0  0  0
 43 89  1  0  0  0  0
 44 52  1  0  0  0  0
 44 90  1  0  0  0  0
 45 47  2  0  0  0  0
 45 51  1  0  0  0  0
 45 91  1  0  0  0  0
 46 49  2  0  0  0  0
 46 53  1  0  0  0  0
 46 92  1  0  0  0  0
 47 70  1  0  0  0  0
 48 49  1  0  0  0  0
 48 55  2  0  0  0  0
 49 56  1  0  0  0  0
 50 56  2  0  0  0  0
 50  6  1  0  0  0  0
 51 52  2  0  0  0  0
 51 57  1  0  0  0  0
 52 59  1  0  0  0  0
 53 54  2  0  0  0  0
 53 71  1  0  0  0  0
 54 55  1  0  0  0  0
 54 58  1  0  0  0  0
 55 60  1  0  0  0  0
 56 72  1  0  0  0  0
 57 58  2  0  0  0  0
 59 93  1  0  0  0  0
 60 94  1  0  0  0  0
 61 70  1  0  0  0  0
 61 95  1  0  0  0  0
 62 70  2  0  0  0  0
 63 70  2  0  0  0  0
 64 71  1  0  0  0  0
 64 96  1  0  0  0  0
 65 71  2  0  0  0  0
 66 71  2  0  0  0  0
 67 72  1  0  0  0  0
 67 97  1  0  0  0  0
 68 72  2  0  0  0  0
 69 72  2  0  0  0  0
M  END
>  <DRUGBANK_ID>
DB03853

>  <SECONDARY_ACCESSION_NUMBERS>
EXPT02816

>  <COMMON_NAME>
Reactive Red 6 hapten

>  <SYNONYMS>
azo-dye hapten; RR6 azo-dye hapten

$$$$
