1493
 OpenBabel10282417113D

 53 56  0  0  1  0  0  0  0  0999 V2000
   -2.9117    2.5660    3.5703 O   0  0  0  0  0  0  0  0  0  0  0  0
    0.2494    1.4571    2.9705 C   0  0  1  0  0  0  0  0  0  0  0  0
   -0.5763    0.8534    3.8605 C   0  0  2  0  0  0  0  0  0  0  0  0
   -1.4122   -0.0113    2.1594 C   0  0  1  0  0  0  0  0  0  0  0  0
   -1.1114   -1.2067    1.1976 C   0  0  2  0  0  0  0  0  0  0  0  0
   -1.3435    2.5637    2.7962 C   0  0  2  0  0  0  0  0  0  0  0  0
    0.9359   -0.1907    2.7809 C   0  0  0  0  0  0  0  0  0  0  0  0
   -0.9813    2.3851    4.7425 C   0  0  0  0  0  0  0  0  0  0  0  0
    0.5408   -0.8757    1.3569 C   0  0  0  0  0  0  0  0  0  0  0  0
   -1.1172    3.5688    3.7428 C   0  0  0  0  0  0  0  0  0  0  0  0
   -2.3249   -1.4066   -0.3530 C   0  0  2  0  0  0  0  0  0  0  0  0
   -3.4209    0.0183    2.0945 C   0  0  0  0  0  0  0  0  0  0  0  0
    1.3697    2.3468    2.6966 C   0  0  0  0  0  0  0  0  0  0  0  0
   -2.3409    1.6783    2.3069 C   0  0  0  0  0  0  0  0  0  0  0  0
   -4.0582    0.0967    0.7959 C   0  0  0  0  0  0  0  0  0  0  0  0
   -3.4251   -1.2244    0.6067 C   0  0  0  0  0  0  0  0  0  0  0  0
   -3.8993   -2.2206   -1.2545 C   0  0  0  0  0  0  0  0  0  0  0  0
   -5.4895   -1.8404   -0.7156 C   0  0  0  0  0  0  0  0  0  0  0  0
   -4.0489   -2.3249    1.0596 C   0  0  0  0  0  0  0  0  0  0  0  0
   -2.4429    0.2340    3.7557 C   0  0  0  0  0  0  0  0  0  0  0  0
   -5.4876   -2.0849    0.7858 C   0  0  0  0  0  0  0  0  0  0  0  0
   -0.3376    0.1907    4.7544 H   0  0  0  0  0  0  0  0  0  0  0  0
   -0.8105    0.6938    1.4358 H   0  0  0  0  0  0  0  0  0  0  0  0
   -1.2581   -2.0777    1.8307 H   0  0  0  0  0  0  0  0  0  0  0  0
   -1.7651   -2.3277   -0.5437 H   0  0  0  0  0  0  0  0  0  0  0  0
   -3.4464    3.3918    3.5352 H   0  0  0  0  0  0  0  0  0  0  0  0
    2.0371   -0.1332    2.9288 H   0  0  0  0  0  0  0  0  0  0  0  0
    0.7495   -0.9195    3.6339 H   0  0  0  0  0  0  0  0  0  0  0  0
   -0.2529    2.7020    5.4797 H   0  0  0  0  0  0  0  0  0  0  0  0
   -1.9242    2.1915    5.3005 H   0  0  0  0  0  0  0  0  0  0  0  0
    0.9189   -0.0819    0.7025 H   0  0  0  0  0  0  0  0  0  0  0  0
    1.1283   -1.7856    1.2546 H   0  0  0  0  0  0  0  0  0  0  0  0
   -0.4322    4.0233    3.0301 H   0  0  0  0  0  0  0  0  0  0  0  0
   -1.9090    4.3247    3.8792 H   0  0  0  0  0  0  0  0  0  0  0  0
   -3.9449    0.8714    2.6676 H   0  0  0  0  0  0  0  0  0  0  0  0
   -3.9909   -0.6899    2.7713 H   0  0  0  0  0  0  0  0  0  0  0  0
    1.2332    2.3926    1.6136 H   0  0  0  0  0  0  0  0  0  0  0  0
    1.2705    3.3079    3.1753 H   0  0  0  0  0  0  0  0  0  0  0  0
    2.3647    1.9577    2.8891 H   0  0  0  0  0  0  0  0  0  0  0  0
   -2.4271    1.2826    1.2115 H   0  0  0  0  0  0  0  0  0  0  0  0
   -1.7129    2.0953    1.3444 H   0  0  0  0  0  0  0  0  0  0  0  0
   -3.8248    0.9510    0.1743 H   0  0  0  0  0  0  0  0  0  0  0  0
   -5.0542    0.2979    1.2143 H   0  0  0  0  0  0  0  0  0  0  0  0
   -4.2397   -2.2110   -2.3188 H   0  0  0  0  0  0  0  0  0  0  0  0
   -3.7643   -3.3246   -1.2398 H   0  0  0  0  0  0  0  0  0  0  0  0
   -6.4507   -2.3035   -1.0277 H   0  0  0  0  0  0  0  0  0  0  0  0
   -5.6750   -0.8331   -1.1508 H   0  0  0  0  0  0  0  0  0  0  0  0
   -3.5685   -3.2568    0.7397 H   0  0  0  0  0  0  0  0  0  0  0  0
   -3.0140    0.4014    4.6709 H   0  0  0  0  0  0  0  0  0  0  0  0
   -1.6171   -0.5944    4.0314 H   0  0  0  0  0  0  0  0  0  0  0  0
   -2.5877   -0.9025    3.4197 H   0  0  0  0  0  0  0  0  0  0  0  0
   -6.0038   -2.9655    1.1232 H   0  0  0  0  0  0  0  0  0  0  0  0
   -5.9574   -1.2229    1.2529 H   0  0  0  0  0  0  0  0  0  0  0  0
  1 26  1  0  0  0  0
  2  3  1  0  0  0  0
  2  6  1  0  0  0  0
  2  7  1  0  0  0  0
  2 13  1  6  0  0  0
  3  4  1  0  0  0  0
  3  8  1  0  0  0  0
  3 22  1  1  0  0  0
  4  5  1  0  0  0  0
  4 12  1  0  0  0  0
  4 23  1  6  0  0  0
  5  9  1  0  0  0  0
  5 11  1  0  0  0  0
  5 24  1  1  0  0  0
  6  1  1  1  0  0  0
  6 10  1  0  0  0  0
  6 14  1  0  0  0  0
  7  9  1  0  0  0  0
  7 27  1  0  0  0  0
  7 28  1  0  0  0  0
  8 10  1  0  0  0  0
  8 29  1  0  0  0  0
  8 30  1  0  0  0  0
  9 31  1  0  0  0  0
  9 32  1  0  0  0  0
 10 33  1  0  0  0  0
 10 34  1  0  0  0  0
 11 16  1  0  0  0  0
 11 17  1  0  0  0  0
 11 25  1  6  0  0  0
 12 15  1  0  0  0  0
 12 35  1  0  0  0  0
 12 36  1  0  0  0  0
 13 37  1  0  0  0  0
 13 38  1  0  0  0  0
 13 39  1  0  0  0  0
 14 20  1  0  0  0  0
 14 40  1  0  0  0  0
 14 41  1  0  0  0  0
 15 16  1  0  0  0  0
 15 42  1  0  0  0  0
 15 43  1  0  0  0  0
 16 19  2  0  0  0  0
 17 18  1  0  0  0  0
 17 44  1  0  0  0  0
 17 45  1  0  0  0  0
 18 21  1  0  0  0  0
 18 46  1  0  0  0  0
 18 47  1  0  0  0  0
 19 21  1  0  0  0  0
 19 48  1  0  0  0  0
 20 49  1  0  0  0  0
 20 50  1  0  0  0  0
 20 51  1  0  0  0  0
 21 52  1  0  0  0  0
 21 53  1  0  0  0  0
M  END
>  <DRUGBANK_ID>
DB01493

>  <COMMON_NAME>
Ethylestrenol

>  <CAS_NUMBER>
965-90-2

>  <UNII>
ADC79EK5Q8

>  <SYNONYMS>
Ethylestrenol; etilestrenol

$$$$
