
 OpenBabel10282417143D

 58 62  0  0  0  0  0  0  0  0999 V2000
   -0.7677    2.5340    4.6303 C   0  0  1  0  0  0  0  0  0  0  0  0
   -2.1885    2.2227    5.1071 C   0  0  2  0  0  0  0  0  0  0  0  0
   -1.0918   -0.5856    1.6217 C   0  0  0  0  0  0  0  0  0  0  0  0
   -0.8641    0.4838    2.6775 C   0  0  0  0  0  0  0  0  0  0  0  0
   -0.3980    1.7094    2.3149 C   0  0  0  0  0  0  0  0  0  0  0  0
   -0.1317    2.8607    3.2890 C   0  0  1  0  0  0  0  0  0  0  0  0
   -0.7467    4.1318    2.7022 C   0  0  2  0  0  0  0  0  0  0  0  0
   -0.0760    2.1147    0.9076 C   0  0  0  0  0  0  0  0  0  0  0  0
    0.1094    3.3379    0.5160 C   0  0  0  0  0  0  0  0  0  0  0  0
    0.0403    4.5098    1.4449 C   0  0  1  0  0  0  0  0  0  0  0  0
   -1.3207    6.5257    3.0587 C   0  0  0  0  0  0  0  0  0  0  0  0
   -0.6790    5.2890    3.6963 C   0  0  0  0  0  0  0  0  0  0  0  0
   -0.6187    5.7198    0.7882 C   0  0  1  0  0  0  0  0  0  0  0  0
   -0.5824    6.8949    1.7715 C   0  0  1  0  0  0  0  0  0  0  0  0
   -1.9406    6.9752   -1.4807 C   0  0  2  0  0  0  0  0  0  0  0  0
   -2.0584    5.3920    0.4273 C   0  0  0  0  0  0  0  0  0  0  0  0
   -2.7067    6.6041   -0.2215 C   0  0  0  0  0  0  0  0  0  0  0  0
   -0.8468   -0.3349    0.4001 O   0  0  0  0  0  0  0  0  0  0  0  0
    0.0618    0.8262   -0.3127 Cl  0  0  0  0  0  0  0  0  0  0  0  0
   -0.5009    7.3030   -1.1198 C   0  0  0  0  0  0  0  0  0  0  0  0
    0.4057    6.2136   -0.5706 C   0  0  0  0  0  0  0  0  0  0  0  0
   -0.0513    8.4801   -1.2860 O   0  0  0  0  0  0  0  0  0  0  0  0
   -2.5462    8.1076   -2.0868 O   0  0  0  0  0  0  0  0  0  0  0  0
    0.8631    7.2313    2.0997 C   0  0  0  0  0  0  0  0  0  0  0  0
    1.3605    3.0638    3.4950 C   0  0  0  0  0  0  0  0  0  0  0  0
   -1.0479    1.2478    5.4101 C   0  0  0  0  0  0  0  0  0  0  0  0
   -0.2118    3.3261    5.0869 H   0  0  0  0  0  0  0  0  0  0  0  0
   -2.9448    1.9576    4.3981 H   0  0  0  0  0  0  0  0  0  0  0  0
   -1.7754    3.9462    2.4738 H   0  0  0  0  0  0  0  0  0  0  0  0
   -0.0867    5.9798   -0.1030 H   0  0  0  0  0  0  0  0  0  0  0  0
    1.0450    4.7744    1.7009 H   0  0  0  0  0  0  0  0  0  0  0  0
   -1.7617    8.8119   -3.0381 C   0  0  0  0  0  0  0  0  0  0  0  0
   -0.3675    8.3180   -3.3884 C   0  0  0  0  0  0  0  0  0  0  0  0
   -2.2252    9.8552   -3.5965 O   0  0  0  0  0  0  0  0  0  0  0  0
   -1.0244   -0.2690    1.9343 H   0  0  0  0  0  0  0  0  0  0  0  0
    0.3213    3.5169   -0.5174 H   0  0  0  0  0  0  0  0  0  0  0  0
   -1.2608    7.3448    3.7446 H   0  0  0  0  0  0  0  0  0  0  0  0
   -2.3450    6.3158    2.8317 H   0  0  0  0  0  0  0  0  0  0  0  0
    0.3411    5.4958    3.9447 H   0  0  0  0  0  0  0  0  0  0  0  0
   -1.2091    5.0283    4.5884 H   0  0  0  0  0  0  0  0  0  0  0  0
   -2.0762    4.5692   -0.2565 H   0  0  0  0  0  0  0  0  0  0  0  0
   -2.5977    5.1308    1.3138 H   0  0  0  0  0  0  0  0  0  0  0  0
   -3.7202    6.3734   -0.4755 H   0  0  0  0  0  0  0  0  0  0  0  0
   -2.6889    7.4269    0.4623 H   0  0  0  0  0  0  0  0  0  0  0  0
    1.2413    6.0811   -1.2257 H   0  0  0  0  0  0  0  0  0  0  0  0
    0.7551    6.4963    0.4004 H   0  0  0  0  0  0  0  0  0  0  0  0
   -0.1410    5.2966   -0.4999 H   0  0  0  0  0  0  0  0  0  0  0  0
    1.3360    6.3795    2.5421 H   0  0  0  0  0  0  0  0  0  0  0  0
    1.3796    7.4996    1.2018 H   0  0  0  0  0  0  0  0  0  0  0  0
    0.8914    8.0516    2.7861 H   0  0  0  0  0  0  0  0  0  0  0  0
    1.5194    3.8710    4.1792 H   0  0  0  0  0  0  0  0  0  0  0  0
    1.7907    2.1687    3.8933 H   0  0  0  0  0  0  0  0  0  0  0  0
    1.8218    3.2948    2.5576 H   0  0  0  0  0  0  0  0  0  0  0  0
   -0.8772    0.2057    5.2370 H   0  0  0  0  0  0  0  0  0  0  0  0
   -0.6878    1.1403    6.4120 H   0  0  0  0  0  0  0  0  0  0  0  0
   -0.3206    8.0943   -4.4337 H   0  0  0  0  0  0  0  0  0  0  0  0
    0.3492    9.0770   -3.1536 H   0  0  0  0  0  0  0  0  0  0  0  0
   -0.1497    7.4351   -2.8246 H   0  0  0  0  0  0  0  0  0  0  0  0
  1  2  1  0  0  0  0
  1  6  1  0  0  0  0
  1 26  1  0  0  0  0
  1 27  1  6  0  0  0
  2  3  1  0  0  0  0
  2 26  1  0  0  0  0
  2 28  1  6  0  0  0
  3  4  1  0  0  0  0
  3 18  2  0  0  0  0
  4  5  2  0  0  0  0
  4 35  1  0  0  0  0
  5  8  1  0  0  0  0
  6  5  1  0  0  0  0
  6 25  1  1  0  0  0
  7  6  1  0  0  0  0
  7 10  1  0  0  0  0
  7 29  1  6  0  0  0
  8  9  2  0  0  0  0
  8 19  1  0  0  0  0
  9 10  1  0  0  0  0
  9 36  1  0  0  0  0
 10 13  1  0  0  0  0
 10 31  1  1  0  0  0
 11 12  1  0  0  0  0
 11 14  1  0  0  0  0
 11 37  1  0  0  0  0
 11 38  1  0  0  0  0
 12  7  1  0  0  0  0
 12 39  1  0  0  0  0
 12 40  1  0  0  0  0
 13 16  1  0  0  0  0
 13 30  1  1  0  0  0
 14 13  1  0  0  0  0
 14 24  1  1  0  0  0
 15 14  1  0  0  0  0
 15 17  1  0  0  0  0
 15 23  1  1  0  0  0
 15 20  1  0  0  0  0
 16 17  1  0  0  0  0
 16 41  1  0  0  0  0
 16 42  1  0  0  0  0
 17 43  1  0  0  0  0
 17 44  1  0  0  0  0
 20 21  1  0  0  0  0
 20 22  2  0  0  0  0
 21 45  1  0  0  0  0
 21 46  1  0  0  0  0
 21 47  1  0  0  0  0
 23 32  1  0  0  0  0
 24 48  1  0  0  0  0
 24 49  1  0  0  0  0
 24 50  1  0  0  0  0
 25 51  1  0  0  0  0
 25 52  1  0  0  0  0
 25 53  1  0  0  0  0
 26 54  1  0  0  0  0
 26 55  1  0  0  0  0
 32 33  1  0  0  0  0
 32 34  2  0  0  0  0
 33 56  1  0  0  0  0
 33 57  1  0  0  0  0
 33 58  1  0  0  0  0
M  END
>  <DRUGBANK_ID>
DB04839

>  <COMMON_NAME>
Cyproterone acetate

>  <CAS_NUMBER>
427-51-0

>  <UNII>
4KM2BN5JHF

>  <SYNONYMS>
Cyproterone 17-O-acetate; Cyproterone acetate

$$$$
