
 OpenBabel10282417223D

 55 57  0  0  0  0  0  0  0  0999 V2000
    1.1229    7.2570    0.6120 N   0  0  0  0  0  0  0  0  0  0  0  0
    1.0168    5.8839    0.6473 C   0  0  0  0  0  0  0  0  0  0  0  0
    2.4185    7.9151    0.8070 C   0  0  2  0  0  0  0  0  0  0  0  0
    0.0304    8.1127    0.6273 N   0  0  3  0  0  0  0  0  0  0  0  0
    0.0456    5.1931   -0.3646 C   0  0  1  0  0  0  0  0  0  0  0  0
    2.5853    8.5664    2.1858 C   0  0  0  0  0  0  0  0  0  0  0  0
    0.5032    3.7868   -0.5433 N   0  0  0  0  0  0  0  0  0  0  0  0
    2.5981    2.4481   -0.5801 C   0  0  0  0  0  0  0  0  0  0  0  0
    1.8290    3.6249   -1.2579 C   0  0  2  0  0  0  0  0  0  0  0  0
    1.7588    5.2089    1.3696 O   0  0  0  0  0  0  0  0  0  0  0  0
    3.4843    8.3303    2.9768 O   0  0  0  0  0  0  0  0  0  0  0  0
    2.1117    1.4974   -0.0055 O   0  0  0  0  0  0  0  0  0  0  0  0
    2.7021    4.9096   -1.3300 C   0  0  0  0  0  0  0  0  0  0  0  0
    1.6900    9.5389    2.4693 O   0  0  0  0  0  0  0  0  0  0  0  0
    3.9420    2.5373   -0.6930 O   0  0  0  0  0  0  0  0  0  0  0  0
    2.5872    8.9011   -0.3638 C   0  0  0  0  0  0  0  0  0  0  0  0
    3.9855    4.9337   -2.1329 C   0  0  0  0  0  0  0  0  0  0  0  0
   -1.2112    7.5914    1.1635 C   0  0  0  0  0  0  0  0  0  0  0  0
    0.0259    9.0169   -0.5089 C   0  0  0  0  0  0  0  0  0  0  0  0
    3.6833    4.5648   -3.5374 C   0  0  0  0  0  0  0  0  0  0  0  0
   -1.3475    5.2291    0.2495 C   0  0  0  0  0  0  0  0  0  0  0  0
    1.3525    9.8116   -0.5189 C   0  0  0  0  0  0  0  0  0  0  0  0
   -1.9246    6.6463    0.2051 C   0  0  0  0  0  0  0  0  0  0  0  0
    3.8114    3.2293   -3.9273 C   0  0  0  0  0  0  0  0  0  0  0  0
    3.1342    5.5135   -4.4011 C   0  0  0  0  0  0  0  0  0  0  0  0
    3.4394    2.8481   -5.2027 C   0  0  0  0  0  0  0  0  0  0  0  0
    2.7236    5.1194   -5.6643 C   0  0  0  0  0  0  0  0  0  0  0  0
    2.9173    3.7994   -6.0766 C   0  0  0  0  0  0  0  0  0  0  0  0
    3.2144    7.1645    0.7298 H   0  0  0  0  0  0  0  0  0  0  0  0
    0.0011    5.6594   -1.3606 H   0  0  0  0  0  0  0  0  0  0  0  0
    0.6372    3.4119    0.4049 H   0  0  0  0  0  0  0  0  0  0  0  0
    1.5648    3.2914   -2.2685 H   0  0  0  0  0  0  0  0  0  0  0  0
    2.0920    5.7395   -1.7075 H   0  0  0  0  0  0  0  0  0  0  0  0
    3.0735    5.1465   -0.3389 H   0  0  0  0  0  0  0  0  0  0  0  0
    1.9123    9.8628    3.3637 H   0  0  0  0  0  0  0  0  0  0  0  0
    4.3293    1.7848   -0.2057 H   0  0  0  0  0  0  0  0  0  0  0  0
    3.4995    9.4965   -0.2533 H   0  0  0  0  0  0  0  0  0  0  0  0
    2.6920    8.3235   -1.2943 H   0  0  0  0  0  0  0  0  0  0  0  0
    4.4096    5.9443   -2.0737 H   0  0  0  0  0  0  0  0  0  0  0  0
    4.7606    4.2957   -1.7080 H   0  0  0  0  0  0  0  0  0  0  0  0
   -1.0092    7.0782    2.1170 H   0  0  0  0  0  0  0  0  0  0  0  0
   -1.8697    8.4240    1.4317 H   0  0  0  0  0  0  0  0  0  0  0  0
   -0.8100    9.7221   -0.4483 H   0  0  0  0  0  0  0  0  0  0  0  0
   -0.0684    8.4491   -1.4403 H   0  0  0  0  0  0  0  0  0  0  0  0
   -2.0323    4.5566   -0.2797 H   0  0  0  0  0  0  0  0  0  0  0  0
   -1.2902    4.8797    1.2883 H   0  0  0  0  0  0  0  0  0  0  0  0
    1.3494   10.5426    0.2977 H   0  0  0  0  0  0  0  0  0  0  0  0
    1.4311   10.3905   -1.4447 H   0  0  0  0  0  0  0  0  0  0  0  0
   -1.8747    7.0386   -0.8183 H   0  0  0  0  0  0  0  0  0  0  0  0
   -2.9834    6.6082    0.4734 H   0  0  0  0  0  0  0  0  0  0  0  0
    4.1708    2.4828   -3.2227 H   0  0  0  0  0  0  0  0  0  0  0  0
    3.0042    6.5437   -4.0755 H   0  0  0  0  0  0  0  0  0  0  0  0
    3.5462    1.8102   -5.5008 H   0  0  0  0  0  0  0  0  0  0  0  0
    2.2468    5.8376   -6.3231 H   0  0  0  0  0  0  0  0  0  0  0  0
    2.6566    3.5082   -7.0876 H   0  0  0  0  0  0  0  0  0  0  0  0
  2  1  1  0  0  0  0
  3  1  1  0  0  0  0
  3  6  1  0  0  0  0
  3 29  1  6  0  0  0
  4  1  1  0  0  0  0
  5  2  1  0  0  0  0
  5  7  1  0  0  0  0
  5 30  1  6  0  0  0
  7 31  1  0  0  0  0
  9 32  1  6  0  0  0
  9  7  1  0  0  0  0
  9  8  1  0  0  0  0
 10  2  2  0  0  0  0
 11  6  2  0  0  0  0
 12  8  2  0  0  0  0
 13  9  1  0  0  0  0
 13 33  1  0  0  0  0
 13 34  1  0  0  0  0
 14  6  1  0  0  0  0
 14 35  1  0  0  0  0
 15  8  1  0  0  0  0
 15 36  1  0  0  0  0
 16  3  1  0  0  0  0
 16 22  1  0  0  0  0
 16 37  1  0  0  0  0
 16 38  1  0  0  0  0
 17 13  1  0  0  0  0
 17 39  1  0  0  0  0
 17 40  1  0  0  0  0
 18  4  1  0  0  0  0
 18 41  1  0  0  0  0
 18 42  1  0  0  0  0
 19  4  1  0  0  0  0
 19 43  1  0  0  0  0
 19 44  1  0  0  0  0
 20 17  1  0  0  0  0
 21  5  1  0  0  0  0
 21 45  1  0  0  0  0
 21 46  1  0  0  0  0
 22 19  1  0  0  0  0
 22 47  1  0  0  0  0
 22 48  1  0  0  0  0
 23 18  1  0  0  0  0
 23 21  1  0  0  0  0
 23 49  1  0  0  0  0
 23 50  1  0  0  0  0
 24 20  1  0  0  0  0
 24 51  1  0  0  0  0
 25 20  2  0  0  0  0
 25 52  1  0  0  0  0
 26 24  2  0  0  0  0
 26 28  1  0  0  0  0
 26 53  1  0  0  0  0
 27 25  1  0  0  0  0
 27 54  1  0  0  0  0
 28 27  2  0  0  0  0
 28 55  1  0  0  0  0
M  END
>  <DRUGBANK_ID>
DB15565

>  <COMMON_NAME>
Cilazaprilat

>  <CAS_NUMBER>
90139-06-3

>  <UNII>
WBL76FH528

>  <SYNONYMS>
Cilazaprilat; Cilazaprilate; Cilazaprilatum

$$$$
