
 OpenBabel10282417223D

 10  8  0  0  0  0  0  0  0  0999 V2000
    0.3489    0.3864    0.9023 C   0  0  0  0  0  0  0  0  0  0  0  0
   -0.2543    0.7414    1.9971 O   0  0  0  0  0  0  0  0  0  0  0  0
   -0.2327    0.0420   -0.1530 O   0  0  0  0  0  0  0  0  0  0  0  0
    1.6125    0.3400    1.0220 O   0  5  0  0  0  0  0  0  0  0  0  0
    1.9097   -0.5382   -1.0501 N   0  3  0  0  0  0  0  0  0  0  0  0
    0.6022    0.8210    2.4699 H   0  0  0  0  0  0  0  0  0  0  0  0
    0.9318   -0.9100   -1.0586 H   0  0  0  0  0  0  0  0  0  0  0  0
    1.8499   -0.9552   -0.0923 H   0  0  0  0  0  0  0  0  0  0  0  0
    1.3416    0.3281   -1.1835 H   0  0  0  0  0  0  0  0  0  0  0  0
    2.4507    0.1149   -0.4391 H   0  0  0  0  0  0  0  0  0  0  0  0
  1  2  1  0  0  0  0
  1  3  2  0  0  0  0
  1  4  1  0  0  0  0
  2  6  1  0  0  0  0
  5  7  1  0  0  0  0
  5  8  1  0  0  0  0
  5  9  1  0  0  0  0
  5 10  1  0  0  0  0
M  CHG  2   4  -1   5   1
M  END
>  <DRUGBANK_ID>
DB15925

>  <COMMON_NAME>
Ammonium bicarbonate

>  <CAS_NUMBER>
1066-33-7

>  <UNII>
45JP4345C9

>  <SYNONYMS>
Ammonium hydrogen carbonate; Carbonic acid, monoammonium salt; Monoammonium carbonate

$$$$
