
 OpenBabel10282417143D

 62 63  0  0  0  0  0  0  0  0999 V2000
    1.1088    0.0168   -0.1346 O   0  0  0  0  0  0  0  0  0  0  0  0
    8.6443    0.9305   -0.9250 O   0  0  0  0  0  0  0  0  0  0  0  0
    3.1172    0.7288   -0.7863 N   0  0  0  0  0  0  0  0  0  0  0  0
    3.0526   -9.6469    7.8875 C   0  0  0  0  0  0  0  0  0  0  0  0
    3.8364  -10.3981    9.0031 C   0  0  0  0  0  0  0  0  0  0  0  0
    5.2950   -9.9782    9.0498 C   0  0  0  0  0  0  0  0  0  0  0  0
    3.4286   -8.1436    7.8447 C   0  0  0  0  0  0  0  0  0  0  0  0
    5.3879   -8.4954    9.3810 C   0  0  0  0  0  0  0  0  0  0  0  0
    4.4268   -7.6283    8.6031 C   0  0  0  0  0  0  0  0  0  0  0  0
    1.5537   -9.8887    8.1904 C   0  0  0  0  0  0  0  0  0  0  0  0
    3.3791  -10.2880    6.5244 C   0  0  0  0  0  0  0  0  0  0  0  0
    2.6509   -7.2813    6.9512 C   0  0  0  0  0  0  0  0  0  0  0  0
    4.7147   -6.1544    8.7668 C   0  0  0  0  0  0  0  0  0  0  0  0
    3.1959   -6.4306    6.0571 C   0  0  0  0  0  0  0  0  0  0  0  0
    2.4921   -5.4821    5.1960 C   0  0  0  0  0  0  0  0  0  0  0  0
    0.9805   -5.4692    5.2247 C   0  0  0  0  0  0  0  0  0  0  0  0
    3.1773   -4.6242    4.3972 C   0  0  0  0  0  0  0  0  0  0  0  0
    2.5169   -3.6795    3.5075 C   0  0  0  0  0  0  0  0  0  0  0  0
    3.0770   -2.7984    2.6627 C   0  0  0  0  0  0  0  0  0  0  0  0
    2.3203   -1.8940    1.7738 C   0  0  0  0  0  0  0  0  0  0  0  0
    2.9767   -1.0295    0.9697 C   0  0  0  0  0  0  0  0  0  0  0  0
    0.8123   -1.9151    1.7652 C   0  0  0  0  0  0  0  0  0  0  0  0
    2.3324   -0.0967   -0.0246 C   0  0  0  0  0  0  0  0  0  0  0  0
    4.5106    0.7614   -0.8899 C   0  0  0  0  0  0  0  0  0  0  0  0
    5.2519   -0.4202   -0.9619 C   0  0  0  0  0  0  0  0  0  0  0  0
    5.1619    1.9948   -0.9166 C   0  0  0  0  0  0  0  0  0  0  0  0
    6.6419   -0.3866   -0.9520 C   0  0  0  0  0  0  0  0  0  0  0  0
    6.5581    2.0308   -0.9137 C   0  0  0  0  0  0  0  0  0  0  0  0
    7.2849    0.8434   -0.9267 C   0  0  0  0  0  0  0  0  0  0  0  0
    9.0158    0.0350   -0.9865 H   0  0  0  0  0  0  0  0  0  0  0  0
    2.5861    1.4688   -1.2328 H   0  0  0  0  0  0  0  0  0  0  0  0
    3.3881  -10.1915    9.9858 H   0  0  0  0  0  0  0  0  0  0  0  0
    3.7696  -11.4840    8.8602 H   0  0  0  0  0  0  0  0  0  0  0  0
    5.8345  -10.5575    9.8070 H   0  0  0  0  0  0  0  0  0  0  0  0
    5.7845  -10.1847    8.0908 H   0  0  0  0  0  0  0  0  0  0  0  0
    6.4137   -8.1674    9.1741 H   0  0  0  0  0  0  0  0  0  0  0  0
    5.2060   -8.3461   10.4517 H   0  0  0  0  0  0  0  0  0  0  0  0
    0.8977   -9.4575    7.4282 H   0  0  0  0  0  0  0  0  0  0  0  0
    1.3323  -10.9635    8.2245 H   0  0  0  0  0  0  0  0  0  0  0  0
    1.2679   -9.4658    9.1608 H   0  0  0  0  0  0  0  0  0  0  0  0
    3.1712  -11.3643    6.5349 H   0  0  0  0  0  0  0  0  0  0  0  0
    2.7775   -9.8488    5.7210 H   0  0  0  0  0  0  0  0  0  0  0  0
    4.4326  -10.1550    6.2583 H   0  0  0  0  0  0  0  0  0  0  0  0
    1.5787   -7.3664    7.0746 H   0  0  0  0  0  0  0  0  0  0  0  0
    4.6692   -5.8862    9.8264 H   0  0  0  0  0  0  0  0  0  0  0  0
    5.7108   -5.9234    8.3786 H   0  0  0  0  0  0  0  0  0  0  0  0
    4.0006   -5.4967    8.2672 H   0  0  0  0  0  0  0  0  0  0  0  0
    4.2844   -6.3982    5.9890 H   0  0  0  0  0  0  0  0  0  0  0  0
    0.6170   -4.4773    5.5173 H   0  0  0  0  0  0  0  0  0  0  0  0
    0.5900   -5.7264    4.2345 H   0  0  0  0  0  0  0  0  0  0  0  0
    0.5234   -6.1692    5.9213 H   0  0  0  0  0  0  0  0  0  0  0  0
    4.2661   -4.6188    4.3903 H   0  0  0  0  0  0  0  0  0  0  0  0
    1.4392   -3.7277    3.5510 H   0  0  0  0  0  0  0  0  0  0  0  0
    4.1647   -2.7508    2.6098 H   0  0  0  0  0  0  0  0  0  0  0  0
    4.0521   -0.9794    1.0597 H   0  0  0  0  0  0  0  0  0  0  0  0
    0.4324   -0.9286    2.0545 H   0  0  0  0  0  0  0  0  0  0  0  0
    0.4433   -2.1825    0.7701 H   0  0  0  0  0  0  0  0  0  0  0  0
    0.3481   -2.6165    2.4539 H   0  0  0  0  0  0  0  0  0  0  0  0
    4.7486   -1.3816   -1.0293 H   0  0  0  0  0  0  0  0  0  0  0  0
    4.6071    2.9287   -0.8685 H   0  0  0  0  0  0  0  0  0  0  0  0
    7.1874   -1.3237   -0.9590 H   0  0  0  0  0  0  0  0  0  0  0  0
    7.0825    2.9816   -0.8827 H   0  0  0  0  0  0  0  0  0  0  0  0
  1 23  2  0  0  0  0
  2 29  1  0  0  0  0
  2 30  1  0  0  0  0
  3 23  1  0  0  0  0
  3 24  1  0  0  0  0
  3 31  1  0  0  0  0
  4  5  1  0  0  0  0
  4  7  1  0  0  0  0
  4 10  1  0  0  0  0
  4 11  1  0  0  0  0
  5  6  1  0  0  0  0
  5 32  1  0  0  0  0
  5 33  1  0  0  0  0
  6  8  1  0  0  0  0
  6 34  1  0  0  0  0
  6 35  1  0  0  0  0
  7  9  2  0  0  0  0
  7 12  1  0  0  0  0
  8  9  1  0  0  0  0
  8 36  1  0  0  0  0
  8 37  1  0  0  0  0
  9 13  1  0  0  0  0
 10 38  1  0  0  0  0
 10 39  1  0  0  0  0
 10 40  1  0  0  0  0
 11 41  1  0  0  0  0
 11 42  1  0  0  0  0
 11 43  1  0  0  0  0
 12 14  2  0  0  0  0
 12 44  1  0  0  0  0
 13 45  1  0  0  0  0
 13 46  1  0  0  0  0
 13 47  1  0  0  0  0
 14 15  1  0  0  0  0
 14 48  1  0  0  0  0
 15 16  1  0  0  0  0
 15 17  2  0  0  0  0
 16 49  1  0  0  0  0
 16 50  1  0  0  0  0
 16 51  1  0  0  0  0
 17 18  1  0  0  0  0
 17 52  1  0  0  0  0
 18 19  2  0  0  0  0
 18 53  1  0  0  0  0
 19 20  1  0  0  0  0
 19 54  1  0  0  0  0
 20 21  2  0  0  0  0
 20 22  1  0  0  0  0
 21 23  1  0  0  0  0
 21 55  1  0  0  0  0
 22 56  1  0  0  0  0
 22 57  1  0  0  0  0
 22 58  1  0  0  0  0
 24 25  2  0  0  0  0
 24 26  1  0  0  0  0
 25 27  1  0  0  0  0
 25 59  1  0  0  0  0
 26 28  2  0  0  0  0
 26 60  1  0  0  0  0
 27 29  2  0  0  0  0
 27 61  1  0  0  0  0
 28 29  1  0  0  0  0
 28 62  1  0  0  0  0
M  END
>  <DRUGBANK_ID>
DB05076

>  <SECONDARY_ACCESSION_NUMBERS>
DB03922

>  <COMMON_NAME>
Fenretinide

>  <CAS_NUMBER>
65646-68-6

>  <UNII>
187EJ7QEXL

>  <SYNONYMS>
4-HPR; 4-hydroxy(phenyl)retinamide; 4-hydroxyphenyl retinamide; Fenretinida; Fenretinide; Fenretinidum; N-(4-hydroxyphenyl)all-trans retinamide

$$$$
