
 OpenBabel10282417233D

 44 47  0  0  1  0  0  0  0  0999 V2000
   -0.6787   -0.8725   -0.4611 C   0  0  0  0  0  0  0  0  0  0  0  0
   -1.3889    0.2674   -0.7819 C   0  0  0  0  0  0  0  0  0  0  0  0
   -0.8024    1.5309   -1.5145 C   0  0  0  0  0  0  0  0  0  0  0  0
    0.5377    1.6838   -2.0886 C   0  0  0  0  0  0  0  0  0  0  0  0
    1.2848    0.3988   -1.3972 C   0  0  0  0  0  0  0  0  0  0  0  0
    0.6560   -0.7382   -0.6185 C   0  0  0  0  0  0  0  0  0  0  0  0
    0.5782    2.1255   -3.7778 O   0  0  0  0  0  0  0  0  0  0  0  0
    0.6854    3.4416   -5.0567 C   0  0  2  0  0  0  0  0  0  0  0  0
    0.9590    4.9300   -4.6869 C   0  0  0  0  0  0  0  0  0  0  0  0
    2.1112    4.9210   -3.8923 N   0  0  0  0  0  0  0  0  0  0  0  0
    3.1299    5.8456   -3.9395 C   0  0  0  0  0  0  0  0  0  0  0  0
    4.1955    5.4311   -3.0507 C   0  0  0  0  0  0  0  0  0  0  0  0
    5.2935    6.2019   -2.6637 C   0  0  0  0  0  0  0  0  0  0  0  0
    6.0795    5.5836   -1.7819 N   0  0  0  0  0  0  0  0  0  0  0  0
    5.4951    4.3792   -1.5994 N   0  0  0  0  0  0  0  0  0  0  0  0
    4.3571    4.2328   -2.3891 C   0  0  0  0  0  0  0  0  0  0  0  0
    5.9059    3.3598   -0.7565 C   0  0  0  0  0  0  0  0  0  0  0  0
    5.2216    2.2184   -0.7003 C   0  0  0  0  0  0  0  0  0  0  0  0
    4.0997    2.0990   -1.6692 C   0  0  0  0  0  0  0  0  0  0  0  0
    3.6571    3.0546   -2.4368 N   0  0  0  0  0  0  0  0  0  0  0  0
    2.7724    0.3501   -0.7499 C   0  0  2  0  0  0  0  0  0  0  0  0
    3.5674    0.8667   -1.8057 N   0  0  0  0  0  0  0  0  0  0  0  0
    3.1401    6.8590   -4.5764 O   0  0  0  0  0  0  0  0  0  0  0  0
   -0.1466    3.8893   -6.6113 C   0  0  0  0  0  0  0  0  0  0  0  0
    3.5233   -1.0201   -0.3619 C   0  0  0  0  0  0  0  0  0  0  0  0
   -1.1943   -1.9910    0.0883 F   0  0  0  0  0  0  0  0  0  0  0  0
   -2.3821    0.2686   -0.3102 H   0  0  0  0  0  0  0  0  0  0  0  0
   -1.0128    2.3140   -0.7306 H   0  0  0  0  0  0  0  0  0  0  0  0
    1.2043   -1.4900   -0.0366 H   0  0  0  0  0  0  0  0  0  0  0  0
    1.6250    3.1027   -5.5489 H   0  0  0  0  0  0  0  0  0  0  0  0
    0.0749    5.3615   -4.2207 H   0  0  0  0  0  0  0  0  0  0  0  0
    1.1718    5.6187   -5.5462 H   0  0  0  0  0  0  0  0  0  0  0  0
    2.3241    4.0142   -3.4977 H   0  0  0  0  0  0  0  0  0  0  0  0
    5.5285    7.2044   -2.9891 H   0  0  0  0  0  0  0  0  0  0  0  0
    6.7955    3.5297   -0.1739 H   0  0  0  0  0  0  0  0  0  0  0  0
    5.4843    1.3692   -0.0874 H   0  0  0  0  0  0  0  0  0  0  0  0
    2.7917    0.9283    0.2030 H   0  0  0  0  0  0  0  0  0  0  0  0
    3.0385    0.7577   -2.6640 H   0  0  0  0  0  0  0  0  0  0  0  0
    0.2685    4.8718   -7.0266 H   0  0  0  0  0  0  0  0  0  0  0  0
    0.0433    3.3017   -7.5297 H   0  0  0  0  0  0  0  0  0  0  0  0
   -1.2026    4.1825   -6.5312 H   0  0  0  0  0  0  0  0  0  0  0  0
    4.3685   -0.8179    0.3186 H   0  0  0  0  0  0  0  0  0  0  0  0
    2.9898   -1.8269    0.1579 H   0  0  0  0  0  0  0  0  0  0  0  0
    3.9514   -1.4750   -1.2601 H   0  0  0  0  0  0  0  0  0  0  0  0
  1  6  1  0  0  0  0
  1 26  1  0  0  0  0
  2  1  2  0  0  0  0
  2 27  1  0  0  0  0
  3  2  1  0  0  0  0
  3 28  1  0  0  0  0
  4  3  2  0  0  0  0
  4  7  1  0  0  0  0
  5  4  1  0  0  0  0
  5 21  1  0  0  0  0
  6  5  2  0  0  0  0
  6 29  1  0  0  0  0
  7  8  1  0  0  0  0
  8  9  1  0  0  0  0
  8 24  1  0  0  0  0
  8 30  1  6  0  0  0
  9 10  1  0  0  0  0
  9 31  1  0  0  0  0
  9 32  1  0  0  0  0
 10 11  1  0  0  0  0
 10 33  1  0  0  0  0
 11 12  1  0  0  0  0
 11 23  2  0  0  0  0
 12 16  2  0  0  0  0
 13 12  1  0  0  0  0
 13 14  2  0  0  0  0
 13 34  1  0  0  0  0
 14 15  1  0  0  0  0
 15 17  1  0  0  0  0
 16 15  1  0  0  0  0
 16 20  1  0  0  0  0
 17 35  1  0  0  0  0
 18 17  2  0  0  0  0
 18 36  1  0  0  0  0
 19 18  1  0  0  0  0
 20 19  2  0  0  0  0
 21 22  1  0  0  0  0
 21 37  1  1  0  0  0
 21 25  1  0  0  0  0
 22 19  1  0  0  0  0
 22 38  1  0  0  0  0
 24 39  1  0  0  0  0
 24 40  1  0  0  0  0
 24 41  1  0  0  0  0
 25 42  1  0  0  0  0
 25 43  1  0  0  0  0
 25 44  1  0  0  0  0
M  END
>  <DRUGBANK_ID>
DB16826

>  <COMMON_NAME>
Repotrectinib

>  <CAS_NUMBER>
1802220-02-5

>  <UNII>
08O3FQ4UNP

>  <SYNONYMS>
(3R,6S,)-45-FLUORO-3,6-DIMETHYL-5-OXA-2,8-DIAZA-1(5,3)-PYRAZOLO(1,5-A)PYRIMIDINA-4(1,2)-BENZENANONAPHAN-9-ONE; (7S,13R)-11-Fluoro-7,13-Dimethyl-6,7,13,14-Tetrahydro-1,15-Ethenopyrazolo[4,3-F][1,4,8,10]Benzoxatriazacyclotridecin-4(5H)-One; 1,15-ETHENO-1H-PYRAZOLO(4,3-F)(1,4,8,10)BENZOXATRIAZACYCLOTRIDECIN-4(5H)-ONE, 11-FLUORO-6,7,13,14-TETRAHYDRO-7,13-DIMETHYL-, (7S,13R)-; Repotrectinib

$$$$
