
 OpenBabel10282417153D

 17 16  0  0  0  0  0  0  0  0999 V2000
    1.0299   -0.0300   -0.0328 C   0  0  0  0  0  0  0  0  0  0  0  0
    0.4928   -0.8138   -1.2565 C   0  0  1  0  0  0  0  0  0  0  0  0
    0.6887   -0.4868    1.3353 N   0  0  0  0  0  0  0  0  0  0  0  0
    1.0885   -2.2274   -1.2920 C   0  0  0  0  0  0  0  0  0  0  0  0
   -0.9829   -0.8136   -1.3291 N   0  0  0  0  0  0  0  0  0  0  0  0
   -0.3658   -0.0290    1.9573 N   0  0  0  0  0  0  0  0  0  0  0  0
    0.8152   -1.9294    1.4094 O   0  0  0  0  0  0  0  0  0  0  0  0
    0.1791   -3.2315   -1.2842 O   0  0  0  0  0  0  0  0  0  0  0  0
    2.2961   -2.4561   -1.3241 O   0  0  0  0  0  0  0  0  0  0  0  0
   -0.5181    1.1855    1.7950 O   0  0  0  0  0  0  0  0  0  0  0  0
    0.7513    1.0262   -0.1705 H   0  0  0  0  0  0  0  0  0  0  0  0
    2.1253   -0.0255   -0.0776 H   0  0  0  0  0  0  0  0  0  0  0  0
    0.8519   -0.3196   -2.1717 H   0  0  0  0  0  0  0  0  0  0  0  0
   -1.3396   -1.2715   -2.1623 H   0  0  0  0  0  0  0  0  0  0  0  0
   -1.3950   -1.1486   -0.4627 H   0  0  0  0  0  0  0  0  0  0  0  0
    0.5074   -2.1341    2.3122 H   0  0  0  0  0  0  0  0  0  0  0  0
   -0.7342   -2.8970   -1.2197 H   0  0  0  0  0  0  0  0  0  0  0  0
  1  3  1  0  0  0  0
  1 11  1  0  0  0  0
  1 12  1  0  0  0  0
  2  1  1  0  0  0  0
  2  4  1  0  0  0  0
  2  5  1  0  0  0  0
  2 13  1  6  0  0  0
  3  6  1  0  0  0  0
  3  7  1  0  0  0  0
  4  8  1  0  0  0  0
  4  9  2  0  0  0  0
  5 14  1  0  0  0  0
  5 15  1  0  0  0  0
  6 10  2  0  0  0  0
  7 16  1  0  0  0  0
  8 17  1  0  0  0  0
M  END
>  <DRUGBANK_ID>
DB05540

>  <COMMON_NAME>
Alanosine

>  <CAS_NUMBER>
5854-93-3

>  <UNII>
2CNI71214Y

>  <SYNONYMS>
Alanosina; Alanosine; Alanosinum; L-Alanosine

$$$$
