
 OpenBabel10282417213D

 73 69  0  0  1  0  0  0  0  0999 V2000
    4.8089    3.2768   -2.4056 C   0  0  0  0  0  0  0  0  0  0  0  0
    4.6988    3.4762   -0.9028 C   0  0  2  0  0  0  0  0  0  0  0  0
    3.2427    3.3627   -0.4818 C   0  0  2  0  0  0  0  0  0  0  0  0
    2.6506    2.0501   -0.9686 C   0  0  1  0  0  0  0  0  0  0  0  0
    3.0250    0.5845   -1.1178 C   0  0  2  0  0  0  0  0  0  0  0  0
    2.4410   -0.2081    0.0403 C   0  0  0  0  0  0  0  0  0  0  0  0
    1.7809    0.3295    0.9840 O   0  0  0  0  0  0  0  0  0  0  0  0
    2.7959   -1.5810    0.1144 O   0  5  0  0  0  0  0  0  0  0  0  0
    4.4390    0.4546   -1.1149 O   0  0  0  0  0  0  0  0  0  0  0  0
    1.6638    1.6095   -0.0474 O   0  0  0  0  0  0  0  0  0  0  0  0
    2.5160    4.4464   -1.0421 O   0  0  0  0  0  0  0  0  0  0  0  0
    5.1921    4.7625   -0.5586 O   0  0  0  0  0  0  0  0  0  0  0  0
    3.6938    2.4480   -2.6991 O   0  0  0  0  0  0  0  0  0  0  0  0
    4.6109   -3.3329    1.7176 C   0  0  0  0  0  0  0  0  0  0  0  0
    3.5660   -3.8713    0.7539 C   0  0  2  0  0  0  0  0  0  0  0  0
    2.1793   -3.4870    1.2437 C   0  0  2  0  0  0  0  0  0  0  0  0
    1.4061   -2.9234    0.0626 C   0  0  1  0  0  0  0  0  0  0  0  0
    2.3596   -2.0593   -0.7464 C   0  0  2  0  0  0  0  0  0  0  0  0
    1.6492   -0.7857   -1.1752 C   0  0  0  0  0  0  0  0  0  0  0  0
    1.9228   -0.1126   -2.2179 O   0  0  0  0  0  0  0  0  0  0  0  0
    0.5250   -0.4381   -0.3805 O   0  5  0  0  0  0  0  0  0  0  0  0
    2.7855   -2.7740   -1.8971 O   0  0  0  0  0  0  0  0  0  0  0  0
    0.9294   -4.0566   -0.6479 O   0  0  0  0  0  0  0  0  0  0  0  0
    2.3857   -2.4636    2.2062 O   0  0  0  0  0  0  0  0  0  0  0  0
    3.6689   -5.2859    0.6861 O   0  0  0  0  0  0  0  0  0  0  0  0
    4.3443   -3.8447    3.0151 O   0  0  0  0  0  0  0  0  0  0  0  0
    4.1850   -1.7369    3.2978 C   0  0  0  0  0  0  0  0  0  0  0  0
    5.1047   -2.2007    2.1801 C   0  0  2  0  0  0  0  0  0  0  0  0
    4.2735   -2.5881    0.9679 C   0  0  2  0  0  0  0  0  0  0  0  0
    3.1175   -1.6137    0.8104 C   0  0  1  0  0  0  0  0  0  0  0  0
    3.2197   -0.1087    0.9972 C   0  0  2  0  0  0  0  0  0  0  0  0
    2.4551    0.5929   -0.1134 C   0  0  0  0  0  0  0  0  0  0  0  0
    1.7378   -0.0413   -0.9492 O   0  0  0  0  0  0  0  0  0  0  0  0
    2.6595    1.9894   -0.2689 O   0  5  0  0  0  0  0  0  0  0  0  0
    4.5841    0.2822    0.9527 O   0  0  0  0  0  0  0  0  0  0  0  0
    2.5515   -1.7940   -0.4794 O   0  0  0  0  0  0  0  0  0  0  0  0
    3.7644   -3.9017    1.1459 O   0  0  0  0  0  0  0  0  0  0  0  0
    5.8538   -3.3243    2.6190 O   0  0  0  0  0  0  0  0  0  0  0  0
    3.6660   -0.6533    2.5410 O   0  0  0  0  0  0  0  0  0  0  0  0
    0.9662    0.0837    0.0431 Cr  0  1  0  0  0  0  0  0  0  0  0  0
    5.7134    2.7461   -2.6180 H   0  0  0  0  0  0  0  0  0  0  0  0
    4.7643    4.1607   -3.0069 H   0  0  0  0  0  0  0  0  0  0  0  0
    5.2747    2.7273   -0.4005 H   0  0  0  0  0  0  0  0  0  0  0  0
    3.1828    3.4070    0.5856 H   0  0  0  0  0  0  0  0  0  0  0  0
    2.2038    2.1880   -1.9310 H   0  0  0  0  0  0  0  0  0  0  0  0
    2.6341    0.2087   -2.0402 H   0  0  0  0  0  0  0  0  0  0  0  0
    4.8043    0.8058   -0.2528 H   0  0  0  0  0  0  0  0  0  0  0  0
    2.0814    1.4807    0.8521 H   0  0  0  0  0  0  0  0  0  0  0  0
    1.9062    4.8707   -0.3727 H   0  0  0  0  0  0  0  0  0  0  0  0
    4.6539    5.4625   -1.0281 H   0  0  0  0  0  0  0  0  0  0  0  0
    2.8485    2.9439   -2.5006 H   0  0  0  0  0  0  0  0  0  0  0  0
    4.5901   -2.2635    1.7449 H   0  0  0  0  0  0  0  0  0  0  0  0
    5.5765   -3.6628    1.3955 H   0  0  0  0  0  0  0  0  0  0  0  0
    3.7290   -3.4548   -0.2181 H   0  0  0  0  0  0  0  0  0  0  0  0
    1.6219   -4.2858    1.6864 H   0  0  0  0  0  0  0  0  0  0  0  0
    0.5768   -2.3250    0.3775 H   0  0  0  0  0  0  0  0  0  0  0  0
    3.2098   -1.8089   -0.1471 H   0  0  0  0  0  0  0  0  0  0  0  0
    1.9908   -3.0080   -2.4573 H   0  0  0  0  0  0  0  0  0  0  0  0
    1.7044   -4.6158   -0.9421 H   0  0  0  0  0  0  0  0  0  0  0  0
    1.9921   -2.0625    3.0334 H   0  0  0  0  0  0  0  0  0  0  0  0
    3.5165   -5.6751    1.5945 H   0  0  0  0  0  0  0  0  0  0  0  0
    4.3637   -4.8442    2.9896 H   0  0  0  0  0  0  0  0  0  0  0  0
    4.6485   -1.3618    4.1863 H   0  0  0  0  0  0  0  0  0  0  0  0
    3.3884   -2.4000    3.5639 H   0  0  0  0  0  0  0  0  0  0  0  0
    5.7728   -1.4078    1.9158 H   0  0  0  0  0  0  0  0  0  0  0  0
    4.8865   -2.5589    0.0914 H   0  0  0  0  0  0  0  0  0  0  0  0
    2.3582   -1.7386    1.5538 H   0  0  0  0  0  0  0  0  0  0  0  0
    2.8018    0.1623    1.9442 H   0  0  0  0  0  0  0  0  0  0  0  0
    4.9747    0.0289    0.0676 H   0  0  0  0  0  0  0  0  0  0  0  0
    3.2611   -1.6773   -1.1742 H   0  0  0  0  0  0  0  0  0  0  0  0
    3.5161   -4.5051    1.9037 H   0  0  0  0  0  0  0  0  0  0  0  0
    5.2294   -4.0654    2.8660 H   0  0  0  0  0  0  0  0  0  0  0  0
    3.2327   -1.0039    1.7107 H   0  0  0  0  0  0  0  0  0  0  0  0
  1 13  1  0  0  0  0
  1 41  1  0  0  0  0
  1 42  1  0  0  0  0
  2 12  1  0  0  0  0
  2 43  1  1  0  0  0
  2  3  1  0  0  0  0
  2  1  1  0  0  0  0
  3 44  1  1  0  0  0
  3 11  1  0  0  0  0
  3  4  1  0  0  0  0
  4 10  1  0  0  0  0
  4 45  1  6  0  0  0
  5  9  1  0  0  0  0
  5 46  1  6  0  0  0
  5  6  1  0  0  0  0
  5  4  1  0  0  0  0
  6  7  2  0  0  0  0
  6  8  1  0  0  0  0
  9 47  1  0  0  0  0
 10 48  1  0  0  0  0
 11 49  1  0  0  0  0
 12 50  1  0  0  0  0
 13 51  1  0  0  0  0
 14 26  1  0  0  0  0
 14 52  1  0  0  0  0
 14 53  1  0  0  0  0
 15 25  1  0  0  0  0
 15 54  1  6  0  0  0
 15 16  1  0  0  0  0
 15 14  1  0  0  0  0
 16 55  1  1  0  0  0
 16 24  1  0  0  0  0
 16 17  1  0  0  0  0
 17 23  1  0  0  0  0
 17 56  1  1  0  0  0
 18 22  1  0  0  0  0
 18 57  1  1  0  0  0
 18 19  1  0  0  0  0
 18 17  1  0  0  0  0
 19 20  2  0  0  0  0
 19 21  1  0  0  0  0
 22 58  1  0  0  0  0
 23 59  1  0  0  0  0
 24 60  1  0  0  0  0
 25 61  1  0  0  0  0
 26 62  1  0  0  0  0
 27 39  1  0  0  0  0
 27 63  1  0  0  0  0
 27 64  1  0  0  0  0
 28 38  1  0  0  0  0
 28 65  1  6  0  0  0
 28 29  1  0  0  0  0
 28 27  1  0  0  0  0
 29 66  1  6  0  0  0
 29 37  1  0  0  0  0
 29 30  1  0  0  0  0
 30 36  1  0  0  0  0
 30 67  1  1  0  0  0
 31 35  1  0  0  0  0
 31 68  1  1  0  0  0
 31 32  1  0  0  0  0
 31 30  1  0  0  0  0
 32 33  2  0  0  0  0
 32 34  1  0  0  0  0
 35 69  1  0  0  0  0
 36 70  1  0  0  0  0
 37 71  1  0  0  0  0
 38 72  1  0  0  0  0
 39 73  1  0  0  0  0
M  CHG  4   8  -1  21  -1  34  -1  40   3
M  END
>  <DRUGBANK_ID>
DB14528

>  <SECONDARY_ACCESSION_NUMBERS>
DBSALT002356

>  <COMMON_NAME>
Chromium gluconate

>  <CAS_NUMBER>
33661-40-4

>  <UNII>
V236ZVR3RL

$$$$
