
 OpenBabel10282417223D

 70 75  0  0  0  0  0  0  0  0999 V2000
    1.0201    0.0600    0.0224 C   0  0  0  0  0  0  0  0  0  0  0  0
    0.5186   -1.0365   -0.7420 O   0  0  0  0  0  0  0  0  0  0  0  0
    0.9009   -1.0234   -2.0573 C   0  0  0  0  0  0  0  0  0  0  0  0
   -0.0938   -1.2248   -2.9344 N   0  0  0  0  0  0  0  0  0  0  0  0
    0.2320   -1.1023   -4.2411 C   0  0  0  0  0  0  0  0  0  0  0  0
    1.5370   -1.0032   -4.7319 C   0  0  0  0  0  0  0  0  0  0  0  0
    1.8277   -1.2329   -6.1871 C   0  0  0  0  0  0  0  0  0  0  0  0
    1.5590   -2.5690   -6.7380 N   0  0  0  0  0  0  0  0  0  0  0  0
    1.8985   -3.7325   -5.8099 C   0  0  3  0  0  0  0  0  0  0  0  0
    0.4779   -3.6316   -5.2196 C   0  0  0  0  0  0  0  0  0  0  0  0
    0.1216   -3.0423   -6.6252 C   0  0  3  0  0  0  0  0  0  0  0  0
   -0.1533   -4.2655   -7.5406 C   0  0  0  0  0  0  0  0  0  0  0  0
    1.1045   -4.9835   -7.7707 N   0  0  0  0  0  0  0  0  0  0  0  0
    1.9372   -5.0877   -6.5651 C   0  0  0  0  0  0  0  0  0  0  0  0
    1.5436   -5.3946   -9.0067 C   0  0  0  0  0  0  0  0  0  0  0  0
    1.6718   -4.5172  -10.0972 C   0  0  0  0  0  0  0  0  0  0  0  0
    1.9979   -4.9949  -11.3851 C   0  0  0  0  0  0  0  0  0  0  0  0
    2.2423   -6.3568  -11.5648 C   0  0  0  0  0  0  0  0  0  0  0  0
    2.1767   -7.1416  -10.4212 C   0  0  0  0  0  0  0  0  0  0  0  0
    1.8494   -6.6999   -9.1700 N   0  0  0  0  0  0  0  0  0  0  0  0
    2.3775   -7.0098  -12.8917 C   0  0  0  0  0  0  0  0  0  0  0  0
    3.5898   -6.9586  -13.5398 C   0  0  0  0  0  0  0  0  0  0  0  0
    3.8429   -7.2054  -14.9905 C   0  0  0  0  0  0  0  0  0  0  0  0
    4.8855   -6.7796  -15.7417 O   0  0  0  0  0  0  0  0  0  0  0  0
    5.8287   -5.9049  -15.1776 C   0  0  0  0  0  0  0  0  0  0  0  0
    5.2682   -4.5069  -14.8570 C   0  0  0  0  0  0  0  0  0  0  0  0
    4.1831   -4.4871  -13.8224 C   0  0  0  0  0  0  0  0  0  0  0  0
    6.3623   -3.6590  -14.2687 C   0  0  0  0  0  0  0  0  0  0  0  0
    4.7290   -3.9159  -16.0322 O   0  0  0  0  0  0  0  0  0  0  0  0
    2.9275   -7.8720  -15.6260 C   0  0  0  0  0  0  0  0  0  0  0  0
    1.9007   -8.0771  -14.8633 N   0  0  0  0  0  0  0  0  0  0  0  0
    0.9206   -8.6415  -15.0302 N   0  0  0  0  0  0  0  0  0  0  0  0
   -0.0814   -9.2274  -15.2599 C   0  0  0  0  0  0  0  0  0  0  0  0
   -0.0369   -8.8286  -13.5473 C   0  0  0  0  0  0  0  0  0  0  0  0
   -0.2767   -7.8910  -12.2441 C   0  0  0  0  0  0  0  0  0  0  0  0
   -0.3531   -7.5304  -11.1271 N   0  0  0  0  0  0  0  0  0  0  0  0
    1.3871   -7.8270  -13.6080 C   0  0  0  0  0  0  0  0  0  0  0  0
    2.5495   -0.8371   -3.8015 C   0  0  0  0  0  0  0  0  0  0  0  0
    2.2164   -0.8151   -2.4507 C   0  0  0  0  0  0  0  0  0  0  0  0
    0.6584   -0.0454    1.0520 H   0  0  0  0  0  0  0  0  0  0  0  0
    0.6532    1.0171   -0.3637 H   0  0  0  0  0  0  0  0  0  0  0  0
    2.1136    0.0729    0.0741 H   0  0  0  0  0  0  0  0  0  0  0  0
   -0.5659   -1.4226   -4.9151 H   0  0  0  0  0  0  0  0  0  0  0  0
    1.2626   -0.4830   -6.7530 H   0  0  0  0  0  0  0  0  0  0  0  0
    2.8871   -1.0006   -6.3846 H   0  0  0  0  0  0  0  0  0  0  0  0
    2.7578   -3.6380   -5.1361 H   0  0  0  0  0  0  0  0  0  0  0  0
    0.4233   -3.1059   -4.2837 H   0  0  0  0  0  0  0  0  0  0  0  0
   -0.0754   -4.4837   -4.8430 H   0  0  0  0  0  0  0  0  0  0  0  0
   -0.6950   -2.3204   -6.7643 H   0  0  0  0  0  0  0  0  0  0  0  0
   -0.6705   -3.9370   -8.4424 H   0  0  0  0  0  0  0  0  0  0  0  0
   -0.8488   -4.9209   -6.9887 H   0  0  0  0  0  0  0  0  0  0  0  0
    1.5198   -5.8446   -5.8832 H   0  0  0  0  0  0  0  0  0  0  0  0
    2.9806   -5.3348   -6.7513 H   0  0  0  0  0  0  0  0  0  0  0  0
    1.5509   -3.4481   -9.9534 H   0  0  0  0  0  0  0  0  0  0  0  0
    2.0260   -4.3084  -12.2296 H   0  0  0  0  0  0  0  0  0  0  0  0
    2.1974   -8.2258  -10.5433 H   0  0  0  0  0  0  0  0  0  0  0  0
    4.4301   -6.5298  -13.0623 H   0  0  0  0  0  0  0  0  0  0  0  0
    6.2782   -6.3962  -14.3107 H   0  0  0  0  0  0  0  0  0  0  0  0
    6.6111   -5.8063  -15.9379 H   0  0  0  0  0  0  0  0  0  0  0  0
    4.6013   -4.8340  -12.8626 H   0  0  0  0  0  0  0  0  0  0  0  0
    3.7028   -3.5647  -13.5579 H   0  0  0  0  0  0  0  0  0  0  0  0
    3.3280   -4.9943  -14.2696 H   0  0  0  0  0  0  0  0  0  0  0  0
    7.1518   -3.5142  -14.9997 H   0  0  0  0  0  0  0  0  0  0  0  0
    5.9430   -2.6874  -13.9938 H   0  0  0  0  0  0  0  0  0  0  0  0
    6.7714   -4.1307  -13.3657 H   0  0  0  0  0  0  0  0  0  0  0  0
    4.3130   -3.0798  -15.7638 H   0  0  0  0  0  0  0  0  0  0  0  0
    2.8582   -8.2740  -16.6168 H   0  0  0  0  0  0  0  0  0  0  0  0
   -0.0444   -9.7696  -16.3502 H   0  0  0  0  0  0  0  0  0  0  0  0
    3.5798   -0.7056   -4.1196 H   0  0  0  0  0  0  0  0  0  0  0  0
    2.9833   -0.6284   -1.7173 H   0  0  0  0  0  0  0  0  0  0  0  0
  1  2  1  0  0  0  0
  1 40  1  0  0  0  0
  1 41  1  0  0  0  0
  1 42  1  0  0  0  0
  2  3  1  0  0  0  0
  3  4  2  0  0  0  0
  3 39  1  0  0  0  0
  4  5  1  0  0  0  0
  5  6  2  0  0  0  0
  5 43  1  0  0  0  0
  6  7  1  0  0  0  0
  6 38  1  0  0  0  0
  7  8  1  0  0  0  0
  7 44  1  0  0  0  0
  7 45  1  0  0  0  0
  8  9  1  0  0  0  0
  8 11  1  0  0  0  0
  9 10  1  0  0  0  0
  9 14  1  0  0  0  0
  9 46  1  0  0  0  0
 10 11  1  0  0  0  0
 10 47  1  0  0  0  0
 10 48  1  0  0  0  0
 11 12  1  0  0  0  0
 11 49  1  0  0  0  0
 12 13  1  0  0  0  0
 12 50  1  0  0  0  0
 12 51  1  0  0  0  0
 13 14  1  0  0  0  0
 13 15  1  0  0  0  0
 14 52  1  0  0  0  0
 14 53  1  0  0  0  0
 15 16  2  0  0  0  0
 15 20  1  0  0  0  0
 16 17  1  0  0  0  0
 16 54  1  0  0  0  0
 17 18  2  0  0  0  0
 17 55  1  0  0  0  0
 18 19  1  0  0  0  0
 18 21  1  0  0  0  0
 19 20  2  0  0  0  0
 19 56  1  0  0  0  0
 21 22  2  0  0  0  0
 21 37  1  0  0  0  0
 22 23  1  0  0  0  0
 22 57  1  0  0  0  0
 23 24  1  0  0  0  0
 23 30  2  0  0  0  0
 24 25  1  0  0  0  0
 25 26  1  0  0  0  0
 25 58  1  0  0  0  0
 25 59  1  0  0  0  0
 26 27  1  0  0  0  0
 26 28  1  0  0  0  0
 26 29  1  0  0  0  0
 27 60  1  0  0  0  0
 27 61  1  0  0  0  0
 27 62  1  0  0  0  0
 28 63  1  0  0  0  0
 28 64  1  0  0  0  0
 28 65  1  0  0  0  0
 29 66  1  0  0  0  0
 30 31  1  0  0  0  0
 30 67  1  0  0  0  0
 31 32  1  0  0  0  0
 31 37  1  0  0  0  0
 32 33  2  0  0  0  0
 33 34  1  0  0  0  0
 33 68  1  0  0  0  0
 34 35  1  0  0  0  0
 34 37  2  0  0  0  0
 35 36  3  0  0  0  0
 38 39  2  0  0  0  0
 38 69  1  0  0  0  0
 39 70  1  0  0  0  0
M  END
>  <DRUGBANK_ID>
DB15685

>  <COMMON_NAME>
Selpercatinib

>  <CAS_NUMBER>
2152628-33-4

>  <UNII>
CEGM9YBNGD

>  <SYNONYMS>
6-(2-hydroxy-2-methylpropoxy)-4-(6-(6-((6-methoxypyridin-3-yl)methyl)-3,6-diazabicyclo[3.1.1]heptan-3-yl)pyridin-3-yl)pyrazolo[1,5-a]pyridine-3-carbonitrile; Selpercatinib

$$$$
