
 OpenBabel10282417133D

 20 20  0  0  1  0  0  0  0  0999 V2000
    1.1386    0.1912   -0.2543 N   0  0  0  0  0  0  0  0  0  0  0  0
    0.5572   -0.9888   -0.9384 C   0  0  1  0  0  0  0  0  0  0  0  0
    1.0514   -2.3229   -0.3439 C   0  0  0  0  0  0  0  0  0  0  0  0
    0.6454   -2.5445    1.0419 N   0  0  0  0  0  0  0  0  0  0  0  0
    0.5805   -3.8735    1.5316 O   0  0  0  0  0  0  0  0  0  0  0  0
    0.1040   -3.7665    2.8215 C   0  0  0  0  0  0  0  0  0  0  0  0
   -0.0482   -4.7033    3.5938 O   0  0  0  0  0  0  0  0  0  0  0  0
   -0.1332   -2.4756    3.1035 N   0  0  0  0  0  0  0  0  0  0  0  0
    0.2116   -1.7173    2.0504 C   0  0  0  0  0  0  0  0  0  0  0  0
    0.1530   -0.4983    2.0627 O   0  0  0  0  0  0  0  0  0  0  0  0
   -0.9943   -0.9818   -0.9178 C   0  0  0  0  0  0  0  0  0  0  0  0
   -1.5778   -0.7693   -2.1189 O   0  0  0  0  0  0  0  0  0  0  0  0
   -1.6884   -1.2155    0.0630 O   0  0  0  0  0  0  0  0  0  0  0  0
    0.7415    0.2135    0.7054 H   0  0  0  0  0  0  0  0  0  0  0  0
    2.1323    0.0352   -0.0690 H   0  0  0  0  0  0  0  0  0  0  0  0
    0.8963   -0.9189   -1.9771 H   0  0  0  0  0  0  0  0  0  0  0  0
    0.6833   -3.1583   -0.9545 H   0  0  0  0  0  0  0  0  0  0  0  0
    2.1474   -2.3727   -0.3687 H   0  0  0  0  0  0  0  0  0  0  0  0
   -0.4896   -2.0889    3.9566 H   0  0  0  0  0  0  0  0  0  0  0  0
   -0.9727   -0.5523   -2.8486 H   0  0  0  0  0  0  0  0  0  0  0  0
  1 14  1  0  0  0  0
  1 15  1  0  0  0  0
  2  1  1  0  0  0  0
  2  3  1  0  0  0  0
  2 11  1  0  0  0  0
  2 16  1  6  0  0  0
  3  4  1  0  0  0  0
  3 17  1  0  0  0  0
  3 18  1  0  0  0  0
  4  5  1  0  0  0  0
  4  9  1  0  0  0  0
  5  6  1  0  0  0  0
  6  7  2  0  0  0  0
  6  8  1  0  0  0  0
  8  9  1  0  0  0  0
  8 19  1  0  0  0  0
  9 10  2  0  0  0  0
 11 12  1  0  0  0  0
 11 13  2  0  0  0  0
 12 20  1  0  0  0  0
M  END
>  <DRUGBANK_ID>
DB02999

>  <SECONDARY_ACCESSION_NUMBERS>
EXPT02735

>  <COMMON_NAME>
Quisqualic acid

>  <CAS_NUMBER>
52809-07-1

>  <UNII>
8OC22C1B99

>  <SYNONYMS>
Quisqualate

$$$$
