
 OpenBabel10282417173D

 39 41  0  0  0  0  0  0  0  0999 V2000
    1.1182    0.0405    0.0379 C   0  0  0  0  0  0  0  0  0  0  0  0
   -1.1833   -4.3241   -8.2956 C   0  0  0  0  0  0  0  0  0  0  0  0
    5.0562   -3.3706   -3.3274 C   0  0  0  0  0  0  0  0  0  0  0  0
   -2.0061   -3.2906   -8.0460 C   0  0  0  0  0  0  0  0  0  0  0  0
    4.4092   -3.1993   -2.1211 C   0  0  0  0  0  0  0  0  0  0  0  0
   -0.1644   -4.2133   -7.4140 C   0  0  0  0  0  0  0  0  0  0  0  0
    4.2416   -3.6195   -4.4192 C   0  0  0  0  0  0  0  0  0  0  0  0
   -1.7006   -2.3153   -6.7323 C   0  0  0  0  0  0  0  0  0  0  0  0
    2.9294   -3.1176   -2.0960 C   0  0  0  0  0  0  0  0  0  0  0  0
    0.8495   -3.9645   -5.3886 C   0  0  0  0  0  0  0  0  0  0  0  0
    2.1116   -3.6261   -5.6029 C   0  0  0  0  0  0  0  0  0  0  0  0
   -0.8562   -1.2817    0.4020 C   0  0  0  0  0  0  0  0  0  0  0  0
   -1.4213   -1.0031   -1.0183 C   0  0  0  0  0  0  0  0  0  0  0  0
   -0.1138   -3.3028   -6.1464 C   0  0  0  0  0  0  0  0  0  0  0  0
    2.8297   -3.4260   -4.4037 C   0  0  0  0  0  0  0  0  0  0  0  0
   -0.7920   -2.2962   -5.3803 C   0  0  0  0  0  0  0  0  0  0  0  0
    2.0735   -2.9775   -3.3435 C   0  0  0  0  0  0  0  0  0  0  0  0
    0.3537   -2.3190   -3.7754 C   0  0  0  0  0  0  0  0  0  0  0  0
    0.6141   -1.2610    0.4761 N   0  0  0  0  0  0  0  0  0  0  0  0
    0.0430   -2.0082   -2.5236 N   0  0  0  0  0  0  0  0  0  0  0  0
   -1.2591   -1.9752   -2.0776 O   0  0  0  0  0  0  0  0  0  0  0  0
    0.7550    0.8361    0.6959 H   0  0  0  0  0  0  0  0  0  0  0  0
    0.8240    0.2793   -0.9876 H   0  0  0  0  0  0  0  0  0  0  0  0
    2.2091    0.0463    0.0425 H   0  0  0  0  0  0  0  0  0  0  0  0
   -1.2452   -5.1014   -9.0565 H   0  0  0  0  0  0  0  0  0  0  0  0
    6.1438   -3.3422   -3.4387 H   0  0  0  0  0  0  0  0  0  0  0  0
   -2.8076   -3.1790   -8.8192 H   0  0  0  0  0  0  0  0  0  0  0  0
    5.0669   -3.0891   -1.2379 H   0  0  0  0  0  0  0  0  0  0  0  0
    0.6714   -4.9021   -7.5226 H   0  0  0  0  0  0  0  0  0  0  0  0
    4.6985   -3.9189   -5.3564 H   0  0  0  0  0  0  0  0  0  0  0  0
   -2.3709   -1.4643   -7.0530 H   0  0  0  0  0  0  0  0  0  0  0  0
    2.5873   -3.2377   -1.0516 H   0  0  0  0  0  0  0  0  0  0  0  0
    0.2672   -4.2301   -4.5114 H   0  0  0  0  0  0  0  0  0  0  0  0
    2.5560   -3.3976   -6.5506 H   0  0  0  0  0  0  0  0  0  0  0  0
   -1.2129   -2.2506    0.7684 H   0  0  0  0  0  0  0  0  0  0  0  0
   -1.2435   -0.5274    1.1107 H   0  0  0  0  0  0  0  0  0  0  0  0
   -2.5007   -0.9384   -0.9132 H   0  0  0  0  0  0  0  0  0  0  0  0
   -1.0984   -0.0175   -1.3679 H   0  0  0  0  0  0  0  0  0  0  0  0
    0.9270   -1.9553   -0.2076 H   0  0  0  0  0  0  0  0  0  0  0  0
  1 22  1  0  0  0  0
  1 23  1  0  0  0  0
  1 24  1  0  0  0  0
  2 25  1  0  0  0  0
  3 26  1  0  0  0  0
  4  2  2  0  0  0  0
  4 27  1  0  0  0  0
  5  3  2  0  0  0  0
  5 28  1  0  0  0  0
  6  2  1  0  0  0  0
  6 29  1  0  0  0  0
  7  3  1  0  0  0  0
  7 30  1  0  0  0  0
  8  4  1  0  0  0  0
  8 31  1  0  0  0  0
  9  5  1  0  0  0  0
  9 32  1  0  0  0  0
 10 33  1  0  0  0  0
 11 10  2  0  0  0  0
 11 34  1  0  0  0  0
 12 35  1  0  0  0  0
 12 36  1  0  0  0  0
 13 12  1  0  0  0  0
 13 37  1  0  0  0  0
 13 38  1  0  0  0  0
 14  6  2  0  0  0  0
 14 10  1  0  0  0  0
 15  7  2  0  0  0  0
 15 11  1  0  0  0  0
 16  8  2  0  0  0  0
 16 14  1  0  0  0  0
 17  9  2  0  0  0  0
 17 15  1  0  0  0  0
 18 16  1  0  0  0  0
 18 17  1  0  0  0  0
 19  1  1  0  0  0  0
 19 12  1  0  0  0  0
 19 39  1  0  0  0  0
 20 18  2  0  0  0  0
 21 13  1  0  0  0  0
 21 20  1  0  0  0  0
M  END
>  <DRUGBANK_ID>
DB08998

>  <COMMON_NAME>
Demexiptiline

>  <CAS_NUMBER>
24701-51-7

>  <UNII>
EYX738UZ5P

>  <SYNONYMS>
Demexiptiline

$$$$
