
 OpenBabel10282417213D

 36 36  0  0  0  0  0  0  0  0999 V2000
    0.9272    0.0852    0.0734 C   0  0  0  0  0  0  0  0  0  0  0  0
   -1.1491   -2.1914   -1.8760 C   0  0  0  0  0  0  0  0  0  0  0  0
   -2.5726    2.5973   -2.1274 C   0  0  0  0  0  0  0  0  0  0  0  0
    0.4389    0.3854   -1.3405 C   0  0  0  0  0  0  0  0  0  0  0  0
    0.3690   -2.0948   -1.9795 C   0  0  0  0  0  0  0  0  0  0  0  0
   -2.6378    0.2809   -7.7433 C   0  0  0  0  0  0  0  0  0  0  0  0
   -1.4894   -0.4967   -7.6254 C   0  0  0  0  0  0  0  0  0  0  0  0
   -3.1624    0.9271   -6.6188 C   0  0  0  0  0  0  0  0  0  0  0  0
   -0.8803   -0.6529   -6.3812 C   0  0  0  0  0  0  0  0  0  0  0  0
    0.8791   -0.6883   -2.3461 C   0  0  0  0  0  0  0  0  0  0  0  0
   -2.5019    0.8628   -5.3769 C   0  0  0  0  0  0  0  0  0  0  0  0
   -1.3754    0.0330   -5.2646 C   0  0  0  0  0  0  0  0  0  0  0  0
    0.5540   -0.3033   -3.7885 C   0  0  0  0  0  0  0  0  0  0  0  0
   -2.9861    1.7690   -4.2930 C   0  0  0  0  0  0  0  0  0  0  0  0
    1.4083   -0.1209   -4.6474 O   0  0  0  0  0  0  0  0  0  0  0  0
   -3.9406    2.5271   -4.4368 O   0  0  0  0  0  0  0  0  0  0  0  0
   -2.2108    1.7073   -3.1851 O   0  0  0  0  0  0  0  0  0  0  0  0
   -0.8161   -0.1982   -3.9871 O   0  0  0  0  0  0  0  0  0  0  0  0
    0.5446   -0.8703    0.4457 H   0  0  0  0  0  0  0  0  0  0  0  0
    0.5835    0.8540    0.7701 H   0  0  0  0  0  0  0  0  0  0  0  0
    2.0204    0.0474    0.1038 H   0  0  0  0  0  0  0  0  0  0  0  0
   -1.6219   -2.0309   -2.8458 H   0  0  0  0  0  0  0  0  0  0  0  0
   -1.4538   -3.1828   -1.5356 H   0  0  0  0  0  0  0  0  0  0  0  0
   -1.5580   -1.4613   -1.1715 H   0  0  0  0  0  0  0  0  0  0  0  0
   -2.4623    3.6376   -2.4461 H   0  0  0  0  0  0  0  0  0  0  0  0
   -3.5904    2.3912   -1.7860 H   0  0  0  0  0  0  0  0  0  0  0  0
   -1.8909    2.4269   -1.2886 H   0  0  0  0  0  0  0  0  0  0  0  0
   -0.6508    0.4707   -1.3234 H   0  0  0  0  0  0  0  0  0  0  0  0
    0.8120    1.3675   -1.6528 H   0  0  0  0  0  0  0  0  0  0  0  0
    0.7361   -2.8292   -2.7045 H   0  0  0  0  0  0  0  0  0  0  0  0
    0.7987   -2.3973   -1.0160 H   0  0  0  0  0  0  0  0  0  0  0  0
   -3.1112    0.4020   -8.7156 H   0  0  0  0  0  0  0  0  0  0  0  0
   -1.0698   -0.9904   -8.4991 H   0  0  0  0  0  0  0  0  0  0  0  0
   -4.0805    1.5037   -6.7258 H   0  0  0  0  0  0  0  0  0  0  0  0
   -0.0052   -1.2919   -6.3039 H   0  0  0  0  0  0  0  0  0  0  0  0
    1.9778   -0.7275   -2.3162 H   0  0  0  0  0  0  0  0  0  0  0  0
  1 19  1  0  0  0  0
  1 20  1  0  0  0  0
  1 21  1  0  0  0  0
  2 22  1  0  0  0  0
  2 23  1  0  0  0  0
  2 24  1  0  0  0  0
  3 25  1  0  0  0  0
  3 26  1  0  0  0  0
  3 27  1  0  0  0  0
  4  1  1  0  0  0  0
  4 28  1  0  0  0  0
  4 29  1  0  0  0  0
  5  2  1  0  0  0  0
  5 30  1  0  0  0  0
  5 31  1  0  0  0  0
  6 32  1  0  0  0  0
  7  6  2  0  0  0  0
  7 33  1  0  0  0  0
  8  6  1  0  0  0  0
  8 34  1  0  0  0  0
  9  7  1  0  0  0  0
  9 35  1  0  0  0  0
 10  4  1  0  0  0  0
 10  5  1  0  0  0  0
 10 36  1  0  0  0  0
 11  8  2  0  0  0  0
 12  9  2  0  0  0  0
 12 11  1  0  0  0  0
 13 10  1  0  0  0  0
 14 11  1  0  0  0  0
 15 13  2  0  0  0  0
 16 14  2  0  0  0  0
 17  3  1  0  0  0  0
 17 14  1  0  0  0  0
 18 12  1  0  0  0  0
 18 13  1  0  0  0  0
M  END
>  <DRUGBANK_ID>
DB14130

>  <COMMON_NAME>
Methyl salicylate 2-ethylbutyrate

>  <CAS_NUMBER>
85005-92-1

>  <UNII>
J8D9175Q0G

>  <SYNONYMS>
Methyl diethylacetylsalicylate; Salicylic acid, methyl ester, 2-ethylbutyrate

$$$$
