
 OpenBabel10282417133D

 60 60  0  0  0  0  0  0  0  0999 V2000
    3.8360    7.0411   -0.2517 S   0  0  0  0  0  0  0  0  0  0  0  0
    2.1879    4.2717   -1.8331 O   0  0  0  0  0  0  0  0  0  0  0  0
   -0.4243    5.9083    0.0452 O   0  0  0  0  0  0  0  0  0  0  0  0
    2.4896   12.3466    3.4549 O   0  0  0  0  0  0  0  0  0  0  0  0
    6.3031    9.7862    0.0208 O   0  0  0  0  0  0  0  0  0  0  0  0
    3.6168    6.1747    2.5126 O   0  0  0  0  0  0  0  0  0  0  0  0
    1.4264    6.2434    2.8587 O   0  0  0  0  0  0  0  0  0  0  0  0
    2.2817   12.9623   -2.4418 O   0  0  0  0  0  0  0  0  0  0  0  0
    3.5282   13.4217   -0.6037 O   0  0  0  0  0  0  0  0  0  0  0  0
    7.2442    0.5541   -1.4684 O   0  5  0  0  0  0  0  0  0  0  0  0
    7.2573    1.3854    0.5626 O   0  0  0  0  0  0  0  0  0  0  0  0
    3.6850   11.0088    2.0578 N   0  0  0  0  0  0  0  0  0  0  0  0
    4.4761   10.6819   -0.9714 N   0  0  0  0  0  0  0  0  0  0  0  0
    1.7576    9.3786    1.9210 N   0  0  0  0  0  0  0  0  0  0  0  0
    6.7738    1.2691   -0.5735 N   0  3  0  0  0  0  0  0  0  0  0  0
    4.3027    9.7378    1.2655 C   0  0  1  0  0  0  0  0  0  0  0  0
    3.3301    8.6144    0.3539 C   0  0  0  0  0  0  0  0  0  0  0  0
    2.0438    6.1764   -0.2449 C   0  0  2  0  0  0  0  0  0  0  0  0
    2.7900   10.1521    4.4074 C   0  0  0  0  0  0  0  0  0  0  0  0
    1.9191    8.9362    4.0878 C   0  0  0  0  0  0  0  0  0  0  0  0
    3.0093   11.2347    3.2865 C   0  0  0  0  0  0  0  0  0  0  0  0
    2.0566    5.6843   -1.6850 C   0  0  0  0  0  0  0  0  0  0  0  0
    5.1337   10.1473    0.1018 C   0  0  0  0  0  0  0  0  0  0  0  0
    2.5255    8.4165    2.8753 C   0  0  1  0  0  0  0  0  0  0  0  0
    0.6524    6.8564    0.0886 C   0  0  0  0  0  0  0  0  0  0  0  0
    2.4390    6.8533    2.7533 C   0  0  0  0  0  0  0  0  0  0  0  0
    3.0852   11.1401   -1.1217 C   0  0  0  0  0  0  0  0  0  0  0  0
    3.3950    3.6980   -1.5259 C   0  0  0  0  0  0  0  0  0  0  0  0
    3.9410    3.6790   -0.2385 C   0  0  0  0  0  0  0  0  0  0  0  0
    3.9633    2.8810   -2.5018 C   0  0  0  0  0  0  0  0  0  0  0  0
    3.0111   12.6163   -1.3641 C   0  0  0  0  0  0  0  0  0  0  0  0
    5.0402    2.8878    0.0835 C   0  0  0  0  0  0  0  0  0  0  0  0
    5.0233    2.0226   -2.1754 C   0  0  0  0  0  0  0  0  0  0  0  0
    5.5830    2.0605   -0.8915 C   0  0  0  0  0  0  0  0  0  0  0  0
   -0.3769    5.3877   -0.7709 H   0  0  0  0  0  0  0  0  0  0  0  0
    4.4232    6.5706    2.1200 H   0  0  0  0  0  0  0  0  0  0  0  0
    1.8968   12.2252   -2.9544 H   0  0  0  0  0  0  0  0  0  0  0  0
    3.7361   11.9062    1.5596 H   0  0  0  0  0  0  0  0  0  0  0  0
    5.0862   10.7159   -1.7761 H   0  0  0  0  0  0  0  0  0  0  0  0
    0.7621    9.4979    1.8375 H   0  0  0  0  0  0  0  0  0  0  0  0
    2.2561   10.1731    1.4962 H   0  0  0  0  0  0  0  0  0  0  0  0
    4.9795    9.2746    1.9977 H   0  0  0  0  0  0  0  0  0  0  0  0
    2.6370    9.0598   -0.3607 H   0  0  0  0  0  0  0  0  0  0  0  0
    2.5855    8.0831    0.8881 H   0  0  0  0  0  0  0  0  0  0  0  0
    2.0861    5.3539    0.4700 H   0  0  0  0  0  0  0  0  0  0  0  0
    3.7871    9.8272    4.7224 H   0  0  0  0  0  0  0  0  0  0  0  0
    2.2958   10.6069    5.2692 H   0  0  0  0  0  0  0  0  0  0  0  0
    1.8901    8.1421    4.8285 H   0  0  0  0  0  0  0  0  0  0  0  0
    0.8700    9.1768    3.8611 H   0  0  0  0  0  0  0  0  0  0  0  0
    1.1071    5.9769   -2.1426 H   0  0  0  0  0  0  0  0  0  0  0  0
    2.7967    6.1897   -2.3168 H   0  0  0  0  0  0  0  0  0  0  0  0
    3.6171    8.5408    2.9970 H   0  0  0  0  0  0  0  0  0  0  0  0
    0.5472    7.2887    1.0851 H   0  0  0  0  0  0  0  0  0  0  0  0
    0.4126    7.6677   -0.5973 H   0  0  0  0  0  0  0  0  0  0  0  0
    2.5980   10.5367   -1.8974 H   0  0  0  0  0  0  0  0  0  0  0  0
    2.4770   11.0322   -0.2225 H   0  0  0  0  0  0  0  0  0  0  0  0
    3.5363    4.2363    0.5904 H   0  0  0  0  0  0  0  0  0  0  0  0
    3.5684    2.8892   -3.5148 H   0  0  0  0  0  0  0  0  0  0  0  0
    5.4191    2.9140    1.1032 H   0  0  0  0  0  0  0  0  0  0  0  0
    5.3865    1.3203   -2.9212 H   0  0  0  0  0  0  0  0  0  0  0  0
  1 17  1  0  0  0  0
  2 22  1  0  0  0  0
  2 28  1  0  0  0  0
  3 25  1  0  0  0  0
  3 35  1  0  0  0  0
  4 21  2  0  0  0  0
  5 23  2  0  0  0  0
  6 26  1  0  0  0  0
  6 36  1  0  0  0  0
  7 26  2  0  0  0  0
  8 31  1  0  0  0  0
  8 37  1  0  0  0  0
  9 31  2  0  0  0  0
 10 15  1  0  0  0  0
 11 15  2  0  0  0  0
 12 21  1  0  0  0  0
 12 38  1  0  0  0  0
 13 23  1  0  0  0  0
 13 27  1  0  0  0  0
 13 39  1  0  0  0  0
 14 40  1  0  0  0  0
 14 41  1  0  0  0  0
 15 34  1  0  0  0  0
 16 23  1  0  0  0  0
 16 42  1  1  0  0  0
 16 17  1  0  0  0  0
 16 12  1  0  0  0  0
 17 43  1  0  0  0  0
 17 44  1  0  0  0  0
 18 25  1  0  0  0  0
 18 45  1  1  0  0  0
 18 22  1  0  0  0  0
 18  1  1  0  0  0  0
 19 20  1  0  0  0  0
 19 21  1  0  0  0  0
 19 46  1  0  0  0  0
 19 47  1  0  0  0  0
 20 48  1  0  0  0  0
 20 49  1  0  0  0  0
 22 50  1  0  0  0  0
 22 51  1  0  0  0  0
 24 26  1  0  0  0  0
 24 52  1  6  0  0  0
 24 20  1  0  0  0  0
 24 14  1  0  0  0  0
 25 53  1  0  0  0  0
 25 54  1  0  0  0  0
 27 31  1  0  0  0  0
 27 55  1  0  0  0  0
 27 56  1  0  0  0  0
 28 29  2  0  0  0  0
 28 30  1  0  0  0  0
 29 32  1  0  0  0  0
 29 57  1  0  0  0  0
 30 33  2  0  0  0  0
 30 58  1  0  0  0  0
 32 34  2  0  0  0  0
 32 59  1  0  0  0  0
 33 34  1  0  0  0  0
 33 60  1  0  0  0  0
M  CHG  2  10  -1  15   1
M  END
>  <DRUGBANK_ID>
DB03706

>  <SECONDARY_ACCESSION_NUMBERS>
EXPT01354

>  <COMMON_NAME>
1-Hydroxy-2-S-glutathionyl-3-para-nitrophenoxy-propane

$$$$
