
 OpenBabel10282417233D

214213  0  0  1  0  0  0  0  0999 V2000
   -1.3537   -4.3401   -6.5445 C   0  0  0  0  0  0  0  0  0  0  0  0
   -2.5361   -3.3434   -6.1875 C   0  0  3  0  0  0  0  0  0  0  0  0
   -3.4946   -2.6517   -7.3428 C   0  0  0  0  0  0  0  0  0  0  0  0
   -4.8217   -3.8874   -8.7734 S   0  0  0  0  0  0  0  0  0  0  0  0
   -3.5084   -5.4935   -9.9778 C   0  0  0  0  0  0  0  0  0  0  0  0
   -1.6247   -5.3941  -10.3233 C   0  0  1  0  0  0  0  0  0  0  0  0
   -0.3735   -4.1463   -9.7259 C   0  0  0  0  0  0  0  0  0  0  0  0
    0.7163   -4.6149   -9.1083 N   0  0  0  0  0  0  0  0  0  0  0  0
    1.5164   -3.5943   -8.4183 C   0  0  2  0  0  0  0  0  0  0  0  0
    2.1358   -2.6092   -9.4236 C   0  0  0  0  0  0  0  0  0  0  0  0
    1.9248   -1.2623   -9.0847 N   0  0  0  0  0  0  0  0  0  0  0  0
    1.7147   -0.3310  -10.1893 C   0  0  2  0  0  0  0  0  0  0  0  0
    3.0405   -0.2079  -10.9442 C   0  0  0  0  0  0  0  0  0  0  0  0
    4.0719    0.2946  -10.1652 N   0  0  0  0  0  0  0  0  0  0  0  0
    5.3902    0.4850  -10.7319 C   0  0  2  0  0  0  0  0  0  0  0  0
    6.5271    0.4916   -9.6855 C   0  0  0  0  0  0  0  0  0  0  0  0
    6.1885    0.5877   -8.3510 N   0  0  0  0  0  0  0  0  0  0  0  0
    7.2366    0.8636   -7.3617 C   0  0  2  0  0  0  0  0  0  0  0  0
    6.7514    0.8554   -5.8929 C   0  0  0  0  0  0  0  0  0  0  0  0
    5.4744    0.4179   -5.6033 N   0  0  0  0  0  0  0  0  0  0  0  0
    4.9031    0.6747   -4.2641 C   0  0  2  0  0  0  0  0  0  0  0  0
    3.3730    0.4370   -4.2867 C   0  0  0  0  0  0  0  0  0  0  0  0
    2.9577   -0.8210   -4.5500 O   0  0  0  0  0  0  0  0  0  0  0  0
   -1.4535   -5.1519   -7.6447 O   0  0  0  0  0  0  0  0  0  0  0  0
   -2.4754   -4.6933   -8.2768 C   0  0  0  0  0  0  0  0  0  0  0  0
   -2.5684   -3.3318   -9.5371 C   0  0  0  0  0  0  0  0  0  0  0  0
   -2.4098   -3.3197  -11.1410 C   0  0  0  0  0  0  0  0  0  0  0  0
   -3.4634   -4.1877  -11.9743 C   0  0  0  0  0  0  0  0  0  0  0  0
   -4.8467   -3.6180  -11.8154 C   0  0  0  0  0  0  0  0  0  0  0  0
   -4.6694   -2.1809  -12.1907 C   0  0  0  0  0  0  0  0  0  0  0  0
   -4.0671   -2.2654  -13.5942 C   0  0  0  0  0  0  0  0  0  0  0  0
   -5.0349   -3.1158  -14.4347 C   0  0  0  0  0  0  0  0  0  0  0  0
   -6.3959   -2.4258  -14.3647 C   0  0  0  0  0  0  0  0  0  0  0  0
   -6.2091   -0.9969  -14.8742 C   0  0  0  0  0  0  0  0  0  0  0  0
   -5.6682   -1.0594  -16.3039 C   0  0  0  0  0  0  0  0  0  0  0  0
   -6.6650   -1.8221  -17.1787 C   0  0  0  0  0  0  0  0  0  0  0  0
   -8.0176   -1.1035  -17.1577 C   0  0  0  0  0  0  0  0  0  0  0  0
   -7.8709    0.3187  -17.7084 C   0  0  0  0  0  0  0  0  0  0  0  0
   -7.3370    0.2946  -19.1404 C   0  0  0  0  0  0  0  0  0  0  0  0
   -8.2921   -0.4720  -20.0400 C   0  0  0  0  0  0  0  0  0  0  0  0
   -3.3334   -5.5666   -8.0329 O   0  0  0  0  0  0  0  0  0  0  0  0
   -3.3817   -3.8156   -5.0397 O   0  0  0  0  0  0  0  0  0  0  0  0
   -4.4631   -4.6975   -5.0526 C   0  0  0  0  0  0  0  0  0  0  0  0
   -4.6645   -5.4751   -6.2789 C   0  0  0  0  0  0  0  0  0  0  0  0
   -4.3315   -6.9522   -6.6801 C   0  0  0  0  0  0  0  0  0  0  0  0
   -5.5888   -7.6011   -6.2856 C   0  0  0  0  0  0  0  0  0  0  0  0
   -6.7498   -7.0586   -7.1884 C   0  0  0  0  0  0  0  0  0  0  0  0
   -6.6386   -7.4967   -8.6567 C   0  0  0  0  0  0  0  0  0  0  0  0
   -6.5208   -9.0111   -8.6757 C   0  0  0  0  0  0  0  0  0  0  0  0
   -7.7120   -9.5931   -7.9057 C   0  0  0  0  0  0  0  0  0  0  0  0
   -9.0130   -9.1646   -8.5913 C   0  0  0  0  0  0  0  0  0  0  0  0
   -9.0113   -9.6916  -10.0265 C   0  0  0  0  0  0  0  0  0  0  0  0
   -8.8929  -11.2175  -10.0016 C   0  0  0  0  0  0  0  0  0  0  0  0
  -10.0775  -11.8080   -9.2320 C   0  0  0  0  0  0  0  0  0  0  0  0
  -11.3895  -11.4096   -9.9160 C   0  0  0  0  0  0  0  0  0  0  0  0
  -11.4288  -11.9496  -11.3496 C   0  0  0  0  0  0  0  0  0  0  0  0
  -11.3029  -13.4731  -11.3619 C   0  0  0  0  0  0  0  0  0  0  0  0
  -12.4495  -14.0979  -10.5847 C   0  0  0  0  0  0  0  0  0  0  0  0
   -5.3023   -4.7223   -4.1658 O   0  0  0  0  0  0  0  0  0  0  0  0
   -0.3655   -2.9034   -9.7314 O   0  0  0  0  0  0  0  0  0  0  0  0
   -0.8239   -6.5969  -10.4663 N   0  0  0  0  0  0  0  0  0  0  0  0
    2.4253   -4.3595   -7.5222 C   0  0  0  0  0  0  0  0  0  0  0  0
    3.2858   -3.4988   -6.8070 O   0  0  0  0  0  0  0  0  0  0  0  0
    2.6621   -2.9933  -10.4616 O   0  0  0  0  0  0  0  0  0  0  0  0
    1.2701    1.0361   -9.6442 C   0  0  0  0  0  0  0  0  0  0  0  0
    1.1334    2.0667  -10.7665 C   0  0  0  0  0  0  0  0  0  0  0  0
    0.0398    1.6784  -11.7691 C   0  0  0  0  0  0  0  0  0  0  0  0
   -1.3358    1.5552  -11.1107 C   0  0  0  0  0  0  0  0  0  0  0  0
   -1.7239    2.8291  -10.5211 N   0  0  0  0  0  0  0  0  0  0  0  0
    3.1558   -0.5013  -12.1295 O   0  0  0  0  0  0  0  0  0  0  0  0
    5.4546    1.7691  -11.5883 C   0  0  0  0  0  0  0  0  0  0  0  0
    6.7934    1.9263  -12.3300 C   0  0  0  0  0  0  0  0  0  0  0  0
    7.0789    0.7353  -13.2567 C   0  0  0  0  0  0  0  0  0  0  0  0
    6.0264    0.6156  -14.3584 C   0  0  0  0  0  0  0  0  0  0  0  0
    6.0308    1.8223  -15.1803 N   0  0  0  0  0  0  0  0  0  0  0  0
    7.7082    0.5032  -10.0295 O   0  0  0  0  0  0  0  0  0  0  0  0
    7.8882    2.2505   -7.6518 C   0  0  0  0  0  0  0  0  0  0  0  0
    9.0866    2.6140   -6.7631 C   0  0  0  0  0  0  0  0  0  0  0  0
   10.2056    1.5701   -6.8537 C   0  0  0  0  0  0  0  0  0  0  0  0
   10.7869    1.4855   -8.2648 C   0  0  0  0  0  0  0  0  0  0  0  0
   11.3448    2.7779   -8.6518 N   0  0  0  0  0  0  0  0  0  0  0  0
    7.4929    1.2173   -4.9819 O   0  0  0  0  0  0  0  0  0  0  0  0
    5.1298    2.1544   -3.8341 C   0  0  0  0  0  0  0  0  0  0  0  0
    4.6160    2.4810   -2.4330 C   0  0  0  0  0  0  0  0  0  0  0  0
    5.3058    1.6294   -1.3637 C   0  0  0  0  0  0  0  0  0  0  0  0
    6.8198    1.8492   -1.3210 C   0  0  0  0  0  0  0  0  0  0  0  0
    7.1142    3.2448   -1.0180 N   0  0  0  0  0  0  0  0  0  0  0  0
    2.5382    1.3210   -4.1417 O   0  0  0  0  0  0  0  0  0  0  0  0
   -1.0255   -4.9562   -5.7081 H   0  0  0  0  0  0  0  0  0  0  0  0
   -0.4992   -3.8273   -6.9310 H   0  0  0  0  0  0  0  0  0  0  0  0
   -1.9117   -2.5397   -5.7558 H   0  0  0  0  0  0  0  0  0  0  0  0
   -4.1164   -1.8507   -6.9194 H   0  0  0  0  0  0  0  0  0  0  0  0
   -2.8052   -1.9115   -7.8348 H   0  0  0  0  0  0  0  0  0  0  0  0
   -3.2365   -6.4733   -9.4931 H   0  0  0  0  0  0  0  0  0  0  0  0
   -4.2200   -6.1490  -10.5080 H   0  0  0  0  0  0  0  0  0  0  0  0
   -1.6660   -5.2630  -11.3808 H   0  0  0  0  0  0  0  0  0  0  0  0
    1.1344   -5.3671   -9.6249 H   0  0  0  0  0  0  0  0  0  0  0  0
    0.8999   -2.9494   -7.7697 H   0  0  0  0  0  0  0  0  0  0  0  0
    1.2867   -1.0996   -8.3155 H   0  0  0  0  0  0  0  0  0  0  0  0
    0.9474   -0.7493  -10.8547 H   0  0  0  0  0  0  0  0  0  0  0  0
    3.8472    0.7118   -9.2777 H   0  0  0  0  0  0  0  0  0  0  0  0
    5.5552   -0.3988  -11.3553 H   0  0  0  0  0  0  0  0  0  0  0  0
    5.2796    0.2933   -8.0449 H   0  0  0  0  0  0  0  0  0  0  0  0
    7.9786    0.0599   -7.4545 H   0  0  0  0  0  0  0  0  0  0  0  0
    5.0441   -0.2803   -6.1884 H   0  0  0  0  0  0  0  0  0  0  0  0
    5.3842   -0.0155   -3.5577 H   0  0  0  0  0  0  0  0  0  0  0  0
    3.6129   -1.5400   -4.5961 H   0  0  0  0  0  0  0  0  0  0  0  0
   -3.3030   -2.5075   -9.5383 H   0  0  0  0  0  0  0  0  0  0  0  0
   -1.9170   -2.7645   -8.9232 H   0  0  0  0  0  0  0  0  0  0  0  0
   -2.3410   -2.2667  -11.4212 H   0  0  0  0  0  0  0  0  0  0  0  0
   -1.4103   -3.5390  -11.5353 H   0  0  0  0  0  0  0  0  0  0  0  0
   -3.0480   -4.3429  -12.9742 H   0  0  0  0  0  0  0  0  0  0  0  0
   -3.5976   -5.2641  -11.9002 H   0  0  0  0  0  0  0  0  0  0  0  0
   -5.5851   -4.2347  -12.3356 H   0  0  0  0  0  0  0  0  0  0  0  0
   -5.3316   -3.6596  -10.8732 H   0  0  0  0  0  0  0  0  0  0  0  0
   -5.6086   -1.6479  -12.0774 H   0  0  0  0  0  0  0  0  0  0  0  0
   -4.0320   -1.6247  -11.5025 H   0  0  0  0  0  0  0  0  0  0  0  0
   -3.8489   -1.2712  -13.9604 H   0  0  0  0  0  0  0  0  0  0  0  0
   -3.0663   -2.7054  -13.6469 H   0  0  0  0  0  0  0  0  0  0  0  0
   -4.6350   -3.2503  -15.4365 H   0  0  0  0  0  0  0  0  0  0  0  0
   -5.1391   -4.1606  -14.1157 H   0  0  0  0  0  0  0  0  0  0  0  0
   -7.1352   -3.0025  -14.9185 H   0  0  0  0  0  0  0  0  0  0  0  0
   -6.8264   -2.4068  -13.3578 H   0  0  0  0  0  0  0  0  0  0  0  0
   -7.1462   -0.4485  -14.7888 H   0  0  0  0  0  0  0  0  0  0  0  0
   -5.5333   -0.4038  -14.2504 H   0  0  0  0  0  0  0  0  0  0  0  0
   -5.4705   -0.0502  -16.6676 H   0  0  0  0  0  0  0  0  0  0  0  0
   -4.6846   -1.5367  -16.3640 H   0  0  0  0  0  0  0  0  0  0  0  0
   -6.2626   -1.9295  -18.1877 H   0  0  0  0  0  0  0  0  0  0  0  0
   -6.7943   -2.8596  -16.8537 H   0  0  0  0  0  0  0  0  0  0  0  0
   -8.7521   -1.6836  -17.7193 H   0  0  0  0  0  0  0  0  0  0  0  0
   -8.4455   -1.0657  -16.1504 H   0  0  0  0  0  0  0  0  0  0  0  0
   -8.8356    0.8314  -17.6655 H   0  0  0  0  0  0  0  0  0  0  0  0
   -7.2017    0.9188  -17.0793 H   0  0  0  0  0  0  0  0  0  0  0  0
   -7.2050    1.3169  -19.5028 H   0  0  0  0  0  0  0  0  0  0  0  0
   -6.3408   -0.1616  -19.1871 H   0  0  0  0  0  0  0  0  0  0  0  0
   -9.2771    0.0031  -20.0204 H   0  0  0  0  0  0  0  0  0  0  0  0
   -7.9200   -0.5019  -21.0636 H   0  0  0  0  0  0  0  0  0  0  0  0
   -8.4151   -1.5123  -19.7213 H   0  0  0  0  0  0  0  0  0  0  0  0
   -5.5000   -5.0797   -6.8421 H   0  0  0  0  0  0  0  0  0  0  0  0
   -3.9094   -4.8684   -6.6247 H   0  0  0  0  0  0  0  0  0  0  0  0
   -4.2533   -7.2624   -7.7583 H   0  0  0  0  0  0  0  0  0  0  0  0
   -3.3485   -7.2832   -6.3189 H   0  0  0  0  0  0  0  0  0  0  0  0
   -5.4447   -8.6794   -6.3363 H   0  0  0  0  0  0  0  0  0  0  0  0
   -5.7178   -7.3165   -5.2474 H   0  0  0  0  0  0  0  0  0  0  0  0
   -7.6716   -7.3742   -6.7073 H   0  0  0  0  0  0  0  0  0  0  0  0
   -6.9260   -5.9823   -7.2185 H   0  0  0  0  0  0  0  0  0  0  0  0
   -7.5142   -7.1360   -9.2136 H   0  0  0  0  0  0  0  0  0  0  0  0
   -5.8059   -7.0435   -9.1999 H   0  0  0  0  0  0  0  0  0  0  0  0
   -6.4551   -9.3763   -9.7029 H   0  0  0  0  0  0  0  0  0  0  0  0
   -5.5809   -9.3432   -8.2304 H   0  0  0  0  0  0  0  0  0  0  0  0
   -7.6039  -10.6744   -7.8220 H   0  0  0  0  0  0  0  0  0  0  0  0
   -7.7373   -9.2854   -6.8571 H   0  0  0  0  0  0  0  0  0  0  0  0
   -9.8687   -9.5180   -8.0108 H   0  0  0  0  0  0  0  0  0  0  0  0
   -9.1564   -8.0798   -8.5965 H   0  0  0  0  0  0  0  0  0  0  0  0
   -9.9076   -9.3488  -10.5479 H   0  0  0  0  0  0  0  0  0  0  0  0
   -8.2014   -9.2667  -10.6258 H   0  0  0  0  0  0  0  0  0  0  0  0
   -8.8270  -11.5998  -11.0225 H   0  0  0  0  0  0  0  0  0  0  0  0
   -7.9548  -11.5545   -9.5503 H   0  0  0  0  0  0  0  0  0  0  0  0
   -9.9624  -12.8915   -9.1524 H   0  0  0  0  0  0  0  0  0  0  0  0
  -10.0939  -11.4831   -8.1869 H   0  0  0  0  0  0  0  0  0  0  0  0
  -12.2365  -11.7656   -9.3258 H   0  0  0  0  0  0  0  0  0  0  0  0
  -11.5296  -10.3239   -9.9277 H   0  0  0  0  0  0  0  0  0  0  0  0
  -12.3569  -11.6368  -11.8359 H   0  0  0  0  0  0  0  0  0  0  0  0
  -10.6273  -11.5121  -11.9576 H   0  0  0  0  0  0  0  0  0  0  0  0
  -11.2959  -13.8351  -12.3929 H   0  0  0  0  0  0  0  0  0  0  0  0
  -10.3471  -13.7973  -10.9329 H   0  0  0  0  0  0  0  0  0  0  0  0
  -13.4023  -13.8025  -11.0333 H   0  0  0  0  0  0  0  0  0  0  0  0
  -12.3679  -15.1844  -10.5805 H   0  0  0  0  0  0  0  0  0  0  0  0
  -12.4595  -13.7809   -9.5366 H   0  0  0  0  0  0  0  0  0  0  0  0
   -0.0843   -6.2653  -11.0981 H   0  0  0  0  0  0  0  0  0  0  0  0
   -0.4216   -6.8380   -9.5680 H   0  0  0  0  0  0  0  0  0  0  0  0
    1.7816   -4.9059   -6.8175 H   0  0  0  0  0  0  0  0  0  0  0  0
    2.9755   -5.0924   -8.1173 H   0  0  0  0  0  0  0  0  0  0  0  0
    3.8461   -3.0917   -7.4910 H   0  0  0  0  0  0  0  0  0  0  0  0
    0.3280    0.9338   -9.0896 H   0  0  0  0  0  0  0  0  0  0  0  0
    1.9752    1.4079   -8.8930 H   0  0  0  0  0  0  0  0  0  0  0  0
    0.9284    3.0508  -10.3315 H   0  0  0  0  0  0  0  0  0  0  0  0
    2.0869    2.1828  -11.2925 H   0  0  0  0  0  0  0  0  0  0  0  0
    0.0088    2.4190  -12.5762 H   0  0  0  0  0  0  0  0  0  0  0  0
    0.2920    0.7285  -12.2563 H   0  0  0  0  0  0  0  0  0  0  0  0
   -2.0758    1.2444  -11.8527 H   0  0  0  0  0  0  0  0  0  0  0  0
   -1.3334    0.7774  -10.3389 H   0  0  0  0  0  0  0  0  0  0  0  0
   -2.6129    2.7370  -10.0363 H   0  0  0  0  0  0  0  0  0  0  0  0
   -1.0494    3.1244   -9.8171 H   0  0  0  0  0  0  0  0  0  0  0  0
    4.6357    1.7756  -12.3208 H   0  0  0  0  0  0  0  0  0  0  0  0
    5.2775    2.6558  -10.9690 H   0  0  0  0  0  0  0  0  0  0  0  0
    6.7962    2.8654  -12.8921 H   0  0  0  0  0  0  0  0  0  0  0  0
    7.6215    2.0611  -11.6307 H   0  0  0  0  0  0  0  0  0  0  0  0
    8.0784    0.8380  -13.6939 H   0  0  0  0  0  0  0  0  0  0  0  0
    7.1152   -0.2020  -12.6879 H   0  0  0  0  0  0  0  0  0  0  0  0
    6.2319   -0.2605  -14.9785 H   0  0  0  0  0  0  0  0  0  0  0  0
    5.0297    0.4643  -13.9310 H   0  0  0  0  0  0  0  0  0  0  0  0
    5.2750    1.7714  -15.8581 H   0  0  0  0  0  0  0  0  0  0  0  0
    5.8175    2.6338  -14.6016 H   0  0  0  0  0  0  0  0  0  0  0  0
    8.2335    2.3112   -8.6903 H   0  0  0  0  0  0  0  0  0  0  0  0
    7.1253    3.0340   -7.5837 H   0  0  0  0  0  0  0  0  0  0  0  0
    9.4524    3.6063   -7.0461 H   0  0  0  0  0  0  0  0  0  0  0  0
    8.8004    2.7625   -5.7220 H   0  0  0  0  0  0  0  0  0  0  0  0
   10.9940    1.8176   -6.1339 H   0  0  0  0  0  0  0  0  0  0  0  0
    9.8382    0.5817   -6.5502 H   0  0  0  0  0  0  0  0  0  0  0  0
   11.5622    0.7164   -8.3037 H   0  0  0  0  0  0  0  0  0  0  0  0
   10.0191    1.1857   -8.9846 H   0  0  0  0  0  0  0  0  0  0  0  0
   11.6494    2.7363   -9.6209 H   0  0  0  0  0  0  0  0  0  0  0  0
   10.6098    3.4848   -8.6391 H   0  0  0  0  0  0  0  0  0  0  0  0
    6.1831    2.4407   -3.8322 H   0  0  0  0  0  0  0  0  0  0  0  0
    4.6860    2.8223   -4.5811 H   0  0  0  0  0  0  0  0  0  0  0  0
    4.7780    3.5485   -2.2467 H   0  0  0  0  0  0  0  0  0  0  0  0
    3.5366    2.3500   -2.3550 H   0  0  0  0  0  0  0  0  0  0  0  0
    4.8630    1.8578   -0.3886 H   0  0  0  0  0  0  0  0  0  0  0  0
    5.0982    0.5665   -1.5376 H   0  0  0  0  0  0  0  0  0  0  0  0
    7.2643    1.2005   -0.5620 H   0  0  0  0  0  0  0  0  0  0  0  0
    7.2868    1.5697   -2.2715 H   0  0  0  0  0  0  0  0  0  0  0  0
    8.1192    3.3973   -1.0647 H   0  0  0  0  0  0  0  0  0  0  0  0
    6.7241    3.8448   -1.7452 H   0  0  0  0  0  0  0  0  0  0  0  0
  1  2  1  0  0  0  0
  1 24  1  0  0  0  0
  1 89  1  0  0  0  0
  1 90  1  0  0  0  0
  2  3  1  0  0  0  0
  2 42  1  0  0  0  0
  2 91  1  0  0  0  0
  3  4  1  0  0  0  0
  3 92  1  0  0  0  0
  3 93  1  0  0  0  0
  4  5  1  0  0  0  0
  5  6  1  0  0  0  0
  5 94  1  0  0  0  0
  5 95  1  0  0  0  0
  6  7  1  0  0  0  0
  6 61  1  0  0  0  0
  6 96  1  6  0  0  0
  7  8  1  0  0  0  0
  7 60  2  0  0  0  0
  8 97  1  0  0  0  0
  9 62  1  0  0  0  0
  9 98  1  1  0  0  0
  9 10  1  0  0  0  0
  9  8  1  0  0  0  0
 10 11  1  0  0  0  0
 10 64  2  0  0  0  0
 11 99  1  0  0  0  0
 12 65  1  0  0  0  0
 12100  1  6  0  0  0
 12 13  1  0  0  0  0
 12 11  1  0  0  0  0
 13 14  1  0  0  0  0
 13 70  2  0  0  0  0
 14101  1  0  0  0  0
 15 71  1  0  0  0  0
 15102  1  6  0  0  0
 15 16  1  0  0  0  0
 15 14  1  0  0  0  0
 16 17  1  0  0  0  0
 16 76  2  0  0  0  0
 17103  1  0  0  0  0
 18 77  1  0  0  0  0
 18104  1  6  0  0  0
 18 19  1  0  0  0  0
 18 17  1  0  0  0  0
 19 20  1  0  0  0  0
 19 82  2  0  0  0  0
 20105  1  0  0  0  0
 21 83  1  0  0  0  0
 21106  1  1  0  0  0
 21 22  1  0  0  0  0
 21 20  1  0  0  0  0
 22 23  1  0  0  0  0
 22 88  2  0  0  0  0
 23107  1  0  0  0  0
 24 25  1  0  0  0  0
 25 26  1  0  0  0  0
 25 41  2  0  0  0  0
 26 27  1  0  0  0  0
 26108  1  0  0  0  0
 26109  1  0  0  0  0
 27 28  1  0  0  0  0
 27110  1  0  0  0  0
 27111  1  0  0  0  0
 28 29  1  0  0  0  0
 28112  1  0  0  0  0
 28113  1  0  0  0  0
 29 30  1  0  0  0  0
 29114  1  0  0  0  0
 29115  1  0  0  0  0
 30 31  1  0  0  0  0
 30116  1  0  0  0  0
 30117  1  0  0  0  0
 31 32  1  0  0  0  0
 31118  1  0  0  0  0
 31119  1  0  0  0  0
 32 33  1  0  0  0  0
 32120  1  0  0  0  0
 32121  1  0  0  0  0
 33 34  1  0  0  0  0
 33122  1  0  0  0  0
 33123  1  0  0  0  0
 34 35  1  0  0  0  0
 34124  1  0  0  0  0
 34125  1  0  0  0  0
 35 36  1  0  0  0  0
 35126  1  0  0  0  0
 35127  1  0  0  0  0
 36 37  1  0  0  0  0
 36128  1  0  0  0  0
 36129  1  0  0  0  0
 37 38  1  0  0  0  0
 37130  1  0  0  0  0
 37131  1  0  0  0  0
 38 39  1  0  0  0  0
 38132  1  0  0  0  0
 38133  1  0  0  0  0
 39 40  1  0  0  0  0
 39134  1  0  0  0  0
 39135  1  0  0  0  0
 40136  1  0  0  0  0
 40137  1  0  0  0  0
 40138  1  0  0  0  0
 42 43  1  0  0  0  0
 43 44  1  0  0  0  0
 43 59  2  0  0  0  0
 44 45  1  0  0  0  0
 44139  1  0  0  0  0
 44140  1  0  0  0  0
 45 46  1  0  0  0  0
 45141  1  0  0  0  0
 45142  1  0  0  0  0
 46 47  1  0  0  0  0
 46143  1  0  0  0  0
 46144  1  0  0  0  0
 47 48  1  0  0  0  0
 47145  1  0  0  0  0
 47146  1  0  0  0  0
 48 49  1  0  0  0  0
 48147  1  0  0  0  0
 48148  1  0  0  0  0
 49 50  1  0  0  0  0
 49149  1  0  0  0  0
 49150  1  0  0  0  0
 50 51  1  0  0  0  0
 50151  1  0  0  0  0
 50152  1  0  0  0  0
 51 52  1  0  0  0  0
 51153  1  0  0  0  0
 51154  1  0  0  0  0
 52 53  1  0  0  0  0
 52155  1  0  0  0  0
 52156  1  0  0  0  0
 53 54  1  0  0  0  0
 53157  1  0  0  0  0
 53158  1  0  0  0  0
 54 55  1  0  0  0  0
 54159  1  0  0  0  0
 54160  1  0  0  0  0
 55 56  1  0  0  0  0
 55161  1  0  0  0  0
 55162  1  0  0  0  0
 56 57  1  0  0  0  0
 56163  1  0  0  0  0
 56164  1  0  0  0  0
 57 58  1  0  0  0  0
 57165  1  0  0  0  0
 57166  1  0  0  0  0
 58167  1  0  0  0  0
 58168  1  0  0  0  0
 58169  1  0  0  0  0
 61170  1  0  0  0  0
 61171  1  0  0  0  0
 62 63  1  0  0  0  0
 62172  1  0  0  0  0
 62173  1  0  0  0  0
 63174  1  0  0  0  0
 65 66  1  0  0  0  0
 65175  1  0  0  0  0
 65176  1  0  0  0  0
 66 67  1  0  0  0  0
 66177  1  0  0  0  0
 66178  1  0  0  0  0
 67 68  1  0  0  0  0
 67179  1  0  0  0  0
 67180  1  0  0  0  0
 68 69  1  0  0  0  0
 68181  1  0  0  0  0
 68182  1  0  0  0  0
 69183  1  0  0  0  0
 69184  1  0  0  0  0
 71 72  1  0  0  0  0
 71185  1  0  0  0  0
 71186  1  0  0  0  0
 72 73  1  0  0  0  0
 72187  1  0  0  0  0
 72188  1  0  0  0  0
 73 74  1  0  0  0  0
 73189  1  0  0  0  0
 73190  1  0  0  0  0
 74 75  1  0  0  0  0
 74191  1  0  0  0  0
 74192  1  0  0  0  0
 75193  1  0  0  0  0
 75194  1  0  0  0  0
 77 78  1  0  0  0  0
 77195  1  0  0  0  0
 77196  1  0  0  0  0
 78 79  1  0  0  0  0
 78197  1  0  0  0  0
 78198  1  0  0  0  0
 79 80  1  0  0  0  0
 79199  1  0  0  0  0
 79200  1  0  0  0  0
 80 81  1  0  0  0  0
 80201  1  0  0  0  0
 80202  1  0  0  0  0
 81203  1  0  0  0  0
 81204  1  0  0  0  0
 83 84  1  0  0  0  0
 83205  1  0  0  0  0
 83206  1  0  0  0  0
 84 85  1  0  0  0  0
 84207  1  0  0  0  0
 84208  1  0  0  0  0
 85 86  1  0  0  0  0
 85209  1  0  0  0  0
 85210  1  0  0  0  0
 86 87  1  0  0  0  0
 86211  1  0  0  0  0
 86212  1  0  0  0  0
 87213  1  0  0  0  0
 87214  1  0  0  0  0
M  END
>  <DRUGBANK_ID>
DB16474

>  <COMMON_NAME>
Pam2csk4

>  <CAS_NUMBER>
574741-81-4

>  <UNII>
L33ZW7BO91

>  <SYNONYMS>
Pam2; Pam2CSK4; Pam2CSK4 acetate

$$$$
