
 OpenBabel10282417223D

 44 47  0  0  0  0  0  0  0  0999 V2000
    1.4062   -0.3984   -0.0766 C   0  0  0  0  0  0  0  0  0  0  0  0
    0.3691    0.6135   -1.2955 C   0  0  1  0  0  0  0  0  0  0  0  0
    1.0362    1.5312   -0.4061 C   0  0  2  0  0  0  0  0  0  0  0  0
    2.4605    1.4811   -1.6878 C   0  0  1  0  0  0  0  0  0  0  0  0
    2.4855    0.5399   -3.0488 C   0  0  2  0  0  0  0  0  0  0  0  0
    1.6425   -0.6880   -2.8627 C   0  0  0  0  0  0  0  0  0  0  0  0
    0.3001   -0.1902   -2.5127 C   0  0  0  0  0  0  0  0  0  0  0  0
    3.8856    0.0935   -3.5221 C   0  0  0  0  0  0  0  0  0  0  0  0
    5.0120    0.8880   -3.2888 C   0  0  0  0  0  0  0  0  0  0  0  0
    4.8604    2.2236   -2.5822 C   0  0  0  0  0  0  0  0  0  0  0  0
    3.3601    2.7048   -2.2553 C   0  0  0  0  0  0  0  0  0  0  0  0
    6.2995    0.4059   -3.6770 C   0  0  0  0  0  0  0  0  0  0  0  0
    6.4478   -0.8389   -4.2987 C   0  0  0  0  0  0  0  0  0  0  0  0
    5.3360   -1.6043   -4.5754 C   0  0  0  0  0  0  0  0  0  0  0  0
    4.0768   -1.1278   -4.2166 C   0  0  0  0  0  0  0  0  0  0  0  0
    7.6547   -1.3625   -4.6621 O   0  0  0  0  0  0  0  0  0  0  0  0
    2.0685    1.1192   -3.8957 H   0  0  0  0  0  0  0  0  0  0  0  0
    3.2329    1.0559   -1.0494 H   0  0  0  0  0  0  0  0  0  0  0  0
   -0.5831    0.5378    0.3380 C   0  0  0  0  0  0  0  0  0  0  0  0
   -1.8174    0.6539   -0.5888 C   0  0  2  0  0  0  0  0  0  0  0  0
   -0.9725    1.6668   -1.1714 C   0  0  2  0  0  0  0  0  0  0  0  0
   -1.3732    2.3620   -2.3139 O   0  0  0  0  0  0  0  0  0  0  0  0
   -2.9268    1.0887    0.0149 F   0  0  0  0  0  0  0  0  0  0  0  0
    0.8720    2.5850   -0.2402 H   0  0  0  0  0  0  0  0  0  0  0  0
    1.1613   -1.4553   -0.1129 H   0  0  0  0  0  0  0  0  0  0  0  0
    1.3013   -0.0650    1.0001 H   0  0  0  0  0  0  0  0  0  0  0  0
    2.4895   -0.2858   -0.1586 H   0  0  0  0  0  0  0  0  0  0  0  0
    2.0960   -1.3183   -2.0949 H   0  0  0  0  0  0  0  0  0  0  0  0
    1.5199   -1.3105   -3.7459 H   0  0  0  0  0  0  0  0  0  0  0  0
   -0.3537   -1.0559   -2.3484 H   0  0  0  0  0  0  0  0  0  0  0  0
   -0.1199    0.3687   -3.3542 H   0  0  0  0  0  0  0  0  0  0  0  0
    5.3830    2.9739   -3.1985 H   0  0  0  0  0  0  0  0  0  0  0  0
    5.4165    2.1517   -1.6402 H   0  0  0  0  0  0  0  0  0  0  0  0
    2.9788    3.0722   -3.2266 H   0  0  0  0  0  0  0  0  0  0  0  0
    3.4198    3.5660   -1.5894 H   0  0  0  0  0  0  0  0  0  0  0  0
    7.1873    1.0006   -3.4772 H   0  0  0  0  0  0  0  0  0  0  0  0
    5.4325   -2.5736   -5.0582 H   0  0  0  0  0  0  0  0  0  0  0  0
    3.2468   -1.7732   -4.4825 H   0  0  0  0  0  0  0  0  0  0  0  0
    8.3649   -0.7452   -4.4291 H   0  0  0  0  0  0  0  0  0  0  0  0
   -0.8946    0.4935    1.3881 H   0  0  0  0  0  0  0  0  0  0  0  0
   -0.5055   -0.5775    0.2704 H   0  0  0  0  0  0  0  0  0  0  0  0
   -2.0536   -0.1825   -1.2653 H   0  0  0  0  0  0  0  0  0  0  0  0
   -0.9601    2.4781   -0.3976 H   0  0  0  0  0  0  0  0  0  0  0  0
   -1.3981    1.7623   -3.0601 H   0  0  0  0  0  0  0  0  0  0  0  0
  1 25  1  0  0  0  0
  1 26  1  0  0  0  0
  1 27  1  0  0  0  0
  2  1  1  1  0  0  0
  2  3  1  0  0  0  0
  2  7  1  0  0  0  0
  2 21  1  0  0  0  0
  3  4  1  0  0  0  0
  3 19  1  0  0  0  0
  3 24  1  6  0  0  0
  4  5  1  0  0  0  0
  4 11  1  0  0  0  0
  4 18  1  1  0  0  0
  5  8  1  0  0  0  0
  5 17  1  6  0  0  0
  6  5  1  0  0  0  0
  6 28  1  0  0  0  0
  6 29  1  0  0  0  0
  7  6  1  0  0  0  0
  7 30  1  0  0  0  0
  7 31  1  0  0  0  0
  8  9  2  0  0  0  0
  8 15  1  0  0  0  0
  9 12  1  0  0  0  0
 10  9  1  0  0  0  0
 10 32  1  0  0  0  0
 10 33  1  0  0  0  0
 11 10  1  0  0  0  0
 11 34  1  0  0  0  0
 11 35  1  0  0  0  0
 12 13  2  0  0  0  0
 12 36  1  0  0  0  0
 13 16  1  0  0  0  0
 14 13  1  0  0  0  0
 14 37  1  0  0  0  0
 15 14  2  0  0  0  0
 15 38  1  0  0  0  0
 16 39  1  0  0  0  0
 19 20  1  0  0  0  0
 19 40  1  0  0  0  0
 19 41  1  0  0  0  0
 20 23  1  0  0  0  0
 20 42  1  6  0  0  0
 21 20  1  0  0  0  0
 21 43  1  1  0  0  0
 21 22  1  0  0  0  0
 22 44  1  0  0  0  0
M  ISO  1  23  18
M  END
>  <DRUGBANK_ID>
DB15690

>  <COMMON_NAME>
Fluoroestradiol F-18

>  <CAS_NUMBER>
94153-53-4

>  <UNII>
T32277KB09

>  <SYNONYMS>
(18F)FES; 16-alpha-(18-Fluoro)-17betaestradiol; 16-alpha-(18F)Fluoro-17beta-estradiol; 16alpha-(18F)Fluoro-17beta-estradiol; F-18 16 alpha-Fluoroestradiol; F-18 Fes; Fes F-18

$$$$
