PRB
 OpenBabel10282417143D

 59 62  0  0  0  0  0  0  0  0999 V2000
   -1.4343   -1.0928   -0.2490 C   0  0  0  0  0  0  0  0  0  0  0  0
   -1.6496   -2.4692   -0.2270 C   0  0  0  0  0  0  0  0  0  0  0  0
   -0.7463   -2.6696   -1.2935 C   0  0  0  0  0  0  0  0  0  0  0  0
    0.3115   -3.3766   -1.1433 O   0  0  0  0  0  0  0  0  0  0  0  0
   -1.0470   -1.7608   -2.3665 C   0  0  1  0  0  0  0  0  0  0  0  0
   -2.4740   -1.7639   -2.6038 O   0  0  0  0  0  0  0  0  0  0  0  0
   -0.1923   -2.2949   -3.4340 C   0  0  0  0  0  0  0  0  0  0  0  0
    1.2534   -1.6995   -3.3594 C   0  0  0  0  0  0  0  0  0  0  0  0
    1.3484   -1.1579   -4.5548 C   0  0  0  0  0  0  0  0  0  0  0  0
    0.9435    0.2887   -4.2225 C   0  0  2  0  0  0  0  0  0  0  0  0
   -0.4598    0.6252   -2.9325 C   0  0  1  0  0  0  0  0  0  0  0  0
   -1.8779    0.6140   -3.3141 O   0  0  0  0  0  0  0  0  0  0  0  0
   -0.6889   -0.4952   -1.6718 C   0  0  2  0  0  0  0  0  0  0  0  0
   -0.0585    2.1297   -2.4090 C   0  0  1  0  0  0  0  0  0  0  0  0
   -0.4322    3.3234   -3.4930 C   0  0  1  0  0  0  0  0  0  0  0  0
   -1.4829    3.8559   -4.3515 O   0  0  0  0  0  0  0  0  0  0  0  0
    0.6279    2.9681   -4.6814 C   0  0  2  0  0  0  0  0  0  0  0  0
    1.3989    1.6267   -4.7536 C   0  0  1  0  0  0  0  0  0  0  0  0
    0.2641    1.9021   -5.7547 C   0  0  0  0  0  0  0  0  0  0  0  0
    0.4449    1.6934   -7.1980 C   0  0  0  0  0  0  0  0  0  0  0  0
   -0.9845    1.1047   -5.5174 C   0  0  0  0  0  0  0  0  0  0  0  0
   -0.3330    2.1706   -0.8893 C   0  0  0  0  0  0  0  0  0  0  0  0
   -2.0703   -3.9128    0.1240 C   0  0  0  0  0  0  0  0  0  0  0  0
    2.0543   -0.7050   -2.3739 C   0  0  0  0  0  0  0  0  0  0  0  0
    2.1624   -1.0961   -1.0455 O   0  0  0  0  0  0  0  0  0  0  0  0
    1.1496    4.1893   -5.2850 O   0  0  0  0  0  0  0  0  0  0  0  0
    2.0470    4.9542   -4.6049 C   0  0  0  0  0  0  0  0  0  0  0  0
    1.9697    6.1809   -4.5287 O   0  0  0  0  0  0  0  0  0  0  0  0
    3.1810    4.1606   -4.0584 C   0  0  0  0  0  0  0  0  0  0  0  0
    1.0404    0.1247   -5.3236 H   0  0  0  0  0  0  0  0  0  0  0  0
    0.2103   -0.2452   -1.1759 H   0  0  0  0  0  0  0  0  0  0  0  0
    1.0253    2.2863   -2.3751 H   0  0  0  0  0  0  0  0  0  0  0  0
   -1.3824    2.8873   -3.1724 H   0  0  0  0  0  0  0  0  0  0  0  0
    2.4634    1.6012   -5.0145 H   0  0  0  0  0  0  0  0  0  0  0  0
   -1.6620   -0.3691    0.5261 H   0  0  0  0  0  0  0  0  0  0  0  0
   -2.6822   -1.9473   -3.5260 H   0  0  0  0  0  0  0  0  0  0  0  0
   -0.7688   -2.1614   -4.3752 H   0  0  0  0  0  0  0  0  0  0  0  0
   -0.1656   -3.3848   -3.3782 H   0  0  0  0  0  0  0  0  0  0  0  0
    0.8777   -1.6798   -5.4331 H   0  0  0  0  0  0  0  0  0  0  0  0
   -2.3837    1.3110   -2.8473 H   0  0  0  0  0  0  0  0  0  0  0  0
   -1.1799    4.6898   -4.7490 H   0  0  0  0  0  0  0  0  0  0  0  0
    0.2672    0.6112   -7.3824 H   0  0  0  0  0  0  0  0  0  0  0  0
   -0.4209    2.2109   -7.6132 H   0  0  0  0  0  0  0  0  0  0  0  0
    1.3754    1.9364   -7.6870 H   0  0  0  0  0  0  0  0  0  0  0  0
   -1.9551    1.2194   -5.9498 H   0  0  0  0  0  0  0  0  0  0  0  0
   -0.8268    0.0198   -5.4019 H   0  0  0  0  0  0  0  0  0  0  0  0
   -1.1721    1.6181   -4.6370 H   0  0  0  0  0  0  0  0  0  0  0  0
   -1.3313    1.8057   -0.6321 H   0  0  0  0  0  0  0  0  0  0  0  0
    0.3815    1.4682   -0.4242 H   0  0  0  0  0  0  0  0  0  0  0  0
   -0.0886    3.0801   -0.3452 H   0  0  0  0  0  0  0  0  0  0  0  0
   -1.9255   -4.3156    1.1264 H   0  0  0  0  0  0  0  0  0  0  0  0
   -3.0917   -4.1272   -0.2250 H   0  0  0  0  0  0  0  0  0  0  0  0
   -1.5277   -4.6654   -0.5107 H   0  0  0  0  0  0  0  0  0  0  0  0
    3.0229   -0.4086   -2.8084 H   0  0  0  0  0  0  0  0  0  0  0  0
    1.6687    0.3244   -2.3013 H   0  0  0  0  0  0  0  0  0  0  0  0
    1.3086   -1.4759   -0.7885 H   0  0  0  0  0  0  0  0  0  0  0  0
    2.8743    3.6241   -3.1592 H   0  0  0  0  0  0  0  0  0  0  0  0
    3.4997    3.4759   -4.8466 H   0  0  0  0  0  0  0  0  0  0  0  0
    4.0292    4.8098   -3.8347 H   0  0  0  0  0  0  0  0  0  0  0  0
  1  2  2  0  0  0  0
  1 13  1  0  0  0  0
  1 35  1  0  0  0  0
  2  3  1  0  0  0  0
  2 23  1  0  0  0  0
  3  5  1  0  0  0  0
  3  4  2  0  0  0  0
  5  7  1  0  0  0  0
  5 13  1  0  0  0  0
  5  6  1  1  0  0  0
  6 36  1  0  0  0  0
  7  8  1  0  0  0  0
  7 37  1  0  0  0  0
  7 38  1  0  0  0  0
  8  9  2  0  0  0  0
  8 24  1  0  0  0  0
  9 10  1  0  0  0  0
  9 39  1  0  0  0  0
 10 11  1  0  0  0  0
 10 18  1  0  0  0  0
 10 30  1  1  0  0  0
 11 13  1  0  0  0  0
 11 14  1  0  0  0  0
 11 12  1  6  0  0  0
 12 40  1  0  0  0  0
 13 31  1  6  0  0  0
 14 15  1  0  0  0  0
 14 32  1  6  0  0  0
 14 22  1  0  0  0  0
 15 17  1  0  0  0  0
 15 16  1  0  0  0  0
 15 33  1  6  0  0  0
 16 41  1  0  0  0  0
 17 18  1  0  0  0  0
 17 19  1  0  0  0  0
 17 26  1  1  0  0  0
 18 19  1  0  0  0  0
 18 34  1  1  0  0  0
 19 20  1  0  0  0  0
 19 21  1  0  0  0  0
 20 42  1  0  0  0  0
 20 43  1  0  0  0  0
 20 44  1  0  0  0  0
 21 45  1  0  0  0  0
 21 46  1  0  0  0  0
 21 47  1  0  0  0  0
 22 48  1  0  0  0  0
 22 49  1  0  0  0  0
 22 50  1  0  0  0  0
 23 51  1  0  0  0  0
 23 52  1  0  0  0  0
 23 53  1  0  0  0  0
 24 25  1  0  0  0  0
 24 54  1  0  0  0  0
 24 55  1  0  0  0  0
 25 56  1  0  0  0  0
 26 27  1  0  0  0  0
 27 28  2  0  0  0  0
 27 29  1  0  0  0  0
 29 57  1  0  0  0  0
 29 58  1  0  0  0  0
 29 59  1  0  0  0  0
M  END
>  <DRUGBANK_ID>
DB04376

>  <SECONDARY_ACCESSION_NUMBERS>
EXPT02656

>  <COMMON_NAME>
13-Acetylphorbol

$$$$
