
 OpenBabel10282417123D

 30 29  0  0  0  0  0  0  0  0999 V2000
    1.1134   -0.0162   -0.0257 O   0  0  0  0  0  0  0  0  0  0  0  0
    3.0801    0.7252   -0.8653 N   0  0  0  0  0  0  0  0  0  0  0  0
    4.5262    1.1506   -3.4501 C   0  0  0  0  0  0  0  0  0  0  0  0
    5.0054    0.2702   -2.2861 C   0  0  0  0  0  0  0  0  0  0  0  0
    5.0603    2.5823   -3.4168 C   0  0  0  0  0  0  0  0  0  0  0  0
    4.5296    0.7330   -0.8967 C   0  0  1  0  0  0  0  0  0  0  0  0
    6.5916    2.6241   -3.3376 C   0  0  0  0  0  0  0  0  0  0  0  0
    7.1875    2.1010   -4.6380 C   0  0  0  0  0  0  0  0  0  0  0  0
    5.0487    2.0887   -0.4156 C   0  0  0  0  0  0  0  0  0  0  0  0
    6.7068    2.9526   -5.8010 C   0  0  0  0  0  0  0  0  0  0  0  0
    2.3281   -0.0150   -0.0056 C   0  0  0  0  0  0  0  0  0  0  0  0
    2.5513    1.2748   -1.5331 H   0  0  0  0  0  0  0  0  0  0  0  0
    4.8213    0.6743   -4.3935 H   0  0  0  0  0  0  0  0  0  0  0  0
    3.4326    1.1747   -3.4857 H   0  0  0  0  0  0  0  0  0  0  0  0
    6.0974    0.1676   -2.2942 H   0  0  0  0  0  0  0  0  0  0  0  0
    4.6368   -0.7498   -2.4688 H   0  0  0  0  0  0  0  0  0  0  0  0
    4.6803    3.1279   -4.2809 H   0  0  0  0  0  0  0  0  0  0  0  0
    4.6077    3.1787   -2.6365 H   0  0  0  0  0  0  0  0  0  0  0  0
    4.8942   -0.0070   -0.1743 H   0  0  0  0  0  0  0  0  0  0  0  0
    6.9309    3.6464   -3.1360 H   0  0  0  0  0  0  0  0  0  0  0  0
    6.9901    2.0280   -2.5093 H   0  0  0  0  0  0  0  0  0  0  0  0
    8.2796    2.1115   -4.5779 H   0  0  0  0  0  0  0  0  0  0  0  0
    6.9006    1.0543   -4.7930 H   0  0  0  0  0  0  0  0  0  0  0  0
    4.8077    2.2654    0.6338 H   0  0  0  0  0  0  0  0  0  0  0  0
    6.1313    2.1755   -0.5401 H   0  0  0  0  0  0  0  0  0  0  0  0
    4.5583    2.9281   -0.9007 H   0  0  0  0  0  0  0  0  0  0  0  0
    6.9922    3.9960   -5.6357 H   0  0  0  0  0  0  0  0  0  0  0  0
    7.1157    2.5940   -6.7427 H   0  0  0  0  0  0  0  0  0  0  0  0
    5.6200    2.9221   -5.9207 H   0  0  0  0  0  0  0  0  0  0  0  0
    2.9262   -0.6084    0.7070 H   0  0  0  0  0  0  0  0  0  0  0  0
  1 11  2  0  0  0  0
  2 11  1  0  0  0  0
  2 12  1  0  0  0  0
  3  4  1  0  0  0  0
  3  5  1  0  0  0  0
  3 13  1  0  0  0  0
  3 14  1  0  0  0  0
  4  6  1  0  0  0  0
  4 15  1  0  0  0  0
  4 16  1  0  0  0  0
  5  7  1  0  0  0  0
  5 17  1  0  0  0  0
  5 18  1  0  0  0  0
  6  2  1  0  0  0  0
  6  9  1  0  0  0  0
  6 19  1  1  0  0  0
  7  8  1  0  0  0  0
  7 20  1  0  0  0  0
  7 21  1  0  0  0  0
  8 10  1  0  0  0  0
  8 22  1  0  0  0  0
  8 23  1  0  0  0  0
  9 24  1  0  0  0  0
  9 25  1  0  0  0  0
  9 26  1  0  0  0  0
 10 27  1  0  0  0  0
 10 28  1  0  0  0  0
 10 29  1  0  0  0  0
 11 30  1  0  0  0  0
M  END
>  <DRUGBANK_ID>
DB02131

>  <SECONDARY_ACCESSION_NUMBERS>
EXPT01516

>  <COMMON_NAME>
N-1-methylheptylformamide

>  <SYNONYMS>
(R)-(-)-2-Octyl isocyanate

$$$$
