
 OpenBabel10282417123D

 57 59  0  0  0  0  0  0  0  0999 V2000
   -1.2334   -1.4158    0.0333 N   0  0  0  0  0  0  0  0  0  0  0  0
   -0.0767   -0.6630    0.0111 C   0  0  0  0  0  0  0  0  0  0  0  0
   -0.0610    0.6859   -0.0458 C   0  0  0  0  0  0  0  0  0  0  0  0
    1.1105    1.4384   -0.1410 N   0  0  0  0  0  0  0  0  0  0  0  0
    1.1035   -1.3930    0.0101 N   0  0  0  0  0  0  0  0  0  0  0  0
   -2.4757    0.5457   -0.0139 N   0  0  0  0  0  0  0  0  0  0  0  0
    2.2346   -0.7372    0.0135 C   0  0  0  0  0  0  0  0  0  0  0  0
    2.4352    0.7944    0.0227 C   0  0  2  0  0  0  0  0  0  0  0  0
    3.2431    1.1782    1.3445 C   0  0  0  0  0  0  0  0  0  0  0  0
    2.9999    3.3161    2.7149 C   0  0  0  0  0  0  0  0  0  0  0  0
    2.3418    3.4145    5.0397 C   0  0  0  0  0  0  0  0  0  0  0  0
    3.0275    2.7786    3.9876 C   0  0  0  0  0  0  0  0  0  0  0  0
    2.2759    4.5414    2.5670 C   0  0  0  0  0  0  0  0  0  0  0  0
    1.4358    5.0615    3.5538 C   0  0  0  0  0  0  0  0  0  0  0  0
    1.5245    4.5435    4.8297 C   0  0  0  0  0  0  0  0  0  0  0  0
    0.8587    5.2023    5.9890 C   0  0  0  0  0  0  0  0  0  0  0  0
    1.0628    4.7858    7.1248 O   0  0  0  0  0  0  0  0  0  0  0  0
    0.0603    6.3042    5.7480 N   0  0  0  0  0  0  0  0  0  0  0  0
   -2.7031   10.4717    5.6638 O   0  0  0  0  0  0  0  0  0  0  0  0
   -0.6098    7.0194    6.8297 C   0  0  2  0  0  0  0  0  0  0  0  0
   -2.6988    6.4519    8.0025 O   0  0  0  0  0  0  0  0  0  0  0  0
   -2.1254    6.6890    6.7993 C   0  0  0  0  0  0  0  0  0  0  0  0
   -2.8044    6.6483    5.8041 O   0  0  0  0  0  0  0  0  0  0  0  0
   -0.2556    8.5198    6.7454 C   0  0  0  0  0  0  0  0  0  0  0  0
   -0.6106    9.2599    5.4437 C   0  0  0  0  0  0  0  0  0  0  0  0
   -2.0743    9.5282    5.2074 C   0  0  0  0  0  0  0  0  0  0  0  0
   -2.6438    8.5738    4.4573 O   0  0  0  0  0  0  0  0  0  0  0  0
   -1.4020    1.3538    0.0031 C   0  0  0  0  0  0  0  0  0  0  0  0
   -1.5916    2.5641    0.0731 O   0  0  0  0  0  0  0  0  0  0  0  0
   -2.3705   -0.7986    0.0106 C   0  0  0  0  0  0  0  0  0  0  0  0
   -3.5583   -1.4370    0.0091 N   0  0  0  0  0  0  0  0  0  0  0  0
    3.5813    2.6339    1.6033 N   0  0  0  0  0  0  0  0  0  0  0  0
    1.0914    2.8143   -0.5022 C   0  0  0  0  0  0  0  0  0  0  0  0
    1.3715    3.4165    0.6790 O   0  0  0  0  0  0  0  0  0  0  0  0
   -3.3585    1.0256    0.0067 H   0  0  0  0  0  0  0  0  0  0  0  0
    3.1637   -1.3375    0.0003 H   0  0  0  0  0  0  0  0  0  0  0  0
    3.0466    1.0213   -0.8616 H   0  0  0  0  0  0  0  0  0  0  0  0
    2.7405    0.7292    2.2066 H   0  0  0  0  0  0  0  0  0  0  0  0
    4.2119    0.6608    1.2592 H   0  0  0  0  0  0  0  0  0  0  0  0
    2.4502    3.0084    6.0408 H   0  0  0  0  0  0  0  0  0  0  0  0
    3.5935    1.8722    4.1717 H   0  0  0  0  0  0  0  0  0  0  0  0
    2.1688    5.0507    1.6057 H   0  0  0  0  0  0  0  0  0  0  0  0
    0.7425    5.8497    3.2721 H   0  0  0  0  0  0  0  0  0  0  0  0
   -0.1995    6.5716    4.8079 H   0  0  0  0  0  0  0  0  0  0  0  0
   -0.2151    6.6396    7.7793 H   0  0  0  0  0  0  0  0  0  0  0  0
   -2.1007    6.0793    8.6733 H   0  0  0  0  0  0  0  0  0  0  0  0
   -0.6639    9.0534    7.6111 H   0  0  0  0  0  0  0  0  0  0  0  0
    0.8416    8.5936    6.8426 H   0  0  0  0  0  0  0  0  0  0  0  0
   -0.1378   10.2485    5.4704 H   0  0  0  0  0  0  0  0  0  0  0  0
   -0.1815    8.7607    4.5684 H   0  0  0  0  0  0  0  0  0  0  0  0
   -3.3755    8.1569    4.9829 H   0  0  0  0  0  0  0  0  0  0  0  0
   -3.5628   -2.4466    0.0255 H   0  0  0  0  0  0  0  0  0  0  0  0
   -4.4416   -0.9489    0.0211 H   0  0  0  0  0  0  0  0  0  0  0  0
    3.4385    3.1994    0.7659 H   0  0  0  0  0  0  0  0  0  0  0  0
    1.8284    3.0870   -1.2546 H   0  0  0  0  0  0  0  0  0  0  0  0
    0.1566    3.2903   -0.7582 H   0  0  0  0  0  0  0  0  0  0  0  0
    1.1059    2.7529    1.3481 H   0  0  0  0  0  0  0  0  0  0  0  0
  1  2  1  0  0  0  0
  2  3  2  0  0  0  0
  2  5  1  0  0  0  0
  3  4  1  0  0  0  0
  3 28  1  0  0  0  0
  4  8  1  0  0  0  0
  4 33  1  0  0  0  0
  6 35  1  0  0  0  0
  7  5  2  0  0  0  0
  7  8  1  0  0  0  0
  7 36  1  0  0  0  0
  8 37  1  6  0  0  0
  8  9  1  0  0  0  0
  9 32  1  0  0  0  0
  9 38  1  0  0  0  0
  9 39  1  0  0  0  0
 10 13  1  0  0  0  0
 11 12  1  0  0  0  0
 11 15  2  0  0  0  0
 11 40  1  0  0  0  0
 12 10  2  0  0  0  0
 12 41  1  0  0  0  0
 13 14  2  0  0  0  0
 13 42  1  0  0  0  0
 14 15  1  0  0  0  0
 14 43  1  0  0  0  0
 15 16  1  0  0  0  0
 16 18  1  0  0  0  0
 16 17  2  0  0  0  0
 18 44  1  0  0  0  0
 20 18  1  0  0  0  0
 20 24  1  0  0  0  0
 20 22  1  0  0  0  0
 20 45  1  1  0  0  0
 21 46  1  0  0  0  0
 22 21  1  0  0  0  0
 22 23  2  0  0  0  0
 24 25  1  0  0  0  0
 24 47  1  0  0  0  0
 24 48  1  0  0  0  0
 25 26  1  0  0  0  0
 25 49  1  0  0  0  0
 25 50  1  0  0  0  0
 26 19  2  0  0  0  0
 26 27  1  0  0  0  0
 27 51  1  0  0  0  0
 28  6  1  0  0  0  0
 28 29  2  0  0  0  0
 30  1  2  0  0  0  0
 30  6  1  0  0  0  0
 30 31  1  0  0  0  0
 31 52  1  0  0  0  0
 31 53  1  0  0  0  0
 32 10  1  0  0  0  0
 32 54  1  0  0  0  0
 33 34  1  0  0  0  0
 33 55  1  0  0  0  0
 33 56  1  0  0  0  0
 34 57  1  0  0  0  0
M  END
>  <DRUGBANK_ID>
DB02800

>  <SECONDARY_ACCESSION_NUMBERS>
EXPT03049

>  <COMMON_NAME>
5-hydroxymethyl-5,6-dihydrofolic acid

$$$$
