
 OpenBabel10282417233D

 50 53  0  0  0  0  0  0  0  0999 V2000
    0.8804   -0.0638   -0.0892 C   0  0  0  0  0  0  0  0  0  0  0  0
    0.4080   -0.3234   -1.4173 O   0  0  0  0  0  0  0  0  0  0  0  0
    0.8053    0.6178   -2.3372 C   0  0  0  0  0  0  0  0  0  0  0  0
    2.1279    1.0382   -2.4920 C   0  0  0  0  0  0  0  0  0  0  0  0
    3.0956    0.3965   -1.7675 O   0  0  0  0  0  0  0  0  0  0  0  0
    4.4605    0.8306   -1.8182 C   0  0  0  0  0  0  0  0  0  0  0  0
    5.0889    0.5794   -3.1612 C   0  0  0  0  0  0  0  0  0  0  0  0
    5.5677    1.6399   -3.9541 C   0  0  0  0  0  0  0  0  0  0  0  0
    5.5419    2.8956   -3.3944 O   0  0  0  0  0  0  0  0  0  0  0  0
    5.7966    4.0110   -4.2397 C   0  0  0  0  0  0  0  0  0  0  0  0
    5.9464    1.3770   -5.2654 C   0  0  0  0  0  0  0  0  0  0  0  0
    5.8661    0.0849   -5.7952 C   0  0  0  0  0  0  0  0  0  0  0  0
    5.4527   -0.9643   -4.9933 C   0  0  0  0  0  0  0  0  0  0  0  0
    5.4164   -2.2065   -5.4940 F   0  0  0  0  0  0  0  0  0  0  0  0
    5.0719   -0.7222   -3.6835 C   0  0  0  0  0  0  0  0  0  0  0  0
    4.6568   -1.7445   -2.9196 F   0  0  0  0  0  0  0  0  0  0  0  0
    2.3847    2.0558   -3.4120 C   0  0  0  0  0  0  0  0  0  0  0  0
    1.4145    2.6166   -4.2456 C   0  0  0  0  0  0  0  0  0  0  0  0
    1.8108    3.6337   -5.1881 N   0  0  0  0  0  0  0  0  0  0  0  0
    1.2105    4.8925   -5.0892 C   0  0  0  0  0  0  0  0  0  0  0  0
    0.3171    5.1892   -4.2949 O   0  0  0  0  0  0  0  0  0  0  0  0
    1.7152    5.8917   -5.8955 N   0  0  0  0  0  0  0  0  0  0  0  0
    2.7534    5.6917   -6.7754 C   0  0  0  0  0  0  0  0  0  0  0  0
    3.3210    6.6491   -7.5757 C   0  0  0  0  0  0  0  0  0  0  0  0
    4.5962    6.0057   -8.5093 S   0  0  0  0  0  0  0  0  0  0  0  0
    4.3781    4.4151   -7.8700 C   0  0  0  0  0  0  0  0  0  0  0  0
    5.2439    3.3297   -8.3465 C   0  0  0  0  0  0  0  0  0  0  0  0
    6.2221    3.7276   -9.2134 O   0  0  0  0  0  0  0  0  0  0  0  0
    5.1794    2.1608   -8.0392 O   0  0  0  0  0  0  0  0  0  0  0  0
    3.3376    4.4083   -6.9300 C   0  0  0  0  0  0  0  0  0  0  0  0
    2.8277    3.2995   -6.1145 C   0  0  0  0  0  0  0  0  0  0  0  0
    3.2602    2.1614   -6.2407 O   0  0  0  0  0  0  0  0  0  0  0  0
    0.1157    2.1457   -4.1117 C   0  0  0  0  0  0  0  0  0  0  0  0
   -0.8527    2.6149   -4.9107 F   0  0  0  0  0  0  0  0  0  0  0  0
   -0.1893    1.1416   -3.1803 C   0  0  0  0  0  0  0  0  0  0  0  0
    0.4708   -0.8301    0.5749 H   0  0  0  0  0  0  0  0  0  0  0  0
    0.5402    0.9168    0.2601 H   0  0  0  0  0  0  0  0  0  0  0  0
    1.9647   -0.1399    0.0180 H   0  0  0  0  0  0  0  0  0  0  0  0
    4.5169    1.8731   -1.4869 H   0  0  0  0  0  0  0  0  0  0  0  0
    5.0177    0.2519   -1.0712 H   0  0  0  0  0  0  0  0  0  0  0  0
    6.8265    3.9936   -4.5978 H   0  0  0  0  0  0  0  0  0  0  0  0
    5.1054    4.0522   -5.0783 H   0  0  0  0  0  0  0  0  0  0  0  0
    5.6351    4.9291   -3.6657 H   0  0  0  0  0  0  0  0  0  0  0  0
    6.2367    2.1767   -5.9323 H   0  0  0  0  0  0  0  0  0  0  0  0
    6.0959   -0.0888   -6.8420 H   0  0  0  0  0  0  0  0  0  0  0  0
    3.3647    2.4717   -3.4927 H   0  0  0  0  0  0  0  0  0  0  0  0
    1.2917    6.8056   -5.7849 H   0  0  0  0  0  0  0  0  0  0  0  0
    3.0689    7.6965   -7.6736 H   0  0  0  0  0  0  0  0  0  0  0  0
    6.1793    4.6600   -9.4879 H   0  0  0  0  0  0  0  0  0  0  0  0
   -1.2090    0.7755   -3.1162 H   0  0  0  0  0  0  0  0  0  0  0  0
  1  2  1  0  0  0  0
  1 36  1  0  0  0  0
  1 37  1  0  0  0  0
  1 38  1  0  0  0  0
  2  3  1  0  0  0  0
  3  4  2  0  0  0  0
  3 35  1  0  0  0  0
  4  5  1  0  0  0  0
  4 17  1  0  0  0  0
  5  6  1  0  0  0  0
  6  7  1  0  0  0  0
  6 39  1  0  0  0  0
  6 40  1  0  0  0  0
  7  8  2  0  0  0  0
  7 15  1  0  0  0  0
  8  9  1  0  0  0  0
  8 11  1  0  0  0  0
  9 10  1  0  0  0  0
 10 41  1  0  0  0  0
 10 42  1  0  0  0  0
 10 43  1  0  0  0  0
 11 12  2  0  0  0  0
 11 44  1  0  0  0  0
 12 13  1  0  0  0  0
 12 45  1  0  0  0  0
 13 14  1  0  0  0  0
 13 15  2  0  0  0  0
 15 16  1  0  0  0  0
 17 18  2  0  0  0  0
 17 46  1  0  0  0  0
 18 19  1  0  0  0  0
 18 33  1  0  0  0  0
 19 20  1  0  0  0  0
 19 31  1  0  0  0  0
 20 21  2  0  0  0  0
 20 22  1  0  0  0  0
 22 23  1  0  0  0  0
 22 47  1  0  0  0  0
 23 24  2  0  0  0  0
 23 30  1  0  0  0  0
 24 25  1  0  0  0  0
 24 48  1  0  0  0  0
 25 26  1  0  0  0  0
 26 27  1  0  0  0  0
 26 30  2  0  0  0  0
 27 28  1  0  0  0  0
 27 29  2  0  0  0  0
 28 49  1  0  0  0  0
 30 31  1  0  0  0  0
 31 32  2  0  0  0  0
 33 34  1  0  0  0  0
 33 35  2  0  0  0  0
 35 50  1  0  0  0  0
M  END
>  <DRUGBANK_ID>
DB17083

>  <COMMON_NAME>
Linzagolix

>  <CAS_NUMBER>
935283-04-8

>  <UNII>
7CDW97HUEX

>  <SYNONYMS>
3-(5-((2,3-difluoro-6-methoxyphenyl)methoxy)-2-fluoro-4-methoxyphenyl)-2,4-dioxo-1,2,3,4-tetrahydrothieno(3,4-d)pyrimidine-5-carboxylic acid; Linzagolix; Thieno(3,4-d)pyrimidine-5-carboxylic acid, 3-(5-((2,3-difluoro-6-methoxyphenyl)methoxy)-2-fluoro-4-methoxyphenyl)-1,2,3,4-tetrahydro-2,4-dioxo-

$$$$
