
 OpenBabel10282417243D

 74 76  0  0  1  0  0  0  0  0999 V2000
    2.5272   -0.3831   -1.0763 H   0  0  0  0  0  0  0  0  0  0  0  0
    2.1416   -0.0454   -0.1046 C   0  0  1  0  0  0  0  0  0  0  0  0
    2.8662    1.2230    0.2254 C   0  0  0  0  0  0  0  0  0  0  0  0
    3.9363    1.0924    1.2837 C   0  0  0  0  0  0  0  0  0  0  0  0
    4.0958   -0.3811    1.2298 C   0  0  1  0  0  0  0  0  0  0  0  0
    4.7040   -0.5441    0.3236 H   0  0  0  0  0  0  0  0  0  0  0  0
    4.7570   -1.1037    2.3325 C   0  0  0  0  0  0  0  0  0  0  0  0
    4.6859   -2.5505    1.9696 C   0  0  0  0  0  0  0  0  0  0  0  0
    3.4270   -3.2543    1.5376 C   0  0  0  0  0  0  0  0  0  0  0  0
    2.7192   -2.3999    0.5129 C   0  0  0  0  0  0  0  0  0  0  0  0
    2.6548   -0.9552    1.0171 C   0  0  2  0  0  0  0  0  0  0  0  0
    1.8452   -0.8964    2.3495 C   0  0  0  0  0  0  0  0  0  0  0  0
    5.4408   -0.5962    3.3729 C   0  0  0  0  0  0  0  0  0  0  0  0
    6.2842   -1.4252    4.2169 C   0  0  0  0  0  0  0  0  0  0  0  0
    7.2972   -2.2272    3.8147 C   0  0  0  0  0  0  0  0  0  0  0  0
    8.0359   -3.0747    4.8191 C   0  0  0  0  0  0  0  0  0  0  0  0
    9.5518   -2.9294    4.6490 C   0  0  1  0  0  0  0  0  0  0  0  0
   10.2259   -3.8426    5.5077 O   0  0  0  0  0  0  0  0  0  0  0  0
    9.9796   -3.1788    3.2020 C   0  0  0  0  0  0  0  0  0  0  0  0
    9.3145   -2.1741    2.2645 C   0  0  0  0  0  0  0  0  0  0  0  0
    7.8359   -2.3546    2.4332 C   0  0  0  0  0  0  0  0  0  0  0  0
    7.3199   -3.0087    1.4075 C   0  0  0  0  0  0  0  0  0  0  0  0
    0.5870    0.1220   -0.1276 C   0  0  2  0  0  0  0  0  0  0  0  0
    0.0882   -0.3794   -1.4883 C   0  0  0  0  0  0  0  0  0  0  0  0
   -0.1054    1.5057    0.1875 C   0  0  0  0  0  0  0  0  0  0  0  0
    0.2676    2.4335    1.3978 C   0  0  0  0  0  0  0  0  0  0  0  0
    1.4156    3.4972    1.2355 C   0  0  3  0  0  0  0  0  0  0  0  0
    1.2177    4.2387    0.0334 O   0  0  0  0  0  0  0  0  0  0  0  0
    1.7519    4.3115    2.4952 C   0  0  0  0  0  0  0  0  0  0  0  0
    1.9970    3.4104    3.7233 C   0  0  0  0  0  0  0  0  0  0  0  0
    3.0538    5.0968    2.2181 C   0  0  0  0  0  0  0  0  0  0  0  0
    0.6616    5.1761    2.7609 O   0  0  0  0  0  0  0  0  0  0  0  0
    2.0958    1.5636    0.8423 H   0  0  0  0  0  0  0  0  0  0  0  0
    3.0740    1.9052   -0.6000 H   0  0  0  0  0  0  0  0  0  0  0  0
    3.5740    1.4093    2.2669 H   0  0  0  0  0  0  0  0  0  0  0  0
    4.8261    1.6916    1.0739 H   0  0  0  0  0  0  0  0  0  0  0  0
    5.2195   -2.5378    1.0145 H   0  0  0  0  0  0  0  0  0  0  0  0
    5.1149   -3.1679    2.7516 H   0  0  0  0  0  0  0  0  0  0  0  0
    3.7243   -4.2059    1.0809 H   0  0  0  0  0  0  0  0  0  0  0  0
    2.8115   -3.4825    2.4075 H   0  0  0  0  0  0  0  0  0  0  0  0
    3.2874   -2.4311   -0.4303 H   0  0  0  0  0  0  0  0  0  0  0  0
    1.7301   -2.8103    0.3002 H   0  0  0  0  0  0  0  0  0  0  0  0
    1.8031    0.1111    2.7666 H   0  0  0  0  0  0  0  0  0  0  0  0
    0.8254   -1.2678    2.2358 H   0  0  0  0  0  0  0  0  0  0  0  0
    2.2803   -1.5243    3.1328 H   0  0  0  0  0  0  0  0  0  0  0  0
    5.4162    0.4661    3.6152 H   0  0  0  0  0  0  0  0  0  0  0  0
    6.0295   -1.3535    5.2786 H   0  0  0  0  0  0  0  0  0  0  0  0
    7.7344   -4.1233    4.6827 H   0  0  0  0  0  0  0  0  0  0  0  0
    7.7597   -2.8344    5.8551 H   0  0  0  0  0  0  0  0  0  0  0  0
    9.8520   -1.9155    4.9353 H   0  0  0  0  0  0  0  0  0  0  0  0
    9.9295   -4.7400    5.2775 H   0  0  0  0  0  0  0  0  0  0  0  0
   11.0637   -3.1236    3.0918 H   0  0  0  0  0  0  0  0  0  0  0  0
    9.7022   -4.2092    2.9200 H   0  0  0  0  0  0  0  0  0  0  0  0
    9.6216   -1.1422    2.4262 H   0  0  0  0  0  0  0  0  0  0  0  0
    9.6085   -2.4455    1.2392 H   0  0  0  0  0  0  0  0  0  0  0  0
    6.5282   -3.7372    1.5299 H   0  0  0  0  0  0  0  0  0  0  0  0
    7.6803   -2.9025    0.3832 H   0  0  0  0  0  0  0  0  0  0  0  0
    0.1397   -0.5892    0.5703 H   0  0  0  0  0  0  0  0  0  0  0  0
    0.6808    0.0470   -2.3029 H   0  0  0  0  0  0  0  0  0  0  0  0
    0.1681   -1.4715   -1.5371 H   0  0  0  0  0  0  0  0  0  0  0  0
   -0.9597   -0.1116   -1.6455 H   0  0  0  0  0  0  0  0  0  0  0  0
   -0.1449    2.0994   -0.7272 H   0  0  0  0  0  0  0  0  0  0  0  0
   -1.1478    1.2173    0.3976 H   0  0  0  0  0  0  0  0  0  0  0  0
   -0.6341    3.0200    1.6090 H   0  0  0  0  0  0  0  0  0  0  0  0
    0.4245    1.7966    2.2736 H   0  0  0  0  0  0  0  0  0  0  0  0
    2.4173    3.1312    1.0885 H   0  0  0  0  0  0  0  0  0  0  0  0
    1.2868    3.5934   -0.6948 H   0  0  0  0  0  0  0  0  0  0  0  0
    2.8568    2.7472    3.5926 H   0  0  0  0  0  0  0  0  0  0  0  0
    2.1946    4.0136    4.6135 H   0  0  0  0  0  0  0  0  0  0  0  0
    1.1302    2.7895    3.9662 H   0  0  0  0  0  0  0  0  0  0  0  0
    2.9670    5.7077    1.3140 H   0  0  0  0  0  0  0  0  0  0  0  0
    3.3033    5.7599    3.0482 H   0  0  0  0  0  0  0  0  0  0  0  0
    3.9074    4.4161    2.0665 H   0  0  0  0  0  0  0  0  0  0  0  0
    0.9136    5.7523    3.4957 H   0  0  0  0  0  0  0  0  0  0  0  0
  2  3  1  0  0  0  0
  2 11  1  0  0  0  0
  2 23  1  0  0  0  0
  2  1  1  6  0  0  0
  3  4  1  0  0  0  0
  3 33  1  0  0  0  0
  3 34  1  0  0  0  0
  4 35  1  0  0  0  0
  4 36  1  0  0  0  0
  5  4  1  0  0  0  0
  5  6  1  6  0  0  0
  5  7  1  0  0  0  0
  7  8  1  0  0  0  0
  7 13  2  0  0  0  0
  8  9  1  0  0  0  0
  8 37  1  0  0  0  0
  8 38  1  0  0  0  0
  9 10  1  0  0  0  0
  9 39  1  0  0  0  0
  9 40  1  0  0  0  0
 10 41  1  0  0  0  0
 10 42  1  0  0  0  0
 11 10  1  0  0  0  0
 11  5  1  0  0  0  0
 11 12  1  1  0  0  0
 12 43  1  0  0  0  0
 12 44  1  0  0  0  0
 12 45  1  0  0  0  0
 13 14  1  0  0  0  0
 13 46  1  0  0  0  0
 14 15  2  0  0  0  0
 14 47  1  0  0  0  0
 15 16  1  0  0  0  0
 15 21  1  0  0  0  0
 16 48  1  0  0  0  0
 16 49  1  0  0  0  0
 17 16  1  0  0  0  0
 17 18  1  0  0  0  0
 17 19  1  0  0  0  0
 17 50  1  1  0  0  0
 18 51  1  0  0  0  0
 19 20  1  0  0  0  0
 19 52  1  0  0  0  0
 19 53  1  0  0  0  0
 20 21  1  0  0  0  0
 20 54  1  0  0  0  0
 20 55  1  0  0  0  0
 21 22  2  0  0  0  0
 22 56  1  0  0  0  0
 22 57  1  0  0  0  0
 23 58  1  1  0  0  0
 23 25  1  0  0  0  0
 23 24  1  0  0  0  0
 24 59  1  0  0  0  0
 24 60  1  0  0  0  0
 24 61  1  0  0  0  0
 25 26  1  0  0  0  0
 25 62  1  0  0  0  0
 25 63  1  0  0  0  0
 26 27  1  0  0  0  0
 26 64  1  0  0  0  0
 26 65  1  0  0  0  0
 27 28  1  0  0  0  0
 27 29  1  0  0  0  0
 27 66  1  0  0  0  0
 28 67  1  0  0  0  0
 29 30  1  0  0  0  0
 29 31  1  0  0  0  0
 29 32  1  0  0  0  0
 30 68  1  0  0  0  0
 30 69  1  0  0  0  0
 30 70  1  0  0  0  0
 31 71  1  0  0  0  0
 31 72  1  0  0  0  0
 31 73  1  0  0  0  0
 32 74  1  0  0  0  0
M  END
>  <DRUGBANK_ID>
DB18029

>  <COMMON_NAME>
24,25-Dihydroxycholecalciferol

>  <CAS_NUMBER>
40013-87-4

>  <UNII>
0AXX2V8L5Z

>  <SYNONYMS>
2,3-heptanediol, 2-methyl-6-((1r,3as,4e,7ar)-octahydro-4-((2z)-2-((5s)-5-hydroxy-2-methylenecyclohexylidene)ethylidene)-7a-methyl-1h-inden-1-yl)-, (6r)-; 24-hydroxycalcidiol; 24,25-dihydroxyvitamin d 3; 24,25-dihydroxyvitamin d3; Secalciferol, (24rs)-

$$$$
