
 OpenBabel10282417163D

 28 29  0  0  0  0  0  0  0  0999 V2000
    1.5088   -0.0859    0.0462 C   0  0  0  0  0  0  0  0  0  0  0  0
    0.7189   -1.2016   -0.1150 C   0  0  0  0  0  0  0  0  0  0  0  0
    0.9151    1.1822    0.0440 C   0  0  0  0  0  0  0  0  0  0  0  0
   -0.6239   -1.0150   -0.3738 C   0  0  0  0  0  0  0  0  0  0  0  0
   -0.4837    1.3262    0.0462 C   0  0  0  0  0  0  0  0  0  0  0  0
   -1.9186   -3.7903    0.8840 C   0  0  0  0  0  0  0  0  0  0  0  0
   -2.5622   -2.5459    0.9791 C   0  0  0  0  0  0  0  0  0  0  0  0
   -3.0858   -4.2620   -1.1615 C   0  0  0  0  0  0  0  0  0  0  0  0
   -2.2450   -4.6943   -0.1296 C   0  0  0  0  0  0  0  0  0  0  0  0
   -1.2632    0.1929   -0.1457 C   0  0  0  0  0  0  0  0  0  0  0  0
   -3.3855   -2.1108   -0.0698 C   0  0  0  0  0  0  0  0  0  0  0  0
   -3.6812   -2.9941   -1.1176 C   0  0  0  0  0  0  0  0  0  0  0  0
   -3.7359   -0.6719   -0.2221 C   0  0  0  0  0  0  0  0  0  0  0  0
   -1.5645   -5.9163   -0.2209 N   0  0  0  0  0  0  0  0  0  0  0  0
   -4.5001   -2.6644   -2.1648 O   0  0  0  0  0  0  0  0  0  0  0  0
   -4.8799   -0.3727   -0.5235 O   0  0  0  0  0  0  0  0  0  0  0  0
   -2.6926    0.2939   -0.1554 O   0  0  0  0  0  0  0  0  0  0  0  0
    2.5842   -0.2143    0.1102 H   0  0  0  0  0  0  0  0  0  0  0  0
    1.1183   -2.2114   -0.1205 H   0  0  0  0  0  0  0  0  0  0  0  0
    1.5575    2.0578    0.0308 H   0  0  0  0  0  0  0  0  0  0  0  0
   -1.1406   -1.8707   -0.7635 H   0  0  0  0  0  0  0  0  0  0  0  0
   -0.9272    2.3132    0.1433 H   0  0  0  0  0  0  0  0  0  0  0  0
   -1.0900   -4.0071    1.5569 H   0  0  0  0  0  0  0  0  0  0  0  0
   -2.2403   -1.8479    1.7500 H   0  0  0  0  0  0  0  0  0  0  0  0
   -3.2541   -4.8952   -2.0299 H   0  0  0  0  0  0  0  0  0  0  0  0
   -2.1090   -6.6348   -0.6934 H   0  0  0  0  0  0  0  0  0  0  0  0
   -1.2225   -6.2544    0.6754 H   0  0  0  0  0  0  0  0  0  0  0  0
   -5.0072   -1.8578   -1.9319 H   0  0  0  0  0  0  0  0  0  0  0  0
  1 18  1  0  0  0  0
  2  1  2  0  0  0  0
  2 19  1  0  0  0  0
  3  1  1  0  0  0  0
  3 20  1  0  0  0  0
  4  2  1  0  0  0  0
  4 21  1  0  0  0  0
  5  3  2  0  0  0  0
  5 22  1  0  0  0  0
  6 23  1  0  0  0  0
  7  6  2  0  0  0  0
  7 24  1  0  0  0  0
  8 25  1  0  0  0  0
  9  6  1  0  0  0  0
  9  8  2  0  0  0  0
 10  4  2  0  0  0  0
 10  5  1  0  0  0  0
 11  7  1  0  0  0  0
 12  8  1  0  0  0  0
 12 11  2  0  0  0  0
 13 11  1  0  0  0  0
 14  9  1  0  0  0  0
 14 26  1  0  0  0  0
 14 27  1  0  0  0  0
 15 12  1  0  0  0  0
 15 28  1  0  0  0  0
 16 13  2  0  0  0  0
 17 10  1  0  0  0  0
 17 13  1  0  0  0  0
M  END
>  <DRUGBANK_ID>
DB06807

>  <COMMON_NAME>
Phenyl aminosalicylate

>  <CAS_NUMBER>
133-11-9

>  <UNII>
52936SIP7V

>  <SYNONYMS>
Fenamisal; Fenamisalum; p-Aminosalol; Phenyl 4-aminosalicylate; Phenyl aminosalicylate; Phenyl PAS

$$$$
