BGL
 OpenBabel10282417133D

 48 48  0  0  0  0  0  0  0  0999 V2000
    1.6319   -0.1626    0.0810 C   0  0  1  0  0  0  0  0  0  0  0  0
    2.9959   -0.4501    0.3712 O   0  0  0  0  0  0  0  0  0  0  0  0
    0.6884   -1.3782    0.3521 C   0  0  2  0  0  0  0  0  0  0  0  0
    0.8806   -2.4705   -0.5940 O   0  0  0  0  0  0  0  0  0  0  0  0
   -0.8255   -1.0328    0.4859 C   0  0  1  0  0  0  0  0  0  0  0  0
   -1.6808   -1.9750    1.1304 O   0  0  0  0  0  0  0  0  0  0  0  0
   -1.1415    0.4825    0.7845 C   0  0  2  0  0  0  0  0  0  0  0  0
   -2.4044    0.8976    0.2233 O   0  0  0  0  0  0  0  0  0  0  0  0
   -0.0219    1.5033    0.4308 C   0  0  2  0  0  0  0  0  0  0  0  0
    1.2709    1.0146    0.8039 O   0  0  0  0  0  0  0  0  0  0  0  0
   -0.3024    2.8822    1.0565 C   0  0  0  0  0  0  0  0  0  0  0  0
    0.6719    3.8410    0.6343 O   0  0  0  0  0  0  0  0  0  0  0  0
    0.8264   -2.2585   -2.0161 C   0  0  0  0  0  0  0  0  0  0  0  0
   -0.5310   -1.8888   -2.6265 C   0  0  0  0  0  0  0  0  0  0  0  0
   -0.9550   -0.4461   -2.4262 C   0  0  0  0  0  0  0  0  0  0  0  0
    0.0023    0.6185   -2.8661 C   0  0  0  0  0  0  0  0  0  0  0  0
   -0.2067    0.9795   -4.2765 C   0  0  0  0  0  0  0  0  0  0  0  0
   -1.6416    1.5100   -4.3852 C   0  0  0  0  0  0  0  0  0  0  0  0
   -1.9636    2.6971   -3.4435 C   0  0  0  0  0  0  0  0  0  0  0  0
   -0.9635    3.8241   -3.6325 C   0  0  0  0  0  0  0  0  0  0  0  0
    1.6864    0.0677   -0.9721 H   0  0  0  0  0  0  0  0  0  0  0  0
    0.9906   -1.7988    1.3171 H   0  0  0  0  0  0  0  0  0  0  0  0
   -1.2402   -1.3555   -0.4433 H   0  0  0  0  0  0  0  0  0  0  0  0
   -1.2995    0.5456    1.8598 H   0  0  0  0  0  0  0  0  0  0  0  0
    0.0349    1.7688   -0.6119 H   0  0  0  0  0  0  0  0  0  0  0  0
    3.0508   -0.5881    1.3294 H   0  0  0  0  0  0  0  0  0  0  0  0
   -1.6577   -1.8967    2.1171 H   0  0  0  0  0  0  0  0  0  0  0  0
   -2.3331    1.0791   -0.7316 H   0  0  0  0  0  0  0  0  0  0  0  0
   -1.2750    3.2635    0.7234 H   0  0  0  0  0  0  0  0  0  0  0  0
   -0.2842    2.8311    2.1452 H   0  0  0  0  0  0  0  0  0  0  0  0
    1.5454    3.4175    0.7248 H   0  0  0  0  0  0  0  0  0  0  0  0
    1.6178   -1.5827   -2.3483 H   0  0  0  0  0  0  0  0  0  0  0  0
    1.0908   -3.2265   -2.4603 H   0  0  0  0  0  0  0  0  0  0  0  0
   -0.5188   -2.0618   -3.7090 H   0  0  0  0  0  0  0  0  0  0  0  0
   -1.3028   -2.5587   -2.2225 H   0  0  0  0  0  0  0  0  0  0  0  0
   -2.0223   -0.3510   -2.6512 H   0  0  0  0  0  0  0  0  0  0  0  0
   -0.9714   -0.1173   -1.4284 H   0  0  0  0  0  0  0  0  0  0  0  0
   -0.2084    1.5166   -2.3001 H   0  0  0  0  0  0  0  0  0  0  0  0
    1.0431    0.4164   -2.6529 H   0  0  0  0  0  0  0  0  0  0  0  0
    0.5462    1.7338   -4.5204 H   0  0  0  0  0  0  0  0  0  0  0  0
   -0.0079    0.0895   -4.8764 H   0  0  0  0  0  0  0  0  0  0  0  0
   -1.8180    1.7760   -5.4229 H   0  0  0  0  0  0  0  0  0  0  0  0
   -2.3641    0.7166   -4.1677 H   0  0  0  0  0  0  0  0  0  0  0  0
   -2.9821    3.0389   -3.6454 H   0  0  0  0  0  0  0  0  0  0  0  0
   -1.9824    2.4217   -2.3783 H   0  0  0  0  0  0  0  0  0  0  0  0
   -0.9048    4.0788   -4.6928 H   0  0  0  0  0  0  0  0  0  0  0  0
   -1.2535    4.7068   -3.0597 H   0  0  0  0  0  0  0  0  0  0  0  0
    0.0401    3.5413   -3.2941 H   0  0  0  0  0  0  0  0  0  0  0  0
  1  2  1  0  0  0  0
  1  3  1  0  0  0  0
  1 10  1  0  0  0  0
  1 21  1  6  0  0  0
  2 26  1  0  0  0  0
  3  4  1  0  0  0  0
  3  5  1  0  0  0  0
  3 22  1  1  0  0  0
  4 13  1  0  0  0  0
  5  6  1  0  0  0  0
  5  7  1  0  0  0  0
  5 23  1  6  0  0  0
  6 27  1  0  0  0  0
  7  8  1  0  0  0  0
  7  9  1  0  0  0  0
  7 24  1  1  0  0  0
  8 28  1  0  0  0  0
  9 10  1  0  0  0  0
  9 11  1  0  0  0  0
  9 25  1  6  0  0  0
 11 12  1  0  0  0  0
 11 29  1  0  0  0  0
 11 30  1  0  0  0  0
 12 31  1  0  0  0  0
 13 14  1  0  0  0  0
 13 32  1  0  0  0  0
 13 33  1  0  0  0  0
 14 15  1  0  0  0  0
 14 34  1  0  0  0  0
 14 35  1  0  0  0  0
 15 16  1  0  0  0  0
 15 36  1  0  0  0  0
 15 37  1  0  0  0  0
 16 17  1  0  0  0  0
 16 38  1  0  0  0  0
 16 39  1  0  0  0  0
 17 18  1  0  0  0  0
 17 40  1  0  0  0  0
 17 41  1  0  0  0  0
 18 19  1  0  0  0  0
 18 42  1  0  0  0  0
 18 43  1  0  0  0  0
 19 20  1  0  0  0  0
 19 44  1  0  0  0  0
 19 45  1  0  0  0  0
 20 46  1  0  0  0  0
 20 47  1  0  0  0  0
 20 48  1  0  0  0  0
M  END
>  <DRUGBANK_ID>
DB03152

>  <SECONDARY_ACCESSION_NUMBERS>
EXPT00687

>  <COMMON_NAME>
B-2-Octylglucoside

$$$$
