W35
 OpenBabel10282417173D

 45 47  0  0  0  0  0  0  0  0999 V2000
   -1.1695    0.3813   -0.3727 O   0  0  0  0  0  0  0  0  0  0  0  0
    0.0778    0.9267   -0.1519 N   0  0  0  0  0  0  0  0  0  0  0  0
    0.8861   -0.1293   -0.0321 C   0  0  0  0  0  0  0  0  0  0  0  0
    2.3406    0.0411    0.0165 C   0  0  0  0  0  0  0  0  0  0  0  0
    0.1764   -1.3422   -0.0313 C   0  0  0  0  0  0  0  0  0  0  0  0
   -1.1212   -0.9710   -0.2022 C   0  0  0  0  0  0  0  0  0  0  0  0
   -2.3839   -1.7433   -0.1823 C   0  0  0  0  0  0  0  0  0  0  0  0
   -3.1756   -1.3987    1.0523 C   0  0  0  0  0  0  0  0  0  0  0  0
   -3.5097    0.0763    0.9965 C   0  0  0  0  0  0  0  0  0  0  0  0
   -4.6318    0.4435    0.0252 C   0  0  0  0  0  0  0  0  0  0  0  0
   -5.9148   -0.3875    0.1402 C   0  0  0  0  0  0  0  0  0  0  0  0
   -6.8052   -0.1198    1.2520 O   0  0  0  0  0  0  0  0  0  0  0  0
   -6.3340   -0.1978    2.5320 C   0  0  0  0  0  0  0  0  0  0  0  0
   -5.3416    0.6384    3.0115 C   0  0  0  0  0  0  0  0  0  0  0  0
   -4.6256    0.3321    4.1817 C   0  0  0  0  0  0  0  0  0  0  0  0
   -5.2198   -0.4859    5.1087 C   0  0  0  0  0  0  0  0  0  0  0  0
   -6.4693   -1.0308    4.7994 C   0  0  0  0  0  0  0  0  0  0  0  0
   -6.9737   -0.9733    3.4812 C   0  0  0  0  0  0  0  0  0  0  0  0
   -4.5873   -0.7664    6.4135 C   0  0  0  0  0  0  0  0  0  0  0  0
   -4.5604   -1.9094    6.9864 N   0  0  0  0  0  0  0  0  0  0  0  0
   -3.9983   -1.6167    8.3126 C   0  0  0  0  0  0  0  0  0  0  0  0
   -3.4558   -0.2090    8.2130 C   0  0  0  0  0  0  0  0  0  0  0  0
   -4.0459    0.3209    7.0296 O   0  0  0  0  0  0  0  0  0  0  0  0
    2.6741    0.5898   -0.8688 H   0  0  0  0  0  0  0  0  0  0  0  0
    2.6475    0.5758    0.9176 H   0  0  0  0  0  0  0  0  0  0  0  0
    2.8170   -0.9432    0.0083 H   0  0  0  0  0  0  0  0  0  0  0  0
    0.5294   -2.3529    0.0610 H   0  0  0  0  0  0  0  0  0  0  0  0
   -2.9766   -1.5473   -1.0792 H   0  0  0  0  0  0  0  0  0  0  0  0
   -2.1673   -2.8139   -0.1555 H   0  0  0  0  0  0  0  0  0  0  0  0
   -4.0765   -2.0181    1.1472 H   0  0  0  0  0  0  0  0  0  0  0  0
   -2.6127   -1.6129    1.9729 H   0  0  0  0  0  0  0  0  0  0  0  0
   -3.5710    0.3130    2.0307 H   0  0  0  0  0  0  0  0  0  0  0  0
   -2.7135    0.7898    0.8218 H   0  0  0  0  0  0  0  0  0  0  0  0
   -4.8679    1.5097    0.1099 H   0  0  0  0  0  0  0  0  0  0  0  0
   -4.2267    0.3242   -0.9923 H   0  0  0  0  0  0  0  0  0  0  0  0
   -6.4998   -0.1587   -0.7646 H   0  0  0  0  0  0  0  0  0  0  0  0
   -5.7179   -1.4631    0.0437 H   0  0  0  0  0  0  0  0  0  0  0  0
   -4.9963    1.4563    2.3872 H   0  0  0  0  0  0  0  0  0  0  0  0
   -3.6162    0.7192    4.3257 H   0  0  0  0  0  0  0  0  0  0  0  0
   -7.0579   -1.4858    5.5875 H   0  0  0  0  0  0  0  0  0  0  0  0
   -7.8913   -1.4932    3.2281 H   0  0  0  0  0  0  0  0  0  0  0  0
   -3.2238   -2.3326    8.6022 H   0  0  0  0  0  0  0  0  0  0  0  0
   -4.8086   -1.6756    9.0466 H   0  0  0  0  0  0  0  0  0  0  0  0
   -3.7292    0.3918    9.0887 H   0  0  0  0  0  0  0  0  0  0  0  0
   -2.3649   -0.1928    8.1117 H   0  0  0  0  0  0  0  0  0  0  0  0
  1  2  1  0  0  0  0
  1  6  1  0  0  0  0
  2  3  2  0  0  0  0
  3  4  1  0  0  0  0
  3  5  1  0  0  0  0
  4 24  1  0  0  0  0
  4 25  1  0  0  0  0
  4 26  1  0  0  0  0
  5  6  2  0  0  0  0
  5 27  1  0  0  0  0
  6  7  1  0  0  0  0
  7  8  1  0  0  0  0
  7 28  1  0  0  0  0
  7 29  1  0  0  0  0
  8  9  1  0  0  0  0
  8 30  1  0  0  0  0
  8 31  1  0  0  0  0
  9 10  1  0  0  0  0
  9 32  1  0  0  0  0
  9 33  1  0  0  0  0
 10 11  1  0  0  0  0
 10 34  1  0  0  0  0
 10 35  1  0  0  0  0
 11 12  1  0  0  0  0
 11 36  1  0  0  0  0
 11 37  1  0  0  0  0
 12 13  1  0  0  0  0
 13 14  2  0  0  0  0
 13 18  1  0  0  0  0
 14 15  1  0  0  0  0
 14 38  1  0  0  0  0
 15 16  2  0  0  0  0
 15 39  1  0  0  0  0
 16 17  1  0  0  0  0
 16 19  1  0  0  0  0
 17 18  2  0  0  0  0
 17 40  1  0  0  0  0
 18 41  1  0  0  0  0
 19 20  2  0  0  0  0
 19 23  1  0  0  0  0
 20 21  1  0  0  0  0
 21 22  1  0  0  0  0
 21 42  1  0  0  0  0
 21 43  1  0  0  0  0
 22 23  1  0  0  0  0
 22 44  1  0  0  0  0
 22 45  1  0  0  0  0
M  END
>  <DRUGBANK_ID>
DB08720

>  <COMMON_NAME>
5-(5-(4-(4,5-dihydro-2-oxazoly)phenoxy)pentyl)-3-methyl osoxazole

>  <UNII>
APD6GOX5WK

$$$$
