
 OpenBabel10282417223D

 30 31  0  0  0  0  0  0  0  0999 V2000
    1.8561   -0.5681   -0.1507 C   0  0  0  0  0  0  0  0  0  0  0  0
    2.1902   -1.3049    1.0572 C   0  0  0  0  0  0  0  0  0  0  0  0
    2.4107   -1.2618   -1.2196 C   0  0  0  0  0  0  0  0  0  0  0  0
    1.1935    0.6366    0.0123 C   0  0  0  0  0  0  0  0  0  0  0  0
    0.4454   -0.9632    1.1971 C   0  0  0  0  0  0  0  0  0  0  0  0
    3.7933   -1.9911    1.1146 C   0  0  0  0  0  0  0  0  0  0  0  0
    3.6490   -0.7143   -1.2892 C   0  0  0  0  0  0  0  0  0  0  0  0
    0.0629    0.3392    0.7529 C   0  0  0  0  0  0  0  0  0  0  0  0
    1.6112    2.0507    0.2911 C   0  0  0  0  0  0  0  0  0  0  0  0
    4.9172   -1.3155    0.2003 C   0  0  0  0  0  0  0  0  0  0  0  0
    5.2002   -3.1613    0.7057 C   0  0  0  0  0  0  0  0  0  0  0  0
    4.7230   -1.5895   -1.1096 C   0  0  0  0  0  0  0  0  0  0  0  0
    3.9658    0.6810   -0.6247 C   0  0  0  0  0  0  0  0  0  0  0  0
    3.3115    1.3931   -1.7611 C   0  0  0  0  0  0  0  0  0  0  0  0
    2.2292   -2.3719   -1.0442 H   0  0  0  0  0  0  0  0  0  0  0  0
   -0.4357   -1.4558    0.6283 H   0  0  0  0  0  0  0  0  0  0  0  0
   -0.7513    1.0012    0.2947 H   0  0  0  0  0  0  0  0  0  0  0  0
    1.4954    2.7303   -0.5583 H   0  0  0  0  0  0  0  0  0  0  0  0
    1.8007    2.5158    1.2661 H   0  0  0  0  0  0  0  0  0  0  0  0
    2.6240    1.8571    0.2661 H   0  0  0  0  0  0  0  0  0  0  0  0
    5.6901   -0.5547    0.4286 H   0  0  0  0  0  0  0  0  0  0  0  0
    5.5373   -3.8886    1.4579 H   0  0  0  0  0  0  0  0  0  0  0  0
    5.3624   -3.6222   -0.3464 H   0  0  0  0  0  0  0  0  0  0  0  0
    6.3403   -2.7222    0.5804 H   0  0  0  0  0  0  0  0  0  0  0  0
    4.2586   -2.5783   -1.3117 H   0  0  0  0  0  0  0  0  0  0  0  0
    3.7132    0.6817    0.5103 H   0  0  0  0  0  0  0  0  0  0  0  0
    4.9722    1.0700   -0.4590 H   0  0  0  0  0  0  0  0  0  0  0  0
    2.2477    1.1459   -1.9001 H   0  0  0  0  0  0  0  0  0  0  0  0
    3.4019    2.4568   -1.6568 H   0  0  0  0  0  0  0  0  0  0  0  0
    3.7425    0.9862   -2.6683 H   0  0  0  0  0  0  0  0  0  0  0  0
  1  2  1  0  0  0  0
  1  3  1  0  0  0  0
  1  4  2  0  0  0  0
  2  5  1  0  0  0  0
  2  6  2  0  0  0  0
  3  7  2  0  0  0  0
  3 15  1  0  0  0  0
  4  8  1  0  0  0  0
  4  9  1  0  0  0  0
  5  8  2  0  0  0  0
  5 16  1  0  0  0  0
  6 10  1  0  0  0  0
  6 11  1  0  0  0  0
  7 12  1  0  0  0  0
  7 13  1  0  0  0  0
  8 17  1  0  0  0  0
  9 18  1  0  0  0  0
  9 19  1  0  0  0  0
  9 20  1  0  0  0  0
 10 12  2  0  0  0  0
 10 21  1  0  0  0  0
 11 22  1  0  0  0  0
 11 23  1  0  0  0  0
 11 24  1  0  0  0  0
 12 25  1  0  0  0  0
 13 14  1  0  0  0  0
 13 26  1  0  0  0  0
 13 27  1  0  0  0  0
 14 28  1  0  0  0  0
 14 29  1  0  0  0  0
 14 30  1  0  0  0  0
M  END
>  <DRUGBANK_ID>
DB15931

>  <COMMON_NAME>
Chamazulene

>  <CAS_NUMBER>
529-05-5

>  <UNII>
Z439UH6E5F

>  <SYNONYMS>
Camazulene; Chamazulen; Dimethulene

$$$$
