
 OpenBabel10282417163D

 30 32  0  0  0  0  0  0  0  0999 V2000
   -0.9565    0.0131   -0.0051 C   0  0  0  0  0  0  0  0  0  0  0  0
   -0.2323    1.2985   -0.0026 C   0  0  0  0  0  0  0  0  0  0  0  0
    1.1023    1.3272    0.0210 C   0  0  0  0  0  0  0  0  0  0  0  0
    1.8073    0.0261    0.0876 C   0  0  0  0  0  0  0  0  0  0  0  0
    1.1953   -1.1262    0.0438 N   0  0  0  0  0  0  0  0  0  0  0  0
   -0.1697   -1.1085   -0.0309 N   0  0  0  0  0  0  0  0  0  0  0  0
   -2.1802   -0.0160   -0.0011 O   0  0  0  0  0  0  0  0  0  0  0  0
    3.5880   -0.0259    0.1841 S   0  0  0  0  0  0  0  0  0  0  0  0
    3.9638   -0.4827    1.5091 O   0  0  0  0  0  0  0  0  0  0  0  0
    4.0228   -0.7006   -1.0214 O   0  0  0  0  0  0  0  0  0  0  0  0
    3.9155    2.6538    1.0080 O   0  0  0  0  0  0  0  0  0  0  0  0
    4.2126    1.6697    0.0629 C   0  0  0  0  0  0  0  0  0  0  0  0
    5.0342    2.2502   -0.9037 C   0  0  0  0  0  0  0  0  0  0  0  0
    5.2474    3.6050   -0.5350 C   0  0  0  0  0  0  0  0  0  0  0  0
    4.5460    3.8125    0.6408 C   0  0  0  0  0  0  0  0  0  0  0  0
    5.9787    4.6636   -1.1017 C   0  0  0  0  0  0  0  0  0  0  0  0
    5.9772    5.9010   -0.4598 C   0  0  0  0  0  0  0  0  0  0  0  0
    5.2633    6.0928    0.7235 C   0  0  0  0  0  0  0  0  0  0  0  0
    4.5227    5.0447    1.3045 C   0  0  0  0  0  0  0  0  0  0  0  0
    5.6193    1.6169   -2.1089 C   0  0  0  0  0  0  0  0  0  0  0  0
    6.8731    7.1972   -1.1541 Cl  0  0  0  0  0  0  0  0  0  0  0  0
   -0.8339    2.1972   -0.0335 H   0  0  0  0  0  0  0  0  0  0  0  0
    1.6445    2.2590   -0.0075 H   0  0  0  0  0  0  0  0  0  0  0  0
   -0.6361   -2.0112   -0.0510 H   0  0  0  0  0  0  0  0  0  0  0  0
    6.5363    4.5111   -2.0205 H   0  0  0  0  0  0  0  0  0  0  0  0
    5.2845    7.0696    1.2046 H   0  0  0  0  0  0  0  0  0  0  0  0
    3.9704    5.1966    2.2255 H   0  0  0  0  0  0  0  0  0  0  0  0
    5.2753    2.1430   -3.0038 H   0  0  0  0  0  0  0  0  0  0  0  0
    6.7103    1.6620   -2.0570 H   0  0  0  0  0  0  0  0  0  0  0  0
    5.3510    0.5731   -2.2307 H   0  0  0  0  0  0  0  0  0  0  0  0
  1  2  1  0  0  0  0
  1  6  1  0  0  0  0
  1  7  2  0  0  0  0
  2  3  2  0  0  0  0
  2 22  1  0  0  0  0
  3  4  1  0  0  0  0
  3 23  1  0  0  0  0
  4  5  2  0  0  0  0
  4  8  1  0  0  0  0
  5  6  1  0  0  0  0
  6 24  1  0  0  0  0
  8  9  2  0  0  0  0
  8 10  2  0  0  0  0
  8 12  1  0  0  0  0
 11 12  1  0  0  0  0
 11 15  1  0  0  0  0
 12 13  2  0  0  0  0
 13 14  1  0  0  0  0
 13 20  1  0  0  0  0
 14 15  1  0  0  0  0
 16 17  1  0  0  0  0
 16 14  2  0  0  0  0
 16 25  1  0  0  0  0
 17 18  2  0  0  0  0
 17 21  1  0  0  0  0
 18 19  1  0  0  0  0
 18 26  1  0  0  0  0
 19 15  2  0  0  0  0
 19 27  1  0  0  0  0
 20 28  1  0  0  0  0
 20 29  1  0  0  0  0
 20 30  1  0  0  0  0
M  END
>  <DRUGBANK_ID>
DB07187

>  <COMMON_NAME>
CP-744809

>  <CAS_NUMBER>
463976-07-0

>  <UNII>
U63F8E95J1

$$$$
