
 OpenBabel10282417203D

 86 93  0  0  0  0  0  0  0  0999 V2000
    1.6334   -1.8725   -0.0854 C   0  0  0  0  0  0  0  0  0  0  0  0
    2.7135   -1.0364   -0.0113 C   0  0  0  0  0  0  0  0  0  0  0  0
    2.5806    0.3510   -0.2250 C   0  0  0  0  0  0  0  0  0  0  0  0
    1.3716    0.8293   -0.7774 C   0  0  0  0  0  0  0  0  0  0  0  0
    0.8617    2.0860   -1.0068 N   0  0  0  0  0  0  0  0  0  0  0  0
   -0.5467    2.0143   -1.1565 C   0  0  0  0  0  0  0  0  0  0  0  0
   -0.9550    0.6792   -1.1718 C   0  0  0  0  0  0  0  0  0  0  0  0
    0.4171   -1.2970   -0.3439 C   0  0  0  0  0  0  0  0  0  0  0  0
    0.2814   -0.0128   -0.9034 C   0  0  0  0  0  0  0  0  0  0  0  0
   -2.2978   -0.1349   -1.0965 C   0  0  0  0  0  0  0  0  0  0  0  0
   -0.8084   -2.0586   -0.1756 C   0  0  2  0  0  0  0  0  0  0  0  0
   -2.1146   -1.7201   -0.7371 C   0  0  2  0  0  0  0  0  0  0  0  0
   -2.1416   -3.1755   -1.6754 N   0  0  0  0  0  0  0  0  0  0  0  0
   -2.9877   -4.0265   -0.8535 C   0  0  0  0  0  0  0  0  0  0  0  0
   -2.5102   -3.9565    0.6725 C   0  0  1  0  0  0  0  0  0  0  0  0
   -1.0657   -3.2968    0.8029 C   0  0  0  0  0  0  0  0  0  0  0  0
   -3.7040   -3.2170    1.3344 C   0  0  0  0  0  0  0  0  0  0  0  0
   -3.5744   -2.4171    2.5126 N   0  0  0  0  0  0  0  0  0  0  0  0
   -0.7690   -3.9815   -1.8925 C   0  0  0  0  0  0  0  0  0  0  0  0
   -2.6935   -1.7329    0.1964 H   0  0  0  0  0  0  0  0  0  0  0  0
   -4.7524   -3.3912    0.6983 O   0  0  0  0  0  0  0  0  0  0  0  0
   -0.5400   -2.1812   -1.2116 H   0  0  0  0  0  0  0  0  0  0  0  0
   -4.4658   -1.0137    3.0223 C   0  0  1  0  0  0  0  0  0  0  0  0
   -4.3416    0.8770    3.5098 C   0  0  0  0  0  0  0  0  0  0  0  0
   -3.4083   -0.4012    2.3964 O   0  0  0  0  0  0  0  0  0  0  0  0
   -2.7683    0.1957    3.5404 C   0  0  2  0  0  0  0  0  0  0  0  0
   -3.0039    1.4181    3.2017 N   0  0  0  0  0  0  0  0  0  0  0  0
   -2.3440    1.5131    1.8437 C   0  0  2  0  0  0  0  0  0  0  0  0
   -0.9854    0.1530    1.7362 C   0  0  0  0  0  0  0  0  0  0  0  0
   -1.3868   -0.2543    3.5210 C   0  0  1  0  0  0  0  0  0  0  0  0
   -0.9540   -1.1070    2.7674 N   0  0  0  0  0  0  0  0  0  0  0  0
   -0.0811   -1.7675    4.2433 C   0  0  0  0  0  0  0  0  0  0  0  0
    0.1202   -0.2935    5.0789 C   0  0  0  0  0  0  0  0  0  0  0  0
   -0.0657    0.4241    3.8688 C   0  0  0  0  0  0  0  0  0  0  0  0
   -3.1280   -0.2788    4.8975 O   0  0  0  0  0  0  0  0  0  0  0  0
   -1.8269   -1.1215    3.9814 H   0  0  0  0  0  0  0  0  0  0  0  0
   -4.7236    1.4783    4.5446 O   0  0  0  0  0  0  0  0  0  0  0  0
    0.1378    0.4412    1.4284 O   0  0  0  0  0  0  0  0  0  0  0  0
   -2.1856    3.0116    1.3366 C   0  0  0  0  0  0  0  0  0  0  0  0
   -0.9381    3.7030    1.8087 C   0  0  0  0  0  0  0  0  0  0  0  0
   -5.7698   -1.3503    2.2800 C   0  0  0  0  0  0  0  0  0  0  0  0
   -5.6717   -0.9755    0.7741 C   0  0  0  0  0  0  0  0  0  0  0  0
   -6.2400   -2.8787    2.5642 C   0  0  0  0  0  0  0  0  0  0  0  0
    0.3123    3.1480    1.6143 C   0  0  0  0  0  0  0  0  0  0  0  0
    1.5242    3.5561    2.1215 C   0  0  0  0  0  0  0  0  0  0  0  0
   -0.9421    4.8087    2.6128 C   0  0  0  0  0  0  0  0  0  0  0  0
    1.4485    4.4755    3.1165 C   0  0  0  0  0  0  0  0  0  0  0  0
    0.1963    5.0380    3.4051 C   0  0  0  0  0  0  0  0  0  0  0  0
    1.6767   -2.9392    0.0913 H   0  0  0  0  0  0  0  0  0  0  0  0
    3.6569   -1.4823    0.2661 H   0  0  0  0  0  0  0  0  0  0  0  0
    3.3795    1.0111    0.0845 H   0  0  0  0  0  0  0  0  0  0  0  0
    1.3204    2.9147   -0.6418 H   0  0  0  0  0  0  0  0  0  0  0  0
   -1.0268    2.9807   -1.0518 H   0  0  0  0  0  0  0  0  0  0  0  0
   -2.9863    0.0315   -1.9211 H   0  0  0  0  0  0  0  0  0  0  0  0
   -2.9206    0.2689   -0.2737 H   0  0  0  0  0  0  0  0  0  0  0  0
   -3.3888   -5.0124   -1.1627 H   0  0  0  0  0  0  0  0  0  0  0  0
   -3.8790   -3.4515   -1.1203 H   0  0  0  0  0  0  0  0  0  0  0  0
   -2.4775   -4.9743    1.0897 H   0  0  0  0  0  0  0  0  0  0  0  0
   -0.2821   -4.0542    0.7312 H   0  0  0  0  0  0  0  0  0  0  0  0
   -0.9341   -3.0468    1.8416 H   0  0  0  0  0  0  0  0  0  0  0  0
   -2.5920   -2.3310    2.7201 H   0  0  0  0  0  0  0  0  0  0  0  0
   -0.1019   -3.3453   -2.4848 H   0  0  0  0  0  0  0  0  0  0  0  0
   -0.1611   -4.2725   -1.0162 H   0  0  0  0  0  0  0  0  0  0  0  0
   -0.8025   -4.9379   -2.4172 H   0  0  0  0  0  0  0  0  0  0  0  0
   -3.1991    1.2823    1.1936 H   0  0  0  0  0  0  0  0  0  0  0  0
   -0.4538   -1.9184    5.3305 H   0  0  0  0  0  0  0  0  0  0  0  0
   -0.9431   -2.5100    4.3696 H   0  0  0  0  0  0  0  0  0  0  0  0
    1.0959   -0.1320    5.5137 H   0  0  0  0  0  0  0  0  0  0  0  0
   -0.6598    0.1822    5.7022 H   0  0  0  0  0  0  0  0  0  0  0  0
    0.8194   -0.0080    3.2988 H   0  0  0  0  0  0  0  0  0  0  0  0
    0.0040    1.4770    3.6957 H   0  0  0  0  0  0  0  0  0  0  0  0
   -2.5165    0.1884    5.4888 H   0  0  0  0  0  0  0  0  0  0  0  0
   -2.3517    3.0692    0.2499 H   0  0  0  0  0  0  0  0  0  0  0  0
   -3.0553    3.6240    1.6402 H   0  0  0  0  0  0  0  0  0  0  0  0
   -6.5808   -0.7618    2.7133 H   0  0  0  0  0  0  0  0  0  0  0  0
   -4.8260   -1.3820    0.2135 H   0  0  0  0  0  0  0  0  0  0  0  0
   -6.5593   -1.3211    0.2436 H   0  0  0  0  0  0  0  0  0  0  0  0
   -5.5159    0.0947    0.6309 H   0  0  0  0  0  0  0  0  0  0  0  0
   -6.4102   -3.0971    3.6173 H   0  0  0  0  0  0  0  0  0  0  0  0
   -7.0881   -3.1242    1.9223 H   0  0  0  0  0  0  0  0  0  0  0  0
   -5.5720   -3.7350    2.3850 H   0  0  0  0  0  0  0  0  0  0  0  0
    0.3880    2.2358    1.1074 H   0  0  0  0  0  0  0  0  0  0  0  0
    2.4225    3.0125    1.8402 H   0  0  0  0  0  0  0  0  0  0  0  0
   -1.8451    5.3960    2.7290 H   0  0  0  0  0  0  0  0  0  0  0  0
    2.3428    4.6873    3.6866 H   0  0  0  0  0  0  0  0  0  0  0  0
    0.0756    5.5919    4.3258 H   0  0  0  0  0  0  0  0  0  0  0  0
  1  2  2  0  0  0  0
  1 49  1  0  0  0  0
  2  3  1  0  0  0  0
  2 50  1  0  0  0  0
  3  4  2  0  0  0  0
  3 51  1  0  0  0  0
  4  5  1  0  0  0  0
  5  6  1  0  0  0  0
  5 52  1  0  0  0  0
  6  7  2  0  0  0  0
  6 53  1  0  0  0  0
  7 10  1  0  0  0  0
  7  9  1  0  0  0  0
  8  1  1  0  0  0  0
  8  9  2  0  0  0  0
  8 11  1  0  0  0  0
  9  4  1  0  0  0  0
 10 12  1  0  0  0  0
 10 54  1  0  0  0  0
 10 55  1  0  0  0  0
 11 12  1  0  0  0  0
 11 16  1  0  0  0  0
 11 22  1  6  0  0  0
 12 13  1  0  0  0  0
 12 20  1  1  0  0  0
 13 14  1  0  0  0  0
 13 19  1  0  0  0  0
 14 15  1  0  0  0  0
 14 56  1  0  0  0  0
 14 57  1  0  0  0  0
 15 16  1  0  0  0  0
 15 58  1  1  0  0  0
 15 17  1  0  0  0  0
 16 59  1  0  0  0  0
 16 60  1  0  0  0  0
 17 18  1  0  0  0  0
 17 21  2  0  0  0  0
 18 61  1  0  0  0  0
 19 62  1  0  0  0  0
 19 63  1  0  0  0  0
 19 64  1  0  0  0  0
 23 18  1  1  0  0  0
 23 24  1  0  0  0  0
 23 41  1  0  0  0  0
 24 27  1  0  0  0  0
 24 37  2  0  0  0  0
 25 23  1  0  0  0  0
 26 25  1  0  0  0  0
 26 27  1  0  0  0  0
 26 30  1  0  0  0  0
 26 35  1  1  0  0  0
 27 28  1  0  0  0  0
 28 29  1  0  0  0  0
 28 65  1  6  0  0  0
 28 39  1  0  0  0  0
 29 31  1  0  0  0  0
 29 38  2  0  0  0  0
 30 31  1  0  0  0  0
 30 36  1  1  0  0  0
 31 32  1  0  0  0  0
 32 33  1  0  0  0  0
 32 66  1  0  0  0  0
 32 67  1  0  0  0  0
 33 34  1  0  0  0  0
 33 68  1  0  0  0  0
 33 69  1  0  0  0  0
 34 30  1  0  0  0  0
 34 70  1  0  0  0  0
 34 71  1  0  0  0  0
 35 72  1  0  0  0  0
 39 40  1  0  0  0  0
 39 73  1  0  0  0  0
 39 74  1  0  0  0  0
 40 44  1  0  0  0  0
 41 42  1  0  0  0  0
 41 43  1  0  0  0  0
 41 75  1  0  0  0  0
 42 76  1  0  0  0  0
 42 77  1  0  0  0  0
 42 78  1  0  0  0  0
 43 79  1  0  0  0  0
 43 80  1  0  0  0  0
 43 81  1  0  0  0  0
 44 82  1  0  0  0  0
 45 44  2  0  0  0  0
 45 83  1  0  0  0  0
 46 40  2  0  0  0  0
 46 84  1  0  0  0  0
 47 45  1  0  0  0  0
 47 85  1  0  0  0  0
 48 46  1  0  0  0  0
 48 47  2  0  0  0  0
 48 86  1  0  0  0  0
M  END
>  <DRUGBANK_ID>
DB13345

>  <COMMON_NAME>
Dihydroergocristine

>  <CAS_NUMBER>
17479-19-5

>  <UNII>
05D48LUM4Z

>  <SYNONYMS>
9,10-dihydroergocristine; DHEC

$$$$
