234
 OpenBabel10282417193D

 46 48  0  0  1  0  0  0  0  0999 V2000
    1.2783   -0.6339    0.4899 O   0  0  0  0  0  0  0  0  0  0  0  0
    1.4226    2.7221    1.8929 O   0  0  0  0  0  0  0  0  0  0  0  0
   -1.4904    3.5219    0.3565 O   0  0  0  0  0  0  0  0  0  0  0  0
   -1.5746   -0.6852   -0.2120 N   0  0  0  0  0  0  0  0  0  0  0  0
    0.6627    0.6266    0.1390 C   0  0  2  0  0  0  0  0  0  0  0  0
    1.7047    1.9316    0.6637 C   0  0  2  0  0  0  0  0  0  0  0  0
   -0.9535    0.4617    0.4783 C   0  0  0  0  0  0  0  0  0  0  0  0
   -0.7973   -1.8287    0.2283 C   0  0  0  0  0  0  0  0  0  0  0  0
    0.6499   -1.6944   -0.2376 C   0  0  0  0  0  0  0  0  0  0  0  0
    3.0955    1.3793    0.3200 C   0  0  0  0  0  0  0  0  0  0  0  0
    3.3470    0.9617   -1.0272 C   0  0  0  0  0  0  0  0  0  0  0  0
    3.9865    1.1453    1.3217 C   0  0  0  0  0  0  0  0  0  0  0  0
    0.4060    3.6988    2.0734 C   0  0  0  0  0  0  0  0  0  0  0  0
    4.4504    0.1461   -1.3000 C   0  0  0  0  0  0  0  0  0  0  0  0
    5.1505    0.4268    1.0147 C   0  0  0  0  0  0  0  0  0  0  0  0
   -0.9592    3.7069    1.6403 C   0  0  0  0  0  0  0  0  0  0  0  0
    5.3323   -0.1015   -0.2723 C   0  0  0  0  0  0  0  0  0  0  0  0
    0.6924    4.7476    2.9723 C   0  0  0  0  0  0  0  0  0  0  0  0
   -1.9944    4.3645    2.3112 C   0  0  0  0  0  0  0  0  0  0  0  0
   -0.3404    5.5825    3.4939 C   0  0  0  0  0  0  0  0  0  0  0  0
   -1.6843    5.3569    3.2013 C   0  0  0  0  0  0  0  0  0  0  0  0
   -0.5849    2.9406   -0.4958 C   0  0  0  0  0  0  0  0  0  0  0  0
    0.3844    3.7223   -1.2886 C   0  0  0  0  0  0  0  0  0  0  0  0
    0.7317    0.6841   -0.9676 H   0  0  0  0  0  0  0  0  0  0  0  0
   -1.5141   -0.5560   -1.2262 H   0  0  0  0  0  0  0  0  0  0  0  0
    1.8657    2.7672   -0.0146 H   0  0  0  0  0  0  0  0  0  0  0  0
   -1.1019    0.4303    1.5583 H   0  0  0  0  0  0  0  0  0  0  0  0
   -1.6892    1.1969    0.1581 H   0  0  0  0  0  0  0  0  0  0  0  0
   -0.8323   -1.8182    1.3239 H   0  0  0  0  0  0  0  0  0  0  0  0
   -1.2704   -2.7372   -0.1341 H   0  0  0  0  0  0  0  0  0  0  0  0
    1.1986   -2.6066   -0.0170 H   0  0  0  0  0  0  0  0  0  0  0  0
    0.7197   -1.4986   -1.3186 H   0  0  0  0  0  0  0  0  0  0  0  0
    2.6590    1.1542   -1.8412 H   0  0  0  0  0  0  0  0  0  0  0  0
    3.7572    1.4569    2.3329 H   0  0  0  0  0  0  0  0  0  0  0  0
    4.5635   -0.2934   -2.2879 H   0  0  0  0  0  0  0  0  0  0  0  0
    5.8636    0.2589    1.7998 H   0  0  0  0  0  0  0  0  0  0  0  0
    6.1982   -0.7429   -0.4601 H   0  0  0  0  0  0  0  0  0  0  0  0
    1.7185    4.9926    3.2454 H   0  0  0  0  0  0  0  0  0  0  0  0
   -3.0170    4.1998    1.9742 H   0  0  0  0  0  0  0  0  0  0  0  0
   -0.1064    6.4150    4.1540 H   0  0  0  0  0  0  0  0  0  0  0  0
   -2.4880    5.9902    3.5651 H   0  0  0  0  0  0  0  0  0  0  0  0
   -0.1015    2.3936    0.2425 H   0  0  0  0  0  0  0  0  0  0  0  0
   -1.0067    2.2103   -1.1809 H   0  0  0  0  0  0  0  0  0  0  0  0
    0.8635    4.5012   -0.6944 H   0  0  0  0  0  0  0  0  0  0  0  0
    1.1377    3.0327   -1.7001 H   0  0  0  0  0  0  0  0  0  0  0  0
   -0.1727    4.0992   -2.1260 H   0  0  0  0  0  0  0  0  0  0  0  0
  1  5  1  0  0  0  0
  1  9  1  0  0  0  0
  2 13  1  0  0  0  0
  3 16  1  0  0  0  0
  3 22  1  0  0  0  0
  4  7  1  0  0  0  0
  4  8  1  0  0  0  0
  4 25  1  0  0  0  0
  5  7  1  0  0  0  0
  5 24  1  6  0  0  0
  5  6  1  0  0  0  0
  6  2  1  0  0  0  0
  6 10  1  0  0  0  0
  6 26  1  6  0  0  0
  7 27  1  0  0  0  0
  7 28  1  0  0  0  0
  8  9  1  0  0  0  0
  8 29  1  0  0  0  0
  8 30  1  0  0  0  0
  9 31  1  0  0  0  0
  9 32  1  0  0  0  0
 10 11  2  0  0  0  0
 10 12  1  0  0  0  0
 11 14  1  0  0  0  0
 11 33  1  0  0  0  0
 12 15  2  0  0  0  0
 12 34  1  0  0  0  0
 13 16  1  0  0  0  0
 13 18  2  0  0  0  0
 14 17  2  0  0  0  0
 14 35  1  0  0  0  0
 15 17  1  0  0  0  0
 15 36  1  0  0  0  0
 16 19  2  0  0  0  0
 17 37  1  0  0  0  0
 18 20  1  0  0  0  0
 18 38  1  0  0  0  0
 19 21  1  0  0  0  0
 19 39  1  0  0  0  0
 20 21  2  0  0  0  0
 20 40  1  0  0  0  0
 21 41  1  0  0  0  0
 22 23  1  0  0  0  0
 22 42  1  0  0  0  0
 22 43  1  0  0  0  0
 23 44  1  0  0  0  0
 23 45  1  0  0  0  0
 23 46  1  0  0  0  0
M  END
>  <DRUGBANK_ID>
DB12395

>  <COMMON_NAME>
Esreboxetine

>  <CAS_NUMBER>
98819-76-2

>  <UNII>
L8S50ZY490

>  <SYNONYMS>
Esreboxetine

$$$$
