
 OpenBabel10282417183D

 48 50  0  0  0  0  0  0  0  0999 V2000
    2.6631    0.3615   -0.0397 O   0  0  0  0  0  0  0  0  0  0  0  0
   -2.2479   -1.3741   -2.5689 O   0  0  0  0  0  0  0  0  0  0  0  0
    1.6532   -4.6463    2.6088 O   0  0  0  0  0  0  0  0  0  0  0  0
   -2.6996   -3.1161   -3.6268 O   0  0  0  0  0  0  0  0  0  0  0  0
    1.1698   -2.6198    2.0098 O   0  0  0  0  0  0  0  0  0  0  0  0
   -1.6976   -5.5082   -0.4609 N   0  0  0  0  0  0  0  0  0  0  0  0
    1.9316   -0.7919    0.0825 N   0  0  0  0  0  0  0  0  0  0  0  0
    1.8721    1.5073    0.0239 N   0  0  0  0  0  0  0  0  0  0  0  0
   -0.6134   -2.8964    0.0078 C   0  0  3  0  0  0  0  0  0  0  0  0
   -0.4373   -1.0755    0.4253 C   0  0  0  0  0  0  0  0  0  0  0  0
   -1.5972   -3.4551   -1.4231 C   0  0  0  0  0  0  0  0  0  0  0  0
    0.0900   -4.1862    0.5893 C   0  0  0  0  0  0  0  0  0  0  0  0
    0.6874   -0.3524    0.3232 C   0  0  0  0  0  0  0  0  0  0  0  0
   -2.0320   -4.7141   -1.4807 C   0  0  0  0  0  0  0  0  0  0  0  0
   -0.5032   -5.3893    0.1911 C   0  0  0  0  0  0  0  0  0  0  0  0
    0.6118    1.1169    0.2168 C   0  0  0  0  0  0  0  0  0  0  0  0
   -2.1924   -2.6981   -2.6402 C   0  0  0  0  0  0  0  0  0  0  0  0
    1.0357   -3.8111    1.7346 C   0  0  0  0  0  0  0  0  0  0  0  0
   -1.7002    0.1822    0.2225 C   0  0  0  0  0  0  0  0  0  0  0  0
   -0.6616    1.9538    0.2014 C   0  0  0  0  0  0  0  0  0  0  0  0
   -1.9219    1.4874    0.1919 C   0  0  0  0  0  0  0  0  0  0  0  0
   -2.7652   -5.4693   -2.5489 C   0  0  0  0  0  0  0  0  0  0  0  0
   -0.2501   -6.8113    0.5090 C   0  0  0  0  0  0  0  0  0  0  0  0
   -1.5615   -1.1967   -1.4630 C   0  0  0  0  0  0  0  0  0  0  0  0
    1.4039   -6.0312    2.6956 C   0  0  0  0  0  0  0  0  0  0  0  0
   -2.6420   -1.7188    0.1846 C   0  0  0  0  0  0  0  0  0  0  0  0
   -0.1098   -6.2521    3.1982 C   0  0  0  0  0  0  0  0  0  0  0  0
   -2.0603   -6.4623   -0.5606 H   0  0  0  0  0  0  0  0  0  0  0  0
   -1.2083   -2.9922    0.9293 H   0  0  0  0  0  0  0  0  0  0  0  0
   -2.6935   -0.0011   -0.5122 H   0  0  0  0  0  0  0  0  0  0  0  0
   -0.6078    3.0093    0.0610 H   0  0  0  0  0  0  0  0  0  0  0  0
   -2.9535    1.8408   -0.0268 H   0  0  0  0  0  0  0  0  0  0  0  0
   -2.0619   -6.1820   -2.9899 H   0  0  0  0  0  0  0  0  0  0  0  0
   -3.6287   -5.9846   -2.1303 H   0  0  0  0  0  0  0  0  0  0  0  0
   -3.1623   -4.9205   -3.3787 H   0  0  0  0  0  0  0  0  0  0  0  0
   -1.0745   -7.3537    0.9992 H   0  0  0  0  0  0  0  0  0  0  0  0
    0.4688   -7.4210   -0.0206 H   0  0  0  0  0  0  0  0  0  0  0  0
    0.3074   -6.5616    1.2951 H   0  0  0  0  0  0  0  0  0  0  0  0
   -0.4641   -1.5735   -1.6247 H   0  0  0  0  0  0  0  0  0  0  0  0
   -1.1530   -0.1626   -1.6658 H   0  0  0  0  0  0  0  0  0  0  0  0
    1.8180   -6.3623    1.7097 H   0  0  0  0  0  0  0  0  0  0  0  0
    2.0726   -6.6324    3.3092 H   0  0  0  0  0  0  0  0  0  0  0  0
   -2.9075   -2.7455    0.3802 H   0  0  0  0  0  0  0  0  0  0  0  0
   -2.1520   -1.4408    1.2913 H   0  0  0  0  0  0  0  0  0  0  0  0
   -3.5072   -1.0999    0.4922 H   0  0  0  0  0  0  0  0  0  0  0  0
   -0.8744   -5.6569    2.6548 H   0  0  0  0  0  0  0  0  0  0  0  0
   -0.4222   -7.3039    3.0909 H   0  0  0  0  0  0  0  0  0  0  0  0
   -0.2839   -5.9254    4.2168 H   0  0  0  0  0  0  0  0  0  0  0  0
  1  7  1  0  0  0  0
  1  8  1  0  0  0  0
  2 17  1  0  0  0  0
  2 24  1  0  0  0  0
  3 18  1  0  0  0  0
  3 25  1  0  0  0  0
  4 17  2  0  0  0  0
  5 18  2  0  0  0  0
  6 14  1  0  0  0  0
  6 15  1  0  0  0  0
  6 28  1  0  0  0  0
  7 13  2  0  0  0  0
  8 16  2  0  0  0  0
  9 10  1  0  0  0  0
  9 11  1  0  0  0  0
  9 12  1  0  0  0  0
  9 29  1  0  0  0  0
 10 13  1  0  0  0  0
 10 19  2  0  0  0  0
 11 14  2  0  0  0  0
 11 17  1  0  0  0  0
 12 15  2  0  0  0  0
 12 18  1  0  0  0  0
 13 16  1  0  0  0  0
 14 22  1  0  0  0  0
 15 23  1  0  0  0  0
 16 20  1  0  0  0  0
 19 21  1  0  0  0  0
 19 30  1  0  0  0  0
 20 21  2  0  0  0  0
 20 31  1  0  0  0  0
 21 32  1  0  0  0  0
 22 33  1  0  0  0  0
 22 34  1  0  0  0  0
 22 35  1  0  0  0  0
 23 36  1  0  0  0  0
 23 37  1  0  0  0  0
 23 38  1  0  0  0  0
 24 26  1  0  0  0  0
 24 39  1  0  0  0  0
 24 40  1  0  0  0  0
 25 27  1  0  0  0  0
 25 41  1  0  0  0  0
 25 42  1  0  0  0  0
 26 43  1  0  0  0  0
 26 44  1  0  0  0  0
 26 45  1  0  0  0  0
 27 46  1  0  0  0  0
 27 47  1  0  0  0  0
 27 48  1  0  0  0  0
M  END
>  <DRUGBANK_ID>
DB09234

>  <COMMON_NAME>
Darodipine

>  <CAS_NUMBER>
72803-02-2

>  <UNII>
N4AL7X96GL

>  <SYNONYMS>
Darodipine

$$$$
