
 OpenBabel10282417183D

198201  0  0  1  0  0  0  0  0999 V2000
  -13.8173   21.8654    1.6810 C   0  0  0  0  0  0  0  0  0  0  0  0
  -12.6527   21.0862    1.2560 C   0  0  1  0  0  0  0  0  0  0  0  0
  -11.0764   21.5589    1.7792 C   0  0  0  0  0  0  0  0  0  0  0  0
  -10.1721   20.8199    2.1720 O   0  0  0  0  0  0  0  0  0  0  0  0
  -10.6333   22.7967    1.3615 N   0  0  0  0  0  0  0  0  0  0  0  0
  -11.4313   23.9828    1.0163 C   0  0  1  0  0  0  0  0  0  0  0  0
  -12.0748   24.5438    2.2795 C   0  0  0  0  0  0  0  0  0  0  0  0
  -11.1489   25.0878    3.2777 C   0  0  0  0  0  0  0  0  0  0  0  0
  -11.0489   26.2871    3.4534 O   0  0  0  0  0  0  0  0  0  0  0  0
  -10.3526   24.1414    3.8394 O   0  0  0  0  0  0  0  0  0  0  0  0
  -10.7182   24.9332    0.0170 C   0  0  0  0  0  0  0  0  0  0  0  0
  -11.2368   25.2312   -1.0613 O   0  0  0  0  0  0  0  0  0  0  0  0
   -9.4849   25.4291    0.2901 N   0  0  0  0  0  0  0  0  0  0  0  0
   -8.7173   25.1445    1.4645 C   0  0  1  0  0  0  0  0  0  0  0  0
   -7.5381   24.2157    1.4618 C   0  0  0  0  0  0  0  0  0  0  0  0
   -6.3572   24.8963    0.9328 C   0  0  0  0  0  0  0  0  0  0  0  0
   -5.4821   25.2952    1.6830 O   0  0  0  0  0  0  0  0  0  0  0  0
   -6.5025   25.2343   -0.3713 O   0  0  0  0  0  0  0  0  0  0  0  0
   -8.5513   26.2628    2.4341 C   0  0  0  0  0  0  0  0  0  0  0  0
   -8.5468   25.9284    3.6170 O   0  0  0  0  0  0  0  0  0  0  0  0
   -8.3230   27.5271    1.9703 N   0  0  0  0  0  0  0  0  0  0  0  0
   -7.3585   27.7386    0.9126 C   0  0  1  0  0  0  0  0  0  0  0  0
   -7.8365   28.7091   -0.1115 C   0  0  0  0  0  0  0  0  0  0  0  0
   -5.8048   27.9162    1.1145 C   0  0  0  0  0  0  0  0  0  0  0  0
   -4.9929   27.3450    0.3789 O   0  0  0  0  0  0  0  0  0  0  0  0
   -5.3417   28.8609    1.9666 N   0  0  0  0  0  0  0  0  0  0  0  0
   -6.1454   29.9716    2.3981 C   0  0  0  0  0  0  0  0  0  0  0  0
   -6.0214   30.2145    3.8828 C   0  0  0  0  0  0  0  0  0  0  0  0
   -5.8467   31.3471    4.3249 O   0  0  0  0  0  0  0  0  0  0  0  0
   -6.2126   29.1929    4.7646 N   0  0  0  0  0  0  0  0  0  0  0  0
   -6.7921   27.9009    4.4976 C   0  0  1  0  0  0  0  0  0  0  0  0
   -5.8264   26.6866    4.6954 C   0  0  0  0  0  0  0  0  0  0  0  0
   -5.8250   26.2226    6.1200 C   0  0  0  0  0  0  0  0  0  0  0  0
   -7.1740   25.4617    6.1812 C   0  0  0  0  0  0  0  0  0  0  0  0
   -4.7146   25.3441    6.6066 C   0  0  0  0  0  0  0  0  0  0  0  0
   -8.3269   28.0360    5.0146 C   0  0  0  0  0  0  0  0  0  0  0  0
   -9.2081   28.4701    4.2583 O   0  0  0  0  0  0  0  0  0  0  0  0
   -8.6726   27.7552    6.3198 N   0  0  0  0  0  0  0  0  0  0  0  0
   -7.7789   27.8000    7.4979 C   0  0  1  0  0  0  0  0  0  0  0  0
   -8.0576   29.0445    8.2720 C   0  0  0  0  0  0  0  0  0  0  0  0
   -9.3798   28.7565    8.9464 C   0  0  0  0  0  0  0  0  0  0  0  0
   -6.8299   29.2445    9.1610 C   0  0  0  0  0  0  0  0  0  0  0  0
   -7.5099   26.5657    8.5984 C   0  0  0  0  0  0  0  0  0  0  0  0
   -6.4311   26.1166    8.9655 O   0  0  0  0  0  0  0  0  0  0  0  0
   -8.6277   25.9078    8.9942 O   0  0  0  0  0  0  0  0  0  0  0  0
  -13.3864   19.5457    0.4306 N   0  0  0  0  0  0  0  0  0  0  0  0
  -13.4877   18.9066   -1.2319 C   0  0  0  0  0  0  0  0  0  0  0  0
  -13.9075   17.7430   -1.3612 O   0  0  0  0  0  0  0  0  0  0  0  0
  -12.9748   19.8366   -2.8679 C   0  0  2  0  0  0  0  0  0  0  0  0
  -14.1367   19.9789   -3.8331 C   0  0  0  0  0  0  0  0  0  0  0  0
  -13.5385   20.7504   -5.0318 C   0  0  0  0  0  0  0  0  0  0  0  0
  -12.0624   20.3656   -5.0761 C   0  0  0  0  0  0  0  0  0  0  0  0
  -11.7978   19.6613   -3.8103 N   0  0  0  0  0  0  0  0  0  0  0  0
  -10.4604   19.4216   -3.5403 C   0  0  0  0  0  0  0  0  0  0  0  0
   -9.6075   19.5672   -4.4243 O   0  0  0  0  0  0  0  0  0  0  0  0
  -10.0257   18.9447   -2.1343 C   0  0  2  0  0  0  0  0  0  0  0  0
  -11.0533   18.0076   -1.5186 C   0  0  0  0  0  0  0  0  0  0  0  0
  -11.2394   18.3866   -0.1404 C   0  0  0  0  0  0  0  0  0  0  0  0
  -11.4164   19.9364   -0.2422 C   0  0  0  0  0  0  0  0  0  0  0  0
  -12.7859   21.0921   -1.0083 C   0  0  0  0  0  0  0  0  0  0  0  0
  -14.3867   20.8399   -1.0664 N   0  0  0  0  0  0  0  0  0  0  0  0
   -9.0921   19.8672   -1.4943 N   0  0  0  0  0  0  0  0  0  0  0  0
   -8.0655   19.6168   -0.6128 C   0  0  0  0  0  0  0  0  0  0  0  0
   -7.7155   20.5044    0.1636 O   0  0  0  0  0  0  0  0  0  0  0  0
   -7.2960   18.2991   -0.7285 C   0  0  0  0  0  0  0  0  0  0  0  0
   -8.0777   17.2049   -0.3280 N   0  0  0  0  0  0  0  0  0  0  0  0
   -8.8310   16.3607   -1.0628 C   0  0  0  0  0  0  0  0  0  0  0  0
   -9.7073   16.0405   -0.3853 O   0  0  0  0  0  0  0  0  0  0  0  0
   -8.6353   15.9796   -2.5971 C   0  0  2  0  0  0  0  0  0  0  0  0
   -9.1491   16.9738   -3.5855 C   0  0  0  0  0  0  0  0  0  0  0  0
   -9.1307   16.5265   -4.9772 C   0  0  0  0  0  0  0  0  0  0  0  0
   -9.3666   15.0795   -4.7205 C   0  0  0  0  0  0  0  0  0  0  0  0
   -9.3685   14.8403   -3.2152 N   0  0  0  0  0  0  0  0  0  0  0  0
   -9.4218   13.5157   -2.7262 C   0  0  0  0  0  0  0  0  0  0  0  0
   -9.7638   12.5814   -3.4551 O   0  0  0  0  0  0  0  0  0  0  0  0
   -9.0265   13.1881   -1.2717 C   0  0  2  0  0  0  0  0  0  0  0  0
  -10.1673   13.6264   -0.3247 C   0  0  0  0  0  0  0  0  0  0  0  0
   -9.4863   13.9753    1.0060 C   0  0  0  0  0  0  0  0  0  0  0  0
   -8.0418   14.2547    0.6018 C   0  0  0  0  0  0  0  0  0  0  0  0
   -7.8283   13.9041   -0.8297 N   0  0  0  0  0  0  0  0  0  0  0  0
   -6.6582   14.1684   -1.5775 C   0  0  0  0  0  0  0  0  0  0  0  0
   -6.0524   15.2324   -1.3446 O   0  0  0  0  0  0  0  0  0  0  0  0
   -6.1626   13.3502   -2.8897 C   0  0  2  0  0  0  0  0  0  0  0  0
   -6.7255   14.0561   -4.0545 C   0  0  0  0  0  0  0  0  0  0  0  0
   -7.0818   13.0798   -5.1341 C   0  0  0  0  0  0  0  0  0  0  0  0
   -7.0112   11.7392   -4.4389 C   0  0  0  0  0  0  0  0  0  0  0  0
   -6.5922   11.9948   -3.0519 N   0  0  0  0  0  0  0  0  0  0  0  0
   -6.5116   11.0111   -2.0861 C   0  0  0  0  0  0  0  0  0  0  0  0
   -6.9741    9.8910   -2.3169 O   0  0  0  0  0  0  0  0  0  0  0  0
   -5.8973   11.3710   -0.6646 C   0  0  2  0  0  0  0  0  0  0  0  0
   -4.4002   11.7843   -0.6900 C   0  0  0  0  0  0  0  0  0  0  0  0
   -3.9177   13.2302   -0.8816 C   0  0  0  0  0  0  0  0  0  0  0  0
   -4.2029   14.2519    0.1842 C   0  0  0  0  0  0  0  0  0  0  0  0
   -3.6164   15.3073    0.3495 O   0  0  0  0  0  0  0  0  0  0  0  0
   -5.3974   14.1035    0.7315 O   0  0  0  0  0  0  0  0  0  0  0  0
   -6.0337   10.2021    0.2379 N   0  0  0  0  0  0  0  0  0  0  0  0
   -6.6580   10.0961    1.4561 C   0  0  0  0  0  0  0  0  0  0  0  0
   -6.6180    9.0326    2.0764 O   0  0  0  0  0  0  0  0  0  0  0  0
   -7.3830   11.2917    2.0533 C   0  0  0  0  0  0  0  0  0  0  0  0
   -6.4215   12.3124    2.4561 N   0  0  0  0  0  0  0  0  0  0  0  0
  -14.0315   21.3676    2.6008 H   0  0  0  0  0  0  0  0  0  0  0  0
  -14.6439   21.8311    0.9855 H   0  0  0  0  0  0  0  0  0  0  0  0
  -13.6404   22.9204    1.7465 H   0  0  0  0  0  0  0  0  0  0  0  0
  -12.2425   21.7530    0.4950 H   0  0  0  0  0  0  0  0  0  0  0  0
   -9.6695   22.8739    1.6637 H   0  0  0  0  0  0  0  0  0  0  0  0
  -12.2664   23.6696    0.3873 H   0  0  0  0  0  0  0  0  0  0  0  0
  -12.7844   25.3280    2.0144 H   0  0  0  0  0  0  0  0  0  0  0  0
  -12.5933   23.7917    2.8787 H   0  0  0  0  0  0  0  0  0  0  0  0
   -9.5081   24.5833    4.1216 H   0  0  0  0  0  0  0  0  0  0  0  0
   -9.1544   26.1030   -0.3881 H   0  0  0  0  0  0  0  0  0  0  0  0
   -9.3868   24.5436    2.0149 H   0  0  0  0  0  0  0  0  0  0  0  0
   -7.2973   23.9881    2.5135 H   0  0  0  0  0  0  0  0  0  0  0  0
   -7.7072   23.2810    0.9413 H   0  0  0  0  0  0  0  0  0  0  0  0
   -5.9243   26.0173   -0.5645 H   0  0  0  0  0  0  0  0  0  0  0  0
   -8.4985   28.2558    2.6657 H   0  0  0  0  0  0  0  0  0  0  0  0
   -7.4731   26.8304    0.3840 H   0  0  0  0  0  0  0  0  0  0  0  0
   -7.6996   29.7347    0.2117 H   0  0  0  0  0  0  0  0  0  0  0  0
   -7.2478   28.5358   -1.0163 H   0  0  0  0  0  0  0  0  0  0  0  0
   -8.8911   28.5197   -0.3135 H   0  0  0  0  0  0  0  0  0  0  0  0
   -4.3291   28.9135    2.0555 H   0  0  0  0  0  0  0  0  0  0  0  0
   -5.8384   30.8398    1.8110 H   0  0  0  0  0  0  0  0  0  0  0  0
   -7.2009   29.8088    2.1949 H   0  0  0  0  0  0  0  0  0  0  0  0
   -6.3265   29.5330    5.7043 H   0  0  0  0  0  0  0  0  0  0  0  0
   -6.8346   27.8255    3.4354 H   0  0  0  0  0  0  0  0  0  0  0  0
   -6.1469   25.8150    4.1049 H   0  0  0  0  0  0  0  0  0  0  0  0
   -4.8265   26.9247    4.3238 H   0  0  0  0  0  0  0  0  0  0  0  0
   -5.5687   27.1464    6.6490 H   0  0  0  0  0  0  0  0  0  0  0  0
   -7.1699   24.4297    5.8751 H   0  0  0  0  0  0  0  0  0  0  0  0
   -7.8250   25.4518    7.0239 H   0  0  0  0  0  0  0  0  0  0  0  0
   -7.8528   25.9224    5.5010 H   0  0  0  0  0  0  0  0  0  0  0  0
   -3.7556   25.6587    6.1962 H   0  0  0  0  0  0  0  0  0  0  0  0
   -4.6239   25.4299    7.6968 H   0  0  0  0  0  0  0  0  0  0  0  0
   -4.9538   24.3159    6.3614 H   0  0  0  0  0  0  0  0  0  0  0  0
   -9.6239   27.4090    6.4149 H   0  0  0  0  0  0  0  0  0  0  0  0
   -6.8522   28.0899    7.0491 H   0  0  0  0  0  0  0  0  0  0  0  0
   -8.1428   29.8958    7.5785 H   0  0  0  0  0  0  0  0  0  0  0  0
   -9.2994   27.9018    9.6155 H   0  0  0  0  0  0  0  0  0  0  0  0
   -9.7230   29.5931    9.5328 H   0  0  0  0  0  0  0  0  0  0  0  0
  -10.1414   28.4841    8.1998 H   0  0  0  0  0  0  0  0  0  0  0  0
   -5.9219   29.3576    8.5441 H   0  0  0  0  0  0  0  0  0  0  0  0
   -6.9479   30.1096    9.7987 H   0  0  0  0  0  0  0  0  0  0  0  0
   -6.6367   28.3805    9.8030 H   0  0  0  0  0  0  0  0  0  0  0  0
   -8.2809   25.0742    9.3898 H   0  0  0  0  0  0  0  0  0  0  0  0
  -13.4130   18.8080    1.1267 H   0  0  0  0  0  0  0  0  0  0  0  0
  -12.9248   20.9411   -2.8982 H   0  0  0  0  0  0  0  0  0  0  0  0
  -14.4810   18.9849   -4.0628 H   0  0  0  0  0  0  0  0  0  0  0  0
  -14.9274   20.5876   -3.3796 H   0  0  0  0  0  0  0  0  0  0  0  0
  -14.0694   20.5098   -5.9500 H   0  0  0  0  0  0  0  0  0  0  0  0
  -13.6209   21.8432   -4.8824 H   0  0  0  0  0  0  0  0  0  0  0  0
  -11.8157   19.7046   -5.9091 H   0  0  0  0  0  0  0  0  0  0  0  0
  -11.4229   21.2658   -5.1734 H   0  0  0  0  0  0  0  0  0  0  0  0
   -9.3073   18.2024   -2.0987 H   0  0  0  0  0  0  0  0  0  0  0  0
  -11.8775   18.0952   -2.1802 H   0  0  0  0  0  0  0  0  0  0  0  0
  -11.0930   16.9150   -1.6003 H   0  0  0  0  0  0  0  0  0  0  0  0
  -12.0240   17.7685    0.3397 H   0  0  0  0  0  0  0  0  0  0  0  0
  -10.4078   18.1368    0.5449 H   0  0  0  0  0  0  0  0  0  0  0  0
  -11.3793   19.8027    0.8376 H   0  0  0  0  0  0  0  0  0  0  0  0
  -10.5571   20.5642   -0.3128 H   0  0  0  0  0  0  0  0  0  0  0  0
  -12.8864   22.1831   -0.9443 H   0  0  0  0  0  0  0  0  0  0  0  0
  -12.0072   21.2513   -1.7440 H   0  0  0  0  0  0  0  0  0  0  0  0
  -15.1850   21.4440   -1.2028 H   0  0  0  0  0  0  0  0  0  0  0  0
  -14.6618   20.2039   -0.2603 H   0  0  0  0  0  0  0  0  0  0  0  0
   -9.3612   20.8371   -1.5203 H   0  0  0  0  0  0  0  0  0  0  0  0
   -7.0085   18.1602   -1.7673 H   0  0  0  0  0  0  0  0  0  0  0  0
   -6.4399   18.2769   -0.0561 H   0  0  0  0  0  0  0  0  0  0  0  0
   -8.5094   17.2220    0.5984 H   0  0  0  0  0  0  0  0  0  0  0  0
   -7.5634   16.0122   -2.7913 H   0  0  0  0  0  0  0  0  0  0  0  0
  -10.2250   17.0327   -3.4057 H   0  0  0  0  0  0  0  0  0  0  0  0
   -8.5107   17.8509   -3.5447 H   0  0  0  0  0  0  0  0  0  0  0  0
   -9.8972   16.9825   -5.5994 H   0  0  0  0  0  0  0  0  0  0  0  0
   -8.1397   16.8068   -5.3681 H   0  0  0  0  0  0  0  0  0  0  0  0
  -10.1206   14.5258   -5.2641 H   0  0  0  0  0  0  0  0  0  0  0  0
   -8.4421   14.8166   -5.2060 H   0  0  0  0  0  0  0  0  0  0  0  0
   -8.8488   12.1236   -1.0959 H   0  0  0  0  0  0  0  0  0  0  0  0
  -10.7063   14.4471   -0.8037 H   0  0  0  0  0  0  0  0  0  0  0  0
  -11.0025   12.9405   -0.2091 H   0  0  0  0  0  0  0  0  0  0  0  0
   -9.8778   14.8441    1.5577 H   0  0  0  0  0  0  0  0  0  0  0  0
   -9.5624   13.1542    1.7258 H   0  0  0  0  0  0  0  0  0  0  0  0
   -7.6373   15.1992    0.9806 H   0  0  0  0  0  0  0  0  0  0  0  0
   -7.4844   13.5332    1.1333 H   0  0  0  0  0  0  0  0  0  0  0  0
   -5.1240   13.4249   -3.2099 H   0  0  0  0  0  0  0  0  0  0  0  0
   -7.6114   14.2303   -3.5685 H   0  0  0  0  0  0  0  0  0  0  0  0
   -6.3856   15.0693   -4.2954 H   0  0  0  0  0  0  0  0  0  0  0  0
   -8.0942   13.1425   -5.5544 H   0  0  0  0  0  0  0  0  0  0  0  0
   -6.4064   13.2737   -5.9617 H   0  0  0  0  0  0  0  0  0  0  0  0
   -7.9744   11.2190   -4.4550 H   0  0  0  0  0  0  0  0  0  0  0  0
   -6.2720   11.1514   -4.9770 H   0  0  0  0  0  0  0  0  0  0  0  0
   -6.5203   12.1211   -0.2189 H   0  0  0  0  0  0  0  0  0  0  0  0
   -3.9592   11.4878    0.2632 H   0  0  0  0  0  0  0  0  0  0  0  0
   -3.9384   11.1878   -1.4854 H   0  0  0  0  0  0  0  0  0  0  0  0
   -2.8459   13.2750   -1.0634 H   0  0  0  0  0  0  0  0  0  0  0  0
   -4.2653   13.6324   -1.8042 H   0  0  0  0  0  0  0  0  0  0  0  0
   -5.7720   15.0017    0.5604 H   0  0  0  0  0  0  0  0  0  0  0  0
   -5.6073    9.3394   -0.0734 H   0  0  0  0  0  0  0  0  0  0  0  0
   -8.1077   11.6151    1.2972 H   0  0  0  0  0  0  0  0  0  0  0  0
   -7.9777   11.0123    2.9253 H   0  0  0  0  0  0  0  0  0  0  0  0
   -6.8654   13.1118    2.9022 H   0  0  0  0  0  0  0  0  0  0  0  0
   -5.6699   11.9802    3.0442 H   0  0  0  0  0  0  0  0  0  0  0  0
  1101  1  0  0  0  0
  1102  1  0  0  0  0
  1103  1  0  0  0  0
  2  1  1  0  0  0  0
  2  3  1  0  0  0  0
  2 46  1  0  0  0  0
  2104  1  6  0  0  0
  3  4  2  0  0  0  0
  3  5  1  0  0  0  0
  5105  1  0  0  0  0
  6  5  1  0  0  0  0
  6  7  1  0  0  0  0
  6 11  1  0  0  0  0
  6106  1  6  0  0  0
  7  8  1  0  0  0  0
  7107  1  0  0  0  0
  7108  1  0  0  0  0
  8  9  2  0  0  0  0
  8 10  1  0  0  0  0
 10109  1  0  0  0  0
 11 12  2  0  0  0  0
 11 13  1  0  0  0  0
 13110  1  0  0  0  0
 14 13  1  0  0  0  0
 14 15  1  0  0  0  0
 14 19  1  0  0  0  0
 14111  1  1  0  0  0
 15 16  1  0  0  0  0
 15112  1  0  0  0  0
 15113  1  0  0  0  0
 16 17  2  0  0  0  0
 16 18  1  0  0  0  0
 18114  1  0  0  0  0
 19 20  2  0  0  0  0
 19 21  1  0  0  0  0
 21 22  1  0  0  0  0
 21115  1  0  0  0  0
 22 23  1  0  0  0  0
 22 24  1  0  0  0  0
 22116  1  6  0  0  0
 23117  1  0  0  0  0
 23118  1  0  0  0  0
 23119  1  0  0  0  0
 24 25  2  0  0  0  0
 24 26  1  0  0  0  0
 26 27  1  0  0  0  0
 26120  1  0  0  0  0
 27 28  1  0  0  0  0
 27121  1  0  0  0  0
 27122  1  0  0  0  0
 28 29  2  0  0  0  0
 28 30  1  0  0  0  0
 30123  1  0  0  0  0
 31 30  1  0  0  0  0
 31 32  1  0  0  0  0
 31 36  1  0  0  0  0
 31124  1  6  0  0  0
 32 33  1  0  0  0  0
 32125  1  0  0  0  0
 32126  1  0  0  0  0
 33 34  1  0  0  0  0
 33 35  1  0  0  0  0
 33127  1  0  0  0  0
 34128  1  0  0  0  0
 34129  1  0  0  0  0
 34130  1  0  0  0  0
 35131  1  0  0  0  0
 35132  1  0  0  0  0
 35133  1  0  0  0  0
 36 37  2  0  0  0  0
 36 38  1  0  0  0  0
 38134  1  0  0  0  0
 39 38  1  0  0  0  0
 39 40  1  0  0  0  0
 39 43  1  0  0  0  0
 39135  1  6  0  0  0
 40 41  1  0  0  0  0
 40 42  1  0  0  0  0
 40136  1  0  0  0  0
 41137  1  0  0  0  0
 41138  1  0  0  0  0
 41139  1  0  0  0  0
 42140  1  0  0  0  0
 42141  1  0  0  0  0
 42142  1  0  0  0  0
 43 44  2  0  0  0  0
 43 45  1  0  0  0  0
 45143  1  0  0  0  0
 46 47  1  0  0  0  0
 46144  1  0  0  0  0
 47 48  2  0  0  0  0
 49 47  1  0  0  0  0
 49 50  1  0  0  0  0
 49 53  1  0  0  0  0
 49145  1  1  0  0  0
 50 51  1  0  0  0  0
 50146  1  0  0  0  0
 50147  1  0  0  0  0
 51 52  1  0  0  0  0
 51148  1  0  0  0  0
 51149  1  0  0  0  0
 52 53  1  0  0  0  0
 52150  1  0  0  0  0
 52151  1  0  0  0  0
 53 54  1  0  0  0  0
 54 55  2  0  0  0  0
 56 62  1  0  0  0  0
 56152  1  6  0  0  0
 56 57  1  0  0  0  0
 56 54  1  0  0  0  0
 57 58  1  0  0  0  0
 57153  1  0  0  0  0
 57154  1  0  0  0  0
 58 59  1  0  0  0  0
 58155  1  0  0  0  0
 58156  1  0  0  0  0
 59 60  1  0  0  0  0
 59157  1  0  0  0  0
 59158  1  0  0  0  0
 60 61  1  0  0  0  0
 60159  1  0  0  0  0
 60160  1  0  0  0  0
 61161  1  0  0  0  0
 61162  1  0  0  0  0
 62 63  1  0  0  0  0
 62163  1  0  0  0  0
 63 64  2  0  0  0  0
 63 65  1  0  0  0  0
 65 66  1  0  0  0  0
 65164  1  0  0  0  0
 65165  1  0  0  0  0
 66 67  1  0  0  0  0
 66166  1  0  0  0  0
 67 68  2  0  0  0  0
 69 67  1  0  0  0  0
 69 70  1  0  0  0  0
 69 73  1  0  0  0  0
 69167  1  6  0  0  0
 70 71  1  0  0  0  0
 70168  1  0  0  0  0
 70169  1  0  0  0  0
 71 72  1  0  0  0  0
 71170  1  0  0  0  0
 71171  1  0  0  0  0
 72 73  1  0  0  0  0
 72172  1  0  0  0  0
 72173  1  0  0  0  0
 73 74  1  0  0  0  0
 74 75  2  0  0  0  0
 76 74  1  0  0  0  0
 76 77  1  0  0  0  0
 76 80  1  0  0  0  0
 76174  1  1  0  0  0
 77 78  1  0  0  0  0
 77175  1  0  0  0  0
 77176  1  0  0  0  0
 78 79  1  0  0  0  0
 78177  1  0  0  0  0
 78178  1  0  0  0  0
 79 80  1  0  0  0  0
 79179  1  0  0  0  0
 79180  1  0  0  0  0
 80 81  1  0  0  0  0
 81 82  2  0  0  0  0
 83 81  1  0  0  0  0
 83 84  1  0  0  0  0
 83 87  1  0  0  0  0
 83181  1  6  0  0  0
 84 85  1  0  0  0  0
 84182  1  0  0  0  0
 84183  1  0  0  0  0
 85 86  1  0  0  0  0
 85184  1  0  0  0  0
 85185  1  0  0  0  0
 86 87  1  0  0  0  0
 86186  1  0  0  0  0
 86187  1  0  0  0  0
 87 88  1  0  0  0  0
 88 89  2  0  0  0  0
 90 96  1  0  0  0  0
 90188  1  1  0  0  0
 90 91  1  0  0  0  0
 90 88  1  0  0  0  0
 91 92  1  0  0  0  0
 91189  1  0  0  0  0
 91190  1  0  0  0  0
 92 93  1  0  0  0  0
 92191  1  0  0  0  0
 92192  1  0  0  0  0
 93 94  2  0  0  0  0
 93 95  1  0  0  0  0
 95193  1  0  0  0  0
 96 97  1  0  0  0  0
 96194  1  0  0  0  0
 97 98  2  0  0  0  0
 97 99  1  0  0  0  0
 99100  1  0  0  0  0
 99195  1  0  0  0  0
 99196  1  0  0  0  0
100197  1  0  0  0  0
100198  1  0  0  0  0
M  END
>  <DRUGBANK_ID>
DB11882

>  <COMMON_NAME>
BPC-157

>  <CAS_NUMBER>
137525-51-0

>  <UNII>
8ED8NXK95P

>  <SYNONYMS>
Bepecin

$$$$
