
 OpenBabel10282417123D

 98102  0  0  1  0  0  0  0  0999 V2000
    7.3250    4.0855    5.6231 C   0  0  0  0  0  0  0  0  0  0  0  0
    7.3447    3.5105    4.2476 C   0  0  0  0  0  0  0  0  0  0  0  0
    8.6512    4.0564    3.7370 C   0  0  0  0  0  0  0  0  0  0  0  0
    7.2375    1.9611    4.1539 C   0  0  0  0  0  0  0  0  0  0  0  0
    5.8848    1.2917    4.4517 C   0  0  0  0  0  0  0  0  0  0  0  0
    5.1087    0.8867    3.5974 O   0  0  0  0  0  0  0  0  0  0  0  0
    5.5999    1.1735    5.7545 O   0  0  0  0  0  0  0  0  0  0  0  0
    4.1976    1.1199    6.1774 C   0  0  1  0  0  0  0  0  0  0  0  0
    3.9355   -0.3884    6.1473 C   0  0  1  0  0  0  0  0  0  0  0  0
    4.7688   -0.8133    7.1732 O   0  0  0  0  0  0  0  0  0  0  0  0
    4.5486   -0.2238    8.6402 C   0  0  2  0  0  0  0  0  0  0  0  0
    2.8562   -0.5962    9.9036 C   0  0  0  0  0  0  0  0  0  0  0  0
    2.9469   -0.4298   11.5712 C   0  0  2  0  0  0  0  0  0  0  0  0
    3.0712    1.3635   11.8476 C   0  0  0  0  0  0  0  0  0  0  0  0
    1.7131   -1.3795   12.2852 C   0  0  1  0  0  0  0  0  0  0  0  0
    0.5188   -2.8848   11.9620 C   0  0  0  0  0  0  0  0  0  0  0  0
    0.9940   -4.3080   13.2156 C   0  0  0  0  0  0  0  0  0  0  0  0
    1.1485   -3.3902   14.3680 C   0  0  2  0  0  0  0  0  0  0  0  0
    1.5346   -2.4032   13.4616 C   0  0  0  0  0  0  0  0  0  0  0  0
    2.8881   -1.9402   13.3795 C   0  0  2  0  0  0  0  0  0  0  0  0
    3.8256   -3.0159   12.7055 C   0  0  0  0  0  0  0  0  0  0  0  0
    3.8960   -2.7314   11.3160 C   0  0  0  0  0  0  0  0  0  0  0  0
    4.4122   -1.2779   11.8165 C   0  0  1  0  0  0  0  0  0  0  0  0
    6.2042   -0.9342   11.0970 C   0  0  0  0  0  0  0  0  0  0  0  0
    6.2580    0.0139    9.5467 C   0  0  0  0  0  0  0  0  0  0  0  0
    6.5606   -1.2400   12.5135 C   0  0  0  0  0  0  0  0  0  0  0  0
    6.6471   -0.1694   13.2950 O   0  0  0  0  0  0  0  0  0  0  0  0
    6.6595   -2.4120   12.8707 O   0  0  0  0  0  0  0  0  0  0  0  0
    7.5738   -1.4832   10.6380 C   0  0  0  0  0  0  0  0  0  0  0  0
    7.8313   -1.8460    9.3686 O   0  0  0  0  0  0  0  0  0  0  0  0
    8.5610   -1.2486   11.3439 O   0  0  0  0  0  0  0  0  0  0  0  0
    3.2596   -2.1690   14.8060 C   0  0  1  0  0  0  0  0  0  0  0  0
    3.2211   -1.1923   15.8013 O   0  0  0  0  0  0  0  0  0  0  0  0
    2.3288   -3.3170   15.2305 C   0  0  0  0  0  0  0  0  0  0  0  0
    1.8065   -3.3286   16.4503 C   0  0  0  0  0  0  0  0  0  0  0  0
    2.7008   -0.9772    6.4137 O   0  0  0  0  0  0  0  0  0  0  0  0
    2.6042   -0.9239    7.8002 C   0  0  1  0  0  0  0  0  0  0  0  0
    3.7558   -2.1861    8.6906 C   0  0  0  0  0  0  0  0  0  0  0  0
    4.7923   -1.5265    9.8775 O   0  0  0  0  0  0  0  0  0  0  0  0
    4.6477    0.4825   10.3287 O   0  0  0  0  0  0  0  0  0  0  0  0
    2.7233    0.9397    8.1687 C   0  0  2  0  0  0  0  0  0  0  0  0
    1.4974    1.6146    8.0182 O   0  0  0  0  0  0  0  0  0  0  0  0
    0.9092    2.4706    9.3015 S   0  0  0  0  0  0  0  0  0  0  0  0
    0.6667    1.3589   10.4301 O   0  0  0  0  0  0  0  0  0  0  0  0
    1.9122    3.3860    9.7973 O   0  0  0  0  0  0  0  0  0  0  0  0
   -0.4345    2.8561    8.9731 O   0  0  0  0  0  0  0  0  0  0  0  0
    4.0039    1.6865    7.6158 C   0  0  2  0  0  0  0  0  0  0  0  0
    4.2616    2.9404    8.2938 O   0  0  0  0  0  0  0  0  0  0  0  0
    5.8048    3.4808    8.1675 S   0  0  0  0  0  0  0  0  0  0  0  0
    6.8531    2.8405    9.1965 O   0  0  0  0  0  0  0  0  0  0  0  0
    6.2458    2.7345    7.0451 O   0  0  0  0  0  0  0  0  0  0  0  0
    5.8464    4.9137    8.2580 O   0  0  0  0  0  0  0  0  0  0  0  0
    7.9685    3.4695    6.2855 H   0  0  0  0  0  0  0  0  0  0  0  0
    6.2463    4.1404    5.7646 H   0  0  0  0  0  0  0  0  0  0  0  0
    7.5742    5.1195    5.8553 H   0  0  0  0  0  0  0  0  0  0  0  0
    6.4874    3.9436    3.7220 H   0  0  0  0  0  0  0  0  0  0  0  0
    9.4873    3.6173    4.2951 H   0  0  0  0  0  0  0  0  0  0  0  0
    8.7519    3.8654    2.6760 H   0  0  0  0  0  0  0  0  0  0  0  0
    8.6761    5.1410    3.9159 H   0  0  0  0  0  0  0  0  0  0  0  0
    7.4026    1.7204    3.0963 H   0  0  0  0  0  0  0  0  0  0  0  0
    8.0469    1.4602    4.7003 H   0  0  0  0  0  0  0  0  0  0  0  0
    3.5185    1.6696    5.5580 H   0  0  0  0  0  0  0  0  0  0  0  0
    4.2771   -0.8323    5.2132 H   0  0  0  0  0  0  0  0  0  0  0  0
    5.3409   -0.9603    8.4394 H   0  0  0  0  0  0  0  0  0  0  0  0
    2.0605    0.1052   10.0702 H   0  0  0  0  0  0  0  0  0  0  0  0
    2.0218   -1.3770    9.7686 H   0  0  0  0  0  0  0  0  0  0  0  0
    3.4080    1.9084   10.9292 H   0  0  0  0  0  0  0  0  0  0  0  0
    2.1767    1.9600   12.0692 H   0  0  0  0  0  0  0  0  0  0  0  0
    3.8823    1.6716   12.5220 H   0  0  0  0  0  0  0  0  0  0  0  0
    1.5374   -0.4834   13.1039 H   0  0  0  0  0  0  0  0  0  0  0  0
   -0.5695   -3.0111   12.4265 H   0  0  0  0  0  0  0  0  0  0  0  0
    0.4917   -3.6928   11.0950 H   0  0  0  0  0  0  0  0  0  0  0  0
    0.3643   -5.1367   13.5136 H   0  0  0  0  0  0  0  0  0  0  0  0
    2.0017   -4.7731   13.0413 H   0  0  0  0  0  0  0  0  0  0  0  0
    0.2120   -2.9285   14.7136 H   0  0  0  0  0  0  0  0  0  0  0  0
    0.4152   -1.6925   13.3677 H   0  0  0  0  0  0  0  0  0  0  0  0
    2.0043   -3.0460   12.4160 H   0  0  0  0  0  0  0  0  0  0  0  0
    3.7562   -4.0718   12.8449 H   0  0  0  0  0  0  0  0  0  0  0  0
    4.7824   -2.7515   13.0530 H   0  0  0  0  0  0  0  0  0  0  0  0
    2.9500   -2.8266   10.7068 H   0  0  0  0  0  0  0  0  0  0  0  0
    4.6298   -3.3310   10.7918 H   0  0  0  0  0  0  0  0  0  0  0  0
    4.0931   -0.7477   11.0818 H   0  0  0  0  0  0  0  0  0  0  0  0
    6.8368    0.4144    8.6964 H   0  0  0  0  0  0  0  0  0  0  0  0
    6.6345    0.8712   10.0875 H   0  0  0  0  0  0  0  0  0  0  0  0
    6.9852    0.5430   12.7262 H   0  0  0  0  0  0  0  0  0  0  0  0
    7.2903   -1.5841    8.5972 H   0  0  0  0  0  0  0  0  0  0  0  0
    4.3369   -2.3903   14.7909 H   0  0  0  0  0  0  0  0  0  0  0  0
    3.5416   -1.7396   16.5569 H   0  0  0  0  0  0  0  0  0  0  0  0
    1.3603   -2.3457   16.6767 H   0  0  0  0  0  0  0  0  0  0  0  0
    2.4786   -3.6996   17.1917 H   0  0  0  0  0  0  0  0  0  0  0  0
    1.6066   -1.2951    8.0651 H   0  0  0  0  0  0  0  0  0  0  0  0
    3.6794   -3.2204    8.3212 H   0  0  0  0  0  0  0  0  0  0  0  0
    4.7692   -2.5273    8.3671 H   0  0  0  0  0  0  0  0  0  0  0  0
    4.9567    0.5726   11.2751 H   0  0  0  0  0  0  0  0  0  0  0  0
    2.9477    1.1823    9.1970 H   0  0  0  0  0  0  0  0  0  0  0  0
    0.3305    0.5646    9.9747 H   0  0  0  0  0  0  0  0  0  0  0  0
    4.9531    1.3514    8.0172 H   0  0  0  0  0  0  0  0  0  0  0  0
    6.7576    3.0351   10.1249 H   0  0  0  0  0  0  0  0  0  0  0  0
  1  2  1  0  0  0  0
  1 53  1  0  0  0  0
  1 54  1  0  0  0  0
  1 55  1  0  0  0  0
  2  3  1  0  0  0  0
  2  4  1  0  0  0  0
  2 56  1  0  0  0  0
  3 57  1  0  0  0  0
  3 58  1  0  0  0  0
  3 59  1  0  0  0  0
  4  5  1  0  0  0  0
  4 60  1  0  0  0  0
  4 61  1  0  0  0  0
  5  6  2  0  0  0  0
  5  7  1  0  0  0  0
  8  7  1  0  0  0  0
  8  9  1  0  0  0  0
  8 47  1  0  0  0  0
  8 62  1  6  0  0  0
  9 36  1  0  0  0  0
  9 63  1  6  0  0  0
  9 10  1  0  0  0  0
 11 12  1  0  0  0  0
 11 25  1  0  0  0  0
 11 10  1  0  0  0  0
 11 64  1  1  0  0  0
 12 13  1  0  0  0  0
 12 65  1  0  0  0  0
 12 66  1  0  0  0  0
 13 15  1  0  0  0  0
 13 23  1  0  0  0  0
 13 14  1  6  0  0  0
 14 67  1  0  0  0  0
 14 68  1  0  0  0  0
 14 69  1  0  0  0  0
 15 16  1  0  0  0  0
 15 20  1  0  0  0  0
 15 70  1  1  0  0  0
 16 17  1  0  0  0  0
 16 71  1  0  0  0  0
 16 72  1  0  0  0  0
 17 18  1  0  0  0  0
 17 73  1  0  0  0  0
 17 74  1  0  0  0  0
 18 19  1  0  0  0  0
 18 34  1  0  0  0  0
 18 75  1  1  0  0  0
 19 76  1  0  0  0  0
 19 77  1  0  0  0  0
 20 19  1  6  0  0  0
 20 21  1  0  0  0  0
 20 32  1  0  0  0  0
 21 22  1  0  0  0  0
 21 78  1  0  0  0  0
 21 79  1  0  0  0  0
 22 23  1  0  0  0  0
 22 80  1  0  0  0  0
 22 81  1  0  0  0  0
 23 24  1  0  0  0  0
 23 82  1  1  0  0  0
 24 25  1  0  0  0  0
 24 26  1  0  0  0  0
 24 29  1  0  0  0  0
 25 83  1  0  0  0  0
 25 84  1  0  0  0  0
 26 27  1  0  0  0  0
 26 28  2  0  0  0  0
 27 85  1  0  0  0  0
 29 30  1  0  0  0  0
 29 31  2  0  0  0  0
 30 86  1  0  0  0  0
 32 34  1  0  0  0  0
 32 33  1  0  0  0  0
 32 87  1  6  0  0  0
 33 88  1  0  0  0  0
 34 35  2  0  0  0  0
 35 89  1  0  0  0  0
 35 90  1  0  0  0  0
 36 37  1  0  0  0  0
 37 38  1  0  0  0  0
 37 41  1  0  0  0  0
 37 91  1  1  0  0  0
 38 39  1  0  0  0  0
 38 92  1  0  0  0  0
 38 93  1  0  0  0  0
 39 40  1  0  0  0  0
 40 94  1  0  0  0  0
 41 47  1  0  0  0  0
 41 95  1  1  0  0  0
 41 42  1  0  0  0  0
 42 43  1  0  0  0  0
 43 44  1  0  0  0  0
 43 45  2  0  0  0  0
 43 46  2  0  0  0  0
 44 96  1  0  0  0  0
 47 97  1  1  0  0  0
 47 48  1  0  0  0  0
 48 49  1  0  0  0  0
 49 50  1  0  0  0  0
 49 51  2  0  0  0  0
 49 52  2  0  0  0  0
 50 98  1  0  0  0  0
M  END
>  <DRUGBANK_ID>
DB02426

>  <SECONDARY_ACCESSION_NUMBERS>
EXPT01071

>  <COMMON_NAME>
Carboxyatractyloside

>  <CAS_NUMBER>
33286-30-5

>  <UNII>
PH9ATM6F5U

$$$$
