
 OpenBabel10282417173D

 60 62  0  0  0  0  0  0  0  0999 V2000
    0.0252   -0.1373    0.3858 C   0  0  0  0  0  0  0  0  0  0  0  0
    0.6961    0.5420   -2.6680 C   0  0  0  0  0  0  0  0  0  0  0  0
   -0.0531   -1.6633    0.2529 C   0  0  0  0  0  0  0  0  0  0  0  0
    4.0383    1.7295    1.5921 C   0  0  0  0  0  0  0  0  0  0  0  0
    1.8547    0.3305   -8.2724 C   0  0  0  0  0  0  0  0  0  0  0  0
    4.9480    0.6655    1.5766 C   0  0  0  0  0  0  0  0  0  0  0  0
    2.7178    1.4399    1.9113 C   0  0  0  0  0  0  0  0  0  0  0  0
    1.7378   -0.6640   -7.2993 C   0  0  0  0  0  0  0  0  0  0  0  0
    1.9743    1.6809   -7.9284 C   0  0  0  0  0  0  0  0  0  0  0  0
    4.5113   -0.6977    1.7419 C   0  0  0  0  0  0  0  0  0  0  0  0
    2.3246    0.1090    2.2567 C   0  0  0  0  0  0  0  0  0  0  0  0
    1.6841   -0.2899   -5.9695 C   0  0  0  0  0  0  0  0  0  0  0  0
    2.0120    2.0527   -6.6145 C   0  0  0  0  0  0  0  0  0  0  0  0
    4.7962   -0.5484   -1.9819 C   0  0  0  0  0  0  0  0  0  0  0  0
    2.9470    0.0665   -0.8455 C   0  0  0  0  0  0  0  0  0  0  0  0
    4.0746   -1.8516   -2.4621 C   0  0  0  0  0  0  0  0  0  0  0  0
    2.2908   -1.2281   -1.3095 C   0  0  0  0  0  0  0  0  0  0  0  0
    3.2087    1.5263   -2.5113 C   0  0  0  0  0  0  0  0  0  0  0  0
    3.2222   -2.9913   -0.2048 C   0  0  0  0  0  0  0  0  0  0  0  0
    2.0575    0.8589   -3.2826 C   0  0  3  0  0  0  0  0  0  0  0  0
    3.1311   -1.0041    1.9284 C   0  0  0  0  0  0  0  0  0  0  0  0
    1.7718    1.0881   -5.6696 C   0  0  0  0  0  0  0  0  0  0  0  0
    2.4329   -2.3348    1.2419 C   0  0  3  0  0  0  0  0  0  0  0  0
    1.5938    1.6692   -4.3651 C   0  0  0  0  0  0  0  0  0  0  0  0
    3.9712    0.6305   -1.6376 N   0  0  0  0  0  0  0  0  0  0  0  0
    3.0510   -2.3860   -1.5526 N   0  0  0  0  0  0  0  0  0  0  0  0
    0.9823    2.7540   -4.1823 O   0  0  0  0  0  0  0  0  0  0  0  0
    0.8609   -2.3627    1.2213 O   0  0  0  0  0  0  0  0  0  0  0  0
   -0.3919    0.3069    1.2806 H   0  0  0  0  0  0  0  0  0  0  0  0
   -0.2695    0.5380   -0.4151 H   0  0  0  0  0  0  0  0  0  0  0  0
    1.0634    0.0390    0.4869 H   0  0  0  0  0  0  0  0  0  0  0  0
   -0.0523    1.3231   -2.5519 H   0  0  0  0  0  0  0  0  0  0  0  0
    0.2202   -0.3608   -3.0869 H   0  0  0  0  0  0  0  0  0  0  0  0
    0.9075    0.3529   -1.6617 H   0  0  0  0  0  0  0  0  0  0  0  0
   -1.1076   -1.9247    0.3739 H   0  0  0  0  0  0  0  0  0  0  0  0
    0.1228   -2.0684   -0.7622 H   0  0  0  0  0  0  0  0  0  0  0  0
    4.3113    2.7134    1.1982 H   0  0  0  0  0  0  0  0  0  0  0  0
    1.8549    0.0584   -9.3202 H   0  0  0  0  0  0  0  0  0  0  0  0
    5.9338    0.8708    1.1532 H   0  0  0  0  0  0  0  0  0  0  0  0
    1.9542    2.1773    1.6213 H   0  0  0  0  0  0  0  0  0  0  0  0
    1.6459   -1.7095   -7.5845 H   0  0  0  0  0  0  0  0  0  0  0  0
    2.0081    2.4648   -8.6711 H   0  0  0  0  0  0  0  0  0  0  0  0
    5.1981   -1.4612    1.3802 H   0  0  0  0  0  0  0  0  0  0  0  0
    1.2741   -0.0689    2.4563 H   0  0  0  0  0  0  0  0  0  0  0  0
    1.5584   -1.0691   -5.2158 H   0  0  0  0  0  0  0  0  0  0  0  0
    2.1737    3.0775   -6.2875 H   0  0  0  0  0  0  0  0  0  0  0  0
    5.6120   -0.2449   -2.6256 H   0  0  0  0  0  0  0  0  0  0  0  0
    5.2751   -0.8804   -1.0415 H   0  0  0  0  0  0  0  0  0  0  0  0
    3.4773   -0.2385   -0.0093 H   0  0  0  0  0  0  0  0  0  0  0  0
    2.2983    0.8661   -0.4837 H   0  0  0  0  0  0  0  0  0  0  0  0
    3.5417   -1.5730   -3.3829 H   0  0  0  0  0  0  0  0  0  0  0  0
    4.7497   -2.6283   -2.8045 H   0  0  0  0  0  0  0  0  0  0  0  0
    1.5608   -1.2978   -2.0882 H   0  0  0  0  0  0  0  0  0  0  0  0
    1.7695   -1.4435   -0.4542 H   0  0  0  0  0  0  0  0  0  0  0  0
    2.7514    2.3126   -1.8746 H   0  0  0  0  0  0  0  0  0  0  0  0
    3.9187    2.0669   -3.1327 H   0  0  0  0  0  0  0  0  0  0  0  0
    4.2893   -3.1245   -0.0372 H   0  0  0  0  0  0  0  0  0  0  0  0
    2.7556   -3.9835   -0.3295 H   0  0  0  0  0  0  0  0  0  0  0  0
    2.5116   -0.0370   -3.6852 H   0  0  0  0  0  0  0  0  0  0  0  0
    2.6537   -3.1270    1.9713 H   0  0  0  0  0  0  0  0  0  0  0  0
  1 29  1  0  0  0  0
  1 30  1  0  0  0  0
  1 31  1  0  0  0  0
  2 32  1  0  0  0  0
  2 33  1  0  0  0  0
  2 34  1  0  0  0  0
  3  1  1  0  0  0  0
  3 35  1  0  0  0  0
  3 36  1  0  0  0  0
  4 37  1  0  0  0  0
  5 38  1  0  0  0  0
  6  4  2  0  0  0  0
  6 39  1  0  0  0  0
  7  4  1  0  0  0  0
  7 40  1  0  0  0  0
  8  5  2  0  0  0  0
  8 41  1  0  0  0  0
  9  5  1  0  0  0  0
  9 42  1  0  0  0  0
 10  6  1  0  0  0  0
 10 43  1  0  0  0  0
 11  7  2  0  0  0  0
 11 44  1  0  0  0  0
 12  8  1  0  0  0  0
 12 45  1  0  0  0  0
 13  9  2  0  0  0  0
 13 46  1  0  0  0  0
 14 47  1  0  0  0  0
 14 48  1  0  0  0  0
 15 49  1  0  0  0  0
 15 50  1  0  0  0  0
 16 14  1  0  0  0  0
 16 51  1  0  0  0  0
 16 52  1  0  0  0  0
 17 15  1  0  0  0  0
 17 53  1  0  0  0  0
 17 54  1  0  0  0  0
 18 55  1  0  0  0  0
 18 56  1  0  0  0  0
 19 57  1  0  0  0  0
 19 58  1  0  0  0  0
 20  2  1  0  0  0  0
 20 18  1  0  0  0  0
 20 59  1  0  0  0  0
 21 10  2  0  0  0  0
 21 11  1  0  0  0  0
 22 12  2  0  0  0  0
 22 13  1  0  0  0  0
 23 19  1  0  0  0  0
 23 21  1  0  0  0  0
 23 60  1  0  0  0  0
 24 20  1  0  0  0  0
 24 22  1  0  0  0  0
 25 14  1  0  0  0  0
 25 15  1  0  0  0  0
 25 18  1  0  0  0  0
 26 16  1  0  0  0  0
 26 17  1  0  0  0  0
 26 19  1  0  0  0  0
 27 24  2  0  0  0  0
 28  3  1  0  0  0  0
 28 23  1  0  0  0  0
M  END
>  <DRUGBANK_ID>
DB08990

>  <COMMON_NAME>
Eprazinone

>  <CAS_NUMBER>
10402-90-1

>  <UNII>
883YNL63WU

>  <SYNONYMS>
eprazinona; Eprazinone; Ã‰prazinone

$$$$
