
 OpenBabel10282417203D

 32 34  0  0  0  0  0  0  0  0999 V2000
    1.0147   -0.0963    0.0039 C   0  0  0  0  0  0  0  0  0  0  0  0
    2.1014    6.6842   -6.9614 C   0  0  0  0  0  0  0  0  0  0  0  0
    1.7163    6.3443   -5.6861 C   0  0  0  0  0  0  0  0  0  0  0  0
    1.4933    0.6219   -2.8295 C   0  0  0  0  0  0  0  0  0  0  0  0
    1.9056    0.9892   -4.1263 C   0  0  0  0  0  0  0  0  0  0  0  0
    2.5188    5.6561   -7.7909 C   0  0  0  0  0  0  0  0  0  0  0  0
    1.0218    2.8996   -2.3006 C   0  0  0  0  0  0  0  0  0  0  0  0
    1.3041    4.6928   -3.9294 C   0  0  0  0  0  0  0  0  0  0  0  0
    0.5079    1.2408   -0.5183 C   0  0  3  0  0  0  0  0  0  0  0  0
    1.0372    1.5729   -1.9025 C   0  0  0  0  0  0  0  0  0  0  0  0
    1.7603    5.0067   -5.2935 C   0  0  0  0  0  0  0  0  0  0  0  0
    1.4217    3.2611   -3.5908 C   0  0  0  0  0  0  0  0  0  0  0  0
    1.8647    2.3256   -4.5221 C   0  0  0  0  0  0  0  0  0  0  0  0
    2.1914    4.0249   -6.1728 C   0  0  0  0  0  0  0  0  0  0  0  0
   -1.0097    1.2873   -0.4741 C   0  0  0  0  0  0  0  0  0  0  0  0
    2.5757    4.3396   -7.4335 N   0  0  0  0  0  0  0  0  0  0  0  0
   -1.6849    2.0477    0.2144 O   0  0  0  0  0  0  0  0  0  0  0  0
   -1.6063    0.4006   -1.2940 O   0  0  0  0  0  0  0  0  0  0  0  0
    2.2448    2.6776   -5.8076 O   0  0  0  0  0  0  0  0  0  0  0  0
    0.6602   -0.9250   -0.6177 H   0  0  0  0  0  0  0  0  0  0  0  0
    0.6639   -0.2860    1.0216 H   0  0  0  0  0  0  0  0  0  0  0  0
    2.1104   -0.1128    0.0032 H   0  0  0  0  0  0  0  0  0  0  0  0
    2.0674    7.7185   -7.2831 H   0  0  0  0  0  0  0  0  0  0  0  0
    1.3718    7.0983   -4.9831 H   0  0  0  0  0  0  0  0  0  0  0  0
    1.5225   -0.4314   -2.5633 H   0  0  0  0  0  0  0  0  0  0  0  0
    2.2366    0.2080   -4.8061 H   0  0  0  0  0  0  0  0  0  0  0  0
    2.8288    5.8854   -8.8069 H   0  0  0  0  0  0  0  0  0  0  0  0
    0.6745    3.6787   -1.6219 H   0  0  0  0  0  0  0  0  0  0  0  0
    0.2473    4.9706   -3.8525 H   0  0  0  0  0  0  0  0  0  0  0  0
    1.9024    5.2695   -3.2163 H   0  0  0  0  0  0  0  0  0  0  0  0
    0.8669    2.0154    0.1779 H   0  0  0  0  0  0  0  0  0  0  0  0
   -2.5676    0.5635   -1.2021 H   0  0  0  0  0  0  0  0  0  0  0  0
  1 20  1  0  0  0  0
  1 21  1  0  0  0  0
  1 22  1  0  0  0  0
  2 23  1  0  0  0  0
  3  2  2  0  0  0  0
  3 24  1  0  0  0  0
  4 25  1  0  0  0  0
  5  4  2  0  0  0  0
  5 26  1  0  0  0  0
  6  2  1  0  0  0  0
  6 27  1  0  0  0  0
  7 28  1  0  0  0  0
  8 29  1  0  0  0  0
  8 30  1  0  0  0  0
  9  1  1  0  0  0  0
  9 31  1  0  0  0  0
 10  4  1  0  0  0  0
 10  7  2  0  0  0  0
 10  9  1  0  0  0  0
 11  3  1  0  0  0  0
 11  8  1  0  0  0  0
 12  7  1  0  0  0  0
 12  8  1  0  0  0  0
 13  5  1  0  0  0  0
 13 12  2  0  0  0  0
 14 11  2  0  0  0  0
 15  9  1  0  0  0  0
 16  6  2  0  0  0  0
 16 14  1  0  0  0  0
 17 15  2  0  0  0  0
 18 15  1  0  0  0  0
 18 32  1  0  0  0  0
 19 13  1  0  0  0  0
 19 14  1  0  0  0  0
M  END
>  <DRUGBANK_ID>
DB13514

>  <COMMON_NAME>
Pranoprofen

>  <CAS_NUMBER>
52549-17-4

>  <UNII>
2R7O1ET613

>  <SYNONYMS>
Pranoprofen

$$$$
