
 OpenBabel10282417133D

 31 34  0  0  0  0  0  0  0  0999 V2000
   -1.2843    0.4627    1.2712 C   0  0  0  0  0  0  0  0  0  0  0  0
    0.2357    0.4627    1.2712 C   0  0  0  0  0  0  0  0  0  0  0  0
    0.9159    0.9418    2.3475 C   0  0  0  0  0  0  0  0  0  0  0  0
    2.4359    0.9418    2.3475 C   0  0  0  0  0  0  0  0  0  0  0  0
    3.1536    1.3676    1.2387 C   0  0  0  0  0  0  0  0  0  0  0  0
    4.5179    1.4514    1.2716 C   0  0  0  0  0  0  0  0  0  0  0  0
    5.2020    1.1018    2.4500 C   0  0  0  0  0  0  0  0  0  0  0  0
    6.5274    1.1570    2.5628 C   0  0  0  0  0  0  0  0  0  0  0  0
    7.2665    0.8571    3.6055 C   0  0  0  0  0  0  0  0  0  0  0  0
    6.8916    0.4345    4.7796 C   0  0  0  0  0  0  0  0  0  0  0  0
    4.4426    0.6710    3.5683 C   0  0  0  0  0  0  0  0  0  0  0  0
    3.0980    0.5914    3.5239 C   0  0  0  0  0  0  0  0  0  0  0  0
    5.4017    0.2554    5.0000 N   0  0  0  0  0  0  0  0  0  0  0  0
    4.1963   -2.3349    3.6984 N   0  0  0  0  0  0  0  0  0  0  0  0
    7.9059   -1.6657    4.6533 C   0  0  0  0  0  0  0  0  0  0  0  0
    9.0729   -1.5260    4.3335 O   0  0  0  0  0  0  0  0  0  0  0  0
    4.8006   -1.6830    8.6023 O   0  0  0  0  0  0  0  0  0  0  0  0
    5.7311   -1.9259    5.2494 Re  0  3  0  0  0  0  0  0  0  0  0  0
    6.2485   -5.3530    5.6413 O   0  0  0  0  0  0  0  0  0  0  0  0
    5.1255   -1.7678    7.4314 C   0  0  0  0  0  0  0  0  0  0  0  0
    6.0678   -4.1562    5.5044 C   0  0  0  0  0  0  0  0  0  0  0  0
   -1.8193    0.8396    2.1178 H   0  0  0  0  0  0  0  0  0  0  0  0
   -0.8343    0.4627    1.2712 H   0  0  0  0  0  0  0  0  0  0  0  0
    0.3809    1.3187    3.1941 H   0  0  0  0  0  0  0  0  0  0  0  0
    2.6311    1.6344    0.3439 H   0  0  0  0  0  0  0  0  0  0  0  0
    5.0599    1.7796    0.4094 H   0  0  0  0  0  0  0  0  0  0  0  0
    7.0571    1.4875    1.6939 H   0  0  0  0  0  0  0  0  0  0  0  0
    8.3216    0.9761    3.4729 H   0  0  0  0  0  0  0  0  0  0  0  0
    7.6015    0.2238    5.5520 H   0  0  0  0  0  0  0  0  0  0  0  0
    4.9955   -0.0693    5.8774 H   0  0  0  0  0  0  0  0  0  0  0  0
    3.2191   -2.4518    3.9662 H   0  0  0  0  0  0  0  0  0  0  0  0
  1  2  1  0  0  0  0
  1 22  1  0  0  0  0
  2  3  2  0  0  0  0
  2 23  1  0  0  0  0
  3  4  1  0  0  0  0
  3 24  1  0  0  0  0
  4  5  1  0  0  0  0
  4 12  2  0  0  0  0
  5  6  2  0  0  0  0
  5 25  1  0  0  0  0
  6  7  1  0  0  0  0
  6 26  1  0  0  0  0
  7  8  1  0  0  0  0
  7 11  2  0  0  0  0
  8  9  2  0  0  0  0
  8 27  1  0  0  0  0
  9 10  1  0  0  0  0
  9 28  1  0  0  0  0
 10 13  2  0  0  0  0
 10 29  1  0  0  0  0
 11 12  1  0  0  0  0
 13 11  1  0  0  0  0
 13 30  1  0  0  0  0
 14  1  2  0  0  0  0
 14 12  1  0  0  0  0
 14 31  1  0  0  0  0
 16 15  3  0  0  0  0
 18 15  1  0  0  0  0
 18 20  1  0  0  0  0
 18 21  1  0  0  0  0
 18 14  1  0  0  0  0
 18 13  1  0  0  0  0
 20 17  3  0  0  0  0
 21 19  3  0  0  0  0
M  CHG  1  18   1
M  END
>  <DRUGBANK_ID>
DB04100

>  <SECONDARY_ACCESSION_NUMBERS>
EXPT02771

>  <COMMON_NAME>
Tricarbonyl(1,10-phenanthroline)rhenium(1+)

>  <SYNONYMS>
(1,10 phenanthroline)-(tri-carbon monoxide) rhenium (I); tricarbonyl(1,10-phenanthroline)rhenium(I)

$$$$
