
 OpenBabel10282417133D

 18 18  0  0  0  0  0  0  0  0999 V2000
   -0.6018   -1.2491   -0.0427 C   0  0  0  0  0  0  0  0  0  0  0  0
   -1.3267   -0.0506   -0.0212 C   0  0  0  0  0  0  0  0  0  0  0  0
    0.8029   -1.2255   -0.0293 C   0  0  0  0  0  0  0  0  0  0  0  0
   -1.2820   -2.5452   -0.0860 N   0  3  0  0  0  0  0  0  0  0  0  0
   -0.6425    1.1646   -0.0357 C   0  0  0  0  0  0  0  0  0  0  0  0
   -2.6906    0.0491    0.0248 O   0  0  0  0  0  0  0  0  0  0  0  0
    1.4872   -0.0035   -0.0052 C   0  0  0  0  0  0  0  0  0  0  0  0
   -2.5232   -2.5413   -0.0855 O   0  0  0  0  0  0  0  0  0  0  0  0
   -0.5854   -3.5703   -0.1221 O   0  5  0  0  0  0  0  0  0  0  0  0
    0.7546    1.1895   -0.0310 C   0  0  0  0  0  0  0  0  0  0  0  0
    2.9854    0.0336    0.0681 C   0  0  0  0  0  0  0  0  0  0  0  0
    1.3729   -2.1534   -0.0305 H   0  0  0  0  0  0  0  0  0  0  0  0
   -1.1992    2.0993   -0.0427 H   0  0  0  0  0  0  0  0  0  0  0  0
   -3.0890   -0.8461    0.0594 H   0  0  0  0  0  0  0  0  0  0  0  0
    1.2682    2.1496   -0.0356 H   0  0  0  0  0  0  0  0  0  0  0  0
    3.3980    0.5604   -0.7973 H   0  0  0  0  0  0  0  0  0  0  0  0
    3.3012    0.5395    0.9865 H   0  0  0  0  0  0  0  0  0  0  0  0
    3.4083   -0.9764    0.0831 H   0  0  0  0  0  0  0  0  0  0  0  0
  1  2  1  0  0  0  0
  1  3  2  0  0  0  0
  1  4  1  0  0  0  0
  2  5  2  0  0  0  0
  2  6  1  0  0  0  0
  3  7  1  0  0  0  0
  3 12  1  0  0  0  0
  4  8  2  0  0  0  0
  4  9  1  0  0  0  0
  5 10  1  0  0  0  0
  5 13  1  0  0  0  0
  6 14  1  0  0  0  0
  7 11  1  0  0  0  0
  7 10  2  0  0  0  0
 10 15  1  0  0  0  0
 11 16  1  0  0  0  0
 11 17  1  0  0  0  0
 11 18  1  0  0  0  0
M  CHG  2   4   1   9  -1
M  END
>  <DRUGBANK_ID>
DB04110

>  <SECONDARY_ACCESSION_NUMBERS>
EXPT02314

>  <COMMON_NAME>
2-Nitro-4-cresol

>  <CAS_NUMBER>
119-33-5

>  <UNII>
P92KPK2NL3

>  <SYNONYMS>
2-Nitro-4-methylphenol; 2-Nitro-P-cresol; o-Nitro-p-cresol

$$$$
