GPP
 OpenBabel10282417123D

 39 38  0  0  0  0  0  0  0  0999 V2000
    1.2214   -0.3315    0.1690 C   0  0  0  0  0  0  0  0  0  0  0  0
    1.1751   -0.0085    1.5739 O   0  0  0  0  0  0  0  0  0  0  0  0
    0.5601    0.6319   -0.8576 C   0  0  0  0  0  0  0  0  0  0  0  0
   -0.2841    0.3508   -1.8957 C   0  0  0  0  0  0  0  0  0  0  0  0
   -0.7819   -1.0376   -2.2007 C   0  0  0  0  0  0  0  0  0  0  0  0
   -0.7995    1.3877   -2.9310 C   0  0  0  0  0  0  0  0  0  0  0  0
   -1.7356    2.4775   -2.3739 C   0  0  0  0  0  0  0  0  0  0  0  0
   -1.0354    3.3594   -1.3901 C   0  0  0  0  0  0  0  0  0  0  0  0
   -0.7368    4.6767   -1.5502 C   0  0  0  0  0  0  0  0  0  0  0  0
    0.1228    5.3815   -0.5456 C   0  0  0  0  0  0  0  0  0  0  0  0
   -1.2618    5.4552   -2.7087 C   0  0  0  0  0  0  0  0  0  0  0  0
    0.5481   -0.9257    2.7786 P   0  0  1  0  0  0  0  0  0  0  0  0
   -0.4373   -0.2020    3.6497 O   0  0  0  0  0  0  0  0  0  0  0  0
   -0.2749   -2.0054    1.9147 O   0  0  0  0  0  0  0  0  0  0  0  0
    1.6088   -1.9062    3.6678 O   0  0  0  0  0  0  0  0  0  0  0  0
    2.5678   -1.0589    4.8320 P   0  0  0  0  0  0  0  0  0  0  0  0
    2.3562    0.2744    4.1460 O   0  0  0  0  0  0  0  0  0  0  0  0
    1.5099   -1.4348    5.9968 O   0  0  0  0  0  0  0  0  0  0  0  0
    3.5269   -0.2117    5.9962 O   0  0  0  0  0  0  0  0  0  0  0  0
    0.8786   -1.3459    0.0031 H   0  0  0  0  0  0  0  0  0  0  0  0
    2.2826   -0.2922   -0.0919 H   0  0  0  0  0  0  0  0  0  0  0  0
    0.9541    1.6503   -0.8207 H   0  0  0  0  0  0  0  0  0  0  0  0
   -1.8765   -1.0569   -2.2054 H   0  0  0  0  0  0  0  0  0  0  0  0
   -0.4241   -1.3670   -3.1837 H   0  0  0  0  0  0  0  0  0  0  0  0
   -0.4473   -1.7724   -1.4715 H   0  0  0  0  0  0  0  0  0  0  0  0
    0.0383    1.8436   -3.4792 H   0  0  0  0  0  0  0  0  0  0  0  0
   -1.3746    0.8677   -3.7181 H   0  0  0  0  0  0  0  0  0  0  0  0
   -2.1374    3.0557   -3.2166 H   0  0  0  0  0  0  0  0  0  0  0  0
   -2.6017    2.0150   -1.8877 H   0  0  0  0  0  0  0  0  0  0  0  0
   -0.7184    2.8857   -0.4724 H   0  0  0  0  0  0  0  0  0  0  0  0
    0.9899    5.8350   -1.0400 H   0  0  0  0  0  0  0  0  0  0  0  0
   -0.4463    6.1646   -0.0372 H   0  0  0  0  0  0  0  0  0  0  0  0
    0.5151    4.7001    0.2190 H   0  0  0  0  0  0  0  0  0  0  0  0
   -0.8759    5.0654   -3.6560 H   0  0  0  0  0  0  0  0  0  0  0  0
   -2.3568    5.3967   -2.7211 H   0  0  0  0  0  0  0  0  0  0  0  0
   -0.9947    6.5135   -2.6370 H   0  0  0  0  0  0  0  0  0  0  0  0
   -1.0352   -1.5357    1.5162 H   0  0  0  0  0  0  0  0  0  0  0  0
    0.6722   -1.7806    5.6359 H   0  0  0  0  0  0  0  0  0  0  0  0
    4.1219   -0.8190    6.4641 H   0  0  0  0  0  0  0  0  0  0  0  0
  1  2  1  0  0  0  0
  1  3  1  0  0  0  0
  1 20  1  0  0  0  0
  1 21  1  0  0  0  0
  3  4  2  0  0  0  0
  3 22  1  0  0  0  0
  4  5  1  0  0  0  0
  4  6  1  0  0  0  0
  5 23  1  0  0  0  0
  5 24  1  0  0  0  0
  5 25  1  0  0  0  0
  6  7  1  0  0  0  0
  6 26  1  0  0  0  0
  6 27  1  0  0  0  0
  7  8  1  0  0  0  0
  7 28  1  0  0  0  0
  7 29  1  0  0  0  0
  8  9  2  0  0  0  0
  8 30  1  0  0  0  0
  9 10  1  0  0  0  0
  9 11  1  0  0  0  0
 10 31  1  0  0  0  0
 10 32  1  0  0  0  0
 10 33  1  0  0  0  0
 11 34  1  0  0  0  0
 11 35  1  0  0  0  0
 11 36  1  0  0  0  0
 12  2  1  0  0  0  0
 12 13  2  1  0  0  0
 12 14  1  0  0  0  0
 12 15  1  0  0  0  0
 14 37  1  0  0  0  0
 15 16  1  0  0  0  0
 16 17  2  0  0  0  0
 16 18  1  0  0  0  0
 16 19  1  0  0  0  0
 18 38  1  0  0  0  0
 19 39  1  0  0  0  0
M  END
>  <DRUGBANK_ID>
DB02552

>  <SECONDARY_ACCESSION_NUMBERS>
EXPT01640

>  <COMMON_NAME>
Geranyl Diphosphate

>  <UNII>
7X7DBM66JG

$$$$
