
 OpenBabel10282417183D

 63 63  0  0  0  0  0  0  0  0999 V2000
   -1.4592    2.7702   -1.2619 C   0  0  2  0  0  0  0  0  0  0  0  0
    0.1144    3.0023   -1.2403 C   0  0  2  0  0  0  0  0  0  0  0  0
    0.2296    4.4446   -1.6632 C   0  0  0  0  0  0  0  0  0  0  0  0
   -1.0812    5.0434   -2.0471 C   0  0  0  0  0  0  0  0  0  0  0  0
   -2.0347    4.1971   -1.2362 C   0  0  1  0  0  0  0  0  0  0  0  0
    1.2977    5.0373   -1.7624 O   0  0  0  0  0  0  0  0  0  0  0  0
   -3.3543    4.2355   -1.7629 O   0  0  0  0  0  0  0  0  0  0  0  0
    1.0399    2.2435   -2.2526 C   0  0  0  0  0  0  0  0  0  0  0  0
    1.5286    0.9197   -1.7360 C   0  0  0  0  0  0  0  0  0  0  0  0
    0.3126    0.1123   -1.5315 C   0  0  0  0  0  0  0  0  0  0  0  0
   -0.6655   -0.0479   -2.7988 C   0  0  0  0  0  0  0  0  0  0  0  0
   -0.1220   -1.1445   -3.6648 C   0  0  0  0  0  0  0  0  0  0  0  0
   -0.6491   -2.3579   -3.9264 C   0  0  0  0  0  0  0  0  0  0  0  0
    0.2262   -3.3181   -4.6440 C   0  0  0  0  0  0  0  0  0  0  0  0
   -0.3494   -4.5307   -4.8262 O   0  0  0  0  0  0  0  0  0  0  0  0
   -2.1320    2.0211   -0.0796 C   0  0  0  0  0  0  0  0  0  0  0  0
   -2.1928    0.6893    0.0444 C   0  0  0  0  0  0  0  0  0  0  0  0
   -2.7037   -0.3190    1.0121 C   0  0  2  0  0  0  0  0  0  0  0  0
   -3.2326   -1.5510    0.2292 C   0  0  0  0  0  0  0  0  0  0  0  0
   -2.2362   -2.6552   -0.3060 C   0  0  2  0  0  0  0  0  0  0  0  0
   -1.5966   -3.6016    0.6764 C   0  0  0  0  0  0  0  0  0  0  0  0
   -2.6734   -4.1422    1.5386 C   0  0  0  0  0  0  0  0  0  0  0  0
   -3.7693   -4.7412    0.6529 C   0  0  0  0  0  0  0  0  0  0  0  0
   -3.2067   -5.8659   -0.2045 C   0  0  0  0  0  0  0  0  0  0  0  0
    1.3384   -3.0579   -5.0122 O   0  0  0  0  0  0  0  0  0  0  0  0
   -3.7787    0.2991    1.6893 O   0  0  0  0  0  0  0  0  0  0  0  0
   -0.9942   -2.1395   -0.8527 C   0  0  0  0  0  0  0  0  0  0  0  0
   -1.7730    2.3047   -2.2036 H   0  0  0  0  0  0  0  0  0  0  0  0
    0.4902    2.9091   -0.2154 H   0  0  0  0  0  0  0  0  0  0  0  0
   -1.1297    6.0920   -1.7548 H   0  0  0  0  0  0  0  0  0  0  0  0
   -1.2373    4.9332   -3.1236 H   0  0  0  0  0  0  0  0  0  0  0  0
   -2.0697    4.5690   -0.2048 H   0  0  0  0  0  0  0  0  0  0  0  0
   -3.3498    3.8888   -2.6715 H   0  0  0  0  0  0  0  0  0  0  0  0
    0.5265    2.1169   -3.2071 H   0  0  0  0  0  0  0  0  0  0  0  0
    1.9427    2.7969   -2.5129 H   0  0  0  0  0  0  0  0  0  0  0  0
    2.1913    0.3479   -2.3875 H   0  0  0  0  0  0  0  0  0  0  0  0
    2.0383    1.0340   -0.7659 H   0  0  0  0  0  0  0  0  0  0  0  0
    0.7259   -0.8161   -1.1459 H   0  0  0  0  0  0  0  0  0  0  0  0
   -0.0950    0.5976   -0.6489 H   0  0  0  0  0  0  0  0  0  0  0  0
   -1.7373   -0.2292   -2.5924 H   0  0  0  0  0  0  0  0  0  0  0  0
   -0.8107    0.8546   -3.3825 H   0  0  0  0  0  0  0  0  0  0  0  0
    0.8826   -0.9183   -4.0043 H   0  0  0  0  0  0  0  0  0  0  0  0
   -1.6059   -2.6977   -3.5476 H   0  0  0  0  0  0  0  0  0  0  0  0
   -1.2438   -4.6712   -4.4775 H   0  0  0  0  0  0  0  0  0  0  0  0
   -2.6403    2.6100    0.6792 H   0  0  0  0  0  0  0  0  0  0  0  0
   -1.8273    0.1455   -0.7779 H   0  0  0  0  0  0  0  0  0  0  0  0
   -1.9326   -0.6305    1.7290 H   0  0  0  0  0  0  0  0  0  0  0  0
   -4.0074   -2.0154    0.8398 H   0  0  0  0  0  0  0  0  0  0  0  0
   -3.7968   -1.1688   -0.6380 H   0  0  0  0  0  0  0  0  0  0  0  0
   -2.7336   -3.1660   -1.1491 H   0  0  0  0  0  0  0  0  0  0  0  0
   -1.0508   -4.3822    0.1171 H   0  0  0  0  0  0  0  0  0  0  0  0
   -0.8189   -3.1106    1.2774 H   0  0  0  0  0  0  0  0  0  0  0  0
   -2.2249   -4.8682    2.2128 H   0  0  0  0  0  0  0  0  0  0  0  0
   -3.0452   -3.3152    2.1524 H   0  0  0  0  0  0  0  0  0  0  0  0
   -4.5839   -5.0709    1.2917 H   0  0  0  0  0  0  0  0  0  0  0  0
   -4.2275   -4.0090   -0.0274 H   0  0  0  0  0  0  0  0  0  0  0  0
   -2.7280   -6.6048    0.4405 H   0  0  0  0  0  0  0  0  0  0  0  0
   -4.0002   -6.3296   -0.7891 H   0  0  0  0  0  0  0  0  0  0  0  0
   -2.4557   -5.5200   -0.9278 H   0  0  0  0  0  0  0  0  0  0  0  0
   -4.2651    0.7891    1.0021 H   0  0  0  0  0  0  0  0  0  0  0  0
   -0.2644   -2.8306   -1.2883 H   0  0  0  0  0  0  0  0  0  0  0  0
   -1.4283   -1.6061   -1.6442 H   0  0  0  0  0  0  0  0  0  0  0  0
   -0.5243   -1.5545   -0.0626 H   0  0  0  0  0  0  0  0  0  0  0  0
  1  2  1  0  0  0  0
  1  5  1  0  0  0  0
  1 28  1  6  0  0  0
  1 16  1  0  0  0  0
  2  3  1  0  0  0  0
  2 29  1  1  0  0  0
  2  8  1  0  0  0  0
  3  4  1  0  0  0  0
  3  6  2  0  0  0  0
  4  5  1  0  0  0  0
  4 30  1  0  0  0  0
  4 31  1  0  0  0  0
  5  7  1  0  0  0  0
  5 32  1  1  0  0  0
  7 33  1  0  0  0  0
  8  9  1  0  0  0  0
  8 34  1  0  0  0  0
  8 35  1  0  0  0  0
  9 10  1  0  0  0  0
  9 36  1  0  0  0  0
  9 37  1  0  0  0  0
 10 11  1  0  0  0  0
 10 38  1  0  0  0  0
 10 39  1  0  0  0  0
 11 12  1  0  0  0  0
 11 40  1  0  0  0  0
 11 41  1  0  0  0  0
 12 13  2  0  0  0  0
 12 42  1  0  0  0  0
 13 14  1  0  0  0  0
 13 43  1  0  0  0  0
 14 15  1  0  0  0  0
 14 25  2  0  0  0  0
 15 44  1  0  0  0  0
 16 17  2  0  0  0  0
 16 45  1  0  0  0  0
 17 46  1  0  0  0  0
 18 26  1  0  0  0  0
 18 47  1  1  0  0  0
 18 19  1  0  0  0  0
 18 17  1  0  0  0  0
 19 48  1  0  0  0  0
 19 49  1  0  0  0  0
 20 27  1  0  0  0  0
 20 50  1  6  0  0  0
 20 21  1  0  0  0  0
 20 19  1  0  0  0  0
 21 22  1  0  0  0  0
 21 51  1  0  0  0  0
 21 52  1  0  0  0  0
 22 23  1  0  0  0  0
 22 53  1  0  0  0  0
 22 54  1  0  0  0  0
 23 24  1  0  0  0  0
 23 55  1  0  0  0  0
 23 56  1  0  0  0  0
 24 57  1  0  0  0  0
 24 58  1  0  0  0  0
 24 59  1  0  0  0  0
 26 60  1  0  0  0  0
 27 61  1  0  0  0  0
 27 62  1  0  0  0  0
 27 63  1  0  0  0  0
M  END
>  <DRUGBANK_ID>
DB09211

>  <COMMON_NAME>
Limaprost

>  <CAS_NUMBER>
74397-12-9

>  <UNII>
L02U804092

>  <SYNONYMS>
Limaprost; Limaprost alfadex

$$$$
