
 OpenBabel10282417223D

 59 61  0  0  1  0  0  0  0  0999 V2000
   -1.9013   -4.9265    0.1795 C   0  0  0  0  0  0  0  0  0  0  0  0
   -0.7695   -3.9159    0.1887 C   0  0  0  0  0  0  0  0  0  0  0  0
    0.4979   -4.7298    0.0993 C   0  0  0  0  0  0  0  0  0  0  0  0
   -0.9326   -2.7265   -0.7536 C   0  0  0  0  0  0  0  0  0  0  0  0
   -1.6636   -1.4411   -0.1608 C   0  0  2  0  0  0  0  0  0  0  0  0
   -1.1228   -0.8761    1.1015 N   0  0  0  0  0  0  0  0  0  0  0  0
   -0.0719    0.1055    1.1728 C   0  0  0  0  0  0  0  0  0  0  0  0
    0.0427    0.2044    2.6819 C   0  0  0  0  0  0  0  0  0  0  0  0
    1.0277    0.8238    3.3862 O   0  0  0  0  0  0  0  0  0  0  0  0
    1.6565    1.8810    2.8110 C   0  0  0  0  0  0  0  0  0  0  0  0
    1.0469    2.9560    2.1502 C   0  0  0  0  0  0  0  0  0  0  0  0
   -0.6632    3.2190    2.0747 Cl  0  0  0  0  0  0  0  0  0  0  0  0
    1.8517    3.9234    1.5627 C   0  0  0  0  0  0  0  0  0  0  0  0
    3.2375    3.8621    1.7141 C   0  0  0  0  0  0  0  0  0  0  0  0
    3.8289    2.8293    2.4404 C   0  0  0  0  0  0  0  0  0  0  0  0
    3.0370    1.8352    2.9874 C   0  0  0  0  0  0  0  0  0  0  0  0
   -0.9054   -0.4599    3.3249 C   0  0  0  0  0  0  0  0  0  0  0  0
   -1.8600   -0.6126    2.2563 C   0  0  0  0  0  0  0  0  0  0  0  0
   -3.0731   -0.4750    2.4587 O   0  0  0  0  0  0  0  0  0  0  0  0
   -3.2093   -1.5691   -0.1242 C   0  0  0  0  0  0  0  0  0  0  0  0
   -3.8634   -0.9638   -0.9902 O   0  0  0  0  0  0  0  0  0  0  0  0
   -3.8877   -2.4029    0.7431 N   0  0  0  0  0  0  0  0  0  0  0  0
   -3.4377   -3.1576    1.8372 C   0  0  0  0  0  0  0  0  0  0  0  0
   -2.2849   -2.9712    2.4731 N   0  0  0  0  0  0  0  0  0  0  0  0
   -2.0729   -3.9673    3.3077 N   0  0  0  0  0  0  0  0  0  0  0  0
   -0.8574   -3.9327    4.1227 C   0  0  0  0  0  0  0  0  0  0  0  0
    0.5611   -3.7899    3.4553 C   0  0  1  0  0  0  0  0  0  0  0  0
    0.8662   -2.5962    2.7434 O   0  0  0  0  0  0  0  0  0  0  0  0
    1.6899   -3.8233    4.4897 C   0  0  0  0  0  0  0  0  0  0  0  0
    1.7266   -5.0509    5.1897 O   0  0  0  0  0  0  0  0  0  0  0  0
   -3.0640   -4.9038    3.1953 C   0  0  0  0  0  0  0  0  0  0  0  0
   -3.9902   -4.3838    2.2921 C   0  0  0  0  0  0  0  0  0  0  0  0
   -1.8579   -5.6774   -0.6002 H   0  0  0  0  0  0  0  0  0  0  0  0
   -2.8641   -4.4564    0.0295 H   0  0  0  0  0  0  0  0  0  0  0  0
   -1.8603   -5.4812    1.1232 H   0  0  0  0  0  0  0  0  0  0  0  0
   -0.6843   -3.4556    1.1450 H   0  0  0  0  0  0  0  0  0  0  0  0
    0.4608   -5.3944   -0.7603 H   0  0  0  0  0  0  0  0  0  0  0  0
    1.3824   -4.0939    0.0860 H   0  0  0  0  0  0  0  0  0  0  0  0
    0.5590   -5.3760    0.9842 H   0  0  0  0  0  0  0  0  0  0  0  0
    0.0702   -2.4091   -1.0643 H   0  0  0  0  0  0  0  0  0  0  0  0
   -1.4423   -3.0846   -1.6593 H   0  0  0  0  0  0  0  0  0  0  0  0
   -1.4540   -0.6720   -0.9251 H   0  0  0  0  0  0  0  0  0  0  0  0
    0.8361   -0.2115    0.6598 H   0  0  0  0  0  0  0  0  0  0  0  0
   -0.4807    1.0080    0.7148 H   0  0  0  0  0  0  0  0  0  0  0  0
    1.3995    4.7420    1.0101 H   0  0  0  0  0  0  0  0  0  0  0  0
    3.8571    4.6427    1.2859 H   0  0  0  0  0  0  0  0  0  0  0  0
    4.9037    2.7948    2.5840 H   0  0  0  0  0  0  0  0  0  0  0  0
    3.4768    1.0198    3.5592 H   0  0  0  0  0  0  0  0  0  0  0  0
   -1.0257   -0.7334    4.3543 H   0  0  0  0  0  0  0  0  0  0  0  0
   -4.8799   -2.4168    0.5601 H   0  0  0  0  0  0  0  0  0  0  0  0
   -1.0011   -3.1095    4.8308 H   0  0  0  0  0  0  0  0  0  0  0  0
   -0.8743   -4.8699    4.6845 H   0  0  0  0  0  0  0  0  0  0  0  0
    0.7115   -4.6320    2.7875 H   0  0  0  0  0  0  0  0  0  0  0  0
    0.1047   -2.3374    2.1997 H   0  0  0  0  0  0  0  0  0  0  0  0
    2.6571   -3.6850    3.9844 H   0  0  0  0  0  0  0  0  0  0  0  0
    1.5999   -2.9834    5.1904 H   0  0  0  0  0  0  0  0  0  0  0  0
    0.9142   -5.1190    5.7134 H   0  0  0  0  0  0  0  0  0  0  0  0
   -2.9612   -5.8924    3.6166 H   0  0  0  0  0  0  0  0  0  0  0  0
   -4.7807   -4.9331    1.7982 H   0  0  0  0  0  0  0  0  0  0  0  0
  1  2  1  0  0  0  0
  1 33  1  0  0  0  0
  1 34  1  0  0  0  0
  1 35  1  0  0  0  0
  2  3  1  0  0  0  0
  2  4  1  0  0  0  0
  2 36  1  0  0  0  0
  3 37  1  0  0  0  0
  3 38  1  0  0  0  0
  3 39  1  0  0  0  0
  4 40  1  0  0  0  0
  4 41  1  0  0  0  0
  5 20  1  0  0  0  0
  5 42  1  6  0  0  0
  5  6  1  0  0  0  0
  5  4  1  0  0  0  0
  6  7  1  0  0  0  0
  6 18  1  0  0  0  0
  7  8  1  0  0  0  0
  7 43  1  0  0  0  0
  7 44  1  0  0  0  0
  8  9  1  0  0  0  0
  8 17  2  0  0  0  0
  9 10  1  0  0  0  0
 10 11  2  0  0  0  0
 10 16  1  0  0  0  0
 11 12  1  0  0  0  0
 11 13  1  0  0  0  0
 13 14  2  0  0  0  0
 13 45  1  0  0  0  0
 14 15  1  0  0  0  0
 14 46  1  0  0  0  0
 15 16  2  0  0  0  0
 15 47  1  0  0  0  0
 16 48  1  0  0  0  0
 17 18  1  0  0  0  0
 17 49  1  0  0  0  0
 18 19  2  0  0  0  0
 20 21  2  0  0  0  0
 20 22  1  0  0  0  0
 22 23  1  0  0  0  0
 22 50  1  0  0  0  0
 23 24  2  0  0  0  0
 23 32  1  0  0  0  0
 24 25  1  0  0  0  0
 25 26  1  0  0  0  0
 25 31  1  0  0  0  0
 26 51  1  0  0  0  0
 26 52  1  0  0  0  0
 27 26  1  0  0  0  0
 27 28  1  0  0  0  0
 27 29  1  0  0  0  0
 27 53  1  6  0  0  0
 28 54  1  0  0  0  0
 29 30  1  0  0  0  0
 29 55  1  0  0  0  0
 29 56  1  0  0  0  0
 30 57  1  0  0  0  0
 31 32  2  0  0  0  0
 31 58  1  0  0  0  0
 32 59  1  0  0  0  0
M  END
>  <DRUGBANK_ID>
DB15123

>  <COMMON_NAME>
Dorzagliatin

>  <CAS_NUMBER>
1191995-00-2

>  <UNII>
X59W6980E8

>  <SYNONYMS>
Dorzagliatin

$$$$
