
 OpenBabel10282417183D

 33 36  0  0  0  0  0  0  0  0999 V2000
    1.0283   -0.0669    0.0356 C   0  0  0  0  0  0  0  0  0  0  0  0
    0.5216   -0.3485    1.4374 C   0  0  0  0  0  0  0  0  0  0  0  0
    0.4820   -1.6065    2.0193 C   0  0  0  0  0  0  0  0  0  0  0  0
    0.0530   -1.4837    3.3165 N   0  0  0  0  0  0  0  0  0  0  0  0
   -0.2280   -0.1689    3.6042 C   0  0  0  0  0  0  0  0  0  0  0  0
   -0.7053    0.4322    4.7836 C   0  0  0  0  0  0  0  0  0  0  0  0
   -0.9140    1.8186    4.7926 C   0  0  0  0  0  0  0  0  0  0  0  0
   -0.6727    2.5745    3.6645 C   0  0  0  0  0  0  0  0  0  0  0  0
   -0.2459    1.9440    2.5041 C   0  0  0  0  0  0  0  0  0  0  0  0
    0.0261    0.5612    2.4444 C   0  0  0  0  0  0  0  0  0  0  0  0
    0.6848    1.2862   -0.5104 C   0  0  0  0  0  0  0  0  0  0  0  0
   -0.3478    1.6196   -1.3649 C   0  0  0  0  0  0  0  0  0  0  0  0
   -0.3967    2.9887   -1.4702 N   0  0  0  0  0  0  0  0  0  0  0  0
    0.6072    3.5600   -0.7170 C   0  0  0  0  0  0  0  0  0  0  0  0
    0.8898    4.9052   -0.4404 C   0  0  0  0  0  0  0  0  0  0  0  0
    1.9279    5.1794    0.4610 C   0  0  0  0  0  0  0  0  0  0  0  0
    2.6407    4.1545    1.0761 C   0  0  0  0  0  0  0  0  0  0  0  0
    2.3614    2.8214    0.7725 C   0  0  0  0  0  0  0  0  0  0  0  0
    1.3338    2.5151   -0.1486 C   0  0  0  0  0  0  0  0  0  0  0  0
    0.6550   -0.8409   -0.6473 H   0  0  0  0  0  0  0  0  0  0  0  0
    2.1227   -0.1668    0.0416 H   0  0  0  0  0  0  0  0  0  0  0  0
    0.7350   -2.5811    1.6201 H   0  0  0  0  0  0  0  0  0  0  0  0
   -0.0546   -2.2468    3.9672 H   0  0  0  0  0  0  0  0  0  0  0  0
   -0.9189   -0.1516    5.6710 H   0  0  0  0  0  0  0  0  0  0  0  0
   -1.2905    2.3155    5.6813 H   0  0  0  0  0  0  0  0  0  0  0  0
   -0.8265    3.6499    3.6453 H   0  0  0  0  0  0  0  0  0  0  0  0
   -0.1547    2.5774    1.6412 H   0  0  0  0  0  0  0  0  0  0  0  0
   -1.0919    1.0050   -1.8568 H   0  0  0  0  0  0  0  0  0  0  0  0
   -1.1094    3.5048   -1.9612 H   0  0  0  0  0  0  0  0  0  0  0  0
    0.3054    5.7112   -0.8701 H   0  0  0  0  0  0  0  0  0  0  0  0
    2.1658    6.2115    0.7075 H   0  0  0  0  0  0  0  0  0  0  0  0
    3.3929    4.3819    1.8274 H   0  0  0  0  0  0  0  0  0  0  0  0
    2.8446    2.0246    1.3322 H   0  0  0  0  0  0  0  0  0  0  0  0
  1  2  1  0  0  0  0
  1 11  1  0  0  0  0
  1 20  1  0  0  0  0
  1 21  1  0  0  0  0
  2  3  2  0  0  0  0
  2 10  1  0  0  0  0
  3  4  1  0  0  0  0
  3 22  1  0  0  0  0
  4  5  1  0  0  0  0
  4 23  1  0  0  0  0
  5  6  2  0  0  0  0
  5 10  1  0  0  0  0
  6  7  1  0  0  0  0
  6 24  1  0  0  0  0
  7  8  2  0  0  0  0
  7 25  1  0  0  0  0
  8  9  1  0  0  0  0
  8 26  1  0  0  0  0
  9 10  2  0  0  0  0
  9 27  1  0  0  0  0
 11 12  2  0  0  0  0
 11 19  1  0  0  0  0
 12 13  1  0  0  0  0
 12 28  1  0  0  0  0
 13 14  1  0  0  0  0
 13 29  1  0  0  0  0
 14 15  2  0  0  0  0
 14 19  1  0  0  0  0
 15 16  1  0  0  0  0
 15 30  1  0  0  0  0
 16 17  2  0  0  0  0
 16 31  1  0  0  0  0
 17 18  1  0  0  0  0
 17 32  1  0  0  0  0
 18 19  2  0  0  0  0
 18 33  1  0  0  0  0
M  END
>  <DRUGBANK_ID>
DB11875

>  <COMMON_NAME>
3,3'-diindolylmethane

>  <CAS_NUMBER>
1968-05-4

>  <UNII>
SSZ9HQT61Z

>  <SYNONYMS>
Diindolylmethane

$$$$
