
 OpenBabel10282417133D

 28 28  0  0  0  0  0  0  0  0999 V2000
    0.8774   -0.1580    0.0950 C   0  0  0  0  0  0  0  0  0  0  0  0
   -0.9404    2.6598   -1.8999 C   0  0  0  0  0  0  0  0  0  0  0  0
    1.8818    1.1503   -1.6894 C   0  0  0  0  0  0  0  0  0  0  0  0
   -0.3869    1.9348   -0.6710 C   0  0  2  0  0  0  0  0  0  0  0  0
    0.5125    0.7263   -1.1133 C   0  0  2  0  0  0  0  0  0  0  0  0
    2.6081    1.9891   -0.8078 O   0  0  0  0  0  0  0  0  0  0  0  0
   -1.4813    1.5236    0.1530 O   0  0  0  0  0  0  0  0  0  0  0  0
    1.8903    2.9614   -4.4532 O   0  0  0  0  0  0  0  0  0  0  0  0
   -0.5802    3.4242   -5.1181 O   0  0  0  0  0  0  0  0  0  0  0  0
    0.7826   -1.2686   -3.8473 O   0  0  0  0  0  0  0  0  0  0  0  0
   -1.6407   -0.4536   -4.1688 O   0  0  0  0  0  0  0  0  0  0  0  0
    0.1768    3.1500   -2.6219 O   0  0  0  0  0  0  0  0  0  0  0  0
   -0.2689   -0.0940   -1.9899 O   0  0  0  0  0  0  0  0  0  0  0  0
    0.4187    1.1524   -4.1637 O   0  0  0  0  0  0  0  0  0  0  0  0
    0.3235    2.7220   -4.1624 P   0  0  3  0  0  0  0  0  0  0  0  0
   -0.3140   -0.1183   -3.5923 P   0  0  3  0  0  0  0  0  0  0  0  0
    0.2010    2.6472   -0.0812 H   0  0  0  0  0  0  0  0  0  0  0  0
    0.4851   -1.1723   -0.0124 H   0  0  0  0  0  0  0  0  0  0  0  0
    0.5452    0.2708    1.0426 H   0  0  0  0  0  0  0  0  0  0  0  0
    1.9668   -0.2610    0.1904 H   0  0  0  0  0  0  0  0  0  0  0  0
   -1.5506    1.9897   -2.5158 H   0  0  0  0  0  0  0  0  0  0  0  0
   -1.6080    3.4815   -1.6234 H   0  0  0  0  0  0  0  0  0  0  0  0
    2.4778    0.2735   -1.9631 H   0  0  0  0  0  0  0  0  0  0  0  0
    1.8416    1.6844   -2.6089 H   0  0  0  0  0  0  0  0  0  0  0  0
    2.1586    2.8560   -0.7876 H   0  0  0  0  0  0  0  0  0  0  0  0
   -1.3288    1.8817    1.0488 H   0  0  0  0  0  0  0  0  0  0  0  0
    2.3259    2.1026   -4.6439 H   0  0  0  0  0  0  0  0  0  0  0  0
    1.3620   -1.4653   -3.0902 H   0  0  0  0  0  0  0  0  0  0  0  0
  1 18  1  0  0  0  0
  1 19  1  0  0  0  0
  1 20  1  0  0  0  0
  2 21  1  0  0  0  0
  2 22  1  0  0  0  0
  3 23  1  0  0  0  0
  3 24  1  0  0  0  0
  4  2  1  0  0  0  0
  4 17  1  1  0  0  0
  4  7  1  0  0  0  0
  5  1  1  1  0  0  0
  5  3  1  0  0  0  0
  5  4  1  0  0  0  0
  6  3  1  0  0  0  0
  6 25  1  0  0  0  0
  7 26  1  0  0  0  0
  8 27  1  0  0  0  0
 10 28  1  0  0  0  0
 12  2  1  0  0  0  0
 13  5  1  0  0  0  0
 15  8  1  0  0  0  0
 15  9  2  0  0  0  0
 15 12  1  0  0  0  0
 15 14  1  0  0  0  0
 16 10  1  0  0  0  0
 16 11  2  0  0  0  0
 16 13  1  0  0  0  0
 16 14  1  0  0  0  0
M  END
>  <DRUGBANK_ID>
DB03961

>  <SECONDARY_ACCESSION_NUMBERS>
EXPT00871

>  <COMMON_NAME>
2c-Methyl-D-Erythritol 2,4-Cyclodiphosphate

$$$$
