
 OpenBabel10282417193D

 41 43  0  0  0  0  0  0  0  0999 V2000
    2.4675   -0.0122   -0.0153 C   0  0  0  0  0  0  0  0  0  0  0  0
    0.9651    0.0142   -0.0041 C   0  0  0  0  0  0  0  0  0  0  0  0
    0.2754    1.2298    0.0023 C   0  0  0  0  0  0  0  0  0  0  0  0
   -1.1274    1.2723    0.0092 C   0  0  0  0  0  0  0  0  0  0  0  0
   -1.8863    0.1035   -0.0009 C   0  0  0  0  0  0  0  0  0  0  0  0
   -1.1874   -1.1236   -0.0005 C   0  0  0  0  0  0  0  0  0  0  0  0
    0.2217   -1.1692   -0.0018 C   0  0  0  0  0  0  0  0  0  0  0  0
   -3.6878    0.1059    0.0041 S   0  0  0  0  0  0  0  0  0  0  0  0
   -4.2766    1.8145   -0.0872 C   0  0  0  0  0  0  0  0  0  0  0  0
   -4.9974    2.2262    1.0322 C   0  0  0  0  0  0  0  0  0  0  0  0
   -5.5172    3.5267    1.1462 C   0  0  0  0  0  0  0  0  0  0  0  0
   -5.1620    4.4908    0.2002 C   0  0  0  0  0  0  0  0  0  0  0  0
   -4.4280    4.1192   -0.8758 C   0  0  0  0  0  0  0  0  0  0  0  0
   -4.2101    2.7542   -1.1526 C   0  0  0  0  0  0  0  0  0  0  0  0
   -4.2836    2.5469   -2.6471 C   0  0  0  0  0  0  0  0  0  0  0  0
   -5.7776    3.1450   -3.2706 C   0  0  0  0  0  0  0  0  0  0  0  0
   -5.9602    2.8861   -4.7916 C   0  0  0  0  0  0  0  0  0  0  0  0
   -4.9314    1.9309   -5.1468 N   0  0  0  0  0  0  0  0  0  0  0  0
   -5.0538    0.8491   -4.1480 C   0  0  0  0  0  0  0  0  0  0  0  0
   -3.9595    1.1251   -3.1658 C   0  0  0  0  0  0  0  0  0  0  0  0
    2.8524   -0.5376    0.8649 H   0  0  0  0  0  0  0  0  0  0  0  0
    2.8363   -0.5060   -0.9203 H   0  0  0  0  0  0  0  0  0  0  0  0
    2.8829    1.0022   -0.0007 H   0  0  0  0  0  0  0  0  0  0  0  0
    0.8245    2.1685    0.0048 H   0  0  0  0  0  0  0  0  0  0  0  0
   -1.6075    2.2432    0.0276 H   0  0  0  0  0  0  0  0  0  0  0  0
   -1.7243   -2.0719    0.0032 H   0  0  0  0  0  0  0  0  0  0  0  0
    0.7336   -2.1316   -0.0010 H   0  0  0  0  0  0  0  0  0  0  0  0
   -5.2370    1.5153    1.8278 H   0  0  0  0  0  0  0  0  0  0  0  0
   -6.1798    3.7868    1.9500 H   0  0  0  0  0  0  0  0  0  0  0  0
   -5.5465    5.5074    0.2573 H   0  0  0  0  0  0  0  0  0  0  0  0
   -4.2080    4.8567   -1.6617 H   0  0  0  0  0  0  0  0  0  0  0  0
   -3.5055    3.2038   -3.0729 H   0  0  0  0  0  0  0  0  0  0  0  0
   -5.9686    4.2119   -3.0847 H   0  0  0  0  0  0  0  0  0  0  0  0
   -6.6053    2.6394   -2.7432 H   0  0  0  0  0  0  0  0  0  0  0  0
   -5.8673    3.7970   -5.3966 H   0  0  0  0  0  0  0  0  0  0  0  0
   -6.9198    2.4262   -5.0715 H   0  0  0  0  0  0  0  0  0  0  0  0
   -4.0523    2.4485   -4.9993 H   0  0  0  0  0  0  0  0  0  0  0  0
   -5.1040   -0.1287   -4.6109 H   0  0  0  0  0  0  0  0  0  0  0  0
   -5.9715    0.8726   -3.5324 H   0  0  0  0  0  0  0  0  0  0  0  0
   -2.9649    1.0760   -3.6333 H   0  0  0  0  0  0  0  0  0  0  0  0
   -3.9728    0.3310   -2.4317 H   0  0  0  0  0  0  0  0  0  0  0  0
  1  2  1  0  0  0  0
  1 21  1  0  0  0  0
  1 22  1  0  0  0  0
  1 23  1  0  0  0  0
  2  3  2  0  0  0  0
  2  7  1  0  0  0  0
  3  4  1  0  0  0  0
  3 24  1  0  0  0  0
  4  5  2  0  0  0  0
  4 25  1  0  0  0  0
  5  6  1  0  0  0  0
  5  8  1  0  0  0  0
  6  7  2  0  0  0  0
  6 26  1  0  0  0  0
  7 27  1  0  0  0  0
  8  9  1  0  0  0  0
  9 10  2  0  0  0  0
  9 14  1  0  0  0  0
 10 11  1  0  0  0  0
 10 28  1  0  0  0  0
 11 12  2  0  0  0  0
 11 29  1  0  0  0  0
 12 13  1  0  0  0  0
 12 30  1  0  0  0  0
 13 14  2  0  0  0  0
 13 31  1  0  0  0  0
 14 15  1  0  0  0  0
 15 16  1  0  0  0  0
 15 20  1  0  0  0  0
 15 32  1  0  0  0  0
 16 17  1  0  0  0  0
 16 33  1  0  0  0  0
 16 34  1  0  0  0  0
 17 18  1  0  0  0  0
 17 35  1  0  0  0  0
 17 36  1  0  0  0  0
 18 19  1  0  0  0  0
 18 37  1  0  0  0  0
 19 20  1  0  0  0  0
 19 38  1  0  0  0  0
 19 39  1  0  0  0  0
 20 40  1  0  0  0  0
 20 41  1  0  0  0  0
M  END
>  <DRUGBANK_ID>
DB12641

>  <COMMON_NAME>
Tedatioxetine

>  <CAS_NUMBER>
508233-95-2

>  <UNII>
5H681S8O3S

>  <SYNONYMS>
Tedatioxetine

$$$$
