
 OpenBabel10282417173D

 70 72  0  0  0  0  0  0  0  0999 V2000
    1.0622    0.0738   -0.0228 C   0  0  0  0  0  0  0  0  0  0  0  0
    9.6838    3.5021    5.0568 C   0  0  0  0  0  0  0  0  0  0  0  0
    0.5157   -0.1794    2.9496 C   0  0  0  0  0  0  0  0  0  0  0  0
   11.6124    0.1765    6.0532 C   0  0  0  0  0  0  0  0  0  0  0  0
    0.5653   -1.1996    0.6481 C   0  0  0  0  0  0  0  0  0  0  0  0
   10.3097    2.1249    4.8731 C   0  0  0  0  0  0  0  0  0  0  0  0
    5.9333   -3.3470    9.4557 C   0  0  0  0  0  0  0  0  0  0  0  0
    6.7673   -3.5159    8.1897 C   0  0  0  0  0  0  0  0  0  0  0  0
    5.2914   -1.9717    9.5468 C   0  0  0  0  0  0  0  0  0  0  0  0
    3.4231   -2.3443    5.5160 C   0  0  0  0  0  0  0  0  0  0  0  0
    4.7656   -0.5179    4.7487 C   0  0  0  0  0  0  0  0  0  0  0  0
    7.4722   -0.8383    5.9955 C   0  0  0  0  0  0  0  0  0  0  0  0
    6.7065    0.2449    7.9906 C   0  0  0  0  0  0  0  0  0  0  0  0
    2.7478   -2.3074    4.3142 C   0  0  0  0  0  0  0  0  0  0  0  0
    4.1427   -0.5414    3.5036 C   0  0  0  0  0  0  0  0  0  0  0  0
    8.5971   -0.0664    6.0482 C   0  0  0  0  0  0  0  0  0  0  0  0
    7.9127    0.9132    8.1192 C   0  0  0  0  0  0  0  0  0  0  0  0
    5.9466   -3.1799    6.9420 C   0  0  0  0  0  0  0  0  0  0  0  0
    4.5048   -1.6062    8.2766 C   0  0  0  0  0  0  0  0  0  0  0  0
    4.4854   -1.4850    5.7407 C   0  0  0  0  0  0  0  0  0  0  0  0
    6.5249   -0.7334    7.0042 C   0  0  0  0  0  0  0  0  0  0  0  0
    3.1005   -1.4276    3.2943 C   0  0  0  0  0  0  0  0  0  0  0  0
    8.8625    0.7777    7.1232 C   0  0  0  0  0  0  0  0  0  0  0  0
    0.3977   -2.7284    2.5251 C   0  0  0  0  0  0  0  0  0  0  0  0
   12.0537    2.5308    6.5961 C   0  0  0  0  0  0  0  0  0  0  0  0
    1.0289   -1.3749    2.1158 C   0  0  3  0  0  0  0  0  0  0  0  0
   10.9312    1.5565    6.1842 C   0  0  3  0  0  0  0  0  0  0  0  0
    5.3568   -1.7135    6.9850 C   0  0  0  0  0  0  0  0  0  0  0  0
    0.9374   -3.8350    2.5205 O   0  0  0  0  0  0  0  0  0  0  0  0
   -0.8950   -2.6618    2.8905 O   0  0  0  0  0  0  0  0  0  0  0  0
   12.1303    3.2098    7.6082 O   0  0  0  0  0  0  0  0  0  0  0  0
   13.0321    2.6183    5.6610 O   0  0  0  0  0  0  0  0  0  0  0  0
    2.4701   -1.3709    2.0836 O   0  0  0  0  0  0  0  0  0  0  0  0
    9.9856    1.5364    7.2664 O   0  0  0  0  0  0  0  0  0  0  0  0
    0.6856    0.9684    0.4802 H   0  0  0  0  0  0  0  0  0  0  0  0
    0.7070    0.1151   -1.0560 H   0  0  0  0  0  0  0  0  0  0  0  0
    2.1551    0.1155   -0.0325 H   0  0  0  0  0  0  0  0  0  0  0  0
   10.4428    4.2470    5.3025 H   0  0  0  0  0  0  0  0  0  0  0  0
    9.1894    3.8072    4.1295 H   0  0  0  0  0  0  0  0  0  0  0  0
    8.9260    3.4975    5.8475 H   0  0  0  0  0  0  0  0  0  0  0  0
   -0.5751   -0.1067    2.9289 H   0  0  0  0  0  0  0  0  0  0  0  0
    0.8245   -0.2358    3.9978 H   0  0  0  0  0  0  0  0  0  0  0  0
    0.9286    0.7680    2.5826 H   0  0  0  0  0  0  0  0  0  0  0  0
   10.9445   -0.6588    5.8447 H   0  0  0  0  0  0  0  0  0  0  0  0
   12.3565    0.1686    5.2553 H   0  0  0  0  0  0  0  0  0  0  0  0
   12.0837   -0.1029    7.0024 H   0  0  0  0  0  0  0  0  0  0  0  0
   -0.5312   -1.2201    0.6024 H   0  0  0  0  0  0  0  0  0  0  0  0
    0.9199   -2.0541    0.0559 H   0  0  0  0  0  0  0  0  0  0  0  0
   11.0550    2.1419    4.0728 H   0  0  0  0  0  0  0  0  0  0  0  0
    9.4997    1.5182    4.4698 H   0  0  0  0  0  0  0  0  0  0  0  0
    5.1472   -4.1078    9.4835 H   0  0  0  0  0  0  0  0  0  0  0  0
    6.5735   -3.4996   10.3312 H   0  0  0  0  0  0  0  0  0  0  0  0
    7.6589   -2.8787    8.2369 H   0  0  0  0  0  0  0  0  0  0  0  0
    7.1339   -4.5467    8.1271 H   0  0  0  0  0  0  0  0  0  0  0  0
    4.6268   -1.9006   10.4114 H   0  0  0  0  0  0  0  0  0  0  0  0
    6.0997   -1.2697    9.7599 H   0  0  0  0  0  0  0  0  0  0  0  0
    3.1131   -3.0848    6.2474 H   0  0  0  0  0  0  0  0  0  0  0  0
    5.5097    0.2589    4.9054 H   0  0  0  0  0  0  0  0  0  0  0  0
    7.3299   -1.4761    5.1238 H   0  0  0  0  0  0  0  0  0  0  0  0
    5.9365    0.4666    8.7214 H   0  0  0  0  0  0  0  0  0  0  0  0
    1.9668   -3.0394    4.2395 H   0  0  0  0  0  0  0  0  0  0  0  0
    4.4728    0.1436    2.7269 H   0  0  0  0  0  0  0  0  0  0  0  0
    9.2343   -0.2001    5.1905 H   0  0  0  0  0  0  0  0  0  0  0  0
    8.0851    1.5338    8.9934 H   0  0  0  0  0  0  0  0  0  0  0  0
    6.5655   -3.3501    6.0500 H   0  0  0  0  0  0  0  0  0  0  0  0
    5.1415   -3.9230    6.8684 H   0  0  0  0  0  0  0  0  0  0  0  0
    4.0758   -0.5992    8.3573 H   0  0  0  0  0  0  0  0  0  0  0  0
    3.6429   -2.2816    8.2265 H   0  0  0  0  0  0  0  0  0  0  0  0
   -1.0964   -3.5916    3.1345 H   0  0  0  0  0  0  0  0  0  0  0  0
   13.6597    3.2778    6.0222 H   0  0  0  0  0  0  0  0  0  0  0  0
  1 35  1  0  0  0  0
  1 36  1  0  0  0  0
  1 37  1  0  0  0  0
  2 38  1  0  0  0  0
  2 39  1  0  0  0  0
  2 40  1  0  0  0  0
  3 41  1  0  0  0  0
  3 42  1  0  0  0  0
  3 43  1  0  0  0  0
  4 44  1  0  0  0  0
  4 45  1  0  0  0  0
  4 46  1  0  0  0  0
  5  1  1  0  0  0  0
  5 47  1  0  0  0  0
  5 48  1  0  0  0  0
  6  2  1  0  0  0  0
  6 49  1  0  0  0  0
  6 50  1  0  0  0  0
  7 51  1  0  0  0  0
  7 52  1  0  0  0  0
  8  7  1  0  0  0  0
  8 53  1  0  0  0  0
  8 54  1  0  0  0  0
  9  7  1  0  0  0  0
  9 55  1  0  0  0  0
  9 56  1  0  0  0  0
 10 57  1  0  0  0  0
 11 58  1  0  0  0  0
 12 59  1  0  0  0  0
 13 60  1  0  0  0  0
 14 10  1  0  0  0  0
 14 61  1  0  0  0  0
 15 11  2  0  0  0  0
 15 62  1  0  0  0  0
 16 12  1  0  0  0  0
 16 63  1  0  0  0  0
 17 13  2  0  0  0  0
 17 64  1  0  0  0  0
 18  8  1  0  0  0  0
 18 65  1  0  0  0  0
 18 66  1  0  0  0  0
 19  9  1  0  0  0  0
 19 67  1  0  0  0  0
 19 68  1  0  0  0  0
 20 10  2  0  0  0  0
 20 11  1  0  0  0  0
 21 12  2  0  0  0  0
 21 13  1  0  0  0  0
 22 14  2  0  0  0  0
 22 15  1  0  0  0  0
 23 16  2  0  0  0  0
 23 17  1  0  0  0  0
 26  3  1  0  0  0  0
 26  5  1  0  0  0  0
 26 24  1  0  0  0  0
 27  4  1  0  0  0  0
 27  6  1  0  0  0  0
 27 25  1  0  0  0  0
 28 18  1  0  0  0  0
 28 19  1  0  0  0  0
 28 20  1  0  0  0  0
 28 21  1  0  0  0  0
 29 24  2  0  0  0  0
 30 24  1  0  0  0  0
 30 69  1  0  0  0  0
 31 25  2  0  0  0  0
 32 25  1  0  0  0  0
 32 70  1  0  0  0  0
 33 22  1  0  0  0  0
 33 26  1  0  0  0  0
 34 23  1  0  0  0  0
 34 27  1  0  0  0  0
M  END
>  <DRUGBANK_ID>
DB09006

>  <COMMON_NAME>
Clinofibrate

>  <CAS_NUMBER>
30299-08-2

>  <UNII>
0374EZJ8CU

>  <SYNONYMS>
Clinofibrate

$$$$
