
 OpenBabel10282417213D

  1  0  0  0  0  0  0  0  0  0999 V2000
    0.9763    0.0655   -0.0717 Ag  0  3  0  0  0  0  0  0  0  0  0  0
M  CHG  1   1   1
M  END
>  <DRUGBANK_ID>
DB14521

>  <COMMON_NAME>
Silver cation

>  <CAS_NUMBER>
14701-21-4

>  <UNII>
57N7B0K90A

>  <SYNONYMS>
Silver, ion (Ag1+)

$$$$
