lycopene
 OpenBabel10282417183D

 96 95  0  0  0  0  0  0  0  0999 V2000
    1.0367    0.1421   -0.1009 C   0  0  0  0  0  0  0  0  0  0  0  0
    0.5049   -0.3660    1.2010 C   0  0  0  0  0  0  0  0  0  0  0  0
   -0.3394    0.5448    2.0479 C   0  0  0  0  0  0  0  0  0  0  0  0
    0.7557   -1.6219    1.6056 C   0  0  0  0  0  0  0  0  0  0  0  0
    1.7076   -2.6003    0.9633 C   0  0  0  0  0  0  0  0  0  0  0  0
    2.9652   -2.8859    1.8115 C   0  0  0  0  0  0  0  0  0  0  0  0
    2.6775   -3.5540    3.1421 C   0  0  0  0  0  0  0  0  0  0  0  0
    3.1752   -4.9649    3.3158 C   0  0  0  0  0  0  0  0  0  0  0  0
    2.0017   -2.9087    4.1160 C   0  0  0  0  0  0  0  0  0  0  0  0
    1.5516   -3.5336    5.3298 C   0  0  0  0  0  0  0  0  0  0  0  0
    0.7479   -2.9717    6.2454 C   0  0  0  0  0  0  0  0  0  0  0  0
    0.3555   -3.6238    7.4944 C   0  0  0  0  0  0  0  0  0  0  0  0
   -0.5167   -2.8065    8.4203 C   0  0  0  0  0  0  0  0  0  0  0  0
    0.7686   -4.8665    7.8313 C   0  0  0  0  0  0  0  0  0  0  0  0
    0.4404   -5.5287    9.0690 C   0  0  0  0  0  0  0  0  0  0  0  0
    0.8499   -6.7590    9.4193 C   0  0  0  0  0  0  0  0  0  0  0  0
    0.5110   -7.4199   10.6775 C   0  0  0  0  0  0  0  0  0  0  0  0
    1.0618   -8.8056   10.8885 C   0  0  0  0  0  0  0  0  0  0  0  0
   -0.2584   -6.8415   11.6235 C   0  0  0  0  0  0  0  0  0  0  0  0
   -0.6231   -7.4487   12.8769 C   0  0  0  0  0  0  0  0  0  0  0  0
   -1.3959   -6.7951   13.7601 C   0  0  0  0  0  0  0  0  0  0  0  0
   -1.7819   -7.3666   15.0217 C   0  0  0  0  0  0  0  0  0  0  0  0
   -2.5546   -6.7742   15.9599 C   0  0  0  0  0  0  0  0  0  0  0  0
   -3.1273   -5.3896   15.7921 C   0  0  0  0  0  0  0  0  0  0  0  0
   -2.9050   -7.4306   17.2262 C   0  0  0  0  0  0  0  0  0  0  0  0
   -2.5041   -8.6634   17.5745 C   0  0  0  0  0  0  0  0  0  0  0  0
   -2.8165   -9.3526   18.8005 C   0  0  0  0  0  0  0  0  0  0  0  0
   -2.3925  -10.5955   19.1320 C   0  0  0  0  0  0  0  0  0  0  0  0
   -1.5191  -11.4515   18.2409 C   0  0  0  0  0  0  0  0  0  0  0  0
   -2.7154  -11.2249   20.4202 C   0  0  0  0  0  0  0  0  0  0  0  0
   -3.4428  -10.6295   21.3769 C   0  0  0  0  0  0  0  0  0  0  0  0
   -3.7576  -11.1608   22.6733 C   0  0  0  0  0  0  0  0  0  0  0  0
   -4.6168  -10.5975   23.5507 C   0  0  0  0  0  0  0  0  0  0  0  0
   -5.2526   -9.2414   23.3698 C   0  0  0  0  0  0  0  0  0  0  0  0
   -5.0207  -11.3241   24.8258 C   0  0  0  0  0  0  0  0  0  0  0  0
   -5.8514  -12.6058   24.5961 C   0  0  0  0  0  0  0  0  0  0  0  0
   -5.1021  -13.6789   23.8482 C   0  0  0  0  0  0  0  0  0  0  0  0
   -4.6695  -14.8498   24.3423 C   0  0  0  0  0  0  0  0  0  0  0  0
   -3.7809  -15.7501   23.5300 C   0  0  0  0  0  0  0  0  0  0  0  0
   -5.0712  -15.3059   25.7092 C   0  0  0  0  0  0  0  0  0  0  0  0
    0.6762    1.1460   -0.3322 H   0  0  0  0  0  0  0  0  0  0  0  0
    0.6942   -0.5189   -0.9065 H   0  0  0  0  0  0  0  0  0  0  0  0
    2.1309    0.1579   -0.0966 H   0  0  0  0  0  0  0  0  0  0  0  0
   -1.3081    0.0853    2.2694 H   0  0  0  0  0  0  0  0  0  0  0  0
    0.1653    0.7612    2.9980 H   0  0  0  0  0  0  0  0  0  0  0  0
   -0.5272    1.5020    1.5540 H   0  0  0  0  0  0  0  0  0  0  0  0
    0.2464   -1.9716    2.5010 H   0  0  0  0  0  0  0  0  0  0  0  0
    1.1666   -3.5313    0.7624 H   0  0  0  0  0  0  0  0  0  0  0  0
    2.0493   -2.2301   -0.0094 H   0  0  0  0  0  0  0  0  0  0  0  0
    3.6245   -3.5268    1.2104 H   0  0  0  0  0  0  0  0  0  0  0  0
    3.5359   -1.9634    1.9800 H   0  0  0  0  0  0  0  0  0  0  0  0
    3.8145   -5.0220    4.2052 H   0  0  0  0  0  0  0  0  0  0  0  0
    2.3380   -5.6608    3.4312 H   0  0  0  0  0  0  0  0  0  0  0  0
    3.7787   -5.3068    2.4714 H   0  0  0  0  0  0  0  0  0  0  0  0
    1.7246   -1.8649    3.9925 H   0  0  0  0  0  0  0  0  0  0  0  0
    1.8977   -4.5476    5.4694 H   0  0  0  0  0  0  0  0  0  0  0  0
    0.3671   -1.9653    6.0731 H   0  0  0  0  0  0  0  0  0  0  0  0
   -1.4577   -3.3334    8.6187 H   0  0  0  0  0  0  0  0  0  0  0  0
   -0.0012   -2.6412    9.3742 H   0  0  0  0  0  0  0  0  0  0  0  0
   -0.7771   -1.8219    8.0216 H   0  0  0  0  0  0  0  0  0  0  0  0
    1.4017   -5.4497    7.1706 H   0  0  0  0  0  0  0  0  0  0  0  0
   -0.1812   -4.9543    9.7416 H   0  0  0  0  0  0  0  0  0  0  0  0
    1.4790   -7.3223    8.7315 H   0  0  0  0  0  0  0  0  0  0  0  0
    1.6934   -8.8253   11.7848 H   0  0  0  0  0  0  0  0  0  0  0  0
    0.2399   -9.5184   11.0260 H   0  0  0  0  0  0  0  0  0  0  0  0
    1.6684   -9.1632   10.0532 H   0  0  0  0  0  0  0  0  0  0  0  0
   -0.6587   -5.8429   11.4771 H   0  0  0  0  0  0  0  0  0  0  0  0
   -0.2665   -8.4458   13.1043 H   0  0  0  0  0  0  0  0  0  0  0  0
   -1.7357   -5.8022   13.5033 H   0  0  0  0  0  0  0  0  0  0  0  0
   -1.3876   -8.3664   15.1793 H   0  0  0  0  0  0  0  0  0  0  0  0
   -4.2205   -5.4203   15.8157 H   0  0  0  0  0  0  0  0  0  0  0  0
   -2.7599   -4.7235   16.5783 H   0  0  0  0  0  0  0  0  0  0  0  0
   -2.8596   -4.9155   14.8461 H   0  0  0  0  0  0  0  0  0  0  0  0
   -3.5328   -6.8598   17.9100 H   0  0  0  0  0  0  0  0  0  0  0  0
   -1.8817   -9.2119   16.8898 H   0  0  0  0  0  0  0  0  0  0  0  0
   -3.4373   -8.7710   19.4754 H   0  0  0  0  0  0  0  0  0  0  0  0
   -0.5719  -11.6848   18.7376 H   0  0  0  0  0  0  0  0  0  0  0  0
   -2.0292  -12.3828   17.9757 H   0  0  0  0  0  0  0  0  0  0  0  0
   -1.2496  -10.9787   17.2954 H   0  0  0  0  0  0  0  0  0  0  0  0
   -2.3200  -12.2260   20.5930 H   0  0  0  0  0  0  0  0  0  0  0  0
   -3.8612   -9.6605   21.1712 H   0  0  0  0  0  0  0  0  0  0  0  0
   -3.2763  -12.1053   22.9179 H   0  0  0  0  0  0  0  0  0  0  0  0
   -6.3428   -9.3135   23.4013 H   0  0  0  0  0  0  0  0  0  0  0  0
   -4.9096   -8.5684   24.1620 H   0  0  0  0  0  0  0  0  0  0  0  0
   -5.0016   -8.7503   22.4290 H   0  0  0  0  0  0  0  0  0  0  0  0
   -4.1277  -11.5455   25.4248 H   0  0  0  0  0  0  0  0  0  0  0  0
   -5.6280  -10.6512   25.4484 H   0  0  0  0  0  0  0  0  0  0  0  0
   -6.1748  -12.9684   25.5783 H   0  0  0  0  0  0  0  0  0  0  0  0
   -6.7663  -12.3706   24.0417 H   0  0  0  0  0  0  0  0  0  0  0  0
   -4.8782  -13.4579   22.8074 H   0  0  0  0  0  0  0  0  0  0  0  0
   -2.8551  -15.9664   24.0747 H   0  0  0  0  0  0  0  0  0  0  0  0
   -4.2895  -16.6906   23.3048 H   0  0  0  0  0  0  0  0  0  0  0  0
   -3.4877  -15.2896   22.5783 H   0  0  0  0  0  0  0  0  0  0  0  0
   -4.6927  -14.6235   26.4767 H   0  0  0  0  0  0  0  0  0  0  0  0
   -6.1660  -15.3345   25.7689 H   0  0  0  0  0  0  0  0  0  0  0  0
   -4.7066  -16.3118   25.9275 H   0  0  0  0  0  0  0  0  0  0  0  0
  1  2  1  0  0  0  0
  1 41  1  0  0  0  0
  1 42  1  0  0  0  0
  1 43  1  0  0  0  0
  2  3  1  0  0  0  0
  2  4  2  0  0  0  0
  3 44  1  0  0  0  0
  3 45  1  0  0  0  0
  3 46  1  0  0  0  0
  4  5  1  0  0  0  0
  4 47  1  0  0  0  0
  5  6  1  0  0  0  0
  5 48  1  0  0  0  0
  5 49  1  0  0  0  0
  6  7  1  0  0  0  0
  6 50  1  0  0  0  0
  6 51  1  0  0  0  0
  7  8  1  0  0  0  0
  7  9  2  0  0  0  0
  8 52  1  0  0  0  0
  8 53  1  0  0  0  0
  8 54  1  0  0  0  0
  9 10  1  0  0  0  0
  9 55  1  0  0  0  0
 10 11  2  0  0  0  0
 10 56  1  0  0  0  0
 11 12  1  0  0  0  0
 11 57  1  0  0  0  0
 12 13  1  0  0  0  0
 12 14  2  0  0  0  0
 13 58  1  0  0  0  0
 13 59  1  0  0  0  0
 13 60  1  0  0  0  0
 14 15  1  0  0  0  0
 14 61  1  0  0  0  0
 15 16  2  0  0  0  0
 15 62  1  0  0  0  0
 16 17  1  0  0  0  0
 16 63  1  0  0  0  0
 17 18  1  0  0  0  0
 17 19  2  0  0  0  0
 18 64  1  0  0  0  0
 18 65  1  0  0  0  0
 18 66  1  0  0  0  0
 19 20  1  0  0  0  0
 19 67  1  0  0  0  0
 20 21  2  0  0  0  0
 20 68  1  0  0  0  0
 21 22  1  0  0  0  0
 21 69  1  0  0  0  0
 22 23  2  0  0  0  0
 22 70  1  0  0  0  0
 23 24  1  0  0  0  0
 23 25  1  0  0  0  0
 24 71  1  0  0  0  0
 24 72  1  0  0  0  0
 24 73  1  0  0  0  0
 25 26  2  0  0  0  0
 25 74  1  0  0  0  0
 26 27  1  0  0  0  0
 26 75  1  0  0  0  0
 27 28  2  0  0  0  0
 27 76  1  0  0  0  0
 28 29  1  0  0  0  0
 28 30  1  0  0  0  0
 29 77  1  0  0  0  0
 29 78  1  0  0  0  0
 29 79  1  0  0  0  0
 30 31  2  0  0  0  0
 30 80  1  0  0  0  0
 31 32  1  0  0  0  0
 31 81  1  0  0  0  0
 32 33  2  0  0  0  0
 32 82  1  0  0  0  0
 33 34  1  0  0  0  0
 33 35  1  0  0  0  0
 34 83  1  0  0  0  0
 34 84  1  0  0  0  0
 34 85  1  0  0  0  0
 35 36  1  0  0  0  0
 35 86  1  0  0  0  0
 35 87  1  0  0  0  0
 36 37  1  0  0  0  0
 36 88  1  0  0  0  0
 36 89  1  0  0  0  0
 37 38  2  0  0  0  0
 37 90  1  0  0  0  0
 38 39  1  0  0  0  0
 38 40  1  0  0  0  0
 39 91  1  0  0  0  0
 39 92  1  0  0  0  0
 39 93  1  0  0  0  0
 40 94  1  0  0  0  0
 40 95  1  0  0  0  0
 40 96  1  0  0  0  0
M  END
>  <DRUGBANK_ID>
DB11231

>  <COMMON_NAME>
Lycopene

>  <CAS_NUMBER>
502-65-8

>  <UNII>
SB0N2N0WV6

$$$$
