
 OpenBabel10282417183D

 33 35  0  0  0  0  0  0  0  0999 V2000
   -2.1531    0.6505    0.0376 N   0  0  0  0  0  0  0  0  0  0  0  0
   -2.1634   -0.7462   -0.0026 C   0  0  0  0  0  0  0  0  0  0  0  0
   -0.9315   -1.3993    0.0076 N   0  0  0  0  0  0  0  0  0  0  0  0
    0.2305   -0.6615    0.0341 C   0  0  0  0  0  0  0  0  0  0  0  0
    0.2011    0.6985    0.1366 C   0  0  0  0  0  0  0  0  0  0  0  0
   -1.0193    1.4255    0.2670 C   0  0  0  0  0  0  0  0  0  0  0  0
    1.5065   -1.1392   -0.0124 N   0  0  0  0  0  0  0  0  0  0  0  0
    2.2656   -0.0589    0.0004 C   0  0  0  0  0  0  0  0  0  0  0  0
    1.5103    1.0892    0.0320 N   0  0  0  0  0  0  0  0  0  0  0  0
   -1.0848    2.6160    0.5769 O   0  0  0  0  0  0  0  0  0  0  0  0
   -3.2262   -1.3730   -0.0290 O   0  0  0  0  0  0  0  0  0  0  0  0
    2.0235    2.4461   -0.0541 C   0  0  0  0  0  0  0  0  0  0  0  0
    1.6097    3.1981   -1.3340 C   0  0  0  0  0  0  0  0  0  0  0  0
    0.2025    3.4254   -1.4355 O   0  0  0  0  0  0  0  0  0  0  0  0
   -0.2365    2.6780   -2.5667 C   0  0  0  0  0  0  0  0  0  0  0  0
    0.9717    2.7188   -3.4476 C   0  0  0  0  0  0  0  0  0  0  0  0
    2.0568    2.5360   -2.5263 O   0  0  0  0  0  0  0  0  0  0  0  0
   -0.9085   -2.8459   -0.0046 C   0  0  0  0  0  0  0  0  0  0  0  0
   -3.4253    1.3471    0.0293 C   0  0  0  0  0  0  0  0  0  0  0  0
    3.3505   -0.0530   -0.0226 H   0  0  0  0  0  0  0  0  0  0  0  0
    1.6794    2.9648    0.8476 H   0  0  0  0  0  0  0  0  0  0  0  0
    3.1194    2.3815   -0.0094 H   0  0  0  0  0  0  0  0  0  0  0  0
    2.0785    4.1883   -1.3037 H   0  0  0  0  0  0  0  0  0  0  0  0
   -0.4709    1.6466   -2.2835 H   0  0  0  0  0  0  0  0  0  0  0  0
   -1.1393    3.1267   -2.9853 H   0  0  0  0  0  0  0  0  0  0  0  0
    0.9729    1.9430   -4.2147 H   0  0  0  0  0  0  0  0  0  0  0  0
    1.0661    3.7084   -3.9042 H   0  0  0  0  0  0  0  0  0  0  0  0
   -0.3962   -3.1964   -0.9039 H   0  0  0  0  0  0  0  0  0  0  0  0
   -0.3993   -3.2023    0.8948 H   0  0  0  0  0  0  0  0  0  0  0  0
   -1.9215   -3.2590   -0.0050 H   0  0  0  0  0  0  0  0  0  0  0  0
   -3.4977    1.9822    0.9168 H   0  0  0  0  0  0  0  0  0  0  0  0
   -3.4717    1.9859   -0.8598 H   0  0  0  0  0  0  0  0  0  0  0  0
   -4.2790    0.6660    0.0150 H   0  0  0  0  0  0  0  0  0  0  0  0
  1  2  1  0  0  0  0
  1  6  1  0  0  0  0
  1 19  1  0  0  0  0
  2  3  1  0  0  0  0
  2 11  2  0  0  0  0
  3  4  1  0  0  0  0
  3 18  1  0  0  0  0
  4  5  2  0  0  0  0
  4  7  1  0  0  0  0
  5  6  1  0  0  0  0
  5  9  1  0  0  0  0
  6 10  2  0  0  0  0
  7  8  2  0  0  0  0
  8  9  1  0  0  0  0
  8 20  1  0  0  0  0
  9 12  1  0  0  0  0
 12 13  1  0  0  0  0
 12 21  1  0  0  0  0
 12 22  1  0  0  0  0
 13 14  1  0  0  0  0
 13 17  1  0  0  0  0
 13 23  1  0  0  0  0
 14 15  1  0  0  0  0
 15 16  1  0  0  0  0
 15 24  1  0  0  0  0
 15 25  1  0  0  0  0
 16 17  1  0  0  0  0
 16 26  1  0  0  0  0
 16 27  1  0  0  0  0
 18 28  1  0  0  0  0
 18 29  1  0  0  0  0
 18 30  1  0  0  0  0
 19 31  1  0  0  0  0
 19 32  1  0  0  0  0
 19 33  1  0  0  0  0
M  END
>  <DRUGBANK_ID>
DB09273

>  <COMMON_NAME>
Doxofylline

>  <CAS_NUMBER>
69975-86-6

>  <UNII>
MPM23GMO7Z

>  <SYNONYMS>
doxofilina; Doxofylline; Doxophylline

$$$$
