3EA
 OpenBabel10282417163D

 57 60  0  0  0  0  0  0  0  0999 V2000
    1.2624    0.2012   -0.1046 C   0  0  0  0  0  0  0  0  0  0  0  0
    0.5908   -0.2928   -1.3874 C   0  0  0  0  0  0  0  0  0  0  0  0
    0.9925   -1.7029   -1.6704 C   0  0  0  0  0  0  0  0  0  0  0  0
    0.4800   -2.6126   -0.6008 C   0  0  0  0  0  0  0  0  0  0  0  0
   -0.2751   -2.3315    0.5847 C   0  0  0  0  0  0  0  0  0  0  0  0
   -0.8797   -1.1638    0.9547 O   0  0  0  0  0  0  0  0  0  0  0  0
   -1.2560   -1.2116    2.2883 N   0  0  0  0  0  0  0  0  0  0  0  0
   -1.0390   -2.4732    2.6827 C   0  0  0  0  0  0  0  0  0  0  0  0
   -1.4463   -2.9961    4.0109 C   0  0  0  0  0  0  0  0  0  0  0  0
   -0.7641   -2.4257    5.0372 F   0  0  0  0  0  0  0  0  0  0  0  0
   -2.7690   -2.7939    4.2388 F   0  0  0  0  0  0  0  0  0  0  0  0
   -1.2489   -4.3420    4.1350 F   0  0  0  0  0  0  0  0  0  0  0  0
   -0.4645   -3.2077    1.6393 C   0  0  0  0  0  0  0  0  0  0  0  0
   -0.1203   -4.5072    1.4656 C   0  0  0  0  0  0  0  0  0  0  0  0
    0.3751   -4.7320    0.1945 C   0  0  0  0  0  0  0  0  0  0  0  0
    0.8823   -3.8991   -0.7519 C   0  0  0  0  0  0  0  0  0  0  0  0
    1.7946   -4.2452   -1.7268 O   0  0  0  0  0  0  0  0  0  0  0  0
    2.0028   -5.6282   -2.0208 C   0  0  0  0  0  0  0  0  0  0  0  0
    2.8618   -6.4987   -1.0931 C   0  0  0  0  0  0  0  0  0  0  0  0
    2.2053   -6.7864    0.2602 C   0  0  0  0  0  0  0  0  0  0  0  0
    0.9324   -7.6695    0.2659 O   0  0  0  0  0  0  0  0  0  0  0  0
   -0.2448   -7.5367   -0.5400 C   0  0  0  0  0  0  0  0  0  0  0  0
   -1.4837   -7.1156    0.0297 C   0  0  0  0  0  0  0  0  0  0  0  0
   -0.2079   -7.5729   -1.9340 C   0  0  0  0  0  0  0  0  0  0  0  0
   -1.1630   -6.8843   -2.7430 C   0  0  0  0  0  0  0  0  0  0  0  0
   -2.3903   -6.5378   -2.1773 C   0  0  0  0  0  0  0  0  0  0  0  0
   -2.5818   -6.6752   -0.7969 C   0  0  0  0  0  0  0  0  0  0  0  0
   -3.9418   -6.3144   -0.5550 C   0  0  0  0  0  0  0  0  0  0  0  0
   -4.5514   -6.0672   -1.7684 C   0  0  0  0  0  0  0  0  0  0  0  0
   -3.5898   -6.1317   -2.7492 N   0  0  0  0  0  0  0  0  0  0  0  0
   -3.8916   -5.9800   -4.1729 C   0  0  0  0  0  0  0  0  0  0  0  0
   -4.7804   -7.1004   -4.6955 C   0  0  0  0  0  0  0  0  0  0  0  0
   -5.9525   -6.6857   -5.2563 O   0  0  0  0  0  0  0  0  0  0  0  0
   -4.4857   -8.2682   -4.6626 O   0  0  0  0  0  0  0  0  0  0  0  0
    1.1686   -0.4509    0.7674 H   0  0  0  0  0  0  0  0  0  0  0  0
    0.8272    1.1554    0.1826 H   0  0  0  0  0  0  0  0  0  0  0  0
    2.3424    0.2613   -0.2333 H   0  0  0  0  0  0  0  0  0  0  0  0
   -0.5048   -0.2594   -1.3351 H   0  0  0  0  0  0  0  0  0  0  0  0
    0.8981    0.3290   -2.2282 H   0  0  0  0  0  0  0  0  0  0  0  0
    0.6233   -2.0465   -2.6488 H   0  0  0  0  0  0  0  0  0  0  0  0
    2.0905   -1.7848   -1.7029 H   0  0  0  0  0  0  0  0  0  0  0  0
   -0.2562   -5.3199    2.1741 H   0  0  0  0  0  0  0  0  0  0  0  0
    0.4349   -5.7235   -0.0567 H   0  0  0  0  0  0  0  0  0  0  0  0
    1.0178   -5.9785   -2.0062 H   0  0  0  0  0  0  0  0  0  0  0  0
    2.2897   -5.7898   -3.0698 H   0  0  0  0  0  0  0  0  0  0  0  0
    3.0332   -7.4850   -1.5336 H   0  0  0  0  0  0  0  0  0  0  0  0
    3.8390   -6.0064   -0.9779 H   0  0  0  0  0  0  0  0  0  0  0  0
    2.9114   -7.2425    0.9667 H   0  0  0  0  0  0  0  0  0  0  0  0
    2.1326   -5.8178    0.7865 H   0  0  0  0  0  0  0  0  0  0  0  0
   -1.6101   -7.0216    1.1053 H   0  0  0  0  0  0  0  0  0  0  0  0
    0.6973   -7.9046   -2.4332 H   0  0  0  0  0  0  0  0  0  0  0  0
   -0.9304   -6.6285   -3.7751 H   0  0  0  0  0  0  0  0  0  0  0  0
   -4.4561   -6.3496    0.3956 H   0  0  0  0  0  0  0  0  0  0  0  0
   -5.5954   -5.9076   -2.0137 H   0  0  0  0  0  0  0  0  0  0  0  0
   -4.3584   -4.9984   -4.3158 H   0  0  0  0  0  0  0  0  0  0  0  0
   -2.9642   -5.9877   -4.7529 H   0  0  0  0  0  0  0  0  0  0  0  0
   -6.1526   -5.7336   -5.2577 H   0  0  0  0  0  0  0  0  0  0  0  0
  1  2  1  0  0  0  0
  1 35  1  0  0  0  0
  1 36  1  0  0  0  0
  1 37  1  0  0  0  0
  2  3  1  0  0  0  0
  2 38  1  0  0  0  0
  2 39  1  0  0  0  0
  3  4  1  0  0  0  0
  3 40  1  0  0  0  0
  3 41  1  0  0  0  0
  4  5  2  0  0  0  0
  4 16  1  0  0  0  0
  5  6  1  0  0  0  0
  5 13  1  0  0  0  0
  6  7  1  0  0  0  0
  7  8  2  0  0  0  0
  8  9  1  0  0  0  0
  8 13  1  0  0  0  0
  9 10  1  0  0  0  0
  9 11  1  0  0  0  0
  9 12  1  0  0  0  0
 13 14  2  0  0  0  0
 14 15  1  0  0  0  0
 14 42  1  0  0  0  0
 15 16  2  0  0  0  0
 15 43  1  0  0  0  0
 16 17  1  0  0  0  0
 17 18  1  0  0  0  0
 18 19  1  0  0  0  0
 18 44  1  0  0  0  0
 18 45  1  0  0  0  0
 19 20  1  0  0  0  0
 19 46  1  0  0  0  0
 19 47  1  0  0  0  0
 20 21  1  0  0  0  0
 20 48  1  0  0  0  0
 20 49  1  0  0  0  0
 21 22  1  0  0  0  0
 22 23  2  0  0  0  0
 22 24  1  0  0  0  0
 23 27  1  0  0  0  0
 23 50  1  0  0  0  0
 24 25  2  0  0  0  0
 24 51  1  0  0  0  0
 25 26  1  0  0  0  0
 25 52  1  0  0  0  0
 26 27  2  0  0  0  0
 26 30  1  0  0  0  0
 27 28  1  0  0  0  0
 28 29  2  0  0  0  0
 28 53  1  0  0  0  0
 29 30  1  0  0  0  0
 29 54  1  0  0  0  0
 30 31  1  0  0  0  0
 31 32  1  0  0  0  0
 31 55  1  0  0  0  0
 31 56  1  0  0  0  0
 32 33  1  0  0  0  0
 32 34  2  0  0  0  0
 33 57  1  0  0  0  0
M  END
>  <DRUGBANK_ID>
DB07053

>  <COMMON_NAME>
2-{5-[3-(7-PROPYL-3-TRIFLUOROMETHYLBENZO[D]ISOXAZOL-6-YLOXY)PROPOXY]INDOL-1-YL}ETHANOIC ACID

$$$$
