
 OpenBabel10282417193D

 49 53  0  0  0  0  0  0  0  0999 V2000
    0.8650    0.1734    0.1900 C   0  0  0  0  0  0  0  0  0  0  0  0
    0.1967    0.9297    1.2511 O   0  0  0  0  0  0  0  0  0  0  0  0
    0.7476    0.5876    2.5116 N   0  0  0  0  0  0  0  0  0  0  0  0
    0.2340    1.1032    3.6115 C   0  0  0  0  0  0  0  0  0  0  0  0
    0.9484    0.9735    4.9763 C   0  0  0  0  0  0  0  0  0  0  0  0
    0.6434    2.3090    5.6341 N   0  0  0  0  0  0  0  0  0  0  0  0
   -0.3109    3.1415    4.8561 C   0  0  0  0  0  0  0  0  0  0  0  0
   -1.1555    2.1821    4.1058 C   0  0  0  0  0  0  0  0  0  0  0  0
   -2.8108    1.4599    5.0543 C   0  0  0  0  0  0  0  0  0  0  0  0
   -1.6921    0.6198    4.8566 N   0  0  0  0  0  0  0  0  0  0  0  0
   -2.3236    1.7045    3.4064 C   0  0  0  0  0  0  0  0  0  0  0  0
    0.6561    2.3729    7.0328 C   0  0  0  0  0  0  0  0  0  0  0  0
    1.8906    2.1385    7.6462 C   0  0  0  0  0  0  0  0  0  0  0  0
    2.0441    2.2837    9.0069 C   0  0  0  0  0  0  0  0  0  0  0  0
    0.9444    2.6353    9.7778 C   0  0  0  0  0  0  0  0  0  0  0  0
    1.1438    2.7595   11.2347 C   0  0  0  0  0  0  0  0  0  0  0  0
    2.2681    2.5706   11.6871 O   0  0  0  0  0  0  0  0  0  0  0  0
   -0.0147    3.1000   12.0829 C   0  0  0  0  0  0  0  0  0  0  0  0
   -1.1758    3.2883   11.4319 C   0  0  0  0  0  0  0  0  0  0  0  0
   -1.3940    3.2057   10.0538 N   0  0  0  0  0  0  0  0  0  0  0  0
   -0.2958    2.8620    9.1677 C   0  0  0  0  0  0  0  0  0  0  0  0
   -0.4302    2.7539    7.7921 N   0  0  0  0  0  0  0  0  0  0  0  0
   -2.7622    3.3587    9.4898 C   0  0  0  0  0  0  0  0  0  0  0  0
   -3.5309    4.6584    9.5362 C   0  0  0  0  0  0  0  0  0  0  0  0
   -4.0182    3.4794   10.3287 C   0  0  0  0  0  0  0  0  0  0  0  0
    0.0533    3.2418   13.5572 C   0  0  0  0  0  0  0  0  0  0  0  0
   -0.8817    3.5156   14.2920 O   0  0  0  0  0  0  0  0  0  0  0  0
    1.2853    3.0433   14.0540 O   0  0  0  0  0  0  0  0  0  0  0  0
    2.9767    1.8488    6.9139 F   0  0  0  0  0  0  0  0  0  0  0  0
    0.5645    0.5657   -0.7940 H   0  0  0  0  0  0  0  0  0  0  0  0
    0.5592   -0.8798    0.2161 H   0  0  0  0  0  0  0  0  0  0  0  0
    1.9653    0.2239    0.2213 H   0  0  0  0  0  0  0  0  0  0  0  0
    0.4953    0.1208    5.5060 H   0  0  0  0  0  0  0  0  0  0  0  0
    2.0108    0.7523    4.8561 H   0  0  0  0  0  0  0  0  0  0  0  0
   -0.8725    3.8990    5.3924 H   0  0  0  0  0  0  0  0  0  0  0  0
    0.3406    3.6656    4.1371 H   0  0  0  0  0  0  0  0  0  0  0  0
   -3.3869    0.5000    5.2462 H   0  0  0  0  0  0  0  0  0  0  0  0
   -3.4594    2.1392    5.5628 H   0  0  0  0  0  0  0  0  0  0  0  0
   -1.5925   -0.3411    4.7471 H   0  0  0  0  0  0  0  0  0  0  0  0
   -2.8696    2.7152    3.5074 H   0  0  0  0  0  0  0  0  0  0  0  0
   -2.3928    1.1933    2.4863 H   0  0  0  0  0  0  0  0  0  0  0  0
    3.0219    2.1382    9.4515 H   0  0  0  0  0  0  0  0  0  0  0  0
   -2.0536    3.5402   12.0185 H   0  0  0  0  0  0  0  0  0  0  0  0
   -2.8710    2.7926    8.5655 H   0  0  0  0  0  0  0  0  0  0  0  0
   -3.1082    5.5065   10.0607 H   0  0  0  0  0  0  0  0  0  0  0  0
   -4.1033    4.9424    8.6581 H   0  0  0  0  0  0  0  0  0  0  0  0
   -4.9169    2.9694    9.9997 H   0  0  0  0  0  0  0  0  0  0  0  0
   -3.9593    3.5141   11.4086 H   0  0  0  0  0  0  0  0  0  0  0  0
    1.2618    3.1596   15.0236 H   0  0  0  0  0  0  0  0  0  0  0  0
  1  2  1  0  0  0  0
  1 30  1  0  0  0  0
  1 31  1  0  0  0  0
  1 32  1  0  0  0  0
  3  2  1  0  0  0  0
  3  4  2  3  0  0  0
  4  5  1  0  0  0  0
  4  8  1  0  0  0  0
  5  6  1  0  0  0  0
  5 33  1  0  0  0  0
  5 34  1  0  0  0  0
  6  7  1  0  0  0  0
  6 12  1  0  0  0  0
  7  8  1  0  0  0  0
  7 35  1  0  0  0  0
  7 36  1  0  0  0  0
  8  9  1  0  0  0  0
  8 11  1  0  0  0  0
  9 10  1  0  0  0  0
  9 37  1  0  0  0  0
  9 38  1  0  0  0  0
 10 11  1  0  0  0  0
 10 39  1  0  0  0  0
 11 40  1  0  0  0  0
 11 41  1  0  0  0  0
 12 13  2  0  0  0  0
 12 22  1  0  0  0  0
 13 14  1  0  0  0  0
 13 29  1  0  0  0  0
 14 15  2  0  0  0  0
 14 42  1  0  0  0  0
 15 16  1  0  0  0  0
 15 21  1  0  0  0  0
 16 17  2  0  0  0  0
 16 18  1  0  0  0  0
 18 19  2  0  0  0  0
 18 26  1  0  0  0  0
 19 20  1  0  0  0  0
 19 43  1  0  0  0  0
 20 21  1  0  0  0  0
 20 23  1  0  0  0  0
 21 22  2  0  0  0  0
 23 24  1  0  0  0  0
 23 25  1  0  0  0  0
 23 44  1  0  0  0  0
 24 25  1  0  0  0  0
 24 45  1  0  0  0  0
 24 46  1  0  0  0  0
 25 47  1  0  0  0  0
 25 48  1  0  0  0  0
 26 27  2  0  0  0  0
 26 28  1  0  0  0  0
 28 49  1  0  0  0  0
M  END
>  <DRUGBANK_ID>
DB12479

>  <COMMON_NAME>
Zabofloxacin

>  <CAS_NUMBER>
219680-11-2

>  <UNII>
LV66BA6V2G

>  <SYNONYMS>
Zabofloxacin

$$$$
