
 OpenBabel10282417123D

 24 23  0  0  1  0  0  0  0  0999 V2000
   -1.7528    4.1568   -0.3044 C   0  0  0  0  0  0  0  0  0  0  0  0
   -1.8302    3.5277   -1.6943 C   0  0  0  0  0  0  0  0  0  0  0  0
   -1.4644    4.5774   -2.7318 C   0  0  0  0  0  0  0  0  0  0  0  0
   -0.9564    2.2601   -1.8313 C   0  0  0  0  0  0  0  0  0  0  0  0
   -1.4339    1.1023   -0.9234 C   0  0  2  0  0  0  0  0  0  0  0  0
   -0.8302   -0.1662   -1.4006 N   0  0  0  0  0  0  0  0  0  0  0  0
   -3.2639    1.1023   -0.9234 P   0  0  0  0  0  0  0  0  0  0  0  0
   -3.1458   -0.5014   -0.5189 O   0  0  0  0  0  0  0  0  0  0  0  0
   -3.2707    1.6739    0.6194 O   0  0  0  0  0  0  0  0  0  0  0  0
   -4.8122    1.1023   -0.9234 O   0  0  0  0  0  0  0  0  0  0  0  0
   -0.7666    4.5905   -0.1260 H   0  0  0  0  0  0  0  0  0  0  0  0
   -1.9214    3.4529    0.5061 H   0  0  0  0  0  0  0  0  0  0  0  0
   -2.5112    4.9401   -0.2047 H   0  0  0  0  0  0  0  0  0  0  0  0
   -2.8731    3.2702   -1.9123 H   0  0  0  0  0  0  0  0  0  0  0  0
   -0.4580    4.9643   -2.5557 H   0  0  0  0  0  0  0  0  0  0  0  0
   -1.5172    4.1654   -3.7438 H   0  0  0  0  0  0  0  0  0  0  0  0
   -2.1736    5.4107   -2.6721 H   0  0  0  0  0  0  0  0  0  0  0  0
   -0.9879    1.9292   -2.8785 H   0  0  0  0  0  0  0  0  0  0  0  0
    0.0927    2.4932   -1.6087 H   0  0  0  0  0  0  0  0  0  0  0  0
   -1.0114    1.2608    0.0735 H   0  0  0  0  0  0  0  0  0  0  0  0
   -1.2879   -0.4687   -2.2581 H   0  0  0  0  0  0  0  0  0  0  0  0
   -1.0957   -0.8786   -0.7102 H   0  0  0  0  0  0  0  0  0  0  0  0
   -3.7461   -1.0363   -1.0684 H   0  0  0  0  0  0  0  0  0  0  0  0
   -2.4991    1.5262    1.2100 H   0  0  0  0  0  0  0  0  0  0  0  0
  1  2  1  0  0  0  0
  1 11  1  0  0  0  0
  1 12  1  0  0  0  0
  1 13  1  0  0  0  0
  2  3  1  0  0  0  0
  2  4  1  0  0  0  0
  2 14  1  0  0  0  0
  3 15  1  0  0  0  0
  3 16  1  0  0  0  0
  3 17  1  0  0  0  0
  4 18  1  0  0  0  0
  4 19  1  0  0  0  0
  5  7  1  0  0  0  0
  5 20  1  1  0  0  0
  5  6  1  0  0  0  0
  5  4  1  0  0  0  0
  6 21  1  0  0  0  0
  6 22  1  0  0  0  0
  7  8  1  0  0  0  0
  7  9  1  0  0  0  0
  7 10  2  0  0  0  0
  8 23  1  0  0  0  0
  9 24  1  0  0  0  0
M  END
>  <DRUGBANK_ID>
DB02386

>  <SECONDARY_ACCESSION_NUMBERS>
EXPT02610

>  <COMMON_NAME>
Leucine Phosphonic Acid

$$$$
