
 OpenBabel10282417123D

 12 12  0  0  0  0  0  0  0  0999 V2000
    0.9694    0.1308   -0.0432 O   0  0  0  0  0  0  0  0  0  0  0  0
    0.4090   -0.9307   -0.6565 C   0  0  0  0  0  0  0  0  0  0  0  0
    1.1000   -1.8370   -1.1041 O   0  0  0  0  0  0  0  0  0  0  0  0
   -1.0158   -0.9408   -0.6428 C   0  0  0  0  0  0  0  0  0  0  0  0
   -1.8786    0.1150   -0.8134 C   0  0  0  0  0  0  0  0  0  0  0  0
   -3.1636   -0.3273   -0.7554 O   0  0  0  0  0  0  0  0  0  0  0  0
   -3.1653   -1.6995   -0.5235 N   0  0  0  0  0  0  0  0  0  0  0  0
   -1.8788   -2.0303   -0.4702 C   0  0  0  0  0  0  0  0  0  0  0  0
   -1.5820   -3.3145   -0.2289 O   0  0  0  0  0  0  0  0  0  0  0  0
    1.9326   -0.0521   -0.0575 H   0  0  0  0  0  0  0  0  0  0  0  0
   -1.7579    1.1712   -1.0041 H   0  0  0  0  0  0  0  0  0  0  0  0
   -0.6171   -3.4387   -0.2395 H   0  0  0  0  0  0  0  0  0  0  0  0
  1  2  1  0  0  0  0
  1 10  1  0  0  0  0
  2  3  2  0  0  0  0
  2  4  1  0  0  0  0
  4  5  2  0  0  0  0
  4  8  1  0  0  0  0
  5  6  1  0  0  0  0
  5 11  1  0  0  0  0
  6  7  1  0  0  0  0
  7  8  2  0  0  0  0
  8  9  1  0  0  0  0
  9 12  1  0  0  0  0
M  END
>  <DRUGBANK_ID>
DB02111

>  <SECONDARY_ACCESSION_NUMBERS>
EXPT01545

>  <COMMON_NAME>
3-hydroxyisoxazole-4-carboxylic acid

$$$$
