
 OpenBabel10282417143D

 39 38  0  0  1  0  0  0  0  0999 V2000
   -4.0649   -4.8224   -3.1326 N   0  0  0  0  0  0  0  0  0  0  0  0
   -4.7323   -3.6256   -3.8768 C   0  0  1  0  0  0  0  0  0  0  0  0
   -6.1330   -4.0198   -4.1966 C   0  0  0  0  0  0  0  0  0  0  0  0
   -7.0148   -4.2572   -2.9569 C   0  0  0  0  0  0  0  0  0  0  0  0
   -7.1164   -3.1339   -1.9071 C   0  0  0  0  0  0  0  0  0  0  0  0
   -8.1338   -2.4301   -1.9201 O   0  0  0  0  0  0  0  0  0  0  0  0
   -6.1052   -2.8263   -0.9942 N   0  0  0  0  0  0  0  0  0  0  0  0
   -4.6546   -3.2430   -0.8900 C   0  0  1  0  0  0  0  0  0  0  0  0
   -3.2057   -2.6318   -1.4723 C   0  0  0  0  0  0  0  0  0  0  0  0
   -2.5381   -0.9061   -1.2977 S   0  0  2  0  0  0  0  0  0  0  0  0
   -1.2406   -1.2743   -0.4319 O   0  0  0  0  0  0  0  0  0  0  0  0
   -3.3543    0.0227   -0.4636 O   0  0  0  0  0  0  0  0  0  0  0  0
   -4.2654   -3.9580    0.3772 C   0  0  0  0  0  0  0  0  0  0  0  0
   -4.0206   -5.1416    0.4040 O   0  0  0  0  0  0  0  0  0  0  0  0
   -4.0672   -3.1175    1.4365 N   0  0  0  0  0  0  0  0  0  0  0  0
   -4.2597   -1.6903    1.3485 C   0  0  0  0  0  0  0  0  0  0  0  0
   -5.3876   -0.9948    2.0694 C   0  0  0  0  0  0  0  0  0  0  0  0
   -4.9575    0.0929    2.7582 O   0  0  0  0  0  0  0  0  0  0  0  0
   -6.5460   -1.3183    1.9755 O   0  0  0  0  0  0  0  0  0  0  0  0
   -4.8392   -1.9889   -3.5009 C   0  0  0  0  0  0  0  0  0  0  0  0
   -4.0524   -1.2333   -4.2948 O   0  0  0  0  0  0  0  0  0  0  0  0
   -5.4731   -1.3651   -2.6602 O   0  0  0  0  0  0  0  0  0  0  0  0
   -4.6666   -5.3046   -2.4334 H   0  0  0  0  0  0  0  0  0  0  0  0
   -4.0507   -5.6410   -3.7592 H   0  0  0  0  0  0  0  0  0  0  0  0
   -4.0447   -3.5814   -4.7204 H   0  0  0  0  0  0  0  0  0  0  0  0
   -6.5403   -3.2145   -4.8144 H   0  0  0  0  0  0  0  0  0  0  0  0
   -6.1027   -4.9220   -4.8176 H   0  0  0  0  0  0  0  0  0  0  0  0
   -8.0270   -4.4085   -3.3662 H   0  0  0  0  0  0  0  0  0  0  0  0
   -6.7766   -5.1920   -2.4435 H   0  0  0  0  0  0  0  0  0  0  0  0
   -6.3615   -1.9441   -0.5603 H   0  0  0  0  0  0  0  0  0  0  0  0
   -4.8555   -4.0981   -1.4505 H   0  0  0  0  0  0  0  0  0  0  0  0
   -2.3854   -3.3365   -1.2660 H   0  0  0  0  0  0  0  0  0  0  0  0
   -3.1092   -2.6921   -2.5498 H   0  0  0  0  0  0  0  0  0  0  0  0
   -0.8133   -2.1160   -0.7038 H   0  0  0  0  0  0  0  0  0  0  0  0
   -3.6785   -3.5527    2.2583 H   0  0  0  0  0  0  0  0  0  0  0  0
   -3.2891   -1.2387    1.5468 H   0  0  0  0  0  0  0  0  0  0  0  0
   -4.5637   -1.4437    0.3392 H   0  0  0  0  0  0  0  0  0  0  0  0
   -4.0164    0.3109    2.6052 H   0  0  0  0  0  0  0  0  0  0  0  0
   -3.1468   -1.1846   -3.9425 H   0  0  0  0  0  0  0  0  0  0  0  0
  1 23  1  0  0  0  0
  1 24  1  0  0  0  0
  2  1  1  0  0  0  0
  2  3  1  0  0  0  0
  2 20  1  0  0  0  0
  2 25  1  6  0  0  0
  3  4  1  0  0  0  0
  3 26  1  0  0  0  0
  3 27  1  0  0  0  0
  4  5  1  0  0  0  0
  4 28  1  0  0  0  0
  4 29  1  0  0  0  0
  5  6  2  0  0  0  0
  5  7  1  0  0  0  0
  7 30  1  0  0  0  0
  8  7  1  0  0  0  0
  8  9  1  0  0  0  0
  8 13  1  0  0  0  0
  8 31  1  6  0  0  0
  9 32  1  0  0  0  0
  9 33  1  0  0  0  0
 10 12  2  1  0  0  0
 10 11  1  0  0  0  0
 10  9  1  0  0  0  0
 11 34  1  0  0  0  0
 13 14  2  0  0  0  0
 13 15  1  0  0  0  0
 15 16  1  0  0  0  0
 15 35  1  0  0  0  0
 16 17  1  0  0  0  0
 16 36  1  0  0  0  0
 16 37  1  0  0  0  0
 17 18  1  0  0  0  0
 17 19  2  0  0  0  0
 18 38  1  0  0  0  0
 20 21  1  0  0  0  0
 20 22  2  0  0  0  0
 21 39  1  0  0  0  0
M  END
>  <DRUGBANK_ID>
DB04700

>  <COMMON_NAME>
GLUTATHIONE SULFINATE

$$$$
