
 OpenBabel10282417123D

 68 72  0  0  0  0  0  0  0  0999 V2000
    3.4670   -1.1809   -0.7723 O   0  0  0  0  0  0  0  0  0  0  0  0
    1.0223   -2.2287   -3.3249 N   0  0  0  0  0  0  0  0  0  0  0  0
    1.8877   -2.8652   -4.1966 C   0  0  0  0  0  0  0  0  0  0  0  0
    1.6185   -2.9430   -5.5036 C   0  0  0  0  0  0  0  0  0  0  0  0
    0.3120   -2.4770   -5.9991 C   0  0  0  0  0  0  0  0  0  0  0  0
   -0.5853   -2.1845   -5.0263 N   0  0  0  0  0  0  0  0  0  0  0  0
   -0.2248   -1.8828   -3.7641 C   0  0  0  0  0  0  0  0  0  0  0  0
    3.5703    1.1635    0.0085 P   0  0  0  0  0  0  0  0  0  0  0  0
    4.8977    1.7701   -0.4195 O   0  0  0  0  0  0  0  0  0  0  0  0
    2.5456    2.2577    0.6278 O   0  0  0  0  0  0  0  0  0  0  0  0
    4.2255    0.8175    1.5718 O   0  0  0  0  0  0  0  0  0  0  0  0
    2.7175   -0.9371   -1.9822 C   0  0  2  0  0  0  0  0  0  0  0  0
    2.0606    0.4493   -1.9587 C   0  0  1  0  0  0  0  0  0  0  0  0
    1.4938   -1.8679   -1.9755 C   0  0  1  0  0  0  0  0  0  0  0  0
    0.5060   -1.1568   -1.2051 O   0  0  0  0  0  0  0  0  0  0  0  0
    0.9357    0.1957   -0.9758 C   0  0  2  0  0  0  0  0  0  0  0  0
   -0.2169    1.1705   -1.0652 C   0  0  0  0  0  0  0  0  0  0  0  0
   -1.1908    0.7029   -0.1303 O   0  0  0  0  0  0  0  0  0  0  0  0
    2.9152    1.5096   -1.5548 O   0  0  0  0  0  0  0  0  0  0  0  0
   -1.0327   -1.2290   -3.1054 O   0  0  0  0  0  0  0  0  0  0  0  0
    0.0662   -2.3762   -7.1911 O   0  0  0  0  0  0  0  0  0  0  0  0
   -2.4283   -0.2463   -0.5415 P   0  0  3  0  0  0  0  0  0  0  0  0
   -3.6900    0.0894    0.1837 O   0  0  0  0  0  0  0  0  0  0  0  0
   -2.5905    0.0645   -2.0956 O   0  0  0  0  0  0  0  0  0  0  0  0
   -2.0234   -1.8323   -0.4202 O   0  0  0  0  0  0  0  0  0  0  0  0
   -2.7804   -4.1760    0.3846 C   0  0  2  0  0  0  0  0  0  0  0  0
   -1.4761   -4.6359   -0.0503 O   0  0  0  0  0  0  0  0  0  0  0  0
   -2.7501   -2.6338    0.5434 C   0  0  1  0  0  0  0  0  0  0  0  0
   -3.0553   -4.7100    1.8471 C   0  0  1  0  0  0  0  0  0  0  0  0
   -2.3361   -3.7575    2.6753 O   0  0  0  0  0  0  0  0  0  0  0  0
   -2.1256   -2.5270    1.9283 C   0  0  2  0  0  0  0  0  0  0  0  0
   -2.6839   -1.3493    2.7154 C   0  0  0  0  0  0  0  0  0  0  0  0
   -2.0196   -1.2689    3.9699 O   0  0  0  0  0  0  0  0  0  0  0  0
   -5.6022   -3.4722    0.7491 N   0  0  0  0  0  0  0  0  0  0  0  0
   -7.1603   -2.7322    2.9810 C   0  0  0  0  0  0  0  0  0  0  0  0
   -7.2949   -2.0880    1.8026 N   0  0  0  0  0  0  0  0  0  0  0  0
   -6.5296   -2.4920    0.7681 C   0  0  0  0  0  0  0  0  0  0  0  0
   -6.2076   -3.7509    3.0853 C   0  0  0  0  0  0  0  0  0  0  0  0
   -5.4515   -4.0174    1.9622 C   0  0  0  0  0  0  0  0  0  0  0  0
   -4.4047   -4.7817    2.4117 N   0  0  0  0  0  0  0  0  0  0  0  0
   -4.7625   -5.1867    3.6920 C   0  0  0  0  0  0  0  0  0  0  0  0
   -5.8241   -4.5399    4.1366 N   0  0  0  0  0  0  0  0  0  0  0  0
   -7.9108   -2.3522    4.0663 N   0  0  0  0  0  0  0  0  0  0  0  0
    3.9213   -2.0396   -0.8677 H   0  0  0  0  0  0  0  0  0  0  0  0
    2.8170   -3.2509   -3.7887 H   0  0  0  0  0  0  0  0  0  0  0  0
    2.3052   -3.3326   -6.2396 H   0  0  0  0  0  0  0  0  0  0  0  0
   -1.4918   -1.8427   -5.3126 H   0  0  0  0  0  0  0  0  0  0  0  0
    2.4044    2.9849   -0.0068 H   0  0  0  0  0  0  0  0  0  0  0  0
    4.2395   -0.1436    1.7070 H   0  0  0  0  0  0  0  0  0  0  0  0
    3.4017   -1.0592   -2.8235 H   0  0  0  0  0  0  0  0  0  0  0  0
    1.6651    0.6927   -2.9528 H   0  0  0  0  0  0  0  0  0  0  0  0
    1.6896   -2.7959   -1.4261 H   0  0  0  0  0  0  0  0  0  0  0  0
    1.2656    0.2317    0.0665 H   0  0  0  0  0  0  0  0  0  0  0  0
    0.0991    2.1866   -0.7826 H   0  0  0  0  0  0  0  0  0  0  0  0
   -0.5915    1.2795   -2.0887 H   0  0  0  0  0  0  0  0  0  0  0  0
   -1.7766   -0.2437   -2.5510 H   0  0  0  0  0  0  0  0  0  0  0  0
   -3.4901   -4.5576   -0.3566 H   0  0  0  0  0  0  0  0  0  0  0  0
   -0.8066   -4.1367    0.4508 H   0  0  0  0  0  0  0  0  0  0  0  0
   -3.7649   -2.2568    0.5492 H   0  0  0  0  0  0  0  0  0  0  0  0
   -2.5917   -5.6974    1.9927 H   0  0  0  0  0  0  0  0  0  0  0  0
   -1.0408   -2.4176    1.8363 H   0  0  0  0  0  0  0  0  0  0  0  0
   -2.4969   -0.4125    2.1938 H   0  0  0  0  0  0  0  0  0  0  0  0
   -3.7599   -1.4510    2.8935 H   0  0  0  0  0  0  0  0  0  0  0  0
   -2.2139   -2.1077    4.4250 H   0  0  0  0  0  0  0  0  0  0  0  0
   -6.6420   -1.9350   -0.1576 H   0  0  0  0  0  0  0  0  0  0  0  0
   -4.2295   -5.8923    4.3230 H   0  0  0  0  0  0  0  0  0  0  0  0
   -8.5819   -1.6101    3.9729 H   0  0  0  0  0  0  0  0  0  0  0  0
   -7.7593   -2.8521    4.9322 H   0  0  0  0  0  0  0  0  0  0  0  0
  1 44  1  0  0  0  0
  2  3  1  0  0  0  0
  2  7  1  0  0  0  0
  3  4  2  0  0  0  0
  3 45  1  0  0  0  0
  4  5  1  0  0  0  0
  4 46  1  0  0  0  0
  5 21  2  0  0  0  0
  5  6  1  0  0  0  0
  6  7  1  0  0  0  0
  6 47  1  0  0  0  0
  7 20  2  0  0  0  0
  8  9  2  0  0  0  0
  8 19  1  0  0  0  0
  8 11  1  0  0  0  0
 10  8  1  0  0  0  0
 10 48  1  0  0  0  0
 11 49  1  0  0  0  0
 12  1  1  0  0  0  0
 12 14  1  0  0  0  0
 12 50  1  6  0  0  0
 13 12  1  0  0  0  0
 13 19  1  0  0  0  0
 13 51  1  6  0  0  0
 14 15  1  0  0  0  0
 14  2  1  0  0  0  0
 14 52  1  1  0  0  0
 15 16  1  0  0  0  0
 16 13  1  0  0  0  0
 16 17  1  0  0  0  0
 16 53  1  1  0  0  0
 17 18  1  0  0  0  0
 17 54  1  0  0  0  0
 17 55  1  0  0  0  0
 18 22  1  0  0  0  0
 22 23  2  0  0  0  0
 22 24  1  0  0  0  0
 22 25  1  0  0  0  0
 24 56  1  0  0  0  0
 26 27  1  0  0  0  0
 26 29  1  0  0  0  0
 26 57  1  6  0  0  0
 27 58  1  0  0  0  0
 28 26  1  0  0  0  0
 28 59  1  1  0  0  0
 28 25  1  0  0  0  0
 29 30  1  0  0  0  0
 29 40  1  0  0  0  0
 29 60  1  1  0  0  0
 30 31  1  0  0  0  0
 31 28  1  0  0  0  0
 31 32  1  0  0  0  0
 31 61  1  6  0  0  0
 32 33  1  0  0  0  0
 32 62  1  0  0  0  0
 32 63  1  0  0  0  0
 33 64  1  0  0  0  0
 34 39  1  0  0  0  0
 34 37  2  0  0  0  0
 35 36  2  0  0  0  0
 35 43  1  0  0  0  0
 36 37  1  0  0  0  0
 37 65  1  0  0  0  0
 38 35  1  0  0  0  0
 38 39  2  0  0  0  0
 39 40  1  0  0  0  0
 40 41  1  0  0  0  0
 41 42  2  0  0  0  0
 41 66  1  0  0  0  0
 42 38  1  0  0  0  0
 43 67  1  0  0  0  0
 43 68  1  0  0  0  0
M  END
>  <DRUGBANK_ID>
DB01792

>  <SECONDARY_ACCESSION_NUMBERS>
EXPT00547

>  <COMMON_NAME>
Adenylyl-(3'-5')-uridine 3'-monophosphate

>  <CAS_NUMBER>
1985-21-3

>  <SYNONYMS>
Adenylyl-(3'-5')-3'-uridylic acid; Adenylyl-3'-5'-phospho-uridine-3'-monophosphate

$$$$
