
 OpenBabel10282417133D

 29 28  0  0  1  0  0  0  0  0999 V2000
    3.8540    2.2496    0.3254 C   0  0  0  0  0  0  0  0  0  0  0  0
    2.6633    1.5330    0.9781 C   0  0  2  0  0  0  0  0  0  0  0  0
    1.7448    2.0630    0.0381 O   0  0  0  0  0  0  0  0  0  0  0  0
    2.4560    2.0262    2.4305 C   0  0  0  0  0  0  0  0  0  0  0  0
    1.0201    1.3298    3.5686 Br  0  0  0  0  0  0  0  0  0  0  0  0
    2.9404    0.0059    0.8958 C   0  0  0  0  0  0  0  0  0  0  0  0
    1.8581   -0.9832    1.2782 C   0  0  0  0  0  0  0  0  0  0  0  0
    0.7091   -0.7552    0.5333 O   0  0  0  0  0  0  0  0  0  0  0  0
    0.7110   -0.7112   -1.0726 P   0  0  2  0  0  0  0  0  0  0  0  0
   -0.1632   -2.0536   -1.1457 O   0  0  0  0  0  0  0  0  0  0  0  0
    1.9889   -0.8754   -1.7931 O   0  0  0  0  0  0  0  0  0  0  0  0
   -0.1376    0.6512   -1.3498 O   0  0  0  0  0  0  0  0  0  0  0  0
   -1.3025    1.1758   -0.1834 P   0  0  0  0  0  0  0  0  0  0  0  0
   -0.1655    1.3295    0.9219 O   0  0  0  0  0  0  0  0  0  0  0  0
   -1.1440    2.6430   -0.8812 O   0  0  0  0  0  0  0  0  0  0  0  0
   -2.3451    1.6453    0.8606 O   0  0  0  0  0  0  0  0  0  0  0  0
    3.5823    2.6633   -0.6658 H   0  0  0  0  0  0  0  0  0  0  0  0
    4.6827    1.5729    0.1305 H   0  0  0  0  0  0  0  0  0  0  0  0
    4.1654    3.1044    0.9216 H   0  0  0  0  0  0  0  0  0  0  0  0
    0.9452    1.5309    0.0422 H   0  0  0  0  0  0  0  0  0  0  0  0
    3.3364    1.7565    3.0157 H   0  0  0  0  0  0  0  0  0  0  0  0
    2.2672    3.0986    2.4650 H   0  0  0  0  0  0  0  0  0  0  0  0
    3.2164   -0.2106   -0.1343 H   0  0  0  0  0  0  0  0  0  0  0  0
    3.8225   -0.2391    1.4903 H   0  0  0  0  0  0  0  0  0  0  0  0
    2.1547   -2.0267    1.1429 H   0  0  0  0  0  0  0  0  0  0  0  0
    1.5749   -0.9153    2.3288 H   0  0  0  0  0  0  0  0  0  0  0  0
    0.3854   -2.7138   -0.6518 H   0  0  0  0  0  0  0  0  0  0  0  0
   -0.3249    0.6991    1.6549 H   0  0  0  0  0  0  0  0  0  0  0  0
   -0.8170    2.5832   -1.7955 H   0  0  0  0  0  0  0  0  0  0  0  0
  1 17  1  0  0  0  0
  1 18  1  0  0  0  0
  1 19  1  0  0  0  0
  2  4  1  0  0  0  0
  2  6  1  0  0  0  0
  2  3  1  6  0  0  0
  2  1  1  0  0  0  0
  3 20  1  0  0  0  0
  4  5  1  0  0  0  0
  4 21  1  0  0  0  0
  4 22  1  0  0  0  0
  6  7  1  0  0  0  0
  6 23  1  0  0  0  0
  6 24  1  0  0  0  0
  7  8  1  0  0  0  0
  7 25  1  0  0  0  0
  7 26  1  0  0  0  0
  9 11  2  6  0  0  0
  9 12  1  0  0  0  0
  9 10  1  0  0  0  0
  9  8  1  0  0  0  0
 10 27  1  0  0  0  0
 12 13  1  0  0  0  0
 13 14  1  0  0  0  0
 13 15  1  0  0  0  0
 13 16  2  0  0  0  0
 14 28  1  0  0  0  0
 15 29  1  0  0  0  0
M  END
>  <DRUGBANK_ID>
DB04170

>  <SECONDARY_ACCESSION_NUMBERS>
EXPT00699

>  <COMMON_NAME>
4-bromo-3-hydroxy-3-methyl butyl diphosphate

$$$$
