
 OpenBabel10282417203D

 34 36  0  0  0  0  0  0  0  0999 V2000
    0.9265   -0.0677   -0.0004 C   0  0  0  0  0  0  0  0  0  0  0  0
   -6.2409   -0.0708   -3.1611 C   0  0  0  0  0  0  0  0  0  0  0  0
   -5.5386   -0.5179   -2.0398 C   0  0  0  0  0  0  0  0  0  0  0  0
   -5.5550    0.2977   -4.3193 C   0  0  0  0  0  0  0  0  0  0  0  0
   -4.1436   -0.5093   -2.0414 C   0  0  0  0  0  0  0  0  0  0  0  0
   -4.1621    0.2360   -4.3519 C   0  0  0  0  0  0  0  0  0  0  0  0
    0.1711   -3.6057   -2.2402 C   0  0  0  0  0  0  0  0  0  0  0  0
    0.6067   -2.3885   -1.7115 C   0  0  0  0  0  0  0  0  0  0  0  0
   -0.0415    1.3224   -3.4717 C   0  0  0  0  0  0  0  0  0  0  0  0
    0.5225    1.2600   -2.0543 C   0  0  0  0  0  0  0  0  0  0  0  0
   -1.6254   -2.4575   -3.3547 C   0  0  0  0  0  0  0  0  0  0  0  0
   -3.4606   -0.1236   -3.1967 C   0  0  0  0  0  0  0  0  0  0  0  0
   -0.9522   -3.6345   -3.0517 C   0  0  0  0  0  0  0  0  0  0  0  0
   -1.1808   -1.2298   -2.8291 C   0  0  0  0  0  0  0  0  0  0  0  0
   -0.0595   -1.1727   -1.9710 C   0  0  0  0  0  0  0  0  0  0  0  0
   -1.9747   -0.0103   -3.1812 C   0  0  0  0  0  0  0  0  0  0  0  0
   -1.5125   -5.1312   -3.6854 Cl  0  0  0  0  0  0  0  0  0  0  0  0
   -1.4921    1.1450   -3.4845 N   0  0  0  0  0  0  0  0  0  0  0  0
    0.3486   -0.0120   -1.3375 N   0  0  0  0  0  0  0  0  0  0  0  0
    0.5813   -0.9409    0.5648 H   0  0  0  0  0  0  0  0  0  0  0  0
    0.6153    0.8126    0.5720 H   0  0  0  0  0  0  0  0  0  0  0  0
    2.0204   -0.0815   -0.0455 H   0  0  0  0  0  0  0  0  0  0  0  0
   -7.3257   -0.0020   -3.1293 H   0  0  0  0  0  0  0  0  0  0  0  0
   -6.0788   -0.8473   -1.1563 H   0  0  0  0  0  0  0  0  0  0  0  0
   -6.1036    0.6469   -5.1903 H   0  0  0  0  0  0  0  0  0  0  0  0
   -3.5986   -0.7695   -1.1382 H   0  0  0  0  0  0  0  0  0  0  0  0
   -3.6253    0.4841   -5.2638 H   0  0  0  0  0  0  0  0  0  0  0  0
    0.7122   -4.5183   -2.0060 H   0  0  0  0  0  0  0  0  0  0  0  0
    1.4975   -2.3989   -1.0872 H   0  0  0  0  0  0  0  0  0  0  0  0
    0.4542    0.6206   -4.1515 H   0  0  0  0  0  0  0  0  0  0  0  0
    0.1670    2.3246   -3.8664 H   0  0  0  0  0  0  0  0  0  0  0  0
    1.5965    1.4807   -2.1106 H   0  0  0  0  0  0  0  0  0  0  0  0
    0.0653    2.0533   -1.4504 H   0  0  0  0  0  0  0  0  0  0  0  0
   -2.5009   -2.4999   -3.9975 H   0  0  0  0  0  0  0  0  0  0  0  0
  1 20  1  0  0  0  0
  1 21  1  0  0  0  0
  1 22  1  0  0  0  0
  2 23  1  0  0  0  0
  3  2  2  0  0  0  0
  3 24  1  0  0  0  0
  4  2  1  0  0  0  0
  4 25  1  0  0  0  0
  5  3  1  0  0  0  0
  5 26  1  0  0  0  0
  6  4  2  0  0  0  0
  6 27  1  0  0  0  0
  7 28  1  0  0  0  0
  8  7  2  0  0  0  0
  8 29  1  0  0  0  0
  9 30  1  0  0  0  0
  9 31  1  0  0  0  0
 10  9  1  0  0  0  0
 10 32  1  0  0  0  0
 10 33  1  0  0  0  0
 11 34  1  0  0  0  0
 12  5  2  0  0  0  0
 12  6  1  0  0  0  0
 13  7  1  0  0  0  0
 13 11  2  0  0  0  0
 14 11  1  0  0  0  0
 15  8  1  0  0  0  0
 15 14  2  0  0  0  0
 16 12  1  0  0  0  0
 16 14  1  0  0  0  0
 17 13  1  0  0  0  0
 18  9  1  0  0  0  0
 18 16  2  0  0  0  0
 19  1  1  0  0  0  0
 19 10  1  0  0  0  0
 19 15  1  0  0  0  0
M  END
>  <DRUGBANK_ID>
DB13437

>  <COMMON_NAME>
Medazepam

>  <CAS_NUMBER>
2898-12-6

>  <UNII>
P0J3387W3S

>  <SYNONYMS>
Medazepam

$$$$
