
 OpenBabel10282417133D

 51 51  0  0  0  0  0  0  0  0999 V2000
    3.6307    2.2834    1.0480 S   0  0  0  0  0  0  0  0  0  0  0  0
   -0.9731    0.5937   -0.6389 O   0  0  0  0  0  0  0  0  0  0  0  0
   -0.3007    2.6474    4.1515 O   0  0  0  0  0  0  0  0  0  0  0  0
    4.2461    5.9150   -4.2668 O   0  0  0  0  0  0  0  0  0  0  0  0
    1.1520    6.4509    0.2375 O   0  0  0  0  0  0  0  0  0  0  0  0
   -0.4107    4.8103    0.1575 O   0  0  0  0  0  0  0  0  0  0  0  0
    0.1782    1.6090    0.9570 N   0  0  0  0  0  0  0  0  0  0  0  0
    0.6963    4.2026    2.8855 N   0  0  0  0  0  0  0  0  0  0  0  0
    0.5110   -0.5048    4.1406 N   0  0  0  0  0  0  0  0  0  0  0  0
    0.8850    1.8239    2.2127 C   0  0  1  0  0  0  0  0  0  0  0  0
    2.4642    1.6205    2.2939 C   0  0  0  0  0  0  0  0  0  0  0  0
   -1.0381   -0.5891    1.4566 C   0  0  0  0  0  0  0  0  0  0  0  0
   -0.0178   -1.6316    1.9518 C   0  0  0  0  0  0  0  0  0  0  0  0
   -0.5860    0.5556    0.5325 C   0  0  0  0  0  0  0  0  0  0  0  0
    0.3696    2.9179    3.1529 C   0  0  0  0  0  0  0  0  0  0  0  0
    2.7598    1.9479   -0.5301 C   0  0  0  0  0  0  0  0  0  0  0  0
    1.0247   -1.0945    2.9023 C   0  0  0  0  0  0  0  0  0  0  0  0
    3.1458    2.9723   -1.5550 C   0  0  0  0  0  0  0  0  0  0  0  0
    1.3975    4.5894    1.7067 C   0  0  0  0  0  0  0  0  0  0  0  0
    3.5569    2.5689   -2.8093 C   0  0  0  0  0  0  0  0  0  0  0  0
    3.0168    4.3447   -1.3066 C   0  0  0  0  0  0  0  0  0  0  0  0
    3.9302    3.5285   -3.7445 C   0  0  0  0  0  0  0  0  0  0  0  0
    3.2761    5.3059   -2.2651 C   0  0  0  0  0  0  0  0  0  0  0  0
    3.8185    4.8964   -3.4659 C   0  0  0  0  0  0  0  0  0  0  0  0
    0.5806    5.2967    0.6531 C   0  0  0  0  0  0  0  0  0  0  0  0
    4.9838    5.5013   -5.4057 C   0  0  0  0  0  0  0  0  0  0  0  0
    0.0881    2.3955    0.3176 H   0  0  0  0  0  0  0  0  0  0  0  0
    0.2763    4.8899    3.4986 H   0  0  0  0  0  0  0  0  0  0  0  0
    1.1266    0.2295    4.5053 H   0  0  0  0  0  0  0  0  0  0  0  0
   -0.3860   -0.0182    4.0169 H   0  0  0  0  0  0  0  0  0  0  0  0
    2.0332    6.6327    0.6183 H   0  0  0  0  0  0  0  0  0  0  0  0
    0.4177    1.0469    2.7440 H   0  0  0  0  0  0  0  0  0  0  0  0
    2.8196    0.5917    2.2725 H   0  0  0  0  0  0  0  0  0  0  0  0
    2.8017    1.9462    3.2885 H   0  0  0  0  0  0  0  0  0  0  0  0
   -1.6033   -0.1460    2.2825 H   0  0  0  0  0  0  0  0  0  0  0  0
   -1.7814   -1.1529    0.8737 H   0  0  0  0  0  0  0  0  0  0  0  0
   -0.5177   -2.4638    2.4492 H   0  0  0  0  0  0  0  0  0  0  0  0
    0.5114   -2.0261    1.0741 H   0  0  0  0  0  0  0  0  0  0  0  0
    2.9675    0.9200   -0.8381 H   0  0  0  0  0  0  0  0  0  0  0  0
    1.6842    2.0398   -0.5269 H   0  0  0  0  0  0  0  0  0  0  0  0
    1.8613   -1.7475    3.1462 H   0  0  0  0  0  0  0  0  0  0  0  0
    1.4822   -0.4201    2.2079 H   0  0  0  0  0  0  0  0  0  0  0  0
    2.3559    5.0378    1.9713 H   0  0  0  0  0  0  0  0  0  0  0  0
    1.6314    3.6978    1.1565 H   0  0  0  0  0  0  0  0  0  0  0  0
    3.6194    1.5117   -3.0469 H   0  0  0  0  0  0  0  0  0  0  0  0
    2.7593    4.6924   -0.3297 H   0  0  0  0  0  0  0  0  0  0  0  0
    4.3170    3.1676   -4.6873 H   0  0  0  0  0  0  0  0  0  0  0  0
    3.1012    6.3575   -2.0526 H   0  0  0  0  0  0  0  0  0  0  0  0
    5.8487    4.8875   -5.1253 H   0  0  0  0  0  0  0  0  0  0  0  0
    4.3261    4.9665   -6.0967 H   0  0  0  0  0  0  0  0  0  0  0  0
    5.3571    6.3954   -5.9076 H   0  0  0  0  0  0  0  0  0  0  0  0
  1 11  1  0  0  0  0
  1 16  1  0  0  0  0
  2 14  2  0  0  0  0
  3 15  2  0  0  0  0
  4 24  1  0  0  0  0
  4 26  1  0  0  0  0
  5 25  1  0  0  0  0
  5 31  1  0  0  0  0
  6 25  2  0  0  0  0
  7 14  1  0  0  0  0
  7 27  1  0  0  0  0
  8 15  1  0  0  0  0
  8 19  1  0  0  0  0
  8 28  1  0  0  0  0
  9 17  1  0  0  0  0
  9 29  1  0  0  0  0
  9 30  1  0  0  0  0
 10 15  1  0  0  0  0
 10 32  1  1  0  0  0
 10 11  1  0  0  0  0
 10  7  1  0  0  0  0
 11 33  1  0  0  0  0
 11 34  1  0  0  0  0
 12 13  1  0  0  0  0
 12 14  1  0  0  0  0
 12 35  1  0  0  0  0
 12 36  1  0  0  0  0
 13 17  1  0  0  0  0
 13 37  1  0  0  0  0
 13 38  1  0  0  0  0
 16 18  1  0  0  0  0
 16 39  1  0  0  0  0
 16 40  1  0  0  0  0
 17 41  1  0  0  0  0
 17 42  1  0  0  0  0
 18 20  2  0  0  0  0
 18 21  1  0  0  0  0
 19 25  1  0  0  0  0
 19 43  1  0  0  0  0
 19 44  1  0  0  0  0
 20 22  1  0  0  0  0
 20 45  1  0  0  0  0
 21 23  2  0  0  0  0
 21 46  1  0  0  0  0
 22 24  2  0  0  0  0
 22 47  1  0  0  0  0
 23 24  1  0  0  0  0
 23 48  1  0  0  0  0
 26 49  1  0  0  0  0
 26 50  1  0  0  0  0
 26 51  1  0  0  0  0
M  END
>  <DRUGBANK_ID>
DB02943

>  <SECONDARY_ACCESSION_NUMBERS>
EXPT00404

>  <COMMON_NAME>
N-(4-Aminobutanoyl)-S-(4-methoxybenzyl)-L-cysteinylglycine

$$$$
