
 OpenBabel10282417203D

 65 69  0  0  1  0  0  0  0  0999 V2000
    1.3627    0.2022    0.0423 C   0  0  0  0  0  0  0  0  0  0  0  0
    0.8353   -1.1878    0.2255 C   0  0  0  0  0  0  0  0  0  0  0  0
    0.9970   -1.8531    1.4918 N   0  0  0  0  0  0  0  0  0  0  0  0
    0.0526   -2.3206    2.3583 C   0  0  0  0  0  0  0  0  0  0  0  0
    0.4311   -2.7688    3.4356 O   0  0  0  0  0  0  0  0  0  0  0  0
   -1.2939   -2.2242    2.1068 N   0  0  0  0  0  0  0  0  0  0  0  0
   -2.0065   -1.8809    0.9348 C   0  0  0  0  0  0  0  0  0  0  0  0
   -1.6570   -2.4187   -0.3091 C   0  0  0  0  0  0  0  0  0  0  0  0
   -2.0130   -1.7429   -1.4953 C   0  0  0  0  0  0  0  0  0  0  0  0
   -2.8684   -0.6223   -1.4881 C   0  0  0  0  0  0  0  0  0  0  0  0
   -3.3932   -0.2505   -0.2355 C   0  0  0  0  0  0  0  0  0  0  0  0
   -2.9367   -0.8379    0.9698 C   0  0  0  0  0  0  0  0  0  0  0  0
   -3.1899    0.1040   -2.7485 C   0  0  0  0  0  0  0  0  0  0  0  0
   -3.6990   -0.6636   -3.7369 N   0  0  0  0  0  0  0  0  0  0  0  0
   -3.9703   -0.0453   -4.9026 C   0  0  0  0  0  0  0  0  0  0  0  0
   -3.6890    1.2974   -5.1021 C   0  0  0  0  0  0  0  0  0  0  0  0
   -3.1818    2.0382   -4.0389 C   0  0  0  0  0  0  0  0  0  0  0  0
   -2.9122    1.4386   -2.8542 N   0  0  0  0  0  0  0  0  0  0  0  0
   -2.9587    3.3937   -4.2884 N   0  0  0  0  0  0  0  0  0  0  0  0
   -4.1403    4.2710   -4.4050 C   0  0  0  0  0  0  0  0  0  0  0  0
   -3.9055    5.3183   -5.5110 C   0  0  0  0  0  0  0  0  0  0  0  0
   -2.7279    6.0887   -5.2360 O   0  0  0  0  0  0  0  0  0  0  0  0
   -1.5781    5.2274   -5.2064 C   0  0  0  0  0  0  0  0  0  0  0  0
   -1.6815    4.1096   -4.1146 C   0  0  2  0  0  0  0  0  0  0  0  0
   -0.4653    3.2051   -4.2728 C   0  0  0  0  0  0  0  0  0  0  0  0
   -3.9355    1.9400   -6.4313 C   0  0  0  0  0  0  0  0  0  0  0  0
   -4.0631    0.9489   -7.5618 C   0  0  0  0  0  0  0  0  0  0  0  0
   -5.0437   -0.0637   -7.1883 N   0  0  3  0  0  0  0  0  0  0  0  0
   -4.5243   -0.8784   -6.0566 C   0  0  0  0  0  0  0  0  0  0  0  0
   -5.5089   -0.9239   -8.2894 C   0  0  0  0  0  0  0  0  0  0  0  0
   -4.4150   -1.7367   -8.9953 C   0  0  0  0  0  0  0  0  0  0  0  0
   -4.9839   -1.3746  -10.2923 O   0  0  0  0  0  0  0  0  0  0  0  0
   -5.6225   -0.2206   -9.6628 C   0  0  0  0  0  0  0  0  0  0  0  0
    0.9607    0.8499    0.8278 H   0  0  0  0  0  0  0  0  0  0  0  0
    0.9598    0.5723   -0.9131 H   0  0  0  0  0  0  0  0  0  0  0  0
    2.4461    0.2435    0.0187 H   0  0  0  0  0  0  0  0  0  0  0  0
   -0.1908   -0.9217    0.1455 H   0  0  0  0  0  0  0  0  0  0  0  0
    1.1174   -1.8763   -0.5776 H   0  0  0  0  0  0  0  0  0  0  0  0
    1.9419   -2.0391    1.8085 H   0  0  0  0  0  0  0  0  0  0  0  0
   -1.8310   -2.3166    2.9615 H   0  0  0  0  0  0  0  0  0  0  0  0
   -0.9156   -3.2158   -0.3527 H   0  0  0  0  0  0  0  0  0  0  0  0
   -1.5251   -2.0431   -2.4221 H   0  0  0  0  0  0  0  0  0  0  0  0
   -4.1384    0.5410   -0.1862 H   0  0  0  0  0  0  0  0  0  0  0  0
   -3.2172   -0.3740    1.9136 H   0  0  0  0  0  0  0  0  0  0  0  0
   -4.2957    4.7809   -3.4495 H   0  0  0  0  0  0  0  0  0  0  0  0
   -5.0573    3.7169   -4.6306 H   0  0  0  0  0  0  0  0  0  0  0  0
   -4.7541    6.0068   -5.5682 H   0  0  0  0  0  0  0  0  0  0  0  0
   -3.7994    4.8577   -6.5020 H   0  0  0  0  0  0  0  0  0  0  0  0
   -0.7055    5.8636   -5.0210 H   0  0  0  0  0  0  0  0  0  0  0  0
   -1.4502    4.7955   -6.2092 H   0  0  0  0  0  0  0  0  0  0  0  0
   -1.6800    4.5892   -3.1292 H   0  0  0  0  0  0  0  0  0  0  0  0
    0.4606    3.7850   -4.1906 H   0  0  0  0  0  0  0  0  0  0  0  0
   -0.4417    2.4304   -3.5033 H   0  0  0  0  0  0  0  0  0  0  0  0
   -0.4653    2.7135   -5.2529 H   0  0  0  0  0  0  0  0  0  0  0  0
   -3.1153    2.6168   -6.6931 H   0  0  0  0  0  0  0  0  0  0  0  0
   -4.8663    2.5175   -6.3819 H   0  0  0  0  0  0  0  0  0  0  0  0
   -3.0908    0.5126   -7.8130 H   0  0  0  0  0  0  0  0  0  0  0  0
   -4.3878    1.5682   -8.3982 H   0  0  0  0  0  0  0  0  0  0  0  0
   -5.3262   -1.5178   -5.6672 H   0  0  0  0  0  0  0  0  0  0  0  0
   -3.7119   -1.5322   -6.3987 H   0  0  0  0  0  0  0  0  0  0  0  0
   -6.3979   -1.5155   -8.0394 H   0  0  0  0  0  0  0  0  0  0  0  0
   -3.3780   -1.3953   -8.9174 H   0  0  0  0  0  0  0  0  0  0  0  0
   -4.4559   -2.8145   -8.8208 H   0  0  0  0  0  0  0  0  0  0  0  0
   -6.6403   -0.0385  -10.0157 H   0  0  0  0  0  0  0  0  0  0  0  0
   -5.0265    0.6614   -9.9082 H   0  0  0  0  0  0  0  0  0  0  0  0
  1  2  1  0  0  0  0
  1 34  1  0  0  0  0
  1 35  1  0  0  0  0
  1 36  1  0  0  0  0
  2  3  1  0  0  0  0
  2 37  1  0  0  0  0
  2 38  1  0  0  0  0
  3  4  1  0  0  0  0
  3 39  1  0  0  0  0
  4  5  2  0  0  0  0
  4  6  1  0  0  0  0
  6  7  1  0  0  0  0
  6 40  1  0  0  0  0
  7  8  2  0  0  0  0
  7 12  1  0  0  0  0
  8  9  1  0  0  0  0
  8 41  1  0  0  0  0
  9 10  2  0  0  0  0
  9 42  1  0  0  0  0
 10 11  1  0  0  0  0
 10 13  1  0  0  0  0
 11 12  2  0  0  0  0
 11 43  1  0  0  0  0
 12 44  1  0  0  0  0
 13 14  2  0  0  0  0
 13 18  1  0  0  0  0
 14 15  1  0  0  0  0
 15 16  2  0  0  0  0
 15 29  1  0  0  0  0
 16 17  1  0  0  0  0
 16 26  1  0  0  0  0
 17 18  2  0  0  0  0
 17 19  1  0  0  0  0
 19 20  1  0  0  0  0
 19 24  1  0  0  0  0
 20 21  1  0  0  0  0
 20 45  1  0  0  0  0
 20 46  1  0  0  0  0
 21 22  1  0  0  0  0
 21 47  1  0  0  0  0
 21 48  1  0  0  0  0
 22 23  1  0  0  0  0
 23 24  1  0  0  0  0
 23 49  1  0  0  0  0
 23 50  1  0  0  0  0
 24 25  1  0  0  0  0
 24 51  1  1  0  0  0
 25 52  1  0  0  0  0
 25 53  1  0  0  0  0
 25 54  1  0  0  0  0
 26 27  1  0  0  0  0
 26 55  1  0  0  0  0
 26 56  1  0  0  0  0
 27 28  1  0  0  0  0
 27 57  1  0  0  0  0
 27 58  1  0  0  0  0
 28 29  1  0  0  0  0
 28 30  1  0  0  0  0
 29 59  1  0  0  0  0
 29 60  1  0  0  0  0
 30 31  1  0  0  0  0
 30 33  1  0  0  0  0
 30 61  1  0  0  0  0
 31 32  1  0  0  0  0
 31 62  1  0  0  0  0
 31 63  1  0  0  0  0
 32 33  1  0  0  0  0
 33 64  1  0  0  0  0
 33 65  1  0  0  0  0
M  END
>  <DRUGBANK_ID>
DB13072

>  <COMMON_NAME>
GDC-0349

>  <CAS_NUMBER>
1207360-89-1

>  <UNII>
579255I6O9

$$$$
