TP2
 OpenBabel10282417133D

 41 42  0  0  0  0  0  0  0  0999 V2000
    7.2971   -6.9318   -4.9455 S   0  0  0  0  0  0  0  0  0  0  0  0
    7.1587   -5.2098   -5.5481 C   0  0  0  0  0  0  0  0  0  0  0  0
    5.7408   -4.6497   -5.4128 C   0  0  0  0  0  0  0  0  0  0  0  0
    5.3197   -4.5441   -4.0242 N   0  0  0  0  0  0  0  0  0  0  0  0
    5.0093   -3.3420   -3.4019 C   0  0  0  0  0  0  0  0  0  0  0  0
    4.5789   -3.4337   -1.9085 C   0  0  2  0  0  0  0  0  0  0  0  0
    5.0871   -2.2963   -1.0684 N   0  0  0  0  0  0  0  0  0  0  0  0
    4.0922   -1.7905    0.2424 S   0  0  0  0  0  0  0  0  0  0  0  0
    3.9891   -3.1928    1.3679 C   0  0  0  0  0  0  0  0  0  0  0  0
    5.1471   -3.6966    1.9756 C   0  0  0  0  0  0  0  0  0  0  0  0
    5.0998   -4.8580    2.7468 C   0  0  0  0  0  0  0  0  0  0  0  0
    3.8789   -5.4802    3.0054 C   0  0  0  0  0  0  0  0  0  0  0  0
    2.7096   -4.9448    2.4439 C   0  0  0  0  0  0  0  0  0  0  0  0
    2.7615   -3.8147    1.6138 C   0  0  0  0  0  0  0  0  0  0  0  0
    3.8263   -6.6843    3.9000 C   0  0  0  0  0  0  0  0  0  0  0  0
    4.7761   -0.7454    0.9643 O   0  0  0  0  0  0  0  0  0  0  0  0
    2.7577   -1.5849   -0.2955 O   0  0  0  0  0  0  0  0  0  0  0  0
    6.5045   -2.5930   -0.7444 C   0  0  0  0  0  0  0  0  0  0  0  0
    6.6296   -4.1141   -0.8931 C   0  0  0  0  0  0  0  0  0  0  0  0
    5.2202   -4.6193   -1.1974 C   0  0  0  0  0  0  0  0  0  0  0  0
    5.0458   -2.2809   -4.0215 O   0  0  0  0  0  0  0  0  0  0  0  0
    3.4859   -3.4715   -1.9051 H   0  0  0  0  0  0  0  0  0  0  0  0
    6.9686   -6.7092   -3.6663 H   0  0  0  0  0  0  0  0  0  0  0  0
    7.8720   -4.5888   -4.9966 H   0  0  0  0  0  0  0  0  0  0  0  0
    7.4508   -5.2103   -6.6025 H   0  0  0  0  0  0  0  0  0  0  0  0
    5.6921   -3.6673   -5.8900 H   0  0  0  0  0  0  0  0  0  0  0  0
    5.0205   -5.3017   -5.9205 H   0  0  0  0  0  0  0  0  0  0  0  0
    5.2290   -5.4243   -3.5438 H   0  0  0  0  0  0  0  0  0  0  0  0
    6.1148   -3.2372    1.8290 H   0  0  0  0  0  0  0  0  0  0  0  0
    6.0259   -5.2669    3.1467 H   0  0  0  0  0  0  0  0  0  0  0  0
    1.7473   -5.4087    2.6533 H   0  0  0  0  0  0  0  0  0  0  0  0
    1.8430   -3.4336    1.1716 H   0  0  0  0  0  0  0  0  0  0  0  0
    3.2132   -6.4706    4.7809 H   0  0  0  0  0  0  0  0  0  0  0  0
    3.4139   -7.5439    3.3641 H   0  0  0  0  0  0  0  0  0  0  0  0
    4.8265   -6.9606    4.2540 H   0  0  0  0  0  0  0  0  0  0  0  0
    6.7954   -2.2334    0.2444 H   0  0  0  0  0  0  0  0  0  0  0  0
    7.1735   -2.0738   -1.4393 H   0  0  0  0  0  0  0  0  0  0  0  0
    7.0485   -4.5875   -0.0008 H   0  0  0  0  0  0  0  0  0  0  0  0
    7.2994   -4.3451   -1.7272 H   0  0  0  0  0  0  0  0  0  0  0  0
    4.6669   -4.8410   -0.2890 H   0  0  0  0  0  0  0  0  0  0  0  0
    5.2171   -5.5702   -1.7238 H   0  0  0  0  0  0  0  0  0  0  0  0
  1  2  1  0  0  0  0
  1 23  1  0  0  0  0
  2  3  1  0  0  0  0
  2 24  1  0  0  0  0
  2 25  1  0  0  0  0
  3  4  1  0  0  0  0
  3 26  1  0  0  0  0
  3 27  1  0  0  0  0
  4  5  1  0  0  0  0
  4 28  1  0  0  0  0
  5 21  2  0  0  0  0
  6  7  1  0  0  0  0
  6 20  1  0  0  0  0
  6 22  1  1  0  0  0
  6  5  1  0  0  0  0
  7  8  1  0  0  0  0
  7 18  1  0  0  0  0
  8  9  1  0  0  0  0
  8 16  2  0  0  0  0
  8 17  2  0  0  0  0
  9 10  2  0  0  0  0
  9 14  1  0  0  0  0
 10 11  1  0  0  0  0
 10 29  1  0  0  0  0
 11 12  2  0  0  0  0
 11 30  1  0  0  0  0
 12 13  1  0  0  0  0
 12 15  1  0  0  0  0
 13 14  2  0  0  0  0
 13 31  1  0  0  0  0
 14 32  1  0  0  0  0
 15 33  1  0  0  0  0
 15 34  1  0  0  0  0
 15 35  1  0  0  0  0
 18 19  1  0  0  0  0
 18 36  1  0  0  0  0
 18 37  1  0  0  0  0
 19 20  1  0  0  0  0
 19 38  1  0  0  0  0
 19 39  1  0  0  0  0
 20 40  1  0  0  0  0
 20 41  1  0  0  0  0
M  END
>  <DRUGBANK_ID>
DB03818

>  <SECONDARY_ACCESSION_NUMBERS>
EXPT03085

>  <COMMON_NAME>
N-[Tosyl-D-Prolinyl]Amino-Ethanethiol

$$$$
