
 OpenBabel10282417233D

 57 59  0  0  0  0  0  0  0  0999 V2000
    0.9967    0.0502    0.2520 C   0  0  0  0  0  0  0  0  0  0  0  0
    0.4215   -1.7178    0.0426 Si  0  0  0  0  0  0  0  0  0  0  0  0
    1.0707   -2.7164    1.4912 C   0  0  0  0  0  0  0  0  0  0  0  0
   -1.4470   -1.7505    0.0001 C   0  0  0  0  0  0  0  0  0  0  0  0
    1.0510   -2.5145   -1.5810 C   0  0  0  0  0  0  0  0  0  0  0  0
    0.8588   -3.9318   -1.7311 C   0  0  0  0  0  0  0  0  0  0  0  0
    1.2116   -4.6282   -2.9137 C   0  0  0  0  0  0  0  0  0  0  0  0
    1.8725   -3.8966   -3.8724 C   0  0  0  0  0  0  0  0  0  0  0  0
    2.3538   -4.3426   -5.0618 O   0  0  0  0  0  0  0  0  0  0  0  0
    2.1958   -2.5807   -3.6422 C   0  0  0  0  0  0  0  0  0  0  0  0
    1.6833   -1.8140   -2.6194 C   0  0  0  0  0  0  0  0  0  0  0  0
    1.8590   -0.4110   -2.6705 N   0  0  0  0  0  0  0  0  0  0  0  0
    2.2272    0.4552   -3.6710 C   0  0  0  0  0  0  0  0  0  0  0  0
    2.4128    1.6463   -3.3885 O   0  0  0  0  0  0  0  0  0  0  0  0
    2.4682   -0.0212   -5.0440 C   0  0  0  0  0  0  0  0  0  0  0  0
    3.7131    0.1070   -5.5336 C   0  0  0  0  0  0  0  0  0  0  0  0
    4.1702   -0.5263   -6.6659 N   0  0  0  0  0  0  0  0  0  0  0  0
    3.3981   -1.5338   -7.2699 C   0  0  0  0  0  0  0  0  0  0  0  0
    2.0676   -1.7382   -6.8647 C   0  0  0  0  0  0  0  0  0  0  0  0
    1.3066   -2.7955   -7.3764 C   0  0  0  0  0  0  0  0  0  0  0  0
    1.8401   -3.6039   -8.3754 C   0  0  0  0  0  0  0  0  0  0  0  0
    3.1274   -3.3527   -8.8528 C   0  0  0  0  0  0  0  0  0  0  0  0
    3.9115   -2.3364   -8.2903 C   0  0  0  0  0  0  0  0  0  0  0  0
    1.4960   -0.8743   -5.7920 C   0  0  0  0  0  0  0  0  0  0  0  0
    0.3215   -0.9543   -5.4785 O   0  0  0  0  0  0  0  0  0  0  0  0
    0.9732   -6.4964   -3.0904 Si  0  0  0  0  0  0  0  0  0  0  0  0
    2.1036   -7.3197   -1.8549 C   0  0  0  0  0  0  0  0  0  0  0  0
   -0.8141   -6.9110   -2.7934 C   0  0  0  0  0  0  0  0  0  0  0  0
    1.4490   -7.1049   -4.8129 C   0  0  0  0  0  0  0  0  0  0  0  0
    0.7107    0.4636    1.2191 H   0  0  0  0  0  0  0  0  0  0  0  0
    0.5375    0.6948   -0.5046 H   0  0  0  0  0  0  0  0  0  0  0  0
    2.0884    0.1029    0.1688 H   0  0  0  0  0  0  0  0  0  0  0  0
    0.7321   -2.2735    2.4317 H   0  0  0  0  0  0  0  0  0  0  0  0
    0.7171   -3.7501    1.4512 H   0  0  0  0  0  0  0  0  0  0  0  0
    2.1650   -2.7259    1.4898 H   0  0  0  0  0  0  0  0  0  0  0  0
   -1.8160   -1.1973   -0.8689 H   0  0  0  0  0  0  0  0  0  0  0  0
   -1.8191   -2.7768   -0.0627 H   0  0  0  0  0  0  0  0  0  0  0  0
   -1.8533   -1.2865    0.9024 H   0  0  0  0  0  0  0  0  0  0  0  0
    0.4388   -4.5027   -0.8990 H   0  0  0  0  0  0  0  0  0  0  0  0
    1.7408   -4.9776   -5.4507 H   0  0  0  0  0  0  0  0  0  0  0  0
    2.9031   -2.1795   -4.3398 H   0  0  0  0  0  0  0  0  0  0  0  0
    1.6642    0.1223   -1.8492 H   0  0  0  0  0  0  0  0  0  0  0  0
    4.4772    0.6749   -5.0037 H   0  0  0  0  0  0  0  0  0  0  0  0
    5.1601   -0.4737   -6.8816 H   0  0  0  0  0  0  0  0  0  0  0  0
    0.3293   -3.0163   -6.9529 H   0  0  0  0  0  0  0  0  0  0  0  0
    1.2539   -4.4261   -8.7776 H   0  0  0  0  0  0  0  0  0  0  0  0
    3.5273   -3.9588   -9.6622 H   0  0  0  0  0  0  0  0  0  0  0  0
    4.9237   -2.1867   -8.6547 H   0  0  0  0  0  0  0  0  0  0  0  0
    1.8444   -7.0240   -0.8353 H   0  0  0  0  0  0  0  0  0  0  0  0
    2.0237   -8.4057   -1.9386 H   0  0  0  0  0  0  0  0  0  0  0  0
    3.1448   -7.0358   -2.0403 H   0  0  0  0  0  0  0  0  0  0  0  0
   -1.4530   -6.3951   -3.5169 H   0  0  0  0  0  0  0  0  0  0  0  0
   -0.9725   -7.9867   -2.9018 H   0  0  0  0  0  0  0  0  0  0  0  0
   -1.1213   -6.6114   -1.7885 H   0  0  0  0  0  0  0  0  0  0  0  0
    0.8035   -6.6471   -5.5710 H   0  0  0  0  0  0  0  0  0  0  0  0
    2.4950   -6.8568   -5.0285 H   0  0  0  0  0  0  0  0  0  0  0  0
    1.3450   -8.1858   -4.9076 H   0  0  0  0  0  0  0  0  0  0  0  0
  1  2  1  0  0  0  0
  1 30  1  0  0  0  0
  1 31  1  0  0  0  0
  1 32  1  0  0  0  0
  2  3  1  0  0  0  0
  2  4  1  0  0  0  0
  2  5  1  0  0  0  0
  3 33  1  0  0  0  0
  3 34  1  0  0  0  0
  3 35  1  0  0  0  0
  4 36  1  0  0  0  0
  4 37  1  0  0  0  0
  4 38  1  0  0  0  0
  5  6  2  0  0  0  0
  5 11  1  0  0  0  0
  6  7  1  0  0  0  0
  6 39  1  0  0  0  0
  7  8  2  0  0  0  0
  7 26  1  0  0  0  0
  8  9  1  0  0  0  0
  8 10  1  0  0  0  0
  9 40  1  0  0  0  0
 10 11  2  0  0  0  0
 10 41  1  0  0  0  0
 11 12  1  0  0  0  0
 12 13  1  0  0  0  0
 12 42  1  0  0  0  0
 13 14  2  0  0  0  0
 13 15  1  0  0  0  0
 15 16  2  0  0  0  0
 15 24  1  0  0  0  0
 16 17  1  0  0  0  0
 16 43  1  0  0  0  0
 17 18  1  0  0  0  0
 17 44  1  0  0  0  0
 18 19  2  0  0  0  0
 18 23  1  0  0  0  0
 19 20  1  0  0  0  0
 19 24  1  0  0  0  0
 20 21  2  0  0  0  0
 20 45  1  0  0  0  0
 21 22  1  0  0  0  0
 21 46  1  0  0  0  0
 22 23  2  0  0  0  0
 22 47  1  0  0  0  0
 23 48  1  0  0  0  0
 24 25  2  0  0  0  0
 26 27  1  0  0  0  0
 26 28  1  0  0  0  0
 26 29  1  0  0  0  0
 27 49  1  0  0  0  0
 27 50  1  0  0  0  0
 27 51  1  0  0  0  0
 28 52  1  0  0  0  0
 28 53  1  0  0  0  0
 28 54  1  0  0  0  0
 29 55  1  0  0  0  0
 29 56  1  0  0  0  0
 29 57  1  0  0  0  0
M  END
>  <DRUGBANK_ID>
DB16143

>  <COMMON_NAME>
Dirocaftor

>  <CAS_NUMBER>
2137932-23-9

>  <UNII>
2G3T6M1AS9

>  <SYNONYMS>
Dirocaftor

$$$$
