
 OpenBabel10282417103D

 52 55  0  0  0  0  0  0  0  0999 V2000
   -5.4196   -2.7678    1.7163 C   0  0  0  0  0  0  0  0  0  0  0  0
   -3.3110   -5.1103    0.0393 C   0  0  0  0  0  0  0  0  0  0  0  0
   -3.8222   -1.7759    3.5607 C   0  0  2  0  0  0  0  0  0  0  0  0
   -2.1179   -0.9983    1.9161 C   0  0  0  0  0  0  0  0  0  0  0  0
   -4.3445   -3.0185    2.8993 C   0  0  0  0  0  0  0  0  0  0  0  0
   -1.4818   -4.9056    2.6391 C   0  0  2  0  0  0  0  0  0  0  0  0
   -1.3954   -2.3050    2.2079 C   0  0  0  0  0  0  0  0  0  0  0  0
   -2.6485   -6.4361    1.0927 C   0  0  0  0  0  0  0  0  0  0  0  0
   -1.2312   -6.3161    2.1797 C   0  0  0  0  0  0  0  0  0  0  0  0
   -0.0442   -4.4966    2.7692 C   0  0  0  0  0  0  0  0  0  0  0  0
   -0.1649   -6.9897    2.9884 C   0  0  0  0  0  0  0  0  0  0  0  0
    0.5736   -4.6667    3.9343 C   0  0  0  0  0  0  0  0  0  0  0  0
   -3.3314   -3.8756    0.8861 C   0  0  2  0  0  0  0  0  0  0  0  0
   -4.1079   -4.4945    1.4080 H   0  0  0  0  0  0  0  0  0  0  0  0
   -1.8720   -3.7525    1.5481 C   0  0  1  0  0  0  0  0  0  0  0  0
   -1.2148   -3.7912    0.6625 H   0  0  0  0  0  0  0  0  0  0  0  0
   -3.6146   -1.2077    2.1040 C   0  0  2  0  0  0  0  0  0  0  0  0
   -4.4993    0.0833    2.1945 C   0  0  0  0  0  0  0  0  0  0  0  0
   -4.1698   -2.3666    0.9237 C   0  0  1  0  0  0  0  0  0  0  0  0
   -4.2657   -1.8375   -0.0425 H   0  0  0  0  0  0  0  0  0  0  0  0
    2.3109   -6.0828    3.2285 O   0  0  0  0  0  0  0  0  0  0  0  0
    1.1693   -5.9414    3.4115 C   0  0  0  0  0  0  0  0  0  0  0  0
   -2.4181   -5.4385    3.8553 C   0  0  0  0  0  0  0  0  0  0  0  0
   -2.5708   -1.4093    4.3085 O   0  0  0  0  0  0  0  0  0  0  0  0
   -3.9039   -2.6700    4.7802 C   0  0  0  0  0  0  0  0  0  0  0  0
   -0.5264   -2.2099    3.0900 O   0  0  0  0  0  0  0  0  0  0  0  0
   -3.0762   -3.4474    5.2560 O   0  0  0  0  0  0  0  0  0  0  0  0
   -5.0674   -2.2611    5.5490 C   0  0  0  0  0  0  0  0  0  0  0  0
   -4.7258   -0.8802    5.7255 O   0  0  0  0  0  0  0  0  0  0  0  0
   -5.9844   -3.6454    2.1154 H   0  0  0  0  0  0  0  0  0  0  0  0
   -5.7768   -3.3069    0.7916 H   0  0  0  0  0  0  0  0  0  0  0  0
   -4.3547   -5.3793   -0.2732 H   0  0  0  0  0  0  0  0  0  0  0  0
   -2.7978   -4.7319   -0.8452 H   0  0  0  0  0  0  0  0  0  0  0  0
   -1.8140   -0.2667    2.6939 H   0  0  0  0  0  0  0  0  0  0  0  0
   -1.7194   -0.5918    1.0003 H   0  0  0  0  0  0  0  0  0  0  0  0
   -4.1297   -4.0603    3.0363 H   0  0  0  0  0  0  0  0  0  0  0  0
   -3.3373   -3.0671    2.5749 H   0  0  0  0  0  0  0  0  0  0  0  0
   -3.4487   -6.5624    1.8599 H   0  0  0  0  0  0  0  0  0  0  0  0
   -2.8811   -7.3367    0.5262 H   0  0  0  0  0  0  0  0  0  0  0  0
    0.5139   -4.6293    1.8159 H   0  0  0  0  0  0  0  0  0  0  0  0
   -0.0397   -6.9793    4.1805 H   0  0  0  0  0  0  0  0  0  0  0  0
   -0.0506   -4.7023    4.8205 H   0  0  0  0  0  0  0  0  0  0  0  0
   -4.5081    0.6477    1.2650 H   0  0  0  0  0  0  0  0  0  0  0  0
   -5.5525   -0.1336    2.4567 H   0  0  0  0  0  0  0  0  0  0  0  0
   -4.1506    0.7558    2.9974 H   0  0  0  0  0  0  0  0  0  0  0  0
   -1.9443   -5.3719    4.8311 H   0  0  0  0  0  0  0  0  0  0  0  0
   -3.4195   -5.0862    3.9957 H   0  0  0  0  0  0  0  0  0  0  0  0
   -2.7637   -6.4927    3.7887 H   0  0  0  0  0  0  0  0  0  0  0  0
   -1.8329   -2.0817    4.3114 H   0  0  0  0  0  0  0  0  0  0  0  0
   -5.9391   -2.4224    4.9028 H   0  0  0  0  0  0  0  0  0  0  0  0
   -5.0223   -2.8335    6.4623 H   0  0  0  0  0  0  0  0  0  0  0  0
   -3.7294   -0.8272    5.7244 H   0  0  0  0  0  0  0  0  0  0  0  0
  1 30  1  0  0  0  0
  1 31  1  0  0  0  0
  2  8  1  0  0  0  0
  2 32  1  0  0  0  0
  2 33  1  0  0  0  0
  3  5  1  0  0  0  0
  3 25  1  1  0  0  0
  3 24  1  0  0  0  0
  4  7  1  0  0  0  0
  4 34  1  0  0  0  0
  4 35  1  0  0  0  0
  5  1  1  0  0  0  0
  5 36  1  0  0  0  0
  5 37  1  0  0  0  0
  6  9  1  0  0  0  0
  6 10  1  0  0  0  0
  6 23  1  6  0  0  0
  7 26  2  0  0  0  0
  8  9  1  0  0  0  0
  8 38  1  0  0  0  0
  8 39  1  0  0  0  0
  9 11  2  0  0  0  0
 10 12  2  0  0  0  0
 10 40  1  0  0  0  0
 11 22  1  0  0  0  0
 11 41  1  0  0  0  0
 12 22  1  0  0  0  0
 12 42  1  0  0  0  0
 13 15  1  0  0  0  0
 13  2  1  0  0  0  0
 13 14  1  6  0  0  0
 15  6  1  0  0  0  0
 15  7  1  0  0  0  0
 15 16  1  1  0  0  0
 17  3  1  0  0  0  0
 17  4  1  0  0  0  0
 17 18  1  6  0  0  0
 18 43  1  0  0  0  0
 18 44  1  0  0  0  0
 18 45  1  0  0  0  0
 19 13  1  0  0  0  0
 19 17  1  0  0  0  0
 19  1  1  0  0  0  0
 19 20  1  1  0  0  0
 22 21  2  0  0  0  0
 23 46  1  0  0  0  0
 23 47  1  0  0  0  0
 23 48  1  0  0  0  0
 24 49  1  0  0  0  0
 27 25  2  0  0  0  0
 28 25  1  0  0  0  0
 28 50  1  0  0  0  0
 28 51  1  0  0  0  0
 29 28  1  0  0  0  0
 29 52  1  0  0  0  0
M  END
>  <DRUGBANK_ID>
DB00635

>  <SECONDARY_ACCESSION_NUMBERS>
APRD00340

>  <COMMON_NAME>
Prednisone

>  <CAS_NUMBER>
53-03-2

>  <UNII>
VB0R961HZT

>  <SYNONYMS>
1,2-Dehydrocortisone; 1,4-Pregnadiene-17Î±,21-diol-3,11,20-trione; 17,21-Dihydroxypregna-1,4-diene-3,11,20-trione; Dehydrocortisone; Prednisona; Prednisone; Prednisonum

$$$$
