
 OpenBabel10282417203D

 26 26  0  0  0  0  0  0  0  0999 V2000
    1.4410   -0.2905    0.0180 C   0  0  0  0  0  0  0  0  0  0  0  0
    0.5302   -1.3497    0.0395 C   0  0  0  0  0  0  0  0  0  0  0  0
   -0.8474   -1.1068    0.0097 C   0  0  0  0  0  0  0  0  0  0  0  0
   -1.3180    0.2065   -0.0875 C   0  0  0  0  0  0  0  0  0  0  0  0
   -0.3771    1.2421   -0.1956 C   0  0  0  0  0  0  0  0  0  0  0  0
    0.9849    1.0114   -0.1041 C   0  0  0  0  0  0  0  0  0  0  0  0
   -2.8048    0.5269   -0.1875 C   0  0  3  0  0  0  0  0  0  0  0  0
   -3.3419    1.2931    1.0446 C   0  0  0  0  0  0  0  0  0  0  0  0
   -2.7783    2.6824    1.2457 C   0  0  0  0  0  0  0  0  0  0  0  0
   -3.2838    3.7165    0.8568 O   0  0  0  0  0  0  0  0  0  0  0  0
   -1.5634    2.6900    1.8294 O   0  0  0  0  0  0  0  0  0  0  0  0
   -3.1105    1.2766   -1.5102 C   0  0  0  0  0  0  0  0  0  0  0  0
   -2.6482    0.5309   -2.6862 N   0  0  0  0  0  0  0  0  0  0  0  0
    2.5083   -0.4776    0.0735 H   0  0  0  0  0  0  0  0  0  0  0  0
    0.9006   -2.3707    0.0661 H   0  0  0  0  0  0  0  0  0  0  0  0
   -1.5369   -1.9491    0.0234 H   0  0  0  0  0  0  0  0  0  0  0  0
   -0.7029    2.2646   -0.3514 H   0  0  0  0  0  0  0  0  0  0  0  0
    1.6689    1.8526   -0.1497 H   0  0  0  0  0  0  0  0  0  0  0  0
   -3.3586   -0.4246   -0.2243 H   0  0  0  0  0  0  0  0  0  0  0  0
   -4.4275    1.4179    0.9398 H   0  0  0  0  0  0  0  0  0  0  0  0
   -3.1907    0.7165    1.9645 H   0  0  0  0  0  0  0  0  0  0  0  0
   -1.1502    3.5461    1.5898 H   0  0  0  0  0  0  0  0  0  0  0  0
   -4.1875    1.4458   -1.6052 H   0  0  0  0  0  0  0  0  0  0  0  0
   -2.6302    2.2609   -1.5171 H   0  0  0  0  0  0  0  0  0  0  0  0
   -2.7424    1.1116   -3.5171 H   0  0  0  0  0  0  0  0  0  0  0  0
   -1.6448    0.3497   -2.5907 H   0  0  0  0  0  0  0  0  0  0  0  0
  1  2  2  0  0  0  0
  1  6  1  0  0  0  0
  1 14  1  0  0  0  0
  2  3  1  0  0  0  0
  2 15  1  0  0  0  0
  3  4  2  0  0  0  0
  3 16  1  0  0  0  0
  4  5  1  0  0  0  0
  4  7  1  0  0  0  0
  5  6  2  0  0  0  0
  5 17  1  0  0  0  0
  6 18  1  0  0  0  0
  7  8  1  0  0  0  0
  7 12  1  0  0  0  0
  7 19  1  0  0  0  0
  8  9  1  0  0  0  0
  8 20  1  0  0  0  0
  8 21  1  0  0  0  0
  9 10  2  0  0  0  0
  9 11  1  0  0  0  0
 11 22  1  0  0  0  0
 12 13  1  0  0  0  0
 12 23  1  0  0  0  0
 12 24  1  0  0  0  0
 13 25  1  0  0  0  0
 13 26  1  0  0  0  0
M  END
>  <DRUGBANK_ID>
DB13455

>  <COMMON_NAME>
Phenibut

>  <CAS_NUMBER>
1078-21-3

>  <UNII>
T2M58D6LA8

>  <SYNONYMS>
4-amino-3-phenylbutyric acid

$$$$
