BAP
 OpenBabel10282417163D

 39 43  0  0  0  0  0  0  0  0999 V2000
   -4.0193   -0.6731    0.0023 C   0  0  0  0  0  0  0  0  0  0  0  0
   -4.4442    0.6554    0.0183 C   0  0  0  0  0  0  0  0  0  0  0  0
   -3.5110    1.6888    0.0259 C   0  0  0  0  0  0  0  0  0  0  0  0
   -2.1451    1.4022    0.0179 C   0  0  0  0  0  0  0  0  0  0  0  0
   -1.2085    2.4344    0.0299 C   0  0  0  0  0  0  0  0  0  0  0  0
    0.1494    2.1420    0.0248 C   0  0  0  0  0  0  0  0  0  0  0  0
    0.6252    0.8167   -0.0087 C   0  0  0  0  0  0  0  0  0  0  0  0
    2.0043    0.5052   -0.0347 C   0  0  0  0  0  0  0  0  0  0  0  0
    2.4259   -0.8453   -0.0406 C   0  0  0  0  0  0  0  0  0  0  0  0
    1.4699   -1.8727   -0.0482 C   0  0  0  0  0  0  0  0  0  0  0  0
    0.1035   -1.5850   -0.0330 C   0  0  0  0  0  0  0  0  0  0  0  0
   -0.8491   -2.6143   -0.0339 C   0  0  0  0  0  0  0  0  0  0  0  0
   -2.2120   -2.3186   -0.0233 C   0  0  0  0  0  0  0  0  0  0  0  0
   -2.6554   -0.9903   -0.0070 C   0  0  0  0  0  0  0  0  0  0  0  0
   -1.7048    0.0586   -0.0002 C   0  0  0  0  0  0  0  0  0  0  0  0
   -0.3227   -0.2374   -0.0145 C   0  0  0  0  0  0  0  0  0  0  0  0
    3.8946   -1.2319   -0.0295 C   0  0  1  0  0  0  0  0  0  0  0  0
    4.2857   -1.6332   -1.3446 O   0  0  0  0  0  0  0  0  0  0  0  0
    4.7880   -0.0794    0.4652 C   0  0  2  0  0  0  0  0  0  0  0  0
    4.5824    0.0893    1.8789 O   0  0  0  0  0  0  0  0  0  0  0  0
    4.4297    1.1827   -0.3326 C   0  0  2  0  0  0  0  0  0  0  0  0
    5.3616    2.2394   -0.1044 O   0  0  0  0  0  0  0  0  0  0  0  0
    3.0195    1.6298    0.0187 C   0  0  0  0  0  0  0  0  0  0  0  0
    4.0317   -2.0922    0.6364 H   0  0  0  0  0  0  0  0  0  0  0  0
    5.8463   -0.3164    0.3183 H   0  0  0  0  0  0  0  0  0  0  0  0
    4.4757    0.9766   -1.4086 H   0  0  0  0  0  0  0  0  0  0  0  0
   -4.7662   -1.4639   -0.0035 H   0  0  0  0  0  0  0  0  0  0  0  0
   -5.5045    0.8882    0.0256 H   0  0  0  0  0  0  0  0  0  0  0  0
   -3.8573    2.7194    0.0389 H   0  0  0  0  0  0  0  0  0  0  0  0
   -1.5186    3.4759    0.0432 H   0  0  0  0  0  0  0  0  0  0  0  0
    0.8320    2.9879    0.0458 H   0  0  0  0  0  0  0  0  0  0  0  0
    1.8072   -2.9090   -0.0547 H   0  0  0  0  0  0  0  0  0  0  0  0
   -0.5365   -3.6565   -0.0445 H   0  0  0  0  0  0  0  0  0  0  0  0
   -2.9274   -3.1388   -0.0289 H   0  0  0  0  0  0  0  0  0  0  0  0
    3.9524   -0.9729   -1.9761 H   0  0  0  0  0  0  0  0  0  0  0  0
    4.9298    0.9480    2.1597 H   0  0  0  0  0  0  0  0  0  0  0  0
    5.3362    2.4938    0.8300 H   0  0  0  0  0  0  0  0  0  0  0  0
    3.0034    2.0716    1.0243 H   0  0  0  0  0  0  0  0  0  0  0  0
    2.7502    2.4287   -0.6821 H   0  0  0  0  0  0  0  0  0  0  0  0
  1  2  2  0  0  0  0
  1 14  1  0  0  0  0
  1 27  1  0  0  0  0
  2  3  1  0  0  0  0
  2 28  1  0  0  0  0
  3  4  2  0  0  0  0
  3 29  1  0  0  0  0
  4  5  1  0  0  0  0
  4 15  1  0  0  0  0
  5  6  2  0  0  0  0
  5 30  1  0  0  0  0
  6  7  1  0  0  0  0
  6 31  1  0  0  0  0
  7  8  2  0  0  0  0
  7 16  1  0  0  0  0
  8  9  1  0  0  0  0
  8 23  1  0  0  0  0
  9 10  2  0  0  0  0
  9 17  1  0  0  0  0
 10 11  1  0  0  0  0
 10 32  1  0  0  0  0
 11 12  2  0  0  0  0
 11 16  1  0  0  0  0
 12 13  1  0  0  0  0
 12 33  1  0  0  0  0
 13 14  2  0  0  0  0
 13 34  1  0  0  0  0
 14 15  1  0  0  0  0
 15 16  2  0  0  0  0
 17 18  1  0  0  0  0
 17 19  1  0  0  0  0
 17 24  1  1  0  0  0
 18 35  1  0  0  0  0
 19 21  1  0  0  0  0
 19 25  1  6  0  0  0
 19 20  1  0  0  0  0
 20 36  1  0  0  0  0
 21 22  1  0  0  0  0
 21 23  1  0  0  0  0
 21 26  1  6  0  0  0
 22 37  1  0  0  0  0
 23 38  1  0  0  0  0
 23 39  1  0  0  0  0
M  END
>  <DRUGBANK_ID>
DB07435

>  <COMMON_NAME>
1,2,3-TRIHYDROXY-1,2,3,4-TETRAHYDROBENZO[A]PYRENE

$$$$
