
 OpenBabel10282417223D

 55 59  0  0  0  0  0  0  0  0999 V2000
    1.9538    0.0483    0.0400 O   0  0  0  0  0  0  0  0  0  0  0  0
    0.7261    0.0132    0.0815 C   0  0  0  0  0  0  0  0  0  0  0  0
   -0.1584    1.2211    0.2364 C   0  0  0  0  0  0  0  0  0  0  0  0
   -1.5052    0.7252   -0.2743 C   0  0  0  0  0  0  0  0  0  0  0  0
   -1.4946   -0.7618    0.0319 C   0  0  0  0  0  0  0  0  0  0  0  0
   -0.0955   -1.1039   -0.0101 N   0  0  0  0  0  0  0  0  0  0  0  0
    0.3712   -2.4286   -0.0057 C   0  0  0  0  0  0  0  0  0  0  0  0
    1.2493   -2.8743    0.9735 C   0  0  0  0  0  0  0  0  0  0  0  0
    1.7142   -4.1878    0.9345 C   0  0  0  0  0  0  0  0  0  0  0  0
    1.2867   -5.0403   -0.0799 C   0  0  0  0  0  0  0  0  0  0  0  0
    1.6830   -6.3599   -0.2070 O   0  0  0  0  0  0  0  0  0  0  0  0
    2.4637   -6.9216    0.7735 C   0  0  0  0  0  0  0  0  0  0  0  0
    2.0390   -7.0117    2.0955 C   0  0  0  0  0  0  0  0  0  0  0  0
    2.8593   -7.5804    3.0864 C   0  0  0  0  0  0  0  0  0  0  0  0
    4.1458   -8.0611    2.7244 C   0  0  0  0  0  0  0  0  0  0  0  0
    5.2023   -8.6343    3.6492 C   0  0  0  0  0  0  0  0  0  0  0  0
    4.6947   -9.6774    4.6277 C   0  0  0  0  0  0  0  0  0  0  0  0
    3.8185   -9.1618    5.6745 N   0  0  3  0  0  0  0  0  0  0  0  0
    2.4515   -8.9167    5.2080 C   0  0  0  0  0  0  0  0  0  0  0  0
    2.2475   -7.6025    4.4683 C   0  0  0  0  0  0  0  0  0  0  0  0
    4.3195   -8.1138    6.5850 C   0  0  0  0  0  0  0  0  0  0  0  0
    4.6033   -6.6986    5.9952 C   0  0  0  0  0  0  0  0  0  0  0  0
    5.9185   -6.6899    6.7652 C   0  0  0  0  0  0  0  0  0  0  0  0
    5.8371   -8.2266    6.8726 C   0  0  0  0  0  0  0  0  0  0  0  0
    4.5263   -8.0029    1.3749 C   0  0  0  0  0  0  0  0  0  0  0  0
    3.6860   -7.4649    0.4057 C   0  0  0  0  0  0  0  0  0  0  0  0
    0.4444   -4.6222   -1.0547 N   0  0  0  0  0  0  0  0  0  0  0  0
    0.0126   -3.3347   -0.9962 C   0  0  0  0  0  0  0  0  0  0  0  0
   -0.1967    1.4941    1.2954 H   0  0  0  0  0  0  0  0  0  0  0  0
    0.2110    2.0621   -0.3563 H   0  0  0  0  0  0  0  0  0  0  0  0
   -2.3492    1.2524    0.1805 H   0  0  0  0  0  0  0  0  0  0  0  0
   -1.5620    0.8753   -1.3593 H   0  0  0  0  0  0  0  0  0  0  0  0
   -1.8799   -0.9535    1.0414 H   0  0  0  0  0  0  0  0  0  0  0  0
   -2.0755   -1.3342   -0.6957 H   0  0  0  0  0  0  0  0  0  0  0  0
    1.5640   -2.2287    1.7880 H   0  0  0  0  0  0  0  0  0  0  0  0
    2.3985   -4.5107    1.7088 H   0  0  0  0  0  0  0  0  0  0  0  0
    1.0629   -6.6133    2.3690 H   0  0  0  0  0  0  0  0  0  0  0  0
    5.7555   -7.8415    4.1494 H   0  0  0  0  0  0  0  0  0  0  0  0
    6.0143   -9.0938    3.0709 H   0  0  0  0  0  0  0  0  0  0  0  0
    5.5440  -10.1943    5.0917 H   0  0  0  0  0  0  0  0  0  0  0  0
    4.1996  -10.4843    4.0661 H   0  0  0  0  0  0  0  0  0  0  0  0
    2.1115   -9.7390    4.5590 H   0  0  0  0  0  0  0  0  0  0  0  0
    1.7752   -8.9484    6.0708 H   0  0  0  0  0  0  0  0  0  0  0  0
    2.5715   -6.7364    5.0373 H   0  0  0  0  0  0  0  0  0  0  0  0
    1.1659   -7.4163    4.4178 H   0  0  0  0  0  0  0  0  0  0  0  0
    3.7146   -8.0403    7.4975 H   0  0  0  0  0  0  0  0  0  0  0  0
    4.7319   -6.5235    4.9267 H   0  0  0  0  0  0  0  0  0  0  0  0
    3.9260   -5.8991    6.3148 H   0  0  0  0  0  0  0  0  0  0  0  0
    6.7711   -6.2959    6.2051 H   0  0  0  0  0  0  0  0  0  0  0  0
    5.8098   -6.1523    7.7087 H   0  0  0  0  0  0  0  0  0  0  0  0
    6.0986   -8.6450    7.8469 H   0  0  0  0  0  0  0  0  0  0  0  0
    6.4867   -8.7064    6.1343 H   0  0  0  0  0  0  0  0  0  0  0  0
    5.4954   -8.3950    1.0716 H   0  0  0  0  0  0  0  0  0  0  0  0
    4.0033   -7.4634   -0.6307 H   0  0  0  0  0  0  0  0  0  0  0  0
   -0.6043   -3.0255   -1.8350 H   0  0  0  0  0  0  0  0  0  0  0  0
  1  2  2  0  0  0  0
  2  3  1  0  0  0  0
  2  6  1  0  0  0  0
  3  4  1  0  0  0  0
  3 29  1  0  0  0  0
  3 30  1  0  0  0  0
  4  5  1  0  0  0  0
  4 31  1  0  0  0  0
  4 32  1  0  0  0  0
  5  6  1  0  0  0  0
  5 33  1  0  0  0  0
  5 34  1  0  0  0  0
  6  7  1  0  0  0  0
  7  8  2  0  0  0  0
  7 28  1  0  0  0  0
  8  9  1  0  0  0  0
  8 35  1  0  0  0  0
  9 10  2  0  0  0  0
  9 36  1  0  0  0  0
 10 11  1  0  0  0  0
 10 27  1  0  0  0  0
 11 12  1  0  0  0  0
 12 13  2  0  0  0  0
 12 26  1  0  0  0  0
 13 14  1  0  0  0  0
 13 37  1  0  0  0  0
 14 15  2  0  0  0  0
 14 20  1  0  0  0  0
 15 16  1  0  0  0  0
 15 25  1  0  0  0  0
 16 17  1  0  0  0  0
 16 38  1  0  0  0  0
 16 39  1  0  0  0  0
 17 18  1  0  0  0  0
 17 40  1  0  0  0  0
 17 41  1  0  0  0  0
 18 19  1  0  0  0  0
 18 21  1  0  0  0  0
 19 20  1  0  0  0  0
 19 42  1  0  0  0  0
 19 43  1  0  0  0  0
 20 44  1  0  0  0  0
 20 45  1  0  0  0  0
 21 22  1  0  0  0  0
 21 24  1  0  0  0  0
 21 46  1  0  0  0  0
 22 23  1  0  0  0  0
 22 47  1  0  0  0  0
 22 48  1  0  0  0  0
 23 24  1  0  0  0  0
 23 49  1  0  0  0  0
 23 50  1  0  0  0  0
 24 51  1  0  0  0  0
 24 52  1  0  0  0  0
 25 26  2  0  0  0  0
 25 53  1  0  0  0  0
 26 54  1  0  0  0  0
 27 28  2  0  0  0  0
 28 55  1  0  0  0  0
M  END
>  <DRUGBANK_ID>
DB15120

>  <COMMON_NAME>
GSK-239512

>  <CAS_NUMBER>
720691-69-0

>  <UNII>
4I7U5C459M

$$$$
