920
 OpenBabel10282417113D

 41 44  0  0  0  0  0  0  0  0999 V2000
    3.3168   -0.9711    0.8062 S   0  0  0  0  0  0  0  0  0  0  0  0
    1.0878   -2.9759    0.6906 O   0  0  0  0  0  0  0  0  0  0  0  0
    0.4871    2.5479   -4.8055 N   0  0  0  0  0  0  0  0  0  0  0  0
    0.3266    1.8838   -1.9215 C   0  0  0  0  0  0  0  0  0  0  0  0
   -0.8907    2.4098   -2.6893 C   0  0  0  0  0  0  0  0  0  0  0  0
    1.6091    2.3504   -2.5903 C   0  0  0  0  0  0  0  0  0  0  0  0
   -0.7734    2.0864   -4.1902 C   0  0  0  0  0  0  0  0  0  0  0  0
    1.6216    1.9743   -4.0684 C   0  0  0  0  0  0  0  0  0  0  0  0
    0.3084    1.0670   -0.8330 C   0  0  0  0  0  0  0  0  0  0  0  0
   -1.0134    0.6370   -0.3126 C   0  0  0  0  0  0  0  0  0  0  0  0
    1.5245    0.5706   -0.2117 C   0  0  0  0  0  0  0  0  0  0  0  0
   -1.3523   -0.7273   -0.2786 C   0  0  0  0  0  0  0  0  0  0  0  0
    0.5674    4.0123   -4.8075 C   0  0  0  0  0  0  0  0  0  0  0  0
    1.7295   -0.7430    0.1874 C   0  0  0  0  0  0  0  0  0  0  0  0
   -0.3862   -1.7875   -0.7418 C   0  0  0  0  0  0  0  0  0  0  0  0
    0.8486   -1.9002    0.1239 C   0  0  0  0  0  0  0  0  0  0  0  0
   -1.9254    1.5943    0.1591 C   0  0  0  0  0  0  0  0  0  0  0  0
    2.6578    1.3899    0.1019 C   0  0  0  0  0  0  0  0  0  0  0  0
   -2.6168   -1.1047    0.1868 C   0  0  0  0  0  0  0  0  0  0  0  0
    3.7225    0.6637    0.5733 C   0  0  0  0  0  0  0  0  0  0  0  0
   -3.1870    1.2072    0.5983 C   0  0  0  0  0  0  0  0  0  0  0  0
   -3.5313   -0.1414    0.6090 C   0  0  0  0  0  0  0  0  0  0  0  0
   -0.9554    3.4952   -2.5378 H   0  0  0  0  0  0  0  0  0  0  0  0
   -1.8487    2.0117   -2.3484 H   0  0  0  0  0  0  0  0  0  0  0  0
    1.7049    3.4316   -2.4359 H   0  0  0  0  0  0  0  0  0  0  0  0
    2.5184    1.9146   -2.1885 H   0  0  0  0  0  0  0  0  0  0  0  0
   -1.6254    2.5136   -4.7322 H   0  0  0  0  0  0  0  0  0  0  0  0
   -0.8570    0.9978   -4.3212 H   0  0  0  0  0  0  0  0  0  0  0  0
    1.6105    0.8779   -4.1581 H   0  0  0  0  0  0  0  0  0  0  0  0
    2.5723    2.2959   -4.5094 H   0  0  0  0  0  0  0  0  0  0  0  0
    0.4908    4.4624   -3.8120 H   0  0  0  0  0  0  0  0  0  0  0  0
    1.5205    4.3417   -5.2333 H   0  0  0  0  0  0  0  0  0  0  0  0
   -0.2371    4.4363   -5.4126 H   0  0  0  0  0  0  0  0  0  0  0  0
   -0.8801   -2.7673   -0.7342 H   0  0  0  0  0  0  0  0  0  0  0  0
   -0.0827   -1.6087   -1.7799 H   0  0  0  0  0  0  0  0  0  0  0  0
   -1.6655    2.6514    0.1453 H   0  0  0  0  0  0  0  0  0  0  0  0
    2.7172    2.4550   -0.0903 H   0  0  0  0  0  0  0  0  0  0  0  0
   -2.8968   -2.1555    0.2175 H   0  0  0  0  0  0  0  0  0  0  0  0
    4.7131    1.0243    0.8069 H   0  0  0  0  0  0  0  0  0  0  0  0
   -3.8995    1.9587    0.9253 H   0  0  0  0  0  0  0  0  0  0  0  0
   -4.5150   -0.4491    0.9509 H   0  0  0  0  0  0  0  0  0  0  0  0
  1 14  1  0  0  0  0
  1 20  1  0  0  0  0
  2 16  2  0  0  0  0
  3  7  1  0  0  0  0
  3  8  1  0  0  0  0
  3 13  1  0  0  0  0
  4  5  1  0  0  0  0
  4  6  1  0  0  0  0
  4  9  2  0  0  0  0
  5  7  1  0  0  0  0
  5 23  1  0  0  0  0
  5 24  1  0  0  0  0
  6  8  1  0  0  0  0
  6 25  1  0  0  0  0
  6 26  1  0  0  0  0
  7 27  1  0  0  0  0
  7 28  1  0  0  0  0
  8 29  1  0  0  0  0
  8 30  1  0  0  0  0
  9 10  1  0  0  0  0
  9 11  1  0  0  0  0
 10 12  1  0  0  0  0
 10 17  2  0  0  0  0
 11 14  2  0  0  0  0
 11 18  1  0  0  0  0
 12 15  1  0  0  0  0
 12 19  2  0  0  0  0
 13 31  1  0  0  0  0
 13 32  1  0  0  0  0
 13 33  1  0  0  0  0
 14 16  1  0  0  0  0
 15 16  1  0  0  0  0
 15 34  1  0  0  0  0
 15 35  1  0  0  0  0
 17 21  1  0  0  0  0
 17 36  1  0  0  0  0
 18 20  2  0  0  0  0
 18 37  1  0  0  0  0
 19 22  1  0  0  0  0
 19 38  1  0  0  0  0
 20 39  1  0  0  0  0
 21 22  2  0  0  0  0
 21 40  1  0  0  0  0
 22 41  1  0  0  0  0
M  END
>  <DRUGBANK_ID>
DB00920

>  <SECONDARY_ACCESSION_NUMBERS>
APRD01061

>  <COMMON_NAME>
Ketotifen

>  <CAS_NUMBER>
34580-13-7

>  <UNII>
X49220T18G

>  <SYNONYMS>
Ketotifen; Ketotifene; Ketotifeno; Ketotifenum

$$$$
