
 OpenBabel10282417223D

 70 73  0  0  1  0  0  0  0  0999 V2000
    6.6348  -10.0030   -3.4572 C   0  0  0  0  0  0  0  0  0  0  0  0
    5.8771   -9.1220   -4.3369 N   0  0  0  0  0  0  0  0  0  0  0  0
    6.6373   -8.1831   -5.1451 C   0  0  0  0  0  0  0  0  0  0  0  0
    4.4749   -9.1551   -4.2194 C   0  0  0  0  0  0  0  0  0  0  0  0
    3.8988   -9.8748   -3.4278 O   0  0  0  0  0  0  0  0  0  0  0  0
    3.6243   -8.2774   -5.0787 C   0  0  0  0  0  0  0  0  0  0  0  0
    2.4692   -7.7120   -4.5123 C   0  0  0  0  0  0  0  0  0  0  0  0
    1.6525   -6.9552   -5.3264 C   0  0  0  0  0  0  0  0  0  0  0  0
    0.4561   -6.4102   -4.8303 N   0  0  0  0  0  0  0  0  0  0  0  0
   -0.4906   -5.6880   -5.5261 C   0  0  0  0  0  0  0  0  0  0  0  0
   -1.4718   -5.2484   -4.9217 O   0  0  0  0  0  0  0  0  0  0  0  0
   -0.3125   -5.4905   -7.0341 C   0  0  1  0  0  0  0  0  0  0  0  0
   -0.4481   -6.8466   -7.7553 C   0  0  0  0  0  0  0  0  0  0  0  0
   -1.8560   -6.8734   -8.2312 C   0  0  0  0  0  0  0  0  0  0  0  0
   -1.9384   -5.4729   -8.6504 C   0  0  0  0  0  0  0  0  0  0  0  0
   -2.3772   -5.3041   -9.7863 O   0  0  0  0  0  0  0  0  0  0  0  0
   -1.2722   -4.6020   -7.6909 N   0  0  0  0  0  0  0  0  0  0  0  0
   -0.8161   -3.1508   -7.9696 C   0  0  0  0  0  0  0  0  0  0  0  0
   -1.4285   -1.8373   -7.3621 C   0  0  0  0  0  0  0  0  0  0  0  0
   -2.8778   -1.6409   -7.7415 C   0  0  0  0  0  0  0  0  0  0  0  0
   -3.1589   -1.6896   -9.1877 N   0  0  0  0  0  0  0  0  0  0  0  0
   -4.6303   -1.8503   -9.4825 C   0  0  0  0  0  0  0  0  0  0  0  0
   -5.4306   -2.9026   -8.6992 C   0  0  0  0  0  0  0  0  0  0  0  0
   -6.0953   -3.9738   -9.3068 C   0  0  0  0  0  0  0  0  0  0  0  0
   -6.7947   -4.9055   -8.5184 C   0  0  0  0  0  0  0  0  0  0  0  0
   -6.7637   -4.8302   -7.1189 C   0  0  0  0  0  0  0  0  0  0  0  0
   -7.6379   -5.9973   -6.1977 Cl  0  0  0  0  0  0  0  0  0  0  0  0
   -6.0801   -3.7949   -6.4916 C   0  0  0  0  0  0  0  0  0  0  0  0
   -5.9162   -3.6603   -5.0051 C   0  0  0  0  0  0  0  0  0  0  0  0
   -5.5310   -2.8012   -7.3021 C   0  0  0  0  0  0  0  0  0  0  0  0
   -2.4902   -2.8677   -9.7182 C   0  0  0  0  0  0  0  0  0  0  0  0
   -0.9647   -2.9751   -9.4614 C   0  0  0  0  0  0  0  0  0  0  0  0
    1.9713   -6.7392   -6.6137 N   0  0  0  0  0  0  0  0  0  0  0  0
    3.0379   -7.3235   -7.1801 C   0  0  0  0  0  0  0  0  0  0  0  0
    3.2307   -7.1005   -8.6501 C   0  0  0  0  0  0  0  0  0  0  0  0
    3.8806   -8.1151   -6.4403 C   0  0  0  0  0  0  0  0  0  0  0  0
    7.7119   -9.8772   -3.6049 H   0  0  0  0  0  0  0  0  0  0  0  0
    6.3690  -11.0415   -3.6733 H   0  0  0  0  0  0  0  0  0  0  0  0
    6.3927   -9.7812   -2.4132 H   0  0  0  0  0  0  0  0  0  0  0  0
    6.4913   -8.4161   -6.1992 H   0  0  0  0  0  0  0  0  0  0  0  0
    6.3091   -7.1626   -4.9328 H   0  0  0  0  0  0  0  0  0  0  0  0
    7.7103   -8.2732   -4.9633 H   0  0  0  0  0  0  0  0  0  0  0  0
    2.2219   -7.8867   -3.4708 H   0  0  0  0  0  0  0  0  0  0  0  0
    0.2185   -6.5489   -3.8581 H   0  0  0  0  0  0  0  0  0  0  0  0
    0.6724   -5.0492   -7.2186 H   0  0  0  0  0  0  0  0  0  0  0  0
   -0.2630   -7.7411   -7.1613 H   0  0  0  0  0  0  0  0  0  0  0  0
    0.2215   -6.8631   -8.6290 H   0  0  0  0  0  0  0  0  0  0  0  0
   -2.6347   -7.0822   -7.5009 H   0  0  0  0  0  0  0  0  0  0  0  0
   -1.9690   -7.5045   -9.1216 H   0  0  0  0  0  0  0  0  0  0  0  0
    0.2237   -3.0948   -7.6193 H   0  0  0  0  0  0  0  0  0  0  0  0
   -1.3298   -1.7667   -6.2726 H   0  0  0  0  0  0  0  0  0  0  0  0
   -0.8794   -0.9692   -7.7673 H   0  0  0  0  0  0  0  0  0  0  0  0
   -3.2975   -2.4872   -7.2049 H   0  0  0  0  0  0  0  0  0  0  0  0
   -3.2838   -0.7072   -7.3359 H   0  0  0  0  0  0  0  0  0  0  0  0
   -5.1079   -0.8806   -9.3258 H   0  0  0  0  0  0  0  0  0  0  0  0
   -4.7339   -2.0598  -10.5588 H   0  0  0  0  0  0  0  0  0  0  0  0
   -6.0981   -4.0916  -10.3889 H   0  0  0  0  0  0  0  0  0  0  0  0
   -7.3643   -5.6962   -9.0010 H   0  0  0  0  0  0  0  0  0  0  0  0
   -6.8780   -3.4330   -4.5425 H   0  0  0  0  0  0  0  0  0  0  0  0
   -5.4860   -4.5680   -4.5691 H   0  0  0  0  0  0  0  0  0  0  0  0
   -5.2253   -2.8441   -4.7524 H   0  0  0  0  0  0  0  0  0  0  0  0
   -5.1063   -1.9381   -6.7996 H   0  0  0  0  0  0  0  0  0  0  0  0
   -2.7046   -3.0869  -10.7658 H   0  0  0  0  0  0  0  0  0  0  0  0
   -3.0318   -3.6024   -9.1259 H   0  0  0  0  0  0  0  0  0  0  0  0
   -0.4215   -2.1144   -9.8521 H   0  0  0  0  0  0  0  0  0  0  0  0
   -0.5063   -3.8542   -9.9337 H   0  0  0  0  0  0  0  0  0  0  0  0
    2.4062   -7.5469   -9.2162 H   0  0  0  0  0  0  0  0  0  0  0  0
    3.2587   -6.0270   -8.8638 H   0  0  0  0  0  0  0  0  0  0  0  0
    4.1638   -7.5446   -9.0078 H   0  0  0  0  0  0  0  0  0  0  0  0
    4.6967   -8.6111   -6.9430 H   0  0  0  0  0  0  0  0  0  0  0  0
  1  2  1  0  0  0  0
  1 37  1  0  0  0  0
  1 38  1  0  0  0  0
  1 39  1  0  0  0  0
  2  3  1  0  0  0  0
  2  4  1  0  0  0  0
  3 40  1  0  0  0  0
  3 41  1  0  0  0  0
  3 42  1  0  0  0  0
  4  5  2  0  0  0  0
  4  6  1  0  0  0  0
  6  7  2  0  0  0  0
  6 36  1  0  0  0  0
  7  8  1  0  0  0  0
  7 43  1  0  0  0  0
  8  9  1  0  0  0  0
  8 33  2  0  0  0  0
  9 10  1  0  0  0  0
  9 44  1  0  0  0  0
 10 11  2  0  0  0  0
 12 13  1  0  0  0  0
 12 17  1  0  0  0  0
 12 45  1  6  0  0  0
 12 10  1  0  0  0  0
 13 14  1  0  0  0  0
 13 46  1  0  0  0  0
 13 47  1  0  0  0  0
 14 15  1  0  0  0  0
 14 48  1  0  0  0  0
 14 49  1  0  0  0  0
 15 16  2  0  0  0  0
 15 17  1  0  0  0  0
 17 18  1  0  0  0  0
 18 19  1  0  0  0  0
 18 32  1  0  0  0  0
 18 50  1  0  0  0  0
 19 20  1  0  0  0  0
 19 51  1  0  0  0  0
 19 52  1  0  0  0  0
 20 21  1  0  0  0  0
 20 53  1  0  0  0  0
 20 54  1  0  0  0  0
 21 22  1  0  0  0  0
 21 31  1  0  0  0  0
 22 23  1  0  0  0  0
 22 55  1  0  0  0  0
 22 56  1  0  0  0  0
 23 24  2  0  0  0  0
 23 30  1  0  0  0  0
 24 25  1  0  0  0  0
 24 57  1  0  0  0  0
 25 26  2  0  0  0  0
 25 58  1  0  0  0  0
 26 27  1  0  0  0  0
 26 28  1  0  0  0  0
 28 29  1  0  0  0  0
 28 30  2  0  0  0  0
 29 59  1  0  0  0  0
 29 60  1  0  0  0  0
 29 61  1  0  0  0  0
 30 62  1  0  0  0  0
 31 32  1  0  0  0  0
 31 63  1  0  0  0  0
 31 64  1  0  0  0  0
 32 65  1  0  0  0  0
 32 66  1  0  0  0  0
 33 34  1  0  0  0  0
 34 35  1  0  0  0  0
 34 36  2  0  0  0  0
 35 67  1  0  0  0  0
 35 68  1  0  0  0  0
 35 69  1  0  0  0  0
 36 70  1  0  0  0  0
M  END
>  <DRUGBANK_ID>
DB15269

>  <COMMON_NAME>
ALK-4290

>  <CAS_NUMBER>
1251528-23-0

>  <UNII>
R0T9LLR4TN

$$$$
