
 OpenBabel10282417153D

 78 69  0  0  1  0  0  0  0  0999 V2000
    0.9430    0.0576    0.0585 Na  0  3  0  0  0  0  0  0  0  0  0  0
    1.0235    0.0458    0.0858 Na  0  3  0  0  0  0  0  0  0  0  0  0
    1.0559   -0.0342   -0.0755 Na  0  3  0  0  0  0  0  0  0  0  0  0
   -0.0000   -1.1200    0.3680 Sb  0  0  0  0  0  0  0  0  0  0  0  0
   -1.2390   -0.7750   -0.5120 O   0  0  0  0  0  0  0  0  0  0  0  0
    1.2390   -0.7750   -0.5120 O   0  0  0  0  0  0  0  0  0  0  0  0
   -1.2390    0.7750   -0.5110 C   0  0  2  0  0  0  0  0  0  0  0  0
    1.2390    0.7750   -0.5120 C   0  0  1  0  0  0  0  0  0  0  0  0
    0.0000    1.1200    0.3680 C   0  0  2  0  0  0  0  0  0  0  0  0
    0.0000   -0.0000    1.3130 O   0  0  0  0  0  0  0  0  0  0  0  0
   -2.5165    1.3220    0.1048 C   0  0  0  0  0  0  0  0  0  0  0  0
   -2.8812    1.0738    1.4546 O   0  5  0  0  0  0  0  0  0  0  0  0
   -3.3207    1.9296   -0.6692 O   0  0  0  0  0  0  0  0  0  0  0  0
    2.5168    1.3226    0.1027 C   0  0  2  0  0  0  0  0  0  0  0  0
    3.2589    0.1991    0.5539 O   0  0  0  0  0  0  0  0  0  0  0  0
    2.3145    2.2924    1.2555 C   0  0  0  0  0  0  0  0  0  0  0  0
    2.0695    3.5987    0.7557 O   0  0  0  0  0  0  0  0  0  0  0  0
    0.0002    2.1131    0.7662 H   0  0  0  0  0  0  0  0  0  0  0  0
    1.1928    1.1987   -1.4934 H   0  0  0  0  0  0  0  0  0  0  0  0
   -1.0396   -2.8314    0.8069 O   0  0  0  0  0  0  0  0  0  0  0  0
   -1.9521   -2.6278    2.6313 Sb  0  0  0  0  0  0  0  0  0  0  0  0
   -2.6786   -1.4216    1.9636 O   0  0  0  0  0  0  0  0  0  0  0  0
   -0.7683   -2.9741    1.6788 O   0  0  0  0  0  0  0  0  0  0  0  0
   -1.6914   -0.2511    2.2043 C   0  0  2  0  0  0  0  0  0  0  0  0
    0.2189   -1.8035    1.9185 C   0  0  1  0  0  0  0  0  0  0  0  0
   -0.5254   -0.9360    2.9778 C   0  0  2  0  0  0  0  0  0  0  0  0
   -1.2483   -1.9638    3.7319 O   0  0  0  0  0  0  0  0  0  0  0  0
   -2.3340    0.8438    3.0401 C   0  0  0  0  0  0  0  0  0  0  0  0
   -1.7196    1.6304    4.0502 O   0  5  0  0  0  0  0  0  0  0  0  0
   -3.5704    0.9901    2.7849 O   0  0  0  0  0  0  0  0  0  0  0  0
    1.5464   -2.3088    2.4596 C   0  0  2  0  0  0  0  0  0  0  0  0
    2.3150   -2.7228    1.3396 O   0  0  0  0  0  0  0  0  0  0  0  0
    1.4108   -3.4654    3.4364 C   0  0  0  0  0  0  0  0  0  0  0  0
    0.1803   -3.3255    4.1311 O   0  0  0  0  0  0  0  0  0  0  0  0
    0.1033   -0.2627    3.5222 H   0  0  0  0  0  0  0  0  0  0  0  0
    0.4631   -1.2657    1.0263 H   0  0  0  0  0  0  0  0  0  0  0  0
    1.0396   -0.9754   -1.3929 O   0  0  0  0  0  0  0  0  0  0  0  0
   -3.8479   -3.3535    2.9168 O   0  5  0  0  0  0  0  0  0  0  0  0
    1.0892   -0.0393    0.0223 O   0  0  0  0  0  0  0  0  0  0  0  0
    0.9381    0.0484    0.0618 O   0  0  0  0  0  0  0  0  0  0  0  0
    0.9514    0.0301   -0.0821 O   0  0  0  0  0  0  0  0  0  0  0  0
    1.0455    0.0465   -0.0759 O   0  0  0  0  0  0  0  0  0  0  0  0
    0.9833    0.0542    0.0824 O   0  0  0  0  0  0  0  0  0  0  0  0
    0.9504    0.0264    0.0827 O   0  0  0  0  0  0  0  0  0  0  0  0
    0.9900   -0.0031   -0.0995 O   0  0  0  0  0  0  0  0  0  0  0  0
    1.0934   -0.0124   -0.0336 O   0  0  0  0  0  0  0  0  0  0  0  0
    0.9745   -0.0891    0.0374 O   0  0  0  0  0  0  0  0  0  0  0  0
   -1.1933    1.1991   -1.4923 H   0  0  0  0  0  0  0  0  0  0  0  0
    3.0523    1.8109   -0.6845 H   0  0  0  0  0  0  0  0  0  0  0  0
    2.8531   -0.3377   -0.1858 H   0  0  0  0  0  0  0  0  0  0  0  0
    1.5119    2.0008    1.9003 H   0  0  0  0  0  0  0  0  0  0  0  0
    3.2329    2.2869    1.8045 H   0  0  0  0  0  0  0  0  0  0  0  0
    2.8196    3.8712    0.1532 H   0  0  0  0  0  0  0  0  0  0  0  0
   -1.3761    0.2294    1.3018 H   0  0  0  0  0  0  0  0  0  0  0  0
    2.0344   -1.4886    2.9434 H   0  0  0  0  0  0  0  0  0  0  0  0
    1.7890   -2.3028    0.6000 H   0  0  0  0  0  0  0  0  0  0  0  0
    1.4133   -4.3901    2.8981 H   0  0  0  0  0  0  0  0  0  0  0  0
    2.2190   -3.4587    4.1376 H   0  0  0  0  0  0  0  0  0  0  0  0
    0.1779   -2.4613    4.6342 H   0  0  0  0  0  0  0  0  0  0  0  0
    0.9326   -1.8223   -1.9137 H   0  0  0  0  0  0  0  0  0  0  0  0
    0.7559    0.0304   -0.9179 H   0  0  0  0  0  0  0  0  0  0  0  0
    2.0892   -0.0393    0.0223 H   0  0  0  0  0  0  0  0  0  0  0  0
    0.6047    0.2276   -0.8638 H   0  0  0  0  0  0  0  0  0  0  0  0
    1.9381    0.0484    0.0618 H   0  0  0  0  0  0  0  0  0  0  0  0
    0.6181   -0.9004    0.0694 H   0  0  0  0  0  0  0  0  0  0  0  0
    1.9514    0.0301   -0.0821 H   0  0  0  0  0  0  0  0  0  0  0  0
    0.7121    0.7783    0.5185 H   0  0  0  0  0  0  0  0  0  0  0  0
    2.0455    0.0465   -0.0759 H   0  0  0  0  0  0  0  0  0  0  0  0
    0.6500   -0.8623   -0.1390 H   0  0  0  0  0  0  0  0  0  0  0  0
    1.9833    0.0542    0.0824 H   0  0  0  0  0  0  0  0  0  0  0  0
    0.6171    0.4820    0.9082 H   0  0  0  0  0  0  0  0  0  0  0  0
    1.9504    0.0264    0.0827 H   0  0  0  0  0  0  0  0  0  0  0  0
    0.6567    0.6042    0.6217 H   0  0  0  0  0  0  0  0  0  0  0  0
    1.9900   -0.0031   -0.0995 H   0  0  0  0  0  0  0  0  0  0  0  0
    0.7600   -0.0961    0.9055 H   0  0  0  0  0  0  0  0  0  0  0  0
    2.0934   -0.0124   -0.0336 H   0  0  0  0  0  0  0  0  0  0  0  0
    0.6412    0.7961   -0.2870 H   0  0  0  0  0  0  0  0  0  0  0  0
    1.9745   -0.0891    0.0374 H   0  0  0  0  0  0  0  0  0  0  0  0
  4 10  1  0  0  0  0
  4 20  1  0  0  0  0
  4 37  1  0  0  0  0
  5  4  1  0  0  0  0
  6  4  1  0  0  0  0
  7  5  1  0  0  0  0
  7 48  1  6  0  0  0
  7 11  1  0  0  0  0
  8  6  1  0  0  0  0
  8 19  1  6  0  0  0
  8 14  1  0  0  0  0
  9  7  1  0  0  0  0
  9  8  1  0  0  0  0
  9 10  1  0  0  0  0
  9 18  1  1  0  0  0
 11 12  1  0  0  0  0
 11 13  2  0  0  0  0
 14 49  1  6  0  0  0
 14 16  1  0  0  0  0
 14 15  1  0  0  0  0
 15 50  1  0  0  0  0
 16 17  1  0  0  0  0
 16 51  1  0  0  0  0
 16 52  1  0  0  0  0
 17 53  1  0  0  0  0
 21 27  1  0  0  0  0
 21 20  1  0  0  0  0
 21 38  1  0  0  0  0
 22 21  1  0  0  0  0
 23 21  1  0  0  0  0
 24 22  1  0  0  0  0
 24 54  1  6  0  0  0
 24 28  1  0  0  0  0
 25 23  1  0  0  0  0
 25 36  1  6  0  0  0
 25 31  1  0  0  0  0
 26 24  1  0  0  0  0
 26 25  1  0  0  0  0
 26 27  1  0  0  0  0
 26 35  1  1  0  0  0
 28 29  1  0  0  0  0
 28 30  2  0  0  0  0
 31 55  1  1  0  0  0
 31 33  1  0  0  0  0
 31 32  1  0  0  0  0
 32 56  1  0  0  0  0
 33 34  1  0  0  0  0
 33 57  1  0  0  0  0
 33 58  1  0  0  0  0
 34 59  1  0  0  0  0
 37 60  1  0  0  0  0
 39 61  1  0  0  0  0
 39 62  1  0  0  0  0
 40 63  1  0  0  0  0
 40 64  1  0  0  0  0
 41 65  1  0  0  0  0
 41 66  1  0  0  0  0
 42 67  1  0  0  0  0
 42 68  1  0  0  0  0
 43 69  1  0  0  0  0
 43 70  1  0  0  0  0
 44 71  1  0  0  0  0
 44 72  1  0  0  0  0
 45 73  1  0  0  0  0
 45 74  1  0  0  0  0
 46 75  1  0  0  0  0
 46 76  1  0  0  0  0
 47 77  1  0  0  0  0
 47 78  1  0  0  0  0
M  CHG  6   1   1   2   1   3   1  12  -1  29  -1  38  -1
M  END
>  <DRUGBANK_ID>
DB05630

>  <COMMON_NAME>
Sodium stibogluconate

>  <CAS_NUMBER>
16037-91-5

>  <UNII>
APJ6285Y89

>  <SYNONYMS>
Antimony (V) derivative of sodium gluconate; Antimony sodium gluconate; Estibogluconato sodico; Myostibin; Natrii stibogluconas; Sodium stibogluconate; Stibanate; Stibanose; Stibatin; Stibinol; Stibogluconate de sodium

$$$$
