
 OpenBabel10282417153D

 64 68  0  0  1  0  0  0  0  0999 V2000
    0.8701   -0.0749   -0.0304 C   0  0  0  0  0  0  0  0  0  0  0  0
    0.4232   -1.2823    0.7742 C   0  0  0  0  0  0  0  0  0  0  0  0
   -0.3538   -1.0222    1.8906 N   0  0  0  0  0  0  0  0  0  0  0  0
   -1.4745   -0.0833    1.9434 C   0  0  0  0  0  0  0  0  0  0  0  0
   -1.3323    0.8831    3.1342 C   0  0  0  0  0  0  0  0  0  0  0  0
   -1.0475    0.1693    4.3891 N   0  0  0  0  0  0  0  0  0  0  0  0
    0.0250   -0.8454    4.3237 C   0  0  0  0  0  0  0  0  0  0  0  0
   -0.1828   -1.8039    3.1193 C   0  0  0  0  0  0  0  0  0  0  0  0
   -1.8653    0.1964    5.4987 C   0  0  0  0  0  0  0  0  0  0  0  0
   -3.2110   -0.1620    5.4350 C   0  0  0  0  0  0  0  0  0  0  0  0
   -3.9890   -0.2775    6.5956 C   0  0  0  0  0  0  0  0  0  0  0  0
   -3.4782    0.1196    7.8335 C   0  0  0  0  0  0  0  0  0  0  0  0
   -2.1397    0.4867    7.9224 C   0  0  0  0  0  0  0  0  0  0  0  0
   -1.3500    0.5303    6.7630 C   0  0  0  0  0  0  0  0  0  0  0  0
   -4.2315    0.3477    8.9531 O   0  0  0  0  0  0  0  0  0  0  0  0
   -5.6544    0.3058    8.8152 C   0  0  0  0  0  0  0  0  0  0  0  0
   -6.3112    1.3920    7.9205 C   0  0  2  0  0  0  0  0  0  0  0  0
   -5.4773    2.3139    7.0499 C   0  0  0  0  0  0  0  0  0  0  0  0
   -5.1471    3.4343    7.8561 O   0  0  0  0  0  0  0  0  0  0  0  0
   -6.0579    3.4296    8.9752 C   0  0  1  0  0  0  0  0  0  0  0  0
   -5.1929    3.2324   10.2235 C   0  0  0  0  0  0  0  0  0  0  0  0
   -4.1287    4.2105   10.4055 N   0  0  0  0  0  0  0  0  0  0  0  0
   -4.1216    5.5656   10.2248 C   0  0  0  0  0  0  0  0  0  0  0  0
   -2.9554    6.0146   10.7802 C   0  0  0  0  0  0  0  0  0  0  0  0
   -2.1602    4.9619   11.1158 N   0  0  0  0  0  0  0  0  0  0  0  0
   -2.8712    3.8905   10.8388 C   0  0  0  0  0  0  0  0  0  0  0  0
   -6.8807    4.7176    8.9764 C   0  0  0  0  0  0  0  0  0  0  0  0
   -7.3096    5.1795    7.7121 C   0  0  0  0  0  0  0  0  0  0  0  0
   -7.9010    6.4295    7.5633 C   0  0  0  0  0  0  0  0  0  0  0  0
   -7.9895    7.2787    8.6559 C   0  0  0  0  0  0  0  0  0  0  0  0
   -7.6120    6.8465    9.9127 C   0  0  0  0  0  0  0  0  0  0  0  0
   -7.1626    5.5425   10.1002 C   0  0  0  0  0  0  0  0  0  0  0  0
   -6.9012    5.2016   11.7881 Cl  0  0  0  0  0  0  0  0  0  0  0  0
   -8.5929    8.8726    8.4769 Cl  0  0  0  0  0  0  0  0  0  0  0  0
   -6.9835    2.3358    8.7843 O   0  0  0  0  0  0  0  0  0  0  0  0
    0.8427   -2.3929    0.5048 O   0  0  0  0  0  0  0  0  0  0  0  0
    0.5648    0.8724    0.4177 H   0  0  0  0  0  0  0  0  0  0  0  0
    0.5080   -0.1347   -1.0584 H   0  0  0  0  0  0  0  0  0  0  0  0
    1.9676   -0.0773   -0.0427 H   0  0  0  0  0  0  0  0  0  0  0  0
   -1.5818    0.4514    0.9953 H   0  0  0  0  0  0  0  0  0  0  0  0
   -2.3795   -0.6928    2.0716 H   0  0  0  0  0  0  0  0  0  0  0  0
   -0.4658    1.5261    2.9366 H   0  0  0  0  0  0  0  0  0  0  0  0
   -2.2096    1.5335    3.2106 H   0  0  0  0  0  0  0  0  0  0  0  0
    0.9692   -0.3047    4.1879 H   0  0  0  0  0  0  0  0  0  0  0  0
    0.1058   -1.4245    5.2506 H   0  0  0  0  0  0  0  0  0  0  0  0
   -1.0878   -2.4066    3.2609 H   0  0  0  0  0  0  0  0  0  0  0  0
    0.6725   -2.4812    3.0287 H   0  0  0  0  0  0  0  0  0  0  0  0
   -3.6843   -0.3494    4.4768 H   0  0  0  0  0  0  0  0  0  0  0  0
   -5.0329   -0.5439    6.4715 H   0  0  0  0  0  0  0  0  0  0  0  0
   -1.7139    0.7836    8.8789 H   0  0  0  0  0  0  0  0  0  0  0  0
   -0.3259    0.8888    6.8461 H   0  0  0  0  0  0  0  0  0  0  0  0
   -5.9555   -0.7051    8.5170 H   0  0  0  0  0  0  0  0  0  0  0  0
   -6.0656    0.4149    9.8306 H   0  0  0  0  0  0  0  0  0  0  0  0
   -7.0727    0.8817    7.3149 H   0  0  0  0  0  0  0  0  0  0  0  0
   -6.0621    2.6634    6.1923 H   0  0  0  0  0  0  0  0  0  0  0  0
   -4.5627    1.9469    6.6070 H   0  0  0  0  0  0  0  0  0  0  0  0
   -5.8252    3.1726   11.1085 H   0  0  0  0  0  0  0  0  0  0  0  0
   -4.7136    2.2541   10.2449 H   0  0  0  0  0  0  0  0  0  0  0  0
   -4.9069    6.1632    9.8021 H   0  0  0  0  0  0  0  0  0  0  0  0
   -2.6772    7.0501   10.9214 H   0  0  0  0  0  0  0  0  0  0  0  0
   -2.5431    2.8678   10.9526 H   0  0  0  0  0  0  0  0  0  0  0  0
   -7.1549    4.5736    6.8202 H   0  0  0  0  0  0  0  0  0  0  0  0
   -8.2615    6.7394    6.5885 H   0  0  0  0  0  0  0  0  0  0  0  0
   -7.6455    7.5253   10.7617 H   0  0  0  0  0  0  0  0  0  0  0  0
  1  2  1  0  0  0  0
  1 37  1  0  0  0  0
  1 38  1  0  0  0  0
  1 39  1  0  0  0  0
  2  3  1  0  0  0  0
  2 36  2  0  0  0  0
  3  4  1  0  0  0  0
  3  8  1  0  0  0  0
  4  5  1  0  0  0  0
  4 40  1  0  0  0  0
  4 41  1  0  0  0  0
  5  6  1  0  0  0  0
  5 42  1  0  0  0  0
  5 43  1  0  0  0  0
  6  7  1  0  0  0  0
  6  9  1  0  0  0  0
  7  8  1  0  0  0  0
  7 44  1  0  0  0  0
  7 45  1  0  0  0  0
  8 46  1  0  0  0  0
  8 47  1  0  0  0  0
  9 10  2  0  0  0  0
  9 14  1  0  0  0  0
 10 11  1  0  0  0  0
 10 48  1  0  0  0  0
 11 12  2  0  0  0  0
 11 49  1  0  0  0  0
 12 13  1  0  0  0  0
 12 15  1  0  0  0  0
 13 14  2  0  0  0  0
 13 50  1  0  0  0  0
 14 51  1  0  0  0  0
 15 16  1  0  0  0  0
 16 52  1  0  0  0  0
 16 53  1  0  0  0  0
 17 16  1  0  0  0  0
 17 18  1  0  0  0  0
 17 35  1  0  0  0  0
 17 54  1  6  0  0  0
 18 19  1  0  0  0  0
 18 55  1  0  0  0  0
 18 56  1  0  0  0  0
 19 20  1  0  0  0  0
 20 21  1  1  0  0  0
 20 27  1  0  0  0  0
 20 35  1  0  0  0  0
 21 22  1  0  0  0  0
 21 57  1  0  0  0  0
 21 58  1  0  0  0  0
 22 23  1  0  0  0  0
 22 26  1  0  0  0  0
 23 24  2  0  0  0  0
 23 59  1  0  0  0  0
 24 25  1  0  0  0  0
 24 60  1  0  0  0  0
 25 26  2  0  0  0  0
 26 61  1  0  0  0  0
 27 28  2  0  0  0  0
 27 32  1  0  0  0  0
 28 29  1  0  0  0  0
 28 62  1  0  0  0  0
 29 30  2  0  0  0  0
 29 63  1  0  0  0  0
 30 31  1  0  0  0  0
 30 34  1  0  0  0  0
 31 32  2  0  0  0  0
 31 64  1  0  0  0  0
 32 33  1  0  0  0  0
M  END
>  <DRUGBANK_ID>
DB05667

>  <COMMON_NAME>
Levoketoconazole

>  <CAS_NUMBER>
142128-57-2

>  <UNII>
2DJ8R0NT7K

>  <SYNONYMS>
Levoketoconazole

$$$$
