
 OpenBabel10282417133D

 25 24  0  0  0  0  0  0  0  0999 V2000
    2.9789   -0.2496    1.5096 C   0  0  0  0  0  0  0  0  0  0  0  0
   -1.1811    1.4868   -2.5342 C   0  0  0  0  0  0  0  0  0  0  0  0
    2.3746   -0.0170    2.5479 O   0  0  0  0  0  0  0  0  0  0  0  0
   -1.7643    2.1342   -3.5624 O   0  0  0  0  0  0  0  0  0  0  0  0
    4.2446   -0.7146    1.5602 O   0  0  0  0  0  0  0  0  0  0  0  0
   -1.8476    0.8879   -1.7018 O   0  0  0  0  0  0  0  0  0  0  0  0
    0.3303    1.5705   -2.5172 C   0  0  0  0  0  0  0  0  0  0  0  0
    2.4876    0.0032    0.0846 C   0  0  2  0  0  0  0  0  0  0  0  0
    0.9552    0.0599    0.0593 C   0  0  0  0  0  0  0  0  0  0  0  0
    0.8442    2.2540   -1.2476 C   0  0  0  0  0  0  0  0  0  0  0  0
    0.4674    1.5130    0.0474 C   0  0  0  0  0  0  0  0  0  0  0  0
    2.9686   -1.0203   -0.8686 N   0  0  0  0  0  0  0  0  0  0  0  0
   -1.1482    2.5457   -4.1936 H   0  0  0  0  0  0  0  0  0  0  0  0
    4.4152   -0.7900    2.5232 H   0  0  0  0  0  0  0  0  0  0  0  0
    0.7006    2.1131   -3.3932 H   0  0  0  0  0  0  0  0  0  0  0  0
    0.7283    0.5555   -2.6234 H   0  0  0  0  0  0  0  0  0  0  0  0
    2.9423    0.9507   -0.2167 H   0  0  0  0  0  0  0  0  0  0  0  0
    0.5484   -0.4763   -0.8058 H   0  0  0  0  0  0  0  0  0  0  0  0
    0.5216   -0.4578    0.9237 H   0  0  0  0  0  0  0  0  0  0  0  0
    0.4678    3.2816   -1.1949 H   0  0  0  0  0  0  0  0  0  0  0  0
    1.9344    2.3472   -1.3217 H   0  0  0  0  0  0  0  0  0  0  0  0
   -0.6181    1.5287    0.1848 H   0  0  0  0  0  0  0  0  0  0  0  0
    0.8708    2.0499    0.9140 H   0  0  0  0  0  0  0  0  0  0  0  0
    3.9882   -1.0499   -0.8074 H   0  0  0  0  0  0  0  0  0  0  0  0
    2.6450   -1.9369   -0.5621 H   0  0  0  0  0  0  0  0  0  0  0  0
  3  1  2  0  0  0  0
  4  2  1  0  0  0  0
  4 13  1  0  0  0  0
  5  1  1  0  0  0  0
  5 14  1  0  0  0  0
  6  2  2  0  0  0  0
  7  2  1  0  0  0  0
  7 15  1  0  0  0  0
  7 16  1  0  0  0  0
  8 12  1  0  0  0  0
  8 17  1  6  0  0  0
  8  9  1  0  0  0  0
  8  1  1  0  0  0  0
  9 18  1  0  0  0  0
  9 19  1  0  0  0  0
 10  7  1  0  0  0  0
 10 20  1  0  0  0  0
 10 21  1  0  0  0  0
 11  9  1  0  0  0  0
 11 10  1  0  0  0  0
 11 22  1  0  0  0  0
 11 23  1  0  0  0  0
 12 24  1  0  0  0  0
 12 25  1  0  0  0  0
M  END
>  <DRUGBANK_ID>
DB03134

>  <SECONDARY_ACCESSION_NUMBERS>
EXPT02383

>  <COMMON_NAME>
L-2-aminopimelic acid

>  <CAS_NUMBER>
26630-55-7

>  <UNII>
0603E10Z5S

>  <SYNONYMS>
(2S)-2-Aminoheptanedioic acid; (S)-2-aminoheptanedioic acid; 2-Aminopimelic acid; L-alpha-Aminopimelic acid; L-Î±-aminopimelic acid

$$$$
