
 OpenBabel10282417143D

  5  4  0  0  0  0  0  0  0  0999 V2000
    1.0851    0.0156   -0.0501 Mo  0  0  0  0  0  0  0  0  0  0  0  0
    0.2218   -2.3285   -0.7342 S   0  5  0  0  0  0  0  0  0  0  0  0
    0.3124    0.5344    2.0729 S   0  0  0  0  0  0  0  0  0  0  0  0
    0.3124    1.5948   -1.5609 S   0  0  0  0  0  0  0  0  0  0  0  0
    3.6751    0.0156   -0.0501 S   0  5  0  0  0  0  0  0  0  0  0  0
  2  1  1  0  0  0  0
  3  1  2  0  0  0  0
  4  1  2  0  0  0  0
  5  1  1  0  0  0  0
M  CHG  2   2  -1   5  -1
M  END
>  <DRUGBANK_ID>
DB05088

>  <COMMON_NAME>
Tetrathiomolybdate

>  <CAS_NUMBER>
16330-92-0

>  <UNII>
91U3TGV99T

>  <SYNONYMS>
Thiomolybdate; Tiomolibdate ion

$$$$
