236
 OpenBabel10282417103D

 32 32  0  0  0  0  0  0  0  0999 V2000
    1.5360    0.1406   -1.1542 Br  0  0  0  0  0  0  0  0  0  0  0  0
   -2.1931    1.6067   -1.0397 Br  0  0  0  0  0  0  0  0  0  0  0  0
    3.7843    0.9363    3.3224 O   0  0  0  0  0  0  0  0  0  0  0  0
   -2.9789    2.3711    3.5811 O   0  0  0  0  0  0  0  0  0  0  0  0
    1.6018    0.8490    2.7260 N   0  0  0  0  0  0  0  0  0  0  0  0
   -1.0944    1.6898    2.4926 N   0  0  0  0  0  0  0  0  0  0  0  0
    0.6407    0.0061    2.0655 C   0  0  0  0  0  0  0  0  0  0  0  0
    1.0060    1.5855    3.8543 C   0  0  0  0  0  0  0  0  0  0  0  0
   -0.4354    0.8893    1.4704 C   0  0  0  0  0  0  0  0  0  0  0  0
   -0.1623    2.4747    3.3357 C   0  0  0  0  0  0  0  0  0  0  0  0
    2.9455    0.8715    2.4290 C   0  0  0  0  0  0  0  0  0  0  0  0
   -2.4666    1.7560    2.6582 C   0  0  0  0  0  0  0  0  0  0  0  0
    3.3791    1.0523    0.9568 C   0  0  0  0  0  0  0  0  0  0  0  0
   -3.3486    0.9699    1.6815 C   0  0  0  0  0  0  0  0  0  0  0  0
    3.1550   -0.0249   -0.0852 C   0  0  0  0  0  0  0  0  0  0  0  0
   -3.5878    1.5613    0.3015 C   0  0  0  0  0  0  0  0  0  0  0  0
    1.1168   -0.6643    1.3597 H   0  0  0  0  0  0  0  0  0  0  0  0
    0.1904   -0.6475    2.8218 H   0  0  0  0  0  0  0  0  0  0  0  0
    0.5970    0.8356    4.5424 H   0  0  0  0  0  0  0  0  0  0  0  0
    1.7563    2.1782    4.3823 H   0  0  0  0  0  0  0  0  0  0  0  0
   -0.0017    1.6224    0.7820 H   0  0  0  0  0  0  0  0  0  0  0  0
   -1.1280    0.2290    0.9620 H   0  0  0  0  0  0  0  0  0  0  0  0
    0.2456    3.2605    2.6844 H   0  0  0  0  0  0  0  0  0  0  0  0
   -0.6855    2.9674    4.1603 H   0  0  0  0  0  0  0  0  0  0  0  0
    4.4761    1.1365    1.0261 H   0  0  0  0  0  0  0  0  0  0  0  0
    3.0400    2.0386    0.6187 H   0  0  0  0  0  0  0  0  0  0  0  0
   -3.0592   -0.0871    1.6764 H   0  0  0  0  0  0  0  0  0  0  0  0
   -4.3420    0.9655    2.1580 H   0  0  0  0  0  0  0  0  0  0  0  0
    3.2159   -1.0353    0.3220 H   0  0  0  0  0  0  0  0  0  0  0  0
    3.8982    0.0856   -0.8797 H   0  0  0  0  0  0  0  0  0  0  0  0
   -4.3480    0.9588   -0.2021 H   0  0  0  0  0  0  0  0  0  0  0  0
   -3.9200    2.5956    0.3740 H   0  0  0  0  0  0  0  0  0  0  0  0
  1 15  1  0  0  0  0
  2 16  1  0  0  0  0
  3 11  2  0  0  0  0
  4 12  2  0  0  0  0
  5  7  1  0  0  0  0
  5  8  1  0  0  0  0
  5 11  1  0  0  0  0
  6  9  1  0  0  0  0
  6 10  1  0  0  0  0
  6 12  1  0  0  0  0
  7  9  1  0  0  0  0
  7 17  1  0  0  0  0
  7 18  1  0  0  0  0
  8 10  1  0  0  0  0
  8 19  1  0  0  0  0
  8 20  1  0  0  0  0
  9 21  1  0  0  0  0
  9 22  1  0  0  0  0
 10 23  1  0  0  0  0
 10 24  1  0  0  0  0
 11 13  1  0  0  0  0
 12 14  1  0  0  0  0
 13 15  1  0  0  0  0
 13 25  1  0  0  0  0
 13 26  1  0  0  0  0
 14 16  1  0  0  0  0
 14 27  1  0  0  0  0
 14 28  1  0  0  0  0
 15 29  1  0  0  0  0
 15 30  1  0  0  0  0
 16 31  1  0  0  0  0
 16 32  1  0  0  0  0
M  END
>  <DRUGBANK_ID>
DB00236

>  <SECONDARY_ACCESSION_NUMBERS>
APRD00693

>  <COMMON_NAME>
Pipobroman

>  <CAS_NUMBER>
54-91-1

>  <UNII>
6Q99RDT97R

>  <SYNONYMS>
1,4-bis(3-bromopropionyl)piperazine; N,N-bis-(3-bromopropionyl)-piperazine; Pipobroman; Pipobromanum

$$$$
