
 OpenBabel10282417203D

 25 24  0  0  1  0  0  0  0  0999 V2000
    5.0861    1.1687   -1.6805 O   0  0  0  0  0  0  0  0  0  0  0  0
    6.1030   -1.0821   -2.3927 O   0  0  0  0  0  0  0  0  0  0  0  0
    2.4400   -0.3577   -2.3345 O   0  0  0  0  0  0  0  0  0  0  0  0
    6.4017   -1.9414   -4.9597 O   0  0  0  0  0  0  0  0  0  0  0  0
    1.0031    1.0231   -4.2570 O   0  0  0  0  0  0  0  0  0  0  0  0
    4.9182    0.7854   -6.4777 O   0  0  0  0  0  0  0  0  0  0  0  0
    3.9181   -1.2044   -6.1607 O   0  0  0  0  0  0  0  0  0  0  0  0
    4.5654    0.7698   -2.9637 C   0  0  1  0  0  0  0  0  0  0  0  0
    5.1292   -0.6276   -3.3605 C   0  0  1  0  0  0  0  0  0  0  0  0
    3.0168    0.8248   -2.9188 C   0  0  1  0  0  0  0  0  0  0  0  0
    5.8153   -0.6507   -4.7444 C   0  0  2  0  0  0  0  0  0  0  0  0
    2.4210    0.9780   -4.3176 C   0  0  0  0  0  0  0  0  0  0  0  0
    4.8132   -0.4168   -5.8660 C   0  0  0  0  0  0  0  0  0  0  0  0
    4.6216    0.7046   -0.9666 H   0  0  0  0  0  0  0  0  0  0  0  0
    5.6966   -1.0104   -1.5108 H   0  0  0  0  0  0  0  0  0  0  0  0
    3.0578   -0.7777   -1.7169 H   0  0  0  0  0  0  0  0  0  0  0  0
    6.8382   -2.1814   -4.1208 H   0  0  0  0  0  0  0  0  0  0  0  0
    0.7525    0.1347   -3.9336 H   0  0  0  0  0  0  0  0  0  0  0  0
    5.7392    1.2842   -6.3038 H   0  0  0  0  0  0  0  0  0  0  0  0
    4.9289    1.5360   -3.6590 H   0  0  0  0  0  0  0  0  0  0  0  0
    4.3460   -1.3911   -3.3508 H   0  0  0  0  0  0  0  0  0  0  0  0
    2.6848    1.6596   -2.2910 H   0  0  0  0  0  0  0  0  0  0  0  0
    6.6355    0.0704   -4.7888 H   0  0  0  0  0  0  0  0  0  0  0  0
    2.7985    1.8704   -4.8261 H   0  0  0  0  0  0  0  0  0  0  0  0
    2.6408    0.1018   -4.9102 H   0  0  0  0  0  0  0  0  0  0  0  0
  1 14  1  0  0  0  0
  2 15  1  0  0  0  0
  3 16  1  0  0  0  0
  4 17  1  0  0  0  0
  5 12  1  0  0  0  0
  5 18  1  0  0  0  0
  6 13  1  0  0  0  0
  6 19  1  0  0  0  0
  7 13  2  0  0  0  0
  8  1  1  0  0  0  0
  8 20  1  6  0  0  0
  9 11  1  0  0  0  0
  9 21  1  6  0  0  0
  9  8  1  0  0  0  0
  9  2  1  0  0  0  0
 10 12  1  0  0  0  0
 10 22  1  1  0  0  0
 10  8  1  0  0  0  0
 10  3  1  0  0  0  0
 11  4  1  0  0  0  0
 11 13  1  0  0  0  0
 11 23  1  6  0  0  0
 12 24  1  0  0  0  0
 12 25  1  0  0  0  0
M  END
>  <DRUGBANK_ID>
DB13180

>  <SECONDARY_ACCESSION_NUMBERS>
DB09408

>  <COMMON_NAME>
Gluconic Acid

>  <CAS_NUMBER>
526-95-4

>  <UNII>
R4R8J0Q44B

>  <SYNONYMS>
D-Gluconic Acid; Dextronic acid; Maltonic acid

$$$$
