
 OpenBabel10282417153D

 85 87  0  0  0  0  0  0  0  0999 V2000
    1.9693    3.2950    0.7648 C   0  0  0  0  0  0  0  0  0  0  0  0
    1.6899    6.0990    0.0170 C   0  0  0  0  0  0  0  0  0  0  0  0
    1.3092    5.2253   -2.4241 C   0  0  0  0  0  0  0  0  0  0  0  0
    1.2702    3.7788   -2.9363 C   0  0  0  0  0  0  0  0  0  0  0  0
    1.8756    4.2993    1.8780 C   0  0  0  0  0  0  0  0  0  0  0  0
    1.1010    7.2655   -0.2038 C   0  0  0  0  0  0  0  0  0  0  0  0
    2.2824    5.6410    1.3443 C   0  0  0  0  0  0  0  0  0  0  0  0
    1.1185    8.3026    0.7795 C   0  0  0  0  0  0  0  0  0  0  0  0
    2.1890    8.6380    1.5064 C   0  0  0  0  0  0  0  0  0  0  0  0
    3.5807    8.0953    1.5399 C   0  0  0  0  0  0  0  0  0  0  0  0
    1.9033    9.5806    2.5867 C   0  0  0  0  0  0  0  0  0  0  0  0
    4.2631    7.9435    0.3914 C   0  0  0  0  0  0  0  0  0  0  0  0
    2.3364    8.8920    3.8675 C   0  0  2  0  0  0  0  0  0  0  0  0
    3.8555    8.6800    3.9676 C   0  0  2  0  0  0  0  0  0  0  0  0
    1.4489    7.8827    4.3430 O   0  0  0  0  0  0  0  0  0  0  0  0
   -0.0623    1.0951   -0.3892 C   0  0  0  0  0  0  0  0  0  0  0  0
    0.5698    1.5686   -1.7068 C   0  0  2  0  0  0  0  0  0  0  0  0
    1.4170    0.3642   -2.1668 C   0  0  0  0  0  0  0  0  0  0  0  0
    0.5256   -0.8672   -2.3836 C   0  0  0  0  0  0  0  0  0  0  0  0
    0.7990   -1.4722   -5.2617 C   0  0  0  0  0  0  0  0  0  0  0  0
   -1.1981   -0.0183   -5.7666 C   0  0  0  0  0  0  0  0  0  0  0  0
   -0.6002   -0.5934   -3.3956 C   0  0  0  0  0  0  0  0  0  0  0  0
    1.4265    2.8499   -1.6808 C   0  0  2  0  0  0  0  0  0  0  0  0
    2.4886    2.5517   -1.6804 H   0  0  0  0  0  0  0  0  0  0  0  0
    1.8708    5.0537   -1.0213 C   0  0  2  0  0  0  0  0  0  0  0  0
    2.9569    4.9176   -1.1342 H   0  0  0  0  0  0  0  0  0  0  0  0
    1.1925    3.7802   -0.4875 C   0  0  2  0  0  0  0  0  0  0  0  0
   -0.3037    4.1340   -0.1971 C   0  0  0  0  0  0  0  0  0  0  0  0
   -0.0558   -0.2903   -4.8039 C   0  0  0  0  0  0  0  0  0  0  0  0
    0.7193    0.9083   -4.8115 O   0  0  0  0  0  0  0  0  0  0  0  0
    4.1455    7.6010    2.9293 C   0  0  2  0  0  0  0  0  0  0  0  0
    5.5272    7.2683    2.8387 O   0  0  0  0  0  0  0  0  0  0  0  0
    4.2386    8.4849    5.3389 O   0  0  0  0  0  0  0  0  0  0  0  0
    3.5373    9.3537    6.2733 C   0  0  0  0  0  0  0  0  0  0  0  0
    3.4306   10.9156    5.9666 C   0  0  0  0  0  0  0  0  0  0  0  0
    2.8275   11.5546    4.6768 C   0  0  0  0  0  0  0  0  0  0  0  0
    1.3930   11.5394    4.5700 O   0  0  0  0  0  0  0  0  0  0  0  0
    3.0312    3.1485    0.5125 H   0  0  0  0  0  0  0  0  0  0  0  0
    1.6245    2.3546    1.1757 H   0  0  0  0  0  0  0  0  0  0  0  0
    0.3006    5.6559   -2.4325 H   0  0  0  0  0  0  0  0  0  0  0  0
    1.9299    5.8847   -3.0407 H   0  0  0  0  0  0  0  0  0  0  0  0
    0.3402    3.6105   -3.4857 H   0  0  0  0  0  0  0  0  0  0  0  0
    2.1010    3.6224   -3.6356 H   0  0  0  0  0  0  0  0  0  0  0  0
    2.5399    4.0296    2.7080 H   0  0  0  0  0  0  0  0  0  0  0  0
    0.8635    4.3479    2.2913 H   0  0  0  0  0  0  0  0  0  0  0  0
    0.5936    7.5234   -1.1326 H   0  0  0  0  0  0  0  0  0  0  0  0
    3.3704    5.6105    1.2279 H   0  0  0  0  0  0  0  0  0  0  0  0
    1.9877    6.3038    2.1453 H   0  0  0  0  0  0  0  0  0  0  0  0
    0.1493    8.7827    0.9449 H   0  0  0  0  0  0  0  0  0  0  0  0
    0.8434    9.8486    2.6564 H   0  0  0  0  0  0  0  0  0  0  0  0
    2.4311   10.4969    2.3016 H   0  0  0  0  0  0  0  0  0  0  0  0
    3.8152    8.1978   -0.5632 H   0  0  0  0  0  0  0  0  0  0  0  0
    5.2108    7.4194    0.3767 H   0  0  0  0  0  0  0  0  0  0  0  0
    2.1383    9.5431    4.6541 H   0  0  0  0  0  0  0  0  0  0  0  0
    4.4790    9.5312    3.6669 H   0  0  0  0  0  0  0  0  0  0  0  0
    1.5023    7.0853    3.8053 H   0  0  0  0  0  0  0  0  0  0  0  0
    0.6966    0.9395    0.3723 H   0  0  0  0  0  0  0  0  0  0  0  0
   -0.8765    1.6955   -0.0304 H   0  0  0  0  0  0  0  0  0  0  0  0
   -0.5974    0.1554   -0.4687 H   0  0  0  0  0  0  0  0  0  0  0  0
   -0.2394    1.7839   -2.4094 H   0  0  0  0  0  0  0  0  0  0  0  0
    2.0049    0.5936   -3.0599 H   0  0  0  0  0  0  0  0  0  0  0  0
    2.1743    0.1346   -1.4070 H   0  0  0  0  0  0  0  0  0  0  0  0
    1.1379   -1.7243   -2.6650 H   0  0  0  0  0  0  0  0  0  0  0  0
    0.0845   -1.2180   -1.4472 H   0  0  0  0  0  0  0  0  0  0  0  0
    0.2032   -2.3909   -5.2651 H   0  0  0  0  0  0  0  0  0  0  0  0
    1.2222   -1.3033   -6.2523 H   0  0  0  0  0  0  0  0  0  0  0  0
    1.6625   -1.6319   -4.6066 H   0  0  0  0  0  0  0  0  0  0  0  0
   -1.7536    0.8754   -5.4557 H   0  0  0  0  0  0  0  0  0  0  0  0
   -0.8002    0.1981   -6.7639 H   0  0  0  0  0  0  0  0  0  0  0  0
   -1.8849   -0.8642   -5.8257 H   0  0  0  0  0  0  0  0  0  0  0  0
   -1.2647   -1.4648   -3.4193 H   0  0  0  0  0  0  0  0  0  0  0  0
   -1.2434    0.2276   -3.0536 H   0  0  0  0  0  0  0  0  0  0  0  0
   -0.8281    4.4717   -1.0941 H   0  0  0  0  0  0  0  0  0  0  0  0
   -0.9076    3.3534    0.2259 H   0  0  0  0  0  0  0  0  0  0  0  0
   -0.4151    4.9095    0.5641 H   0  0  0  0  0  0  0  0  0  0  0  0
    1.2238    0.9537   -5.6404 H   0  0  0  0  0  0  0  0  0  0  0  0
    3.6571    6.6865    3.2785 H   0  0  0  0  0  0  0  0  0  0  0  0
    5.9948    8.0593    2.5313 H   0  0  0  0  0  0  0  0  0  0  0  0
    2.5476    8.9103    6.4569 H   0  0  0  0  0  0  0  0  0  0  0  0
    4.0353    9.2297    7.2445 H   0  0  0  0  0  0  0  0  0  0  0  0
    2.8342   11.3328    6.7809 H   0  0  0  0  0  0  0  0  0  0  0  0
    4.4544   11.2948    6.0201 H   0  0  0  0  0  0  0  0  0  0  0  0
    3.0635   12.6109    4.5690 H   0  0  0  0  0  0  0  0  0  0  0  0
    3.3302   11.1554    3.7964 H   0  0  0  0  0  0  0  0  0  0  0  0
    0.9589   10.6778    4.7221 H   0  0  0  0  0  0  0  0  0  0  0  0
  1  5  1  0  0  0  0
  1 38  1  0  0  0  0
  1 39  1  0  0  0  0
  2  6  2  0  0  0  0
  2  7  1  0  0  0  0
  3  4  1  0  0  0  0
  3 40  1  0  0  0  0
  3 41  1  0  0  0  0
  4 42  1  0  0  0  0
  4 43  1  0  0  0  0
  5  7  1  0  0  0  0
  5 44  1  0  0  0  0
  5 45  1  0  0  0  0
  6  8  1  0  0  0  0
  6 46  1  0  0  0  0
  7 47  1  0  0  0  0
  7 48  1  0  0  0  0
  8  9  2  0  0  0  0
  8 49  1  0  0  0  0
  9 10  1  0  0  0  0
  9 11  1  0  0  0  0
 10 31  1  0  0  0  0
 10 12  2  0  0  0  0
 11 13  1  0  0  0  0
 11 50  1  0  0  0  0
 11 51  1  0  0  0  0
 12 52  1  0  0  0  0
 12 53  1  0  0  0  0
 13 15  1  0  0  0  0
 13 14  1  0  0  0  0
 13 54  1  1  0  0  0
 14 55  1  6  0  0  0
 14 33  1  0  0  0  0
 15 56  1  0  0  0  0
 16 57  1  0  0  0  0
 16 58  1  0  0  0  0
 16 59  1  0  0  0  0
 17 18  1  0  0  0  0
 17 60  1  6  0  0  0
 17 16  1  0  0  0  0
 18 19  1  0  0  0  0
 18 61  1  0  0  0  0
 18 62  1  0  0  0  0
 19 22  1  0  0  0  0
 19 63  1  0  0  0  0
 19 64  1  0  0  0  0
 20 65  1  0  0  0  0
 20 66  1  0  0  0  0
 20 67  1  0  0  0  0
 21 68  1  0  0  0  0
 21 69  1  0  0  0  0
 21 70  1  0  0  0  0
 22 29  1  0  0  0  0
 22 71  1  0  0  0  0
 22 72  1  0  0  0  0
 23  4  1  0  0  0  0
 23 17  1  0  0  0  0
 23 24  1  1  0  0  0
 25 27  1  0  0  0  0
 25  2  1  0  0  0  0
 25  3  1  0  0  0  0
 25 26  1  6  0  0  0
 27 23  1  0  0  0  0
 27  1  1  0  0  0  0
 27 28  1  1  0  0  0
 28 73  1  0  0  0  0
 28 74  1  0  0  0  0
 28 75  1  0  0  0  0
 29 20  1  0  0  0  0
 29 21  1  0  0  0  0
 29 30  1  0  0  0  0
 30 76  1  0  0  0  0
 31 14  1  0  0  0  0
 31 32  1  0  0  0  0
 31 77  1  1  0  0  0
 32 78  1  0  0  0  0
 33 34  1  0  0  0  0
 34 35  1  0  0  0  0
 34 79  1  0  0  0  0
 34 80  1  0  0  0  0
 35 36  1  0  0  0  0
 35 81  1  0  0  0  0
 35 82  1  0  0  0  0
 36 37  1  0  0  0  0
 36 83  1  0  0  0  0
 36 84  1  0  0  0  0
 37 85  1  0  0  0  0
M  END
>  <DRUGBANK_ID>
DB05295

>  <COMMON_NAME>
Eldecalcitol

>  <CAS_NUMBER>
104121-92-8

>  <UNII>
I2JP8UE90H

>  <SYNONYMS>
1α,25-dihydroxy-2β-(3-hydroxypropoxy)cholecalciferol; Eldecalcitol

$$$$
