
 OpenBabel10282417133D

 21 21  0  0  0  0  0  0  0  0999 V2000
    0.9545    0.0250    0.0161 C   0  0  0  0  0  0  0  0  0  0  0  0
    2.2993    0.2520    0.0242 O   0  0  0  0  0  0  0  0  0  0  0  0
    0.2622   -1.1918    0.0136 C   0  0  0  0  0  0  0  0  0  0  0  0
    0.2523    1.2249    0.0154 C   0  0  0  0  0  0  0  0  0  0  0  0
   -1.1337    1.2459    0.0016 C   0  0  0  0  0  0  0  0  0  0  0  0
   -1.1579   -1.1533   -0.0021 C   0  0  0  0  0  0  0  0  0  0  0  0
   -1.8731    0.0632   -0.0127 C   0  0  0  0  0  0  0  0  0  0  0  0
    0.7637   -2.4690    0.0297 O   0  0  0  0  0  0  0  0  0  0  0  0
   -3.3500    0.0984   -0.0395 C   0  0  0  0  0  0  0  0  0  0  0  0
    2.1686   -2.6568    0.0616 C   0  0  0  0  0  0  0  0  0  0  0  0
   -4.0900    1.2241   -0.0564 C   0  0  0  0  0  0  0  0  0  0  0  0
    2.8144   -0.5523   -0.0561 H   0  0  0  0  0  0  0  0  0  0  0  0
    0.7977    2.1641    0.0241 H   0  0  0  0  0  0  0  0  0  0  0  0
   -1.6063    2.2207    0.0011 H   0  0  0  0  0  0  0  0  0  0  0  0
   -1.7046   -2.0970   -0.0046 H   0  0  0  0  0  0  0  0  0  0  0  0
   -3.8679   -0.8567   -0.0497 H   0  0  0  0  0  0  0  0  0  0  0  0
    2.6265   -2.2730   -0.8571 H   0  0  0  0  0  0  0  0  0  0  0  0
    2.6015   -2.2088    0.9635 H   0  0  0  0  0  0  0  0  0  0  0  0
    2.3957   -3.7255    0.0997 H   0  0  0  0  0  0  0  0  0  0  0  0
   -5.1726    1.1879   -0.0784 H   0  0  0  0  0  0  0  0  0  0  0  0
   -3.6619    2.2193   -0.0502 H   0  0  0  0  0  0  0  0  0  0  0  0
  2  1  1  0  0  0  0
  2 12  1  0  0  0  0
  3  1  2  0  0  0  0
  4  1  1  0  0  0  0
  4 13  1  0  0  0  0
  5  4  2  0  0  0  0
  5 14  1  0  0  0  0
  6  3  1  0  0  0  0
  6 15  1  0  0  0  0
  7  5  1  0  0  0  0
  7  6  2  0  0  0  0
  8  3  1  0  0  0  0
  8 10  1  0  0  0  0
  9  7  1  0  0  0  0
  9 11  2  0  0  0  0
  9 16  1  0  0  0  0
 10 17  1  0  0  0  0
 10 18  1  0  0  0  0
 10 19  1  0  0  0  0
 11 20  1  0  0  0  0
 11 21  1  0  0  0  0
M  END
>  <DRUGBANK_ID>
DB03514

>  <SECONDARY_ACCESSION_NUMBERS>
EXPT01375

>  <COMMON_NAME>
4-Vinylguaiacol

>  <CAS_NUMBER>
7786-61-0

>  <UNII>
DA069CTH0O

>  <SYNONYMS>
2-(4-hydroxy-3-methoxyphenyl)ethene; 2-methoxy-4-vinylphenol; 2M4VP; 4-ethenyl-2-methoxyphenol; 4-hydroxy-3-methoxyphenylethene; 4-hydroxy-3-methoxystyrene; 4-hydroxy-3-methoxyvinylbenzene; 4-vinyl-2-methoxyphenol; 4-vinylguaiacol; o-methoxy-p-vinylphenol; p-vinylguaiacol; para-vinylguaiacol

$$$$
