
 OpenBabel10282417123D

 15 14  0  0  0  0  0  0  0  0999 V2000
    0.9422    0.0565    0.0978 C   0  0  0  0  0  0  0  0  0  0  0  0
    0.4533    0.2838    1.5018 C   0  0  0  0  0  0  0  0  0  0  0  0
   -0.2510    1.2459    1.7993 O   0  0  0  0  0  0  0  0  0  0  0  0
    0.7801   -0.6375    2.4550 N   0  0  0  0  0  0  0  0  0  0  0  0
    1.6528   -1.7930    2.3117 C   0  0  0  0  0  0  0  0  0  0  0  0
    2.9352   -1.6584    3.1281 C   0  0  0  0  0  0  0  0  0  0  0  0
    3.1746   -2.6817    3.9808 O   0  0  0  0  0  0  0  0  0  0  0  0
    3.7029   -0.7085    3.0359 O   0  0  0  0  0  0  0  0  0  0  0  0
    0.5696    0.8501   -0.5562 H   0  0  0  0  0  0  0  0  0  0  0  0
    0.5676   -0.9000   -0.2771 H   0  0  0  0  0  0  0  0  0  0  0  0
    2.0349    0.0746    0.0745 H   0  0  0  0  0  0  0  0  0  0  0  0
    0.4602   -0.3767    3.3821 H   0  0  0  0  0  0  0  0  0  0  0  0
    1.0786   -2.6693    2.6237 H   0  0  0  0  0  0  0  0  0  0  0  0
    1.9473   -1.9377    1.2700 H   0  0  0  0  0  0  0  0  0  0  0  0
    2.5026   -3.3879    4.0216 H   0  0  0  0  0  0  0  0  0  0  0  0
  1  2  1  0  0  0  0
  1  9  1  0  0  0  0
  1 10  1  0  0  0  0
  1 11  1  0  0  0  0
  2  3  2  0  0  0  0
  2  4  1  0  0  0  0
  4  5  1  0  0  0  0
  4 12  1  0  0  0  0
  5  6  1  0  0  0  0
  5 13  1  0  0  0  0
  5 14  1  0  0  0  0
  6  7  1  0  0  0  0
  6  8  2  0  0  0  0
  7 15  1  0  0  0  0
M  END
>  <DRUGBANK_ID>
DB02713

>  <SECONDARY_ACCESSION_NUMBERS>
EXPT00379

>  <COMMON_NAME>
Acetylamino-Acetic Acid

>  <CAS_NUMBER>
543-24-8

>  <UNII>
U2UT4677KR

$$$$
