
 OpenBabel10282417243D

 41 43  0  0  0  0  0  0  0  0999 V2000
    0.8236    0.1523    0.1979 C   0  0  0  0  0  0  0  0  0  0  0  0
    0.5223    0.2106   -1.2863 C   0  0  0  0  0  0  0  0  0  0  0  0
    0.9756   -0.9554   -1.9881 O   0  0  0  0  0  0  0  0  0  0  0  0
    2.3137   -1.0566   -2.2548 C   0  0  0  0  0  0  0  0  0  0  0  0
    3.2165   -1.1357   -1.1923 C   0  0  0  0  0  0  0  0  0  0  0  0
    4.5669   -1.3603   -1.4027 C   0  0  0  0  0  0  0  0  0  0  0  0
    5.0284   -1.6522   -2.6631 C   0  0  0  0  0  0  0  0  0  0  0  0
    4.1447   -1.5790   -3.7465 C   0  0  0  0  0  0  0  0  0  0  0  0
    2.7801   -1.2877   -3.5578 C   0  0  0  0  0  0  0  0  0  0  0  0
    2.0471   -1.3034   -4.7180 O   0  0  0  0  0  0  0  0  0  0  0  0
    0.6428   -1.1012   -4.6056 C   0  0  0  0  0  0  0  0  0  0  0  0
    6.3727   -1.9357   -2.8652 N   0  0  0  0  0  0  0  0  0  0  0  0
    7.1627   -1.7675   -1.8558 C   0  0  0  0  0  0  0  0  0  0  0  0
    6.8309   -1.4541   -0.5870 O   0  0  0  0  0  0  0  0  0  0  0  0
    5.5217   -1.2703   -0.2862 C   0  0  0  0  0  0  0  0  0  0  0  0
    5.1472   -0.9838    0.8384 O   0  0  0  0  0  0  0  0  0  0  0  0
    8.6122   -1.8250   -1.9991 C   0  0  0  0  0  0  0  0  0  0  0  0
    9.2585   -2.9027   -1.3705 C   0  0  0  0  0  0  0  0  0  0  0  0
   10.5931   -3.1726   -1.6542 C   0  0  0  0  0  0  0  0  0  0  0  0
   11.2676   -2.3884   -2.5840 C   0  0  0  0  0  0  0  0  0  0  0  0
   10.6180   -1.3115   -3.2012 C   0  0  0  0  0  0  0  0  0  0  0  0
    9.2948   -0.9606   -2.8717 C   0  0  0  0  0  0  0  0  0  0  0  0
    8.7446    0.6034   -3.5921 S   0  0  0  0  0  0  0  0  0  0  0  0
    7.1308    0.9855   -2.8489 C   0  0  0  0  0  0  0  0  0  0  0  0
    0.6155   -0.8517    0.5850 H   0  0  0  0  0  0  0  0  0  0  0  0
    0.2670    0.8962    0.7664 H   0  0  0  0  0  0  0  0  0  0  0  0
    1.8728    0.3882    0.3827 H   0  0  0  0  0  0  0  0  0  0  0  0
   -0.5693    0.2144   -1.4016 H   0  0  0  0  0  0  0  0  0  0  0  0
    0.8894    1.1329   -1.7521 H   0  0  0  0  0  0  0  0  0  0  0  0
    2.8945   -1.1065   -0.1637 H   0  0  0  0  0  0  0  0  0  0  0  0
    4.5309   -1.7505   -4.7499 H   0  0  0  0  0  0  0  0  0  0  0  0
    0.1772   -1.8875   -4.0014 H   0  0  0  0  0  0  0  0  0  0  0  0
    0.4255   -0.0998   -4.2196 H   0  0  0  0  0  0  0  0  0  0  0  0
    0.1970   -1.1645   -5.6020 H   0  0  0  0  0  0  0  0  0  0  0  0
    8.7138   -3.5480   -0.6851 H   0  0  0  0  0  0  0  0  0  0  0  0
   11.0924   -4.0159   -1.1836 H   0  0  0  0  0  0  0  0  0  0  0  0
   12.3056   -2.6057   -2.8264 H   0  0  0  0  0  0  0  0  0  0  0  0
   11.1645   -0.7480   -3.9571 H   0  0  0  0  0  0  0  0  0  0  0  0
    6.3867    0.3359   -3.2917 H   0  0  0  0  0  0  0  0  0  0  0  0
    7.1327    0.9137   -1.7573 H   0  0  0  0  0  0  0  0  0  0  0  0
    6.7936    1.9884   -3.1196 H   0  0  0  0  0  0  0  0  0  0  0  0
  1  2  1  0  0  0  0
  1 25  1  0  0  0  0
  1 26  1  0  0  0  0
  1 27  1  0  0  0  0
  2  3  1  0  0  0  0
  2 28  1  0  0  0  0
  2 29  1  0  0  0  0
  3  4  1  0  0  0  0
  4  5  1  0  0  0  0
  4  9  2  0  0  0  0
  5  6  2  0  0  0  0
  5 30  1  0  0  0  0
  6  7  1  0  0  0  0
  6 15  1  0  0  0  0
  7  8  2  0  0  0  0
  7 12  1  0  0  0  0
  8  9  1  0  0  0  0
  8 31  1  0  0  0  0
  9 10  1  0  0  0  0
 10 11  1  0  0  0  0
 11 32  1  0  0  0  0
 11 33  1  0  0  0  0
 11 34  1  0  0  0  0
 12 13  2  0  0  0  0
 13 14  1  0  0  0  0
 13 17  1  0  0  0  0
 14 15  1  0  0  0  0
 15 16  2  0  0  0  0
 17 18  2  0  0  0  0
 17 22  1  0  0  0  0
 18 19  1  0  0  0  0
 18 35  1  0  0  0  0
 19 20  2  0  0  0  0
 19 36  1  0  0  0  0
 20 21  1  0  0  0  0
 20 37  1  0  0  0  0
 21 22  2  0  0  0  0
 21 38  1  0  0  0  0
 22 23  1  0  0  0  0
 23 24  1  0  0  0  0
 24 39  1  0  0  0  0
 24 40  1  0  0  0  0
 24 41  1  0  0  0  0
M  END
>  <DRUGBANK_ID>
DB18119

>  <COMMON_NAME>
SXR-1096

>  <CAS_NUMBER>
1087624-28-9

>  <UNII>
BDQ30W2KTS

>  <SYNONYMS>
4h-3,1-benzoxazin-4-one, 6-ethoxy-7-methoxy-2-(2-(methylthio)phenyl)-; 6-ethoxy-7-methoxy-2-(2-methylsulfanylphenyl)-3,1-bensoxazin-4-one

$$$$
