BAF
 OpenBabel10282417163D

 39 38  0  0  0  0  0  0  0  0999 V2000
   -2.7051    3.9778    3.3796 N   0  0  0  0  0  0  0  0  0  0  0  0
   -2.6944    5.1673    2.7015 C   0  0  0  0  0  0  0  0  0  0  0  0
   -1.8877    5.4851    1.8398 O   0  0  0  0  0  0  0  0  0  0  0  0
   -1.6661    3.0019    3.2036 C   0  0  2  0  0  0  0  0  0  0  0  0
   -0.2799    3.6027    3.4499 C   0  0  0  0  0  0  0  0  0  0  0  0
   -1.7931    2.3843    1.9068 N   0  0  0  0  0  0  0  0  0  0  0  0
   -1.9112    1.0554    1.5925 C   0  0  0  0  0  0  0  0  0  0  0  0
   -2.0203    0.7176    0.4126 O   0  0  0  0  0  0  0  0  0  0  0  0
   -1.8279    0.0258    2.7391 C   0  0  2  0  0  0  0  0  0  0  0  0
   -0.3767   -0.1225    3.1779 C   0  0  0  0  0  0  0  0  0  0  0  0
   -2.3446   -1.2731    2.3487 N   0  0  0  0  0  0  0  0  0  0  0  0
   -3.4125   -1.9334    2.8708 C   0  0  0  0  0  0  0  0  0  0  0  0
   -3.7384   -3.0218    2.4097 O   0  0  0  0  0  0  0  0  0  0  0  0
   -4.0230   -1.2953    3.9107 O   0  0  0  0  0  0  0  0  0  0  0  0
   -5.1646   -1.9305    4.5578 C   0  0  0  0  0  0  0  0  0  0  0  0
   -6.3244   -2.1213    3.5725 C   0  0  0  0  0  0  0  0  0  0  0  0
   -4.7534   -3.2541    5.2141 C   0  0  0  0  0  0  0  0  0  0  0  0
   -5.6566   -0.9899    5.6772 C   0  0  0  0  0  0  0  0  0  0  0  0
   -1.8325    2.2574    3.9849 H   0  0  0  0  0  0  0  0  0  0  0  0
   -2.4419    0.3891    3.5637 H   0  0  0  0  0  0  0  0  0  0  0  0
   -3.4904    3.7568    3.9784 H   0  0  0  0  0  0  0  0  0  0  0  0
   -3.5118    5.8334    3.0116 H   0  0  0  0  0  0  0  0  0  0  0  0
    0.5209    2.8766    3.3038 H   0  0  0  0  0  0  0  0  0  0  0  0
   -0.0496    4.4366    2.7824 H   0  0  0  0  0  0  0  0  0  0  0  0
   -0.2231    3.9859    4.4748 H   0  0  0  0  0  0  0  0  0  0  0  0
   -1.8337    3.0181    1.1154 H   0  0  0  0  0  0  0  0  0  0  0  0
    0.2260   -0.6113    2.4038 H   0  0  0  0  0  0  0  0  0  0  0  0
    0.0922    0.8393    3.3785 H   0  0  0  0  0  0  0  0  0  0  0  0
   -0.3089   -0.7193    4.0914 H   0  0  0  0  0  0  0  0  0  0  0  0
   -1.9600   -1.7072    1.5176 H   0  0  0  0  0  0  0  0  0  0  0  0
   -6.0581   -2.7753    2.7393 H   0  0  0  0  0  0  0  0  0  0  0  0
   -7.1949   -2.5641    4.0677 H   0  0  0  0  0  0  0  0  0  0  0  0
   -6.6224   -1.1620    3.1345 H   0  0  0  0  0  0  0  0  0  0  0  0
   -3.9436   -3.0934    5.9347 H   0  0  0  0  0  0  0  0  0  0  0  0
   -5.5979   -3.7160    5.7361 H   0  0  0  0  0  0  0  0  0  0  0  0
   -4.3837   -3.9799    4.4862 H   0  0  0  0  0  0  0  0  0  0  0  0
   -4.8719   -0.7995    6.4179 H   0  0  0  0  0  0  0  0  0  0  0  0
   -5.9602   -0.0148    5.2802 H   0  0  0  0  0  0  0  0  0  0  0  0
   -6.5180   -1.4217    6.2034 H   0  0  0  0  0  0  0  0  0  0  0  0
  1  2  1  0  0  0  0
  1 21  1  0  0  0  0
  2  3  2  0  0  0  0
  2 22  1  0  0  0  0
  4  6  1  0  0  0  0
  4 19  1  1  0  0  0
  4  5  1  0  0  0  0
  4  1  1  0  0  0  0
  5 23  1  0  0  0  0
  5 24  1  0  0  0  0
  5 25  1  0  0  0  0
  6  7  1  0  0  0  0
  6 26  1  0  0  0  0
  7  8  2  0  0  0  0
  9 11  1  0  0  0  0
  9 20  1  1  0  0  0
  9 10  1  0  0  0  0
  9  7  1  0  0  0  0
 10 27  1  0  0  0  0
 10 28  1  0  0  0  0
 10 29  1  0  0  0  0
 11 12  1  0  0  0  0
 11 30  1  0  0  0  0
 12 13  2  0  0  0  0
 12 14  1  0  0  0  0
 14 15  1  0  0  0  0
 15 16  1  0  0  0  0
 15 17  1  0  0  0  0
 15 18  1  0  0  0  0
 16 31  1  0  0  0  0
 16 32  1  0  0  0  0
 16 33  1  0  0  0  0
 17 34  1  0  0  0  0
 17 35  1  0  0  0  0
 17 36  1  0  0  0  0
 18 37  1  0  0  0  0
 18 38  1  0  0  0  0
 18 39  1  0  0  0  0
M  END
>  <DRUGBANK_ID>
DB07433

>  <COMMON_NAME>
(TERT-BUTYLOXYCARBONYL)-ALANYL-AMINO ETHYL-FORMAMIDE

$$$$
