GW9
 OpenBabel10282417163D

 28 29  0  0  0  0  0  0  0  0999 V2000
   -1.3713    0.4063    1.6766 Cl  0  0  0  0  0  0  0  0  0  0  0  0
   -0.2067    0.1283    0.4134 C   0  0  0  0  0  0  0  0  0  0  0  0
    0.4732    1.2928    0.0596 C   0  0  0  0  0  0  0  0  0  0  0  0
    1.8426    1.2294   -0.0955 C   0  0  0  0  0  0  0  0  0  0  0  0
    2.4711   -0.0195   -0.0489 C   0  0  0  0  0  0  0  0  0  0  0  0
    3.9360   -0.0548    0.0166 N   0  3  0  0  0  0  0  0  0  0  0  0
    4.4864   -1.1606    0.0575 O   0  5  0  0  0  0  0  0  0  0  0  0
    4.5309    1.0332    0.0532 O   0  0  0  0  0  0  0  0  0  0  0  0
    1.7144   -1.2097   -0.0223 C   0  0  0  0  0  0  0  0  0  0  0  0
    0.3171   -1.1423    0.1402 C   0  0  0  0  0  0  0  0  0  0  0  0
   -0.4852   -2.4226    0.0091 C   0  0  0  0  0  0  0  0  0  0  0  0
    0.1189   -3.4881   -0.0024 O   0  0  0  0  0  0  0  0  0  0  0  0
   -1.8752   -2.4571   -0.1023 N   0  0  0  0  0  0  0  0  0  0  0  0
   -2.7727   -1.4059   -0.3434 C   0  0  0  0  0  0  0  0  0  0  0  0
   -2.4670   -0.4145   -1.2793 C   0  0  0  0  0  0  0  0  0  0  0  0
   -3.1484    0.8018   -1.2552 C   0  0  0  0  0  0  0  0  0  0  0  0
   -4.2215    0.9813   -0.3852 C   0  0  0  0  0  0  0  0  0  0  0  0
   -4.6244   -0.0623    0.4510 C   0  0  0  0  0  0  0  0  0  0  0  0
   -3.8866   -1.2530    0.4932 C   0  0  0  0  0  0  0  0  0  0  0  0
   -0.0336    2.2545    0.0845 H   0  0  0  0  0  0  0  0  0  0  0  0
    2.4002    2.1625   -0.1356 H   0  0  0  0  0  0  0  0  0  0  0  0
    2.2097   -2.1802   -0.0693 H   0  0  0  0  0  0  0  0  0  0  0  0
   -2.2726   -3.3762    0.0695 H   0  0  0  0  0  0  0  0  0  0  0  0
   -1.6068   -0.5270   -1.9331 H   0  0  0  0  0  0  0  0  0  0  0  0
   -2.7805    1.6327   -1.8508 H   0  0  0  0  0  0  0  0  0  0  0  0
   -4.7056    1.9527   -0.3175 H   0  0  0  0  0  0  0  0  0  0  0  0
   -5.4529    0.0938    1.1384 H   0  0  0  0  0  0  0  0  0  0  0  0
   -4.0830   -1.9550    1.3018 H   0  0  0  0  0  0  0  0  0  0  0  0
  1  2  1  0  0  0  0
  2  3  2  0  0  0  0
  2 10  1  0  0  0  0
  3  4  1  0  0  0  0
  3 20  1  0  0  0  0
  4  5  2  0  0  0  0
  4 21  1  0  0  0  0
  5  6  1  0  0  0  0
  5  9  1  0  0  0  0
  6  7  1  0  0  0  0
  6  8  2  0  0  0  0
  9 10  2  0  0  0  0
  9 22  1  0  0  0  0
 10 11  1  0  0  0  0
 11 12  2  0  0  0  0
 11 13  1  0  0  0  0
 13 14  1  0  0  0  0
 13 23  1  0  0  0  0
 14 15  2  0  0  0  0
 14 19  1  0  0  0  0
 15 16  1  0  0  0  0
 15 24  1  0  0  0  0
 16 17  2  0  0  0  0
 16 25  1  0  0  0  0
 17 18  1  0  0  0  0
 17 26  1  0  0  0  0
 18 19  2  0  0  0  0
 18 27  1  0  0  0  0
 19 28  1  0  0  0  0
M  CHG  2   6   1   7  -1
M  END
>  <DRUGBANK_ID>
DB07863

>  <COMMON_NAME>
2-chloro-5-nitro-N-phenylbenzamide

>  <UNII>
UM18UZV2YD

$$$$
