853
 OpenBabel10282417113D

 20 21  0  0  0  0  0  0  0  0999 V2000
   -1.0446   -2.0412   -0.0018 O   0  0  0  0  0  0  0  0  0  0  0  0
    4.4149    1.9757   -0.0067 O   0  0  0  0  0  0  0  0  0  0  0  0
    0.5403   -0.4290   -0.0019 N   0  0  0  0  0  0  0  0  0  0  0  0
   -1.6381    0.2337   -0.0004 N   0  0  0  0  0  0  0  0  0  0  0  0
    2.7573   -0.4221   -0.0010 N   0  0  0  0  0  0  0  0  0  0  0  0
   -0.0350    1.8501   -0.0012 N   0  0  0  0  0  0  0  0  0  0  0  0
   -1.2498    1.5516   -0.0018 N   0  0  0  0  0  0  0  0  0  0  0  0
    2.5984    3.2910    0.0077 N   0  0  0  0  0  0  0  0  0  0  0  0
    0.9102    0.8873    0.0005 C   0  0  0  0  0  0  0  0  0  0  0  0
    2.2961    0.8905    0.0015 C   0  0  0  0  0  0  0  0  0  0  0  0
   -0.7760   -0.8498   -0.0020 C   0  0  0  0  0  0  0  0  0  0  0  0
    1.6829   -1.1804   -0.0051 C   0  0  0  0  0  0  0  0  0  0  0  0
   -3.0649   -0.0040    0.0138 C   0  0  0  0  0  0  0  0  0  0  0  0
    3.1899    2.0538    0.0008 C   0  0  0  0  0  0  0  0  0  0  0  0
    1.5985    3.4336    0.0133 H   0  0  0  0  0  0  0  0  0  0  0  0
    3.2091    4.0967    0.0050 H   0  0  0  0  0  0  0  0  0  0  0  0
    1.6684   -2.2641   -0.0117 H   0  0  0  0  0  0  0  0  0  0  0  0
   -3.3397   -0.5921   -0.8666 H   0  0  0  0  0  0  0  0  0  0  0  0
   -3.3228   -0.5709    0.9131 H   0  0  0  0  0  0  0  0  0  0  0  0
   -3.6122    0.9435    0.0081 H   0  0  0  0  0  0  0  0  0  0  0  0
  1 11  2  0  0  0  0
  2 14  2  0  0  0  0
  3  9  1  0  0  0  0
  3 11  1  0  0  0  0
  3 12  1  0  0  0  0
  4  7  1  0  0  0  0
  4 11  1  0  0  0  0
  4 13  1  0  0  0  0
  5 10  1  0  0  0  0
  5 12  2  0  0  0  0
  6  7  2  0  0  0  0
  6  9  1  0  0  0  0
  8 14  1  0  0  0  0
  8 15  1  0  0  0  0
  8 16  1  0  0  0  0
  9 10  2  0  0  0  0
 10 14  1  0  0  0  0
 12 17  1  0  0  0  0
 13 18  1  0  0  0  0
 13 19  1  0  0  0  0
 13 20  1  0  0  0  0
M  END
>  <DRUGBANK_ID>
DB00853

>  <SECONDARY_ACCESSION_NUMBERS>
APRD00557

>  <COMMON_NAME>
Temozolomide

>  <CAS_NUMBER>
85622-93-1

>  <UNII>
YF1K15M17Y

>  <SYNONYMS>
(S)-perillyl alcohol temozolomide; 3-methyl-4-oxo-3,4-dihydroimidazo(5,1-d)(1,2,3,5)tetrazine-8-carboxamide; 3,4-dihydro-3-methyl-4-oxoimidazo(5,1-d)-1,2,3,5-tetrazine-8-carboxamide; 3,4-dihydro-3-methyl-4-oxoimidazo(5,1-d)-as-tetrazine-8-carboxamide; 8-carbamoyl-3-methylimidazo(5,1-d)-1,2,3,5-tetrazin-4(3H)-one; Methazolastone; Temozolodida; Temozolomid; Temozolomida; Temozolomide; TÃ©mozolomide; Temozolomidum; TMZ

$$$$
