
 OpenBabel10282417243D

 70 73  0  0  0  0  0  0  0  0999 V2000
    1.5734   -0.3787   -0.4994 O   0  0  0  0  0  0  0  0  0  0  0  0
    2.7213   -0.1595   -0.3046 C   0  0  0  0  0  0  0  0  0  0  0  0
    3.5062   -0.5150   -1.3103 O   0  0  0  0  0  0  0  0  0  0  0  0
    3.3415    0.5197    0.9407 C   0  0  0  0  0  0  0  0  0  0  0  0
    3.1670    2.1289    1.2825 C   0  0  0  0  0  0  0  0  0  0  0  0
    1.8143    2.6027    1.6191 C   0  0  3  0  0  0  0  0  0  0  0  0
    1.4689    1.5431    2.4013 C   0  0  0  0  0  0  0  0  0  0  0  0
    0.8926    3.8836    1.9083 C   0  0  3  0  0  0  0  0  0  0  0  0
    0.2959    4.2798    3.2693 C   0  0  0  0  0  0  0  0  0  0  0  0
    1.0671    3.3777    4.1534 C   0  0  0  0  0  0  0  0  0  0  0  0
   -0.2734    2.4196    3.5648 C   0  0  3  0  0  0  0  0  0  0  0  0
   -0.0899    0.6498    3.6145 C   0  0  3  0  0  0  0  0  0  0  0  0
    0.2407   -0.3249    5.0121 C   0  0  3  0  0  0  0  0  0  0  0  0
    0.4761    0.0314    6.4348 O   0  0  0  0  0  0  0  0  0  0  0  0
    1.3546   -1.2353    4.4741 C   0  0  3  0  0  0  0  0  0  0  0  0
    2.6848   -0.7548    4.3146 O   0  0  0  0  0  0  0  0  0  0  0  0
    0.8298   -1.7415    2.9366 C   0  0  3  0  0  0  0  0  0  0  0  0
   -0.4492   -2.4257    3.1116 C   0  0  0  0  0  0  0  0  0  0  0  0
   -1.0369   -3.5922    2.3952 C   0  0  3  0  0  0  0  0  0  0  0  0
   -0.3808   -4.6884    3.0082 O   0  0  0  0  0  0  0  0  0  0  0  0
   -0.5903   -3.6239    0.8725 C   0  0  0  0  0  0  0  0  0  0  0  0
    0.2816   -2.4361    0.5443 C   0  0  0  0  0  0  0  0  0  0  0  0
   -0.0324   -1.1328    1.2721 C   0  0  3  0  0  0  0  0  0  0  0  0
   -0.6935   -1.2869   -0.6733 C   0  0  0  0  0  0  0  0  0  0  0  0
   -0.3299    0.1654    1.5974 C   0  0  3  0  0  0  0  0  0  0  0  0
   -0.8854    1.2051    0.3089 C   0  0  0  0  0  0  0  0  0  0  0  0
   -0.1394    2.5029    0.0193 C   0  0  3  0  0  0  0  0  0  0  0  0
    1.1689    2.5082   -0.7114 O   0  0  0  0  0  0  0  0  0  0  0  0
   -0.4403    3.2045    1.7163 C   0  0  3  0  0  0  0  0  0  0  0  0
   -1.6045    3.9947    0.7807 C   0  0  0  0  0  0  0  0  0  0  0  0
    4.4382   -0.5235   -1.1035 H   0  0  0  0  0  0  0  0  0  0  0  0
    3.0962   -0.1549    1.7701 H   0  0  0  0  0  0  0  0  0  0  0  0
    4.4006    0.3773    0.9137 H   0  0  0  0  0  0  0  0  0  0  0  0
    3.6802    2.3513    2.2141 H   0  0  0  0  0  0  0  0  0  0  0  0
    3.4241    2.6878    0.4129 H   0  0  0  0  0  0  0  0  0  0  0  0
    1.3030    2.0195    0.9627 H   0  0  0  0  0  0  0  0  0  0  0  0
    2.0002    1.6695    3.2759 H   0  0  0  0  0  0  0  0  0  0  0  0
    0.3933    1.6574    2.2239 H   0  0  0  0  0  0  0  0  0  0  0  0
    1.6572    0.4964    2.2661 H   0  0  0  0  0  0  0  0  0  0  0  0
    1.3079    4.7329    1.4067 H   0  0  0  0  0  0  0  0  0  0  0  0
    0.1282    5.2960    3.5442 H   0  0  0  0  0  0  0  0  0  0  0  0
   -0.8983    4.1090    3.4053 H   0  0  0  0  0  0  0  0  0  0  0  0
    2.1320    3.1385    3.9040 H   0  0  0  0  0  0  0  0  0  0  0  0
    1.3014    4.0711    4.9722 H   0  0  0  0  0  0  0  0  0  0  0  0
   -0.6085    2.5467    4.6734 H   0  0  0  0  0  0  0  0  0  0  0  0
    0.9975    0.7610    4.0359 H   0  0  0  0  0  0  0  0  0  0  0  0
   -0.7781   -0.6039    5.1233 H   0  0  0  0  0  0  0  0  0  0  0  0
    0.9913   -0.6103    7.0052 H   0  0  0  0  0  0  0  0  0  0  0  0
    1.6018   -2.0193    5.2670 H   0  0  0  0  0  0  0  0  0  0  0  0
    2.6485   -0.4789    3.4015 H   0  0  0  0  0  0  0  0  0  0  0  0
    0.8504   -2.5724    3.7565 H   0  0  0  0  0  0  0  0  0  0  0  0
   -1.0944   -1.5343    3.1156 H   0  0  0  0  0  0  0  0  0  0  0  0
    0.3479   -2.8609    2.4528 H   0  0  0  0  0  0  0  0  0  0  0  0
   -2.0912   -3.4191    2.6029 H   0  0  0  0  0  0  0  0  0  0  0  0
    0.5561   -4.6354    2.7090 H   0  0  0  0  0  0  0  0  0  0  0  0
    0.0275   -4.4297    0.5276 H   0  0  0  0  0  0  0  0  0  0  0  0
   -1.5319   -3.4836    0.3168 H   0  0  0  0  0  0  0  0  0  0  0  0
   -0.6734   -2.1403    1.0240 H   0  0  0  0  0  0  0  0  0  0  0  0
    1.3512   -2.4574    0.7821 H   0  0  0  0  0  0  0  0  0  0  0  0
   -1.4753   -0.6259   -1.1052 H   0  0  0  0  0  0  0  0  0  0  0  0
    0.0388   -1.2790   -1.5370 H   0  0  0  0  0  0  0  0  0  0  0  0
   -1.2389   -2.2178   -1.0093 H   0  0  0  0  0  0  0  0  0  0  0  0
    0.6035    0.3399    1.0640 H   0  0  0  0  0  0  0  0  0  0  0  0
   -1.1208    0.9429   -0.7426 H   0  0  0  0  0  0  0  0  0  0  0  0
   -1.8777    1.3242    0.6796 H   0  0  0  0  0  0  0  0  0  0  0  0
   -0.5165    3.0776   -0.8531 H   0  0  0  0  0  0  0  0  0  0  0  0
    1.6203    1.6614   -0.5527 H   0  0  0  0  0  0  0  0  0  0  0  0
   -1.1304    4.5407   -0.0969 H   0  0  0  0  0  0  0  0  0  0  0  0
   -2.2349    3.2766    0.1787 H   0  0  0  0  0  0  0  0  0  0  0  0
   -2.2435    4.7625    1.1642 H   0  0  0  0  0  0  0  0  0  0  0  0
  1  2  2  0  0  0  0
  2  3  1  0  0  0  0
  2  4  1  0  0  0  0
  3 31  1  0  0  0  0
  4  5  1  0  0  0  0
  4 32  1  0  0  0  0
  4 33  1  0  0  0  0
  5  6  1  0  0  0  0
  5 34  1  0  0  0  0
  5 35  1  0  0  0  0
  6  7  1  0  0  0  0
  6  8  1  0  0  0  0
  6 36  1  0  0  0  0
  7 37  1  0  0  0  0
  7 38  1  0  0  0  0
  7 39  1  0  0  0  0
  8  9  1  0  0  0  0
  8 29  1  0  0  0  0
  8 40  1  0  0  0  0
  9 10  1  0  0  0  0
  9 41  1  0  0  0  0
  9 42  1  0  0  0  0
 10 11  1  0  0  0  0
 10 43  1  0  0  0  0
 10 44  1  0  0  0  0
 11 12  1  0  0  0  0
 11 29  1  0  0  0  0
 11 45  1  0  0  0  0
 12 13  1  0  0  0  0
 12 25  1  0  0  0  0
 12 46  1  0  0  0  0
 13 14  1  0  0  0  0
 13 15  1  0  0  0  0
 13 47  1  0  0  0  0
 14 48  1  0  0  0  0
 15 16  1  0  0  0  0
 15 17  1  0  0  0  0
 15 49  1  0  0  0  0
 16 50  1  0  0  0  0
 17 18  1  0  0  0  0
 17 23  1  0  0  0  0
 17 51  1  0  0  0  0
 18 19  1  0  0  0  0
 18 52  1  0  0  0  0
 18 53  1  0  0  0  0
 19 20  1  0  0  0  0
 19 21  1  0  0  0  0
 19 54  1  0  0  0  0
 20 55  1  0  0  0  0
 21 22  1  0  0  0  0
 21 56  1  0  0  0  0
 21 57  1  0  0  0  0
 22 23  1  0  0  0  0
 22 58  1  0  0  0  0
 22 59  1  0  0  0  0
 23 24  1  0  0  0  0
 23 25  1  0  0  0  0
 24 60  1  0  0  0  0
 24 61  1  0  0  0  0
 24 62  1  0  0  0  0
 25 26  1  0  0  0  0
 25 63  1  0  0  0  0
 26 27  1  0  0  0  0
 26 64  1  0  0  0  0
 26 65  1  0  0  0  0
 27 28  1  0  0  0  0
 27 29  1  0  0  0  0
 27 66  1  0  0  0  0
 28 67  1  0  0  0  0
 29 30  1  0  0  0  0
 30 68  1  0  0  0  0
 30 69  1  0  0  0  0
 30 70  1  0  0  0  0
M  END
>  <DRUGBANK_ID>
DB18044

>  <COMMON_NAME>
3alpha,6beta,7beta,12alpha-tetrahydroxy-5beta-cholan-24-oic acid

>  <CAS_NUMBER>
75110-48-4

>  <SYNONYMS>
(3alpha,5beta,6beta,7beta,12alpha)-3,6,7,12-Tetrahydroxycholan-24-oic acid; (3α,5β,6β,7β,12α)-3,6,7,12-Tetrahydroxycholan-24-oic acid; 3a,6b,7b,12a-(OH)4-5b-cholanic acid; 3alpha,6beta,7beta,12alpha-Tetrahydroxy-5beta-cholanoic acid

$$$$
