
 OpenBabel10282417133D

 18 17  0  0  0  0  0  0  0  0999 V2000
    1.0861   -0.0508   -0.0009 O   0  0  0  0  0  0  0  0  0  0  0  0
    0.5094    0.4176   -1.5633 P   0  0  0  0  0  0  0  0  0  0  0  0
    2.0777    0.4259   -2.0557 O   0  0  0  0  0  0  0  0  0  0  0  0
    0.0203   -1.0139   -1.7661 O   0  0  0  0  0  0  0  0  0  0  0  0
   -0.0672    0.8860   -3.1256 O   0  0  0  0  0  0  0  0  0  0  0  0
    0.7689    2.3082   -3.6464 P   0  0  0  0  0  0  0  0  0  0  0  0
   -0.3582    2.5533   -4.8041 O   0  0  0  0  0  0  0  0  0  0  0  0
    0.3462    3.0430   -2.3706 O   0  0  0  0  0  0  0  0  0  0  0  0
    1.6051    3.7303   -4.1672 O   0  0  0  0  0  0  0  0  0  0  0  0
    3.1719    3.2945   -4.7573 P   0  0  0  0  0  0  0  0  0  0  0  0
    2.4510    2.0026   -5.4711 O   0  0  0  0  0  0  0  0  0  0  0  0
    2.8730    4.3846   -5.9337 O   0  0  0  0  0  0  0  0  0  0  0  0
    4.5741    2.9045   -5.2855 O   0  0  0  0  0  0  0  0  0  0  0  0
    1.8264   -0.6667   -0.1573 H   0  0  0  0  0  0  0  0  0  0  0  0
    2.5893    1.1476   -1.6495 H   0  0  0  0  0  0  0  0  0  0  0  0
   -0.0658    2.1443   -5.6426 H   0  0  0  0  0  0  0  0  0  0  0  0
    3.1503    1.3488   -5.6937 H   0  0  0  0  0  0  0  0  0  0  0  0
    2.5424    5.2259   -5.5479 H   0  0  0  0  0  0  0  0  0  0  0  0
  1  2  1  0  0  0  0
  1 14  1  0  0  0  0
  2  3  1  0  0  0  0
  2  4  2  0  0  0  0
  2  5  1  0  0  0  0
  3 15  1  0  0  0  0
  5  6  1  0  0  0  0
  6  7  1  0  0  0  0
  6  8  2  0  0  0  0
  6  9  1  0  0  0  0
  7 16  1  0  0  0  0
  9 10  1  0  0  0  0
 10 11  1  0  0  0  0
 10 12  1  0  0  0  0
 10 13  2  0  0  0  0
 11 17  1  0  0  0  0
 12 18  1  0  0  0  0
M  END
>  <DRUGBANK_ID>
DB03896

>  <SECONDARY_ACCESSION_NUMBERS>
EXPT00188

>  <COMMON_NAME>
Triphosphoric acid

>  <CAS_NUMBER>
10380-08-2

>  <UNII>
NU43IAG5BC

>  <SYNONYMS>
acide triphosphorique; catena-triphosphoric acid; Inorganic triphosphate; Triphosphors√§ure; tripolyphosphoric acid

$$$$
