
 OpenBabel10282417193D

 47 49  0  0  0  0  0  0  0  0999 V2000
    1.4895   -0.2269   -0.0643 C   0  0  0  0  0  0  0  0  0  0  0  0
    0.6575   -1.3580   -0.2189 C   0  0  0  0  0  0  0  0  0  0  0  0
   -0.7222   -1.2167   -0.2766 C   0  0  0  0  0  0  0  0  0  0  0  0
   -1.1729    0.0460    0.1523 C   0  0  0  0  0  0  0  0  0  0  0  0
   -0.4063    1.2106    0.1677 C   0  0  0  0  0  0  0  0  0  0  0  0
    0.9597    1.0697    0.0052 C   0  0  0  0  0  0  0  0  0  0  0  0
   -0.9371    2.4674    0.2756 O   0  0  0  0  0  0  0  0  0  0  0  0
   -2.3750    2.6157    0.3859 C   0  0  0  0  0  0  0  0  0  0  0  0
   -3.2112    2.3977   -0.9023 C   0  0  0  0  0  0  0  0  0  0  0  0
   -3.2485    0.9888   -1.4764 C   0  0  0  0  0  0  0  0  0  0  0  0
   -3.8485    0.1655   -0.5746 F   0  0  0  0  0  0  0  0  0  0  0  0
   -3.9894    0.8771   -2.6037 F   0  0  0  0  0  0  0  0  0  0  0  0
   -4.4977    2.7756   -0.6224 F   0  0  0  0  0  0  0  0  0  0  0  0
   -2.7666    3.2613   -1.8572 F   0  0  0  0  0  0  0  0  0  0  0  0
   -1.6859   -2.3729   -0.7856 C   0  0  0  0  0  0  0  0  0  0  0  0
   -2.9698   -2.3690   -0.0815 N   0  0  0  0  0  0  0  0  0  0  0  0
   -3.6617   -3.5014    0.5970 C   0  0  0  0  0  0  0  0  0  0  0  0
   -2.6540   -4.2699    1.4847 C   0  0  0  0  0  0  0  0  0  0  0  0
   -2.1160   -3.2474    2.5032 C   0  0  0  0  0  0  0  0  0  0  0  0
   -2.5683   -1.8633    2.5491 C   0  0  0  0  0  0  0  0  0  0  0  0
   -2.4427   -1.6939    3.9004 N   0  0  0  0  0  0  0  0  0  0  0  0
   -1.0525   -1.8742    3.8724 C   0  0  0  0  0  0  0  0  0  0  0  0
   -0.8936   -3.1602    3.2749 C   0  0  0  0  0  0  0  0  0  0  0  0
    0.3518   -3.7719    3.3754 C   0  0  0  0  0  0  0  0  0  0  0  0
    1.4632   -2.9033    3.5490 C   0  0  0  0  0  0  0  0  0  0  0  0
    1.2426   -1.5198    3.4914 C   0  0  0  0  0  0  0  0  0  0  0  0
    0.0014   -0.9799    3.6289 C   0  0  0  0  0  0  0  0  0  0  0  0
    2.2941   -0.7077    3.2225 F   0  0  0  0  0  0  0  0  0  0  0  0
    2.5681   -0.3614   -0.0127 H   0  0  0  0  0  0  0  0  0  0  0  0
    1.1013   -2.3471   -0.2496 H   0  0  0  0  0  0  0  0  0  0  0  0
   -2.1931    0.1328    0.4826 H   0  0  0  0  0  0  0  0  0  0  0  0
    1.6155    1.9371   -0.0235 H   0  0  0  0  0  0  0  0  0  0  0  0
   -2.7562    2.0570    1.2522 H   0  0  0  0  0  0  0  0  0  0  0  0
   -2.5316    3.6667    0.6729 H   0  0  0  0  0  0  0  0  0  0  0  0
   -2.2524    0.6429   -1.7537 H   0  0  0  0  0  0  0  0  0  0  0  0
   -1.9334   -2.1920   -1.8329 H   0  0  0  0  0  0  0  0  0  0  0  0
   -1.1528   -3.3136   -0.6626 H   0  0  0  0  0  0  0  0  0  0  0  0
   -2.4595   -2.0959    0.7281 H   0  0  0  0  0  0  0  0  0  0  0  0
   -4.3767   -3.0799    1.3437 H   0  0  0  0  0  0  0  0  0  0  0  0
   -4.3352   -4.0585   -0.0575 H   0  0  0  0  0  0  0  0  0  0  0  0
   -3.1469   -5.1037    2.0052 H   0  0  0  0  0  0  0  0  0  0  0  0
   -1.8919   -4.7127    0.8348 H   0  0  0  0  0  0  0  0  0  0  0  0
   -2.1356   -0.9819    2.0656 H   0  0  0  0  0  0  0  0  0  0  0  0
   -3.1518   -2.2696    4.3216 H   0  0  0  0  0  0  0  0  0  0  0  0
    0.5516   -4.8227    3.1447 H   0  0  0  0  0  0  0  0  0  0  0  0
    2.4705   -3.2682    3.5907 H   0  0  0  0  0  0  0  0  0  0  0  0
   -0.2043    0.0656    3.3650 H   0  0  0  0  0  0  0  0  0  0  0  0
  1  2  2  0  0  0  0
  1  6  1  0  0  0  0
  1 29  1  0  0  0  0
  2  3  1  0  0  0  0
  2 30  1  0  0  0  0
  3  4  2  0  0  0  0
  3 15  1  0  0  0  0
  4  5  1  0  0  0  0
  4 31  1  0  0  0  0
  5  6  2  0  0  0  0
  5  7  1  0  0  0  0
  6 32  1  0  0  0  0
  7  8  1  0  0  0  0
  8  9  1  0  0  0  0
  8 33  1  0  0  0  0
  8 34  1  0  0  0  0
  9 10  1  0  0  0  0
  9 13  1  0  0  0  0
  9 14  1  0  0  0  0
 10 11  1  0  0  0  0
 10 12  1  0  0  0  0
 10 35  1  0  0  0  0
 15 16  1  0  0  0  0
 15 36  1  0  0  0  0
 15 37  1  0  0  0  0
 16 17  1  0  0  0  0
 16 38  1  0  0  0  0
 17 18  1  0  0  0  0
 17 39  1  0  0  0  0
 17 40  1  0  0  0  0
 18 19  1  0  0  0  0
 18 41  1  0  0  0  0
 18 42  1  0  0  0  0
 19 20  2  0  0  0  0
 19 23  1  0  0  0  0
 20 21  1  0  0  0  0
 20 43  1  0  0  0  0
 21 22  1  0  0  0  0
 21 44  1  0  0  0  0
 22 23  1  0  0  0  0
 22 27  2  0  0  0  0
 23 24  2  0  0  0  0
 24 25  1  0  0  0  0
 24 45  1  0  0  0  0
 25 26  2  0  0  0  0
 25 46  1  0  0  0  0
 26 27  1  0  0  0  0
 26 28  1  0  0  0  0
 27 47  1  0  0  0  0
M  END
>  <DRUGBANK_ID>
DB11957

>  <COMMON_NAME>
Idalopirdine

>  <CAS_NUMBER>
467459-31-0

>  <UNII>
59WCJ0YNWM

>  <SYNONYMS>
Idalopirdine

$$$$
