
 OpenBabel10282417133D

 66 71  0  0  1  0  0  0  0  0999 V2000
    1.4603   -0.2246    0.0088 C   0  0  0  0  0  0  0  0  0  0  0  0
    0.5827   -1.2946   -0.0469 C   0  0  0  0  0  0  0  0  0  0  0  0
    0.9489    1.0636   -0.0218 C   0  0  0  0  0  0  0  0  0  0  0  0
  -13.6194    0.0315    0.6056 C   0  0  0  0  0  0  0  0  0  0  0  0
  -14.0022    1.5021    0.6721 C   0  0  0  0  0  0  0  0  0  0  0  0
   -0.7967   -1.0702   -0.1788 C   0  0  0  0  0  0  0  0  0  0  0  0
   -0.4371    1.2724   -0.0901 C   0  0  0  0  0  0  0  0  0  0  0  0
  -12.5776   -0.2197   -0.4693 C   0  0  0  0  0  0  0  0  0  0  0  0
   -6.0571    0.4436    0.3668 C   0  0  0  0  0  0  0  0  0  0  0  0
   -5.8769   -0.3545   -1.8492 C   0  0  0  0  0  0  0  0  0  0  0  0
   -7.3218    0.9845    0.1341 C   0  0  0  0  0  0  0  0  0  0  0  0
   -7.2190    0.0492   -2.0408 C   0  0  0  0  0  0  0  0  0  0  0  0
   -3.4222   -3.6478    1.9250 C   0  0  0  0  0  0  0  0  0  0  0  0
   -3.4875   -2.8878    0.7675 C   0  0  0  0  0  0  0  0  0  0  0  0
   -3.5526    0.7144    2.1259 C   0  0  0  0  0  0  0  0  0  0  0  0
  -12.8855    2.4972    0.3600 C   0  0  0  0  0  0  0  0  0  0  0  0
   -3.2021    1.4321    0.7706 C   0  0  0  0  0  0  0  0  0  0  0  0
  -10.4773    2.9236    0.0415 C   0  0  0  0  0  0  0  0  0  0  0  0
   -9.4721    2.6925   -1.1000 C   0  0  0  0  0  0  0  0  0  0  0  0
   -3.8571   -1.6245    3.2217 C   0  0  0  0  0  0  0  0  0  0  0  0
  -10.3204    0.3707   -1.3893 C   0  0  0  0  0  0  0  0  0  0  0  0
   -5.2456   -0.1583   -0.6275 C   0  0  0  0  0  0  0  0  0  0  0  0
   -3.6975   -0.8227    2.0874 C   0  0  0  0  0  0  0  0  0  0  0  0
   -7.9250    0.7777   -1.0747 C   0  0  0  0  0  0  0  0  0  0  0  0
   -1.3661    0.2138   -0.1788 C   0  0  0  0  0  0  0  0  0  0  0  0
  -11.2931    0.5733   -0.1896 C   0  0  1  0  0  0  0  0  0  0  0  0
   -3.6686   -3.0148    3.1372 C   0  0  0  0  0  0  0  0  0  0  0  0
   -3.6643   -1.4886    0.8464 C   0  0  0  0  0  0  0  0  0  0  0  0
   -3.7615   -0.6379   -0.4057 C   0  0  2  0  0  0  0  0  0  0  0  0
  -11.5773    1.9752    0.0774 N   0  0  3  0  0  0  0  0  0  0  0  0
   -9.1800    1.2821   -1.3476 N   0  0  0  0  0  0  0  0  0  0  0  0
   -2.7631    0.4787   -0.2632 N   0  0  0  0  0  0  0  0  0  0  0  0
   -3.6841   -3.7408    4.2951 O   0  0  0  0  0  0  0  0  0  0  0  0
  -10.8206    0.1533    0.7106 H   0  0  0  0  0  0  0  0  0  0  0  0
   -3.4859   -1.2382   -1.2845 H   0  0  0  0  0  0  0  0  0  0  0  0
    2.5309   -0.3937    0.0677 H   0  0  0  0  0  0  0  0  0  0  0  0
    0.9577   -2.3138    0.0035 H   0  0  0  0  0  0  0  0  0  0  0  0
    1.6197    1.9178    0.0014 H   0  0  0  0  0  0  0  0  0  0  0  0
  -14.5178   -0.5635    0.4025 H   0  0  0  0  0  0  0  0  0  0  0  0
  -13.2360   -0.2983    1.5784 H   0  0  0  0  0  0  0  0  0  0  0  0
  -14.8157    1.6800   -0.0427 H   0  0  0  0  0  0  0  0  0  0  0  0
  -14.4165    1.7162    1.6646 H   0  0  0  0  0  0  0  0  0  0  0  0
   -1.3984   -1.9626   -0.2439 H   0  0  0  0  0  0  0  0  0  0  0  0
   -0.7672    2.3066   -0.0836 H   0  0  0  0  0  0  0  0  0  0  0  0
  -12.9906    0.0615   -1.4468 H   0  0  0  0  0  0  0  0  0  0  0  0
  -12.3531   -1.2924   -0.5154 H   0  0  0  0  0  0  0  0  0  0  0  0
   -5.7786    0.5332    1.3931 H   0  0  0  0  0  0  0  0  0  0  0  0
   -5.3515   -0.8314   -2.6703 H   0  0  0  0  0  0  0  0  0  0  0  0
   -7.8187    1.5209    0.9408 H   0  0  0  0  0  0  0  0  0  0  0  0
   -7.7022   -0.1683   -2.9860 H   0  0  0  0  0  0  0  0  0  0  0  0
   -3.2083   -4.7112    1.8603 H   0  0  0  0  0  0  0  0  0  0  0  0
   -3.3189   -3.3705   -0.1945 H   0  0  0  0  0  0  0  0  0  0  0  0
   -2.8413    1.0208    2.8986 H   0  0  0  0  0  0  0  0  0  0  0  0
   -4.4831    1.1627    2.4792 H   0  0  0  0  0  0  0  0  0  0  0  0
  -13.1985    3.0863   -0.5115 H   0  0  0  0  0  0  0  0  0  0  0  0
  -12.8255    3.2077    1.1941 H   0  0  0  0  0  0  0  0  0  0  0  0
   -4.0803    1.9540    0.3702 H   0  0  0  0  0  0  0  0  0  0  0  0
   -2.5275    2.2821    0.9147 H   0  0  0  0  0  0  0  0  0  0  0  0
   -9.9615    2.9118    1.0089 H   0  0  0  0  0  0  0  0  0  0  0  0
  -10.8641    3.9444   -0.0819 H   0  0  0  0  0  0  0  0  0  0  0  0
   -8.5653    3.2819   -0.9120 H   0  0  0  0  0  0  0  0  0  0  0  0
   -9.9042    3.0842   -2.0278 H   0  0  0  0  0  0  0  0  0  0  0  0
   -4.1134   -1.1896    4.1814 H   0  0  0  0  0  0  0  0  0  0  0  0
  -10.8518    0.5828   -2.3239 H   0  0  0  0  0  0  0  0  0  0  0  0
  -10.0043   -0.6799   -1.4336 H   0  0  0  0  0  0  0  0  0  0  0  0
   -3.2681   -4.6024    4.1183 H   0  0  0  0  0  0  0  0  0  0  0  0
  1 36  1  0  0  0  0
  2  1  2  0  0  0  0
  2 37  1  0  0  0  0
  3  1  1  0  0  0  0
  3 38  1  0  0  0  0
  4 39  1  0  0  0  0
  4 40  1  0  0  0  0
  5  4  1  0  0  0  0
  5 41  1  0  0  0  0
  5 42  1  0  0  0  0
  6  2  1  0  0  0  0
  6 43  1  0  0  0  0
  7  3  2  0  0  0  0
  7 44  1  0  0  0  0
  8  4  1  0  0  0  0
  8 45  1  0  0  0  0
  8 46  1  0  0  0  0
  9 47  1  0  0  0  0
 10 48  1  0  0  0  0
 11  9  1  0  0  0  0
 11 49  1  0  0  0  0
 12 10  2  0  0  0  0
 12 50  1  0  0  0  0
 13 51  1  0  0  0  0
 14 13  1  0  0  0  0
 14 52  1  0  0  0  0
 15 53  1  0  0  0  0
 15 54  1  0  0  0  0
 16  5  1  0  0  0  0
 16 55  1  0  0  0  0
 16 56  1  0  0  0  0
 17 15  1  0  0  0  0
 17 57  1  0  0  0  0
 17 58  1  0  0  0  0
 18 59  1  0  0  0  0
 18 60  1  0  0  0  0
 19 18  1  0  0  0  0
 19 61  1  0  0  0  0
 19 62  1  0  0  0  0
 20 63  1  0  0  0  0
 21 64  1  0  0  0  0
 21 65  1  0  0  0  0
 22  9  2  0  0  0  0
 22 10  1  0  0  0  0
 23 15  1  0  0  0  0
 23 20  2  0  0  0  0
 24 11  2  0  0  0  0
 24 12  1  0  0  0  0
 25  6  2  0  0  0  0
 25  7  1  0  0  0  0
 26  8  1  0  0  0  0
 26 21  1  0  0  0  0
 26 34  1  1  0  0  0
 27 13  2  0  0  0  0
 27 20  1  0  0  0  0
 28 14  2  0  0  0  0
 28 23  1  0  0  0  0
 29 28  1  0  0  0  0
 29 35  1  6  0  0  0
 29 22  1  0  0  0  0
 30 16  1  0  0  0  0
 30 18  1  0  0  0  0
 30 26  1  0  0  0  0
 31 19  1  0  0  0  0
 31 21  1  0  0  0  0
 31 24  1  0  0  0  0
 32 17  1  0  0  0  0
 32 25  1  0  0  0  0
 32 29  1  0  0  0  0
 33 27  1  0  0  0  0
 33 66  1  0  0  0  0
M  END
>  <DRUGBANK_ID>
DB03802

>  <SECONDARY_ACCESSION_NUMBERS>
EXPT00446

>  <COMMON_NAME>
1-[4-(Octahydro-Pyrido[1,2-a]Pyrazin-2-Yl)-Phenyl]-2-Phenyl-1,2,3,4-Tetrahydro-Isoquinolin-6-Ol

$$$$
