AFB
 OpenBabel10282417163D

 44 45  0  0  0  0  0  0  0  0999 V2000
    8.0362    0.6003   11.3710 O   0  0  0  0  0  0  0  0  0  0  0  0
    6.7518    0.0782   11.6752 C   0  0  1  0  0  0  0  0  0  0  0  0
    5.8291    1.4725   12.1533 C   0  0  0  0  0  0  0  0  0  0  0  0
    5.7657   -0.2010   10.5891 C   0  0  0  0  0  0  0  0  0  0  0  0
    5.3261    1.2144   10.7196 C   0  0  2  0  0  0  0  0  0  0  0  0
    5.2992    2.4012   10.4479 C   0  0  2  0  0  0  0  0  0  0  0  0
    4.7674    2.0880    8.5290 C   0  0  0  0  0  0  0  0  0  0  0  0
    3.9007    2.7110    7.5730 C   0  0  0  0  0  0  0  0  0  0  0  0
    3.0228    3.7105    8.0551 C   0  0  0  0  0  0  0  0  0  0  0  0
    4.0873    4.7405    8.3699 C   0  0  0  0  0  0  0  0  0  0  0  0
    3.5943    5.9024    7.6172 C   0  0  0  0  0  0  0  0  0  0  0  0
    2.1864    6.2678    8.1233 C   0  0  2  0  0  0  0  0  0  0  0  0
    1.7557    7.4172    7.2164 C   0  0  0  0  0  0  0  0  0  0  0  0
    2.1782    6.6031    9.5856 O   0  0  0  0  0  0  0  0  0  0  0  0
    2.4133    5.8960   10.7755 C   0  0  0  0  0  0  0  0  0  0  0  0
    2.5007    6.4761   11.8479 O   0  0  0  0  0  0  0  0  0  0  0  0
    2.6298    4.4064   10.7773 C   0  0  0  0  0  0  0  0  0  0  0  0
    3.1296    3.3898   11.5652 C   0  0  0  0  0  0  0  0  0  0  0  0
    3.6450    1.6871   11.2143 C   0  0  1  0  0  0  0  0  0  0  0  0
    2.9447    1.4669   10.0348 O   0  0  0  0  0  0  0  0  0  0  0  0
    6.8750   -0.8373   12.2880 H   0  0  0  0  0  0  0  0  0  0  0  0
    6.4787    1.8674   10.5268 H   0  0  0  0  0  0  0  0  0  0  0  0
    5.1578    3.3650   11.0201 H   0  0  0  0  0  0  0  0  0  0  0  0
    1.4170    5.5096    7.9609 H   0  0  0  0  0  0  0  0  0  0  0  0
    3.1465    1.0005   11.8621 H   0  0  0  0  0  0  0  0  0  0  0  0
    8.3801    0.1695   10.5774 H   0  0  0  0  0  0  0  0  0  0  0  0
    5.2073    0.8241   12.9737 H   0  0  0  0  0  0  0  0  0  0  0  0
    6.5561    1.9494   12.8312 H   0  0  0  0  0  0  0  0  0  0  0  0
    6.0153   -0.2151    9.5475 H   0  0  0  0  0  0  0  0  0  0  0  0
    4.8384   -0.6221   10.9781 H   0  0  0  0  0  0  0  0  0  0  0  0
    4.5169    1.0953    7.9534 H   0  0  0  0  0  0  0  0  0  0  0  0
    3.4335    2.6519    6.5401 H   0  0  0  0  0  0  0  0  0  0  0  0
    2.6082    3.0603    8.7723 H   0  0  0  0  0  0  0  0  0  0  0  0
    1.9253    3.8387    7.9235 H   0  0  0  0  0  0  0  0  0  0  0  0
    5.1053    4.4266    8.0721 H   0  0  0  0  0  0  0  0  0  0  0  0
    4.3050    5.0235    9.3953 H   0  0  0  0  0  0  0  0  0  0  0  0
    3.5782    5.5996    6.5570 H   0  0  0  0  0  0  0  0  0  0  0  0
    4.3025    6.7159    7.7533 H   0  0  0  0  0  0  0  0  0  0  0  0
    2.0329    8.3683    7.6596 H   0  0  0  0  0  0  0  0  0  0  0  0
    2.2321    7.3224    6.2270 H   0  0  0  0  0  0  0  0  0  0  0  0
    0.6782    7.4076    7.0199 H   0  0  0  0  0  0  0  0  0  0  0  0
    2.3487    4.2842    9.7946 H   0  0  0  0  0  0  0  0  0  0  0  0
    3.3893    3.7484   12.5516 H   0  0  0  0  0  0  0  0  0  0  0  0
    3.3570    2.2644    9.6944 H   0  0  0  0  0  0  0  0  0  0  0  0
  1 26  1  0  0  0  0
  2  3  1  0  0  0  0
  2  4  1  0  0  0  0
  2 21  1  1  0  0  0
  2  1  1  0  0  0  0
  3  6  1  0  0  0  0
  3 27  1  0  0  0  0
  3 28  1  0  0  0  0
  4  5  1  0  0  0  0
  4 29  1  0  0  0  0
  4 30  1  0  0  0  0
  5  6  1  0  0  0  0
  5 19  1  0  0  0  0
  5 22  1  6  0  0  0
  6  7  1  0  0  0  0
  6 23  1  1  0  0  0
  7  8  2  0  0  0  0
  7 31  1  0  0  0  0
  8  9  1  0  0  0  0
  8 32  1  0  0  0  0
  9 10  1  0  0  0  0
  9 33  1  0  0  0  0
  9 34  1  0  0  0  0
 10 11  1  0  0  0  0
 10 35  1  0  0  0  0
 10 36  1  0  0  0  0
 11 12  1  0  0  0  0
 11 37  1  0  0  0  0
 11 38  1  0  0  0  0
 12 14  1  0  0  0  0
 12 24  1  6  0  0  0
 12 13  1  0  0  0  0
 13 39  1  0  0  0  0
 13 40  1  0  0  0  0
 13 41  1  0  0  0  0
 14 15  1  0  0  0  0
 15 16  2  0  0  0  0
 15 17  1  0  0  0  0
 17 18  2  0  0  0  0
 17 42  1  0  0  0  0
 18 19  1  0  0  0  0
 18 43  1  0  0  0  0
 19 20  1  0  0  0  0
 19 25  1  1  0  0  0
 20 44  1  0  0  0  0
M  END
>  <DRUGBANK_ID>
DB07348

>  <COMMON_NAME>
Brefeldin A

>  <CAS_NUMBER>
20350-15-6

>  <UNII>
XG0D35F9K6

>  <SYNONYMS>
(+)-brefeldin A; Ascotoxin; Cyanein; Decumbin; Nectrolide; Synergisidin

$$$$
