
 OpenBabel10282417123D

 45 45  0  0  0  0  0  0  0  0999 V2000
   -1.5324   -1.7565   -0.0066 C   0  0  0  0  0  0  0  0  0  0  0  0
   -1.2850    1.9032    3.8213 C   0  0  0  0  0  0  0  0  0  0  0  0
   -0.8637    2.4454    2.6797 C   0  0  0  0  0  0  0  0  0  0  0  0
   -2.1981    0.7155    3.8730 C   0  0  0  0  0  0  0  0  0  0  0  0
    1.8921   -0.4366   -0.0642 C   0  0  0  0  0  0  0  0  0  0  0  0
    0.2663    3.0083    0.0475 C   0  0  0  0  0  0  0  0  0  0  0  0
    3.0247    1.7896    0.0430 C   0  0  0  0  0  0  0  0  0  0  0  0
   -0.3982   -0.7701   -0.0669 C   0  0  0  0  0  0  0  0  0  0  0  0
    1.7688    0.9544   -0.0561 C   0  0  0  0  0  0  0  0  0  0  0  0
    0.4657    1.5044   -0.0663 C   0  0  0  0  0  0  0  0  0  0  0  0
    0.2061    3.4615    2.4435 C   0  0  0  0  0  0  0  0  0  0  0  0
   -0.6245    0.6076   -0.1333 C   0  0  0  0  0  0  0  0  0  0  0  0
    0.8514    4.2449    3.6521 C   0  0  0  0  0  0  0  0  0  0  0  0
    0.8488   -1.2919   -0.0137 N   0  0  0  0  0  0  0  0  0  0  0  0
    0.7685    3.6351    1.2817 N   0  0  0  0  0  0  0  0  0  0  0  0
   -1.9349    1.0076   -0.1748 O   0  0  0  0  0  0  0  0  0  0  0  0
    1.9090    4.8575    3.5200 O   0  0  0  0  0  0  0  0  0  0  0  0
    0.3328    4.0017    4.8564 O   0  0  0  0  0  0  0  0  0  0  0  0
   -0.1276    0.0062    4.8479 O   0  0  0  0  0  0  0  0  0  0  0  0
   -2.2402   -0.0678    6.1511 O   0  0  0  0  0  0  0  0  0  0  0  0
   -1.0579   -1.9716    5.5738 O   0  0  0  0  0  0  0  0  0  0  0  0
    2.8301    0.1850    2.8607 O   0  0  0  0  0  0  0  0  0  0  0  0
    4.1875    2.1518    3.3675 O   0  0  0  0  0  0  0  0  0  0  0  0
    1.8856    2.0631    3.8928 O   0  0  0  0  0  0  0  0  0  0  0  0
    3.7437    1.5233    1.2464 O   0  0  0  0  0  0  0  0  0  0  0  0
   -1.5805   -0.7400    4.7943 P   0  0  0  0  0  0  0  0  0  0  0  0
    2.7632    1.8082    2.6429 P   0  0  0  0  0  0  0  0  0  0  0  0
   -0.8750    2.1888    4.7834 H   0  0  0  0  0  0  0  0  0  0  0  0
   -1.2599    1.9844    1.8013 H   0  0  0  0  0  0  0  0  0  0  0  0
   -1.5057   -2.4054   -0.8859 H   0  0  0  0  0  0  0  0  0  0  0  0
   -1.4447   -2.3707    0.8961 H   0  0  0  0  0  0  0  0  0  0  0  0
   -2.5155   -1.2764    0.0272 H   0  0  0  0  0  0  0  0  0  0  0  0
   -3.1476    1.0842    4.2792 H   0  0  0  0  0  0  0  0  0  0  0  0
   -2.4538    0.3535    2.8699 H   0  0  0  0  0  0  0  0  0  0  0  0
    2.8695   -0.9195   -0.0399 H   0  0  0  0  0  0  0  0  0  0  0  0
    0.7780    3.4661   -0.8096 H   0  0  0  0  0  0  0  0  0  0  0  0
   -0.7731    3.3130   -0.0859 H   0  0  0  0  0  0  0  0  0  0  0  0
    3.6769    1.5733   -0.8093 H   0  0  0  0  0  0  0  0  0  0  0  0
    2.8268    2.8623    0.0089 H   0  0  0  0  0  0  0  0  0  0  0  0
   -2.0404    1.9688   -0.2072 H   0  0  0  0  0  0  0  0  0  0  0  0
    1.1166    3.8663    5.4406 H   0  0  0  0  0  0  0  0  0  0  0  0
    0.6034   -0.4887    4.4427 H   0  0  0  0  0  0  0  0  0  0  0  0
   -3.0774    0.4218    6.0778 H   0  0  0  0  0  0  0  0  0  0  0  0
    2.0562   -0.2616    2.4834 H   0  0  0  0  0  0  0  0  0  0  0  0
    4.7440    2.6796    2.7699 H   0  0  0  0  0  0  0  0  0  0  0  0
  1 30  1  0  0  0  0
  1 31  1  0  0  0  0
  1 32  1  0  0  0  0
  3  2  2  0  0  0  0
  4  2  1  0  0  0  0
  4 33  1  0  0  0  0
  4 34  1  0  0  0  0
  5 35  1  0  0  0  0
  6 36  1  0  0  0  0
  6 37  1  0  0  0  0
  7 38  1  0  0  0  0
  7 39  1  0  0  0  0
  8  1  1  0  0  0  0
  9  5  1  0  0  0  0
  9  7  1  0  0  0  0
 10  6  1  0  0  0  0
 10  9  2  0  0  0  0
 11  3  1  0  0  0  0
 12  8  2  0  0  0  0
 12 10  1  0  0  0  0
 13 11  1  0  0  0  0
 14  5  2  0  0  0  0
 14  8  1  0  0  0  0
 15  6  1  0  0  0  0
 15 11  2  0  0  0  0
 16 12  1  0  0  0  0
 16 40  1  0  0  0  0
 17 13  2  0  0  0  0
 18 13  1  0  0  0  0
 18 41  1  0  0  0  0
 19 42  1  0  0  0  0
 20 43  1  0  0  0  0
 22 44  1  0  0  0  0
 23 45  1  0  0  0  0
 25  7  1  0  0  0  0
 26  4  1  0  0  0  0
 26 19  1  0  0  0  0
 26 20  1  0  0  0  0
 26 21  2  0  0  0  0
 27 22  1  0  0  0  0
 27 23  1  0  0  0  0
 27 24  2  0  0  0  0
 27 25  1  0  0  0  0
 28  2  1  0  0  0  0
 29  3  1  0  0  0  0
M  END
>  <DRUGBANK_ID>
DB02328

>  <SECONDARY_ACCESSION_NUMBERS>
EXPT01727

>  <COMMON_NAME>
2-[(3-Hydroxy-2-Methyl-5-Phosphonooxymethyl-Pyridin-4-Ylmethyl)-Imino]-5-Phosphono-Pent-3-Enoic Acid

$$$$
