
 OpenBabel10282417203D

 17 12  0  0  0  0  0  0  0  0999 V2000
    1.0421    0.0114    0.0900 C   0  0  0  0  0  0  0  0  0  0  0  0
    0.5354    1.4138   -0.2046 C   0  0  0  0  0  0  0  0  0  0  0  0
    0.5521   -0.9135   -0.9421 N   0  0  0  0  0  0  0  0  0  0  0  0
   -0.1953    1.6247   -1.2229 O   0  0  0  0  0  0  0  0  0  0  0  0
    0.8784    2.4885    0.6579 O   0  5  0  0  0  0  0  0  0  0  0  0
    0.9433   -0.0534    0.0628 Al  0  1  0  0  0  0  0  0  0  0  0  0
    1.0720    0.0513   -0.0468 O   0  5  0  0  0  0  0  0  0  0  0  0
    0.9162    0.0539    0.0081 O   0  5  0  0  0  0  0  0  0  0  0  0
    0.9418    0.0464    0.0668 O   0  0  0  0  0  0  0  0  0  0  0  0
    0.6854   -0.3026    1.0487 H   0  0  0  0  0  0  0  0  0  0  0  0
    2.1121    0.0114    0.0900 H   0  0  0  0  0  0  0  0  0  0  0  0
   -0.4679   -0.9136   -0.9421 H   0  0  0  0  0  0  0  0  0  0  0  0
    0.8921   -0.6142   -1.8560 H   0  0  0  0  0  0  0  0  0  0  0  0
    2.0720    0.0513   -0.0468 H   0  0  0  0  0  0  0  0  0  0  0  0
    1.9162    0.0539    0.0081 H   0  0  0  0  0  0  0  0  0  0  0  0
    0.6085    0.5918   -0.7023 H   0  0  0  0  0  0  0  0  0  0  0  0
    1.9418    0.0464    0.0668 H   0  0  0  0  0  0  0  0  0  0  0  0
  1 10  1  0  0  0  0
  1 11  1  0  0  0  0
  2  1  1  0  0  0  0
  3  1  1  0  0  0  0
  3 12  1  0  0  0  0
  3 13  1  0  0  0  0
  4  2  2  0  0  0  0
  5  2  1  0  0  0  0
  7 14  1  0  0  0  0
  8 15  1  0  0  0  0
  9 16  1  0  0  0  0
  9 17  1  0  0  0  0
M  CHG  4   5  -1   6   3   7  -1   8  -1
M  END
>  <DRUGBANK_ID>
DB13626

>  <COMMON_NAME>
Aluminium glycinate

>  <CAS_NUMBER>
41354-48-7

>  <UNII>
DO250MG0W6

>  <SYNONYMS>
Aluminio glicinato; Aluminum glycinate; Dihydroxyaluminum aminoacetate

$$$$
