
 OpenBabel10282417113D

 74 76  0  0  0  0  0  0  0  0999 V2000
    0.8124    1.6340    0.4560 C   0  0  1  0  0  0  0  0  0  0  0  0
    0.2954   -1.3814   -0.8880 C   0  0  2  0  0  0  0  0  0  0  0  0
    1.4100    0.1488    0.2907 C   0  0  2  0  0  0  0  0  0  0  0  0
   -0.9495    0.2553   -1.7147 C   0  0  1  0  0  0  0  0  0  0  0  0
    0.3946    0.4775   -1.4230 C   0  0  1  0  0  0  0  0  0  0  0  0
   -0.6740   -0.3293    0.4418 C   0  0  2  0  0  0  0  0  0  0  0  0
    0.9061    1.7599   -0.8338 O   0  0  0  0  0  0  0  0  0  0  0  0
    0.3780   -1.7420   -2.3742 O   0  0  0  0  0  0  0  0  0  0  0  0
    0.2312   -0.5668   -3.2717 C   0  0  1  0  0  0  0  0  0  0  0  0
    0.1861   -2.1423    0.7964 C   0  0  2  0  0  0  0  0  0  0  0  0
   -1.6810   -0.4068   -3.4243 O   0  0  0  0  0  0  0  0  0  0  0  0
   -0.7581    1.8216    0.6165 C   0  0  1  0  0  0  0  0  0  0  0  0
   -1.6144   -1.5665   -0.3485 C   0  0  2  0  0  0  0  0  0  0  0  0
    1.8537   -0.7814   -1.2476 O   0  0  0  0  0  0  0  0  0  0  0  0
   -2.0240    0.5668   -0.2645 C   0  0  0  0  0  0  0  0  0  0  0  0
   -2.8103    0.7617   -2.3877 C   0  0  0  0  0  0  0  0  0  0  0  0
    1.6654   -1.7661    0.4195 C   0  0  0  0  0  0  0  0  0  0  0  0
   -2.2359    2.1482   -1.7352 C   0  0  0  0  0  0  0  0  0  0  0  0
    1.1809    1.3005   -2.8991 C   0  0  1  0  0  0  0  0  0  0  0  0
   -0.3341    2.5169   -2.0729 C   0  0  0  0  0  0  0  0  0  0  0  0
   -2.7139   -0.6894    0.8905 N   0  0  0  0  0  0  0  0  0  0  0  0
   -1.3150    1.4078   -3.2894 O   0  0  0  0  0  0  0  0  0  0  0  0
    1.8002    0.1493    1.7818 O   0  0  0  0  0  0  0  0  0  0  0  0
   -0.8438    1.8148    2.0802 N   0  0  0  0  0  0  0  0  0  0  0  0
   -1.5187   -1.8454    1.5222 N   0  0  0  0  0  0  0  0  0  0  0  0
   -0.5395   -3.3194   -0.3934 O   0  0  0  0  0  0  0  0  0  0  0  0
    2.5516    1.2263   -1.9092 N   0  0  0  0  0  0  0  0  0  0  0  0
   -4.4229   -0.1229   -3.1533 N   0  0  0  0  0  0  0  0  0  0  0  0
    0.1335   -2.0809    2.6460 C   0  0  0  0  0  0  0  0  0  0  0  0
   -4.1144    0.2545   -1.8415 C   0  0  0  0  0  0  0  0  0  0  0  0
   -2.4455    1.8397    2.3424 C   0  0  0  0  0  0  0  0  0  0  0  0
   -2.9417   -0.8159    2.6894 C   0  0  0  0  0  0  0  0  0  0  0  0
   -3.8853    0.9519    1.5195 C   0  0  0  0  0  0  0  0  0  0  0  0
    1.4408    2.5009    0.7755 H   0  0  0  0  0  0  0  0  0  0  0  0
    0.9377   -2.5635   -0.8810 H   0  0  0  0  0  0  0  0  0  0  0  0
    2.7280    0.0073    0.0573 H   0  0  0  0  0  0  0  0  0  0  0  0
   -2.0469   -0.7724   -1.9657 H   0  0  0  0  0  0  0  0  0  0  0  0
   -0.1561    0.7345   -2.6111 H   0  0  0  0  0  0  0  0  0  0  0  0
   -0.8423    0.2298    1.2104 H   0  0  0  0  0  0  0  0  0  0  0  0
    0.8334   -0.7491   -4.0933 H   0  0  0  0  0  0  0  0  0  0  0  0
   -1.2177    2.7470    0.3646 H   0  0  0  0  0  0  0  0  0  0  0  0
   -2.0370   -2.4768    0.0835 H   0  0  0  0  0  0  0  0  0  0  0  0
   -1.6460   -0.7701   -0.7767 H   0  0  0  0  0  0  0  0  0  0  0  0
   -2.9608    0.9678   -0.2397 H   0  0  0  0  0  0  0  0  0  0  0  0
    2.3286   -2.5159    0.6755 H   0  0  0  0  0  0  0  0  0  0  0  0
    0.9557   -1.1963    1.0490 H   0  0  0  0  0  0  0  0  0  0  0  0
   -2.7008    2.8664   -0.9885 H   0  0  0  0  0  0  0  0  0  0  0  0
    1.3978    1.9919   -3.6104 H   0  0  0  0  0  0  0  0  0  0  0  0
   -0.2779    3.0830   -1.0984 H   0  0  0  0  0  0  0  0  0  0  0  0
   -0.1287    3.4038   -2.5764 H   0  0  0  0  0  0  0  0  0  0  0  0
   -3.2239   -1.4584    0.2877 H   0  0  0  0  0  0  0  0  0  0  0  0
   -1.6917    2.3776   -3.2481 H   0  0  0  0  0  0  0  0  0  0  0  0
    2.6981   -0.2449    1.8376 H   0  0  0  0  0  0  0  0  0  0  0  0
   -0.2544    0.9676    2.3731 H   0  0  0  0  0  0  0  0  0  0  0  0
   -1.4569   -2.7645    1.7240 H   0  0  0  0  0  0  0  0  0  0  0  0
   -1.2706   -0.8797    2.0288 H   0  0  0  0  0  0  0  0  0  0  0  0
   -0.8727   -2.8548   -1.3531 H   0  0  0  0  0  0  0  0  0  0  0  0
    2.4769    1.8118   -1.0148 H   0  0  0  0  0  0  0  0  0  0  0  0
    1.9974    0.6957   -1.2542 H   0  0  0  0  0  0  0  0  0  0  0  0
   -5.3891   -0.2914   -3.1451 H   0  0  0  0  0  0  0  0  0  0  0  0
   -4.1145    0.6614   -3.7464 H   0  0  0  0  0  0  0  0  0  0  0  0
    0.3597   -0.9900    2.7951 H   0  0  0  0  0  0  0  0  0  0  0  0
   -0.8910   -2.2574    3.2076 H   0  0  0  0  0  0  0  0  0  0  0  0
    0.5747   -3.0154    2.5906 H   0  0  0  0  0  0  0  0  0  0  0  0
   -4.1663   -0.6063   -1.1511 H   0  0  0  0  0  0  0  0  0  0  0  0
   -4.4847    1.1606   -1.3134 H   0  0  0  0  0  0  0  0  0  0  0  0
   -2.2887    1.6759    3.4032 H   0  0  0  0  0  0  0  0  0  0  0  0
   -2.7515    2.7258    1.8353 H   0  0  0  0  0  0  0  0  0  0  0  0
   -3.9062   -0.5829    3.1150 H   0  0  0  0  0  0  0  0  0  0  0  0
   -2.1747   -1.0375    3.4120 H   0  0  0  0  0  0  0  0  0  0  0  0
   -2.5045    0.1111    2.8620 H   0  0  0  0  0  0  0  0  0  0  0  0
   -4.2468   -0.4453    1.4144 H   0  0  0  0  0  0  0  0  0  0  0  0
   -4.7688    0.5099    1.9479 H   0  0  0  0  0  0  0  0  0  0  0  0
   -2.8401    0.8641    1.3253 H   0  0  0  0  0  0  0  0  0  0  0  0
  1 34  1  1  0  0  0
  1  7  1  0  0  0  0
  2  3  1  0  0  0  0
  2  8  1  0  0  0  0
  2 35  1  1  0  0  0
  3  1  1  0  0  0  0
  3 36  1  6  0  0  0
  3 23  1  0  0  0  0
  4  5  1  0  0  0  0
  4 22  1  0  0  0  0
  4 37  1  6  0  0  0
  5  7  1  0  0  0  0
  5 38  1  6  0  0  0
  6  4  1  0  0  0  0
  6 39  1  1  0  0  0
  6 21  1  0  0  0  0
  9  8  1  0  0  0  0
  9 40  1  6  0  0  0
 10 17  1  0  0  0  0
 10 26  1  6  0  0  0
 10  6  1  0  0  0  0
 11  9  1  0  0  0  0
 12  1  1  0  0  0  0
 12 24  1  0  0  0  0
 12 41  1  6  0  0  0
 13  2  1  0  0  0  0
 13 15  1  0  0  0  0
 13 42  1  6  0  0  0
 13 25  1  0  0  0  0
 14  5  1  0  0  0  0
 15 12  1  0  0  0  0
 15 43  1  0  0  0  0
 15 44  1  0  0  0  0
 16 11  1  0  0  0  0
 17 14  1  0  0  0  0
 17 45  1  0  0  0  0
 17 46  1  0  0  0  0
 18 16  2  0  0  0  0
 18 47  1  0  0  0  0
 19  9  1  0  0  0  0
 19 27  1  0  0  0  0
 19 48  1  6  0  0  0
 20 19  1  0  0  0  0
 20 18  1  0  0  0  0
 20 49  1  0  0  0  0
 20 50  1  0  0  0  0
 21 51  1  0  0  0  0
 22 52  1  0  0  0  0
 23 53  1  0  0  0  0
 24 54  1  0  0  0  0
 25 55  1  0  0  0  0
 25 56  1  0  0  0  0
 26 57  1  0  0  0  0
 27 58  1  0  0  0  0
 27 59  1  0  0  0  0
 28 30  1  0  0  0  0
 28 60  1  0  0  0  0
 28 61  1  0  0  0  0
 29 10  1  0  0  0  0
 29 62  1  0  0  0  0
 29 63  1  0  0  0  0
 29 64  1  0  0  0  0
 30 16  1  0  0  0  0
 30 65  1  0  0  0  0
 30 66  1  0  0  0  0
 31 24  1  0  0  0  0
 31 67  1  0  0  0  0
 31 68  1  0  0  0  0
 32 21  1  0  0  0  0
 32 69  1  0  0  0  0
 32 70  1  0  0  0  0
 32 71  1  0  0  0  0
 33 31  1  0  0  0  0
 33 72  1  0  0  0  0
 33 73  1  0  0  0  0
 33 74  1  0  0  0  0
M  END
>  <DRUGBANK_ID>
DB00955

>  <SECONDARY_ACCESSION_NUMBERS>
APRD00232

>  <COMMON_NAME>
Netilmicin

>  <CAS_NUMBER>
56391-56-1

>  <UNII>
4O5J85GJJB

>  <SYNONYMS>
1-N-Ethylsisomicin; Netilmicin; Netilmycin

$$$$
