L0H
 OpenBabel10282417173D

 36 39  0  0  0  0  0  0  0  0999 V2000
    1.0238   -0.0555    0.0501 O   0  0  0  0  0  0  0  0  0  0  0  0
    2.2556   -0.0882    0.0024 C   0  0  0  0  0  0  0  0  0  0  0  0
    3.0010   -0.2480    1.1548 N   0  0  0  0  0  0  0  0  0  0  0  0
    4.3814   -0.2039    1.2546 C   0  0  0  0  0  0  0  0  0  0  0  0
    5.2275    0.6687    0.6104 C   0  0  0  0  0  0  0  0  0  0  0  0
    6.4914    0.2802    0.9333 N   0  0  0  0  0  0  0  0  0  0  0  0
    6.5311   -0.7367    1.8077 N   0  0  0  0  0  0  0  0  0  0  0  0
    5.2400   -1.0159    2.0368 C   0  0  0  0  0  0  0  0  0  0  0  0
    4.8008   -2.1110    2.9449 C   0  0  0  0  0  0  0  0  0  0  0  0
    5.0276   -2.1121    4.2406 N   0  0  0  0  0  0  0  0  0  0  0  0
    4.2913   -3.1515    4.7373 C   0  0  0  0  0  0  0  0  0  0  0  0
    4.1129   -3.5488    6.0670 C   0  0  0  0  0  0  0  0  0  0  0  0
    3.3157   -4.6667    6.3291 C   0  0  0  0  0  0  0  0  0  0  0  0
    2.7010   -5.3666    5.2870 C   0  0  0  0  0  0  0  0  0  0  0  0
    2.8547   -4.9741    3.9501 C   0  0  0  0  0  0  0  0  0  0  0  0
    3.6555   -3.8530    3.7185 C   0  0  0  0  0  0  0  0  0  0  0  0
    4.0121   -3.1757    2.5788 N   0  0  0  0  0  0  0  0  0  0  0  0
    2.9391   -0.0093   -1.3190 C   0  0  0  0  0  0  0  0  0  0  0  0
    2.5402    0.9798   -2.2191 C   0  0  0  0  0  0  0  0  0  0  0  0
    3.2916    1.2037   -3.3747 C   0  0  0  0  0  0  0  0  0  0  0  0
    4.4505    0.4621   -3.6165 C   0  0  0  0  0  0  0  0  0  0  0  0
    4.8380   -0.5375   -2.7296 C   0  0  0  0  0  0  0  0  0  0  0  0
    4.0362   -0.8296   -1.6288 C   0  0  0  0  0  0  0  0  0  0  0  0
    2.4739   -0.4791    1.9913 H   0  0  0  0  0  0  0  0  0  0  0  0
    5.0478    1.4955   -0.0627 H   0  0  0  0  0  0  0  0  0  0  0  0
    7.3671    0.6612    0.5893 H   0  0  0  0  0  0  0  0  0  0  0  0
    4.5877   -2.9891    6.8646 H   0  0  0  0  0  0  0  0  0  0  0  0
    3.1802   -4.9920    7.3574 H   0  0  0  0  0  0  0  0  0  0  0  0
    2.0875   -6.2343    5.5222 H   0  0  0  0  0  0  0  0  0  0  0  0
    2.3695   -5.5181    3.1469 H   0  0  0  0  0  0  0  0  0  0  0  0
    3.7585   -3.4271    1.6345 H   0  0  0  0  0  0  0  0  0  0  0  0
    1.6675    1.5929   -2.0065 H   0  0  0  0  0  0  0  0  0  0  0  0
    2.9926    1.9813   -4.0725 H   0  0  0  0  0  0  0  0  0  0  0  0
    5.0505    0.6590   -4.5013 H   0  0  0  0  0  0  0  0  0  0  0  0
    5.7763   -1.0680   -2.8734 H   0  0  0  0  0  0  0  0  0  0  0  0
    4.3348   -1.6356   -0.9639 H   0  0  0  0  0  0  0  0  0  0  0  0
  1  2  2  0  0  0  0
  2  3  1  0  0  0  0
  2 18  1  0  0  0  0
  3  4  1  0  0  0  0
  3 24  1  0  0  0  0
  4  5  2  0  0  0  0
  4  8  1  0  0  0  0
  5  6  1  0  0  0  0
  5 25  1  0  0  0  0
  6  7  1  0  0  0  0
  6 26  1  0  0  0  0
  7  8  2  0  0  0  0
  8  9  1  0  0  0  0
  9 10  2  0  0  0  0
  9 17  1  0  0  0  0
 10 11  1  0  0  0  0
 11 12  1  0  0  0  0
 11 16  2  0  0  0  0
 12 13  2  0  0  0  0
 12 27  1  0  0  0  0
 13 14  1  0  0  0  0
 13 28  1  0  0  0  0
 14 15  2  0  0  0  0
 14 29  1  0  0  0  0
 15 16  1  0  0  0  0
 15 30  1  0  0  0  0
 16 17  1  0  0  0  0
 17 31  1  0  0  0  0
 18 19  1  0  0  0  0
 18 23  2  0  0  0  0
 19 20  2  0  0  0  0
 19 32  1  0  0  0  0
 20 21  1  0  0  0  0
 20 33  1  0  0  0  0
 21 22  2  0  0  0  0
 21 34  1  0  0  0  0
 22 23  1  0  0  0  0
 22 35  1  0  0  0  0
 23 36  1  0  0  0  0
M  END
>  <DRUGBANK_ID>
DB08066

>  <COMMON_NAME>
N-[3-(1H-BENZIMIDAZOL-2-YL)-1H-PYRAZOL-4-YL]BENZAMIDE

>  <UNII>
XX88F9S4A4

$$$$
