
 OpenBabel10282417223D

 41 43  0  0  0  0  0  0  0  0999 V2000
    1.4228   -0.3020   -0.0167 C   0  0  0  0  0  0  0  0  0  0  0  0
    0.5171   -1.3626    0.0293 C   0  0  0  0  0  0  0  0  0  0  0  0
   -0.8643   -1.1288   -0.0362 C   0  0  0  0  0  0  0  0  0  0  0  0
   -1.3481    0.1676   -0.2321 C   0  0  0  0  0  0  0  0  0  0  0  0
   -0.4073    1.1865   -0.4471 C   0  0  0  0  0  0  0  0  0  0  0  0
    0.9573    0.9802   -0.2559 C   0  0  0  0  0  0  0  0  0  0  0  0
   -2.8312    0.4997   -0.2145 C   0  0  0  0  0  0  0  0  0  0  0  0
   -3.3580    1.2904    1.0271 C   0  0  0  0  0  0  0  0  0  0  0  0
   -2.6836    2.6282    1.2776 C   0  0  0  0  0  0  0  0  0  0  0  0
   -1.4198    2.6901    1.7425 C   0  0  0  0  0  0  0  0  0  0  0  0
   -0.6702    3.9293    1.6521 C   0  0  0  0  0  0  0  0  0  0  0  0
   -1.2799    5.1086    1.3918 C   0  0  0  0  0  0  0  0  0  0  0  0
   -2.6909    5.0968    1.1306 C   0  0  0  0  0  0  0  0  0  0  0  0
   -3.3363    3.8467    1.0197 N   0  0  0  0  0  0  0  0  0  0  0  0
   -4.6434    4.0647    0.7214 N   0  0  0  0  0  0  0  0  0  0  0  0
   -4.7328    5.3932    0.7410 C   0  0  0  0  0  0  0  0  0  0  0  0
   -3.5688    6.0676    0.9580 N   0  0  0  0  0  0  0  0  0  0  0  0
   -0.4624    6.3720    1.4182 C   0  0  0  0  0  0  0  0  0  0  0  0
   -1.1598    7.5526    1.3349 N   0  0  0  0  0  0  0  0  0  0  0  0
   -0.4690    8.8298    1.3939 C   0  0  0  0  0  0  0  0  0  0  0  0
   -0.5806    9.6030    0.0870 C   0  0  0  0  0  0  0  0  0  0  0  0
   -1.0991   10.8477    0.2125 O   0  0  0  0  0  0  0  0  0  0  0  0
   -0.2591    9.1558   -1.0117 O   0  0  0  0  0  0  0  0  0  0  0  0
    0.7569    6.3788    1.5735 O   0  0  0  0  0  0  0  0  0  0  0  0
    0.6938    3.7868    1.7677 O   0  0  0  0  0  0  0  0  0  0  0  0
    2.4891   -0.4763    0.0995 H   0  0  0  0  0  0  0  0  0  0  0  0
    0.8933   -2.3785    0.1167 H   0  0  0  0  0  0  0  0  0  0  0  0
   -1.5465   -1.9716    0.0490 H   0  0  0  0  0  0  0  0  0  0  0  0
   -0.7440    2.1953   -0.6746 H   0  0  0  0  0  0  0  0  0  0  0  0
    1.6413    1.8248   -0.2984 H   0  0  0  0  0  0  0  0  0  0  0  0
   -3.0611    1.0573   -1.1307 H   0  0  0  0  0  0  0  0  0  0  0  0
   -3.4036   -0.4359   -0.2847 H   0  0  0  0  0  0  0  0  0  0  0  0
   -4.4403    1.4250    0.8987 H   0  0  0  0  0  0  0  0  0  0  0  0
   -3.2450    0.6642    1.9220 H   0  0  0  0  0  0  0  0  0  0  0  0
   -0.8916    1.7856    2.0288 H   0  0  0  0  0  0  0  0  0  0  0  0
   -5.6835    5.8923    0.5937 H   0  0  0  0  0  0  0  0  0  0  0  0
   -2.1589    7.5182    1.1401 H   0  0  0  0  0  0  0  0  0  0  0  0
   -0.8965    9.3931    2.2281 H   0  0  0  0  0  0  0  0  0  0  0  0
    0.5989    8.6991    1.6027 H   0  0  0  0  0  0  0  0  0  0  0  0
   -1.3604   11.1116    1.1147 H   0  0  0  0  0  0  0  0  0  0  0  0
    0.9560    2.8526    1.7596 H   0  0  0  0  0  0  0  0  0  0  0  0
  1  2  1  0  0  0  0
  1 26  1  0  0  0  0
  2  3  2  0  0  0  0
  2 27  1  0  0  0  0
  3  4  1  0  0  0  0
  3 28  1  0  0  0  0
  4  5  2  0  0  0  0
  4  7  1  0  0  0  0
  5  6  1  0  0  0  0
  5 29  1  0  0  0  0
  6  1  2  0  0  0  0
  6 30  1  0  0  0  0
  7  8  1  0  0  0  0
  7 31  1  0  0  0  0
  7 32  1  0  0  0  0
  8  9  1  0  0  0  0
  8 33  1  0  0  0  0
  8 34  1  0  0  0  0
  9 14  1  0  0  0  0
 10  9  2  0  0  0  0
 10 35  1  0  0  0  0
 11 10  1  0  0  0  0
 11 25  1  0  0  0  0
 12 11  2  0  0  0  0
 12 18  1  0  0  0  0
 13 12  1  0  0  0  0
 13 17  2  0  0  0  0
 14 13  1  0  0  0  0
 14 15  1  0  0  0  0
 15 16  2  0  0  0  0
 16 17  1  0  0  0  0
 16 36  1  0  0  0  0
 18 19  1  0  0  0  0
 18 24  2  0  0  0  0
 19 20  1  0  0  0  0
 19 37  1  0  0  0  0
 20 21  1  0  0  0  0
 20 38  1  0  0  0  0
 20 39  1  0  0  0  0
 21 22  1  0  0  0  0
 21 23  2  0  0  0  0
 22 40  1  0  0  0  0
 25 41  1  0  0  0  0
M  END
>  <DRUGBANK_ID>
DB14985

>  <COMMON_NAME>
Enarodustat

>  <CAS_NUMBER>
1262132-81-9

>  <UNII>
JSK7TUA223

>  <SYNONYMS>
Ã©narodustat; Enarodustat; Enarodustatum

$$$$
