
 OpenBabel10282417163D

 47 48  0  0  0  0  0  0  0  0999 V2000
   -2.1077   -0.0388   -0.0244 Cl  0  0  0  0  0  0  0  0  0  0  0  0
    4.1923   -0.0425    0.2527 S   0  0  0  0  0  0  0  0  0  0  0  0
    8.1247    0.9846   -2.6650 O   0  0  0  0  0  0  0  0  0  0  0  0
    3.7078    3.4225   -1.0838 O   0  0  0  0  0  0  0  0  0  0  0  0
    4.8516    1.9778   -2.2830 N   0  0  0  0  0  0  0  0  0  0  0  0
    7.2177    1.6335   -4.5753 N   0  0  0  0  0  0  0  0  0  0  0  0
    3.6090    1.5050   -8.6956 N   0  0  0  0  0  0  0  0  0  0  0  0
    2.8520   -0.5358   -9.6787 N   0  0  0  0  0  0  0  0  0  0  0  0
    3.0867    1.2888  -10.9026 N   0  0  0  0  0  0  0  0  0  0  0  0
    5.6969    0.8227   -2.6500 C   0  0  3  0  0  0  0  0  0  0  0  0
    4.8800   -0.2193   -3.4106 C   0  0  0  0  0  0  0  0  0  0  0  0
    4.4033    0.2653   -4.7514 C   0  0  0  0  0  0  0  0  0  0  0  0
    7.0917    1.1433   -3.3036 C   0  0  0  0  0  0  0  0  0  0  0  0
    3.8931   -0.6603   -5.6263 C   0  0  0  0  0  0  0  0  0  0  0  0
    4.4416    1.6072   -5.1756 C   0  0  0  0  0  0  0  0  0  0  0  0
    4.4070    2.4085   -1.0874 C   0  0  0  0  0  0  0  0  0  0  0  0
    3.4855   -0.2218   -6.8749 C   0  0  0  0  0  0  0  0  0  0  0  0
    4.1941    1.9982   -6.4750 C   0  0  0  0  0  0  0  0  0  0  0  0
    3.7492    1.0620   -7.3788 C   0  0  0  0  0  0  0  0  0  0  0  0
    4.7936    1.6885    0.1723 C   0  0  0  0  0  0  0  0  0  0  0  0
    2.4188    0.0422    0.0766 C   0  0  0  0  0  0  0  0  0  0  0  0
    1.6759    1.2226    0.0528 C   0  0  0  0  0  0  0  0  0  0  0  0
    1.7262   -1.1780    0.0142 C   0  0  0  0  0  0  0  0  0  0  0  0
    3.2015    0.7636   -9.6750 C   0  0  0  0  0  0  0  0  0  0  0  0
    0.2812    1.1986   -0.0098 C   0  0  0  0  0  0  0  0  0  0  0  0
    0.3271   -1.2091   -0.0270 C   0  0  0  0  0  0  0  0  0  0  0  0
   -0.3896   -0.0168   -0.0282 C   0  0  0  0  0  0  0  0  0  0  0  0
    4.3257    2.4884   -2.9761 H   0  0  0  0  0  0  0  0  0  0  0  0
    6.5531    1.5260   -5.3247 H   0  0  0  0  0  0  0  0  0  0  0  0
    8.1559    1.7872   -4.9188 H   0  0  0  0  0  0  0  0  0  0  0  0
    2.6046   -0.9963  -10.5359 H   0  0  0  0  0  0  0  0  0  0  0  0
    3.3656   -1.1361   -9.0542 H   0  0  0  0  0  0  0  0  0  0  0  0
    3.3308    2.2598  -11.0423 H   0  0  0  0  0  0  0  0  0  0  0  0
    2.7618    0.7492  -11.6854 H   0  0  0  0  0  0  0  0  0  0  0  0
    5.9931    0.3428   -1.7155 H   0  0  0  0  0  0  0  0  0  0  0  0
    5.4871   -1.1296   -3.5347 H   0  0  0  0  0  0  0  0  0  0  0  0
    3.9930   -0.5229   -2.8338 H   0  0  0  0  0  0  0  0  0  0  0  0
    3.7770   -1.7083   -5.3604 H   0  0  0  0  0  0  0  0  0  0  0  0
    4.8501    2.4153   -4.5874 H   0  0  0  0  0  0  0  0  0  0  0  0
    2.8882   -0.9405   -7.4012 H   0  0  0  0  0  0  0  0  0  0  0  0
    4.3754    3.0349   -6.7491 H   0  0  0  0  0  0  0  0  0  0  0  0
    4.4174    2.2500    1.0298 H   0  0  0  0  0  0  0  0  0  0  0  0
    5.8869    1.6929    0.2147 H   0  0  0  0  0  0  0  0  0  0  0  0
    2.1393    2.1982    0.1072 H   0  0  0  0  0  0  0  0  0  0  0  0
    2.2675   -2.1231    0.0231 H   0  0  0  0  0  0  0  0  0  0  0  0
   -0.2629    2.1390   -0.0206 H   0  0  0  0  0  0  0  0  0  0  0  0
   -0.1931   -2.1629   -0.0408 H   0  0  0  0  0  0  0  0  0  0  0  0
  1 27  1  0  0  0  0
  2 20  1  0  0  0  0
  2 21  1  0  0  0  0
  3 13  2  0  0  0  0
  4 16  2  0  0  0  0
  5 16  1  0  0  0  0
  5 28  1  0  0  0  0
  6 13  1  0  0  0  0
  6 29  1  0  0  0  0
  6 30  1  0  0  0  0
  7 19  1  0  0  0  0
  7 24  2  0  0  0  0
  8 24  1  0  0  0  0
  8 31  1  0  0  0  0
  8 32  1  0  0  0  0
  9 24  1  0  0  0  0
  9 33  1  0  0  0  0
  9 34  1  0  0  0  0
 10  5  1  0  0  0  0
 10 11  1  0  0  0  0
 10 13  1  0  0  0  0
 10 35  1  0  0  0  0
 11 12  1  0  0  0  0
 11 36  1  0  0  0  0
 11 37  1  0  0  0  0
 12 14  2  0  0  0  0
 12 15  1  0  0  0  0
 14 17  1  0  0  0  0
 14 38  1  0  0  0  0
 15 18  2  0  0  0  0
 15 39  1  0  0  0  0
 16 20  1  0  0  0  0
 17 19  2  0  0  0  0
 17 40  1  0  0  0  0
 18 19  1  0  0  0  0
 18 41  1  0  0  0  0
 20 42  1  0  0  0  0
 20 43  1  0  0  0  0
 21 22  2  0  0  0  0
 21 23  1  0  0  0  0
 22 25  1  0  0  0  0
 22 44  1  0  0  0  0
 23 26  2  0  0  0  0
 23 45  1  0  0  0  0
 25 27  2  0  0  0  0
 25 46  1  0  0  0  0
 26 27  1  0  0  0  0
 26 47  1  0  0  0  0
M  END
>  <DRUGBANK_ID>
DB07105

>  <COMMON_NAME>
2-[2-(4-Chloro-Phenylsulfanyl)-Acetylamino]-3-(4-Guanidino-Phenyl)-Propionamide

$$$$
