
 OpenBabel10282417183D

 53 56  0  0  0  0  0  0  0  0999 V2000
    2.5774    0.0589   -0.0204 C   0  0  0  0  0  0  0  0  0  0  0  0
    1.0826    0.1885   -0.0068 C   0  0  0  0  0  0  0  0  0  0  0  0
    0.4293    1.4894   -0.0846 C   0  0  0  0  0  0  0  0  0  0  0  0
   -0.9972    1.4084   -0.0224 C   0  0  0  0  0  0  0  0  0  0  0  0
   -1.7141    0.1627    0.0123 C   0  0  0  0  0  0  0  0  0  0  0  0
   -1.0551   -1.0652    0.0194 C   0  0  0  0  0  0  0  0  0  0  0  0
    0.3458   -1.0804    0.0235 C   0  0  0  0  0  0  0  0  0  0  0  0
    0.9946   -2.4779    0.0115 C   0  0  0  0  0  0  0  0  0  0  0  0
    0.6286   -3.2361    1.0883 F   0  0  0  0  0  0  0  0  0  0  0  0
    0.6301   -3.2139   -1.0817 F   0  0  0  0  0  0  0  0  0  0  0  0
    2.3551   -2.5009    0.0114 F   0  0  0  0  0  0  0  0  0  0  0  0
    1.2489    2.9714   -0.3311 C   0  0  0  0  0  0  0  0  0  0  0  0
    1.2870    3.6648   -1.7394 N   0  0  0  0  0  0  0  0  0  0  0  0
    1.8905    4.9005   -2.5272 C   0  0  0  0  0  0  0  0  0  0  0  0
    1.3011    4.7323   -3.6885 N   0  0  0  0  0  0  0  0  0  0  0  0
    1.4958    3.4515   -3.8957 C   0  0  0  0  0  0  0  0  0  0  0  0
    1.0346    2.7580   -2.8142 C   0  0  0  0  0  0  0  0  0  0  0  0
    0.6203    1.4300   -2.9963 C   0  0  0  0  0  0  0  0  0  0  0  0
    0.9701    0.7737   -4.1811 C   0  0  0  0  0  0  0  0  0  0  0  0
    1.7125    1.4763   -5.1430 C   0  0  0  0  0  0  0  0  0  0  0  0
    1.9842    2.8341   -5.0178 C   0  0  0  0  0  0  0  0  0  0  0  0
    2.7876    3.6617   -5.9135 C   0  0  0  0  0  0  0  0  0  0  0  0
    3.2191    4.8091   -5.7233 O   0  0  0  0  0  0  0  0  0  0  0  0
    3.1130    3.0262   -7.0358 O   0  0  0  0  0  0  0  0  0  0  0  0
    0.6600   -0.5491   -4.3843 N   0  0  0  0  0  0  0  0  0  0  0  0
    1.7225   -1.5089   -4.6876 C   0  0  0  0  0  0  0  0  0  0  0  0
    1.2954   -2.3454   -5.8981 C   0  0  0  0  0  0  0  0  0  0  0  0
    0.0363   -3.0023   -5.6613 O   0  0  0  0  0  0  0  0  0  0  0  0
   -0.9927   -2.0276   -5.3930 C   0  0  0  0  0  0  0  0  0  0  0  0
   -0.6535   -1.1651   -4.1544 C   0  0  0  0  0  0  0  0  0  0  0  0
    2.6579    6.3298   -2.7863 C   0  0  0  0  0  0  0  0  0  0  0  0
    2.9029   -0.4946    0.8677 H   0  0  0  0  0  0  0  0  0  0  0  0
    2.8873   -0.4615   -0.9323 H   0  0  0  0  0  0  0  0  0  0  0  0
    3.0871    1.0122    0.0081 H   0  0  0  0  0  0  0  0  0  0  0  0
   -1.6140    2.3031   -0.0457 H   0  0  0  0  0  0  0  0  0  0  0  0
   -2.8086    0.1415    0.0054 H   0  0  0  0  0  0  0  0  0  0  0  0
   -1.6238   -2.0038    0.0153 H   0  0  0  0  0  0  0  0  0  0  0  0
    0.8457    3.6677    0.4111 H   0  0  0  0  0  0  0  0  0  0  0  0
    2.3038    2.7852   -0.1261 H   0  0  0  0  0  0  0  0  0  0  0  0
    0.0949    0.8519   -2.2596 H   0  0  0  0  0  0  0  0  0  0  0  0
    2.0244    0.9823   -6.0509 H   0  0  0  0  0  0  0  0  0  0  0  0
    3.6229    3.7239   -7.4987 H   0  0  0  0  0  0  0  0  0  0  0  0
    1.8500   -2.1589   -3.8133 H   0  0  0  0  0  0  0  0  0  0  0  0
    2.6850   -1.0251   -4.8819 H   0  0  0  0  0  0  0  0  0  0  0  0
    1.2033   -1.7170   -6.7922 H   0  0  0  0  0  0  0  0  0  0  0  0
    2.0456   -3.1149   -6.0993 H   0  0  0  0  0  0  0  0  0  0  0  0
   -1.9292   -2.5728   -5.2403 H   0  0  0  0  0  0  0  0  0  0  0  0
   -1.1129   -1.3979   -6.2833 H   0  0  0  0  0  0  0  0  0  0  0  0
   -0.5971   -1.8148   -3.2721 H   0  0  0  0  0  0  0  0  0  0  0  0
   -1.4484   -0.4286   -3.9935 H   0  0  0  0  0  0  0  0  0  0  0  0
    1.9036    7.1216   -2.9924 H   0  0  0  0  0  0  0  0  0  0  0  0
    3.5189    6.7305   -2.2442 H   0  0  0  0  0  0  0  0  0  0  0  0
    3.0921    6.3418   -3.8452 H   0  0  0  0  0  0  0  0  0  0  0  0
  1  2  1  0  0  0  0
  1 32  1  0  0  0  0
  1 33  1  0  0  0  0
  1 34  1  0  0  0  0
  2  3  2  0  0  0  0
  2  7  1  0  0  0  0
  3  4  1  0  0  0  0
  3 12  1  0  0  0  0
  4  5  2  0  0  0  0
  4 35  1  0  0  0  0
  5  6  1  0  0  0  0
  5 36  1  0  0  0  0
  6  7  2  0  0  0  0
  6 37  1  0  0  0  0
  7  8  1  0  0  0  0
  8  9  1  0  0  0  0
  8 10  1  0  0  0  0
  8 11  1  0  0  0  0
 12 13  1  0  0  0  0
 12 38  1  0  0  0  0
 12 39  1  0  0  0  0
 13 14  1  0  0  0  0
 13 17  1  0  0  0  0
 14 15  2  0  0  0  0
 14 31  1  0  0  0  0
 15 16  1  0  0  0  0
 16 17  1  0  0  0  0
 16 21  2  0  0  0  0
 17 18  2  0  0  0  0
 18 19  1  0  0  0  0
 18 40  1  0  0  0  0
 19 20  2  0  0  0  0
 19 25  1  0  0  0  0
 20 21  1  0  0  0  0
 20 41  1  0  0  0  0
 21 22  1  0  0  0  0
 22 23  2  0  0  0  0
 22 24  1  0  0  0  0
 24 42  1  0  0  0  0
 25 26  1  0  0  0  0
 25 30  1  0  0  0  0
 26 27  1  0  0  0  0
 26 43  1  0  0  0  0
 26 44  1  0  0  0  0
 27 28  1  0  0  0  0
 27 45  1  0  0  0  0
 27 46  1  0  0  0  0
 28 29  1  0  0  0  0
 29 30  1  0  0  0  0
 29 47  1  0  0  0  0
 29 48  1  0  0  0  0
 30 49  1  0  0  0  0
 30 50  1  0  0  0  0
 31 51  1  0  0  0  0
 31 52  1  0  0  0  0
 31 53  1  0  0  0  0
M  END
>  <DRUGBANK_ID>
DB11795

>  <COMMON_NAME>
GSK-2636771

>  <CAS_NUMBER>
1372540-25-4

>  <UNII>
DW94IAT0LS

$$$$
