
 OpenBabel10282417103D

 68 70  0  0  1  0  0  0  0  0999 V2000
   -1.1991   -1.4978    0.4649 C   0  0  2  0  0  0  0  0  0  0  0  0
   -0.0063   -0.7219    0.0213 C   0  0  1  0  0  0  0  0  0  0  0  0
   -0.1769    0.7705   -0.2543 C   0  0  0  0  0  0  0  0  0  0  0  0
    1.2289   -0.9999    0.9413 C   0  0  2  0  0  0  0  0  0  0  0  0
   -2.3099   -1.1943   -0.5459 C   0  0  0  0  0  0  0  0  0  0  0  0
    0.8626    1.7513    0.1322 C   0  0  0  0  0  0  0  0  0  0  0  0
   -1.4073    1.2095   -0.5972 C   0  0  0  0  0  0  0  0  0  0  0  0
    2.6223    0.0456    0.2649 C   0  0  2  0  0  0  0  0  0  0  0  0
   -2.6431    0.3062   -0.6059 C   0  0  2  0  0  0  0  0  0  0  0  0
    2.1388    1.4449    0.3585 C   0  0  0  0  0  0  0  0  0  0  0  0
    1.7590   -2.4990    0.9744 C   0  0  0  0  0  0  0  0  0  0  0  0
   -3.6875    0.5981    0.4899 C   0  0  0  0  0  0  0  0  0  0  0  0
    0.0551   -1.1588   -0.9897 H   0  0  0  0  0  0  0  0  0  0  0  0
    3.7126   -0.6100   -1.4428 C   0  0  0  0  0  0  0  0  0  0  0  0
    2.1270   -2.9377   -0.4165 C   0  0  0  0  0  0  0  0  0  0  0  0
    2.3981   -1.6234   -0.8985 C   0  0  1  0  0  0  0  0  0  0  0  0
    4.0227   -1.0346    0.1001 O   0  0  0  0  0  0  0  0  0  0  0  0
    4.6888    0.6420   -0.4147 C   0  0  0  0  0  0  0  0  0  0  0  0
    4.1754    1.2224   -2.2580 C   0  0  0  0  0  0  0  0  0  0  0  0
    2.6112    0.6921   -3.1155 C   0  0  1  0  0  0  0  0  0  0  0  0
    2.1598   -1.0914   -2.7694 C   0  0  0  0  0  0  0  0  0  0  0  0
    1.5969    1.5412   -2.6070 O   0  0  0  0  0  0  0  0  0  0  0  0
    5.5941    1.2348    0.1582 O   0  0  0  0  0  0  0  0  0  0  0  0
   -1.2931    1.0983    1.7440 O   0  0  0  0  0  0  0  0  0  0  0  0
   -1.5244    0.0540    2.3216 C   0  0  0  0  0  0  0  0  0  0  0  0
   -1.4529   -1.2129    1.8485 O   0  0  0  0  0  0  0  0  0  0  0  0
   -3.2651   -0.5387    3.9977 C   0  0  0  0  0  0  0  0  0  0  0  0
   -3.0325   -2.0314    3.8705 C   0  0  0  0  0  0  0  0  0  0  0  0
   -0.8075   -0.0364    4.5272 C   0  0  0  0  0  0  0  0  0  0  0  0
   -2.0190    0.2714    3.6853 C   0  0  0  0  0  0  0  0  0  0  0  0
   -2.3598    1.7940    3.7753 C   0  0  0  0  0  0  0  0  0  0  0  0
   -0.9517   -2.5759    0.3672 H   0  0  0  0  0  0  0  0  0  0  0  0
    1.0292   -0.6899    1.9802 H   0  0  0  0  0  0  0  0  0  0  0  0
   -3.1839   -1.8034   -0.3091 H   0  0  0  0  0  0  0  0  0  0  0  0
   -1.9856   -1.4979   -1.5583 H   0  0  0  0  0  0  0  0  0  0  0  0
    0.6759    2.8116    0.0024 H   0  0  0  0  0  0  0  0  0  0  0  0
   -1.5618    2.2858   -0.5416 H   0  0  0  0  0  0  0  0  0  0  0  0
    3.1024   -0.0521    1.3086 H   0  0  0  0  0  0  0  0  0  0  0  0
   -3.1302    0.5209   -1.5554 H   0  0  0  0  0  0  0  0  0  0  0  0
    2.9192    2.1819    0.4860 H   0  0  0  0  0  0  0  0  0  0  0  0
    2.6507   -2.3523    1.5934 H   0  0  0  0  0  0  0  0  0  0  0  0
    1.2798   -3.3647    1.4354 H   0  0  0  0  0  0  0  0  0  0  0  0
   -3.8820    1.6632    0.6082 H   0  0  0  0  0  0  0  0  0  0  0  0
   -4.5947    0.0105    0.3508 H   0  0  0  0  0  0  0  0  0  0  0  0
   -3.4268    0.2532    1.4744 H   0  0  0  0  0  0  0  0  0  0  0  0
    4.8217   -0.6198   -1.7361 H   0  0  0  0  0  0  0  0  0  0  0  0
    3.9818   -1.8203   -1.4805 H   0  0  0  0  0  0  0  0  0  0  0  0
    2.9918    0.0754   -1.6170 H   0  0  0  0  0  0  0  0  0  0  0  0
    3.0923   -3.4251   -0.4448 H   0  0  0  0  0  0  0  0  0  0  0  0
    1.4069   -3.3484   -1.1181 H   0  0  0  0  0  0  0  0  0  0  0  0
    1.6521   -0.7998   -0.9571 H   0  0  0  0  0  0  0  0  0  0  0  0
    4.8691    0.7035   -2.9560 H   0  0  0  0  0  0  0  0  0  0  0  0
    4.2231    2.2932   -2.3770 H   0  0  0  0  0  0  0  0  0  0  0  0
    2.6605    0.8826   -4.1780 H   0  0  0  0  0  0  0  0  0  0  0  0
    1.1130   -1.1958   -3.0805 H   0  0  0  0  0  0  0  0  0  0  0  0
    2.8882   -1.6621   -3.3359 H   0  0  0  0  0  0  0  0  0  0  0  0
    1.5975    1.3388   -1.6663 H   0  0  0  0  0  0  0  0  0  0  0  0
   -3.5618   -0.2960    5.0201 H   0  0  0  0  0  0  0  0  0  0  0  0
   -4.1075   -0.2481    3.3551 H   0  0  0  0  0  0  0  0  0  0  0  0
   -2.1755   -2.3376    4.4729 H   0  0  0  0  0  0  0  0  0  0  0  0
   -3.9093   -2.5909    4.1739 H   0  0  0  0  0  0  0  0  0  0  0  0
   -2.8507   -2.3353    2.8403 H   0  0  0  0  0  0  0  0  0  0  0  0
    0.0525    0.5634    4.2006 H   0  0  0  0  0  0  0  0  0  0  0  0
   -1.0398    0.1782    5.5653 H   0  0  0  0  0  0  0  0  0  0  0  0
   -0.5105   -1.0819    4.4081 H   0  0  0  0  0  0  0  0  0  0  0  0
   -1.5063    2.4257    3.4732 H   0  0  0  0  0  0  0  0  0  0  0  0
   -3.1849    2.0690    3.0986 H   0  0  0  0  0  0  0  0  0  0  0  0
   -2.6272    2.0732    4.7882 H   0  0  0  0  0  0  0  0  0  0  0  0
  1 26  1  0  0  0  0
  1  5  1  0  0  0  0
  1 32  1  6  0  0  0
  2  1  1  0  0  0  0
  2 13  1  6  0  0  0
  2  3  1  0  0  0  0
  2  4  1  0  0  0  0
  3  6  1  0  0  0  0
  3  7  2  0  0  0  0
  4  8  1  0  0  0  0
  4 33  1  1  0  0  0
  4 11  1  0  0  0  0
  5  9  1  0  0  0  0
  5 34  1  0  0  0  0
  5 35  1  0  0  0  0
  6 10  2  0  0  0  0
  6 36  1  0  0  0  0
  7  9  1  0  0  0  0
  7 37  1  0  0  0  0
  8 14  1  0  0  0  0
  8 10  1  0  0  0  0
  8 38  1  1  0  0  0
  9 12  1  0  0  0  0
  9 39  1  6  0  0  0
 10 40  1  0  0  0  0
 11 15  1  0  0  0  0
 11 41  1  0  0  0  0
 11 42  1  0  0  0  0
 12 43  1  0  0  0  0
 12 44  1  0  0  0  0
 12 45  1  0  0  0  0
 14 46  1  0  0  0  0
 14 47  1  0  0  0  0
 14 48  1  0  0  0  0
 15 49  1  0  0  0  0
 15 50  1  0  0  0  0
 16 15  1  0  0  0  0
 16 17  1  0  0  0  0
 16 21  1  0  0  0  0
 16 51  1  1  0  0  0
 17 18  1  0  0  0  0
 18 19  1  0  0  0  0
 18 23  2  0  0  0  0
 19 20  1  0  0  0  0
 19 52  1  0  0  0  0
 19 53  1  0  0  0  0
 20 21  1  0  0  0  0
 20 22  1  0  0  0  0
 20 54  1  6  0  0  0
 21 55  1  0  0  0  0
 21 56  1  0  0  0  0
 22 57  1  0  0  0  0
 24 25  2  0  0  0  0
 25 30  1  0  0  0  0
 25 26  1  0  0  0  0
 27 28  1  0  0  0  0
 27 58  1  0  0  0  0
 27 59  1  0  0  0  0
 28 60  1  0  0  0  0
 28 61  1  0  0  0  0
 28 62  1  0  0  0  0
 29 63  1  0  0  0  0
 29 64  1  0  0  0  0
 29 65  1  0  0  0  0
 30 27  1  0  0  0  0
 30 29  1  0  0  0  0
 30 31  1  0  0  0  0
 31 66  1  0  0  0  0
 31 67  1  0  0  0  0
 31 68  1  0  0  0  0
M  END
>  <DRUGBANK_ID>
DB00641

>  <SECONDARY_ACCESSION_NUMBERS>
APRD00104

>  <COMMON_NAME>
Simvastatin

>  <CAS_NUMBER>
79902-63-9

>  <UNII>
AGG2FN16EV

>  <SYNONYMS>
2,2-dimethylbutyric acid, 8-ester with (4R,6R)-6-(2-((1S,2S,6R,8S,8aR)-1,2,6,7,8,8a-hexahydro-8-hydroxy-2,6-dimethyl-1-naphthyl)ethyl)tetrahydro-4-hydroxy-2H-pyran-2-one; Simvastatin; Simvastatina; Simvastatine; Simvastatinum

$$$$
