
 OpenBabel10282417233D

 73 77  0  0  0  0  0  0  0  0999 V2000
   -5.8755   -8.8301    4.9410 C   0  0  0  0  0  0  0  0  0  0  0  0
   -5.1128   -8.6169    6.0946 C   0  0  0  0  0  0  0  0  0  0  0  0
   -6.8594   -9.7794    4.8456 O   0  0  0  0  0  0  0  0  0  0  0  0
   -5.6684   -8.0175    3.8312 C   0  0  0  0  0  0  0  0  0  0  0  0
   -5.3202   -9.4513    7.2678 C   0  0  0  0  0  0  0  0  0  0  0  0
   -4.1657   -7.6114    6.1605 C   0  0  0  0  0  0  0  0  0  0  0  0
   -6.6939  -10.8744    5.7607 C   0  0  1  0  0  0  0  0  0  0  0  0
   -4.6660   -7.0474    3.8871 C   0  0  0  0  0  0  0  0  0  0  0  0
   -6.4517  -10.4004    7.1896 C   0  0  0  0  0  0  0  0  0  0  0  0
   -4.6497   -9.2926    8.2741 O   0  0  0  0  0  0  0  0  0  0  0  0
   -3.9205   -6.8653    5.0451 C   0  0  0  0  0  0  0  0  0  0  0  0
   -3.4308   -7.2807    7.2599 O   0  0  0  0  0  0  0  0  0  0  0  0
   -7.9262  -11.7720    5.6932 C   0  0  0  0  0  0  0  0  0  0  0  0
   -4.4566   -6.3218    2.7624 O   0  0  0  0  0  0  0  0  0  0  0  0
   -8.3356  -12.3277    4.4710 C   0  0  0  0  0  0  0  0  0  0  0  0
   -8.6322  -12.1391    6.8552 C   0  0  0  0  0  0  0  0  0  0  0  0
   -3.5472   -5.2279    2.8446 C   0  0  1  0  0  0  0  0  0  0  0  0
   -9.3622  -13.2807    4.4326 C   0  0  0  0  0  0  0  0  0  0  0  0
   -9.6473  -13.0845    6.8192 C   0  0  0  0  0  0  0  0  0  0  0  0
   -4.0198   -4.0529    3.7598 C   0  0  2  0  0  0  0  0  0  0  0  0
   -2.2258   -5.6397    3.1179 O   0  0  0  0  0  0  0  0  0  0  0  0
   -9.9893  -13.6675    5.6141 C   0  0  0  0  0  0  0  0  0  0  0  0
   -5.3630   -3.6123    3.5377 O   0  0  0  0  0  0  0  0  0  0  0  0
   -2.9999   -2.9114    3.7408 C   0  0  2  0  0  0  0  0  0  0  0  0
   -1.2995   -4.5911    2.8651 C   0  0  1  0  0  0  0  0  0  0  0  0
  -10.9494  -14.6323    5.6531 O   0  0  0  0  0  0  0  0  0  0  0  0
   -5.6373   -2.8307    2.3827 C   0  0  1  0  0  0  0  0  0  0  0  0
   -1.5580   -3.4176    3.8179 C   0  0  1  0  0  0  0  0  0  0  0  0
   -3.2619   -2.0024    4.8217 O   0  0  0  0  0  0  0  0  0  0  0  0
    0.0737   -5.2192    3.0611 C   0  0  0  0  0  0  0  0  0  0  0  0
   -5.4735   -3.6047    1.0636 C   0  0  1  0  0  0  0  0  0  0  0  0
   -6.9898   -2.3716    2.4580 O   0  0  0  0  0  0  0  0  0  0  0  0
   -0.6503   -2.3581    3.5167 O   0  0  0  0  0  0  0  0  0  0  0  0
    0.2832   -5.5667    4.4282 O   0  0  0  0  0  0  0  0  0  0  0  0
   -6.4232   -4.8092    1.0826 C   0  0  1  0  0  0  0  0  0  0  0  0
   -5.6631   -2.8056   -0.1093 O   0  0  0  0  0  0  0  0  0  0  0  0
   -7.9309   -3.4479    2.5308 C   0  0  2  0  0  0  0  0  0  0  0  0
   -7.8620   -4.3354    1.2734 C   0  0  2  0  0  0  0  0  0  0  0  0
   -6.2449   -5.5918   -0.0952 O   0  0  0  0  0  0  0  0  0  0  0  0
   -9.2968   -2.8097    2.6733 C   0  0  0  0  0  0  0  0  0  0  0  0
   -8.7553   -5.4429    1.3841 O   0  0  0  0  0  0  0  0  0  0  0  0
   -5.0360   -1.9192    2.3826 H   0  0  0  0  0  0  0  0  0  0  0  0
   -6.2539   -8.1563    2.9234 H   0  0  0  0  0  0  0  0  0  0  0  0
   -5.8369  -11.4764    5.4191 H   0  0  0  0  0  0  0  0  0  0  0  0
   -6.2018  -11.2517    7.8313 H   0  0  0  0  0  0  0  0  0  0  0  0
   -7.3171   -9.8585    7.5866 H   0  0  0  0  0  0  0  0  0  0  0  0
   -3.1109   -6.1554    5.1304 H   0  0  0  0  0  0  0  0  0  0  0  0
   -3.6538   -7.9160    7.9746 H   0  0  0  0  0  0  0  0  0  0  0  0
   -7.8426  -12.0363    3.5446 H   0  0  0  0  0  0  0  0  0  0  0  0
   -8.3991  -11.7253    7.8320 H   0  0  0  0  0  0  0  0  0  0  0  0
   -3.4591   -4.9111    1.8225 H   0  0  0  0  0  0  0  0  0  0  0  0
   -9.6419  -13.7193    3.4803 H   0  0  0  0  0  0  0  0  0  0  0  0
  -10.1451  -13.3759    7.7387 H   0  0  0  0  0  0  0  0  0  0  0  0
   -4.0581   -4.3870    4.8011 H   0  0  0  0  0  0  0  0  0  0  0  0
   -3.1051   -2.3143    2.8339 H   0  0  0  0  0  0  0  0  0  0  0  0
   -1.3826   -4.2618    1.8175 H   0  0  0  0  0  0  0  0  0  0  0  0
  -11.0698  -14.9915    4.7608 H   0  0  0  0  0  0  0  0  0  0  0  0
   -1.3881   -3.7182    4.8563 H   0  0  0  0  0  0  0  0  0  0  0  0
   -3.1925   -2.4871    5.6663 H   0  0  0  0  0  0  0  0  0  0  0  0
    0.1276   -6.1498    2.4853 H   0  0  0  0  0  0  0  0  0  0  0  0
    0.8709   -4.5498    2.7336 H   0  0  0  0  0  0  0  0  0  0  0  0
   -4.4564   -3.9152    0.9117 H   0  0  0  0  0  0  0  0  0  0  0  0
   -0.9361   -1.9333    2.6869 H   0  0  0  0  0  0  0  0  0  0  0  0
    0.3282   -4.7401    4.9385 H   0  0  0  0  0  0  0  0  0  0  0  0
   -6.2325   -5.4820    1.9142 H   0  0  0  0  0  0  0  0  0  0  0  0
   -6.5129   -2.3444   -0.0281 H   0  0  0  0  0  0  0  0  0  0  0  0
   -7.7482   -4.0464    3.4357 H   0  0  0  0  0  0  0  0  0  0  0  0
   -8.1530   -3.7691    0.3844 H   0  0  0  0  0  0  0  0  0  0  0  0
   -6.3176   -4.9817   -0.8501 H   0  0  0  0  0  0  0  0  0  0  0  0
  -10.0863   -3.5627    2.7183 H   0  0  0  0  0  0  0  0  0  0  0  0
   -9.3317   -2.2018    3.5832 H   0  0  0  0  0  0  0  0  0  0  0  0
   -9.4823   -2.1358    1.8311 H   0  0  0  0  0  0  0  0  0  0  0  0
   -8.4424   -6.0188    2.1044 H   0  0  0  0  0  0  0  0  0  0  0  0
  1  2  2  0  0  0  0
  1  3  1  0  0  0  0
  1  4  1  0  0  0  0
  2  5  1  0  0  0  0
  2  6  1  0  0  0  0
  3  7  1  0  0  0  0
  4  8  2  0  0  0  0
  4 43  1  0  0  0  0
  5  9  1  0  0  0  0
  5 10  2  0  0  0  0
  6 11  2  0  0  0  0
  6 12  1  0  0  0  0
  7  9  1  0  0  0  0
  7 44  1  6  0  0  0
  7 13  1  0  0  0  0
  8 14  1  0  0  0  0
  8 11  1  0  0  0  0
  9 45  1  0  0  0  0
  9 46  1  0  0  0  0
 11 47  1  0  0  0  0
 12 48  1  0  0  0  0
 13 15  2  0  0  0  0
 13 16  1  0  0  0  0
 15 18  1  0  0  0  0
 15 49  1  0  0  0  0
 16 19  2  0  0  0  0
 16 50  1  0  0  0  0
 17 14  1  0  0  0  0
 17 20  1  0  0  0  0
 17 21  1  0  0  0  0
 17 51  1  6  0  0  0
 18 22  2  0  0  0  0
 18 52  1  0  0  0  0
 19 22  1  0  0  0  0
 19 53  1  0  0  0  0
 20 23  1  0  0  0  0
 20 24  1  0  0  0  0
 20 54  1  1  0  0  0
 21 25  1  0  0  0  0
 22 26  1  0  0  0  0
 24 28  1  0  0  0  0
 24 29  1  0  0  0  0
 24 55  1  6  0  0  0
 25 28  1  0  0  0  0
 25 56  1  6  0  0  0
 25 30  1  0  0  0  0
 26 57  1  0  0  0  0
 27 31  1  0  0  0  0
 27 32  1  0  0  0  0
 27 42  1  6  0  0  0
 27 23  1  0  0  0  0
 28 33  1  0  0  0  0
 28 58  1  1  0  0  0
 29 59  1  0  0  0  0
 30 34  1  0  0  0  0
 30 60  1  0  0  0  0
 30 61  1  0  0  0  0
 31 35  1  0  0  0  0
 31 36  1  0  0  0  0
 31 62  1  6  0  0  0
 32 37  1  0  0  0  0
 33 63  1  0  0  0  0
 34 64  1  0  0  0  0
 35 38  1  0  0  0  0
 35 39  1  0  0  0  0
 35 65  1  1  0  0  0
 36 66  1  0  0  0  0
 37 40  1  0  0  0  0
 37 38  1  0  0  0  0
 37 67  1  1  0  0  0
 38 41  1  0  0  0  0
 38 68  1  6  0  0  0
 39 69  1  0  0  0  0
 40 70  1  0  0  0  0
 40 71  1  0  0  0  0
 40 72  1  0  0  0  0
 41 73  1  0  0  0  0
M  END
>  <DRUGBANK_ID>
DB16859

>  <COMMON_NAME>
Naringin

>  <CAS_NUMBER>
10236-47-2

>  <UNII>
N7TD9J649B

>  <SYNONYMS>
Aurantiin; Naringoside

$$$$
