
 OpenBabel10282417213D

 11 12  0  0  0  0  0  0  0  0999 V2000
   -0.6790    1.1930    0.0010 O   0  0  0  0  0  0  0  0  0  0  0  0
   -0.6810   -1.1920    0.0010 O   0  0  0  0  0  0  0  0  0  0  0  0
   -0.6680    3.6461    0.0075 O   0  0  0  0  0  0  0  0  0  0  0  0
    1.3460   -0.0010   -0.0020 O   0  0  0  0  0  0  0  0  0  0  0  0
    1.4374    2.3706    0.0043 O   0  0  0  0  0  0  0  0  0  0  0  0
    1.4759   -2.4388    0.0044 O   0  5  0  0  0  0  0  0  0  0  0  0
    1.5302    4.8990    0.0109 O   0  5  0  0  0  0  0  0  0  0  0  0
   -1.3890    0.0010   -0.0020 B   0  0  0  0  0  0  0  0  0  0  0  0
    0.7010    1.1550    0.0010 B   0  0  0  0  0  0  0  0  0  0  0  0
    0.7000   -1.1550    0.0010 B   0  0  0  0  0  0  0  0  0  0  0  0
    0.7529    3.6161    0.0075 B   0  0  0  0  0  0  0  0  0  0  0  0
  1  8  1  0  0  0  0
  1  9  1  0  0  0  0
  2  8  1  0  0  0  0
  2 10  1  0  0  0  0
  3  8  1  0  0  0  0
  3 11  1  0  0  0  0
  4  9  1  0  0  0  0
  4 10  1  0  0  0  0
  5  9  1  0  0  0  0
  5 11  1  0  0  0  0
  6 10  1  0  0  0  0
  7 11  1  0  0  0  0
M  CHG  2   6  -1   7  -1
M  END
>  <DRUGBANK_ID>
DB14553

>  <COMMON_NAME>
Borate ion

>  <CAS_NUMBER>
12258-53-6

>  <UNII>
44OAE30D22

>  <SYNONYMS>
Pyroborate; Tetraborate; Tetraborate ion

$$$$
