
 OpenBabel10282417213D

 23 22  0  0  0  0  0  0  0  0999 V2000
    0.8577   -0.4644   -0.0605 C   0  0  0  0  0  0  0  0  0  0  0  0
   -0.3199   -0.5721   -2.2372 C   0  0  0  0  0  0  0  0  0  0  0  0
    2.2199    6.0806   -3.5303 C   0  0  0  0  0  0  0  0  0  0  0  0
    2.3066    4.4531   -1.8448 C   0  0  0  0  0  0  0  0  0  0  0  0
    1.0288    1.5141   -1.5747 C   0  0  0  0  0  0  0  0  0  0  0  0
    0.9977    3.8187   -3.7841 C   0  0  0  0  0  0  0  0  0  0  0  0
    0.5218    0.2012   -1.3308 N   0  0  0  0  0  0  0  0  0  0  0  0
    1.7890    4.7519   -3.1245 N   0  0  0  0  0  0  0  0  0  0  0  0
    1.9815    2.1296   -0.3066 S   0  0  0  0  0  0  0  0  0  0  0  0
    0.3723    4.1801   -5.3306 S   0  0  0  0  0  0  0  0  0  0  0  0
    0.5431    2.1963   -3.1503 S   0  0  0  0  0  0  0  0  0  0  0  0
    0.4277   -1.4575    0.0343 H   0  0  0  0  0  0  0  0  0  0  0  0
    0.4832    0.1516    0.7672 H   0  0  0  0  0  0  0  0  0  0  0  0
    1.9493   -0.5555    0.0091 H   0  0  0  0  0  0  0  0  0  0  0  0
   -1.2576   -0.0412   -2.4173 H   0  0  0  0  0  0  0  0  0  0  0  0
    0.2099   -0.7489   -3.1762 H   0  0  0  0  0  0  0  0  0  0  0  0
   -0.5558   -1.5424   -1.7884 H   0  0  0  0  0  0  0  0  0  0  0  0
    1.8699    6.7842   -2.7655 H   0  0  0  0  0  0  0  0  0  0  0  0
    3.3163    6.0867   -3.5134 H   0  0  0  0  0  0  0  0  0  0  0  0
    1.8687    6.4026   -4.5097 H   0  0  0  0  0  0  0  0  0  0  0  0
    1.4057    4.3426   -1.2397 H   0  0  0  0  0  0  0  0  0  0  0  0
    2.9531    3.5964   -2.0398 H   0  0  0  0  0  0  0  0  0  0  0  0
    2.9156    5.2247   -1.3867 H   0  0  0  0  0  0  0  0  0  0  0  0
  1 12  1  0  0  0  0
  1 13  1  0  0  0  0
  1 14  1  0  0  0  0
  2 15  1  0  0  0  0
  2 16  1  0  0  0  0
  2 17  1  0  0  0  0
  3 18  1  0  0  0  0
  3 19  1  0  0  0  0
  3 20  1  0  0  0  0
  4 21  1  0  0  0  0
  4 22  1  0  0  0  0
  4 23  1  0  0  0  0
  7  1  1  0  0  0  0
  7  2  1  0  0  0  0
  7  5  1  0  0  0  0
  8  3  1  0  0  0  0
  8  4  1  0  0  0  0
  8  6  1  0  0  0  0
  9  5  2  0  0  0  0
 10  6  2  0  0  0  0
 11  5  1  0  0  0  0
 11  6  1  0  0  0  0
M  END
>  <DRUGBANK_ID>
DB14178

>  <COMMON_NAME>
Tetramethylthiuram monosulfide

>  <CAS_NUMBER>
97-74-5

>  <UNII>
01W430XXSQ

>  <SYNONYMS>
Bis(dimethylthiocarbamoyl) sulfide; TMTM; TMTMS

$$$$
