
 OpenBabel10282417153D

 43 45  0  0  0  0  0  0  0  0999 V2000
    0.9406   -0.0527    0.0675 C   0  0  0  0  0  0  0  0  0  0  0  0
   -2.1675   -1.7870   -4.7932 C   0  0  0  0  0  0  0  0  0  0  0  0
    1.7812   -0.2617   -9.8402 C   0  0  0  0  0  0  0  0  0  0  0  0
    4.0456   -4.9769   -5.9501 C   0  0  0  0  0  0  0  0  0  0  0  0
    3.3951   -3.7620   -5.3066 C   0  0  0  0  0  0  0  0  0  0  0  0
    2.4820   -0.9249   -8.8431 C   0  0  0  0  0  0  0  0  0  0  0  0
    2.4527   -1.1490   -3.7090 C   0  0  0  0  0  0  0  0  0  0  0  0
    2.1370   -1.0083   -2.3637 C   0  0  0  0  0  0  0  0  0  0  0  0
    1.1789   -1.0228  -10.8286 C   0  0  0  0  0  0  0  0  0  0  0  0
    4.9361   -4.5104   -7.0823 C   0  0  0  0  0  0  0  0  0  0  0  0
    1.8661   -1.8825   -5.9944 C   0  0  0  0  0  0  0  0  0  0  0  0
   -0.1597   -1.5859   -2.8554 C   0  0  0  0  0  0  0  0  0  0  0  0
    1.8680   -3.0006   -9.8588 C   0  0  0  0  0  0  0  0  0  0  0  0
    1.4709   -1.5536   -4.6233 C   0  0  0  0  0  0  0  0  0  0  0  0
    2.7773   -2.8265   -6.3234 C   0  0  0  0  0  0  0  0  0  0  0  0
    2.4983   -2.3215   -8.8281 C   0  0  0  0  0  0  0  0  0  0  0  0
    0.8328   -1.2407   -1.9373 C   0  0  0  0  0  0  0  0  0  0  0  0
    0.1328   -1.6680   -4.2158 C   0  0  0  0  0  0  0  0  0  0  0  0
    3.1984   -3.0618   -7.7561 C   0  0  0  0  0  0  0  0  0  0  0  0
    1.2047   -2.3758  -10.8645 N   0  0  0  0  0  0  0  0  0  0  0  0
    4.1505   -3.8577   -8.1264 N   0  0  0  0  0  0  0  0  0  0  0  0
    0.4477   -1.1953   -0.6260 O   0  0  0  0  0  0  0  0  0  0  0  0
   -0.8050   -1.8534   -5.2011 O   0  0  0  0  0  0  0  0  0  0  0  0
    1.3207   -1.2973   -6.7228 H   0  0  0  0  0  0  0  0  0  0  0  0
    0.5522   -0.0934    1.0883 H   0  0  0  0  0  0  0  0  0  0  0  0
    0.5799    0.8697   -0.4011 H   0  0  0  0  0  0  0  0  0  0  0  0
    2.0320   -0.0501    0.1355 H   0  0  0  0  0  0  0  0  0  0  0  0
   -2.4192   -2.6751   -4.2067 H   0  0  0  0  0  0  0  0  0  0  0  0
   -2.3868   -0.8688   -4.2344 H   0  0  0  0  0  0  0  0  0  0  0  0
   -2.7971   -1.7821   -5.6877 H   0  0  0  0  0  0  0  0  0  0  0  0
    1.7106    0.8197   -9.8417 H   0  0  0  0  0  0  0  0  0  0  0  0
    4.6325   -5.5244   -5.2038 H   0  0  0  0  0  0  0  0  0  0  0  0
    3.2775   -5.6617   -6.3302 H   0  0  0  0  0  0  0  0  0  0  0  0
    4.1558   -3.2237   -4.7286 H   0  0  0  0  0  0  0  0  0  0  0  0
    2.6348   -4.1208   -4.6015 H   0  0  0  0  0  0  0  0  0  0  0  0
    2.9815   -0.3578   -8.0628 H   0  0  0  0  0  0  0  0  0  0  0  0
    3.4759   -0.9740   -4.0354 H   0  0  0  0  0  0  0  0  0  0  0  0
    2.9321   -0.7703   -1.6666 H   0  0  0  0  0  0  0  0  0  0  0  0
    0.6485   -0.5462  -11.6476 H   0  0  0  0  0  0  0  0  0  0  0  0
    5.7083   -3.8200   -6.7190 H   0  0  0  0  0  0  0  0  0  0  0  0
    5.4569   -5.3703   -7.5162 H   0  0  0  0  0  0  0  0  0  0  0  0
   -1.1551   -1.7884   -2.4773 H   0  0  0  0  0  0  0  0  0  0  0  0
    1.8665   -4.0864   -9.9049 H   0  0  0  0  0  0  0  0  0  0  0  0
  1 25  1  0  0  0  0
  1 26  1  0  0  0  0
  1 27  1  0  0  0  0
  2 28  1  0  0  0  0
  2 29  1  0  0  0  0
  2 30  1  0  0  0  0
  3 31  1  0  0  0  0
  4 32  1  0  0  0  0
  4 33  1  0  0  0  0
  5  4  1  0  0  0  0
  5 34  1  0  0  0  0
  5 35  1  0  0  0  0
  6  3  2  0  0  0  0
  6 36  1  0  0  0  0
  7 37  1  0  0  0  0
  8  7  2  0  0  0  0
  8 38  1  0  0  0  0
  9  3  1  0  0  0  0
  9 39  1  0  0  0  0
 10  4  1  0  0  0  0
 10 40  1  0  0  0  0
 10 41  1  0  0  0  0
 12 42  1  0  0  0  0
 13 43  1  0  0  0  0
 14  7  1  0  0  0  0
 14 11  1  0  0  0  0
 15  5  1  0  0  0  0
 15 11  2  0  0  0  0
 16  6  1  0  0  0  0
 16 13  2  0  0  0  0
 17  8  1  0  0  0  0
 17 12  2  0  0  0  0
 18 12  1  0  0  0  0
 18 14  2  0  0  0  0
 19 15  1  0  0  0  0
 19 16  1  0  0  0  0
 20  9  2  0  0  0  0
 20 13  1  0  0  0  0
 21 10  1  0  0  0  0
 21 19  2  0  0  0  0
 22  1  1  0  0  0  0
 22 17  1  0  0  0  0
 23  2  1  0  0  0  0
 23 18  1  0  0  0  0
 24 11  1  0  0  0  0
M  END
>  <DRUGBANK_ID>
DB05708

>  <COMMON_NAME>
GTS-21

>  <CAS_NUMBER>
148372-04-7

>  <UNII>
8S399XDN2K

>  <SYNONYMS>
3-(2,4-dimethoxybenzylidene)anabaseine; Dimethoxybenzylidene anabaseine; DMXB-A; DMXB-Anabaseine

$$$$
