
 OpenBabel10282417213D

 73 77  0  0  0  0  0  0  0  0999 V2000
    1.1845    1.2248   -0.6584 C   0  0  2  0  0  0  0  0  0  0  0  0
   -0.1497    0.5657   -0.3250 C   0  0  0  0  0  0  0  0  0  0  0  0
    2.2902    0.3697   -0.2915 N   0  0  0  0  0  0  0  0  0  0  0  0
   -0.2375   -0.8420   -0.2944 C   0  0  0  0  0  0  0  0  0  0  0  0
   -1.2894    1.3302   -0.0461 C   0  0  0  0  0  0  0  0  0  0  0  0
    2.1157   -0.9276    0.3128 C   0  0  0  0  0  0  0  0  0  0  0  0
   -1.4709   -1.4466   -0.0651 C   0  0  0  0  0  0  0  0  0  0  0  0
    1.0327   -1.6449   -0.4571 C   0  0  0  0  0  0  0  0  0  0  0  0
   -2.5200    0.7409    0.2129 C   0  0  0  0  0  0  0  0  0  0  0  0
   -2.6176   -0.6645    0.1673 C   0  0  0  0  0  0  0  0  0  0  0  0
   -3.6265    1.4901    0.5092 O   0  0  0  0  0  0  0  0  0  0  0  0
   -3.7556   -1.4174    0.3333 O   0  0  0  0  0  0  0  0  0  0  0  0
   -4.9655   -0.6948    0.5138 C   0  0  0  0  0  0  0  0  0  0  0  0
    6.7731    9.1715    6.5785 C   0  0  0  0  0  0  0  0  0  0  0  0
    9.1372    8.6078    3.6353 C   0  0  0  0  0  0  0  0  0  0  0  0
    7.9603    8.3600    4.3649 O   0  0  0  0  0  0  0  0  0  0  0  0
    6.8313    7.7377    3.9051 C   0  0  0  0  0  0  0  0  0  0  0  0
    5.8406    7.6840    4.9060 C   0  0  0  0  0  0  0  0  0  0  0  0
    5.7865    8.2456    6.1549 O   0  0  0  0  0  0  0  0  0  0  0  0
    6.5721    7.1253    2.5920 C   0  0  0  0  0  0  0  0  0  0  0  0
    5.2796    6.5388    2.2671 C   0  0  0  0  0  0  0  0  0  0  0  0
    4.5796    6.2739    3.4400 C   0  0  0  0  0  0  0  0  0  0  0  0
    4.7488    6.8798    4.6781 C   0  0  0  0  0  0  0  0  0  0  0  0
    4.6704    5.5876    0.9395 C   0  0  1  0  0  0  0  0  0  0  0  0
    5.3789    4.3520    1.2639 N   0  0  3  0  0  0  0  0  0  0  0  0
    4.6983    4.0283    2.5758 C   0  0  0  0  0  0  0  0  0  0  0  0
    3.7838    5.0644    3.3284 C   0  0  0  0  0  0  0  0  0  0  0  0
    2.9772    4.9169    0.4740 C   0  0  0  0  0  0  0  0  0  0  0  0
    2.7536    3.3438    0.0543 C   0  0  0  0  0  0  0  0  0  0  0  0
    3.8853    2.6193    0.3349 C   0  0  0  0  0  0  0  0  0  0  0  0
    5.1411    3.4137    0.1393 C   0  0  0  0  0  0  0  0  0  0  0  0
    1.3487    2.6754   -0.0243 C   0  0  0  0  0  0  0  0  0  0  0  0
    3.8983    1.5465    1.4825 C   0  0  0  0  0  0  0  0  0  0  0  0
    5.0264    6.0848    0.0307 H   0  0  0  0  0  0  0  0  0  0  0  0
    2.8241    1.6624    2.6424 C   0  0  0  0  0  0  0  0  0  0  0  0
   -3.5350    2.9067    0.5674 C   0  0  0  0  0  0  0  0  0  0  0  0
    1.2210    1.3209   -1.7534 H   0  0  0  0  0  0  0  0  0  0  0  0
    3.1441    0.5280   -0.8080 H   0  0  0  0  0  0  0  0  0  0  0  0
   -1.2072    2.4066   -0.0053 H   0  0  0  0  0  0  0  0  0  0  0  0
    3.0721   -1.4626    0.2637 H   0  0  0  0  0  0  0  0  0  0  0  0
    1.8791   -0.8531    1.3873 H   0  0  0  0  0  0  0  0  0  0  0  0
   -1.5416   -2.5320   -0.0514 H   0  0  0  0  0  0  0  0  0  0  0  0
    1.3237   -1.6739   -1.5136 H   0  0  0  0  0  0  0  0  0  0  0  0
    0.9449   -2.6714   -0.0911 H   0  0  0  0  0  0  0  0  0  0  0  0
   -4.9440   -0.1469    1.4625 H   0  0  0  0  0  0  0  0  0  0  0  0
   -5.1681   -0.0398   -0.3426 H   0  0  0  0  0  0  0  0  0  0  0  0
   -5.7909   -1.4049    0.5743 H   0  0  0  0  0  0  0  0  0  0  0  0
    7.7152    8.6560    6.7834 H   0  0  0  0  0  0  0  0  0  0  0  0
    6.8950    9.9996    5.8739 H   0  0  0  0  0  0  0  0  0  0  0  0
    6.4385    9.6079    7.5274 H   0  0  0  0  0  0  0  0  0  0  0  0
    9.7180    7.6913    3.5244 H   0  0  0  0  0  0  0  0  0  0  0  0
    8.9325    9.1042    2.6885 H   0  0  0  0  0  0  0  0  0  0  0  0
    9.7528    9.2984    4.2372 H   0  0  0  0  0  0  0  0  0  0  0  0
    7.4244    7.0417    1.9162 H   0  0  0  0  0  0  0  0  0  0  0  0
    4.0419    6.6714    5.4756 H   0  0  0  0  0  0  0  0  0  0  0  0
    3.8618    3.4724    2.2992 H   0  0  0  0  0  0  0  0  0  0  0  0
    5.3394    3.4331    3.2329 H   0  0  0  0  0  0  0  0  0  0  0  0
    2.9375    5.4517    2.7752 H   0  0  0  0  0  0  0  0  0  0  0  0
    3.3235    4.6526    4.2249 H   0  0  0  0  0  0  0  0  0  0  0  0
    2.2613    4.9304    1.3025 H   0  0  0  0  0  0  0  0  0  0  0  0
    2.5266    5.5238   -0.3141 H   0  0  0  0  0  0  0  0  0  0  0  0
    5.9860    2.7669   -0.1248 H   0  0  0  0  0  0  0  0  0  0  0  0
    5.0305    3.9994   -0.8021 H   0  0  0  0  0  0  0  0  0  0  0  0
    0.6527    3.3494   -0.5398 H   0  0  0  0  0  0  0  0  0  0  0  0
    0.9086    2.6049    0.9705 H   0  0  0  0  0  0  0  0  0  0  0  0
    3.9509    0.5310    1.1161 H   0  0  0  0  0  0  0  0  0  0  0  0
    4.8891    1.6106    1.9475 H   0  0  0  0  0  0  0  0  0  0  0  0
    1.8435    2.0173    2.3499 H   0  0  0  0  0  0  0  0  0  0  0  0
    2.6901    0.7190    3.1572 H   0  0  0  0  0  0  0  0  0  0  0  0
    3.0834    2.3655    3.4448 H   0  0  0  0  0  0  0  0  0  0  0  0
   -2.8844    3.2258    1.3880 H   0  0  0  0  0  0  0  0  0  0  0  0
   -3.2098    3.3272   -0.3895 H   0  0  0  0  0  0  0  0  0  0  0  0
   -4.5388    3.2934    0.7700 H   0  0  0  0  0  0  0  0  0  0  0  0
  1  2  1  0  0  0  0
  1  3  1  0  0  0  0
  1 32  1  0  0  0  0
  1 37  1  6  0  0  0
  2  4  2  0  0  0  0
  2  5  1  0  0  0  0
  3  6  1  0  0  0  0
  3 38  1  0  0  0  0
  4  7  1  0  0  0  0
  4  8  1  0  0  0  0
  5  9  2  0  0  0  0
  5 39  1  0  0  0  0
  6  8  1  0  0  0  0
  6 40  1  0  0  0  0
  6 41  1  0  0  0  0
  7 10  2  0  0  0  0
  7 42  1  0  0  0  0
  8 43  1  0  0  0  0
  8 44  1  0  0  0  0
  9 11  1  0  0  0  0
  9 10  1  0  0  0  0
 10 12  1  0  0  0  0
 11 36  1  0  0  0  0
 12 13  1  0  0  0  0
 13 45  1  0  0  0  0
 13 46  1  0  0  0  0
 13 47  1  0  0  0  0
 14 19  1  0  0  0  0
 14 48  1  0  0  0  0
 14 49  1  0  0  0  0
 14 50  1  0  0  0  0
 15 16  1  0  0  0  0
 15 51  1  0  0  0  0
 15 52  1  0  0  0  0
 15 53  1  0  0  0  0
 16 17  1  0  0  0  0
 17 18  1  0  0  0  0
 17 20  2  0  0  0  0
 18 19  1  0  0  0  0
 18 23  2  0  0  0  0
 20 21  1  0  0  0  0
 20 54  1  0  0  0  0
 21 22  2  0  0  0  0
 21 24  1  0  0  0  0
 22 23  1  0  0  0  0
 22 27  1  0  0  0  0
 23 55  1  0  0  0  0
 24 25  1  0  0  0  0
 24 28  1  0  0  0  0
 24 34  1  6  0  0  0
 25 26  1  0  0  0  0
 25 31  1  0  0  0  0
 26 27  1  0  0  0  0
 26 56  1  0  0  0  0
 26 57  1  0  0  0  0
 27 58  1  0  0  0  0
 27 59  1  0  0  0  0
 28 29  1  0  0  0  0
 28 60  1  0  0  0  0
 28 61  1  0  0  0  0
 29 30  2  0  0  0  0
 29 32  1  0  0  0  0
 30 31  1  0  0  0  0
 30 33  1  0  0  0  0
 31 62  1  0  0  0  0
 31 63  1  0  0  0  0
 32 64  1  0  0  0  0
 32 65  1  0  0  0  0
 33 35  1  0  0  0  0
 33 66  1  0  0  0  0
 33 67  1  0  0  0  0
 35 68  1  0  0  0  0
 35 69  1  0  0  0  0
 35 70  1  0  0  0  0
 36 71  1  0  0  0  0
 36 72  1  0  0  0  0
 36 73  1  0  0  0  0
M  END
>  <DRUGBANK_ID>
DB13865

>  <COMMON_NAME>
Dehydroemetine

>  <CAS_NUMBER>
4914-30-1

>  <UNII>
7S79QT1T91

>  <SYNONYMS>
Dehydroemetine

$$$$
