DHG
 OpenBabel10282417163D

 70 69  0  0  0  0  0  0  0  0999 V2000
    1.2183   -0.3248    0.2580 C   0  0  0  0  0  0  0  0  0  0  0  0
    0.3273   -1.3166   -0.3958 C   0  0  0  0  0  0  0  0  0  0  0  0
   -0.6027   -1.7418    0.7387 C   0  0  0  0  0  0  0  0  0  0  0  0
   -1.6254   -0.6486    1.0727 C   0  0  0  0  0  0  0  0  0  0  0  0
   -2.4456   -0.3064   -0.1629 C   0  0  0  0  0  0  0  0  0  0  0  0
   -3.1950   -1.5599   -0.6055 C   0  0  0  0  0  0  0  0  0  0  0  0
   -4.0791   -2.0518    0.5472 C   0  0  0  0  0  0  0  0  0  0  0  0
   -5.0645   -0.9486    0.9488 C   0  0  0  0  0  0  0  0  0  0  0  0
   -5.9535   -0.5884   -0.2455 C   0  0  0  0  0  0  0  0  0  0  0  0
   -6.7584   -1.8092   -0.7038 C   0  0  0  0  0  0  0  0  0  0  0  0
   -7.6401   -2.3480    0.4237 C   0  0  0  0  0  0  0  0  0  0  0  0
   -8.6256   -1.2842    0.8788 C   0  0  0  0  0  0  0  0  0  0  0  0
    0.7899    0.5427    1.0466 O   0  0  0  0  0  0  0  0  0  0  0  0
    2.5414   -0.2984    0.0761 N   0  0  0  0  0  0  0  0  0  0  0  0
    4.2277   -0.9177   -1.6352 C   0  0  0  0  0  0  0  0  0  0  0  0
    3.3995   -1.3489   -0.4294 C   0  0  1  0  0  0  0  0  0  0  0  0
    4.2615   -1.7489    0.7649 C   0  0  0  0  0  0  0  0  0  0  0  0
    3.3849   -2.1308    1.9721 C   0  0  0  0  0  0  0  0  0  0  0  0
    2.3947   -3.2452    1.6445 C   0  0  0  0  0  0  0  0  0  0  0  0
    3.0777   -4.4912    1.1349 C   0  0  0  0  0  0  0  0  0  0  0  0
    5.5506    2.2363   -0.4488 O   0  0  0  0  0  0  0  0  0  0  0  0
    3.9338    1.8434   -2.4029 O   0  0  0  0  0  0  0  0  0  0  0  0
    5.0930    0.1546   -1.3026 O   0  0  0  0  0  0  0  0  0  0  0  0
    4.2280    1.5698   -0.8108 P   0  0  1  0  0  0  0  0  0  0  0  0
    3.3630    2.9850   -0.3190 O   0  0  0  0  0  0  0  0  0  0  0  0
    2.0054    2.7782   -0.0153 C   0  0  0  0  0  0  0  0  0  0  0  0
    1.1778    2.3036   -1.2328 C   0  0  0  0  0  0  0  0  0  0  0  0
    1.6123    1.1204   -1.9075 O   0  0  0  0  0  0  0  0  0  0  0  0
    2.7993   -2.1831   -0.7822 H   0  0  0  0  0  0  0  0  0  0  0  0
   -0.1661   -0.8761   -1.2649 H   0  0  0  0  0  0  0  0  0  0  0  0
    0.8571   -2.1746   -0.8028 H   0  0  0  0  0  0  0  0  0  0  0  0
   -1.0757   -2.6922    0.4783 H   0  0  0  0  0  0  0  0  0  0  0  0
   -0.0346   -1.9487    1.6522 H   0  0  0  0  0  0  0  0  0  0  0  0
   -2.2228   -0.9846    1.9233 H   0  0  0  0  0  0  0  0  0  0  0  0
   -1.2057    0.2750    1.4677 H   0  0  0  0  0  0  0  0  0  0  0  0
   -3.1118    0.5304    0.0642 H   0  0  0  0  0  0  0  0  0  0  0  0
   -1.8373    0.0856   -0.9817 H   0  0  0  0  0  0  0  0  0  0  0  0
   -3.7671   -1.3458   -1.5108 H   0  0  0  0  0  0  0  0  0  0  0  0
   -2.5128   -2.3563   -0.9171 H   0  0  0  0  0  0  0  0  0  0  0  0
   -4.5809   -2.9776    0.2594 H   0  0  0  0  0  0  0  0  0  0  0  0
   -3.4948   -2.3569    1.4210 H   0  0  0  0  0  0  0  0  0  0  0  0
   -5.6447   -1.2690    1.8177 H   0  0  0  0  0  0  0  0  0  0  0  0
   -4.5549   -0.0491    1.3108 H   0  0  0  0  0  0  0  0  0  0  0  0
   -6.6030    0.2500    0.0164 H   0  0  0  0  0  0  0  0  0  0  0  0
   -5.3652   -0.2022   -1.0848 H   0  0  0  0  0  0  0  0  0  0  0  0
   -7.3669   -1.5419   -1.5723 H   0  0  0  0  0  0  0  0  0  0  0  0
   -6.0933   -2.6068   -1.0575 H   0  0  0  0  0  0  0  0  0  0  0  0
   -8.1724   -3.2386    0.0795 H   0  0  0  0  0  0  0  0  0  0  0  0
   -7.0364   -2.6806    1.2768 H   0  0  0  0  0  0  0  0  0  0  0  0
   -9.2522   -0.9765    0.0368 H   0  0  0  0  0  0  0  0  0  0  0  0
   -9.2582   -1.6608    1.6829 H   0  0  0  0  0  0  0  0  0  0  0  0
   -8.1208   -0.3927    1.2655 H   0  0  0  0  0  0  0  0  0  0  0  0
    2.9167    0.3133    0.7929 H   0  0  0  0  0  0  0  0  0  0  0  0
    4.8400   -1.7551   -1.9808 H   0  0  0  0  0  0  0  0  0  0  0  0
    3.5894   -0.6245   -2.4767 H   0  0  0  0  0  0  0  0  0  0  0  0
    4.9203   -2.5689    0.4744 H   0  0  0  0  0  0  0  0  0  0  0  0
    4.9109   -0.9145    1.0611 H   0  0  0  0  0  0  0  0  0  0  0  0
    4.0257   -2.4247    2.8050 H   0  0  0  0  0  0  0  0  0  0  0  0
    2.8262   -1.2542    2.3327 H   0  0  0  0  0  0  0  0  0  0  0  0
    1.7597   -3.4529    2.5097 H   0  0  0  0  0  0  0  0  0  0  0  0
    1.7139   -2.9424    0.8603 H   0  0  0  0  0  0  0  0  0  0  0  0
    3.7551   -4.8758    1.8969 H   0  0  0  0  0  0  0  0  0  0  0  0
    2.3324   -5.2465    0.8783 H   0  0  0  0  0  0  0  0  0  0  0  0
    3.6484   -4.2907    0.2220 H   0  0  0  0  0  0  0  0  0  0  0  0
    4.7623    1.6633   -2.8923 H   0  0  0  0  0  0  0  0  0  0  0  0
    2.0360    2.1565    0.8724 H   0  0  0  0  0  0  0  0  0  0  0  0
    1.5766    3.7179    0.3422 H   0  0  0  0  0  0  0  0  0  0  0  0
    0.1460    2.1148   -0.9272 H   0  0  0  0  0  0  0  0  0  0  0  0
    1.1885    3.0791   -1.9959 H   0  0  0  0  0  0  0  0  0  0  0  0
    2.4272    1.3568   -2.3983 H   0  0  0  0  0  0  0  0  0  0  0  0
  1  2  1  0  0  0  0
  1 13  2  0  0  0  0
  1 14  1  0  0  0  0
  2  3  1  0  0  0  0
  2 30  1  0  0  0  0
  2 31  1  0  0  0  0
  3  4  1  0  0  0  0
  3 32  1  0  0  0  0
  3 33  1  0  0  0  0
  4  5  1  0  0  0  0
  4 34  1  0  0  0  0
  4 35  1  0  0  0  0
  5  6  1  0  0  0  0
  5 36  1  0  0  0  0
  5 37  1  0  0  0  0
  6  7  1  0  0  0  0
  6 38  1  0  0  0  0
  6 39  1  0  0  0  0
  7  8  1  0  0  0  0
  7 40  1  0  0  0  0
  7 41  1  0  0  0  0
  8  9  1  0  0  0  0
  8 42  1  0  0  0  0
  8 43  1  0  0  0  0
  9 10  1  0  0  0  0
  9 44  1  0  0  0  0
  9 45  1  0  0  0  0
 10 11  1  0  0  0  0
 10 46  1  0  0  0  0
 10 47  1  0  0  0  0
 11 12  1  0  0  0  0
 11 48  1  0  0  0  0
 11 49  1  0  0  0  0
 12 50  1  0  0  0  0
 12 51  1  0  0  0  0
 12 52  1  0  0  0  0
 14 53  1  0  0  0  0
 15 16  1  0  0  0  0
 15 23  1  0  0  0  0
 15 54  1  0  0  0  0
 15 55  1  0  0  0  0
 16 14  1  0  0  0  0
 16 17  1  0  0  0  0
 16 29  1  6  0  0  0
 17 18  1  0  0  0  0
 17 56  1  0  0  0  0
 17 57  1  0  0  0  0
 18 19  1  0  0  0  0
 18 58  1  0  0  0  0
 18 59  1  0  0  0  0
 19 20  1  0  0  0  0
 19 60  1  0  0  0  0
 19 61  1  0  0  0  0
 20 62  1  0  0  0  0
 20 63  1  0  0  0  0
 20 64  1  0  0  0  0
 22 65  1  0  0  0  0
 24 21  2  6  0  0  0
 24 22  1  0  0  0  0
 24 23  1  0  0  0  0
 24 25  1  0  0  0  0
 25 26  1  0  0  0  0
 26 27  1  0  0  0  0
 26 66  1  0  0  0  0
 26 67  1  0  0  0  0
 27 28  1  0  0  0  0
 27 68  1  0  0  0  0
 27 69  1  0  0  0  0
 28 70  1  0  0  0  0
M  END
>  <DRUGBANK_ID>
DB07657

>  <COMMON_NAME>
PHOSPHONIC ACID 2-DODECANOYLAMINO-HEXYL ESTER PROPYL ESTER

$$$$
