
 OpenBabel10282417123D

 51 51  0  0  1  0  0  0  0  0999 V2000
    1.2785   -0.0506    0.3730 C   0  0  0  0  0  0  0  0  0  0  0  0
    0.3503   -8.7946   -2.0946 C   0  0  0  0  0  0  0  0  0  0  0  0
    0.4102   -1.1371    0.5365 C   0  0  0  0  0  0  0  0  0  0  0  0
    1.2847   -7.5794   -2.0431 C   0  0  0  0  0  0  0  0  0  0  0  0
   -0.5868    1.3920    0.0258 C   0  0  0  0  0  0  0  0  0  0  0  0
    3.2379   -2.1052   -1.3436 C   0  0  0  0  0  0  0  0  0  0  0  0
   -0.8529   -3.9351    0.0976 C   0  0  0  0  0  0  0  0  0  0  0  0
    0.7874    1.2016    0.0676 C   0  0  0  0  0  0  0  0  0  0  0  0
   -0.5240   -8.8788   -3.3636 C   0  0  1  0  0  0  0  0  0  0  0  0
   -0.0706   -4.1247   -1.2125 C   0  0  1  0  0  0  0  0  0  0  0  0
   -1.4613    0.2726    0.0574 C   0  0  0  0  0  0  0  0  0  0  0  0
   -0.9652   -1.0336    0.2765 C   0  0  0  0  0  0  0  0  0  0  0  0
    0.5093   -6.2901   -2.1728 C   0  0  0  0  0  0  0  0  0  0  0  0
    4.0707   -2.0640   -0.0481 C   0  0  0  0  0  0  0  0  0  0  0  0
    0.9194   -3.0120   -1.6616 C   0  0  0  0  0  0  0  0  0  0  0  0
    0.3437   -8.9160   -4.6497 C   0  0  0  0  0  0  0  0  0  0  0  0
   -1.4249  -10.0464   -3.2607 N   0  0  0  0  0  0  0  0  0  0  0  0
    2.2398   -3.1744   -1.2702 N   0  0  0  0  0  0  0  0  0  0  0  0
    0.6547   -5.4027   -1.1400 N   0  0  0  0  0  0  0  0  0  0  0  0
    1.7253    2.2862   -0.2463 N   0  0  0  0  0  0  0  0  0  0  0  0
   -2.8907    0.5729   -0.1814 N   0  0  0  0  0  0  0  0  0  0  0  0
   -0.2106   -6.0446   -3.1295 O   0  0  0  0  0  0  0  0  0  0  0  0
    5.4088   -2.0376   -0.2283 O   0  0  0  0  0  0  0  0  0  0  0  0
    3.5893   -2.0858    1.0760 O   0  0  0  0  0  0  0  0  0  0  0  0
    0.5323   -1.9732   -2.1930 O   0  0  0  0  0  0  0  0  0  0  0  0
    0.1434  -10.0116   -5.4257 O   0  0  0  0  0  0  0  0  0  0  0  0
    1.1663   -8.0795   -4.9596 O   0  0  0  0  0  0  0  0  0  0  0  0
    1.2631    3.4267   -0.3667 O   0  0  0  0  0  0  0  0  0  0  0  0
    2.9199    1.9865   -0.4048 O   0  0  0  0  0  0  0  0  0  0  0  0
   -3.2097    1.7699   -0.2101 O   0  0  0  0  0  0  0  0  0  0  0  0
   -3.7011   -0.3426   -0.3554 O   0  0  0  0  0  0  0  0  0  0  0  0
   -1.9813   -2.5127    0.2378 S   0  0  0  0  0  0  0  0  0  0  0  0
   -1.1981   -8.0234   -3.4363 H   0  0  0  0  0  0  0  0  0  0  0  0
   -0.8100   -4.1803   -2.0203 H   0  0  0  0  0  0  0  0  0  0  0  0
    2.3481   -0.1936    0.4570 H   0  0  0  0  0  0  0  0  0  0  0  0
    0.9633   -9.7012   -2.0066 H   0  0  0  0  0  0  0  0  0  0  0  0
   -0.2954   -8.7671   -1.2046 H   0  0  0  0  0  0  0  0  0  0  0  0
    0.8777   -2.0891    0.7704 H   0  0  0  0  0  0  0  0  0  0  0  0
    2.0207   -7.6015   -2.8506 H   0  0  0  0  0  0  0  0  0  0  0  0
    1.8684   -7.5941   -1.1163 H   0  0  0  0  0  0  0  0  0  0  0  0
   -0.9771    2.4040   -0.0473 H   0  0  0  0  0  0  0  0  0  0  0  0
    3.8738   -2.2761   -2.2126 H   0  0  0  0  0  0  0  0  0  0  0  0
    2.7567   -1.1351   -1.4929 H   0  0  0  0  0  0  0  0  0  0  0  0
   -0.2251   -3.9905    0.9908 H   0  0  0  0  0  0  0  0  0  0  0  0
   -1.5322   -4.7998    0.1837 H   0  0  0  0  0  0  0  0  0  0  0  0
   -2.1203  -10.0401   -4.0043 H   0  0  0  0  0  0  0  0  0  0  0  0
   -0.9312  -10.9275   -3.1698 H   0  0  0  0  0  0  0  0  0  0  0  0
    2.5671   -4.1169   -1.1143 H   0  0  0  0  0  0  0  0  0  0  0  0
    1.2561   -5.6075   -0.3517 H   0  0  0  0  0  0  0  0  0  0  0  0
    5.7230   -2.0453   -1.1508 H   0  0  0  0  0  0  0  0  0  0  0  0
   -0.5527  -10.5900   -5.0735 H   0  0  0  0  0  0  0  0  0  0  0  0
  1 35  1  0  0  0  0
  2 36  1  0  0  0  0
  2 37  1  0  0  0  0
  3  1  2  0  0  0  0
  3 38  1  0  0  0  0
  4  2  1  0  0  0  0
  4 39  1  0  0  0  0
  4 40  1  0  0  0  0
  5 41  1  0  0  0  0
  6 42  1  0  0  0  0
  6 43  1  0  0  0  0
  7 44  1  0  0  0  0
  7 45  1  0  0  0  0
  8  1  1  0  0  0  0
  8  5  2  0  0  0  0
  9  2  1  0  0  0  0
  9 17  1  0  0  0  0
  9 33  1  6  0  0  0
 10  7  1  0  0  0  0
 10 19  1  0  0  0  0
 10 34  1  6  0  0  0
 11  5  1  0  0  0  0
 12  3  1  0  0  0  0
 12 11  2  0  0  0  0
 13  4  1  0  0  0  0
 14  6  1  0  0  0  0
 15 10  1  0  0  0  0
 16  9  1  0  0  0  0
 17 46  1  0  0  0  0
 17 47  1  0  0  0  0
 18  6  1  0  0  0  0
 18 15  1  0  0  0  0
 18 48  1  0  0  0  0
 19 13  1  0  0  0  0
 19 49  1  0  0  0  0
 20  8  1  0  0  0  0
 21 11  1  0  0  0  0
 22 13  2  0  0  0  0
 23 14  1  0  0  0  0
 23 50  1  0  0  0  0
 24 14  2  0  0  0  0
 25 15  2  0  0  0  0
 26 16  1  0  0  0  0
 26 51  1  0  0  0  0
 27 16  2  0  0  0  0
 28 20  2  0  0  0  0
 29 20  2  0  0  0  0
 30 21  2  0  0  0  0
 31 21  2  0  0  0  0
 32  7  1  0  0  0  0
 32 12  1  0  0  0  0
M  END
>  <DRUGBANK_ID>
DB02458

>  <SECONDARY_ACCESSION_NUMBERS>
EXPT01572; DB04412

>  <COMMON_NAME>
S-(2,4-dinitrophenyl)glutathione

>  <CAS_NUMBER>
26289-39-4

>  <UNII>
HL4G8D2C8T

>  <SYNONYMS>
dinitrophenyl-S-glutathione; DNP-S-glutathione; DNP-SGc

$$$$
