
 OpenBabel10282417133D

 63 63  0  0  0  0  0  0  0  0999 V2000
    1.1851    0.0749   -0.1493 O   0  0  0  0  0  0  0  0  0  0  0  0
    4.9188    5.1131   -2.5167 O   0  0  0  0  0  0  0  0  0  0  0  0
    1.4275   -2.9890    2.9326 O   0  0  0  0  0  0  0  0  0  0  0  0
    3.5817   -2.3950    2.8518 O   0  0  0  0  0  0  0  0  0  0  0  0
    0.8085   -4.8693   -0.9162 O   0  0  0  0  0  0  0  0  0  0  0  0
    3.2555    1.0703   -0.3026 N   0  0  0  0  0  0  0  0  0  0  0  0
    3.3450    3.6404   -1.7353 N   0  0  0  0  0  0  0  0  0  0  0  0
    3.0357   -1.1176    0.2549 N   0  0  0  0  0  0  0  0  0  0  0  0
    3.4135    6.0737   -1.2435 N   0  0  0  0  0  0  0  0  0  0  0  0
    4.3268   -6.7128    0.3831 N   0  0  0  0  0  0  0  0  0  0  0  0
    3.2118   -5.9722   -1.5903 N   0  0  0  0  0  0  0  0  0  0  0  0
    4.4581   -7.6685   -1.7095 N   0  0  0  0  0  0  0  0  0  0  0  0
    2.6431    2.2592    0.1474 C   0  0  0  0  0  0  0  0  0  0  0  0
    4.3697    1.3402   -1.2676 C   0  0  0  0  0  0  0  0  0  0  0  0
    2.1716    2.9829   -1.0938 C   0  0  0  0  0  0  0  0  0  0  0  0
    4.0763    2.4953   -2.3407 C   0  0  0  0  0  0  0  0  0  0  0  0
    2.6335   -3.3947   -0.1784 C   0  0  1  0  0  0  0  0  0  0  0  0
    2.2790   -2.2587    0.7533 C   0  0  1  0  0  0  0  0  0  0  0  0
    2.4123   -0.0039   -0.1679 C   0  0  0  0  0  0  0  0  0  0  0  0
    2.3007    6.4406   -0.3221 C   0  0  0  0  0  0  0  0  0  0  0  0
    4.2145   -3.6669   -0.2033 C   0  0  0  0  0  0  0  0  0  0  0  0
    3.8954    4.9261   -1.8386 C   0  0  0  0  0  0  0  0  0  0  0  0
    4.8051   -4.3855    1.0025 C   0  0  0  0  0  0  0  0  0  0  0  0
    2.7350    6.8538    1.0819 C   0  0  0  0  0  0  0  0  0  0  0  0
    1.1991    7.2884   -0.9638 C   0  0  0  0  0  0  0  0  0  0  0  0
    1.5790    5.2086   -0.0510 C   0  0  0  0  0  0  0  0  0  0  0  0
    2.4967   -2.5342    2.2550 C   0  0  0  0  0  0  0  0  0  0  0  0
    1.5084   -4.4682    0.0142 C   0  0  0  0  0  0  0  0  0  0  0  0
    4.0691   -5.6661    1.3753 C   0  0  0  0  0  0  0  0  0  0  0  0
    4.0035   -6.7558   -0.8469 C   0  0  0  0  0  0  0  0  0  0  0  0
    4.0325   -1.0510    0.4065 H   0  0  0  0  0  0  0  0  0  0  0  0
    3.9954    6.8682   -1.5028 H   0  0  0  0  0  0  0  0  0  0  0  0
    3.4884   -5.6335   -2.5009 H   0  0  0  0  0  0  0  0  0  0  0  0
    2.9679   -5.1901   -1.0614 H   0  0  0  0  0  0  0  0  0  0  0  0
    4.7953   -8.5380   -1.3368 H   0  0  0  0  0  0  0  0  0  0  0  0
    4.0713   -7.6356   -2.6404 H   0  0  0  0  0  0  0  0  0  0  0  0
    0.5589   -2.7302    2.5641 H   0  0  0  0  0  0  0  0  0  0  0  0
    1.7957    2.0704    0.8206 H   0  0  0  0  0  0  0  0  0  0  0  0
    3.3853    2.7975    0.7491 H   0  0  0  0  0  0  0  0  0  0  0  0
    5.1831    1.7170   -0.6384 H   0  0  0  0  0  0  0  0  0  0  0  0
    4.6708    0.4157   -1.7628 H   0  0  0  0  0  0  0  0  0  0  0  0
    1.6988    2.4016   -1.8922 H   0  0  0  0  0  0  0  0  0  0  0  0
    1.2481    3.3887   -0.7330 H   0  0  0  0  0  0  0  0  0  0  0  0
    3.3842    2.0962   -3.0972 H   0  0  0  0  0  0  0  0  0  0  0  0
    4.9813    2.7876   -2.8813 H   0  0  0  0  0  0  0  0  0  0  0  0
    2.4308   -3.0487   -1.2116 H   0  0  0  0  0  0  0  0  0  0  0  0
    1.2042   -2.0660    0.6494 H   0  0  0  0  0  0  0  0  0  0  0  0
    4.5732   -4.1870   -1.1009 H   0  0  0  0  0  0  0  0  0  0  0  0
    4.7592   -2.7239   -0.3527 H   0  0  0  0  0  0  0  0  0  0  0  0
    5.8654   -4.6169    0.8462 H   0  0  0  0  0  0  0  0  0  0  0  0
    4.8470   -3.6844    1.8272 H   0  0  0  0  0  0  0  0  0  0  0  0
    3.0791    7.8814    1.1396 H   0  0  0  0  0  0  0  0  0  0  0  0
    1.8866    6.7333    1.7757 H   0  0  0  0  0  0  0  0  0  0  0  0
    3.5229    6.1850    1.4582 H   0  0  0  0  0  0  0  0  0  0  0  0
    0.9503    6.9084   -1.9670 H   0  0  0  0  0  0  0  0  0  0  0  0
    0.2730    7.1876   -0.3733 H   0  0  0  0  0  0  0  0  0  0  0  0
    1.4490    8.3410   -1.0358 H   0  0  0  0  0  0  0  0  0  0  0  0
    1.2287    4.9799   -1.0699 H   0  0  0  0  0  0  0  0  0  0  0  0
    2.3431    4.5822    0.4154 H   0  0  0  0  0  0  0  0  0  0  0  0
    0.7129    5.1618    0.5991 H   0  0  0  0  0  0  0  0  0  0  0  0
    1.3770   -4.9333    0.9987 H   0  0  0  0  0  0  0  0  0  0  0  0
    4.4577   -5.9956    2.3485 H   0  0  0  0  0  0  0  0  0  0  0  0
    3.0247   -5.4980    1.6184 H   0  0  0  0  0  0  0  0  0  0  0  0
  1 19  2  0  0  0  0
  2 22  2  0  0  0  0
  3 27  1  0  0  0  0
  3 37  1  0  0  0  0
  4 27  2  0  0  0  0
  5 28  2  0  0  0  0
  6 13  1  0  0  0  0
  6 14  1  0  0  0  0
  6 19  1  0  0  0  0
  7 15  1  0  0  0  0
  7 16  1  0  0  0  0
  7 22  1  0  0  0  0
  8 19  1  0  0  0  0
  8 31  1  0  0  0  0
  9 20  1  0  0  0  0
  9 22  1  0  0  0  0
  9 32  1  0  0  0  0
 10 29  1  0  0  0  0
 10 30  2  0  0  0  0
 11 30  1  0  0  0  0
 11 33  1  0  0  0  0
 11 34  1  0  0  0  0
 12 30  1  0  0  0  0
 12 35  1  0  0  0  0
 12 36  1  0  0  0  0
 13 15  1  0  0  0  0
 13 38  1  0  0  0  0
 13 39  1  0  0  0  0
 14 16  1  0  0  0  0
 14 40  1  0  0  0  0
 14 41  1  0  0  0  0
 15 42  1  0  0  0  0
 15 43  1  0  0  0  0
 16 44  1  0  0  0  0
 16 45  1  0  0  0  0
 17 18  1  0  0  0  0
 17 21  1  0  0  0  0
 17 28  1  0  0  0  0
 17 46  1  6  0  0  0
 18  8  1  0  0  0  0
 18 27  1  0  0  0  0
 18 47  1  6  0  0  0
 20 24  1  0  0  0  0
 20 25  1  0  0  0  0
 20 26  1  0  0  0  0
 21 23  1  0  0  0  0
 21 48  1  0  0  0  0
 21 49  1  0  0  0  0
 23 29  1  0  0  0  0
 23 50  1  0  0  0  0
 23 51  1  0  0  0  0
 24 52  1  0  0  0  0
 24 53  1  0  0  0  0
 24 54  1  0  0  0  0
 25 55  1  0  0  0  0
 25 56  1  0  0  0  0
 25 57  1  0  0  0  0
 26 58  1  0  0  0  0
 26 59  1  0  0  0  0
 26 60  1  0  0  0  0
 28 61  1  0  0  0  0
 29 62  1  0  0  0  0
 29 63  1  0  0  0  0
M  END
>  <DRUGBANK_ID>
DB03417

>  <SECONDARY_ACCESSION_NUMBERS>
EXPT00047

>  <COMMON_NAME>
(2S,3R)-2-[[4-(Tert-butylcarbamoyl)piperazine-1-carbonyl]amino]-6-(diaminomethylideneamino)-3-formylhexanoic acid

$$$$
