
 OpenBabel10282417123D

 24 23  0  0  0  0  0  0  0  0999 V2000
    0.9645    0.1412   -0.1138 C   0  0  0  0  0  0  0  0  0  0  0  0
    0.5046   -1.2474   -0.5291 C   0  0  0  0  0  0  0  0  0  0  0  0
    0.9931   -2.3027    0.4645 C   0  0  0  0  0  0  0  0  0  0  0  0
    0.4525   -2.0567    1.8790 C   0  0  0  0  0  0  0  0  0  0  0  0
   -1.0793   -2.1303    1.9422 C   0  0  0  0  0  0  0  0  0  0  0  0
   -1.6276   -3.4868    1.4968 C   0  0  0  0  0  0  0  0  0  0  0  0
   -1.1176   -4.6033    2.3829 C   0  0  0  0  0  0  0  0  0  0  0  0
   -2.0548   -5.2779    3.0913 N   0  0  0  0  0  0  0  0  0  0  0  0
    0.0664   -4.9133    2.4986 O   0  0  0  0  0  0  0  0  0  0  0  0
    0.5728    0.4254    0.8677 H   0  0  0  0  0  0  0  0  0  0  0  0
    0.6153    0.8936   -0.8224 H   0  0  0  0  0  0  0  0  0  0  0  0
    2.0571    0.1746   -0.0634 H   0  0  0  0  0  0  0  0  0  0  0  0
   -0.5881   -1.2660   -0.6121 H   0  0  0  0  0  0  0  0  0  0  0  0
    0.8849   -1.4818   -1.5287 H   0  0  0  0  0  0  0  0  0  0  0  0
    0.7063   -3.2987    0.1069 H   0  0  0  0  0  0  0  0  0  0  0  0
    2.0887   -2.3090    0.4903 H   0  0  0  0  0  0  0  0  0  0  0  0
    0.9044   -2.7702    2.5727 H   0  0  0  0  0  0  0  0  0  0  0  0
    0.7867   -1.0866    2.2595 H   0  0  0  0  0  0  0  0  0  0  0  0
   -1.4100   -1.9064    2.9625 H   0  0  0  0  0  0  0  0  0  0  0  0
   -1.5173   -1.3436    1.3146 H   0  0  0  0  0  0  0  0  0  0  0  0
   -2.7226   -3.4566    1.5074 H   0  0  0  0  0  0  0  0  0  0  0  0
   -1.3490   -3.7178    0.4629 H   0  0  0  0  0  0  0  0  0  0  0  0
   -1.7155   -6.0227    3.6859 H   0  0  0  0  0  0  0  0  0  0  0  0
   -3.0478   -5.1543    2.9655 H   0  0  0  0  0  0  0  0  0  0  0  0
  1  2  1  0  0  0  0
  1 10  1  0  0  0  0
  1 11  1  0  0  0  0
  1 12  1  0  0  0  0
  2  3  1  0  0  0  0
  2 13  1  0  0  0  0
  2 14  1  0  0  0  0
  3  4  1  0  0  0  0
  3 15  1  0  0  0  0
  3 16  1  0  0  0  0
  4  5  1  0  0  0  0
  4 17  1  0  0  0  0
  4 18  1  0  0  0  0
  5  6  1  0  0  0  0
  5 19  1  0  0  0  0
  5 20  1  0  0  0  0
  6  7  1  0  0  0  0
  6 21  1  0  0  0  0
  6 22  1  0  0  0  0
  7  8  1  0  0  0  0
  7  9  2  0  0  0  0
  8 23  1  0  0  0  0
  8 24  1  0  0  0  0
M  END
>  <DRUGBANK_ID>
DB02641

>  <SECONDARY_ACCESSION_NUMBERS>
EXPT01772

>  <COMMON_NAME>
Heptanamide

>  <CAS_NUMBER>
628-62-6

>  <UNII>
6QX6H3415T

$$$$
