
 OpenBabel10282417203D

 43 45  0  0  1  0  0  0  0  0999 V2000
    2.4742    0.2774   -0.2365 C   0  0  0  0  0  0  0  0  0  0  0  0
    1.0493    0.0706    0.3327 C   0  0  1  0  0  0  0  0  0  0  0  0
    0.2499    1.3826    0.1679 C   0  0  0  0  0  0  0  0  0  0  0  0
   -1.2113    1.3740    0.6484 C   0  0  0  0  0  0  0  0  0  0  0  0
   -2.0035    0.0680    0.5617 C   0  0  0  0  0  0  0  0  0  0  0  0
   -1.1094   -1.1733    0.6307 C   0  0  0  0  0  0  0  0  0  0  0  0
    0.2830   -1.2304   -0.1844 C   0  0  2  0  0  0  0  0  0  0  0  0
    1.0231   -2.5551    0.3631 C   0  0  0  0  0  0  0  0  0  0  0  0
    0.6101   -3.8826    0.2866 C   0  0  0  0  0  0  0  0  0  0  0  0
    1.6974   -4.8064    0.3743 C   0  0  0  0  0  0  0  0  0  0  0  0
    2.8633   -4.1713    0.7728 C   0  0  0  0  0  0  0  0  0  0  0  0
    2.5205   -2.5710    1.2363 S   0  0  0  0  0  0  0  0  0  0  0  0
    0.3244   -1.3419   -1.7244 N   0  0  0  0  0  0  0  0  0  0  0  0
   -0.0883   -0.2386   -2.6133 C   0  0  0  0  0  0  0  0  0  0  0  0
   -1.5680   -0.0003   -2.4657 C   0  0  0  0  0  0  0  0  0  0  0  0
   -2.4499   -1.2660   -2.5270 C   0  0  0  0  0  0  0  0  0  0  0  0
   -1.7801   -2.5929   -2.1415 C   0  0  0  0  0  0  0  0  0  0  0  0
   -0.2776   -2.5371   -2.3366 C   0  0  0  0  0  0  0  0  0  0  0  0
    3.1906   -0.4821    0.0715 H   0  0  0  0  0  0  0  0  0  0  0  0
    2.4943    0.2818   -1.3269 H   0  0  0  0  0  0  0  0  0  0  0  0
    2.9055    1.2150    0.1282 H   0  0  0  0  0  0  0  0  0  0  0  0
    1.1678   -0.0353    1.4228 H   0  0  0  0  0  0  0  0  0  0  0  0
    0.7678    2.1734    0.7283 H   0  0  0  0  0  0  0  0  0  0  0  0
    0.3047    1.7460   -0.8604 H   0  0  0  0  0  0  0  0  0  0  0  0
   -1.2166    1.6686    1.7005 H   0  0  0  0  0  0  0  0  0  0  0  0
   -1.7505    2.1653    0.1067 H   0  0  0  0  0  0  0  0  0  0  0  0
   -2.7677    0.0492    1.3491 H   0  0  0  0  0  0  0  0  0  0  0  0
   -2.6940    0.0462   -0.2859 H   0  0  0  0  0  0  0  0  0  0  0  0
   -0.8590   -1.2532    1.6987 H   0  0  0  0  0  0  0  0  0  0  0  0
   -1.7279   -2.0558    0.4805 H   0  0  0  0  0  0  0  0  0  0  0  0
   -0.3775   -4.1858   -0.0452 H   0  0  0  0  0  0  0  0  0  0  0  0
    1.6521   -5.8517    0.1267 H   0  0  0  0  0  0  0  0  0  0  0  0
    3.8481   -4.5888    0.8804 H   0  0  0  0  0  0  0  0  0  0  0  0
    0.1156   -0.4592   -3.6718 H   0  0  0  0  0  0  0  0  0  0  0  0
    0.4957    0.6671   -2.4496 H   0  0  0  0  0  0  0  0  0  0  0  0
   -1.9969    0.8182   -3.0500 H   0  0  0  0  0  0  0  0  0  0  0  0
   -1.5580    0.4578   -1.5102 H   0  0  0  0  0  0  0  0  0  0  0  0
   -3.3610   -1.1441   -1.9265 H   0  0  0  0  0  0  0  0  0  0  0  0
   -2.7891   -1.3686   -3.5604 H   0  0  0  0  0  0  0  0  0  0  0  0
   -2.0289   -2.8938   -1.1254 H   0  0  0  0  0  0  0  0  0  0  0  0
   -2.2055   -3.4068   -2.7381 H   0  0  0  0  0  0  0  0  0  0  0  0
    0.2249   -3.4577   -2.0489 H   0  0  0  0  0  0  0  0  0  0  0  0
   -0.0973   -2.5231   -3.4220 H   0  0  0  0  0  0  0  0  0  0  0  0
  1 19  1  0  0  0  0
  1 20  1  0  0  0  0
  1 21  1  0  0  0  0
  2  1  1  0  0  0  0
  2  3  1  0  0  0  0
  2  7  1  0  0  0  0
  2 22  1  1  0  0  0
  3  4  1  0  0  0  0
  3 23  1  0  0  0  0
  3 24  1  0  0  0  0
  4  5  1  0  0  0  0
  4 25  1  0  0  0  0
  4 26  1  0  0  0  0
  5  6  1  0  0  0  0
  5 27  1  0  0  0  0
  5 28  1  0  0  0  0
  6  7  1  0  0  0  0
  6 29  1  0  0  0  0
  6 30  1  0  0  0  0
  7 13  1  0  0  0  0
  7  8  1  1  0  0  0
  8  9  2  0  0  0  0
  8 12  1  0  0  0  0
  9 10  1  0  0  0  0
  9 31  1  0  0  0  0
 10 11  2  0  0  0  0
 10 32  1  0  0  0  0
 11 12  1  0  0  0  0
 11 33  1  0  0  0  0
 13 14  1  0  0  0  0
 13 18  1  0  0  0  0
 14 15  1  0  0  0  0
 14 34  1  0  0  0  0
 14 35  1  0  0  0  0
 15 16  1  0  0  0  0
 15 36  1  0  0  0  0
 15 37  1  0  0  0  0
 16 17  1  0  0  0  0
 16 38  1  0  0  0  0
 16 39  1  0  0  0  0
 17 18  1  0  0  0  0
 17 40  1  0  0  0  0
 17 41  1  0  0  0  0
 18 42  1  0  0  0  0
 18 43  1  0  0  0  0
M  END
>  <DRUGBANK_ID>
DB13096

>  <COMMON_NAME>
Gacyclidine

>  <CAS_NUMBER>
68134-81-6

>  <UNII>
9290ND070R

>  <SYNONYMS>
Gacyclidine

$$$$
