
 OpenBabel10282417173D

 46 49  0  0  0  0  0  0  0  0999 V2000
    2.0590   -0.6940   -0.0892 C   0  0  0  0  0  0  0  0  0  0  0  0
    2.0892    0.6975   -0.1022 C   0  0  0  0  0  0  0  0  0  0  0  0
    0.9030    1.4352   -0.0194 C   0  0  0  0  0  0  0  0  0  0  0  0
   -0.2832    0.6962    0.0191 C   0  0  0  0  0  0  0  0  0  0  0  0
   -0.2438   -0.6908    0.0479 C   0  0  0  0  0  0  0  0  0  0  0  0
    0.9180   -1.4064    0.0221 N   0  0  0  0  0  0  0  0  0  0  0  0
    3.2563   -1.3835   -0.1947 N   0  0  0  0  0  0  0  0  0  0  0  0
   -1.6215    1.0626    0.0316 N   0  0  0  0  0  0  0  0  0  0  0  0
   -1.6035   -1.1336    0.0699 C   0  0  0  0  0  0  0  0  0  0  0  0
   -2.4466   -0.0426   -0.1772 C   0  0  0  0  0  0  0  0  0  0  0  0
   -3.9068    0.0121   -0.5666 C   0  0  0  0  0  0  0  0  0  0  0  0
   -4.3209    0.6127   -1.7939 C   0  0  0  0  0  0  0  0  0  0  0  0
   -5.6745    0.5896   -2.2465 C   0  0  0  0  0  0  0  0  0  0  0  0
   -6.1493    1.1822   -3.5692 C   0  0  0  0  0  0  0  0  0  0  0  0
   -6.7572    0.1486   -4.5085 C   0  0  0  0  0  0  0  0  0  0  0  0
   -8.0328    0.3800   -4.8951 O   0  0  0  0  0  0  0  0  0  0  0  0
   -6.1489   -0.8427   -4.9114 O   0  0  0  0  0  0  0  0  0  0  0  0
   -6.6347   -0.0320   -1.4454 C   0  0  0  0  0  0  0  0  0  0  0  0
   -6.2823   -0.6515   -0.2376 C   0  0  0  0  0  0  0  0  0  0  0  0
   -4.9265   -0.6162    0.1877 C   0  0  0  0  0  0  0  0  0  0  0  0
   -4.6591   -1.2281    1.3899 O   0  0  0  0  0  0  0  0  0  0  0  0
   -7.3665   -1.2653    0.5489 C   0  0  0  0  0  0  0  0  0  0  0  0
   -7.7502   -0.6879    1.7677 C   0  0  0  0  0  0  0  0  0  0  0  0
   -8.9269   -1.0749    2.4058 C   0  0  0  0  0  0  0  0  0  0  0  0
   -9.6021   -2.2128    1.9760 C   0  0  0  0  0  0  0  0  0  0  0  0
   -9.1556   -2.8814    0.8304 C   0  0  0  0  0  0  0  0  0  0  0  0
   -9.7749   -4.1562    0.4506 N   0  3  0  0  0  0  0  0  0  0  0  0
  -10.6620   -4.6079    1.1900 O   0  5  0  0  0  0  0  0  0  0  0  0
   -9.3623   -4.7180   -0.5734 O   0  0  0  0  0  0  0  0  0  0  0  0
   -8.1058   -2.3574    0.0628 C   0  0  0  0  0  0  0  0  0  0  0  0
    3.0411    1.2158   -0.1893 H   0  0  0  0  0  0  0  0  0  0  0  0
    0.9235    2.5180   -0.0317 H   0  0  0  0  0  0  0  0  0  0  0  0
    3.2191   -2.3921   -0.2089 H   0  0  0  0  0  0  0  0  0  0  0  0
    4.1406   -0.9109   -0.2979 H   0  0  0  0  0  0  0  0  0  0  0  0
   -1.9380    2.0176    0.1228 H   0  0  0  0  0  0  0  0  0  0  0  0
   -1.9024   -2.1714    0.1222 H   0  0  0  0  0  0  0  0  0  0  0  0
   -3.5726    1.0650   -2.4435 H   0  0  0  0  0  0  0  0  0  0  0  0
   -6.8854    1.9733   -3.3682 H   0  0  0  0  0  0  0  0  0  0  0  0
   -5.3239    1.6619   -4.1048 H   0  0  0  0  0  0  0  0  0  0  0  0
   -8.4742    1.1766   -4.5466 H   0  0  0  0  0  0  0  0  0  0  0  0
   -7.6797   -0.0490   -1.7638 H   0  0  0  0  0  0  0  0  0  0  0  0
   -3.7080   -1.1663    1.5669 H   0  0  0  0  0  0  0  0  0  0  0  0
   -7.1328    0.0903    2.2122 H   0  0  0  0  0  0  0  0  0  0  0  0
   -9.3012   -0.4929    3.2434 H   0  0  0  0  0  0  0  0  0  0  0  0
  -10.4521   -2.5725    2.5509 H   0  0  0  0  0  0  0  0  0  0  0  0
   -7.8457   -2.8015   -0.8975 H   0  0  0  0  0  0  0  0  0  0  0  0
  1  2  2  0  0  0  0
  1  6  1  0  0  0  0
  1  7  1  0  0  0  0
  2  3  1  0  0  0  0
  2 31  1  0  0  0  0
  3  4  2  0  0  0  0
  3 32  1  0  0  0  0
  4  5  1  0  0  0  0
  4  8  1  0  0  0  0
  5  6  2  0  0  0  0
  5  9  1  0  0  0  0
  7 33  1  0  0  0  0
  7 34  1  0  0  0  0
  8 35  1  0  0  0  0
  9 36  1  0  0  0  0
 10  8  1  0  0  0  0
 10  9  2  0  0  0  0
 11 10  1  0  0  0  0
 11 12  2  0  0  0  0
 11 20  1  0  0  0  0
 12 13  1  0  0  0  0
 12 37  1  0  0  0  0
 13 14  1  0  0  0  0
 13 18  2  0  0  0  0
 14 15  1  0  0  0  0
 14 38  1  0  0  0  0
 14 39  1  0  0  0  0
 15 16  1  0  0  0  0
 15 17  2  0  0  0  0
 16 40  1  0  0  0  0
 18 19  1  0  0  0  0
 18 41  1  0  0  0  0
 19 20  2  0  0  0  0
 20 21  1  0  0  0  0
 21 42  1  0  0  0  0
 22 19  1  0  0  0  0
 22 23  2  0  0  0  0
 22 30  1  0  0  0  0
 23 24  1  0  0  0  0
 23 43  1  0  0  0  0
 24 25  2  0  0  0  0
 24 44  1  0  0  0  0
 25 26  1  0  0  0  0
 25 45  1  0  0  0  0
 26 27  1  0  0  0  0
 26 30  2  0  0  0  0
 27 28  1  0  0  0  0
 27 29  2  0  0  0  0
 30 46  1  0  0  0  0
M  CHG  2  27   1  28  -1
M  END
>  <DRUGBANK_ID>
DB08232

>  <COMMON_NAME>
[5-(5-Amino-1H-pyrrolo[3,2-b]pyridin-2-yl)-6-hydroxy-3'-nitro-3-biphenylyl]acetic acid

$$$$
