
 OpenBabel10282417233D

 59 63  0  0  0  0  0  0  0  0999 V2000
   -2.3644    0.0063   -0.1124 C   0  0  0  0  0  0  0  0  0  0  0  0
   -0.9537    0.0073    0.2929 N   0  0  0  0  0  0  0  0  0  0  0  0
   -0.2760   -1.2035   -0.1940 C   0  0  0  0  0  0  0  0  0  0  0  0
    1.2162   -1.2186    0.1961 C   0  0  0  0  0  0  0  0  0  0  0  0
    1.9285    0.0395   -0.3467 C   0  0  0  0  0  0  0  0  0  0  0  0
    1.1824    1.2628    0.1920 C   0  0  0  0  0  0  0  0  0  0  0  0
   -0.2909    1.2195   -0.2077 C   0  0  0  0  0  0  0  0  0  0  0  0
    3.3377    0.1484    0.0618 N   0  0  0  0  0  0  0  0  0  0  0  0
    4.3241    0.0354   -0.9148 C   0  0  0  0  0  0  0  0  0  0  0  0
    4.4491    1.0117   -1.8485 N   0  0  0  0  0  0  0  0  0  0  0  0
    5.5239    1.0107   -2.6935 C   0  0  0  0  0  0  0  0  0  0  0  0
    5.5884    2.0739   -3.6410 N   0  0  0  0  0  0  0  0  0  0  0  0
    6.4881    2.2573   -4.7212 C   0  0  0  0  0  0  0  0  0  0  0  0
    6.5677    1.2666   -5.7091 C   0  0  0  0  0  0  0  0  0  0  0  0
    7.6748    1.1752   -6.5589 C   0  0  0  0  0  0  0  0  0  0  0  0
    8.7474    2.0649   -6.4519 C   0  0  0  0  0  0  0  0  0  0  0  0
    9.9068    1.9751   -7.2136 O   0  0  0  0  0  0  0  0  0  0  0  0
    9.8942    1.1376   -8.3158 C   0  0  0  0  0  0  0  0  0  0  0  0
    8.9117    1.2252   -9.3099 C   0  0  0  0  0  0  0  0  0  0  0  0
    8.8562    0.2726  -10.3288 C   0  0  0  0  0  0  0  0  0  0  0  0
    9.7350   -0.8084  -10.3140 C   0  0  0  0  0  0  0  0  0  0  0  0
   10.7200   -0.8889   -9.3292 C   0  0  0  0  0  0  0  0  0  0  0  0
   10.8682    0.1428   -8.3977 C   0  0  0  0  0  0  0  0  0  0  0  0
    8.6774    3.0617   -5.4695 C   0  0  0  0  0  0  0  0  0  0  0  0
    7.5086    3.2274   -4.6804 C   0  0  0  0  0  0  0  0  0  0  0  0
    6.4582   -0.0189   -2.6095 C   0  0  0  0  0  0  0  0  0  0  0  0
    7.7600   -0.0845   -3.3059 C   0  0  0  0  0  0  0  0  0  0  0  0
    8.4737    0.8768   -3.5664 O   0  0  0  0  0  0  0  0  0  0  0  0
    8.3021   -1.3190   -3.5135 N   0  0  0  0  0  0  0  0  0  0  0  0
    8.1060   -2.3101   -2.5968 C   0  0  0  0  0  0  0  0  0  0  0  0
    7.1373   -2.2171   -1.6680 C   0  0  0  0  0  0  0  0  0  0  0  0
    6.9580   -3.5636   -0.3898 Br  0  0  0  0  0  0  0  0  0  0  0  0
    6.2164   -1.0359   -1.6928 C   0  0  0  0  0  0  0  0  0  0  0  0
    5.1804   -0.9927   -0.8125 N   0  0  0  0  0  0  0  0  0  0  0  0
   -2.8854    0.8827    0.2912 H   0  0  0  0  0  0  0  0  0  0  0  0
   -2.4770    0.0153   -1.2030 H   0  0  0  0  0  0  0  0  0  0  0  0
   -2.8850   -0.8752    0.2785 H   0  0  0  0  0  0  0  0  0  0  0  0
   -0.7659   -2.0897    0.2313 H   0  0  0  0  0  0  0  0  0  0  0  0
   -0.3696   -1.2794   -1.2854 H   0  0  0  0  0  0  0  0  0  0  0  0
    1.2954   -1.2749    1.2910 H   0  0  0  0  0  0  0  0  0  0  0  0
    1.6779   -2.1313   -0.1978 H   0  0  0  0  0  0  0  0  0  0  0  0
    1.8480    0.0237   -1.4411 H   0  0  0  0  0  0  0  0  0  0  0  0
    1.2676    1.3086    1.2874 H   0  0  0  0  0  0  0  0  0  0  0  0
    1.6424    2.1772   -0.1972 H   0  0  0  0  0  0  0  0  0  0  0  0
   -0.3708    1.2751   -1.3009 H   0  0  0  0  0  0  0  0  0  0  0  0
   -0.7862    2.1075    0.2028 H   0  0  0  0  0  0  0  0  0  0  0  0
    3.5797   -0.3418    0.9141 H   0  0  0  0  0  0  0  0  0  0  0  0
    4.9871    2.8534   -3.4035 H   0  0  0  0  0  0  0  0  0  0  0  0
    5.8355    0.4654   -5.7348 H   0  0  0  0  0  0  0  0  0  0  0  0
    7.7164    0.3237   -7.2288 H   0  0  0  0  0  0  0  0  0  0  0  0
    8.1463    1.9948   -9.2565 H   0  0  0  0  0  0  0  0  0  0  0  0
    8.1011    0.3518  -11.1062 H   0  0  0  0  0  0  0  0  0  0  0  0
    9.6573   -1.5837  -11.0725 H   0  0  0  0  0  0  0  0  0  0  0  0
   11.3617   -1.7650   -9.2768 H   0  0  0  0  0  0  0  0  0  0  0  0
   11.7152    0.1410   -7.7184 H   0  0  0  0  0  0  0  0  0  0  0  0
    9.5749    3.6247   -5.2110 H   0  0  0  0  0  0  0  0  0  0  0  0
    7.5063    4.0022   -3.9177 H   0  0  0  0  0  0  0  0  0  0  0  0
    9.1499   -1.2958   -4.0738 H   0  0  0  0  0  0  0  0  0  0  0  0
    8.8379   -3.1116   -2.6374 H   0  0  0  0  0  0  0  0  0  0  0  0
  1  2  1  0  0  0  0
  1 35  1  0  0  0  0
  1 36  1  0  0  0  0
  1 37  1  0  0  0  0
  2  3  1  0  0  0  0
  2  7  1  0  0  0  0
  3  4  1  0  0  0  0
  3 38  1  0  0  0  0
  3 39  1  0  0  0  0
  4  5  1  0  0  0  0
  4 40  1  0  0  0  0
  4 41  1  0  0  0  0
  5  6  1  0  0  0  0
  5  8  1  0  0  0  0
  5 42  1  0  0  0  0
  6  7  1  0  0  0  0
  6 43  1  0  0  0  0
  6 44  1  0  0  0  0
  7 45  1  0  0  0  0
  7 46  1  0  0  0  0
  8  9  1  0  0  0  0
  8 47  1  0  0  0  0
  9 10  2  0  0  0  0
  9 34  1  0  0  0  0
 10 11  1  0  0  0  0
 11 12  1  0  0  0  0
 11 26  2  0  0  0  0
 12 13  1  0  0  0  0
 12 48  1  0  0  0  0
 13 14  2  0  0  0  0
 13 25  1  0  0  0  0
 14 15  1  0  0  0  0
 14 49  1  0  0  0  0
 15 16  2  0  0  0  0
 15 50  1  0  0  0  0
 16 17  1  0  0  0  0
 16 24  1  0  0  0  0
 17 18  1  0  0  0  0
 18 19  2  0  0  0  0
 18 23  1  0  0  0  0
 19 20  1  0  0  0  0
 19 51  1  0  0  0  0
 20 21  2  0  0  0  0
 20 52  1  0  0  0  0
 21 22  1  0  0  0  0
 21 53  1  0  0  0  0
 22 23  2  0  0  0  0
 22 54  1  0  0  0  0
 23 55  1  0  0  0  0
 24 25  2  0  0  0  0
 24 56  1  0  0  0  0
 25 57  1  0  0  0  0
 26 27  1  0  0  0  0
 26 33  1  0  0  0  0
 27 28  2  0  0  0  0
 27 29  1  0  0  0  0
 29 30  1  0  0  0  0
 29 58  1  0  0  0  0
 30 31  2  0  0  0  0
 30 59  1  0  0  0  0
 31 32  1  0  0  0  0
 31 33  1  0  0  0  0
 33 34  2  0  0  0  0
M  END
>  <DRUGBANK_ID>
DB17159

>  <COMMON_NAME>
Denfivontinib

>  <CAS_NUMBER>
1457983-28-6

>  <UNII>
B06W426B66

>  <SYNONYMS>
8-Bromo-2-((1-methylpiperidin-4-yl)amino)-4-((4-phenoxyphenyl)amino)pyrido[4,3-D]pyrimidin-5(6H)-one; 8-bromo-2-[(1-methylpiperidin-4-yl)amino]-4-(4-phenoxyanilino)-6H-pyrido[4,3-d]pyrimidin-5-one; G-749

$$$$
