
 OpenBabel10282417103D

 10  9  0  0  0  0  0  0  0  0999 V2000
    0.9313    0.0630    0.0363 P   0  0  0  0  0  0  0  0  0  0  0  0
    1.0611    1.7078    0.2554 O   0  0  0  0  0  0  0  0  0  0  0  0
    0.9884    0.1061   -1.6301 O   0  0  0  0  0  0  0  0  0  0  0  0
   -0.6170    0.0630    0.0363 O   0  0  0  0  0  0  0  0  0  0  0  0
    3.4220    0.9770   -0.7402 O   0  0  0  0  0  0  0  0  0  0  0  0
    3.3425   -0.8032    0.6766 O   0  0  0  0  0  0  0  0  0  0  0  0
    2.7613    0.0630    0.0363 C   0  0  0  0  0  0  0  0  0  0  0  0
    0.3226    2.0214    0.8165 H   0  0  0  0  0  0  0  0  0  0  0  0
    1.6158   -0.5427   -2.0187 H   0  0  0  0  0  0  0  0  0  0  0  0
    2.7230    1.5955   -1.0686 H   0  0  0  0  0  0  0  0  0  0  0  0
  1  2  1  0  0  0  0
  1  3  1  0  0  0  0
  1  4  2  0  0  0  0
  1  7  1  0  0  0  0
  2  8  1  0  0  0  0
  3  9  1  0  0  0  0
  5  7  1  0  0  0  0
  5 10  1  0  0  0  0
  6  7  2  0  0  0  0
M  END
>  <DRUGBANK_ID>
DB00529

>  <SECONDARY_ACCESSION_NUMBERS>
APRD00669

>  <COMMON_NAME>
Foscarnet

>  <CAS_NUMBER>
4428-95-9

>  <UNII>
364P9RVW4X

>  <SYNONYMS>
Carboxyphosphonic acid; Foscarmet; Phosphonoformate; Phosphonoformic acid; Phosphonomethanoic acid

$$$$
