
 OpenBabel10282417233D

 41 42  0  0  1  0  0  0  0  0999 V2000
    1.5449   -0.7719   -0.0954 C   0  0  0  0  0  0  0  0  0  0  0  0
    1.0199   -1.0650   -1.5851 C   0  0  0  0  0  0  0  0  0  0  0  0
    1.2306   -2.4793   -1.8441 C   0  0  0  0  0  0  0  0  0  0  0  0
    0.4232   -3.1197   -0.7339 C   0  0  0  0  0  0  0  0  0  0  0  0
   -1.1108   -2.6835   -0.6340 C   0  0  1  0  0  0  0  0  0  0  0  0
   -1.7266   -3.1941   -1.9652 C   0  0  0  0  0  0  0  0  0  0  0  0
   -1.6630   -3.6623    0.4799 C   0  0  0  0  0  0  0  0  0  0  0  0
   -1.2124   -3.3680    1.7981 O   0  0  0  0  0  0  0  0  0  0  0  0
   -1.6192   -1.1411   -0.3820 N   0  0  0  0  0  0  0  0  0  0  0  0
   -1.0532    0.2160   -0.2520 C   0  0  0  0  0  0  0  0  0  0  0  0
   -0.2899    0.8856   -1.2240 N   0  0  0  0  0  0  0  0  0  0  0  0
    0.7225    1.7649   -0.9142 C   0  0  0  0  0  0  0  0  0  0  0  0
    1.9468    1.7764   -1.6330 N   0  0  0  0  0  0  0  0  0  0  0  0
    0.7741    2.3158    0.2974 N   0  0  0  0  0  0  0  0  0  0  0  0
   -0.1818    1.9154    1.1511 C   0  0  0  0  0  0  0  0  0  0  0  0
   -1.1356    0.8612    0.9873 C   0  0  0  0  0  0  0  0  0  0  0  0
   -2.0559    0.5119    1.9102 N   0  0  0  0  0  0  0  0  0  0  0  0
   -2.1343    1.3161    2.9969 C   0  0  0  0  0  0  0  0  0  0  0  0
   -1.2530    2.3463    3.2345 C   0  0  0  0  0  0  0  0  0  0  0  0
   -1.4279    3.1547    4.2955 F   0  0  0  0  0  0  0  0  0  0  0  0
   -0.2239    2.6053    2.3574 C   0  0  0  0  0  0  0  0  0  0  0  0
    1.0870   -1.3621    0.7070 H   0  0  0  0  0  0  0  0  0  0  0  0
    1.3378    0.1541    0.4059 H   0  0  0  0  0  0  0  0  0  0  0  0
    2.6251   -0.8044   -0.0562 H   0  0  0  0  0  0  0  0  0  0  0  0
   -0.0426   -0.9974   -1.8411 H   0  0  0  0  0  0  0  0  0  0  0  0
    1.3752   -0.4743   -2.4202 H   0  0  0  0  0  0  0  0  0  0  0  0
    0.8575   -2.7207   -2.8450 H   0  0  0  0  0  0  0  0  0  0  0  0
    2.3093   -2.6113   -1.8101 H   0  0  0  0  0  0  0  0  0  0  0  0
    0.5371   -4.1963   -0.8873 H   0  0  0  0  0  0  0  0  0  0  0  0
    0.9149   -3.0153    0.2319 H   0  0  0  0  0  0  0  0  0  0  0  0
   -1.3677   -4.2141   -2.1828 H   0  0  0  0  0  0  0  0  0  0  0  0
   -2.8165   -3.2400   -1.9341 H   0  0  0  0  0  0  0  0  0  0  0  0
   -1.4321   -2.5722   -2.8141 H   0  0  0  0  0  0  0  0  0  0  0  0
   -2.7545   -3.6957    0.4939 H   0  0  0  0  0  0  0  0  0  0  0  0
   -1.3341   -4.6942    0.2623 H   0  0  0  0  0  0  0  0  0  0  0  0
   -0.2411   -3.3616    1.8040 H   0  0  0  0  0  0  0  0  0  0  0  0
   -2.5717   -1.1359   -0.0097 H   0  0  0  0  0  0  0  0  0  0  0  0
    2.7588    2.0078   -1.0680 H   0  0  0  0  0  0  0  0  0  0  0  0
    2.1746    0.9172   -2.1159 H   0  0  0  0  0  0  0  0  0  0  0  0
   -2.9715    1.1226    3.6551 H   0  0  0  0  0  0  0  0  0  0  0  0
    0.5043    3.3776    2.5589 H   0  0  0  0  0  0  0  0  0  0  0  0
  1  2  1  0  0  0  0
  1 22  1  0  0  0  0
  1 23  1  0  0  0  0
  1 24  1  0  0  0  0
  2  3  1  0  0  0  0
  2 25  1  0  0  0  0
  2 26  1  0  0  0  0
  3  4  1  0  0  0  0
  3 27  1  0  0  0  0
  3 28  1  0  0  0  0
  4 29  1  0  0  0  0
  4 30  1  0  0  0  0
  5  4  1  6  0  0  0
  5  6  1  0  0  0  0
  5  7  1  0  0  0  0
  5  9  1  0  0  0  0
  6 31  1  0  0  0  0
  6 32  1  0  0  0  0
  6 33  1  0  0  0  0
  7  8  1  0  0  0  0
  7 34  1  0  0  0  0
  7 35  1  0  0  0  0
  8 36  1  0  0  0  0
  9 10  1  0  0  0  0
  9 37  1  0  0  0  0
 10 11  2  0  0  0  0
 10 16  1  0  0  0  0
 11 12  1  0  0  0  0
 12 13  1  0  0  0  0
 12 14  2  0  0  0  0
 13 38  1  0  0  0  0
 13 39  1  0  0  0  0
 14 15  1  0  0  0  0
 15 16  2  0  0  0  0
 15 21  1  0  0  0  0
 16 17  1  0  0  0  0
 17 18  2  0  0  0  0
 18 19  1  0  0  0  0
 18 40  1  0  0  0  0
 19 20  1  0  0  0  0
 19 21  2  0  0  0  0
 21 41  1  0  0  0  0
M  END
>  <DRUGBANK_ID>
DB16324

>  <COMMON_NAME>
Selgantolimod

>  <CAS_NUMBER>
2004677-13-6

>  <UNII>
RM4GJT3SMQ

>  <SYNONYMS>
Selgantolimod

$$$$
