
 OpenBabel10282417143D

 85 92  0  0  0  0  0  0  0  0999 V2000
    4.8850    8.2929    4.2731 C   0  0  0  0  0  0  0  0  0  0  0  0
    4.4287    7.6757    5.5850 C   0  0  0  0  0  0  0  0  0  0  0  0
    5.2520    7.2743    6.6282 C   0  0  0  0  0  0  0  0  0  0  0  0
    6.7388    7.5902    6.6322 C   0  0  0  0  0  0  0  0  0  0  0  0
    7.0754    8.4287    7.8545 C   0  0  0  0  0  0  0  0  0  0  0  0
    6.7184    7.6554    9.1134 C   0  0  0  0  0  0  0  0  0  0  0  0
    7.7254    7.3441   10.0650 O   0  0  0  0  0  0  0  0  0  0  0  0
    5.5186    7.2875    9.3144 O   0  0  0  0  0  0  0  0  0  0  0  0
    4.6646    6.5798    7.6557 C   0  0  0  0  0  0  0  0  0  0  0  0
    4.5161    7.1581   11.7417 C   0  0  0  0  0  0  0  0  0  0  0  0
    4.3383    5.6561   11.5908 C   0  0  0  0  0  0  0  0  0  0  0  0
    4.9049    4.6288   12.3330 C   0  0  0  0  0  0  0  0  0  0  0  0
    5.8617    4.9127   13.4795 C   0  0  0  0  0  0  0  0  0  0  0  0
    4.5633    3.3458   11.9862 C   0  0  0  0  0  0  0  0  0  0  0  0
    5.1298    2.1642   12.7564 C   0  0  0  0  0  0  0  0  0  0  0  0
    3.9908    1.3664   13.3701 C   0  0  0  0  0  0  0  0  0  0  0  0
    3.0750    0.8604   12.2676 C   0  0  0  0  0  0  0  0  0  0  0  0
    2.8714   -0.5347   12.0981 O   0  0  0  0  0  0  0  0  0  0  0  0
    2.4915    1.6859   11.4974 O   0  0  0  0  0  0  0  0  0  0  0  0
    3.7115    3.1441   10.9449 C   0  0  0  0  0  0  0  0  0  0  0  0
    3.2025    1.8266   10.3832 C   0  0  0  0  0  0  0  0  0  0  0  0
    2.3461    1.8234    9.3262 C   0  0  0  0  0  0  0  0  0  0  0  0
    1.7779    0.7340    8.6798 N   0  0  0  0  0  0  0  0  0  0  0  0
    0.9599    0.9994    7.6105 C   0  0  0  0  0  0  0  0  0  0  0  0
    0.3588   -0.0169    6.9348 C   0  0  0  0  0  0  0  0  0  0  0  0
   -0.5456    0.2872    5.7517 C   0  0  0  0  0  0  0  0  0  0  0  0
   -0.2575    0.9354    4.5583 C   0  0  0  0  0  0  0  0  0  0  0  0
    1.1270    1.4942    4.2731 C   0  0  0  0  0  0  0  0  0  0  0  0
   -1.2775    1.0492    3.6474 C   0  0  0  0  0  0  0  0  0  0  0  0
   -1.0421    1.7338    2.3108 C   0  0  0  0  0  0  0  0  0  0  0  0
   -1.3211    0.7534    1.1833 C   0  0  0  0  0  0  0  0  0  0  0  0
   -2.7646    0.2845    1.2652 C   0  0  0  0  0  0  0  0  0  0  0  0
   -3.6499    0.5188    0.1799 O   0  0  0  0  0  0  0  0  0  0  0  0
   -3.1793   -0.3172    2.3049 O   0  0  0  0  0  0  0  0  0  0  0  0
   -2.5018    0.5422    3.9548 C   0  0  0  0  0  0  0  0  0  0  0  0
    1.6264    7.0962    5.5004 C   0  0  0  0  0  0  0  0  0  0  0  0
    2.8456    7.0355    6.1009 C   0  0  0  0  0  0  0  0  0  0  0  0
    3.3320    6.3124    7.5997 N   0  0  0  0  0  0  0  0  0  0  0  0
    2.2234    5.3393    8.9054 Co  0  0  3  0  0  0  0  0  0  0  0  0
   -2.2678   -0.1256    5.5375 N   0  0  0  0  0  0  0  0  0  0  0  0
    3.3471    4.7537   10.4138 N   0  0  0  0  0  0  0  0  0  0  0  0
    0.7571    2.2908    7.2342 C   0  0  0  0  0  0  0  0  0  0  0  0
   -0.0930    2.8183    6.0898 C   0  0  0  0  0  0  0  0  0  0  0  0
   -1.1749    3.7323    6.6418 C   0  0  0  0  0  0  0  0  0  0  0  0
   -0.5289    4.8982    7.3724 C   0  0  0  0  0  0  0  0  0  0  0  0
   -0.7719    6.2290    6.9406 O   0  0  0  0  0  0  0  0  0  0  0  0
    0.2286    4.6820    8.3696 O   0  0  0  0  0  0  0  0  0  0  0  0
    1.7031    3.1892    8.3759 C   0  0  0  0  0  0  0  0  0  0  0  0
    1.9190    4.6866    8.5226 C   0  0  0  0  0  0  0  0  0  0  0  0
    5.4646    9.1696    4.4739 H   0  0  0  0  0  0  0  0  0  0  0  0
    4.0299    8.5572    3.6868 H   0  0  0  0  0  0  0  0  0  0  0  0
    5.4818    7.5863    3.7350 H   0  0  0  0  0  0  0  0  0  0  0  0
    7.2972    6.6779    6.6608 H   0  0  0  0  0  0  0  0  0  0  0  0
    6.9902    8.1346    5.7460 H   0  0  0  0  0  0  0  0  0  0  0  0
    8.1220    8.6511    7.8573 H   0  0  0  0  0  0  0  0  0  0  0  0
    6.5170    9.3410    7.8259 H   0  0  0  0  0  0  0  0  0  0  0  0
    8.6694    7.6336    9.9068 H   0  0  0  0  0  0  0  0  0  0  0  0
    5.1540    7.5470   12.5077 H   0  0  0  0  0  0  0  0  0  0  0  0
    5.4594    4.5134   14.3870 H   0  0  0  0  0  0  0  0  0  0  0  0
    6.8073    4.4546   13.2767 H   0  0  0  0  0  0  0  0  0  0  0  0
    5.9921    5.9697   13.5818 H   0  0  0  0  0  0  0  0  0  0  0  0
    5.6857    1.5378   12.0904 H   0  0  0  0  0  0  0  0  0  0  0  0
    5.7745    2.5204   13.5325 H   0  0  0  0  0  0  0  0  0  0  0  0
    4.3897    0.5346   13.9123 H   0  0  0  0  0  0  0  0  0  0  0  0
    3.4350    1.9927   14.0361 H   0  0  0  0  0  0  0  0  0  0  0  0
    3.3306   -1.1843   12.7041 H   0  0  0  0  0  0  0  0  0  0  0  0
    3.5608    2.7540   10.7786 H   0  0  0  0  0  0  0  0  0  0  0  0
    0.5227   -1.0304    7.2363 H   0  0  0  0  0  0  0  0  0  0  0  0
    1.5275    1.0259    3.3984 H   0  0  0  0  0  0  0  0  0  0  0  0
    1.0594    2.5501    4.1131 H   0  0  0  0  0  0  0  0  0  0  0  0
    1.7686    1.3002    5.1071 H   0  0  0  0  0  0  0  0  0  0  0  0
   -1.6962    2.5758    2.2213 H   0  0  0  0  0  0  0  0  0  0  0  0
   -0.0259    2.0639    2.2532 H   0  0  0  0  0  0  0  0  0  0  0  0
   -1.1554    1.2353    0.2425 H   0  0  0  0  0  0  0  0  0  0  0  0
   -0.6670   -0.0887    1.2729 H   0  0  0  0  0  0  0  0  0  0  0  0
   -3.3235    0.9923   -0.6383 H   0  0  0  0  0  0  0  0  0  0  0  0
    1.5176    7.5940    4.5596 H   0  0  0  0  0  0  0  0  0  0  0  0
    0.5248    3.3669    5.4100 H   0  0  0  0  0  0  0  0  0  0  0  0
   -0.5477    1.9975    5.5755 H   0  0  0  0  0  0  0  0  0  0  0  0
   -1.7733    4.1036    5.8362 H   0  0  0  0  0  0  0  0  0  0  0  0
   -1.7927    3.1836    7.3216 H   0  0  0  0  0  0  0  0  0  0  0  0
   -1.3680    6.3991    6.1559 H   0  0  0  0  0  0  0  0  0  0  0  0
    2.3580    5.0732    7.6267 H   0  0  0  0  0  0  0  0  0  0  0  0
    0.9788    5.1674    8.6953 H   0  0  0  0  0  0  0  0  0  0  0  0
    2.5723    4.8735    9.3492 H   0  0  0  0  0  0  0  0  0  0  0  0
  1  2  1  0  0  0  0
  1 50  1  0  0  0  0
  1 51  1  0  0  0  0
  1 52  1  0  0  0  0
  2  3  2  0  0  0  0
  2 37  1  0  0  0  0
  3  4  1  0  0  0  0
  3  9  1  0  0  0  0
  4  5  1  0  0  0  0
  4 53  1  0  0  0  0
  4 54  1  0  0  0  0
  5  6  1  0  0  0  0
  5 55  1  0  0  0  0
  5 56  1  0  0  0  0
  6  7  1  0  0  0  0
  6  8  2  0  0  0  0
  7 57  1  0  0  0  0
  9 10  2  0  0  0  0
  9 38  1  0  0  0  0
 10 11  1  0  0  0  0
 10 58  1  0  0  0  0
 11 12  2  0  0  0  0
 11 41  1  0  0  0  0
 12 13  1  0  0  0  0
 12 14  1  0  0  0  0
 13 59  1  0  0  0  0
 13 60  1  0  0  0  0
 13 61  1  0  0  0  0
 14 15  1  0  0  0  0
 14 20  2  0  0  0  0
 15 16  1  0  0  0  0
 15 62  1  0  0  0  0
 15 63  1  0  0  0  0
 16 17  1  0  0  0  0
 16 64  1  0  0  0  0
 16 65  1  0  0  0  0
 17 18  1  0  0  0  0
 17 19  2  0  0  0  0
 18 66  1  0  0  0  0
 20 21  1  0  0  0  0
 20 41  1  0  0  0  0
 21 22  2  0  0  0  0
 21 67  1  0  0  0  0
 22 23  1  0  0  0  0
 22 48  1  0  0  0  0
 23 24  1  0  0  0  0
 23 39  1  0  0  0  0
 24 25  2  0  0  0  0
 24 42  1  0  0  0  0
 25 26  1  0  0  0  0
 25 68  1  0  0  0  0
 26 27  2  0  0  0  0
 26 40  1  0  0  0  0
 27 28  1  0  0  0  0
 27 29  1  0  0  0  0
 28 69  1  0  0  0  0
 28 70  1  0  0  0  0
 28 71  1  0  0  0  0
 29 30  1  0  0  0  0
 29 35  2  0  0  0  0
 30 31  1  0  0  0  0
 30 72  1  0  0  0  0
 30 73  1  0  0  0  0
 31 32  1  0  0  0  0
 31 74  1  0  0  0  0
 31 75  1  0  0  0  0
 32 33  1  0  0  0  0
 32 34  2  0  0  0  0
 33 76  1  0  0  0  0
 35 36  1  0  0  0  0
 35 40  1  0  0  0  0
 36 37  2  0  0  0  0
 36 77  1  0  0  0  0
 37 38  1  0  0  0  0
 38 39  1  0  0  0  0
 39 40  1  0  0  0  0
 39 41  1  0  0  0  0
 42 43  1  0  0  0  0
 42 48  2  0  0  0  0
 43 44  1  0  0  0  0
 43 78  1  0  0  0  0
 43 79  1  0  0  0  0
 44 45  1  0  0  0  0
 44 80  1  0  0  0  0
 44 81  1  0  0  0  0
 45 46  1  0  0  0  0
 45 47  2  0  0  0  0
 46 82  1  0  0  0  0
 48 49  1  0  0  0  0
 49 83  1  0  0  0  0
 49 84  1  0  0  0  0
 49 85  1  0  0  0  0
M  END
>  <DRUGBANK_ID>
DB04423

>  <SECONDARY_ACCESSION_NUMBERS>
EXPT02513

>  <COMMON_NAME>
Coproporphyrin I containing CO(III)

$$$$
