
 OpenBabel10282417133D

 35 36  0  0  0  0  0  0  0  0999 V2000
   -0.8141   -0.0435    1.3422 O   0  0  0  0  0  0  0  0  0  0  0  0
    1.1662   -1.2449    1.3155 O   0  0  0  0  0  0  0  0  0  0  0  0
    0.8779    2.5393    1.0324 O   0  0  0  0  0  0  0  0  0  0  0  0
    3.1180    2.0691    2.9476 O   0  0  0  0  0  0  0  0  0  0  0  0
    4.6091   -0.4448    2.4235 O   0  0  0  0  0  0  0  0  0  0  0  0
   -1.6618   -1.8538    4.5314 O   0  0  0  0  0  0  0  0  0  0  0  0
    1.1396   -2.8997    3.5194 O   0  0  0  0  0  0  0  0  0  0  0  0
    0.8316   -0.9523    4.6831 N   0  0  0  0  0  0  0  0  0  0  0  0
    1.2498    1.2646    1.5664 C   0  0  1  0  0  0  0  0  0  0  0  0
    0.5860    0.0010    0.9749 C   0  0  2  0  0  0  0  0  0  0  0  0
    2.7496    1.1072    1.9350 C   0  0  2  0  0  0  0  0  0  0  0  0
   -1.2355   -0.3135    2.7062 C   0  0  2  0  0  0  0  0  0  0  0  0
    3.1869   -0.3216    2.3607 C   0  0  1  0  0  0  0  0  0  0  0  0
   -0.8627    0.7164    3.8012 C   0  0  0  0  0  0  0  0  0  0  0  0
   -0.9715   -1.7227    3.2550 C   0  0  1  0  0  0  0  0  0  0  0  0
    2.5794   -1.3478    1.4138 C   0  0  0  0  0  0  0  0  0  0  0  0
    0.5265    0.4291    4.3968 C   0  0  0  0  0  0  0  0  0  0  0  0
    0.4522   -1.9345    3.7500 C   0  0  0  0  0  0  0  0  0  0  0  0
    1.7884   -1.1365    4.9780 H   0  0  0  0  0  0  0  0  0  0  0  0
    1.1919    2.6549    0.1325 H   0  0  0  0  0  0  0  0  0  0  0  0
    2.9207    1.7306    3.8390 H   0  0  0  0  0  0  0  0  0  0  0  0
    4.9756   -0.2921    1.5393 H   0  0  0  0  0  0  0  0  0  0  0  0
   -1.0789   -1.3942    5.1788 H   0  0  0  0  0  0  0  0  0  0  0  0
    0.6952    1.4614    2.4408 H   0  0  0  0  0  0  0  0  0  0  0  0
    0.6210    0.0861   -0.1179 H   0  0  0  0  0  0  0  0  0  0  0  0
    3.3333    1.3908    1.0619 H   0  0  0  0  0  0  0  0  0  0  0  0
   -2.3313   -0.2344    2.6284 H   0  0  0  0  0  0  0  0  0  0  0  0
    2.9064   -0.5453    3.3884 H   0  0  0  0  0  0  0  0  0  0  0  0
   -1.5675    0.6563    4.6378 H   0  0  0  0  0  0  0  0  0  0  0  0
   -0.9800    1.7386    3.4150 H   0  0  0  0  0  0  0  0  0  0  0  0
   -1.2893   -2.5138    2.5740 H   0  0  0  0  0  0  0  0  0  0  0  0
    2.8199   -2.3555    1.7825 H   0  0  0  0  0  0  0  0  0  0  0  0
    3.0316   -1.2886    0.4225 H   0  0  0  0  0  0  0  0  0  0  0  0
    0.8352    1.1532    5.1554 H   0  0  0  0  0  0  0  0  0  0  0  0
    1.3034    0.5690    3.6913 H   0  0  0  0  0  0  0  0  0  0  0  0
  2 10  1  0  0  0  0
  2 16  1  0  0  0  0
  3 20  1  0  0  0  0
  4 21  1  0  0  0  0
  5 22  1  0  0  0  0
  6 23  1  0  0  0  0
  7 18  2  0  0  0  0
  8 17  1  0  0  0  0
  8 18  1  0  0  0  0
  8 19  1  0  0  0  0
  9  3  1  0  0  0  0
  9 10  1  0  0  0  0
  9 11  1  0  0  0  0
  9 24  1  1  0  0  0
 10 25  1  6  0  0  0
 10  1  1  0  0  0  0
 11  4  1  0  0  0  0
 11 13  1  0  0  0  0
 11 26  1  6  0  0  0
 12  1  1  0  0  0  0
 12 14  1  0  0  0  0
 12 15  1  0  0  0  0
 12 27  1  6  0  0  0
 13  5  1  0  0  0  0
 13 16  1  0  0  0  0
 13 28  1  1  0  0  0
 14 17  1  0  0  0  0
 14 29  1  0  0  0  0
 14 30  1  0  0  0  0
 15  6  1  0  0  0  0
 15 18  1  0  0  0  0
 15 31  1  6  0  0  0
 16 32  1  0  0  0  0
 16 33  1  0  0  0  0
 17 34  1  0  0  0  0
 17 35  1  0  0  0  0
M  END
>  <DRUGBANK_ID>
DB03717

>  <SECONDARY_ACCESSION_NUMBERS>
EXPT03258

>  <COMMON_NAME>
3-Hydroxy-4-(3,4,5-trihydroxy-tetrahydro-pyran-2-yloxy)-piperidin-2-one

>  <CAS_NUMBER>
284045-95-0

$$$$
