
 OpenBabel10282417123D

 21 21  0  0  0  0  0  0  0  0999 V2000
    1.0077    0.0929   -0.1732 N   0  0  0  0  0  0  0  0  0  0  0  0
    0.3366    1.2395    0.1394 C   0  0  0  0  0  0  0  0  0  0  0  0
   -0.9479    1.2576    0.2323 N   0  0  0  0  0  0  0  0  0  0  0  0
    1.0831    2.5142    0.3277 C   0  0  0  0  0  0  0  0  0  0  0  0
    2.1611    2.8086   -0.5107 C   0  0  0  0  0  0  0  0  0  0  0  0
    2.7966    4.0501   -0.4222 C   0  0  0  0  0  0  0  0  0  0  0  0
    2.3614    5.0087    0.5041 C   0  0  0  0  0  0  0  0  0  0  0  0
    3.1070    6.3059    0.6781 C   0  0  0  0  0  0  0  0  0  0  0  0
    2.2754    7.4246    0.4165 O   0  0  0  0  0  0  0  0  0  0  0  0
    1.2593    4.7132    1.3210 C   0  0  0  0  0  0  0  0  0  0  0  0
    0.6416    3.4603    1.2569 C   0  0  0  0  0  0  0  0  0  0  0  0
    0.5199   -0.7925   -0.1607 H   0  0  0  0  0  0  0  0  0  0  0  0
    2.0058    0.0398   -0.0089 H   0  0  0  0  0  0  0  0  0  0  0  0
   -1.3321    0.3370    0.0139 H   0  0  0  0  0  0  0  0  0  0  0  0
    2.4859    2.0923   -1.2598 H   0  0  0  0  0  0  0  0  0  0  0  0
    3.6271    4.2652   -1.0906 H   0  0  0  0  0  0  0  0  0  0  0  0
    3.4785    6.3749    1.7059 H   0  0  0  0  0  0  0  0  0  0  0  0
    3.9732    6.3610    0.0106 H   0  0  0  0  0  0  0  0  0  0  0  0
    1.8958    7.2929   -0.4685 H   0  0  0  0  0  0  0  0  0  0  0  0
    0.8767    5.4642    2.0105 H   0  0  0  0  0  0  0  0  0  0  0  0
   -0.1840    3.2259    1.9249 H   0  0  0  0  0  0  0  0  0  0  0  0
  1  2  1  0  0  0  0
  1 12  1  0  0  0  0
  1 13  1  0  0  0  0
  2  3  2  0  0  0  0
  2  4  1  0  0  0  0
  3 14  1  0  0  0  0
  4  5  2  0  0  0  0
  4 11  1  0  0  0  0
  5  6  1  0  0  0  0
  5 15  1  0  0  0  0
  6  7  2  0  0  0  0
  6 16  1  0  0  0  0
  7  8  1  0  0  0  0
  7 10  1  0  0  0  0
  8  9  1  0  0  0  0
  8 17  1  0  0  0  0
  8 18  1  0  0  0  0
  9 19  1  0  0  0  0
 10 11  2  0  0  0  0
 10 20  1  0  0  0  0
 11 21  1  0  0  0  0
M  END
>  <DRUGBANK_ID>
DB02585

>  <SECONDARY_ACCESSION_NUMBERS>
EXPT00206

>  <COMMON_NAME>
4-(Hydroxymethyl)Benzamidine

>  <UNII>
E678E6SN42

$$$$
