
 OpenBabel10282417163D

 51 54  0  0  1  0  0  0  0  0999 V2000
   -3.3404   -3.1037    9.1946 O   0  0  0  0  0  0  0  0  0  0  0  0
   -5.8354   -4.2712    2.8974 O   0  0  0  0  0  0  0  0  0  0  0  0
   -4.0164   -1.3262    7.4804 C   0  0  2  0  0  0  0  0  0  0  0  0
   -4.0492   -0.7771    6.0474 C   0  0  1  0  0  0  0  0  0  0  0  0
   -4.5349   -0.2960    8.9821 C   0  0  1  0  0  0  0  0  0  0  0  0
   -3.2301    0.2351    8.6015 C   0  0  2  0  0  0  0  0  0  0  0  0
   -3.1894   -1.8728    4.9091 C   0  0  2  0  0  0  0  0  0  0  0  0
   -4.1699   -3.1363    5.2820 C   0  0  2  0  0  0  0  0  0  0  0  0
   -3.5320    0.6767    6.1619 C   0  0  0  0  0  0  0  0  0  0  0  0
   -4.1290    1.1500    7.3900 C   0  0  0  0  0  0  0  0  0  0  0  0
   -4.8287   -2.5629    7.4688 C   0  0  0  0  0  0  0  0  0  0  0  0
   -3.7203   -0.3909   10.6784 C   0  0  0  0  0  0  0  0  0  0  0  0
   -3.4549   -1.6177    9.5154 C   0  0  2  0  0  0  0  0  0  0  0  0
   -3.9850   -3.5770    6.7095 C   0  0  0  0  0  0  0  0  0  0  0  0
   -2.5942   -1.4482   10.6252 C   0  0  0  0  0  0  0  0  0  0  0  0
   -2.7992   -2.3519    3.3184 C   0  0  0  0  0  0  0  0  0  0  0  0
   -2.7808    1.7197    9.1269 C   0  0  0  0  0  0  0  0  0  0  0  0
   -3.1244   -0.5396    4.1646 C   0  0  0  0  0  0  0  0  0  0  0  0
   -4.0078   -4.3785    4.4387 C   0  0  0  0  0  0  0  0  0  0  0  0
   -4.1329   -2.6295    2.6349 C   0  0  0  0  0  0  0  0  0  0  0  0
   -4.7115   -3.8888    3.2055 C   0  0  0  0  0  0  0  0  0  0  0  0
   -2.8911   -1.5392    7.5291 H   0  0  0  0  0  0  0  0  0  0  0  0
   -5.1267   -0.7279    5.8131 H   0  0  0  0  0  0  0  0  0  0  0  0
   -5.4918    0.1756    8.9434 H   0  0  0  0  0  0  0  0  0  0  0  0
   -5.2332   -2.8452    5.2213 H   0  0  0  0  0  0  0  0  0  0  0  0
   -4.1362   -3.6032    9.5868 H   0  0  0  0  0  0  0  0  0  0  0  0
   -3.7662    1.3695    5.3372 H   0  0  0  0  0  0  0  0  0  0  0  0
   -2.4468    0.7513    6.3246 H   0  0  0  0  0  0  0  0  0  0  0  0
   -3.9125    2.2393    7.3030 H   0  0  0  0  0  0  0  0  0  0  0  0
   -5.2303    1.2204    7.4364 H   0  0  0  0  0  0  0  0  0  0  0  0
   -5.2218   -3.0728    8.3365 H   0  0  0  0  0  0  0  0  0  0  0  0
   -5.7991   -2.1602    7.1999 H   0  0  0  0  0  0  0  0  0  0  0  0
   -3.2147    0.5268   10.9516 H   0  0  0  0  0  0  0  0  0  0  0  0
   -4.5142   -0.5814   11.4045 H   0  0  0  0  0  0  0  0  0  0  0  0
   -4.5816   -1.8716    9.8976 H   0  0  0  0  0  0  0  0  0  0  0  0
   -2.8912   -3.7329    6.8525 H   0  0  0  0  0  0  0  0  0  0  0  0
   -4.3357   -4.5324    7.1143 H   0  0  0  0  0  0  0  0  0  0  0  0
   -1.6233   -1.1613   10.2167 H   0  0  0  0  0  0  0  0  0  0  0  0
   -2.4593   -2.5310   10.8603 H   0  0  0  0  0  0  0  0  0  0  0  0
   -2.2878   -1.7338    2.5382 H   0  0  0  0  0  0  0  0  0  0  0  0
   -1.9432   -3.0489    3.3993 H   0  0  0  0  0  0  0  0  0  0  0  0
   -2.2056    2.1686    8.2703 H   0  0  0  0  0  0  0  0  0  0  0  0
   -3.6103    2.4758    9.2028 H   0  0  0  0  0  0  0  0  0  0  0  0
   -2.0936    1.8933    9.9437 H   0  0  0  0  0  0  0  0  0  0  0  0
   -2.2701   -0.1740    4.7433 H   0  0  0  0  0  0  0  0  0  0  0  0
   -2.6753   -0.2093    3.2340 H   0  0  0  0  0  0  0  0  0  0  0  0
   -4.1187   -0.0726    4.0880 H   0  0  0  0  0  0  0  0  0  0  0  0
   -2.9726   -4.6822    4.2554 H   0  0  0  0  0  0  0  0  0  0  0  0
   -4.5062   -5.2144    4.9355 H   0  0  0  0  0  0  0  0  0  0  0  0
   -4.1660   -2.4905    1.5524 H   0  0  0  0  0  0  0  0  0  0  0  0
   -4.8045   -1.8406    2.9936 H   0  0  0  0  0  0  0  0  0  0  0  0
  1 26  1  0  0  0  0
  2 21  2  0  0  0  0
  3  4  1  0  0  0  0
  3  5  1  0  0  0  0
  3 11  1  0  0  0  0
  3 22  1  6  0  0  0
  4  7  1  0  0  0  0
  4  9  1  0  0  0  0
  4 23  1  1  0  0  0
  5  6  1  0  0  0  0
  5 12  1  0  0  0  0
  5 24  1  1  0  0  0
  6 10  1  0  0  0  0
  6 13  1  0  0  0  0
  6 17  1  1  0  0  0
  7  8  1  0  0  0  0
  7 16  1  0  0  0  0
  7 18  1  6  0  0  0
  8 14  1  0  0  0  0
  8 19  1  0  0  0  0
  8 25  1  6  0  0  0
  9 10  1  0  0  0  0
  9 27  1  0  0  0  0
  9 28  1  0  0  0  0
 10 29  1  0  0  0  0
 10 30  1  0  0  0  0
 11 14  1  0  0  0  0
 11 31  1  0  0  0  0
 11 32  1  0  0  0  0
 12 15  1  0  0  0  0
 12 33  1  0  0  0  0
 12 34  1  0  0  0  0
 13 15  1  0  0  0  0
 13  1  1  0  0  0  0
 13 35  1  1  0  0  0
 14 36  1  0  0  0  0
 14 37  1  0  0  0  0
 15 38  1  0  0  0  0
 15 39  1  0  0  0  0
 16 20  1  0  0  0  0
 16 40  1  0  0  0  0
 16 41  1  0  0  0  0
 17 42  1  0  0  0  0
 17 43  1  0  0  0  0
 17 44  1  0  0  0  0
 18 45  1  0  0  0  0
 18 46  1  0  0  0  0
 18 47  1  0  0  0  0
 19 21  1  0  0  0  0
 19 48  1  0  0  0  0
 19 49  1  0  0  0  0
 20 21  1  0  0  0  0
 20 50  1  0  0  0  0
 20 51  1  0  0  0  0
M  END
>  <DRUGBANK_ID>
DB07447

>  <COMMON_NAME>
5beta-dihydrotestosterone

>  <CAS_NUMBER>
571-22-2

>  <UNII>
SVX1G0C5VD

>  <SYNONYMS>
(5β,17β)-17-hydroxyandrostan-3-one; (5β,8α,17β)-17-hydroxyandrostan-3-one; 17β-hydroxyetiocholan-3-one; 5-beta-DHT; 5β-androstan-17β-ol-3-one; 5β-dihydrotestosterone; 5β,17β-hydroxyandrostan-3-one; etiocholan-17-beta-ol-3-one

$$$$
