FDN
 OpenBabel10282417163D

 35 37  0  0  0  0  0  0  0  0999 V2000
    2.3505    0.9507    0.0399 F   0  0  0  0  0  0  0  0  0  0  0  0
    1.1986    0.2655    0.0554 C   0  0  0  0  0  0  0  0  0  0  0  0
   -0.0026    0.9718    0.0249 C   0  0  0  0  0  0  0  0  0  0  0  0
   -1.2055    0.2773    0.0044 C   0  0  0  0  0  0  0  0  0  0  0  0
   -2.3644    0.9461   -0.0169 F   0  0  0  0  0  0  0  0  0  0  0  0
   -1.2285   -1.1055    0.0053 C   0  0  0  0  0  0  0  0  0  0  0  0
   -0.0247   -1.8015    0.0417 C   0  0  0  0  0  0  0  0  0  0  0  0
    1.2222   -1.1321    0.0708 C   0  0  0  0  0  0  0  0  0  0  0  0
    2.5401   -1.8932    0.0129 C   0  0  2  0  0  0  0  0  0  0  0  0
    2.2972   -3.4166    0.0432 C   0  0  0  0  0  0  0  0  0  0  0  0
    3.4845   -1.5674    1.0591 O   0  0  0  0  0  0  0  0  0  0  0  0
    4.7487   -1.6857    0.5202 C   0  0  0  0  0  0  0  0  0  0  0  0
    5.7741   -1.5891    1.1920 O   0  0  0  0  0  0  0  0  0  0  0  0
    4.6493   -1.9002   -0.8180 N   0  0  0  0  0  0  0  0  0  0  0  0
    3.3800   -1.5734   -1.2048 C   0  0  0  0  0  0  0  0  0  0  0  0
    2.9643   -1.0829   -2.2411 O   0  0  0  0  0  0  0  0  0  0  0  0
    5.7374   -2.2347   -1.6423 N   0  0  0  0  0  0  0  0  0  0  0  0
    5.5296   -2.4990   -3.0077 C   0  0  0  0  0  0  0  0  0  0  0  0
    5.2272   -1.4210   -3.8463 C   0  0  0  0  0  0  0  0  0  0  0  0
    5.0415   -1.5816   -5.2178 C   0  0  0  0  0  0  0  0  0  0  0  0
    5.1993   -2.8341   -5.7955 C   0  0  0  0  0  0  0  0  0  0  0  0
    5.5436   -3.9207   -4.9924 C   0  0  0  0  0  0  0  0  0  0  0  0
    5.6667   -3.7653   -3.5975 C   0  0  0  0  0  0  0  0  0  0  0  0
   -0.0017    2.0545    0.0055 H   0  0  0  0  0  0  0  0  0  0  0  0
   -2.1714   -1.6431   -0.0312 H   0  0  0  0  0  0  0  0  0  0  0  0
   -0.1040   -2.8858    0.0239 H   0  0  0  0  0  0  0  0  0  0  0  0
    1.7376   -3.6942    0.9450 H   0  0  0  0  0  0  0  0  0  0  0  0
    1.7256   -3.7287   -0.8406 H   0  0  0  0  0  0  0  0  0  0  0  0
    3.2147   -4.0100    0.0609 H   0  0  0  0  0  0  0  0  0  0  0  0
    6.5626   -2.6233   -1.1894 H   0  0  0  0  0  0  0  0  0  0  0  0
    5.1195   -0.4302   -3.4115 H   0  0  0  0  0  0  0  0  0  0  0  0
    4.7828   -0.7185   -5.8231 H   0  0  0  0  0  0  0  0  0  0  0  0
    5.0519   -2.9572   -6.8658 H   0  0  0  0  0  0  0  0  0  0  0  0
    5.7203   -4.8869   -5.4624 H   0  0  0  0  0  0  0  0  0  0  0  0
    5.8668   -4.6521   -3.0017 H   0  0  0  0  0  0  0  0  0  0  0  0
  1  2  1  0  0  0  0
  2  3  2  0  0  0  0
  2  8  1  0  0  0  0
  3  4  1  0  0  0  0
  3 24  1  0  0  0  0
  4  5  1  0  0  0  0
  4  6  2  0  0  0  0
  6  7  1  0  0  0  0
  6 25  1  0  0  0  0
  7  8  2  0  0  0  0
  7 26  1  0  0  0  0
  9  8  1  0  0  0  0
  9 10  1  1  0  0  0
  9 11  1  0  0  0  0
  9 15  1  0  0  0  0
 10 27  1  0  0  0  0
 10 28  1  0  0  0  0
 10 29  1  0  0  0  0
 11 12  1  0  0  0  0
 12 13  2  0  0  0  0
 12 14  1  0  0  0  0
 14 15  1  0  0  0  0
 14 17  1  0  0  0  0
 15 16  2  0  0  0  0
 17 18  1  0  0  0  0
 17 30  1  0  0  0  0
 18 19  1  0  0  0  0
 18 23  2  0  0  0  0
 19 20  2  0  0  0  0
 19 31  1  0  0  0  0
 20 21  1  0  0  0  0
 20 32  1  0  0  0  0
 21 22  2  0  0  0  0
 21 33  1  0  0  0  0
 22 23  1  0  0  0  0
 22 34  1  0  0  0  0
 23 35  1  0  0  0  0
M  END
>  <DRUGBANK_ID>
DB07763

>  <COMMON_NAME>
(5S)-3-ANILINO-5-(2,4-DIFLUOROPHENYL)-5-METHYL-1,3-OXAZOLIDINE-2,4-DIONE

$$$$
