463
 OpenBabel10282417103D

 28 28  0  0  0  0  0  0  0  0999 V2000
   -1.3444    2.1954   -0.0151 O   0  0  0  0  0  0  0  0  0  0  0  0
    2.8407    0.1017   -0.3380 O   0  0  0  0  0  0  0  0  0  0  0  0
   -0.7951   -2.3663    0.0266 O   0  0  0  0  0  0  0  0  0  0  0  0
   -1.1095   -0.0862    0.0219 N   0  0  0  0  0  0  0  0  0  0  0  0
    1.0066   -1.0610    0.2290 N   0  0  0  0  0  0  0  0  0  0  0  0
    0.8809    1.3666    0.3236 C   0  0  0  0  0  0  0  0  0  0  0  0
    1.0635    1.6495    1.8389 C   0  0  0  0  0  0  0  0  0  0  0  0
    1.3952    2.5508   -0.5283 C   0  0  0  0  0  0  0  0  0  0  0  0
   -0.6135    1.2055    0.0770 C   0  0  0  0  0  0  0  0  0  0  0  0
    1.6626    0.1091    0.0066 C   0  0  0  0  0  0  0  0  0  0  0  0
    2.5172    1.8794    2.2463 C   0  0  0  0  0  0  0  0  0  0  0  0
    1.2012    2.3111   -2.0220 C   0  0  0  0  0  0  0  0  0  0  0  0
   -0.3392   -1.2311    0.1053 C   0  0  0  0  0  0  0  0  0  0  0  0
   -2.5330   -0.2679   -0.2110 C   0  0  0  0  0  0  0  0  0  0  0  0
    1.5548   -1.9008    0.1010 H   0  0  0  0  0  0  0  0  0  0  0  0
    0.4750    2.5306    2.1271 H   0  0  0  0  0  0  0  0  0  0  0  0
    0.6638    0.8139    2.4295 H   0  0  0  0  0  0  0  0  0  0  0  0
    0.8784    3.4769   -0.2426 H   0  0  0  0  0  0  0  0  0  0  0  0
    2.4630    2.7264   -0.3593 H   0  0  0  0  0  0  0  0  0  0  0  0
    2.9455    2.7437    1.7317 H   0  0  0  0  0  0  0  0  0  0  0  0
    2.5918    2.0653    3.3201 H   0  0  0  0  0  0  0  0  0  0  0  0
    3.1375    1.0068    2.0219 H   0  0  0  0  0  0  0  0  0  0  0  0
    0.1455    2.1764   -2.2733 H   0  0  0  0  0  0  0  0  0  0  0  0
    1.5806    3.1618   -2.5927 H   0  0  0  0  0  0  0  0  0  0  0  0
    1.7419    1.4179   -2.3481 H   0  0  0  0  0  0  0  0  0  0  0  0
   -2.6730   -0.7777   -1.1703 H   0  0  0  0  0  0  0  0  0  0  0  0
   -2.9485   -0.8961    0.5822 H   0  0  0  0  0  0  0  0  0  0  0  0
   -3.0796    0.6786   -0.2364 H   0  0  0  0  0  0  0  0  0  0  0  0
  1  9  2  0  0  0  0
  2 10  2  0  0  0  0
  3 13  2  0  0  0  0
  4  9  1  0  0  0  0
  4 13  1  0  0  0  0
  4 14  1  0  0  0  0
  5 10  1  0  0  0  0
  5 13  1  0  0  0  0
  5 15  1  0  0  0  0
  6  7  1  0  0  0  0
  6  8  1  0  0  0  0
  6  9  1  0  0  0  0
  6 10  1  0  0  0  0
  7 11  1  0  0  0  0
  7 16  1  0  0  0  0
  7 17  1  0  0  0  0
  8 12  1  0  0  0  0
  8 18  1  0  0  0  0
  8 19  1  0  0  0  0
 11 20  1  0  0  0  0
 11 21  1  0  0  0  0
 11 22  1  0  0  0  0
 12 23  1  0  0  0  0
 12 24  1  0  0  0  0
 12 25  1  0  0  0  0
 14 26  1  0  0  0  0
 14 27  1  0  0  0  0
 14 28  1  0  0  0  0
M  END
>  <DRUGBANK_ID>
DB00463

>  <SECONDARY_ACCESSION_NUMBERS>
APRD00757

>  <COMMON_NAME>
Metharbital

>  <CAS_NUMBER>
50-11-3

>  <UNII>
02OS7K758T

>  <SYNONYMS>
Metarbital; Metharbital; Metharbitalum

$$$$
