
 OpenBabel10282417133D

 47 49  0  0  0  0  0  0  0  0999 V2000
    0.9764    0.1098   -0.0322 S   0  0  0  0  0  0  0  0  0  0  0  0
    7.6117    1.1616   -0.8002 O   0  0  0  0  0  0  0  0  0  0  0  0
    0.5615   -0.3704   -1.3364 O   0  0  0  0  0  0  0  0  0  0  0  0
    0.5771   -0.5370    1.1878 O   0  0  0  0  0  0  0  0  0  0  0  0
    9.3976   -4.3653   -0.9983 N   0  0  0  0  0  0  0  0  0  0  0  0
    7.7148   -1.0672   -0.7633 N   0  0  0  0  0  0  0  0  0  0  0  0
    0.4747    1.7053    0.0456 N   0  0  0  0  0  0  0  0  0  0  0  0
    7.3320   -3.3120   -1.8291 C   0  0  2  0  0  0  0  0  0  0  0  0
    8.7809   -3.6616   -2.1153 C   0  0  0  0  0  0  0  0  0  0  0  0
    7.2630   -2.4248   -0.6096 C   0  0  0  0  0  0  0  0  0  0  0  0
    9.2598   -5.7158   -0.7400 C   0  0  0  0  0  0  0  0  0  0  0  0
    6.4198   -4.5315   -1.5724 C   0  0  0  0  0  0  0  0  0  0  0  0
    9.7860   -5.9381    0.5338 C   0  0  0  0  0  0  0  0  0  0  0  0
   10.0201   -3.7451    0.0598 C   0  0  0  0  0  0  0  0  0  0  0  0
   10.2596   -4.6942    1.0249 C   0  0  0  0  0  0  0  0  0  0  0  0
    8.6641   -6.7500   -1.4841 C   0  0  0  0  0  0  0  0  0  0  0  0
    9.7462   -7.2381    1.0690 C   0  0  0  0  0  0  0  0  0  0  0  0
    7.0081    0.1068   -0.5993 C   0  0  0  0  0  0  0  0  0  0  0  0
    8.6124   -8.0254   -0.9217 C   0  0  0  0  0  0  0  0  0  0  0  0
    9.1613   -8.2719    0.3311 C   0  0  0  0  0  0  0  0  0  0  0  0
    5.5324    0.1354   -0.2653 C   0  0  0  0  0  0  0  0  0  0  0  0
    4.7501   -0.9776    0.0574 C   0  0  0  0  0  0  0  0  0  0  0  0
    4.8599    1.3584   -0.2580 C   0  0  0  0  0  0  0  0  0  0  0  0
    2.7291    0.2125   -0.0568 C   0  0  0  0  0  0  0  0  0  0  0  0
    3.3769   -0.9961   -0.0426 C   0  0  0  0  0  0  0  0  0  0  0  0
    3.4679    1.4000   -0.0455 C   0  0  0  0  0  0  0  0  0  0  0  0
    8.7037   -0.9088   -0.9345 H   0  0  0  0  0  0  0  0  0  0  0  0
    0.7585    2.2083   -0.7936 H   0  0  0  0  0  0  0  0  0  0  0  0
   -0.5415    1.7087    0.1488 H   0  0  0  0  0  0  0  0  0  0  0  0
    6.9004   -2.7667   -2.6803 H   0  0  0  0  0  0  0  0  0  0  0  0
    8.8586   -4.2766   -3.0143 H   0  0  0  0  0  0  0  0  0  0  0  0
    9.3539   -2.7426   -2.2898 H   0  0  0  0  0  0  0  0  0  0  0  0
    7.6372   -2.8356    0.3319 H   0  0  0  0  0  0  0  0  0  0  0  0
    6.2175   -2.4243   -0.5303 H   0  0  0  0  0  0  0  0  0  0  0  0
    5.3767   -4.2457   -1.3904 H   0  0  0  0  0  0  0  0  0  0  0  0
    6.4269   -5.2044   -2.4310 H   0  0  0  0  0  0  0  0  0  0  0  0
    6.7218   -5.0738   -0.6704 H   0  0  0  0  0  0  0  0  0  0  0  0
   10.1834   -2.6747    0.0803 H   0  0  0  0  0  0  0  0  0  0  0  0
   10.7056   -4.5131    1.9935 H   0  0  0  0  0  0  0  0  0  0  0  0
    8.2122   -6.5696   -2.4541 H   0  0  0  0  0  0  0  0  0  0  0  0
   10.1663   -7.4347    2.0497 H   0  0  0  0  0  0  0  0  0  0  0  0
    8.1386   -8.8329   -1.4744 H   0  0  0  0  0  0  0  0  0  0  0  0
    9.1372   -9.2765    0.7432 H   0  0  0  0  0  0  0  0  0  0  0  0
    5.1202   -1.8813    0.5104 H   0  0  0  0  0  0  0  0  0  0  0  0
    5.4193    2.2860   -0.3740 H   0  0  0  0  0  0  0  0  0  0  0  0
    2.8467   -1.9453   -0.0035 H   0  0  0  0  0  0  0  0  0  0  0  0
    2.9882    2.3570    0.1234 H   0  0  0  0  0  0  0  0  0  0  0  0
  1  3  2  0  0  0  0
  1  4  2  0  0  0  0
  1  7  1  0  0  0  0
  1 24  1  0  0  0  0
  2 18  2  0  0  0  0
  5  9  1  0  0  0  0
  5 11  1  0  0  0  0
  5 14  1  0  0  0  0
  6 10  1  0  0  0  0
  6 18  1  0  0  0  0
  6 27  1  0  0  0  0
  7 28  1  0  0  0  0
  7 29  1  0  0  0  0
  8  9  1  0  0  0  0
  8 10  1  0  0  0  0
  8 12  1  0  0  0  0
  8 30  1  6  0  0  0
  9 31  1  0  0  0  0
  9 32  1  0  0  0  0
 10 33  1  0  0  0  0
 10 34  1  0  0  0  0
 11 13  1  0  0  0  0
 11 16  2  0  0  0  0
 12 35  1  0  0  0  0
 12 36  1  0  0  0  0
 12 37  1  0  0  0  0
 13 15  1  0  0  0  0
 13 17  2  0  0  0  0
 14 15  2  0  0  0  0
 14 38  1  0  0  0  0
 15 39  1  0  0  0  0
 16 19  1  0  0  0  0
 16 40  1  0  0  0  0
 17 20  1  0  0  0  0
 17 41  1  0  0  0  0
 18 21  1  0  0  0  0
 19 20  2  0  0  0  0
 19 42  1  0  0  0  0
 20 43  1  0  0  0  0
 21 22  2  0  0  0  0
 21 23  1  0  0  0  0
 22 25  1  0  0  0  0
 22 44  1  0  0  0  0
 23 26  2  0  0  0  0
 23 45  1  0  0  0  0
 24 25  2  0  0  0  0
 24 26  1  0  0  0  0
 25 46  1  0  0  0  0
 26 47  1  0  0  0  0
M  END
>  <DRUGBANK_ID>
DB03950

>  <SECONDARY_ACCESSION_NUMBERS>
EXPT02860

>  <COMMON_NAME>
(S)-N-(3-Indol-1-Yl-2-Methyl-Propyl)-4-Sulfamoyl-Benzamide

$$$$
