
 OpenBabel10282417133D

 16 15  0  0  0  0  0  0  0  0999 V2000
    0.9493    0.0940    0.0450 C   0  0  0  0  0  0  0  0  0  0  0  0
    0.4162    1.4554    0.4550 C   0  0  0  0  0  0  0  0  0  0  0  0
    0.8109    2.4829   -0.4880 N   0  0  0  0  0  0  0  0  0  0  0  0
   -0.0189    3.2856   -1.2192 C   0  0  0  0  0  0  0  0  0  0  0  0
    0.4216    4.1309   -1.9891 O   0  0  0  0  0  0  0  0  0  0  0  0
   -1.3353    3.0439   -0.9990 O   0  0  0  0  0  0  0  0  0  0  0  0
   -2.2399    3.8610   -1.7477 C   0  0  0  0  0  0  0  0  0  0  0  0
    0.6063   -0.1753   -0.9591 H   0  0  0  0  0  0  0  0  0  0  0  0
    0.6057   -0.6749    0.7443 H   0  0  0  0  0  0  0  0  0  0  0  0
    2.0446    0.0824    0.0394 H   0  0  0  0  0  0  0  0  0  0  0  0
   -0.6720    1.4121    0.5436 H   0  0  0  0  0  0  0  0  0  0  0  0
    0.8239    1.7331    1.4328 H   0  0  0  0  0  0  0  0  0  0  0  0
    1.7954    2.6708   -0.6248 H   0  0  0  0  0  0  0  0  0  0  0  0
   -2.1124    4.9188   -1.4965 H   0  0  0  0  0  0  0  0  0  0  0  0
   -2.1136    3.6985   -2.8227 H   0  0  0  0  0  0  0  0  0  0  0  0
   -3.2592    3.5678   -1.4768 H   0  0  0  0  0  0  0  0  0  0  0  0
  1  2  1  0  0  0  0
  1  8  1  0  0  0  0
  1  9  1  0  0  0  0
  1 10  1  0  0  0  0
  2  3  1  0  0  0  0
  2 11  1  0  0  0  0
  2 12  1  0  0  0  0
  3  4  1  0  0  0  0
  3 13  1  0  0  0  0
  4  5  2  0  0  0  0
  4  6  1  0  0  0  0
  6  7  1  0  0  0  0
  7 14  1  0  0  0  0
  7 15  1  0  0  0  0
  7 16  1  0  0  0  0
M  END
>  <DRUGBANK_ID>
DB03919

>  <SECONDARY_ACCESSION_NUMBERS>
EXPT02149

>  <COMMON_NAME>
Ethyl-Carbamic Acid Methyl Ester

>  <UNII>
RA2E9801WV

$$$$
