
 OpenBabel10282417203D

113119  0  0  1  0  0  0  0  0999 V2000
   -1.6131    9.8598    0.4838 C   0  0  0  0  0  0  0  0  0  0  0  0
   -0.6131   10.0473    1.4765 C   0  0  0  0  0  0  0  0  0  0  0  0
   -0.3030   10.0486    2.7588 C   0  0  0  0  0  0  0  0  0  0  0  0
   -1.5535    9.6970    3.5339 C   0  0  2  0  0  0  0  0  0  0  0  0
   -1.1381    8.3827    3.9697 C   0  0  0  0  0  0  0  0  0  0  0  0
   -1.7970    8.0702    5.0108 O   0  0  0  0  0  0  0  0  0  0  0  0
    0.2986    7.2634    3.2684 C   0  0  2  0  0  0  0  0  0  0  0  0
    0.2386    6.6730    4.7065 C   0  0  0  0  0  0  0  0  0  0  0  0
   -0.8601    5.9882    4.1381 C   0  0  1  0  0  0  0  0  0  0  0  0
   -0.9987    4.6339    3.5667 C   0  0  0  0  0  0  0  0  0  0  0  0
    0.1735    4.0996    2.6449 C   0  0  2  0  0  0  0  0  0  0  0  0
    1.6165    4.8769    1.3092 C   0  0  2  0  0  0  0  0  0  0  0  0
    1.8316    6.8940    1.7905 C   0  0  1  0  0  0  0  0  0  0  0  0
    2.1519    7.2030    0.1974 C   0  0  1  0  0  0  0  0  0  0  0  0
    2.1078    8.7354    0.8259 C   0  0  1  0  0  0  0  0  0  0  0  0
    1.3845    9.3221    2.7850 C   0  0  0  0  0  0  0  0  0  0  0  0
    1.1285    9.2066    4.7385 C   0  0  0  0  0  0  0  0  0  0  0  0
    2.6106    9.9606    3.2040 C   0  0  0  0  0  0  0  0  0  0  0  0
    0.9360    8.9572   -0.2409 C   0  0  0  0  0  0  0  0  0  0  0  0
    0.4563    9.4796    0.9023 C   0  0  2  0  0  0  0  0  0  0  0  0
    0.2921    8.0256    1.5213 O   0  0  0  0  0  0  0  0  0  0  0  0
    0.1911    6.4461    1.5552 C   0  0  0  0  0  0  0  0  0  0  0  0
   -0.3111    5.9336    0.5178 O   0  0  0  0  0  0  0  0  0  0  0  0
    1.6072    5.8195    3.0118 C   0  0  1  0  0  0  0  0  0  0  0  0
    3.4822    5.4004    2.5106 C   0  0  2  0  0  0  0  0  0  0  0  0
    4.1336    3.7547    2.9784 C   0  0  0  0  0  0  0  0  0  0  0  0
    5.0899    3.4299    2.1114 C   0  0  0  0  0  0  0  0  0  0  0  0
    5.4106    2.1154    2.1201 C   0  0  0  0  0  0  0  0  0  0  0  0
    4.6723    1.0781    2.7867 C   0  0  0  0  0  0  0  0  0  0  0  0
    3.5609    1.2113    3.5244 C   0  0  0  0  0  0  0  0  0  0  0  0
    3.3088    2.5039    3.6432 C   0  0  0  0  0  0  0  0  0  0  0  0
    4.2833    6.3497    3.2142 N   0  0  0  0  0  0  0  0  0  0  0  0
    5.0366    7.3923    2.7480 C   0  0  0  0  0  0  0  0  0  0  0  0
    5.7528    7.9926    3.5299 O   0  0  0  0  0  0  0  0  0  0  0  0
    4.8234    7.7845    1.4639 O   0  0  0  0  0  0  0  0  0  0  0  0
    5.7283    8.7206    0.6530 C   0  0  0  0  0  0  0  0  0  0  0  0
    5.2642   10.0067    1.1600 C   0  0  0  0  0  0  0  0  0  0  0  0
    7.1257    8.2051    0.8237 C   0  0  0  0  0  0  0  0  0  0  0  0
    5.5831    9.0307   -0.9165 C   0  0  0  0  0  0  0  0  0  0  0  0
    2.1571    5.8203    4.3349 O   0  0  0  0  0  0  0  0  0  0  0  0
    2.7916    9.3620   -0.5338 O   0  0  0  0  0  0  0  0  0  0  0  0
    3.1204    6.8259   -1.1965 O   0  0  0  0  0  0  0  0  0  0  0  0
    4.4799    6.7372   -1.3757 C   0  0  0  0  0  0  0  0  0  0  0  0
    4.9986    6.8978   -0.3098 O   0  0  0  0  0  0  0  0  0  0  0  0
    5.7314    6.5049   -2.2887 C   0  0  0  0  0  0  0  0  0  0  0  0
    5.5968    6.6966   -3.6247 C   0  0  0  0  0  0  0  0  0  0  0  0
    6.6792    6.4223   -4.4588 C   0  0  0  0  0  0  0  0  0  0  0  0
    7.9407    6.0256   -3.9742 C   0  0  0  0  0  0  0  0  0  0  0  0
    8.1948    5.9817   -2.6175 C   0  0  0  0  0  0  0  0  0  0  0  0
    7.0926    6.1388   -1.7777 C   0  0  0  0  0  0  0  0  0  0  0  0
    1.9884    3.7362    2.2716 C   0  0  0  0  0  0  0  0  0  0  0  0
    1.0170    3.1872    3.0731 O   0  0  0  0  0  0  0  0  0  0  0  0
    2.6438    4.3059   -0.1038 O   0  0  0  0  0  0  0  0  0  0  0  0
    4.2084    4.4100   -0.5419 C   0  0  0  0  0  0  0  0  0  0  0  0
    5.1346    4.9127    0.0972 O   0  0  0  0  0  0  0  0  0  0  0  0
    4.8419    3.9582   -2.0178 C   0  0  0  0  0  0  0  0  0  0  0  0
   -2.8918    9.4933    2.8702 O   0  0  0  0  0  0  0  0  0  0  0  0
   -3.2220    8.5498    1.9309 C   0  0  0  0  0  0  0  0  0  0  0  0
   -4.0267    8.7841    1.0274 O   0  0  0  0  0  0  0  0  0  0  0  0
   -2.2946    7.4157    1.7478 C   0  0  0  0  0  0  0  0  0  0  0  0
   -1.1798    9.8597   -0.4964 H   0  0  0  0  0  0  0  0  0  0  0  0
   -2.3682   10.4933    0.8560 H   0  0  0  0  0  0  0  0  0  0  0  0
   -1.9178    8.8433    0.2694 H   0  0  0  0  0  0  0  0  0  0  0  0
   -1.8145   10.3992    4.3567 H   0  0  0  0  0  0  0  0  0  0  0  0
    0.7273    6.3578    5.6068 H   0  0  0  0  0  0  0  0  0  0  0  0
    1.0519    7.2251    4.3448 H   0  0  0  0  0  0  0  0  0  0  0  0
   -1.5283    6.0419    5.0640 H   0  0  0  0  0  0  0  0  0  0  0  0
   -1.3113    3.9740    4.3931 H   0  0  0  0  0  0  0  0  0  0  0  0
   -1.7113    4.8352    2.8098 H   0  0  0  0  0  0  0  0  0  0  0  0
    0.4499    4.4702    3.8742 H   0  0  0  0  0  0  0  0  0  0  0  0
    2.8945    7.1669    1.9107 H   0  0  0  0  0  0  0  0  0  0  0  0
    1.3764    6.6836   -0.3844 H   0  0  0  0  0  0  0  0  0  0  0  0
    1.4295    8.2955    5.1847 H   0  0  0  0  0  0  0  0  0  0  0  0
    1.8291    9.5352    5.5279 H   0  0  0  0  0  0  0  0  0  0  0  0
    0.1321    9.2918    5.3204 H   0  0  0  0  0  0  0  0  0  0  0  0
    2.9630    8.9444    3.0727 H   0  0  0  0  0  0  0  0  0  0  0  0
    2.5255   10.8345    2.5958 H   0  0  0  0  0  0  0  0  0  0  0  0
    3.0494   10.0950    4.1924 H   0  0  0  0  0  0  0  0  0  0  0  0
    0.8569    9.8230   -0.8750 H   0  0  0  0  0  0  0  0  0  0  0  0
    0.3147    8.1122   -0.5251 H   0  0  0  0  0  0  0  0  0  0  0  0
    1.2075   10.3311    1.1397 H   0  0  0  0  0  0  0  0  0  0  0  0
    0.5723    5.6088    2.6619 H   0  0  0  0  0  0  0  0  0  0  0  0
    3.6361    5.5259    1.4269 H   0  0  0  0  0  0  0  0  0  0  0  0
    5.6072    4.2078    1.6160 H   0  0  0  0  0  0  0  0  0  0  0  0
    6.3969    1.9340    1.7484 H   0  0  0  0  0  0  0  0  0  0  0  0
    5.0575    0.0958    2.8333 H   0  0  0  0  0  0  0  0  0  0  0  0
    2.8310    0.5473    3.9948 H   0  0  0  0  0  0  0  0  0  0  0  0
    2.2111    2.1293    3.4880 H   0  0  0  0  0  0  0  0  0  0  0  0
    4.2172    6.1264    4.1875 H   0  0  0  0  0  0  0  0  0  0  0  0
    5.3517    9.9755    2.2303 H   0  0  0  0  0  0  0  0  0  0  0  0
    5.8428   10.7592    0.6499 H   0  0  0  0  0  0  0  0  0  0  0  0
    4.2059   10.0996    0.8973 H   0  0  0  0  0  0  0  0  0  0  0  0
    7.2438    7.1954    0.4379 H   0  0  0  0  0  0  0  0  0  0  0  0
    7.8064    8.8482    0.2806 H   0  0  0  0  0  0  0  0  0  0  0  0
    7.3606    8.0828    1.8670 H   0  0  0  0  0  0  0  0  0  0  0  0
    6.0613    8.2810   -1.4835 H   0  0  0  0  0  0  0  0  0  0  0  0
    4.5653    9.0257   -1.2220 H   0  0  0  0  0  0  0  0  0  0  0  0
    6.1250    9.7709   -1.4972 H   0  0  0  0  0  0  0  0  0  0  0  0
    2.5321    6.7247    4.4350 H   0  0  0  0  0  0  0  0  0  0  0  0
    2.8869    8.6522   -1.2998 H   0  0  0  0  0  0  0  0  0  0  0  0
    4.6171    6.9652   -3.9662 H   0  0  0  0  0  0  0  0  0  0  0  0
    6.5146    6.5116   -5.5228 H   0  0  0  0  0  0  0  0  0  0  0  0
    8.7207    5.7316   -4.6707 H   0  0  0  0  0  0  0  0  0  0  0  0
    9.2006    5.7807   -2.2433 H   0  0  0  0  0  0  0  0  0  0  0  0
    7.2694    5.8233   -0.7397 H   0  0  0  0  0  0  0  0  0  0  0  0
    2.4581    3.0093    1.6526 H   0  0  0  0  0  0  0  0  0  0  0  0
    2.4055    4.1602    3.2014 H   0  0  0  0  0  0  0  0  0  0  0  0
    5.4989    3.0959   -1.9147 H   0  0  0  0  0  0  0  0  0  0  0  0
    4.2743    4.2039   -2.9121 H   0  0  0  0  0  0  0  0  0  0  0  0
    5.7737    4.4731   -2.3834 H   0  0  0  0  0  0  0  0  0  0  0  0
   -1.3961    7.9332    1.7474 H   0  0  0  0  0  0  0  0  0  0  0  0
   -2.1280    6.7598    2.5562 H   0  0  0  0  0  0  0  0  0  0  0  0
   -2.1630    7.0020    0.7457 H   0  0  0  0  0  0  0  0  0  0  0  0
  1  2  1  0  0  0  0
  1 61  1  0  0  0  0
  1 62  1  0  0  0  0
  1 63  1  0  0  0  0
  2  3  2  0  0  0  0
  2 20  1  0  0  0  0
  3  4  1  0  0  0  0
  3 16  1  0  0  0  0
  4  5  1  0  0  0  0
  4 64  1  1  0  0  0
  4 57  1  0  0  0  0
  5  6  2  0  0  0  0
  7  5  1  1  0  0  0
  7  8  1  0  0  0  0
  7  9  1  0  0  0  0
  8 65  1  0  0  0  0
  8 66  1  0  0  0  0
  9  8  1  0  0  0  0
  9 10  1  0  0  0  0
  9 67  1  6  0  0  0
 10 11  1  0  0  0  0
 10 68  1  0  0  0  0
 10 69  1  0  0  0  0
 11 12  1  0  0  0  0
 11 52  1  0  0  0  0
 11 70  1  1  0  0  0
 12 13  1  0  0  0  0
 12 51  1  0  0  0  0
 12 53  1  1  0  0  0
 13  7  1  0  0  0  0
 13 14  1  0  0  0  0
 13 71  1  1  0  0  0
 14 15  1  0  0  0  0
 14 42  1  0  0  0  0
 14 72  1  6  0  0  0
 15 16  1  0  0  0  0
 15 19  1  0  0  0  0
 15 41  1  1  0  0  0
 16 17  1  0  0  0  0
 16 18  1  0  0  0  0
 17 73  1  0  0  0  0
 17 74  1  0  0  0  0
 17 75  1  0  0  0  0
 18 76  1  0  0  0  0
 18 77  1  0  0  0  0
 18 78  1  0  0  0  0
 19 20  1  0  0  0  0
 19 79  1  0  0  0  0
 19 80  1  0  0  0  0
 20 21  1  0  0  0  0
 20 81  1  1  0  0  0
 21 22  1  0  0  0  0
 22 23  2  0  0  0  0
 22 24  1  0  0  0  0
 24 40  1  0  0  0  0
 24 82  1  1  0  0  0
 25 32  1  0  0  0  0
 25 83  1  6  0  0  0
 25 26  1  0  0  0  0
 25 24  1  0  0  0  0
 26 27  2  0  0  0  0
 26 31  1  0  0  0  0
 27 28  1  0  0  0  0
 27 84  1  0  0  0  0
 28 29  2  0  0  0  0
 28 85  1  0  0  0  0
 29 30  1  0  0  0  0
 29 86  1  0  0  0  0
 30 31  2  0  0  0  0
 30 87  1  0  0  0  0
 31 88  1  0  0  0  0
 32 33  1  0  0  0  0
 32 89  1  0  0  0  0
 33 34  2  0  0  0  0
 33 35  1  0  0  0  0
 35 36  1  0  0  0  0
 36 37  1  0  0  0  0
 36 38  1  0  0  0  0
 36 39  1  0  0  0  0
 37 90  1  0  0  0  0
 37 91  1  0  0  0  0
 37 92  1  0  0  0  0
 38 93  1  0  0  0  0
 38 94  1  0  0  0  0
 38 95  1  0  0  0  0
 39 96  1  0  0  0  0
 39 97  1  0  0  0  0
 39 98  1  0  0  0  0
 40 99  1  0  0  0  0
 41100  1  0  0  0  0
 42 43  1  0  0  0  0
 43 44  2  0  0  0  0
 43 45  1  0  0  0  0
 45 46  2  0  0  0  0
 45 50  1  0  0  0  0
 46 47  1  0  0  0  0
 46101  1  0  0  0  0
 47 48  2  0  0  0  0
 47102  1  0  0  0  0
 48 49  1  0  0  0  0
 48103  1  0  0  0  0
 49 50  2  0  0  0  0
 49104  1  0  0  0  0
 50105  1  0  0  0  0
 51 52  1  0  0  0  0
 51106  1  0  0  0  0
 51107  1  0  0  0  0
 53 54  1  0  0  0  0
 54 55  2  0  0  0  0
 54 56  1  0  0  0  0
 56108  1  0  0  0  0
 56109  1  0  0  0  0
 56110  1  0  0  0  0
 57 58  1  0  0  0  0
 58 59  2  0  0  0  0
 58 60  1  0  0  0  0
 60111  1  0  0  0  0
 60112  1  0  0  0  0
 60113  1  0  0  0  0
M  END
>  <DRUGBANK_ID>
DB12984

>  <COMMON_NAME>
Larotaxel

>  <CAS_NUMBER>
156294-36-9

>  <UNII>
TWQ8K8A81Y

>  <SYNONYMS>
Larotaxel

$$$$
