
 OpenBabel10282417193D

 75 76  0  0  0  0  0  0  0  0999 V2000
    1.0906   -0.1677    0.1083 C   0  0  0  0  0  0  0  0  0  0  0  0
    0.5755   -0.0024   -1.3303 C   0  0  0  0  0  0  0  0  0  0  0  0
    1.0757   -1.2186   -2.1384 C   0  0  0  0  0  0  0  0  0  0  0  0
   -1.0101   -0.0130   -1.2780 C   0  0  0  0  0  0  0  0  0  0  0  0
   -1.5488    1.1015   -0.3990 C   0  0  0  0  0  0  0  0  0  0  0  0
   -1.9933    0.9773    0.8962 C   0  0  0  0  0  0  0  0  0  0  0  0
   -2.1669    2.1344    1.6776 C   0  0  0  0  0  0  0  0  0  0  0  0
   -1.9080    3.4169    1.1764 C   0  0  0  0  0  0  0  0  0  0  0  0
   -1.4722    3.5462   -0.1168 C   0  0  0  0  0  0  0  0  0  0  0  0
   -1.3579    2.3855   -0.8611 C   0  0  0  0  0  0  0  0  0  0  0  0
    1.1465    1.2137   -1.9763 N   0  0  0  0  0  0  0  0  0  0  0  0
    1.9541    2.1900   -1.2171 C   0  0  0  0  0  0  0  0  0  0  0  0
    0.7579    1.4973   -3.2682 C   0  0  0  0  0  0  0  0  0  0  0  0
    0.0253    0.7328   -3.9756 O   0  0  0  0  0  0  0  0  0  0  0  0
    1.2321    2.7419   -3.8857 C   0  0  0  0  0  0  0  0  0  0  0  0
    0.7940    4.0080   -3.2129 N   0  0  0  0  0  0  0  0  0  0  0  0
    1.7513    5.0524   -3.7547 C   0  0  0  0  0  0  0  0  0  0  0  0
    1.8294    5.0160   -5.3047 C   0  0  0  0  0  0  0  0  0  0  0  0
    0.6246    4.4215   -5.6249 O   0  0  0  0  0  0  0  0  0  0  0  0
   -0.7446    4.2505   -3.3435 C   0  0  0  0  0  0  0  0  0  0  0  0
   -1.5170    4.3860   -4.6526 C   0  0  0  0  0  0  0  0  0  0  0  0
   -2.1933    3.4289   -5.0868 O   0  0  0  0  0  0  0  0  0  0  0  0
   -1.3394    5.5921   -5.3739 N   0  0  0  0  0  0  0  0  0  0  0  0
   -0.4484    6.6964   -4.7427 C   0  0  0  0  0  0  0  0  0  0  0  0
   -1.6955    5.5369   -6.9097 C   0  0  0  0  0  0  0  0  0  0  0  0
   -1.0131    4.3119   -7.7082 C   0  0  0  0  0  0  0  0  0  0  0  0
   -3.2024    5.3619   -7.0851 C   0  0  0  0  0  0  0  0  0  0  0  0
   -1.2203    6.8517   -7.5579 C   0  0  0  0  0  0  0  0  0  0  0  0
   -1.7845    8.1129   -6.8795 C   0  0  0  0  0  0  0  0  0  0  0  0
   -2.5191    8.1019   -5.6554 C   0  0  0  0  0  0  0  0  0  0  0  0
   -2.4396    9.1483   -4.7379 C   0  0  0  0  0  0  0  0  0  0  0  0
   -1.8707   10.3298   -5.1449 C   0  0  0  0  0  0  0  0  0  0  0  0
   -1.3619   10.4356   -6.4446 C   0  0  0  0  0  0  0  0  0  0  0  0
   -1.3059    9.3375   -7.3110 C   0  0  0  0  0  0  0  0  0  0  0  0
    0.6999   -1.0788    0.5624 H   0  0  0  0  0  0  0  0  0  0  0  0
    0.7851    0.6736    0.7421 H   0  0  0  0  0  0  0  0  0  0  0  0
    2.1841   -0.2099    0.1312 H   0  0  0  0  0  0  0  0  0  0  0  0
    0.7341   -2.1531   -1.6926 H   0  0  0  0  0  0  0  0  0  0  0  0
    0.7300   -1.2220   -3.1763 H   0  0  0  0  0  0  0  0  0  0  0  0
    2.1716   -1.2176   -2.1802 H   0  0  0  0  0  0  0  0  0  0  0  0
   -1.4433    0.0850   -2.2847 H   0  0  0  0  0  0  0  0  0  0  0  0
   -1.3663   -0.9772   -0.9052 H   0  0  0  0  0  0  0  0  0  0  0  0
   -2.1339   -0.0094    1.3176 H   0  0  0  0  0  0  0  0  0  0  0  0
   -2.4609    2.0314    2.7140 H   0  0  0  0  0  0  0  0  0  0  0  0
   -2.0180    4.3053    1.7882 H   0  0  0  0  0  0  0  0  0  0  0  0
   -1.1638    4.5050   -0.5218 H   0  0  0  0  0  0  0  0  0  0  0  0
   -0.9570    2.3732   -1.8376 H   0  0  0  0  0  0  0  0  0  0  0  0
    2.8900    2.3728   -1.7522 H   0  0  0  0  0  0  0  0  0  0  0  0
    1.4152    3.1310   -1.0938 H   0  0  0  0  0  0  0  0  0  0  0  0
    2.2110    1.8681   -0.2132 H   0  0  0  0  0  0  0  0  0  0  0  0
    2.3294    2.6939   -3.9397 H   0  0  0  0  0  0  0  0  0  0  0  0
    0.8797    2.6413   -4.9113 H   0  0  0  0  0  0  0  0  0  0  0  0
    1.4584    6.0114   -3.3162 H   0  0  0  0  0  0  0  0  0  0  0  0
    2.7819    4.9531   -3.3785 H   0  0  0  0  0  0  0  0  0  0  0  0
    1.9555    5.9618   -5.8370 H   0  0  0  0  0  0  0  0  0  0  0  0
    2.3626    4.2435   -5.8452 H   0  0  0  0  0  0  0  0  0  0  0  0
    0.0203    5.0164   -6.0342 H   0  0  0  0  0  0  0  0  0  0  0  0
   -1.2491    3.3414   -3.0731 H   0  0  0  0  0  0  0  0  0  0  0  0
   -1.1158    4.9934   -2.6253 H   0  0  0  0  0  0  0  0  0  0  0  0
    0.4357    6.8642   -5.3456 H   0  0  0  0  0  0  0  0  0  0  0  0
   -0.7109    7.7339   -4.6611 H   0  0  0  0  0  0  0  0  0  0  0  0
   -0.2967    6.5129   -3.6902 H   0  0  0  0  0  0  0  0  0  0  0  0
   -1.2771    3.3323   -7.2873 H   0  0  0  0  0  0  0  0  0  0  0  0
   -1.2979    4.2957   -8.7633 H   0  0  0  0  0  0  0  0  0  0  0  0
    0.0877    4.3387   -7.7312 H   0  0  0  0  0  0  0  0  0  0  0  0
   -3.7536    6.1276   -6.5502 H   0  0  0  0  0  0  0  0  0  0  0  0
   -3.4890    5.4225   -8.1371 H   0  0  0  0  0  0  0  0  0  0  0  0
   -3.5461    4.4120   -6.6768 H   0  0  0  0  0  0  0  0  0  0  0  0
   -0.1116    6.8626   -7.4797 H   0  0  0  0  0  0  0  0  0  0  0  0
   -1.4059    6.8575   -8.6375 H   0  0  0  0  0  0  0  0  0  0  0  0
   -2.8611    7.1830   -5.1767 H   0  0  0  0  0  0  0  0  0  0  0  0
   -2.6316    8.9381   -3.6818 H   0  0  0  0  0  0  0  0  0  0  0  0
   -1.8138   11.1506   -4.4404 H   0  0  0  0  0  0  0  0  0  0  0  0
   -0.9415   11.3797   -6.7654 H   0  0  0  0  0  0  0  0  0  0  0  0
   -0.8394    9.4229   -8.2884 H   0  0  0  0  0  0  0  0  0  0  0  0
  1  2  1  0  0  0  0
  1 35  1  0  0  0  0
  1 36  1  0  0  0  0
  1 37  1  0  0  0  0
  2  3  1  0  0  0  0
  2  4  1  0  0  0  0
  2 11  1  0  0  0  0
  3 38  1  0  0  0  0
  3 39  1  0  0  0  0
  3 40  1  0  0  0  0
  4  5  1  0  0  0  0
  4 41  1  0  0  0  0
  4 42  1  0  0  0  0
  5  6  2  0  0  0  0
  5 10  1  0  0  0  0
  6  7  1  0  0  0  0
  6 43  1  0  0  0  0
  7  8  2  0  0  0  0
  7 44  1  0  0  0  0
  8  9  1  0  0  0  0
  8 45  1  0  0  0  0
  9 10  2  0  0  0  0
  9 46  1  0  0  0  0
 10 47  1  0  0  0  0
 11 12  1  0  0  0  0
 11 13  1  0  0  0  0
 12 48  1  0  0  0  0
 12 49  1  0  0  0  0
 12 50  1  0  0  0  0
 13 14  2  0  0  0  0
 13 15  1  0  0  0  0
 15 16  1  0  0  0  0
 15 51  1  0  0  0  0
 15 52  1  0  0  0  0
 16 17  1  0  0  0  0
 16 20  1  0  0  0  0
 17 18  1  0  0  0  0
 17 53  1  0  0  0  0
 17 54  1  0  0  0  0
 18 19  1  0  0  0  0
 18 55  1  0  0  0  0
 18 56  1  0  0  0  0
 19 57  1  0  0  0  0
 20 21  1  0  0  0  0
 20 58  1  0  0  0  0
 20 59  1  0  0  0  0
 21 22  2  0  0  0  0
 21 23  1  0  0  0  0
 23 24  1  0  0  0  0
 23 25  1  0  0  0  0
 24 60  1  0  0  0  0
 24 61  1  0  0  0  0
 24 62  1  0  0  0  0
 25 26  1  0  0  0  0
 25 27  1  0  0  0  0
 25 28  1  0  0  0  0
 26 63  1  0  0  0  0
 26 64  1  0  0  0  0
 26 65  1  0  0  0  0
 27 66  1  0  0  0  0
 27 67  1  0  0  0  0
 27 68  1  0  0  0  0
 28 29  1  0  0  0  0
 28 69  1  0  0  0  0
 28 70  1  0  0  0  0
 29 30  2  0  0  0  0
 29 34  1  0  0  0  0
 30 31  1  0  0  0  0
 30 71  1  0  0  0  0
 31 32  2  0  0  0  0
 31 72  1  0  0  0  0
 32 33  1  0  0  0  0
 32 73  1  0  0  0  0
 33 34  2  0  0  0  0
 33 74  1  0  0  0  0
 34 75  1  0  0  0  0
M  END
>  <DRUGBANK_ID>
DB12532

>  <COMMON_NAME>
Oxetacaine

>  <CAS_NUMBER>
126-27-2

>  <UNII>
IP8QT76V17

>  <SYNONYMS>
Oxetacaine

$$$$
