Structure #1
 OpenBabel10282417163D

 14 13  0  0  0  0  0  0  0  0999 V2000
    0.9045    0.1334   -0.1257 C   0  0  0  0  0  0  0  0  0  0  0  0
    0.8815   -2.3023    0.7541 C   0  0  0  0  0  0  0  0  0  0  0  0
    0.3794   -1.2998   -0.3055 C   0  0  3  0  0  0  0  0  0  0  0  0
    0.4667    0.7650    1.0667 O   0  0  0  0  0  0  0  0  0  0  0  0
    0.2201   -2.1774    2.4616 S   0  0  0  0  0  0  0  0  0  0  0  0
   -1.4469   -1.3233   -0.4631 S   0  0  0  0  0  0  0  0  0  0  0  0
    0.5901    0.7691   -0.9613 H   0  0  0  0  0  0  0  0  0  0  0  0
    2.0005    0.1322   -0.1236 H   0  0  0  0  0  0  0  0  0  0  0  0
    0.6262   -3.3139    0.4172 H   0  0  0  0  0  0  0  0  0  0  0  0
    1.9757   -2.2632    0.8067 H   0  0  0  0  0  0  0  0  0  0  0  0
    0.7568   -1.6469   -1.2760 H   0  0  0  0  0  0  0  0  0  0  0  0
    0.7892    0.2408    1.8164 H   0  0  0  0  0  0  0  0  0  0  0  0
    0.9711   -1.1759    2.9367 H   0  0  0  0  0  0  0  0  0  0  0  0
   -1.6978   -0.9455    0.8012 H   0  0  0  0  0  0  0  0  0  0  0  0
  1  3  1  0  0  0  0
  1  4  1  0  0  0  0
  1  7  1  0  0  0  0
  1  8  1  0  0  0  0
  2  3  1  0  0  0  0
  2  5  1  0  0  0  0
  2  9  1  0  0  0  0
  2 10  1  0  0  0  0
  3  6  1  0  0  0  0
  3 11  1  0  0  0  0
  4 12  1  0  0  0  0
  5 13  1  0  0  0  0
  6 14  1  0  0  0  0
M  END
>  <DRUGBANK_ID>
DB06782

>  <COMMON_NAME>
Dimercaprol

>  <CAS_NUMBER>
59-52-9

>  <UNII>
0CPP32S55X

>  <SYNONYMS>
1,2-dimercapto-3-propanol; 1,2-dithioglycerol; 2,3-dimercapto-1-propanol; 2,3-dimercaptol-1-propanol; 2,3-dimercaptopropanol; 2,3-dithiopropanol; 2,3-mercaptopropan-1-ol; 2,3-Mercaptopropanol; 3-hydroxy-1,2-propanedithiol; BAL; British anti-lewisite; British antilewisite; Dimercaprol; Dimercaprolum; Dimercaptopropanol; Dithioglycerine; Dithioglycerol; Sulfactin; α,β-dithioglycerol

$$$$
