565
 OpenBabel10282417163D

 44 45  0  0  0  0  0  0  0  0999 V2000
    0.6766   -1.0733   -0.0040 C   0  0  0  0  0  0  0  0  0  0  0  0
    1.5980   -0.0295    0.0051 C   0  0  0  0  0  0  0  0  0  0  0  0
    1.1865    1.3102    0.0546 C   0  0  0  0  0  0  0  0  0  0  0  0
   -0.1891    1.5738    0.1381 C   0  0  0  0  0  0  0  0  0  0  0  0
   -1.1114    0.5390    0.0625 C   0  0  0  0  0  0  0  0  0  0  0  0
   -0.6800   -0.7776    0.0048 C   0  0  0  0  0  0  0  0  0  0  0  0
   -2.4180    0.8326    0.0396 F   0  0  0  0  0  0  0  0  0  0  0  0
    2.9031   -0.3334   -0.0264 F   0  0  0  0  0  0  0  0  0  0  0  0
    2.2019    2.4366    0.0424 C   0  0  0  0  0  0  0  0  0  0  0  0
    2.1486    3.3700   -1.2044 C   0  0  2  0  0  0  0  0  0  0  0  0
    3.2249    4.4827   -1.1792 C   0  0  0  0  0  0  0  0  0  0  0  0
    4.6495    3.9361   -1.1961 C   0  0  0  0  0  0  0  0  0  0  0  0
    5.3758    4.1461   -2.3717 N   0  0  0  0  0  0  0  0  0  0  0  0
    0.8305    4.0373   -1.3207 N   0  0  0  0  0  0  0  0  0  0  0  0
    5.0654    3.2638   -0.2550 O   0  0  0  0  0  0  0  0  0  0  0  0
    5.6619    5.5267   -2.7889 C   0  0  0  0  0  0  0  0  0  0  0  0
    6.9733    6.0704   -2.1966 C   0  0  0  0  0  0  0  0  0  0  0  0
    8.1938    5.7844   -3.0760 C   0  0  0  0  0  0  0  0  0  0  0  0
    8.2713    4.4276   -3.5583 N   0  0  0  0  0  0  0  0  0  0  0  0
    7.8106    3.4068   -2.7514 C   0  0  0  0  0  0  0  0  0  0  0  0
    6.2984    3.0950   -2.8872 C   0  0  1  0  0  0  0  0  0  0  0  0
    5.9969    1.6924   -2.3556 C   0  0  0  0  0  0  0  0  0  0  0  0
    8.5824    2.8233   -1.9896 O   0  0  0  0  0  0  0  0  0  0  0  0
   -1.5742   -1.7740   -0.0262 F   0  0  0  0  0  0  0  0  0  0  0  0
    2.2837    2.7544   -2.1033 H   0  0  0  0  0  0  0  0  0  0  0  0
    6.0847    3.0725   -3.9650 H   0  0  0  0  0  0  0  0  0  0  0  0
    1.0153   -2.1022   -0.0218 H   0  0  0  0  0  0  0  0  0  0  0  0
   -0.5665    2.5859    0.2510 H   0  0  0  0  0  0  0  0  0  0  0  0
    2.0958    3.0195    0.9657 H   0  0  0  0  0  0  0  0  0  0  0  0
    3.1900    1.9700    0.0940 H   0  0  0  0  0  0  0  0  0  0  0  0
    3.0659    5.1248   -2.0523 H   0  0  0  0  0  0  0  0  0  0  0  0
    3.1120    5.1084   -0.2865 H   0  0  0  0  0  0  0  0  0  0  0  0
    0.7984    4.6364   -2.1429 H   0  0  0  0  0  0  0  0  0  0  0  0
    0.1172    3.3317   -1.5005 H   0  0  0  0  0  0  0  0  0  0  0  0
    5.6798    5.5476   -3.8836 H   0  0  0  0  0  0  0  0  0  0  0  0
    4.8511    6.1813   -2.4576 H   0  0  0  0  0  0  0  0  0  0  0  0
    6.8989    7.1577   -2.0731 H   0  0  0  0  0  0  0  0  0  0  0  0
    7.1419    5.6539   -1.1950 H   0  0  0  0  0  0  0  0  0  0  0  0
    8.1981    6.4485   -3.9485 H   0  0  0  0  0  0  0  0  0  0  0  0
    9.1155    5.9741   -2.5155 H   0  0  0  0  0  0  0  0  0  0  0  0
    8.2993    4.2721   -4.5596 H   0  0  0  0  0  0  0  0  0  0  0  0
    4.9312    1.4576   -2.4489 H   0  0  0  0  0  0  0  0  0  0  0  0
    6.5681    0.9363   -2.9010 H   0  0  0  0  0  0  0  0  0  0  0  0
    6.2829    1.5917   -1.3033 H   0  0  0  0  0  0  0  0  0  0  0  0
  1  2  1  0  0  0  0
  1  6  2  0  0  0  0
  1 27  1  0  0  0  0
  2  8  1  0  0  0  0
  2  3  2  0  0  0  0
  3  9  1  0  0  0  0
  3  4  1  0  0  0  0
  4  5  2  0  0  0  0
  4 28  1  0  0  0  0
  5  6  1  0  0  0  0
  5  7  1  0  0  0  0
  6 24  1  0  0  0  0
  9 10  1  0  0  0  0
  9 29  1  0  0  0  0
  9 30  1  0  0  0  0
 10 14  1  0  0  0  0
 10 11  1  0  0  0  0
 10 25  1  6  0  0  0
 11 12  1  0  0  0  0
 11 31  1  0  0  0  0
 11 32  1  0  0  0  0
 12 13  1  0  0  0  0
 12 15  2  0  0  0  0
 13 16  1  0  0  0  0
 13 21  1  0  0  0  0
 14 33  1  0  0  0  0
 14 34  1  0  0  0  0
 16 17  1  0  0  0  0
 16 35  1  0  0  0  0
 16 36  1  0  0  0  0
 17 18  1  0  0  0  0
 17 37  1  0  0  0  0
 17 38  1  0  0  0  0
 18 19  1  0  0  0  0
 18 39  1  0  0  0  0
 18 40  1  0  0  0  0
 19 20  1  0  0  0  0
 19 41  1  0  0  0  0
 20 23  2  0  0  0  0
 20 21  1  0  0  0  0
 21 22  1  0  0  0  0
 21 26  1  6  0  0  0
 22 42  1  0  0  0  0
 22 43  1  0  0  0  0
 22 44  1  0  0  0  0
M  END
>  <DRUGBANK_ID>
DB07154

>  <COMMON_NAME>
(3R)-4-[(3R)-3-AMINO-4-(2,4,5-TRIFLUOROPHENYL)BUTANOYL]-3-METHYL-1,4-DIAZEPAN-2-ONE

$$$$
