
 OpenBabel10282417123D

 56 58  0  0  1  0  0  0  0  0999 V2000
    1.9176   -0.7852    0.1316 C   0  0  0  0  0  0  0  0  0  0  0  0
    1.7343    0.6599    0.5868 C   0  0  0  0  0  0  0  0  0  0  0  0
    0.6475   -1.6371    0.1433 C   0  0  0  0  0  0  0  0  0  0  0  0
    0.9555    1.4794   -0.4301 C   0  0  0  0  0  0  0  0  0  0  0  0
   -2.4672   -1.4963   -3.2161 C   0  0  0  0  0  0  0  0  0  0  0  0
   -3.9703   -1.9407   -1.3888 C   0  0  0  0  0  0  0  0  0  0  0  0
   -3.2719    2.9158   -0.1617 C   0  0  0  0  0  0  0  0  0  0  0  0
   -3.5235    1.7241   -2.1993 C   0  0  0  0  0  0  0  0  0  0  0  0
   -3.5434   -1.0363   -3.9908 C   0  0  0  0  0  0  0  0  0  0  0  0
   -5.0443   -1.4755   -2.1596 C   0  0  0  0  0  0  0  0  0  0  0  0
   -4.6456    2.7844    0.1177 C   0  0  0  0  0  0  0  0  0  0  0  0
   -4.8778    1.6297   -1.9124 C   0  0  0  0  0  0  0  0  0  0  0  0
   -1.5052   -2.2867   -0.9986 C   0  0  0  0  0  0  0  0  0  0  0  0
   -1.2074    2.1290   -1.4483 C   0  0  0  0  0  0  0  0  0  0  0  0
   -2.6678   -1.9282   -1.8997 C   0  0  0  0  0  0  0  0  0  0  0  0
   -2.6877    2.2927   -1.2717 C   0  0  0  0  0  0  0  0  0  0  0  0
   -4.8501   -1.0367   -3.4832 C   0  0  0  0  0  0  0  0  0  0  0  0
   -5.4603    2.0731   -0.7415 C   0  0  0  0  0  0  0  0  0  0  0  0
   -0.4905   -1.1388   -0.7634 C   0  0  1  0  0  0  0  0  0  0  0  0
   -0.5611    1.4352   -0.2423 C   0  0  1  0  0  0  0  0  0  0  0  0
   -1.1432    0.0344   -0.0520 C   0  0  0  0  0  0  0  0  0  0  0  0
   -5.9290   -0.2710   -4.2338 C   0  0  0  0  0  0  0  0  0  0  0  0
   -6.9189    1.8180   -0.4899 C   0  0  0  0  0  0  0  0  0  0  0  0
   -7.2192   -0.2392   -3.7874 N   0  0  0  0  0  0  0  0  0  0  0  0
   -5.5957    0.4857   -5.2316 N   0  0  0  0  0  0  0  0  0  0  0  0
   -7.6406    0.9814   -1.3028 N   0  0  0  0  0  0  0  0  0  0  0  0
   -7.5197    2.4109    0.4866 N   0  0  0  0  0  0  0  0  0  0  0  0
   -2.1145   -0.1400    0.7092 O   0  0  0  0  0  0  0  0  0  0  0  0
   -0.1046   -0.8038   -1.7324 H   0  0  0  0  0  0  0  0  0  0  0  0
   -0.7906    1.9850    0.6804 H   0  0  0  0  0  0  0  0  0  0  0  0
    2.6473   -1.2593    0.7988 H   0  0  0  0  0  0  0  0  0  0  0  0
    2.3623   -0.8019   -0.8715 H   0  0  0  0  0  0  0  0  0  0  0  0
    1.2702    0.7065    1.5788 H   0  0  0  0  0  0  0  0  0  0  0  0
    2.7311    1.1081    0.6858 H   0  0  0  0  0  0  0  0  0  0  0  0
    0.2889   -1.7052    1.1788 H   0  0  0  0  0  0  0  0  0  0  0  0
    0.9342   -2.6509   -0.1587 H   0  0  0  0  0  0  0  0  0  0  0  0
    1.2677    2.5284   -0.3439 H   0  0  0  0  0  0  0  0  0  0  0  0
    1.2289    1.1685   -1.4461 H   0  0  0  0  0  0  0  0  0  0  0  0
   -1.4627   -1.4333   -3.6265 H   0  0  0  0  0  0  0  0  0  0  0  0
   -4.1481   -2.2195   -0.3497 H   0  0  0  0  0  0  0  0  0  0  0  0
   -2.6495    3.4762    0.5253 H   0  0  0  0  0  0  0  0  0  0  0  0
   -3.1299    1.3002   -3.1172 H   0  0  0  0  0  0  0  0  0  0  0  0
   -3.3313   -0.5285   -4.9311 H   0  0  0  0  0  0  0  0  0  0  0  0
   -5.9743   -1.3043   -1.6245 H   0  0  0  0  0  0  0  0  0  0  0  0
   -5.0713    3.2221    1.0119 H   0  0  0  0  0  0  0  0  0  0  0  0
   -5.4951    1.1578   -2.6302 H   0  0  0  0  0  0  0  0  0  0  0  0
   -0.9947   -3.1463   -1.4510 H   0  0  0  0  0  0  0  0  0  0  0  0
   -1.8849   -2.6411   -0.0299 H   0  0  0  0  0  0  0  0  0  0  0  0
   -0.7642    3.1133   -1.6297 H   0  0  0  0  0  0  0  0  0  0  0  0
   -0.9908    1.5247   -2.3443 H   0  0  0  0  0  0  0  0  0  0  0  0
   -7.8480    0.4897   -4.1056 H   0  0  0  0  0  0  0  0  0  0  0  0
   -7.4579   -0.6901   -2.9079 H   0  0  0  0  0  0  0  0  0  0  0  0
   -6.4056    1.0017   -5.5823 H   0  0  0  0  0  0  0  0  0  0  0  0
   -8.6479    1.0033   -1.2072 H   0  0  0  0  0  0  0  0  0  0  0  0
   -7.3738    1.0714   -2.2755 H   0  0  0  0  0  0  0  0  0  0  0  0
   -8.5035    2.1405    0.4948 H   0  0  0  0  0  0  0  0  0  0  0  0
  1 31  1  0  0  0  0
  1 32  1  0  0  0  0
  2  1  1  0  0  0  0
  2 33  1  0  0  0  0
  2 34  1  0  0  0  0
  3  1  1  0  0  0  0
  3 35  1  0  0  0  0
  3 36  1  0  0  0  0
  4  2  1  0  0  0  0
  4 37  1  0  0  0  0
  4 38  1  0  0  0  0
  5 39  1  0  0  0  0
  6 40  1  0  0  0  0
  7 41  1  0  0  0  0
  8 42  1  0  0  0  0
  9  5  1  0  0  0  0
  9 43  1  0  0  0  0
 10  6  2  0  0  0  0
 10 44  1  0  0  0  0
 11  7  1  0  0  0  0
 11 45  1  0  0  0  0
 12  8  2  0  0  0  0
 12 46  1  0  0  0  0
 13 47  1  0  0  0  0
 13 48  1  0  0  0  0
 14 49  1  0  0  0  0
 14 50  1  0  0  0  0
 15  5  2  0  0  0  0
 15  6  1  0  0  0  0
 15 13  1  0  0  0  0
 16  7  2  0  0  0  0
 16  8  1  0  0  0  0
 16 14  1  0  0  0  0
 17  9  2  0  0  0  0
 17 10  1  0  0  0  0
 18 11  2  0  0  0  0
 18 12  1  0  0  0  0
 19  3  1  0  0  0  0
 19 13  1  0  0  0  0
 19 29  1  6  0  0  0
 20  4  1  0  0  0  0
 20 14  1  0  0  0  0
 20 30  1  1  0  0  0
 21 19  1  0  0  0  0
 21 20  1  0  0  0  0
 22 17  1  0  0  0  0
 23 18  1  0  0  0  0
 24 22  1  0  0  0  0
 24 51  1  0  0  0  0
 24 52  1  0  0  0  0
 25 22  2  0  0  0  0
 25 53  1  0  0  0  0
 26 23  1  0  0  0  0
 26 54  1  0  0  0  0
 26 55  1  0  0  0  0
 27 23  2  0  0  0  0
 27 56  1  0  0  0  0
 28 21  2  0  0  0  0
M  END
>  <DRUGBANK_ID>
DB02081

>  <SECONDARY_ACCESSION_NUMBERS>
EXPT00632

>  <COMMON_NAME>
Bis-Benzamidine

$$$$
