
 OpenBabel10282417133D

 14 15  0  0  0  0  0  0  0  0999 V2000
   -0.2859    0.6816    0.0014 C   0  0  0  0  0  0  0  0  0  0  0  0
   -0.1696   -0.6793    0.0006 C   0  0  0  0  0  0  0  0  0  0  0  0
   -1.5700   -1.1762   -0.0026 C   0  0  0  0  0  0  0  0  0  0  0  0
   -1.6117    1.1257    0.0013 N   0  0  0  0  0  0  0  0  0  0  0  0
   -2.3633    0.0961   -0.0003 N   0  0  0  0  0  0  0  0  0  0  0  0
    2.0948    0.7458   -0.0002 N   0  0  0  0  0  0  0  0  0  0  0  0
    0.9701   -1.3836   -0.0003 N   0  0  0  0  0  0  0  0  0  0  0  0
    2.0682   -0.6049   -0.0005 C   0  0  0  0  0  0  0  0  0  0  0  0
    0.8995    1.3665    0.0008 C   0  0  0  0  0  0  0  0  0  0  0  0
    0.9572    2.7302    0.0002 O   0  0  0  0  0  0  0  0  0  0  0  0
   -1.7928   -1.7600    0.8950 H   0  0  0  0  0  0  0  0  0  0  0  0
   -1.7896   -1.7541   -0.9048 H   0  0  0  0  0  0  0  0  0  0  0  0
    3.0284   -1.1100   -0.0015 H   0  0  0  0  0  0  0  0  0  0  0  0
    0.0452    3.0642    0.0007 H   0  0  0  0  0  0  0  0  0  0  0  0
  1  2  2  0  0  0  0
  2  3  1  0  0  0  0
  3  5  1  0  0  0  0
  3 11  1  0  0  0  0
  3 12  1  0  0  0  0
  4  1  1  0  0  0  0
  4  5  2  0  0  0  0
  6  8  1  0  0  0  0
  7  2  1  0  0  0  0
  8  7  2  0  0  0  0
  8 13  1  0  0  0  0
  9  6  2  0  0  0  0
  9  1  1  0  0  0  0
  9 10  1  0  0  0  0
 10 14  1  0  0  0  0
M  END
>  <DRUGBANK_ID>
DB03153

>  <SECONDARY_ACCESSION_NUMBERS>
EXPT02643

>  <COMMON_NAME>
3H-pyrazolo[4,3-d]pyrimidin-7-ol

>  <UNII>
UNA9YT8PYM

$$$$
