
 OpenBabel10282417143D

 51 53  0  0  0  0  0  0  0  0999 V2000
    1.1377    0.0576    0.0068 O   0  0  0  0  0  0  0  0  0  0  0  0
    6.4273   -5.1546    0.1324 O   0  0  0  0  0  0  0  0  0  0  0  0
    4.9427   -5.7790   -1.4290 O   0  0  0  0  0  0  0  0  0  0  0  0
    3.1117    1.1687    0.2471 N   0  0  0  0  0  0  0  0  0  0  0  0
    7.2738   -0.3865   -1.8630 C   0  0  0  0  0  0  0  0  0  0  0  0
    8.8617    1.4225    0.0279 C   0  0  0  0  0  0  0  0  0  0  0  0
    8.7920   -0.5050   -1.7477 C   0  0  0  0  0  0  0  0  0  0  0  0
    9.5329    0.6437   -1.1252 C   0  0  0  0  0  0  0  0  0  0  0  0
    6.6264    0.5163   -0.8218 C   0  0  0  0  0  0  0  0  0  0  0  0
    7.3402    1.3119    0.0841 C   0  0  0  0  0  0  0  0  0  0  0  0
    6.8682    0.0905   -3.2711 C   0  0  0  0  0  0  0  0  0  0  0  0
    6.8028   -1.8420   -1.7064 C   0  0  0  0  0  0  0  0  0  0  0  0
    9.2463    2.8973   -0.2338 C   0  0  0  0  0  0  0  0  0  0  0  0
    9.5067    0.9755    1.3576 C   0  0  0  0  0  0  0  0  0  0  0  0
    5.2207    0.5732   -0.7913 C   0  0  0  0  0  0  0  0  0  0  0  0
    6.6062    2.0822    1.0261 C   0  0  0  0  0  0  0  0  0  0  0  0
    4.5081    1.3032    0.1553 C   0  0  0  0  0  0  0  0  0  0  0  0
    5.2035    2.0980    1.0510 C   0  0  0  0  0  0  0  0  0  0  0  0
    2.3633    0.0081    0.0781 C   0  0  0  0  0  0  0  0  0  0  0  0
    3.0397   -1.3284    0.0285 C   0  0  0  0  0  0  0  0  0  0  0  0
    2.6646   -2.2494   -0.9545 C   0  0  0  0  0  0  0  0  0  0  0  0
    4.1231   -1.6281    0.8647 C   0  0  0  0  0  0  0  0  0  0  0  0
    3.4101   -3.4276   -1.1345 C   0  0  0  0  0  0  0  0  0  0  0  0
    4.9004   -2.7698    0.6437 C   0  0  0  0  0  0  0  0  0  0  0  0
    4.5346   -3.7053   -0.3320 C   0  0  0  0  0  0  0  0  0  0  0  0
    5.3101   -4.9562   -0.5937 C   0  0  0  0  0  0  0  0  0  0  0  0
    6.6871   -4.4900    0.7908 H   0  0  0  0  0  0  0  0  0  0  0  0
    2.5674    2.0001    0.4487 H   0  0  0  0  0  0  0  0  0  0  0  0
    9.0650   -1.4032   -1.1794 H   0  0  0  0  0  0  0  0  0  0  0  0
    9.2107   -0.6714   -2.7493 H   0  0  0  0  0  0  0  0  0  0  0  0
   10.4868    0.2287   -0.7733 H   0  0  0  0  0  0  0  0  0  0  0  0
    9.8049    1.3249   -1.9382 H   0  0  0  0  0  0  0  0  0  0  0  0
    5.7808    0.0763   -3.4213 H   0  0  0  0  0  0  0  0  0  0  0  0
    7.2122    1.1125   -3.4539 H   0  0  0  0  0  0  0  0  0  0  0  0
    7.2902   -0.5647   -4.0399 H   0  0  0  0  0  0  0  0  0  0  0  0
    7.0923   -2.2223   -0.7189 H   0  0  0  0  0  0  0  0  0  0  0  0
    5.7273   -1.9325   -1.8354 H   0  0  0  0  0  0  0  0  0  0  0  0
    7.2656   -2.5038   -2.4466 H   0  0  0  0  0  0  0  0  0  0  0  0
    8.9869    3.5636    0.5929 H   0  0  0  0  0  0  0  0  0  0  0  0
   10.3267    2.9846   -0.4002 H   0  0  0  0  0  0  0  0  0  0  0  0
    8.7410    3.2674   -1.1358 H   0  0  0  0  0  0  0  0  0  0  0  0
   10.6011    0.9963    1.2798 H   0  0  0  0  0  0  0  0  0  0  0  0
    9.2442    1.6343    2.1928 H   0  0  0  0  0  0  0  0  0  0  0  0
    9.2115   -0.0451    1.6253 H   0  0  0  0  0  0  0  0  0  0  0  0
    4.6574    0.0056   -1.5277 H   0  0  0  0  0  0  0  0  0  0  0  0
    7.1329    2.6897    1.7617 H   0  0  0  0  0  0  0  0  0  0  0  0
    4.6863    2.6749    1.8134 H   0  0  0  0  0  0  0  0  0  0  0  0
    1.8180   -2.0363   -1.6050 H   0  0  0  0  0  0  0  0  0  0  0  0
    4.4451   -0.9230    1.6280 H   0  0  0  0  0  0  0  0  0  0  0  0
    3.1346   -4.1074   -1.9418 H   0  0  0  0  0  0  0  0  0  0  0  0
    5.8412   -2.8239    1.1798 H   0  0  0  0  0  0  0  0  0  0  0  0
  1 19  2  0  0  0  0
  2 26  1  0  0  0  0
  2 27  1  0  0  0  0
  3 26  2  0  0  0  0
  4 17  1  0  0  0  0
  4 19  1  0  0  0  0
  4 28  1  0  0  0  0
  5  7  1  0  0  0  0
  5  9  1  0  0  0  0
  5 11  1  0  0  0  0
  5 12  1  0  0  0  0
  6  8  1  0  0  0  0
  6 10  1  0  0  0  0
  6 13  1  0  0  0  0
  6 14  1  0  0  0  0
  7  8  1  0  0  0  0
  7 29  1  0  0  0  0
  7 30  1  0  0  0  0
  8 31  1  0  0  0  0
  8 32  1  0  0  0  0
  9 10  2  0  0  0  0
  9 15  1  0  0  0  0
 10 16  1  0  0  0  0
 11 33  1  0  0  0  0
 11 34  1  0  0  0  0
 11 35  1  0  0  0  0
 12 36  1  0  0  0  0
 12 37  1  0  0  0  0
 12 38  1  0  0  0  0
 13 39  1  0  0  0  0
 13 40  1  0  0  0  0
 13 41  1  0  0  0  0
 14 42  1  0  0  0  0
 14 43  1  0  0  0  0
 14 44  1  0  0  0  0
 15 17  2  0  0  0  0
 15 45  1  0  0  0  0
 16 18  2  0  0  0  0
 16 46  1  0  0  0  0
 17 18  1  0  0  0  0
 18 47  1  0  0  0  0
 19 20  1  0  0  0  0
 20 21  2  0  0  0  0
 20 22  1  0  0  0  0
 21 23  1  0  0  0  0
 21 48  1  0  0  0  0
 22 24  2  0  0  0  0
 22 49  1  0  0  0  0
 23 25  2  0  0  0  0
 23 50  1  0  0  0  0
 24 25  1  0  0  0  0
 24 51  1  0  0  0  0
 25 26  1  0  0  0  0
M  END
>  <DRUGBANK_ID>
DB04942

>  <SECONDARY_ACCESSION_NUMBERS>
EXPT00376; DB03873

>  <COMMON_NAME>
Tamibarotene

>  <CAS_NUMBER>
94497-51-5

>  <UNII>
08V52GZ3H9

>  <SYNONYMS>
retinobenzoic acid; Tamibarotene

$$$$
