
 OpenBabel10282417193D

 89 91  0  0  1  0  0  0  0  0999 V2000
    8.2592   -1.5988    1.5187 C   0  0  0  0  0  0  0  0  0  0  0  0
    7.1265   -0.9494    0.6553 C   0  0  2  0  0  0  0  0  0  0  0  0
    5.6620   -1.4475    0.8144 C   0  0  0  0  0  0  0  0  0  0  0  0
    5.3875   -2.7299    0.2294 O   0  0  0  0  0  0  0  0  0  0  0  0
    5.8389   -2.9904   -1.1027 C   0  0  1  0  0  0  0  0  0  0  0  0
    7.2390   -2.4423   -1.3818 C   0  0  1  0  0  0  0  0  0  0  0  0
    7.3884   -1.0087   -0.8933 C   0  0  1  0  0  0  0  0  0  0  0  0
    6.4686   -0.1092   -1.6390 N   0  0  0  0  0  0  0  0  0  0  0  0
    6.6277   -0.2847   -3.0802 C   0  0  0  0  0  0  0  0  0  0  0  0
    8.2137   -3.1813   -0.6687 O   0  0  0  0  0  0  0  0  0  0  0  0
    5.8185   -4.4021   -1.4189 O   0  0  0  0  0  0  0  0  0  0  0  0
    6.9710   -5.2801   -1.0833 C   0  0  1  0  0  0  0  0  0  0  0  0
    7.1762   -5.5138    0.5478 C   0  0  1  0  0  0  0  0  0  0  0  0
    8.0453   -6.6835    0.9901 C   0  0  0  0  0  0  0  0  0  0  0  0
    7.6378   -8.0078    0.3030 C   0  0  1  0  0  0  0  0  0  0  0  0
    7.4529   -7.9520   -1.2978 C   0  0  2  0  0  0  0  0  0  0  0  0
    6.7821   -6.5706   -1.9615 C   0  0  2  0  0  0  0  0  0  0  0  0
    7.0225   -6.4140   -3.3785 O   0  0  0  0  0  0  0  0  0  0  0  0
    6.8931   -9.3065   -1.7320 O   0  0  0  0  0  0  0  0  0  0  0  0
    5.3878   -9.6556   -1.5822 C   0  0  2  0  0  0  0  0  0  0  0  0
    4.6264   -8.3641   -1.6997 C   0  0  1  0  0  0  0  0  0  0  0  0
    3.2199   -8.0554   -1.3038 C   0  0  0  0  0  0  0  0  0  0  0  0
    2.7729   -9.1010   -0.4047 C   0  0  0  0  0  0  0  0  0  0  0  0
    3.5577  -10.1199   -0.0294 C   0  0  0  0  0  0  0  0  0  0  0  0
    4.9102  -10.3693   -0.3870 O   0  0  0  0  0  0  0  0  0  0  0  0
    2.8732  -11.0876    0.8488 C   0  0  0  0  0  0  0  0  0  0  0  0
    2.3797  -12.1329   -0.0418 N   0  0  0  0  0  0  0  0  0  0  0  0
    1.5189  -13.0470    0.6910 C   0  0  0  0  0  0  0  0  0  0  0  0
    0.2507  -12.3847    1.2487 C   0  0  0  0  0  0  0  0  0  0  0  0
   -0.5378  -11.8245    0.2017 O   0  0  0  0  0  0  0  0  0  0  0  0
    5.2310   -7.8266   -0.5090 N   0  0  0  0  0  0  0  0  0  0  0  0
    8.4606   -9.1248    0.7764 N   0  0  0  0  0  0  0  0  0  0  0  0
    6.9986   -4.3798    1.5770 N   0  0  0  0  0  0  0  0  0  0  0  0
    5.9586   -3.9130    2.4062 C   0  0  0  0  0  0  0  0  0  0  0  0
    6.3538   -3.0526    3.2749 O   0  0  0  0  0  0  0  0  0  0  0  0
    4.3426   -4.2347    2.5455 C   0  0  2  0  0  0  0  0  0  0  0  0
    3.4643   -4.7270    1.4087 C   0  0  0  0  0  0  0  0  0  0  0  0
    4.2893   -5.7058    0.7762 C   0  0  0  0  0  0  0  0  0  0  0  0
    4.6052   -6.8094    1.7325 N   0  0  0  0  0  0  0  0  0  0  0  0
    3.5215   -3.2249    3.1185 O   0  0  0  0  0  0  0  0  0  0  0  0
    7.1585    0.4139    1.1063 O   0  0  0  0  0  0  0  0  0  0  0  0
    7.9372   -1.8577    2.5241 H   0  0  0  0  0  0  0  0  0  0  0  0
    9.0911   -0.9091    1.6734 H   0  0  0  0  0  0  0  0  0  0  0  0
    8.7826   -2.4755    1.1469 H   0  0  0  0  0  0  0  0  0  0  0  0
    5.3455   -1.4306    1.8636 H   0  0  0  0  0  0  0  0  0  0  0  0
    4.9480   -0.7301    0.3865 H   0  0  0  0  0  0  0  0  0  0  0  0
    5.0827   -2.5198   -1.7512 H   0  0  0  0  0  0  0  0  0  0  0  0
    7.4789   -2.6128   -2.4334 H   0  0  0  0  0  0  0  0  0  0  0  0
    8.4237   -0.6942   -1.0575 H   0  0  0  0  0  0  0  0  0  0  0  0
    5.4947   -0.3330   -1.4276 H   0  0  0  0  0  0  0  0  0  0  0  0
    6.3331   -1.2844   -3.4225 H   0  0  0  0  0  0  0  0  0  0  0  0
    5.9649    0.4069   -3.5966 H   0  0  0  0  0  0  0  0  0  0  0  0
    7.6650   -0.1015   -3.3649 H   0  0  0  0  0  0  0  0  0  0  0  0
    7.6956   -3.4512    0.1196 H   0  0  0  0  0  0  0  0  0  0  0  0
    7.8634   -4.9070   -1.5713 H   0  0  0  0  0  0  0  0  0  0  0  0
    6.3389   -6.0060    0.8824 H   0  0  0  0  0  0  0  0  0  0  0  0
    9.0960   -6.4544    0.8648 H   0  0  0  0  0  0  0  0  0  0  0  0
    7.8595   -6.8143    2.0747 H   0  0  0  0  0  0  0  0  0  0  0  0
    6.7377   -8.3801    0.7880 H   0  0  0  0  0  0  0  0  0  0  0  0
    8.4783   -7.9094   -1.6854 H   0  0  0  0  0  0  0  0  0  0  0  0
    5.7084   -6.5182   -2.1194 H   0  0  0  0  0  0  0  0  0  0  0  0
    7.9605   -6.3016   -3.5594 H   0  0  0  0  0  0  0  0  0  0  0  0
    5.2186  -10.3554   -2.4031 H   0  0  0  0  0  0  0  0  0  0  0  0
    4.8469   -7.9761   -2.6955 H   0  0  0  0  0  0  0  0  0  0  0  0
    3.1226   -7.2457   -0.5898 H   0  0  0  0  0  0  0  0  0  0  0  0
    2.6246   -7.6039   -2.0885 H   0  0  0  0  0  0  0  0  0  0  0  0
    1.8664   -8.8412    0.1505 H   0  0  0  0  0  0  0  0  0  0  0  0
    3.5045  -11.4465    1.6583 H   0  0  0  0  0  0  0  0  0  0  0  0
    2.0324  -10.5560    1.3169 H   0  0  0  0  0  0  0  0  0  0  0  0
    1.8811  -11.7226   -0.8322 H   0  0  0  0  0  0  0  0  0  0  0  0
    1.2414  -13.8450   -0.0032 H   0  0  0  0  0  0  0  0  0  0  0  0
    2.1080  -13.4934    1.4973 H   0  0  0  0  0  0  0  0  0  0  0  0
   -0.3476  -13.1270    1.7782 H   0  0  0  0  0  0  0  0  0  0  0  0
    0.4719  -11.5921    1.9709 H   0  0  0  0  0  0  0  0  0  0  0  0
    0.0152  -11.1731   -0.2611 H   0  0  0  0  0  0  0  0  0  0  0  0
    5.3032   -6.8451   -0.4886 H   0  0  0  0  0  0  0  0  0  0  0  0
    4.7334   -8.1386    0.3267 H   0  0  0  0  0  0  0  0  0  0  0  0
    8.0321   -9.9668    0.3676 H   0  0  0  0  0  0  0  0  0  0  0  0
    9.3904   -9.0570    0.3908 H   0  0  0  0  0  0  0  0  0  0  0  0
    7.8840   -4.0406    1.9428 H   0  0  0  0  0  0  0  0  0  0  0  0
    4.3696   -4.9934    3.3311 H   0  0  0  0  0  0  0  0  0  0  0  0
    2.5357   -5.2377    1.6716 H   0  0  0  0  0  0  0  0  0  0  0  0
    3.2238   -3.9666    0.6539 H   0  0  0  0  0  0  0  0  0  0  0  0
    3.9407   -5.8652   -0.2368 H   0  0  0  0  0  0  0  0  0  0  0  0
    5.0780   -5.0536    0.4807 H   0  0  0  0  0  0  0  0  0  0  0  0
    5.4326   -7.3689    1.5029 H   0  0  0  0  0  0  0  0  0  0  0  0
    5.0101   -6.4547    2.6026 H   0  0  0  0  0  0  0  0  0  0  0  0
    3.2655   -2.6448    2.3841 H   0  0  0  0  0  0  0  0  0  0  0  0
    6.6492    0.9280    0.4589 H   0  0  0  0  0  0  0  0  0  0  0  0
  1 42  1  0  0  0  0
  1 43  1  0  0  0  0
  1 44  1  0  0  0  0
  2  1  1  0  0  0  0
  2  3  1  0  0  0  0
  2  7  1  0  0  0  0
  2 41  1  1  0  0  0
  3  4  1  0  0  0  0
  3 45  1  0  0  0  0
  3 46  1  0  0  0  0
  4  5  1  0  0  0  0
  5  6  1  0  0  0  0
  5 11  1  0  0  0  0
  5 47  1  6  0  0  0
  6  7  1  0  0  0  0
  6 10  1  0  0  0  0
  6 48  1  6  0  0  0
  7  8  1  0  0  0  0
  7 49  1  6  0  0  0
  8  9  1  0  0  0  0
  8 50  1  0  0  0  0
  9 51  1  0  0  0  0
  9 52  1  0  0  0  0
  9 53  1  0  0  0  0
 10 54  1  0  0  0  0
 12 13  1  0  0  0  0
 12 17  1  0  0  0  0
 12 55  1  6  0  0  0
 12 11  1  0  0  0  0
 13 14  1  0  0  0  0
 13 33  1  0  0  0  0
 13 56  1  1  0  0  0
 14 15  1  0  0  0  0
 14 57  1  0  0  0  0
 14 58  1  0  0  0  0
 15 16  1  0  0  0  0
 15 32  1  0  0  0  0
 15 59  1  1  0  0  0
 16 17  1  0  0  0  0
 16 60  1  6  0  0  0
 16 19  1  0  0  0  0
 17 61  1  1  0  0  0
 17 18  1  0  0  0  0
 18 62  1  0  0  0  0
 20 19  1  0  0  0  0
 20 21  1  0  0  0  0
 20 25  1  0  0  0  0
 20 63  1  6  0  0  0
 21 22  1  0  0  0  0
 21 31  1  0  0  0  0
 21 64  1  6  0  0  0
 22 23  1  0  0  0  0
 22 65  1  0  0  0  0
 22 66  1  0  0  0  0
 23 24  2  0  0  0  0
 23 67  1  0  0  0  0
 24 25  1  0  0  0  0
 24 26  1  0  0  0  0
 26 27  1  0  0  0  0
 26 68  1  0  0  0  0
 26 69  1  0  0  0  0
 27 28  1  0  0  0  0
 27 70  1  0  0  0  0
 28 29  1  0  0  0  0
 28 71  1  0  0  0  0
 28 72  1  0  0  0  0
 29 30  1  0  0  0  0
 29 73  1  0  0  0  0
 29 74  1  0  0  0  0
 30 75  1  0  0  0  0
 31 76  1  0  0  0  0
 31 77  1  0  0  0  0
 32 78  1  0  0  0  0
 32 79  1  0  0  0  0
 33 34  1  0  0  0  0
 33 80  1  0  0  0  0
 34 35  2  0  0  0  0
 36 40  1  0  0  0  0
 36 81  1  1  0  0  0
 36 37  1  0  0  0  0
 36 34  1  0  0  0  0
 37 38  1  0  0  0  0
 37 82  1  0  0  0  0
 37 83  1  0  0  0  0
 38 39  1  0  0  0  0
 38 84  1  0  0  0  0
 38 85  1  0  0  0  0
 39 86  1  0  0  0  0
 39 87  1  0  0  0  0
 40 88  1  0  0  0  0
 41 89  1  0  0  0  0
M  END
>  <DRUGBANK_ID>
DB12615

>  <COMMON_NAME>
Plazomicin

>  <CAS_NUMBER>
1154757-24-0

>  <UNII>
LYO9XZ250J

>  <SYNONYMS>
Plazomicin

$$$$
