608
 OpenBabel10282417163D

 50 53  0  0  0  0  0  0  0  0999 V2000
    1.3701   -0.2448   -0.0717 C   0  0  0  0  0  0  0  0  0  0  0  0
    0.8730    1.0493   -0.0539 C   0  0  0  0  0  0  0  0  0  0  0  0
   -0.4861    1.3122    0.0822 C   0  0  0  0  0  0  0  0  0  0  0  0
   -1.3624    0.2229    0.0229 C   0  0  0  0  0  0  0  0  0  0  0  0
   -0.8589   -1.1001   -0.0167 C   0  0  0  0  0  0  0  0  0  0  0  0
    0.5197   -1.3433   -0.0246 C   0  0  0  0  0  0  0  0  0  0  0  0
    5.0356    5.9939   -1.1615 C   0  0  0  0  0  0  0  0  0  0  0  0
    5.6979    7.1660   -1.0724 N   0  0  0  0  0  0  0  0  0  0  0  0
    3.6615    5.8872   -1.3337 C   0  0  0  0  0  0  0  0  0  0  0  0
    2.8908    7.0529   -1.4027 C   0  0  0  0  0  0  0  0  0  0  0  0
    3.5711    8.2785   -1.3359 C   0  0  0  0  0  0  0  0  0  0  0  0
    4.9488    8.2833   -1.1610 C   0  0  0  0  0  0  0  0  0  0  0  0
   -0.7137    5.0540    0.7591 C   0  0  0  0  0  0  0  0  0  0  0  0
   -1.6664    5.2591    1.7610 C   0  0  0  0  0  0  0  0  0  0  0  0
   -2.0600    6.5627    2.0436 C   0  0  0  0  0  0  0  0  0  0  0  0
   -1.4725    7.5947    1.3299 C   0  0  0  0  0  0  0  0  0  0  0  0
   -0.5478    7.4164    0.3604 N   0  0  0  0  0  0  0  0  0  0  0  0
   -0.1535    6.1564    0.0738 C   0  0  0  0  0  0  0  0  0  0  0  0
    0.6824    5.9411   -1.0271 N   0  0  0  0  0  0  0  0  0  0  0  0
    1.3929    7.0451   -1.6482 C   0  0  0  0  0  0  0  0  0  0  0  0
   -0.1305    3.7269    0.5119 C   0  0  0  0  0  0  0  0  0  0  0  0
   -0.9645    2.6302    0.3272 N   0  0  0  0  0  0  0  0  0  0  0  0
    1.1056    3.7204    0.4671 O   0  0  0  0  0  0  0  0  0  0  0  0
    0.9593   -2.6617   -0.0156 O   0  0  0  0  0  0  0  0  0  0  0  0
    4.3064   -3.3877   -1.3100 C   0  0  0  0  0  0  0  0  0  0  0  0
    5.1020   -2.8280   -0.3075 C   0  0  0  0  0  0  0  0  0  0  0  0
    4.5158   -2.3565    0.8664 C   0  0  0  0  0  0  0  0  0  0  0  0
    3.1315   -2.4163    1.0250 C   0  0  0  0  0  0  0  0  0  0  0  0
    2.3292   -2.8623   -0.0321 C   0  0  0  0  0  0  0  0  0  0  0  0
    2.9160   -3.4279   -1.1646 C   0  0  0  0  0  0  0  0  0  0  0  0
    2.4503   -0.3276   -0.0982 H   0  0  0  0  0  0  0  0  0  0  0  0
    1.6232    1.8233   -0.1370 H   0  0  0  0  0  0  0  0  0  0  0  0
   -2.4392    0.3721    0.0156 H   0  0  0  0  0  0  0  0  0  0  0  0
   -1.5517   -1.9382   -0.0269 H   0  0  0  0  0  0  0  0  0  0  0  0
    5.6565    5.1051   -1.0902 H   0  0  0  0  0  0  0  0  0  0  0  0
    3.2206    4.9001   -1.4081 H   0  0  0  0  0  0  0  0  0  0  0  0
    3.0423    9.2232   -1.4172 H   0  0  0  0  0  0  0  0  0  0  0  0
    5.5011    9.2160   -1.0850 H   0  0  0  0  0  0  0  0  0  0  0  0
   -2.0646    4.4346    2.3434 H   0  0  0  0  0  0  0  0  0  0  0  0
   -2.7929    6.7797    2.8133 H   0  0  0  0  0  0  0  0  0  0  0  0
   -1.7405    8.6313    1.5168 H   0  0  0  0  0  0  0  0  0  0  0  0
    1.2200    5.0815   -0.9272 H   0  0  0  0  0  0  0  0  0  0  0  0
    1.2447    6.9440   -2.7292 H   0  0  0  0  0  0  0  0  0  0  0  0
    0.9740    8.0187   -1.3724 H   0  0  0  0  0  0  0  0  0  0  0  0
   -1.9657    2.7509    0.4253 H   0  0  0  0  0  0  0  0  0  0  0  0
    4.7715   -3.7611   -2.2194 H   0  0  0  0  0  0  0  0  0  0  0  0
    6.1796   -2.7620   -0.4389 H   0  0  0  0  0  0  0  0  0  0  0  0
    5.1294   -1.9017    1.6397 H   0  0  0  0  0  0  0  0  0  0  0  0
    2.6709   -2.0104    1.9216 H   0  0  0  0  0  0  0  0  0  0  0  0
    2.3010   -3.8586   -1.9491 H   0  0  0  0  0  0  0  0  0  0  0  0
  1  6  2  0  0  0  0
  1 31  1  0  0  0  0
  2  1  1  0  0  0  0
  2 32  1  0  0  0  0
  3  2  2  0  0  0  0
  3  4  1  0  0  0  0
  4  5  2  0  0  0  0
  4 33  1  0  0  0  0
  5  6  1  0  0  0  0
  5 34  1  0  0  0  0
  6 24  1  0  0  0  0
  7  9  2  0  0  0  0
  7 35  1  0  0  0  0
  8  7  1  0  0  0  0
  9 36  1  0  0  0  0
 10  9  1  0  0  0  0
 10 20  1  0  0  0  0
 11 10  2  0  0  0  0
 11 37  1  0  0  0  0
 12  8  2  0  0  0  0
 12 11  1  0  0  0  0
 12 38  1  0  0  0  0
 13 21  1  0  0  0  0
 14 13  1  0  0  0  0
 14 39  1  0  0  0  0
 15 14  2  0  0  0  0
 15 40  1  0  0  0  0
 16 17  2  0  0  0  0
 16 15  1  0  0  0  0
 16 41  1  0  0  0  0
 17 18  1  0  0  0  0
 18 19  1  0  0  0  0
 18 13  2  0  0  0  0
 19 42  1  0  0  0  0
 20 19  1  0  0  0  0
 20 43  1  0  0  0  0
 20 44  1  0  0  0  0
 21 23  2  0  0  0  0
 21 22  1  0  0  0  0
 22  3  1  0  0  0  0
 22 45  1  0  0  0  0
 24 29  1  0  0  0  0
 25 26  1  0  0  0  0
 25 46  1  0  0  0  0
 26 47  1  0  0  0  0
 27 26  2  0  0  0  0
 27 48  1  0  0  0  0
 28 27  1  0  0  0  0
 28 49  1  0  0  0  0
 29 28  2  0  0  0  0
 29 30  1  0  0  0  0
 30 25  2  0  0  0  0
 30 50  1  0  0  0  0
M  END
>  <DRUGBANK_ID>
DB07183

>  <COMMON_NAME>
N-(4-phenoxyphenyl)-2-[(pyridin-4-ylmethyl)amino]nicotinamide

$$$$
