
 OpenBabel10282417153D

 48 51  0  0  1  0  0  0  0  0999 V2000
   -1.8454    0.0463    0.5857 C   0  0  0  0  0  0  0  0  0  0  0  0
   -0.6840   -0.3882    1.5097 C   0  0  2  0  0  0  0  0  0  0  0  0
   -1.4362   -1.9550    1.2895 C   0  0  0  0  0  0  0  0  0  0  0  0
   -0.9049   -2.2962   -0.1826 C   0  0  0  0  0  0  0  0  0  0  0  0
    0.5561   -2.6690   -0.1204 C   0  0  0  0  0  0  0  0  0  0  0  0
    1.1075   -2.2674    1.2535 C   0  0  0  0  0  0  0  0  0  0  0  0
    0.8363   -0.7456    1.4050 C   0  0  0  0  0  0  0  0  0  0  0  0
    1.8874    0.0991    1.5896 C   0  0  0  0  0  0  0  0  0  0  0  0
    1.9539    1.6409    1.7982 C   0  0  0  0  0  0  0  0  0  0  0  0
    0.6444    2.3822    1.3751 C   0  0  2  0  0  0  0  0  0  0  0  0
   -0.5803    1.2930    2.1646 C   0  0  2  0  0  0  0  0  0  0  0  0
   -1.8836    2.0793    2.0872 C   0  0  0  0  0  0  0  0  0  0  0  0
   -1.8836    3.4960    2.4800 C   0  0  0  0  0  0  0  0  0  0  0  0
   -1.0739    4.2695    1.4644 C   0  0  1  0  0  0  0  0  0  0  0  0
    0.4555    4.2325    1.5739 C   0  0  1  0  0  0  0  0  0  0  0  0
    0.4778    5.9423    0.8210 C   0  0  0  0  0  0  0  0  0  0  0  0
   -1.0027    6.5335    0.6374 C   0  0  2  0  0  0  0  0  0  0  0  0
   -1.4337    5.6978    1.7374 C   0  0  0  0  0  0  0  0  0  0  0  0
   -1.6532    6.1779    2.8898 O   0  0  0  0  0  0  0  0  0  0  0  0
   -1.5903    6.2258   -0.5464 F   0  0  0  0  0  0  0  0  0  0  0  0
   -1.2419    3.8972   -0.1004 C   0  0  0  0  0  0  0  0  0  0  0  0
   -2.6645    0.1759    1.3124 H   0  0  0  0  0  0  0  0  0  0  0  0
   -2.4464   -0.5719   -0.0874 H   0  0  0  0  0  0  0  0  0  0  0  0
   -1.4943    0.8384   -0.0468 H   0  0  0  0  0  0  0  0  0  0  0  0
   -1.2120   -2.8018    1.9630 H   0  0  0  0  0  0  0  0  0  0  0  0
   -2.5404   -2.0617    1.2070 H   0  0  0  0  0  0  0  0  0  0  0  0
   -1.5797   -2.8668   -0.8356 H   0  0  0  0  0  0  0  0  0  0  0  0
   -0.8549   -1.3610   -0.7585 H   0  0  0  0  0  0  0  0  0  0  0  0
    0.7155   -3.7149   -0.3883 H   0  0  0  0  0  0  0  0  0  0  0  0
    1.0719   -2.0688   -0.8852 H   0  0  0  0  0  0  0  0  0  0  0  0
    2.1278   -2.6424    1.3642 H   0  0  0  0  0  0  0  0  0  0  0  0
    0.6192   -2.7606    2.1077 H   0  0  0  0  0  0  0  0  0  0  0  0
    2.8758   -0.3720    1.6000 H   0  0  0  0  0  0  0  0  0  0  0  0
    2.1982    1.8292    2.8530 H   0  0  0  0  0  0  0  0  0  0  0  0
    2.8128    2.0029    1.2184 H   0  0  0  0  0  0  0  0  0  0  0  0
    0.5942    2.1996    0.2952 H   0  0  0  0  0  0  0  0  0  0  0  0
   -0.2968    1.2029    3.2224 H   0  0  0  0  0  0  0  0  0  0  0  0
   -2.7838    1.5948    2.4612 H   0  0  0  0  0  0  0  0  0  0  0  0
   -2.1464    2.1865    1.0332 H   0  0  0  0  0  0  0  0  0  0  0  0
   -1.8923    3.9507    3.4816 H   0  0  0  0  0  0  0  0  0  0  0  0
   -2.9586    3.6211    2.3755 H   0  0  0  0  0  0  0  0  0  0  0  0
    1.0703    4.4539    2.4573 H   0  0  0  0  0  0  0  0  0  0  0  0
    0.7880    6.6396    1.6366 H   0  0  0  0  0  0  0  0  0  0  0  0
    1.1385    6.2295   -0.0055 H   0  0  0  0  0  0  0  0  0  0  0  0
   -1.2601    7.5775    0.8467 H   0  0  0  0  0  0  0  0  0  0  0  0
   -1.0942    2.8582   -0.3991 H   0  0  0  0  0  0  0  0  0  0  0  0
   -2.2176    4.1847   -0.4806 H   0  0  0  0  0  0  0  0  0  0  0  0
   -0.4554    4.3686   -0.7230 H   0  0  0  0  0  0  0  0  0  0  0  0
  1 22  1  0  0  0  0
  1 23  1  0  0  0  0
  1 24  1  0  0  0  0
  2  3  1  0  0  0  0
  2  7  1  0  0  0  0
  2 11  1  0  0  0  0
  2  1  1  1  0  0  0
  3  4  1  0  0  0  0
  3 25  1  0  0  0  0
  3 26  1  0  0  0  0
  4  5  1  0  0  0  0
  4 27  1  0  0  0  0
  4 28  1  0  0  0  0
  5  6  1  0  0  0  0
  5 29  1  0  0  0  0
  5 30  1  0  0  0  0
  6  7  1  0  0  0  0
  6 31  1  0  0  0  0
  6 32  1  0  0  0  0
  7  8  2  0  0  0  0
  8  9  1  0  0  0  0
  8 33  1  0  0  0  0
  9 34  1  0  0  0  0
  9 35  1  0  0  0  0
 10  9  1  0  0  0  0
 10 11  1  0  0  0  0
 10 15  1  0  0  0  0
 10 36  1  1  0  0  0
 11 12  1  0  0  0  0
 11 37  1  6  0  0  0
 12 13  1  0  0  0  0
 12 38  1  0  0  0  0
 12 39  1  0  0  0  0
 13 14  1  0  0  0  0
 13 40  1  0  0  0  0
 13 41  1  0  0  0  0
 14 15  1  0  0  0  0
 14 18  1  0  0  0  0
 14 21  1  1  0  0  0
 15 16  1  0  0  0  0
 15 42  1  6  0  0  0
 16 17  1  0  0  0  0
 16 43  1  0  0  0  0
 16 44  1  0  0  0  0
 17 18  1  0  0  0  0
 17 45  1  1  0  0  0
 17 20  1  0  0  0  0
 18 19  2  0  0  0  0
 21 46  1  0  0  0  0
 21 47  1  0  0  0  0
 21 48  1  0  0  0  0
M  END
>  <DRUGBANK_ID>
DB06250

>  <COMMON_NAME>
Fluasterone

>  <CAS_NUMBER>
112859-71-9

>  <UNII>
R7M5UGD04G

$$$$
