A49
 OpenBabel10282417163D

 62 65  0  0  0  0  0  0  0  0999 V2000
   13.4119    7.6005   13.1597 O   0  0  0  0  0  0  0  0  0  0  0  0
   13.3978    8.7950   13.3471 C   0  0  0  0  0  0  0  0  0  0  0  0
   12.3477    9.4142   14.0060 N   0  0  0  0  0  0  0  0  0  0  0  0
   14.4056    9.7272   12.6983 C   0  0  0  0  0  0  0  0  0  0  0  0
   15.5696    9.2032   11.8241 C   0  0  0  0  0  0  0  0  0  0  0  0
   15.8124    9.4736   13.2650 C   0  0  0  0  0  0  0  0  0  0  0  0
   13.8360   11.0763   12.2438 C   0  0  0  0  0  0  0  0  0  0  0  0
   12.7842   10.9365   11.1765 N   0  0  0  0  0  0  0  0  0  0  0  0
   13.4336   10.5946    9.9109 C   0  0  0  0  0  0  0  0  0  0  0  0
   12.4280   10.4605    8.7815 C   0  0  0  0  0  0  0  0  0  0  0  0
   11.7156    9.9513   11.4336 C   0  0  0  0  0  0  0  0  0  0  0  0
   10.6697    9.6738   10.4030 C   0  0  0  0  0  0  0  0  0  0  0  0
   11.3401    9.4113    9.0709 C   0  0  0  0  0  0  0  0  0  0  0  0
   10.3124    9.3818    8.0401 N   0  0  0  0  0  0  0  0  0  0  0  0
   10.1025    8.2003    7.2342 C   0  0  0  0  0  0  0  0  0  0  0  0
   10.9185    6.9600    7.0606 C   0  0  0  0  0  0  0  0  0  0  0  0
    9.6601    6.8947    7.8728 C   0  0  0  0  0  0  0  0  0  0  0  0
    9.5529   10.5663    7.8983 C   0  0  0  0  0  0  0  0  0  0  0  0
    9.7297   11.6096    8.5288 O   0  0  0  0  0  0  0  0  0  0  0  0
    8.4437   10.6195    6.9499 C   0  0  0  0  0  0  0  0  0  0  0  0
    7.5107    9.5926    6.8878 C   0  0  0  0  0  0  0  0  0  0  0  0
    6.4441    9.7002    6.0173 C   0  0  0  0  0  0  0  0  0  0  0  0
    8.2711   11.7925    6.2133 C   0  0  0  0  0  0  0  0  0  0  0  0
    7.1558   11.9261    5.3986 C   0  0  0  0  0  0  0  0  0  0  0  0
    6.2733   10.8476    5.2234 C   0  0  0  0  0  0  0  0  0  0  0  0
    5.1275   10.9311    4.2194 C   0  0  2  0  0  0  0  0  0  0  0  0
    4.8983    9.5785    3.5050 C   0  0  0  0  0  0  0  0  0  0  0  0
    5.4948   11.8655    3.1734 O   0  0  0  0  0  0  0  0  0  0  0  0
    3.8285   11.3858    4.9345 C   0  0  0  0  0  0  0  0  0  0  0  0
    3.4536   10.4953    5.8869 F   0  0  0  0  0  0  0  0  0  0  0  0
    3.9614   12.5914    5.5340 F   0  0  0  0  0  0  0  0  0  0  0  0
    2.7976   11.4807    4.0593 F   0  0  0  0  0  0  0  0  0  0  0  0
   11.4853    8.8881   13.9076 H   0  0  0  0  0  0  0  0  0  0  0  0
   12.1808   10.3973   13.8195 H   0  0  0  0  0  0  0  0  0  0  0  0
   15.5365    8.1838   11.4537 H   0  0  0  0  0  0  0  0  0  0  0  0
   16.0974    9.8623   11.1333 H   0  0  0  0  0  0  0  0  0  0  0  0
   16.4721   10.2821   13.5382 H   0  0  0  0  0  0  0  0  0  0  0  0
   15.9262    8.5912   13.8957 H   0  0  0  0  0  0  0  0  0  0  0  0
   13.4208   11.6006   13.1151 H   0  0  0  0  0  0  0  0  0  0  0  0
   14.6159   11.7783   11.9116 H   0  0  0  0  0  0  0  0  0  0  0  0
   13.9713    9.6474    9.9918 H   0  0  0  0  0  0  0  0  0  0  0  0
   14.1574   11.3775    9.6588 H   0  0  0  0  0  0  0  0  0  0  0  0
   12.9562   10.1896    7.8639 H   0  0  0  0  0  0  0  0  0  0  0  0
   11.9950   11.4502    8.6222 H   0  0  0  0  0  0  0  0  0  0  0  0
   11.1030   10.2640   12.2780 H   0  0  0  0  0  0  0  0  0  0  0  0
   12.1455    8.9561   11.5422 H   0  0  0  0  0  0  0  0  0  0  0  0
    9.9644   10.5045   10.4214 H   0  0  0  0  0  0  0  0  0  0  0  0
   10.0791    8.7937   10.7059 H   0  0  0  0  0  0  0  0  0  0  0  0
   11.8264    8.4278    9.1347 H   0  0  0  0  0  0  0  0  0  0  0  0
    9.7032    8.4812    6.2641 H   0  0  0  0  0  0  0  0  0  0  0  0
   10.8831    6.5079    6.0713 H   0  0  0  0  0  0  0  0  0  0  0  0
   11.8766    6.8511    7.5440 H   0  0  0  0  0  0  0  0  0  0  0  0
    9.7932    6.6905    8.9309 H   0  0  0  0  0  0  0  0  0  0  0  0
    8.7743    6.4205    7.4627 H   0  0  0  0  0  0  0  0  0  0  0  0
    7.6059    8.7025    7.4999 H   0  0  0  0  0  0  0  0  0  0  0  0
    5.7432    8.8695    5.9904 H   0  0  0  0  0  0  0  0  0  0  0  0
    8.9932   12.6038    6.2940 H   0  0  0  0  0  0  0  0  0  0  0  0
    6.9750   12.8833    4.9124 H   0  0  0  0  0  0  0  0  0  0  0  0
    5.4379    8.7354    3.9456 H   0  0  0  0  0  0  0  0  0  0  0  0
    3.8406    9.3000    3.5249 H   0  0  0  0  0  0  0  0  0  0  0  0
    5.2126    9.6155    2.4573 H   0  0  0  0  0  0  0  0  0  0  0  0
    6.3577   11.5855    2.8203 H   0  0  0  0  0  0  0  0  0  0  0  0
  1  2  2  0  0  0  0
  2  4  1  0  0  0  0
  3  2  1  0  0  0  0
  3 33  1  0  0  0  0
  3 34  1  0  0  0  0
  4  5  1  0  0  0  0
  5 35  1  0  0  0  0
  5 36  1  0  0  0  0
  6  4  1  0  0  0  0
  6  5  1  0  0  0  0
  6 37  1  0  0  0  0
  6 38  1  0  0  0  0
  7  4  1  0  0  0  0
  7  8  1  0  0  0  0
  7 39  1  0  0  0  0
  7 40  1  0  0  0  0
  8  9  1  0  0  0  0
  9 10  1  0  0  0  0
  9 41  1  0  0  0  0
  9 42  1  0  0  0  0
 10 43  1  0  0  0  0
 10 44  1  0  0  0  0
 11  8  1  0  0  0  0
 11 12  1  0  0  0  0
 11 45  1  0  0  0  0
 11 46  1  0  0  0  0
 12 13  1  0  0  0  0
 12 47  1  0  0  0  0
 12 48  1  0  0  0  0
 13 10  1  0  0  0  0
 13 14  1  0  0  0  0
 13 49  1  0  0  0  0
 14 15  1  0  0  0  0
 14 18  1  0  0  0  0
 15 17  1  0  0  0  0
 15 50  1  0  0  0  0
 16 15  1  0  0  0  0
 16 17  1  0  0  0  0
 16 51  1  0  0  0  0
 16 52  1  0  0  0  0
 17 53  1  0  0  0  0
 17 54  1  0  0  0  0
 18 19  2  0  0  0  0
 20 18  1  0  0  0  0
 20 21  1  0  0  0  0
 21 55  1  0  0  0  0
 22 21  2  0  0  0  0
 22 56  1  0  0  0  0
 23 20  2  0  0  0  0
 23 57  1  0  0  0  0
 24 23  1  0  0  0  0
 24 25  2  0  0  0  0
 24 58  1  0  0  0  0
 25 22  1  0  0  0  0
 26 28  1  6  0  0  0
 26 27  1  0  0  0  0
 26 25  1  0  0  0  0
 27 59  1  0  0  0  0
 27 60  1  0  0  0  0
 27 61  1  0  0  0  0
 28 62  1  0  0  0  0
 29 26  1  0  0  0  0
 29 32  1  0  0  0  0
 30 29  1  0  0  0  0
 31 29  1  0  0  0  0
M  END
>  <DRUGBANK_ID>
DB07316

>  <COMMON_NAME>
N-{1-[(1-carbamoylcyclopropyl)methyl]piperidin-4-yl}-N-cyclopropyl-4-[(1S)-2,2,2-trifluoro-1-hydroxy-1-methylethyl]benzamide

$$$$
