
 OpenBabel10282417133D

 88 88  0  0  1  0  0  0  0  0999 V2000
    0.6453  -10.7066    5.1766 C   0  0  0  0  0  0  0  0  0  0  0  0
   -1.2866  -10.2407    3.6974 C   0  0  0  0  0  0  0  0  0  0  0  0
   -1.0474   -5.1300    8.6579 C   0  0  0  0  0  0  0  0  0  0  0  0
    0.8411   -5.6610   10.2255 C   0  0  0  0  0  0  0  0  0  0  0  0
   -8.3926   -3.7046    6.6784 C   0  0  0  0  0  0  0  0  0  0  0  0
  -10.3084   -7.7154    3.9573 C   0  0  0  0  0  0  0  0  0  0  0  0
   -3.4082   -6.7965   11.4882 C   0  0  0  0  0  0  0  0  0  0  0  0
   -8.3175  -11.8967   10.5384 C   0  0  0  0  0  0  0  0  0  0  0  0
   -8.7038  -12.9420    9.6999 C   0  0  0  0  0  0  0  0  0  0  0  0
   -7.7114  -10.7728   10.0053 C   0  0  0  0  0  0  0  0  0  0  0  0
   -8.4998  -12.8608    8.3219 C   0  0  0  0  0  0  0  0  0  0  0  0
   -7.5582  -10.6715    8.6293 C   0  0  0  0  0  0  0  0  0  0  0  0
   -5.8291   -8.9052    4.3086 C   0  0  0  0  0  0  0  0  0  0  0  0
   -5.0203   -8.3802    5.5123 C   0  0  0  0  0  0  0  0  0  0  0  0
   -7.7520  -11.6752    6.2530 C   0  0  0  0  0  0  0  0  0  0  0  0
   -0.5377   -9.7555    4.9485 C   0  0  0  0  0  0  0  0  0  0  0  0
    0.0379   -6.1476    9.0197 C   0  0  0  0  0  0  0  0  0  0  0  0
   -9.9185   -3.7727    6.6531 C   0  0  1  0  0  0  0  0  0  0  0  0
  -10.1022   -7.4788    5.4499 C   0  0  1  0  0  0  0  0  0  0  0  0
   -7.9444  -11.7099    7.7592 C   0  0  0  0  0  0  0  0  0  0  0  0
   -7.4171  -10.2838    5.7160 C   0  0  1  0  0  0  0  0  0  0  0  0
   -6.4643  -10.3012    4.5078 C   0  0  1  0  0  0  0  0  0  0  0  0
   -3.9126   -9.3343    5.9123 C   0  0  0  0  0  0  0  0  0  0  0  0
   -1.4836   -9.6863    6.1746 C   0  0  1  0  0  0  0  0  0  0  0  0
   -0.5259   -7.5663    9.2630 C   0  0  1  0  0  0  0  0  0  0  0  0
  -10.4957   -5.2131    6.4708 C   0  0  0  0  0  0  0  0  0  0  0  0
   -8.9252   -8.3056    6.0433 C   0  0  0  0  0  0  0  0  0  0  0  0
   -0.7514   -9.2501    7.4680 C   0  0  0  0  0  0  0  0  0  0  0  0
   -1.4506   -7.6543   10.4943 C   0  0  0  0  0  0  0  0  0  0  0  0
  -10.4272   -3.1873    7.9143 N   0  0  0  0  0  0  0  0  0  0  0  0
   -9.7914   -6.0483    5.6321 N   0  0  0  0  0  0  0  0  0  0  0  0
   -8.6335   -9.5102    5.4291 N   0  0  0  0  0  0  0  0  0  0  0  0
   -2.6421   -8.8176    5.8941 N   0  0  0  0  0  0  0  0  0  0  0  0
   -1.1585   -8.0636    8.0357 N   0  0  0  0  0  0  0  0  0  0  0  0
   -7.1551  -10.7116    3.3267 O   0  0  0  0  0  0  0  0  0  0  0  0
   -4.1460  -10.4933    6.2416 O   0  0  0  0  0  0  0  0  0  0  0  0
  -11.5629   -5.5481    6.9848 O   0  0  0  0  0  0  0  0  0  0  0  0
   -8.2616   -7.8803    6.9899 O   0  0  0  0  0  0  0  0  0  0  0  0
    0.1819   -9.8959    7.9403 O   0  0  0  0  0  0  0  0  0  0  0  0
   -1.1395   -8.2073   11.5513 O   0  0  0  0  0  0  0  0  0  0  0  0
   -2.6032   -6.9505   10.3134 O   0  0  0  0  0  0  0  0  0  0  0  0
  -10.3024   -3.1583    5.8290 H   0  0  0  0  0  0  0  0  0  0  0  0
  -11.0070   -7.7384    6.0108 H   0  0  0  0  0  0  0  0  0  0  0  0
   -6.8632   -9.7583    6.4744 H   0  0  0  0  0  0  0  0  0  0  0  0
   -5.6755  -11.0429    4.6527 H   0  0  0  0  0  0  0  0  0  0  0  0
   -1.8472  -10.6998    6.3845 H   0  0  0  0  0  0  0  0  0  0  0  0
    0.3277   -8.2163    9.4963 H   0  0  0  0  0  0  0  0  0  0  0  0
    0.2943  -11.7202    5.4011 H   0  0  0  0  0  0  0  0  0  0  0  0
    1.2887  -10.3779    5.9948 H   0  0  0  0  0  0  0  0  0  0  0  0
    1.2867  -10.7548    4.2912 H   0  0  0  0  0  0  0  0  0  0  0  0
   -1.6883  -11.2493    3.8489 H   0  0  0  0  0  0  0  0  0  0  0  0
   -2.1183   -9.5796    3.4372 H   0  0  0  0  0  0  0  0  0  0  0  0
   -0.6147  -10.2743    2.8328 H   0  0  0  0  0  0  0  0  0  0  0  0
   -1.7409   -4.9697    9.4860 H   0  0  0  0  0  0  0  0  0  0  0  0
   -0.6124   -4.1548    8.4251 H   0  0  0  0  0  0  0  0  0  0  0  0
   -1.6230   -5.4570    7.7860 H   0  0  0  0  0  0  0  0  0  0  0  0
    1.6768   -6.3373   10.4355 H   0  0  0  0  0  0  0  0  0  0  0  0
    1.2530   -4.6639   10.0414 H   0  0  0  0  0  0  0  0  0  0  0  0
    0.2157   -5.6043   11.1216 H   0  0  0  0  0  0  0  0  0  0  0  0
   -8.0128   -3.0763    7.4921 H   0  0  0  0  0  0  0  0  0  0  0  0
   -7.9247   -4.6853    6.7980 H   0  0  0  0  0  0  0  0  0  0  0  0
   -8.0267   -3.2616    5.7449 H   0  0  0  0  0  0  0  0  0  0  0  0
  -10.1753   -8.7525    3.6474 H   0  0  0  0  0  0  0  0  0  0  0  0
  -11.3247   -7.4328    3.6691 H   0  0  0  0  0  0  0  0  0  0  0  0
   -9.6099   -7.1113    3.3673 H   0  0  0  0  0  0  0  0  0  0  0  0
   -3.8574   -7.7569   11.7488 H   0  0  0  0  0  0  0  0  0  0  0  0
   -2.8322   -6.3925   12.3301 H   0  0  0  0  0  0  0  0  0  0  0  0
   -4.2077   -6.0840   11.2615 H   0  0  0  0  0  0  0  0  0  0  0  0
   -8.4948  -11.9503   11.6066 H   0  0  0  0  0  0  0  0  0  0  0  0
   -9.1670  -13.8272   10.1222 H   0  0  0  0  0  0  0  0  0  0  0  0
   -7.3662   -9.9600   10.6384 H   0  0  0  0  0  0  0  0  0  0  0  0
   -8.7894  -13.6937    7.6854 H   0  0  0  0  0  0  0  0  0  0  0  0
   -7.1423   -9.7288    8.2920 H   0  0  0  0  0  0  0  0  0  0  0  0
   -6.6246   -8.1839    4.0770 H   0  0  0  0  0  0  0  0  0  0  0  0
   -5.1904   -8.9298    3.4189 H   0  0  0  0  0  0  0  0  0  0  0  0
   -5.6453   -8.2352    6.4002 H   0  0  0  0  0  0  0  0  0  0  0  0
   -4.6258   -7.3852    5.2871 H   0  0  0  0  0  0  0  0  0  0  0  0
   -8.6660  -12.0404    5.7661 H   0  0  0  0  0  0  0  0  0  0  0  0
   -6.9502  -12.3841    6.0074 H   0  0  0  0  0  0  0  0  0  0  0  0
   -0.1408   -8.7524    4.7455 H   0  0  0  0  0  0  0  0  0  0  0  0
    0.7275   -6.2005    8.1636 H   0  0  0  0  0  0  0  0  0  0  0  0
  -11.4478   -3.2684    7.9053 H   0  0  0  0  0  0  0  0  0  0  0  0
  -10.1399   -3.7912    8.6866 H   0  0  0  0  0  0  0  0  0  0  0  0
   -8.8647   -5.7678    5.3424 H   0  0  0  0  0  0  0  0  0  0  0  0
   -9.3040   -9.9641    4.8255 H   0  0  0  0  0  0  0  0  0  0  0  0
   -2.4779   -7.8651    5.5946 H   0  0  0  0  0  0  0  0  0  0  0  0
   -2.0477   -7.6760    7.7483 H   0  0  0  0  0  0  0  0  0  0  0  0
   -7.8674  -10.0735    3.1715 H   0  0  0  0  0  0  0  0  0  0  0  0
  1 48  1  0  0  0  0
  1 49  1  0  0  0  0
  1 50  1  0  0  0  0
  2 51  1  0  0  0  0
  2 52  1  0  0  0  0
  2 53  1  0  0  0  0
  3 54  1  0  0  0  0
  3 55  1  0  0  0  0
  3 56  1  0  0  0  0
  4 57  1  0  0  0  0
  4 58  1  0  0  0  0
  4 59  1  0  0  0  0
  5 60  1  0  0  0  0
  5 61  1  0  0  0  0
  5 62  1  0  0  0  0
  6 63  1  0  0  0  0
  6 64  1  0  0  0  0
  6 65  1  0  0  0  0
  7 66  1  0  0  0  0
  7 67  1  0  0  0  0
  7 68  1  0  0  0  0
  8 69  1  0  0  0  0
  9  8  2  0  0  0  0
  9 70  1  0  0  0  0
 10  8  1  0  0  0  0
 10 71  1  0  0  0  0
 11  9  1  0  0  0  0
 11 72  1  0  0  0  0
 12 10  2  0  0  0  0
 12 73  1  0  0  0  0
 13 74  1  0  0  0  0
 13 75  1  0  0  0  0
 14 13  1  0  0  0  0
 14 76  1  0  0  0  0
 14 77  1  0  0  0  0
 15 78  1  0  0  0  0
 15 79  1  0  0  0  0
 16  1  1  0  0  0  0
 16  2  1  0  0  0  0
 16 80  1  0  0  0  0
 17  3  1  0  0  0  0
 17  4  1  0  0  0  0
 17 81  1  0  0  0  0
 18 30  1  0  0  0  0
 18 42  1  6  0  0  0
 18 26  1  0  0  0  0
 18  5  1  0  0  0  0
 19 43  1  1  0  0  0
 19 27  1  0  0  0  0
 19  6  1  0  0  0  0
 20 11  2  0  0  0  0
 20 12  1  0  0  0  0
 20 15  1  0  0  0  0
 21 32  1  0  0  0  0
 21 44  1  1  0  0  0
 21 22  1  0  0  0  0
 21 15  1  0  0  0  0
 22 13  1  0  0  0  0
 22 35  1  0  0  0  0
 22 45  1  1  0  0  0
 23 14  1  0  0  0  0
 24 16  1  0  0  0  0
 24 33  1  0  0  0  0
 24 46  1  1  0  0  0
 25 17  1  0  0  0  0
 25 34  1  0  0  0  0
 25 47  1  1  0  0  0
 28 24  1  0  0  0  0
 29 25  1  0  0  0  0
 30 82  1  0  0  0  0
 30 83  1  0  0  0  0
 31 19  1  0  0  0  0
 31 26  1  0  0  0  0
 31 84  1  0  0  0  0
 32 27  1  0  0  0  0
 32 85  1  0  0  0  0
 33 23  1  0  0  0  0
 33 86  1  0  0  0  0
 34 28  1  0  0  0  0
 34 87  1  0  0  0  0
 35 88  1  0  0  0  0
 36 23  2  0  0  0  0
 37 26  2  0  0  0  0
 38 27  2  0  0  0  0
 39 28  2  0  0  0  0
 40 29  2  0  0  0  0
 41  7  1  0  0  0  0
 41 29  1  0  0  0  0
M  END
>  <DRUGBANK_ID>
DB04191

>  <SECONDARY_ACCESSION_NUMBERS>
EXPT01606

>  <COMMON_NAME>
Skf 107457

>  <CAS_NUMBER>
144285-77-8

$$$$
