
 OpenBabel10282417223D

141146  0  0  0  0  0  0  0  0999 V2000
    1.0821   -0.9490    0.6080 O   0  0  0  0  0  0  0  0  0  0  0  0
    2.3677   -0.5450    0.8124 C   0  0  0  0  0  0  0  0  0  0  0  0
    3.0047   -1.6982    0.6169 N   0  0  0  0  0  0  0  0  0  0  0  0
    3.0971   -2.0538    1.9527 C   0  0  0  0  0  0  0  0  0  0  0  0
    2.7781   -2.3448   -0.6927 C   0  0  2  0  0  0  0  0  0  0  0  0
    3.8443   -3.4551   -0.6986 C   0  0  0  0  0  0  0  0  0  0  0  0
    3.7290   -4.4022    0.0845 O   0  0  0  0  0  0  0  0  0  0  0  0
    4.6854   -3.5575   -1.7306 O   0  0  0  0  0  0  0  0  0  0  0  0
    6.0969   -3.1534   -1.6174 C   0  0  0  0  0  0  0  0  0  0  0  0
    6.5137   -2.5430   -3.0067 C   0  0  1  0  0  0  0  0  0  0  0  0
    5.2805   -2.0793   -3.5960 N   0  0  0  0  0  0  0  0  0  0  0  0
    4.4103   -3.0116   -4.2196 C   0  0  0  0  0  0  0  0  0  0  0  0
    3.2254   -2.7702   -4.4292 O   0  0  0  0  0  0  0  0  0  0  0  0
    4.9315   -4.3618   -4.6298 C   0  0  0  0  0  0  0  0  0  0  0  0
    4.7243   -4.7344   -5.9024 N   0  0  0  0  0  0  0  0  0  0  0  0
    5.3214   -5.8851   -6.2793 C   0  0  0  0  0  0  0  0  0  0  0  0
    6.1404   -6.6522   -5.3992 C   0  0  0  0  0  0  0  0  0  0  0  0
    6.3286   -6.2910   -4.1384 N   0  0  0  0  0  0  0  0  0  0  0  0
    5.6756   -5.1746   -3.7864 C   0  0  0  0  0  0  0  0  0  0  0  0
    6.7529   -7.8103   -5.8343 C   0  0  0  0  0  0  0  0  0  0  0  0
    6.5566   -8.2536   -7.1343 C   0  0  0  0  0  0  0  0  0  0  0  0
    5.7608   -7.5173   -8.0028 C   0  0  0  0  0  0  0  0  0  0  0  0
    5.1502   -6.3420   -7.5708 C   0  0  0  0  0  0  0  0  0  0  0  0
    7.7568   -1.6936   -3.0511 C   0  0  0  0  0  0  0  0  0  0  0  0
    8.6111   -1.6892   -3.9099 O   0  0  0  0  0  0  0  0  0  0  0  0
    7.8287   -0.7817   -2.1528 N   0  0  0  0  0  0  0  0  0  0  0  0
    8.8229    0.1511   -1.9538 C   0  0  2  0  0  0  0  0  0  0  0  0
    8.3936    1.5087   -2.0475 C   0  0  0  0  0  0  0  0  0  0  0  0
    8.9399    2.0791   -2.9854 O   0  0  0  0  0  0  0  0  0  0  0  0
    7.1375    1.5740   -1.3026 N   0  0  0  0  0  0  0  0  0  0  0  0
    5.8487    0.6383   -2.3465 C   0  0  0  0  0  0  0  0  0  0  0  0
    6.3397    3.1912   -0.5387 C   0  0  2  0  0  0  0  0  0  0  0  0
    6.3021    4.4883   -1.3991 C   0  0  0  0  0  0  0  0  0  0  0  0
    7.5629    4.6218   -0.9979 O   0  0  0  0  0  0  0  0  0  0  0  0
    5.1973    4.5962   -2.9931 N   0  0  0  0  0  0  0  0  0  0  0  0
    4.5142    3.1715   -4.0248 C   0  0  0  0  0  0  0  0  0  0  0  0
    6.0021    5.6658   -4.3967 C   0  0  2  0  0  0  0  0  0  0  0  0
    7.6929    5.2187   -5.1738 C   0  0  0  0  0  0  0  0  0  0  0  0
    8.5502    6.0729   -5.0802 O   0  0  0  0  0  0  0  0  0  0  0  0
    8.2059    4.0510   -5.5741 O   0  0  0  0  0  0  0  0  0  0  0  0
    9.6970    4.1324   -5.6327 C   0  0  0  0  0  0  0  0  0  0  0  0
   10.6158    4.2228   -4.2889 C   0  0  2  0  0  0  0  0  0  0  0  0
   10.2429    5.6351   -3.7453 C   0  0  0  0  0  0  0  0  0  0  0  0
   10.7200    6.6261   -4.3634 O   0  0  0  0  0  0  0  0  0  0  0  0
    8.8463    5.5368   -2.8141 N   0  0  0  0  0  0  0  0  0  0  0  0
    7.8205    3.8636   -2.6539 C   0  0  2  0  0  0  0  0  0  0  0  0
    6.0270    2.5813   -2.2224 C   0  0  0  0  0  0  0  0  0  0  0  0
    6.2071    2.0932   -3.5448 O   0  0  0  0  0  0  0  0  0  0  0  0
    5.1399    1.6114   -0.6441 N   0  0  0  0  0  0  0  0  0  0  0  0
    5.3443    0.7215    1.1493 C   0  0  0  0  0  0  0  0  0  0  0  0
    3.4264    1.1876    0.3670 C   0  0  1  0  0  0  0  0  0  0  0  0
    2.8694    2.5810    0.4410 C   0  0  3  0  0  0  0  0  0  0  0  0
    2.0170    4.1064    0.1592 S   0  0  0  0  0  0  0  0  0  0  0  0
    1.3382    3.5123   -1.3051 C   0  0  0  0  0  0  0  0  0  0  0  0
    4.2837    3.5295    0.9200 S   0  0  0  0  0  0  0  0  0  0  0  0
    4.6969    3.6266   -0.7724 C   0  0  0  0  0  0  0  0  0  0  0  0
    6.9536    4.2217   -3.5998 C   0  0  0  0  0  0  0  0  0  0  0  0
   12.1000    3.9930   -4.3020 N   0  0  0  0  0  0  0  0  0  0  0  0
   12.7333    2.8452   -4.8257 C   0  0  0  0  0  0  0  0  0  0  0  0
   13.9162    2.6090   -4.5906 O   0  0  0  0  0  0  0  0  0  0  0  0
   11.9928    1.9752   -5.8055 C   0  0  0  0  0  0  0  0  0  0  0  0
   12.0852    0.6481   -5.8768 N   0  0  0  0  0  0  0  0  0  0  0  0
   11.3890    0.0674   -6.9000 C   0  0  0  0  0  0  0  0  0  0  0  0
   10.5532    0.7840   -7.8112 C   0  0  0  0  0  0  0  0  0  0  0  0
   10.5259    2.0928   -7.7752 N   0  0  0  0  0  0  0  0  0  0  0  0
   11.3822    2.6034   -6.8515 C   0  0  0  0  0  0  0  0  0  0  0  0
    9.8434    0.1611   -8.8164 C   0  0  0  0  0  0  0  0  0  0  0  0
    9.9853   -1.2033   -8.9833 C   0  0  0  0  0  0  0  0  0  0  0  0
   10.8093   -1.9232   -8.1248 C   0  0  0  0  0  0  0  0  0  0  0  0
   11.5016   -1.2846   -7.0982 C   0  0  0  0  0  0  0  0  0  0  0  0
    6.1261    6.6532   -5.5206 C   0  0  0  0  0  0  0  0  0  0  0  0
    4.7852    6.8258   -6.0576 C   0  0  0  0  0  0  0  0  0  0  0  0
    6.7697    7.7929   -4.7848 C   0  0  0  0  0  0  0  0  0  0  0  0
   10.2754    0.1246   -1.8537 C   0  0  0  0  0  0  0  0  0  0  0  0
    1.9964   -1.1699   -1.5177 C   0  0  0  0  0  0  0  0  0  0  0  0
    1.7843    0.3161   -0.8184 C   0  0  0  0  0  0  0  0  0  0  0  0
    2.8253   -0.5532   -2.5571 C   0  0  0  0  0  0  0  0  0  0  0  0
    2.1501   -2.1524    2.4931 H   0  0  0  0  0  0  0  0  0  0  0  0
    3.9232   -2.7037    2.0138 H   0  0  0  0  0  0  0  0  0  0  0  0
    3.4314   -1.0879    2.3688 H   0  0  0  0  0  0  0  0  0  0  0  0
    2.1047   -3.1551   -1.0410 H   0  0  0  0  0  0  0  0  0  0  0  0
    6.8702   -3.8654   -1.2867 H   0  0  0  0  0  0  0  0  0  0  0  0
    6.0111   -2.5924   -0.7103 H   0  0  0  0  0  0  0  0  0  0  0  0
    6.8690   -3.1702   -3.8254 H   0  0  0  0  0  0  0  0  0  0  0  0
    4.8815   -1.2620   -3.1758 H   0  0  0  0  0  0  0  0  0  0  0  0
    5.8429   -4.9633   -2.7587 H   0  0  0  0  0  0  0  0  0  0  0  0
    7.3863   -8.3824   -5.1598 H   0  0  0  0  0  0  0  0  0  0  0  0
    7.0234   -9.1749   -7.4655 H   0  0  0  0  0  0  0  0  0  0  0  0
    5.6114   -7.8517   -9.0240 H   0  0  0  0  0  0  0  0  0  0  0  0
    4.5293   -5.7820   -8.2638 H   0  0  0  0  0  0  0  0  0  0  0  0
    6.9416   -0.4823   -2.0068 H   0  0  0  0  0  0  0  0  0  0  0  0
    8.8132   -0.3394   -1.0251 H   0  0  0  0  0  0  0  0  0  0  0  0
    4.8423    1.1077   -2.5139 H   0  0  0  0  0  0  0  0  0  0  0  0
    6.2125    0.4085   -3.3856 H   0  0  0  0  0  0  0  0  0  0  0  0
    5.5738   -0.0269   -1.5959 H   0  0  0  0  0  0  0  0  0  0  0  0
    6.9550    3.2176    0.3171 H   0  0  0  0  0  0  0  0  0  0  0  0
    4.2249    2.4213   -3.3251 H   0  0  0  0  0  0  0  0  0  0  0  0
    3.8655    3.5911   -4.7463 H   0  0  0  0  0  0  0  0  0  0  0  0
    5.1131    2.4367   -4.9056 H   0  0  0  0  0  0  0  0  0  0  0  0
    5.0945    5.3084   -4.8239 H   0  0  0  0  0  0  0  0  0  0  0  0
   10.2283    4.7868   -6.3531 H   0  0  0  0  0  0  0  0  0  0  0  0
    9.6113    3.2971   -6.2773 H   0  0  0  0  0  0  0  0  0  0  0  0
   10.3295    3.4361   -3.6449 H   0  0  0  0  0  0  0  0  0  0  0  0
    8.5414    6.5938   -3.0014 H   0  0  0  0  0  0  0  0  0  0  0  0
    8.6368    3.8378   -3.4796 H   0  0  0  0  0  0  0  0  0  0  0  0
    5.4254    1.0063    2.3791 H   0  0  0  0  0  0  0  0  0  0  0  0
    4.2206    0.5921    1.9584 H   0  0  0  0  0  0  0  0  0  0  0  0
    5.2556   -0.4780    1.3917 H   0  0  0  0  0  0  0  0  0  0  0  0
    2.7814    1.4159    1.4506 H   0  0  0  0  0  0  0  0  0  0  0  0
    2.7012    2.1800   -0.5668 H   0  0  0  0  0  0  0  0  0  0  0  0
    1.9719    3.5552   -2.1806 H   0  0  0  0  0  0  0  0  0  0  0  0
    1.1895    2.4803   -1.2431 H   0  0  0  0  0  0  0  0  0  0  0  0
    0.3181    3.7482   -1.2143 H   0  0  0  0  0  0  0  0  0  0  0  0
    4.4451    4.5881   -1.2175 H   0  0  0  0  0  0  0  0  0  0  0  0
    4.0405    2.9951   -1.5126 H   0  0  0  0  0  0  0  0  0  0  0  0
    7.3418    3.2439   -3.4139 H   0  0  0  0  0  0  0  0  0  0  0  0
    6.6306    5.4235   -2.8352 H   0  0  0  0  0  0  0  0  0  0  0  0
    6.2270    3.8869   -4.5464 H   0  0  0  0  0  0  0  0  0  0  0  0
   12.6342    4.4827   -3.5655 H   0  0  0  0  0  0  0  0  0  0  0  0
   11.5309    3.6583   -6.9179 H   0  0  0  0  0  0  0  0  0  0  0  0
    9.2022    0.7335   -9.4838 H   0  0  0  0  0  0  0  0  0  0  0  0
    9.4568   -1.7027   -9.7854 H   0  0  0  0  0  0  0  0  0  0  0  0
   10.9140   -2.9950   -8.2401 H   0  0  0  0  0  0  0  0  0  0  0  0
   12.1436   -1.8589   -6.4418 H   0  0  0  0  0  0  0  0  0  0  0  0
    6.7913    6.3911   -6.4145 H   0  0  0  0  0  0  0  0  0  0  0  0
    4.1687    6.9534   -5.1696 H   0  0  0  0  0  0  0  0  0  0  0  0
    4.8128    7.6853   -6.6870 H   0  0  0  0  0  0  0  0  0  0  0  0
    4.5056    5.9021   -6.5892 H   0  0  0  0  0  0  0  0  0  0  0  0
    7.8078    7.6520   -4.4759 H   0  0  0  0  0  0  0  0  0  0  0  0
    6.7967    8.6523   -5.4163 H   0  0  0  0  0  0  0  0  0  0  0  0
    6.2278    7.9103   -3.8544 H   0  0  0  0  0  0  0  0  0  0  0  0
   10.5280   -0.8404   -2.2336 H   0  0  0  0  0  0  0  0  0  0  0  0
   10.7688    0.9473   -2.3654 H   0  0  0  0  0  0  0  0  0  0  0  0
   10.4908    0.2221   -0.7735 H   0  0  0  0  0  0  0  0  0  0  0  0
    1.0050   -1.5181   -1.7549 H   0  0  0  0  0  0  0  0  0  0  0  0
    2.9835    0.1659   -0.7891 H   0  0  0  0  0  0  0  0  0  0  0  0
    1.0296    0.9881   -1.0330 H   0  0  0  0  0  0  0  0  0  0  0  0
    1.2396    0.7210    0.4701 H   0  0  0  0  0  0  0  0  0  0  0  0
    2.9694   -1.2560   -3.2913 H   0  0  0  0  0  0  0  0  0  0  0  0
    2.3225    0.3439   -2.9013 H   0  0  0  0  0  0  0  0  0  0  0  0
    3.7798   -0.2816   -2.1223 H   0  0  0  0  0  0  0  0  0  0  0  0
  1  2  2  0  0  0  0
  2  3  1  0  0  0  0
  3  5  1  0  0  0  0
  3  4  1  0  0  0  0
  4 78  1  0  0  0  0
  4 79  1  0  0  0  0
  4 80  1  0  0  0  0
  5  6  1  0  0  0  0
  5 81  1  1  0  0  0
  5 75  1  0  0  0  0
  6  8  1  0  0  0  0
  6  7  2  0  0  0  0
  8  9  1  0  0  0  0
  9 10  1  0  0  0  0
  9 82  1  0  0  0  0
  9 83  1  0  0  0  0
 10 24  1  0  0  0  0
 10 84  1  6  0  0  0
 10 11  1  0  0  0  0
 11 12  1  0  0  0  0
 11 85  1  0  0  0  0
 12 13  2  0  0  0  0
 12 14  1  0  0  0  0
 14 15  2  0  0  0  0
 14 19  1  0  0  0  0
 15 16  1  0  0  0  0
 16 17  2  0  0  0  0
 16 23  1  0  0  0  0
 17 18  1  0  0  0  0
 17 20  1  0  0  0  0
 18 19  2  0  0  0  0
 19 86  1  0  0  0  0
 20 21  2  0  0  0  0
 20 87  1  0  0  0  0
 21 22  1  0  0  0  0
 21 88  1  0  0  0  0
 22 23  2  0  0  0  0
 22 89  1  0  0  0  0
 23 90  1  0  0  0  0
 24 26  1  0  0  0  0
 24 25  2  0  0  0  0
 26 27  1  0  0  0  0
 26 91  1  0  0  0  0
 27 28  1  0  0  0  0
 27 74  1  0  0  0  0
 27 92  1  1  0  0  0
 28 30  1  0  0  0  0
 28 29  2  0  0  0  0
 30 32  1  0  0  0  0
 30 31  1  0  0  0  0
 31 93  1  0  0  0  0
 31 94  1  0  0  0  0
 31 95  1  0  0  0  0
 32 33  1  0  0  0  0
 32 56  1  0  0  0  0
 32 96  1  6  0  0  0
 33 35  1  0  0  0  0
 33 34  2  0  0  0  0
 35 37  1  0  0  0  0
 35 36  1  0  0  0  0
 36 97  1  0  0  0  0
 36 98  1  0  0  0  0
 36 99  1  0  0  0  0
 37 38  1  0  0  0  0
 37 71  1  0  0  0  0
 37100  1  6  0  0  0
 38 40  1  0  0  0  0
 38 39  2  0  0  0  0
 40 41  1  0  0  0  0
 41 42  1  0  0  0  0
 41101  1  0  0  0  0
 41102  1  0  0  0  0
 42 43  1  0  0  0  0
 42 58  1  0  0  0  0
 42103  1  1  0  0  0
 43 45  1  0  0  0  0
 43 44  2  0  0  0  0
 45 46  1  0  0  0  0
 45104  1  0  0  0  0
 46 47  1  0  0  0  0
 46105  1  1  0  0  0
 46 57  1  0  0  0  0
 47 49  1  0  0  0  0
 47 48  2  0  0  0  0
 49 51  1  0  0  0  0
 49 50  1  0  0  0  0
 50106  1  0  0  0  0
 50107  1  0  0  0  0
 50108  1  0  0  0  0
 51  2  1  0  0  0  0
 51 52  1  0  0  0  0
 51109  1  1  0  0  0
 52 55  1  0  0  0  0
 52 53  1  0  0  0  0
 52110  1  0  0  0  0
 53 54  1  0  0  0  0
 54111  1  0  0  0  0
 54112  1  0  0  0  0
 54113  1  0  0  0  0
 55 56  1  0  0  0  0
 56114  1  0  0  0  0
 56115  1  0  0  0  0
 57116  1  0  0  0  0
 57117  1  0  0  0  0
 57118  1  0  0  0  0
 58 59  1  0  0  0  0
 58119  1  0  0  0  0
 59 60  2  0  0  0  0
 59 61  1  0  0  0  0
 61 62  2  0  0  0  0
 61 66  1  0  0  0  0
 62 63  1  0  0  0  0
 63 64  2  0  0  0  0
 63 70  1  0  0  0  0
 64 65  1  0  0  0  0
 64 67  1  0  0  0  0
 65 66  2  0  0  0  0
 66120  1  0  0  0  0
 67 68  2  0  0  0  0
 67121  1  0  0  0  0
 68 69  1  0  0  0  0
 68122  1  0  0  0  0
 69 70  2  0  0  0  0
 69123  1  0  0  0  0
 70124  1  0  0  0  0
 71 72  1  0  0  0  0
 71 73  1  0  0  0  0
 71125  1  0  0  0  0
 72126  1  0  0  0  0
 72127  1  0  0  0  0
 72128  1  0  0  0  0
 73129  1  0  0  0  0
 73130  1  0  0  0  0
 73131  1  0  0  0  0
 74132  1  0  0  0  0
 74133  1  0  0  0  0
 74134  1  0  0  0  0
 75 76  1  0  0  0  0
 75 77  1  0  0  0  0
 75135  1  0  0  0  0
 76136  1  0  0  0  0
 76137  1  0  0  0  0
 76138  1  0  0  0  0
 77139  1  0  0  0  0
 77140  1  0  0  0  0
 77141  1  0  0  0  0
M  END
>  <DRUGBANK_ID>
DB15582

>  <COMMON_NAME>
Echinomycin

>  <CAS_NUMBER>
512-64-1

>  <UNII>
TG824J6RQT

>  <SYNONYMS>
Quinomycin A

$$$$
