LJ5
 OpenBabel10282417173D

 27 28  0  0  0  0  0  0  0  0999 V2000
   -1.2121   -1.9442    0.0100 C   0  0  0  0  0  0  0  0  0  0  0  0
   -1.2763   -0.5330    0.0297 C   0  0  0  0  0  0  0  0  0  0  0  0
   -2.9668    0.3257    0.0401 Br  0  0  0  0  0  0  0  0  0  0  0  0
   -0.1136    0.2459    0.0160 C   0  0  0  0  0  0  0  0  0  0  0  0
   -0.1271    1.6087    0.1119 O   0  0  0  0  0  0  0  0  0  0  0  0
    1.0999   -0.3825   -0.1606 C   0  0  0  0  0  0  0  0  0  0  0  0
    2.7451    0.5607   -0.1624 Br  0  0  0  0  0  0  0  0  0  0  0  0
    1.1283   -1.7591   -0.3447 C   0  0  0  0  0  0  0  0  0  0  0  0
    0.0293   -2.5775   -0.1015 C   0  0  0  0  0  0  0  0  0  0  0  0
    0.1523   -3.9877    0.0347 N   0  0  0  0  0  0  0  0  0  0  0  0
    1.2810   -4.8021    0.1449 C   0  0  0  0  0  0  0  0  0  0  0  0
    1.1535   -6.0329    0.1329 O   0  0  0  0  0  0  0  0  0  0  0  0
    2.6546   -4.2535    0.3051 C   0  0  0  0  0  0  0  0  0  0  0  0
    2.9137   -3.2621    1.2637 C   0  0  0  0  0  0  0  0  0  0  0  0
    4.1064   -2.5370    1.2107 C   0  0  0  0  0  0  0  0  0  0  0  0
    5.1125   -2.9155    0.3264 C   0  0  0  0  0  0  0  0  0  0  0  0
    4.9220   -4.0128   -0.5148 C   0  0  0  0  0  0  0  0  0  0  0  0
    3.6744   -4.6461   -0.5727 C   0  0  0  0  0  0  0  0  0  0  0  0
   -2.1318   -2.5231    0.0656 H   0  0  0  0  0  0  0  0  0  0  0  0
   -1.0499    1.9112    0.1135 H   0  0  0  0  0  0  0  0  0  0  0  0
    2.0653   -2.1760   -0.6761 H   0  0  0  0  0  0  0  0  0  0  0  0
   -0.7040   -4.5316    0.0988 H   0  0  0  0  0  0  0  0  0  0  0  0
    2.1226   -2.9310    1.9321 H   0  0  0  0  0  0  0  0  0  0  0  0
    4.2193   -1.6391    1.8146 H   0  0  0  0  0  0  0  0  0  0  0  0
    6.0386   -2.3459    0.2855 H   0  0  0  0  0  0  0  0  0  0  0  0
    5.7399   -4.3507   -1.1469 H   0  0  0  0  0  0  0  0  0  0  0  0
    3.4954   -5.4098   -1.3268 H   0  0  0  0  0  0  0  0  0  0  0  0
  1  2  2  0  0  0  0
  1  9  1  0  0  0  0
  1 19  1  0  0  0  0
  2  3  1  0  0  0  0
  2  4  1  0  0  0  0
  4  5  1  0  0  0  0
  4  6  2  0  0  0  0
  5 20  1  0  0  0  0
  6  7  1  0  0  0  0
  6  8  1  0  0  0  0
  8  9  2  0  0  0  0
  8 21  1  0  0  0  0
  9 10  1  0  0  0  0
 10 11  1  0  0  0  0
 10 22  1  0  0  0  0
 11 12  2  0  0  0  0
 11 13  1  0  0  0  0
 13 14  2  0  0  0  0
 13 18  1  0  0  0  0
 14 15  1  0  0  0  0
 14 23  1  0  0  0  0
 15 16  2  0  0  0  0
 15 24  1  0  0  0  0
 16 17  1  0  0  0  0
 16 25  1  0  0  0  0
 17 18  2  0  0  0  0
 17 26  1  0  0  0  0
 18 27  1  0  0  0  0
M  END
>  <DRUGBANK_ID>
DB08104

>  <COMMON_NAME>
N-(3,5-dibromo-4-hydroxyphenyl)benzamide

$$$$
