ZY6
 OpenBabel10282417173D

 42 45  0  0  0  0  0  0  0  0999 V2000
    1.3784   -0.2460   -0.0180 C   0  0  0  0  0  0  0  0  0  0  0  0
    0.4998   -1.3306    0.0093 C   0  0  0  0  0  0  0  0  0  0  0  0
   -0.8774   -1.1177   -0.0288 C   0  0  0  0  0  0  0  0  0  0  0  0
   -1.3787    0.1783   -0.0977 C   0  0  0  0  0  0  0  0  0  0  0  0
   -0.4973    1.2581   -0.1595 C   0  0  0  0  0  0  0  0  0  0  0  0
    0.8915    1.0657   -0.1148 C   0  0  0  0  0  0  0  0  0  0  0  0
    1.8076    2.2076   -0.2506 C   0  0  0  0  0  0  0  0  0  0  0  0
    2.5735    2.2697   -1.4309 C   0  0  0  0  0  0  0  0  0  0  0  0
    3.4141    3.2585   -1.8081 N   0  0  0  0  0  0  0  0  0  0  0  0
    3.4458    4.2497   -0.9092 C   0  0  0  0  0  0  0  0  0  0  0  0
    4.1950    5.3827   -1.0096 N   0  0  0  0  0  0  0  0  0  0  0  0
    4.0629    6.2218    0.0355 N   0  0  0  0  0  0  0  0  0  0  0  0
    3.1930    5.5757    0.8243 C   0  0  0  0  0  0  0  0  0  0  0  0
    2.7504    4.3391    0.2923 C   0  0  0  0  0  0  0  0  0  0  0  0
    1.8891    3.2792    0.6811 C   0  0  0  0  0  0  0  0  0  0  0  0
    1.2063    3.3046    1.8847 N   0  0  0  0  0  0  0  0  0  0  0  0
    0.2033    4.3347    2.1649 C   0  0  0  0  0  0  0  0  0  0  0  0
    1.2729    2.2225    2.8718 C   0  0  0  0  0  0  0  0  0  0  0  0
   -0.1282    1.6749    3.1906 C   0  0  0  0  0  0  0  0  0  0  0  0
   -1.0487    2.7238    3.5490 O   0  0  0  0  0  0  0  0  0  0  0  0
   -1.1686    3.6830    2.4711 C   0  0  1  0  0  0  0  0  0  0  0  0
   -2.2148    4.7388    2.8662 C   0  0  0  0  0  0  0  0  0  0  0  0
   -2.4343    5.7464    1.8260 N   0  0  0  0  0  0  0  0  0  0  0  0
   -1.5546    3.1552    1.5947 H   0  0  0  0  0  0  0  0  0  0  0  0
    2.4505   -0.4289    0.0267 H   0  0  0  0  0  0  0  0  0  0  0  0
    0.8924   -2.3428    0.0528 H   0  0  0  0  0  0  0  0  0  0  0  0
   -1.5608   -1.9621   -0.0036 H   0  0  0  0  0  0  0  0  0  0  0  0
   -2.4511    0.3557   -0.0962 H   0  0  0  0  0  0  0  0  0  0  0  0
   -0.8988    2.2668   -0.2092 H   0  0  0  0  0  0  0  0  0  0  0  0
    2.4979    1.4662   -2.1627 H   0  0  0  0  0  0  0  0  0  0  0  0
    4.8187    5.6274   -1.7730 H   0  0  0  0  0  0  0  0  0  0  0  0
    2.9139    6.0293    1.7659 H   0  0  0  0  0  0  0  0  0  0  0  0
    0.5325    4.8960    3.0483 H   0  0  0  0  0  0  0  0  0  0  0  0
    0.1206    5.0394    1.3314 H   0  0  0  0  0  0  0  0  0  0  0  0
    1.6779    2.6574    3.7939 H   0  0  0  0  0  0  0  0  0  0  0  0
    1.9558    1.4219    2.5711 H   0  0  0  0  0  0  0  0  0  0  0  0
   -0.5522    1.1148    2.3601 H   0  0  0  0  0  0  0  0  0  0  0  0
   -0.0706    0.9729    4.0279 H   0  0  0  0  0  0  0  0  0  0  0  0
   -3.1670    4.2345    3.0731 H   0  0  0  0  0  0  0  0  0  0  0  0
   -1.9195    5.2234    3.8037 H   0  0  0  0  0  0  0  0  0  0  0  0
   -3.1129    6.4316    2.1553 H   0  0  0  0  0  0  0  0  0  0  0  0
   -1.5786    6.2725    1.6534 H   0  0  0  0  0  0  0  0  0  0  0  0
  1  2  1  0  0  0  0
  1  6  2  0  0  0  0
  1 25  1  0  0  0  0
  2  3  2  0  0  0  0
  2 26  1  0  0  0  0
  3  4  1  0  0  0  0
  3 27  1  0  0  0  0
  4  5  2  0  0  0  0
  4 28  1  0  0  0  0
  5  6  1  0  0  0  0
  5 29  1  0  0  0  0
  6  7  1  0  0  0  0
  7  8  1  0  0  0  0
  7 15  2  0  0  0  0
  8  9  2  0  0  0  0
  8 30  1  0  0  0  0
  9 10  1  0  0  0  0
 10 11  1  0  0  0  0
 10 14  2  0  0  0  0
 11 12  1  0  0  0  0
 11 31  1  0  0  0  0
 12 13  2  0  0  0  0
 13 14  1  0  0  0  0
 13 32  1  0  0  0  0
 14 15  1  0  0  0  0
 15 16  1  0  0  0  0
 16 17  1  0  0  0  0
 16 18  1  0  0  0  0
 17 21  1  0  0  0  0
 17 33  1  0  0  0  0
 17 34  1  0  0  0  0
 18 19  1  0  0  0  0
 18 35  1  0  0  0  0
 18 36  1  0  0  0  0
 19 20  1  0  0  0  0
 19 37  1  0  0  0  0
 19 38  1  0  0  0  0
 20 21  1  0  0  0  0
 21 22  1  0  0  0  0
 21 24  1  6  0  0  0
 22 23  1  0  0  0  0
 22 39  1  0  0  0  0
 22 40  1  0  0  0  0
 23 41  1  0  0  0  0
 23 42  1  0  0  0  0
M  END
>  <DRUGBANK_ID>
DB08774

>  <COMMON_NAME>
1-[(2S)-4-(5-phenyl-1H-pyrazolo[3,4-b]pyridin-4-yl)morpholin-2-yl]methanamine

$$$$
