
 OpenBabel10282417133D

 27 26  0  0  0  0  0  0  0  0999 V2000
    0.9296    1.4402   -1.9079 C   0  0  0  0  0  0  0  0  0  0  0  0
    0.4028    1.1964   -0.4863 C   0  0  1  0  0  0  0  0  0  0  0  0
   -1.1443    1.2416   -0.4017 C   0  0  0  0  0  0  0  0  0  0  0  0
    0.1210    0.7074   -2.9693 C   0  0  0  0  0  0  0  0  0  0  0  0
    0.6109    0.9985   -4.3679 C   0  0  0  0  0  0  0  0  0  0  0  0
    1.7918    0.2317   -4.6506 N   0  0  0  0  0  0  0  0  0  0  0  0
    2.0645   -0.8019   -5.4811 C   0  0  0  0  0  0  0  0  0  0  0  0
    1.1808   -1.4610   -6.2689 N   0  0  0  0  0  0  0  0  0  0  0  0
   -1.7342    0.1541   -0.9714 O   0  0  0  0  0  0  0  0  0  0  0  0
    0.9163   -0.0846    0.0442 N   0  0  0  0  0  0  0  0  0  0  0  0
   -1.8195    2.1475    0.0276 O   0  0  0  0  0  0  0  0  0  0  0  0
    3.2802   -1.2633   -5.5424 N   0  0  0  0  0  0  0  0  0  0  0  0
   -0.1472   -1.1668   -6.4877 O   0  0  0  0  0  0  0  0  0  0  0  0
    1.9859    1.1430   -1.9752 H   0  0  0  0  0  0  0  0  0  0  0  0
    0.9124    2.5144   -2.1298 H   0  0  0  0  0  0  0  0  0  0  0  0
    0.7843    1.9984    0.1546 H   0  0  0  0  0  0  0  0  0  0  0  0
    0.0940   -0.3719   -2.7672 H   0  0  0  0  0  0  0  0  0  0  0  0
   -0.9080    1.0804   -2.9446 H   0  0  0  0  0  0  0  0  0  0  0  0
   -0.2387    0.8309   -5.0155 H   0  0  0  0  0  0  0  0  0  0  0  0
    0.8164    2.0649   -4.4978 H   0  0  0  0  0  0  0  0  0  0  0  0
    2.5931    0.5555   -4.1197 H   0  0  0  0  0  0  0  0  0  0  0  0
    1.5829   -2.1777   -6.8632 H   0  0  0  0  0  0  0  0  0  0  0  0
   -2.6844    0.3863   -1.0481 H   0  0  0  0  0  0  0  0  0  0  0  0
    1.6732   -0.4296   -0.5457 H   0  0  0  0  0  0  0  0  0  0  0  0
    0.1805   -0.7902   -0.0247 H   0  0  0  0  0  0  0  0  0  0  0  0
    3.9105   -0.7541   -4.9261 H   0  0  0  0  0  0  0  0  0  0  0  0
   -0.4065   -0.6139   -5.7493 H   0  0  0  0  0  0  0  0  0  0  0  0
  1  4  1  0  0  0  0
  1 14  1  0  0  0  0
  1 15  1  0  0  0  0
  2  3  1  0  0  0  0
  2 16  1  1  0  0  0
  2 10  1  0  0  0  0
  2  1  1  0  0  0  0
  3 11  2  0  0  0  0
  3  9  1  0  0  0  0
  4  5  1  0  0  0  0
  4 17  1  0  0  0  0
  4 18  1  0  0  0  0
  5  6  1  0  0  0  0
  5 19  1  0  0  0  0
  5 20  1  0  0  0  0
  6  7  1  0  0  0  0
  6 21  1  0  0  0  0
  7 12  2  0  0  0  0
  7  8  1  0  0  0  0
  8 13  1  0  0  0  0
  8 22  1  0  0  0  0
  9 23  1  0  0  0  0
 10 24  1  0  0  0  0
 10 25  1  0  0  0  0
 12 26  1  0  0  0  0
 13 27  1  0  0  0  0
M  END
>  <DRUGBANK_ID>
DB03144

>  <SECONDARY_ACCESSION_NUMBERS>
EXPT01692

>  <COMMON_NAME>
N(5)-[(hydroxyamino)(imino)methyl]-L-ornithine

>  <UNII>
J2FGL272NZ

>  <SYNONYMS>
N-omega-hydroxy-L-arginine

$$$$
