
 OpenBabel10282417183D

 62 65  0  0  0  0  0  0  0  0999 V2000
    1.4781    0.4253    0.1501 C   0  0  0  0  0  0  0  0  0  0  0  0
    0.8267    1.8162    0.2790 C   0  0  0  0  0  0  0  0  0  0  0  0
    1.3710    2.7380   -0.7651 C   0  0  0  0  0  0  0  0  0  0  0  0
   -0.8970    2.3822    0.0145 C   0  0  0  0  0  0  0  0  0  0  0  0
   -1.6819    2.9423    0.7987 O   0  0  0  0  0  0  0  0  0  0  0  0
   -1.5982    2.3228   -1.1470 N   0  0  0  0  0  0  0  0  0  0  0  0
   -1.3261    1.7812   -2.3229 C   0  0  0  0  0  0  0  0  0  0  0  0
   -0.4578    0.8120   -2.3672 C   0  0  0  0  0  0  0  0  0  0  0  0
   -0.6759    0.1824   -3.4749 C   0  0  0  0  0  0  0  0  0  0  0  0
   -0.1111    1.1411   -4.1640 C   0  0  0  0  0  0  0  0  0  0  0  0
   -1.2841    1.6308   -4.4980 C   0  0  0  0  0  0  0  0  0  0  0  0
   -1.9997    2.0877   -3.4528 C   0  0  0  0  0  0  0  0  0  0  0  0
   -1.6625    1.1638   -6.0431 S   0  0  0  0  0  0  0  0  0  0  0  0
   -2.9414    0.5221   -6.1302 O   0  0  0  0  0  0  0  0  0  0  0  0
   -1.3791    2.4425   -6.6911 O   0  0  0  0  0  0  0  0  0  0  0  0
   -0.3536   -0.0852   -6.1347 N   0  0  0  0  0  0  0  0  0  0  0  0
    0.5158   -1.1687   -4.9095 C   0  0  0  0  0  0  0  0  0  0  0  0
    1.2232   -1.1119   -3.2816 C   0  0  0  0  0  0  0  0  0  0  0  0
    2.5173   -0.8829   -3.1039 N   0  0  0  0  0  0  0  0  0  0  0  0
    3.0688   -1.2782   -4.2272 C   0  0  0  0  0  0  0  0  0  0  0  0
    4.1461   -1.9829   -3.8791 C   0  0  0  0  0  0  0  0  0  0  0  0
    4.7704   -2.5804   -4.9512 C   0  0  0  0  0  0  0  0  0  0  0  0
    4.3057   -2.5092   -6.2861 C   0  0  0  0  0  0  0  0  0  0  0  0
    3.0922   -2.0181   -6.6238 C   0  0  0  0  0  0  0  0  0  0  0  0
    2.4973   -1.4516   -5.5549 C   0  0  0  0  0  0  0  0  0  0  0  0
    1.2929   -1.3730   -5.9721 N   0  0  0  0  0  0  0  0  0  0  0  0
    0.6927   -1.4980   -1.6114 N   0  0  0  0  0  0  0  0  0  0  0  0
   -0.6554   -1.2066   -0.4530 C   0  0  0  0  0  0  0  0  0  0  0  0
   -1.5783   -1.6929   -1.3300 C   0  0  0  0  0  0  0  0  0  0  0  0
   -2.7738   -1.0601   -1.6238 C   0  0  0  0  0  0  0  0  0  0  0  0
   -3.2938   -0.0740   -0.8086 C   0  0  0  0  0  0  0  0  0  0  0  0
   -2.6712    0.2880    0.3793 C   0  0  0  0  0  0  0  0  0  0  0  0
   -1.3049   -0.1355    0.6073 C   0  0  0  0  0  0  0  0  0  0  0  0
   -0.8815    0.8749    2.3145 Cl  0  0  0  0  0  0  0  0  0  0  0  0
   -3.3300   -1.1931   -2.8738 O   0  0  0  0  0  0  0  0  0  0  0  0
   -2.7983   -2.2790   -3.6352 C   0  0  0  0  0  0  0  0  0  0  0  0
    1.5203    1.9090    1.5825 N   0  0  0  0  0  0  0  0  0  0  0  0
    1.5162    0.2695   -0.8887 H   0  0  0  0  0  0  0  0  0  0  0  0
    1.0871   -0.3842    0.8018 H   0  0  0  0  0  0  0  0  0  0  0  0
    2.5621    0.2722    0.2641 H   0  0  0  0  0  0  0  0  0  0  0  0
    1.0169    2.4707   -1.7600 H   0  0  0  0  0  0  0  0  0  0  0  0
    0.9312    3.7157   -0.5702 H   0  0  0  0  0  0  0  0  0  0  0  0
    2.4458    2.7168   -0.8031 H   0  0  0  0  0  0  0  0  0  0  0  0
   -2.5994    2.4227   -1.0795 H   0  0  0  0  0  0  0  0  0  0  0  0
    0.1017    0.3681   -1.6591 H   0  0  0  0  0  0  0  0  0  0  0  0
   -0.7114   -0.8863   -3.4591 H   0  0  0  0  0  0  0  0  0  0  0  0
    0.7425    1.1253   -4.8341 H   0  0  0  0  0  0  0  0  0  0  0  0
   -2.8678    2.6710   -3.4948 H   0  0  0  0  0  0  0  0  0  0  0  0
   -0.1768   -0.2493   -7.1312 H   0  0  0  0  0  0  0  0  0  0  0  0
    4.4026   -2.1193   -2.8339 H   0  0  0  0  0  0  0  0  0  0  0  0
    5.6773   -3.1000   -4.7172 H   0  0  0  0  0  0  0  0  0  0  0  0
    4.8804   -2.8638   -7.1206 H   0  0  0  0  0  0  0  0  0  0  0  0
    2.5775   -2.1116   -7.5711 H   0  0  0  0  0  0  0  0  0  0  0  0
    1.5620   -1.4763   -1.0415 H   0  0  0  0  0  0  0  0  0  0  0  0
   -1.0961   -2.2927   -2.0743 H   0  0  0  0  0  0  0  0  0  0  0  0
   -4.0507    0.5852   -1.2323 H   0  0  0  0  0  0  0  0  0  0  0  0
   -3.1721    1.1577    0.8495 H   0  0  0  0  0  0  0  0  0  0  0  0
   -1.9816   -1.9639   -4.2876 H   0  0  0  0  0  0  0  0  0  0  0  0
   -2.4587   -3.1051   -3.0022 H   0  0  0  0  0  0  0  0  0  0  0  0
   -3.5666   -2.6637   -4.2864 H   0  0  0  0  0  0  0  0  0  0  0  0
    2.5299    2.0015    1.6115 H   0  0  0  0  0  0  0  0  0  0  0  0
    1.0138    2.1979    2.3934 H   0  0  0  0  0  0  0  0  0  0  0  0
  1  2  1  0  0  0  0
  1 38  1  0  0  0  0
  1 39  1  0  0  0  0
  1 40  1  0  0  0  0
  2  3  1  0  0  0  0
  2  4  1  0  0  0  0
  2 37  1  0  0  0  0
  3 41  1  0  0  0  0
  3 42  1  0  0  0  0
  3 43  1  0  0  0  0
  4  5  2  0  0  0  0
  4  6  1  0  0  0  0
  6  7  1  0  0  0  0
  6 44  1  0  0  0  0
  7  8  2  0  0  0  0
  7 12  1  0  0  0  0
  8  9  1  0  0  0  0
  8 45  1  0  0  0  0
  9 10  2  0  0  0  0
  9 46  1  0  0  0  0
 10 11  1  0  0  0  0
 10 47  1  0  0  0  0
 11 12  2  0  0  0  0
 11 13  1  0  0  0  0
 12 48  1  0  0  0  0
 13 14  2  0  0  0  0
 13 15  2  0  0  0  0
 13 16  1  0  0  0  0
 16 17  1  0  0  0  0
 16 49  1  0  0  0  0
 17 18  2  0  0  0  0
 17 26  1  0  0  0  0
 18 19  1  0  0  0  0
 18 27  1  0  0  0  0
 19 20  2  0  0  0  0
 20 21  1  0  0  0  0
 20 25  1  0  0  0  0
 21 22  2  0  0  0  0
 21 50  1  0  0  0  0
 22 23  1  0  0  0  0
 22 51  1  0  0  0  0
 23 24  2  0  0  0  0
 23 52  1  0  0  0  0
 24 25  1  0  0  0  0
 24 53  1  0  0  0  0
 25 26  2  0  0  0  0
 27 28  1  0  0  0  0
 27 54  1  0  0  0  0
 28 29  2  0  0  0  0
 28 33  1  0  0  0  0
 29 30  1  0  0  0  0
 29 55  1  0  0  0  0
 30 31  2  0  0  0  0
 30 35  1  0  0  0  0
 31 32  1  0  0  0  0
 31 56  1  0  0  0  0
 32 33  2  0  0  0  0
 32 57  1  0  0  0  0
 33 34  1  0  0  0  0
 35 36  1  0  0  0  0
 36 58  1  0  0  0  0
 36 59  1  0  0  0  0
 36 60  1  0  0  0  0
 37 61  1  0  0  0  0
 37 62  1  0  0  0  0
M  END
>  <DRUGBANK_ID>
DB11772

>  <SECONDARY_ACCESSION_NUMBERS>
DB05240

>  <COMMON_NAME>
Pilaralisib

>  <CAS_NUMBER>
934526-89-3

>  <UNII>
60ES45KTMK

>  <SYNONYMS>
Pilaralisib

$$$$
