
 OpenBabel10282417113D

 60 62  0  0  0  0  0  0  0  0999 V2000
    2.5919    1.2690    0.0260 C   0  0  0  0  0  0  0  0  0  0  0  0
    3.7990    0.6347    0.0064 C   0  0  0  0  0  0  0  0  0  0  0  0
    3.7861   -0.7591    0.0016 C   0  0  0  0  0  0  0  0  0  0  0  0
    2.5811   -1.5088    0.0024 C   0  0  0  0  0  0  0  0  0  0  0  0
    1.3418   -0.8861    0.0164 C   0  0  0  0  0  0  0  0  0  0  0  0
    1.3882    0.4866    0.0389 C   0  0  0  0  0  0  0  0  0  0  0  0
    0.1512    1.1891   -0.0587 C   0  0  0  0  0  0  0  0  0  0  0  0
    0.0119   -1.5806   -0.0010 C   0  0  0  0  0  0  0  0  0  0  0  0
   -1.2683   -0.7712    0.0160 C   0  0  0  0  0  0  0  0  0  0  0  0
   -1.1984    0.6382    0.0214 C   0  0  0  0  0  0  0  0  0  0  0  0
   -2.3484    1.4837    0.0220 C   0  0  0  0  0  0  0  0  0  0  0  0
   -2.5285   -1.4071    0.0181 C   0  0  0  0  0  0  0  0  0  0  0  0
   -3.6604   -0.5839    0.0034 C   0  0  0  0  0  0  0  0  0  0  0  0
   -3.5760    0.8108    0.0026 C   0  0  0  0  0  0  0  0  0  0  0  0
    2.5824    2.6456    0.0391 O   0  0  0  0  0  0  0  0  0  0  0  0
    2.6371   -2.8688   -0.0078 O   0  0  0  0  0  0  0  0  0  0  0  0
    0.3565    2.2975   -0.4274 O   0  0  0  0  0  0  0  0  0  0  0  0
   -0.0498   -2.8059   -0.0219 O   0  0  0  0  0  0  0  0  0  0  0  0
   -2.4392    2.8750   -0.0008 N   0  0  0  0  0  0  0  0  0  0  0  0
   -2.6421   -2.7830   -0.0010 N   0  0  0  0  0  0  0  0  0  0  0  0
   -1.3840    3.8834    0.1536 C   0  0  0  0  0  0  0  0  0  0  0  0
   -1.0621    4.5662   -1.1626 C   0  0  0  0  0  0  0  0  0  0  0  0
   -3.8732   -3.5496    0.0545 C   0  0  0  0  0  0  0  0  0  0  0  0
   -3.9827   -4.4174   -1.1938 C   0  0  0  0  0  0  0  0  0  0  0  0
   -2.0881    5.5869   -1.2999 N   0  0  0  0  0  0  0  0  0  0  0  0
   -2.9233   -5.4302   -1.2403 N   0  0  0  0  0  0  0  0  0  0  0  0
   -1.9153    6.3366   -2.5295 C   0  0  0  0  0  0  0  0  0  0  0  0
   -2.0393    5.4484   -3.7689 C   0  0  0  0  0  0  0  0  0  0  0  0
   -3.0129   -6.2282   -2.4657 C   0  0  0  0  0  0  0  0  0  0  0  0
   -2.8652   -5.3890   -3.7412 C   0  0  0  0  0  0  0  0  0  0  0  0
   -3.2824    4.7456   -3.7516 O   0  0  0  0  0  0  0  0  0  0  0  0
   -1.6198   -4.6971   -3.7489 O   0  0  0  0  0  0  0  0  0  0  0  0
    4.7109    1.2211   -0.0003 H   0  0  0  0  0  0  0  0  0  0  0  0
    4.7469   -1.2569    0.0001 H   0  0  0  0  0  0  0  0  0  0  0  0
   -4.6627   -0.9971   -0.0049 H   0  0  0  0  0  0  0  0  0  0  0  0
   -4.5146    1.3638   -0.0066 H   0  0  0  0  0  0  0  0  0  0  0  0
    3.4394    3.0923    0.0003 H   0  0  0  0  0  0  0  0  0  0  0  0
    3.5549   -3.1722   -0.0168 H   0  0  0  0  0  0  0  0  0  0  0  0
   -3.3710    3.2689    0.0808 H   0  0  0  0  0  0  0  0  0  0  0  0
   -1.7604   -3.3064    0.0755 H   0  0  0  0  0  0  0  0  0  0  0  0
   -1.5420    4.5409    1.0116 H   0  0  0  0  0  0  0  0  0  0  0  0
   -0.4496    3.5598    0.5230 H   0  0  0  0  0  0  0  0  0  0  0  0
   -0.0548    5.0064   -1.1482 H   0  0  0  0  0  0  0  0  0  0  0  0
   -1.0568    3.8250   -1.9781 H   0  0  0  0  0  0  0  0  0  0  0  0
   -3.8955   -4.1612    0.9604 H   0  0  0  0  0  0  0  0  0  0  0  0
   -4.7658   -2.9251    0.0742 H   0  0  0  0  0  0  0  0  0  0  0  0
   -4.9636   -4.9032   -1.2129 H   0  0  0  0  0  0  0  0  0  0  0  0
   -3.9257   -3.7387   -2.0524 H   0  0  0  0  0  0  0  0  0  0  0  0
   -2.9941    5.1261   -1.2781 H   0  0  0  0  0  0  0  0  0  0  0  0
   -2.0102   -4.9761   -1.1833 H   0  0  0  0  0  0  0  0  0  0  0  0
   -2.7054    7.0920   -2.5246 H   0  0  0  0  0  0  0  0  0  0  0  0
   -0.9514    6.8576   -2.5110 H   0  0  0  0  0  0  0  0  0  0  0  0
   -1.9925    6.0643   -4.6665 H   0  0  0  0  0  0  0  0  0  0  0  0
   -1.2277    4.7152   -3.8368 H   0  0  0  0  0  0  0  0  0  0  0  0
   -2.2139   -6.9771   -2.4292 H   0  0  0  0  0  0  0  0  0  0  0  0
   -3.9644   -6.7724   -2.4742 H   0  0  0  0  0  0  0  0  0  0  0  0
   -2.9142   -6.0306   -4.6228 H   0  0  0  0  0  0  0  0  0  0  0  0
   -3.6703   -4.6546   -3.8434 H   0  0  0  0  0  0  0  0  0  0  0  0
   -3.2638    4.1657   -2.9691 H   0  0  0  0  0  0  0  0  0  0  0  0
   -1.5882   -4.1494   -2.9433 H   0  0  0  0  0  0  0  0  0  0  0  0
  1  2  2  0  0  0  0
  1  6  1  0  0  0  0
  1 15  1  0  0  0  0
  2  3  1  0  0  0  0
  2 33  1  0  0  0  0
  3  4  2  0  0  0  0
  3 34  1  0  0  0  0
  4  5  1  0  0  0  0
  4 16  1  0  0  0  0
  5  8  1  0  0  0  0
  6  5  2  0  0  0  0
  7  6  1  0  0  0  0
  7 10  1  0  0  0  0
  7 17  2  0  0  0  0
  8  9  1  0  0  0  0
  8 18  2  0  0  0  0
  9 12  1  0  0  0  0
 10  9  2  0  0  0  0
 11 10  1  0  0  0  0
 11 14  2  0  0  0  0
 11 19  1  0  0  0  0
 12 13  2  0  0  0  0
 12 20  1  0  0  0  0
 13 14  1  0  0  0  0
 13 35  1  0  0  0  0
 14 36  1  0  0  0  0
 15 37  1  0  0  0  0
 16 38  1  0  0  0  0
 19 21  1  0  0  0  0
 19 39  1  0  0  0  0
 20 23  1  0  0  0  0
 20 40  1  0  0  0  0
 21 22  1  0  0  0  0
 21 41  1  0  0  0  0
 21 42  1  0  0  0  0
 22 25  1  0  0  0  0
 22 43  1  0  0  0  0
 22 44  1  0  0  0  0
 23 24  1  0  0  0  0
 23 45  1  0  0  0  0
 23 46  1  0  0  0  0
 24 26  1  0  0  0  0
 24 47  1  0  0  0  0
 24 48  1  0  0  0  0
 25 27  1  0  0  0  0
 25 49  1  0  0  0  0
 26 29  1  0  0  0  0
 26 50  1  0  0  0  0
 27 28  1  0  0  0  0
 27 51  1  0  0  0  0
 27 52  1  0  0  0  0
 28 31  1  0  0  0  0
 28 53  1  0  0  0  0
 28 54  1  0  0  0  0
 29 30  1  0  0  0  0
 29 55  1  0  0  0  0
 29 56  1  0  0  0  0
 30 32  1  0  0  0  0
 30 57  1  0  0  0  0
 30 58  1  0  0  0  0
 31 59  1  0  0  0  0
 32 60  1  0  0  0  0
M  END
>  <DRUGBANK_ID>
DB01204

>  <SECONDARY_ACCESSION_NUMBERS>
APRD00371

>  <COMMON_NAME>
Mitoxantrone

>  <CAS_NUMBER>
65271-80-9

>  <UNII>
BZ114NVM5P

>  <SYNONYMS>
1,4-Bis(2-(2-hydroxyethylamino)ethyl)amino)-5,8-dihydroxyanthraquinone; Mitoxantrona; Mitoxantrone; Mitoxantronum

$$$$
