
 OpenBabel10282417243D

 56 61  0  0  0  0  0  0  0  0999 V2000
    0.9388    0.0406    0.0913 C   0  0  0  0  0  0  0  0  0  0  0  0
    0.4899    0.2881    1.4506 O   0  0  0  0  0  0  0  0  0  0  0  0
    0.7923   -0.7943    2.3488 C   0  0  0  0  0  0  0  0  0  0  0  0
    1.8310   -1.6217    2.1318 N   0  0  0  0  0  0  0  0  0  0  0  0
    1.6675   -3.3052    1.7132 C   0  0  0  0  0  0  0  0  0  0  0  0
    0.4265   -4.5574    1.2818 C   0  0  0  0  0  0  0  0  0  0  0  0
   -0.3887   -3.3144    2.3245 C   0  0  0  0  0  0  0  0  0  0  0  0
   -0.2903   -1.5780    2.7579 C   0  0  0  0  0  0  0  0  0  0  0  0
   -1.5054   -0.7797    3.1874 N   0  0  0  0  0  0  0  0  0  0  0  0
   -2.7742   -1.3346    4.1741 S   0  0  0  0  0  0  0  0  0  0  0  0
   -3.2908   -0.2580    4.9915 O   0  0  0  0  0  0  0  0  0  0  0  0
   -3.7139   -2.0336    3.3199 O   0  0  0  0  0  0  0  0  0  0  0  0
   -2.0475   -2.5214    5.3134 C   0  0  0  0  0  0  0  0  0  0  0  0
   -1.0376   -2.2996    6.2018 C   0  0  0  0  0  0  0  0  0  0  0  0
   -0.5903   -3.3749    7.0035 C   0  0  0  0  0  0  0  0  0  0  0  0
   -0.9772   -4.7053    6.7503 C   0  0  0  0  0  0  0  0  0  0  0  0
   -0.3713   -5.6964    7.4167 F   0  0  0  0  0  0  0  0  0  0  0  0
   -1.9882   -4.9573    5.8521 C   0  0  0  0  0  0  0  0  0  0  0  0
   -2.5685   -3.7936    5.3195 C   0  0  0  0  0  0  0  0  0  0  0  0
   -2.4236   -6.3737    5.5583 C   0  0  0  0  0  0  0  0  0  0  0  0
   -1.8634   -7.3236    6.1025 O   0  0  0  0  0  0  0  0  0  0  0  0
   -3.4411   -6.6208    4.6571 N   0  0  0  0  0  0  0  0  0  0  0  0
   -4.2082   -5.6749    3.8884 C   0  0  0  0  0  0  0  0  0  0  0  0
   -3.9621   -5.6821    2.4745 C   0  0  0  0  0  0  0  0  0  0  0  0
   -3.7528   -4.6567    1.5614 C   0  0  0  0  0  0  0  0  0  0  0  0
   -3.7002   -5.1890    0.2811 C   0  0  0  0  0  0  0  0  0  0  0  0
   -3.9632   -6.5318    0.3724 C   0  0  0  0  0  0  0  0  0  0  0  0
   -4.0079   -7.2205    1.8723 S   0  0  0  0  0  0  0  0  0  0  0  0
   -3.8429   -7.4900   -0.6029 C   0  0  0  0  0  0  0  0  0  0  0  0
   -4.7563   -8.4282   -0.8589 N   0  0  0  0  0  0  0  0  0  0  0  0
   -4.4003   -9.2803   -1.8059 C   0  0  0  0  0  0  0  0  0  0  0  0
   -3.0935   -9.2962   -2.3877 N   0  0  0  0  0  0  0  0  0  0  0  0
   -2.0844   -8.3239   -1.7241 C   0  0  0  0  0  0  0  0  0  0  0  0
   -0.4302   -7.4853   -1.4227 C   0  0  0  0  0  0  0  0  0  0  0  0
   -0.2771   -8.6702   -3.0870 C   0  0  0  0  0  0  0  0  0  0  0  0
    0.1092   -6.0931   -0.1971 C   0  0  0  0  0  0  0  0  0  0  0  0
   -1.4237   -6.0964   -1.3431 S   0  0  0  0  0  0  0  0  0  0  0  0
   -2.5447   -7.4116   -0.9334 C   0  0  0  0  0  0  0  0  0  0  0  0
    0.5646    0.8151   -0.6058 H   0  0  0  0  0  0  0  0  0  0  0  0
    0.5585   -0.9152   -0.2887 H   0  0  0  0  0  0  0  0  0  0  0  0
    2.0306    0.0667    0.0293 H   0  0  0  0  0  0  0  0  0  0  0  0
    2.5351   -3.1819    2.7869 H   0  0  0  0  0  0  0  0  0  0  0  0
   -0.1616   -3.2091    3.6857 H   0  0  0  0  0  0  0  0  0  0  0  0
   -1.7838   -0.0307    2.5204 H   0  0  0  0  0  0  0  0  0  0  0  0
   -0.5821   -1.3243    6.2539 H   0  0  0  0  0  0  0  0  0  0  0  0
    0.0863   -3.1828    7.8277 H   0  0  0  0  0  0  0  0  0  0  0  0
   -3.5861   -3.6995    5.0140 H   0  0  0  0  0  0  0  0  0  0  0  0
   -3.6529   -7.5968    4.4636 H   0  0  0  0  0  0  0  0  0  0  0  0
   -5.2477   -5.6130    4.1861 H   0  0  0  0  0  0  0  0  0  0  0  0
   -3.7734   -4.7505    3.9639 H   0  0  0  0  0  0  0  0  0  0  0  0
   -3.6937   -3.5936    1.7487 H   0  0  0  0  0  0  0  0  0  0  0  0
   -3.4975   -4.6721   -0.6568 H   0  0  0  0  0  0  0  0  0  0  0  0
   -5.2806   -9.9736   -2.0189 H   0  0  0  0  0  0  0  0  0  0  0  0
   -0.3794   -8.4075   -4.2731 H   0  0  0  0  0  0  0  0  0  0  0  0
    0.3054   -9.6568   -3.1421 H   0  0  0  0  0  0  0  0  0  0  0  0
   -1.2638   -9.4973   -3.4967 H   0  0  0  0  0  0  0  0  0  0  0  0
  1  2  1  0  0  0  0
  1 39  1  0  0  0  0
  1 40  1  0  0  0  0
  1 41  1  0  0  0  0
  2  3  1  0  0  0  0
  3  4  2  0  0  0  0
  3  8  1  0  0  0  0
  4  5  1  0  0  0  0
  5  6  2  0  0  0  0
  5 42  1  0  0  0  0
  6  7  1  0  0  0  0
  6 36  1  0  0  0  0
  7  8  2  0  0  0  0
  7 43  1  0  0  0  0
  8  9  1  0  0  0  0
  9 10  1  0  0  0  0
  9 44  1  0  0  0  0
 10 11  2  0  0  0  0
 10 12  2  0  0  0  0
 10 13  1  0  0  0  0
 13 14  2  0  0  0  0
 13 19  1  0  0  0  0
 14 15  1  0  0  0  0
 14 45  1  0  0  0  0
 15 16  2  0  0  0  0
 15 46  1  0  0  0  0
 16 17  1  0  0  0  0
 16 18  1  0  0  0  0
 18 19  2  0  0  0  0
 18 20  1  0  0  0  0
 19 47  1  0  0  0  0
 20 21  2  0  0  0  0
 20 22  1  0  0  0  0
 22 23  1  0  0  0  0
 22 48  1  0  0  0  0
 23 24  1  0  0  0  0
 23 49  1  0  0  0  0
 23 50  1  0  0  0  0
 24 25  2  0  0  0  0
 24 28  1  0  0  0  0
 25 26  1  0  0  0  0
 25 51  1  0  0  0  0
 26 27  2  0  0  0  0
 26 52  1  0  0  0  0
 27 28  1  0  0  0  0
 27 29  1  0  0  0  0
 29 30  1  0  0  0  0
 29 38  2  0  0  0  0
 30 31  2  0  0  0  0
 31 32  1  0  0  0  0
 31 53  1  0  0  0  0
 32 33  2  0  0  0  0
 33 34  1  0  0  0  0
 33 38  1  0  0  0  0
 34 35  1  0  0  0  0
 34 36  2  0  0  0  0
 35 54  1  0  0  0  0
 35 55  1  0  0  0  0
 35 56  1  0  0  0  0
 36 37  1  0  0  0  0
 37 38  1  0  0  0  0
M  END
>  <DRUGBANK_ID>
DB18114

>  <COMMON_NAME>
AUM-302

>  <CAS_NUMBER>
1414455-21-2

>  <UNII>
F7WQK85U32

>  <SYNONYMS>
19H-22,25-Epithio-4,6:7,11:14,18-trimetheno-12H-pyrimido[5,4-j][1,9,2,5,17]dithiatriazacyclotricosin-19-one, 17-fluoro-20,21-dihydro-10-methoxy-29-methyl-, 13,13-dioxide

$$$$
