
 OpenBabel10282417193D

 69 73  0  0  0  0  0  0  0  0999 V2000
    0.9904    0.2408   -0.1036 C   0  0  0  0  0  0  0  0  0  0  0  0
    0.4589   -1.1549   -0.3417 C   0  0  0  0  0  0  0  0  0  0  0  0
    0.9182   -1.9169    0.7917 N   0  0  0  0  0  0  0  0  0  0  0  0
    1.6561   -3.1379    0.4349 C   0  0  0  0  0  0  0  0  0  0  0  0
    0.7273   -4.2873    0.0050 C   0  0  0  0  0  0  0  0  0  0  0  0
   -0.3083   -4.6342    1.0035 N   0  0  0  0  0  0  0  0  0  0  0  0
   -1.0939   -3.4228    1.2998 C   0  0  0  0  0  0  0  0  0  0  0  0
   -0.2130   -2.2108    1.6625 C   0  0  0  0  0  0  0  0  0  0  0  0
    0.1701   -5.3841    2.2036 C   0  0  0  0  0  0  0  0  0  0  0  0
    1.0701   -4.7127    3.2357 C   0  0  0  0  0  0  0  0  0  0  0  0
    0.6198   -3.7073    4.0966 C   0  0  0  0  0  0  0  0  0  0  0  0
    1.5328   -2.7353    4.5402 C   0  0  0  0  0  0  0  0  0  0  0  0
    2.8928   -2.9842    4.4470 C   0  0  0  0  0  0  0  0  0  0  0  0
    3.3340   -4.1215    3.8643 N   0  0  0  0  0  0  0  0  0  0  0  0
    2.4404   -4.9262    3.2379 C   0  0  0  0  0  0  0  0  0  0  0  0
    3.7919   -2.0027    4.9187 N   0  0  0  0  0  0  0  0  0  0  0  0
    5.1102   -2.3917    5.2049 C   0  0  0  0  0  0  0  0  0  0  0  0
    5.9306   -2.5562    4.1609 N   0  0  0  0  0  0  0  0  0  0  0  0
    7.1879   -2.9604    4.4195 C   0  0  0  0  0  0  0  0  0  0  0  0
    7.6465   -3.1811    5.6794 C   0  0  0  0  0  0  0  0  0  0  0  0
    6.7625   -2.9652    6.7120 C   0  0  0  0  0  0  0  0  0  0  0  0
    5.4754   -2.5545    6.4942 N   0  0  0  0  0  0  0  0  0  0  0  0
    7.1805   -3.1538    8.1079 C   0  0  0  0  0  0  0  0  0  0  0  0
    6.5622   -4.1199    8.9164 C   0  0  0  0  0  0  0  0  0  0  0  0
    7.0209   -4.3032   10.2338 C   0  0  0  0  0  0  0  0  0  0  0  0
    8.0688   -3.5589   10.7679 C   0  0  0  0  0  0  0  0  0  0  0  0
    8.6898   -2.6017    9.9513 C   0  0  0  0  0  0  0  0  0  0  0  0
    8.2479   -2.4126    8.6380 C   0  0  0  0  0  0  0  0  0  0  0  0
    9.7080   -1.8554   10.4034 F   0  0  0  0  0  0  0  0  0  0  0  0
    8.3090   -3.9260   12.0711 N   0  0  0  0  0  0  0  0  0  0  0  0
    7.4387   -4.8751   12.3521 C   0  0  0  0  0  0  0  0  0  0  0  0
    6.6399   -5.1453   11.2589 N   0  0  0  0  0  0  0  0  0  0  0  0
    5.5692   -6.1367   11.1875 C   0  0  0  0  0  0  0  0  0  0  0  0
    4.2118   -5.4781   10.9348 C   0  0  0  0  0  0  0  0  0  0  0  0
    5.8802   -7.2233   10.1565 C   0  0  0  0  0  0  0  0  0  0  0  0
    7.3238   -5.5642   13.6641 C   0  0  0  0  0  0  0  0  0  0  0  0
    8.9172   -3.5733    5.8869 F   0  0  0  0  0  0  0  0  0  0  0  0
    0.6164    0.6547    0.8421 H   0  0  0  0  0  0  0  0  0  0  0  0
    0.6724    0.8894   -0.9183 H   0  0  0  0  0  0  0  0  0  0  0  0
    2.0856    0.2353   -0.0532 H   0  0  0  0  0  0  0  0  0  0  0  0
   -0.6354   -1.1334   -0.4015 H   0  0  0  0  0  0  0  0  0  0  0  0
    0.8304   -1.5627   -1.2840 H   0  0  0  0  0  0  0  0  0  0  0  0
    2.4156   -2.9272   -0.3263 H   0  0  0  0  0  0  0  0  0  0  0  0
    2.2534   -3.4541    1.2885 H   0  0  0  0  0  0  0  0  0  0  0  0
    0.2179   -3.9604   -0.9157 H   0  0  0  0  0  0  0  0  0  0  0  0
    1.3014   -5.1711   -0.2892 H   0  0  0  0  0  0  0  0  0  0  0  0
   -1.6926   -3.1587    0.4150 H   0  0  0  0  0  0  0  0  0  0  0  0
   -1.8286   -3.6335    2.0859 H   0  0  0  0  0  0  0  0  0  0  0  0
    0.3285   -2.4169    2.5385 H   0  0  0  0  0  0  0  0  0  0  0  0
   -0.8003   -1.3465    1.9920 H   0  0  0  0  0  0  0  0  0  0  0  0
   -0.7146   -5.7585    2.7320 H   0  0  0  0  0  0  0  0  0  0  0  0
    0.6763   -6.2838    1.8308 H   0  0  0  0  0  0  0  0  0  0  0  0
   -0.4422   -3.4640    4.1438 H   0  0  0  0  0  0  0  0  0  0  0  0
    1.1772   -1.7451    4.8199 H   0  0  0  0  0  0  0  0  0  0  0  0
    2.8951   -5.7074    2.6357 H   0  0  0  0  0  0  0  0  0  0  0  0
    3.4217   -1.5336    5.7289 H   0  0  0  0  0  0  0  0  0  0  0  0
    7.8171   -3.0897    3.5504 H   0  0  0  0  0  0  0  0  0  0  0  0
    5.7546   -4.7193    8.5065 H   0  0  0  0  0  0  0  0  0  0  0  0
    8.7586   -1.6729    8.0281 H   0  0  0  0  0  0  0  0  0  0  0  0
    5.5126   -6.6270   12.1659 H   0  0  0  0  0  0  0  0  0  0  0  0
    4.1719   -4.9615    9.9727 H   0  0  0  0  0  0  0  0  0  0  0  0
    3.4117   -6.2238   10.9325 H   0  0  0  0  0  0  0  0  0  0  0  0
    3.9907   -4.7350   11.7086 H   0  0  0  0  0  0  0  0  0  0  0  0
    6.8335   -7.7132   10.3835 H   0  0  0  0  0  0  0  0  0  0  0  0
    5.0953   -7.9852   10.1456 H   0  0  0  0  0  0  0  0  0  0  0  0
    5.9571   -6.8238    9.1419 H   0  0  0  0  0  0  0  0  0  0  0  0
    6.3305   -5.4091   14.0969 H   0  0  0  0  0  0  0  0  0  0  0  0
    7.4997   -6.6387   13.5541 H   0  0  0  0  0  0  0  0  0  0  0  0
    8.0623   -5.1735   14.3716 H   0  0  0  0  0  0  0  0  0  0  0  0
  1  2  1  0  0  0  0
  1 38  1  0  0  0  0
  1 39  1  0  0  0  0
  1 40  1  0  0  0  0
  2  3  1  0  0  0  0
  2 41  1  0  0  0  0
  2 42  1  0  0  0  0
  3  4  1  0  0  0  0
  3  8  1  0  0  0  0
  4  5  1  0  0  0  0
  4 43  1  0  0  0  0
  4 44  1  0  0  0  0
  5  6  1  0  0  0  0
  5 45  1  0  0  0  0
  5 46  1  0  0  0  0
  6  7  1  0  0  0  0
  6  9  1  0  0  0  0
  7  8  1  0  0  0  0
  7 47  1  0  0  0  0
  7 48  1  0  0  0  0
  8 49  1  0  0  0  0
  8 50  1  0  0  0  0
  9 10  1  0  0  0  0
  9 51  1  0  0  0  0
  9 52  1  0  0  0  0
 10 11  2  0  0  0  0
 10 15  1  0  0  0  0
 11 12  1  0  0  0  0
 11 53  1  0  0  0  0
 12 13  2  0  0  0  0
 12 54  1  0  0  0  0
 13 14  1  0  0  0  0
 13 16  1  0  0  0  0
 14 15  2  0  0  0  0
 15 55  1  0  0  0  0
 16 17  1  0  0  0  0
 16 56  1  0  0  0  0
 17 18  2  0  0  0  0
 17 22  1  0  0  0  0
 18 19  1  0  0  0  0
 19 20  2  0  0  0  0
 19 57  1  0  0  0  0
 20 21  1  0  0  0  0
 20 37  1  0  0  0  0
 21 22  2  0  0  0  0
 21 23  1  0  0  0  0
 23 24  1  0  0  0  0
 23 28  2  0  0  0  0
 24 25  2  0  0  0  0
 24 58  1  0  0  0  0
 25 26  1  0  0  0  0
 25 32  1  0  0  0  0
 26 27  2  0  0  0  0
 26 30  1  0  0  0  0
 27 28  1  0  0  0  0
 27 29  1  0  0  0  0
 28 59  1  0  0  0  0
 30 31  2  0  0  0  0
 31 32  1  0  0  0  0
 31 36  1  0  0  0  0
 32 33  1  0  0  0  0
 33 34  1  0  0  0  0
 33 35  1  0  0  0  0
 33 60  1  0  0  0  0
 34 61  1  0  0  0  0
 34 62  1  0  0  0  0
 34 63  1  0  0  0  0
 35 64  1  0  0  0  0
 35 65  1  0  0  0  0
 35 66  1  0  0  0  0
 36 67  1  0  0  0  0
 36 68  1  0  0  0  0
 36 69  1  0  0  0  0
M  END
>  <DRUGBANK_ID>
DB12001

>  <COMMON_NAME>
Abemaciclib

>  <CAS_NUMBER>
1231929-97-7

>  <UNII>
60UAB198HK

>  <SYNONYMS>
Abemaciclib

$$$$
