
 OpenBabel10282417193D

 56 59  0  0  1  0  0  0  0  0999 V2000
    0.9181    0.0137   -0.0827 C   0  0  0  0  0  0  0  0  0  0  0  0
    0.3805   -0.5139    1.2461 C   0  0  0  0  0  0  0  0  0  0  0  0
    0.8399    0.3377    2.4396 C   0  0  1  0  0  0  0  0  0  0  0  0
    0.4333    1.7772    2.3424 C   0  0  0  0  0  0  0  0  0  0  0  0
    1.0964    2.8479    2.7283 N   0  0  0  0  0  0  0  0  0  0  0  0
    0.2929    3.8586    2.2720 C   0  0  0  0  0  0  0  0  0  0  0  0
   -0.8121    3.4600    1.6305 N   0  0  0  0  0  0  0  0  0  0  0  0
   -0.7346    2.0682    1.6973 O   0  0  0  0  0  0  0  0  0  0  0  0
    0.6487    5.2774    2.4463 C   0  0  0  0  0  0  0  0  0  0  0  0
    0.4743   -0.3288    3.6967 N   0  0  0  0  0  0  0  0  0  0  0  0
    1.3842   -0.6932    4.6802 C   0  0  0  0  0  0  0  0  0  0  0  0
    2.4361    0.1029    4.9722 C   0  0  0  0  0  0  0  0  0  0  0  0
    3.4178   -0.3870    5.9661 C   0  0  0  0  0  0  0  0  0  0  0  0
    3.3414   -1.5201    6.5985 N   0  0  0  0  0  0  0  0  0  0  0  0
    2.2468   -2.3056    6.3244 C   0  0  0  0  0  0  0  0  0  0  0  0
    1.2623   -1.9186    5.3920 N   0  0  0  0  0  0  0  0  0  0  0  0
    0.2803   -2.8713    5.2676 N   0  0  0  0  0  0  0  0  0  0  0  0
    0.6407   -3.8419    6.1162 C   0  0  0  0  0  0  0  0  0  0  0  0
    1.8595   -3.5465    6.7823 C   0  0  0  0  0  0  0  0  0  0  0  0
    2.5955   -4.4162    7.6828 C   0  0  0  0  0  0  0  0  0  0  0  0
    2.6277   -4.1265    9.0523 C   0  0  0  0  0  0  0  0  0  0  0  0
    2.9972   -5.1198    9.9678 C   0  0  0  0  0  0  0  0  0  0  0  0
    3.5412   -6.3250    9.5222 C   0  0  0  0  0  0  0  0  0  0  0  0
    3.6105   -6.5692    8.1525 C   0  0  0  0  0  0  0  0  0  0  0  0
    3.0830   -5.6562    7.2271 C   0  0  0  0  0  0  0  0  0  0  0  0
    3.0098   -6.1084    5.7929 C   0  0  0  0  0  0  0  0  0  0  0  0
    3.9708   -7.1920   10.4916 O   0  0  0  0  0  0  0  0  0  0  0  0
    4.7114   -8.3200   10.0280 C   0  0  0  0  0  0  0  0  0  0  0  0
   -0.1606   -5.0920    6.2733 C   0  0  0  0  0  0  0  0  0  0  0  0
    4.5893    0.5272    6.2237 C   0  0  0  0  0  0  0  0  0  0  0  0
    0.5794    1.0348   -0.2816 H   0  0  0  0  0  0  0  0  0  0  0  0
    0.5738   -0.6135   -0.9093 H   0  0  0  0  0  0  0  0  0  0  0  0
    2.0133    0.0172   -0.0869 H   0  0  0  0  0  0  0  0  0  0  0  0
   -0.7134   -0.5702    1.2094 H   0  0  0  0  0  0  0  0  0  0  0  0
    0.7422   -1.5431    1.3756 H   0  0  0  0  0  0  0  0  0  0  0  0
    1.9384    0.3455    2.3704 H   0  0  0  0  0  0  0  0  0  0  0  0
    0.8512    5.4911    3.5001 H   0  0  0  0  0  0  0  0  0  0  0  0
    1.5487    5.5109    1.8692 H   0  0  0  0  0  0  0  0  0  0  0  0
   -0.1553    5.9396    2.1113 H   0  0  0  0  0  0  0  0  0  0  0  0
   -0.4894   -0.6339    3.8366 H   0  0  0  0  0  0  0  0  0  0  0  0
    2.5860    1.0657    4.5116 H   0  0  0  0  0  0  0  0  0  0  0  0
    2.3176   -3.1502    9.4184 H   0  0  0  0  0  0  0  0  0  0  0  0
    2.8451   -4.9519   11.0315 H   0  0  0  0  0  0  0  0  0  0  0  0
    4.0256   -7.4941    7.7666 H   0  0  0  0  0  0  0  0  0  0  0  0
    4.0043   -6.3427    5.4107 H   0  0  0  0  0  0  0  0  0  0  0  0
    2.3805   -7.0051    5.7344 H   0  0  0  0  0  0  0  0  0  0  0  0
    2.5769   -5.3637    5.1225 H   0  0  0  0  0  0  0  0  0  0  0  0
    4.0662   -9.0014    9.4626 H   0  0  0  0  0  0  0  0  0  0  0  0
    5.5763   -8.0124    9.4277 H   0  0  0  0  0  0  0  0  0  0  0  0
    5.0917   -8.8654   10.8959 H   0  0  0  0  0  0  0  0  0  0  0  0
    0.4134   -5.9755    5.9805 H   0  0  0  0  0  0  0  0  0  0  0  0
   -0.4413   -5.2321    7.3228 H   0  0  0  0  0  0  0  0  0  0  0  0
   -1.0635   -5.0929    5.6603 H   0  0  0  0  0  0  0  0  0  0  0  0
    4.6100    0.7979    7.2816 H   0  0  0  0  0  0  0  0  0  0  0  0
    5.5172    0.0185    5.9511 H   0  0  0  0  0  0  0  0  0  0  0  0
    4.5127    1.4458    5.6325 H   0  0  0  0  0  0  0  0  0  0  0  0
  1  2  1  0  0  0  0
  1 31  1  0  0  0  0
  1 32  1  0  0  0  0
  1 33  1  0  0  0  0
  2  3  1  0  0  0  0
  2 34  1  0  0  0  0
  2 35  1  0  0  0  0
  3  4  1  0  0  0  0
  3 10  1  0  0  0  0
  3 36  1  6  0  0  0
  4  5  2  0  0  0  0
  4  8  1  0  0  0  0
  5  6  1  0  0  0  0
  6  7  2  0  0  0  0
  6  9  1  0  0  0  0
  7  8  1  0  0  0  0
  9 37  1  0  0  0  0
  9 38  1  0  0  0  0
  9 39  1  0  0  0  0
 10 11  1  0  0  0  0
 10 40  1  0  0  0  0
 11 12  2  0  0  0  0
 11 16  1  0  0  0  0
 12 13  1  0  0  0  0
 12 41  1  0  0  0  0
 13 14  2  0  0  0  0
 13 30  1  0  0  0  0
 14 15  1  0  0  0  0
 15 16  1  0  0  0  0
 15 19  2  0  0  0  0
 16 17  1  0  0  0  0
 17 18  2  0  0  0  0
 18 19  1  0  0  0  0
 18 29  1  0  0  0  0
 19 20  1  0  0  0  0
 20 21  2  0  0  0  0
 20 25  1  0  0  0  0
 21 22  1  0  0  0  0
 21 42  1  0  0  0  0
 22 23  2  0  0  0  0
 22 43  1  0  0  0  0
 23 24  1  0  0  0  0
 23 27  1  0  0  0  0
 24 25  2  0  0  0  0
 24 44  1  0  0  0  0
 25 26  1  0  0  0  0
 26 45  1  0  0  0  0
 26 46  1  0  0  0  0
 26 47  1  0  0  0  0
 27 28  1  0  0  0  0
 28 48  1  0  0  0  0
 28 49  1  0  0  0  0
 28 50  1  0  0  0  0
 29 51  1  0  0  0  0
 29 52  1  0  0  0  0
 29 53  1  0  0  0  0
 30 54  1  0  0  0  0
 30 55  1  0  0  0  0
 30 56  1  0  0  0  0
M  END
>  <DRUGBANK_ID>
DB12512

>  <COMMON_NAME>
Verucerfont

>  <CAS_NUMBER>
885220-61-1

>  <UNII>
X60608B091

>  <SYNONYMS>
Verucerfont

$$$$
