B2F
 OpenBabel10282417163D

 24 24  0  0  0  0  0  0  0  0999 V2000
    0.9765   -0.0792    0.0563 N   0  0  0  0  0  0  0  0  0  0  0  0
    0.4865   -1.4119    0.4367 C   0  0  1  0  0  0  0  0  0  0  0  0
    0.9932   -1.7604    1.8267 C   0  0  0  0  0  0  0  0  0  0  0  0
    0.4865   -0.7308    2.8235 C   0  0  0  0  0  0  0  0  0  0  0  0
    0.1487   -1.0952    4.0549 C   0  0  0  0  0  0  0  0  0  0  0  0
    0.5605    0.6048    2.4642 C   0  0  0  0  0  0  0  0  0  0  0  0
    0.0126   -0.1569    5.0494 C   0  0  0  0  0  0  0  0  0  0  0  0
    0.5397    1.4961    3.5630 C   0  0  0  0  0  0  0  0  0  0  0  0
    0.1311    1.1779    4.7778 C   0  0  0  0  0  0  0  0  0  0  0  0
   -1.1135   -1.4119    0.4367 B   0  0  0  0  0  0  0  0  0  0  0  0
   -1.8635   -2.3452   -0.4669 O   0  0  0  0  0  0  0  0  0  0  0  0
   -1.8635   -0.4787    1.3402 O   0  0  0  0  0  0  0  0  0  0  0  0
    0.8432   -2.1367   -0.2651 H   0  0  0  0  0  0  0  0  0  0  0  0
    0.6365    0.6117    0.7253 H   0  0  0  0  0  0  0  0  0  0  0  0
    1.9965   -0.0792    0.0563 H   0  0  0  0  0  0  0  0  0  0  0  0
    0.6365   -2.7305    2.1035 H   0  0  0  0  0  0  0  0  0  0  0  0
    2.0632   -1.7604    1.8267 H   0  0  0  0  0  0  0  0  0  0  0  0
   -0.0191   -2.1289    4.2747 H   0  0  0  0  0  0  0  0  0  0  0  0
    0.6273    0.9329    1.4479 H   0  0  0  0  0  0  0  0  0  0  0  0
   -0.1889   -0.4754    6.0509 H   0  0  0  0  0  0  0  0  0  0  0  0
    0.8786    2.4975    3.3982 H   0  0  0  0  0  0  0  0  0  0  0  0
   -0.0951    1.9245    5.5102 H   0  0  0  0  0  0  0  0  0  0  0  0
   -1.2136   -2.8913   -0.9956 H   0  0  0  0  0  0  0  0  0  0  0  0
   -2.8466   -0.6099    1.2131 H   0  0  0  0  0  0  0  0  0  0  0  0
  1 14  1  0  0  0  0
  1 15  1  0  0  0  0
  2  1  1  0  0  0  0
  2  3  1  0  0  0  0
  2 10  1  0  0  0  0
  2 13  1  6  0  0  0
  3  4  1  0  0  0  0
  3 16  1  0  0  0  0
  3 17  1  0  0  0  0
  4  5  2  0  0  0  0
  4  6  1  0  0  0  0
  5  7  1  0  0  0  0
  5 18  1  0  0  0  0
  6  8  2  0  0  0  0
  6 19  1  0  0  0  0
  7  9  2  0  0  0  0
  7 20  1  0  0  0  0
  8  9  1  0  0  0  0
  8 21  1  0  0  0  0
  9 22  1  0  0  0  0
 10 11  1  0  0  0  0
 10 12  1  0  0  0  0
 11 23  1  0  0  0  0
 12 24  1  0  0  0  0
M  END
>  <DRUGBANK_ID>
DB07411

>  <COMMON_NAME>
PHENYLALANINE BORONIC ACID

$$$$
