445
 OpenBabel10282417103D

 68 72  0  0  1  0  0  0  0  0999 V2000
   -0.7870    0.0892    1.4087 O   0  0  0  0  0  0  0  0  0  0  0  0
   -0.7043    1.1729   -0.7685 O   0  0  0  0  0  0  0  0  0  0  0  0
   -0.6044    0.5399    4.2200 O   0  0  0  0  0  0  0  0  0  0  0  0
    2.6217    2.8179   -0.3814 O   0  0  0  0  0  0  0  0  0  0  0  0
    0.6378   -2.3774    0.2122 O   0  0  0  0  0  0  0  0  0  0  0  0
    2.5678   -2.4631    5.4187 O   0  0  0  0  0  0  0  0  0  0  0  0
    0.0238    3.1981    4.5936 O   0  0  0  0  0  0  0  0  0  0  0  0
    2.8783    2.0245    5.9614 O   0  0  0  0  0  0  0  0  0  0  0  0
    0.9966   -4.6332    0.2008 O   0  0  0  0  0  0  0  0  0  0  0  0
    2.8618   -4.9615    5.1123 O   0  0  0  0  0  0  0  0  0  0  0  0
    1.3466   -7.5969   -0.1993 O   0  0  0  0  0  0  0  0  0  0  0  0
    1.2270    4.0867    1.8125 N   0  0  0  0  0  0  0  0  0  0  0  0
    0.5884   -0.0857    1.7169 C   0  0  1  0  0  0  0  0  0  0  0  0
    0.7681    0.9230    4.0605 C   0  0  2  0  0  0  0  0  0  0  0  0
    1.1276    0.9396    2.6310 C   0  0  0  0  0  0  0  0  0  0  0  0
    1.6860   -0.1421    4.5267 C   0  0  0  0  0  0  0  0  0  0  0  0
    0.9752   -1.3599    2.3443 C   0  0  0  0  0  0  0  0  0  0  0  0
    1.5227   -1.3812    3.6593 C   0  0  0  0  0  0  0  0  0  0  0  0
   -1.1375    1.2569    0.6023 C   0  0  2  0  0  0  0  0  0  0  0  0
   -0.8067    2.6542    1.1927 C   0  0  0  0  0  0  0  0  0  0  0  0
    0.6827    3.0509    0.9315 C   0  0  1  0  0  0  0  0  0  0  0  0
    1.1731    2.8259   -0.4702 C   0  0  2  0  0  0  0  0  0  0  0  0
    0.6727    1.4630   -0.9962 C   0  0  2  0  0  0  0  0  0  0  0  0
    0.9911   -2.4639    1.5391 C   0  0  0  0  0  0  0  0  0  0  0  0
    0.9625    2.3919    4.5677 C   0  0  0  0  0  0  0  0  0  0  0  0
    2.0376   -2.5404    4.1674 C   0  0  0  0  0  0  0  0  0  0  0  0
    1.4808   -3.6342    2.1077 C   0  0  0  0  0  0  0  0  0  0  0  0
    1.9826   -3.6831    3.4022 C   0  0  0  0  0  0  0  0  0  0  0  0
    1.0952    1.3416   -2.4381 C   0  0  0  0  0  0  0  0  0  0  0  0
    2.3530    2.8648    4.9523 C   0  0  0  0  0  0  0  0  0  0  0  0
    1.4396   -4.8308    1.3338 C   0  0  0  0  0  0  0  0  0  0  0  0
    2.4333   -4.9451    3.9601 C   0  0  0  0  0  0  0  0  0  0  0  0
    1.8490   -6.1399    1.8241 C   0  0  0  0  0  0  0  0  0  0  0  0
    2.3437   -6.1658    3.1459 C   0  0  0  0  0  0  0  0  0  0  0  0
    1.7785   -7.3333    1.0810 C   0  0  0  0  0  0  0  0  0  0  0  0
    2.7691   -7.3494    3.7419 C   0  0  0  0  0  0  0  0  0  0  0  0
    2.2172   -8.5112    1.7082 C   0  0  0  0  0  0  0  0  0  0  0  0
    2.7061   -8.5251    3.0175 C   0  0  0  0  0  0  0  0  0  0  0  0
    0.8558   -6.5471   -1.0160 C   0  0  0  0  0  0  0  0  0  0  0  0
   -0.9289    0.1145    3.3999 H   0  0  0  0  0  0  0  0  0  0  0  0
    2.9987    2.2765   -1.0928 H   0  0  0  0  0  0  0  0  0  0  0  0
    0.1230   -1.6056   -0.0743 H   0  0  0  0  0  0  0  0  0  0  0  0
    2.8030   -3.3688    5.7049 H   0  0  0  0  0  0  0  0  0  0  0  0
    2.1886    1.9593    6.6490 H   0  0  0  0  0  0  0  0  0  0  0  0
    2.2496    4.0052    1.7906 H   0  0  0  0  0  0  0  0  0  0  0  0
    0.9930    5.0113    1.4850 H   0  0  0  0  0  0  0  0  0  0  0  0
    1.1551   -0.1195    0.8115 H   0  0  0  0  0  0  0  0  0  0  0  0
    0.5038    1.7519    2.4837 H   0  0  0  0  0  0  0  0  0  0  0  0
    2.1989    1.1086    2.4171 H   0  0  0  0  0  0  0  0  0  0  0  0
    2.7337    0.1774    4.4204 H   0  0  0  0  0  0  0  0  0  0  0  0
    1.4380   -0.3438    5.5628 H   0  0  0  0  0  0  0  0  0  0  0  0
   -2.2373    1.1971    0.5813 H   0  0  0  0  0  0  0  0  0  0  0  0
   -1.4364    3.4255    0.7470 H   0  0  0  0  0  0  0  0  0  0  0  0
   -1.0942    2.6500    2.2604 H   0  0  0  0  0  0  0  0  0  0  0  0
    1.3847    2.3173    1.2491 H   0  0  0  0  0  0  0  0  0  0  0  0
    0.8442    3.6617   -1.0739 H   0  0  0  0  0  0  0  0  0  0  0  0
    1.2576    0.6382   -0.6212 H   0  0  0  0  0  0  0  0  0  0  0  0
    0.4785    0.6378   -2.9902 H   0  0  0  0  0  0  0  0  0  0  0  0
    1.0901    2.3272   -2.9011 H   0  0  0  0  0  0  0  0  0  0  0  0
    2.1350    0.9807   -2.4539 H   0  0  0  0  0  0  0  0  0  0  0  0
    3.0296    2.8919    4.0910 H   0  0  0  0  0  0  0  0  0  0  0  0
    2.2844    3.8796    5.3583 H   0  0  0  0  0  0  0  0  0  0  0  0
    3.1470   -7.3510    4.7631 H   0  0  0  0  0  0  0  0  0  0  0  0
    2.1758   -9.4478    1.1557 H   0  0  0  0  0  0  0  0  0  0  0  0
    3.0378   -9.4543    3.4706 H   0  0  0  0  0  0  0  0  0  0  0  0
   -0.0656   -6.1475   -0.5661 H   0  0  0  0  0  0  0  0  0  0  0  0
    1.6780   -5.8457   -1.2221 H   0  0  0  0  0  0  0  0  0  0  0  0
    0.5407   -6.8668   -2.0072 H   0  0  0  0  0  0  0  0  0  0  0  0
  2 19  1  0  0  0  0
  2 23  1  0  0  0  0
  3 40  1  0  0  0  0
  4 41  1  0  0  0  0
  5 24  1  0  0  0  0
  5 42  1  0  0  0  0
  6 26  1  0  0  0  0
  6 43  1  0  0  0  0
  7 25  2  0  0  0  0
  8 30  1  0  0  0  0
  8 44  1  0  0  0  0
  9 31  2  0  0  0  0
 10 32  2  0  0  0  0
 11 35  1  0  0  0  0
 11 39  1  0  0  0  0
 12 45  1  0  0  0  0
 12 46  1  0  0  0  0
 13 15  1  0  0  0  0
 13 17  1  0  0  0  0
 13 47  1  6  0  0  0
 13  1  1  0  0  0  0
 14 15  1  0  0  0  0
 14 16  1  0  0  0  0
 14 25  1  1  0  0  0
 14  3  1  0  0  0  0
 15 48  1  0  0  0  0
 15 49  1  0  0  0  0
 16 18  1  0  0  0  0
 16 50  1  0  0  0  0
 16 51  1  0  0  0  0
 17 18  2  0  0  0  0
 17 24  1  0  0  0  0
 18 26  1  0  0  0  0
 19  1  1  0  0  0  0
 19 20  1  0  0  0  0
 19 52  1  6  0  0  0
 20 21  1  0  0  0  0
 20 53  1  0  0  0  0
 20 54  1  0  0  0  0
 21 12  1  0  0  0  0
 21 22  1  0  0  0  0
 21 55  1  1  0  0  0
 22 23  1  0  0  0  0
 22 56  1  6  0  0  0
 22  4  1  0  0  0  0
 23 57  1  1  0  0  0
 23 29  1  0  0  0  0
 24 27  2  0  0  0  0
 25 30  1  0  0  0  0
 26 28  2  0  0  0  0
 27 28  1  0  0  0  0
 27 31  1  0  0  0  0
 28 32  1  0  0  0  0
 29 58  1  0  0  0  0
 29 59  1  0  0  0  0
 29 60  1  0  0  0  0
 30 61  1  0  0  0  0
 30 62  1  0  0  0  0
 31 33  1  0  0  0  0
 32 34  1  0  0  0  0
 33 34  2  0  0  0  0
 33 35  1  0  0  0  0
 34 36  1  0  0  0  0
 35 37  2  0  0  0  0
 36 38  2  0  0  0  0
 36 63  1  0  0  0  0
 37 38  1  0  0  0  0
 37 64  1  0  0  0  0
 38 65  1  0  0  0  0
 39 66  1  0  0  0  0
 39 67  1  0  0  0  0
 39 68  1  0  0  0  0
M  END
>  <DRUGBANK_ID>
DB00445

>  <SECONDARY_ACCESSION_NUMBERS>
APRD00361

>  <COMMON_NAME>
Epirubicin

>  <CAS_NUMBER>
56420-45-2

>  <UNII>
3Z8479ZZ5X

>  <SYNONYMS>
(1S,3S)-3-GLYCOLOYL-1,2,3,4,6,11-HEXAHYDRO-3,5,12-TRIHYDROXY-10-METHOXY-6,11-DIOXO-1-NAPHTHACENYL 3-AMINO-2,3,6-TRIDEOXY-.ALPHA.-L-ARABINO-HEXOPYRANOSIDE; 4'-EPI-ADRIAMYCIN; 4'-Epiadriamycin; 5,12-NAPHTHACENEDIONE, 10-((3-AMINO-2,3,6-TRIDEOXY-.ALPHA.-L-ARABINO-HEXOPYRANOSYL)OXY)-7,8,9,10-TETRAHYDRO-6,8,11-TRIHYDROXY-8-(HYDROXYACETYL)-1-METHOXY-, (8S-CIS)-; Epiadriamycin; Epirubicin; epirubicin-conjugated polymer micelles; Epirubicina; Epirubicine; Epirubicinum; Pidorubicina; Pidorubicine; Pidorubicinum

$$$$
