686
 OpenBabel10282417103D

 53 54  0  0  1  0  0  0  0  0999 V2000
   -0.5346   -3.8442    1.8078 S   0  0  0  0  0  0  0  0  0  0  0  0
    3.1200    0.1190    1.7885 S   0  0  0  0  0  0  0  0  0  0  0  0
   -0.1784    2.7335   -1.9218 S   0  0  0  0  0  0  0  0  0  0  0  0
   -3.3389   -5.1753   -2.0441 S   0  0  0  0  0  0  0  0  0  0  0  0
    0.8783   -1.7424    0.3063 O   0  0  0  0  0  0  0  0  0  0  0  0
   -1.1209   -0.5754    0.9307 O   0  0  0  0  0  0  0  0  0  0  0  0
   -0.0437   -1.8487   -3.2532 O   0  0  0  0  0  0  0  0  0  0  0  0
   -1.0781   -3.9312    0.2582 O   0  0  0  0  0  0  0  0  0  0  0  0
    2.3596    0.5977    0.4326 O   0  0  0  0  0  0  0  0  0  0  0  0
    0.4881    2.8243   -0.4203 O   0  0  0  0  0  0  0  0  0  0  0  0
   -2.9737   -3.5975   -1.9981 O   0  0  0  0  0  0  0  0  0  0  0  0
   -1.7802    2.9244    1.5572 O   0  0  0  0  0  0  0  0  0  0  0  0
   -1.9184   -2.4726   -4.3771 O   0  0  0  0  0  0  0  0  0  0  0  0
   -1.3205   -2.5861    2.4451 O   0  0  0  0  0  0  0  0  0  0  0  0
    2.4504    1.1413    2.8337 O   0  0  0  0  0  0  0  0  0  0  0  0
    0.4780    1.4174   -2.5701 O   0  0  0  0  0  0  0  0  0  0  0  0
   -2.7390   -5.6240   -3.4720 O   0  0  0  0  0  0  0  0  0  0  0  0
    0.8807   -3.5790    1.8497 O   0  0  0  0  0  0  0  0  0  0  0  0
   -1.0504   -4.9868    2.5247 O   0  0  0  0  0  0  0  0  0  0  0  0
    2.7505   -1.2067    2.1760 O   0  0  0  0  0  0  0  0  0  0  0  0
    4.5073    0.5145    1.6575 O   0  0  0  0  0  0  0  0  0  0  0  0
   -1.5933    2.4741   -1.8439 O   0  0  0  0  0  0  0  0  0  0  0  0
    0.3487    3.8292   -2.6969 O   0  0  0  0  0  0  0  0  0  0  0  0
   -2.5804   -5.8432   -1.0158 O   0  0  0  0  0  0  0  0  0  0  0  0
   -4.7737   -5.2905   -2.1436 O   0  0  0  0  0  0  0  0  0  0  0  0
    0.3600   -2.3125   -0.8743 C   0  0  1  0  0  0  0  0  0  0  0  0
   -1.0550   -2.8490   -0.6856 C   0  0  1  0  0  0  0  0  0  0  0  0
    0.9342    0.5820    0.3517 C   0  0  1  0  0  0  0  0  0  0  0  0
    0.2916   -0.6333    0.9709 C   0  0  2  0  0  0  0  0  0  0  0  0
    0.2179    1.8876    0.6441 C   0  0  2  0  0  0  0  0  0  0  0  0
   -1.5962   -3.2610   -2.0798 C   0  0  2  0  0  0  0  0  0  0  0  0
   -1.2893    1.7482    0.9397 C   0  0  1  0  0  0  0  0  0  0  0  0
    0.4364   -1.3387   -2.0304 C   0  0  0  0  0  0  0  0  0  0  0  0
   -1.4298   -2.1126   -3.1007 C   0  0  1  0  0  0  0  0  0  0  0  0
   -1.6124    0.4998    1.7265 C   0  0  0  0  0  0  0  0  0  0  0  0
   -1.2995    3.0762    2.3875 H   0  0  0  0  0  0  0  0  0  0  0  0
   -1.2465   -3.0835   -4.7215 H   0  0  0  0  0  0  0  0  0  0  0  0
   -2.2808   -2.7461    2.3762 H   0  0  0  0  0  0  0  0  0  0  0  0
    2.7936    2.0322    2.6232 H   0  0  0  0  0  0  0  0  0  0  0  0
    1.4528    1.4638   -2.5764 H   0  0  0  0  0  0  0  0  0  0  0  0
   -3.3047   -5.2538   -4.1795 H   0  0  0  0  0  0  0  0  0  0  0  0
    1.0124   -3.1636   -1.1139 H   0  0  0  0  0  0  0  0  0  0  0  0
   -1.7634   -2.1043   -0.3301 H   0  0  0  0  0  0  0  0  0  0  0  0
    0.8182    0.4836   -0.6975 H   0  0  0  0  0  0  0  0  0  0  0  0
    0.5530   -0.7073    2.0267 H   0  0  0  0  0  0  0  0  0  0  0  0
    0.6869    2.3154    1.5362 H   0  0  0  0  0  0  0  0  0  0  0  0
   -1.0124   -4.1095   -2.4550 H   0  0  0  0  0  0  0  0  0  0  0  0
   -1.8536    1.5962    0.0276 H   0  0  0  0  0  0  0  0  0  0  0  0
   -0.2315   -0.5179   -1.7787 H   0  0  0  0  0  0  0  0  0  0  0  0
    1.4624   -0.9701   -2.1512 H   0  0  0  0  0  0  0  0  0  0  0  0
   -1.9686   -1.2022   -2.7928 H   0  0  0  0  0  0  0  0  0  0  0  0
   -1.1952    0.5044    2.7410 H   0  0  0  0  0  0  0  0  0  0  0  0
   -2.6978    0.3839    1.8276 H   0  0  0  0  0  0  0  0  0  0  0  0
  1  8  1  0  0  0  0
  1 14  1  0  0  0  0
  1 18  2  0  0  0  0
  1 19  2  0  0  0  0
  2  9  1  0  0  0  0
  2 15  1  0  0  0  0
  2 20  2  0  0  0  0
  2 21  2  0  0  0  0
  3 10  1  0  0  0  0
  3 16  1  0  0  0  0
  3 22  2  0  0  0  0
  3 23  2  0  0  0  0
  4 11  1  0  0  0  0
  4 17  1  0  0  0  0
  4 24  2  0  0  0  0
  4 25  2  0  0  0  0
  6 29  1  0  0  0  0
  6 35  1  0  0  0  0
  7 33  1  0  0  0  0
  7 34  1  0  0  0  0
 12 36  1  0  0  0  0
 13 37  1  0  0  0  0
 14 38  1  0  0  0  0
 15 39  1  0  0  0  0
 16 40  1  0  0  0  0
 17 41  1  0  0  0  0
 26  5  1  0  0  0  0
 26 27  1  0  0  0  0
 26 33  1  0  0  0  0
 26 42  1  6  0  0  0
 27 31  1  0  0  0  0
 27 43  1  1  0  0  0
 27  8  1  0  0  0  0
 28 29  1  0  0  0  0
 28 30  1  0  0  0  0
 28 44  1  6  0  0  0
 28  9  1  0  0  0  0
 29 45  1  1  0  0  0
 29  5  1  0  0  0  0
 30 10  1  0  0  0  0
 30 32  1  0  0  0  0
 30 46  1  1  0  0  0
 31 34  1  0  0  0  0
 31 47  1  6  0  0  0
 31 11  1  0  0  0  0
 32 12  1  0  0  0  0
 32 35  1  0  0  0  0
 32 48  1  6  0  0  0
 33 49  1  0  0  0  0
 33 50  1  0  0  0  0
 34 13  1  0  0  0  0
 34 51  1  1  0  0  0
 35 52  1  0  0  0  0
 35 53  1  0  0  0  0
M  END
>  <DRUGBANK_ID>
DB00686

>  <SECONDARY_ACCESSION_NUMBERS>
APRD01175

>  <COMMON_NAME>
Pentosan polysulfate

>  <CAS_NUMBER>
37300-21-3

>  <UNII>
F59P8B75R4

>  <SYNONYMS>
Pentosan polysulfate; Pentosan sulfuric polyester; Pentosane polysulfate; Pentosani polysulfas; Pentosano polisulfato; Pentosanpolysulfat

$$$$
