
 OpenBabel10282417203D

 78 79  0  0  0  0  0  0  0  0999 V2000
    1.0391    0.2124    0.0676 C   0  0  0  0  0  0  0  0  0  0  0  0
    0.6416   -0.3861   -1.2689 C   0  0  0  0  0  0  0  0  0  0  0  0
    1.2318   -1.8017   -1.3805 C   0  0  0  0  0  0  0  0  0  0  0  0
    0.7154   -2.7010   -0.2561 C   0  0  0  0  0  0  0  0  0  0  0  0
   -0.7934   -2.6464   -0.2779 C   0  0  0  0  0  0  0  0  0  0  0  0
   -1.3051   -2.9039   -1.7091 C   0  0  0  0  0  0  0  0  0  0  0  0
   -1.3000   -4.3275   -2.1824 C   0  0  0  0  0  0  0  0  0  0  0  0
   -2.2278   -5.1478   -1.3411 C   0  0  0  0  0  0  0  0  0  0  0  0
   -3.5919   -5.4611   -1.4229 O   0  0  0  0  0  0  0  0  0  0  0  0
   -4.2487   -4.4160   -0.8973 C   0  0  0  0  0  0  0  0  0  0  0  0
   -4.1825   -3.3315   -1.7686 C   0  0  0  0  0  0  0  0  0  0  0  0
   -4.5032   -2.0769   -1.3382 C   0  0  0  0  0  0  0  0  0  0  0  0
   -5.3599   -2.0180   -0.2728 C   0  0  0  0  0  0  0  0  0  0  0  0
   -5.6421   -3.1872    0.4773 C   0  0  0  0  0  0  0  0  0  0  0  0
   -4.9045   -4.3800    0.3129 C   0  0  0  0  0  0  0  0  0  0  0  0
   -5.0017   -5.4978    1.3356 C   0  0  0  0  0  0  0  0  0  0  0  0
   -5.9324   -5.4133    2.1480 O   0  0  0  0  0  0  0  0  0  0  0  0
   -4.2034   -6.6538    1.4299 N   0  0  0  0  0  0  0  0  0  0  0  0
   -2.8948   -6.9943    1.0075 C   0  0  0  0  0  0  0  0  0  0  0  0
   -1.7970   -6.1656    1.2344 C   0  0  0  0  0  0  0  0  0  0  0  0
   -0.6128   -6.3144    0.4481 C   0  0  0  0  0  0  0  0  0  0  0  0
   -0.5892   -7.2684   -0.5922 C   0  0  0  0  0  0  0  0  0  0  0  0
   -1.5026   -8.3276   -0.5108 C   0  0  0  0  0  0  0  0  0  0  0  0
   -2.6820   -8.1612    0.2539 C   0  0  0  0  0  0  0  0  0  0  0  0
    0.0446   -6.9624   -2.0669 C   0  0  0  0  0  0  0  0  0  0  0  0
   -0.1881   -7.6545   -3.0059 O   0  0  0  0  0  0  0  0  0  0  0  0
    1.1456   -6.0885   -1.9686 O   0  0  0  0  0  0  0  0  0  0  0  0
    2.2868   -6.1284   -2.9131 C   0  0  0  0  0  0  0  0  0  0  0  0
    3.4332   -7.0823   -2.4058 C   0  0  0  0  0  0  0  0  0  0  0  0
    2.9760   -8.5578   -2.1576 N   0  3  0  0  0  0  0  0  0  0  0  0
    2.4021   -9.0282   -3.5549 C   0  0  0  0  0  0  0  0  0  0  0  0
    4.0377   -9.5434   -1.7506 C   0  0  0  0  0  0  0  0  0  0  0  0
    4.6314   -9.1869   -0.4013 C   0  0  0  0  0  0  0  0  0  0  0  0
    1.9836   -8.6859   -1.0233 C   0  0  0  0  0  0  0  0  0  0  0  0
    2.1489   -7.9509    0.3186 C   0  0  0  0  0  0  0  0  0  0  0  0
    0.6310   -0.3536    0.9132 H   0  0  0  0  0  0  0  0  0  0  0  0
    0.6687    1.2315    0.1667 H   0  0  0  0  0  0  0  0  0  0  0  0
    2.1281    0.1977    0.1516 H   0  0  0  0  0  0  0  0  0  0  0  0
   -0.4548   -0.3668   -1.3578 H   0  0  0  0  0  0  0  0  0  0  0  0
    0.9903    0.2239   -2.1037 H   0  0  0  0  0  0  0  0  0  0  0  0
    0.9812   -2.2285   -2.3590 H   0  0  0  0  0  0  0  0  0  0  0  0
    2.3201   -1.7884   -1.3721 H   0  0  0  0  0  0  0  0  0  0  0  0
    1.0749   -3.7229   -0.3936 H   0  0  0  0  0  0  0  0  0  0  0  0
    1.0781   -2.3941    0.7310 H   0  0  0  0  0  0  0  0  0  0  0  0
   -1.2140   -3.2663    0.5202 H   0  0  0  0  0  0  0  0  0  0  0  0
   -1.1715   -1.6596    0.0190 H   0  0  0  0  0  0  0  0  0  0  0  0
   -2.2646   -2.4839   -1.6316 H   0  0  0  0  0  0  0  0  0  0  0  0
   -0.8962   -2.3091   -2.5211 H   0  0  0  0  0  0  0  0  0  0  0  0
   -1.4687   -4.5574   -3.2329 H   0  0  0  0  0  0  0  0  0  0  0  0
   -0.2651   -4.5933   -1.9897 H   0  0  0  0  0  0  0  0  0  0  0  0
   -1.9231   -6.1221   -1.5914 H   0  0  0  0  0  0  0  0  0  0  0  0
   -2.0217   -4.7709   -0.3538 H   0  0  0  0  0  0  0  0  0  0  0  0
   -3.6267   -3.4734   -2.6952 H   0  0  0  0  0  0  0  0  0  0  0  0
   -4.1023   -1.2137   -1.8624 H   0  0  0  0  0  0  0  0  0  0  0  0
   -5.8429   -1.0677   -0.0802 H   0  0  0  0  0  0  0  0  0  0  0  0
   -6.4923   -3.1519    1.1530 H   0  0  0  0  0  0  0  0  0  0  0  0
   -4.6113   -7.3154    2.0860 H   0  0  0  0  0  0  0  0  0  0  0  0
   -1.9761   -5.2165    1.7471 H   0  0  0  0  0  0  0  0  0  0  0  0
    0.0843   -5.4784    0.4115 H   0  0  0  0  0  0  0  0  0  0  0  0
   -1.4088   -9.1798   -1.1792 H   0  0  0  0  0  0  0  0  0  0  0  0
   -3.5033   -8.8514    0.0679 H   0  0  0  0  0  0  0  0  0  0  0  0
    1.9821   -6.3230   -3.9497 H   0  0  0  0  0  0  0  0  0  0  0  0
    2.7180   -5.1147   -2.9427 H   0  0  0  0  0  0  0  0  0  0  0  0
    4.2698   -7.1272   -3.1152 H   0  0  0  0  0  0  0  0  0  0  0  0
    3.8131   -6.6943   -1.4607 H   0  0  0  0  0  0  0  0  0  0  0  0
    3.2473   -9.1050   -4.2476 H   0  0  0  0  0  0  0  0  0  0  0  0
    1.8705   -9.9716   -3.4390 H   0  0  0  0  0  0  0  0  0  0  0  0
    1.7275   -8.2878   -3.9852 H   0  0  0  0  0  0  0  0  0  0  0  0
    3.5125  -10.5078   -1.6784 H   0  0  0  0  0  0  0  0  0  0  0  0
    4.7809   -9.5834   -2.5417 H   0  0  0  0  0  0  0  0  0  0  0  0
    3.9337   -9.4198    0.3967 H   0  0  0  0  0  0  0  0  0  0  0  0
    5.4697   -9.8220   -0.1460 H   0  0  0  0  0  0  0  0  0  0  0  0
    4.9109   -8.1315   -0.3301 H   0  0  0  0  0  0  0  0  0  0  0  0
    1.3662   -8.0084   -1.4316 H   0  0  0  0  0  0  0  0  0  0  0  0
    1.3518   -9.5779   -1.0890 H   0  0  0  0  0  0  0  0  0  0  0  0
    2.5962   -6.9570    0.2114 H   0  0  0  0  0  0  0  0  0  0  0  0
    1.1833   -7.7744    0.7800 H   0  0  0  0  0  0  0  0  0  0  0  0
    2.5975   -8.5082    1.1279 H   0  0  0  0  0  0  0  0  0  0  0  0
  1  2  1  0  0  0  0
  1 36  1  0  0  0  0
  1 37  1  0  0  0  0
  1 38  1  0  0  0  0
  2  3  1  0  0  0  0
  2 39  1  0  0  0  0
  2 40  1  0  0  0  0
  3  4  1  0  0  0  0
  3 41  1  0  0  0  0
  3 42  1  0  0  0  0
  4  5  1  0  0  0  0
  4 43  1  0  0  0  0
  4 44  1  0  0  0  0
  5  6  1  0  0  0  0
  5 45  1  0  0  0  0
  5 46  1  0  0  0  0
  6  7  1  0  0  0  0
  6 47  1  0  0  0  0
  6 48  1  0  0  0  0
  7  8  1  0  0  0  0
  7 49  1  0  0  0  0
  7 50  1  0  0  0  0
  8  9  1  0  0  0  0
  8 51  1  0  0  0  0
  8 52  1  0  0  0  0
  9 10  1  0  0  0  0
 10 11  2  0  0  0  0
 10 15  1  0  0  0  0
 11 12  1  0  0  0  0
 11 53  1  0  0  0  0
 12 13  2  0  0  0  0
 12 54  1  0  0  0  0
 13 14  1  0  0  0  0
 13 55  1  0  0  0  0
 14 15  2  0  0  0  0
 14 56  1  0  0  0  0
 15 16  1  0  0  0  0
 16 17  2  0  0  0  0
 16 18  1  0  0  0  0
 18 19  1  0  0  0  0
 18 57  1  0  0  0  0
 19 20  2  0  0  0  0
 19 24  1  0  0  0  0
 20 21  1  0  0  0  0
 20 58  1  0  0  0  0
 21 22  2  0  0  0  0
 21 59  1  0  0  0  0
 22 23  1  0  0  0  0
 22 25  1  0  0  0  0
 23 24  2  0  0  0  0
 23 60  1  0  0  0  0
 24 61  1  0  0  0  0
 25 26  2  0  0  0  0
 25 27  1  0  0  0  0
 27 28  1  0  0  0  0
 28 29  1  0  0  0  0
 28 62  1  0  0  0  0
 28 63  1  0  0  0  0
 29 30  1  0  0  0  0
 29 64  1  0  0  0  0
 29 65  1  0  0  0  0
 30 31  1  0  0  0  0
 30 32  1  0  0  0  0
 30 34  1  0  0  0  0
 31 66  1  0  0  0  0
 31 67  1  0  0  0  0
 31 68  1  0  0  0  0
 32 33  1  0  0  0  0
 32 69  1  0  0  0  0
 32 70  1  0  0  0  0
 33 71  1  0  0  0  0
 33 72  1  0  0  0  0
 33 73  1  0  0  0  0
 34 35  1  0  0  0  0
 34 74  1  0  0  0  0
 34 75  1  0  0  0  0
 35 76  1  0  0  0  0
 35 77  1  0  0  0  0
 35 78  1  0  0  0  0
M  CHG  1  30   1
M  END
>  <DRUGBANK_ID>
DB13500

>  <COMMON_NAME>
Otilonium

>  <CAS_NUMBER>
105360-89-2

>  <UNII>
6330179ARU

$$$$
