361
 OpenBabel10282417163D

 36 39  0  0  0  0  0  0  0  0999 V2000
    3.0986    7.1854    1.0617 F   0  0  0  0  0  0  0  0  0  0  0  0
    2.2307    6.2283    0.7049 C   0  0  0  0  0  0  0  0  0  0  0  0
    0.9624    6.5737    0.2527 C   0  0  0  0  0  0  0  0  0  0  0  0
    0.5832    7.8582    0.2196 F   0  0  0  0  0  0  0  0  0  0  0  0
    2.6393    4.8937    0.7346 C   0  0  0  0  0  0  0  0  0  0  0  0
    1.7767    3.8831    0.2727 C   0  0  0  0  0  0  0  0  0  0  0  0
    0.5007    4.2675   -0.1841 C   0  0  0  0  0  0  0  0  0  0  0  0
   -0.3180    3.3519   -0.7239 F   0  0  0  0  0  0  0  0  0  0  0  0
    0.0875    5.5956   -0.1940 C   0  0  0  0  0  0  0  0  0  0  0  0
    2.2706    2.4840   -0.0698 C   0  0  2  0  0  0  0  0  0  0  0  0
    2.7495    1.4452    0.9952 C   0  0  1  0  0  0  0  0  0  0  0  0
    1.8115    1.2693    2.1147 N   0  0  0  0  0  0  0  0  0  0  0  0
    2.9594    0.0937    0.2375 C   0  0  0  0  0  0  0  0  0  0  0  0
    3.7300    0.2480   -0.9862 N   0  0  0  0  0  0  0  0  0  0  0  0
    4.3059   -0.7339   -1.7436 C   0  0  0  0  0  0  0  0  0  0  0  0
    4.9151   -0.0425   -2.7925 C   0  0  0  0  0  0  0  0  0  0  0  0
    4.6823    1.3032   -2.6931 N   0  0  0  0  0  0  0  0  0  0  0  0
    3.9360    1.4406   -1.6173 C   0  0  0  0  0  0  0  0  0  0  0  0
    3.4156    2.7052   -1.0794 C   0  0  0  0  0  0  0  0  0  0  0  0
    5.6310   -0.7633   -3.7512 C   0  0  0  0  0  0  0  0  0  0  0  0
    5.7123   -2.1169   -3.6636 N   0  0  0  0  0  0  0  0  0  0  0  0
    5.0869   -2.7420   -2.6368 C   0  0  0  0  0  0  0  0  0  0  0  0
    4.3608   -2.1154   -1.6330 C   0  0  0  0  0  0  0  0  0  0  0  0
    1.4410    1.9795   -0.5860 H   0  0  0  0  0  0  0  0  0  0  0  0
    3.7091    1.7676    1.4217 H   0  0  0  0  0  0  0  0  0  0  0  0
    3.6655    4.6820    1.0222 H   0  0  0  0  0  0  0  0  0  0  0  0
   -0.8855    5.8642   -0.5884 H   0  0  0  0  0  0  0  0  0  0  0  0
    2.2814    0.8218    2.9052 H   0  0  0  0  0  0  0  0  0  0  0  0
    1.0520    0.6357    1.8590 H   0  0  0  0  0  0  0  0  0  0  0  0
    3.4638   -0.6472    0.8671 H   0  0  0  0  0  0  0  0  0  0  0  0
    1.9916   -0.3232   -0.0743 H   0  0  0  0  0  0  0  0  0  0  0  0
    4.2594    3.2163   -0.5980 H   0  0  0  0  0  0  0  0  0  0  0  0
    3.0747    3.3446   -1.9019 H   0  0  0  0  0  0  0  0  0  0  0  0
    6.1329   -0.2852   -4.5829 H   0  0  0  0  0  0  0  0  0  0  0  0
    5.1903   -3.8233   -2.6372 H   0  0  0  0  0  0  0  0  0  0  0  0
    3.8788   -2.6631   -0.8353 H   0  0  0  0  0  0  0  0  0  0  0  0
  1  2  1  0  0  0  0
  2  3  2  0  0  0  0
  2  5  1  0  0  0  0
  3  4  1  0  0  0  0
  3  9  1  0  0  0  0
  5  6  2  0  0  0  0
  5 26  1  0  0  0  0
  6  7  1  0  0  0  0
  7  8  1  0  0  0  0
  7  9  2  0  0  0  0
  9 27  1  0  0  0  0
 10 11  1  0  0  0  0
 10 19  1  0  0  0  0
 10 24  1  6  0  0  0
 10  6  1  0  0  0  0
 11 13  1  0  0  0  0
 11 25  1  1  0  0  0
 11 12  1  0  0  0  0
 12 28  1  0  0  0  0
 12 29  1  0  0  0  0
 13 14  1  0  0  0  0
 13 30  1  0  0  0  0
 13 31  1  0  0  0  0
 14 15  1  0  0  0  0
 14 18  1  0  0  0  0
 15 16  2  0  0  0  0
 15 23  1  0  0  0  0
 16 17  1  0  0  0  0
 16 20  1  0  0  0  0
 17 18  2  0  0  0  0
 18 19  1  0  0  0  0
 19 32  1  0  0  0  0
 19 33  1  0  0  0  0
 20 21  2  0  0  0  0
 20 34  1  0  0  0  0
 21 22  1  0  0  0  0
 22 23  2  0  0  0  0
 22 35  1  0  0  0  0
 23 36  1  0  0  0  0
M  END
>  <DRUGBANK_ID>
DB07021

>  <COMMON_NAME>
(7R,8R)-8-(2,4,5-trifluorophenyl)-6,7,8,9-tetrahydroimidazo[1,2-a:4,5-c']dipyridin-7-amine

$$$$
