IBM
 OpenBabel10282417173D

 30 31  0  0  0  0  0  0  0  0999 V2000
   -1.5621    0.9195    0.3717 N   0  0  0  0  0  0  0  0  0  0  0  0
   -2.3174   -0.1943    0.1193 C   0  0  0  0  0  0  0  0  0  0  0  0
   -1.5608   -1.2618    0.0061 N   0  0  0  0  0  0  0  0  0  0  0  0
   -0.2680   -0.7878    0.0776 C   0  0  0  0  0  0  0  0  0  0  0  0
   -0.2514    0.5773    0.1799 C   0  0  0  0  0  0  0  0  0  0  0  0
    0.8732    1.3823    0.0727 N   0  0  0  0  0  0  0  0  0  0  0  0
    2.1213    0.7197    0.0085 C   0  0  0  0  0  0  0  0  0  0  0  0
    2.1077   -0.6895    0.0030 N   0  0  0  0  0  0  0  0  0  0  0  0
    0.9715   -1.5170    0.0014 C   0  0  0  0  0  0  0  0  0  0  0  0
    1.0232   -2.7480   -0.0361 O   0  0  0  0  0  0  0  0  0  0  0  0
    3.1810    1.3511   -0.0320 O   0  0  0  0  0  0  0  0  0  0  0  0
    3.3821   -1.3816   -0.0134 C   0  0  0  0  0  0  0  0  0  0  0  0
    0.8598    2.8517   -0.0070 C   0  0  0  0  0  0  0  0  0  0  0  0
    0.2401    3.4325   -1.3053 C   0  0  0  0  0  0  0  0  0  0  0  0
   -1.2212    3.0624   -1.5092 C   0  0  0  0  0  0  0  0  0  0  0  0
    0.2887    4.9587   -1.2768 C   0  0  0  0  0  0  0  0  0  0  0  0
   -1.9460    1.8412    0.4997 H   0  0  0  0  0  0  0  0  0  0  0  0
   -3.3966   -0.1507    0.0328 H   0  0  0  0  0  0  0  0  0  0  0  0
    3.4448   -2.0229    0.8723 H   0  0  0  0  0  0  0  0  0  0  0  0
    3.4354   -2.0162   -0.9039 H   0  0  0  0  0  0  0  0  0  0  0  0
    4.2383   -0.7029   -0.0126 H   0  0  0  0  0  0  0  0  0  0  0  0
    0.3588    3.2316    0.8899 H   0  0  0  0  0  0  0  0  0  0  0  0
    1.8914    3.2275    0.0485 H   0  0  0  0  0  0  0  0  0  0  0  0
    0.8080    3.0653   -2.1693 H   0  0  0  0  0  0  0  0  0  0  0  0
   -1.7993    3.3689   -0.6305 H   0  0  0  0  0  0  0  0  0  0  0  0
   -1.6797    3.5486   -2.3712 H   0  0  0  0  0  0  0  0  0  0  0  0
   -1.3142    1.9964   -1.7117 H   0  0  0  0  0  0  0  0  0  0  0  0
    1.3160    5.3277   -1.2621 H   0  0  0  0  0  0  0  0  0  0  0  0
   -0.2121    5.3687   -2.1615 H   0  0  0  0  0  0  0  0  0  0  0  0
   -0.2351    5.3435   -0.3938 H   0  0  0  0  0  0  0  0  0  0  0  0
  1  2  1  0  0  0  0
  1  5  1  0  0  0  0
  1 17  1  0  0  0  0
  2  3  2  0  0  0  0
  2 18  1  0  0  0  0
  3  4  1  0  0  0  0
  4  5  2  0  0  0  0
  4  9  1  0  0  0  0
  5  6  1  0  0  0  0
  6  7  1  0  0  0  0
  6 13  1  0  0  0  0
  7  8  1  0  0  0  0
  7 11  2  0  0  0  0
  8  9  1  0  0  0  0
  8 12  1  0  0  0  0
  9 10  2  0  0  0  0
 12 19  1  0  0  0  0
 12 20  1  0  0  0  0
 12 21  1  0  0  0  0
 13 14  1  0  0  0  0
 13 22  1  0  0  0  0
 13 23  1  0  0  0  0
 14 15  1  0  0  0  0
 14 16  1  0  0  0  0
 14 24  1  0  0  0  0
 15 25  1  0  0  0  0
 15 26  1  0  0  0  0
 15 27  1  0  0  0  0
 16 28  1  0  0  0  0
 16 29  1  0  0  0  0
 16 30  1  0  0  0  0
M  END
>  <DRUGBANK_ID>
DB07954

>  <COMMON_NAME>
3-isobutyl-1-methyl-7H-xanthine

>  <CAS_NUMBER>
28822-58-4

>  <UNII>
TBT296U68M

>  <SYNONYMS>
1-methyl-3-(2-methylpropyl)-7H-purine-2,6-dione; 1-methyl-3-isobutylxanthine; 3-isobutyl-1-methyl-3,7-dihydro-1H-purine-2,6-dione; 3-isobutyl-1-methylxanthine; 3-Isobutyl-1-methyxanthine; IBMX

$$$$
