
 OpenBabel10282417203D

 58 60  0  0  0  0  0  0  0  0999 V2000
   -1.5190    0.3080   -0.3637 C   0  0  0  0  0  0  0  0  0  0  0  0
   -1.0965   -1.1292   -0.0320 C   0  0  0  0  0  0  0  0  0  0  0  0
    0.3815   -1.3824   -0.3035 C   0  0  0  0  0  0  0  0  0  0  0  0
    1.3250   -0.3016    0.2819 C   0  0  0  0  0  0  0  0  0  0  0  0
    0.8881    1.0566   -0.3332 C   0  0  0  0  0  0  0  0  0  0  0  0
   -0.5475    1.4324   -0.0287 C   0  0  0  0  0  0  0  0  0  0  0  0
    1.4762   -0.3161    1.8739 C   0  0  0  0  0  0  0  0  0  0  0  0
    1.9556   -1.7158    2.3318 C   0  0  0  0  0  0  0  0  0  0  0  0
    1.9047   -1.9123    3.8465 C   0  0  0  0  0  0  0  0  0  0  0  0
    0.5311   -1.5746    4.4199 C   0  0  0  0  0  0  0  0  0  0  0  0
    0.0981   -0.1653    4.0905 C   0  0  0  0  0  0  0  0  0  0  0  0
    0.1909    0.0820    2.6114 C   0  0  0  0  0  0  0  0  0  0  0  0
    2.4781    0.7903    2.2446 C   0  0  0  0  0  0  0  0  0  0  0  0
    2.8449    1.6417    1.4682 O   0  0  0  0  0  0  0  0  0  0  0  0
    2.7722    0.8052    3.5736 O   0  0  0  0  0  0  0  0  0  0  0  0
    3.6611    1.8391    4.0276 C   0  0  0  0  0  0  0  0  0  0  0  0
    5.1043    1.5251    3.6039 C   0  0  0  0  0  0  0  0  0  0  0  0
    5.2531    1.5543    2.1573 N   0  0  0  0  0  0  0  0  0  0  0  0
    5.5753    2.8580    1.5996 C   0  0  0  0  0  0  0  0  0  0  0  0
    5.4262    2.8942    0.0768 C   0  0  0  0  0  0  0  0  0  0  0  0
    6.1810    1.7436   -0.5754 C   0  0  0  0  0  0  0  0  0  0  0  0
    5.7620    0.4112    0.0333 C   0  0  0  0  0  0  0  0  0  0  0  0
    5.9174    0.4191    1.5563 C   0  0  0  0  0  0  0  0  0  0  0  0
   -1.6633    0.3492   -1.4460 H   0  0  0  0  0  0  0  0  0  0  0  0
   -2.4809    0.5260    0.1106 H   0  0  0  0  0  0  0  0  0  0  0  0
   -1.3679   -1.4265    0.9816 H   0  0  0  0  0  0  0  0  0  0  0  0
   -1.7057   -1.8273   -0.6136 H   0  0  0  0  0  0  0  0  0  0  0  0
    0.6603   -2.3885    0.0219 H   0  0  0  0  0  0  0  0  0  0  0  0
    0.5112   -1.4018   -1.3940 H   0  0  0  0  0  0  0  0  0  0  0  0
    2.3260   -0.5215   -0.1282 H   0  0  0  0  0  0  0  0  0  0  0  0
    1.5153    1.8997   -0.0502 H   0  0  0  0  0  0  0  0  0  0  0  0
    1.0208    1.0078   -1.4209 H   0  0  0  0  0  0  0  0  0  0  0  0
   -0.7984    2.3458   -0.5779 H   0  0  0  0  0  0  0  0  0  0  0  0
   -0.6823    1.7613    0.9973 H   0  0  0  0  0  0  0  0  0  0  0  0
    1.3078   -2.4951    1.9142 H   0  0  0  0  0  0  0  0  0  0  0  0
    2.9649   -1.9271    1.9536 H   0  0  0  0  0  0  0  0  0  0  0  0
    2.1548   -2.9498    4.0852 H   0  0  0  0  0  0  0  0  0  0  0  0
    2.6708   -1.3036    4.3294 H   0  0  0  0  0  0  0  0  0  0  0  0
   -0.2090   -2.2759    4.0129 H   0  0  0  0  0  0  0  0  0  0  0  0
    0.5329   -1.6854    5.5056 H   0  0  0  0  0  0  0  0  0  0  0  0
   -0.9494   -0.0061    4.3770 H   0  0  0  0  0  0  0  0  0  0  0  0
    0.6749    0.5899    4.6282 H   0  0  0  0  0  0  0  0  0  0  0  0
    0.0098    1.1453    2.5115 H   0  0  0  0  0  0  0  0  0  0  0  0
   -0.6501   -0.4629    2.2314 H   0  0  0  0  0  0  0  0  0  0  0  0
    3.3067    2.8281    3.7119 H   0  0  0  0  0  0  0  0  0  0  0  0
    3.6081    1.8208    5.1228 H   0  0  0  0  0  0  0  0  0  0  0  0
    5.7958    2.2269    4.0777 H   0  0  0  0  0  0  0  0  0  0  0  0
    5.3360    0.5227    3.9823 H   0  0  0  0  0  0  0  0  0  0  0  0
    6.6034    3.1123    1.8732 H   0  0  0  0  0  0  0  0  0  0  0  0
    4.9197    3.6320    2.0192 H   0  0  0  0  0  0  0  0  0  0  0  0
    5.8078    3.8498   -0.2994 H   0  0  0  0  0  0  0  0  0  0  0  0
    4.3676    2.8477   -0.2113 H   0  0  0  0  0  0  0  0  0  0  0  0
    6.0003    1.7393   -1.6555 H   0  0  0  0  0  0  0  0  0  0  0  0
    7.2564    1.8866   -0.4223 H   0  0  0  0  0  0  0  0  0  0  0  0
    4.7213    0.1957   -0.2454 H   0  0  0  0  0  0  0  0  0  0  0  0
    6.3725   -0.3963   -0.3846 H   0  0  0  0  0  0  0  0  0  0  0  0
    5.4805   -0.5149    1.9336 H   0  0  0  0  0  0  0  0  0  0  0  0
    6.9746    0.4348    1.8308 H   0  0  0  0  0  0  0  0  0  0  0  0
  1  2  1  0  0  0  0
  1  6  1  0  0  0  0
  1 24  1  0  0  0  0
  1 25  1  0  0  0  0
  2  3  1  0  0  0  0
  2 26  1  0  0  0  0
  2 27  1  0  0  0  0
  3  4  1  0  0  0  0
  3 28  1  0  0  0  0
  3 29  1  0  0  0  0
  4  5  1  0  0  0  0
  4  7  1  0  0  0  0
  4 30  1  0  0  0  0
  5  6  1  0  0  0  0
  5 31  1  0  0  0  0
  5 32  1  0  0  0  0
  6 33  1  0  0  0  0
  6 34  1  0  0  0  0
  7  8  1  0  0  0  0
  7 12  1  0  0  0  0
  7 13  1  0  0  0  0
  8  9  1  0  0  0  0
  8 35  1  0  0  0  0
  8 36  1  0  0  0  0
  9 10  1  0  0  0  0
  9 37  1  0  0  0  0
  9 38  1  0  0  0  0
 10 11  1  0  0  0  0
 10 39  1  0  0  0  0
 10 40  1  0  0  0  0
 11 12  1  0  0  0  0
 11 41  1  0  0  0  0
 11 42  1  0  0  0  0
 12 43  1  0  0  0  0
 12 44  1  0  0  0  0
 13 14  2  0  0  0  0
 13 15  1  0  0  0  0
 15 16  1  0  0  0  0
 16 17  1  0  0  0  0
 16 45  1  0  0  0  0
 16 46  1  0  0  0  0
 17 18  1  0  0  0  0
 17 47  1  0  0  0  0
 17 48  1  0  0  0  0
 18 19  1  0  0  0  0
 18 23  1  0  0  0  0
 19 20  1  0  0  0  0
 19 49  1  0  0  0  0
 19 50  1  0  0  0  0
 20 21  1  0  0  0  0
 20 51  1  0  0  0  0
 20 52  1  0  0  0  0
 21 22  1  0  0  0  0
 21 53  1  0  0  0  0
 21 54  1  0  0  0  0
 22 23  1  0  0  0  0
 22 55  1  0  0  0  0
 22 56  1  0  0  0  0
 23 57  1  0  0  0  0
 23 58  1  0  0  0  0
M  END
>  <DRUGBANK_ID>
DB13678

>  <COMMON_NAME>
Dihexyverine

>  <CAS_NUMBER>
561-77-3

>  <UNII>
J2FQ66RU9W

>  <SYNONYMS>
Dihexyverine

$$$$
