
 OpenBabel10282417223D

 92 94  0  0  0  0  0  0  0  0999 V2000
    1.0844    0.2055   -0.0340 O   0  0  0  0  0  0  0  0  0  0  0  0
    2.5372   -0.1495    0.1534 C   0  0  0  0  0  0  0  0  0  0  0  0
    0.1257    1.3538   -0.2780 C   0  0  0  0  0  0  0  0  0  0  0  0
   -1.0808    1.1578   -0.0166 O   0  0  0  0  0  0  0  0  0  0  0  0
    0.5617    2.8322   -0.6367 C   0  0  0  0  0  0  0  0  0  0  0  0
    3.1034   -1.4012    0.0725 C   0  0  0  0  0  0  0  0  0  0  0  0
    4.7407    0.9480    0.1998 C   0  0  0  0  0  0  0  0  0  0  0  0
    3.3915    0.9170    0.4117 C   0  0  0  0  0  0  0  0  0  0  0  0
    2.7832    2.1505    0.8044 C   0  0  0  0  0  0  0  0  0  0  0  0
    5.4209    2.2754    0.1085 C   0  0  0  0  0  0  0  0  0  0  0  0
    2.3119   -2.6644    0.1452 C   0  0  0  0  0  0  0  0  0  0  0  0
    5.3277   -0.2731    0.1108 C   0  0  0  0  0  0  0  0  0  0  0  0
    4.5322   -1.4485    0.0701 C   0  0  0  0  0  0  0  0  0  0  0  0
    5.2344   -2.7713    0.1251 C   0  0  0  0  0  0  0  0  0  0  0  0
    6.6847   -2.5940   -0.2377 C   0  0  0  0  0  0  0  0  0  0  0  0
    7.3029   -1.4633    0.5843 C   0  0  2  0  0  0  0  0  0  0  0  0
    6.6858   -0.2369    0.2177 O   0  0  0  0  0  0  0  0  0  0  0  0
    8.8098   -1.4087    0.2632 C   0  0  0  0  0  0  0  0  0  0  0  0
    9.0992   -1.1946   -1.2308 C   0  0  0  0  0  0  0  0  0  0  0  0
    8.5498    0.1419   -1.7460 C   0  0  0  0  0  0  0  0  0  0  0  0
    9.1488    1.3166   -0.9520 C   0  0  1  0  0  0  0  0  0  0  0  0
   10.6693    1.3244   -1.1883 C   0  0  0  0  0  0  0  0  0  0  0  0
   11.0136    1.4582   -2.6793 C   0  0  0  0  0  0  0  0  0  0  0  0
   10.5214    2.7756   -3.2781 C   0  0  0  0  0  0  0  0  0  0  0  0
   11.0169    3.9659   -2.4357 C   0  0  1  0  0  0  0  0  0  0  0  0
   12.5365    4.0168   -2.6443 C   0  0  0  0  0  0  0  0  0  0  0  0
   12.9136    4.1420   -4.1271 C   0  0  0  0  0  0  0  0  0  0  0  0
   12.4361    5.4544   -4.7446 C   0  0  0  0  0  0  0  0  0  0  0  0
   12.9093    6.6466   -3.9028 C   0  0  0  0  0  0  0  0  0  0  0  0
   14.4239    6.7029   -4.0241 C   0  0  0  0  0  0  0  0  0  0  0  0
    7.1284   -1.5786    2.1007 C   0  0  0  0  0  0  0  0  0  0  0  0
    8.4378    2.6230   -1.2707 C   0  0  0  0  0  0  0  0  0  0  0  0
   10.1962    5.2363   -2.6728 C   0  0  0  0  0  0  0  0  0  0  0  0
   12.2388    7.9387   -4.3290 C   0  0  0  0  0  0  0  0  0  0  0  0
    1.5811    3.1800   -1.5925 C   0  0  0  0  0  0  0  0  0  0  0  0
    2.4386    4.2984   -1.3599 C   0  0  0  0  0  0  0  0  0  0  0  0
    2.1896    5.1180   -0.2671 C   0  0  0  0  0  0  0  0  0  0  0  0
    1.1730    4.8884    0.5976 N   0  0  0  0  0  0  0  0  0  0  0  0
    0.3969    3.7653    0.4053 C   0  0  0  0  0  0  0  0  0  0  0  0
    2.2994    2.0578   -0.1163 H   0  0  0  0  0  0  0  0  0  0  0  0
    2.0973    2.1121    1.6367 H   0  0  0  0  0  0  0  0  0  0  0  0
    3.3020    3.0796    0.6677 H   0  0  0  0  0  0  0  0  0  0  0  0
    5.2210    2.7554   -0.8674 H   0  0  0  0  0  0  0  0  0  0  0  0
    5.1334    2.9816    0.8905 H   0  0  0  0  0  0  0  0  0  0  0  0
    6.4643    2.1485    0.3219 H   0  0  0  0  0  0  0  0  0  0  0  0
    2.5373   -3.3015   -0.7143 H   0  0  0  0  0  0  0  0  0  0  0  0
    2.5758   -3.1979    1.0685 H   0  0  0  0  0  0  0  0  0  0  0  0
    1.2383   -2.4749    0.1665 H   0  0  0  0  0  0  0  0  0  0  0  0
    4.7848   -3.4745   -0.5764 H   0  0  0  0  0  0  0  0  0  0  0  0
    5.1451   -3.1654    1.1411 H   0  0  0  0  0  0  0  0  0  0  0  0
    6.7115   -2.3381   -1.3084 H   0  0  0  0  0  0  0  0  0  0  0  0
    7.2347   -3.5254   -0.0977 H   0  0  0  0  0  0  0  0  0  0  0  0
    9.2994   -0.6281    0.8589 H   0  0  0  0  0  0  0  0  0  0  0  0
    9.2824   -2.3428    0.5850 H   0  0  0  0  0  0  0  0  0  0  0  0
   10.1796   -1.2668   -1.3945 H   0  0  0  0  0  0  0  0  0  0  0  0
    8.6955   -2.0125   -1.8323 H   0  0  0  0  0  0  0  0  0  0  0  0
    8.7450    0.2297   -2.8173 H   0  0  0  0  0  0  0  0  0  0  0  0
    7.4616    0.1716   -1.7311 H   0  0  0  0  0  0  0  0  0  0  0  0
    8.9887    1.1909    0.1242 H   0  0  0  0  0  0  0  0  0  0  0  0
   11.1466    2.0881   -0.5672 H   0  0  0  0  0  0  0  0  0  0  0  0
   11.1312    0.4070   -0.8057 H   0  0  0  0  0  0  0  0  0  0  0  0
   12.0937    1.3498   -2.8066 H   0  0  0  0  0  0  0  0  0  0  0  0
   10.6100    0.6294   -3.2658 H   0  0  0  0  0  0  0  0  0  0  0  0
   10.8182    2.8348   -4.3219 H   0  0  0  0  0  0  0  0  0  0  0  0
    9.4601    2.7899   -3.4672 H   0  0  0  0  0  0  0  0  0  0  0  0
   10.8858    3.8150   -1.3607 H   0  0  0  0  0  0  0  0  0  0  0  0
   12.9893    4.7833   -2.0103 H   0  0  0  0  0  0  0  0  0  0  0  0
   12.9937    3.0980   -2.2530 H   0  0  0  0  0  0  0  0  0  0  0  0
   13.9927    4.0260   -4.2314 H   0  0  0  0  0  0  0  0  0  0  0  0
   12.5369    3.3098   -4.7263 H   0  0  0  0  0  0  0  0  0  0  0  0
   12.8071    5.5292   -5.7704 H   0  0  0  0  0  0  0  0  0  0  0  0
   11.3594    5.4563   -4.9004 H   0  0  0  0  0  0  0  0  0  0  0  0
   12.6669    6.5385   -2.8413 H   0  0  0  0  0  0  0  0  0  0  0  0
   14.7015    6.7837   -5.0786 H   0  0  0  0  0  0  0  0  0  0  0  0
   14.8397    7.5380   -3.4636 H   0  0  0  0  0  0  0  0  0  0  0  0
   14.8843    5.7914   -3.6268 H   0  0  0  0  0  0  0  0  0  0  0  0
    7.5511   -2.5125    2.4673 H   0  0  0  0  0  0  0  0  0  0  0  0
    7.6021   -0.7278    2.6071 H   0  0  0  0  0  0  0  0  0  0  0  0
    6.0755   -1.5233    2.3979 H   0  0  0  0  0  0  0  0  0  0  0  0
    7.4116    2.6177   -0.9975 H   0  0  0  0  0  0  0  0  0  0  0  0
    8.8894    3.4740   -0.7605 H   0  0  0  0  0  0  0  0  0  0  0  0
    8.2586    2.8056   -2.3156 H   0  0  0  0  0  0  0  0  0  0  0  0
    9.1914    5.1587   -2.2481 H   0  0  0  0  0  0  0  0  0  0  0  0
   10.6677    6.1036   -2.2033 H   0  0  0  0  0  0  0  0  0  0  0  0
   10.0010    5.4334   -3.7205 H   0  0  0  0  0  0  0  0  0  0  0  0
   11.1602    7.9000   -4.1330 H   0  0  0  0  0  0  0  0  0  0  0  0
   12.6457    8.7786   -3.7570 H   0  0  0  0  0  0  0  0  0  0  0  0
   12.3926    8.1214   -5.3932 H   0  0  0  0  0  0  0  0  0  0  0  0
    2.0055    2.4044   -2.2378 H   0  0  0  0  0  0  0  0  0  0  0  0
    3.4190    4.3683   -1.8428 H   0  0  0  0  0  0  0  0  0  0  0  0
    2.8938    5.9008    0.0260 H   0  0  0  0  0  0  0  0  0  0  0  0
   -0.2223    3.5370    1.2737 H   0  0  0  0  0  0  0  0  0  0  0  0
  1  3  1  0  0  0  0
  1  2  1  0  0  0  0
  2  6  2  0  0  0  0
  3  5  1  0  0  0  0
  3  4  2  0  0  0  0
  5 35  2  0  0  0  0
  5 39  1  0  0  0  0
  6 11  1  0  0  0  0
  6 13  1  0  0  0  0
  7 10  1  0  0  0  0
  7  8  2  0  0  0  0
  8  9  1  0  0  0  0
  8  2  1  0  0  0  0
  9 40  1  0  0  0  0
  9 41  1  0  0  0  0
  9 42  1  0  0  0  0
 10 43  1  0  0  0  0
 10 44  1  0  0  0  0
 10 45  1  0  0  0  0
 11 46  1  0  0  0  0
 11 47  1  0  0  0  0
 11 48  1  0  0  0  0
 12 13  2  0  0  0  0
 12  7  1  0  0  0  0
 12 17  1  0  0  0  0
 13 14  1  0  0  0  0
 14 15  1  0  0  0  0
 14 49  1  0  0  0  0
 14 50  1  0  0  0  0
 15 16  1  0  0  0  0
 15 51  1  0  0  0  0
 15 52  1  0  0  0  0
 16 31  1  1  0  0  0
 16 17  1  0  0  0  0
 16 18  1  0  0  0  0
 18 19  1  0  0  0  0
 18 53  1  0  0  0  0
 18 54  1  0  0  0  0
 19 20  1  0  0  0  0
 19 55  1  0  0  0  0
 19 56  1  0  0  0  0
 20 21  1  0  0  0  0
 20 57  1  0  0  0  0
 20 58  1  0  0  0  0
 21 22  1  0  0  0  0
 21 32  1  0  0  0  0
 21 59  1  1  0  0  0
 22 23  1  0  0  0  0
 22 60  1  0  0  0  0
 22 61  1  0  0  0  0
 23 24  1  0  0  0  0
 23 62  1  0  0  0  0
 23 63  1  0  0  0  0
 24 25  1  0  0  0  0
 24 64  1  0  0  0  0
 24 65  1  0  0  0  0
 25 26  1  0  0  0  0
 25 33  1  0  0  0  0
 25 66  1  1  0  0  0
 26 27  1  0  0  0  0
 26 67  1  0  0  0  0
 26 68  1  0  0  0  0
 27 28  1  0  0  0  0
 27 69  1  0  0  0  0
 27 70  1  0  0  0  0
 28 29  1  0  0  0  0
 28 71  1  0  0  0  0
 28 72  1  0  0  0  0
 29 30  1  0  0  0  0
 29 34  1  0  0  0  0
 29 73  1  0  0  0  0
 30 74  1  0  0  0  0
 30 75  1  0  0  0  0
 30 76  1  0  0  0  0
 31 77  1  0  0  0  0
 31 78  1  0  0  0  0
 31 79  1  0  0  0  0
 32 80  1  0  0  0  0
 32 81  1  0  0  0  0
 32 82  1  0  0  0  0
 33 83  1  0  0  0  0
 33 84  1  0  0  0  0
 33 85  1  0  0  0  0
 34 86  1  0  0  0  0
 34 87  1  0  0  0  0
 34 88  1  0  0  0  0
 35 36  1  0  0  0  0
 35 89  1  0  0  0  0
 36 37  2  0  0  0  0
 36 90  1  0  0  0  0
 37 38  1  0  0  0  0
 37 91  1  0  0  0  0
 38 39  2  0  0  0  0
 39 92  1  0  0  0  0
M  END
>  <DRUGBANK_ID>
DB15921

>  <COMMON_NAME>
Tocopheryl nicotinate

>  <CAS_NUMBER>
43119-47-7

>  <UNII>
WI1J5UCY5C

>  <SYNONYMS>
Alpha-tocopheryl nicotinate; Tocoferil nicotinate; Tocopherol nicotinate; Vitamin E nicotinate; Vitamin E nicotinic acid ester

$$$$
