
 OpenBabel10282417173D

 38 39  0  0  0  0  0  0  0  0999 V2000
    1.0252   -0.1221    0.0118 C   0  0  0  0  0  0  0  0  0  0  0  0
    1.0596    4.5810   -2.4580 C   0  0  0  0  0  0  0  0  0  0  0  0
    1.3820    4.2719   -1.0011 C   0  0  0  0  0  0  0  0  0  0  0  0
    1.6751    3.5109   -3.3538 C   0  0  0  0  0  0  0  0  0  0  0  0
    0.9404    2.8682   -0.6780 C   0  0  0  0  0  0  0  0  0  0  0  0
    1.1180    2.1097   -3.0573 C   0  0  0  0  0  0  0  0  0  0  0  0
   -2.0106    2.7211   -0.3530 C   0  0  0  0  0  0  0  0  0  0  0  0
   -2.2128    3.0255    2.0247 C   0  0  0  0  0  0  0  0  0  0  0  0
   -0.9791    0.5381   -1.2674 C   0  0  0  0  0  0  0  0  0  0  0  0
   -1.7508    1.3340   -0.1907 C   0  0  0  0  0  0  0  0  0  0  0  0
   -2.0806    3.5636    0.7533 C   0  0  0  0  0  0  0  0  0  0  0  0
    1.3086    1.7058   -1.5783 C   0  0  0  0  0  0  0  0  0  0  0  0
   -2.3618    1.6426    2.1272 C   0  0  0  0  0  0  0  0  0  0  0  0
   -2.1430    0.7721    1.0388 C   0  0  0  0  0  0  0  0  0  0  0  0
   -1.8612    5.4407    0.5995 Br  0  0  0  0  0  0  0  0  0  0  0  0
   -2.9353    0.9813    3.8166 Br  0  0  0  0  0  0  0  0  0  0  0  0
   -2.0965   -0.6205    1.2492 N   0  0  0  0  0  0  0  0  0  0  0  0
    0.5265    0.4851   -1.2271 N   0  0  0  0  0  0  0  0  0  0  0  0
    0.6510   -1.1444    0.1303 H   0  0  0  0  0  0  0  0  0  0  0  0
    0.7553    0.4550    0.9006 H   0  0  0  0  0  0  0  0  0  0  0  0
    2.1200   -0.2025   -0.0023 H   0  0  0  0  0  0  0  0  0  0  0  0
   -0.0301    4.6147   -2.6174 H   0  0  0  0  0  0  0  0  0  0  0  0
    1.4371    5.5766   -2.7066 H   0  0  0  0  0  0  0  0  0  0  0  0
    2.4350    4.4142   -0.7659 H   0  0  0  0  0  0  0  0  0  0  0  0
    0.8120    4.9635   -0.3716 H   0  0  0  0  0  0  0  0  0  0  0  0
    1.4871    3.7645   -4.4013 H   0  0  0  0  0  0  0  0  0  0  0  0
    2.7588    3.5114   -3.1970 H   0  0  0  0  0  0  0  0  0  0  0  0
    0.9881    2.6446    0.3905 H   0  0  0  0  0  0  0  0  0  0  0  0
   -0.0713    2.9764   -0.9552 H   0  0  0  0  0  0  0  0  0  0  0  0
    1.6057    1.3751   -3.7091 H   0  0  0  0  0  0  0  0  0  0  0  0
    0.0558    2.1092   -3.3260 H   0  0  0  0  0  0  0  0  0  0  0  0
   -1.9017    3.1805   -1.3435 H   0  0  0  0  0  0  0  0  0  0  0  0
   -2.2333    3.6647    2.8930 H   0  0  0  0  0  0  0  0  0  0  0  0
   -1.3087    0.8663   -2.2597 H   0  0  0  0  0  0  0  0  0  0  0  0
   -1.3181   -0.5054   -1.2398 H   0  0  0  0  0  0  0  0  0  0  0  0
    2.3813    1.4999   -1.4486 H   0  0  0  0  0  0  0  0  0  0  0  0
   -2.7126   -0.8995    2.0149 H   0  0  0  0  0  0  0  0  0  0  0  0
   -2.2451   -1.1884    0.4274 H   0  0  0  0  0  0  0  0  0  0  0  0
  1 19  1  0  0  0  0
  1 20  1  0  0  0  0
  1 21  1  0  0  0  0
  2 22  1  0  0  0  0
  2 23  1  0  0  0  0
  3  2  1  0  0  0  0
  3 24  1  0  0  0  0
  3 25  1  0  0  0  0
  4  2  1  0  0  0  0
  4 26  1  0  0  0  0
  4 27  1  0  0  0  0
  5  3  1  0  0  0  0
  5 28  1  0  0  0  0
  5 29  1  0  0  0  0
  6  4  1  0  0  0  0
  6 30  1  0  0  0  0
  6 31  1  0  0  0  0
  7 32  1  0  0  0  0
  8 33  1  0  0  0  0
  9 34  1  0  0  0  0
  9 35  1  0  0  0  0
 10  7  2  0  0  0  0
 10  9  1  0  0  0  0
 11  7  1  0  0  0  0
 11  8  2  0  0  0  0
 12  5  1  0  0  0  0
 12  6  1  0  0  0  0
 12 36  1  0  0  0  0
 13  8  1  0  0  0  0
 14 10  1  0  0  0  0
 14 13  2  0  0  0  0
 15 11  1  0  0  0  0
 16 13  1  0  0  0  0
 17 14  1  0  0  0  0
 17 37  1  0  0  0  0
 17 38  1  0  0  0  0
 18  1  1  0  0  0  0
 18  9  1  0  0  0  0
 18 12  1  0  0  0  0
M  END
>  <DRUGBANK_ID>
DB09019

>  <COMMON_NAME>
Bromhexine

>  <CAS_NUMBER>
3572-43-8

>  <UNII>
Q1J152VB1P

>  <SYNONYMS>
3,5-dibromo-N(alpha)-cyclohexyl-N(alpha)-methyltoluene-alpha-2-diamine; Bromexina; Bromhexina; Bromhexine; Bromhexinum; N-cyclohexyl-N-methyl-(2-amino-3,5-dibrombenzyl)amine

$$$$
