
 OpenBabel10282417173D

 38 40  0  0  0  0  0  0  0  0999 V2000
    1.2594    1.4289   -0.0069 C   0  0  3  0  0  0  0  0  0  0  0  0
   -0.0537    0.6650    0.0535 C   0  0  0  0  0  0  0  0  0  0  0  0
    1.1768   -1.4178   -0.0249 N   0  0  0  0  0  0  0  0  0  0  0  0
    2.2974   -0.7901    0.0184 C   0  0  0  0  0  0  0  0  0  0  0  0
    2.4311    0.5554    0.1044 O   0  0  0  0  0  0  0  0  0  0  0  0
   -0.0207   -0.7173    0.0106 C   0  0  0  0  0  0  0  0  0  0  0  0
   -1.3077    1.3111    0.1090 C   0  0  0  0  0  0  0  0  0  0  0  0
    1.3498    2.2235   -1.3321 C   0  0  0  0  0  0  0  0  0  0  0  0
   -1.2218   -1.4352    0.0028 C   0  0  0  0  0  0  0  0  0  0  0  0
    3.5110   -1.4205   -0.0161 N   0  0  0  0  0  0  0  0  0  0  0  0
   -2.4947    0.5997    0.0488 C   0  0  0  0  0  0  0  0  0  0  0  0
    1.3409    2.3400    1.2302 C   0  0  0  0  0  0  0  0  0  0  0  0
   -2.4581   -0.7815    0.0079 C   0  0  0  0  0  0  0  0  0  0  0  0
   -3.9857    1.4540    0.0173 Cl  0  0  0  0  0  0  0  0  0  0  0  0
    0.3701    3.1703   -1.6977 C   0  0  0  0  0  0  0  0  0  0  0  0
    2.3355    1.9350   -2.2864 C   0  0  0  0  0  0  0  0  0  0  0  0
    3.6487   -2.8641    0.0029 C   0  0  0  0  0  0  0  0  0  0  0  0
    4.3843   -3.3610   -1.2291 C   0  0  0  0  0  0  0  0  0  0  0  0
    2.2964    2.5136   -3.5575 C   0  0  0  0  0  0  0  0  0  0  0  0
    0.2323    3.6091   -3.0126 C   0  0  0  0  0  0  0  0  0  0  0  0
    1.2039    3.2837   -3.9445 C   0  0  0  0  0  0  0  0  0  0  0  0
   -1.3813    2.3884    0.1813 H   0  0  0  0  0  0  0  0  0  0  0  0
   -1.1878   -2.5207   -0.0180 H   0  0  0  0  0  0  0  0  0  0  0  0
    4.3479   -0.8568    0.0319 H   0  0  0  0  0  0  0  0  0  0  0  0
    1.3862    1.7302    2.1429 H   0  0  0  0  0  0  0  0  0  0  0  0
    2.2433    2.9587    1.2165 H   0  0  0  0  0  0  0  0  0  0  0  0
    0.4796    3.0089    1.3299 H   0  0  0  0  0  0  0  0  0  0  0  0
   -3.3795   -1.3517   -0.0146 H   0  0  0  0  0  0  0  0  0  0  0  0
   -0.3532    3.5506   -0.9875 H   0  0  0  0  0  0  0  0  0  0  0  0
    3.1364    1.2340   -2.0656 H   0  0  0  0  0  0  0  0  0  0  0  0
    4.1886   -3.1717    0.9051 H   0  0  0  0  0  0  0  0  0  0  0  0
    2.6720   -3.3581    0.0395 H   0  0  0  0  0  0  0  0  0  0  0  0
    5.4175   -3.0009   -1.2502 H   0  0  0  0  0  0  0  0  0  0  0  0
    4.4080   -4.4567   -1.2347 H   0  0  0  0  0  0  0  0  0  0  0  0
    3.8883   -3.0299   -2.1473 H   0  0  0  0  0  0  0  0  0  0  0  0
    3.1046    2.3274   -4.2577 H   0  0  0  0  0  0  0  0  0  0  0  0
   -0.6362    4.1975   -3.2985 H   0  0  0  0  0  0  0  0  0  0  0  0
    1.1148    3.6397   -4.9657 H   0  0  0  0  0  0  0  0  0  0  0  0
  2  1  1  0  0  0  0
  3  4  2  0  0  0  0
  4  5  1  0  0  0  0
  5  1  1  0  0  0  0
  6  2  1  0  0  0  0
  6  3  1  0  0  0  0
  7  2  2  0  0  0  0
  7 22  1  0  0  0  0
  8  1  1  0  0  0  0
  9  6  2  0  0  0  0
  9 13  1  0  0  0  0
  9 23  1  0  0  0  0
 10  4  1  0  0  0  0
 10 24  1  0  0  0  0
 11  7  1  0  0  0  0
 12  1  1  0  0  0  0
 12 25  1  0  0  0  0
 12 26  1  0  0  0  0
 12 27  1  0  0  0  0
 13 11  2  0  0  0  0
 13 28  1  0  0  0  0
 14 11  1  0  0  0  0
 15  8  2  0  0  0  0
 15 29  1  0  0  0  0
 16  8  1  0  0  0  0
 16 30  1  0  0  0  0
 17 10  1  0  0  0  0
 17 31  1  0  0  0  0
 17 32  1  0  0  0  0
 18 17  1  0  0  0  0
 18 33  1  0  0  0  0
 18 34  1  0  0  0  0
 18 35  1  0  0  0  0
 19 16  2  0  0  0  0
 19 36  1  0  0  0  0
 20 15  1  0  0  0  0
 20 21  2  0  0  0  0
 20 37  1  0  0  0  0
 21 19  1  0  0  0  0
 21 38  1  0  0  0  0
M  END
>  <DRUGBANK_ID>
DB08986

>  <COMMON_NAME>
Etifoxine

>  <CAS_NUMBER>
21715-46-8

>  <UNII>
X24X82MX4X

>  <SYNONYMS>
Etifoxina; Etifoxine; Etifoxinum

$$$$
