
 OpenBabel10282417143D

 20 19  0  0  0  0  0  0  0  0999 V2000
    0.9829    0.0426   -0.0758 C   0  0  0  0  0  0  0  0  0  0  0  0
   -1.6241    1.5690   -1.9008 C   0  0  0  0  0  0  0  0  0  0  0  0
   -1.1160    0.2260   -1.3743 C   0  0  2  0  0  0  0  0  0  0  0  0
    0.3456    0.1894   -1.2648 N   0  0  0  0  0  0  0  0  0  0  0  0
   -1.6536   -0.9271   -2.2265 C   0  0  0  0  0  0  0  0  0  0  0  0
   -1.1846    1.8386   -3.3131 C   0  0  0  0  0  0  0  0  0  0  0  0
    0.4247   -0.0970    1.0033 O   0  0  0  0  0  0  0  0  0  0  0  0
   -2.4637   -1.7701   -1.8712 O   0  0  0  0  0  0  0  0  0  0  0  0
   -1.9225    2.0256   -4.2694 O   0  0  0  0  0  0  0  0  0  0  0  0
    2.3313    0.0622   -0.1605 N   0  0  0  0  0  0  0  0  0  0  0  0
   -1.2181   -0.9090   -3.5056 O   0  0  0  0  0  0  0  0  0  0  0  0
    0.1563    1.8676   -3.4622 O   0  0  0  0  0  0  0  0  0  0  0  0
   -2.7219    1.5776   -1.8912 H   0  0  0  0  0  0  0  0  0  0  0  0
   -1.2908    2.4014   -1.2708 H   0  0  0  0  0  0  0  0  0  0  0  0
   -1.5399    0.0846   -0.3727 H   0  0  0  0  0  0  0  0  0  0  0  0
    0.8806    0.3748   -2.1034 H   0  0  0  0  0  0  0  0  0  0  0  0
    2.8513    0.2004   -1.0108 H   0  0  0  0  0  0  0  0  0  0  0  0
    2.8401   -0.0486    0.7072 H   0  0  0  0  0  0  0  0  0  0  0  0
   -1.7308   -1.6148   -3.9566 H   0  0  0  0  0  0  0  0  0  0  0  0
    0.2933    2.0070   -4.4237 H   0  0  0  0  0  0  0  0  0  0  0  0
  2  3  1  0  0  0  0
  2 13  1  0  0  0  0
  2 14  1  0  0  0  0
  3  4  1  0  0  0  0
  3 15  1  1  0  0  0
  4  1  1  0  0  0  0
  4 16  1  0  0  0  0
  5  3  1  0  0  0  0
  6  2  1  0  0  0  0
  7  1  2  0  0  0  0
  8  5  2  0  0  0  0
  9  6  2  0  0  0  0
 10  1  1  0  0  0  0
 10 17  1  0  0  0  0
 10 18  1  0  0  0  0
 11  5  1  0  0  0  0
 11 19  1  0  0  0  0
 12  6  1  0  0  0  0
 12 20  1  0  0  0  0
M  END
>  <DRUGBANK_ID>
DB04252

>  <SECONDARY_ACCESSION_NUMBERS>
EXPT02310

>  <COMMON_NAME>
N-Carbamoylaspartic acid

>  <CAS_NUMBER>
13184-27-5

>  <UNII>
R2521024DK

>  <SYNONYMS>
2-Ureidobutanedioic acid; L-N-Carbamoylaspartic acid; N-Carbamoyl-S-aspartic acid; N-Carbamoylaspartic acid; Ureidosuccinic acid

$$$$
