
 OpenBabel10282417233D

 35 36  0  0  1  0  0  0  0  0999 V2000
   -5.4988    2.0442    4.8044 C   0  0  0  0  0  0  0  0  0  0  0  0
   -5.4982    0.6336    5.4485 C   0  0  0  0  0  0  0  0  0  0  0  0
   -6.6814    0.6118    6.4177 C   0  0  0  0  0  0  0  0  0  0  0  0
   -5.5386   -0.5288    4.4467 C   0  0  0  0  0  0  0  0  0  0  0  0
   -6.3191   -1.6763    4.6518 C   0  0  0  0  0  0  0  0  0  0  0  0
   -6.3219   -2.7085    3.7213 C   0  0  0  0  0  0  0  0  0  0  0  0
   -5.5532   -2.5959    2.5595 C   0  0  0  0  0  0  0  0  0  0  0  0
   -4.7394   -1.4641    2.2974 C   0  0  0  0  0  0  0  0  0  0  0  0
   -3.9466   -1.4420    0.9778 C   0  0  2  0  0  0  0  0  0  0  0  0
   -2.8925   -0.3361    0.7770 C   0  0  0  0  0  0  0  0  0  0  0  0
   -4.9120   -1.4963   -0.2066 C   0  0  0  0  0  0  0  0  0  0  0  0
   -4.3980   -1.5342   -1.6286 C   0  0  0  0  0  0  0  0  0  0  0  0
   -5.1245   -0.3150   -1.1235 C   0  0  0  0  0  0  0  0  0  0  0  0
   -4.7039   -0.4879    3.3079 C   0  0  0  0  0  0  0  0  0  0  0  0
   -3.7784    0.5040    3.3837 O   0  0  0  0  0  0  0  0  0  0  0  0
   -6.3450    2.1583    4.1187 H   0  0  0  0  0  0  0  0  0  0  0  0
   -4.5947    2.2925    4.2427 H   0  0  0  0  0  0  0  0  0  0  0  0
   -5.5541    2.8228    5.5715 H   0  0  0  0  0  0  0  0  0  0  0  0
   -4.5725    0.5166    6.0291 H   0  0  0  0  0  0  0  0  0  0  0  0
   -7.6248    0.6827    5.8632 H   0  0  0  0  0  0  0  0  0  0  0  0
   -6.6966   -0.3009    7.0190 H   0  0  0  0  0  0  0  0  0  0  0  0
   -6.6293    1.4531    7.1144 H   0  0  0  0  0  0  0  0  0  0  0  0
   -6.9223   -1.8073    5.5461 H   0  0  0  0  0  0  0  0  0  0  0  0
   -6.9267   -3.5945    3.9048 H   0  0  0  0  0  0  0  0  0  0  0  0
   -5.5855   -3.4315    1.8604 H   0  0  0  0  0  0  0  0  0  0  0  0
   -3.3788   -2.3820    0.9697 H   0  0  0  0  0  0  0  0  0  0  0  0
   -2.4518   -0.3449   -0.2217 H   0  0  0  0  0  0  0  0  0  0  0  0
   -3.3165    0.6721    0.8477 H   0  0  0  0  0  0  0  0  0  0  0  0
   -2.0701   -0.4536    1.4888 H   0  0  0  0  0  0  0  0  0  0  0  0
   -5.7542   -2.1588   -0.0342 H   0  0  0  0  0  0  0  0  0  0  0  0
   -3.3297   -1.4876   -1.8054 H   0  0  0  0  0  0  0  0  0  0  0  0
   -4.9122   -2.1760   -2.3355 H   0  0  0  0  0  0  0  0  0  0  0  0
   -6.1304   -0.1233   -1.4760 H   0  0  0  0  0  0  0  0  0  0  0  0
   -4.5620    0.5962   -0.9602 H   0  0  0  0  0  0  0  0  0  0  0  0
   -3.4475    0.7915    2.5287 H   0  0  0  0  0  0  0  0  0  0  0  0
  1  2  1  0  0  0  0
  1 16  1  0  0  0  0
  1 17  1  0  0  0  0
  1 18  1  0  0  0  0
  2  3  1  0  0  0  0
  2  4  1  0  0  0  0
  2 19  1  0  0  0  0
  3 20  1  0  0  0  0
  3 21  1  0  0  0  0
  3 22  1  0  0  0  0
  4  5  2  0  0  0  0
  4 14  1  0  0  0  0
  5  6  1  0  0  0  0
  5 23  1  0  0  0  0
  6  7  2  0  0  0  0
  6 24  1  0  0  0  0
  7  8  1  0  0  0  0
  7 25  1  0  0  0  0
  8 14  2  0  0  0  0
  9 11  1  0  0  0  0
  9 26  1  6  0  0  0
  9 10  1  0  0  0  0
  9  8  1  0  0  0  0
 10 27  1  0  0  0  0
 10 28  1  0  0  0  0
 10 29  1  0  0  0  0
 11 12  1  0  0  0  0
 11 13  1  0  0  0  0
 11 30  1  0  0  0  0
 12 13  1  0  0  0  0
 12 31  1  0  0  0  0
 12 32  1  0  0  0  0
 13 33  1  0  0  0  0
 13 34  1  0  0  0  0
 14 15  1  0  0  0  0
 15 35  1  0  0  0  0
M  END
>  <DRUGBANK_ID>
DB16295

>  <COMMON_NAME>
HSK-3486

>  <CAS_NUMBER>
1637741-58-2

>  <UNII>
M3WGS532VY

$$$$
