1A2
 OpenBabel10282417163D

 52 55  0  0  0  0  0  0  0  0999 V2000
    1.2218   -0.2565    0.0379 C   0  0  0  0  0  0  0  0  0  0  0  0
   -1.0578   -3.5054   -0.6440 C   0  0  0  0  0  0  0  0  0  0  0  0
   -1.6542   -2.3581   -0.7729 N   0  0  0  0  0  0  0  0  0  0  0  0
    3.0903   -3.9150   -1.5733 C   0  0  0  0  0  0  0  0  0  0  0  0
    0.9626   -4.9382   -1.1592 C   0  0  0  0  0  0  0  0  0  0  0  0
    2.5221   -2.6629   -1.3259 C   0  0  0  0  0  0  0  0  0  0  0  0
    2.3103   -5.0615   -1.4762 C   0  0  0  0  0  0  0  0  0  0  0  0
    0.3886   -3.6768   -0.9446 C   0  0  0  0  0  0  0  0  0  0  0  0
   -0.8426   -1.2050   -1.2567 C   0  0  3  0  0  0  0  0  0  0  0  0
    0.5606   -1.2609   -0.7972 N   0  0  0  0  0  0  0  0  0  0  0  0
    1.1653   -2.5080   -0.9956 C   0  0  0  0  0  0  0  0  0  0  0  0
    0.2335   -6.0626   -1.0714 F   0  0  0  0  0  0  0  0  0  0  0  0
    3.3050   -1.5857   -1.4917 F   0  0  0  0  0  0  0  0  0  0  0  0
   -1.5882    0.0847   -0.8432 C   0  0  0  0  0  0  0  0  0  0  0  0
   -1.0232    1.3601   -1.4469 C   0  0  0  0  0  0  0  0  0  0  0  0
   -0.9555    1.2780   -2.8880 N   0  0  0  0  0  0  0  0  0  0  0  0
   -0.2325    0.0831   -3.3796 C   0  0  0  0  0  0  0  0  0  0  0  0
   -0.8822   -1.1915   -2.8199 C   0  0  0  0  0  0  0  0  0  0  0  0
   -1.4247    2.2771   -3.7342 C   0  0  0  0  0  0  0  0  0  0  0  0
   -1.3477    2.2212   -4.9570 O   0  0  0  0  0  0  0  0  0  0  0  0
   -1.7709   -4.5924   -0.2073 N   0  0  0  0  0  0  0  0  0  0  0  0
   -1.9884    3.5137   -3.0749 C   0  0  0  0  0  0  0  0  0  0  0  0
   -3.2739    3.8977   -3.1773 C   0  0  0  0  0  0  0  0  0  0  0  0
   -3.8296    5.0090   -2.5591 N   0  0  0  0  0  0  0  0  0  0  0  0
   -3.0415    5.7263   -1.8204 C   0  0  0  0  0  0  0  0  0  0  0  0
   -1.5945    5.4965   -1.5561 C   0  0  0  0  0  0  0  0  0  0  0  0
   -0.9994    4.3555   -2.3437 C   0  0  0  0  0  0  0  0  0  0  0  0
   -3.6262    6.8645   -1.1264 C   0  0  0  0  0  0  0  0  0  0  0  0
   -3.9376    7.7863   -0.5024 N   0  0  0  0  0  0  0  0  0  0  0  0
    0.6751   -0.1589    1.4516 C   0  0  0  0  0  0  0  0  0  0  0  0
    1.1497    0.7210   -0.4051 H   0  0  0  0  0  0  0  0  0  0  0  0
    2.3094   -0.3573    0.0644 H   0  0  0  0  0  0  0  0  0  0  0  0
    4.1378   -3.9803   -1.8512 H   0  0  0  0  0  0  0  0  0  0  0  0
    2.7388   -6.0435   -1.6540 H   0  0  0  0  0  0  0  0  0  0  0  0
   -1.6925    0.1884    0.2325 H   0  0  0  0  0  0  0  0  0  0  0  0
   -2.6295    0.0217   -1.1895 H   0  0  0  0  0  0  0  0  0  0  0  0
   -0.0172    1.6572   -1.1783 H   0  0  0  0  0  0  0  0  0  0  0  0
   -1.6220    2.1833   -1.0612 H   0  0  0  0  0  0  0  0  0  0  0  0
   -0.2053    0.0562   -4.4725 H   0  0  0  0  0  0  0  0  0  0  0  0
    0.8161    0.1362   -3.0457 H   0  0  0  0  0  0  0  0  0  0  0  0
   -0.4038   -2.0827   -3.2414 H   0  0  0  0  0  0  0  0  0  0  0  0
   -1.9272   -1.2169   -3.1594 H   0  0  0  0  0  0  0  0  0  0  0  0
   -1.3597   -5.5190   -0.1399 H   0  0  0  0  0  0  0  0  0  0  0  0
   -2.7580   -4.5083   -0.0060 H   0  0  0  0  0  0  0  0  0  0  0  0
   -3.9729    3.3193   -3.7821 H   0  0  0  0  0  0  0  0  0  0  0  0
   -1.4885    5.2965   -0.4824 H   0  0  0  0  0  0  0  0  0  0  0  0
   -1.0448    6.4146   -1.7843 H   0  0  0  0  0  0  0  0  0  0  0  0
   -0.2775    4.7447   -3.0660 H   0  0  0  0  0  0  0  0  0  0  0  0
   -0.4198    3.7714   -1.6299 H   0  0  0  0  0  0  0  0  0  0  0  0
    1.0275    0.7682    1.9184 H   0  0  0  0  0  0  0  0  0  0  0  0
   -0.4094   -0.1227    1.5230 H   0  0  0  0  0  0  0  0  0  0  0  0
    0.9924   -1.0148    2.0448 H   0  0  0  0  0  0  0  0  0  0  0  0
  1 10  1  0  0  0  0
  1 30  1  0  0  0  0
  1 31  1  0  0  0  0
  1 32  1  0  0  0  0
  2  3  2  0  0  0  0
  2  8  1  0  0  0  0
  2 21  1  0  0  0  0
  3  9  1  0  0  0  0
  4  6  1  0  0  0  0
  4  7  2  0  0  0  0
  4 33  1  0  0  0  0
  5  7  1  0  0  0  0
  5  8  2  0  0  0  0
  5 12  1  0  0  0  0
  6 11  2  0  0  0  0
  6 13  1  0  0  0  0
  7 34  1  0  0  0  0
  8 11  1  0  0  0  0
  9 10  1  0  0  0  0
  9 14  1  0  0  0  0
  9 18  1  0  0  0  0
 10 11  1  0  0  0  0
 14 15  1  0  0  0  0
 14 35  1  0  0  0  0
 14 36  1  0  0  0  0
 15 16  1  0  0  0  0
 15 37  1  0  0  0  0
 15 38  1  0  0  0  0
 16 17  1  0  0  0  0
 16 19  1  0  0  0  0
 17 18  1  0  0  0  0
 17 39  1  0  0  0  0
 17 40  1  0  0  0  0
 18 41  1  0  0  0  0
 18 42  1  0  0  0  0
 19 20  2  0  0  0  0
 19 22  1  0  0  0  0
 21 43  1  0  0  0  0
 21 44  1  0  0  0  0
 22 23  2  0  0  0  0
 22 27  1  0  0  0  0
 23 24  1  0  0  0  0
 23 45  1  0  0  0  0
 24 25  2  0  0  0  0
 25 26  1  0  0  0  0
 25 28  1  0  0  0  0
 26 27  1  0  0  0  0
 26 46  1  0  0  0  0
 26 47  1  0  0  0  0
 27 48  1  0  0  0  0
 27 49  1  0  0  0  0
 28 29  3  0  0  0  0
 30 50  1  0  0  0  0
 30 51  1  0  0  0  0
 30 52  1  0  0  0  0
M  END
>  <DRUGBANK_ID>
DB06879

>  <COMMON_NAME>
5-(4'-AMINO-1'-ETHYL-5',8'-DIFLUORO-1'H-SPIRO[PIPERIDINE-4,2'-QUINAZOLINE]-1-YLCARBONYL)PICOLINONITRILE

$$$$
