
 OpenBabel10282417133D

 33 34  0  0  0  0  0  0  0  0999 V2000
   -0.7628   -1.4376    0.6366 O   0  0  0  0  0  0  0  0  0  0  0  0
   -0.1889   -0.7396   -0.4787 C   0  0  2  0  0  0  0  0  0  0  0  0
   -0.5970   -1.1626   -1.3896 H   0  0  0  0  0  0  0  0  0  0  0  0
    1.3375   -0.7102   -0.3828 C   0  0  1  0  0  0  0  0  0  0  0  0
    2.0280   -0.8164   -1.7429 C   0  0  0  0  0  0  0  0  0  0  0  0
    1.3373   -1.7441   -2.5724 O   0  0  0  0  0  0  0  0  0  0  0  0
    1.2796   -3.3125   -1.8445 P   0  0  0  0  0  0  0  0  0  0  0  0
   -0.3386   -3.2166   -2.0257 O   0  0  0  0  0  0  0  0  0  0  0  0
    1.5979   -3.8746   -3.3441 O   0  0  0  0  0  0  0  0  0  0  0  0
    1.2279   -4.7161   -1.1930 O   0  0  0  0  0  0  0  0  0  0  0  0
    1.7053    0.5123    0.2521 O   0  0  0  0  0  0  0  0  0  0  0  0
    0.5103    1.3107    0.4006 C   0  0  2  0  0  0  0  0  0  0  0  0
   -0.5861    0.7122   -0.4676 C   0  0  2  0  0  0  0  0  0  0  0  0
   -1.9021    0.8842    0.0529 O   0  0  0  0  0  0  0  0  0  0  0  0
    0.8546    2.6736    0.0476 N   0  0  0  0  0  0  0  0  0  0  0  0
    1.2175    2.9277   -1.2704 N   0  0  0  0  0  0  0  0  0  0  0  0
    1.7603    4.0766   -1.5198 C   0  0  0  0  0  0  0  0  0  0  0  0
    2.0398    5.0870   -0.4547 C   0  0  0  0  0  0  0  0  0  0  0  0
    2.6484    6.1136   -0.7368 O   0  0  0  0  0  0  0  0  0  0  0  0
    1.5948    4.7597    0.7825 N   0  0  0  0  0  0  0  0  0  0  0  0
    1.0170    3.5677    1.0931 C   0  0  0  0  0  0  0  0  0  0  0  0
    0.7012    3.3376    2.2581 O   0  0  0  0  0  0  0  0  0  0  0  0
   -0.3788   -2.3285    0.7274 H   0  0  0  0  0  0  0  0  0  0  0  0
    1.7052   -1.5230    0.2577 H   0  0  0  0  0  0  0  0  0  0  0  0
    2.0825    0.1486   -2.2541 H   0  0  0  0  0  0  0  0  0  0  0  0
    3.0634   -1.1627   -1.6191 H   0  0  0  0  0  0  0  0  0  0  0  0
   -0.8103   -3.1984   -1.1751 H   0  0  0  0  0  0  0  0  0  0  0  0
    1.9854   -3.1867   -3.9098 H   0  0  0  0  0  0  0  0  0  0  0  0
    0.2126    1.2390    1.4511 H   0  0  0  0  0  0  0  0  0  0  0  0
   -0.5652    1.0950   -1.4944 H   0  0  0  0  0  0  0  0  0  0  0  0
   -1.9478    0.3325    0.8603 H   0  0  0  0  0  0  0  0  0  0  0  0
    2.0679    4.3638   -2.5373 H   0  0  0  0  0  0  0  0  0  0  0  0
    1.7870    5.3796    1.5521 H   0  0  0  0  0  0  0  0  0  0  0  0
  1  2  1  0  0  0  0
  1 23  1  0  0  0  0
  2  3  1  6  0  0  0
  2  4  1  0  0  0  0
  2 13  1  0  0  0  0
  4 11  1  0  0  0  0
  4 24  1  1  0  0  0
  4  5  1  0  0  0  0
  5  6  1  0  0  0  0
  5 25  1  0  0  0  0
  5 26  1  0  0  0  0
  6  7  1  0  0  0  0
  7  8  1  0  0  0  0
  7  9  1  0  0  0  0
  7 10  2  0  0  0  0
  8 27  1  0  0  0  0
  9 28  1  0  0  0  0
 11 12  1  0  0  0  0
 12 13  1  0  0  0  0
 12 29  1  1  0  0  0
 12 15  1  0  0  0  0
 13 14  1  0  0  0  0
 13 30  1  6  0  0  0
 14 31  1  0  0  0  0
 15 16  1  0  0  0  0
 15 21  1  0  0  0  0
 16 17  2  0  0  0  0
 17 18  1  0  0  0  0
 17 32  1  0  0  0  0
 18 19  2  0  0  0  0
 18 20  1  0  0  0  0
 20 21  1  0  0  0  0
 20 33  1  0  0  0  0
 21 22  2  0  0  0  0
M  END
>  <DRUGBANK_ID>
DB03718

>  <SECONDARY_ACCESSION_NUMBERS>
EXPT03195

>  <COMMON_NAME>
6-aza uridine 5'-monophosphate

>  <CAS_NUMBER>
2018-19-1

>  <SYNONYMS>
6-Aza-UMP; 6-Aza-Uridine Monophosphate; 6-Azauridine-5'-monophosphate

$$$$
