AOG
 OpenBabel10282417163D

 49 49  0  0  0  0  0  0  0  0999 V2000
    0.7356    1.2163   -0.5627 C   0  0  1  0  0  0  0  0  0  0  0  0
    1.1891    2.4338    0.1000 O   0  0  0  0  0  0  0  0  0  0  0  0
    1.4901   -0.0625   -0.1220 C   0  0  2  0  0  0  0  0  0  0  0  0
    2.8380   -0.1010   -0.6645 O   0  0  0  0  0  0  0  0  0  0  0  0
    0.7633   -1.3611   -0.5047 C   0  0  2  0  0  0  0  0  0  0  0  0
   -0.7707   -1.3754   -0.3684 C   0  0  1  0  0  0  0  0  0  0  0  0
   -1.2507   -1.9563    0.8511 O   0  0  0  0  0  0  0  0  0  0  0  0
   -1.4510   -0.0509   -0.7812 C   0  0  2  0  0  0  0  0  0  0  0  0
   -0.6996    1.1776   -0.6357 O   0  0  0  0  0  0  0  0  0  0  0  0
   -2.8588    0.0867   -0.0947 C   0  0  0  0  0  0  0  0  0  0  0  0
   -3.5233    1.2893   -0.4582 O   0  0  0  0  0  0  0  0  0  0  0  0
    1.4019   -2.4949    0.1932 N   0  0  0  0  0  0  0  0  0  0  0  0
    1.3193    2.5316    1.5250 C   0  0  0  0  0  0  0  0  0  0  0  0
   -0.0069    2.5707    2.2857 C   0  0  0  0  0  0  0  0  0  0  0  0
   -0.7102    1.2422    2.2535 C   0  0  0  0  0  0  0  0  0  0  0  0
    0.1220    0.0959    2.7934 C   0  0  0  0  0  0  0  0  0  0  0  0
   -0.1152   -0.1534    4.2390 C   0  0  0  0  0  0  0  0  0  0  0  0
   -1.5933   -0.3080    4.5731 C   0  0  0  0  0  0  0  0  0  0  0  0
   -2.3000   -1.5280    3.9795 C   0  0  0  0  0  0  0  0  0  0  0  0
   -1.5171   -2.8107    4.1878 C   0  0  0  0  0  0  0  0  0  0  0  0
    1.0487    1.4013   -1.5941 H   0  0  0  0  0  0  0  0  0  0  0  0
    1.7046   -0.0542    0.9345 H   0  0  0  0  0  0  0  0  0  0  0  0
    0.9543   -1.5022   -1.5724 H   0  0  0  0  0  0  0  0  0  0  0  0
   -1.1337   -2.1270   -1.0722 H   0  0  0  0  0  0  0  0  0  0  0  0
   -1.6348   -0.1191   -1.8558 H   0  0  0  0  0  0  0  0  0  0  0  0
    2.7909    0.0464   -1.6236 H   0  0  0  0  0  0  0  0  0  0  0  0
   -1.5517   -1.2686    1.4289 H   0  0  0  0  0  0  0  0  0  0  0  0
   -3.4964   -0.7639   -0.3585 H   0  0  0  0  0  0  0  0  0  0  0  0
   -2.8282    0.0986    1.0009 H   0  0  0  0  0  0  0  0  0  0  0  0
   -2.9919    2.0138   -0.0767 H   0  0  0  0  0  0  0  0  0  0  0  0
    2.3944   -2.5193   -0.0312 H   0  0  0  0  0  0  0  0  0  0  0  0
    0.9734   -3.3746   -0.0901 H   0  0  0  0  0  0  0  0  0  0  0  0
    2.0246    1.7911    1.9095 H   0  0  0  0  0  0  0  0  0  0  0  0
    1.8212    3.4822    1.7449 H   0  0  0  0  0  0  0  0  0  0  0  0
    0.1365    2.8404    3.3383 H   0  0  0  0  0  0  0  0  0  0  0  0
   -0.6585    3.3287    1.8352 H   0  0  0  0  0  0  0  0  0  0  0  0
   -1.7351    1.3337    2.6111 H   0  0  0  0  0  0  0  0  0  0  0  0
   -0.8988    1.0055    1.2482 H   0  0  0  0  0  0  0  0  0  0  0  0
   -0.0180   -0.8249    2.2438 H   0  0  0  0  0  0  0  0  0  0  0  0
    1.1895    0.2633    2.7005 H   0  0  0  0  0  0  0  0  0  0  0  0
    0.4714   -1.0355    4.5142 H   0  0  0  0  0  0  0  0  0  0  0  0
    0.3213    0.6940    4.7731 H   0  0  0  0  0  0  0  0  0  0  0  0
   -1.6671   -0.3372    5.6582 H   0  0  0  0  0  0  0  0  0  0  0  0
   -2.1582    0.5814    4.2804 H   0  0  0  0  0  0  0  0  0  0  0  0
   -3.2852   -1.6123    4.4480 H   0  0  0  0  0  0  0  0  0  0  0  0
   -2.5346   -1.3941    2.9245 H   0  0  0  0  0  0  0  0  0  0  0  0
   -1.3672   -2.9703    5.2588 H   0  0  0  0  0  0  0  0  0  0  0  0
   -2.0533   -3.6671    3.7725 H   0  0  0  0  0  0  0  0  0  0  0  0
   -0.5357   -2.7844    3.7028 H   0  0  0  0  0  0  0  0  0  0  0  0
  1  2  1  0  0  0  0
  1  3  1  0  0  0  0
  1  9  1  0  0  0  0
  1 21  1  6  0  0  0
  2 13  1  0  0  0  0
  3  4  1  0  0  0  0
  3  5  1  0  0  0  0
  3 22  1  1  0  0  0
  4 26  1  0  0  0  0
  5  6  1  0  0  0  0
  5 23  1  6  0  0  0
  5 12  1  0  0  0  0
  6  8  1  0  0  0  0
  6 24  1  6  0  0  0
  6  7  1  0  0  0  0
  7 27  1  0  0  0  0
  8  9  1  0  0  0  0
  8 25  1  6  0  0  0
  8 10  1  0  0  0  0
 10 11  1  0  0  0  0
 10 28  1  0  0  0  0
 10 29  1  0  0  0  0
 11 30  1  0  0  0  0
 12 31  1  0  0  0  0
 12 32  1  0  0  0  0
 13 14  1  0  0  0  0
 13 33  1  0  0  0  0
 13 34  1  0  0  0  0
 14 15  1  0  0  0  0
 14 35  1  0  0  0  0
 14 36  1  0  0  0  0
 15 16  1  0  0  0  0
 15 37  1  0  0  0  0
 15 38  1  0  0  0  0
 16 17  1  0  0  0  0
 16 39  1  0  0  0  0
 16 40  1  0  0  0  0
 17 18  1  0  0  0  0
 17 41  1  0  0  0  0
 17 42  1  0  0  0  0
 18 19  1  0  0  0  0
 18 43  1  0  0  0  0
 18 44  1  0  0  0  0
 19 20  1  0  0  0  0
 19 45  1  0  0  0  0
 19 46  1  0  0  0  0
 20 47  1  0  0  0  0
 20 48  1  0  0  0  0
 20 49  1  0  0  0  0
M  END
>  <DRUGBANK_ID>
DB07378

>  <COMMON_NAME>
4-AMINO-2-OCTYLOXY-6-HYDROXYMETHYL-TETRAHYDRO-PYRAN-3,5-DIOL

$$$$
