
 OpenBabel10282417213D

 87 93  0  0  0  0  0  0  0  0999 V2000
    0.9731    0.1008   -0.0667 O   0  0  0  0  0  0  0  0  0  0  0  0
   -1.2793   -0.5231    1.6873 O   0  0  0  0  0  0  0  0  0  0  0  0
   10.0857    2.3599    7.1940 O   0  0  0  0  0  0  0  0  0  0  0  0
    8.9082    1.3839    9.5191 O   0  0  0  0  0  0  0  0  0  0  0  0
    4.0606    0.1462   10.8184 O   0  0  0  0  0  0  0  0  0  0  0  0
    2.5217    1.5314    8.7681 O   0  0  0  0  0  0  0  0  0  0  0  0
    6.5506    2.7350   12.6887 O   0  0  0  0  0  0  0  0  0  0  0  0
   -1.0827    5.8256    0.4549 N   0  0  0  0  0  0  0  0  0  0  0  0
    4.0630    3.7195    4.0567 N   0  0  0  0  0  0  0  0  0  0  0  0
    4.6737    3.8543    5.2577 N   0  0  0  0  0  0  0  0  0  0  0  0
    4.5413    2.6957    3.3056 N   0  0  0  0  0  0  0  0  0  0  0  0
    5.5840    2.2205    3.9913 N   0  0  0  0  0  0  0  0  0  0  0  0
    4.4841    1.9520    7.7451 N   0  0  0  0  0  0  0  0  0  0  0  0
   -2.3800    5.3145    0.9326 C   0  0  0  0  0  0  0  0  0  0  0  0
    0.0276    4.8676    0.3896 C   0  0  0  0  0  0  0  0  0  0  0  0
   -2.3569    4.2049    1.9813 C   0  0  0  0  0  0  0  0  0  0  0  0
   -0.3189    3.4301    0.7172 C   0  0  0  0  0  0  0  0  0  0  0  0
   -1.4517    3.0984    1.4929 C   0  0  0  0  0  0  0  0  0  0  0  0
   -0.6892    7.0778    1.1182 C   0  0  0  0  0  0  0  0  0  0  0  0
   -0.4687    7.0318    2.6651 C   0  0  0  0  0  0  0  0  0  0  0  0
    0.5653    2.4188    0.3221 C   0  0  0  0  0  0  0  0  0  0  0  0
   -1.6885    1.7619    1.8363 C   0  0  0  0  0  0  0  0  0  0  0  0
    0.2758    1.0797    0.5867 C   0  0  0  0  0  0  0  0  0  0  0  0
   -0.8557    0.7410    1.3508 C   0  0  0  0  0  0  0  0  0  0  0  0
    0.7033    6.1995    3.1948 C   0  0  0  0  0  0  0  0  0  0  0  0
    1.9475    6.7542    3.4538 C   0  0  0  0  0  0  0  0  0  0  0  0
    0.6284    4.8038    3.3459 C   0  0  0  0  0  0  0  0  0  0  0  0
    3.0420    5.9256    3.7900 C   0  0  0  0  0  0  0  0  0  0  0  0
    1.7262    3.9478    3.4915 C   0  0  0  0  0  0  0  0  0  0  0  0
    2.9521    4.5231    3.7299 C   0  0  0  0  0  0  0  0  0  0  0  0
    2.3860    0.1259    0.0626 C   0  0  0  0  0  0  0  0  0  0  0  0
   -0.5057   -1.6135    1.1985 C   0  0  0  0  0  0  0  0  0  0  0  0
    5.6214    2.9096    5.1849 C   0  0  0  0  0  0  0  0  0  0  0  0
    6.4615    2.5451    6.3312 C   0  0  0  0  0  0  0  0  0  0  0  0
    5.8852    2.0170    7.5092 C   0  0  0  0  0  0  0  0  0  0  0  0
    7.8811    2.6893    6.2743 C   0  0  0  0  0  0  0  0  0  0  0  0
    6.7523    1.5293    8.4771 C   0  0  0  0  0  0  0  0  0  0  0  0
    8.7140    2.2863    7.3479 C   0  0  0  0  0  0  0  0  0  0  0  0
    8.1150    1.7590    8.4786 C   0  0  0  0  0  0  0  0  0  0  0  0
    3.7477    1.6335    8.8732 C   0  0  0  0  0  0  0  0  0  0  0  0
    4.3649    1.3734   10.2291 C   0  0  0  0  0  0  0  0  0  0  0  0
    5.7863    0.5231   12.4843 C   0  0  0  0  0  0  0  0  0  0  0  0
    4.8047   -0.2639   11.8996 C   0  0  0  0  0  0  0  0  0  0  0  0
    5.1498    2.2934   10.8211 C   0  0  0  0  0  0  0  0  0  0  0  0
    5.8416    1.9227   12.0706 C   0  0  0  0  0  0  0  0  0  0  0  0
    6.6604    0.0047   13.4546 C   0  0  0  0  0  0  0  0  0  0  0  0
    4.5467   -1.5143   12.4467 C   0  0  0  0  0  0  0  0  0  0  0  0
    6.4041   -1.2500   13.9929 C   0  0  0  0  0  0  0  0  0  0  0  0
    5.3122   -1.9827   13.5239 C   0  0  0  0  0  0  0  0  0  0  0  0
   10.8889    1.7711    8.2444 C   0  0  0  0  0  0  0  0  0  0  0  0
    8.3586    1.3595   10.8001 C   0  0  0  0  0  0  0  0  0  0  0  0
    3.8812    2.2172    6.9678 H   0  0  0  0  0  0  0  0  0  0  0  0
   -2.9960    6.1386    1.3133 H   0  0  0  0  0  0  0  0  0  0  0  0
   -2.9231    4.9221    0.0657 H   0  0  0  0  0  0  0  0  0  0  0  0
    0.5393    4.9356   -0.5782 H   0  0  0  0  0  0  0  0  0  0  0  0
    0.8390    5.1726    1.0465 H   0  0  0  0  0  0  0  0  0  0  0  0
   -2.0587    4.6106    2.9521 H   0  0  0  0  0  0  0  0  0  0  0  0
   -3.3683    3.8348    2.1745 H   0  0  0  0  0  0  0  0  0  0  0  0
    0.1915    7.4987    0.6134 H   0  0  0  0  0  0  0  0  0  0  0  0
   -1.4886    7.8053    0.9014 H   0  0  0  0  0  0  0  0  0  0  0  0
   -0.3436    8.0732    2.9904 H   0  0  0  0  0  0  0  0  0  0  0  0
   -1.4006    6.7111    3.1448 H   0  0  0  0  0  0  0  0  0  0  0  0
    1.4533    2.6861   -0.2421 H   0  0  0  0  0  0  0  0  0  0  0  0
   -2.5491    1.5044    2.4518 H   0  0  0  0  0  0  0  0  0  0  0  0
    2.0804    7.8308    3.3933 H   0  0  0  0  0  0  0  0  0  0  0  0
   -0.2978    4.2936    3.2163 H   0  0  0  0  0  0  0  0  0  0  0  0
    3.9845    6.3928    4.0546 H   0  0  0  0  0  0  0  0  0  0  0  0
    1.5580    2.8718    3.4564 H   0  0  0  0  0  0  0  0  0  0  0  0
    2.7533   -0.7950   -0.4031 H   0  0  0  0  0  0  0  0  0  0  0  0
    2.8253    0.9655   -0.4797 H   0  0  0  0  0  0  0  0  0  0  0  0
    2.6950    0.1172    1.1123 H   0  0  0  0  0  0  0  0  0  0  0  0
   -0.5137   -1.6422    0.1030 H   0  0  0  0  0  0  0  0  0  0  0  0
    0.5112   -1.5832    1.6062 H   0  0  0  0  0  0  0  0  0  0  0  0
   -0.9584   -2.5485    1.5357 H   0  0  0  0  0  0  0  0  0  0  0  0
    8.3484    3.1259    5.3933 H   0  0  0  0  0  0  0  0  0  0  0  0
    6.3846    0.8768    9.2461 H   0  0  0  0  0  0  0  0  0  0  0  0
    5.4407    3.2275   10.3538 H   0  0  0  0  0  0  0  0  0  0  0  0
    7.5171    0.5800   13.8054 H   0  0  0  0  0  0  0  0  0  0  0  0
    3.7199   -2.1070   12.0673 H   0  0  0  0  0  0  0  0  0  0  0  0
    7.0189   -1.6323   14.8060 H   0  0  0  0  0  0  0  0  0  0  0  0
    5.0506   -2.9222   14.0041 H   0  0  0  0  0  0  0  0  0  0  0  0
   10.8563    2.3993    9.1491 H   0  0  0  0  0  0  0  0  0  0  0  0
   10.6034    0.7269    8.4605 H   0  0  0  0  0  0  0  0  0  0  0  0
   11.9335    1.7098    7.9468 H   0  0  0  0  0  0  0  0  0  0  0  0
    7.8234    2.2923   10.9268 H   0  0  0  0  0  0  0  0  0  0  0  0
    7.7703    0.4458   10.8753 H   0  0  0  0  0  0  0  0  0  0  0  0
    9.1262    1.3310   11.5771 H   0  0  0  0  0  0  0  0  0  0  0  0
  1 23  1  0  0  0  0
  1 31  1  0  0  0  0
  2 24  1  0  0  0  0
  2 32  1  0  0  0  0
  3 38  1  0  0  0  0
  3 50  1  0  0  0  0
  4 39  1  0  0  0  0
  4 51  1  0  0  0  0
  5 41  1  0  0  0  0
  5 43  1  0  0  0  0
  6 40  2  0  0  0  0
  7 45  2  0  0  0  0
  8 14  1  0  0  0  0
  8 15  1  0  0  0  0
  8 19  1  0  0  0  0
  9 10  1  0  0  0  0
  9 11  1  0  0  0  0
  9 30  1  0  0  0  0
 10 33  2  0  0  0  0
 11 12  2  0  0  0  0
 12 33  1  0  0  0  0
 13 35  1  0  0  0  0
 13 40  1  0  0  0  0
 13 52  1  0  0  0  0
 14 16  1  0  0  0  0
 14 53  1  0  0  0  0
 14 54  1  0  0  0  0
 15 17  1  0  0  0  0
 15 55  1  0  0  0  0
 15 56  1  0  0  0  0
 16 18  1  0  0  0  0
 16 57  1  0  0  0  0
 16 58  1  0  0  0  0
 17 18  1  0  0  0  0
 17 21  2  0  0  0  0
 18 22  2  0  0  0  0
 19 20  1  0  0  0  0
 19 59  1  0  0  0  0
 19 60  1  0  0  0  0
 20 25  1  0  0  0  0
 20 61  1  0  0  0  0
 20 62  1  0  0  0  0
 21 23  1  0  0  0  0
 21 63  1  0  0  0  0
 22 24  1  0  0  0  0
 22 64  1  0  0  0  0
 23 24  2  0  0  0  0
 25 26  2  0  0  0  0
 25 27  1  0  0  0  0
 26 28  1  0  0  0  0
 26 65  1  0  0  0  0
 27 29  2  0  0  0  0
 27 66  1  0  0  0  0
 28 30  2  0  0  0  0
 28 67  1  0  0  0  0
 29 30  1  0  0  0  0
 29 68  1  0  0  0  0
 31 69  1  0  0  0  0
 31 70  1  0  0  0  0
 31 71  1  0  0  0  0
 32 72  1  0  0  0  0
 32 73  1  0  0  0  0
 32 74  1  0  0  0  0
 33 34  1  0  0  0  0
 34 35  1  0  0  0  0
 34 36  2  0  0  0  0
 35 37  2  0  0  0  0
 36 38  1  0  0  0  0
 36 75  1  0  0  0  0
 37 39  1  0  0  0  0
 37 76  1  0  0  0  0
 38 39  2  0  0  0  0
 40 41  1  0  0  0  0
 41 44  2  0  0  0  0
 42 43  1  0  0  0  0
 42 45  1  0  0  0  0
 42 46  2  0  0  0  0
 43 47  2  0  0  0  0
 44 45  1  0  0  0  0
 44 77  1  0  0  0  0
 46 48  1  0  0  0  0
 46 78  1  0  0  0  0
 47 49  1  0  0  0  0
 47 79  1  0  0  0  0
 48 49  2  0  0  0  0
 48 80  1  0  0  0  0
 49 81  1  0  0  0  0
 50 82  1  0  0  0  0
 50 83  1  0  0  0  0
 50 84  1  0  0  0  0
 51 85  1  0  0  0  0
 51 86  1  0  0  0  0
 51 87  1  0  0  0  0
M  END
>  <DRUGBANK_ID>
DB14070

>  <COMMON_NAME>
HM-30181

>  <CAS_NUMBER>
849675-66-7

>  <UNII>
K4I4I996O4

$$$$
