
 OpenBabel10282417233D

 45 49  0  0  0  0  0  0  0  0999 V2000
    2.0848    0.1386    0.4978 F   0  0  0  0  0  0  0  0  0  0  0  0
    0.7479    0.1242    0.4094 C   0  0  0  0  0  0  0  0  0  0  0  0
    0.0737    1.2990    0.1273 C   0  0  0  0  0  0  0  0  0  0  0  0
   -1.3137    1.2682    0.0201 C   0  0  0  0  0  0  0  0  0  0  0  0
   -1.9967    0.0430    0.0527 C   0  0  0  0  0  0  0  0  0  0  0  0
   -1.2996   -1.1603    0.2380 C   0  0  0  0  0  0  0  0  0  0  0  0
   -1.9638   -2.5122    0.0408 C   0  0  0  0  0  0  0  0  0  0  0  0
   -1.5771   -3.2980   -1.2497 C   0  0  0  0  0  0  0  0  0  0  0  0
   -0.1474   -3.5835   -1.4000 N   0  0  0  0  0  0  0  0  0  0  0  0
    0.3145   -4.8436   -1.1051 N   0  0  0  0  0  0  0  0  0  0  0  0
    1.5398   -5.1312   -1.2154 N   0  0  0  0  0  0  0  0  0  0  0  0
    2.4876   -4.0964   -1.3419 C   0  0  0  0  0  0  0  0  0  0  0  0
    3.8708   -4.3367   -1.2198 C   0  0  0  0  0  0  0  0  0  0  0  0
    4.7933   -3.2646   -1.2624 C   0  0  0  0  0  0  0  0  0  0  0  0
    4.3332   -1.9558   -1.4011 C   0  0  0  0  0  0  0  0  0  0  0  0
    5.1445   -0.8574   -1.4571 O   0  0  0  0  0  0  0  0  0  0  0  0
    6.4667   -1.1205   -1.0012 C   0  0  0  0  0  0  0  0  0  0  0  0
    6.9939   -2.3120   -1.6133 N   0  0  0  0  0  0  0  0  0  0  0  0
    7.9391   -2.2546   -2.7133 C   0  0  0  0  0  0  0  0  0  0  0  0
    9.3822   -1.8655   -2.5285 C   0  0  0  0  0  0  0  0  0  0  0  0
    8.4698   -0.9656   -3.3066 C   0  0  0  0  0  0  0  0  0  0  0  0
    6.2660   -3.4782   -1.3617 C   0  0  0  0  0  0  0  0  0  0  0  0
    6.7387   -4.6070   -1.3327 O   0  0  0  0  0  0  0  0  0  0  0  0
    2.9827   -1.7237   -1.5934 C   0  0  0  0  0  0  0  0  0  0  0  0
    2.0945   -2.7998   -1.6076 C   0  0  0  0  0  0  0  0  0  0  0  0
    0.6789   -2.5836   -1.8814 C   0  0  0  0  0  0  0  0  0  0  0  0
    0.3118   -1.5504   -2.4041 O   0  0  0  0  0  0  0  0  0  0  0  0
    0.0664   -1.0831    0.5384 C   0  0  0  0  0  0  0  0  0  0  0  0
    0.6323    2.2192   -0.0058 H   0  0  0  0  0  0  0  0  0  0  0  0
   -1.8595    2.1961   -0.1285 H   0  0  0  0  0  0  0  0  0  0  0  0
   -3.0739    0.0431   -0.0964 H   0  0  0  0  0  0  0  0  0  0  0  0
   -1.7620   -3.1304    0.9227 H   0  0  0  0  0  0  0  0  0  0  0  0
   -3.0526   -2.3628    0.0180 H   0  0  0  0  0  0  0  0  0  0  0  0
   -2.1286   -4.2470   -1.2712 H   0  0  0  0  0  0  0  0  0  0  0  0
   -1.9009   -2.7240   -2.1273 H   0  0  0  0  0  0  0  0  0  0  0  0
    4.2353   -5.3596   -1.1408 H   0  0  0  0  0  0  0  0  0  0  0  0
    6.4590   -1.2656    0.0873 H   0  0  0  0  0  0  0  0  0  0  0  0
    7.0855   -0.2432   -1.1937 H   0  0  0  0  0  0  0  0  0  0  0  0
    7.7629   -3.0521   -3.4375 H   0  0  0  0  0  0  0  0  0  0  0  0
    9.7176   -1.5456   -1.5509 H   0  0  0  0  0  0  0  0  0  0  0  0
   10.1349   -2.4038   -3.0965 H   0  0  0  0  0  0  0  0  0  0  0  0
    8.6227   -0.9058   -4.3799 H   0  0  0  0  0  0  0  0  0  0  0  0
    8.2190   -0.0039   -2.8795 H   0  0  0  0  0  0  0  0  0  0  0  0
    2.6181   -0.7090   -1.7268 H   0  0  0  0  0  0  0  0  0  0  0  0
    0.6382   -1.9803    0.7517 H   0  0  0  0  0  0  0  0  0  0  0  0
  1  2  1  0  0  0  0
  2  3  2  0  0  0  0
  2 28  1  0  0  0  0
  3  4  1  0  0  0  0
  3 29  1  0  0  0  0
  4  5  2  0  0  0  0
  4 30  1  0  0  0  0
  5  6  1  0  0  0  0
  5 31  1  0  0  0  0
  6  7  1  0  0  0  0
  6 28  2  0  0  0  0
  7  8  1  0  0  0  0
  7 32  1  0  0  0  0
  7 33  1  0  0  0  0
  8  9  1  0  0  0  0
  8 34  1  0  0  0  0
  8 35  1  0  0  0  0
  9 10  1  0  0  0  0
  9 26  1  0  0  0  0
 10 11  2  0  0  0  0
 11 12  1  0  0  0  0
 12 13  2  0  0  0  0
 12 25  1  0  0  0  0
 13 14  1  0  0  0  0
 13 36  1  0  0  0  0
 14 15  2  0  0  0  0
 14 22  1  0  0  0  0
 15 16  1  0  0  0  0
 15 24  1  0  0  0  0
 16 17  1  0  0  0  0
 17 18  1  0  0  0  0
 17 37  1  0  0  0  0
 17 38  1  0  0  0  0
 18 19  1  0  0  0  0
 18 22  1  0  0  0  0
 19 20  1  0  0  0  0
 19 21  1  0  0  0  0
 19 39  1  0  0  0  0
 20 21  1  0  0  0  0
 20 40  1  0  0  0  0
 20 41  1  0  0  0  0
 21 42  1  0  0  0  0
 21 43  1  0  0  0  0
 22 23  2  0  0  0  0
 24 25  2  0  0  0  0
 24 44  1  0  0  0  0
 25 26  1  0  0  0  0
 26 27  2  0  0  0  0
 28 45  1  0  0  0  0
M  END
>  <DRUGBANK_ID>
DB16344

>  <COMMON_NAME>
Tulrampator

>  <CAS_NUMBER>
1038984-31-4

>  <UNII>
7633T9D4LN

>  <SYNONYMS>
Tulrampator

$$$$
