
 OpenBabel10282417163D

 49 51  0  0  0  0  0  0  0  0999 V2000
   -1.1450   -0.3660   -0.0620 O   0  0  0  0  0  0  0  0  0  0  0  0
    1.1390   -0.3930    0.0300 O   0  0  0  0  0  0  0  0  0  0  0  0
    1.3999   -7.4953    0.2208 O   0  0  0  0  0  0  0  0  0  0  0  0
   -2.8539    1.8718   -0.6909 O   0  0  0  0  0  0  0  0  0  0  0  0
    1.8426   -6.5176   -1.8491 O   0  0  0  0  0  0  0  0  0  0  0  0
   -2.0053   -6.9080    1.5056 N   0  0  0  0  0  0  0  0  0  0  0  0
   -1.0788   -4.6820    1.3943 N   0  0  0  0  0  0  0  0  0  0  0  0
   -3.5913   -5.0891    1.4607 N   0  0  0  0  0  0  0  0  0  0  0  0
    6.0040   -7.3741   -1.2847 N   0  0  0  0  0  0  0  0  0  0  0  0
   -0.7540    1.0160    0.0990 C   0  0  1  0  0  0  0  0  0  0  0  0
    0.7790    1.0080   -0.0840 C   0  0  0  0  0  0  0  0  0  0  0  0
    0.0722   -6.9916    0.2258 C   0  0  2  0  0  0  0  0  0  0  0  0
    0.1060   -5.4734    0.1617 C   0  0  0  0  0  0  0  0  0  0  0  0
   -0.0420   -2.7228    0.1286 C   0  0  0  0  0  0  0  0  0  0  0  0
   -1.4498    1.9329   -0.8938 C   0  0  0  0  0  0  0  0  0  0  0  0
   -0.4775   -4.8513   -0.8560 C   0  0  0  0  0  0  0  0  0  0  0  0
    0.7449   -4.7649    1.1659 C   0  0  0  0  0  0  0  0  0  0  0  0
   -0.5980   -3.4826   -0.8629 C   0  0  0  0  0  0  0  0  0  0  0  0
    0.4630   -3.3783    1.1578 C   0  0  0  0  0  0  0  0  0  0  0  0
   -0.6309   -7.4294    1.5004 C   0  0  0  0  0  0  0  0  0  0  0  0
    2.2605   -7.2172   -0.8739 C   0  0  0  0  0  0  0  0  0  0  0  0
    3.6817   -7.7563   -0.8793 C   0  0  0  0  0  0  0  0  0  0  0  0
   -2.2169   -5.6104    1.4555 C   0  0  0  0  0  0  0  0  0  0  0  0
    3.9335   -9.0817   -0.5162 C   0  0  0  0  0  0  0  0  0  0  0  0
    4.7345   -6.9402   -1.2434 C   0  0  0  0  0  0  0  0  0  0  0  0
    5.2502   -9.5223   -0.5587 C   0  0  0  0  0  0  0  0  0  0  0  0
    6.2362   -8.6489   -0.9568 C   0  0  0  0  0  0  0  0  0  0  0  0
   -0.0170   -1.1260    0.0300 B   0  0  0  0  0  0  0  0  0  0  0  0
   -1.2428   -3.6760    1.3555 H   0  0  0  0  0  0  0  0  0  0  0  0
   -0.1252   -5.0438    1.3907 H   0  0  0  0  0  0  0  0  0  0  0  0
   -4.3810   -5.7333    1.5032 H   0  0  0  0  0  0  0  0  0  0  0  0
   -3.7553   -4.0831    1.4219 H   0  0  0  0  0  0  0  0  0  0  0  0
   -3.1697    0.9327   -0.8264 H   0  0  0  0  0  0  0  0  0  0  0  0
   -1.0167    1.3723    1.0731 H   0  0  0  0  0  0  0  0  0  0  0  0
    1.0848    1.4372   -1.0152 H   0  0  0  0  0  0  0  0  0  0  0  0
    1.2561    1.5866    0.6792 H   0  0  0  0  0  0  0  0  0  0  0  0
   -0.4571   -7.3728   -0.6224 H   0  0  0  0  0  0  0  0  0  0  0  0
   -1.1118    2.9377   -0.7488 H   0  0  0  0  0  0  0  0  0  0  0  0
   -1.2195    1.6195   -1.8906 H   0  0  0  0  0  0  0  0  0  0  0  0
   -0.8574   -5.4210   -1.6782 H   0  0  0  0  0  0  0  0  0  0  0  0
    1.3927   -5.2245    1.8828 H   0  0  0  0  0  0  0  0  0  0  0  0
   -1.1346   -3.0044   -1.6555 H   0  0  0  0  0  0  0  0  0  0  0  0
    0.6737   -2.8223    2.0473 H   0  0  0  0  0  0  0  0  0  0  0  0
   -0.6547   -8.4982    1.5455 H   0  0  0  0  0  0  0  0  0  0  0  0
   -0.1016   -7.0482    2.3486 H   0  0  0  0  0  0  0  0  0  0  0  0
    3.1403   -9.7342   -0.2161 H   0  0  0  0  0  0  0  0  0  0  0  0
    4.5303   -5.9223   -1.5026 H   0  0  0  0  0  0  0  0  0  0  0  0
    5.4945  -10.5276   -0.2854 H   0  0  0  0  0  0  0  0  0  0  0  0
    7.2424   -9.0095   -1.0067 H   0  0  0  0  0  0  0  0  0  0  0  0
  1 10  1  0  0  0  0
  1 28  1  0  0  0  0
  2 11  1  0  0  0  0
  2 28  1  0  0  0  0
  3 21  1  0  0  0  0
  4 15  1  0  0  0  0
  4 33  1  0  0  0  0
  5 21  2  0  0  0  0
  6 20  1  0  0  0  0
  6 23  2  0  0  0  0
  7 23  1  0  0  0  0
  7 29  1  0  0  0  0
  7 30  1  0  0  0  0
  8 23  1  0  0  0  0
  8 31  1  0  0  0  0
  8 32  1  0  0  0  0
  9 25  1  0  0  0  0
  9 27  2  0  0  0  0
 10 11  1  0  0  0  0
 10 15  1  0  0  0  0
 10 34  1  1  0  0  0
 11 35  1  0  0  0  0
 11 36  1  0  0  0  0
 12  3  1  0  0  0  0
 12 13  1  0  0  0  0
 12 20  1  0  0  0  0
 12 37  1  6  0  0  0
 13 16  2  0  0  0  0
 13 17  1  0  0  0  0
 14 18  2  0  0  0  0
 14 19  1  0  0  0  0
 14 28  1  0  0  0  0
 15 38  1  0  0  0  0
 15 39  1  0  0  0  0
 16 18  1  0  0  0  0
 16 40  1  0  0  0  0
 17 19  2  0  0  0  0
 17 41  1  0  0  0  0
 18 42  1  0  0  0  0
 19 43  1  0  0  0  0
 20 44  1  0  0  0  0
 20 45  1  0  0  0  0
 21 22  1  0  0  0  0
 22 24  1  0  0  0  0
 22 25  2  0  0  0  0
 24 26  2  0  0  0  0
 24 46  1  0  0  0  0
 25 47  1  0  0  0  0
 26 27  1  0  0  0  0
 26 48  1  0  0  0  0
 27 49  1  0  0  0  0
M  END
>  <DRUGBANK_ID>
DB07023

>  <COMMON_NAME>
(1R)-2-[(Diaminomethylene)amino]-1-{4-[(4R)-4-(hydroxymethyl)-1,3,2-dioxaborolan-2-yl]phenyl}ethyl nicotinate

$$$$
