6IP
 OpenBabel10282417163D

 33 35  0  0  0  0  0  0  0  0999 V2000
    2.2132   -0.2244   -0.0767 N   0  0  0  0  0  0  0  0  0  0  0  0
    0.8324   -0.2133   -0.2526 C   0  0  0  0  0  0  0  0  0  0  0  0
    0.0860   -1.3560   -0.0439 C   0  0  0  0  0  0  0  0  0  0  0  0
   -1.2992   -1.2461   -0.0309 C   0  0  0  0  0  0  0  0  0  0  0  0
   -1.8924    0.0136   -0.0720 C   0  0  0  0  0  0  0  0  0  0  0  0
   -1.0706    1.1280   -0.1854 C   0  0  0  0  0  0  0  0  0  0  0  0
   -1.6056    2.5296    0.0537 C   0  0  0  0  0  0  0  0  0  0  0  0
   -1.1840    3.1977    1.3955 C   0  0  0  0  0  0  0  0  0  0  0  0
    0.2971    3.4871    1.5574 C   0  0  0  0  0  0  0  0  0  0  0  0
    0.8128    4.7787    1.4215 C   0  0  0  0  0  0  0  0  0  0  0  0
    2.2007    5.0092    1.3917 C   0  0  0  0  0  0  0  0  0  0  0  0
    3.0849    3.9139    1.4161 C   0  0  0  0  0  0  0  0  0  0  0  0
    4.4909    3.7496    1.2657 C   0  0  0  0  0  0  0  0  0  0  0  0
    4.7631    2.3996    1.2778 C   0  0  0  0  0  0  0  0  0  0  0  0
    3.5898    1.7455    1.5462 N   0  0  0  0  0  0  0  0  0  0  0  0
    2.5534    2.6501    1.6217 C   0  0  0  0  0  0  0  0  0  0  0  0
    1.1833    2.4279    1.7974 C   0  0  0  0  0  0  0  0  0  0  0  0
    0.2602    0.9937   -0.4021 N   0  0  0  0  0  0  0  0  0  0  0  0
    2.5446    0.6685   -0.4480 H   0  0  0  0  0  0  0  0  0  0  0  0
    2.6915   -1.0341   -0.4402 H   0  0  0  0  0  0  0  0  0  0  0  0
    0.5739   -2.3080    0.1181 H   0  0  0  0  0  0  0  0  0  0  0  0
   -1.9091   -2.1382    0.0757 H   0  0  0  0  0  0  0  0  0  0  0  0
   -2.9671    0.1142    0.0252 H   0  0  0  0  0  0  0  0  0  0  0  0
   -1.3171    3.1671   -0.7899 H   0  0  0  0  0  0  0  0  0  0  0  0
   -2.7043    2.4902    0.0443 H   0  0  0  0  0  0  0  0  0  0  0  0
   -1.7298    4.1487    1.4766 H   0  0  0  0  0  0  0  0  0  0  0  0
   -1.5218    2.5927    2.2466 H   0  0  0  0  0  0  0  0  0  0  0  0
    0.1421    5.6280    1.3191 H   0  0  0  0  0  0  0  0  0  0  0  0
    2.5853    6.0167    1.2826 H   0  0  0  0  0  0  0  0  0  0  0  0
    5.2153    4.5351    1.1028 H   0  0  0  0  0  0  0  0  0  0  0  0
    5.6818    1.8490    1.1209 H   0  0  0  0  0  0  0  0  0  0  0  0
    3.4520    0.7429    1.5398 H   0  0  0  0  0  0  0  0  0  0  0  0
    0.8100    1.4224    1.9610 H   0  0  0  0  0  0  0  0  0  0  0  0
  1  2  1  0  0  0  0
  1 19  1  0  0  0  0
  1 20  1  0  0  0  0
  2 18  2  0  0  0  0
  2  3  1  0  0  0  0
  3  4  2  0  0  0  0
  3 21  1  0  0  0  0
  4  5  1  0  0  0  0
  4 22  1  0  0  0  0
  5  6  2  0  0  0  0
  5 23  1  0  0  0  0
  6 18  1  0  0  0  0
  6  7  1  0  0  0  0
  7  8  1  0  0  0  0
  7 24  1  0  0  0  0
  7 25  1  0  0  0  0
  8  9  1  0  0  0  0
  8 26  1  0  0  0  0
  8 27  1  0  0  0  0
  9 17  1  0  0  0  0
  9 10  2  0  0  0  0
 10 11  1  0  0  0  0
 10 28  1  0  0  0  0
 11 12  2  0  0  0  0
 11 29  1  0  0  0  0
 12 16  1  0  0  0  0
 12 13  1  0  0  0  0
 13 14  2  0  0  0  0
 13 30  1  0  0  0  0
 14 15  1  0  0  0  0
 14 31  1  0  0  0  0
 15 16  1  0  0  0  0
 15 32  1  0  0  0  0
 16 17  2  0  0  0  0
 17 33  1  0  0  0  0
M  END
>  <DRUGBANK_ID>
DB07206

>  <COMMON_NAME>
6-[2-(1H-INDOL-6-YL)ETHYL]PYRIDIN-2-AMINE

>  <UNII>
K7KY60XF2T

$$$$
