4PY
 OpenBabel10282417163D

 49 53  0  0  0  0  0  0  0  0999 V2000
   -4.1753   -5.7804   -3.7794 C   0  0  0  0  0  0  0  0  0  0  0  0
   -5.0844   -5.3481   -0.3600 C   0  0  0  0  0  0  0  0  0  0  0  0
   -4.2657   -3.3489   -1.8955 C   0  0  0  0  0  0  0  0  0  0  0  0
   -5.5537   -7.9660   -2.4265 C   0  0  0  0  0  0  0  0  0  0  0  0
   -4.9236   -2.0821   -1.3736 C   0  0  1  0  0  0  0  0  0  0  0  0
   -2.8270   -2.8586    0.8806 C   0  0  0  0  0  0  0  0  0  0  0  0
   -2.4562   -3.7498    1.8666 C   0  0  0  0  0  0  0  0  0  0  0  0
   -0.7300   -3.7345   -2.2986 C   0  0  0  0  0  0  0  0  0  0  0  0
   -1.0454   -4.7944    0.3136 C   0  0  0  0  0  0  0  0  0  0  0  0
    0.3979   -4.6107   -2.2802 C   0  0  0  0  0  0  0  0  0  0  0  0
    0.9936   -4.8173   -3.3890 C   0  0  0  0  0  0  0  0  0  0  0  0
    1.0089   -4.0548   -4.5834 C   0  0  0  0  0  0  0  0  0  0  0  0
   -4.6959   -5.7420   -2.4453 C   0  0  0  0  0  0  0  0  0  0  0  0
   -4.7816   -4.6883   -1.6491 C   0  0  0  0  0  0  0  0  0  0  0  0
   -5.2458   -6.8704   -1.7476 C   0  0  0  0  0  0  0  0  0  0  0  0
   -5.4304   -6.5931   -0.4289 N   0  0  0  0  0  0  0  0  0  0  0  0
   -4.4355   -6.8929   -4.4763 C   0  0  0  0  0  0  0  0  0  0  0  0
   -5.2003   -8.0688   -3.8894 C   0  0  0  0  0  0  0  0  0  0  0  0
   -5.1149   -2.1828    0.1638 C   0  0  0  0  0  0  0  0  0  0  0  0
   -4.1275   -0.8650   -1.6435 N   0  0  0  0  0  0  0  0  0  0  0  0
   -3.9277   -2.0501    1.0326 O   0  0  0  0  0  0  0  0  0  0  0  0
   -2.0143   -2.8014   -0.2795 C   0  0  0  0  0  0  0  0  0  0  0  0
   -1.3052   -3.8760   -0.7503 C   0  0  0  0  0  0  0  0  0  0  0  0
   -1.5439   -4.7121    1.6108 N   0  0  0  0  0  0  0  0  0  0  0  0
   -1.0589   -3.0531   -3.3972 N   0  0  0  0  0  0  0  0  0  0  0  0
    0.0892   -2.8818   -4.5755 C   0  0  0  0  0  0  0  0  0  0  0  0
    1.7299   -6.0014   -3.6153 C   0  0  0  0  0  0  0  0  0  0  0  0
    1.8888   -4.5936   -5.3952 N   0  0  0  0  0  0  0  0  0  0  0  0
    2.3394   -5.9069   -4.7471 N   0  0  0  0  0  0  0  0  0  0  0  0
   -5.8681   -1.9891   -1.9191 H   0  0  0  0  0  0  0  0  0  0  0  0
   -3.6318   -4.9412   -4.2063 H   0  0  0  0  0  0  0  0  0  0  0  0
   -4.9562   -4.8285    0.5990 H   0  0  0  0  0  0  0  0  0  0  0  0
   -3.5546   -3.5347   -1.1656 H   0  0  0  0  0  0  0  0  0  0  0  0
   -3.6608   -3.2085   -2.7979 H   0  0  0  0  0  0  0  0  0  0  0  0
   -6.0701   -8.7685   -1.9187 H   0  0  0  0  0  0  0  0  0  0  0  0
   -2.8727   -3.7131    2.8756 H   0  0  0  0  0  0  0  0  0  0  0  0
   -0.3458   -5.6333    0.2828 H   0  0  0  0  0  0  0  0  0  0  0  0
    0.5133   -5.2880   -1.4676 H   0  0  0  0  0  0  0  0  0  0  0  0
   -4.1153   -6.9525   -5.5108 H   0  0  0  0  0  0  0  0  0  0  0  0
   -6.1268   -8.1779   -4.4555 H   0  0  0  0  0  0  0  0  0  0  0  0
   -4.5790   -8.9587   -4.0093 H   0  0  0  0  0  0  0  0  0  0  0  0
   -5.7726   -1.3580    0.4525 H   0  0  0  0  0  0  0  0  0  0  0  0
   -5.7081   -3.0639    0.4200 H   0  0  0  0  0  0  0  0  0  0  0  0
   -4.6871   -0.0488   -1.4009 H   0  0  0  0  0  0  0  0  0  0  0  0
   -3.3799   -0.7992   -0.9482 H   0  0  0  0  0  0  0  0  0  0  0  0
   -2.1176   -2.0494   -1.0346 H   0  0  0  0  0  0  0  0  0  0  0  0
    0.6189   -1.9728   -4.2667 H   0  0  0  0  0  0  0  0  0  0  0  0
   -0.2308   -2.6815   -5.6255 H   0  0  0  0  0  0  0  0  0  0  0  0
    1.6145   -6.7962   -2.8563 H   0  0  0  0  0  0  0  0  0  0  0  0
  1 17  2  0  0  0  0
  1 13  1  0  0  0  0
  1 31  1  0  0  0  0
  2 16  2  0  0  0  0
  2 14  1  0  0  0  0
  2 32  1  0  0  0  0
  3 14  1  0  0  0  0
  3  5  1  0  0  0  0
  3 33  1  0  0  0  0
  3 34  1  0  0  0  0
  4 18  1  0  0  0  0
  4 15  2  0  0  0  0
  4 35  1  0  0  0  0
  5 19  1  0  0  0  0
  5 20  1  0  0  0  0
  5 30  1  6  0  0  0
  6  7  2  0  0  0  0
  6 22  1  0  0  0  0
  6 21  1  0  0  0  0
  7 24  1  0  0  0  0
  7 36  1  0  0  0  0
  8 25  2  0  0  0  0
  8 23  1  0  0  0  0
  8 10  1  0  0  0  0
  9 24  2  0  0  0  0
  9 23  1  0  0  0  0
  9 37  1  0  0  0  0
 10 11  2  0  0  0  0
 10 38  1  0  0  0  0
 11 12  1  0  0  0  0
 11 27  1  0  0  0  0
 12 26  1  0  0  0  0
 12 28  2  0  0  0  0
 13 15  1  0  0  0  0
 13 14  2  0  0  0  0
 15 16  1  0  0  0  0
 17 18  1  0  0  0  0
 17 39  1  0  0  0  0
 18 40  1  0  0  0  0
 18 41  1  0  0  0  0
 19 21  1  0  0  0  0
 19 42  1  0  0  0  0
 19 43  1  0  0  0  0
 20 44  1  0  0  0  0
 20 45  1  0  0  0  0
 22 23  2  0  0  0  0
 22 46  1  0  0  0  0
 25 26  1  0  0  0  0
 26 47  1  0  0  0  0
 26 48  1  0  0  0  0
 27 29  2  0  0  0  0
 27 49  1  0  0  0  0
 28 29  1  0  0  0  0
M  END
>  <DRUGBANK_ID>
DB07124

>  <COMMON_NAME>
(2S)-1-(6H-INDOL-3-YL)-3-{[5-(7H-PYRAZOLO[3,4-C]PYRIDIN-5-YL)PYRIDIN-3-YL]OXY}PROPAN-2-AMINE

$$$$
