
 OpenBabel10282417203D

 52 55  0  0  0  0  0  0  0  0999 V2000
   -2.0859   -0.7421   -0.0036 C   0  0  0  0  0  0  0  0  0  0  0  0
   -2.1206    0.6500    0.0014 C   0  0  0  0  0  0  0  0  0  0  0  0
    1.5451    6.3846   -2.5401 C   0  0  0  0  0  0  0  0  0  0  0  0
   -0.8623   -1.4261    0.0085 C   0  0  0  0  0  0  0  0  0  0  0  0
   -0.9409    1.3974    0.0586 C   0  0  0  0  0  0  0  0  0  0  0  0
    0.2273    6.4101   -1.7772 C   0  0  0  0  0  0  0  0  0  0  0  0
   -2.1907    7.8124   -0.5705 C   0  0  0  0  0  0  0  0  0  0  0  0
   -0.6744    9.7345   -0.6624 C   0  0  0  0  0  0  0  0  0  0  0  0
   -3.2511    8.6765   -0.3552 C   0  0  0  0  0  0  0  0  0  0  0  0
   -1.7563   10.5896   -0.5730 C   0  0  0  0  0  0  0  0  0  0  0  0
    2.1255    3.5818    1.0061 C   0  0  0  0  0  0  0  0  0  0  0  0
    3.1510    2.6028   -1.0590 C   0  0  0  0  0  0  0  0  0  0  0  0
    2.8429    6.2712   -1.7009 C   0  0  0  0  0  0  0  0  0  0  0  0
    2.0590    4.8894    0.1969 C   0  0  0  0  0  0  0  0  0  0  0  0
    3.0099    3.8936   -1.8237 C   0  0  0  0  0  0  0  0  0  0  0  0
   -0.9153    8.3616   -0.6671 C   0  0  0  0  0  0  0  0  0  0  0  0
   -3.0240   10.0532   -0.3609 C   0  0  0  0  0  0  0  0  0  0  0  0
    1.9979    2.4750   -0.0637 C   0  0  0  0  0  0  0  0  0  0  0  0
    0.3342   -0.6904    0.0724 C   0  0  0  0  0  0  0  0  0  0  0  0
    0.2765    0.6977    0.1388 C   0  0  0  0  0  0  0  0  0  0  0  0
    0.2482    7.4988   -0.7269 C   0  0  0  0  0  0  0  0  0  0  0  0
    2.3709   -0.0413    0.1398 C   0  0  0  0  0  0  0  0  0  0  0  0
   -4.0505   10.8817   -0.1433 F   0  0  0  0  0  0  0  0  0  0  0  0
    1.6329   -1.1219    0.0644 N   0  0  0  0  0  0  0  0  0  0  0  0
    3.0210    5.0337   -0.9101 N   0  0  0  0  0  0  0  0  0  0  0  0
    1.6090    1.1079    0.2322 N   0  0  0  0  0  0  0  0  0  0  0  0
    1.1415    7.7390    0.0598 O   0  0  0  0  0  0  0  0  0  0  0  0
    3.6899   -0.1156    0.0498 O   0  0  0  0  0  0  0  0  0  0  0  0
   -3.0176   -1.3030   -0.0164 H   0  0  0  0  0  0  0  0  0  0  0  0
   -3.0790    1.1651   -0.0235 H   0  0  0  0  0  0  0  0  0  0  0  0
    1.6023    7.3042   -3.1345 H   0  0  0  0  0  0  0  0  0  0  0  0
    1.5000    5.5783   -3.2810 H   0  0  0  0  0  0  0  0  0  0  0  0
   -0.8348   -2.5102   -0.0178 H   0  0  0  0  0  0  0  0  0  0  0  0
   -0.9865    2.4806    0.0534 H   0  0  0  0  0  0  0  0  0  0  0  0
   -0.5852    6.5739   -2.4893 H   0  0  0  0  0  0  0  0  0  0  0  0
   -0.0686    5.4642   -1.3279 H   0  0  0  0  0  0  0  0  0  0  0  0
   -2.3515    6.7387   -0.6212 H   0  0  0  0  0  0  0  0  0  0  0  0
    0.3435   10.1157   -0.7249 H   0  0  0  0  0  0  0  0  0  0  0  0
   -4.2477    8.2893   -0.1770 H   0  0  0  0  0  0  0  0  0  0  0  0
   -1.6127   11.6610   -0.6437 H   0  0  0  0  0  0  0  0  0  0  0  0
    1.2636    3.5776    1.6900 H   0  0  0  0  0  0  0  0  0  0  0  0
    3.0347    3.5607    1.6160 H   0  0  0  0  0  0  0  0  0  0  0  0
    4.1174    2.6049   -0.5440 H   0  0  0  0  0  0  0  0  0  0  0  0
    3.1329    1.7838   -1.7819 H   0  0  0  0  0  0  0  0  0  0  0  0
    2.9883    7.1499   -1.0656 H   0  0  0  0  0  0  0  0  0  0  0  0
    3.6861    6.3483   -2.4045 H   0  0  0  0  0  0  0  0  0  0  0  0
    1.0725    4.8011   -0.2229 H   0  0  0  0  0  0  0  0  0  0  0  0
    2.0419    5.7557    0.8588 H   0  0  0  0  0  0  0  0  0  0  0  0
    3.8320    3.9770   -2.5424 H   0  0  0  0  0  0  0  0  0  0  0  0
    2.0768    3.8343   -2.3955 H   0  0  0  0  0  0  0  0  0  0  0  0
    1.1085    2.7985   -0.6169 H   0  0  0  0  0  0  0  0  0  0  0  0
    4.0824    0.7603    0.1432 H   0  0  0  0  0  0  0  0  0  0  0  0
  1 29  1  0  0  0  0
  2  1  2  0  0  0  0
  2 30  1  0  0  0  0
  3 31  1  0  0  0  0
  3 32  1  0  0  0  0
  4  1  1  0  0  0  0
  4 33  1  0  0  0  0
  5  2  1  0  0  0  0
  5 34  1  0  0  0  0
  6  3  1  0  0  0  0
  6 35  1  0  0  0  0
  6 36  1  0  0  0  0
  7 37  1  0  0  0  0
  8 38  1  0  0  0  0
  9  7  1  0  0  0  0
  9 39  1  0  0  0  0
 10  8  2  0  0  0  0
 10 40  1  0  0  0  0
 11 41  1  0  0  0  0
 11 42  1  0  0  0  0
 12 43  1  0  0  0  0
 12 44  1  0  0  0  0
 13  3  1  0  0  0  0
 13 45  1  0  0  0  0
 13 46  1  0  0  0  0
 14 11  1  0  0  0  0
 14 47  1  0  0  0  0
 14 48  1  0  0  0  0
 15 12  1  0  0  0  0
 15 49  1  0  0  0  0
 15 50  1  0  0  0  0
 16  7  2  0  0  0  0
 16  8  1  0  0  0  0
 17  9  2  0  0  0  0
 17 10  1  0  0  0  0
 18 11  1  0  0  0  0
 18 12  1  0  0  0  0
 18 51  1  0  0  0  0
 19  4  2  0  0  0  0
 20  5  2  0  0  0  0
 20 19  1  0  0  0  0
 21  6  1  0  0  0  0
 21 16  1  0  0  0  0
 23 17  1  0  0  0  0
 24 19  1  0  0  0  0
 24 22  2  0  0  0  0
 25 13  1  0  0  0  0
 25 14  1  0  0  0  0
 25 15  1  0  0  0  0
 26 18  1  0  0  0  0
 26 20  1  0  0  0  0
 26 22  1  0  0  0  0
 27 21  2  0  0  0  0
 28 22  1  0  0  0  0
 28 52  1  0  0  0  0
M  END
>  <DRUGBANK_ID>
DB12867

>  <COMMON_NAME>
Benperidol

>  <CAS_NUMBER>
2062-84-2

>  <UNII>
97O6X78C53

>  <SYNONYMS>
Benperidol; Benperidolum

$$$$
