
 OpenBabel10282417133D

108111  0  0  0  0  0  0  0  0999 V2000
   -5.9836   -5.7523   -2.0258 S   0  0  0  0  0  0  0  0  0  0  0  0
   -0.4660   -5.2285    2.0863 P   0  0  0  0  0  0  0  0  0  0  0  0
   -2.1239   -6.8291    6.1720 P   0  0  2  0  0  0  0  0  0  0  0  0
   -3.6406   -4.1612    5.7792 P   0  0  2  0  0  0  0  0  0  0  0  0
    1.3184   -8.1374    5.0217 O   0  0  0  0  0  0  0  0  0  0  0  0
   -1.5118   -5.8014    3.3397 O   0  0  0  0  0  0  0  0  0  0  0  0
    0.4849   -7.9557    1.9262 O   0  0  0  0  0  0  0  0  0  0  0  0
   -0.8021   -6.3864    7.1173 O   0  0  0  0  0  0  0  0  0  0  0  0
    1.0604   -5.6141    2.6129 O   0  0  0  0  0  0  0  0  0  0  0  0
   -1.0444   -6.4043    1.1380 O   0  0  0  0  0  0  0  0  0  0  0  0
   -2.8747   -5.3281    6.5915 O   0  0  0  0  0  0  0  0  0  0  0  0
    0.4700   -4.7157    0.9646 O   0  0  0  0  0  0  0  0  0  0  0  0
   -2.2681   -3.5786    5.1780 O   0  0  0  0  0  0  0  0  0  0  0  0
   -3.0150   -7.4570    7.3966 O   0  0  0  0  0  0  0  0  0  0  0  0
   -1.4519   -8.1725    5.7965 O   0  0  0  0  0  0  0  0  0  0  0  0
   -3.4351   -6.1541    4.4098 O   0  0  0  0  0  0  0  0  0  0  0  0
   -3.8695   -2.6610    6.2303 O   0  0  0  0  0  0  0  0  0  0  0  0
   -4.8619   -4.6055    5.0470 O   0  0  0  0  0  0  0  0  0  0  0  0
   -3.5823   -7.1762    1.3024 O   0  0  0  0  0  0  0  0  0  0  0  0
   -3.8953   -1.4914   -0.6246 O   0  0  0  0  0  0  0  0  0  0  0  0
   -7.2954   -3.8059   -2.8978 O   0  0  0  0  0  0  0  0  0  0  0  0
    0.0988  -10.0534    4.8656 N   0  0  0  0  0  0  0  0  0  0  0  0
   -0.6236  -11.0445    6.7241 N   0  0  0  0  0  0  0  0  0  0  0  0
   -1.0482  -11.3539    3.1704 N   0  0  0  0  0  0  0  0  0  0  0  0
   -2.2444  -13.1978    4.2099 N   0  0  0  0  0  0  0  0  0  0  0  0
   -2.3163  -13.5017    6.5601 N   0  0  0  0  0  0  0  0  0  0  0  0
   -4.5315   -5.0558    1.8195 N   0  0  0  0  0  0  0  0  0  0  0  0
   -3.8649   -3.5683   -0.9670 N   0  0  0  0  0  0  0  0  0  0  0  0
   -4.9653    1.0020    4.2572 N   0  0  0  0  0  0  0  0  0  0  0  0
   -0.6893   -7.1109    3.8778 C   0  0  1  0  0  0  0  0  0  0  0  0
   -0.2322   -8.3086    3.0872 C   0  0  2  0  0  0  0  0  0  0  0  0
    0.6078   -6.9057    4.9985 C   0  0  1  0  0  0  0  0  0  0  0  0
    0.7105   -9.0402    4.0615 C   0  0  1  0  0  0  0  0  0  0  0  0
    0.3498   -5.9945    6.3798 C   0  0  0  0  0  0  0  0  0  0  0  0
   -0.7267  -11.0339    4.4331 C   0  0  0  0  0  0  0  0  0  0  0  0
    0.1050  -10.0705    6.2439 C   0  0  0  0  0  0  0  0  0  0  0  0
   -1.1287  -11.6522    5.5999 C   0  0  0  0  0  0  0  0  0  0  0  0
   -1.9312   -4.1116    3.0337 C   0  0  0  0  0  0  0  0  0  0  0  0
   -1.9186  -12.7864    5.4571 C   0  0  0  0  0  0  0  0  0  0  0  0
   -3.2130   -5.7077    3.1507 C   0  0  2  0  0  0  0  0  0  0  0  0
   -1.7708   -2.9886    4.0105 C   0  0  0  0  0  0  0  0  0  0  0  0
   -0.4202   -4.4851    4.2673 C   0  0  0  0  0  0  0  0  0  0  0  0
   -1.4888   -3.7348    1.1331 C   0  0  0  0  0  0  0  0  0  0  0  0
   -1.8082  -12.4661    3.1571 C   0  0  0  0  0  0  0  0  0  0  0  0
   -3.8398   -6.2175    1.9403 C   0  0  0  0  0  0  0  0  0  0  0  0
   -4.2677   -3.7968    2.4373 C   0  0  0  0  0  0  0  0  0  0  0  0
   -3.4202   -2.8853    1.5106 C   0  0  0  0  0  0  0  0  0  0  0  0
   -3.6608   -2.5866   -0.0933 C   0  0  0  0  0  0  0  0  0  0  0  0
   -3.6091   -4.9638   -0.9326 C   0  0  0  0  0  0  0  0  0  0  0  0
   -4.7806   -5.9429   -0.7898 C   0  0  0  0  0  0  0  0  0  0  0  0
   -6.7206   -4.1656   -1.8761 C   0  0  0  0  0  0  0  0  0  0  0  0
   -6.6710   -3.1139   -0.7798 C   0  0  0  0  0  0  0  0  0  0  0  0
   -5.8772   -1.8843    1.3628 C   0  0  0  0  0  0  0  0  0  0  0  0
   -5.3103   -0.0088    3.4181 C   0  0  0  0  0  0  0  0  0  0  0  0
   -6.1769   -3.0779    0.4546 C   0  0  0  0  0  0  0  0  0  0  0  0
   -6.9070   -1.4548    2.0728 C   0  0  0  0  0  0  0  0  0  0  0  0
   -4.7163   -1.0558    1.6312 C   0  0  0  0  0  0  0  0  0  0  0  0
   -6.6233   -0.4255    2.9795 C   0  0  0  0  0  0  0  0  0  0  0  0
   -4.2942   -0.5568    2.8162 C   0  0  0  0  0  0  0  0  0  0  0  0
   -3.5994    1.4081    4.6082 C   0  0  0  0  0  0  0  0  0  0  0  0
   -6.1032    1.7478    4.6612 C   0  0  0  0  0  0  0  0  0  0  0  0
   -2.0462  -13.1471    7.4703 H   0  0  0  0  0  0  0  0  0  0  0  0
   -2.8452  -14.3432    6.4337 H   0  0  0  0  0  0  0  0  0  0  0  0
   -4.5409   -4.8851    0.8806 H   0  0  0  0  0  0  0  0  0  0  0  0
   -4.4103   -3.1629   -1.7212 H   0  0  0  0  0  0  0  0  0  0  0  0
    1.0553   -7.1777    2.1295 H   0  0  0  0  0  0  0  0  0  0  0  0
    1.4884   -4.7004    2.7075 H   0  0  0  0  0  0  0  0  0  0  0  0
   -1.2147   -7.3295    1.4002 H   0  0  0  0  0  0  0  0  0  0  0  0
   -3.8775   -7.0200    7.4984 H   0  0  0  0  0  0  0  0  0  0  0  0
   -2.6192   -5.6636    4.6085 H   0  0  0  0  0  0  0  0  0  0  0  0
   -3.5996   -2.1329    5.4332 H   0  0  0  0  0  0  0  0  0  0  0  0
   -1.6039   -7.5937    4.1463 H   0  0  0  0  0  0  0  0  0  0  0  0
   -1.1155   -8.8870    2.7619 H   0  0  0  0  0  0  0  0  0  0  0  0
    1.4500   -6.3637    4.5500 H   0  0  0  0  0  0  0  0  0  0  0  0
    1.4961   -9.4942    3.4523 H   0  0  0  0  0  0  0  0  0  0  0  0
    0.0724   -4.9310    6.2888 H   0  0  0  0  0  0  0  0  0  0  0  0
    1.2860   -5.6734    6.8739 H   0  0  0  0  0  0  0  0  0  0  0  0
    0.5416   -9.2636    6.8271 H   0  0  0  0  0  0  0  0  0  0  0  0
   -2.8046   -6.7889    2.9908 H   0  0  0  0  0  0  0  0  0  0  0  0
   -0.6710   -2.6874    4.0764 H   0  0  0  0  0  0  0  0  0  0  0  0
   -2.0644   -2.0304    3.7097 H   0  0  0  0  0  0  0  0  0  0  0  0
    0.1420   -5.3228    4.0431 H   0  0  0  0  0  0  0  0  0  0  0  0
    0.5419   -3.9978    4.4897 H   0  0  0  0  0  0  0  0  0  0  0  0
   -0.9425   -5.0310    5.0366 H   0  0  0  0  0  0  0  0  0  0  0  0
   -1.2095   -4.3942    0.2109 H   0  0  0  0  0  0  0  0  0  0  0  0
   -2.3154   -4.3835    1.1182 H   0  0  0  0  0  0  0  0  0  0  0  0
   -0.6930   -3.0244    1.3279 H   0  0  0  0  0  0  0  0  0  0  0  0
   -2.0878  -12.8324    2.1736 H   0  0  0  0  0  0  0  0  0  0  0  0
   -3.7940   -3.8408    3.4048 H   0  0  0  0  0  0  0  0  0  0  0  0
   -5.1908   -3.4976    2.8932 H   0  0  0  0  0  0  0  0  0  0  0  0
   -2.4381   -2.3415    1.5350 H   0  0  0  0  0  0  0  0  0  0  0  0
   -3.2388   -2.2655    2.3771 H   0  0  0  0  0  0  0  0  0  0  0  0
   -3.0621   -5.1440   -0.0540 H   0  0  0  0  0  0  0  0  0  0  0  0
   -2.8348   -5.1689   -1.6575 H   0  0  0  0  0  0  0  0  0  0  0  0
   -5.4406   -5.9675    0.0936 H   0  0  0  0  0  0  0  0  0  0  0  0
   -4.3032   -6.9197   -0.6973 H   0  0  0  0  0  0  0  0  0  0  0  0
   -7.0017   -2.1446   -1.1101 H   0  0  0  0  0  0  0  0  0  0  0  0
   -5.8935   -4.0548    0.7393 H   0  0  0  0  0  0  0  0  0  0  0  0
   -7.8741   -1.7912    1.7353 H   0  0  0  0  0  0  0  0  0  0  0  0
   -3.7622   -0.9053    1.1294 H   0  0  0  0  0  0  0  0  0  0  0  0
   -7.4953    0.1327    3.2484 H   0  0  0  0  0  0  0  0  0  0  0  0
   -3.2273   -0.3429    2.9457 H   0  0  0  0  0  0  0  0  0  0  0  0
   -3.3837    2.4217    4.2641 H   0  0  0  0  0  0  0  0  0  0  0  0
   -3.4770    1.2923    5.6833 H   0  0  0  0  0  0  0  0  0  0  0  0
   -2.7624    0.8155    4.2078 H   0  0  0  0  0  0  0  0  0  0  0  0
   -6.6088    2.1586    3.7760 H   0  0  0  0  0  0  0  0  0  0  0  0
   -6.7744    1.0496    5.1727 H   0  0  0  0  0  0  0  0  0  0  0  0
   -5.8051    2.5424    5.3263 H   0  0  0  0  0  0  0  0  0  0  0  0
  1 50  1  0  0  0  0
  1 51  1  0  0  0  0
  2  6  1  0  0  0  0
  2  9  1  0  0  0  0
  2 10  1  0  0  0  0
  2 12  2  0  0  0  0
  3  8  1  0  0  0  0
  3 11  1  0  0  0  0
  3 14  1  0  0  0  0
  3 15  2  6  0  0  0
  4 11  1  0  0  0  0
  4 13  1  0  0  0  0
  4 17  1  0  0  0  0
  4 18  2  6  0  0  0
  5 32  1  0  0  0  0
  5 33  1  0  0  0  0
  7 66  1  0  0  0  0
  8 34  1  0  0  0  0
  9 67  1  0  0  0  0
 10 68  1  0  0  0  0
 13 41  1  0  0  0  0
 14 69  1  0  0  0  0
 16 70  1  0  0  0  0
 17 71  1  0  0  0  0
 19 45  2  0  0  0  0
 20 48  2  0  0  0  0
 21 51  2  0  0  0  0
 22 35  1  0  0  0  0
 22 36  1  0  0  0  0
 23 36  2  0  0  0  0
 23 37  1  0  0  0  0
 24 35  2  0  0  0  0
 24 44  1  0  0  0  0
 25 39  1  0  0  0  0
 25 44  2  0  0  0  0
 26 39  1  0  0  0  0
 26 62  1  0  0  0  0
 26 63  1  0  0  0  0
 27 45  1  0  0  0  0
 27 46  1  0  0  0  0
 27 64  1  0  0  0  0
 28 48  1  0  0  0  0
 28 49  1  0  0  0  0
 28 65  1  0  0  0  0
 29 54  1  0  0  0  0
 29 60  1  0  0  0  0
 29 61  1  0  0  0  0
 30  6  1  0  0  0  0
 30 31  1  0  0  0  0
 30 32  1  0  0  0  0
 30 72  1  1  0  0  0
 31  7  1  0  0  0  0
 31 33  1  0  0  0  0
 31 73  1  6  0  0  0
 32 74  1  6  0  0  0
 32 34  1  0  0  0  0
 33 22  1  0  0  0  0
 33 75  1  6  0  0  0
 34 76  1  0  0  0  0
 34 77  1  0  0  0  0
 35 37  1  0  0  0  0
 36 78  1  0  0  0  0
 37 39  2  0  0  0  0
 38 41  1  0  0  0  0
 38 42  1  0  0  0  0
 38 43  1  0  0  0  0
 40 45  1  0  0  0  0
 40 79  1  6  0  0  0
 40 38  1  0  0  0  0
 40 16  1  0  0  0  0
 41 80  1  0  0  0  0
 41 81  1  0  0  0  0
 42 82  1  0  0  0  0
 42 83  1  0  0  0  0
 42 84  1  0  0  0  0
 43 85  1  0  0  0  0
 43 86  1  0  0  0  0
 43 87  1  0  0  0  0
 44 88  1  0  0  0  0
 46 47  1  0  0  0  0
 46 89  1  0  0  0  0
 46 90  1  0  0  0  0
 47 48  1  0  0  0  0
 47 91  1  0  0  0  0
 47 92  1  0  0  0  0
 49 50  1  0  0  0  0
 49 93  1  0  0  0  0
 49 94  1  0  0  0  0
 50 95  1  0  0  0  0
 50 96  1  0  0  0  0
 51 52  1  0  0  0  0
 52 55  2  0  0  0  0
 52 97  1  0  0  0  0
 53 55  1  0  0  0  0
 53 56  2  0  0  0  0
 53 57  1  0  0  0  0
 54 58  2  0  0  0  0
 54 59  1  0  0  0  0
 55 98  1  0  0  0  0
 56 58  1  0  0  0  0
 56 99  1  0  0  0  0
 57 59  2  0  0  0  0
 57100  1  0  0  0  0
 58101  1  0  0  0  0
 59102  1  0  0  0  0
 60103  1  0  0  0  0
 60104  1  0  0  0  0
 60105  1  0  0  0  0
 61106  1  0  0  0  0
 61107  1  0  0  0  0
 61108  1  0  0  0  0
M  END
>  <DRUGBANK_ID>
DB04117

>  <SECONDARY_ACCESSION_NUMBERS>
EXPT01108

>  <COMMON_NAME>
4-(N,N-Dimethylamino)cinnamoyl-CoA

$$$$
