
 OpenBabel10282417243D

 37 38  0  0  0  0  0  0  0  0999 V2000
    1.1269   -0.6824    0.2897 C   0  0  0  0  0  0  0  0  0  0  0  0
    0.5258   -0.3651    1.6406 C   0  0  0  0  0  0  0  0  0  0  0  0
    0.9843    1.0098    2.1981 C   0  0  0  0  0  0  0  0  0  0  0  0
    0.3403    2.3656    1.6267 C   0  0  3  0  0  0  0  0  0  0  0  0
    1.3835    3.4814    1.2774 C   0  0  0  0  0  0  0  0  0  0  0  0
    0.9432    4.7088    2.0491 C   0  0  0  0  0  0  0  0  0  0  0  0
    0.4767    4.1114    3.2872 N   0  0  0  0  0  0  0  0  0  0  0  0
   -0.1996    5.0831    4.1319 C   0  0  0  0  0  0  0  0  0  0  0  0
   -0.4211    3.0354    2.8314 C   0  0  0  0  0  0  0  0  0  0  0  0
   -0.4628    2.1377    0.3322 C   0  0  0  0  0  0  0  0  0  0  0  0
    0.2314    1.9644   -0.8989 C   0  0  0  0  0  0  0  0  0  0  0  0
   -0.3845    1.2999   -1.9737 C   0  0  0  0  0  0  0  0  0  0  0  0
   -1.7133    0.9543   -1.8877 C   0  0  0  0  0  0  0  0  0  0  0  0
   -2.4492    1.3163   -0.7587 C   0  0  0  0  0  0  0  0  0  0  0  0
   -3.7730    1.0494   -0.6523 O   0  0  0  0  0  0  0  0  0  0  0  0
   -1.8253    1.8917    0.3541 C   0  0  0  0  0  0  0  0  0  0  0  0
    0.6339   -0.0661   -0.4154 H   0  0  0  0  0  0  0  0  0  0  0  0
    0.8918   -1.6684   -0.1119 H   0  0  0  0  0  0  0  0  0  0  0  0
    2.1922   -0.4511    0.2172 H   0  0  0  0  0  0  0  0  0  0  0  0
   -0.5688   -0.4059    1.5890 H   0  0  0  0  0  0  0  0  0  0  0  0
    0.8240   -1.1676    2.3273 H   0  0  0  0  0  0  0  0  0  0  0  0
    0.7534    0.9333    3.2714 H   0  0  0  0  0  0  0  0  0  0  0  0
    2.0785    1.0612    2.1736 H   0  0  0  0  0  0  0  0  0  0  0  0
    1.3888    3.7952    0.2275 H   0  0  0  0  0  0  0  0  0  0  0  0
    2.4061    3.1803    1.5220 H   0  0  0  0  0  0  0  0  0  0  0  0
    0.1265    5.2183    1.5156 H   0  0  0  0  0  0  0  0  0  0  0  0
    1.7667    5.4160    2.1770 H   0  0  0  0  0  0  0  0  0  0  0  0
   -1.0903    5.5049    3.6534 H   0  0  0  0  0  0  0  0  0  0  0  0
   -0.4973    4.6182    5.0767 H   0  0  0  0  0  0  0  0  0  0  0  0
    0.4781    5.9084    4.3782 H   0  0  0  0  0  0  0  0  0  0  0  0
   -0.6028    2.3509    3.6687 H   0  0  0  0  0  0  0  0  0  0  0  0
   -1.3930    3.4406    2.5362 H   0  0  0  0  0  0  0  0  0  0  0  0
    1.3132    2.0688   -0.9447 H   0  0  0  0  0  0  0  0  0  0  0  0
    0.2494    0.8951   -2.7672 H   0  0  0  0  0  0  0  0  0  0  0  0
   -2.1573    0.3416   -2.6717 H   0  0  0  0  0  0  0  0  0  0  0  0
   -4.0837    0.7370   -1.5239 H   0  0  0  0  0  0  0  0  0  0  0  0
   -2.4215    2.0400    1.2488 H   0  0  0  0  0  0  0  0  0  0  0  0
  1  2  1  0  0  0  0
  1 17  1  0  0  0  0
  1 18  1  0  0  0  0
  1 19  1  0  0  0  0
  2  3  1  0  0  0  0
  2 20  1  0  0  0  0
  2 21  1  0  0  0  0
  3  4  1  0  0  0  0
  3 22  1  0  0  0  0
  3 23  1  0  0  0  0
  4  5  1  0  0  0  0
  4  9  1  0  0  0  0
  4 10  1  0  0  0  0
  5  6  1  0  0  0  0
  5 24  1  0  0  0  0
  5 25  1  0  0  0  0
  6  7  1  0  0  0  0
  6 26  1  0  0  0  0
  6 27  1  0  0  0  0
  7  8  1  0  0  0  0
  7  9  1  0  0  0  0
  8 28  1  0  0  0  0
  8 29  1  0  0  0  0
  8 30  1  0  0  0  0
  9 31  1  0  0  0  0
  9 32  1  0  0  0  0
 10 11  2  0  0  0  0
 10 16  1  0  0  0  0
 11 12  1  0  0  0  0
 11 33  1  0  0  0  0
 12 13  2  0  0  0  0
 12 34  1  0  0  0  0
 13 14  1  0  0  0  0
 13 35  1  0  0  0  0
 14 15  1  0  0  0  0
 14 16  2  0  0  0  0
 15 36  1  0  0  0  0
 16 37  1  0  0  0  0
M  END
>  <DRUGBANK_ID>
DB17993

>  <COMMON_NAME>
Profadol

>  <CAS_NUMBER>
428-37-5

>  <UNII>
41GDG43FTT

>  <SYNONYMS>
A-2205 free base; Ci-572 free base; Dl-profadol; M-(1-methyl-3-propyl-3-pyrrolidinyl)phenol; Phenol, 3-(1-methyl-3-propyl-3-pyrrolidinyl)-; Phenol, m-(1-methyl-3-propyl-3-pyrrolidinyl)-

$$$$
