
 OpenBabel10282417203D

  8  7  0  0  0  0  0  0  0  0999 V2000
    1.0618    0.0417    0.0659 C   0  0  0  0  0  0  0  0  0  0  0  0
    0.5535    0.1292    1.4883 C   0  0  0  0  0  0  0  0  0  0  0  0
    0.6294    1.1003   -0.6745 F   0  0  0  0  0  0  0  0  0  0  0  0
    0.9900    1.2467    2.1093 F   0  0  0  0  0  0  0  0  0  0  0  0
   -0.7962    0.1190    1.5403 F   0  0  0  0  0  0  0  0  0  0  0  0
    0.9920   -0.9299    2.2111 F   0  0  0  0  0  0  0  0  0  0  0  0
    0.7040   -0.8715   -0.4172 H   0  0  0  0  0  0  0  0  0  0  0  0
    2.1551    0.0445    0.0450 H   0  0  0  0  0  0  0  0  0  0  0  0
  1  7  1  0  0  0  0
  1  8  1  0  0  0  0
  2  1  1  0  0  0  0
  3  1  1  0  0  0  0
  4  2  1  0  0  0  0
  5  2  1  0  0  0  0
  6  2  1  0  0  0  0
M  END
>  <DRUGBANK_ID>
DB13116

>  <COMMON_NAME>
Norflurane

>  <CAS_NUMBER>
811-97-2

>  <UNII>
DH9E53K1Y8

>  <SYNONYMS>
1,1,1,2 Tetrafluoroethane; Norflurane; Tetrafluoroethane

$$$$
