
 OpenBabel10282417203D

 50 53  0  0  1  0  0  0  0  0999 V2000
    1.1528   -0.0580    0.4698 C   0  0  0  0  0  0  0  0  0  0  0  0
    0.8256   -0.5770   -1.3897 C   0  0  2  0  0  0  0  0  0  0  0  0
    1.9564   -0.5545   -2.3759 C   0  0  0  0  0  0  0  0  0  0  0  0
    2.7884    0.6952   -2.3594 C   0  0  1  0  0  0  0  0  0  0  0  0
    1.8558    1.7949   -2.8309 C   0  0  2  0  0  0  0  0  0  0  0  0
    2.6803    3.1123   -2.8816 C   0  0  0  0  0  0  0  0  0  0  0  0
    4.0785    3.0790   -3.1381 C   0  0  0  0  0  0  0  0  0  0  0  0
    4.8954    4.2042   -3.0586 C   0  0  0  0  0  0  0  0  0  0  0  0
    4.3256    5.4233   -2.7665 C   0  0  0  0  0  0  0  0  0  0  0  0
    2.9445    5.5111   -2.5492 C   0  0  0  0  0  0  0  0  0  0  0  0
    2.1061    4.3527   -2.6132 C   0  0  0  0  0  0  0  0  0  0  0  0
    0.6206    4.4420   -2.3356 C   0  0  0  0  0  0  0  0  0  0  0  0
   -0.2651    3.0955   -2.5664 C   0  0  0  0  0  0  0  0  0  0  0  0
    0.4448    1.7528   -1.9593 C   0  0  1  0  0  0  0  0  0  0  0  0
   -0.1372    0.2186   -0.9269 C   0  0  2  0  0  0  0  0  0  0  0  0
    0.3976   -1.7071   -0.3835 C   0  0  0  0  0  0  0  0  0  0  0  0
    0.1923   -2.7947   -1.4176 C   0  0  0  0  0  0  0  0  0  0  0  0
   -0.5642   -1.6525   -1.8562 C   0  0  1  0  0  0  0  0  0  0  0  0
   -1.8845   -1.5929   -0.9389 C   0  0  0  0  0  0  0  0  0  0  0  0
   -2.6934   -1.3600   -0.0381 C   0  0  0  0  0  0  0  0  0  0  0  0
   -0.9177   -1.7387   -3.1932 O   0  0  0  0  0  0  0  0  0  0  0  0
    5.1692    6.4954   -2.7136 O   0  0  0  0  0  0  0  0  0  0  0  0
    3.5104    1.0384   -1.1307 O   0  0  0  0  0  0  0  0  0  0  0  0
    2.7751    1.7947   -0.1818 C   0  0  0  0  0  0  0  0  0  0  0  0
    0.6409   -0.6219    1.2844 H   0  0  0  0  0  0  0  0  0  0  0  0
    0.7158    0.9338    0.7652 H   0  0  0  0  0  0  0  0  0  0  0  0
    2.2032   -0.2624    0.6338 H   0  0  0  0  0  0  0  0  0  0  0  0
    2.6079   -1.4086   -2.1761 H   0  0  0  0  0  0  0  0  0  0  0  0
    1.5476   -0.7220   -3.3893 H   0  0  0  0  0  0  0  0  0  0  0  0
    3.5720    0.4848   -3.0936 H   0  0  0  0  0  0  0  0  0  0  0  0
    1.5817    1.6184   -3.8883 H   0  0  0  0  0  0  0  0  0  0  0  0
    4.5940    2.1462   -3.3466 H   0  0  0  0  0  0  0  0  0  0  0  0
    5.9667    4.1055   -3.2142 H   0  0  0  0  0  0  0  0  0  0  0  0
    2.5142    6.4825   -2.3191 H   0  0  0  0  0  0  0  0  0  0  0  0
    0.2386    5.2608   -2.9671 H   0  0  0  0  0  0  0  0  0  0  0  0
    0.5072    4.7807   -1.2967 H   0  0  0  0  0  0  0  0  0  0  0  0
   -0.3786    3.0353   -3.6613 H   0  0  0  0  0  0  0  0  0  0  0  0
   -1.2449    3.2905   -2.1285 H   0  0  0  0  0  0  0  0  0  0  0  0
    0.5772    2.3304   -1.0503 H   0  0  0  0  0  0  0  0  0  0  0  0
   -1.2134    0.3694   -0.9864 H   0  0  0  0  0  0  0  0  0  0  0  0
    0.1931   -2.1932    0.6097 H   0  0  0  0  0  0  0  0  0  0  0  0
    1.5581   -1.8913   -0.2127 H   0  0  0  0  0  0  0  0  0  0  0  0
   -0.3351   -3.6891   -1.0948 H   0  0  0  0  0  0  0  0  0  0  0  0
    1.1219   -3.0596   -1.9452 H   0  0  0  0  0  0  0  0  0  0  0  0
   -3.3250   -1.0590    0.7609 H   0  0  0  0  0  0  0  0  0  0  0  0
   -1.5290   -2.4979   -3.1880 H   0  0  0  0  0  0  0  0  0  0  0  0
    4.6680    7.3021   -2.5202 H   0  0  0  0  0  0  0  0  0  0  0  0
    2.3872    2.8157   -0.2707 H   0  0  0  0  0  0  0  0  0  0  0  0
    1.8683    1.3911   -0.4700 H   0  0  0  0  0  0  0  0  0  0  0  0
    2.8897    1.5088    0.8699 H   0  0  0  0  0  0  0  0  0  0  0  0
  1 25  1  0  0  0  0
  1 26  1  0  0  0  0
  1 27  1  0  0  0  0
  2  1  1  1  0  0  0
  2  3  1  0  0  0  0
  2 15  1  0  0  0  0
  2 18  1  0  0  0  0
  3  4  1  0  0  0  0
  3 28  1  0  0  0  0
  3 29  1  0  0  0  0
  4  5  1  0  0  0  0
  4 23  1  0  0  0  0
  4 30  1  6  0  0  0
  5  6  1  0  0  0  0
  5 14  1  0  0  0  0
  5 31  1  6  0  0  0
  6  7  2  0  0  0  0
  6 11  1  0  0  0  0
  7  8  1  0  0  0  0
  7 32  1  0  0  0  0
  8  9  2  0  0  0  0
  8 33  1  0  0  0  0
  9 10  1  0  0  0  0
  9 22  1  0  0  0  0
 10 11  2  0  0  0  0
 10 34  1  0  0  0  0
 11 12  1  0  0  0  0
 12 13  1  0  0  0  0
 12 35  1  0  0  0  0
 12 36  1  0  0  0  0
 13 37  1  0  0  0  0
 13 38  1  0  0  0  0
 14 13  1  0  0  0  0
 14 15  1  0  0  0  0
 14 39  1  1  0  0  0
 15 16  1  0  0  0  0
 15 40  1  6  0  0  0
 16 17  1  0  0  0  0
 16 41  1  0  0  0  0
 16 42  1  0  0  0  0
 17 18  1  0  0  0  0
 17 43  1  0  0  0  0
 17 44  1  0  0  0  0
 18 19  1  1  0  0  0
 18 21  1  0  0  0  0
 19 20  3  0  0  0  0
 20 45  1  0  0  0  0
 21 46  1  0  0  0  0
 22 47  1  0  0  0  0
 23 24  1  0  0  0  0
 24 48  1  0  0  0  0
 24 49  1  0  0  0  0
 24 50  1  0  0  0  0
M  END
>  <DRUGBANK_ID>
DB13418

>  <COMMON_NAME>
Moxestrol

>  <CAS_NUMBER>
34816-55-2

>  <UNII>
6923NT44OW

>  <SYNONYMS>
Moxestrol

$$$$
