NTD
 OpenBabel10282417173D

 33 34  0  0  0  0  0  0  0  0999 V2000
    1.0207    0.1124    0.1329 O   0  0  0  0  0  0  0  0  0  0  0  0
    2.2452    0.0615    0.0837 C   0  0  0  0  0  0  0  0  0  0  0  0
    3.1053    1.2993    0.0518 C   0  0  0  0  0  0  0  0  0  0  0  0
    4.0452    1.2372   -1.1512 C   0  0  0  0  0  0  0  0  0  0  0  0
    4.8951   -0.0327   -1.1429 C   0  0  0  0  0  0  0  0  0  0  0  0
    4.0029   -1.2453   -1.0965 C   0  0  0  0  0  0  0  0  0  0  0  0
    4.1179   -2.2134   -1.8452 O   0  0  0  0  0  0  0  0  0  0  0  0
    2.9979   -1.2187   -0.0177 C   0  0  0  0  0  0  0  0  0  0  0  0
    2.9984   -2.1826    0.9245 C   0  0  0  0  0  0  0  0  0  0  0  0
    3.8226   -3.2955    0.9174 O   0  0  0  0  0  0  0  0  0  0  0  0
    2.1491   -2.1347    2.1262 C   0  0  0  0  0  0  0  0  0  0  0  0
    0.7602   -2.1493    1.9097 C   0  0  0  0  0  0  0  0  0  0  0  0
   -0.1450   -2.1322    2.9656 C   0  0  0  0  0  0  0  0  0  0  0  0
    0.3112   -2.1749    4.2834 C   0  0  0  0  0  0  0  0  0  0  0  0
   -0.6634   -2.0834    5.4313 C   0  0  0  0  0  0  0  0  0  0  0  0
   -0.6175   -3.1704    6.2449 F   0  0  0  0  0  0  0  0  0  0  0  0
   -0.4129   -1.0040    6.2220 F   0  0  0  0  0  0  0  0  0  0  0  0
   -1.9595   -1.9598    5.0333 F   0  0  0  0  0  0  0  0  0  0  0  0
    1.6955   -2.2329    4.5228 C   0  0  0  0  0  0  0  0  0  0  0  0
    2.6142   -2.1384    3.4556 C   0  0  0  0  0  0  0  0  0  0  0  0
    4.0337   -1.8903    3.7968 N   0  3  0  0  0  0  0  0  0  0  0  0
    4.3417   -1.9223    4.9982 O   0  0  0  0  0  0  0  0  0  0  0  0
    4.8238   -1.5654    2.8986 O   0  5  0  0  0  0  0  0  0  0  0  0
    2.4592    2.1809   -0.0104 H   0  0  0  0  0  0  0  0  0  0  0  0
    3.6621    1.3530    0.9941 H   0  0  0  0  0  0  0  0  0  0  0  0
    3.4495    1.2632   -2.0728 H   0  0  0  0  0  0  0  0  0  0  0  0
    4.6969    2.1163   -1.1521 H   0  0  0  0  0  0  0  0  0  0  0  0
    5.5293   -0.0852   -2.0315 H   0  0  0  0  0  0  0  0  0  0  0  0
    5.5409   -0.0634   -0.2567 H   0  0  0  0  0  0  0  0  0  0  0  0
    4.3950   -3.2980    0.1255 H   0  0  0  0  0  0  0  0  0  0  0  0
    0.3608   -2.1241    0.8951 H   0  0  0  0  0  0  0  0  0  0  0  0
   -1.2100   -2.0807    2.7411 H   0  0  0  0  0  0  0  0  0  0  0  0
    2.0441   -2.3141    5.5534 H   0  0  0  0  0  0  0  0  0  0  0  0
  1  2  2  0  0  0  0
  2  3  1  0  0  0  0
  2  8  1  0  0  0  0
  3  4  1  0  0  0  0
  3 24  1  0  0  0  0
  3 25  1  0  0  0  0
  4  5  1  0  0  0  0
  4 26  1  0  0  0  0
  4 27  1  0  0  0  0
  5  6  1  0  0  0  0
  5 28  1  0  0  0  0
  5 29  1  0  0  0  0
  6  7  2  0  0  0  0
  6  8  1  0  0  0  0
  8  9  2  0  0  0  0
  9 10  1  0  0  0  0
  9 11  1  0  0  0  0
 10 30  1  0  0  0  0
 11 12  2  0  0  0  0
 11 20  1  0  0  0  0
 12 13  1  0  0  0  0
 12 31  1  0  0  0  0
 13 14  2  0  0  0  0
 13 32  1  0  0  0  0
 14 15  1  0  0  0  0
 14 19  1  0  0  0  0
 15 16  1  0  0  0  0
 15 17  1  0  0  0  0
 15 18  1  0  0  0  0
 19 20  2  0  0  0  0
 19 33  1  0  0  0  0
 20 21  1  0  0  0  0
 21 22  2  0  0  0  0
 21 23  1  0  0  0  0
M  CHG  2  21   1  23  -1
M  END
>  <DRUGBANK_ID>
DB08307

>  <COMMON_NAME>
2-{HYDROXY[2-NITRO-4-(TRIFLUOROMETHYL)PHENYL]METHYLENE}CYCLOHEXANE-1,3-DIONE

$$$$
