FR3
 OpenBabel10282417133D

 42 44  0  0  0  0  0  0  0  0999 V2000
   -1.1942    0.0429   -0.0645 C   0  0  0  0  0  0  0  0  0  0  0  0
   -0.3322   -1.0208   -0.0599 N   0  0  0  0  0  0  0  0  0  0  0  0
    0.9339   -0.5229    0.0478 C   0  0  0  0  0  0  0  0  0  0  0  0
    0.9384    0.7834    0.0221 N   0  0  0  0  0  0  0  0  0  0  0  0
   -0.3883    1.1711   -0.0227 C   0  0  0  0  0  0  0  0  0  0  0  0
   -0.7845    2.5779   -0.0035 C   0  0  0  0  0  0  0  0  0  0  0  0
    0.0132    3.5164    0.0075 O   0  0  0  0  0  0  0  0  0  0  0  0
   -2.1263    2.8361    0.0052 N   0  0  0  0  0  0  0  0  0  0  0  0
   -0.6903   -2.4327   -0.0341 C   0  0  1  0  0  0  0  0  0  0  0  0
   -0.1949   -3.1775   -1.2809 C   0  0  0  0  0  0  0  0  0  0  0  0
    1.2262   -3.2457   -1.3342 O   0  0  0  0  0  0  0  0  0  0  0  0
   -0.1599   -3.1052    1.2391 C   0  0  0  0  0  0  0  0  0  0  0  0
   -0.7499   -2.4953    2.5198 C   0  0  0  0  0  0  0  0  0  0  0  0
   -2.2610   -2.5894    2.5696 C   0  0  0  0  0  0  0  0  0  0  0  0
   -3.0104   -1.3988    2.5430 C   0  0  0  0  0  0  0  0  0  0  0  0
   -4.3996   -1.4354    2.5498 C   0  0  0  0  0  0  0  0  0  0  0  0
   -5.0565   -2.6631    2.5831 C   0  0  0  0  0  0  0  0  0  0  0  0
   -4.3375   -3.8701    2.5749 C   0  0  0  0  0  0  0  0  0  0  0  0
   -2.9251   -3.8452    2.5858 C   0  0  0  0  0  0  0  0  0  0  0  0
   -5.0050   -5.1070    2.5557 C   0  0  0  0  0  0  0  0  0  0  0  0
   -2.2464   -5.0857    2.6029 C   0  0  0  0  0  0  0  0  0  0  0  0
   -4.2996   -6.3116    2.5208 C   0  0  0  0  0  0  0  0  0  0  0  0
   -2.9161   -6.3010    2.5308 C   0  0  0  0  0  0  0  0  0  0  0  0
   -1.7874   -2.4844   -0.0551 H   0  0  0  0  0  0  0  0  0  0  0  0
   -2.2673   -0.0860   -0.0723 H   0  0  0  0  0  0  0  0  0  0  0  0
    1.8133   -1.1459    0.1513 H   0  0  0  0  0  0  0  0  0  0  0  0
   -2.8333    2.1193   -0.0061 H   0  0  0  0  0  0  0  0  0  0  0  0
   -2.3991    3.8084    0.0073 H   0  0  0  0  0  0  0  0  0  0  0  0
   -0.5584   -4.2115   -1.2626 H   0  0  0  0  0  0  0  0  0  0  0  0
   -0.5647   -2.7078   -2.1970 H   0  0  0  0  0  0  0  0  0  0  0  0
    1.5524   -2.3548   -1.5541 H   0  0  0  0  0  0  0  0  0  0  0  0
   -0.3770   -4.1713    1.1491 H   0  0  0  0  0  0  0  0  0  0  0  0
    0.9330   -3.0527    1.3001 H   0  0  0  0  0  0  0  0  0  0  0  0
   -0.3344   -2.9885    3.4060 H   0  0  0  0  0  0  0  0  0  0  0  0
   -0.4332   -1.4479    2.6012 H   0  0  0  0  0  0  0  0  0  0  0  0
   -2.5115   -0.4314    2.5087 H   0  0  0  0  0  0  0  0  0  0  0  0
   -4.9718   -0.5110    2.5335 H   0  0  0  0  0  0  0  0  0  0  0  0
   -6.1437   -2.6729    2.6193 H   0  0  0  0  0  0  0  0  0  0  0  0
   -6.0915   -5.1418    2.5582 H   0  0  0  0  0  0  0  0  0  0  0  0
   -1.1648   -5.1380    2.6755 H   0  0  0  0  0  0  0  0  0  0  0  0
   -4.8294   -7.2588    2.5015 H   0  0  0  0  0  0  0  0  0  0  0  0
   -2.3466   -7.2256    2.4976 H   0  0  0  0  0  0  0  0  0  0  0  0
  1  2  1  0  0  0  0
  1  5  2  0  0  0  0
  1 25  1  0  0  0  0
  2  3  1  0  0  0  0
  3  4  2  0  0  0  0
  3 26  1  0  0  0  0
  4  5  1  0  0  0  0
  5  6  1  0  0  0  0
  6  7  2  0  0  0  0
  6  8  1  0  0  0  0
  8 27  1  0  0  0  0
  8 28  1  0  0  0  0
  9  2  1  0  0  0  0
  9 10  1  0  0  0  0
  9 12  1  0  0  0  0
  9 24  1  1  0  0  0
 10 11  1  0  0  0  0
 10 29  1  0  0  0  0
 10 30  1  0  0  0  0
 11 31  1  0  0  0  0
 12 13  1  0  0  0  0
 12 32  1  0  0  0  0
 12 33  1  0  0  0  0
 13 14  1  0  0  0  0
 13 34  1  0  0  0  0
 13 35  1  0  0  0  0
 14 15  2  0  0  0  0
 14 19  1  0  0  0  0
 15 16  1  0  0  0  0
 15 36  1  0  0  0  0
 16 17  2  0  0  0  0
 16 37  1  0  0  0  0
 17 18  1  0  0  0  0
 17 38  1  0  0  0  0
 18 19  2  0  0  0  0
 18 20  1  0  0  0  0
 19 21  1  0  0  0  0
 20 22  2  0  0  0  0
 20 39  1  0  0  0  0
 21 23  2  0  0  0  0
 21 40  1  0  0  0  0
 22 23  1  0  0  0  0
 22 41  1  0  0  0  0
 23 42  1  0  0  0  0
M  END
>  <DRUGBANK_ID>
DB03572

>  <SECONDARY_ACCESSION_NUMBERS>
EXPT01484

>  <COMMON_NAME>
FR230513

$$$$
