
 OpenBabel10282417213D

 28 28  0  0  0  0  0  0  0  0999 V2000
    1.6694   -1.4653   -0.0240 C   0  0  0  0  0  0  0  0  0  0  0  0
    0.2286   -1.4843   -0.0279 C   0  0  0  0  0  0  0  0  0  0  0  0
   -0.5541   -0.3181   -0.0135 C   0  0  0  0  0  0  0  0  0  0  0  0
    0.0877    0.8635    0.0443 C   0  0  0  0  0  0  0  0  0  0  0  0
    1.4643    0.7746    0.1017 C   0  0  0  0  0  0  0  0  0  0  0  0
    2.3478   -0.2706    0.0060 C   0  0  0  0  0  0  0  0  0  0  0  0
    3.7138   -0.1698   -0.0839 O   0  0  0  0  0  0  0  0  0  0  0  0
    4.5329    1.0523   -0.1217 C   0  0  0  0  0  0  0  0  0  0  0  0
    4.3107    2.0934   -1.2393 C   0  0  3  0  0  0  0  0  0  0  0  0
    2.9375    2.7261   -1.2342 C   0  0  0  0  0  0  0  0  0  0  0  0
    5.1966    3.2152   -1.0931 O   0  0  0  0  0  0  0  0  0  0  0  0
    2.6611    3.4807    0.1345 O   0  0  0  0  0  0  0  0  0  0  0  0
   -2.2634   -0.2891   -0.0337 Cl  0  0  0  0  0  0  0  0  0  0  0  0
    2.7419    3.0285    1.4569 C   0  0  0  0  0  0  0  0  0  0  0  0
    3.0876    1.9181    1.8997 O   0  0  0  0  0  0  0  0  0  0  0  0
    2.2215    3.7891    2.4267 N   0  0  0  0  0  0  0  0  0  0  0  0
    2.2269   -2.3946   -0.0384 H   0  0  0  0  0  0  0  0  0  0  0  0
   -0.2883   -2.4329   -0.0492 H   0  0  0  0  0  0  0  0  0  0  0  0
   -0.3710    1.8518    0.0512 H   0  0  0  0  0  0  0  0  0  0  0  0
    1.8377    1.7209    0.2146 H   0  0  0  0  0  0  0  0  0  0  0  0
    4.6543    1.5635    0.8307 H   0  0  0  0  0  0  0  0  0  0  0  0
    5.5786    0.7207   -0.2031 H   0  0  0  0  0  0  0  0  0  0  0  0
    4.5288    1.6078   -2.1997 H   0  0  0  0  0  0  0  0  0  0  0  0
    2.7831    3.4756   -2.0199 H   0  0  0  0  0  0  0  0  0  0  0  0
    2.2055    1.9724   -1.5631 H   0  0  0  0  0  0  0  0  0  0  0  0
    4.7696    3.8081   -0.4406 H   0  0  0  0  0  0  0  0  0  0  0  0
    1.5556    4.5202    2.2551 H   0  0  0  0  0  0  0  0  0  0  0  0
    2.1306    3.2355    3.2791 H   0  0  0  0  0  0  0  0  0  0  0  0
  1  2  2  0  0  0  0
  1 17  1  0  0  0  0
  2  3  1  0  0  0  0
  2 18  1  0  0  0  0
  3  4  2  0  0  0  0
  3 13  1  0  0  0  0
  4  5  1  0  0  0  0
  4 19  1  0  0  0  0
  5  6  2  0  0  0  0
  5 20  1  0  0  0  0
  6  7  1  0  0  0  0
  6  1  1  0  0  0  0
  7  8  1  0  0  0  0
  8  9  1  0  0  0  0
  8 21  1  0  0  0  0
  8 22  1  0  0  0  0
  9 10  1  0  0  0  0
  9 11  1  0  0  0  0
  9 23  1  0  0  0  0
 10 12  1  0  0  0  0
 10 24  1  0  0  0  0
 10 25  1  0  0  0  0
 11 26  1  0  0  0  0
 12 14  1  0  0  0  0
 14 15  2  0  0  0  0
 14 16  1  0  0  0  0
 16 27  1  0  0  0  0
 16 28  1  0  0  0  0
M  END
>  <DRUGBANK_ID>
DB14656

>  <SECONDARY_ACCESSION_NUMBERS>
DBSALT001343

>  <COMMON_NAME>
Chlorphenesin carbamate

>  <CAS_NUMBER>
886-74-8

>  <UNII>
57U5YI11WP

>  <SYNONYMS>
1,2-propanediol-3-(p-chlorophenoxy)-1-carbamate; 3-(4-chlorophenoxy)-1,2-propanediol-1-carbamate; 3-(p-chlorophenoxy)-1,2-propanediol 1-carbamate; 3-(p-chlorophenoxy)-2-hydroxypropyl carbamate; carbamic acid 3-(p-chlorophenoxy)-2-hydroxypropyl ester; Chlorphenesin carbamate

$$$$
