
 OpenBabel10282417213D

 25 25  0  0  0  0  0  0  0  0999 V2000
   -2.1302    0.1249    0.7571 C   0  0  0  0  0  0  0  0  0  0  0  0
   -1.5016   -1.1072    0.9389 C   0  0  0  0  0  0  0  0  0  0  0  0
   -1.3703    1.3254    0.8831 C   0  0  0  0  0  0  0  0  0  0  0  0
   -0.1141   -1.1395    1.2567 C   0  0  0  0  0  0  0  0  0  0  0  0
    0.0490    1.3403    1.1565 C   0  0  0  0  0  0  0  0  0  0  0  0
    0.6634    0.0689    1.3675 C   0  0  0  0  0  0  0  0  0  0  0  0
    0.8766    2.6193    0.7234 C   0  0  0  0  0  0  0  0  0  0  0  0
    2.0512    0.0021    1.4294 O   0  0  0  0  0  0  0  0  0  0  0  0
    0.3841    3.7111    0.3512 O   0  0  0  0  0  0  0  0  0  0  0  0
    2.2052    2.4519    0.4839 O   0  0  0  0  0  0  0  0  0  0  0  0
    0.0202   -1.2324   -1.6192 C   0  0  0  0  0  0  0  0  0  0  0  0
    1.3409   -0.9502   -1.3577 C   0  0  0  0  0  0  0  0  0  0  0  0
    0.1549    0.8931   -1.6637 C   0  0  0  0  0  0  0  0  0  0  0  0
   -0.6990   -0.0892   -1.8277 N   0  0  0  0  0  0  0  0  0  0  0  0
    1.4175    0.4256   -1.3712 N   0  0  0  0  0  0  0  0  0  0  0  0
   -3.1245    0.1401    0.2840 H   0  0  0  0  0  0  0  0  0  0  0  0
   -2.0252   -2.0069    0.5779 H   0  0  0  0  0  0  0  0  0  0  0  0
   -1.8647    2.2235    0.5028 H   0  0  0  0  0  0  0  0  0  0  0  0
    0.3766   -2.1129    1.1193 H   0  0  0  0  0  0  0  0  0  0  0  0
    2.4845   -0.5385    0.7407 H   0  0  0  0  0  0  0  0  0  0  0  0
    2.5871    3.3060    0.1548 H   0  0  0  0  0  0  0  0  0  0  0  0
   -0.4750   -2.1751   -1.4174 H   0  0  0  0  0  0  0  0  0  0  0  0
    2.0812   -1.5817   -0.8846 H   0  0  0  0  0  0  0  0  0  0  0  0
   -0.1322    1.9316   -1.5126 H   0  0  0  0  0  0  0  0  0  0  0  0
    2.0696    0.9627   -0.8014 H   0  0  0  0  0  0  0  0  0  0  0  0
  1 16  1  0  0  0  0
  2  1  2  0  0  0  0
  2 17  1  0  0  0  0
  3  1  1  0  0  0  0
  3 18  1  0  0  0  0
  4  2  1  0  0  0  0
  4 19  1  0  0  0  0
  5  3  2  0  0  0  0
  6  4  2  0  0  0  0
  6  5  1  0  0  0  0
  7  5  1  0  0  0  0
  8  6  1  0  0  0  0
  8 20  1  0  0  0  0
  9  7  2  0  0  0  0
 10  7  1  0  0  0  0
 10 21  1  0  0  0  0
 11 22  1  0  0  0  0
 12 11  2  0  0  0  0
 12 23  1  0  0  0  0
 13 24  1  0  0  0  0
 14 11  1  0  0  0  0
 14 13  2  0  0  0  0
 15 12  1  0  0  0  0
 15 13  1  0  0  0  0
 15 25  1  0  0  0  0
M  END
>  <DRUGBANK_ID>
DB13860

>  <COMMON_NAME>
Imidazole salicylate

>  <CAS_NUMBER>
36364-49-5

>  <UNII>
4JVD4X01MJ

>  <SYNONYMS>
Imidazole salicylate; Imidazole-2-hydroxybenzoate; Imidazoli salicylas; Imidazolsalicylat; Salicilato de imidazol

$$$$
