
 OpenBabel10282417213D

 77 80  0  0  1  0  0  0  0  0999 V2000
    3.3342    1.0629    1.5045 C   0  0  0  0  0  0  0  0  0  0  0  0
    2.9947    0.7939    0.0509 C   0  0  2  0  0  0  0  0  0  0  0  0
    2.1197    1.8972   -0.5764 C   0  0  0  0  0  0  0  0  0  0  0  0
    0.7197    1.8860    0.0578 C   0  0  0  0  0  0  0  0  0  0  0  0
   -0.0015    0.5085   -0.0242 C   0  0  1  0  0  0  0  0  0  0  0  0
    0.9029   -0.6588    0.4672 C   0  0  2  0  0  0  0  0  0  0  0  0
    2.2374   -0.5387   -0.2159 C   0  0  2  0  0  0  0  0  0  0  0  0
    3.2281   -1.6394    0.0784 C   0  0  0  0  0  0  0  0  0  0  0  0
    4.5780   -1.0102   -0.2129 C   0  0  0  0  0  0  0  0  0  0  0  0
    4.3409    0.5121   -0.6269 C   0  0  2  0  0  0  0  0  0  0  0  0
    5.5125    1.3602   -0.5104 O   0  0  0  0  0  0  0  0  0  0  0  0
    6.3394    1.7935   -1.5350 C   0  0  0  0  0  0  0  0  0  0  0  0
    7.2947    2.5188   -1.2423 O   0  0  0  0  0  0  0  0  0  0  0  0
    6.1120    1.5036   -3.0519 C   0  0  0  0  0  0  0  0  0  0  0  0
    6.2812    0.0697   -3.5782 C   0  0  0  0  0  0  0  0  0  0  0  0
    5.1719   -0.7277   -3.0197 C   0  0  0  0  0  0  0  0  0  0  0  0
    3.7579   -0.2247   -3.3583 C   0  0  0  0  0  0  0  0  0  0  0  0
    3.3633   -0.6436   -4.7178 C   0  0  0  0  0  0  0  0  0  0  0  0
    3.3256   -2.1653   -4.7106 C   0  0  0  0  0  0  0  0  0  0  0  0
    2.2409   -2.7326   -3.7705 C   0  0  0  0  0  0  0  0  0  0  0  0
    0.8581   -2.1783   -4.1016 C   0  0  0  0  0  0  0  0  0  0  0  0
    0.5503   -2.4741   -5.5359 C   0  0  0  0  0  0  0  0  0  0  0  0
   -0.4567   -3.2606   -5.9134 C   0  0  0  0  0  0  0  0  0  0  0  0
    0.2434   -2.0198    0.1609 C   0  0  0  0  0  0  0  0  0  0  0  0
   -1.1146   -2.1260    0.8366 C   0  0  0  0  0  0  0  0  0  0  0  0
   -1.9725   -0.9444    0.4538 C   0  0  0  0  0  0  0  0  0  0  0  0
   -3.1546   -1.1392   -0.1503 C   0  0  0  0  0  0  0  0  0  0  0  0
   -3.9855   -0.0100   -0.6330 C   0  0  0  0  0  0  0  0  0  0  0  0
   -5.0368   -0.1947   -1.1992 O   0  0  0  0  0  0  0  0  0  0  0  0
   -3.4602    1.3545   -0.3971 C   0  0  0  0  0  0  0  0  0  0  0  0
   -2.2869    1.5493    0.2114 C   0  0  0  0  0  0  0  0  0  0  0  0
   -1.3739    0.4461    0.7151 C   0  0  2  0  0  0  0  0  0  0  0  0
   -1.2048    0.6543    2.2346 C   0  0  0  0  0  0  0  0  0  0  0  0
    3.8734    0.2149    1.9368 H   0  0  0  0  0  0  0  0  0  0  0  0
    3.9955    1.9323    1.5604 H   0  0  0  0  0  0  0  0  0  0  0  0
    2.4549    1.2366    2.1173 H   0  0  0  0  0  0  0  0  0  0  0  0
    1.9917    1.7479   -1.6611 H   0  0  0  0  0  0  0  0  0  0  0  0
    2.5839    2.8817   -0.4622 H   0  0  0  0  0  0  0  0  0  0  0  0
    0.1191    2.6526   -0.4435 H   0  0  0  0  0  0  0  0  0  0  0  0
    0.8166    2.1958    1.0994 H   0  0  0  0  0  0  0  0  0  0  0  0
   -0.1969    0.3440   -1.0998 H   0  0  0  0  0  0  0  0  0  0  0  0
    1.0850   -0.5960    1.5422 H   0  0  0  0  0  0  0  0  0  0  0  0
    1.9525   -0.6043   -1.2698 H   0  0  0  0  0  0  0  0  0  0  0  0
    3.1933   -1.9967    1.1075 H   0  0  0  0  0  0  0  0  0  0  0  0
    3.0476   -2.5060   -0.5736 H   0  0  0  0  0  0  0  0  0  0  0  0
    5.2963   -1.0724    0.6060 H   0  0  0  0  0  0  0  0  0  0  0  0
    5.0034   -1.7290   -0.9180 H   0  0  0  0  0  0  0  0  0  0  0  0
    4.0573    0.7745   -1.6053 H   0  0  0  0  0  0  0  0  0  0  0  0
    5.1758    1.9681   -3.3727 H   0  0  0  0  0  0  0  0  0  0  0  0
    6.8772    2.0660   -3.6015 H   0  0  0  0  0  0  0  0  0  0  0  0
    6.2630   -0.0433   -4.6621 H   0  0  0  0  0  0  0  0  0  0  0  0
    7.2154   -0.3640   -3.1991 H   0  0  0  0  0  0  0  0  0  0  0  0
    5.2712   -1.8110   -3.0585 H   0  0  0  0  0  0  0  0  0  0  0  0
    5.4941   -0.5563   -2.0239 H   0  0  0  0  0  0  0  0  0  0  0  0
    3.0595   -0.6518   -2.6564 H   0  0  0  0  0  0  0  0  0  0  0  0
    3.5609    0.8541   -3.3084 H   0  0  0  0  0  0  0  0  0  0  0  0
    2.3983   -0.1807   -4.9502 H   0  0  0  0  0  0  0  0  0  0  0  0
    4.0878   -0.2206   -5.4129 H   0  0  0  0  0  0  0  0  0  0  0  0
    3.2015   -2.4961   -5.7368 H   0  0  0  0  0  0  0  0  0  0  0  0
    4.2827   -2.5985   -4.4165 H   0  0  0  0  0  0  0  0  0  0  0  0
    2.2554   -3.8248   -3.8373 H   0  0  0  0  0  0  0  0  0  0  0  0
    2.4519   -2.5291   -2.7142 H   0  0  0  0  0  0  0  0  0  0  0  0
    0.1168   -2.6169   -3.4263 H   0  0  0  0  0  0  0  0  0  0  0  0
    0.8063   -1.0965   -3.9283 H   0  0  0  0  0  0  0  0  0  0  0  0
    1.2150   -2.0749   -6.3007 H   0  0  0  0  0  0  0  0  0  0  0  0
   -0.5983   -3.5003   -6.9599 H   0  0  0  0  0  0  0  0  0  0  0  0
   -1.1341   -3.6763   -5.1778 H   0  0  0  0  0  0  0  0  0  0  0  0
    0.8767   -2.8454    0.5059 H   0  0  0  0  0  0  0  0  0  0  0  0
    0.1265   -2.1539   -0.9242 H   0  0  0  0  0  0  0  0  0  0  0  0
   -0.9815   -2.1589    1.9230 H   0  0  0  0  0  0  0  0  0  0  0  0
   -1.5814   -3.0765    0.5530 H   0  0  0  0  0  0  0  0  0  0  0  0
   -3.5587   -2.1257   -0.3467 H   0  0  0  0  0  0  0  0  0  0  0  0
   -4.0808    2.1741   -0.7365 H   0  0  0  0  0  0  0  0  0  0  0  0
   -1.9652    2.5760    0.3747 H   0  0  0  0  0  0  0  0  0  0  0  0
   -0.5572   -0.0959    2.6983 H   0  0  0  0  0  0  0  0  0  0  0  0
   -0.7651    1.6303    2.4637 H   0  0  0  0  0  0  0  0  0  0  0  0
   -2.1678    0.5962    2.7509 H   0  0  0  0  0  0  0  0  0  0  0  0
  1 34  1  0  0  0  0
  1 35  1  0  0  0  0
  1 36  1  0  0  0  0
  2  1  1  1  0  0  0
  2  3  1  0  0  0  0
  2  7  1  0  0  0  0
  2 10  1  0  0  0  0
  3  4  1  0  0  0  0
  3 37  1  0  0  0  0
  3 38  1  0  0  0  0
  4 39  1  0  0  0  0
  4 40  1  0  0  0  0
  5  4  1  0  0  0  0
  5  6  1  0  0  0  0
  5 32  1  0  0  0  0
  5 41  1  6  0  0  0
  6  7  1  0  0  0  0
  6 24  1  0  0  0  0
  6 42  1  1  0  0  0
  7  8  1  0  0  0  0
  7 43  1  6  0  0  0
  8  9  1  0  0  0  0
  8 44  1  0  0  0  0
  8 45  1  0  0  0  0
  9 10  1  0  0  0  0
  9 46  1  0  0  0  0
  9 47  1  0  0  0  0
 10 48  1  6  0  0  0
 10 11  1  0  0  0  0
 11 12  1  0  0  0  0
 12 13  2  0  0  0  0
 12 14  1  0  0  0  0
 14 15  1  0  0  0  0
 14 49  1  0  0  0  0
 14 50  1  0  0  0  0
 15 16  1  0  0  0  0
 15 51  1  0  0  0  0
 15 52  1  0  0  0  0
 16 17  1  0  0  0  0
 16 53  1  0  0  0  0
 16 54  1  0  0  0  0
 17 18  1  0  0  0  0
 17 55  1  0  0  0  0
 17 56  1  0  0  0  0
 18 19  1  0  0  0  0
 18 57  1  0  0  0  0
 18 58  1  0  0  0  0
 19 20  1  0  0  0  0
 19 59  1  0  0  0  0
 19 60  1  0  0  0  0
 20 21  1  0  0  0  0
 20 61  1  0  0  0  0
 20 62  1  0  0  0  0
 21 22  1  0  0  0  0
 21 63  1  0  0  0  0
 21 64  1  0  0  0  0
 22 23  2  0  0  0  0
 22 65  1  0  0  0  0
 23 66  1  0  0  0  0
 23 67  1  0  0  0  0
 24 25  1  0  0  0  0
 24 68  1  0  0  0  0
 24 69  1  0  0  0  0
 25 26  1  0  0  0  0
 25 70  1  0  0  0  0
 25 71  1  0  0  0  0
 26 27  2  0  0  0  0
 26 32  1  0  0  0  0
 27 28  1  0  0  0  0
 27 72  1  0  0  0  0
 28 29  2  0  0  0  0
 28 30  1  0  0  0  0
 30 31  2  0  0  0  0
 30 73  1  0  0  0  0
 31 32  1  0  0  0  0
 31 74  1  0  0  0  0
 32 33  1  1  0  0  0
 33 75  1  0  0  0  0
 33 76  1  0  0  0  0
 33 77  1  0  0  0  0
M  END
>  <DRUGBANK_ID>
DB14639

>  <SECONDARY_ACCESSION_NUMBERS>
DBSALT001616

>  <COMMON_NAME>
Boldenone undecylenate

>  <CAS_NUMBER>
13103-34-9

>  <UNII>
ZS6D2ITA30

>  <SYNONYMS>
17beta-Hydroxyandrosta-1,4-dien-3-one 10-undecenoate; Boldenone 10-undecenoate; Boldenone undecylenate

$$$$
