
 OpenBabel10282417123D

 58 60  0  0  1  0  0  0  0  0999 V2000
    0.9260   -0.0756   -0.0949 C   0  0  0  0  0  0  0  0  0  0  0  0
    0.4725   -0.7237    1.2204 C   0  0  0  0  0  0  0  0  0  0  0  0
    0.3430    1.3152   -0.1706 C   0  0  0  0  0  0  0  0  0  0  0  0
    1.0148   -0.0629    2.5371 C   0  0  0  0  0  0  0  0  0  0  0  0
   -0.3895    1.4476    3.9874 C   0  0  0  0  0  0  0  0  0  0  0  0
    0.9525    2.2826   -1.1504 C   0  0  0  0  0  0  0  0  0  0  0  0
   -0.9547    2.6900    4.6037 C   0  0  0  0  0  0  0  0  0  0  0  0
    0.2679    4.1740    1.9688 C   0  0  0  0  0  0  0  0  0  0  0  0
    0.0977    8.0371    4.4573 C   0  0  0  0  0  0  0  0  0  0  0  0
   -2.9178    8.2461    1.3007 C   0  0  0  0  0  0  0  0  0  0  0  0
    0.5508    1.3596    3.0216 C   0  0  0  0  0  0  0  0  0  0  0  0
   -1.2535    3.9059    1.7817 C   0  0  2  0  0  0  0  0  0  0  0  0
   -1.5084    9.1305    2.6314 C   0  0  0  0  0  0  0  0  0  0  0  0
   -1.9546    3.9755    0.4332 C   0  0  2  0  0  0  0  0  0  0  0  0
   -2.3576    5.4246    0.3048 C   0  0  2  0  0  0  0  0  0  0  0  0
   -0.6539    9.9508    3.3888 C   0  0  0  0  0  0  0  0  0  0  0  0
   -1.4436    7.7558    2.8859 C   0  0  0  0  0  0  0  0  0  0  0  0
   -2.6760    5.8158    1.7445 C   0  0  2  0  0  0  0  0  0  0  0  0
    0.4959    1.9308   -2.4696 N   0  0  0  0  0  0  0  0  0  0  0  0
   -2.4135    2.7161    4.4753 N   0  0  0  0  0  0  0  0  0  0  0  0
   -0.6044   11.3193    3.2161 N   0  0  0  0  0  0  0  0  0  0  0  0
    0.1470    9.3811    4.3080 N   0  0  0  0  0  0  0  0  0  0  0  0
   -0.6652    7.1491    3.7764 N   0  0  0  0  0  0  0  0  0  0  0  0
   -2.4215    9.4185    1.6497 N   0  0  0  0  0  0  0  0  0  0  0  0
   -2.3433    7.2108    2.0053 N   0  0  0  0  0  0  0  0  0  0  0  0
   -3.1688    3.1798    0.4601 O   0  0  0  0  0  0  0  0  0  0  0  0
   -3.4920    5.6023   -0.5437 O   0  0  0  0  0  0  0  0  0  0  0  0
   -1.9810    4.8835    2.5973 O   0  0  0  0  0  0  0  0  0  0  0  0
    1.4894    2.8206    2.5560 S   0  0  0  0  0  0  0  0  0  0  0  0
   -1.4794    2.9143    2.1498 H   0  0  0  0  0  0  0  0  0  0  0  0
   -1.3703    3.6109   -0.4040 H   0  0  0  0  0  0  0  0  0  0  0  0
   -1.5191    6.0039   -0.0945 H   0  0  0  0  0  0  0  0  0  0  0  0
   -3.7457    5.7215    1.9740 H   0  0  0  0  0  0  0  0  0  0  0  0
    0.5950   -0.6669   -0.9576 H   0  0  0  0  0  0  0  0  0  0  0  0
    2.0216   -0.0446   -0.1241 H   0  0  0  0  0  0  0  0  0  0  0  0
   -0.6238   -0.7748    1.2457 H   0  0  0  0  0  0  0  0  0  0  0  0
    0.8159   -1.7696    1.1910 H   0  0  0  0  0  0  0  0  0  0  0  0
   -0.7518    1.3074   -0.1609 H   0  0  0  0  0  0  0  0  0  0  0  0
    0.6014    1.7512    0.7507 H   0  0  0  0  0  0  0  0  0  0  0  0
    0.7230   -0.7791    3.3222 H   0  0  0  0  0  0  0  0  0  0  0  0
    2.1106   -0.1115    2.5174 H   0  0  0  0  0  0  0  0  0  0  0  0
   -0.8079    0.5256    4.3870 H   0  0  0  0  0  0  0  0  0  0  0  0
    0.6434    3.3038   -0.9006 H   0  0  0  0  0  0  0  0  0  0  0  0
    2.0453    2.2760   -1.0718 H   0  0  0  0  0  0  0  0  0  0  0  0
   -0.6427    2.8286    5.6367 H   0  0  0  0  0  0  0  0  0  0  0  0
   -0.5718    3.5744    4.1147 H   0  0  0  0  0  0  0  0  0  0  0  0
    0.3877    4.8996    2.7824 H   0  0  0  0  0  0  0  0  0  0  0  0
    0.6843    4.6912    1.0969 H   0  0  0  0  0  0  0  0  0  0  0  0
    0.7532    7.6226    5.2119 H   0  0  0  0  0  0  0  0  0  0  0  0
   -3.6662    8.0899    0.5383 H   0  0  0  0  0  0  0  0  0  0  0  0
    0.9439    2.5336   -3.1529 H   0  0  0  0  0  0  0  0  0  0  0  0
    0.7955    0.9778   -2.6670 H   0  0  0  0  0  0  0  0  0  0  0  0
   -2.6600    3.7031    4.3321 H   0  0  0  0  0  0  0  0  0  0  0  0
   -2.6876    2.2765    3.5965 H   0  0  0  0  0  0  0  0  0  0  0  0
   -1.2056   11.7464    2.5301 H   0  0  0  0  0  0  0  0  0  0  0  0
    0.0228   11.8543    3.7957 H   0  0  0  0  0  0  0  0  0  0  0  0
   -3.6563    3.3386    1.2889 H   0  0  0  0  0  0  0  0  0  0  0  0
   -4.0824    4.8336   -0.4006 H   0  0  0  0  0  0  0  0  0  0  0  0
  1 34  1  0  0  0  0
  1 35  1  0  0  0  0
  2  1  1  0  0  0  0
  2 36  1  0  0  0  0
  2 37  1  0  0  0  0
  3  1  1  0  0  0  0
  3 38  1  0  0  0  0
  3 39  1  0  0  0  0
  4  2  1  0  0  0  0
  4 40  1  0  0  0  0
  4 41  1  0  0  0  0
  5  7  1  0  0  0  0
  5 42  1  0  0  0  0
  6  3  1  0  0  0  0
  6 43  1  0  0  0  0
  6 44  1  0  0  0  0
  7 45  1  0  0  0  0
  7 46  1  0  0  0  0
  8 47  1  0  0  0  0
  8 48  1  0  0  0  0
  9 49  1  0  0  0  0
 10 50  1  0  0  0  0
 11  4  1  0  0  0  0
 11  5  2  3  0  0  0
 12  8  1  0  0  0  0
 12 30  1  1  0  0  0
 14 12  1  0  0  0  0
 14 26  1  0  0  0  0
 14 31  1  6  0  0  0
 15 14  1  0  0  0  0
 15 27  1  0  0  0  0
 15 32  1  6  0  0  0
 16 13  2  0  0  0  0
 17 13  1  0  0  0  0
 18 15  1  0  0  0  0
 18 33  1  1  0  0  0
 18 25  1  0  0  0  0
 19  6  1  0  0  0  0
 19 51  1  0  0  0  0
 19 52  1  0  0  0  0
 20  7  1  0  0  0  0
 20 53  1  0  0  0  0
 20 54  1  0  0  0  0
 21 16  1  0  0  0  0
 21 55  1  0  0  0  0
 21 56  1  0  0  0  0
 22  9  2  0  0  0  0
 22 16  1  0  0  0  0
 23  9  1  0  0  0  0
 23 17  2  0  0  0  0
 24 10  2  0  0  0  0
 24 13  1  0  0  0  0
 25 10  1  0  0  0  0
 25 17  1  0  0  0  0
 26 57  1  0  0  0  0
 27 58  1  0  0  0  0
 28 12  1  0  0  0  0
 28 18  1  0  0  0  0
 29  8  1  0  0  0  0
 29 11  1  0  0  0  0
M  END
>  <DRUGBANK_ID>
DB02844

>  <SECONDARY_ACCESSION_NUMBERS>
EXPT00386

>  <COMMON_NAME>
S-Adenosyl-1,8-Diamino-3-Thiooctane

>  <CAS_NUMBER>
76426-40-9

$$$$
