
 OpenBabel10282417203D

 25 24  0  0  0  0  0  0  0  0999 V2000
    0.9829    0.1284   -0.0578 C   0  0  0  0  0  0  0  0  0  0  0  0
    0.5549   -4.4001   -0.8430 C   0  0  0  0  0  0  0  0  0  0  0  0
    1.8797   -4.8307   -1.0853 O   0  0  0  0  0  0  0  0  0  0  0  0
    0.6241    0.6084    1.2339 O   0  0  0  0  0  0  0  0  0  0  0  0
    1.1367   -2.3253    0.5603 N   0  0  0  0  0  0  0  0  0  0  0  0
    0.4875   -3.6517    0.4968 C   0  0  0  0  0  0  0  0  0  0  0  0
    2.6044   -2.2571    0.7167 C   0  0  0  0  0  0  0  0  0  0  0  0
    3.5856   -2.3891   -0.4790 C   0  0  0  0  0  0  0  0  0  0  0  0
    3.1014   -1.8025   -1.6812 O   0  0  0  0  0  0  0  0  0  0  0  0
    0.4648   -1.3040   -0.2561 C   0  0  0  0  0  0  0  0  0  0  0  0
    0.5410    0.7904   -0.8075 H   0  0  0  0  0  0  0  0  0  0  0  0
    2.0677    0.2029   -0.1690 H   0  0  0  0  0  0  0  0  0  0  0  0
   -0.0701   -5.2932   -0.8512 H   0  0  0  0  0  0  0  0  0  0  0  0
    0.2508   -3.7639   -1.6802 H   0  0  0  0  0  0  0  0  0  0  0  0
    2.3345   -4.0103   -1.2355 H   0  0  0  0  0  0  0  0  0  0  0  0
    0.8501   -0.1056    1.8585 H   0  0  0  0  0  0  0  0  0  0  0  0
    0.8945   -4.2870    1.2930 H   0  0  0  0  0  0  0  0  0  0  0  0
   -0.5783   -3.5271    0.7363 H   0  0  0  0  0  0  0  0  0  0  0  0
    2.8346   -1.2872    1.1756 H   0  0  0  0  0  0  0  0  0  0  0  0
    2.9173   -2.9683    1.4923 H   0  0  0  0  0  0  0  0  0  0  0  0
    4.5413   -1.9100   -0.2520 H   0  0  0  0  0  0  0  0  0  0  0  0
    3.8704   -3.4291   -0.6666 H   0  0  0  0  0  0  0  0  0  0  0  0
    2.2312   -2.1673   -1.8976 H   0  0  0  0  0  0  0  0  0  0  0  0
   -0.6024   -1.3046    0.0063 H   0  0  0  0  0  0  0  0  0  0  0  0
    0.5133   -1.5563   -1.3166 H   0  0  0  0  0  0  0  0  0  0  0  0
  1 11  1  0  0  0  0
  1 12  1  0  0  0  0
  2 13  1  0  0  0  0
  2 14  1  0  0  0  0
  3  2  1  0  0  0  0
  3 15  1  0  0  0  0
  4  1  1  0  0  0  0
  4 16  1  0  0  0  0
  5  6  1  0  0  0  0
  5  7  1  0  0  0  0
  5 10  1  0  0  0  0
  6  2  1  0  0  0  0
  6 17  1  0  0  0  0
  6 18  1  0  0  0  0
  7  8  1  0  0  0  0
  7 19  1  0  0  0  0
  7 20  1  0  0  0  0
  8  9  1  0  0  0  0
  8 21  1  0  0  0  0
  8 22  1  0  0  0  0
  9 23  1  0  0  0  0
 10  1  1  0  0  0  0
 10 24  1  0  0  0  0
 10 25  1  0  0  0  0
M  END
>  <DRUGBANK_ID>
DB13747

>  <COMMON_NAME>
Trolamine

>  <CAS_NUMBER>
102-71-6

>  <UNII>
9O3K93S3TK

>  <SYNONYMS>
2,2',2''-nitrilotris(ethanol); nitrilo-2,2',2''-triethanol; nitrilotriethanol; triethanolamine; tris(2-hydroxyethyl)amine; tris(Î²-hydroxyethyl)amine; Trolamine

$$$$
