
 OpenBabel10282417223D

  5  3  0  0  0  0  0  0  0  0999 V2000
    0.9296    0.0709    0.0054 I   0  0  0  0  0  0  0  0  0  0  0  0
    0.0123   -0.1626   -1.5663 O   0  0  0  0  0  0  0  0  0  0  0  0
    0.0123    0.3043    1.5771 O   0  0  0  0  0  0  0  0  0  0  0  0
    2.9796    0.0709    0.0054 O   0  5  0  0  0  0  0  0  0  0  0  0
    0.9906   -0.0501    0.0861 K   0  3  0  0  0  0  0  0  0  0  0  0
  1  2  2  0  0  0  0
  1  3  2  0  0  0  0
  1  4  1  0  0  0  0
M  CHG  2   4  -1   5   1
M  END
>  <DRUGBANK_ID>
DB15923

>  <COMMON_NAME>
Potassium iodate

>  <CAS_NUMBER>
7758-05-6

>  <UNII>
I139E44NHL

>  <SYNONYMS>
Iodic acid, potassium salt

$$$$
