
 OpenBabel10282417123D

 22 21  0  0  1  0  0  0  0  0999 V2000
    0.9925    0.0108   -0.0482 C   0  0  0  0  0  0  0  0  0  0  0  0
    0.4301    1.3253   -0.5919 C   0  0  0  0  0  0  0  0  0  0  0  0
    0.9157    1.5516   -2.0228 C   0  0  0  0  0  0  0  0  0  0  0  0
   -1.1118    1.3572   -0.5276 C   0  0  0  0  0  0  0  0  0  0  0  0
   -1.6748    1.1969    0.8978 C   0  0  1  0  0  0  0  0  0  0  0  0
   -1.1933    2.3085    1.8301 C   0  0  0  0  0  0  0  0  0  0  0  0
   -3.1385    1.1871    0.8502 N   0  0  0  0  0  0  0  0  0  0  0  0
    0.6197   -0.8431   -0.6236 H   0  0  0  0  0  0  0  0  0  0  0  0
    0.7205   -0.1431    1.0003 H   0  0  0  0  0  0  0  0  0  0  0  0
    2.0856    0.0063   -0.0936 H   0  0  0  0  0  0  0  0  0  0  0  0
    0.8342    2.1490    0.0070 H   0  0  0  0  0  0  0  0  0  0  0  0
    0.5667    0.7604   -2.6935 H   0  0  0  0  0  0  0  0  0  0  0  0
    0.5566    2.5121   -2.4071 H   0  0  0  0  0  0  0  0  0  0  0  0
    2.0105    1.5697   -2.0557 H   0  0  0  0  0  0  0  0  0  0  0  0
   -1.4673    2.3046   -0.9562 H   0  0  0  0  0  0  0  0  0  0  0  0
   -1.5140    0.5610   -1.1695 H   0  0  0  0  0  0  0  0  0  0  0  0
   -1.3695    0.2298    1.3070 H   0  0  0  0  0  0  0  0  0  0  0  0
   -1.4923    3.2950    1.4594 H   0  0  0  0  0  0  0  0  0  0  0  0
   -1.5990    2.1811    2.8387 H   0  0  0  0  0  0  0  0  0  0  0  0
   -0.1034    2.3041    1.9292 H   0  0  0  0  0  0  0  0  0  0  0  0
   -3.5031    1.0722    1.7982 H   0  0  0  0  0  0  0  0  0  0  0  0
   -3.4826    2.0852    0.5223 H   0  0  0  0  0  0  0  0  0  0  0  0
  1  2  1  0  0  0  0
  1  8  1  0  0  0  0
  1  9  1  0  0  0  0
  1 10  1  0  0  0  0
  2  3  1  0  0  0  0
  2  4  1  0  0  0  0
  2 11  1  0  0  0  0
  3 12  1  0  0  0  0
  3 13  1  0  0  0  0
  3 14  1  0  0  0  0
  4  5  1  0  0  0  0
  4 15  1  0  0  0  0
  4 16  1  0  0  0  0
  5  6  1  0  0  0  0
  5  7  1  0  0  0  0
  5 17  1  1  0  0  0
  6 18  1  0  0  0  0
  6 19  1  0  0  0  0
  6 20  1  0  0  0  0
  7 21  1  0  0  0  0
  7 22  1  0  0  0  0
M  END
>  <DRUGBANK_ID>
DB02107

>  <SECONDARY_ACCESSION_NUMBERS>
EXPT00128

>  <COMMON_NAME>
Leucine - Reduced Carbonyl

$$$$
