1BH
 OpenBabel10282417163D

 67 69  0  0  0  0  0  0  0  0999 V2000
   -1.8315    1.7572   -3.4828 C   0  0  0  0  0  0  0  0  0  0  0  0
   -1.7771    2.7047   -1.1536 C   0  0  0  0  0  0  0  0  0  0  0  0
   -1.2271    8.6862   -3.6680 O   0  0  0  0  0  0  0  0  0  0  0  0
    1.0222   12.0702   -3.7670 O   0  0  0  0  0  0  0  0  0  0  0  0
   -0.1883    8.7864   -3.0030 C   0  0  0  0  0  0  0  0  0  0  0  0
    1.2211   10.6146   -1.7899 C   0  0  1  0  0  0  0  0  0  0  0  0
    1.9617   11.4106   -2.9193 C   0  0  1  0  0  0  0  0  0  0  0  0
   -0.3819    1.3665   -3.7119 C   0  0  0  0  0  0  0  0  0  0  0  0
   -0.0138    0.1693   -4.3073 C   0  0  0  0  0  0  0  0  0  0  0  0
    2.3459    0.8379   -4.2924 C   0  0  0  0  0  0  0  0  0  0  0  0
   -1.0481    3.7460   -1.6522 N   0  0  0  0  0  0  0  0  0  0  0  0
   -0.1893    4.6387   -0.8831 C   0  0  1  0  0  0  0  0  0  0  0  0
    1.3324    4.3107   -0.8369 C   0  0  0  0  0  0  0  0  0  0  0  0
   -0.3371    6.0651   -1.4374 C   0  0  0  0  0  0  0  0  0  0  0  0
   -0.6504    6.9728   -0.6624 O   0  0  0  0  0  0  0  0  0  0  0  0
    0.1141    6.3439   -2.7223 N   0  0  0  0  0  0  0  0  0  0  0  0
    0.0613    5.6152   -3.9688 C   0  0  0  0  0  0  0  0  0  0  0  0
    0.8116    7.6025   -2.9566 C   0  0  1  0  0  0  0  0  0  0  0  0
    1.5346    7.4115   -4.3121 C   0  0  0  0  0  0  0  0  0  0  0  0
    1.3719    5.9416   -4.6397 C   0  0  0  0  0  0  0  0  0  0  0  0
    0.0131    9.9612   -2.3378 N   0  0  0  0  0  0  0  0  0  0  0  0
    2.0970    9.6068   -1.0330 C   0  0  0  0  0  0  0  0  0  0  0  0
    3.2780   10.0841   -0.2600 C   0  0  0  0  0  0  0  0  0  0  0  0
    3.7565   11.3844   -0.3815 C   0  0  0  0  0  0  0  0  0  0  0  0
    3.9721    9.1839    0.5471 C   0  0  0  0  0  0  0  0  0  0  0  0
    4.9030   11.8087    0.2455 C   0  0  0  0  0  0  0  0  0  0  0  0
    5.0443    9.6492    1.3009 C   0  0  0  0  0  0  0  0  0  0  0  0
    5.5287   10.9479    1.1222 C   0  0  0  0  0  0  0  0  0  0  0  0
    2.8903   10.5293   -3.7298 C   0  0  0  0  0  0  0  0  0  0  0  0
   -2.2425    1.8280   -2.0961 O   0  0  0  0  0  0  0  0  0  0  0  0
    0.6765    2.2153   -3.3856 C   0  0  0  0  0  0  0  0  0  0  0  0
    1.3437   -0.0974   -4.5679 C   0  0  0  0  0  0  0  0  0  0  0  0
    2.0002    2.0339   -3.7310 C   0  0  0  0  0  0  0  0  0  0  0  0
   -2.0096    2.5554    0.0226 O   0  0  0  0  0  0  0  0  0  0  0  0
    0.8267   11.3432   -1.0638 H   0  0  0  0  0  0  0  0  0  0  0  0
    2.5615   12.2369   -2.5501 H   0  0  0  0  0  0  0  0  0  0  0  0
   -0.5311    4.6053    0.1548 H   0  0  0  0  0  0  0  0  0  0  0  0
    1.5261    7.6077   -2.1497 H   0  0  0  0  0  0  0  0  0  0  0  0
   -2.4855    1.0105   -3.9554 H   0  0  0  0  0  0  0  0  0  0  0  0
   -2.0808    2.6961   -3.9981 H   0  0  0  0  0  0  0  0  0  0  0  0
    1.5159   12.3707   -4.5498 H   0  0  0  0  0  0  0  0  0  0  0  0
   -0.7645   -0.5778   -4.5505 H   0  0  0  0  0  0  0  0  0  0  0  0
    3.3947    0.6335   -4.4669 H   0  0  0  0  0  0  0  0  0  0  0  0
   -1.1587    3.9152   -2.6282 H   0  0  0  0  0  0  0  0  0  0  0  0
    1.8426    4.4533   -1.7983 H   0  0  0  0  0  0  0  0  0  0  0  0
    1.8493    4.9951   -0.1493 H   0  0  0  0  0  0  0  0  0  0  0  0
    1.5423    3.2897   -0.4992 H   0  0  0  0  0  0  0  0  0  0  0  0
   -0.7842    6.0199   -4.5340 H   0  0  0  0  0  0  0  0  0  0  0  0
   -0.0693    4.5571   -3.8909 H   0  0  0  0  0  0  0  0  0  0  0  0
    2.6029    7.6548   -4.2689 H   0  0  0  0  0  0  0  0  0  0  0  0
    1.0852    8.0243   -5.1019 H   0  0  0  0  0  0  0  0  0  0  0  0
    2.1886    5.3671   -4.1839 H   0  0  0  0  0  0  0  0  0  0  0  0
    1.3643    5.7341   -5.7124 H   0  0  0  0  0  0  0  0  0  0  0  0
   -0.7463   10.6106   -2.5192 H   0  0  0  0  0  0  0  0  0  0  0  0
    1.4568    8.9905   -0.3844 H   0  0  0  0  0  0  0  0  0  0  0  0
    2.5681    8.9618   -1.7703 H   0  0  0  0  0  0  0  0  0  0  0  0
    3.2506   12.1425   -0.9419 H   0  0  0  0  0  0  0  0  0  0  0  0
    3.6634    8.1405    0.6177 H   0  0  0  0  0  0  0  0  0  0  0  0
    5.2350   12.8267    0.0733 H   0  0  0  0  0  0  0  0  0  0  0  0
    5.4920    9.0057    2.0493 H   0  0  0  0  0  0  0  0  0  0  0  0
    6.3795   11.3084    1.6850 H   0  0  0  0  0  0  0  0  0  0  0  0
    2.3192    9.6842   -4.0829 H   0  0  0  0  0  0  0  0  0  0  0  0
    3.2773   11.0356   -4.6125 H   0  0  0  0  0  0  0  0  0  0  0  0
    3.7403   10.1623   -3.1442 H   0  0  0  0  0  0  0  0  0  0  0  0
    0.5521    3.0743   -2.7819 H   0  0  0  0  0  0  0  0  0  0  0  0
    1.6288   -1.0510   -4.9961 H   0  0  0  0  0  0  0  0  0  0  0  0
    2.7186    2.8158   -3.4998 H   0  0  0  0  0  0  0  0  0  0  0  0
  1  8  1  0  0  0  0
  1 30  1  0  0  0  0
  1 39  1  0  0  0  0
  1 40  1  0  0  0  0
  2 11  1  0  0  0  0
  2 30  1  0  0  0  0
  2 34  2  0  0  0  0
  3  5  2  0  0  0  0
  4 41  1  0  0  0  0
  5 21  1  0  0  0  0
  6 22  1  0  0  0  0
  6 35  1  1  0  0  0
  6 21  1  0  0  0  0
  6  7  1  0  0  0  0
  7 36  1  1  0  0  0
  7 29  1  0  0  0  0
  7  4  1  0  0  0  0
  8  9  2  0  0  0  0
  8 31  1  0  0  0  0
  9 32  1  0  0  0  0
  9 42  1  0  0  0  0
 10 32  2  0  0  0  0
 10 33  1  0  0  0  0
 10 43  1  0  0  0  0
 11 12  1  0  0  0  0
 11 44  1  0  0  0  0
 12 13  1  0  0  0  0
 12 14  1  0  0  0  0
 12 37  1  1  0  0  0
 13 45  1  0  0  0  0
 13 46  1  0  0  0  0
 13 47  1  0  0  0  0
 14 15  2  0  0  0  0
 14 16  1  0  0  0  0
 16 17  1  0  0  0  0
 16 18  1  0  0  0  0
 17 20  1  0  0  0  0
 17 48  1  0  0  0  0
 17 49  1  0  0  0  0
 18 19  1  0  0  0  0
 18 38  1  1  0  0  0
 18  5  1  0  0  0  0
 19 20  1  0  0  0  0
 19 50  1  0  0  0  0
 19 51  1  0  0  0  0
 20 52  1  0  0  0  0
 20 53  1  0  0  0  0
 21 54  1  0  0  0  0
 22 23  1  0  0  0  0
 22 55  1  0  0  0  0
 22 56  1  0  0  0  0
 23 24  2  0  0  0  0
 23 25  1  0  0  0  0
 24 26  1  0  0  0  0
 24 57  1  0  0  0  0
 25 27  2  0  0  0  0
 25 58  1  0  0  0  0
 26 28  2  0  0  0  0
 26 59  1  0  0  0  0
 27 28  1  0  0  0  0
 27 60  1  0  0  0  0
 28 61  1  0  0  0  0
 29 62  1  0  0  0  0
 29 63  1  0  0  0  0
 29 64  1  0  0  0  0
 31 33  2  0  0  0  0
 31 65  1  0  0  0  0
 32 66  1  0  0  0  0
 33 67  1  0  0  0  0
M  END
>  <DRUGBANK_ID>
DB06886

>  <COMMON_NAME>
N-BENZYLOXYCARBONYL-ALA-PRO-3-AMINO-4-PHENYL-BUTAN-2-OL

$$$$
