
 OpenBabel10282417163D

 20 20  0  0  0  0  0  0  0  0999 V2000
    1.3789   -0.2246   -0.0053 C   0  0  0  0  0  0  0  0  0  0  0  0
    0.5124   -1.3189    0.0254 C   0  0  0  0  0  0  0  0  0  0  0  0
    0.8679    1.0793   -0.0681 C   0  0  0  0  0  0  0  0  0  0  0  0
   -0.5179    1.2820    0.0262 C   0  0  0  0  0  0  0  0  0  0  0  0
   -1.3918    0.1949    0.0182 C   0  0  0  0  0  0  0  0  0  0  0  0
   -0.8716   -1.1046    0.0162 C   0  0  0  0  0  0  0  0  0  0  0  0
    1.4243    2.9703   -1.6206 C   0  0  0  0  0  0  0  0  0  0  0  0
    1.0813    4.1415   -1.7134 O   0  0  0  0  0  0  0  0  0  0  0  0
    1.5049    2.1917   -2.7191 O   0  0  0  0  0  0  0  0  0  0  0  0
    1.7830    2.2516   -0.3382 C   0  0  0  0  0  0  0  0  0  0  0  0
   -1.7839   -2.2532    0.0432 N   0  3  0  0  0  0  0  0  0  0  0  0
   -3.0018   -2.0234    0.0420 O   0  0  0  0  0  0  0  0  0  0  0  0
   -1.2830   -3.3865    0.0760 O   0  5  0  0  0  0  0  0  0  0  0  0
    2.4534   -0.3996   -0.0038 H   0  0  0  0  0  0  0  0  0  0  0  0
    0.9288   -2.3240    0.0338 H   0  0  0  0  0  0  0  0  0  0  0  0
   -0.9248    2.2917    0.0713 H   0  0  0  0  0  0  0  0  0  0  0  0
   -2.4639    0.3788   -0.0031 H   0  0  0  0  0  0  0  0  0  0  0  0
    1.2085    2.7588   -3.4622 H   0  0  0  0  0  0  0  0  0  0  0  0
    1.7267    2.9610    0.4946 H   0  0  0  0  0  0  0  0  0  0  0  0
    2.8294    1.9341   -0.4180 H   0  0  0  0  0  0  0  0  0  0  0  0
  1  3  2  0  0  0  0
  1 14  1  0  0  0  0
  2  1  1  0  0  0  0
  2 15  1  0  0  0  0
  3 10  1  0  0  0  0
  4  3  1  0  0  0  0
  4 16  1  0  0  0  0
  5  4  2  0  0  0  0
  5 17  1  0  0  0  0
  6  5  1  0  0  0  0
  6  2  2  0  0  0  0
  6 11  1  0  0  0  0
  8  7  2  0  0  0  0
  9  7  1  0  0  0  0
  9 18  1  0  0  0  0
 10  7  1  0  0  0  0
 10 19  1  0  0  0  0
 10 20  1  0  0  0  0
 11 12  2  0  0  0  0
 11 13  1  0  0  0  0
M  CHG  2  11   1  13  -1
M  END
>  <DRUGBANK_ID>
DB07331

>  <COMMON_NAME>
p-Nitrophenylacetic acid

>  <CAS_NUMBER>
104-03-0

>  <UNII>
KLB4P626RE

>  <SYNONYMS>
(4-nitrophenyl)acetic acid; 2-(p-nitrophenyl)acetic acid; 4-nitrobenzeneacetic acid; 4-nitrophenylacetic acid

$$$$
