
 OpenBabel10282417163D

 33 34  0  0  0  0  0  0  0  0999 V2000
    1.0332    0.1182    0.0453 C   0  0  2  0  0  0  0  0  0  0  0  0
    0.3718    1.3917    0.3465 N   0  0  0  0  0  0  0  0  0  0  0  0
    0.7362    2.7039    0.2679 C   0  0  0  0  0  0  0  0  0  0  0  0
    0.1872    3.6290    0.9949 N   0  0  0  0  0  0  0  0  0  0  0  0
    1.8230    3.2919   -0.9573 S   0  0  0  0  0  0  0  0  0  0  0  0
    0.5862    4.9104    0.6435 C   0  0  0  0  0  0  0  0  0  0  0  0
    0.4079    5.8934    1.3628 O   0  0  0  0  0  0  0  0  0  0  0  0
    1.1249    4.9954   -0.7628 C   0  0  2  0  0  0  0  0  0  0  0  0
   -0.0272    5.2762   -1.7383 C   0  0  0  0  0  0  0  0  0  0  0  0
    0.5853   -0.4392   -1.3070 C   0  0  0  0  0  0  0  0  0  0  0  0
    0.0390   -1.7215   -1.4988 C   0  0  0  0  0  0  0  0  0  0  0  0
   -0.3093   -2.2028   -2.7601 C   0  0  0  0  0  0  0  0  0  0  0  0
   -0.1231   -1.4106   -3.8830 C   0  0  0  0  0  0  0  0  0  0  0  0
    0.4112   -0.1397   -3.7351 C   0  0  0  0  0  0  0  0  0  0  0  0
    0.7682    0.3265   -2.4686 C   0  0  0  0  0  0  0  0  0  0  0  0
    0.6609   -0.8341    1.2048 C   0  0  0  0  0  0  0  0  0  0  0  0
   -0.1808   -2.5612   -0.4786 F   0  0  0  0  0  0  0  0  0  0  0  0
    2.2159    6.0238   -0.9251 C   0  0  0  0  0  0  0  0  0  0  0  0
    3.2512    5.8372   -0.0801 F   0  0  0  0  0  0  0  0  0  0  0  0
    1.7836    7.2950   -0.7872 F   0  0  0  0  0  0  0  0  0  0  0  0
    2.7252    5.9398   -2.1886 F   0  0  0  0  0  0  0  0  0  0  0  0
    2.1296    0.2122    0.0427 H   0  0  0  0  0  0  0  0  0  0  0  0
   -0.5556    1.2674    0.7342 H   0  0  0  0  0  0  0  0  0  0  0  0
    0.3488    5.5524   -2.7298 H   0  0  0  0  0  0  0  0  0  0  0  0
   -0.6968    4.4184   -1.8601 H   0  0  0  0  0  0  0  0  0  0  0  0
   -0.6501    6.1137   -1.3918 H   0  0  0  0  0  0  0  0  0  0  0  0
   -0.7239   -3.2025   -2.8457 H   0  0  0  0  0  0  0  0  0  0  0  0
   -0.3878   -1.7836   -4.8668 H   0  0  0  0  0  0  0  0  0  0  0  0
    0.5647    0.4978   -4.6018 H   0  0  0  0  0  0  0  0  0  0  0  0
    1.2062    1.3106   -2.4214 H   0  0  0  0  0  0  0  0  0  0  0  0
    1.1047   -1.8297    1.0863 H   0  0  0  0  0  0  0  0  0  0  0  0
    0.9901   -0.4561    2.1760 H   0  0  0  0  0  0  0  0  0  0  0  0
   -0.4312   -0.9518    1.2574 H   0  0  0  0  0  0  0  0  0  0  0  0
  1 16  1  0  0  0  0
  1 22  1  6  0  0  0
  1  2  1  0  0  0  0
  1 10  1  0  0  0  0
  2  3  1  0  0  0  0
  2 23  1  0  0  0  0
  3  4  2  0  0  0  0
  3  5  1  0  0  0  0
  4  6  1  0  0  0  0
  5  8  1  0  0  0  0
  6  8  1  0  0  0  0
  6  7  2  0  0  0  0
  8 18  1  6  0  0  0
  8  9  1  0  0  0  0
  9 24  1  0  0  0  0
  9 25  1  0  0  0  0
  9 26  1  0  0  0  0
 10 15  1  0  0  0  0
 10 11  2  0  0  0  0
 11 12  1  0  0  0  0
 11 17  1  0  0  0  0
 12 13  2  0  0  0  0
 12 27  1  0  0  0  0
 13 14  1  0  0  0  0
 13 28  1  0  0  0  0
 14 15  2  0  0  0  0
 14 29  1  0  0  0  0
 15 30  1  0  0  0  0
 16 31  1  0  0  0  0
 16 32  1  0  0  0  0
 16 33  1  0  0  0  0
 18 20  1  0  0  0  0
 18 19  1  0  0  0  0
 18 21  1  0  0  0  0
M  END
>  <DRUGBANK_ID>
DB07310

>  <COMMON_NAME>
(5S)-2-{[(1S)-1-(2-fluorophenyl)ethyl]amino}-5-methyl-5-(trifluoromethyl)-1,3-thiazol-4(5H)-one

$$$$
