
 OpenBabel10282417143D

 17 16  0  0  0  0  0  0  0  0999 V2000
    1.1051   -0.1038    0.0841 O   0  0  0  0  0  0  0  0  0  0  0  0
    0.7153    0.7055   -1.0042 C   0  0  0  0  0  0  0  0  0  0  0  0
    1.3627    2.0669   -0.8737 C   0  0  0  0  0  0  0  0  0  0  0  0
    2.3824    2.3279   -1.5339 O   0  0  0  0  0  0  0  0  0  0  0  0
    0.7093    3.0700    0.1080 C   0  0  0  0  0  0  0  0  0  0  0  0
   -0.7194    3.2570    0.0379 O   0  0  0  0  0  0  0  0  0  0  0  0
   -1.3058    3.9261   -1.4458 P   0  0  0  0  0  0  0  0  0  0  0  0
   -0.6674    5.3403   -0.9394 O   0  0  0  0  0  0  0  0  0  0  0  0
   -0.0528    3.3136   -2.2604 O   0  0  0  0  0  0  0  0  0  0  0  0
   -1.8306    4.5249   -2.7738 O   0  0  0  0  0  0  0  0  0  0  0  0
    2.0800   -0.1415    0.0501 H   0  0  0  0  0  0  0  0  0  0  0  0
    1.0250    0.2334   -1.9450 H   0  0  0  0  0  0  0  0  0  0  0  0
   -0.3749    0.8000   -1.0375 H   0  0  0  0  0  0  0  0  0  0  0  0
    0.9616    2.7288    1.1149 H   0  0  0  0  0  0  0  0  0  0  0  0
    1.2009    4.0395   -0.0371 H   0  0  0  0  0  0  0  0  0  0  0  0
   -1.3740    5.9343   -0.6298 H   0  0  0  0  0  0  0  0  0  0  0  0
   -0.3277    2.6098   -2.8723 H   0  0  0  0  0  0  0  0  0  0  0  0
  1  2  1  0  0  0  0
  1 11  1  0  0  0  0
  2  3  1  0  0  0  0
  2 12  1  0  0  0  0
  2 13  1  0  0  0  0
  3  4  2  0  0  0  0
  3  5  1  0  0  0  0
  5  6  1  0  0  0  0
  5 14  1  0  0  0  0
  5 15  1  0  0  0  0
  6  7  1  0  0  0  0
  7  8  1  0  0  0  0
  7  9  1  0  0  0  0
  7 10  2  0  0  0  0
  8 16  1  0  0  0  0
  9 17  1  0  0  0  0
M  END
>  <DRUGBANK_ID>
DB04326

>  <SECONDARY_ACCESSION_NUMBERS>
EXPT00026; DB12496

>  <COMMON_NAME>
Dihydroxyacetone phosphate

>  <CAS_NUMBER>
57-04-5

>  <UNII>
T7KF2T6W95

>  <SYNONYMS>
1-hydroxy-3-(phosphonooxy)-2-Propanone; 1-Hydroxy-3-(phosphonooxy)acetone; 1,3-Dihydroxy-2-propanone monodihydrogen phosphate; 1,3-Dihydroxy-2-propanone phosphate; 1,3-Dihydroxyacetone 1-phosphate; 3-hydroxy-2-oxopropyl phosphate; DHAP; Dihydroxyacetone monophosphate; Glycerone monophosphate; Glycerone phosphate

$$$$
