
 OpenBabel10282417153D

 39 41  0  0  1  0  0  0  0  0999 V2000
   -0.0362    1.2973    0.6782 O   0  0  0  0  0  0  0  0  0  0  0  0
    3.0186   -1.2355   -1.4191 N   0  0  0  0  0  0  0  0  0  0  0  0
   -0.5824   -1.3363    0.0265 N   0  0  0  0  0  0  0  0  0  0  0  0
   -1.1018    0.9886   -0.1574 N   0  0  0  0  0  0  0  0  0  0  0  0
   -4.9987   -0.4630   -1.0428 N   0  0  0  0  0  0  0  0  0  0  0  0
    3.3978    0.1836   -1.4732 C   0  0  0  0  0  0  0  0  0  0  0  0
    3.7478   -1.9277   -0.3506 C   0  0  0  0  0  0  0  0  0  0  0  0
    4.8755    0.4821   -1.6084 C   0  0  0  0  0  0  0  0  0  0  0  0
    5.2564   -1.7141   -0.4772 C   0  0  0  0  0  0  0  0  0  0  0  0
    5.6233   -0.2326   -0.4920 C   0  0  0  0  0  0  0  0  0  0  0  0
    1.5480   -1.4650   -1.2853 C   0  0  0  0  0  0  0  0  0  0  0  0
    0.8419   -0.9527    0.0139 C   0  0  3  0  0  0  0  0  0  0  0  0
    1.0582    0.5583    0.1718 C   0  0  0  0  0  0  0  0  0  0  0  0
   -1.4237   -0.3499   -0.0498 C   0  0  0  0  0  0  0  0  0  0  0  0
   -2.8458   -0.6887   -0.0047 C   0  0  0  0  0  0  0  0  0  0  0  0
   -3.3807   -1.4239    1.0485 C   0  0  0  0  0  0  0  0  0  0  0  0
   -3.6704   -0.2363   -1.0201 C   0  0  0  0  0  0  0  0  0  0  0  0
   -4.7453   -1.6783    1.0425 C   0  0  0  0  0  0  0  0  0  0  0  0
   -5.5020   -1.1838   -0.0134 C   0  0  0  0  0  0  0  0  0  0  0  0
   -1.8681    1.6432   -0.0035 H   0  0  0  0  0  0  0  0  0  0  0  0
    3.1978    0.6580   -0.5179 H   0  0  0  0  0  0  0  0  0  0  0  0
    2.8439    0.7096   -2.2582 H   0  0  0  0  0  0  0  0  0  0  0  0
    3.5330   -3.0024   -0.3918 H   0  0  0  0  0  0  0  0  0  0  0  0
    3.4303   -1.5695    0.6358 H   0  0  0  0  0  0  0  0  0  0  0  0
    5.0153    1.5670   -1.4981 H   0  0  0  0  0  0  0  0  0  0  0  0
    5.2360    0.1967   -2.5985 H   0  0  0  0  0  0  0  0  0  0  0  0
    5.6134   -2.1833   -1.4005 H   0  0  0  0  0  0  0  0  0  0  0  0
    5.7559   -2.2051    0.3636 H   0  0  0  0  0  0  0  0  0  0  0  0
    6.6994   -0.0951   -0.6205 H   0  0  0  0  0  0  0  0  0  0  0  0
    5.3546    0.2150    0.4763 H   0  0  0  0  0  0  0  0  0  0  0  0
    1.3602   -2.5454   -1.3920 H   0  0  0  0  0  0  0  0  0  0  0  0
    1.0454   -1.0265   -2.1596 H   0  0  0  0  0  0  0  0  0  0  0  0
    1.2875   -1.4699    0.8729 H   0  0  0  0  0  0  0  0  0  0  0  0
    1.2842    1.0027   -0.8005 H   0  0  0  0  0  0  0  0  0  0  0  0
    1.8783    0.7124    0.8780 H   0  0  0  0  0  0  0  0  0  0  0  0
   -2.7467   -1.7833    1.8557 H   0  0  0  0  0  0  0  0  0  0  0  0
   -3.2704    0.3219   -1.8613 H   0  0  0  0  0  0  0  0  0  0  0  0
   -5.2108   -2.2484    1.8382 H   0  0  0  0  0  0  0  0  0  0  0  0
   -6.5716   -1.3611   -0.0629 H   0  0  0  0  0  0  0  0  0  0  0  0
  1  4  1  0  0  0  0
  1 13  1  0  0  0  0
  2  6  1  0  0  0  0
  2  7  1  0  0  0  0
  2 11  1  0  0  0  0
  3 12  1  0  0  0  0
  3 14  2  0  0  0  0
  4 14  1  0  0  0  0
  4 20  1  0  0  0  0
  5 17  1  0  0  0  0
  5 19  2  0  0  0  0
  6  8  1  0  0  0  0
  6 21  1  0  0  0  0
  6 22  1  0  0  0  0
  7  9  1  0  0  0  0
  7 23  1  0  0  0  0
  7 24  1  0  0  0  0
  8 10  1  0  0  0  0
  8 25  1  0  0  0  0
  8 26  1  0  0  0  0
  9 10  1  0  0  0  0
  9 27  1  0  0  0  0
  9 28  1  0  0  0  0
 10 29  1  0  0  0  0
 10 30  1  0  0  0  0
 11 12  1  0  0  0  0
 11 31  1  0  0  0  0
 11 32  1  0  0  0  0
 12 13  1  0  0  0  0
 12 33  1  0  0  0  0
 13 34  1  0  0  0  0
 13 35  1  0  0  0  0
 14 15  1  0  0  0  0
 15 16  1  0  0  0  0
 15 17  2  0  0  0  0
 16 18  2  0  0  0  0
 16 36  1  0  0  0  0
 17 37  1  0  0  0  0
 18 19  1  0  0  0  0
 18 38  1  0  0  0  0
 19 39  1  0  0  0  0
M  END
>  <DRUGBANK_ID>
DB05444

>  <COMMON_NAME>
Iroxanadine

>  <CAS_NUMBER>
276690-58-5

>  <UNII>
6K69EJ1DL1

>  <SYNONYMS>
Iroxanadine

$$$$
