
 OpenBabel10282417153D

 33 33  0  0  0  0  0  0  0  0999 V2000
    1.0432   -0.0005    0.0902 C   0  0  0  0  0  0  0  0  0  0  0  0
   -0.2607   -0.0005    0.0902 C   0  0  0  0  0  0  0  0  0  0  0  0
   -1.7807   -0.0005    0.0902 C   0  0  0  0  0  0  0  0  0  0  0  0
   -2.3296   -1.3233   -0.0659 C   0  0  0  0  0  0  0  0  0  0  0  0
   -2.0801   -2.0605    1.1979 C   0  0  0  0  0  0  0  0  0  0  0  0
   -1.3325   -1.7800    2.3173 C   0  0  0  0  0  0  0  0  0  0  0  0
   -0.9352   -0.4320    2.6636 C   0  0  0  0  0  0  0  0  0  0  0  0
   -0.7125    0.7023    2.8883 N   0  0  0  0  0  0  0  0  0  0  0  0
   -0.9599   -2.7299    3.4304 C   0  0  0  0  0  0  0  0  0  0  0  0
   -0.5008   -2.2637    4.4784 O   0  0  0  0  0  0  0  0  0  0  0  0
   -1.1435   -4.0916    3.3850 N   0  0  0  0  0  0  0  0  0  0  0  0
   -1.3581   -4.9683    2.3016 C   0  0  0  0  0  0  0  0  0  0  0  0
   -0.7402   -4.7194    1.0684 C   0  0  0  0  0  0  0  0  0  0  0  0
   -1.3508   -5.1380   -0.1244 C   0  0  0  0  0  0  0  0  0  0  0  0
   -2.5257   -5.9043   -0.1010 C   0  0  0  0  0  0  0  0  0  0  0  0
   -3.0661   -6.2719    1.1456 C   0  0  0  0  0  0  0  0  0  0  0  0
   -2.5183   -5.7730    2.3434 C   0  0  0  0  0  0  0  0  0  0  0  0
   -3.2369   -6.2693   -1.3865 C   0  0  0  0  0  0  0  0  0  0  0  0
   -3.2312   -7.6139   -1.5892 F   0  0  0  0  0  0  0  0  0  0  0  0
   -4.5476   -5.8933   -1.4095 F   0  0  0  0  0  0  0  0  0  0  0  0
   -2.6782   -5.7177   -2.5009 F   0  0  0  0  0  0  0  0  0  0  0  0
   -2.9116   -3.1226    1.0517 O   0  0  0  0  0  0  0  0  0  0  0  0
    2.1090    0.0118    0.0943 H   0  0  0  0  0  0  0  0  0  0  0  0
   -2.2518    0.5541    0.9072 H   0  0  0  0  0  0  0  0  0  0  0  0
   -2.0696    0.6061   -0.7815 H   0  0  0  0  0  0  0  0  0  0  0  0
   -3.4104   -1.2579   -0.2410 H   0  0  0  0  0  0  0  0  0  0  0  0
   -1.9006   -1.8261   -0.9487 H   0  0  0  0  0  0  0  0  0  0  0  0
   -1.0152   -4.5097    4.3016 H   0  0  0  0  0  0  0  0  0  0  0  0
    0.0496   -3.9734    0.9961 H   0  0  0  0  0  0  0  0  0  0  0  0
   -1.0014   -4.7116   -1.0664 H   0  0  0  0  0  0  0  0  0  0  0  0
   -3.9835   -6.8611    1.1711 H   0  0  0  0  0  0  0  0  0  0  0  0
   -3.1564   -5.8000    3.2320 H   0  0  0  0  0  0  0  0  0  0  0  0
   -2.8175   -3.6539    1.8377 H   0  0  0  0  0  0  0  0  0  0  0  0
  1  2  3  0  0  0  0
  1 23  1  0  0  0  0
  2  3  1  0  0  0  0
  3  4  1  0  0  0  0
  3 24  1  0  0  0  0
  3 25  1  0  0  0  0
  4  5  1  0  0  0  0
  4 26  1  0  0  0  0
  4 27  1  0  0  0  0
  5  6  2  0  0  0  0
  5 22  1  0  0  0  0
  6  7  1  0  0  0  0
  6  9  1  0  0  0  0
  7  8  3  0  0  0  0
  9 10  2  0  0  0  0
  9 11  1  0  0  0  0
 11 12  1  0  0  0  0
 11 28  1  0  0  0  0
 12 13  2  0  0  0  0
 12 17  1  0  0  0  0
 13 14  1  0  0  0  0
 13 29  1  0  0  0  0
 14 15  2  0  0  0  0
 14 30  1  0  0  0  0
 15 16  1  0  0  0  0
 15 18  1  0  0  0  0
 16 17  2  0  0  0  0
 16 31  1  0  0  0  0
 17 32  1  0  0  0  0
 18 19  1  0  0  0  0
 18 20  1  0  0  0  0
 18 21  1  0  0  0  0
 22 33  1  0  0  0  0
M  END
>  <DRUGBANK_ID>
DB06481

>  <COMMON_NAME>
Manitimus

>  <CAS_NUMBER>
202057-76-9

>  <UNII>
4B135RK2KL

>  <SYNONYMS>
Manitimus

$$$$
