
 OpenBabel10282417203D

122128  0  0  0  0  0  0  0  0999 V2000
   -8.1755    5.6180   -6.4760 C   0  0  0  0  0  0  0  0  0  0  0  0
   -7.3151    4.9711   -7.3580 C   0  0  0  0  0  0  0  0  0  0  0  0
   -6.5069    3.9130   -6.8931 C   0  0  0  0  0  0  0  0  0  0  0  0
   -6.5579    3.4896   -5.5410 C   0  0  0  0  0  0  0  0  0  0  0  0
   -7.3835    4.1795   -4.6482 C   0  0  0  0  0  0  0  0  0  0  0  0
   -8.2035    5.2259   -5.1383 C   0  0  0  0  0  0  0  0  0  0  0  0
   -5.6776    2.4310   -4.9316 C   0  0  0  0  0  0  0  0  0  0  0  0
   -6.2481    1.5039   -3.7762 C   0  0  0  0  0  0  0  0  0  0  0  0
   -7.3823    2.1750   -3.0370 C   0  0  1  0  0  0  0  0  0  0  0  0
   -7.3648    3.7723   -3.1911 C   0  0  1  0  0  0  0  0  0  0  0  0
   -5.5990    0.3846   -3.2929 C   0  0  0  0  0  0  0  0  0  0  0  0
   -5.8203   -0.4670   -1.7805 C   0  0  1  0  0  0  0  0  0  0  0  0
   -6.6930    0.5460   -1.0382 C   0  0  1  0  0  0  0  0  0  0  0  0
   -7.1865    1.8812   -1.5430 C   0  0  0  0  0  0  0  0  0  0  0  0
   -6.5780   -1.8691   -0.6703 C   0  0  0  0  0  0  0  0  0  0  0  0
   -7.0805   -1.5554    0.8676 C   0  0  0  0  0  0  0  0  0  0  0  0
   -5.9835   -0.8216    0.9338 C   0  0  0  0  0  0  0  0  0  0  0  0
   -6.2322    0.6529    0.4862 C   0  0  1  0  0  0  0  0  0  0  0  0
   -5.6816    3.2782   -7.7834 O   0  0  0  0  0  0  0  0  0  0  0  0
   -4.2661    0.2384   -3.8252 O   0  0  0  0  0  0  0  0  0  0  0  0
   -4.4683    2.4655   -5.1610 O   0  0  0  0  0  0  0  0  0  0  0  0
   -6.1079   -3.0419   -0.6045 O   0  0  0  0  0  0  0  0  0  0  0  0
   -8.2728   -0.8650    1.5508 C   0  0  0  0  0  0  0  0  0  0  0  0
   -8.4023   -0.9162    2.9446 N   0  0  0  0  0  0  0  0  0  0  0  0
   -4.7020   -1.4586    0.5734 O   0  0  0  0  0  0  0  0  0  0  0  0
   -9.0759   -0.2036    0.8876 O   0  0  0  0  0  0  0  0  0  0  0  0
   -9.5577   -0.3342    3.6583 C   0  0  0  0  0  0  0  0  0  0  0  0
  -10.4667   -1.3518    4.1719 N   0  0  0  0  0  0  0  0  0  0  0  0
  -11.0896   -0.8672    5.4572 C   0  0  0  0  0  0  0  0  0  0  0  0
  -10.1412   -0.8775    6.6877 C   0  0  0  0  0  0  0  0  0  0  0  0
   -9.4939   -2.1811    6.8985 N   0  0  0  0  0  0  0  0  0  0  0  0
   -8.8403   -2.6365    5.6154 C   0  0  0  0  0  0  0  0  0  0  0  0
   -9.7653   -2.6324    4.2666 C   0  0  0  0  0  0  0  0  0  0  0  0
  -10.3432   -3.1400    7.7037 C   0  0  0  0  0  0  0  0  0  0  0  0
  -11.6104   -3.6948    7.0120 C   0  0  0  0  0  0  0  0  0  0  0  0
  -11.0798   -4.2725    5.8637 O   0  0  0  0  0  0  0  0  0  0  0  0
   -5.1507    1.4683    1.0859 N   0  0  0  0  0  0  0  0  0  0  0  0
   -4.6684    2.5356    0.2392 C   0  0  0  0  0  0  0  0  0  0  0  0
   -4.0000    0.6390    1.3594 C   0  0  0  0  0  0  0  0  0  0  0  0
   -4.3759   -0.5165   -1.5395 O   0  0  0  0  0  0  0  0  0  0  0  0
   -7.6554    0.0206   -1.1847 H   0  0  0  0  0  0  0  0  0  0  0  0
   -8.3281    1.7707   -3.4143 H   0  0  0  0  0  0  0  0  0  0  0  0
   -6.1295    4.2353   -2.3813 C   0  0  0  0  0  0  0  0  0  0  0  0
   -8.5281    4.3459   -2.5727 O   0  0  0  0  0  0  0  0  0  0  0  0
   -1.7637   -1.2975   -0.0149 C   0  0  2  0  0  0  0  0  0  0  0  0
   -1.7093    0.2446   -0.1941 C   0  0  0  0  0  0  0  0  0  0  0  0
   -0.6986    0.3973    0.6774 N   0  0  0  0  0  0  0  0  0  0  0  0
   -0.3712   -1.0609    0.5881 C   0  0  2  0  0  0  0  0  0  0  0  0
    0.2954    1.3663    0.2262 C   0  0  2  0  0  0  0  0  0  0  0  0
    1.5917    0.5642    0.0267 C   0  0  0  0  0  0  0  0  0  0  0  0
    1.0547   -1.1031   -0.5328 S   0  0  0  0  0  0  0  0  0  0  0  0
    2.4551    1.1038   -1.0987 C   0  0  0  0  0  0  0  0  0  0  0  0
    2.3810    0.3632    1.3173 C   0  0  0  0  0  0  0  0  0  0  0  0
    0.3966    2.5797    1.1746 C   0  0  0  0  0  0  0  0  0  0  0  0
   -0.4574    3.6047    0.9431 O   0  0  0  0  0  0  0  0  0  0  0  0
    1.1551    2.6512    2.1307 O   0  0  0  0  0  0  0  0  0  0  0  0
   -0.2252   -1.5360    1.5662 H   0  0  0  0  0  0  0  0  0  0  0  0
   -1.9222   -2.0745   -1.2609 N   0  0  0  0  0  0  0  0  0  0  0  0
   -2.2669   -3.4005   -1.3530 C   0  0  0  0  0  0  0  0  0  0  0  0
   -2.2249    1.1584   -0.9075 O   0  0  0  0  0  0  0  0  0  0  0  0
   -2.4003   -3.9262   -2.4587 O   0  0  0  0  0  0  0  0  0  0  0  0
   -2.3435   -4.2119   -0.0489 C   0  0  0  0  0  0  0  0  0  0  0  0
   -1.2356   -4.1105    0.8529 O   0  0  0  0  0  0  0  0  0  0  0  0
   -0.0588   -4.6080    0.3574 C   0  0  0  0  0  0  0  0  0  0  0  0
    0.4459   -4.2981   -0.9042 C   0  0  0  0  0  0  0  0  0  0  0  0
    1.6823   -4.7528   -1.3325 C   0  0  0  0  0  0  0  0  0  0  0  0
    2.3379   -5.7040   -0.5806 C   0  0  0  0  0  0  0  0  0  0  0  0
    1.7984   -6.0984    0.6420 C   0  0  0  0  0  0  0  0  0  0  0  0
    0.7053   -5.4171    1.1845 C   0  0  0  0  0  0  0  0  0  0  0  0
   -8.8283    6.4260   -6.8093 H   0  0  0  0  0  0  0  0  0  0  0  0
   -7.3062    5.3031   -8.3958 H   0  0  0  0  0  0  0  0  0  0  0  0
   -8.8989    5.7511   -4.4862 H   0  0  0  0  0  0  0  0  0  0  0  0
   -8.0272    2.2950   -0.9734 H   0  0  0  0  0  0  0  0  0  0  0  0
   -6.3881    2.4678   -1.1789 H   0  0  0  0  0  0  0  0  0  0  0  0
   -7.1264    1.1160    0.9322 H   0  0  0  0  0  0  0  0  0  0  0  0
   -5.5415    3.8293   -8.5739 H   0  0  0  0  0  0  0  0  0  0  0  0
   -4.0241    1.0277   -4.3836 H   0  0  0  0  0  0  0  0  0  0  0  0
   -7.7743   -1.4814    3.5082 H   0  0  0  0  0  0  0  0  0  0  0  0
   -4.7154   -2.2873    0.0322 H   0  0  0  0  0  0  0  0  0  0  0  0
   -9.1816    0.2804    4.4805 H   0  0  0  0  0  0  0  0  0  0  0  0
  -10.1587    0.2909    3.0018 H   0  0  0  0  0  0  0  0  0  0  0  0
  -11.4950    0.1463    5.3386 H   0  0  0  0  0  0  0  0  0  0  0  0
  -12.0069   -1.4154    5.6854 H   0  0  0  0  0  0  0  0  0  0  0  0
   -9.3625   -0.1160    6.5333 H   0  0  0  0  0  0  0  0  0  0  0  0
  -10.6429   -0.5395    7.6056 H   0  0  0  0  0  0  0  0  0  0  0  0
   -8.0201   -1.9180    5.4514 H   0  0  0  0  0  0  0  0  0  0  0  0
   -8.3220   -3.5923    5.7637 H   0  0  0  0  0  0  0  0  0  0  0  0
  -10.5662   -3.3747    4.0922 H   0  0  0  0  0  0  0  0  0  0  0  0
   -9.1853   -2.9665    3.3934 H   0  0  0  0  0  0  0  0  0  0  0  0
   -9.6897   -3.9942    7.9187 H   0  0  0  0  0  0  0  0  0  0  0  0
  -10.6369   -2.6923    8.6590 H   0  0  0  0  0  0  0  0  0  0  0  0
  -12.1879   -4.4951    7.4438 H   0  0  0  0  0  0  0  0  0  0  0  0
  -12.2985   -2.9081    6.7074 H   0  0  0  0  0  0  0  0  0  0  0  0
  -10.6073   -3.4517    5.7028 H   0  0  0  0  0  0  0  0  0  0  0  0
   -3.7364    2.9391    0.6344 H   0  0  0  0  0  0  0  0  0  0  0  0
   -4.4552    2.2043   -0.7858 H   0  0  0  0  0  0  0  0  0  0  0  0
   -5.3971    3.3404    0.2582 H   0  0  0  0  0  0  0  0  0  0  0  0
   -3.1111    1.0825    1.7718 H   0  0  0  0  0  0  0  0  0  0  0  0
   -4.1672   -0.2131    2.0306 H   0  0  0  0  0  0  0  0  0  0  0  0
   -3.7586    0.3049    0.3643 H   0  0  0  0  0  0  0  0  0  0  0  0
   -3.9241    0.3140   -1.8247 H   0  0  0  0  0  0  0  0  0  0  0  0
   -5.3835    3.4294   -2.3838 H   0  0  0  0  0  0  0  0  0  0  0  0
   -5.5206    5.0747   -2.6895 H   0  0  0  0  0  0  0  0  0  0  0  0
   -6.4669    4.4049   -1.3471 H   0  0  0  0  0  0  0  0  0  0  0  0
   -8.3635    5.3012   -2.4465 H   0  0  0  0  0  0  0  0  0  0  0  0
   -2.4433   -1.6636    0.7609 H   0  0  0  0  0  0  0  0  0  0  0  0
   -0.0107    1.7668   -0.7553 H   0  0  0  0  0  0  0  0  0  0  0  0
    2.8089    2.1077   -0.8577 H   0  0  0  0  0  0  0  0  0  0  0  0
    3.3283    0.4611   -1.2587 H   0  0  0  0  0  0  0  0  0  0  0  0
    1.9032    1.1590   -2.0467 H   0  0  0  0  0  0  0  0  0  0  0  0
    3.1970   -0.3521    1.2033 H   0  0  0  0  0  0  0  0  0  0  0  0
    2.8520    1.3002    1.6215 H   0  0  0  0  0  0  0  0  0  0  0  0
    1.7337    0.0267    2.1389 H   0  0  0  0  0  0  0  0  0  0  0  0
   -1.1347    3.4955    0.2507 H   0  0  0  0  0  0  0  0  0  0  0  0
   -1.8811   -1.5945   -2.1557 H   0  0  0  0  0  0  0  0  0  0  0  0
   -3.2348   -3.8693    0.4905 H   0  0  0  0  0  0  0  0  0  0  0  0
   -2.5391   -5.2656   -0.2866 H   0  0  0  0  0  0  0  0  0  0  0  0
   -0.0416   -3.6307   -1.5941 H   0  0  0  0  0  0  0  0  0  0  0  0
    2.0891   -4.3711   -2.2636 H   0  0  0  0  0  0  0  0  0  0  0  0
    3.2673   -6.1238   -0.9473 H   0  0  0  0  0  0  0  0  0  0  0  0
    2.2299   -6.9418    1.1703 H   0  0  0  0  0  0  0  0  0  0  0  0
    0.4529   -5.5467    2.2324 H   0  0  0  0  0  0  0  0  0  0  0  0
  1  2  2  0  0  0  0
  1  6  1  0  0  0  0
  1 70  1  0  0  0  0
  2  3  1  0  0  0  0
  2 71  1  0  0  0  0
  3  4  2  0  0  0  0
  3 19  1  0  0  0  0
  4  5  1  0  0  0  0
  4  7  1  0  0  0  0
  5  6  2  0  0  0  0
  5 10  1  0  0  0  0
  6 72  1  0  0  0  0
  7  8  1  0  0  0  0
  7 21  2  0  0  0  0
  8  9  1  0  0  0  0
  8 11  2  0  0  0  0
  9 10  1  0  0  0  0
  9 14  1  0  0  0  0
  9 42  1  1  0  0  0
 10 44  1  1  0  0  0
 10 43  1  0  0  0  0
 11 12  1  0  0  0  0
 11 20  1  0  0  0  0
 12 13  1  0  0  0  0
 12 15  1  0  0  0  0
 12 40  1  1  0  0  0
 13 14  1  0  0  0  0
 13 18  1  0  0  0  0
 13 41  1  6  0  0  0
 14 73  1  0  0  0  0
 14 74  1  0  0  0  0
 15 16  1  0  0  0  0
 15 22  2  0  0  0  0
 16 17  2  0  0  0  0
 16 23  1  0  0  0  0
 17 18  1  0  0  0  0
 17 25  1  0  0  0  0
 18 75  1  1  0  0  0
 18 37  1  0  0  0  0
 19 76  1  0  0  0  0
 20 77  1  0  0  0  0
 23 24  1  0  0  0  0
 23 26  2  0  0  0  0
 24 27  1  0  0  0  0
 24 78  1  0  0  0  0
 25 79  1  0  0  0  0
 27 28  1  0  0  0  0
 27 80  1  0  0  0  0
 27 81  1  0  0  0  0
 28 29  1  0  0  0  0
 28 33  1  0  0  0  0
 29 30  1  0  0  0  0
 29 82  1  0  0  0  0
 29 83  1  0  0  0  0
 30 31  1  0  0  0  0
 30 84  1  0  0  0  0
 30 85  1  0  0  0  0
 31 32  1  0  0  0  0
 31 34  1  0  0  0  0
 32 33  1  0  0  0  0
 32 86  1  0  0  0  0
 32 87  1  0  0  0  0
 33 88  1  0  0  0  0
 33 89  1  0  0  0  0
 34 35  1  0  0  0  0
 34 90  1  0  0  0  0
 34 91  1  0  0  0  0
 35 36  1  0  0  0  0
 35 92  1  0  0  0  0
 35 93  1  0  0  0  0
 36 94  1  0  0  0  0
 37 38  1  0  0  0  0
 37 39  1  0  0  0  0
 38 95  1  0  0  0  0
 38 96  1  0  0  0  0
 38 97  1  0  0  0  0
 39 98  1  0  0  0  0
 39 99  1  0  0  0  0
 39100  1  0  0  0  0
 40101  1  0  0  0  0
 43102  1  0  0  0  0
 43103  1  0  0  0  0
 43104  1  0  0  0  0
 44105  1  0  0  0  0
 45 46  1  0  0  0  0
 45 48  1  0  0  0  0
 45106  1  1  0  0  0
 45 58  1  0  0  0  0
 46 47  1  0  0  0  0
 46 60  2  0  0  0  0
 47 48  1  0  0  0  0
 47 49  1  0  0  0  0
 48 51  1  0  0  0  0
 48 57  1  1  0  0  0
 49 50  1  0  0  0  0
 49107  1  6  0  0  0
 49 54  1  0  0  0  0
 50 51  1  0  0  0  0
 50 52  1  0  0  0  0
 50 53  1  0  0  0  0
 52108  1  0  0  0  0
 52109  1  0  0  0  0
 52110  1  0  0  0  0
 53111  1  0  0  0  0
 53112  1  0  0  0  0
 53113  1  0  0  0  0
 54 55  1  0  0  0  0
 54 56  2  0  0  0  0
 55114  1  0  0  0  0
 58 59  1  0  0  0  0
 58115  1  0  0  0  0
 59 61  2  0  0  0  0
 59 62  1  0  0  0  0
 62 63  1  0  0  0  0
 62116  1  0  0  0  0
 62117  1  0  0  0  0
 63 64  1  0  0  0  0
 64 65  2  0  0  0  0
 64 69  1  0  0  0  0
 65 66  1  0  0  0  0
 65118  1  0  0  0  0
 66 67  2  0  0  0  0
 66119  1  0  0  0  0
 67 68  1  0  0  0  0
 67120  1  0  0  0  0
 68 69  2  0  0  0  0
 68121  1  0  0  0  0
 69122  1  0  0  0  0
M  END
>  <DRUGBANK_ID>
DB13264

>  <COMMON_NAME>
Penimepicycline

>  <CAS_NUMBER>
4599-60-4

>  <UNII>
3RGQ4B6E87

>  <SYNONYMS>
Duamine; Hydrocycline; Mepicycline penicillinate; Penetracyne; Penimepiciclina; Penimepicycline; Pénimépicycline; Penimepicyclinum; Pipacycline-penicillin V; Pipacycline/penicillin V

$$$$
