
 OpenBabel10282417213D

 36 33  0  0  0  0  0  0  0  0999 V2000
    0.6005    0.0537    0.1979 C   0  0  0  0  0  0  0  0  0  0  0  0
    0.6481    1.5768    0.4465 C   0  0  0  0  0  0  0  0  0  0  0  0
    1.1592    2.4361   -0.6228 N   0  0  0  0  0  0  0  0  0  0  0  0
    0.4426    3.7474   -0.7933 C   0  0  0  0  0  0  0  0  0  0  0  0
    0.6579    4.6882    0.3797 C   0  0  0  0  0  0  0  0  0  0  0  0
    1.0318    5.8229    0.3364 O   0  0  0  0  0  0  0  0  0  0  0  0
    0.3872    4.0590    1.5620 O   0  0  0  0  0  0  0  0  0  0  0  0
    2.5912    2.6636   -0.9378 C   0  0  0  0  0  0  0  0  0  0  0  0
    3.3636    3.0685    0.3500 C   0  0  0  0  0  0  0  0  0  0  0  0
    3.8156    2.0451    0.9709 O   0  0  0  0  0  0  0  0  0  0  0  0
    3.3568    4.2532    0.7183 O   0  5  0  0  0  0  0  0  0  0  0  0
    0.1894   -0.4099   -1.1393 N   0  0  0  0  0  0  0  0  0  0  0  0
   -1.3231   -0.4878   -1.2219 C   0  0  0  0  0  0  0  0  0  0  0  0
   -2.2363    0.7463   -1.2246 C   0  0  0  0  0  0  0  0  0  0  0  0
   -3.0822    0.9789   -2.0768 O   0  0  0  0  0  0  0  0  0  0  0  0
   -2.2102    1.4655   -0.0850 O   0  0  0  0  0  0  0  0  0  0  0  0
    0.7920    0.1681   -2.4120 C   0  0  0  0  0  0  0  0  0  0  0  0
    0.4339    1.5827   -2.9834 C   0  0  0  0  0  0  0  0  0  0  0  0
    1.4120    2.1271   -3.5756 O   0  0  0  0  0  0  0  0  0  0  0  0
   -0.7389    1.9896   -2.8237 O   0  5  0  0  0  0  0  0  0  0  0  0
    1.7706   -2.1852   -1.1785 Na  0  3  0  0  0  0  0  0  0  0  0  0
    3.2262    0.4891    0.1393 Na  0  3  0  0  0  0  0  0  0  0  0  0
   -0.0199   -0.4465    0.9669 H   0  0  0  0  0  0  0  0  0  0  0  0
    1.5425   -0.4316    0.4751 H   0  0  0  0  0  0  0  0  0  0  0  0
   -0.3926    1.7926    0.5997 H   0  0  0  0  0  0  0  0  0  0  0  0
    1.0569    1.7944    1.4347 H   0  0  0  0  0  0  0  0  0  0  0  0
    0.7958    4.2489   -1.7052 H   0  0  0  0  0  0  0  0  0  0  0  0
   -0.6355    3.6440   -0.9410 H   0  0  0  0  0  0  0  0  0  0  0  0
    1.0382    4.4856    2.1564 H   0  0  0  0  0  0  0  0  0  0  0  0
    3.0120    1.7619   -1.4040 H   0  0  0  0  0  0  0  0  0  0  0  0
    2.7523    3.3771   -1.7595 H   0  0  0  0  0  0  0  0  0  0  0  0
   -1.5486   -1.0424   -2.1338 H   0  0  0  0  0  0  0  0  0  0  0  0
   -1.6597   -1.1224   -0.3930 H   0  0  0  0  0  0  0  0  0  0  0  0
   -2.1111    2.3959   -0.3984 H   0  0  0  0  0  0  0  0  0  0  0  0
    1.8858    0.0913   -2.3528 H   0  0  0  0  0  0  0  0  0  0  0  0
    0.5100   -0.4956   -3.2379 H   0  0  0  0  0  0  0  0  0  0  0  0
  1  2  1  0  0  0  0
  1 12  1  0  0  0  0
  1 23  1  0  0  0  0
  1 24  1  0  0  0  0
  2  3  1  0  0  0  0
  2 25  1  0  0  0  0
  2 26  1  0  0  0  0
  3  4  1  0  0  0  0
  3  8  1  0  0  0  0
  4  5  1  0  0  0  0
  4 27  1  0  0  0  0
  4 28  1  0  0  0  0
  5  6  2  0  0  0  0
  5  7  1  0  0  0  0
  7 29  1  0  0  0  0
  8  9  1  0  0  0  0
  8 30  1  0  0  0  0
  8 31  1  0  0  0  0
  9 10  2  0  0  0  0
  9 11  1  0  0  0  0
 12 13  1  0  0  0  0
 12 17  1  0  0  0  0
 13 14  1  0  0  0  0
 13 32  1  0  0  0  0
 13 33  1  0  0  0  0
 14 15  2  0  0  0  0
 14 16  1  0  0  0  0
 16 34  1  0  0  0  0
 17 18  1  0  0  0  0
 17 35  1  0  0  0  0
 17 36  1  0  0  0  0
 18 19  2  0  0  0  0
 18 20  1  0  0  0  0
M  CHG  4  11  -1  20  -1  21   1  22   1
M  END
>  <DRUGBANK_ID>
DB14600

>  <SECONDARY_ACCESSION_NUMBERS>
DBSALT000838

>  <COMMON_NAME>
Edetate disodium anhydrous

>  <CAS_NUMBER>
139-33-3

>  <UNII>
8NLQ36F6MM

>  <SYNONYMS>
Anhydrous disodium edetate; Disodium EDTA, anhydrous; Edetate disodium, anhydrous; EDTA disodium salt (anhydrous)

$$$$
