
 OpenBabel10282417153D

 42 43  0  0  0  0  0  0  0  0999 V2000
   -1.5328    0.9618    0.0410 O   0  0  0  0  0  0  0  0  0  0  0  0
   -2.2760   -0.1809    0.0964 C   0  0  0  0  0  0  0  0  0  0  0  0
   -0.2186    0.5797    0.0488 C   0  0  0  0  0  0  0  0  0  0  0  0
   -1.4469   -1.2749    0.1964 C   0  0  0  0  0  0  0  0  0  0  0  0
   -0.1278   -0.8077    0.0936 C   0  0  0  0  0  0  0  0  0  0  0  0
   -3.7578   -0.0647   -0.0108 C   0  0  3  0  0  0  0  0  0  0  0  0
   -3.8909   -2.1752   -1.4103 N   0  0  0  0  0  0  0  0  0  0  0  0
    0.8892    1.4299    0.0009 C   0  0  0  0  0  0  0  0  0  0  0  0
   -4.2825   -0.7439   -1.3033 C   0  0  0  0  0  0  0  0  0  0  0  0
   -4.3226   -2.8560   -2.6416 C   0  0  0  0  0  0  0  0  0  0  0  0
   -4.3083   -0.7250    1.1294 O   0  0  0  0  0  0  0  0  0  0  0  0
    1.1244   -1.4244    0.0446 C   0  0  0  0  0  0  0  0  0  0  0  0
    2.2571   -0.6149   -0.0038 C   0  0  0  0  0  0  0  0  0  0  0  0
    2.1409    0.7804   -0.0153 C   0  0  0  0  0  0  0  0  0  0  0  0
    0.7821    2.9280   -0.0055 C   0  0  0  0  0  0  0  0  0  0  0  0
   -3.7139   -2.1769   -3.8792 C   0  0  0  0  0  0  0  0  0  0  0  0
   -3.7766   -4.2981   -2.5686 C   0  0  0  0  0  0  0  0  0  0  0  0
   -5.8492   -2.9031   -2.7132 C   0  0  0  0  0  0  0  0  0  0  0  0
    0.0323    3.4353   -1.2280 C   0  0  0  0  0  0  0  0  0  0  0  0
   -1.7572   -2.3089    0.2692 H   0  0  0  0  0  0  0  0  0  0  0  0
   -4.0869    0.9800    0.0062 H   0  0  0  0  0  0  0  0  0  0  0  0
   -2.8719   -2.2058   -1.4367 H   0  0  0  0  0  0  0  0  0  0  0  0
   -5.3740   -0.6709   -1.2911 H   0  0  0  0  0  0  0  0  0  0  0  0
   -3.8978   -0.1766   -2.1559 H   0  0  0  0  0  0  0  0  0  0  0  0
   -4.1576   -1.6746    0.9645 H   0  0  0  0  0  0  0  0  0  0  0  0
    1.2056   -2.5076    0.0525 H   0  0  0  0  0  0  0  0  0  0  0  0
    3.2392   -1.0794   -0.0214 H   0  0  0  0  0  0  0  0  0  0  0  0
    3.0538    1.3719   -0.0413 H   0  0  0  0  0  0  0  0  0  0  0  0
    0.2754    3.2521    0.9114 H   0  0  0  0  0  0  0  0  0  0  0  0
    1.7820    3.3779    0.0122 H   0  0  0  0  0  0  0  0  0  0  0  0
   -2.6184   -2.1464   -3.8127 H   0  0  0  0  0  0  0  0  0  0  0  0
   -3.9778   -2.7152   -4.7940 H   0  0  0  0  0  0  0  0  0  0  0  0
   -4.0663   -1.1486   -4.0027 H   0  0  0  0  0  0  0  0  0  0  0  0
   -4.1596   -4.8347   -1.6923 H   0  0  0  0  0  0  0  0  0  0  0  0
   -4.0647   -4.8694   -3.4586 H   0  0  0  0  0  0  0  0  0  0  0  0
   -2.6805   -4.3160   -2.5116 H   0  0  0  0  0  0  0  0  0  0  0  0
   -6.2667   -3.3896   -1.8231 H   0  0  0  0  0  0  0  0  0  0  0  0
   -6.2861   -1.9024   -2.7836 H   0  0  0  0  0  0  0  0  0  0  0  0
   -6.1832   -3.4619   -3.5920 H   0  0  0  0  0  0  0  0  0  0  0  0
   -0.9945    3.0577   -1.2604 H   0  0  0  0  0  0  0  0  0  0  0  0
   -0.0193    4.5275   -1.2172 H   0  0  0  0  0  0  0  0  0  0  0  0
    0.5310    3.1190   -2.1502 H   0  0  0  0  0  0  0  0  0  0  0  0
  2  1  1  0  0  0  0
  3  1  1  0  0  0  0
  4  2  2  0  0  0  0
  4  5  1  0  0  0  0
  4 20  1  0  0  0  0
  5  3  2  0  0  0  0
  6  2  1  0  0  0  0
  6 21  1  0  0  0  0
  7  9  1  0  0  0  0
  7 22  1  0  0  0  0
  8  3  1  0  0  0  0
  9  6  1  0  0  0  0
  9 23  1  0  0  0  0
  9 24  1  0  0  0  0
 10  7  1  0  0  0  0
 11  6  1  0  0  0  0
 11 25  1  0  0  0  0
 12  5  1  0  0  0  0
 12 13  2  0  0  0  0
 12 26  1  0  0  0  0
 13 14  1  0  0  0  0
 13 27  1  0  0  0  0
 14  8  2  0  0  0  0
 14 28  1  0  0  0  0
 15  8  1  0  0  0  0
 15 29  1  0  0  0  0
 15 30  1  0  0  0  0
 16 10  1  0  0  0  0
 16 31  1  0  0  0  0
 16 32  1  0  0  0  0
 16 33  1  0  0  0  0
 17 10  1  0  0  0  0
 17 34  1  0  0  0  0
 17 35  1  0  0  0  0
 17 36  1  0  0  0  0
 18 10  1  0  0  0  0
 18 37  1  0  0  0  0
 18 38  1  0  0  0  0
 18 39  1  0  0  0  0
 19 15  1  0  0  0  0
 19 40  1  0  0  0  0
 19 41  1  0  0  0  0
 19 42  1  0  0  0  0
M  END
>  <DRUGBANK_ID>
DB06726

>  <COMMON_NAME>
Bufuralol

>  <CAS_NUMBER>
54340-62-4

>  <UNII>
891H89GFT4

>  <SYNONYMS>
Bufuralol; Bufuralolum

$$$$
