FIP
 OpenBabel10282417163D

 31 32  0  0  0  0  0  0  0  0999 V2000
   -1.5967    1.3297   -0.3918 C   0  0  0  0  0  0  0  0  0  0  0  0
   -0.3888    0.6161   -0.1677 C   0  0  0  0  0  0  0  0  0  0  0  0
   -0.6748   -0.7525   -0.0984 C   0  0  0  0  0  0  0  0  0  0  0  0
    0.9323    1.0381   -0.0184 C   0  0  0  0  0  0  0  0  0  0  0  0
   -2.5732    0.3172   -0.4370 C   0  0  0  0  0  0  0  0  0  0  0  0
   -2.0229   -0.8986   -0.1648 N   0  0  0  0  0  0  0  0  0  0  0  0
    0.2885   -1.7420    0.0264 C   0  0  0  0  0  0  0  0  0  0  0  0
    1.9115    0.0580    0.0361 C   0  0  0  0  0  0  0  0  0  0  0  0
    1.6059   -1.3014    0.0441 C   0  0  0  0  0  0  0  0  0  0  0  0
    3.1928    0.4411    0.0420 F   0  0  0  0  0  0  0  0  0  0  0  0
   -1.7306    2.8983   -0.3748 C   0  0  0  0  0  0  0  0  0  0  0  0
   -2.7999    3.4195   -1.3467 C   0  0  0  0  0  0  0  0  0  0  0  0
   -4.2399    2.9053   -1.0605 C   0  0  0  0  0  0  0  0  0  0  0  0
   -4.7862    2.3125    1.5862 P   0  0  0  0  0  0  0  0  0  0  0  0
   -5.6103    1.0566    1.5891 O   0  0  0  0  0  0  0  0  0  0  0  0
   -3.2971    1.8224    1.5799 O   0  0  0  0  0  0  0  0  0  0  0  0
   -4.4118    3.0513    2.9367 O   0  0  0  0  0  0  0  0  0  0  0  0
   -4.6782    3.2699    0.2824 O   0  0  0  0  0  0  0  0  0  0  0  0
    1.1864    2.0907   -0.0128 H   0  0  0  0  0  0  0  0  0  0  0  0
   -3.6550    0.2980   -0.4296 H   0  0  0  0  0  0  0  0  0  0  0  0
   -2.5453   -1.7574   -0.0305 H   0  0  0  0  0  0  0  0  0  0  0  0
    0.0187   -2.7925    0.0518 H   0  0  0  0  0  0  0  0  0  0  0  0
    2.4079   -2.0275    0.0590 H   0  0  0  0  0  0  0  0  0  0  0  0
   -1.9740    3.3089    0.6222 H   0  0  0  0  0  0  0  0  0  0  0  0
   -0.7553    3.3752   -0.5437 H   0  0  0  0  0  0  0  0  0  0  0  0
   -2.8321    4.5173   -1.2942 H   0  0  0  0  0  0  0  0  0  0  0  0
   -2.4675    3.1626   -2.3603 H   0  0  0  0  0  0  0  0  0  0  0  0
   -4.9175    3.3295   -1.8161 H   0  0  0  0  0  0  0  0  0  0  0  0
   -4.3269    1.8381   -1.2587 H   0  0  0  0  0  0  0  0  0  0  0  0
   -3.2355    1.8703    0.6261 H   0  0  0  0  0  0  0  0  0  0  0  0
   -3.7591    2.4360    3.3628 H   0  0  0  0  0  0  0  0  0  0  0  0
  1  2  1  0  0  0  0
  1  5  2  0  0  0  0
  1 11  1  0  0  0  0
  2  3  2  0  0  0  0
  2  4  1  0  0  0  0
  3  6  1  0  0  0  0
  3  7  1  0  0  0  0
  4  8  2  0  0  0  0
  4 19  1  0  0  0  0
  5  6  1  0  0  0  0
  5 20  1  0  0  0  0
  6 21  1  0  0  0  0
  7  9  2  0  0  0  0
  7 22  1  0  0  0  0
  8  9  1  0  0  0  0
  8 10  1  0  0  0  0
  9 23  1  0  0  0  0
 11 12  1  0  0  0  0
 11 24  1  0  0  0  0
 11 25  1  0  0  0  0
 12 13  1  0  0  0  0
 12 26  1  0  0  0  0
 12 27  1  0  0  0  0
 13 18  1  0  0  0  0
 13 28  1  0  0  0  0
 13 29  1  0  0  0  0
 14 15  2  0  0  0  0
 14 16  1  0  0  0  0
 14 17  1  0  0  0  0
 14 18  1  0  0  0  0
 16 30  1  0  0  0  0
 17 31  1  0  0  0  0
M  END
>  <DRUGBANK_ID>
DB07773

>  <COMMON_NAME>
5-FLUOROINDOLE PROPANOL PHOSPHATE

$$$$
