
 OpenBabel10282417183D

 33 33  0  0  0  0  0  0  0  0999 V2000
    1.0306    0.0040   -0.1298 O   0  0  0  0  0  0  0  0  0  0  0  0
    2.8792    0.9239   -0.9260 N   0  0  0  0  0  0  0  0  0  0  0  0
    4.2340    1.1881   -1.1097 N   0  0  0  0  0  0  0  0  0  0  0  0
    3.0092   -1.0689    0.7798 C   0  0  0  0  0  0  0  0  0  0  0  0
    2.4781   -0.8989    2.2359 C   0  0  0  0  0  0  0  0  0  0  0  0
    2.5307   -2.4685    0.3726 C   0  0  0  0  0  0  0  0  0  0  0  0
    4.5579   -1.1884    0.7001 C   0  0  0  0  0  0  0  0  0  0  0  0
    2.2590   -0.0202   -0.1295 C   0  0  0  0  0  0  0  0  0  0  0  0
    4.7249    2.4606   -0.5455 C   0  0  0  0  0  0  0  0  0  0  0  0
    4.3546    2.8254    0.8800 C   0  0  0  0  0  0  0  0  0  0  0  0
    4.1088    1.8677    1.8490 C   0  0  0  0  0  0  0  0  0  0  0  0
    4.3435    4.1294    1.3448 C   0  0  0  0  0  0  0  0  0  0  0  0
    3.8798    2.0921    3.2000 C   0  0  0  0  0  0  0  0  0  0  0  0
    4.1046    4.4009    2.7088 C   0  0  0  0  0  0  0  0  0  0  0  0
    3.8504    3.3863    3.6329 C   0  0  0  0  0  0  0  0  0  0  0  0
    2.2186    1.5048   -1.4438 H   0  0  0  0  0  0  0  0  0  0  0  0
    4.8351    0.4222   -0.8400 H   0  0  0  0  0  0  0  0  0  0  0  0
    1.4236   -1.1859    2.3266 H   0  0  0  0  0  0  0  0  0  0  0  0
    3.0604   -1.4882    2.9513 H   0  0  0  0  0  0  0  0  0  0  0  0
    2.4558    0.1281    2.5832 H   0  0  0  0  0  0  0  0  0  0  0  0
    2.7794   -2.6717   -0.6713 H   0  0  0  0  0  0  0  0  0  0  0  0
    3.0252   -3.2196    1.0025 H   0  0  0  0  0  0  0  0  0  0  0  0
    1.4517   -2.5861    0.5037 H   0  0  0  0  0  0  0  0  0  0  0  0
    4.8555   -1.4845   -0.3115 H   0  0  0  0  0  0  0  0  0  0  0  0
    5.1650   -0.3099    0.9265 H   0  0  0  0  0  0  0  0  0  0  0  0
    4.9383   -1.9366    1.3997 H   0  0  0  0  0  0  0  0  0  0  0  0
    5.8219    2.3955   -0.5789 H   0  0  0  0  0  0  0  0  0  0  0  0
    4.4431    3.2647   -1.2325 H   0  0  0  0  0  0  0  0  0  0  0  0
    4.0148    0.8713    1.5305 H   0  0  0  0  0  0  0  0  0  0  0  0
    4.5080    4.9484    0.6532 H   0  0  0  0  0  0  0  0  0  0  0  0
    3.6934    1.2577    3.8729 H   0  0  0  0  0  0  0  0  0  0  0  0
    4.1245    5.4239    3.0617 H   0  0  0  0  0  0  0  0  0  0  0  0
    3.6139    3.5855    4.6714 H   0  0  0  0  0  0  0  0  0  0  0  0
  1  8  2  0  0  0  0
  2  3  1  0  0  0  0
  2  8  1  0  0  0  0
  2 16  1  0  0  0  0
  3  9  1  0  0  0  0
  3 17  1  0  0  0  0
  4  5  1  0  0  0  0
  4  6  1  0  0  0  0
  4  7  1  0  0  0  0
  4  8  1  0  0  0  0
  5 18  1  0  0  0  0
  5 19  1  0  0  0  0
  5 20  1  0  0  0  0
  6 21  1  0  0  0  0
  6 22  1  0  0  0  0
  6 23  1  0  0  0  0
  7 24  1  0  0  0  0
  7 25  1  0  0  0  0
  7 26  1  0  0  0  0
  9 10  1  0  0  0  0
  9 27  1  0  0  0  0
  9 28  1  0  0  0  0
 10 11  2  0  0  0  0
 10 12  1  0  0  0  0
 11 13  1  0  0  0  0
 11 29  1  0  0  0  0
 12 14  2  0  0  0  0
 12 30  1  0  0  0  0
 13 15  2  0  0  0  0
 13 31  1  0  0  0  0
 14 15  1  0  0  0  0
 14 32  1  0  0  0  0
 15 33  1  0  0  0  0
M  END
>  <DRUGBANK_ID>
DB09252

>  <COMMON_NAME>
Pivhydrazine

>  <CAS_NUMBER>
306-19-4

>  <UNII>
TK1T520ASG

>  <SYNONYMS>
Pivalylbenzhydrazine; Pivazide

$$$$
