PP1
 OpenBabel10282417123D

 40 42  0  0  0  0  0  0  0  0999 V2000
    1.4946    1.0641    0.0108 N   0  0  0  0  0  0  0  0  0  0  0  0
   -2.0428    0.5835   -0.0043 C   0  0  0  0  0  0  0  0  0  0  0  0
   -0.9409    1.3489    0.0013 N   0  0  0  0  0  0  0  0  0  0  0  0
    0.1880    0.6210    0.0062 C   0  0  0  0  0  0  0  0  0  0  0  0
    0.2472   -0.7621    0.0025 C   0  0  0  0  0  0  0  0  0  0  0  0
   -0.9668   -1.4600   -0.0032 C   0  0  0  0  0  0  0  0  0  0  0  0
   -2.1165   -0.7599   -0.0067 N   0  0  0  0  0  0  0  0  0  0  0  0
    2.3921    0.0360    0.0318 N   0  0  0  0  0  0  0  0  0  0  0  0
    1.6317   -1.0708   -0.0052 C   0  0  0  0  0  0  0  0  0  0  0  0
   -1.0640   -2.8340   -0.0226 N   0  0  0  0  0  0  0  0  0  0  0  0
    2.1974   -2.4143   -0.0508 C   0  0  0  0  0  0  0  0  0  0  0  0
    2.9693   -2.9047    1.0052 C   0  0  0  0  0  0  0  0  0  0  0  0
    3.4052   -4.2345    0.9942 C   0  0  0  0  0  0  0  0  0  0  0  0
    3.0640   -5.0871   -0.0645 C   0  0  0  0  0  0  0  0  0  0  0  0
    2.2763   -4.5978   -1.1106 C   0  0  0  0  0  0  0  0  0  0  0  0
    1.8621   -3.2672   -1.1126 C   0  0  0  0  0  0  0  0  0  0  0  0
    3.5395   -6.5083   -0.1094 C   0  0  0  0  0  0  0  0  0  0  0  0
    1.9950    2.4552    0.0027 C   0  0  0  0  0  0  0  0  0  0  0  0
    2.8619    2.7135    1.2525 C   0  0  0  0  0  0  0  0  0  0  0  0
    2.8583    2.7075   -1.2517 C   0  0  0  0  0  0  0  0  0  0  0  0
    0.8611    3.5015    0.0006 C   0  0  0  0  0  0  0  0  0  0  0  0
   -2.9903    1.1120   -0.0079 H   0  0  0  0  0  0  0  0  0  0  0  0
   -0.2534   -3.4111    0.1368 H   0  0  0  0  0  0  0  0  0  0  0  0
   -1.9854   -3.2362    0.0401 H   0  0  0  0  0  0  0  0  0  0  0  0
    3.2160   -2.2626    1.8480 H   0  0  0  0  0  0  0  0  0  0  0  0
    4.0101   -4.5999    1.8213 H   0  0  0  0  0  0  0  0  0  0  0  0
    1.9784   -5.2509   -1.9280 H   0  0  0  0  0  0  0  0  0  0  0  0
    1.2323   -2.9119   -1.9266 H   0  0  0  0  0  0  0  0  0  0  0  0
    2.6861   -7.1940   -0.1197 H   0  0  0  0  0  0  0  0  0  0  0  0
    4.1375   -6.6672   -1.0130 H   0  0  0  0  0  0  0  0  0  0  0  0
    4.1640   -6.7526    0.7551 H   0  0  0  0  0  0  0  0  0  0  0  0
    3.7415    2.0607    1.2815 H   0  0  0  0  0  0  0  0  0  0  0  0
    3.2267    3.7481    1.2694 H   0  0  0  0  0  0  0  0  0  0  0  0
    2.2916    2.5456    2.1726 H   0  0  0  0  0  0  0  0  0  0  0  0
    2.2857    2.5391   -2.1704 H   0  0  0  0  0  0  0  0  0  0  0  0
    3.2243    3.7421   -1.2729 H   0  0  0  0  0  0  0  0  0  0  0  0
    3.7374    2.0541   -1.2821 H   0  0  0  0  0  0  0  0  0  0  0  0
    0.2300    3.4000   -0.8901 H   0  0  0  0  0  0  0  0  0  0  0  0
    0.2296    3.4022    0.8912 H   0  0  0  0  0  0  0  0  0  0  0  0
    1.2519    4.5244   -0.0009 H   0  0  0  0  0  0  0  0  0  0  0  0
  1  4  1  0  0  0  0
  1  8  1  0  0  0  0
  1 18  1  0  0  0  0
  2  3  2  0  0  0  0
  2  7  1  0  0  0  0
  2 22  1  0  0  0  0
  3  4  1  0  0  0  0
  4  5  2  0  0  0  0
  5  6  1  0  0  0  0
  5  9  1  0  0  0  0
  6  7  2  0  0  0  0
  6 10  1  0  0  0  0
  8  9  2  0  0  0  0
  9 11  1  0  0  0  0
 10 23  1  0  0  0  0
 10 24  1  0  0  0  0
 11 12  2  0  0  0  0
 11 16  1  0  0  0  0
 12 13  1  0  0  0  0
 12 25  1  0  0  0  0
 13 14  2  0  0  0  0
 13 26  1  0  0  0  0
 14 15  1  0  0  0  0
 14 17  1  0  0  0  0
 15 16  2  0  0  0  0
 15 27  1  0  0  0  0
 16 28  1  0  0  0  0
 17 29  1  0  0  0  0
 17 30  1  0  0  0  0
 17 31  1  0  0  0  0
 18 19  1  0  0  0  0
 18 20  1  0  0  0  0
 18 21  1  0  0  0  0
 19 32  1  0  0  0  0
 19 33  1  0  0  0  0
 19 34  1  0  0  0  0
 20 35  1  0  0  0  0
 20 36  1  0  0  0  0
 20 37  1  0  0  0  0
 21 38  1  0  0  0  0
 21 39  1  0  0  0  0
 21 40  1  0  0  0  0
M  END
>  <DRUGBANK_ID>
DB01809

>  <SECONDARY_ACCESSION_NUMBERS>
EXPT02633

>  <COMMON_NAME>
1-Ter-Butyl-3-P-Tolyl-1h-Pyrazolo[3,4-D]Pyrimidin-4-Ylamine

>  <UNII>
SA2ND7EHY4

$$$$
