
 OpenBabel10282417193D

 57 58  0  0  0  0  0  0  0  0999 V2000
    1.1634    0.0055    0.0325 C   0  0  0  0  0  0  0  0  0  0  0  0
    0.4755   -0.7720   -1.0774 C   0  0  0  0  0  0  0  0  0  0  0  0
   -0.4067   -1.8753   -0.5432 C   0  0  0  0  0  0  0  0  0  0  0  0
   -1.5185   -1.3350    0.3096 C   0  0  0  0  0  0  0  0  0  0  0  0
   -2.5501   -0.4955   -0.3967 C   0  0  0  0  0  0  0  0  0  0  0  0
   -3.8952   -0.6781   -0.4341 C   0  0  0  0  0  0  0  0  0  0  0  0
    0.5897    0.6621    0.8882 O   0  0  0  0  0  0  0  0  0  0  0  0
    2.5067   -0.0939    0.0172 O   0  0  0  0  0  0  0  0  0  0  0  0
   -5.7511    1.0340   -0.3837 C   0  0  0  0  0  0  0  0  0  0  0  0
   -4.6707    0.4552   -1.0571 C   0  0  0  0  0  0  0  0  0  0  0  0
   -4.3875    0.9842   -2.3240 C   0  0  0  0  0  0  0  0  0  0  0  0
   -5.2086    1.9729   -2.8770 C   0  0  0  0  0  0  0  0  0  0  0  0
   -6.2899    2.4244   -2.1396 C   0  0  0  0  0  0  0  0  0  0  0  0
   -6.5723    1.9905   -0.8963 N   0  0  0  0  0  0  0  0  0  0  0  0
   -4.5804   -1.7924    0.3284 C   0  0  0  0  0  0  0  0  0  0  0  0
   -4.1423   -2.1838    1.5966 C   0  0  0  0  0  0  0  0  0  0  0  0
   -4.8295   -2.7869    2.6361 C   0  0  0  0  0  0  0  0  0  0  0  0
   -6.0031   -3.3799    2.2112 C   0  0  0  0  0  0  0  0  0  0  0  0
   -6.4561   -3.1862    0.8716 C   0  0  0  0  0  0  0  0  0  0  0  0
   -5.7637   -2.3756   -0.0546 C   0  0  0  0  0  0  0  0  0  0  0  0
   -4.2846   -2.8103    3.9769 N   0  0  0  0  0  0  0  0  0  0  0  0
   -3.2637   -2.0529    4.3517 C   0  0  0  0  0  0  0  0  0  0  0  0
   -2.6831   -2.2144    5.6141 N   0  0  0  0  0  0  0  0  0  0  0  0
   -1.5308   -1.5447    6.2940 C   0  0  0  0  0  0  0  0  0  0  0  0
   -2.0130   -0.6910    7.4726 C   0  0  0  0  0  0  0  0  0  0  0  0
   -0.5322   -2.6049    6.7867 C   0  0  0  0  0  0  0  0  0  0  0  0
   -0.7095   -0.6049    5.4089 C   0  0  0  0  0  0  0  0  0  0  0  0
   -2.5828   -1.1361    3.6088 N   0  0  0  0  0  0  0  0  0  0  0  0
   -3.1086    0.0210    2.9518 C   0  0  0  0  0  0  0  0  0  0  0  0
   -3.3197    0.9341    2.2659 N   0  0  0  0  0  0  0  0  0  0  0  0
   -0.1087   -0.0660   -1.6735 H   0  0  0  0  0  0  0  0  0  0  0  0
    1.2055   -1.2260   -1.7499 H   0  0  0  0  0  0  0  0  0  0  0  0
   -0.8652   -2.4627   -1.3491 H   0  0  0  0  0  0  0  0  0  0  0  0
    0.1697   -2.5802    0.0728 H   0  0  0  0  0  0  0  0  0  0  0  0
   -1.9125   -2.2628    0.6905 H   0  0  0  0  0  0  0  0  0  0  0  0
   -1.1293   -0.7815    1.1689 H   0  0  0  0  0  0  0  0  0  0  0  0
   -2.1401    0.4337   -0.8054 H   0  0  0  0  0  0  0  0  0  0  0  0
    2.8642   -0.6157   -0.7224 H   0  0  0  0  0  0  0  0  0  0  0  0
   -6.0017    0.7371    0.6321 H   0  0  0  0  0  0  0  0  0  0  0  0
   -3.5377    0.6265   -2.8975 H   0  0  0  0  0  0  0  0  0  0  0  0
   -5.0199    2.3699   -3.8686 H   0  0  0  0  0  0  0  0  0  0  0  0
   -6.9776    3.1641   -2.5413 H   0  0  0  0  0  0  0  0  0  0  0  0
   -3.1257   -2.0490    1.8385 H   0  0  0  0  0  0  0  0  0  0  0  0
   -6.5535   -4.0369    2.8772 H   0  0  0  0  0  0  0  0  0  0  0  0
   -7.3831   -3.6503    0.5481 H   0  0  0  0  0  0  0  0  0  0  0  0
   -6.1271   -2.2303   -1.0682 H   0  0  0  0  0  0  0  0  0  0  0  0
   -3.2195   -2.8405    6.2124 H   0  0  0  0  0  0  0  0  0  0  0  0
   -2.4362   -1.2911    8.2823 H   0  0  0  0  0  0  0  0  0  0  0  0
   -1.1728   -0.1192    7.8922 H   0  0  0  0  0  0  0  0  0  0  0  0
   -2.7663    0.0353    7.1486 H   0  0  0  0  0  0  0  0  0  0  0  0
   -0.2210   -3.2606    5.9648 H   0  0  0  0  0  0  0  0  0  0  0  0
    0.3761   -2.1203    7.1720 H   0  0  0  0  0  0  0  0  0  0  0  0
   -0.9385   -3.2289    7.5867 H   0  0  0  0  0  0  0  0  0  0  0  0
   -0.2243   -1.1849    4.6160 H   0  0  0  0  0  0  0  0  0  0  0  0
   -1.3493    0.1983    5.0304 H   0  0  0  0  0  0  0  0  0  0  0  0
    0.1137   -0.0969    5.9138 H   0  0  0  0  0  0  0  0  0  0  0  0
   -1.5891   -1.2051    3.5485 H   0  0  0  0  0  0  0  0  0  0  0  0
  1  2  1  0  0  0  0
  1  7  2  0  0  0  0
  1  8  1  0  0  0  0
  2  3  1  0  0  0  0
  2 31  1  0  0  0  0
  2 32  1  0  0  0  0
  3  4  1  0  0  0  0
  3 33  1  0  0  0  0
  3 34  1  0  0  0  0
  4  5  1  0  0  0  0
  4 35  1  0  0  0  0
  4 36  1  0  0  0  0
  5  6  2  0  0  0  0
  5 37  1  0  0  0  0
  6 10  1  0  0  0  0
  6 15  1  0  0  0  0
  8 38  1  0  0  0  0
  9 10  1  0  0  0  0
  9 14  2  0  0  0  0
  9 39  1  0  0  0  0
 10 11  2  0  0  0  0
 11 12  1  0  0  0  0
 11 40  1  0  0  0  0
 12 13  2  0  0  0  0
 12 41  1  0  0  0  0
 13 14  1  0  0  0  0
 13 42  1  0  0  0  0
 15 16  1  0  0  0  0
 15 20  2  0  0  0  0
 16 17  2  0  0  0  0
 16 43  1  0  0  0  0
 17 18  1  0  0  0  0
 17 21  1  0  0  0  0
 18 19  2  0  0  0  0
 18 44  1  0  0  0  0
 19 20  1  0  0  0  0
 19 45  1  0  0  0  0
 20 46  1  0  0  0  0
 21 22  2  0  0  0  0
 22 23  1  0  0  0  0
 22 28  1  0  0  0  0
 23 24  1  0  0  0  0
 23 47  1  0  0  0  0
 24 25  1  0  0  0  0
 24 26  1  0  0  0  0
 24 27  1  0  0  0  0
 25 48  1  0  0  0  0
 25 49  1  0  0  0  0
 25 50  1  0  0  0  0
 26 51  1  0  0  0  0
 26 52  1  0  0  0  0
 26 53  1  0  0  0  0
 27 54  1  0  0  0  0
 27 55  1  0  0  0  0
 27 56  1  0  0  0  0
 28 29  1  0  0  0  0
 28 57  1  0  0  0  0
 29 30  3  0  0  0  0
M  END
>  <DRUGBANK_ID>
DB12204

>  <COMMON_NAME>
Terbogrel

>  <CAS_NUMBER>
149979-74-8

>  <UNII>
5Z4KWQ5OGN

>  <SYNONYMS>
Terbogrel; Terbogrelum

$$$$
