
 OpenBabel10282417123D

 15 14  0  0  0  0  0  0  0  0999 V2000
    1.0032   -0.1297    0.0789 C   0  0  0  0  0  0  0  0  0  0  0  0
    0.5106    1.2876    0.3285 C   0  0  0  0  0  0  0  0  0  0  0  0
    0.9724    2.2530   -0.7667 C   0  0  0  0  0  0  0  0  0  0  0  0
    0.4552    1.8627   -2.1503 C   0  0  0  0  0  0  0  0  0  0  0  0
   -0.9760    1.8464   -2.1698 N   0  3  0  0  0  0  0  0  0  0  0  0
   -2.1504    1.8248   -2.1783 C   0  5  0  0  0  0  0  0  0  0  0  0
    0.6276   -0.5284   -0.8680 H   0  0  0  0  0  0  0  0  0  0  0  0
    0.6575   -0.8020    0.8676 H   0  0  0  0  0  0  0  0  0  0  0  0
    2.0969   -0.1540    0.0485 H   0  0  0  0  0  0  0  0  0  0  0  0
   -0.5832    1.2878    0.3950 H   0  0  0  0  0  0  0  0  0  0  0  0
    0.8794    1.6358    1.3001 H   0  0  0  0  0  0  0  0  0  0  0  0
    0.6280    3.2650   -0.5202 H   0  0  0  0  0  0  0  0  0  0  0  0
    2.0688    2.2857   -0.7837 H   0  0  0  0  0  0  0  0  0  0  0  0
    0.8147    2.5712   -2.9024 H   0  0  0  0  0  0  0  0  0  0  0  0
    0.8263    0.8761   -2.4468 H   0  0  0  0  0  0  0  0  0  0  0  0
  1  2  1  0  0  0  0
  1  7  1  0  0  0  0
  1  8  1  0  0  0  0
  1  9  1  0  0  0  0
  2  3  1  0  0  0  0
  2 10  1  0  0  0  0
  2 11  1  0  0  0  0
  3  4  1  0  0  0  0
  3 12  1  0  0  0  0
  3 13  1  0  0  0  0
  4  5  1  0  0  0  0
  4 14  1  0  0  0  0
  4 15  1  0  0  0  0
  5  6  3  0  0  0  0
M  CHG  2   5   1   6  -1
M  END
>  <DRUGBANK_ID>
DB01826

>  <SECONDARY_ACCESSION_NUMBERS>
EXPT02302

>  <COMMON_NAME>
N-Butyl Isocyanide

>  <CAS_NUMBER>
2769-64-4

>  <UNII>
2T7Q0CK9IF

$$$$
