
 OpenBabel10282417193D

 31 31  0  0  0  0  0  0  0  0999 V2000
    0.9871   -0.5544    0.1527 C   0  0  0  0  0  0  0  0  0  0  0  0
   -0.3386   -0.8911    0.0371 C   0  0  0  0  0  0  0  0  0  0  0  0
   -1.1456    0.1983   -0.0120 N   0  0  0  0  0  0  0  0  0  0  0  0
   -0.3086    1.2067    0.0151 C   0  0  0  0  0  0  0  0  0  0  0  0
    0.9926    0.7937    0.0544 N   0  0  0  0  0  0  0  0  0  0  0  0
   -0.8383   -2.2445   -0.1150 C   0  0  0  0  0  0  0  0  0  0  0  0
   -0.1952   -2.8443   -1.3965 C   0  0  0  0  0  0  0  0  0  0  0  0
    1.2022   -3.2562   -1.3227 N   0  0  0  0  0  0  0  0  0  0  0  0
    1.7891   -4.4904   -1.2271 C   0  0  0  0  0  0  0  0  0  0  0  0
    3.0257   -4.5061   -1.2118 O   0  0  0  0  0  0  0  0  0  0  0  0
    1.0213   -5.8318   -1.2213 C   0  0  0  0  0  0  0  0  0  0  0  0
    0.0800   -6.1752   -0.0529 C   0  0  0  0  0  0  0  0  0  0  0  0
   -1.1413   -5.2997    0.0216 C   0  0  0  0  0  0  0  0  0  0  0  0
   -2.1019   -5.2554   -1.1872 C   0  0  0  0  0  0  0  0  0  0  0  0
   -3.2807   -4.8979   -1.1255 O   0  0  0  0  0  0  0  0  0  0  0  0
   -1.5310   -5.3915   -2.4060 O   0  0  0  0  0  0  0  0  0  0  0  0
    1.8776   -1.1660    0.2100 H   0  0  0  0  0  0  0  0  0  0  0  0
   -0.5876    2.2464   -0.0078 H   0  0  0  0  0  0  0  0  0  0  0  0
    1.8170    1.3705    0.0146 H   0  0  0  0  0  0  0  0  0  0  0  0
   -0.5707   -2.7284    0.8360 H   0  0  0  0  0  0  0  0  0  0  0  0
   -1.9356   -2.2941   -0.1743 H   0  0  0  0  0  0  0  0  0  0  0  0
   -0.6572   -3.7507   -1.6391 H   0  0  0  0  0  0  0  0  0  0  0  0
   -0.4124   -2.2491   -2.2886 H   0  0  0  0  0  0  0  0  0  0  0  0
    1.8844   -2.5151   -1.4210 H   0  0  0  0  0  0  0  0  0  0  0  0
    0.5437   -5.9541   -2.1924 H   0  0  0  0  0  0  0  0  0  0  0  0
    1.7863   -6.6212   -1.2222 H   0  0  0  0  0  0  0  0  0  0  0  0
   -0.2682   -7.2087   -0.0911 H   0  0  0  0  0  0  0  0  0  0  0  0
    0.6534   -6.0524    0.8792 H   0  0  0  0  0  0  0  0  0  0  0  0
   -1.7263   -5.3635    0.9430 H   0  0  0  0  0  0  0  0  0  0  0  0
   -0.6353   -4.3799    0.2076 H   0  0  0  0  0  0  0  0  0  0  0  0
   -2.0874   -4.9522   -3.0889 H   0  0  0  0  0  0  0  0  0  0  0  0
  1  2  2  0  0  0  0
  1  5  1  0  0  0  0
  1 17  1  0  0  0  0
  2  3  1  0  0  0  0
  2  6  1  0  0  0  0
  3  4  2  0  0  0  0
  4  5  1  0  0  0  0
  4 18  1  0  0  0  0
  5 19  1  0  0  0  0
  6  7  1  0  0  0  0
  6 20  1  0  0  0  0
  6 21  1  0  0  0  0
  7  8  1  0  0  0  0
  7 22  1  0  0  0  0
  7 23  1  0  0  0  0
  8  9  1  0  0  0  0
  8 24  1  0  0  0  0
  9 10  2  0  0  0  0
  9 11  1  0  0  0  0
 11 12  1  0  0  0  0
 11 25  1  0  0  0  0
 11 26  1  0  0  0  0
 12 13  1  0  0  0  0
 12 27  1  0  0  0  0
 12 28  1  0  0  0  0
 13 14  1  0  0  0  0
 13 29  1  0  0  0  0
 13 30  1  0  0  0  0
 14 15  2  0  0  0  0
 14 16  1  0  0  0  0
 16 31  1  0  0  0  0
M  END
>  <DRUGBANK_ID>
DB11944

>  <COMMON_NAME>
Ingavirin

>  <CAS_NUMBER>
219694-63-0

>  <UNII>
3CM03MUJ69

>  <SYNONYMS>
IMIDAZOLYL ETHANAMIDE PENTANDIOIC ACID

$$$$
