
 OpenBabel10282417213D

 15 14  0  0  0  0  0  0  0  0999 V2000
    1.1459   -0.0264    0.0136 C   0  0  0  0  0  0  0  0  0  0  0  0
    0.5275    0.7951   -0.8524 C   0  0  0  0  0  0  0  0  0  0  0  0
    1.1914    1.7069   -1.8136 C   0  0  0  0  0  0  0  0  0  0  0  0
    0.3253   -0.8728    0.9057 C   0  0  0  0  0  0  0  0  0  0  0  0
    1.0515   -1.6536    1.7288 O   0  0  0  0  0  0  0  0  0  0  0  0
   -0.8963   -0.8766    0.9097 O   0  0  0  0  0  0  0  0  0  0  0  0
    0.5517    2.4240   -2.5696 O   0  0  0  0  0  0  0  0  0  0  0  0
    2.5445    1.6409   -1.7440 O   0  0  0  0  0  0  0  0  0  0  0  0
    3.2286    2.5100   -2.6603 C   0  0  0  0  0  0  0  0  0  0  0  0
    2.2224   -0.0849    0.0752 H   0  0  0  0  0  0  0  0  0  0  0  0
   -0.5590    0.8413   -0.9011 H   0  0  0  0  0  0  0  0  0  0  0  0
    2.0219   -1.5990    1.6712 H   0  0  0  0  0  0  0  0  0  0  0  0
    2.9894    2.2542   -3.6982 H   0  0  0  0  0  0  0  0  0  0  0  0
    2.9894    3.5601   -2.4594 H   0  0  0  0  0  0  0  0  0  0  0  0
    4.3053    2.3744   -2.5173 H   0  0  0  0  0  0  0  0  0  0  0  0
  1  2  2  0  0  0  0
  1  4  1  0  0  0  0
  1 10  1  0  0  0  0
  2  3  1  0  0  0  0
  2 11  1  0  0  0  0
  3  7  2  0  0  0  0
  3  8  1  0  0  0  0
  4  5  1  0  0  0  0
  4  6  2  0  0  0  0
  5 12  1  0  0  0  0
  8  9  1  0  0  0  0
  9 13  1  0  0  0  0
  9 14  1  0  0  0  0
  9 15  1  0  0  0  0
M  END
>  <DRUGBANK_ID>
DB14219

>  <COMMON_NAME>
Monomethyl fumarate

>  <CAS_NUMBER>
2756-87-8

>  <UNII>
45IUB1PX8R

>  <SYNONYMS>
Fumaric acid monomethyl ester; Methyl hydrogen fumarate; MMF; Monomethyl fumarate

$$$$
