QPP
 OpenBabel10282417173D

 38 41  0  0  0  0  0  0  0  0999 V2000
    0.9889   -0.1543   -1.1657 C   0  0  0  0  0  0  0  0  0  0  0  0
    0.2365   -1.2166   -0.6097 C   0  0  0  0  0  0  0  0  0  0  0  0
   -1.0693   -1.0135   -0.1891 C   0  0  0  0  0  0  0  0  0  0  0  0
   -1.5677    0.2829   -0.1916 C   0  0  0  0  0  0  0  0  0  0  0  0
   -0.7461    1.3687   -0.5908 C   0  0  0  0  0  0  0  0  0  0  0  0
    0.5428    1.1867   -1.1735 C   0  0  0  0  0  0  0  0  0  0  0  0
    1.5310    2.3281   -1.4495 C   0  0  0  0  0  0  0  0  0  0  0  0
    1.1003    3.5635   -1.1759 N   0  0  0  0  0  0  0  0  0  0  0  0
    2.8757    2.0158   -1.4292 N   0  0  0  0  0  0  0  0  0  0  0  0
    3.7938    3.0111   -1.1587 C   0  0  0  0  0  0  0  0  0  0  0  0
    5.1956    2.8167   -1.0839 C   0  0  0  0  0  0  0  0  0  0  0  0
    6.1146    3.8774   -1.1620 C   0  0  0  0  0  0  0  0  0  0  0  0
    5.6287    5.1604   -1.3077 C   0  0  0  0  0  0  0  0  0  0  0  0
    4.2553    5.3762   -1.1084 C   0  0  0  0  0  0  0  0  0  0  0  0
    3.3587    4.2659   -0.8510 C   0  0  0  0  0  0  0  0  0  0  0  0
    1.9949    4.2344   -0.4335 C   0  0  0  0  0  0  0  0  0  0  0  0
    1.7563    3.8264    1.0041 N   0  0  0  0  0  0  0  0  0  0  0  0
    2.1314    2.5575    1.4538 C   0  0  0  0  0  0  0  0  0  0  0  0
    3.4626    2.1173    1.6910 C   0  0  0  0  0  0  0  0  0  0  0  0
    3.4395    0.7415    1.5309 C   0  0  0  0  0  0  0  0  0  0  0  0
    4.4321   -0.3453    1.3597 C   0  0  0  0  0  0  0  0  0  0  0  0
    2.1166    0.4384    1.4600 N   0  0  0  0  0  0  0  0  0  0  0  0
    1.3052    1.5092    1.5580 N   0  0  0  0  0  0  0  0  0  0  0  0
    2.0313   -0.3509   -1.4083 H   0  0  0  0  0  0  0  0  0  0  0  0
    0.7050   -2.1819   -0.4229 H   0  0  0  0  0  0  0  0  0  0  0  0
   -1.6639   -1.8424    0.1944 H   0  0  0  0  0  0  0  0  0  0  0  0
   -2.5705    0.4601    0.1951 H   0  0  0  0  0  0  0  0  0  0  0  0
   -1.0731    2.3578   -0.2627 H   0  0  0  0  0  0  0  0  0  0  0  0
    5.5777    1.8106   -0.9624 H   0  0  0  0  0  0  0  0  0  0  0  0
    7.1862    3.6750   -1.2005 H   0  0  0  0  0  0  0  0  0  0  0  0
    6.3074    5.9766   -1.5613 H   0  0  0  0  0  0  0  0  0  0  0  0
    3.8675    6.3817   -1.2467 H   0  0  0  0  0  0  0  0  0  0  0  0
    0.7294    3.7916    0.9283 H   0  0  0  0  0  0  0  0  0  0  0  0
    4.3235    2.7598    1.7445 H   0  0  0  0  0  0  0  0  0  0  0  0
    4.1486   -1.1946    1.9927 H   0  0  0  0  0  0  0  0  0  0  0  0
    4.4493   -0.7249    0.3274 H   0  0  0  0  0  0  0  0  0  0  0  0
    5.4398   -0.0260    1.6271 H   0  0  0  0  0  0  0  0  0  0  0  0
    1.7328   -0.4736    1.2257 H   0  0  0  0  0  0  0  0  0  0  0  0
  1  2  1  0  0  0  0
  1  6  2  0  0  0  0
  1 24  1  0  0  0  0
  2  3  2  0  0  0  0
  2 25  1  0  0  0  0
  3  4  1  0  0  0  0
  3 26  1  0  0  0  0
  4  5  2  0  0  0  0
  4 27  1  0  0  0  0
  5  6  1  0  0  0  0
  5 28  1  0  0  0  0
  6  7  1  0  0  0  0
  7  8  2  0  0  0  0
  7  9  1  0  0  0  0
  8 16  1  0  0  0  0
  9 10  2  0  0  0  0
 10 11  1  0  0  0  0
 10 15  1  0  0  0  0
 11 12  2  0  0  0  0
 11 29  1  0  0  0  0
 12 13  1  0  0  0  0
 12 30  1  0  0  0  0
 13 14  2  0  0  0  0
 13 31  1  0  0  0  0
 14 15  1  0  0  0  0
 14 32  1  0  0  0  0
 15 16  2  0  0  0  0
 16 17  1  0  0  0  0
 17 18  1  0  0  0  0
 17 33  1  0  0  0  0
 18 19  1  0  0  0  0
 18 23  2  0  0  0  0
 19 20  2  0  0  0  0
 19 34  1  0  0  0  0
 20 21  1  0  0  0  0
 20 22  1  0  0  0  0
 21 35  1  0  0  0  0
 21 36  1  0  0  0  0
 21 37  1  0  0  0  0
 22 23  1  0  0  0  0
 22 38  1  0  0  0  0
M  END
>  <DRUGBANK_ID>
DB08454

>  <COMMON_NAME>
N-(5-METHYL-1H-PYRAZOL-3-YL)-2-PHENYLQUINAZOLIN-4-AMINE

$$$$
