A17
 OpenBabel10282417163D

 53 57  0  0  0  0  0  0  0  0999 V2000
    0.0652   -0.7020    0.0023 C   0  0  0  0  0  0  0  0  0  0  0  0
    0.0691    0.7003    0.0415 C   0  0  0  0  0  0  0  0  0  0  0  0
    1.3090    1.3750    0.0620 C   0  0  0  0  0  0  0  0  0  0  0  0
    2.5020    0.6767    0.0086 C   0  0  0  0  0  0  0  0  0  0  0  0
   -1.1642   -1.3477   -0.0026 C   0  0  0  0  0  0  0  0  0  0  0  0
    4.1674   -2.3154   -0.9527 C   0  0  0  0  0  0  0  0  0  0  0  0
    5.3914   -2.9894   -0.8909 C   0  0  0  0  0  0  0  0  0  0  0  0
    4.5958   -1.2606    1.2201 C   0  0  0  0  0  0  0  0  0  0  0  0
    5.0112   -4.1008   -2.9511 O   0  0  0  0  0  0  0  0  0  0  0  0
    5.8017   -1.9236    1.2761 C   0  0  0  0  0  0  0  0  0  0  0  0
    2.5021   -0.7199   -0.0081 C   0  0  0  0  0  0  0  0  0  0  0  0
    1.2802   -1.4035   -0.0319 C   0  0  0  0  0  0  0  0  0  0  0  0
   -2.3414   -0.6921    0.0296 N   0  0  0  0  0  0  0  0  0  0  0  0
   -2.3460    0.6711    0.0298 N   0  0  0  0  0  0  0  0  0  0  0  0
   -1.1752    1.3545    0.0126 C   0  0  0  0  0  0  0  0  0  0  0  0
    3.7674   -1.4409    0.0871 C   0  0  0  0  0  0  0  0  0  0  0  0
    6.1796   -2.7465    0.2333 C   0  0  0  0  0  0  0  0  0  0  0  0
    4.2436   -0.3894    2.3928 C   0  0  0  0  0  0  0  0  0  0  0  0
    5.7887   -3.9190   -2.0068 C   0  0  0  0  0  0  0  0  0  0  0  0
    7.9547   -4.6801   -0.9554 C   0  0  0  0  0  0  0  0  0  0  0  0
    9.0759   -3.6513   -0.9048 C   0  0  0  0  0  0  0  0  0  0  0  0
    9.3787   -5.1037   -1.0849 C   0  0  0  0  0  0  0  0  0  0  0  0
   -1.2915    2.8149   -0.1255 C   0  0  0  0  0  0  0  0  0  0  0  0
   -1.8827    3.5582    0.9120 C   0  0  0  0  0  0  0  0  0  0  0  0
   -1.9173    4.9519    0.8673 C   0  0  0  0  0  0  0  0  0  0  0  0
   -1.3716    5.6259   -0.2209 C   0  0  0  0  0  0  0  0  0  0  0  0
   -0.7981    4.9097   -1.2706 C   0  0  0  0  0  0  0  0  0  0  0  0
   -0.7602    3.5064   -1.2450 C   0  0  0  0  0  0  0  0  0  0  0  0
   -0.1034    2.7982   -2.4073 C   0  0  0  0  0  0  0  0  0  0  0  0
    7.0011   -4.5956   -2.0094 N   0  0  0  0  0  0  0  0  0  0  0  0
    1.3637    2.4611    0.0968 H   0  0  0  0  0  0  0  0  0  0  0  0
    3.4372    1.2341    0.0179 H   0  0  0  0  0  0  0  0  0  0  0  0
   -1.2446   -2.4290   -0.0308 H   0  0  0  0  0  0  0  0  0  0  0  0
    3.5188   -2.4511   -1.8198 H   0  0  0  0  0  0  0  0  0  0  0  0
    6.4754   -1.8186    2.1222 H   0  0  0  0  0  0  0  0  0  0  0  0
    1.2812   -2.4921   -0.0542 H   0  0  0  0  0  0  0  0  0  0  0  0
    7.1439   -3.1692    0.3963 H   0  0  0  0  0  0  0  0  0  0  0  0
    4.1571    0.6560    2.0911 H   0  0  0  0  0  0  0  0  0  0  0  0
    3.3172   -0.7370    2.8561 H   0  0  0  0  0  0  0  0  0  0  0  0
    5.0291   -0.4196    3.1568 H   0  0  0  0  0  0  0  0  0  0  0  0
    7.5025   -5.0644   -0.0415 H   0  0  0  0  0  0  0  0  0  0  0  0
    9.2121   -2.9827   -1.7490 H   0  0  0  0  0  0  0  0  0  0  0  0
    9.3047   -3.1780    0.0460 H   0  0  0  0  0  0  0  0  0  0  0  0
    9.8148   -5.6086   -0.2276 H   0  0  0  0  0  0  0  0  0  0  0  0
    9.7141   -5.4639   -2.0438 H   0  0  0  0  0  0  0  0  0  0  0  0
   -2.3025    3.0438    1.7756 H   0  0  0  0  0  0  0  0  0  0  0  0
   -2.3630    5.5094    1.6869 H   0  0  0  0  0  0  0  0  0  0  0  0
   -1.3947    6.7120   -0.2547 H   0  0  0  0  0  0  0  0  0  0  0  0
   -0.3692    5.4510   -2.1116 H   0  0  0  0  0  0  0  0  0  0  0  0
   -0.5917    3.0652   -3.3468 H   0  0  0  0  0  0  0  0  0  0  0  0
    0.9583    3.0667   -2.4534 H   0  0  0  0  0  0  0  0  0  0  0  0
   -0.1601    1.7093   -2.3400 H   0  0  0  0  0  0  0  0  0  0  0  0
    7.0986   -5.2344   -2.7920 H   0  0  0  0  0  0  0  0  0  0  0  0
  1  2  2  0  0  0  0
  1  5  1  0  0  0  0
  1 12  1  0  0  0  0
  2  3  1  0  0  0  0
  2 15  1  0  0  0  0
  3  4  2  0  0  0  0
  3 31  1  0  0  0  0
  4 11  1  0  0  0  0
  4 32  1  0  0  0  0
  5 13  2  0  0  0  0
  5 33  1  0  0  0  0
  6  7  2  0  0  0  0
  6 16  1  0  0  0  0
  6 34  1  0  0  0  0
  7 17  1  0  0  0  0
  7 19  1  0  0  0  0
  8 10  1  0  0  0  0
  8 16  2  0  0  0  0
  8 18  1  0  0  0  0
  9 19  2  0  0  0  0
 10 17  2  0  0  0  0
 10 35  1  0  0  0  0
 11 12  2  0  0  0  0
 11 16  1  0  0  0  0
 12 36  1  0  0  0  0
 13 14  1  0  0  0  0
 14 15  2  0  0  0  0
 15 23  1  0  0  0  0
 17 37  1  0  0  0  0
 18 38  1  0  0  0  0
 18 39  1  0  0  0  0
 18 40  1  0  0  0  0
 19 30  1  0  0  0  0
 20 21  1  0  0  0  0
 20 22  1  0  0  0  0
 20 30  1  0  0  0  0
 20 41  1  0  0  0  0
 21 22  1  0  0  0  0
 21 42  1  0  0  0  0
 21 43  1  0  0  0  0
 22 44  1  0  0  0  0
 22 45  1  0  0  0  0
 23 24  2  0  0  0  0
 23 28  1  0  0  0  0
 24 25  1  0  0  0  0
 24 46  1  0  0  0  0
 25 26  2  0  0  0  0
 25 47  1  0  0  0  0
 26 27  1  0  0  0  0
 26 48  1  0  0  0  0
 27 28  2  0  0  0  0
 27 49  1  0  0  0  0
 28 29  1  0  0  0  0
 29 50  1  0  0  0  0
 29 51  1  0  0  0  0
 29 52  1  0  0  0  0
 30 53  1  0  0  0  0
M  END
>  <DRUGBANK_ID>
DB07307

>  <COMMON_NAME>
N-cyclopropyl-4-methyl-3-[1-(2-methylphenyl)phthalazin-6-yl]benzamide

$$$$
