
 OpenBabel10282417143D

 17 16  0  0  0  0  0  0  0  0999 V2000
    0.8060   -0.0583   -0.1275 O   0  0  0  0  0  0  0  0  0  0  0  0
    0.3157   -0.8486    0.8355 C   0  0  0  0  0  0  0  0  0  0  0  0
    1.1180   -1.4297    1.5539 O   0  0  0  0  0  0  0  0  0  0  0  0
   -1.1756   -0.8530    0.9147 C   0  0  0  0  0  0  0  0  0  0  0  0
   -1.9373    0.0071   -0.1370 C   0  0  0  0  0  0  0  0  0  0  0  0
   -2.9894   -1.0845   -1.1619 P   0  0  0  0  0  0  0  0  0  0  0  0
   -4.1701   -0.8033   -0.0720 O   0  0  0  0  0  0  0  0  0  0  0  0
   -3.2920    0.2207   -2.1246 O   0  0  0  0  0  0  0  0  0  0  0  0
   -3.8796   -2.0081   -2.0291 O   0  0  0  0  0  0  0  0  0  0  0  0
   -1.7251   -1.5540    1.9410 C   0  0  0  0  0  0  0  0  0  0  0  0
   -0.8742   -2.6183    3.0330 Cl  0  0  0  0  0  0  0  0  0  0  0  0
   -3.4055   -1.5235    2.3805 Cl  0  0  0  0  0  0  0  0  0  0  0  0
    1.7800   -0.1297    0.0127 H   0  0  0  0  0  0  0  0  0  0  0  0
   -2.5129    0.7872    0.3771 H   0  0  0  0  0  0  0  0  0  0  0  0
   -1.2325    0.5277   -0.7899 H   0  0  0  0  0  0  0  0  0  0  0  0
   -4.4964   -1.6613    0.2714 H   0  0  0  0  0  0  0  0  0  0  0  0
   -2.7374    1.0169   -2.0706 H   0  0  0  0  0  0  0  0  0  0  0  0
  1  2  1  0  0  0  0
  1 13  1  0  0  0  0
  2  3  2  0  0  0  0
  2  4  1  0  0  0  0
  4  5  1  0  0  0  0
  4 10  2  0  0  0  0
  5  6  1  0  0  0  0
  5 14  1  0  0  0  0
  5 15  1  0  0  0  0
  6  7  1  0  0  0  0
  6  8  1  0  0  0  0
  6  9  2  0  0  0  0
  7 16  1  0  0  0  0
  8 17  1  0  0  0  0
 10 11  1  0  0  0  0
 10 12  1  0  0  0  0
M  END
>  <DRUGBANK_ID>
DB04317

>  <SECONDARY_ACCESSION_NUMBERS>
EXPT01136

>  <COMMON_NAME>
3,3-Dichloro-2-Phosphonomethyl-Acrylic Acid

$$$$
