
 OpenBabel10282417113D

  2  0  0  0  0  0  0  0  0  0999 V2000
    0.4945    0.2607    1.2852 K   0  3  0  0  0  0  0  0  0  0  0  0
    1.5315   -0.4445   -1.2228 Cl  0  5  0  0  0  0  0  0  0  0  0  0
M  CHG  2   1   1   2  -1
M  END
>  <DRUGBANK_ID>
DB00761

>  <SECONDARY_ACCESSION_NUMBERS>
APRD01322

>  <COMMON_NAME>
Potassium chloride

>  <CAS_NUMBER>
7447-40-7

>  <UNII>
660YQ98I10

>  <SYNONYMS>
Chlorid draselny; Chloride of potash; Kaliumchlorid; KCl; Monopotassium chloride; Muriate of potash; Potassium chloride; Sylvite

$$$$
