
 OpenBabel10282417123D

 21 21  0  0  0  0  0  0  0  0999 V2000
    1.0780    0.0996   -0.0294 N   0  0  0  0  0  0  0  0  0  0  0  0
    0.5496    1.1853    0.8385 C   0  0  3  0  0  0  0  0  0  0  0  0
    1.1709    2.5303    0.3642 C   0  0  0  0  0  0  0  0  0  0  0  0
    0.6223    3.5324   -0.0690 O   0  0  0  0  0  0  0  0  0  0  0  0
    2.5224    2.5399    0.4299 O   0  0  0  0  0  0  0  0  0  0  0  0
   -0.9791    1.1507    0.8814 C   0  0  0  0  0  0  0  0  0  0  0  0
   -1.7529    2.3214    0.9583 C   0  0  0  0  0  0  0  0  0  0  0  0
   -3.1468    2.2852    0.9147 C   0  0  0  0  0  0  0  0  0  0  0  0
   -3.7940    1.0615    0.8688 C   0  0  0  0  0  0  0  0  0  0  0  0
   -5.1531    0.9838    0.8198 O   0  0  0  0  0  0  0  0  0  0  0  0
   -3.0673   -0.1204    0.8815 C   0  0  0  0  0  0  0  0  0  0  0  0
   -1.6688   -0.0778    0.8916 C   0  0  0  0  0  0  0  0  0  0  0  0
    0.7562    0.2763   -0.9816 H   0  0  0  0  0  0  0  0  0  0  0  0
    2.0957    0.1774   -0.0525 H   0  0  0  0  0  0  0  0  0  0  0  0
    0.9049    1.0099    1.8625 H   0  0  0  0  0  0  0  0  0  0  0  0
    2.7263    3.4468    0.1094 H   0  0  0  0  0  0  0  0  0  0  0  0
   -1.2965    3.3037    1.0335 H   0  0  0  0  0  0  0  0  0  0  0  0
   -3.6916    3.2236    0.9135 H   0  0  0  0  0  0  0  0  0  0  0  0
   -5.5092    1.8872    0.7918 H   0  0  0  0  0  0  0  0  0  0  0  0
   -3.5859   -1.0743    0.8712 H   0  0  0  0  0  0  0  0  0  0  0  0
   -1.1192   -1.0186    0.8917 H   0  0  0  0  0  0  0  0  0  0  0  0
  1  2  1  0  0  0  0
  1 13  1  0  0  0  0
  1 14  1  0  0  0  0
  2  3  1  0  0  0  0
  2  6  1  0  0  0  0
  2 15  1  0  0  0  0
  3  4  2  0  0  0  0
  3  5  1  0  0  0  0
  5 16  1  0  0  0  0
  6  7  2  0  0  0  0
  6 12  1  0  0  0  0
  7  8  1  0  0  0  0
  7 17  1  0  0  0  0
  8  9  2  0  0  0  0
  8 18  1  0  0  0  0
  9 10  1  0  0  0  0
  9 11  1  0  0  0  0
 10 19  1  0  0  0  0
 11 12  2  0  0  0  0
 11 20  1  0  0  0  0
 12 21  1  0  0  0  0
M  END
>  <DRUGBANK_ID>
DB02601

>  <SECONDARY_ACCESSION_NUMBERS>
EXPT01591

>  <COMMON_NAME>
4-Hydroxyphenylglycine

>  <CAS_NUMBER>
37784-25-1

>  <UNII>
7UYG7X0F53

>  <SYNONYMS>
(+/-)-alpha-amino-4-hydroxybenzeneacetic acid; (RS)-2-(4-hydroxyphenyl)glycine; dl-p-hydroxyphenylglycine; p-hydroxyphenylglycine

$$$$
