
 OpenBabel10282417133D

 33 34  0  0  0  0  0  0  0  0999 V2000
   -4.9469    1.8611   -0.9575 C   0  0  0  0  0  0  0  0  0  0  0  0
   -3.8970    0.3071   -2.4747 C   0  0  0  0  0  0  0  0  0  0  0  0
   -5.5934    2.4881   -2.0297 C   0  0  0  0  0  0  0  0  0  0  0  0
   -4.5445    0.9310   -3.5472 C   0  0  0  0  0  0  0  0  0  0  0  0
   -3.4418    0.0850   -0.0344 C   0  0  0  0  0  0  0  0  0  0  0  0
   -7.1865   -1.3696    2.6308 C   0  0  0  0  0  0  0  0  0  0  0  0
   -4.6437   -2.3978    4.0361 C   0  0  0  0  0  0  0  0  0  0  0  0
   -4.0966    0.7630   -1.1671 C   0  0  0  0  0  0  0  0  0  0  0  0
   -5.3812    2.0180   -3.3202 C   0  0  0  0  0  0  0  0  0  0  0  0
   -4.1433   -0.4766    0.9600 C   0  0  0  0  0  0  0  0  0  0  0  0
   -5.7638   -1.1542    2.1456 C   0  0  0  0  0  0  0  0  0  0  0  0
   -5.2370   -1.6335    5.2119 C   0  0  0  0  0  0  0  0  0  0  0  0
   -3.5649   -1.1717    2.1491 C   0  0  0  0  0  0  0  0  0  0  0  0
   -7.8144   -0.0783    2.9008 N   0  0  0  0  0  0  0  0  0  0  0  0
   -5.5137   -0.5226    1.0403 N   0  0  0  0  0  0  0  0  0  0  0  0
   -4.6791   -1.5715    2.8383 N   0  0  0  0  0  0  0  0  0  0  0  0
   -5.9753    2.5918   -4.4061 O   0  0  0  0  0  0  0  0  0  0  0  0
   -6.2941   -2.2395    5.8090 O   0  0  0  0  0  0  0  0  0  0  0  0
   -4.8671   -0.5227    5.5623 O   0  0  0  0  0  0  0  0  0  0  0  0
   -2.3891   -1.3707    2.4000 O   0  0  0  0  0  0  0  0  0  0  0  0
   -2.3564    0.0522   -0.0435 H   0  0  0  0  0  0  0  0  0  0  0  0
   -5.1294    2.2194    0.0540 H   0  0  0  0  0  0  0  0  0  0  0  0
   -3.2580   -0.5493   -2.6717 H   0  0  0  0  0  0  0  0  0  0  0  0
   -6.2585    3.3221   -1.8297 H   0  0  0  0  0  0  0  0  0  0  0  0
   -4.4036    0.5649   -4.5599 H   0  0  0  0  0  0  0  0  0  0  0  0
   -7.7406   -1.9030    1.8544 H   0  0  0  0  0  0  0  0  0  0  0  0
   -7.2188   -1.9791    3.5301 H   0  0  0  0  0  0  0  0  0  0  0  0
   -5.1960   -3.3233    3.8433 H   0  0  0  0  0  0  0  0  0  0  0  0
   -3.6121   -2.6614    4.2947 H   0  0  0  0  0  0  0  0  0  0  0  0
   -8.7556   -0.2070    3.2634 H   0  0  0  0  0  0  0  0  0  0  0  0
   -7.2895    0.4448    3.6027 H   0  0  0  0  0  0  0  0  0  0  0  0
   -6.5091    3.3479   -4.1125 H   0  0  0  0  0  0  0  0  0  0  0  0
   -6.5988   -3.0941    5.4485 H   0  0  0  0  0  0  0  0  0  0  0  0
  1 22  1  0  0  0  0
  2 23  1  0  0  0  0
  3  1  1  0  0  0  0
  3 24  1  0  0  0  0
  4  2  2  0  0  0  0
  4 25  1  0  0  0  0
  6 26  1  0  0  0  0
  6 27  1  0  0  0  0
  7 28  1  0  0  0  0
  7 29  1  0  0  0  0
  8  1  2  0  0  0  0
  8  2  1  0  0  0  0
  8  5  1  0  0  0  0
  9  3  2  0  0  0  0
  9  4  1  0  0  0  0
 10  5  2  0  0  0  0
 11  6  1  0  0  0  0
 12  7  1  0  0  0  0
 13 10  1  0  0  0  0
 14  6  1  0  0  0  0
 14 30  1  0  0  0  0
 14 31  1  0  0  0  0
 15 10  1  0  0  0  0
 15 11  2  0  0  0  0
 16  7  1  0  0  0  0
 16 11  1  0  0  0  0
 16 13  1  0  0  0  0
 17  9  1  0  0  0  0
 17 32  1  0  0  0  0
 18 12  1  0  0  0  0
 18 33  1  0  0  0  0
 19 12  2  0  0  0  0
 20 13  2  0  0  0  0
 21  5  1  0  0  0  0
M  END
>  <DRUGBANK_ID>
DB03998

>  <SECONDARY_ACCESSION_NUMBERS>
EXPT01011

>  <COMMON_NAME>
[2-(Methyleneamine)-4-(4-Hydroxy-Benzylidine)-5-Oxo-4,5-Dihydro-Imidazol-1-Yl]-Acetaldehyde

$$$$
