
 OpenBabel10282417193D

 60 64  0  0  1  0  0  0  0  0999 V2000
   -4.6645   -7.1965    1.0153 C   0  0  0  0  0  0  0  0  0  0  0  0
   -4.8794   -5.9026    1.4637 C   0  0  0  0  0  0  0  0  0  0  0  0
   -4.1421   -4.8946    0.8664 C   0  0  0  0  0  0  0  0  0  0  0  0
   -3.1277   -5.0890   -0.0726 C   0  0  0  0  0  0  0  0  0  0  0  0
   -2.9942   -6.3752   -0.6032 C   0  0  0  0  0  0  0  0  0  0  0  0
   -3.7659   -7.4226   -0.0416 C   0  0  0  0  0  0  0  0  0  0  0  0
   -2.3453   -6.7408   -1.7572 O   0  0  0  0  0  0  0  0  0  0  0  0
   -1.7714   -5.7246   -2.5882 C   0  0  0  0  0  0  0  0  0  0  0  0
   -2.7457   -4.7857   -3.2888 C   0  0  0  0  0  0  0  0  0  0  0  0
   -2.3663   -3.9783   -4.3566 C   0  0  0  0  0  0  0  0  0  0  0  0
   -3.2681   -3.0162   -4.8650 C   0  0  0  0  0  0  0  0  0  0  0  0
   -4.4476   -2.6916   -4.1739 C   0  0  0  0  0  0  0  0  0  0  0  0
   -4.6018   -3.2533   -2.9289 C   0  0  0  0  0  0  0  0  0  0  0  0
   -3.9761   -4.4825   -2.7192 C   0  0  0  0  0  0  0  0  0  0  0  0
   -5.6563   -2.0173   -4.8148 C   0  0  0  0  0  0  0  0  0  0  0  0
   -6.8421   -2.8522   -5.2121 N   0  0  0  0  0  0  0  0  0  0  0  0
   -7.5991   -3.5249   -4.1213 C   0  0  0  0  0  0  0  0  0  0  0  0
   -6.9440   -4.8443   -3.6988 C   0  0  0  0  0  0  0  0  0  0  0  0
   -6.5934   -5.7690   -4.7296 O   0  0  0  0  0  0  0  0  0  0  0  0
   -5.7816   -5.0945   -5.7204 C   0  0  0  0  0  0  0  0  0  0  0  0
   -6.5433   -3.8726   -6.2457 C   0  0  0  0  0  0  0  0  0  0  0  0
   -2.5608   -3.7317   -0.4279 C   0  0  0  0  0  0  0  0  0  0  0  0
   -3.4164   -2.8032    0.2625 N   0  0  0  0  0  0  0  0  0  0  0  0
   -4.4339   -3.4614    0.9539 C   0  0  0  0  0  0  0  0  0  0  0  0
   -5.4203   -3.0265    1.4806 O   0  0  0  0  0  0  0  0  0  0  0  0
   -3.2988   -1.3530    0.0728 C   0  0  1  0  0  0  0  0  0  0  0  0
   -3.7073   -0.7365   -1.2808 C   0  0  0  0  0  0  0  0  0  0  0  0
   -3.8196    0.7768   -1.1468 C   0  0  0  0  0  0  0  0  0  0  0  0
   -4.8641    1.1110   -0.1088 C   0  0  0  0  0  0  0  0  0  0  0  0
   -5.5421    2.1315   -0.1607 O   0  0  0  0  0  0  0  0  0  0  0  0
   -4.9287    0.2611    0.9622 N   0  0  0  0  0  0  0  0  0  0  0  0
   -4.0065   -0.7017    1.2614 C   0  0  0  0  0  0  0  0  0  0  0  0
   -3.7758   -1.0167    2.4279 O   0  0  0  0  0  0  0  0  0  0  0  0
   -5.2351   -8.0179    1.4431 H   0  0  0  0  0  0  0  0  0  0  0  0
   -5.6116   -5.6708    2.2306 H   0  0  0  0  0  0  0  0  0  0  0  0
   -3.7129   -8.4261   -0.4663 H   0  0  0  0  0  0  0  0  0  0  0  0
   -1.0663   -5.1470   -1.9772 H   0  0  0  0  0  0  0  0  0  0  0  0
   -1.1563   -6.2262   -3.3415 H   0  0  0  0  0  0  0  0  0  0  0  0
   -1.4166   -4.1533   -4.8515 H   0  0  0  0  0  0  0  0  0  0  0  0
   -3.0933   -2.6146   -5.8570 H   0  0  0  0  0  0  0  0  0  0  0  0
   -5.4601   -3.0208   -2.2901 H   0  0  0  0  0  0  0  0  0  0  0  0
   -4.4711   -5.1287   -1.9991 H   0  0  0  0  0  0  0  0  0  0  0  0
   -5.9962   -1.2172   -4.1433 H   0  0  0  0  0  0  0  0  0  0  0  0
   -5.3012   -1.5076   -5.7171 H   0  0  0  0  0  0  0  0  0  0  0  0
   -8.6165   -3.7673   -4.4520 H   0  0  0  0  0  0  0  0  0  0  0  0
   -7.7121   -2.8377   -3.2710 H   0  0  0  0  0  0  0  0  0  0  0  0
   -5.9953   -4.5391   -3.4384 H   0  0  0  0  0  0  0  0  0  0  0  0
   -7.2417   -5.2699   -2.7333 H   0  0  0  0  0  0  0  0  0  0  0  0
   -5.5171   -5.8013   -6.5083 H   0  0  0  0  0  0  0  0  0  0  0  0
   -4.8139   -4.8128   -5.3207 H   0  0  0  0  0  0  0  0  0  0  0  0
   -7.5022   -4.2596   -6.6158 H   0  0  0  0  0  0  0  0  0  0  0  0
   -6.0368   -3.4073   -7.0937 H   0  0  0  0  0  0  0  0  0  0  0  0
   -2.6302   -3.3732   -1.4414 H   0  0  0  0  0  0  0  0  0  0  0  0
   -1.5076   -3.6251   -0.1864 H   0  0  0  0  0  0  0  0  0  0  0  0
   -2.2316   -1.1335    0.1925 H   0  0  0  0  0  0  0  0  0  0  0  0
   -4.6745   -1.1031   -1.6296 H   0  0  0  0  0  0  0  0  0  0  0  0
   -2.9617   -0.9640   -2.0564 H   0  0  0  0  0  0  0  0  0  0  0  0
   -4.1156    1.2276   -2.1016 H   0  0  0  0  0  0  0  0  0  0  0  0
   -2.8624    1.2147   -0.8435 H   0  0  0  0  0  0  0  0  0  0  0  0
   -5.4961    0.5578    1.7422 H   0  0  0  0  0  0  0  0  0  0  0  0
  1  2  2  0  0  0  0
  1  6  1  0  0  0  0
  1 34  1  0  0  0  0
  2  3  1  0  0  0  0
  2 35  1  0  0  0  0
  3  4  2  0  0  0  0
  3 24  1  0  0  0  0
  4  5  1  0  0  0  0
  4 22  1  0  0  0  0
  5  6  2  0  0  0  0
  5  7  1  0  0  0  0
  6 36  1  0  0  0  0
  7  8  1  0  0  0  0
  8  9  1  0  0  0  0
  8 37  1  0  0  0  0
  8 38  1  0  0  0  0
  9 10  2  0  0  0  0
  9 14  1  0  0  0  0
 10 11  1  0  0  0  0
 10 39  1  0  0  0  0
 11 12  2  0  0  0  0
 11 40  1  0  0  0  0
 12 13  1  0  0  0  0
 12 15  1  0  0  0  0
 13 14  2  0  0  0  0
 13 41  1  0  0  0  0
 14 42  1  0  0  0  0
 15 16  1  0  0  0  0
 15 43  1  0  0  0  0
 15 44  1  0  0  0  0
 16 17  1  0  0  0  0
 16 21  1  0  0  0  0
 17 18  1  0  0  0  0
 17 45  1  0  0  0  0
 17 46  1  0  0  0  0
 18 19  1  0  0  0  0
 18 47  1  0  0  0  0
 18 48  1  0  0  0  0
 19 20  1  0  0  0  0
 20 21  1  0  0  0  0
 20 49  1  0  0  0  0
 20 50  1  0  0  0  0
 21 51  1  0  0  0  0
 21 52  1  0  0  0  0
 22 23  1  0  0  0  0
 22 53  1  0  0  0  0
 22 54  1  0  0  0  0
 23 24  1  0  0  0  0
 24 25  2  0  0  0  0
 26 27  1  0  0  0  0
 26 32  1  0  0  0  0
 26 55  1  1  0  0  0
 26 23  1  0  0  0  0
 27 28  1  0  0  0  0
 27 56  1  0  0  0  0
 27 57  1  0  0  0  0
 28 29  1  0  0  0  0
 28 58  1  0  0  0  0
 28 59  1  0  0  0  0
 29 30  2  0  0  0  0
 29 31  1  0  0  0  0
 31 32  1  0  0  0  0
 31 60  1  0  0  0  0
 32 33  2  0  0  0  0
M  END
>  <DRUGBANK_ID>
DB12101

>  <COMMON_NAME>
Iberdomide

>  <CAS_NUMBER>
1323403-33-3

>  <UNII>
8V66F27X44

>  <SYNONYMS>
(S)-3-(4-((4-(Morpholinomethyl)benzyl)oxy)-1-oxoisoindolin-2-yl)piperidine-2,6-dione; 2,6-Piperidinedione, 3-(1,3-dihydro-4-((4-(4-morpholinylmethyl)phenyl)methoxy)-1-oxo-2H-isoindol-2-yl)-, (3S)-

$$$$
