
 OpenBabel10282417223D

 24 24  0  0  0  0  0  0  0  0999 V2000
    1.3582    0.1197   -0.0008 C   0  0  0  0  0  0  0  0  0  0  0  0
    0.6949   -1.3054    0.7600 S   0  0  0  0  0  0  0  0  0  0  0  0
    1.3883   -1.5590    1.9983 O   0  0  0  0  0  0  0  0  0  0  0  0
   -0.6970   -0.8996    0.7101 O   0  0  0  0  0  0  0  0  0  0  0  0
    0.9530   -2.7348   -0.2868 C   0  0  0  0  0  0  0  0  0  0  0  0
    1.9557   -2.6351   -1.2777 C   0  0  0  0  0  0  0  0  0  0  0  0
    2.3588   -3.7464   -2.0324 C   0  0  0  0  0  0  0  0  0  0  0  0
    1.8036   -4.9924   -1.7856 C   0  0  0  0  0  0  0  0  0  0  0  0
    0.8296   -5.1177   -0.7968 C   0  0  0  0  0  0  0  0  0  0  0  0
    0.3498   -3.9905   -0.0770 C   0  0  0  0  0  0  0  0  0  0  0  0
   -1.1293   -4.3649    0.8626 S   0  0  0  0  0  0  0  0  0  0  0  0
   -2.0568   -4.9564   -0.0819 O   0  0  0  0  0  0  0  0  0  0  0  0
   -0.7118   -5.0869    2.0441 O   0  0  0  0  0  0  0  0  0  0  0  0
   -1.8198   -2.9371    1.3642 N   0  0  0  0  0  0  0  0  0  0  0  0
   -2.5112   -2.3279    0.2483 O   0  0  0  0  0  0  0  0  0  0  0  0
    0.9776    0.9675    0.5840 H   0  0  0  0  0  0  0  0  0  0  0  0
    0.9062    0.1905   -0.9955 H   0  0  0  0  0  0  0  0  0  0  0  0
    2.4399    0.1233   -0.0200 H   0  0  0  0  0  0  0  0  0  0  0  0
    2.4665   -1.6996   -1.4851 H   0  0  0  0  0  0  0  0  0  0  0  0
    3.1312   -3.6464   -2.7942 H   0  0  0  0  0  0  0  0  0  0  0  0
    2.1146   -5.8598   -2.3671 H   0  0  0  0  0  0  0  0  0  0  0  0
    0.4277   -6.1136   -0.5946 H   0  0  0  0  0  0  0  0  0  0  0  0
   -2.3348   -2.9345    2.2453 H   0  0  0  0  0  0  0  0  0  0  0  0
   -1.8510   -1.6777   -0.0903 H   0  0  0  0  0  0  0  0  0  0  0  0
  1  2  1  0  0  0  0
  1 16  1  0  0  0  0
  1 17  1  0  0  0  0
  1 18  1  0  0  0  0
  2  3  2  0  0  0  0
  2  4  2  0  0  0  0
  2  5  1  0  0  0  0
  5  6  2  0  0  0  0
  5 10  1  0  0  0  0
  6  7  1  0  0  0  0
  6 19  1  0  0  0  0
  7  8  2  0  0  0  0
  7 20  1  0  0  0  0
  8  9  1  0  0  0  0
  8 21  1  0  0  0  0
  9 10  2  0  0  0  0
  9 22  1  0  0  0  0
 10 11  1  0  0  0  0
 11 12  2  0  0  0  0
 11 13  2  0  0  0  0
 11 14  1  0  0  0  0
 14 15  1  0  0  0  0
 14 23  1  0  0  0  0
 15 24  1  0  0  0  0
M  END
>  <DRUGBANK_ID>
DB15326

>  <COMMON_NAME>
CXL-1020

>  <CAS_NUMBER>
950834-06-7

>  <UNII>
T7Q0XY74OK

$$$$
