
 OpenBabel10282417123D

 18 18  0  0  0  0  0  0  0  0999 V2000
    0.4725   -0.6925   -0.0014 C   0  0  0  0  0  0  0  0  0  0  0  0
    0.4991    0.7090    0.0048 C   0  0  0  0  0  0  0  0  0  0  0  0
   -0.7025    1.4239    0.0171 C   0  0  0  0  0  0  0  0  0  0  0  0
   -1.9294    0.7298    0.0049 C   0  0  0  0  0  0  0  0  0  0  0  0
   -1.9334   -0.6745   -0.0130 C   0  0  0  0  0  0  0  0  0  0  0  0
   -0.7303   -1.3962   -0.0094 C   0  0  0  0  0  0  0  0  0  0  0  0
    1.6797   -1.3403   -0.0009 O   0  0  0  0  0  0  0  0  0  0  0  0
    1.7188    1.3244   -0.0069 O   0  0  0  0  0  0  0  0  0  0  0  0
   -3.2168   -1.3963   -0.0401 N   0  3  0  0  0  0  0  0  0  0  0  0
   -4.2553   -0.7248   -0.0460 O   0  0  0  0  0  0  0  0  0  0  0  0
   -3.1761   -2.6352   -0.0582 O   0  5  0  0  0  0  0  0  0  0  0  0
   -0.7302    2.8966    0.0476 N   0  3  0  0  0  0  0  0  0  0  0  0
    0.3302    3.5293    0.0708 O   0  0  0  0  0  0  0  0  0  0  0  0
   -1.8499    3.4329    0.0537 O   0  5  0  0  0  0  0  0  0  0  0  0
   -2.8719    1.2779    0.0082 H   0  0  0  0  0  0  0  0  0  0  0  0
   -0.7363   -2.4838   -0.0161 H   0  0  0  0  0  0  0  0  0  0  0  0
    1.5388   -2.3046    0.0036 H   0  0  0  0  0  0  0  0  0  0  0  0
    2.4057    0.6303   -0.0222 H   0  0  0  0  0  0  0  0  0  0  0  0
  1  2  1  0  0  0  0
  1  6  2  0  0  0  0
  1  7  1  0  0  0  0
  2  3  2  0  0  0  0
  2  8  1  0  0  0  0
  3  4  1  0  0  0  0
  3 12  1  0  0  0  0
  4  5  2  0  0  0  0
  4 15  1  0  0  0  0
  5  6  1  0  0  0  0
  5  9  1  0  0  0  0
  6 16  1  0  0  0  0
  7 17  1  0  0  0  0
  8 18  1  0  0  0  0
  9 10  2  0  0  0  0
  9 11  1  0  0  0  0
 12 13  2  0  0  0  0
 12 14  1  0  0  0  0
M  CHG  4   9   1  11  -1  12   1  14  -1
M  END
>  <DRUGBANK_ID>
DB02105

>  <SECONDARY_ACCESSION_NUMBERS>
EXPT01233

>  <COMMON_NAME>
3,5-Dinitrocatechol

>  <CAS_NUMBER>
7659-29-2

>  <UNII>
VK0VA22GY2

$$$$
