
 OpenBabel10282417223D

 73 77  0  0  1  0  0  0  0  0999 V2000
    1.0673    0.0585   -0.1442 C   0  0  0  0  0  0  0  0  0  0  0  0
    0.5870   -1.1123    0.6742 C   0  0  2  0  0  0  0  0  0  0  0  0
    1.5146   -1.3152    1.8585 C   0  0  0  0  0  0  0  0  0  0  0  0
    1.5773   -2.7489    1.9589 N   0  0  0  0  0  0  0  0  0  0  0  0
    2.2617   -3.3455    2.9554 C   0  0  0  0  0  0  0  0  0  0  0  0
    1.8924   -3.1104    4.2580 C   0  0  0  0  0  0  0  0  0  0  0  0
    2.2505   -4.1781    4.9566 C   0  0  0  0  0  0  0  0  0  0  0  0
    3.0032   -5.2556    4.5236 C   0  0  0  0  0  0  0  0  0  0  0  0
    3.5389   -5.3908    3.3194 C   0  0  0  0  0  0  0  0  0  0  0  0
    3.1718   -4.3684    2.5212 N   0  0  0  0  0  0  0  0  0  0  0  0
    4.4909   -6.5448    3.0990 N   0  0  0  0  0  0  0  0  0  0  0  0
    4.5795   -7.8202    3.6746 C   0  0  0  0  0  0  0  0  0  0  0  0
    5.7191   -8.4473    3.1511 C   0  0  0  0  0  0  0  0  0  0  0  0
    6.3360   -7.4895    2.3402 C   0  0  0  0  0  0  0  0  0  0  0  0
    7.5005   -7.5765    1.5955 O   0  0  0  0  0  0  0  0  0  0  0  0
    8.2129   -6.4025    1.0688 C   0  0  0  0  0  0  0  0  0  0  0  0
    7.4330   -5.4759    0.1242 C   0  0  0  0  0  0  0  0  0  0  0  0
    6.3231   -4.7603    0.8478 C   0  0  0  0  0  0  0  0  0  0  0  0
    4.9085   -5.2431    0.2616 C   0  0  0  0  0  0  0  0  0  0  0  0
    5.3296   -3.8376    0.1468 C   0  0  0  0  0  0  0  0  0  0  0  0
    6.7859   -4.3483    2.3472 C   0  0  0  0  0  0  0  0  0  0  0  0
    7.3846   -5.3108    3.1321 F   0  0  0  0  0  0  0  0  0  0  0  0
    7.7685   -3.4145    2.2326 F   0  0  0  0  0  0  0  0  0  0  0  0
    5.8234   -3.8273    3.1425 F   0  0  0  0  0  0  0  0  0  0  0  0
    5.5320   -6.4520    2.2720 N   0  0  0  0  0  0  0  0  0  0  0  0
    1.0081   -2.2051    5.0575 C   0  0  0  0  0  0  0  0  0  0  0  0
    0.1345   -1.4898    4.5157 O   0  0  0  0  0  0  0  0  0  0  0  0
    1.0512   -2.1463    6.5014 N   0  0  0  0  0  0  0  0  0  0  0  0
    1.7191   -2.8846    7.8970 S   0  0  0  0  0  0  0  0  0  0  0  0
    2.3450   -1.8110    8.6431 O   0  0  0  0  0  0  0  0  0  0  0  0
    0.6169   -3.6197    8.4860 O   0  0  0  0  0  0  0  0  0  0  0  0
    3.0776   -4.1613    7.6330 C   0  0  0  0  0  0  0  0  0  0  0  0
    4.3001   -3.7498    7.0615 C   0  0  0  0  0  0  0  0  0  0  0  0
    5.2115   -4.7051    6.5481 C   0  0  0  0  0  0  0  0  0  0  0  0
    4.9539   -6.0877    6.6627 C   0  0  0  0  0  0  0  0  0  0  0  0
    3.7100   -6.5235    7.1920 C   0  0  0  0  0  0  0  0  0  0  0  0
    2.7593   -5.5583    7.6370 C   0  0  0  0  0  0  0  0  0  0  0  0
    0.7019   -3.4876    1.0554 C   0  0  0  0  0  0  0  0  0  0  0  0
    1.2631   -4.8313    0.5868 C   0  0  0  0  0  0  0  0  0  0  0  0
   -0.6738   -3.7722    1.6807 C   0  0  0  0  0  0  0  0  0  0  0  0
    0.6400   -2.4572   -0.0734 C   0  0  0  0  0  0  0  0  0  0  0  0
    0.7398    0.9928    0.3218 H   0  0  0  0  0  0  0  0  0  0  0  0
    0.6768   -0.0011   -1.1592 H   0  0  0  0  0  0  0  0  0  0  0  0
    2.1622    0.0794   -0.1924 H   0  0  0  0  0  0  0  0  0  0  0  0
   -0.4353   -0.9375    1.0354 H   0  0  0  0  0  0  0  0  0  0  0  0
    2.5295   -0.9287    1.7139 H   0  0  0  0  0  0  0  0  0  0  0  0
    1.1186   -0.7884    2.7254 H   0  0  0  0  0  0  0  0  0  0  0  0
    1.8871   -4.1766    5.9330 H   0  0  0  0  0  0  0  0  0  0  0  0
    3.3445   -5.8938    5.2600 H   0  0  0  0  0  0  0  0  0  0  0  0
    3.8121   -8.1852    4.3382 H   0  0  0  0  0  0  0  0  0  0  0  0
    6.0712   -9.4545    3.3165 H   0  0  0  0  0  0  0  0  0  0  0  0
    8.7567   -5.8310    1.8359 H   0  0  0  0  0  0  0  0  0  0  0  0
    9.0703   -6.7790    0.4874 H   0  0  0  0  0  0  0  0  0  0  0  0
    8.0638   -4.6951   -0.3169 H   0  0  0  0  0  0  0  0  0  0  0  0
    7.0584   -6.0903   -0.7048 H   0  0  0  0  0  0  0  0  0  0  0  0
    4.8557   -5.9104   -0.5979 H   0  0  0  0  0  0  0  0  0  0  0  0
    4.0553   -5.5151    0.8616 H   0  0  0  0  0  0  0  0  0  0  0  0
    4.7579   -3.1509    0.7640 H   0  0  0  0  0  0  0  0  0  0  0  0
    5.5341   -3.4995   -0.8530 H   0  0  0  0  0  0  0  0  0  0  0  0
    0.3100   -1.5111    6.8223 H   0  0  0  0  0  0  0  0  0  0  0  0
    4.4204   -2.7112    6.7554 H   0  0  0  0  0  0  0  0  0  0  0  0
    5.9700   -4.3728    5.8258 H   0  0  0  0  0  0  0  0  0  0  0  0
    5.5248   -6.7611    6.0068 H   0  0  0  0  0  0  0  0  0  0  0  0
    3.3449   -7.5183    6.8811 H   0  0  0  0  0  0  0  0  0  0  0  0
    1.7007   -5.8569    7.6365 H   0  0  0  0  0  0  0  0  0  0  0  0
    1.3158   -5.5582    1.4114 H   0  0  0  0  0  0  0  0  0  0  0  0
    0.6384   -5.2881   -0.1827 H   0  0  0  0  0  0  0  0  0  0  0  0
    2.2618   -4.7083    0.1707 H   0  0  0  0  0  0  0  0  0  0  0  0
   -1.1496   -2.8819    2.0986 H   0  0  0  0  0  0  0  0  0  0  0  0
   -1.3444   -4.1904    0.9200 H   0  0  0  0  0  0  0  0  0  0  0  0
   -0.6076   -4.5124    2.4896 H   0  0  0  0  0  0  0  0  0  0  0  0
   -0.2127   -2.6085   -0.7361 H   0  0  0  0  0  0  0  0  0  0  0  0
    1.5661   -2.5075   -0.6616 H   0  0  0  0  0  0  0  0  0  0  0  0
  1 42  1  0  0  0  0
  1 43  1  0  0  0  0
  1 44  1  0  0  0  0
  2  1  1  0  0  0  0
  2  3  1  0  0  0  0
  2 41  1  0  0  0  0
  2 45  1  1  0  0  0
  3  4  1  0  0  0  0
  3 46  1  0  0  0  0
  3 47  1  0  0  0  0
  4  5  1  0  0  0  0
  4 38  1  0  0  0  0
  5  6  2  0  0  0  0
  5 10  1  0  0  0  0
  6  7  1  0  0  0  0
  6 26  1  0  0  0  0
  7  8  2  0  0  0  0
  7 48  1  0  0  0  0
  8  9  1  0  0  0  0
  8 49  1  0  0  0  0
  9 10  2  0  0  0  0
  9 11  1  0  0  0  0
 11 12  1  0  0  0  0
 11 25  1  0  0  0  0
 12 13  2  0  0  0  0
 12 50  1  0  0  0  0
 13 14  1  0  0  0  0
 13 51  1  0  0  0  0
 14 15  1  0  0  0  0
 14 25  2  0  0  0  0
 15 16  1  0  0  0  0
 16 17  1  0  0  0  0
 16 52  1  0  0  0  0
 16 53  1  0  0  0  0
 17 18  1  0  0  0  0
 17 54  1  0  0  0  0
 17 55  1  0  0  0  0
 18 19  1  0  0  0  0
 18 20  1  0  0  0  0
 18 21  1  0  0  0  0
 19 20  1  0  0  0  0
 19 56  1  0  0  0  0
 19 57  1  0  0  0  0
 20 58  1  0  0  0  0
 20 59  1  0  0  0  0
 21 22  1  0  0  0  0
 21 23  1  0  0  0  0
 21 24  1  0  0  0  0
 26 27  2  0  0  0  0
 26 28  1  0  0  0  0
 28 29  1  0  0  0  0
 28 60  1  0  0  0  0
 29 30  2  0  0  0  0
 29 31  2  0  0  0  0
 29 32  1  0  0  0  0
 32 33  2  0  0  0  0
 32 37  1  0  0  0  0
 33 34  1  0  0  0  0
 33 61  1  0  0  0  0
 34 35  2  0  0  0  0
 34 62  1  0  0  0  0
 35 36  1  0  0  0  0
 35 63  1  0  0  0  0
 36 37  2  0  0  0  0
 36 64  1  0  0  0  0
 37 65  1  0  0  0  0
 38 39  1  0  0  0  0
 38 40  1  0  0  0  0
 38 41  1  0  0  0  0
 39 66  1  0  0  0  0
 39 67  1  0  0  0  0
 39 68  1  0  0  0  0
 40 69  1  0  0  0  0
 40 70  1  0  0  0  0
 40 71  1  0  0  0  0
 41 72  1  0  0  0  0
 41 73  1  0  0  0  0
M  END
>  <DRUGBANK_ID>
DB15177

>  <COMMON_NAME>
Bamocaftor

>  <CAS_NUMBER>
2204245-48-5

>  <UNII>
8C7XEW3K7S

>  <SYNONYMS>
3-Pyridinecarboxamide, N-(phenylsulfonyl)-6-(3-(2-(1-(trifluoromethyl)cyclopropyl)ethoxy)-1H-pyrazol-1-yl)-2-((4S)-2,2,4-trimethyl-1-pyrrolidinyl)-; N-(benzenesulfonyl)-6-[3-[2-[1-(trifluoromethyl)cyclopropyl]ethoxy]pyrazol-1-yl]-2-[(4S)-2,2,4-trimethylpyrrolidin-1-yl]pyridine-3-carboxamide

$$$$
