
 OpenBabel10282417153D

153156  0  0  1  0  0  0  0  0999 V2000
    0.6234    0.0583    0.1676 C   0  0  0  0  0  0  0  0  0  0  0  0
   -0.6109   -0.6741    1.5042 C   0  0  2  0  0  0  0  0  0  0  0  0
    0.1594   -2.0683    1.3026 C   0  0  0  0  0  0  0  0  0  0  0  0
   -0.5794   -2.4835    0.0941 C   0  0  0  0  0  0  0  0  0  0  0  0
   -1.9296   -1.8860    0.1769 C   0  0  1  0  0  0  0  0  0  0  0  0
   -2.9198   -2.1977   -0.7848 C   0  0  0  0  0  0  0  0  0  0  0  0
   -3.0521   -3.6455   -0.8334 C   0  0  1  0  0  0  0  0  0  0  0  0
   -3.4944   -4.1960    0.4540 C   0  0  0  0  0  0  0  0  0  0  0  0
   -4.5836   -4.9097    0.3162 C   0  0  0  0  0  0  0  0  0  0  0  0
   -4.9547   -5.5576    1.4107 C   0  0  0  0  0  0  0  0  0  0  0  0
   -5.4516   -6.9753    1.3733 C   0  0  0  0  0  0  0  0  0  0  0  0
   -6.4057   -7.7453    2.9081 C   0  0  0  0  0  0  0  0  0  0  0  0
   -7.8585   -7.4823    3.5710 C   0  0  0  0  0  0  0  0  0  0  0  0
   -8.9385   -7.6244    5.1581 C   0  0  2  0  0  0  0  0  0  0  0  0
  -10.4406   -7.1931    5.1452 C   0  0  0  0  0  0  0  0  0  0  0  0
  -11.5221   -7.8023    4.1363 C   0  0  2  0  0  0  0  0  0  0  0  0
  -11.4135   -9.2847    3.7040 C   0  0  0  0  0  0  0  0  0  0  0  0
  -12.5205   -9.8222    3.6796 O   0  0  0  0  0  0  0  0  0  0  0  0
  -10.1024  -10.2013    3.2097 C   0  0  1  0  0  0  0  0  0  0  0  0
   -9.3884   -9.9086    1.8389 C   0  0  1  0  0  0  0  0  0  0  0  0
   -8.7822   -8.5524    1.6940 C   0  0  0  0  0  0  0  0  0  0  0  0
   -7.5203   -8.1568    1.3330 C   0  0  0  0  0  0  0  0  0  0  0  0
   -7.1796   -6.2102    1.6650 C   0  0  2  0  0  0  0  0  0  0  0  0
   -5.9780   -5.9171    3.2220 C   0  0  0  0  0  0  0  0  0  0  0  0
   -4.6845   -6.2523    3.3153 O   0  0  0  0  0  0  0  0  0  0  0  0
   -6.6061   -6.4913    4.7389 C   0  0  0  0  0  0  0  0  0  0  0  0
   -7.8268   -5.5592    4.7649 C   0  0  2  0  0  0  0  0  0  0  0  0
   -9.1840   -5.5085    4.2487 O   0  0  0  0  0  0  0  0  0  0  0  0
   -8.9300   -5.2016    3.0862 C   0  0  0  0  0  0  0  0  0  0  0  0
   -7.7186   -4.9766    3.0775 O   0  0  0  0  0  0  0  0  0  0  0  0
   -9.9041   -5.0168    1.1935 C   0  0  2  0  0  0  0  0  0  0  0  0
  -10.0498   -6.9759    0.3181 C   0  0  0  0  0  0  0  0  0  0  0  0
   -8.8956   -7.4937   -0.3876 C   0  0  0  0  0  0  0  0  0  0  0  0
   -8.7656   -6.3276   -1.1694 C   0  0  0  0  0  0  0  0  0  0  0  0
   -8.6358   -4.7512   -0.7333 C   0  0  0  0  0  0  0  0  0  0  0  0
   -8.4647   -3.6993    0.3689 N   0  0  0  0  0  0  0  0  0  0  0  0
   -6.8041   -2.5224    0.9318 C   0  0  0  0  0  0  0  0  0  0  0  0
   -8.0577   -2.0954    1.3319 O   0  0  0  0  0  0  0  0  0  0  0  0
   -4.8151   -1.7114    1.4388 C   0  0  0  0  0  0  0  0  0  0  0  0
   -4.3169   -1.9891    2.6433 O   0  0  0  0  0  0  0  0  0  0  0  0
   -2.7560   -0.6000    1.4569 C   0  0  2  0  0  0  0  0  0  0  0  0
   -2.2145   -0.5263    0.1566 O   0  0  0  0  0  0  0  0  0  0  0  0
   -1.9270    0.9525    1.9166 O   0  0  0  0  0  0  0  0  0  0  0  0
   -6.7594   -3.9325    4.2368 C   0  0  2  0  0  0  0  0  0  0  0  0
   -6.9533   -2.9676    3.1890 C   0  0  0  0  0  0  0  0  0  0  0  0
   -5.5522   -4.5157    4.9149 C   0  0  0  0  0  0  0  0  0  0  0  0
   -5.5787   -5.1305    6.4809 C   0  0  2  0  0  0  0  0  0  0  0  0
   -6.9750   -5.2579    7.5910 C   0  0  0  0  0  0  0  0  0  0  0  0
   -8.0536   -4.0844    7.6944 C   0  0  0  0  0  0  0  0  0  0  0  0
   -7.2287   -2.7637    7.5426 C   0  0  2  0  0  0  0  0  0  0  0  0
   -5.9407   -2.6531    6.6980 C   0  0  1  0  0  0  0  0  0  0  0  0
   -4.9935   -3.8272    6.5020 C   0  0  0  0  0  0  0  0  0  0  0  0
   -6.4632   -2.5150    5.5337 O   0  0  0  0  0  0  0  0  0  0  0  0
   -7.7200   -3.7296    5.7741 C   0  0  0  0  0  0  0  0  0  0  0  0
   -6.6920   -2.8595    8.7067 O   0  0  0  0  0  0  0  0  0  0  0  0
   -5.0155   -3.2856    8.6756 P   0  0  0  0  0  0  0  0  0  0  0  0
   -4.5933   -1.8062    8.6450 O   0  0  0  0  0  0  0  0  0  0  0  0
   -5.1547   -3.9295   10.3876 C   0  0  0  0  0  0  0  0  0  0  0  0
   -3.2422   -3.7363    8.6426 C   0  0  0  0  0  0  0  0  0  0  0  0
   -8.1236   -5.2703    1.3475 C   0  0  0  0  0  0  0  0  0  0  0  0
   -9.9014   -7.2496    2.2702 C   0  0  0  0  0  0  0  0  0  0  0  0
   -8.2330  -10.7047    1.6257 O   0  0  0  0  0  0  0  0  0  0  0  0
   -9.1026  -10.5902    4.1677 O   0  0  0  0  0  0  0  0  0  0  0  0
   -8.4191   -9.4814    4.1557 C   0  0  0  0  0  0  0  0  0  0  0  0
  -11.9215   -7.1854    2.8666 C   0  0  0  0  0  0  0  0  0  0  0  0
   -7.9530   -7.7960    6.2500 C   0  0  0  0  0  0  0  0  0  0  0  0
   -2.7466   -4.1338    1.7789 C   0  0  0  0  0  0  0  0  0  0  0  0
   -3.9824   -3.9220   -1.8798 O   0  0  0  0  0  0  0  0  0  0  0  0
   -5.2547   -3.3000   -1.6788 C   0  0  0  0  0  0  0  0  0  0  0  0
    0.5198    1.1244   -0.0257 H   0  0  0  0  0  0  0  0  0  0  0  0
    0.5598   -0.4821   -0.7832 H   0  0  0  0  0  0  0  0  0  0  0  0
    1.8311    0.0031    0.2238 H   0  0  0  0  0  0  0  0  0  0  0  0
    0.4042   -0.2402    2.2451 H   0  0  0  0  0  0  0  0  0  0  0  0
    1.2723   -2.2713    1.0877 H   0  0  0  0  0  0  0  0  0  0  0  0
    0.0221   -2.5418    2.2625 H   0  0  0  0  0  0  0  0  0  0  0  0
   -0.1789   -2.1273   -0.8335 H   0  0  0  0  0  0  0  0  0  0  0  0
   -0.6270   -3.5532    0.1153 H   0  0  0  0  0  0  0  0  0  0  0  0
   -2.1527   -2.2441    1.1430 H   0  0  0  0  0  0  0  0  0  0  0  0
   -3.8389   -1.6653   -0.5051 H   0  0  0  0  0  0  0  0  0  0  0  0
   -2.5696   -1.7371   -1.6915 H   0  0  0  0  0  0  0  0  0  0  0  0
   -2.1061   -4.1232   -1.0523 H   0  0  0  0  0  0  0  0  0  0  0  0
   -5.2401   -5.1807   -0.4771 H   0  0  0  0  0  0  0  0  0  0  0  0
   -4.7302   -4.8007    2.2883 H   0  0  0  0  0  0  0  0  0  0  0  0
   -6.1675   -6.9882    0.3152 H   0  0  0  0  0  0  0  0  0  0  0  0
   -5.6384   -7.7909    3.5723 H   0  0  0  0  0  0  0  0  0  0  0  0
   -8.3341   -7.1306    2.7981 H   0  0  0  0  0  0  0  0  0  0  0  0
   -9.3621   -8.6430    5.5067 H   0  0  0  0  0  0  0  0  0  0  0  0
  -10.7188   -7.6517    6.0522 H   0  0  0  0  0  0  0  0  0  0  0  0
  -10.5237   -6.1144    5.2350 H   0  0  0  0  0  0  0  0  0  0  0  0
  -12.4322   -7.2370    4.2758 H   0  0  0  0  0  0  0  0  0  0  0  0
  -10.4826  -11.1679    3.1570 H   0  0  0  0  0  0  0  0  0  0  0  0
  -10.1357   -9.9326    1.0551 H   0  0  0  0  0  0  0  0  0  0  0  0
   -6.6191   -8.8493    1.3654 H   0  0  0  0  0  0  0  0  0  0  0  0
   -6.8120   -5.5579    0.8081 H   0  0  0  0  0  0  0  0  0  0  0  0
   -6.6503   -7.5889    4.7857 H   0  0  0  0  0  0  0  0  0  0  0  0
   -5.7383   -6.8031    5.3566 H   0  0  0  0  0  0  0  0  0  0  0  0
   -8.3493   -5.6009    5.7180 H   0  0  0  0  0  0  0  0  0  0  0  0
  -10.9327   -4.8802    1.9131 H   0  0  0  0  0  0  0  0  0  0  0  0
  -10.3933   -8.1891    1.0854 H   0  0  0  0  0  0  0  0  0  0  0  0
  -10.9656   -7.5335   -0.0224 H   0  0  0  0  0  0  0  0  0  0  0  0
   -8.0314   -7.2064    0.0684 H   0  0  0  0  0  0  0  0  0  0  0  0
   -8.7374   -8.6095   -0.4635 H   0  0  0  0  0  0  0  0  0  0  0  0
   -7.8167   -6.5702   -1.5991 H   0  0  0  0  0  0  0  0  0  0  0  0
   -9.6816   -6.5730   -1.6641 H   0  0  0  0  0  0  0  0  0  0  0  0
   -7.6759   -4.9447   -0.4411 H   0  0  0  0  0  0  0  0  0  0  0  0
   -8.8181   -4.2314   -1.5735 H   0  0  0  0  0  0  0  0  0  0  0  0
   -0.8841    1.2499    2.2025 H   0  0  0  0  0  0  0  0  0  0  0  0
   -7.6413   -2.7182    4.5874 H   0  0  0  0  0  0  0  0  0  0  0  0
   -8.0215   -3.0562    2.9708 H   0  0  0  0  0  0  0  0  0  0  0  0
   -6.9872   -1.9376    3.5120 H   0  0  0  0  0  0  0  0  0  0  0  0
   -6.1846   -3.4273    2.6427 H   0  0  0  0  0  0  0  0  0  0  0  0
   -5.2231   -5.4494    4.7141 H   0  0  0  0  0  0  0  0  0  0  0  0
   -4.9039   -4.1922    4.1436 H   0  0  0  0  0  0  0  0  0  0  0  0
   -4.9697   -6.0491    6.6421 H   0  0  0  0  0  0  0  0  0  0  0  0
   -7.5798   -6.1250    7.5448 H   0  0  0  0  0  0  0  0  0  0  0  0
   -6.5759   -5.4223    8.5444 H   0  0  0  0  0  0  0  0  0  0  0  0
   -8.9258   -4.0508    6.9769 H   0  0  0  0  0  0  0  0  0  0  0  0
   -8.9094   -4.2433    8.2897 H   0  0  0  0  0  0  0  0  0  0  0  0
   -7.8769   -1.9310    7.2937 H   0  0  0  0  0  0  0  0  0  0  0  0
   -5.4443   -1.7146    6.7280 H   0  0  0  0  0  0  0  0  0  0  0  0
   -4.4500   -4.2550    7.2405 H   0  0  0  0  0  0  0  0  0  0  0  0
   -4.1787   -3.6394    5.8209 H   0  0  0  0  0  0  0  0  0  0  0  0
   -7.1204   -4.6137    5.9191 H   0  0  0  0  0  0  0  0  0  0  0  0
   -8.7647   -3.8118    5.5042 H   0  0  0  0  0  0  0  0  0  0  0  0
   -8.3809   -3.8557    4.6475 H   0  0  0  0  0  0  0  0  0  0  0  0
   -4.9057   -4.9970   10.3789 H   0  0  0  0  0  0  0  0  0  0  0  0
   -4.4689   -3.4037   11.0480 H   0  0  0  0  0  0  0  0  0  0  0  0
   -6.1767   -3.8325   10.7521 H   0  0  0  0  0  0  0  0  0  0  0  0
   -2.8400   -3.8590    7.6328 H   0  0  0  0  0  0  0  0  0  0  0  0
   -2.6410   -2.9527    9.1155 H   0  0  0  0  0  0  0  0  0  0  0  0
   -3.0732   -4.6709    9.1834 H   0  0  0  0  0  0  0  0  0  0  0  0
   -8.6714   -6.1511    1.2890 H   0  0  0  0  0  0  0  0  0  0  0  0
   -8.9922   -4.1391    2.0346 H   0  0  0  0  0  0  0  0  0  0  0  0
   -8.0999   -4.2445    1.7741 H   0  0  0  0  0  0  0  0  0  0  0  0
  -10.8502   -6.7212    1.6355 H   0  0  0  0  0  0  0  0  0  0  0  0
   -9.9425   -7.5336    3.2168 H   0  0  0  0  0  0  0  0  0  0  0  0
   -9.9429   -6.2627    2.4954 H   0  0  0  0  0  0  0  0  0  0  0  0
   -7.5962  -10.4045    2.3100 H   0  0  0  0  0  0  0  0  0  0  0  0
   -7.9184   -9.2232    3.3008 H   0  0  0  0  0  0  0  0  0  0  0  0
   -9.2995   -8.8013    3.9673 H   0  0  0  0  0  0  0  0  0  0  0  0
   -7.7151   -9.2345    4.9110 H   0  0  0  0  0  0  0  0  0  0  0  0
  -11.7544   -7.9943    1.9762 H   0  0  0  0  0  0  0  0  0  0  0  0
  -12.2729   -6.3364    2.2684 H   0  0  0  0  0  0  0  0  0  0  0  0
  -11.1973   -6.2880    3.3763 H   0  0  0  0  0  0  0  0  0  0  0  0
   -7.6070   -6.8526    6.2956 H   0  0  0  0  0  0  0  0  0  0  0  0
   -8.4624   -8.0726    7.0980 H   0  0  0  0  0  0  0  0  0  0  0  0
   -6.9530   -8.2894    6.1334 H   0  0  0  0  0  0  0  0  0  0  0  0
   -1.7559   -4.5186    1.7049 H   0  0  0  0  0  0  0  0  0  0  0  0
   -2.7046   -3.1654    2.2076 H   0  0  0  0  0  0  0  0  0  0  0  0
   -3.1607   -4.5037    2.7038 H   0  0  0  0  0  0  0  0  0  0  0  0
   -5.7503   -3.5564   -0.7504 H   0  0  0  0  0  0  0  0  0  0  0  0
   -5.1805   -2.2336   -1.5808 H   0  0  0  0  0  0  0  0  0  0  0  0
   -5.9425   -3.6129   -2.4411 H   0  0  0  0  0  0  0  0  0  0  0  0
  1 70  1  0  0  0  0
  1 71  1  0  0  0  0
  1 72  1  0  0  0  0
  2  1  1  0  0  0  0
  2  3  1  0  0  0  0
  2 41  1  0  0  0  0
  2 73  1  1  0  0  0
  3  4  1  0  0  0  0
  3 74  1  0  0  0  0
  3 75  1  0  0  0  0
  4  5  1  0  0  0  0
  4 76  1  0  0  0  0
  4 77  1  0  0  0  0
  5  6  1  0  0  0  0
  5 42  1  0  0  0  0
  5 78  1  6  0  0  0
  6  7  1  0  0  0  0
  6 79  1  0  0  0  0
  6 80  1  0  0  0  0
  7  8  1  0  0  0  0
  7 68  1  0  0  0  0
  7 81  1  6  0  0  0
  8  9  2  0  0  0  0
  8 67  1  0  0  0  0
  9 10  1  0  0  0  0
  9 82  1  0  0  0  0
 10 11  2  0  0  0  0
 10 83  1  0  0  0  0
 11 12  1  0  0  0  0
 11 84  1  0  0  0  0
 12 13  2  0  0  0  0
 12 85  1  0  0  0  0
 13 14  1  0  0  0  0
 13 86  1  0  0  0  0
 14 15  1  0  0  0  0
 14 87  1  6  0  0  0
 14 66  1  0  0  0  0
 15 16  1  0  0  0  0
 15 88  1  0  0  0  0
 15 89  1  0  0  0  0
 16 17  1  0  0  0  0
 16 90  1  1  0  0  0
 16 65  1  0  0  0  0
 17 18  2  0  0  0  0
 17 19  1  0  0  0  0
 19 20  1  0  0  0  0
 19 63  1  0  0  0  0
 19 91  1  6  0  0  0
 20 21  1  0  0  0  0
 20 62  1  0  0  0  0
 20 92  1  6  0  0  0
 21 22  2  0  0  0  0
 21 61  1  0  0  0  0
 22 23  1  0  0  0  0
 22 93  1  0  0  0  0
 23 24  1  0  0  0  0
 23 94  1  6  0  0  0
 23 60  1  0  0  0  0
 24 25  2  0  0  0  0
 24 26  1  0  0  0  0
 26 27  1  0  0  0  0
 26 95  1  0  0  0  0
 26 96  1  0  0  0  0
 27 28  1  0  0  0  0
 27 97  1  1  0  0  0
 27 44  1  0  0  0  0
 28 29  1  0  0  0  0
 29 30  2  0  0  0  0
 29 31  1  0  0  0  0
 31 32  1  0  0  0  0
 31 36  1  0  0  0  0
 31 98  1  1  0  0  0
 32 33  1  0  0  0  0
 32 99  1  0  0  0  0
 32100  1  0  0  0  0
 33 34  1  0  0  0  0
 33101  1  0  0  0  0
 33102  1  0  0  0  0
 34 35  1  0  0  0  0
 34103  1  0  0  0  0
 34104  1  0  0  0  0
 35 36  1  0  0  0  0
 35105  1  0  0  0  0
 35106  1  0  0  0  0
 36 37  1  0  0  0  0
 37 38  2  0  0  0  0
 37 39  1  0  0  0  0
 39 40  2  0  0  0  0
 39 41  1  0  0  0  0
 41 42  1  0  0  0  0
 41 43  1  1  0  0  0
 43107  1  0  0  0  0
 44108  1  1  0  0  0
 44 46  1  0  0  0  0
 44 45  1  0  0  0  0
 45109  1  0  0  0  0
 45110  1  0  0  0  0
 45111  1  0  0  0  0
 46112  1  0  0  0  0
 46113  1  0  0  0  0
 47 46  1  0  0  0  0
 47 48  1  0  0  0  0
 47 52  1  0  0  0  0
 47114  1  1  0  0  0
 48 49  1  0  0  0  0
 48115  1  0  0  0  0
 48116  1  0  0  0  0
 49 50  1  0  0  0  0
 49117  1  0  0  0  0
 49118  1  0  0  0  0
 50 51  1  0  0  0  0
 50119  1  6  0  0  0
 50 55  1  0  0  0  0
 51 52  1  0  0  0  0
 51 53  1  0  0  0  0
 51120  1  1  0  0  0
 52121  1  0  0  0  0
 52122  1  0  0  0  0
 53 54  1  0  0  0  0
 54123  1  0  0  0  0
 54124  1  0  0  0  0
 54125  1  0  0  0  0
 55 56  1  0  0  0  0
 56 57  2  0  0  0  0
 56 58  1  0  0  0  0
 56 59  1  0  0  0  0
 58126  1  0  0  0  0
 58127  1  0  0  0  0
 58128  1  0  0  0  0
 59129  1  0  0  0  0
 59130  1  0  0  0  0
 59131  1  0  0  0  0
 60132  1  0  0  0  0
 60133  1  0  0  0  0
 60134  1  0  0  0  0
 61135  1  0  0  0  0
 61136  1  0  0  0  0
 61137  1  0  0  0  0
 62138  1  0  0  0  0
 63 64  1  0  0  0  0
 64139  1  0  0  0  0
 64140  1  0  0  0  0
 64141  1  0  0  0  0
 65142  1  0  0  0  0
 65143  1  0  0  0  0
 65144  1  0  0  0  0
 66145  1  0  0  0  0
 66146  1  0  0  0  0
 66147  1  0  0  0  0
 67148  1  0  0  0  0
 67149  1  0  0  0  0
 67150  1  0  0  0  0
 68 69  1  0  0  0  0
 69151  1  0  0  0  0
 69152  1  0  0  0  0
 69153  1  0  0  0  0
M  END
>  <DRUGBANK_ID>
DB06233

>  <COMMON_NAME>
Ridaforolimus

>  <CAS_NUMBER>
572924-54-0

>  <UNII>
48Z35KB15K

>  <SYNONYMS>
Deforolimus; Ridaforolimus

$$$$
