
 OpenBabel10282417183D

 59 60  0  0  1  0  0  0  0  0999 V2000
   -1.6088    4.6320    0.3726 C   0  0  0  0  0  0  0  0  0  0  0  0
   -0.4092    3.7989    0.2402 C   0  0  0  0  0  0  0  0  0  0  0  0
    0.6462    4.8535    0.4365 C   0  0  0  0  0  0  0  0  0  0  0  0
   -0.6180    2.6508    1.1951 C   0  0  0  0  0  0  0  0  0  0  0  0
   -1.4701    1.4908    0.6157 C   0  0  2  0  0  0  0  0  0  0  0  0
   -0.8367    0.7741   -0.6030 C   0  0  1  0  0  0  0  0  0  0  0  0
   -1.6881    1.1167   -1.7429 C   0  0  0  0  0  0  0  0  0  0  0  0
   -1.2444    1.9770   -2.5119 O   0  0  0  0  0  0  0  0  0  0  0  0
   -2.9823    0.5776   -1.6723 N   0  0  0  0  0  0  0  0  0  0  0  0
   -3.3812   -0.5921   -1.0388 O   0  0  0  0  0  0  0  0  0  0  0  0
    0.5398    1.0947   -0.8024 O   0  0  0  0  0  0  0  0  0  0  0  0
   -3.0739    1.7199    0.6056 C   0  0  0  0  0  0  0  0  0  0  0  0
   -3.7174    0.9802    1.3725 O   0  0  0  0  0  0  0  0  0  0  0  0
   -3.8475    2.4687   -0.3088 N   0  0  0  0  0  0  0  0  0  0  0  0
   -3.4910    3.4603   -1.4318 C   0  0  1  0  0  0  0  0  0  0  0  0
   -3.7430    3.1956   -2.9538 C   0  0  0  0  0  0  0  0  0  0  0  0
   -3.5312    2.0220   -3.7381 C   0  0  0  0  0  0  0  0  0  0  0  0
   -3.9816    1.7609   -4.9977 C   0  0  0  0  0  0  0  0  0  0  0  0
   -4.4639    2.8331   -5.6633 C   0  0  0  0  0  0  0  0  0  0  0  0
   -4.4307    4.0965   -5.0622 C   0  0  0  0  0  0  0  0  0  0  0  0
   -4.0083    4.2908   -3.7510 C   0  0  0  0  0  0  0  0  0  0  0  0
   -3.8801    4.9023   -1.0631 C   0  0  0  0  0  0  0  0  0  0  0  0
   -3.0395    5.8258   -1.2067 O   0  0  0  0  0  0  0  0  0  0  0  0
   -5.1149    5.2114   -0.7198 O   0  0  0  0  0  0  0  0  0  0  0  0
   -5.2714    6.6184   -0.4112 C   0  0  0  0  0  0  0  0  0  0  0  0
   -6.4643    7.0577   -1.2161 C   0  0  0  0  0  0  0  0  0  0  0  0
   -6.4373    8.5778   -1.1803 C   0  0  0  0  0  0  0  0  0  0  0  0
   -5.0305    9.0112   -0.7946 C   0  0  0  0  0  0  0  0  0  0  0  0
   -4.2447    7.7349   -0.8192 C   0  0  0  0  0  0  0  0  0  0  0  0
   -1.6872    5.4079    1.1235 H   0  0  0  0  0  0  0  0  0  0  0  0
   -2.4753    4.0273    0.5694 H   0  0  0  0  0  0  0  0  0  0  0  0
   -1.5019    5.0763   -0.6093 H   0  0  0  0  0  0  0  0  0  0  0  0
   -0.3408    3.4682   -0.8019 H   0  0  0  0  0  0  0  0  0  0  0  0
    0.4031    5.4557    1.3183 H   0  0  0  0  0  0  0  0  0  0  0  0
    1.6355    4.4289    0.4996 H   0  0  0  0  0  0  0  0  0  0  0  0
    0.6017    5.5452   -0.4264 H   0  0  0  0  0  0  0  0  0  0  0  0
    0.3552    2.2679    1.5014 H   0  0  0  0  0  0  0  0  0  0  0  0
   -1.1320    3.0158    2.0931 H   0  0  0  0  0  0  0  0  0  0  0  0
   -1.3363    0.7096    1.3824 H   0  0  0  0  0  0  0  0  0  0  0  0
   -0.8958   -0.3120   -0.5966 H   0  0  0  0  0  0  0  0  0  0  0  0
   -3.8013    1.1601   -1.8865 H   0  0  0  0  0  0  0  0  0  0  0  0
   -3.2127   -0.4439   -0.0923 H   0  0  0  0  0  0  0  0  0  0  0  0
    0.6220    2.0101   -1.1305 H   0  0  0  0  0  0  0  0  0  0  0  0
   -4.8418    2.3830   -0.0976 H   0  0  0  0  0  0  0  0  0  0  0  0
   -2.4165    3.4502   -1.4058 H   0  0  0  0  0  0  0  0  0  0  0  0
   -2.9004    1.1653   -3.5519 H   0  0  0  0  0  0  0  0  0  0  0  0
   -3.8755    0.7442   -5.3748 H   0  0  0  0  0  0  0  0  0  0  0  0
   -4.7909    2.6796   -6.6752 H   0  0  0  0  0  0  0  0  0  0  0  0
   -4.7721    4.9591   -5.6096 H   0  0  0  0  0  0  0  0  0  0  0  0
   -3.8855    5.3114   -3.3911 H   0  0  0  0  0  0  0  0  0  0  0  0
   -5.4260    6.6681    0.6709 H   0  0  0  0  0  0  0  0  0  0  0  0
   -6.3510    6.6938   -2.2481 H   0  0  0  0  0  0  0  0  0  0  0  0
   -7.3807    6.6136   -0.8225 H   0  0  0  0  0  0  0  0  0  0  0  0
   -6.7096    8.9722   -2.1618 H   0  0  0  0  0  0  0  0  0  0  0  0
   -7.1427    8.9411   -0.4325 H   0  0  0  0  0  0  0  0  0  0  0  0
   -4.5958    9.7488   -1.4790 H   0  0  0  0  0  0  0  0  0  0  0  0
   -4.9985    9.4269    0.2167 H   0  0  0  0  0  0  0  0  0  0  0  0
   -3.3880    7.8170   -0.1350 H   0  0  0  0  0  0  0  0  0  0  0  0
   -3.8535    7.6145   -1.8434 H   0  0  0  0  0  0  0  0  0  0  0  0
  1  2  1  0  0  0  0
  1 30  1  0  0  0  0
  1 31  1  0  0  0  0
  1 32  1  0  0  0  0
  2  3  1  0  0  0  0
  2  4  1  0  0  0  0
  2 33  1  0  0  0  0
  3 34  1  0  0  0  0
  3 35  1  0  0  0  0
  3 36  1  0  0  0  0
  4 37  1  0  0  0  0
  4 38  1  0  0  0  0
  5 12  1  0  0  0  0
  5 39  1  1  0  0  0
  5  6  1  0  0  0  0
  5  4  1  0  0  0  0
  6  7  1  0  0  0  0
  6 11  1  0  0  0  0
  6 40  1  1  0  0  0
  7  8  2  0  0  0  0
  7  9  1  0  0  0  0
  9 10  1  0  0  0  0
  9 41  1  0  0  0  0
 10 42  1  0  0  0  0
 11 43  1  0  0  0  0
 12 13  2  0  0  0  0
 12 14  1  0  0  0  0
 14 44  1  0  0  0  0
 15 14  1  0  0  0  0
 15 16  1  0  0  0  0
 15 22  1  0  0  0  0
 15 45  1  1  0  0  0
 16 17  2  0  0  0  0
 16 21  1  0  0  0  0
 17 18  1  0  0  0  0
 17 46  1  0  0  0  0
 18 19  2  0  0  0  0
 18 47  1  0  0  0  0
 19 20  1  0  0  0  0
 19 48  1  0  0  0  0
 20 21  2  0  0  0  0
 20 49  1  0  0  0  0
 21 50  1  0  0  0  0
 22 23  2  0  0  0  0
 22 24  1  0  0  0  0
 24 25  1  0  0  0  0
 25 26  1  0  0  0  0
 25 29  1  0  0  0  0
 25 51  1  0  0  0  0
 26 27  1  0  0  0  0
 26 52  1  0  0  0  0
 26 53  1  0  0  0  0
 27 28  1  0  0  0  0
 27 54  1  0  0  0  0
 27 55  1  0  0  0  0
 28 29  1  0  0  0  0
 28 56  1  0  0  0  0
 28 57  1  0  0  0  0
 29 58  1  0  0  0  0
 29 59  1  0  0  0  0
M  END
>  <DRUGBANK_ID>
DB11781

>  <SECONDARY_ACCESSION_NUMBERS>
DB05745

>  <COMMON_NAME>
Tosedostat

>  <CAS_NUMBER>
238750-77-1

>  <UNII>
KZK563J2UW

>  <SYNONYMS>
Tosedostat

$$$$
