
 OpenBabel10282417123D

 33 35  0  0  0  0  0  0  0  0999 V2000
    1.7397    0.5765    0.1963 O   0  0  0  0  0  0  0  0  0  0  0  0
   -1.8525    0.9490    0.0270 O   0  0  0  0  0  0  0  0  0  0  0  0
   -0.7426   -1.4168    0.6347 O   0  0  0  0  0  0  0  0  0  0  0  0
    1.4274   -1.7698   -2.6189 O   0  0  0  0  0  0  0  0  0  0  0  0
    3.0123    6.9145    0.0154 O   0  0  0  0  0  0  0  0  0  0  0  0
    0.8925    2.8294   -0.0029 N   0  0  0  0  0  0  0  0  0  0  0  0
    1.8226    4.5320   -1.2098 N   0  0  0  0  0  0  0  0  0  0  0  0
    1.3419    4.0371    2.2287 N   0  0  0  0  0  0  0  0  0  0  0  0
    2.4215    6.1668    2.1142 N   0  0  0  0  0  0  0  0  0  0  0  0
    0.5802    1.4269    0.3209 C   0  0  1  0  0  0  0  0  0  0  0  0
   -0.5423    0.7488   -0.5076 C   0  0  1  0  0  0  0  0  0  0  0  0
   -0.1606   -0.7319   -0.4900 C   0  0  1  0  0  0  0  0  0  0  0  0
    1.3632   -0.6964   -0.3947 C   0  0  1  0  0  0  0  0  0  0  0  0
    1.2308    3.2263   -1.4021 C   0  0  0  0  0  0  0  0  0  0  0  0
    1.3487    3.8548    0.8737 C   0  0  0  0  0  0  0  0  0  0  0  0
    2.0686   -0.8442   -1.7509 C   0  0  0  0  0  0  0  0  0  0  0  0
    1.8908    4.8377    0.1250 C   0  0  0  0  0  0  0  0  0  0  0  0
    2.4901    6.0616    0.7392 C   0  0  0  0  0  0  0  0  0  0  0  0
    1.8677    5.1901    2.7589 C   0  0  0  0  0  0  0  0  0  0  0  0
    2.2640    5.1318   -1.8932 H   0  0  0  0  0  0  0  0  0  0  0  0
    0.8709    3.3654    2.8135 H   0  0  0  0  0  0  0  0  0  0  0  0
   -1.9550    0.3569    0.7966 H   0  0  0  0  0  0  0  0  0  0  0  0
   -0.3909   -1.0595    1.4654 H   0  0  0  0  0  0  0  0  0  0  0  0
    1.3702   -2.6339   -2.1733 H   0  0  0  0  0  0  0  0  0  0  0  0
    0.2754    1.3860    1.3737 H   0  0  0  0  0  0  0  0  0  0  0  0
   -0.5393    1.1008   -1.5434 H   0  0  0  0  0  0  0  0  0  0  0  0
   -0.5337   -1.2678   -1.3688 H   0  0  0  0  0  0  0  0  0  0  0  0
    1.7229   -1.4957    0.2676 H   0  0  0  0  0  0  0  0  0  0  0  0
    0.3400    3.3328   -2.0288 H   0  0  0  0  0  0  0  0  0  0  0  0
    1.9541    2.5529   -1.8694 H   0  0  0  0  0  0  0  0  0  0  0  0
    2.1203    0.1200   -2.2637 H   0  0  0  0  0  0  0  0  0  0  0  0
    3.1025   -1.1772   -1.6030 H   0  0  0  0  0  0  0  0  0  0  0  0
    1.7928    5.2486    3.8578 H   0  0  0  0  0  0  0  0  0  0  0  0
  1 10  1  0  0  0  0
  1 13  1  0  0  0  0
  2 22  1  0  0  0  0
  3 23  1  0  0  0  0
  4 16  1  0  0  0  0
  4 24  1  0  0  0  0
  5 18  2  0  0  0  0
  6 14  1  0  0  0  0
  6 15  1  0  0  0  0
  7 14  1  0  0  0  0
  7 17  1  0  0  0  0
  7 20  1  0  0  0  0
  8 15  1  0  0  0  0
  8 19  1  0  0  0  0
  8 21  1  0  0  0  0
  9 18  1  0  0  0  0
  9 19  2  0  0  0  0
 10 11  1  0  0  0  0
 10 25  1  1  0  0  0
 10  6  1  0  0  0  0
 11  2  1  0  0  0  0
 11 12  1  0  0  0  0
 11 26  1  6  0  0  0
 12  3  1  0  0  0  0
 12 13  1  0  0  0  0
 12 27  1  6  0  0  0
 13 28  1  1  0  0  0
 13 16  1  0  0  0  0
 14 29  1  0  0  0  0
 14 30  1  0  0  0  0
 15 17  2  0  0  0  0
 16 31  1  0  0  0  0
 16 32  1  0  0  0  0
 17 18  1  0  0  0  0
 19 33  1  0  0  0  0
M  END
>  <DRUGBANK_ID>
DB02472

>  <SECONDARY_ACCESSION_NUMBERS>
EXPT01774

>  <COMMON_NAME>
7,8-dihydroinosine

>  <SYNONYMS>
6-hydroxy-7,8-dihydro purine nucleoside

$$$$
