2PD
 OpenBabel10282417163D

 57 60  0  0  0  0  0  0  0  0999 V2000
    0.9036    0.0124   -0.0758 O   0  0  0  0  0  0  0  0  0  0  0  0
    2.3536    0.0418   -0.1459 S   0  0  0  0  0  0  0  0  0  0  0  0
    3.0549    0.1425   -1.3976 O   0  0  0  0  0  0  0  0  0  0  0  0
    2.9570   -1.3325    0.7085 C   0  0  0  0  0  0  0  0  0  0  0  0
    2.6121   -2.5872    0.2031 C   0  0  0  0  0  0  0  0  0  0  0  0
    3.0593   -3.7295    0.8422 C   0  0  0  0  0  0  0  0  0  0  0  0
    2.6520   -4.8968    0.2652 O   0  0  0  0  0  0  0  0  0  0  0  0
    3.0994   -6.0898    0.8916 C   0  0  0  0  0  0  0  0  0  0  0  0
    3.8586   -3.5935    1.9768 C   0  0  0  0  0  0  0  0  0  0  0  0
    2.7936    1.3213    0.7862 N   0  0  0  0  0  0  0  0  0  0  0  0
    3.6217    1.2077    1.9007 C   0  0  0  0  0  0  0  0  0  0  0  0
    4.0315    0.0976    2.4210 N   0  0  0  0  0  0  0  0  0  0  0  0
    3.7190   -1.1522    1.8530 C   0  0  0  0  0  0  0  0  0  0  0  0
    4.1904   -2.3175    2.4720 C   0  0  0  0  0  0  0  0  0  0  0  0
    3.9946    2.5454    2.4060 C   0  0  0  0  0  0  0  0  0  0  0  0
    3.1297    3.4444    2.8845 C   0  0  0  0  0  0  0  0  0  0  0  0
    1.7661    3.2389    2.9732 O   0  0  0  0  0  0  0  0  0  0  0  0
    5.3532    2.9643    2.0927 C   0  0  0  0  0  0  0  0  0  0  0  0
    5.9456    2.2722    1.2718 O   0  0  0  0  0  0  0  0  0  0  0  0
    5.8396    4.0912    2.7257 N   0  0  0  0  0  0  0  0  0  0  0  0
    7.2746    4.4014    2.6901 C   0  0  0  0  0  0  0  0  0  0  0  0
    8.1104    3.4306    3.5569 C   0  0  0  0  0  0  0  0  0  0  0  0
    8.0188    1.9599    3.1101 C   0  0  0  0  0  0  0  0  0  0  0  0
    8.5203    1.7815    1.6677 C   0  0  0  0  0  0  0  0  0  0  0  0
    8.7514    0.9949    4.0243 C   0  0  0  0  0  0  0  0  0  0  0  0
    4.9944    5.0515    3.2378 N   0  0  0  0  0  0  0  0  0  0  0  0
    3.7261    4.7649    3.2856 C   0  0  0  0  0  0  0  0  0  0  0  0
    2.7744    5.8077    3.7442 C   0  0  0  0  0  0  0  0  0  0  0  0
    1.9106    5.5711    4.8178 C   0  0  0  0  0  0  0  0  0  0  0  0
    0.9187    6.5035    5.1245 C   0  0  0  0  0  0  0  0  0  0  0  0
    2.7388    7.0339    3.0726 C   0  0  0  0  0  0  0  0  0  0  0  0
    1.8180    8.0083    3.4611 C   0  0  0  0  0  0  0  0  0  0  0  0
    0.8702    7.7195    4.4433 C   0  0  0  0  0  0  0  0  0  0  0  0
    1.9889   -2.6599   -0.6860 H   0  0  0  0  0  0  0  0  0  0  0  0
    4.1923   -6.1499    0.8735 H   0  0  0  0  0  0  0  0  0  0  0  0
    2.7139   -6.1572    1.9139 H   0  0  0  0  0  0  0  0  0  0  0  0
    2.7058   -6.9389    0.3263 H   0  0  0  0  0  0  0  0  0  0  0  0
    4.2362   -4.4626    2.5060 H   0  0  0  0  0  0  0  0  0  0  0  0
    2.7639    2.1944    0.2631 H   0  0  0  0  0  0  0  0  0  0  0  0
    4.8221   -2.2509    3.3564 H   0  0  0  0  0  0  0  0  0  0  0  0
    1.5350    2.3535    2.6347 H   0  0  0  0  0  0  0  0  0  0  0  0
    7.6124    4.3830    1.6487 H   0  0  0  0  0  0  0  0  0  0  0  0
    7.4327    5.4266    3.0466 H   0  0  0  0  0  0  0  0  0  0  0  0
    9.1622    3.7424    3.5357 H   0  0  0  0  0  0  0  0  0  0  0  0
    7.7760    3.5163    4.5991 H   0  0  0  0  0  0  0  0  0  0  0  0
    6.9802    1.6374    3.2221 H   0  0  0  0  0  0  0  0  0  0  0  0
    9.5916    1.9735    1.5958 H   0  0  0  0  0  0  0  0  0  0  0  0
    8.3017    0.7713    1.3072 H   0  0  0  0  0  0  0  0  0  0  0  0
    8.0666    2.4703    0.9498 H   0  0  0  0  0  0  0  0  0  0  0  0
    8.3758    1.0774    5.0485 H   0  0  0  0  0  0  0  0  0  0  0  0
    8.5604   -0.0318    3.6870 H   0  0  0  0  0  0  0  0  0  0  0  0
    9.8269    1.1757    4.0124 H   0  0  0  0  0  0  0  0  0  0  0  0
    1.9932    4.6614    5.4055 H   0  0  0  0  0  0  0  0  0  0  0  0
    0.1853    6.2854    5.8967 H   0  0  0  0  0  0  0  0  0  0  0  0
    3.4146    7.2292    2.2439 H   0  0  0  0  0  0  0  0  0  0  0  0
    1.8311    8.9886    2.9918 H   0  0  0  0  0  0  0  0  0  0  0  0
    0.0988    8.4468    4.6859 H   0  0  0  0  0  0  0  0  0  0  0  0
  1  2  2  0  0  0  0
  2  3  2  0  0  0  0
  2  4  1  0  0  0  0
  2 10  1  0  0  0  0
  4  5  2  0  0  0  0
  4 13  1  0  0  0  0
  5  6  1  0  0  0  0
  5 34  1  0  0  0  0
  6  7  1  0  0  0  0
  6  9  2  0  0  0  0
  7  8  1  0  0  0  0
  8 35  1  0  0  0  0
  8 36  1  0  0  0  0
  8 37  1  0  0  0  0
  9 14  1  0  0  0  0
  9 38  1  0  0  0  0
 10 11  1  0  0  0  0
 10 39  1  0  0  0  0
 11 12  2  0  0  0  0
 11 15  1  0  0  0  0
 12 13  1  0  0  0  0
 13 14  2  0  0  0  0
 14 40  1  0  0  0  0
 15 16  2  0  0  0  0
 15 18  1  0  0  0  0
 16 17  1  0  0  0  0
 16 27  1  0  0  0  0
 17 41  1  0  0  0  0
 18 19  2  0  0  0  0
 18 20  1  0  0  0  0
 20 21  1  0  0  0  0
 20 26  1  0  0  0  0
 21 22  1  0  0  0  0
 21 42  1  0  0  0  0
 21 43  1  0  0  0  0
 22 23  1  0  0  0  0
 22 44  1  0  0  0  0
 22 45  1  0  0  0  0
 23 24  1  0  0  0  0
 23 25  1  0  0  0  0
 23 46  1  0  0  0  0
 24 47  1  0  0  0  0
 24 48  1  0  0  0  0
 24 49  1  0  0  0  0
 25 50  1  0  0  0  0
 25 51  1  0  0  0  0
 25 52  1  0  0  0  0
 26 27  2  0  0  0  0
 27 28  1  0  0  0  0
 28 29  2  0  0  0  0
 28 31  1  0  0  0  0
 29 30  1  0  0  0  0
 29 53  1  0  0  0  0
 30 33  2  0  0  0  0
 30 54  1  0  0  0  0
 31 32  2  0  0  0  0
 31 55  1  0  0  0  0
 32 33  1  0  0  0  0
 32 56  1  0  0  0  0
 33 57  1  0  0  0  0
M  END
>  <DRUGBANK_ID>
DB06974

>  <COMMON_NAME>
5-hydroxy-4-(7-methoxy-1,1-dioxido-2H-1,2,4-benzothiadiazin-3-yl)-2-(3-methylbutyl)-6-phenylpyridazin-3(2H)-one

$$$$
