ISF
 OpenBabel10282417133D

 30 31  0  0  0  0  0  0  0  0999 V2000
  -15.5133    2.4379    0.5492 S   0  0  0  0  0  0  0  0  0  0  0  0
  -14.0707    1.5088    0.4193 C   0  0  0  0  0  0  0  0  0  0  0  0
  -12.9651    2.3348    0.3032 C   0  0  0  0  0  0  0  0  0  0  0  0
  -13.3005    3.7192    0.3425 C   0  0  0  0  0  0  0  0  0  0  0  0
  -14.6535    3.8951    0.4681 C   0  0  0  0  0  0  0  0  0  0  0  0
  -15.5476    5.7428    0.5458 I   0  0  0  0  0  0  0  0  0  0  0  0
  -14.1460    0.0547    0.4218 C   0  0  0  0  0  0  0  0  0  0  0  0
  -15.1872   -0.6010    0.4571 O   0  0  0  0  0  0  0  0  0  0  0  0
  -12.8849   -0.7238    0.3678 C   0  0  0  0  0  0  0  0  0  0  0  0
  -11.9063   -0.5760    1.3557 C   0  0  0  0  0  0  0  0  0  0  0  0
  -10.7476   -1.3560    1.3106 C   0  0  0  0  0  0  0  0  0  0  0  0
  -10.5551   -2.2958    0.2818 C   0  0  0  0  0  0  0  0  0  0  0  0
  -11.5986   -2.4948   -0.6363 C   0  0  0  0  0  0  0  0  0  0  0  0
  -12.7254   -1.6766   -0.6365 C   0  0  0  0  0  0  0  0  0  0  0  0
   -9.2213   -3.0315    0.1421 C   0  0  2  0  0  0  0  0  0  0  0  0
   -8.0319   -2.0547    0.1641 C   0  0  0  0  0  0  0  0  0  0  0  0
   -9.1172   -3.8873   -1.1127 C   0  0  0  0  0  0  0  0  0  0  0  0
   -9.0297   -5.1097   -1.1491 O   0  0  0  0  0  0  0  0  0  0  0  0
   -9.1893   -3.1784   -2.2613 O   0  0  0  0  0  0  0  0  0  0  0  0
   -9.1299   -3.7174    0.9967 H   0  0  0  0  0  0  0  0  0  0  0  0
  -11.9506    1.9727    0.1955 H   0  0  0  0  0  0  0  0  0  0  0  0
  -12.5761    4.5212    0.2741 H   0  0  0  0  0  0  0  0  0  0  0  0
  -12.0334    0.1482    2.1562 H   0  0  0  0  0  0  0  0  0  0  0  0
   -9.9882   -1.2090    2.0776 H   0  0  0  0  0  0  0  0  0  0  0  0
  -11.5461   -3.2760   -1.3906 H   0  0  0  0  0  0  0  0  0  0  0  0
  -13.4640   -1.7890   -1.4266 H   0  0  0  0  0  0  0  0  0  0  0  0
   -7.3790   -2.1656   -0.7080 H   0  0  0  0  0  0  0  0  0  0  0  0
   -8.3427   -1.0046    0.1968 H   0  0  0  0  0  0  0  0  0  0  0  0
   -7.4144   -2.2349    1.0509 H   0  0  0  0  0  0  0  0  0  0  0  0
   -9.2168   -3.8420   -2.9812 H   0  0  0  0  0  0  0  0  0  0  0  0
  1  2  1  0  0  0  0
  1  5  1  0  0  0  0
  2  3  2  0  0  0  0
  2  7  1  0  0  0  0
  3  4  1  0  0  0  0
  3 21  1  0  0  0  0
  4  5  2  0  0  0  0
  4 22  1  0  0  0  0
  5  6  1  0  0  0  0
  7  8  2  0  0  0  0
  7  9  1  0  0  0  0
  9 10  2  0  0  0  0
  9 14  1  0  0  0  0
 10 11  1  0  0  0  0
 10 23  1  0  0  0  0
 11 12  2  0  0  0  0
 11 24  1  0  0  0  0
 12 13  1  0  0  0  0
 13 14  2  0  0  0  0
 13 25  1  0  0  0  0
 14 26  1  0  0  0  0
 15 17  1  0  0  0  0
 15 20  1  1  0  0  0
 15 16  1  0  0  0  0
 15 12  1  0  0  0  0
 16 27  1  0  0  0  0
 16 28  1  0  0  0  0
 16 29  1  0  0  0  0
 17 18  2  0  0  0  0
 17 19  1  0  0  0  0
 19 30  1  0  0  0  0
M  END
>  <DRUGBANK_ID>
DB03752

>  <SECONDARY_ACCESSION_NUMBERS>
EXPT01934

>  <COMMON_NAME>
P-(2'-Iodo-5'-Thenoyl)Hydrotropic Acid

$$$$
