
 OpenBabel10282417173D

 56 58  0  0  0  0  0  0  0  0999 V2000
   -3.7335   -2.7418   -0.8522 N   0  0  0  0  0  0  0  0  0  0  0  0
   -2.3978   -2.6217   -1.0690 C   0  0  0  0  0  0  0  0  0  0  0  0
   -4.4034   -3.0610   -2.0001 C   0  0  0  0  0  0  0  0  0  0  0  0
   -2.1820   -2.7533   -2.4249 C   0  0  0  0  0  0  0  0  0  0  0  0
   -3.4689   -3.0525   -3.0631 C   0  0  0  0  0  0  0  0  0  0  0  0
   -3.5563   -3.3225   -4.5317 C   0  0  0  0  0  0  0  0  0  0  0  0
   -2.5675   -3.2295   -5.2684 O   0  0  0  0  0  0  0  0  0  0  0  0
   -4.6981   -3.7174   -5.1814 N   0  0  0  0  0  0  0  0  0  0  0  0
   -6.0465   -3.7821   -4.6961 C   0  0  0  0  0  0  0  0  0  0  0  0
   -7.0446   -2.6372   -4.9115 C   0  0  0  0  0  0  0  0  0  0  0  0
   -7.5280   -2.6186   -6.2836 N   0  0  0  0  0  0  0  0  0  0  0  0
   -8.5685   -1.6178   -6.5088 C   0  0  0  0  0  0  0  0  0  0  0  0
   -8.1479   -0.1659   -6.3247 C   0  0  0  0  0  0  0  0  0  0  0  0
   -6.4294   -2.5601   -7.2502 C   0  0  0  0  0  0  0  0  0  0  0  0
   -5.4241   -1.4159   -7.0602 C   0  0  0  0  0  0  0  0  0  0  0  0
   -5.8683   -3.3326   -1.7812 C   0  0  0  0  0  0  0  0  0  0  0  0
   -0.8416   -2.6845   -3.0846 C   0  0  0  0  0  0  0  0  0  0  0  0
   -1.5434   -2.4486    0.0469 C   0  0  0  0  0  0  0  0  0  0  0  0
   -1.7881   -5.3244    2.1897 N   0  0  0  0  0  0  0  0  0  0  0  0
   -2.2441   -4.6751    1.0591 C   0  0  0  0  0  0  0  0  0  0  0  0
   -0.8148   -4.5958    2.8479 C   0  0  0  0  0  0  0  0  0  0  0  0
   -0.5463   -3.3908    2.1801 C   0  0  0  0  0  0  0  0  0  0  0  0
   -1.4439   -3.3794    1.0103 C   0  0  0  0  0  0  0  0  0  0  0  0
   -0.1754   -4.9871    4.0045 C   0  0  0  0  0  0  0  0  0  0  0  0
    0.4251   -2.5386    2.6776 C   0  0  0  0  0  0  0  0  0  0  0  0
    1.1011   -2.9282    3.8460 C   0  0  0  0  0  0  0  0  0  0  0  0
    0.7992   -4.1321    4.5104 C   0  0  0  0  0  0  0  0  0  0  0  0
    2.3493   -1.9255    4.4841 Cl  0  0  0  0  0  0  0  0  0  0  0  0
   -3.1180   -5.0819    0.3451 O   0  0  0  0  0  0  0  0  0  0  0  0
   -4.1712   -2.7821    0.0567 H   0  0  0  0  0  0  0  0  0  0  0  0
   -4.4967   -3.9747   -6.1359 H   0  0  0  0  0  0  0  0  0  0  0  0
   -6.4765   -4.7832   -4.7390 H   0  0  0  0  0  0  0  0  0  0  0  0
   -5.8136   -3.6341   -3.7093 H   0  0  0  0  0  0  0  0  0  0  0  0
   -7.8884   -2.7741   -4.2134 H   0  0  0  0  0  0  0  0  0  0  0  0
   -6.5961   -1.6853   -4.5962 H   0  0  0  0  0  0  0  0  0  0  0  0
   -8.9456   -1.7613   -7.5274 H   0  0  0  0  0  0  0  0  0  0  0  0
   -9.4211   -1.8243   -5.8488 H   0  0  0  0  0  0  0  0  0  0  0  0
   -7.4701    0.1507   -7.1120 H   0  0  0  0  0  0  0  0  0  0  0  0
   -9.0025    0.5038   -6.4145 H   0  0  0  0  0  0  0  0  0  0  0  0
   -7.6692    0.0106   -5.3566 H   0  0  0  0  0  0  0  0  0  0  0  0
   -5.9172   -3.5240   -7.2178 H   0  0  0  0  0  0  0  0  0  0  0  0
   -6.8246   -2.5670   -8.2667 H   0  0  0  0  0  0  0  0  0  0  0  0
   -5.2040   -1.1736   -6.0135 H   0  0  0  0  0  0  0  0  0  0  0  0
   -4.4723   -1.6373   -7.5423 H   0  0  0  0  0  0  0  0  0  0  0  0
   -5.7819   -0.5042   -7.5286 H   0  0  0  0  0  0  0  0  0  0  0  0
   -6.4483   -2.5572   -2.2997 H   0  0  0  0  0  0  0  0  0  0  0  0
   -6.1342   -4.3482   -2.1175 H   0  0  0  0  0  0  0  0  0  0  0  0
   -6.2144   -3.2910   -0.7507 H   0  0  0  0  0  0  0  0  0  0  0  0
   -0.6008   -3.6204   -3.5996 H   0  0  0  0  0  0  0  0  0  0  0  0
   -0.8126   -1.8589   -3.8012 H   0  0  0  0  0  0  0  0  0  0  0  0
   -0.0477   -2.5097   -2.3502 H   0  0  0  0  0  0  0  0  0  0  0  0
   -0.9107   -1.5663    0.0417 H   0  0  0  0  0  0  0  0  0  0  0  0
   -2.1568   -6.2236    2.4528 H   0  0  0  0  0  0  0  0  0  0  0  0
   -0.4153   -5.9236    4.4948 H   0  0  0  0  0  0  0  0  0  0  0  0
    0.6745   -1.6047    2.1855 H   0  0  0  0  0  0  0  0  0  0  0  0
    1.3297   -4.4091    5.4188 H   0  0  0  0  0  0  0  0  0  0  0  0
  1 30  1  0  0  0  0
  2  1  1  0  0  0  0
  2 18  1  0  0  0  0
  3  1  1  0  0  0  0
  4  2  2  0  0  0  0
  5  3  2  0  0  0  0
  5  4  1  0  0  0  0
  6  5  1  0  0  0  0
  7  6  2  0  0  0  0
  8  6  1  0  0  0  0
  8 31  1  0  0  0  0
  9  8  1  0  0  0  0
  9 32  1  0  0  0  0
  9 33  1  0  0  0  0
 10  9  1  0  0  0  0
 10 34  1  0  0  0  0
 10 35  1  0  0  0  0
 11 10  1  0  0  0  0
 12 11  1  0  0  0  0
 12 36  1  0  0  0  0
 12 37  1  0  0  0  0
 13 12  1  0  0  0  0
 13 38  1  0  0  0  0
 13 39  1  0  0  0  0
 13 40  1  0  0  0  0
 14 11  1  0  0  0  0
 14 41  1  0  0  0  0
 14 42  1  0  0  0  0
 15 14  1  0  0  0  0
 15 43  1  0  0  0  0
 15 44  1  0  0  0  0
 15 45  1  0  0  0  0
 16  3  1  0  0  0  0
 16 46  1  0  0  0  0
 16 47  1  0  0  0  0
 16 48  1  0  0  0  0
 17  4  1  0  0  0  0
 17 49  1  0  0  0  0
 17 50  1  0  0  0  0
 17 51  1  0  0  0  0
 18 52  1  0  0  0  0
 19 53  1  0  0  0  0
 20 19  1  0  0  0  0
 21 19  1  0  0  0  0
 22 21  2  0  0  0  0
 23 18  2  0  0  0  0
 23 20  1  0  0  0  0
 23 22  1  0  0  0  0
 24 21  1  0  0  0  0
 24 54  1  0  0  0  0
 25 22  1  0  0  0  0
 25 55  1  0  0  0  0
 26 25  2  0  0  0  0
 27 24  2  0  0  0  0
 27 26  1  0  0  0  0
 27 56  1  0  0  0  0
 28 26  1  0  0  0  0
 29 20  2  0  0  0  0
M  END
>  <DRUGBANK_ID>
DB08009

>  <COMMON_NAME>
SU-11652

>  <CAS_NUMBER>
326914-10-7

>  <UNII>
1C7AZL970U

$$$$
