
 OpenBabel10282417223D

 24 25  0  0  0  0  0  0  0  0999 V2000
    1.2416   -1.4076    0.0311 C   0  0  0  0  0  0  0  0  0  0  0  0
   -0.0026   -0.7258    0.0926 C   0  0  0  0  0  0  0  0  0  0  0  0
   -0.0249    0.7005    0.0950 C   0  0  0  0  0  0  0  0  0  0  0  0
    1.1838    1.4067    0.0690 C   0  0  0  0  0  0  0  0  0  0  0  0
    2.4354   -0.6613   -0.0511 C   0  0  0  0  0  0  0  0  0  0  0  0
    2.3997    0.7426   -0.0188 C   0  0  0  0  0  0  0  0  0  0  0  0
    1.2947   -2.8000   -0.1118 N   0  0  0  0  0  0  0  0  0  0  0  0
    1.1612    2.7807    0.0742 O   0  0  0  0  0  0  0  0  0  0  0  0
   -1.2411   -1.3963    0.1173 C   0  0  0  0  0  0  0  0  0  0  0  0
    3.7650   -1.3483   -0.1813 C   0  0  0  0  0  0  0  0  0  0  0  0
   -1.2593    1.3676    0.0533 C   0  0  0  0  0  0  0  0  0  0  0  0
   -2.4441   -0.7171   -0.0458 C   0  0  0  0  0  0  0  0  0  0  0  0
   -2.4457    0.6681   -0.1302 C   0  0  0  0  0  0  0  0  0  0  0  0
    3.3262    1.3036   -0.0900 H   0  0  0  0  0  0  0  0  0  0  0  0
    0.4678   -3.3636    0.0035 H   0  0  0  0  0  0  0  0  0  0  0  0
    2.1787   -3.2854   -0.0835 H   0  0  0  0  0  0  0  0  0  0  0  0
    2.0687    3.1157    0.0040 H   0  0  0  0  0  0  0  0  0  0  0  0
   -1.2885   -2.4769    0.2211 H   0  0  0  0  0  0  0  0  0  0  0  0
    3.9298   -1.9936    0.6873 H   0  0  0  0  0  0  0  0  0  0  0  0
    3.7922   -1.9473   -1.0977 H   0  0  0  0  0  0  0  0  0  0  0  0
    4.5888   -0.6307   -0.2271 H   0  0  0  0  0  0  0  0  0  0  0  0
   -1.2924    2.4558    0.1095 H   0  0  0  0  0  0  0  0  0  0  0  0
   -3.3727   -1.2729   -0.1167 H   0  0  0  0  0  0  0  0  0  0  0  0
   -3.3644    1.2033   -0.3429 H   0  0  0  0  0  0  0  0  0  0  0  0
  2  1  2  0  0  0  0
  3  2  1  0  0  0  0
  4  6  1  0  0  0  0
  4  3  2  0  0  0  0
  5  1  1  0  0  0  0
  6  5  2  0  0  0  0
  6 14  1  0  0  0  0
  7  1  1  0  0  0  0
  7 15  1  0  0  0  0
  7 16  1  0  0  0  0
  8  4  1  0  0  0  0
  8 17  1  0  0  0  0
  9  2  1  0  0  0  0
  9 18  1  0  0  0  0
 10  5  1  0  0  0  0
 10 19  1  0  0  0  0
 10 20  1  0  0  0  0
 10 21  1  0  0  0  0
 11  3  1  0  0  0  0
 11 13  2  0  0  0  0
 11 22  1  0  0  0  0
 12  9  2  0  0  0  0
 12 23  1  0  0  0  0
 13 12  1  0  0  0  0
 13 24  1  0  0  0  0
M  END
>  <DRUGBANK_ID>
DB15664

>  <COMMON_NAME>
Vitamin K7

>  <CAS_NUMBER>
83-69-2

>  <UNII>
HEE4JPA7DF

>  <SYNONYMS>
1-amino-2-methyl-4-naphthol; 1-hydroxy-3-methyl-4-aminonaphthalene; 2-methyl-4-hydroxy-1-naphthylamine; 3-methyl-4-amino-1-naphthol; 4-amino-3-methyl-1-naphthol; 4-Amino-3-methylnaphthol

$$$$
