
 OpenBabel10282417233D

 57 61  0  0  0  0  0  0  0  0999 V2000
    2.4252    0.0012    0.0605 C   0  0  0  0  0  0  0  0  0  0  0  0
    1.0094   -0.0028   -0.2966 N   0  0  0  0  0  0  0  0  0  0  0  0
    0.3240   -1.1997    0.2548 C   0  0  0  0  0  0  0  0  0  0  0  0
   -1.1830   -1.2263   -0.1181 C   0  0  0  0  0  0  0  0  0  0  0  0
   -1.8071    0.0138    0.3478 N   0  0  0  0  0  0  0  0  0  0  0  0
   -1.1873    1.2367   -0.1573 C   0  0  0  0  0  0  0  0  0  0  0  0
    0.3219    1.2069    0.2236 C   0  0  0  0  0  0  0  0  0  0  0  0
   -3.1447    0.0014    0.7120 C   0  0  0  0  0  0  0  0  0  0  0  0
   -4.2033    0.6493    0.0357 C   0  0  0  0  0  0  0  0  0  0  0  0
   -4.2053    1.2992   -1.1649 N   0  0  0  0  0  0  0  0  0  0  0  0
   -5.4268    1.7457   -1.3845 C   0  0  0  0  0  0  0  0  0  0  0  0
   -6.2915    1.3651   -0.3230 N   0  0  0  0  0  0  0  0  0  0  0  0
   -7.7670    1.6021   -0.2184 C   0  0  0  0  0  0  0  0  0  0  0  0
   -8.5893    0.9677   -1.3698 C   0  0  0  0  0  0  0  0  0  0  0  0
  -10.0609    1.4098   -1.3909 C   0  0  0  0  0  0  0  0  0  0  0  0
  -10.1833    2.8273   -1.3939 O   0  0  0  0  0  0  0  0  0  0  0  0
   -9.6517    3.3983   -0.2027 C   0  0  0  0  0  0  0  0  0  0  0  0
   -8.1615    3.0910   -0.1180 C   0  0  0  0  0  0  0  0  0  0  0  0
   -5.4811    0.6534    0.6100 C   0  0  0  0  0  0  0  0  0  0  0  0
   -5.7808    0.0779    1.8115 N   0  0  0  0  0  0  0  0  0  0  0  0
   -4.6872   -0.5330    2.3895 C   0  0  0  0  0  0  0  0  0  0  0  0
   -4.7902   -1.1971    3.7489 C   0  0  0  0  0  0  0  0  0  0  0  0
   -3.4377   -0.6114    1.8773 N   0  0  0  0  0  0  0  0  0  0  0  0
   -5.6995    2.4659   -2.6561 C   0  0  0  0  0  0  0  0  0  0  0  0
   -5.4036    1.8125   -3.8764 C   0  0  0  0  0  0  0  0  0  0  0  0
   -5.5841    2.4420   -5.1209 C   0  0  0  0  0  0  0  0  0  0  0  0
   -6.1047    3.7280   -5.1784 C   0  0  0  0  0  0  0  0  0  0  0  0
   -6.3191    4.4219   -3.9921 C   0  0  0  0  0  0  0  0  0  0  0  0
   -6.0169    3.8292   -2.7539 C   0  0  0  0  0  0  0  0  0  0  0  0
   -5.8159    4.9309   -1.4241 Cl  0  0  0  0  0  0  0  0  0  0  0  0
    2.9254    0.8791   -0.3641 H   0  0  0  0  0  0  0  0  0  0  0  0
    2.5865    0.0025    1.1440 H   0  0  0  0  0  0  0  0  0  0  0  0
    2.9280   -0.8764   -0.3620 H   0  0  0  0  0  0  0  0  0  0  0  0
    0.8034   -2.1099   -0.1247 H   0  0  0  0  0  0  0  0  0  0  0  0
    0.4157   -1.2120    1.3500 H   0  0  0  0  0  0  0  0  0  0  0  0
   -1.2788   -1.3093   -1.2104 H   0  0  0  0  0  0  0  0  0  0  0  0
   -1.6464   -2.1168    0.3212 H   0  0  0  0  0  0  0  0  0  0  0  0
   -1.2955    1.3165   -1.2461 H   0  0  0  0  0  0  0  0  0  0  0  0
   -1.6380    2.1245    0.3014 H   0  0  0  0  0  0  0  0  0  0  0  0
    0.4084    1.2346    1.3199 H   0  0  0  0  0  0  0  0  0  0  0  0
    0.8052    2.1104   -0.1643 H   0  0  0  0  0  0  0  0  0  0  0  0
   -8.0807    1.1203    0.7181 H   0  0  0  0  0  0  0  0  0  0  0  0
   -8.1568    1.2678   -2.3295 H   0  0  0  0  0  0  0  0  0  0  0  0
   -8.5429   -0.1244   -1.3215 H   0  0  0  0  0  0  0  0  0  0  0  0
  -10.5436    1.0503   -2.3072 H   0  0  0  0  0  0  0  0  0  0  0  0
  -10.6293    1.0081   -0.5454 H   0  0  0  0  0  0  0  0  0  0  0  0
  -10.2196    3.0569    0.6673 H   0  0  0  0  0  0  0  0  0  0  0  0
   -9.7957    4.4844   -0.2841 H   0  0  0  0  0  0  0  0  0  0  0  0
   -7.7109    3.5801    0.7495 H   0  0  0  0  0  0  0  0  0  0  0  0
   -7.7940    3.5595   -1.0179 H   0  0  0  0  0  0  0  0  0  0  0  0
   -5.0952   -0.4900    4.5257 H   0  0  0  0  0  0  0  0  0  0  0  0
   -5.4765   -2.0474    3.7288 H   0  0  0  0  0  0  0  0  0  0  0  0
   -3.8103   -1.5952    4.0635 H   0  0  0  0  0  0  0  0  0  0  0  0
   -4.9583    0.8171   -3.8684 H   0  0  0  0  0  0  0  0  0  0  0  0
   -5.3029    1.9357   -6.0432 H   0  0  0  0  0  0  0  0  0  0  0  0
   -6.2748    4.2166   -6.1359 H   0  0  0  0  0  0  0  0  0  0  0  0
   -6.6581    5.4539   -4.0369 H   0  0  0  0  0  0  0  0  0  0  0  0
  1  2  1  0  0  0  0
  1 31  1  0  0  0  0
  1 32  1  0  0  0  0
  1 33  1  0  0  0  0
  2  3  1  0  0  0  0
  2  7  1  0  0  0  0
  3  4  1  0  0  0  0
  3 34  1  0  0  0  0
  3 35  1  0  0  0  0
  4  5  1  0  0  0  0
  4 36  1  0  0  0  0
  4 37  1  0  0  0  0
  5  6  1  0  0  0  0
  5  8  1  0  0  0  0
  6  7  1  0  0  0  0
  6 38  1  0  0  0  0
  6 39  1  0  0  0  0
  7 40  1  0  0  0  0
  7 41  1  0  0  0  0
  8  9  2  0  0  0  0
  8 23  1  0  0  0  0
  9 10  1  0  0  0  0
  9 19  1  0  0  0  0
 10 11  2  0  0  0  0
 11 12  1  0  0  0  0
 11 24  1  0  0  0  0
 12 13  1  0  0  0  0
 12 19  1  0  0  0  0
 13 14  1  0  0  0  0
 13 18  1  0  0  0  0
 13 42  1  0  0  0  0
 14 15  1  0  0  0  0
 14 43  1  0  0  0  0
 14 44  1  0  0  0  0
 15 16  1  0  0  0  0
 15 45  1  0  0  0  0
 15 46  1  0  0  0  0
 16 17  1  0  0  0  0
 17 18  1  0  0  0  0
 17 47  1  0  0  0  0
 17 48  1  0  0  0  0
 18 49  1  0  0  0  0
 18 50  1  0  0  0  0
 19 20  2  0  0  0  0
 20 21  1  0  0  0  0
 21 22  1  0  0  0  0
 21 23  2  0  0  0  0
 22 51  1  0  0  0  0
 22 52  1  0  0  0  0
 22 53  1  0  0  0  0
 24 25  2  0  0  0  0
 24 29  1  0  0  0  0
 25 26  1  0  0  0  0
 25 54  1  0  0  0  0
 26 27  2  0  0  0  0
 26 55  1  0  0  0  0
 27 28  1  0  0  0  0
 27 56  1  0  0  0  0
 28 29  2  0  0  0  0
 28 57  1  0  0  0  0
 29 30  1  0  0  0  0
M  END
>  <DRUGBANK_ID>
DB16074

>  <COMMON_NAME>
LY2828360

>  <CAS_NUMBER>
1231220-79-3

>  <UNII>
O12H7VFU6P

$$$$
