4BQ
 OpenBabel10282417163D

 44 45  0  0  0  0  0  0  0  0999 V2000
   -4.6938   -0.1541   -8.5448 C   0  0  0  0  0  0  0  0  0  0  0  0
   -4.2064   -0.5592   -9.7890 C   0  0  0  0  0  0  0  0  0  0  0  0
   -3.8691    0.3925  -10.7595 C   0  0  0  0  0  0  0  0  0  0  0  0
   -4.0192    1.7565  -10.4985 C   0  0  0  0  0  0  0  0  0  0  0  0
   -4.5459    2.1711   -9.2767 C   0  0  0  0  0  0  0  0  0  0  0  0
   -4.8464    1.2163   -8.2752 C   0  0  0  0  0  0  0  0  0  0  0  0
   -4.8927    1.6859   -6.8427 C   0  0  0  0  0  0  0  0  0  0  0  0
   -3.7880    2.5798   -6.6843 O   0  0  0  0  0  0  0  0  0  0  0  0
   -2.6322    1.8571   -6.6104 C   0  0  0  0  0  0  0  0  0  0  0  0
   -1.9899    1.0976   -7.6683 C   0  0  0  0  0  0  0  0  0  0  0  0
   -0.7634    0.3689   -7.6474 C   0  0  0  0  0  0  0  0  0  0  0  0
   -2.0939    1.9237   -5.4040 C   0  0  0  0  0  0  0  0  0  0  0  0
   -0.9614    1.1519   -5.3416 C   0  0  0  0  0  0  0  0  0  0  0  0
   -0.1231    0.3699   -6.4380 C   0  0  0  0  0  0  0  0  0  0  0  0
    1.5565   -0.0518   -6.3974 N   0  0  0  0  0  0  0  0  0  0  0  0
    2.8659    0.1946   -5.4598 C   0  0  0  0  0  0  0  0  0  0  0  0
    3.9296   -0.3343   -5.7609 O   0  0  0  0  0  0  0  0  0  0  0  0
    2.8957    1.3376   -4.1222 C   0  0  0  0  0  0  0  0  0  0  0  0
    2.4861    2.9849   -4.5664 C   0  0  0  0  0  0  0  0  0  0  0  0
    1.3544    3.1802   -5.5623 C   0  0  1  0  0  0  0  0  0  0  0  0
    1.5149    3.2502   -7.1438 C   0  0  0  0  0  0  0  0  0  0  0  0
    0.7070    2.9586   -7.9773 O   0  0  0  0  0  0  0  0  0  0  0  0
    2.7225    3.7507   -7.5035 O   0  0  0  0  0  0  0  0  0  0  0  0
    1.1267    1.8914   -5.2239 N   0  0  0  0  0  0  0  0  0  0  0  0
    0.4528    3.7375   -5.3164 H   0  0  0  0  0  0  0  0  0  0  0  0
   -4.7890   -0.8867   -7.7440 H   0  0  0  0  0  0  0  0  0  0  0  0
   -4.0051   -1.6116   -9.9700 H   0  0  0  0  0  0  0  0  0  0  0  0
   -3.4406    0.0727  -11.7049 H   0  0  0  0  0  0  0  0  0  0  0  0
   -3.6416    2.4962  -11.2006 H   0  0  0  0  0  0  0  0  0  0  0  0
   -4.5235    3.2335   -9.0237 H   0  0  0  0  0  0  0  0  0  0  0  0
   -5.7977    2.2585   -6.6374 H   0  0  0  0  0  0  0  0  0  0  0  0
   -4.8353    0.8693   -6.1023 H   0  0  0  0  0  0  0  0  0  0  0  0
   -2.4627    1.0723   -8.6240 H   0  0  0  0  0  0  0  0  0  0  0  0
   -0.3865   -0.0277   -8.5940 H   0  0  0  0  0  0  0  0  0  0  0  0
   -2.4016    2.5780   -4.5763 H   0  0  0  0  0  0  0  0  0  0  0  0
   -0.6325    1.6042   -4.3968 H   0  0  0  0  0  0  0  0  0  0  0  0
    1.8504   -0.4432   -7.3123 H   0  0  0  0  0  0  0  0  0  0  0  0
    2.1694    0.9467   -3.3735 H   0  0  0  0  0  0  0  0  0  0  0  0
    3.8086    1.3867   -3.5149 H   0  0  0  0  0  0  0  0  0  0  0  0
    2.1110    3.5079   -3.6729 H   0  0  0  0  0  0  0  0  0  0  0  0
    3.3828    3.4464   -4.9503 H   0  0  0  0  0  0  0  0  0  0  0  0
    3.2652    3.9787   -6.7403 H   0  0  0  0  0  0  0  0  0  0  0  0
    1.4305    1.2970   -5.9706 H   0  0  0  0  0  0  0  0  0  0  0  0
    0.8714    1.2953   -4.4244 H   0  0  0  0  0  0  0  0  0  0  0  0
  1  2  1  0  0  0  0
  1 26  1  0  0  0  0
  2  3  2  0  0  0  0
  2 27  1  0  0  0  0
  3 28  1  0  0  0  0
  4  3  1  0  0  0  0
  4 29  1  0  0  0  0
  5  4  2  0  0  0  0
  5 30  1  0  0  0  0
  6  1  2  0  0  0  0
  6  5  1  0  0  0  0
  7  6  1  0  0  0  0
  7 31  1  0  0  0  0
  7 32  1  0  0  0  0
  8  7  1  0  0  0  0
  9  8  1  0  0  0  0
 10  9  2  0  0  0  0
 10 33  1  0  0  0  0
 11 10  1  0  0  0  0
 11 34  1  0  0  0  0
 12  9  1  0  0  0  0
 12 35  1  0  0  0  0
 13 12  2  0  0  0  0
 13 36  1  0  0  0  0
 14 11  2  0  0  0  0
 14 13  1  0  0  0  0
 15 14  1  0  0  0  0
 15 37  1  0  0  0  0
 16 15  1  0  0  0  0
 16 17  2  0  0  0  0
 18 16  1  0  0  0  0
 18 19  1  0  0  0  0
 18 38  1  0  0  0  0
 18 39  1  0  0  0  0
 19 40  1  0  0  0  0
 19 41  1  0  0  0  0
 20 25  1  1  0  0  0
 20 24  1  0  0  0  0
 20 21  1  0  0  0  0
 20 19  1  0  0  0  0
 21 23  1  0  0  0  0
 22 21  2  0  0  0  0
 23 42  1  0  0  0  0
 24 43  1  0  0  0  0
 24 44  1  0  0  0  0
M  END
>  <DRUGBANK_ID>
DB07102

>  <COMMON_NAME>
(2S)-2-amino-5-oxo-5-[(4-phenylmethoxyphenyl)amino]pentanoic acid

$$$$
