
 OpenBabel10282417123D

 13 14  0  0  0  0  0  0  0  0999 V2000
    0.9830    0.1308   -0.0161 Br  0  0  0  0  0  0  0  0  0  0  0  0
    3.2030   -2.4436   -0.0186 N   0  0  0  0  0  0  0  0  0  0  0  0
    5.4228   -2.3991   -0.0268 N   0  0  0  0  0  0  0  0  0  0  0  0
    5.6701    0.0035   -0.0298 N   0  0  0  0  0  0  0  0  0  0  0  0
    3.5784    1.2120   -0.0234 N   0  0  0  0  0  0  0  0  0  0  0  0
    3.5519   -1.1225   -0.0209 C   0  0  0  0  0  0  0  0  0  0  0  0
    4.9332   -1.1207   -0.0259 C   0  0  0  0  0  0  0  0  0  0  0  0
    2.8652    0.0692   -0.0199 C   0  0  0  0  0  0  0  0  0  0  0  0
    4.3598   -3.1735   -0.0225 C   0  0  0  0  0  0  0  0  0  0  0  0
    4.9229    1.1152   -0.0283 C   0  0  0  0  0  0  0  0  0  0  0  0
    2.2619   -2.8140   -0.0150 H   0  0  0  0  0  0  0  0  0  0  0  0
    4.3632   -4.2559   -0.0220 H   0  0  0  0  0  0  0  0  0  0  0  0
    5.4668    2.0555   -0.0318 H   0  0  0  0  0  0  0  0  0  0  0  0
  1  8  1  0  0  0  0
  2  6  1  0  0  0  0
  2  9  1  0  0  0  0
  2 11  1  0  0  0  0
  3  7  1  0  0  0  0
  3  9  2  0  0  0  0
  4  7  1  0  0  0  0
  4 10  2  0  0  0  0
  5  8  2  0  0  0  0
  5 10  1  0  0  0  0
  6  7  2  0  0  0  0
  6  8  1  0  0  0  0
  9 12  1  0  0  0  0
 10 13  1  0  0  0  0
M  END
>  <DRUGBANK_ID>
DB02168

>  <SECONDARY_ACCESSION_NUMBERS>
EXPT00741

>  <COMMON_NAME>
6-bromopurine

>  <CAS_NUMBER>
767-69-1

>  <SYNONYMS>
6-bromo-1H-purine

$$$$
