RB1
 OpenBabel10282417173D

 41 43  0  0  0  0  0  0  0  0999 V2000
    0.9927   -0.1363    0.0654 C   0  0  0  0  0  0  0  0  0  0  0  0
    0.4680   -0.5898    1.4435 C   0  0  0  0  0  0  0  0  0  0  0  0
    0.9916    0.4072    2.5032 C   0  0  0  0  0  0  0  0  0  0  0  0
   -1.0722   -0.4627    1.4442 C   0  0  0  0  0  0  0  0  0  0  0  0
    0.8990   -1.9782    1.7247 N   0  0  0  0  0  0  0  0  0  0  0  0
    2.0433   -2.2344    2.4296 N   0  0  0  0  0  0  0  0  0  0  0  0
    0.2793   -3.1400    1.3109 C   0  0  0  0  0  0  0  0  0  0  0  0
   -0.8931   -3.2698    0.6642 N   0  0  0  0  0  0  0  0  0  0  0  0
   -1.2167   -4.5535    0.4564 C   0  0  0  0  0  0  0  0  0  0  0  0
   -0.4823   -5.6454    0.7228 N   0  0  0  0  0  0  0  0  0  0  0  0
    0.7486   -5.4638    1.2270 C   0  0  0  0  0  0  0  0  0  0  0  0
    1.5561   -6.5929    1.3107 N   0  0  0  0  0  0  0  0  0  0  0  0
    1.1127   -4.1799    1.6629 C   0  0  0  0  0  0  0  0  0  0  0  0
    2.1290   -3.5810    2.4508 C   0  0  0  0  0  0  0  0  0  0  0  0
    3.2168   -4.2919    3.2029 C   0  0  0  0  0  0  0  0  0  0  0  0
    2.6048   -5.0256    4.3986 C   0  0  0  0  0  0  0  0  0  0  0  0
    1.6366   -6.0434    4.3200 C   0  0  0  0  0  0  0  0  0  0  0  0
    3.0349   -4.7111    5.6913 C   0  0  0  0  0  0  0  0  0  0  0  0
    2.4760   -5.3522    6.8089 C   0  0  0  0  0  0  0  0  0  0  0  0
    1.5178   -6.3577    6.6765 C   0  0  0  0  0  0  0  0  0  0  0  0
    1.1153   -6.7189    5.4103 C   0  0  0  0  0  0  0  0  0  0  0  0
    0.1925   -7.7091    5.2541 O   0  0  0  0  0  0  0  0  0  0  0  0
    0.6473    0.8790   -0.1709 H   0  0  0  0  0  0  0  0  0  0  0  0
    0.6440   -0.7948   -0.7376 H   0  0  0  0  0  0  0  0  0  0  0  0
    2.0881   -0.1233    0.0340 H   0  0  0  0  0  0  0  0  0  0  0  0
    0.6330    1.4241    2.2953 H   0  0  0  0  0  0  0  0  0  0  0  0
    0.6481    0.1358    3.5073 H   0  0  0  0  0  0  0  0  0  0  0  0
    2.0862    0.4528    2.5196 H   0  0  0  0  0  0  0  0  0  0  0  0
   -1.5358   -1.0350    0.6361 H   0  0  0  0  0  0  0  0  0  0  0  0
   -1.4922   -0.8106    2.3945 H   0  0  0  0  0  0  0  0  0  0  0  0
   -1.3921    0.5730    1.2870 H   0  0  0  0  0  0  0  0  0  0  0  0
   -2.1794   -4.7348   -0.0098 H   0  0  0  0  0  0  0  0  0  0  0  0
    2.4026   -6.5068    1.8576 H   0  0  0  0  0  0  0  0  0  0  0  0
    1.0029   -7.4248    1.4890 H   0  0  0  0  0  0  0  0  0  0  0  0
    3.7427   -4.9903    2.5407 H   0  0  0  0  0  0  0  0  0  0  0  0
    3.9736   -3.5712    3.5395 H   0  0  0  0  0  0  0  0  0  0  0  0
    1.1777   -6.3348    3.4028 H   0  0  0  0  0  0  0  0  0  0  0  0
    3.7876   -3.9419    5.8418 H   0  0  0  0  0  0  0  0  0  0  0  0
    2.7848   -5.0492    7.8058 H   0  0  0  0  0  0  0  0  0  0  0  0
    1.0707   -6.8395    7.5353 H   0  0  0  0  0  0  0  0  0  0  0  0
    0.0112   -7.8405    4.3047 H   0  0  0  0  0  0  0  0  0  0  0  0
  1  2  1  0  0  0  0
  1 23  1  0  0  0  0
  1 24  1  0  0  0  0
  1 25  1  0  0  0  0
  2  3  1  0  0  0  0
  2  4  1  0  0  0  0
  2  5  1  0  0  0  0
  3 26  1  0  0  0  0
  3 27  1  0  0  0  0
  3 28  1  0  0  0  0
  4 29  1  0  0  0  0
  4 30  1  0  0  0  0
  4 31  1  0  0  0  0
  5  6  1  0  0  0  0
  5  7  1  0  0  0  0
  6 14  2  0  0  0  0
  7  8  1  0  0  0  0
  7 13  2  0  0  0  0
  8  9  2  0  0  0  0
  9 10  1  0  0  0  0
  9 32  1  0  0  0  0
 10 11  2  0  0  0  0
 11 12  1  0  0  0  0
 11 13  1  0  0  0  0
 12 33  1  0  0  0  0
 12 34  1  0  0  0  0
 13 14  1  0  0  0  0
 14 15  1  0  0  0  0
 15 16  1  0  0  0  0
 15 35  1  0  0  0  0
 15 36  1  0  0  0  0
 16 17  2  0  0  0  0
 16 18  1  0  0  0  0
 17 21  1  0  0  0  0
 17 37  1  0  0  0  0
 18 19  2  0  0  0  0
 18 38  1  0  0  0  0
 19 20  1  0  0  0  0
 19 39  1  0  0  0  0
 20 21  2  0  0  0  0
 20 40  1  0  0  0  0
 21 22  1  0  0  0  0
 22 41  1  0  0  0  0
M  END
>  <DRUGBANK_ID>
DB08461

>  <COMMON_NAME>
3-[(4-AMINO-1-TERT-BUTYL-1H-PYRAZOLO[3,4-D]PYRIMIDIN-3-YL)METHYL]PHENOL

$$$$
