
 OpenBabel10282417203D

 74 76  0  0  1  0  0  0  0  0999 V2000
    0.0668   -3.6856   -2.5404 C   0  0  0  0  0  0  0  0  0  0  0  0
    1.5509   -3.6037   -2.1307 C   0  0  2  0  0  0  0  0  0  0  0  0
    1.6622   -4.1486   -0.6773 C   0  0  0  0  0  0  0  0  0  0  0  0
    1.4631   -3.1120    0.4302 C   0  0  0  0  0  0  0  0  0  0  0  0
    0.0579   -2.5029    0.5921 C   0  0  2  0  0  0  0  0  0  0  0  0
    0.0056   -1.0469    1.1951 C   0  0  0  0  0  0  0  0  0  0  0  0
    1.2903   -0.6745    1.9437 C   0  0  0  0  0  0  0  0  0  0  0  0
   -0.4187    0.0799    0.2004 C   0  0  0  0  0  0  0  0  0  0  0  0
   -0.7117   -3.4066    1.3753 O   0  0  0  0  0  0  0  0  0  0  0  0
    2.2289   -2.2263   -2.4651 C   0  0  1  0  0  0  0  0  0  0  0  0
    1.5742   -0.9856   -1.8609 C   0  0  0  0  0  0  0  0  0  0  0  0
    2.6291   -0.0764   -1.2385 C   0  0  0  0  0  0  0  0  0  0  0  0
    3.8362   -0.4892   -1.9952 C   0  0  2  0  0  0  0  0  0  0  0  0
    3.7341   -2.0311   -2.1365 C   0  0  2  0  0  0  0  0  0  0  0  0
    4.6071   -2.4304   -3.3326 C   0  0  0  0  0  0  0  0  0  0  0  0
    6.0533   -2.0625   -3.0445 C   0  0  0  0  0  0  0  0  0  0  0  0
    6.1593   -0.6346   -2.5446 C   0  0  0  0  0  0  0  0  0  0  0  0
    5.1840   -0.1569   -1.5041 C   0  0  0  0  0  0  0  0  0  0  0  0
    5.5086    0.5456   -0.3750 C   0  0  0  0  0  0  0  0  0  0  0  0
    6.8312    1.0893   -0.1775 C   0  0  0  0  0  0  0  0  0  0  0  0
    7.5272    1.7792   -1.1205 C   0  0  0  0  0  0  0  0  0  0  0  0
    8.9661    2.1584   -0.8870 C   0  0  0  0  0  0  0  0  0  0  0  0
    9.8964    1.6919   -2.0218 C   0  0  2  0  0  0  0  0  0  0  0  0
    9.3740    2.0517   -3.4150 C   0  0  0  0  0  0  0  0  0  0  0  0
    7.9525    1.5724   -3.6109 C   0  0  1  0  0  0  0  0  0  0  0  0
    7.0376    2.0762   -2.4875 C   0  0  0  0  0  0  0  0  0  0  0  0
    5.8082    2.5850   -2.7169 C   0  0  0  0  0  0  0  0  0  0  0  0
    7.4726    1.9292   -4.9030 O   0  0  0  0  0  0  0  0  0  0  0  0
   10.1574    0.2874   -1.9261 O   0  0  0  0  0  0  0  0  0  0  0  0
    4.3254   -2.7762   -0.8999 C   0  0  0  0  0  0  0  0  0  0  0  0
   -0.3753   -4.6112   -2.1485 H   0  0  0  0  0  0  0  0  0  0  0  0
   -0.0606   -3.6920   -3.6231 H   0  0  0  0  0  0  0  0  0  0  0  0
   -0.5412   -2.8590   -2.1748 H   0  0  0  0  0  0  0  0  0  0  0  0
    2.0627   -4.3332   -2.7745 H   0  0  0  0  0  0  0  0  0  0  0  0
    0.9938   -4.9992   -0.5136 H   0  0  0  0  0  0  0  0  0  0  0  0
    2.6472   -4.6116   -0.5587 H   0  0  0  0  0  0  0  0  0  0  0  0
    1.8442   -3.5197    1.3744 H   0  0  0  0  0  0  0  0  0  0  0  0
    2.1235   -2.3033    0.1904 H   0  0  0  0  0  0  0  0  0  0  0  0
   -0.4713   -2.4671   -0.3494 H   0  0  0  0  0  0  0  0  0  0  0  0
   -0.8004   -1.0506    1.9327 H   0  0  0  0  0  0  0  0  0  0  0  0
    2.1928   -0.7789    1.3581 H   0  0  0  0  0  0  0  0  0  0  0  0
    1.2895    0.3636    2.2788 H   0  0  0  0  0  0  0  0  0  0  0  0
    1.4528   -1.3523    2.7830 H   0  0  0  0  0  0  0  0  0  0  0  0
   -1.2916   -0.2104   -0.3961 H   0  0  0  0  0  0  0  0  0  0  0  0
   -0.6389    1.0117    0.7262 H   0  0  0  0  0  0  0  0  0  0  0  0
    0.3362    0.4095   -0.5070 H   0  0  0  0  0  0  0  0  0  0  0  0
   -0.2169   -3.5713    2.1926 H   0  0  0  0  0  0  0  0  0  0  0  0
    2.0933   -2.0804   -3.5484 H   0  0  0  0  0  0  0  0  0  0  0  0
    0.9129   -1.3180   -1.1074 H   0  0  0  0  0  0  0  0  0  0  0  0
    0.9396   -0.4501   -2.5731 H   0  0  0  0  0  0  0  0  0  0  0  0
    2.8331   -0.2672   -0.1971 H   0  0  0  0  0  0  0  0  0  0  0  0
    2.3752    0.9888   -1.2974 H   0  0  0  0  0  0  0  0  0  0  0  0
    3.7129    0.0090   -2.9725 H   0  0  0  0  0  0  0  0  0  0  0  0
    4.2734   -1.8968   -4.2327 H   0  0  0  0  0  0  0  0  0  0  0  0
    4.5217   -3.5006   -3.5318 H   0  0  0  0  0  0  0  0  0  0  0  0
    6.6594   -2.1645   -3.9464 H   0  0  0  0  0  0  0  0  0  0  0  0
    6.5021   -2.7279   -2.3020 H   0  0  0  0  0  0  0  0  0  0  0  0
    5.9602   -0.0209   -3.4309 H   0  0  0  0  0  0  0  0  0  0  0  0
    7.1756   -0.5380   -2.1801 H   0  0  0  0  0  0  0  0  0  0  0  0
    4.7721    0.8151    0.3737 H   0  0  0  0  0  0  0  0  0  0  0  0
    7.2644    0.8975    0.8052 H   0  0  0  0  0  0  0  0  0  0  0  0
    9.3236    1.7369    0.0615 H   0  0  0  0  0  0  0  0  0  0  0  0
    9.0087    3.2494   -0.8029 H   0  0  0  0  0  0  0  0  0  0  0  0
   10.8661    2.1786   -1.8897 H   0  0  0  0  0  0  0  0  0  0  0  0
    9.4027    3.1337   -3.5730 H   0  0  0  0  0  0  0  0  0  0  0  0
   10.0008    1.5916   -4.1887 H   0  0  0  0  0  0  0  0  0  0  0  0
    8.0097    0.4820   -3.6393 H   0  0  0  0  0  0  0  0  0  0  0  0
    5.1206    2.8197   -1.9093 H   0  0  0  0  0  0  0  0  0  0  0  0
    5.3841    2.6052   -3.7163 H   0  0  0  0  0  0  0  0  0  0  0  0
    7.2871    2.8804   -4.8837 H   0  0  0  0  0  0  0  0  0  0  0  0
    9.3144   -0.1984   -1.9270 H   0  0  0  0  0  0  0  0  0  0  0  0
    3.8854   -2.5327    0.0601 H   0  0  0  0  0  0  0  0  0  0  0  0
    4.3257   -3.8506   -1.0821 H   0  0  0  0  0  0  0  0  0  0  0  0
    5.3720   -2.5459   -0.6880 H   0  0  0  0  0  0  0  0  0  0  0  0
  1 31  1  0  0  0  0
  1 32  1  0  0  0  0
  1 33  1  0  0  0  0
  2 34  1  6  0  0  0
  2  3  1  0  0  0  0
  2  1  1  0  0  0  0
  3  4  1  0  0  0  0
  3 35  1  0  0  0  0
  3 36  1  0  0  0  0
  4 37  1  0  0  0  0
  4 38  1  0  0  0  0
  5  9  1  0  0  0  0
  5 39  1  6  0  0  0
  5  6  1  0  0  0  0
  5  4  1  0  0  0  0
  6  7  1  0  0  0  0
  6  8  1  0  0  0  0
  6 40  1  0  0  0  0
  7 41  1  0  0  0  0
  7 42  1  0  0  0  0
  7 43  1  0  0  0  0
  8 44  1  0  0  0  0
  8 45  1  0  0  0  0
  8 46  1  0  0  0  0
  9 47  1  0  0  0  0
 10  2  1  0  0  0  0
 10 11  1  0  0  0  0
 10 14  1  0  0  0  0
 10 48  1  6  0  0  0
 11 12  1  0  0  0  0
 11 49  1  0  0  0  0
 11 50  1  0  0  0  0
 12 51  1  0  0  0  0
 12 52  1  0  0  0  0
 13 12  1  0  0  0  0
 13 14  1  0  0  0  0
 13 18  1  0  0  0  0
 13 53  1  6  0  0  0
 14 15  1  0  0  0  0
 14 30  1  1  0  0  0
 15 16  1  0  0  0  0
 15 54  1  0  0  0  0
 15 55  1  0  0  0  0
 16 17  1  0  0  0  0
 16 56  1  0  0  0  0
 16 57  1  0  0  0  0
 17 18  1  0  0  0  0
 17 58  1  0  0  0  0
 17 59  1  0  0  0  0
 18 19  2  0  0  0  0
 19 20  1  0  0  0  0
 19 60  1  0  0  0  0
 20 21  2  0  0  0  0
 20 61  1  0  0  0  0
 21 22  1  0  0  0  0
 21 26  1  0  0  0  0
 22 23  1  0  0  0  0
 22 62  1  0  0  0  0
 22 63  1  0  0  0  0
 23 24  1  0  0  0  0
 23 29  1  0  0  0  0
 23 64  1  1  0  0  0
 24 25  1  0  0  0  0
 24 65  1  0  0  0  0
 24 66  1  0  0  0  0
 25 26  1  0  0  0  0
 25 28  1  0  0  0  0
 25 67  1  1  0  0  0
 26 27  2  0  0  0  0
 27 68  1  0  0  0  0
 27 69  1  0  0  0  0
 28 70  1  0  0  0  0
 29 71  1  0  0  0  0
 30 72  1  0  0  0  0
 30 73  1  0  0  0  0
 30 74  1  0  0  0  0
M  END
>  <DRUGBANK_ID>
DB13689

>  <COMMON_NAME>
Tacalcitol

>  <CAS_NUMBER>
57333-96-7

>  <UNII>
C2W72OJ5ZU

>  <SYNONYMS>
Tacalcitol

$$$$
