J5Z
 OpenBabel10282417173D

 31 33  0  0  0  0  0  0  0  0999 V2000
    1.3677   -0.2636   -0.0265 C   0  0  0  0  0  0  0  0  0  0  0  0
    0.9778   -2.6728   -0.1256 N   0  0  0  0  0  0  0  0  0  0  0  0
    0.4867   -1.3502   -0.0129 C   0  0  0  0  0  0  0  0  0  0  0  0
    0.1617   -4.7676    0.8297 N   0  0  0  0  0  0  0  0  0  0  0  0
   -0.8918   -1.0749   -0.0108 C   0  0  0  0  0  0  0  0  0  0  0  0
    0.9408   -4.8589    1.9426 N   0  0  0  0  0  0  0  0  0  0  0  0
   -1.3844    0.2226    0.0024 C   0  0  0  0  0  0  0  0  0  0  0  0
   -0.5431   -6.5978    1.8666 N   0  0  0  0  0  0  0  0  0  0  0  0
   -1.6620   -6.0031   -0.1908 N   0  0  0  0  0  0  0  0  0  0  0  0
   -1.0391    2.6780    0.3345 C   0  0  0  0  0  0  0  0  0  0  0  0
   -0.5021    1.2982    0.0647 C   0  0  0  0  0  0  0  0  0  0  0  0
    0.8781    1.0511   -0.0059 C   0  0  0  0  0  0  0  0  0  0  0  0
    0.1419   -3.7875   -0.1882 C   0  0  0  0  0  0  0  0  0  0  0  0
   -0.7352   -3.9430   -1.1908 C   0  0  0  0  0  0  0  0  0  0  0  0
   -1.6514   -5.1069   -1.1372 C   0  0  0  0  0  0  0  0  0  0  0  0
   -2.6300   -5.2389   -2.2726 C   0  0  0  0  0  0  0  0  0  0  0  0
   -0.7463   -5.8417    0.8057 C   0  0  0  0  0  0  0  0  0  0  0  0
    0.4724   -5.9701    2.5147 C   0  0  0  0  0  0  0  0  0  0  0  0
   -0.7237    3.5794   -0.6309 F   0  0  0  0  0  0  0  0  0  0  0  0
   -2.3974    2.7104    0.4539 F   0  0  0  0  0  0  0  0  0  0  0  0
   -0.5573    3.1826    1.5041 F   0  0  0  0  0  0  0  0  0  0  0  0
    2.4436   -0.4237   -0.0240 H   0  0  0  0  0  0  0  0  0  0  0  0
    1.9016   -2.8357    0.2685 H   0  0  0  0  0  0  0  0  0  0  0  0
   -1.6291   -1.8703    0.0252 H   0  0  0  0  0  0  0  0  0  0  0  0
   -2.4619    0.3777    0.0074 H   0  0  0  0  0  0  0  0  0  0  0  0
    1.5793    1.8848   -0.0143 H   0  0  0  0  0  0  0  0  0  0  0  0
   -0.8297   -3.2229   -1.9954 H   0  0  0  0  0  0  0  0  0  0  0  0
   -2.4228   -6.1660   -2.8123 H   0  0  0  0  0  0  0  0  0  0  0  0
   -3.6497   -5.2609   -1.8801 H   0  0  0  0  0  0  0  0  0  0  0  0
   -2.5424   -4.4001   -2.9705 H   0  0  0  0  0  0  0  0  0  0  0  0
    0.8879   -6.3457    3.4425 H   0  0  0  0  0  0  0  0  0  0  0  0
  1  3  1  0  0  0  0
  1 22  1  0  0  0  0
  2 13  1  0  0  0  0
  2 23  1  0  0  0  0
  3  2  1  0  0  0  0
  4 17  1  0  0  0  0
  5  3  2  0  0  0  0
  5 24  1  0  0  0  0
  6  4  1  0  0  0  0
  6 18  2  0  0  0  0
  7  5  1  0  0  0  0
  7 25  1  0  0  0  0
  8 17  2  0  0  0  0
 10 11  1  0  0  0  0
 10 21  1  0  0  0  0
 11  7  2  0  0  0  0
 11 12  1  0  0  0  0
 12  1  2  0  0  0  0
 12 26  1  0  0  0  0
 13  4  1  0  0  0  0
 13 14  2  0  0  0  0
 14 15  1  0  0  0  0
 14 27  1  0  0  0  0
 15  9  2  0  0  0  0
 15 16  1  0  0  0  0
 16 28  1  0  0  0  0
 16 29  1  0  0  0  0
 16 30  1  0  0  0  0
 17  9  1  0  0  0  0
 18  8  1  0  0  0  0
 18 31  1  0  0  0  0
 19 10  1  0  0  0  0
 20 10  1  0  0  0  0
M  END
>  <DRUGBANK_ID>
DB08008

>  <COMMON_NAME>
5-methyl-N-[4-(trifluoromethyl)phenyl][1,2,4]triazolo[1,5-a]pyrimidin-7-amine

>  <UNII>
A94AKH2DCP

$$$$
