
 OpenBabel10282417233D

 51 54  0  0  0  0  0  0  0  0999 V2000
    0.8875    0.0277   -0.1235 N   0  0  0  0  0  0  0  0  0  0  0  0
    0.1907    0.9112    0.7108 C   0  0  0  0  0  0  0  0  0  0  0  0
   -0.8747    0.4676    1.3908 N   0  0  0  0  0  0  0  0  0  0  0  0
   -1.6526    1.3858    2.0015 C   0  0  0  0  0  0  0  0  0  0  0  0
   -1.3868    2.7016    2.0418 N   0  0  0  0  0  0  0  0  0  0  0  0
   -0.2492    3.1219    1.4619 C   0  0  0  0  0  0  0  0  0  0  0  0
    0.5639    2.2376    0.7627 C   0  0  0  0  0  0  0  0  0  0  0  0
    0.2028    4.4000    1.7233 N   0  0  0  0  0  0  0  0  0  0  0  0
    0.3606    5.4207    0.6748 C   0  0  0  0  0  0  0  0  0  0  0  0
    1.4337    6.4233    1.1641 C   0  0  0  0  0  0  0  0  0  0  0  0
    1.1014    6.9855    2.4511 O   0  0  0  0  0  0  0  0  0  0  0  0
    0.9157    5.9428    3.4275 C   0  0  0  0  0  0  0  0  0  0  0  0
   -0.2083    4.9857    3.0060 C   0  0  0  0  0  0  0  0  0  0  0  0
   -2.8249    0.9063    2.6770 N   0  0  0  0  0  0  0  0  0  0  0  0
   -4.0709    1.4126    2.4322 N   0  0  0  0  0  0  0  0  0  0  0  0
   -4.8974    0.6439    3.1541 C   0  0  0  0  0  0  0  0  0  0  0  0
   -4.1916   -0.2759    3.9578 C   0  0  0  0  0  0  0  0  0  0  0  0
   -2.8757   -0.1169    3.6049 C   0  0  0  0  0  0  0  0  0  0  0  0
   -6.3689    0.8219    3.0698 C   0  0  0  0  0  0  0  0  0  0  0  0
    0.1219   -1.0435   -0.7669 C   0  0  0  0  0  0  0  0  0  0  0  0
   -0.2800   -2.1866    0.1781 C   0  0  0  0  0  0  0  0  0  0  0  0
    0.8834   -3.0962    0.5519 C   0  0  0  0  0  0  0  0  0  0  0  0
    1.5459   -3.6536   -0.6905 C   0  0  0  0  0  0  0  0  0  0  0  0
    2.0294   -2.5443   -1.6063 C   0  0  0  0  0  0  0  0  0  0  0  0
    0.8805   -1.6097   -1.9859 C   0  0  0  0  0  0  0  0  0  0  0  0
    2.5860   -4.4464   -0.3403 F   0  0  0  0  0  0  0  0  0  0  0  0
    0.6652   -4.4416   -1.3592 F   0  0  0  0  0  0  0  0  0  0  0  0
    1.8758   -0.0824    0.0662 H   0  0  0  0  0  0  0  0  0  0  0  0
    1.4726    2.5825    0.2865 H   0  0  0  0  0  0  0  0  0  0  0  0
   -0.5869    5.9600    0.5338 H   0  0  0  0  0  0  0  0  0  0  0  0
    0.6584    4.9993   -0.2908 H   0  0  0  0  0  0  0  0  0  0  0  0
    2.4096    5.9290    1.2440 H   0  0  0  0  0  0  0  0  0  0  0  0
    1.5377    7.2562    0.4615 H   0  0  0  0  0  0  0  0  0  0  0  0
    0.6794    6.4072    4.3883 H   0  0  0  0  0  0  0  0  0  0  0  0
    1.8609    5.3951    3.5394 H   0  0  0  0  0  0  0  0  0  0  0  0
   -1.1558    5.5281    2.8940 H   0  0  0  0  0  0  0  0  0  0  0  0
   -0.3255    4.2226    3.7836 H   0  0  0  0  0  0  0  0  0  0  0  0
   -4.6011   -0.9659    4.6851 H   0  0  0  0  0  0  0  0  0  0  0  0
   -1.9690   -0.5874    3.9624 H   0  0  0  0  0  0  0  0  0  0  0  0
   -6.6516    1.8542    3.2943 H   0  0  0  0  0  0  0  0  0  0  0  0
   -6.7336    0.5684    2.0683 H   0  0  0  0  0  0  0  0  0  0  0  0
   -6.8824    0.1676    3.7831 H   0  0  0  0  0  0  0  0  0  0  0  0
   -0.7907   -0.5818   -1.1676 H   0  0  0  0  0  0  0  0  0  0  0  0
   -0.7504   -1.8324    1.0965 H   0  0  0  0  0  0  0  0  0  0  0  0
   -1.0465   -2.7856   -0.3324 H   0  0  0  0  0  0  0  0  0  0  0  0
    1.6200   -2.5461    1.1487 H   0  0  0  0  0  0  0  0  0  0  0  0
    0.5162   -3.9166    1.1778 H   0  0  0  0  0  0  0  0  0  0  0  0
    2.8287   -1.9818   -1.1110 H   0  0  0  0  0  0  0  0  0  0  0  0
    2.4653   -2.9820   -2.5117 H   0  0  0  0  0  0  0  0  0  0  0  0
    0.1640   -2.1872   -2.5875 H   0  0  0  0  0  0  0  0  0  0  0  0
    1.2532   -0.8077   -2.6329 H   0  0  0  0  0  0  0  0  0  0  0  0
  1  2  1  0  0  0  0
  1 20  1  0  0  0  0
  1 28  1  0  0  0  0
  2  3  1  0  0  0  0
  2  7  2  0  0  0  0
  3  4  2  0  0  0  0
  4  5  1  0  0  0  0
  4 14  1  0  0  0  0
  6  5  2  0  0  0  0
  6  8  1  0  0  0  0
  7  6  1  0  0  0  0
  7 29  1  0  0  0  0
  8  9  1  0  0  0  0
  8 13  1  0  0  0  0
  9 10  1  0  0  0  0
  9 30  1  0  0  0  0
  9 31  1  0  0  0  0
 10 11  1  0  0  0  0
 10 32  1  0  0  0  0
 10 33  1  0  0  0  0
 12 11  1  0  0  0  0
 12 34  1  0  0  0  0
 12 35  1  0  0  0  0
 13 12  1  0  0  0  0
 13 36  1  0  0  0  0
 13 37  1  0  0  0  0
 14 15  1  0  0  0  0
 14 18  1  0  0  0  0
 15 16  2  0  0  0  0
 16 17  1  0  0  0  0
 16 19  1  0  0  0  0
 17 38  1  0  0  0  0
 18 17  2  0  0  0  0
 18 39  1  0  0  0  0
 19 40  1  0  0  0  0
 19 41  1  0  0  0  0
 19 42  1  0  0  0  0
 20 21  1  0  0  0  0
 20 25  1  0  0  0  0
 20 43  1  0  0  0  0
 21 22  1  0  0  0  0
 21 44  1  0  0  0  0
 21 45  1  0  0  0  0
 22 23  1  0  0  0  0
 22 46  1  0  0  0  0
 22 47  1  0  0  0  0
 23 26  1  0  0  0  0
 23 27  1  0  0  0  0
 24 23  1  0  0  0  0
 24 48  1  0  0  0  0
 24 49  1  0  0  0  0
 25 24  1  0  0  0  0
 25 50  1  0  0  0  0
 25 51  1  0  0  0  0
M  END
>  <DRUGBANK_ID>
DB16733

>  <COMMON_NAME>
Rimtuzalcap

>  <CAS_NUMBER>
2167246-24-2

>  <UNII>
USO2D5J77R

>  <SYNONYMS>
N-(4,4-difluorocyclohexyl)-2-(3-methyl-1H-pyrazol-1-yl)-6-morpholinopyrimidin-4-amine; Rimtuzalcap

$$$$
