
 OpenBabel10282417183D

 55 58  0  0  0  0  0  0  0  0999 V2000
    1.3218    1.6435   -0.0046 Cl  0  0  0  0  0  0  0  0  0  0  0  0
   -0.1695    0.7592   -0.0258 C   0  0  0  0  0  0  0  0  0  0  0  0
   -0.2374   -0.6405   -0.0022 C   0  0  0  0  0  0  0  0  0  0  0  0
    1.2485   -1.5455   -0.0176 Cl  0  0  0  0  0  0  0  0  0  0  0  0
   -1.5222   -1.2403    0.0075 C   0  0  0  0  0  0  0  0  0  0  0  0
   -2.6639   -0.4514   -0.0120 C   0  0  0  0  0  0  0  0  0  0  0  0
   -2.5936    0.9089   -0.0450 C   0  0  0  0  0  0  0  0  0  0  0  0
   -1.3478    1.5161   -0.0526 C   0  0  0  0  0  0  0  0  0  0  0  0
   -1.9369   -2.5440    0.1678 N   0  0  0  0  0  0  0  0  0  0  0  0
   -2.3700   -3.2791   -1.0281 C   0  0  0  0  0  0  0  0  0  0  0  0
   -3.2158   -4.4736   -0.5130 C   0  0  0  0  0  0  0  0  0  0  0  0
   -2.6311   -5.3671    0.5193 N   0  0  0  0  0  0  0  0  0  0  0  0
   -1.6470   -6.2438   -0.0461 C   0  0  0  0  0  0  0  0  0  0  0  0
   -0.3812   -5.5424   -0.4513 C   0  0  0  0  0  0  0  0  0  0  0  0
    0.7910   -5.0144    0.4249 C   0  0  0  0  0  0  0  0  0  0  0  0
    1.4500   -6.1281    1.1356 C   0  0  0  0  0  0  0  0  0  0  0  0
    2.4315   -6.7060    0.2813 O   0  0  0  0  0  0  0  0  0  0  0  0
    2.0247   -7.3494   -0.8600 C   0  0  0  0  0  0  0  0  0  0  0  0
    2.2828   -8.6967   -0.8709 C   0  0  0  0  0  0  0  0  0  0  0  0
    1.9353   -9.4353   -2.0009 C   0  0  0  0  0  0  0  0  0  0  0  0
    1.1350   -8.8825   -3.0086 C   0  0  0  0  0  0  0  0  0  0  0  0
    0.7565   -9.6692   -4.0596 O   0  0  0  0  0  0  0  0  0  0  0  0
    0.3020   -8.9046   -5.1795 C   0  0  0  0  0  0  0  0  0  0  0  0
   -0.6118   -7.7029   -4.9091 C   0  0  0  0  0  0  0  0  0  0  0  0
   -1.4283   -7.2716   -5.6894 O   0  0  0  0  0  0  0  0  0  0  0  0
   -0.2783   -7.0544   -3.7366 N   0  0  0  0  0  0  0  0  0  0  0  0
    0.7582   -7.5572   -2.9258 C   0  0  0  0  0  0  0  0  0  0  0  0
    1.4466   -6.7657   -2.0158 C   0  0  0  0  0  0  0  0  0  0  0  0
   -2.0340   -4.5773    1.6154 C   0  0  0  0  0  0  0  0  0  0  0  0
   -1.2725   -3.3044    1.1671 C   0  0  0  0  0  0  0  0  0  0  0  0
   -3.6192   -0.9707    0.0607 H   0  0  0  0  0  0  0  0  0  0  0  0
   -3.5253    1.4539   -0.0434 H   0  0  0  0  0  0  0  0  0  0  0  0
   -1.3075    2.5971   -0.0742 H   0  0  0  0  0  0  0  0  0  0  0  0
   -2.9853   -2.6529   -1.6793 H   0  0  0  0  0  0  0  0  0  0  0  0
   -1.5347   -3.5527   -1.6836 H   0  0  0  0  0  0  0  0  0  0  0  0
   -4.0797   -4.0234   -0.0176 H   0  0  0  0  0  0  0  0  0  0  0  0
   -3.6000   -5.0590   -1.3553 H   0  0  0  0  0  0  0  0  0  0  0  0
   -1.3813   -7.0807    0.6177 H   0  0  0  0  0  0  0  0  0  0  0  0
   -2.0443   -6.7593   -0.9425 H   0  0  0  0  0  0  0  0  0  0  0  0
   -0.0168   -6.4848   -0.7349 H   0  0  0  0  0  0  0  0  0  0  0  0
   -0.4826   -4.9923   -1.3897 H   0  0  0  0  0  0  0  0  0  0  0  0
    1.4736   -4.4227   -0.2061 H   0  0  0  0  0  0  0  0  0  0  0  0
    0.6069   -4.3872    1.2952 H   0  0  0  0  0  0  0  0  0  0  0  0
    1.9539   -5.6735    2.0044 H   0  0  0  0  0  0  0  0  0  0  0  0
    0.6808   -6.7858    1.5691 H   0  0  0  0  0  0  0  0  0  0  0  0
    2.8199   -9.1233   -0.0301 H   0  0  0  0  0  0  0  0  0  0  0  0
    2.3177  -10.4423   -2.0908 H   0  0  0  0  0  0  0  0  0  0  0  0
   -0.2453   -9.5893   -5.8276 H   0  0  0  0  0  0  0  0  0  0  0  0
    1.1704   -8.5145   -5.7272 H   0  0  0  0  0  0  0  0  0  0  0  0
   -0.7984   -6.2083   -3.5333 H   0  0  0  0  0  0  0  0  0  0  0  0
    1.3269   -5.6919   -2.1229 H   0  0  0  0  0  0  0  0  0  0  0  0
   -2.8412   -4.2960    2.2930 H   0  0  0  0  0  0  0  0  0  0  0  0
   -1.3785   -5.2347    2.2129 H   0  0  0  0  0  0  0  0  0  0  0  0
   -0.4827   -3.4967    0.4948 H   0  0  0  0  0  0  0  0  0  0  0  0
   -0.7903   -2.7933    2.0095 H   0  0  0  0  0  0  0  0  0  0  0  0
  1  2  1  0  0  0  0
  2  3  2  0  0  0  0
  2  8  1  0  0  0  0
  3  4  1  0  0  0  0
  3  5  1  0  0  0  0
  5  6  2  0  0  0  0
  5  9  1  0  0  0  0
  6  7  1  0  0  0  0
  6 31  1  0  0  0  0
  7  8  2  0  0  0  0
  7 32  1  0  0  0  0
  8 33  1  0  0  0  0
  9 10  1  0  0  0  0
  9 30  1  0  0  0  0
 10 11  1  0  0  0  0
 10 34  1  0  0  0  0
 10 35  1  0  0  0  0
 11 12  1  0  0  0  0
 11 36  1  0  0  0  0
 11 37  1  0  0  0  0
 12 13  1  0  0  0  0
 12 29  1  0  0  0  0
 13 14  1  0  0  0  0
 13 38  1  0  0  0  0
 13 39  1  0  0  0  0
 14 15  1  0  0  0  0
 14 40  1  0  0  0  0
 14 41  1  0  0  0  0
 15 16  1  0  0  0  0
 15 42  1  0  0  0  0
 15 43  1  0  0  0  0
 16 17  1  0  0  0  0
 16 44  1  0  0  0  0
 16 45  1  0  0  0  0
 17 18  1  0  0  0  0
 18 19  2  0  0  0  0
 18 28  1  0  0  0  0
 19 20  1  0  0  0  0
 19 46  1  0  0  0  0
 20 21  2  0  0  0  0
 20 47  1  0  0  0  0
 21 22  1  0  0  0  0
 21 27  1  0  0  0  0
 22 23  1  0  0  0  0
 23 24  1  0  0  0  0
 23 48  1  0  0  0  0
 23 49  1  0  0  0  0
 24 25  2  0  0  0  0
 24 26  1  0  0  0  0
 26 27  1  0  0  0  0
 26 50  1  0  0  0  0
 27 28  2  0  0  0  0
 28 51  1  0  0  0  0
 29 30  1  0  0  0  0
 29 52  1  0  0  0  0
 29 53  1  0  0  0  0
 30 54  1  0  0  0  0
 30 55  1  0  0  0  0
M  END
>  <DRUGBANK_ID>
DB09226

>  <COMMON_NAME>
Brilaroxazine

>  <CAS_NUMBER>
1239729-06-6

>  <UNII>
X8L60BA01I

>  <SYNONYMS>
6-(4-(4-(2,3-Dichlorophenyl)-piperazin-1-yl)-butoxy)-2H-benzo(b)(1,4)oxazin-3(4H)-one; Brilaroxazina; Brilaroxazine; Brilaroxazinum

$$$$
