
 OpenBabel10282417213D

 62 65  0  0  0  0  0  0  0  0999 V2000
   -1.2870   -0.6189   -0.6840 C   0  0  0  0  0  0  0  0  0  0  0  0
   -2.9750   -2.3675    2.2781 C   0  0  0  0  0  0  0  0  0  0  0  0
   -0.5161   -1.8997   -2.2914 C   0  0  1  0  0  0  0  0  0  0  0  0
    0.9554   -2.2460    0.0666 C   0  0  0  0  0  0  0  0  0  0  0  0
   -0.2863   -0.5289   -1.7708 C   0  0  0  0  0  0  0  0  0  0  0  0
   -1.3834    0.0273    2.5112 C   0  0  2  0  0  0  0  0  0  0  0  0
    0.5429   -1.2659    1.1847 C   0  0  0  0  0  0  0  0  0  0  0  0
   -3.5260   -0.7152    2.9465 C   0  0  0  0  0  0  0  0  0  0  0  0
   -2.4438    0.7467    3.5552 C   0  0  1  0  0  0  0  0  0  0  0  0
   -0.1843    0.4874    3.2292 C   0  0  0  0  0  0  0  0  0  0  0  0
   -1.6190    2.7838    3.8333 C   0  0  0  0  0  0  0  0  0  0  0  0
   -0.6858    1.5516    4.0776 C   0  0  2  0  0  0  0  0  0  0  0  0
   -2.0269   -1.9434    1.1999 C   0  0  2  0  0  0  0  0  0  0  0  0
   -2.8539   -1.4791    0.6597 H   0  0  0  0  0  0  0  0  0  0  0  0
   -0.8892   -1.3461    1.9718 C   0  0  1  0  0  0  0  0  0  0  0  0
   -0.6238   -2.0560    2.7674 H   0  0  0  0  0  0  0  0  0  0  0  0
   -0.2277   -2.6795   -0.8359 C   0  0  2  0  0  0  0  0  0  0  0  0
    0.0174   -4.1195   -1.3738 C   0  0  0  0  0  0  0  0  0  0  0  0
   -1.4721   -2.3051   -0.1023 C   0  0  1  0  0  0  0  0  0  0  0  0
   -1.9187   -3.3329   -0.0910 H   0  0  0  0  0  0  0  0  0  0  0  0
   -2.2063    3.0345    1.8506 O   0  0  0  0  0  0  0  0  0  0  0  0
   -2.0494    2.2190    2.7288 C   0  0  0  0  0  0  0  0  0  0  0  0
   -2.2025    0.6898    1.3318 C   0  0  0  0  0  0  0  0  0  0  0  0
   -1.7027   -1.2333   -3.0715 O   0  0  0  0  0  0  0  0  0  0  0  0
   -0.0629    1.2177    5.4621 C   0  0  0  0  0  0  0  0  0  0  0  0
   -3.0287   -1.0520   -3.0339 C   0  0  0  0  0  0  0  0  0  0  0  0
   -3.8671   -1.8867   -2.1158 C   0  0  0  0  0  0  0  0  0  0  0  0
   -4.8323   -1.0164   -1.3361 C   0  0  0  0  0  0  0  0  0  0  0  0
   -3.5378   -0.2580   -3.8214 O   0  0  0  0  0  0  0  0  0  0  0  0
   -2.3575    0.2445    4.5190 H   0  0  0  0  0  0  0  0  0  0  0  0
   -2.0109    0.1867   -0.8115 H   0  0  0  0  0  0  0  0  0  0  0  0
   -0.7917    0.0066    0.0439 H   0  0  0  0  0  0  0  0  0  0  0  0
   -3.8685   -3.0328    2.1682 H   0  0  0  0  0  0  0  0  0  0  0  0
   -2.3421   -3.2054    2.6352 H   0  0  0  0  0  0  0  0  0  0  0  0
   -1.2946   -2.6724   -2.3986 H   0  0  0  0  0  0  0  0  0  0  0  0
    1.5616   -3.0755    0.4197 H   0  0  0  0  0  0  0  0  0  0  0  0
    1.6578   -1.6690   -0.5464 H   0  0  0  0  0  0  0  0  0  0  0  0
   -0.4294    0.2512   -2.5200 H   0  0  0  0  0  0  0  0  0  0  0  0
    0.6566   -0.1615   -1.3579 H   0  0  0  0  0  0  0  0  0  0  0  0
    1.2999   -0.7193    1.7370 H   0  0  0  0  0  0  0  0  0  0  0  0
    0.5912   -0.4299    0.5301 H   0  0  0  0  0  0  0  0  0  0  0  0
   -4.3106   -1.0168    3.6392 H   0  0  0  0  0  0  0  0  0  0  0  0
   -4.1503   -0.3886    2.0962 H   0  0  0  0  0  0  0  0  0  0  0  0
    0.3378   -0.2720    3.8266 H   0  0  0  0  0  0  0  0  0  0  0  0
    0.4912    0.9110    2.5184 H   0  0  0  0  0  0  0  0  0  0  0  0
   -1.9493    3.7520    3.9981 H   0  0  0  0  0  0  0  0  0  0  0  0
   -0.6468    3.2002    3.0100 H   0  0  0  0  0  0  0  0  0  0  0  0
   -1.5803    1.5947    5.0466 H   0  0  0  0  0  0  0  0  0  0  0  0
    0.3175   -4.0438   -2.4331 H   0  0  0  0  0  0  0  0  0  0  0  0
    0.8452   -4.6183   -0.8751 H   0  0  0  0  0  0  0  0  0  0  0  0
   -0.8557   -4.7825   -1.3635 H   0  0  0  0  0  0  0  0  0  0  0  0
   -2.8095    0.1334    0.6707 H   0  0  0  0  0  0  0  0  0  0  0  0
   -3.1879    1.1769    1.5790 H   0  0  0  0  0  0  0  0  0  0  0  0
   -1.5095    1.3792    0.8729 H   0  0  0  0  0  0  0  0  0  0  0  0
    0.9963    1.3712    5.3195 H   0  0  0  0  0  0  0  0  0  0  0  0
   -0.3755    1.7892    6.3566 H   0  0  0  0  0  0  0  0  0  0  0  0
   -0.3025    0.1618    5.7066 H   0  0  0  0  0  0  0  0  0  0  0  0
   -4.4050   -2.6011   -2.7418 H   0  0  0  0  0  0  0  0  0  0  0  0
   -3.2854   -2.4838   -1.4308 H   0  0  0  0  0  0  0  0  0  0  0  0
   -5.4573   -0.4300   -2.0138 H   0  0  0  0  0  0  0  0  0  0  0  0
   -5.4750   -1.6311   -0.7006 H   0  0  0  0  0  0  0  0  0  0  0  0
   -4.3032   -0.3048   -0.7002 H   0  0  0  0  0  0  0  0  0  0  0  0
  1 31  1  0  0  0  0
  1 32  1  0  0  0  0
  2  8  1  0  0  0  0
  2 33  1  0  0  0  0
  2 34  1  0  0  0  0
  3  5  1  0  0  0  0
  3 35  1  6  0  0  0
  3 24  1  0  0  0  0
  4  7  1  0  0  0  0
  4 36  1  0  0  0  0
  4 37  1  0  0  0  0
  5  1  1  0  0  0  0
  5 38  1  0  0  0  0
  5 39  1  0  0  0  0
  6  9  1  0  0  0  0
  6 10  1  0  0  0  0
  6 23  1  1  0  0  0
  7 40  1  0  0  0  0
  7 41  1  0  0  0  0
  8  9  1  0  0  0  0
  8 42  1  0  0  0  0
  8 43  1  0  0  0  0
  9 11  1  0  0  0  0
  9 30  1  6  0  0  0
 10 12  1  0  0  0  0
 10 44  1  0  0  0  0
 10 45  1  0  0  0  0
 11 22  1  0  0  0  0
 11 46  1  0  0  0  0
 11 47  1  0  0  0  0
 12 22  1  0  0  0  0
 12 48  1  1  0  0  0
 12 25  1  0  0  0  0
 13 15  1  0  0  0  0
 13  2  1  0  0  0  0
 13 14  1  1  0  0  0
 15  6  1  0  0  0  0
 15  7  1  0  0  0  0
 15 16  1  6  0  0  0
 17  3  1  0  0  0  0
 17  4  1  0  0  0  0
 17 18  1  6  0  0  0
 18 49  1  0  0  0  0
 18 50  1  0  0  0  0
 18 51  1  0  0  0  0
 19 13  1  0  0  0  0
 19 17  1  0  0  0  0
 19  1  1  0  0  0  0
 19 20  1  1  0  0  0
 22 21  2  0  0  0  0
 23 52  1  0  0  0  0
 23 53  1  0  0  0  0
 23 54  1  0  0  0  0
 24 26  1  0  0  0  0
 25 55  1  0  0  0  0
 25 56  1  0  0  0  0
 25 57  1  0  0  0  0
 26 27  1  0  0  0  0
 26 29  2  0  0  0  0
 27 28  1  0  0  0  0
 27 58  1  0  0  0  0
 27 59  1  0  0  0  0
 28 60  1  0  0  0  0
 28 61  1  0  0  0  0
 28 62  1  0  0  0  0
M  END
>  <DRUGBANK_ID>
DB14655

>  <SECONDARY_ACCESSION_NUMBERS>
DBSALT001342

>  <COMMON_NAME>
Drostanolone propionate

>  <CAS_NUMBER>
521-12-0

>  <UNII>
X20UZ57G4O

>  <SYNONYMS>
17β-Hydroxy-2α-methyl-5α-androstan-3-one propionate; 2M-DHTP; 2MDTP; 2α-Methyl-4,5-dihydrotestosterone propionate; Blackburn Compound; Dromostanolone propionate; Drostanolone propionate; Emdisterone; Testosterone, 4,5α-dihydro-2α-methyl-, propionate

$$$$
