
 OpenBabel10282417183D

 56 59  0  0  1  0  0  0  0  0999 V2000
    2.4674   -0.6976    0.4323 C   0  0  1  0  0  0  0  0  0  0  0  0
    1.0415   -1.3677    0.5830 C   0  0  2  0  0  0  0  0  0  0  0  0
    2.5624    0.5690   -0.4679 C   0  0  0  0  0  0  0  0  0  0  0  0
    3.5859   -1.5269   -0.2913 C   0  0  0  0  0  0  0  0  0  0  0  0
   -0.1418   -0.9007   -0.2159 C   0  0  1  0  0  0  0  0  0  0  0  0
    1.4128    1.4941   -0.3435 C   0  0  1  0  0  0  0  0  0  0  0  0
    0.0093    0.6613   -0.4733 C   0  0  2  0  0  0  0  0  0  0  0  0
   -1.5166   -1.4735   -0.6438 C   0  0  0  0  0  0  0  0  0  0  0  0
    1.8499    2.4468    0.6319 O   0  0  0  0  0  0  0  0  0  0  0  0
   -1.2427    1.5687   -0.1699 C   0  0  2  0  0  0  0  0  0  0  0  0
    0.0186    0.4783   -1.8913 F   0  0  0  0  0  0  0  0  0  0  0  0
   -2.6323   -0.6430    0.0852 C   0  0  0  0  0  0  0  0  0  0  0  0
   -2.5657    0.8291   -0.2412 C   0  0  0  0  0  0  0  0  0  0  0  0
   -1.2076    2.6458   -1.2296 C   0  0  0  0  0  0  0  0  0  0  0  0
   -1.2764    2.4808    1.1147 C   0  0  0  0  0  0  0  0  0  0  0  0
   -3.6680    1.5293   -0.5744 C   0  0  0  0  0  0  0  0  0  0  0  0
   -2.2509    3.4570   -1.4273 C   0  0  0  0  0  0  0  0  0  0  0  0
   -3.5618    2.9546   -0.9887 C   0  0  0  0  0  0  0  0  0  0  0  0
   -4.5684    3.6879   -1.0539 O   0  0  0  0  0  0  0  0  0  0  0  0
    1.1498   -2.4563    0.4555 H   0  0  0  0  0  0  0  0  0  0  0  0
   -0.6511   -1.3095    0.6525 H   0  0  0  0  0  0  0  0  0  0  0  0
    0.4547   -0.8408    2.0596 C   0  0  0  0  0  0  0  0  0  0  0  0
    1.5056   -0.1025    2.8038 C   0  0  1  0  0  0  0  0  0  0  0  0
    2.7407   -0.6251    2.0052 C   0  0  2  0  0  0  0  0  0  0  0  0
    4.0684   -0.0138    2.4263 C   0  0  0  0  0  0  0  0  0  0  0  0
    4.0230    1.1979    3.3070 C   0  0  0  0  0  0  0  0  0  0  0  0
    5.1426   -0.4740    2.0344 O   0  0  0  0  0  0  0  0  0  0  0  0
    4.9613    0.9824    4.7699 Cl  0  0  0  0  0  0  0  0  0  0  0  0
    2.8371   -2.0164    2.4818 O   0  0  0  0  0  0  0  0  0  0  0  0
    1.0169    1.3602    2.7930 C   0  0  0  0  0  0  0  0  0  0  0  0
    3.5157    1.0850   -0.2608 H   0  0  0  0  0  0  0  0  0  0  0  0
    2.6132    0.3478   -1.5456 H   0  0  0  0  0  0  0  0  0  0  0  0
    4.5601   -1.0338   -0.1418 H   0  0  0  0  0  0  0  0  0  0  0  0
    3.6820   -2.5565    0.0386 H   0  0  0  0  0  0  0  0  0  0  0  0
    3.4789   -1.5331   -1.3874 H   0  0  0  0  0  0  0  0  0  0  0  0
    1.3714    2.1840   -1.1893 H   0  0  0  0  0  0  0  0  0  0  0  0
   -1.6132   -1.4639   -1.7231 H   0  0  0  0  0  0  0  0  0  0  0  0
   -1.6459   -2.5334   -0.3307 H   0  0  0  0  0  0  0  0  0  0  0  0
    2.5829    2.0574    1.1451 H   0  0  0  0  0  0  0  0  0  0  0  0
   -3.6020   -1.0708   -0.1807 H   0  0  0  0  0  0  0  0  0  0  0  0
   -2.5597   -0.7591    1.1845 H   0  0  0  0  0  0  0  0  0  0  0  0
   -0.6565    2.3866   -2.1288 H   0  0  0  0  0  0  0  0  0  0  0  0
   -1.4321    1.9422    2.0482 H   0  0  0  0  0  0  0  0  0  0  0  0
   -0.4077    3.1525    1.1726 H   0  0  0  0  0  0  0  0  0  0  0  0
   -2.1184    3.1899    1.1146 H   0  0  0  0  0  0  0  0  0  0  0  0
   -4.6575    1.1011   -0.5401 H   0  0  0  0  0  0  0  0  0  0  0  0
   -2.0827    4.5287   -1.4628 H   0  0  0  0  0  0  0  0  0  0  0  0
   -0.3200   -1.3995    2.6100 H   0  0  0  0  0  0  0  0  0  0  0  0
   -0.2553   -0.0465    1.7905 H   0  0  0  0  0  0  0  0  0  0  0  0
    1.5158   -0.4343    3.8466 H   0  0  0  0  0  0  0  0  0  0  0  0
    4.2772    2.0848    2.7184 H   0  0  0  0  0  0  0  0  0  0  0  0
    3.0510    1.3375    3.7310 H   0  0  0  0  0  0  0  0  0  0  0  0
    2.5240   -2.6452    1.8053 H   0  0  0  0  0  0  0  0  0  0  0  0
    1.6884    2.1948    2.9777 H   0  0  0  0  0  0  0  0  0  0  0  0
    0.6747    1.5008    1.7975 H   0  0  0  0  0  0  0  0  0  0  0  0
    0.0982    1.5745    3.3427 H   0  0  0  0  0  0  0  0  0  0  0  0
  1  3  1  0  0  0  0
  1  4  1  1  0  0  0
  1  2  1  0  0  0  0
  2  5  1  0  0  0  0
  2 20  1  6  0  0  0
  3  6  1  0  0  0  0
  3 31  1  0  0  0  0
  3 32  1  0  0  0  0
  4 33  1  0  0  0  0
  4 34  1  0  0  0  0
  4 35  1  0  0  0  0
  5  7  1  0  0  0  0
  5  8  1  0  0  0  0
  5 21  1  1  0  0  0
  6  9  1  0  0  0  0
  6  7  1  0  0  0  0
  6 36  1  6  0  0  0
  7 10  1  0  0  0  0
  7 11  1  6  0  0  0
  8 12  1  0  0  0  0
  8 37  1  0  0  0  0
  8 38  1  0  0  0  0
  9 39  1  0  0  0  0
 10 13  1  0  0  0  0
 10 14  1  0  0  0  0
 10 15  1  1  0  0  0
 12 13  1  0  0  0  0
 12 40  1  0  0  0  0
 12 41  1  0  0  0  0
 13 16  2  0  0  0  0
 14 17  2  0  0  0  0
 14 42  1  0  0  0  0
 15 43  1  0  0  0  0
 15 44  1  0  0  0  0
 15 45  1  0  0  0  0
 16 18  1  0  0  0  0
 16 46  1  0  0  0  0
 17 18  1  0  0  0  0
 17 47  1  0  0  0  0
 18 19  2  0  0  0  0
 22  2  1  0  0  0  0
 22 48  1  0  0  0  0
 22 49  1  0  0  0  0
 23 22  1  0  0  0  0
 23 50  1  1  0  0  0
 23 30  1  0  0  0  0
 24  1  1  0  0  0  0
 24 23  1  0  0  0  0
 24 29  1  1  0  0  0
 24 25  1  0  0  0  0
 25 26  1  0  0  0  0
 25 27  2  0  0  0  0
 26 28  1  0  0  0  0
 26 51  1  0  0  0  0
 26 52  1  0  0  0  0
 29 53  1  0  0  0  0
 30 54  1  0  0  0  0
 30 55  1  0  0  0  0
 30 56  1  0  0  0  0
M  END
>  <DRUGBANK_ID>
DB11750

>  <COMMON_NAME>
Clobetasol

>  <CAS_NUMBER>
25122-41-2

>  <UNII>
ADN79D536H

>  <SYNONYMS>
Clobetasol

$$$$
