
 OpenBabel10282417213D

114113  0  0  0  0  0  0  0  0999 V2000
   -4.0672    2.1491   -2.3907 C   0  0  0  0  0  0  0  0  0  0  0  0
   -5.0800    1.8396   -1.2883 C   0  0  0  0  0  0  0  0  0  0  0  0
   -6.4656    1.6899   -1.8993 C   0  0  0  0  0  0  0  0  0  0  0  0
   -2.8073    1.1432   -4.4646 C   0  0  0  0  0  0  0  0  0  0  0  0
   -3.7620    0.9617   -3.3249 C   0  0  0  0  0  0  0  0  0  0  0  0
   -0.9653   -0.1209   -3.1959 C   0  0  2  0  0  0  0  0  0  0  0  0
   -1.4069    1.1560   -3.9971 C   0  0  0  0  0  0  0  0  0  0  0  0
    0.5314    0.0152   -2.9432 C   0  0  2  0  0  0  0  0  0  0  0  0
    1.0152    1.4896   -2.6703 C   0  0  2  0  0  0  0  0  0  0  0  0
    2.5677    1.4691   -2.6683 C   0  0  0  0  0  0  0  0  0  0  0  0
    1.1348   -0.5176   -4.1621 O   0  0  0  0  0  0  0  0  0  0  0  0
    0.4745    2.2498   -1.4541 N   0  0  0  0  0  2  0  0  0  0  0  0
    3.1239    1.0015   -3.9069 O   0  0  0  0  0  0  0  0  0  0  0  0
   -6.5932    0.4788   -2.8177 C   0  0  0  0  0  0  0  0  0  0  0  0
   -6.1111   -0.7986   -2.1129 C   0  0  0  0  0  0  0  0  0  0  0  0
   -7.1266   -1.1047   -1.0238 C   0  0  0  0  0  0  0  0  0  0  0  0
   -8.5027   -1.2571   -1.6759 C   0  0  0  0  0  0  0  0  0  0  0  0
   -8.4632   -2.3922   -2.7077 C   0  0  0  0  0  0  0  0  0  0  0  0
   -8.1380   -3.7133   -2.0075 C   0  0  0  0  0  0  0  0  0  0  0  0
   -9.1660   -4.0081   -0.9150 C   0  0  0  0  0  0  0  0  0  0  0  0
  -10.5568   -4.1070   -1.5205 C   0  0  0  0  0  0  0  0  0  0  0  0
   -0.8036    2.0559   -1.0452 C   0  0  0  0  0  0  0  0  0  0  0  0
   -1.6449    1.3112   -1.4783 O   0  0  0  0  0  0  0  0  0  0  0  0
   -1.3157    2.6339    0.2546 C   0  0  3  0  0  0  0  0  0  0  0  0
   -0.8630    1.6252    1.3096 C   0  0  0  0  0  0  0  0  0  0  0  0
    0.6640    1.5677    1.3586 C   0  0  0  0  0  0  0  0  0  0  0  0
    1.2365    2.9695    1.5787 C   0  0  0  0  0  0  0  0  0  0  0  0
    0.6420    3.5267    2.8736 C   0  0  0  0  0  0  0  0  0  0  0  0
    1.1164    2.6181    4.0026 C   0  0  0  0  0  0  0  0  0  0  0  0
    2.6482    2.6081    3.9953 C   0  0  0  0  0  0  0  0  0  0  0  0
    3.1493    4.0426    4.1891 C   0  0  0  0  0  0  0  0  0  0  0  0
    2.6276    4.5609    5.5302 C   0  0  0  0  0  0  0  0  0  0  0  0
    3.1310    3.6404    6.6452 C   0  0  0  0  0  0  0  0  0  0  0  0
    4.6624    3.6322    6.6378 C   0  0  0  0  0  0  0  0  0  0  0  0
    5.1777    5.0553    6.8683 C   0  0  0  0  0  0  0  0  0  0  0  0
    4.6676    5.5716    8.2165 C   0  0  0  0  0  0  0  0  0  0  0  0
    5.1672    4.6636    9.3457 C   0  0  0  0  0  0  0  0  0  0  0  0
    6.6992    4.6545    9.3899 C   0  0  0  0  0  0  0  0  0  0  0  0
    7.2514    6.0638    9.6071 C   0  0  0  0  0  0  0  0  0  0  0  0
    6.7441    6.6299   10.9232 C   0  0  0  0  0  0  0  0  0  0  0  0
   -1.0996    4.0015    0.4758 O   0  0  0  0  0  0  0  0  0  0  0  0
   -1.2733   -1.3437   -3.8925 O   0  0  0  0  0  0  0  0  0  0  0  0
   -3.2049    2.5360   -1.8716 H   0  0  0  0  0  0  0  0  0  0  0  0
   -4.3983    3.0085   -2.9754 H   0  0  0  0  0  0  0  0  0  0  0  0
   -4.7752    0.9704   -0.6879 H   0  0  0  0  0  0  0  0  0  0  0  0
   -5.0969    2.6613   -0.5616 H   0  0  0  0  0  0  0  0  0  0  0  0
   -7.2055    1.6241   -1.0951 H   0  0  0  0  0  0  0  0  0  0  0  0
   -6.7083    2.5967   -2.4589 H   0  0  0  0  0  0  0  0  0  0  0  0
   -2.9240    0.3204   -5.1775 H   0  0  0  0  0  0  0  0  0  0  0  0
   -3.0535    2.0698   -4.9926 H   0  0  0  0  0  0  0  0  0  0  0  0
   -3.5758    0.0325   -2.7774 H   0  0  0  0  0  0  0  0  0  0  0  0
   -4.5947    0.7877   -3.9617 H   0  0  0  0  0  0  0  0  0  0  0  0
   -1.4267   -0.3583   -2.2365 H   0  0  0  0  0  0  0  0  0  0  0  0
   -0.7603    1.2840   -4.8674 H   0  0  0  0  0  0  0  0  0  0  0  0
   -1.3138    2.1134   -3.4655 H   0  0  0  0  0  0  0  0  0  0  0  0
    0.8593   -0.6626   -2.1476 H   0  0  0  0  0  0  0  0  0  0  0  0
    0.7899    2.0962   -3.5562 H   0  0  0  0  0  0  0  0  0  0  0  0
    2.9623    2.4756   -2.5183 H   0  0  0  0  0  0  0  0  0  0  0  0
    2.9480    0.8147   -1.8796 H   0  0  0  0  0  0  0  0  0  0  0  0
    0.6852   -1.3812   -4.2682 H   0  0  0  0  0  0  0  0  0  0  0  0
    2.5791    0.2190   -4.1509 H   0  0  0  0  0  0  0  0  0  0  0  0
   -7.6092    0.4197   -3.1938 H   0  0  0  0  0  0  0  0  0  0  0  0
   -6.1707    0.6092   -3.7991 H   0  0  0  0  0  0  0  0  0  0  0  0
   -5.9829   -1.6148   -2.8323 H   0  0  0  0  0  0  0  0  0  0  0  0
   -5.1220   -0.7420   -1.6511 H   0  0  0  0  0  0  0  0  0  0  0  0
   -6.8229   -1.9919   -0.4618 H   0  0  0  0  0  0  0  0  0  0  0  0
   -7.1460   -0.3078   -0.2743 H   0  0  0  0  0  0  0  0  0  0  0  0
   -9.2617   -1.3931   -0.9074 H   0  0  0  0  0  0  0  0  0  0  0  0
   -8.8520   -0.3409   -2.1564 H   0  0  0  0  0  0  0  0  0  0  0  0
   -9.4127   -2.4338   -3.2452 H   0  0  0  0  0  0  0  0  0  0  0  0
   -7.7367   -2.2128   -3.5089 H   0  0  0  0  0  0  0  0  0  0  0  0
   -8.1082   -4.5235   -2.7409 H   0  0  0  0  0  0  0  0  0  0  0  0
   -7.1328   -3.6878   -1.5678 H   0  0  0  0  0  0  0  0  0  0  0  0
   -8.9018   -4.9334   -0.3991 H   0  0  0  0  0  0  0  0  0  0  0  0
   -9.1572   -3.2341   -0.1381 H   0  0  0  0  0  0  0  0  0  0  0  0
  -10.5748   -4.9037   -2.2694 H   0  0  0  0  0  0  0  0  0  0  0  0
  -11.3004   -4.3102   -0.7506 H   0  0  0  0  0  0  0  0  0  0  0  0
  -10.8631   -3.1779   -2.0131 H   0  0  0  0  0  0  0  0  0  0  0  0
   -2.4121    2.5452    0.2284 H   0  0  0  0  0  0  0  0  0  0  0  0
   -1.3078    1.8738    2.2774 H   0  0  0  0  0  0  0  0  0  0  0  0
   -1.2429    0.6203    1.0734 H   0  0  0  0  0  0  0  0  0  0  0  0
    0.9758    0.8539    2.1222 H   0  0  0  0  0  0  0  0  0  0  0  0
    1.0929    1.1171    0.4627 H   0  0  0  0  0  0  0  0  0  0  0  0
    2.3244    2.9246    1.5617 H   0  0  0  0  0  0  0  0  0  0  0  0
    1.0930    3.6718    0.7638 H   0  0  0  0  0  0  0  0  0  0  0  0
    0.9247    4.5746    3.0036 H   0  0  0  0  0  0  0  0  0  0  0  0
   -0.4505    3.5788    2.8778 H   0  0  0  0  0  0  0  0  0  0  0  0
    0.6877    2.9449    4.9516 H   0  0  0  0  0  0  0  0  0  0  0  0
    0.7359    1.5986    3.9051 H   0  0  0  0  0  0  0  0  0  0  0  0
    3.0173    1.9109    4.7477 H   0  0  0  0  0  0  0  0  0  0  0  0
    3.0782    2.1883    3.0832 H   0  0  0  0  0  0  0  0  0  0  0  0
    4.2389    4.0673    4.1160 H   0  0  0  0  0  0  0  0  0  0  0  0
    2.8432    4.7196    3.3861 H   0  0  0  0  0  0  0  0  0  0  0  0
    2.9303    5.6011    5.6697 H   0  0  0  0  0  0  0  0  0  0  0  0
    1.5362    4.6198    5.5625 H   0  0  0  0  0  0  0  0  0  0  0  0
    2.7141    3.9577    7.6033 H   0  0  0  0  0  0  0  0  0  0  0  0
    2.7562    2.6177    6.5487 H   0  0  0  0  0  0  0  0  0  0  0  0
    5.0319    2.9271    7.3858 H   0  0  0  0  0  0  0  0  0  0  0  0
    5.0753    3.2363    5.7054 H   0  0  0  0  0  0  0  0  0  0  0  0
    6.2683    5.0690    6.8040 H   0  0  0  0  0  0  0  0  0  0  0  0
    4.8724    5.7403    6.0712 H   0  0  0  0  0  0  0  0  0  0  0  0
    4.9745    6.6113    8.3536 H   0  0  0  0  0  0  0  0  0  0  0  0
    3.5749    5.6293    8.2477 H   0  0  0  0  0  0  0  0  0  0  0  0
    4.7371    4.9864   10.2964 H   0  0  0  0  0  0  0  0  0  0  0  0
    4.7974    3.6386    9.2367 H   0  0  0  0  0  0  0  0  0  0  0  0
    7.0401    3.9827   10.1829 H   0  0  0  0  0  0  0  0  0  0  0  0
    7.1165    4.2380    8.4648 H   0  0  0  0  0  0  0  0  0  0  0  0
    8.3441    6.0370    9.5981 H   0  0  0  0  0  0  0  0  0  0  0  0
    6.9696    6.7326    8.7850 H   0  0  0  0  0  0  0  0  0  0  0  0
    7.0550    5.9819   11.7477 H   0  0  0  0  0  0  0  0  0  0  0  0
    7.1287    7.6367   11.0859 H   0  0  0  0  0  0  0  0  0  0  0  0
    5.6519    6.7034   10.9476 H   0  0  0  0  0  0  0  0  0  0  0  0
   -0.3611    4.1923   -0.1318 H   0  0  0  0  0  0  0  0  0  0  0  0
   -1.2231   -1.1060   -4.8256 H   0  0  0  0  0  0  0  0  0  0  0  0
  1  5  1  0  0  0  0
  1 43  1  0  0  0  0
  1 44  1  0  0  0  0
  2  1  1  0  0  0  0
  2 45  1  0  0  0  0
  2 46  1  0  0  0  0
  3  2  1  0  0  0  0
  3 14  1  0  0  0  0
  3 47  1  0  0  0  0
  3 48  1  0  0  0  0
  4  7  1  0  0  0  0
  4 49  1  0  0  0  0
  4 50  1  0  0  0  0
  5  4  1  0  0  0  0
  5 51  1  0  0  0  0
  5 52  1  0  0  0  0
  6 42  1  0  0  0  0
  6 53  1  1  0  0  0
  6  8  1  0  0  0  0
  6  7  1  0  0  0  0
  7 54  1  0  0  0  0
  7 55  1  0  0  0  0
  8 11  1  0  0  0  0
  8  9  1  0  0  0  0
  8 56  1  1  0  0  0
  9 12  1  0  0  0  0
  9 10  1  0  0  0  0
  9 57  1  6  0  0  0
 10 13  1  0  0  0  0
 10 58  1  0  0  0  0
 10 59  1  0  0  0  0
 11 60  1  0  0  0  0
 12 22  1  0  0  0  0
 13 61  1  0  0  0  0
 14 15  1  0  0  0  0
 14 62  1  0  0  0  0
 14 63  1  0  0  0  0
 15 16  1  0  0  0  0
 15 64  1  0  0  0  0
 15 65  1  0  0  0  0
 16 17  1  0  0  0  0
 16 66  1  0  0  0  0
 16 67  1  0  0  0  0
 17 18  1  0  0  0  0
 17 68  1  0  0  0  0
 17 69  1  0  0  0  0
 18 19  1  0  0  0  0
 18 70  1  0  0  0  0
 18 71  1  0  0  0  0
 19 20  1  0  0  0  0
 19 72  1  0  0  0  0
 19 73  1  0  0  0  0
 20 21  1  0  0  0  0
 20 74  1  0  0  0  0
 20 75  1  0  0  0  0
 21 76  1  0  0  0  0
 21 77  1  0  0  0  0
 21 78  1  0  0  0  0
 22 23  2  0  0  0  0
 22 24  1  0  0  0  0
 24 25  1  0  0  0  0
 24 41  1  0  0  0  0
 24 79  1  0  0  0  0
 25 26  1  0  0  0  0
 25 80  1  0  0  0  0
 25 81  1  0  0  0  0
 26 27  1  0  0  0  0
 26 82  1  0  0  0  0
 26 83  1  0  0  0  0
 27 28  1  0  0  0  0
 27 84  1  0  0  0  0
 27 85  1  0  0  0  0
 28 29  1  0  0  0  0
 28 86  1  0  0  0  0
 28 87  1  0  0  0  0
 29 30  1  0  0  0  0
 29 88  1  0  0  0  0
 29 89  1  0  0  0  0
 30 31  1  0  0  0  0
 30 90  1  0  0  0  0
 30 91  1  0  0  0  0
 31 32  1  0  0  0  0
 31 92  1  0  0  0  0
 31 93  1  0  0  0  0
 32 33  1  0  0  0  0
 32 94  1  0  0  0  0
 32 95  1  0  0  0  0
 33 34  1  0  0  0  0
 33 96  1  0  0  0  0
 33 97  1  0  0  0  0
 34 35  1  0  0  0  0
 34 98  1  0  0  0  0
 34 99  1  0  0  0  0
 35 36  1  0  0  0  0
 35100  1  0  0  0  0
 35101  1  0  0  0  0
 36 37  1  0  0  0  0
 36102  1  0  0  0  0
 36103  1  0  0  0  0
 37 38  1  0  0  0  0
 37104  1  0  0  0  0
 37105  1  0  0  0  0
 38 39  1  0  0  0  0
 38106  1  0  0  0  0
 38107  1  0  0  0  0
 39 40  1  0  0  0  0
 39108  1  0  0  0  0
 39109  1  0  0  0  0
 40110  1  0  0  0  0
 40111  1  0  0  0  0
 40112  1  0  0  0  0
 41113  1  0  0  0  0
 42114  1  0  0  0  0
M  END
>  <DRUGBANK_ID>
DB14705

>  <COMMON_NAME>
Ceramide AP

>  <CAS_NUMBER>
212070-45-6

>  <UNII>
F1X8L2B00J

>  <SYNONYMS>
Biomide 6; Ceramide 6; Ceramide 6 II; Ceramide VI; Cytomide VI; N-(2-hydroxyoctadecanoyl)-4-hydroxysphinganine; N-(2-hydroxyoctadecanoyl)-4R-hydroxysphinganine; N-(2-hydroxyoctadecanoyl)-hydroxysphinganine; N-(2-hydroxyoctadecanoyl)phytoceramide; N-(2-hydroxyoctadecanoyl)phytosphingosine; N-2-hydroxystearoyl-phytosphingosine; PHC-C 18:0/18:0; phytosphingosine-2-hydroxy-18:0

$$$$
