R04
 OpenBabel10282417123D

 51 53  0  0  0  0  0  0  0  0999 V2000
    0.9930   -0.1061   -0.0743 C   0  0  0  0  0  0  0  0  0  0  0  0
    0.2994   -0.7237   -1.0545 C   0  0  0  0  0  0  0  0  0  0  0  0
   -1.2070   -0.7496   -1.1108 C   0  0  0  0  0  0  0  0  0  0  0  0
   -1.7550   -0.0994   -2.3159 N   0  0  0  0  0  0  0  0  0  0  0  0
   -3.2399    0.0037   -2.2738 C   0  0  0  0  0  0  0  0  0  0  0  0
   -3.8511    0.7038   -1.0675 C   0  0  0  0  0  0  0  0  0  0  0  0
   -4.6349    1.8019   -1.0984 C   0  0  0  0  0  0  0  0  0  0  0  0
   -4.9750    2.6283    0.1251 C   0  0  0  0  0  0  0  0  0  0  0  0
   -4.5435    4.0215    0.1038 O   0  0  0  0  0  0  0  0  0  0  0  0
   -3.1888    4.2595    0.1257 C   0  0  0  0  0  0  0  0  0  0  0  0
   -2.6341    5.1581    1.0532 C   0  0  0  0  0  0  0  0  0  0  0  0
   -1.2305    5.3967    0.9903 C   0  0  0  0  0  0  0  0  0  0  0  0
   -0.3554    6.2132    1.6635 N   0  0  0  0  0  0  0  0  0  0  0  0
    0.9517    6.0766    1.3026 N   0  0  0  0  0  0  0  0  0  0  0  0
    0.9257    5.1926    0.2945 C   0  0  0  0  0  0  0  0  0  0  0  0
   -0.4076    4.7631    0.0740 C   0  0  0  0  0  0  0  0  0  0  0  0
   -0.9840    3.9310   -0.8627 C   0  0  0  0  0  0  0  0  0  0  0  0
   -2.3636    3.7860   -0.8777 C   0  0  0  0  0  0  0  0  0  0  0  0
    2.0979    4.7019   -0.4527 C   0  0  0  0  0  0  0  0  0  0  0  0
    2.1160    4.7121   -1.8632 C   0  0  0  0  0  0  0  0  0  0  0  0
    3.1058    4.0228   -2.5797 C   0  0  0  0  0  0  0  0  0  0  0  0
    4.1322    3.3850   -1.8903 C   0  0  0  0  0  0  0  0  0  0  0  0
    4.1780    3.4364   -0.4981 C   0  0  0  0  0  0  0  0  0  0  0  0
    3.1426    4.0562    0.2175 C   0  0  0  0  0  0  0  0  0  0  0  0
   -2.8860    3.2670   -1.9910 F   0  0  0  0  0  0  0  0  0  0  0  0
    5.4468    2.4125   -2.8415 Br  0  0  0  0  0  0  0  0  0  0  0  0
   -0.7289    7.1702    2.6758 C   0  0  0  0  0  0  0  0  0  0  0  0
   -1.1740    1.2261   -2.4373 C   0  0  0  0  0  0  0  0  0  0  0  0
    0.4889    0.3944    0.7452 H   0  0  0  0  0  0  0  0  0  0  0  0
    2.0748   -0.0648   -0.0963 H   0  0  0  0  0  0  0  0  0  0  0  0
    0.8329   -1.1712   -1.8852 H   0  0  0  0  0  0  0  0  0  0  0  0
   -1.5435   -1.7894   -1.0849 H   0  0  0  0  0  0  0  0  0  0  0  0
   -1.5750   -0.2637   -0.2000 H   0  0  0  0  0  0  0  0  0  0  0  0
   -3.5725    0.5062   -3.1938 H   0  0  0  0  0  0  0  0  0  0  0  0
   -3.6453   -1.0112   -2.3310 H   0  0  0  0  0  0  0  0  0  0  0  0
   -3.5635    0.3205   -0.0937 H   0  0  0  0  0  0  0  0  0  0  0  0
   -4.9479    2.2152   -2.0559 H   0  0  0  0  0  0  0  0  0  0  0  0
   -6.0702    2.6589    0.1914 H   0  0  0  0  0  0  0  0  0  0  0  0
   -4.6207    2.1537    1.0478 H   0  0  0  0  0  0  0  0  0  0  0  0
   -3.2666    5.6887    1.7576 H   0  0  0  0  0  0  0  0  0  0  0  0
   -0.3591    3.4677   -1.6111 H   0  0  0  0  0  0  0  0  0  0  0  0
    1.3369    5.2258   -2.4239 H   0  0  0  0  0  0  0  0  0  0  0  0
    3.0603    3.9784   -3.6662 H   0  0  0  0  0  0  0  0  0  0  0  0
    5.0017    2.9763    0.0412 H   0  0  0  0  0  0  0  0  0  0  0  0
    3.1352    3.9969    1.3028 H   0  0  0  0  0  0  0  0  0  0  0  0
   -1.4315    7.8806    2.2310 H   0  0  0  0  0  0  0  0  0  0  0  0
   -1.2039    6.6250    3.4945 H   0  0  0  0  0  0  0  0  0  0  0  0
    0.1599    7.6942    3.0320 H   0  0  0  0  0  0  0  0  0  0  0  0
   -1.3290    1.6814   -1.4681 H   0  0  0  0  0  0  0  0  0  0  0  0
   -0.0926    1.2407   -2.6149 H   0  0  0  0  0  0  0  0  0  0  0  0
   -1.6168    1.8317   -3.2344 H   0  0  0  0  0  0  0  0  0  0  0  0
  1  2  2  0  0  0  0
  1 29  1  0  0  0  0
  1 30  1  0  0  0  0
  2  3  1  0  0  0  0
  2 31  1  0  0  0  0
  3  4  1  0  0  0  0
  3 32  1  0  0  0  0
  3 33  1  0  0  0  0
  4  5  1  0  0  0  0
  4 28  1  0  0  0  0
  5  6  1  0  0  0  0
  5 34  1  0  0  0  0
  5 35  1  0  0  0  0
  6  7  2  0  0  0  0
  6 36  1  0  0  0  0
  7  8  1  0  0  0  0
  7 37  1  0  0  0  0
  8  9  1  0  0  0  0
  8 38  1  0  0  0  0
  8 39  1  0  0  0  0
  9 10  1  0  0  0  0
 10 11  2  0  0  0  0
 10 18  1  0  0  0  0
 11 12  1  0  0  0  0
 11 40  1  0  0  0  0
 12 13  1  0  0  0  0
 12 16  2  0  0  0  0
 13 14  1  0  0  0  0
 13 27  1  0  0  0  0
 14 15  2  0  0  0  0
 15 16  1  0  0  0  0
 15 19  1  0  0  0  0
 16 17  1  0  0  0  0
 17 18  2  0  0  0  0
 17 41  1  0  0  0  0
 18 25  1  0  0  0  0
 19 20  2  0  0  0  0
 19 24  1  0  0  0  0
 20 21  1  0  0  0  0
 20 42  1  0  0  0  0
 21 22  2  0  0  0  0
 21 43  1  0  0  0  0
 22 23  1  0  0  0  0
 22 26  1  0  0  0  0
 23 24  2  0  0  0  0
 23 44  1  0  0  0  0
 24 45  1  0  0  0  0
 27 46  1  0  0  0  0
 27 47  1  0  0  0  0
 27 48  1  0  0  0  0
 28 49  1  0  0  0  0
 28 50  1  0  0  0  0
 28 51  1  0  0  0  0
M  END
>  <DRUGBANK_ID>
DB02139

>  <SECONDARY_ACCESSION_NUMBERS>
EXPT02738

>  <COMMON_NAME>
(2e)-N-Allyl-4-{[3-(4-Bromophenyl)-5-Fluoro-1-Methyl-1h-Indazol-6-Yl]Oxy}-N-Methyl-2-Buten-1-Amine

$$$$
