
 OpenBabel10282417133D

 62 67  0  0  1  0  0  0  0  0999 V2000
   -5.7781    3.4966   -2.9878 C   0  0  0  0  0  0  0  0  0  0  0  0
   -6.0583    2.1331   -2.8678 C   0  0  0  0  0  0  0  0  0  0  0  0
   -5.2635    4.1605   -1.9008 C   0  0  0  0  0  0  0  0  0  0  0  0
    2.3402    4.2854    2.7733 C   0  0  0  0  0  0  0  0  0  0  0  0
    1.1306    3.6745    2.8181 C   0  0  0  0  0  0  0  0  0  0  0  0
   -5.7293    1.4094   -1.6956 C   0  0  0  0  0  0  0  0  0  0  0  0
   -5.0870    3.4542   -0.7171 C   0  0  0  0  0  0  0  0  0  0  0  0
    2.8335    4.5734    1.4838 C   0  0  0  0  0  0  0  0  0  0  0  0
    0.5989    3.2051    1.6330 C   0  0  0  0  0  0  0  0  0  0  0  0
    0.3981    5.1746   -1.7514 C   0  0  0  0  0  0  0  0  0  0  0  0
    1.7343    5.0780   -1.1798 C   0  0  0  0  0  0  0  0  0  0  0  0
   -0.7635    0.1932    5.3813 C   0  0  0  0  0  0  0  0  0  0  0  0
   -0.9167   -1.3888    3.5854 C   0  0  0  0  0  0  0  0  0  0  0  0
   -0.0180   -0.7155    6.1515 C   0  0  0  0  0  0  0  0  0  0  0  0
   -0.1469   -2.2967    4.3461 C   0  0  0  0  0  0  0  0  0  0  0  0
   -0.1020    3.4908   -0.5004 C   0  0  0  0  0  0  0  0  0  0  0  0
   -4.8078    1.3940    0.7441 C   0  0  0  0  0  0  0  0  0  0  0  0
   -1.4514    5.6166   -0.1270 C   0  0  0  0  0  0  0  0  0  0  0  0
   -1.5460    2.2110    3.3553 C   0  0  0  0  0  0  0  0  0  0  0  0
   -5.1795    2.0639   -0.5903 C   0  0  0  0  0  0  0  0  0  0  0  0
   -0.6014    4.6521   -0.9738 C   0  0  0  0  0  0  0  0  0  0  0  0
    1.9438    4.5940    0.2297 C   0  0  0  0  0  0  0  0  0  0  0  0
   -1.2359   -0.1130    4.0813 C   0  0  0  0  0  0  0  0  0  0  0  0
    0.8728    3.7411    0.4400 C   0  0  0  0  0  0  0  0  0  0  0  0
    0.2805   -1.9617    5.6266 C   0  0  0  0  0  0  0  0  0  0  0  0
   -3.3187    1.4831    1.2293 C   0  0  1  0  0  0  0  0  0  0  0  0
   -1.9679    0.9359    3.2776 C   0  0  0  0  0  0  0  0  0  0  0  0
   -2.8276    2.9468    1.5021 C   0  0  0  0  0  0  0  0  0  0  0  0
   -1.6568    4.6001    2.4210 C   0  0  0  0  0  0  0  0  0  0  0  0
   -2.2758    5.1147    1.1145 C   0  0  2  0  0  0  0  0  0  0  0  0
   -3.0153    0.6297    2.4247 N   0  0  0  0  0  0  0  0  0  0  0  0
   -2.9642    3.9040    0.6528 N   0  0  0  0  0  0  0  0  0  0  0  0
   -2.0726    3.2554    2.5760 N   0  0  0  0  0  0  0  0  0  0  0  0
    0.9784   -2.8922    6.3394 O   0  0  0  0  0  0  0  0  0  0  0  0
   -0.9562    5.3102    3.1636 O   0  0  0  0  0  0  0  0  0  0  0  0
   -2.2667    7.4102    1.7095 O   0  0  0  0  0  0  0  0  0  0  0  0
   -3.1257    6.2150    1.5725 O   0  0  0  0  0  0  0  0  0  0  0  0
   -2.6946    1.0789    0.4188 H   0  0  0  0  0  0  0  0  0  0  0  0
   -6.0063    4.0549   -3.8906 H   0  0  0  0  0  0  0  0  0  0  0  0
   -6.5536    1.6366   -3.6979 H   0  0  0  0  0  0  0  0  0  0  0  0
   -5.0450    5.2250   -1.9161 H   0  0  0  0  0  0  0  0  0  0  0  0
    2.7738    4.5186    3.7470 H   0  0  0  0  0  0  0  0  0  0  0  0
    0.5933    3.6916    3.7597 H   0  0  0  0  0  0  0  0  0  0  0  0
   -5.9656    0.3490   -1.6630 H   0  0  0  0  0  0  0  0  0  0  0  0
   -4.8892    4.0672    0.1478 H   0  0  0  0  0  0  0  0  0  0  0  0
    3.8813    4.8637    1.4994 H   0  0  0  0  0  0  0  0  0  0  0  0
   -0.2866    2.5968    1.5560 H   0  0  0  0  0  0  0  0  0  0  0  0
    0.0798    5.4376   -2.7603 H   0  0  0  0  0  0  0  0  0  0  0  0
    2.5851    5.2894   -1.8213 H   0  0  0  0  0  0  0  0  0  0  0  0
   -0.9701    1.1668    5.8212 H   0  0  0  0  0  0  0  0  0  0  0  0
   -1.2389   -1.6961    2.5940 H   0  0  0  0  0  0  0  0  0  0  0  0
    0.3165   -0.4261    7.1441 H   0  0  0  0  0  0  0  0  0  0  0  0
    0.1218   -3.2697    3.9394 H   0  0  0  0  0  0  0  0  0  0  0  0
    0.2915    2.8344   -1.3143 H   0  0  0  0  0  0  0  0  0  0  0  0
   -5.4457    1.8407    1.5156 H   0  0  0  0  0  0  0  0  0  0  0  0
   -5.1003    0.3353    0.6914 H   0  0  0  0  0  0  0  0  0  0  0  0
   -2.1864    6.0580   -0.8240 H   0  0  0  0  0  0  0  0  0  0  0  0
   -0.8101    6.4594    0.1620 H   0  0  0  0  0  0  0  0  0  0  0  0
   -0.6176    2.3510    3.8864 H   0  0  0  0  0  0  0  0  0  0  0  0
   -3.6177   -0.1403    2.6962 H   0  0  0  0  0  0  0  0  0  0  0  0
    1.1238   -2.5641    7.2429 H   0  0  0  0  0  0  0  0  0  0  0  0
   -2.6951    7.7958    2.4952 H   0  0  0  0  0  0  0  0  0  0  0  0
  1 39  1  0  0  0  0
  2  1  2  0  0  0  0
  2 40  1  0  0  0  0
  3  1  1  0  0  0  0
  3 41  1  0  0  0  0
  4 42  1  0  0  0  0
  5  4  2  0  0  0  0
  5 43  1  0  0  0  0
  6  2  1  0  0  0  0
  6 44  1  0  0  0  0
  7  3  2  0  0  0  0
  7 45  1  0  0  0  0
  8  4  1  0  0  0  0
  8 46  1  0  0  0  0
  9  5  1  0  0  0  0
  9 47  1  0  0  0  0
 10 48  1  0  0  0  0
 11 10  2  0  0  0  0
 11 49  1  0  0  0  0
 12 50  1  0  0  0  0
 13 51  1  0  0  0  0
 14 12  1  0  0  0  0
 14 52  1  0  0  0  0
 15 13  2  0  0  0  0
 15 53  1  0  0  0  0
 16 54  1  0  0  0  0
 17 55  1  0  0  0  0
 17 56  1  0  0  0  0
 18 57  1  0  0  0  0
 18 58  1  0  0  0  0
 19 59  1  0  0  0  0
 20  6  2  0  0  0  0
 20  7  1  0  0  0  0
 20 17  1  0  0  0  0
 21 10  1  0  0  0  0
 21 16  2  0  0  0  0
 21 18  1  0  0  0  0
 22  8  2  0  0  0  0
 22 11  1  0  0  0  0
 23 12  2  0  0  0  0
 23 13  1  0  0  0  0
 24  9  2  0  0  0  0
 24 16  1  0  0  0  0
 24 22  1  0  0  0  0
 25 14  2  0  0  0  0
 25 15  1  0  0  0  0
 26 38  1  6  0  0  0
 26 17  1  0  0  0  0
 27 19  2  0  0  0  0
 27 23  1  0  0  0  0
 28 26  1  0  0  0  0
 30 29  1  0  0  0  0
 30 37  1  1  0  0  0
 30 18  1  0  0  0  0
 31 26  1  0  0  0  0
 31 27  1  0  0  0  0
 31 60  1  0  0  0  0
 32 28  2  0  0  0  0
 32 30  1  0  0  0  0
 33 19  1  0  0  0  0
 33 28  1  0  0  0  0
 33 29  1  0  0  0  0
 34 25  1  0  0  0  0
 34 61  1  0  0  0  0
 35 29  2  0  0  0  0
 36 62  1  0  0  0  0
 37 36  1  0  0  0  0
M  END
>  <DRUGBANK_ID>
DB04118

>  <SECONDARY_ACCESSION_NUMBERS>
EXPT01087

>  <COMMON_NAME>
N-Coeleneterazine

$$$$
