
 OpenBabel10282417203D

 52 55  0  0  0  0  0  0  0  0999 V2000
   -0.0689   -1.0168   -0.3768 C   0  0  0  0  0  0  0  0  0  0  0  0
    5.3084   -1.1293    4.2595 C   0  0  0  0  0  0  0  0  0  0  0  0
    1.2286   -2.6960   -1.6151 C   0  0  0  0  0  0  0  0  0  0  0  0
   -0.0321   -4.2548    2.4225 C   0  0  0  0  0  0  0  0  0  0  0  0
    1.1883   -4.2481    3.1930 C   0  0  0  0  0  0  0  0  0  0  0  0
    3.3134   -2.5875    2.7636 C   0  0  0  0  0  0  0  0  0  0  0  0
    2.3092   -0.8515    3.0110 C   0  0  0  0  0  0  0  0  0  0  0  0
    3.1011   -1.1615    0.6973 C   0  0  0  0  0  0  0  0  0  0  0  0
    4.3478   -0.8564    1.7290 C   0  0  0  0  0  0  0  0  0  0  0  0
   -0.6549   -4.2471   -0.9477 C   0  0  0  0  0  0  0  0  0  0  0  0
    1.4251   -5.0556    0.3849 C   0  0  0  0  0  0  0  0  0  0  0  0
   -0.4108   -2.7764   -0.3480 C   0  0  0  0  0  0  0  0  0  0  0  0
    0.4694   -4.0434    0.9938 C   0  0  1  0  0  0  0  0  0  0  0  0
    0.1997   -5.6186   -0.0509 C   0  0  0  0  0  0  0  0  0  0  0  0
    1.6066   -2.8375    2.8457 C   0  0  1  0  0  0  0  0  0  0  0  0
    2.8937   -2.3304    4.0279 C   0  0  1  0  0  0  0  0  0  0  0  0
    2.0961   -2.4677    1.0223 C   0  0  1  0  0  0  0  0  0  0  0  0
    3.1064   -0.0303    3.9424 C   0  0  1  0  0  0  0  0  0  0  0  0
    4.0197   -1.0821    3.5407 C   0  0  2  0  0  0  0  0  0  0  0  0
    0.9658   -2.8950    0.0954 C   0  0  2  0  0  0  0  0  0  0  0  0
   -0.2138   -6.6668    0.5615 O   0  0  0  0  0  0  0  0  0  0  0  0
    3.3967    1.2759    3.5883 O   0  0  0  0  0  0  0  0  0  0  0  0
   -0.6738   -4.1466    0.9387 H   0  0  0  0  0  0  0  0  0  0  0  0
    0.6849   -2.2503    2.9730 H   0  0  0  0  0  0  0  0  0  0  0  0
    3.1227   -3.0351    4.8287 H   0  0  0  0  0  0  0  0  0  0  0  0
    2.8606   -3.2409    0.7661 H   0  0  0  0  0  0  0  0  0  0  0  0
    2.7180   -0.1106    4.9666 H   0  0  0  0  0  0  0  0  0  0  0  0
   -0.2103   -0.4701    0.5786 H   0  0  0  0  0  0  0  0  0  0  0  0
   -0.2637   -0.4651   -1.2926 H   0  0  0  0  0  0  0  0  0  0  0  0
    1.0391   -0.7954   -0.3966 H   0  0  0  0  0  0  0  0  0  0  0  0
    5.7834   -0.1652    4.0960 H   0  0  0  0  0  0  0  0  0  0  0  0
    5.1031   -1.3150    5.3117 H   0  0  0  0  0  0  0  0  0  0  0  0
    5.9186   -1.9323    3.8390 H   0  0  0  0  0  0  0  0  0  0  0  0
    0.2794   -2.3827   -2.1997 H   0  0  0  0  0  0  0  0  0  0  0  0
    1.8361   -1.8347   -1.8959 H   0  0  0  0  0  0  0  0  0  0  0  0
    1.5047   -3.5977   -2.1385 H   0  0  0  0  0  0  0  0  0  0  0  0
   -0.5835   -5.1985    2.5080 H   0  0  0  0  0  0  0  0  0  0  0  0
   -0.7783   -3.4853    2.7301 H   0  0  0  0  0  0  0  0  0  0  0  0
    1.8677   -5.0243    2.8419 H   0  0  0  0  0  0  0  0  0  0  0  0
    1.0009   -4.4106    4.2454 H   0  0  0  0  0  0  0  0  0  0  0  0
    3.3239   -3.6885    3.0373 H   0  0  0  0  0  0  0  0  0  0  0  0
    4.3114   -2.7478    2.3333 H   0  0  0  0  0  0  0  0  0  0  0  0
    1.3583   -0.8644    3.6060 H   0  0  0  0  0  0  0  0  0  0  0  0
    1.8096   -0.3457    2.1844 H   0  0  0  0  0  0  0  0  0  0  0  0
    2.5517   -0.2218    0.6753 H   0  0  0  0  0  0  0  0  0  0  0  0
    3.4627   -1.2172   -0.3333 H   0  0  0  0  0  0  0  0  0  0  0  0
    4.6896    0.1630    1.5842 H   0  0  0  0  0  0  0  0  0  0  0  0
    5.1775   -1.5151    1.4144 H   0  0  0  0  0  0  0  0  0  0  0  0
   -0.1040   -4.7353   -1.7975 H   0  0  0  0  0  0  0  0  0  0  0  0
    1.9354   -4.8279   -0.5650 H   0  0  0  0  0  0  0  0  0  0  0  0
    2.2582   -5.3720    1.0187 H   0  0  0  0  0  0  0  0  0  0  0  0
    3.2412    1.4043    2.6421 H   0  0  0  0  0  0  0  0  0  0  0  0
  1 28  1  0  0  0  0
  1 29  1  0  0  0  0
  1 30  1  0  0  0  0
  2 31  1  0  0  0  0
  2 32  1  0  0  0  0
  2 33  1  0  0  0  0
  3 34  1  0  0  0  0
  3 35  1  0  0  0  0
  3 36  1  0  0  0  0
  4 37  1  0  0  0  0
  4 38  1  0  0  0  0
  5  4  1  0  0  0  0
  5 39  1  0  0  0  0
  5 40  1  0  0  0  0
  6 41  1  0  0  0  0
  6 42  1  0  0  0  0
  7  6  1  0  0  0  0
  7 43  1  0  0  0  0
  7 44  1  0  0  0  0
  8 45  1  0  0  0  0
  8 46  1  0  0  0  0
  9  8  1  0  0  0  0
  9 47  1  0  0  0  0
  9 48  1  0  0  0  0
 10 49  1  0  0  0  0
 11 50  1  0  0  0  0
 11 51  1  0  0  0  0
 12  1  1  0  0  0  0
 12 10  2  0  0  0  0
 13  4  1  0  0  0  0
 13 11  1  0  0  0  0
 13 23  1  1  0  0  0
 14 10  1  0  0  0  0
 14 11  1  0  0  0  0
 15  5  1  0  0  0  0
 15 24  1  1  0  0  0
 16  6  1  0  0  0  0
 16 15  1  0  0  0  0
 16 25  1  6  0  0  0
 17  8  1  0  0  0  0
 17 15  1  0  0  0  0
 17 26  1  6  0  0  0
 18  7  1  0  0  0  0
 18 27  1  1  0  0  0
 18 22  1  0  0  0  0
 19  2  1  6  0  0  0
 19  9  1  0  0  0  0
 19 16  1  0  0  0  0
 19 18  1  0  0  0  0
 20  3  1  1  0  0  0
 20 12  1  0  0  0  0
 20 13  1  0  0  0  0
 20 17  1  0  0  0  0
 21 14  2  0  0  0  0
 22 52  1  0  0  0  0
M  END
>  <DRUGBANK_ID>
DB13710

>  <COMMON_NAME>
Metenolone

>  <CAS_NUMBER>
153-00-4

>  <UNII>
9062ZT8Q5C

>  <SYNONYMS>
Metenolona; Metenolone; Methenolone

$$$$
