Untitled Document-7
 OpenBabel10282417123D

 51 54  0  0  0  0  0  0  0  0999 V2000
    1.3055    0.0558   -0.1867 C   0  0  0  0  0  0  0  0  0  0  0  0
    0.3487   -0.3766   -1.2012 C   0  0  0  0  0  0  0  0  0  0  0  0
    0.3906    0.6190   -2.4611 C   0  0  0  0  0  0  0  0  0  0  0  0
    0.2603    2.1563   -2.0044 C   0  0  1  0  0  0  0  0  0  0  0  0
    1.1549    2.4566   -0.7593 C   0  0  2  0  0  0  0  0  0  0  0  0
    0.7397    1.3808    0.2674 C   0  0  0  0  0  0  0  0  0  0  0  0
    0.5807    3.2614   -3.0443 C   0  0  0  0  0  0  0  0  0  0  0  0
    0.4823    4.7973   -2.4967 C   0  0  0  0  0  0  0  0  0  0  0  0
    1.4105    5.1135   -1.2085 C   0  0  2  0  0  0  0  0  0  0  0  0
    0.9095    3.9101   -0.2054 C   0  0  2  0  0  0  0  0  0  0  0  0
    1.9872    6.8098   -0.5722 C   0  0  1  0  0  0  0  0  0  0  0  0
    1.7896    6.3147    0.7477 C   0  0  2  0  0  0  0  0  0  0  0  0
    1.2225    5.3175    1.6771 C   0  0  0  0  0  0  0  0  0  0  0  0
    1.5392    3.9821    1.1672 C   0  0  0  0  0  0  0  0  0  0  0  0
    2.9686    7.8043    0.8691 C   0  0  0  0  0  0  0  0  0  0  0  0
    2.0331    8.2330    2.0304 C   0  0  0  0  0  0  0  0  0  0  0  0
    1.0437    7.8050    1.0779 C   0  0  2  0  0  0  0  0  0  0  0  0
   -0.3187   -1.4313   -1.0307 O   0  0  0  0  0  0  0  0  0  0  0  0
    2.6795    2.2994   -1.0629 C   0  0  0  0  0  0  0  0  0  0  0  0
    2.3366    4.8061   -1.6800 H   0  0  0  0  0  0  0  0  0  0  0  0
    3.5096    5.7156    0.2526 C   0  0  0  0  0  0  0  0  0  0  0  0
   -0.2883    7.7975    1.4834 O   0  0  0  0  0  0  0  0  0  0  0  0
   -0.8048    2.2579   -1.7404 H   0  0  0  0  0  0  0  0  0  0  0  0
   -0.1832    4.0260   -0.0691 H   0  0  0  0  0  0  0  0  0  0  0  0
    1.3195    7.4974   -1.1034 H   0  0  0  0  0  0  0  0  0  0  0  0
    2.0234    0.0429   -1.0028 H   0  0  0  0  0  0  0  0  0  0  0  0
    2.1432   -0.3124    0.4119 H   0  0  0  0  0  0  0  0  0  0  0  0
   -0.2925    0.3254   -3.2622 H   0  0  0  0  0  0  0  0  0  0  0  0
    1.3954    0.5029   -2.8944 H   0  0  0  0  0  0  0  0  0  0  0  0
   -0.3658    1.3620    0.3414 H   0  0  0  0  0  0  0  0  0  0  0  0
    1.0623    1.5364    1.2918 H   0  0  0  0  0  0  0  0  0  0  0  0
    1.5945    3.0964   -3.4277 H   0  0  0  0  0  0  0  0  0  0  0  0
   -0.0853    3.1239   -3.9065 H   0  0  0  0  0  0  0  0  0  0  0  0
    0.7640    5.4370   -3.3358 H   0  0  0  0  0  0  0  0  0  0  0  0
   -0.5805    4.9613   -2.2710 H   0  0  0  0  0  0  0  0  0  0  0  0
    1.6894    5.4239    2.6623 H   0  0  0  0  0  0  0  0  0  0  0  0
    0.1439    5.4250    1.8120 H   0  0  0  0  0  0  0  0  0  0  0  0
    2.6122    3.8093    1.1273 H   0  0  0  0  0  0  0  0  0  0  0  0
    1.1703    3.2759    1.9032 H   0  0  0  0  0  0  0  0  0  0  0  0
    3.7921    8.5204    0.7366 H   0  0  0  0  0  0  0  0  0  0  0  0
    3.5883    7.1647    1.5480 H   0  0  0  0  0  0  0  0  0  0  0  0
    2.0086    9.2746    2.3490 H   0  0  0  0  0  0  0  0  0  0  0  0
    2.0081    7.5897    2.9288 H   0  0  0  0  0  0  0  0  0  0  0  0
    1.0760    8.6131    0.3001 H   0  0  0  0  0  0  0  0  0  0  0  0
    3.2609    2.3659   -0.1409 H   0  0  0  0  0  0  0  0  0  0  0  0
    2.9803    1.3602   -1.5167 H   0  0  0  0  0  0  0  0  0  0  0  0
    3.0566    3.0154   -1.7844 H   0  0  0  0  0  0  0  0  0  0  0  0
    3.5378    4.8086   -0.3457 H   0  0  0  0  0  0  0  0  0  0  0  0
    4.0299    6.4330   -0.4541 H   0  0  0  0  0  0  0  0  0  0  0  0
    4.1930    5.5366    1.0798 H   0  0  0  0  0  0  0  0  0  0  0  0
   -0.3151    7.3981    2.3584 H   0  0  0  0  0  0  0  0  0  0  0  0
  1  2  1  0  0  0  0
  1 26  1  0  0  0  0
  1 27  1  0  0  0  0
  2  3  1  0  0  0  0
  2 18  2  0  0  0  0
  3  4  1  0  0  0  0
  3 28  1  0  0  0  0
  3 29  1  0  0  0  0
  4  5  1  0  0  0  0
  4  7  1  0  0  0  0
  4 23  1  1  0  0  0
  5  6  1  0  0  0  0
  5 19  1  6  0  0  0
  6  1  1  0  0  0  0
  6 30  1  0  0  0  0
  6 31  1  0  0  0  0
  7  8  1  0  0  0  0
  7 32  1  0  0  0  0
  7 33  1  0  0  0  0
  8  9  1  0  0  0  0
  8 34  1  0  0  0  0
  8 35  1  0  0  0  0
  9 10  1  0  0  0  0
  9 11  1  0  0  0  0
  9 20  1  6  0  0  0
 10  5  1  0  0  0  0
 10 24  1  1  0  0  0
 11 12  1  0  0  0  0
 11 15  1  0  0  0  0
 11 25  1  6  0  0  0
 12 13  1  0  0  0  0
 12 21  1  1  0  0  0
 13 14  1  0  0  0  0
 13 36  1  0  0  0  0
 13 37  1  0  0  0  0
 14 10  1  0  0  0  0
 14 38  1  0  0  0  0
 14 39  1  0  0  0  0
 15 16  1  0  0  0  0
 15 40  1  0  0  0  0
 15 41  1  0  0  0  0
 16 17  1  0  0  0  0
 16 42  1  0  0  0  0
 16 43  1  0  0  0  0
 17 12  1  0  0  0  0
 17 44  1  6  0  0  0
 17 22  1  0  0  0  0
 19 45  1  0  0  0  0
 19 46  1  0  0  0  0
 19 47  1  0  0  0  0
 21 48  1  0  0  0  0
 21 49  1  0  0  0  0
 21 50  1  0  0  0  0
 22 51  1  0  0  0  0
M  END
>  <DRUGBANK_ID>
DB02901

>  <SECONDARY_ACCESSION_NUMBERS>
EXPT01199

>  <COMMON_NAME>
Stanolone

>  <CAS_NUMBER>
521-18-6

>  <UNII>
08J2K08A3Y

>  <SYNONYMS>
17beta-Hydroxy-5alpha-androstan-3-one; 17beta-Hydroxy-5alpha-androstane-3-one; 17beta-Hydroxyandrostan-3-one; 17β-hydroxy-3-oxo-5α-androstanone; 17β-hydroxy-5α-androstan-3-one; 4-Dihydrotestosterone; 5alpha-Dihydrotestosterone; 5α-DHT; Androstanolona; Androstanolone; Androstanolonum; DHT; Dihydrotestosteron; Dihydrotestostérone; Dihydrotestosterone

$$$$
