
 OpenBabel10282417153D

 19 18  0  0  1  0  0  0  0  0999 V2000
    3.1473   -2.5829   -1.1165 S   0  0  0  0  0  0  0  0  0  0  0  0
   -0.4242   -2.3322   -4.1427 O   0  0  0  0  0  0  0  0  0  0  0  0
    0.5118   -3.7604   -2.6872 O   0  0  0  0  0  0  0  0  0  0  0  0
   -0.9510   -0.4958    0.7627 O   0  0  0  0  0  0  0  0  0  0  0  0
    0.2736   -1.3121   -0.9330 N   0  0  0  0  0  0  0  0  0  0  0  0
    0.8346   -1.3736   -2.2849 C   0  0  1  0  0  0  0  0  0  0  0  0
    2.3723   -1.3723   -2.2521 C   0  0  0  0  0  0  0  0  0  0  0  0
    0.3171   -2.6048   -3.0428 C   0  0  0  0  0  0  0  0  0  0  0  0
   -0.5844   -0.3958   -0.4045 C   0  0  0  0  0  0  0  0  0  0  0  0
   -1.0426    0.7255   -1.2932 C   0  0  0  0  0  0  0  0  0  0  0  0
    2.5415   -2.1919    0.0158 H   0  0  0  0  0  0  0  0  0  0  0  0
   -0.6191   -1.3984   -4.3425 H   0  0  0  0  0  0  0  0  0  0  0  0
    0.4870   -2.0863   -0.3098 H   0  0  0  0  0  0  0  0  0  0  0  0
    0.5225   -0.4843   -2.8415 H   0  0  0  0  0  0  0  0  0  0  0  0
    2.7247   -0.3839   -1.9362 H   0  0  0  0  0  0  0  0  0  0  0  0
    2.7671   -1.5594   -3.2557 H   0  0  0  0  0  0  0  0  0  0  0  0
   -0.1851    1.3214   -1.6165 H   0  0  0  0  0  0  0  0  0  0  0  0
   -1.5698    0.3156   -2.1594 H   0  0  0  0  0  0  0  0  0  0  0  0
   -1.7303    1.3749   -0.7451 H   0  0  0  0  0  0  0  0  0  0  0  0
  1  7  1  0  0  0  0
  1 11  1  0  0  0  0
  2  8  1  0  0  0  0
  2 12  1  0  0  0  0
  3  8  2  0  0  0  0
  4  9  2  0  0  0  0
  5  9  1  0  0  0  0
  5 13  1  0  0  0  0
  6  8  1  0  0  0  0
  6 14  1  6  0  0  0
  6  7  1  0  0  0  0
  6  5  1  0  0  0  0
  7 15  1  0  0  0  0
  7 16  1  0  0  0  0
  9 10  1  0  0  0  0
 10 17  1  0  0  0  0
 10 18  1  0  0  0  0
 10 19  1  0  0  0  0
M  END
>  <DRUGBANK_ID>
DB06151

>  <SECONDARY_ACCESSION_NUMBERS>
DB05436

>  <COMMON_NAME>
Acetylcysteine

>  <CAS_NUMBER>
616-91-1

>  <UNII>
WYQ7N0BPYC

>  <SYNONYMS>
(2R)-2-acetylamino-3-sulfanylpropanoic acid; (R)-2-acetylamino-3-mercaptopropanoic acid; (R)-mercapturic acid; Acetilcisteina; Acetylcysteine; Acetylcysteinum; L-acetylcysteine; L-α-acetamido-β-mercaptopropionic acid; Mercapturic acid; N-acetyl-L-(+)-cysteine; N-acetyl-L-cysteine; N-acetylcysteine; NAC

$$$$
