
 OpenBabel10282417123D

107107  0  0  0  0  0  0  0  0999 V2000
    0.3916   -0.0561    0.3517 Fe  0  0  0  0  0  0  0  0  0  0  0  0
    0.2867    1.3480   -0.9703 O   0  0  0  0  0  0  0  0  0  0  0  0
    4.2940    0.9532   -1.2246 O   0  0  0  0  0  0  0  0  0  0  0  0
   -2.7401    3.1511   -0.4931 O   0  0  0  0  0  0  0  0  0  0  0  0
    2.2811    6.2199    4.1192 O   0  0  0  0  0  0  0  0  0  0  0  0
    2.6981   -3.0901    0.3425 O   0  0  0  0  0  0  0  0  0  0  0  0
   -0.4476    3.3298    5.1984 O   0  0  0  0  0  0  0  0  0  0  0  0
    1.3215   -0.8740    5.5044 O   0  0  0  0  0  0  0  0  0  0  0  0
   -0.1915   -1.7067    0.7811 O   0  0  0  0  0  0  0  0  0  0  0  0
   -4.4645   -1.0294    0.7720 O   0  0  0  0  0  0  0  0  0  0  0  0
    3.6081    3.8969    1.8368 O   0  0  0  0  0  0  0  0  0  0  0  0
   -1.7732    3.5478    2.1746 O   0  0  0  0  0  0  0  0  0  0  0  0
    3.1492   -1.6285    2.7531 O   0  0  0  0  0  0  0  0  0  0  0  0
    2.7483    2.4367   -0.5604 N   0  0  0  0  0  0  0  0  0  0  0  0
   -0.5096    1.9664    0.9190 N   0  0  0  0  0  0  0  0  0  0  0  0
    3.5035   -0.9776    0.5764 N   0  0  0  0  0  0  0  0  0  0  0  0
   -3.4661    1.0410   -0.9858 N   0  0  0  0  0  0  0  0  0  0  0  0
    2.2964    5.2735    3.0841 N   0  0  0  0  0  0  0  0  0  0  0  0
   -1.3806    2.7708    4.2830 N   0  0  0  0  0  0  0  0  0  0  0  0
    2.1814   -0.5668    4.4435 N   0  0  0  0  0  0  0  0  0  0  0  0
   -2.7168   -2.3382    0.3007 N   0  0  0  0  0  0  0  0  0  0  0  0
    0.5453   -2.1355   -1.2589 N   0  0  0  0  0  0  0  0  0  0  0  0
    1.6395    3.0514    0.1932 C   0  0  1  0  0  0  0  0  0  0  0  0
    1.5105    4.5626    0.1405 C   0  0  0  0  0  0  0  0  0  0  0  0
   -1.9176    1.3428    0.8426 C   0  0  1  0  0  0  0  0  0  0  0  0
    3.3152    0.4696    0.8923 C   0  0  1  0  0  0  0  0  0  0  0  0
    0.5936    5.0949    1.2507 C   0  0  0  0  0  0  0  0  0  0  0  0
   -2.7209    1.1127    2.1503 C   0  0  0  0  0  0  0  0  0  0  0  0
    3.9383    0.9851    2.2144 C   0  0  0  0  0  0  0  0  0  0  0  0
    0.3220    2.3042   -0.1687 C   0  0  0  0  0  0  0  0  0  0  0  0
    3.5647    1.3538   -0.3271 C   0  0  0  0  0  0  0  0  0  0  0  0
   -1.9550    0.4907    3.2901 C   0  0  0  0  0  0  0  0  0  0  0  0
    2.9170    1.4810    3.2447 C   0  0  0  0  0  0  0  0  0  0  0  0
    1.0093    4.7487    2.6926 C   0  0  0  0  0  0  0  0  0  0  0  0
   -2.7778    1.9581   -0.2446 C   0  0  0  0  0  0  0  0  0  0  0  0
   -0.9525    1.4556    3.8561 C   0  0  0  0  0  0  0  0  0  0  0  0
    1.8152    0.5427    3.6424 C   0  0  0  0  0  0  0  0  0  0  0  0
    2.8174   -1.9559   -0.1027 C   0  0  0  0  0  0  0  0  0  0  0  0
   -1.7345   -2.9694   -0.5995 C   0  0  2  0  0  0  0  0  0  0  0  0
   -3.1631   -0.3766   -1.1724 C   0  0  0  0  0  0  0  0  0  0  0  0
    1.9397   -1.5329   -1.2665 C   0  0  0  0  0  0  0  0  0  0  0  0
   -1.6073   -4.4579   -0.4091 C   0  0  0  0  0  0  0  0  0  0  0  0
   -0.3783   -2.3605   -0.2630 C   0  0  0  0  0  0  0  0  0  0  0  0
   -3.5539   -1.2903    0.0001 C   0  0  0  0  0  0  0  0  0  0  0  0
    3.5010    4.8750    2.5802 C   0  0  0  0  0  0  0  0  0  0  0  0
   -2.8877   -5.1123   -0.8052 C   0  0  0  0  0  0  0  0  0  0  0  0
   -1.8047    3.7423    3.3890 C   0  0  0  0  0  0  0  0  0  0  0  0
    2.9279   -1.5828    3.9196 C   0  0  0  0  0  0  0  0  0  0  0  0
    4.7049    5.6798    2.9072 C   0  0  0  0  0  0  0  0  0  0  0  0
   -3.3910   -4.9481   -2.1053 C   0  0  0  0  0  0  0  0  0  0  0  0
   -3.5655   -5.9186    0.1100 C   0  0  0  0  0  0  0  0  0  0  0  0
   -2.2451    5.0733    3.8688 C   0  0  0  0  0  0  0  0  0  0  0  0
    3.4709   -2.5971    4.8491 C   0  0  0  0  0  0  0  0  0  0  0  0
   -4.5392   -5.6194   -2.4969 C   0  0  0  0  0  0  0  0  0  0  0  0
   -4.6758   -6.6400   -0.3094 C   0  0  0  0  0  0  0  0  0  0  0  0
   -5.1703   -6.4778   -1.6030 C   0  0  0  0  0  0  0  0  0  0  0  0
    1.3841    6.2344    4.5029 H   0  0  0  0  0  0  0  0  0  0  0  0
   -0.0669    2.5929    5.7131 H   0  0  0  0  0  0  0  0  0  0  0  0
    0.8713   -0.0584    5.7835 H   0  0  0  0  0  0  0  0  0  0  0  0
    3.2164    3.0493   -1.2379 H   0  0  0  0  0  0  0  0  0  0  0  0
   -0.6533    2.8294    1.4836 H   0  0  0  0  0  0  0  0  0  0  0  0
    4.0553   -1.4499    1.3155 H   0  0  0  0  0  0  0  0  0  0  0  0
   -4.1756    1.4558   -1.5898 H   0  0  0  0  0  0  0  0  0  0  0  0
   -3.1912   -2.9591    0.9729 H   0  0  0  0  0  0  0  0  0  0  0  0
    0.4458   -2.7948   -2.0481 H   0  0  0  0  0  0  0  0  0  0  0  0
    1.8107    2.7215    1.2001 H   0  0  0  0  0  0  0  0  0  0  0  0
    2.4768    5.0665    0.2212 H   0  0  0  0  0  0  0  0  0  0  0  0
    1.1175    4.8472   -0.8369 H   0  0  0  0  0  0  0  0  0  0  0  0
   -1.6732    0.3409    0.5374 H   0  0  0  0  0  0  0  0  0  0  0  0
    2.2475    0.5154    1.0375 H   0  0  0  0  0  0  0  0  0  0  0  0
    0.4755    6.1755    1.1679 H   0  0  0  0  0  0  0  0  0  0  0  0
   -0.3993    4.7109    1.0277 H   0  0  0  0  0  0  0  0  0  0  0  0
   -3.2468    1.9983    2.5025 H   0  0  0  0  0  0  0  0  0  0  0  0
   -3.5589    0.4618    1.9571 H   0  0  0  0  0  0  0  0  0  0  0  0
    4.5422    0.2402    2.7317 H   0  0  0  0  0  0  0  0  0  0  0  0
    4.6218    1.8069    1.9976 H   0  0  0  0  0  0  0  0  0  0  0  0
   -2.6233    0.2040    4.1060 H   0  0  0  0  0  0  0  0  0  0  0  0
   -1.4526   -0.4334    2.9593 H   0  0  0  0  0  0  0  0  0  0  0  0
    3.3900    1.8651    4.1522 H   0  0  0  0  0  0  0  0  0  0  0  0
    2.3955    2.3393    2.8599 H   0  0  0  0  0  0  0  0  0  0  0  0
    0.2859    5.1330    3.3938 H   0  0  0  0  0  0  0  0  0  0  0  0
    1.0010    3.6721    2.8600 H   0  0  0  0  0  0  0  0  0  0  0  0
   -0.5376    0.9359    4.7146 H   0  0  0  0  0  0  0  0  0  0  0  0
   -0.1988    1.6016    3.0885 H   0  0  0  0  0  0  0  0  0  0  0  0
    1.2415    1.1882    4.2833 H   0  0  0  0  0  0  0  0  0  0  0  0
    1.2260    0.1944    2.7793 H   0  0  0  0  0  0  0  0  0  0  0  0
   -1.9877   -2.6779   -1.6217 H   0  0  0  0  0  0  0  0  0  0  0  0
   -3.6329   -0.7342   -2.0835 H   0  0  0  0  0  0  0  0  0  0  0  0
   -2.0741   -0.4290   -1.3071 H   0  0  0  0  0  0  0  0  0  0  0  0
    2.4187   -1.7155   -2.2212 H   0  0  0  0  0  0  0  0  0  0  0  0
    1.7995   -0.4607   -1.1967 H   0  0  0  0  0  0  0  0  0  0  0  0
   -0.7956   -4.8432   -1.0366 H   0  0  0  0  0  0  0  0  0  0  0  0
   -1.3385   -4.6852    0.6310 H   0  0  0  0  0  0  0  0  0  0  0  0
    4.5079    6.7382    2.7289 H   0  0  0  0  0  0  0  0  0  0  0  0
    4.9993    5.4770    3.9352 H   0  0  0  0  0  0  0  0  0  0  0  0
    5.4994    5.3594    2.2247 H   0  0  0  0  0  0  0  0  0  0  0  0
   -2.8954   -4.3217   -2.8414 H   0  0  0  0  0  0  0  0  0  0  0  0
   -3.2279   -6.0252    1.1392 H   0  0  0  0  0  0  0  0  0  0  0  0
   -2.8512    4.9444    4.7566 H   0  0  0  0  0  0  0  0  0  0  0  0
   -1.4032    5.7371    4.0476 H   0  0  0  0  0  0  0  0  0  0  0  0
   -2.8429    5.5098    3.0590 H   0  0  0  0  0  0  0  0  0  0  0  0
    3.8553   -2.0987    5.7380 H   0  0  0  0  0  0  0  0  0  0  0  0
    2.6822   -3.3153    5.0502 H   0  0  0  0  0  0  0  0  0  0  0  0
    4.3009   -3.0673    4.3135 H   0  0  0  0  0  0  0  0  0  0  0  0
   -4.9198   -5.5103   -3.5098 H   0  0  0  0  0  0  0  0  0  0  0  0
   -5.1443   -7.3556    0.3627 H   0  0  0  0  0  0  0  0  0  0  0  0
   -6.0472   -7.0369   -1.9197 H   0  0  0  0  0  0  0  0  0  0  0  0
  2 30  2  0  0  0  0
  3 31  2  0  0  0  0
  4 35  2  0  0  0  0
  5 18  1  0  0  0  0
  5 57  1  0  0  0  0
  6 38  2  0  0  0  0
  7 19  1  0  0  0  0
  7 58  1  0  0  0  0
  8 20  1  0  0  0  0
  8 59  1  0  0  0  0
  9 43  2  0  0  0  0
 10 44  2  0  0  0  0
 11 45  2  0  0  0  0
 12 47  2  0  0  0  0
 13 48  2  0  0  0  0
 14 23  1  0  0  0  0
 14 31  1  0  0  0  0
 14 60  1  0  0  0  0
 15 25  1  0  0  0  0
 15 30  1  0  0  0  0
 15 61  1  0  0  0  0
 16 26  1  0  0  0  0
 16 38  1  0  0  0  0
 16 62  1  0  0  0  0
 17 35  1  0  0  0  0
 17 40  1  0  0  0  0
 17 63  1  0  0  0  0
 18 34  1  0  0  0  0
 18 45  1  0  0  0  0
 19 36  1  0  0  0  0
 19 47  1  0  0  0  0
 20 37  1  0  0  0  0
 20 48  1  0  0  0  0
 21 39  1  0  0  0  0
 21 44  1  0  0  0  0
 21 64  1  0  0  0  0
 22 41  1  0  0  0  0
 22 43  1  0  0  0  0
 22 65  1  0  0  0  0
 23 24  1  0  0  0  0
 23 30  1  0  0  0  0
 23 66  1  1  0  0  0
 24 27  1  0  0  0  0
 24 67  1  0  0  0  0
 24 68  1  0  0  0  0
 25 35  1  0  0  0  0
 25 69  1  6  0  0  0
 25 28  1  0  0  0  0
 26 31  1  0  0  0  0
 26 70  1  1  0  0  0
 26 29  1  0  0  0  0
 27 34  1  0  0  0  0
 27 71  1  0  0  0  0
 27 72  1  0  0  0  0
 28 32  1  0  0  0  0
 28 73  1  0  0  0  0
 28 74  1  0  0  0  0
 29 33  1  0  0  0  0
 29 75  1  0  0  0  0
 29 76  1  0  0  0  0
 32 36  1  0  0  0  0
 32 77  1  0  0  0  0
 32 78  1  0  0  0  0
 33 37  1  0  0  0  0
 33 79  1  0  0  0  0
 33 80  1  0  0  0  0
 34 81  1  0  0  0  0
 34 82  1  0  0  0  0
 36 83  1  0  0  0  0
 36 84  1  0  0  0  0
 37 85  1  0  0  0  0
 37 86  1  0  0  0  0
 38 41  1  0  0  0  0
 39 42  1  0  0  0  0
 39 43  1  0  0  0  0
 39 87  1  6  0  0  0
 40 44  1  0  0  0  0
 40 88  1  0  0  0  0
 40 89  1  0  0  0  0
 41 90  1  0  0  0  0
 41 91  1  0  0  0  0
 42 46  1  0  0  0  0
 42 92  1  0  0  0  0
 42 93  1  0  0  0  0
 45 49  1  0  0  0  0
 46 50  2  0  0  0  0
 46 51  1  0  0  0  0
 47 52  1  0  0  0  0
 48 53  1  0  0  0  0
 49 94  1  0  0  0  0
 49 95  1  0  0  0  0
 49 96  1  0  0  0  0
 50 54  1  0  0  0  0
 50 97  1  0  0  0  0
 51 55  2  0  0  0  0
 51 98  1  0  0  0  0
 52 99  1  0  0  0  0
 52100  1  0  0  0  0
 52101  1  0  0  0  0
 53102  1  0  0  0  0
 53103  1  0  0  0  0
 53104  1  0  0  0  0
 54 56  2  0  0  0  0
 54105  1  0  0  0  0
 55 56  1  0  0  0  0
 55106  1  0  0  0  0
 56107  1  0  0  0  0
M  END
>  <DRUGBANK_ID>
DB02626

>  <SECONDARY_ACCESSION_NUMBERS>
EXPT02556

>  <COMMON_NAME>
Phenylferricrocin-iron

$$$$
