
 OpenBabel10282417133D

 22 22  0  0  0  0  0  0  0  0999 V2000
    0.9817   -0.1146   -0.0467 C   0  0  0  0  0  0  0  0  0  0  0  0
    0.4649   -0.7409    1.2210 C   0  0  0  0  0  0  0  0  0  0  0  0
    0.7853   -2.0982    1.4410 C   0  0  0  0  0  0  0  0  0  0  0  0
    0.2690   -2.8199    2.5284 C   0  0  0  0  0  0  0  0  0  0  0  0
    0.6824   -4.1549    2.7165 N   0  0  0  0  0  0  0  0  0  0  0  0
   -0.4749   -2.1355    3.5033 C   0  0  0  0  0  0  0  0  0  0  0  0
   -0.8404   -2.7526    4.7177 N   0  0  0  0  0  0  0  0  0  0  0  0
   -0.6879   -0.7562    3.3497 C   0  0  0  0  0  0  0  0  0  0  0  0
   -0.2995   -0.0645    2.1813 C   0  0  0  0  0  0  0  0  0  0  0  0
   -0.7554    1.3639    2.0444 C   0  0  0  0  0  0  0  0  0  0  0  0
    0.6721    0.9205   -0.1914 H   0  0  0  0  0  0  0  0  0  0  0  0
    0.6094   -0.6758   -0.9103 H   0  0  0  0  0  0  0  0  0  0  0  0
    2.0762   -0.1240   -0.0553 H   0  0  0  0  0  0  0  0  0  0  0  0
    1.4401   -2.6043    0.7365 H   0  0  0  0  0  0  0  0  0  0  0  0
    0.0560   -4.6951    3.2990 H   0  0  0  0  0  0  0  0  0  0  0  0
    0.9247   -4.6355    1.8593 H   0  0  0  0  0  0  0  0  0  0  0  0
   -0.9720   -3.7525    4.6363 H   0  0  0  0  0  0  0  0  0  0  0  0
   -1.6090   -2.2999    5.1957 H   0  0  0  0  0  0  0  0  0  0  0  0
   -1.1857   -0.2078    4.1453 H   0  0  0  0  0  0  0  0  0  0  0  0
   -1.8475    1.4035    2.1251 H   0  0  0  0  0  0  0  0  0  0  0  0
   -0.3129    1.9899    2.8246 H   0  0  0  0  0  0  0  0  0  0  0  0
   -0.5107    1.8158    1.0829 H   0  0  0  0  0  0  0  0  0  0  0  0
  1  2  1  0  0  0  0
  1 11  1  0  0  0  0
  1 12  1  0  0  0  0
  1 13  1  0  0  0  0
  2  3  2  0  0  0  0
  2  9  1  0  0  0  0
  3  4  1  0  0  0  0
  3 14  1  0  0  0  0
  4  5  1  0  0  0  0
  4  6  2  0  0  0  0
  5 15  1  0  0  0  0
  5 16  1  0  0  0  0
  6  7  1  0  0  0  0
  6  8  1  0  0  0  0
  7 17  1  0  0  0  0
  7 18  1  0  0  0  0
  8  9  2  0  0  0  0
  8 19  1  0  0  0  0
  9 10  1  0  0  0  0
 10 20  1  0  0  0  0
 10 21  1  0  0  0  0
 10 22  1  0  0  0  0
M  END
>  <DRUGBANK_ID>
DB03180

>  <SECONDARY_ACCESSION_NUMBERS>
EXPT00037

>  <COMMON_NAME>
4,5-Dimethyl-1,2-phenylenediamine

>  <CAS_NUMBER>
3171-45-7

>  <UNII>
1OJ9D3R6NH

>  <SYNONYMS>
4,5-Dimethyl-o-phenylenediamine

$$$$
