LZD
 OpenBabel10282417173D

 42 44  0  0  0  0  0  0  0  0999 V2000
    0.6243    1.4255   -0.4736 C   0  0  0  0  0  0  0  0  0  0  0  0
   -0.7886    1.4234    0.1093 C   0  0  0  0  0  0  0  0  0  0  0  0
   -1.6436    0.2429   -0.3788 C   0  0  0  0  0  0  0  0  0  0  0  0
   -0.9856   -1.0764   -0.0348 C   0  0  2  0  0  0  0  0  0  0  0  0
   -1.2753   -1.2708    1.4034 N   0  0  0  0  0  0  0  0  0  0  0  0
   -2.1321   -2.1953    2.0074 C   0  0  0  0  0  0  0  0  0  0  0  0
   -2.6678   -1.9480    3.0585 O   0  0  0  0  0  0  0  0  0  0  0  0
   -2.2579   -3.4770    1.3292 C   0  0  0  0  0  0  0  0  0  0  0  0
   -3.4341   -4.1245    1.3629 N   0  0  0  0  0  0  0  0  0  0  0  0
   -3.3178   -5.0313    0.3987 N   0  0  0  0  0  0  0  0  0  0  0  0
   -2.0922   -4.9989   -0.2216 C   0  0  0  0  0  0  0  0  0  0  0  0
   -1.2938   -4.1444    0.5273 C   0  0  0  0  0  0  0  0  0  0  0  0
    0.0919   -3.9537    0.3717 N   0  0  0  0  0  0  0  0  0  0  0  0
    1.1000   -3.3260    1.1766 C   0  0  0  0  0  0  0  0  0  0  0  0
    2.2586   -3.3633    0.7440 O   0  0  0  0  0  0  0  0  0  0  0  0
    0.8801   -2.5709    2.4656 C   0  0  0  0  0  0  0  0  0  0  0  0
    0.1615   -3.2010    3.4604 C   0  0  0  0  0  0  0  0  0  0  0  0
   -0.2450   -4.4633    3.2793 F   0  0  0  0  0  0  0  0  0  0  0  0
   -0.3492   -2.4882    4.5579 C   0  0  0  0  0  0  0  0  0  0  0  0
   -0.1824   -1.1061    4.6757 C   0  0  0  0  0  0  0  0  0  0  0  0
    0.6035   -0.4559    3.7415 C   0  0  0  0  0  0  0  0  0  0  0  0
    1.1956   -1.2019    2.6988 C   0  0  0  0  0  0  0  0  0  0  0  0
    1.9623   -0.4841    1.8769 F   0  0  0  0  0  0  0  0  0  0  0  0
    0.4760   -1.0004   -0.6162 C   0  0  0  0  0  0  0  0  0  0  0  0
    1.2345    0.1602   -0.2411 N   0  0  0  0  0  0  0  0  0  0  0  0
   -1.4913   -1.8751   -0.5765 H   0  0  0  0  0  0  0  0  0  0  0  0
    0.6028    1.6332   -1.5452 H   0  0  0  0  0  0  0  0  0  0  0  0
    1.2276    2.1985    0.0145 H   0  0  0  0  0  0  0  0  0  0  0  0
   -1.2883    2.3494   -0.1704 H   0  0  0  0  0  0  0  0  0  0  0  0
   -0.7200    1.4119    1.2073 H   0  0  0  0  0  0  0  0  0  0  0  0
   -2.6353    0.2820    0.0848 H   0  0  0  0  0  0  0  0  0  0  0  0
   -1.7669    0.2772   -1.4624 H   0  0  0  0  0  0  0  0  0  0  0  0
   -1.1997   -0.4616    2.0060 H   0  0  0  0  0  0  0  0  0  0  0  0
   -4.1368   -5.6015    0.2023 H   0  0  0  0  0  0  0  0  0  0  0  0
   -1.9335   -5.6334   -1.0820 H   0  0  0  0  0  0  0  0  0  0  0  0
    0.4697   -4.3427   -0.4906 H   0  0  0  0  0  0  0  0  0  0  0  0
   -1.0558   -2.9949    5.2070 H   0  0  0  0  0  0  0  0  0  0  0  0
   -0.7395   -0.5451    5.4247 H   0  0  0  0  0  0  0  0  0  0  0  0
    0.6649    0.6350    3.7418 H   0  0  0  0  0  0  0  0  0  0  0  0
    1.1140   -1.8291   -0.3840 H   0  0  0  0  0  0  0  0  0  0  0  0
    0.4103   -1.0687   -1.7075 H   0  0  0  0  0  0  0  0  0  0  0  0
    2.2504    0.0780   -0.2183 H   0  0  0  0  0  0  0  0  0  0  0  0
  1  2  1  0  0  0  0
  1 25  1  0  0  0  0
  1 27  1  0  0  0  0
  1 28  1  0  0  0  0
  2  3  1  0  0  0  0
  2 29  1  0  0  0  0
  2 30  1  0  0  0  0
  3  4  1  0  0  0  0
  3 31  1  0  0  0  0
  3 32  1  0  0  0  0
  4  5  1  0  0  0  0
  4 24  1  0  0  0  0
  4 26  1  6  0  0  0
  5  6  1  0  0  0  0
  5 33  1  0  0  0  0
  6  7  2  0  0  0  0
  6  8  1  0  0  0  0
  8  9  2  0  0  0  0
  8 12  1  0  0  0  0
  9 10  1  0  0  0  0
 10 11  1  0  0  0  0
 10 34  1  0  0  0  0
 11 12  2  0  0  0  0
 11 35  1  0  0  0  0
 12 13  1  0  0  0  0
 13 14  1  0  0  0  0
 13 36  1  0  0  0  0
 14 15  2  0  0  0  0
 14 16  1  0  0  0  0
 16 17  1  0  0  0  0
 16 22  2  0  0  0  0
 17 18  1  0  0  0  0
 17 19  2  0  0  0  0
 19 20  1  0  0  0  0
 19 37  1  0  0  0  0
 20 21  2  0  0  0  0
 20 38  1  0  0  0  0
 21 22  1  0  0  0  0
 21 39  1  0  0  0  0
 22 23  1  0  0  0  0
 24 25  1  0  0  0  0
 24 40  1  0  0  0  0
 24 41  1  0  0  0  0
 25 42  1  0  0  0  0
M  END
>  <DRUGBANK_ID>
DB08141

>  <COMMON_NAME>
4-{[(2,6-difluorophenyl)carbonyl]amino}-N-[(3S)-piperidin-3-yl]-1H-pyrazole-3-carboxamide

$$$$
