LDM
 OpenBabel10282417123D

 57 56  0  0  0  0  0  0  0  0999 V2000
    0.9822   -0.0551   -0.0890 N   0  3  0  0  0  0  0  0  0  0  0  0
    0.5273   -0.2229   -1.3794 O   0  5  0  0  0  0  0  0  0  0  0  0
    0.4808   -1.2327    0.7374 C   0  0  0  0  0  0  0  0  0  0  0  0
    0.4170   -0.1791    3.0740 C   0  0  0  0  0  0  0  0  0  0  0  0
   -1.7067    0.1326    4.1552 C   0  0  0  0  0  0  0  0  0  0  0  0
   -3.2089    0.0191    4.0310 C   0  0  0  0  0  0  0  0  0  0  0  0
   -3.2494   -1.1861    6.2654 C   0  0  0  0  0  0  0  0  0  0  0  0
   -3.7678    0.0819    6.9547 C   0  0  0  0  0  0  0  0  0  0  0  0
   -5.8157   -1.1446    7.7174 C   0  0  0  0  0  0  0  0  0  0  0  0
   -5.3073   -1.1228    9.1627 C   0  0  0  0  0  0  0  0  0  0  0  0
   -5.8069    0.1364    9.8800 C   0  0  0  0  0  0  0  0  0  0  0  0
    0.4726    1.2761    0.3808 C   0  0  0  0  0  0  0  0  0  0  0  0
    2.4838   -0.0434   -0.0952 C   0  0  0  0  0  0  0  0  0  0  0  0
    0.9353   -1.2950    2.1937 C   0  0  0  0  0  0  0  0  0  0  0  0
   -5.2980    0.0820    6.9605 C   0  0  0  0  0  0  0  0  0  0  0  0
   -1.0194   -0.0883    2.9975 N   0  0  0  0  0  0  0  0  0  0  0  0
   -7.8960   -1.0637   10.6462 C   0  0  0  0  0  0  0  0  0  0  0  0
   -7.3898   -1.1100   12.0787 C   0  0  0  0  0  0  0  0  0  0  0  0
   -1.1298    0.3405    5.2073 O   0  0  0  0  0  0  0  0  0  0  0  0
   -3.6819   -1.2198    4.7931 C   0  0  0  0  0  0  0  0  0  0  0  0
   -7.3388    0.1640    9.9241 C   0  0  0  0  0  0  0  0  0  0  0  0
   -0.6116   -1.2441    0.6366 H   0  0  0  0  0  0  0  0  0  0  0  0
    0.8460   -2.1260    0.2113 H   0  0  0  0  0  0  0  0  0  0  0  0
    0.7441   -0.3720    4.0998 H   0  0  0  0  0  0  0  0  0  0  0  0
    0.8388    0.8024    2.8789 H   0  0  0  0  0  0  0  0  0  0  0  0
   -3.6349    0.9452    4.4282 H   0  0  0  0  0  0  0  0  0  0  0  0
   -3.5383   -0.0367    2.9893 H   0  0  0  0  0  0  0  0  0  0  0  0
   -3.5888   -2.0949    6.7704 H   0  0  0  0  0  0  0  0  0  0  0  0
   -2.1650   -1.2543    6.3726 H   0  0  0  0  0  0  0  0  0  0  0  0
   -3.3534    0.1464    7.9657 H   0  0  0  0  0  0  0  0  0  0  0  0
   -3.4042    0.9969    6.4790 H   0  0  0  0  0  0  0  0  0  0  0  0
   -6.9071   -1.1767    7.6664 H   0  0  0  0  0  0  0  0  0  0  0  0
   -5.5149   -2.0794    7.2352 H   0  0  0  0  0  0  0  0  0  0  0  0
   -5.6156   -2.0378    9.6756 H   0  0  0  0  0  0  0  0  0  0  0  0
   -4.2145   -1.1642    9.2128 H   0  0  0  0  0  0  0  0  0  0  0  0
   -5.3750    0.1856   10.8827 H   0  0  0  0  0  0  0  0  0  0  0  0
   -5.4380    1.0481    9.3985 H   0  0  0  0  0  0  0  0  0  0  0  0
    1.0189    1.5676    1.2692 H   0  0  0  0  0  0  0  0  0  0  0  0
    0.7039    2.0257   -0.3773 H   0  0  0  0  0  0  0  0  0  0  0  0
   -0.6061    1.1996    0.5363 H   0  0  0  0  0  0  0  0  0  0  0  0
    2.8147   -0.9795   -0.5509 H   0  0  0  0  0  0  0  0  0  0  0  0
    2.8049    0.8227   -0.6749 H   0  0  0  0  0  0  0  0  0  0  0  0
    2.8366    0.0454    0.9342 H   0  0  0  0  0  0  0  0  0  0  0  0
    0.5822   -2.2428    2.6208 H   0  0  0  0  0  0  0  0  0  0  0  0
    2.0256   -1.3302    2.2658 H   0  0  0  0  0  0  0  0  0  0  0  0
   -5.6651    1.0160    7.3963 H   0  0  0  0  0  0  0  0  0  0  0  0
   -5.7086    0.0933    5.9470 H   0  0  0  0  0  0  0  0  0  0  0  0
   -1.5166   -0.0125    2.1169 H   0  0  0  0  0  0  0  0  0  0  0  0
   -8.9888   -1.0361   10.6291 H   0  0  0  0  0  0  0  0  0  0  0  0
   -7.6195   -1.9893   10.1272 H   0  0  0  0  0  0  0  0  0  0  0  0
   -7.6959   -0.2033   12.6085 H   0  0  0  0  0  0  0  0  0  0  0  0
   -7.7806   -1.9842   12.5998 H   0  0  0  0  0  0  0  0  0  0  0  0
   -6.2980   -1.1757   12.1284 H   0  0  0  0  0  0  0  0  0  0  0  0
   -4.7744   -1.2881    4.7188 H   0  0  0  0  0  0  0  0  0  0  0  0
   -3.3019   -2.1337    4.3259 H   0  0  0  0  0  0  0  0  0  0  0  0
   -7.6754    1.0816   10.4156 H   0  0  0  0  0  0  0  0  0  0  0  0
   -7.7584    0.2124    8.9117 H   0  0  0  0  0  0  0  0  0  0  0  0
  1  2  1  0  0  0  0
  1  3  1  0  0  0  0
  1 12  1  0  0  0  0
  1 13  1  0  0  0  0
  3 14  1  0  0  0  0
  3 22  1  0  0  0  0
  3 23  1  0  0  0  0
  4 14  1  0  0  0  0
  4 16  1  0  0  0  0
  4 24  1  0  0  0  0
  4 25  1  0  0  0  0
  5  6  1  0  0  0  0
  5 16  1  0  0  0  0
  5 19  2  0  0  0  0
  6 20  1  0  0  0  0
  6 26  1  0  0  0  0
  6 27  1  0  0  0  0
  7  8  1  0  0  0  0
  7 20  1  0  0  0  0
  7 28  1  0  0  0  0
  7 29  1  0  0  0  0
  8 15  1  0  0  0  0
  8 30  1  0  0  0  0
  8 31  1  0  0  0  0
  9 10  1  0  0  0  0
  9 15  1  0  0  0  0
  9 32  1  0  0  0  0
  9 33  1  0  0  0  0
 10 11  1  0  0  0  0
 10 34  1  0  0  0  0
 10 35  1  0  0  0  0
 11 21  1  0  0  0  0
 11 36  1  0  0  0  0
 11 37  1  0  0  0  0
 12 38  1  0  0  0  0
 12 39  1  0  0  0  0
 12 40  1  0  0  0  0
 13 41  1  0  0  0  0
 13 42  1  0  0  0  0
 13 43  1  0  0  0  0
 14 44  1  0  0  0  0
 14 45  1  0  0  0  0
 15 46  1  0  0  0  0
 15 47  1  0  0  0  0
 16 48  1  0  0  0  0
 17 18  1  0  0  0  0
 17 21  1  0  0  0  0
 17 49  1  0  0  0  0
 17 50  1  0  0  0  0
 18 51  1  0  0  0  0
 18 52  1  0  0  0  0
 18 53  1  0  0  0  0
 20 54  1  0  0  0  0
 20 55  1  0  0  0  0
 21 56  1  0  0  0  0
 21 57  1  0  0  0  0
M  CHG  2   1   1   2  -1
M  END
>  <DRUGBANK_ID>
DB01736

>  <SECONDARY_ACCESSION_NUMBERS>
EXPT02014

>  <COMMON_NAME>
[3-(Dodecanoylamino)Propyl](Hydroxy)Dimethylammonium

>  <UNII>
I6KX160QTV

$$$$
