
 OpenBabel10282417143D

106109  0  0  1  0  0  0  0  0999 V2000
  -10.8301   -6.0935   -7.1205 N   0  0  0  0  0  0  0  0  0  0  0  0
  -12.0339   -5.2575   -7.2617 C   0  0  0  0  0  0  0  0  0  0  0  0
  -13.3138   -5.2872   -6.2916 C   0  0  0  0  0  0  0  0  0  0  0  0
  -13.2618   -4.7327   -4.8989 C   0  0  0  0  0  0  0  0  0  0  0  0
  -12.5957   -3.4920   -5.0332 N   0  0  0  0  0  0  0  0  0  0  0  0
  -12.3915   -3.1552   -3.6904 C   0  0  0  0  0  0  0  0  0  0  0  0
  -11.2834   -4.1212   -3.3059 C   0  0  0  0  0  0  0  0  0  0  0  0
   -9.9297   -4.4352   -4.5392 O   0  0  0  0  0  0  0  0  0  0  0  0
   -8.6978   -3.1022   -4.6145 C   0  0  1  0  0  0  0  0  0  0  0  0
   -9.9549   -1.4837   -5.0781 C   0  0  1  0  0  0  0  0  0  0  0  0
  -10.9721   -1.1675   -3.3914 O   0  0  0  0  0  0  0  0  0  0  0  0
  -10.3219   -1.7528   -1.7629 C   0  0  2  0  0  0  0  0  0  0  0  0
  -10.0974   -0.2373   -0.5126 C   0  0  0  0  0  0  0  0  0  0  0  0
  -11.0559    0.8893   -0.5176 O   0  0  0  0  0  0  0  0  0  0  0  0
   -8.7428   -2.8742   -2.5022 C   0  0  1  0  0  0  0  0  0  0  0  0
   -8.2120   -3.5100   -1.4451 O   0  0  0  0  0  0  0  0  0  0  0  0
   -9.0457   -4.5010   -1.2519 C   0  0  1  0  0  0  0  0  0  0  0  0
   -9.2610   -5.1578   -2.4817 O   0  0  0  0  0  0  0  0  0  0  0  0
  -10.2304   -6.1807   -2.4086 C   0  0  1  0  0  0  0  0  0  0  0  0
  -10.6292   -6.9347   -3.6865 C   0  0  0  0  0  0  0  0  0  0  0  0
  -11.2166   -6.6134   -4.9081 N   0  0  0  0  0  0  0  0  0  0  0  0
   -9.6348   -7.1441   -1.5027 C   0  0  1  0  0  0  0  0  0  0  0  0
   -8.5104   -7.6453   -2.1902 O   0  0  0  0  0  0  0  0  0  0  0  0
   -9.2898   -6.3860   -0.2332 C   0  0  2  0  0  0  0  0  0  0  0  0
  -10.4935   -5.7738    0.3241 O   0  0  0  0  0  0  0  0  0  0  0  0
   -8.2217   -5.3500   -0.4232 C   0  0  1  0  0  0  0  0  0  0  0  0
   -7.0144   -5.7139   -1.1982 N   0  0  0  0  0  0  0  0  0  0  0  0
   -9.5732   -0.1464   -5.5902 O   0  0  0  0  0  0  0  0  0  0  0  0
   -8.5363    0.5738   -4.9142 C   0  0  2  0  0  0  0  0  0  0  0  0
   -7.5511   -0.4873   -4.8581 C   0  0  1  0  0  0  0  0  0  0  0  0
   -6.2706    0.1681   -4.6988 O   0  0  0  0  0  0  0  0  0  0  0  0
   -8.4305   -1.3289   -3.7171 C   0  0  2  0  0  0  0  0  0  0  0  0
   -9.9397   -2.5823   -3.7169 N   0  0  0  0  0  0  0  0  0  0  0  0
   -8.7085   -0.6853   -2.3947 C   0  0  0  0  0  0  0  0  0  0  0  0
   -9.6899    0.4272   -2.8404 C   0  0  2  0  0  0  0  0  0  0  0  0
  -11.0584    0.7060   -3.6677 N   0  0  0  0  0  0  0  0  0  0  0  0
   -8.8319    1.3015   -3.5145 C   0  0  1  0  0  0  0  0  0  0  0  0
   -7.7499    1.6264   -2.6262 O   0  0  0  0  0  0  0  0  0  0  0  0
   -6.9365    0.6338   -1.9062 C   0  0  1  0  0  0  0  0  0  0  0  0
   -6.5371   -0.4961   -2.7176 O   0  0  0  0  0  0  0  0  0  0  0  0
   -5.5231   -1.5250   -2.7632 C   0  0  2  0  0  0  0  0  0  0  0  0
   -5.8775   -2.8575   -2.1182 C   0  0  0  0  0  0  0  0  0  0  0  0
   -6.4241   -3.7433   -3.1184 O   0  0  0  0  0  0  0  0  0  0  0  0
   -4.3821   -0.8400   -2.1545 C   0  0  1  0  0  0  0  0  0  0  0  0
   -3.8087    0.0639   -3.1053 O   0  0  0  0  0  0  0  0  0  0  0  0
   -4.9042   -0.0859   -0.9191 C   0  0  2  0  0  0  0  0  0  0  0  0
   -5.5851   -0.9853   -0.0274 O   0  0  0  0  0  0  0  0  0  0  0  0
   -5.7732    1.1468   -1.2367 C   0  0  1  0  0  0  0  0  0  0  0  0
   -5.2701    2.1215   -2.1682 N   0  0  0  0  0  0  0  0  0  0  0  0
  -10.3733   -5.8873   -6.2034 H   0  0  0  0  0  0  0  0  0  0  0  0
  -11.0776   -7.0725   -6.9646 H   0  0  0  0  0  0  0  0  0  0  0  0
  -11.6257   -4.2449   -7.3071 H   0  0  0  0  0  0  0  0  0  0  0  0
  -12.3895   -5.5561   -8.2415 H   0  0  0  0  0  0  0  0  0  0  0  0
  -14.0761   -4.6565   -6.7476 H   0  0  0  0  0  0  0  0  0  0  0  0
  -13.6661   -6.3095   -6.1826 H   0  0  0  0  0  0  0  0  0  0  0  0
  -14.1295   -4.6984   -4.2398 H   0  0  0  0  0  0  0  0  0  0  0  0
  -12.7867   -5.3860   -4.2001 H   0  0  0  0  0  0  0  0  0  0  0  0
  -11.6260   -3.5593   -5.4258 H   0  0  0  0  0  0  0  0  0  0  0  0
  -12.3326   -2.1238   -3.9264 H   0  0  0  0  0  0  0  0  0  0  0  0
  -13.0678   -3.0896   -2.8416 H   0  0  0  0  0  0  0  0  0  0  0  0
  -10.9004   -3.8354   -2.2973 H   0  0  0  0  0  0  0  0  0  0  0  0
  -11.6992   -5.0371   -3.1074 H   0  0  0  0  0  0  0  0  0  0  0  0
   -7.9368   -3.0808   -5.4775 H   0  0  0  0  0  0  0  0  0  0  0  0
  -10.8810   -1.7147   -5.5990 H   0  0  0  0  0  0  0  0  0  0  0  0
  -11.0218   -2.3464   -1.1556 H   0  0  0  0  0  0  0  0  0  0  0  0
   -9.6498   -0.5762    0.4278 H   0  0  0  0  0  0  0  0  0  0  0  0
   -9.2354    0.4493   -0.7402 H   0  0  0  0  0  0  0  0  0  0  0  0
  -11.0944    1.3896   -1.3952 H   0  0  0  0  0  0  0  0  0  0  0  0
   -7.8706   -2.3529   -2.3585 H   0  0  0  0  0  0  0  0  0  0  0  0
   -9.8484   -3.9566   -0.7509 H   0  0  0  0  0  0  0  0  0  0  0  0
  -11.1430   -5.8855   -1.8704 H   0  0  0  0  0  0  0  0  0  0  0  0
   -9.7426   -7.3771   -4.0972 H   0  0  0  0  0  0  0  0  0  0  0  0
  -11.4706   -7.5076   -3.3261 H   0  0  0  0  0  0  0  0  0  0  0  0
  -11.7579   -7.2996   -5.3986 H   0  0  0  0  0  0  0  0  0  0  0  0
  -11.5280   -5.6888   -5.1404 H   0  0  0  0  0  0  0  0  0  0  0  0
  -10.4153   -7.8778   -1.3578 H   0  0  0  0  0  0  0  0  0  0  0  0
   -8.6790   -8.5890   -2.2507 H   0  0  0  0  0  0  0  0  0  0  0  0
   -8.8609   -7.0909    0.4366 H   0  0  0  0  0  0  0  0  0  0  0  0
  -10.9293   -5.1335   -0.2830 H   0  0  0  0  0  0  0  0  0  0  0  0
   -7.9546   -4.7397    0.4425 H   0  0  0  0  0  0  0  0  0  0  0  0
   -6.6152   -6.5342   -0.7805 H   0  0  0  0  0  0  0  0  0  0  0  0
   -7.3346   -6.0259   -2.1432 H   0  0  0  0  0  0  0  0  0  0  0  0
   -8.1423    1.3797   -5.4918 H   0  0  0  0  0  0  0  0  0  0  0  0
   -7.2638   -1.2175   -5.6252 H   0  0  0  0  0  0  0  0  0  0  0  0
   -6.3525    0.5765   -3.8184 H   0  0  0  0  0  0  0  0  0  0  0  0
   -7.5058   -1.9617   -3.8057 H   0  0  0  0  0  0  0  0  0  0  0  0
   -9.7465   -3.6102   -3.6165 H   0  0  0  0  0  0  0  0  0  0  0  0
  -10.7593   -2.3079   -3.2470 H   0  0  0  0  0  0  0  0  0  0  0  0
   -8.7933   -1.3401   -1.2799 H   0  0  0  0  0  0  0  0  0  0  0  0
   -7.9598   -0.9175   -1.5582 H   0  0  0  0  0  0  0  0  0  0  0  0
  -10.4540    0.3073   -2.1884 H   0  0  0  0  0  0  0  0  0  0  0  0
  -11.8246    0.0688   -3.2732 H   0  0  0  0  0  0  0  0  0  0  0  0
  -10.8996   -0.1664   -4.2038 H   0  0  0  0  0  0  0  0  0  0  0  0
   -9.5494    2.1126   -3.6007 H   0  0  0  0  0  0  0  0  0  0  0  0
   -7.4593    0.3907   -0.9769 H   0  0  0  0  0  0  0  0  0  0  0  0
   -5.3502   -1.8098   -3.8229 H   0  0  0  0  0  0  0  0  0  0  0  0
   -5.1228   -3.4415   -1.6452 H   0  0  0  0  0  0  0  0  0  0  0  0
   -6.5375   -2.6278   -1.2917 H   0  0  0  0  0  0  0  0  0  0  0  0
   -7.3064   -4.0172   -2.7946 H   0  0  0  0  0  0  0  0  0  0  0  0
   -3.6762   -1.6164   -1.8921 H   0  0  0  0  0  0  0  0  0  0  0  0
   -4.4224    0.1928   -3.8646 H   0  0  0  0  0  0  0  0  0  0  0  0
   -4.0636    0.3007   -0.3845 H   0  0  0  0  0  0  0  0  0  0  0  0
   -6.4593   -1.1918   -0.3980 H   0  0  0  0  0  0  0  0  0  0  0  0
   -6.2012    1.5804   -0.3277 H   0  0  0  0  0  0  0  0  0  0  0  0
   -4.3982    2.4114   -1.7740 H   0  0  0  0  0  0  0  0  0  0  0  0
   -5.0168    1.6462   -3.0357 H   0  0  0  0  0  0  0  0  0  0  0  0
  1  2  1  0  0  0  0
  1 50  1  0  0  0  0
  1 51  1  0  0  0  0
  2  3  1  0  0  0  0
  2 52  1  0  0  0  0
  2 53  1  0  0  0  0
  3  4  1  0  0  0  0
  3 54  1  0  0  0  0
  3 55  1  0  0  0  0
  4  5  1  0  0  0  0
  4 56  1  0  0  0  0
  4 57  1  0  0  0  0
  5  6  1  0  0  0  0
  5 58  1  0  0  0  0
  6  7  1  0  0  0  0
  6 59  1  0  0  0  0
  6 60  1  0  0  0  0
  7  8  1  0  0  0  0
  7 61  1  0  0  0  0
  7 62  1  0  0  0  0
  9 10  1  0  0  0  0
  9 15  1  0  0  0  0
  9 63  1  6  0  0  0
  9  8  1  0  0  0  0
 10 11  1  0  0  0  0
 10 28  1  0  0  0  0
 10 64  1  6  0  0  0
 11 12  1  0  0  0  0
 12 15  1  0  0  0  0
 12 65  1  1  0  0  0
 12 13  1  0  0  0  0
 13 14  1  0  0  0  0
 13 66  1  0  0  0  0
 13 67  1  0  0  0  0
 14 68  1  0  0  0  0
 15 16  1  0  0  0  0
 15 69  1  1  0  0  0
 17 18  1  0  0  0  0
 17 26  1  0  0  0  0
 17 70  1  1  0  0  0
 17 16  1  0  0  0  0
 18 19  1  0  0  0  0
 19 22  1  0  0  0  0
 19 71  1  1  0  0  0
 19 20  1  0  0  0  0
 20 21  1  0  0  0  0
 20 72  1  0  0  0  0
 20 73  1  0  0  0  0
 21 74  1  0  0  0  0
 21 75  1  0  0  0  0
 22 24  1  0  0  0  0
 22 76  1  1  0  0  0
 22 23  1  0  0  0  0
 23 77  1  0  0  0  0
 24 25  1  0  0  0  0
 24 26  1  0  0  0  0
 24 78  1  1  0  0  0
 25 79  1  0  0  0  0
 26 27  1  0  0  0  0
 26 80  1  1  0  0  0
 27 81  1  0  0  0  0
 27 82  1  0  0  0  0
 29 28  1  0  0  0  0
 29 30  1  0  0  0  0
 29 37  1  0  0  0  0
 29 83  1  6  0  0  0
 30 32  1  0  0  0  0
 30 84  1  6  0  0  0
 30 31  1  0  0  0  0
 31 85  1  0  0  0  0
 32 33  1  0  0  0  0
 32 34  1  0  0  0  0
 32 86  1  1  0  0  0
 33 87  1  0  0  0  0
 33 88  1  0  0  0  0
 34 35  1  0  0  0  0
 34 89  1  0  0  0  0
 34 90  1  0  0  0  0
 35 36  1  0  0  0  0
 35 37  1  0  0  0  0
 35 91  1  1  0  0  0
 36 92  1  0  0  0  0
 36 93  1  0  0  0  0
 37 38  1  0  0  0  0
 37 94  1  6  0  0  0
 39 40  1  0  0  0  0
 39 48  1  0  0  0  0
 39 95  1  1  0  0  0
 39 38  1  0  0  0  0
 40 41  1  0  0  0  0
 41 42  1  0  0  0  0
 41 44  1  0  0  0  0
 41 96  1  6  0  0  0
 42 43  1  0  0  0  0
 42 97  1  0  0  0  0
 42 98  1  0  0  0  0
 43 99  1  0  0  0  0
 44 46  1  0  0  0  0
 44100  1  1  0  0  0
 44 45  1  0  0  0  0
 45101  1  0  0  0  0
 46 47  1  0  0  0  0
 46 48  1  0  0  0  0
 46102  1  1  0  0  0
 47103  1  0  0  0  0
 48 49  1  0  0  0  0
 48104  1  1  0  0  0
 49105  1  0  0  0  0
 49106  1  0  0  0  0
M  END
>  <DRUGBANK_ID>
DB04717

>  <COMMON_NAME>
2''-O-[N-(3-(aminopropyl)2-aminoethyl]paromomycin

$$$$
