20A
 OpenBabel10282417163D

 53 56  0  0  0  0  0  0  0  0999 V2000
    1.0768   -0.1630   -0.1429 O   0  0  0  0  0  0  0  0  0  0  0  0
    2.3119   -0.1321   -0.0995 C   0  0  0  0  0  0  0  0  0  0  0  0
    2.9905    0.9374   -0.6560 N   0  0  0  0  0  0  0  0  0  0  0  0
    4.4248    1.0750   -0.8042 C   0  0  0  0  0  0  0  0  0  0  0  0
    4.9061    1.1763   -2.1983 C   0  0  0  0  0  0  0  0  0  0  0  0
    5.2841    0.0048   -2.8677 C   0  0  0  0  0  0  0  0  0  0  0  0
    5.9454    0.1000   -4.0785 C   0  0  0  0  0  0  0  0  0  0  0  0
    6.1418    1.3551   -4.6536 C   0  0  0  0  0  0  0  0  0  0  0  0
    5.7382    2.5188   -3.9942 C   0  0  0  0  0  0  0  0  0  0  0  0
    5.1287    2.4326   -2.7549 C   0  0  0  0  0  0  0  0  0  0  0  0
    3.0674   -1.2317    0.5748 C   0  0  0  0  0  0  0  0  0  0  0  0
    2.7478   -2.5650    0.3086 C   0  0  0  0  0  0  0  0  0  0  0  0
    3.4322   -3.6749    0.7415 N   0  0  0  0  0  0  0  0  0  0  0  0
    4.5078   -3.3632    1.4994 C   0  0  0  0  0  0  0  0  0  0  0  0
    5.4449   -4.1987    2.0766 N   0  0  0  0  0  0  0  0  0  0  0  0
    5.5922   -5.6310    2.0945 C   0  0  0  0  0  0  0  0  0  0  0  0
    6.9507   -6.0478    1.5317 C   0  0  0  0  0  0  0  0  0  0  0  0
    6.3962   -3.5665    2.7668 N   0  0  0  0  0  0  0  0  0  0  0  0
    4.8889   -2.0781    1.8690 C   0  0  0  0  0  0  0  0  0  0  0  0
    6.0596   -2.3072    2.6196 C   0  0  0  0  0  0  0  0  0  0  0  0
    4.1325   -0.9493    1.4553 C   0  0  0  0  0  0  0  0  0  0  0  0
    4.4392    0.3747    1.7759 N   0  0  0  0  0  0  0  0  0  0  0  0
    5.6399    0.8309    2.4380 C   0  0  0  0  0  0  0  0  0  0  0  0
    6.9269    0.4466    1.6816 C   0  0  0  0  0  0  0  0  0  0  0  0
    8.1369    0.5543    2.5955 C   0  0  0  0  0  0  0  0  0  0  0  0
    7.9118   -0.0077    3.8871 O   0  0  0  0  0  0  0  0  0  0  0  0
    6.8282    0.5682    4.6121 C   0  0  0  0  0  0  0  0  0  0  0  0
    5.5106    0.4268    3.8985 C   0  0  0  0  0  0  0  0  0  0  0  0
    2.4089    1.6700   -1.0467 H   0  0  0  0  0  0  0  0  0  0  0  0
    4.7517    1.9522   -0.2315 H   0  0  0  0  0  0  0  0  0  0  0  0
    4.9587    0.2082   -0.4270 H   0  0  0  0  0  0  0  0  0  0  0  0
    5.1099   -0.9714   -2.4152 H   0  0  0  0  0  0  0  0  0  0  0  0
    6.3192   -0.7987   -4.5596 H   0  0  0  0  0  0  0  0  0  0  0  0
    6.6163    1.4269   -5.6259 H   0  0  0  0  0  0  0  0  0  0  0  0
    5.9201    3.4946   -4.4314 H   0  0  0  0  0  0  0  0  0  0  0  0
    4.8630    3.3312   -2.2029 H   0  0  0  0  0  0  0  0  0  0  0  0
    1.8854   -2.7970   -0.3165 H   0  0  0  0  0  0  0  0  0  0  0  0
    5.5400   -5.9197    3.1538 H   0  0  0  0  0  0  0  0  0  0  0  0
    4.7608   -6.0764    1.5551 H   0  0  0  0  0  0  0  0  0  0  0  0
    7.7882   -5.6372    2.1156 H   0  0  0  0  0  0  0  0  0  0  0  0
    7.0495   -7.1342    1.5489 H   0  0  0  0  0  0  0  0  0  0  0  0
    7.0751   -5.6864    0.5060 H   0  0  0  0  0  0  0  0  0  0  0  0
    6.7312   -1.6276    3.0869 H   0  0  0  0  0  0  0  0  0  0  0  0
    3.7581    1.0910    1.5243 H   0  0  0  0  0  0  0  0  0  0  0  0
    5.6317    1.9285    2.4198 H   0  0  0  0  0  0  0  0  0  0  0  0
    6.8996   -0.5541    1.2394 H   0  0  0  0  0  0  0  0  0  0  0  0
    7.0666    1.0666    0.7865 H   0  0  0  0  0  0  0  0  0  0  0  0
    8.9774    0.0098    2.1475 H   0  0  0  0  0  0  0  0  0  0  0  0
    8.4341    1.5979    2.7096 H   0  0  0  0  0  0  0  0  0  0  0  0
    7.0380    1.6208    4.8023 H   0  0  0  0  0  0  0  0  0  0  0  0
    6.7536    0.0421    5.5694 H   0  0  0  0  0  0  0  0  0  0  0  0
    4.7150    1.0072    4.3786 H   0  0  0  0  0  0  0  0  0  0  0  0
    5.1420   -0.5963    4.0180 H   0  0  0  0  0  0  0  0  0  0  0  0
  1  2  2  0  0  0  0
  2  3  1  0  0  0  0
  3  4  1  0  0  0  0
  3 29  1  0  0  0  0
  4 30  1  0  0  0  0
  4 31  1  0  0  0  0
  5  4  1  0  0  0  0
  5 10  1  0  0  0  0
  6  5  2  0  0  0  0
  6 32  1  0  0  0  0
  7  6  1  0  0  0  0
  7  8  2  0  0  0  0
  7 33  1  0  0  0  0
  8  9  1  0  0  0  0
  8 34  1  0  0  0  0
  9 10  2  0  0  0  0
  9 35  1  0  0  0  0
 10 36  1  0  0  0  0
 11  2  1  0  0  0  0
 11 12  1  0  0  0  0
 12 37  1  0  0  0  0
 13 12  2  0  0  0  0
 14 13  1  0  0  0  0
 15 14  1  0  0  0  0
 15 16  1  0  0  0  0
 16 17  1  0  0  0  0
 16 38  1  0  0  0  0
 16 39  1  0  0  0  0
 17 40  1  0  0  0  0
 17 41  1  0  0  0  0
 17 42  1  0  0  0  0
 18 15  1  0  0  0  0
 18 20  2  0  0  0  0
 19 14  2  0  0  0  0
 19 21  1  0  0  0  0
 20 19  1  0  0  0  0
 20 43  1  0  0  0  0
 21 11  2  0  0  0  0
 22 21  1  0  0  0  0
 22 44  1  0  0  0  0
 23 22  1  0  0  0  0
 23 24  1  0  0  0  0
 23 45  1  0  0  0  0
 24 46  1  0  0  0  0
 24 47  1  0  0  0  0
 25 24  1  0  0  0  0
 25 48  1  0  0  0  0
 25 49  1  0  0  0  0
 26 25  1  0  0  0  0
 27 26  1  0  0  0  0
 27 28  1  0  0  0  0
 27 50  1  0  0  0  0
 27 51  1  0  0  0  0
 28 23  1  0  0  0  0
 28 52  1  0  0  0  0
 28 53  1  0  0  0  0
M  END
>  <DRUGBANK_ID>
DB06909

>  <COMMON_NAME>
1-ethyl-N-(phenylmethyl)-4-(tetrahydro-2H-pyran-4-ylamino)-1H-pyrazolo[3,4-b]pyridine-5-carboxamide

$$$$
