1125
 OpenBabel10282417113D

 31 33  0  0  0  0  0  0  0  0999 V2000
    1.4713    2.3432    0.0693 O   0  0  0  0  0  0  0  0  0  0  0  0
    1.3889   -2.3859    0.1213 O   0  0  0  0  0  0  0  0  0  0  0  0
    5.2985   -0.1769   -4.8494 O   0  0  0  0  0  0  0  0  0  0  0  0
    2.0836   -0.0365   -0.1471 C   0  0  0  0  0  0  0  0  0  0  0  0
    1.1614    1.1703   -0.0245 C   0  0  0  0  0  0  0  0  0  0  0  0
    1.1218   -1.2049    0.0117 C   0  0  0  0  0  0  0  0  0  0  0  0
   -0.2211    0.6979   -0.0093 C   0  0  0  0  0  0  0  0  0  0  0  0
   -0.2430   -0.6878    0.0041 C   0  0  0  0  0  0  0  0  0  0  0  0
    2.8788   -0.0435   -1.4365 C   0  0  0  0  0  0  0  0  0  0  0  0
   -1.3844    1.4421   -0.0049 C   0  0  0  0  0  0  0  0  0  0  0  0
   -1.4260   -1.4005    0.0083 C   0  0  0  0  0  0  0  0  0  0  0  0
    3.7627    1.0136   -1.6934 C   0  0  0  0  0  0  0  0  0  0  0  0
    2.8344   -1.1052   -2.3518 C   0  0  0  0  0  0  0  0  0  0  0  0
   -2.5939    0.7418    0.0161 C   0  0  0  0  0  0  0  0  0  0  0  0
   -2.6146   -0.6673    0.0197 C   0  0  0  0  0  0  0  0  0  0  0  0
    4.5879    1.0029   -2.8186 C   0  0  0  0  0  0  0  0  0  0  0  0
    3.7028   -1.1410   -3.4446 C   0  0  0  0  0  0  0  0  0  0  0  0
    4.5569   -0.0714   -3.7049 C   0  0  0  0  0  0  0  0  0  0  0  0
    6.0636    0.9713   -5.1999 C   0  0  0  0  0  0  0  0  0  0  0  0
    2.7609   -0.0478    0.7151 H   0  0  0  0  0  0  0  0  0  0  0  0
   -1.3566    2.5274   -0.0172 H   0  0  0  0  0  0  0  0  0  0  0  0
   -1.4275   -2.4863    0.0028 H   0  0  0  0  0  0  0  0  0  0  0  0
    3.8212    1.8636   -1.0145 H   0  0  0  0  0  0  0  0  0  0  0  0
    2.1463   -1.9392   -2.2293 H   0  0  0  0  0  0  0  0  0  0  0  0
   -3.5335    1.2910    0.0313 H   0  0  0  0  0  0  0  0  0  0  0  0
   -3.5688   -1.1905    0.0354 H   0  0  0  0  0  0  0  0  0  0  0  0
    5.2574    1.8439   -2.9595 H   0  0  0  0  0  0  0  0  0  0  0  0
    3.7147   -2.0190   -4.0862 H   0  0  0  0  0  0  0  0  0  0  0  0
    5.4328    1.8631   -5.2958 H   0  0  0  0  0  0  0  0  0  0  0  0
    6.8651    1.1334   -4.4720 H   0  0  0  0  0  0  0  0  0  0  0  0
    6.5256    0.7884   -6.1737 H   0  0  0  0  0  0  0  0  0  0  0  0
  1  5  2  0  0  0  0
  2  6  2  0  0  0  0
  3 18  1  0  0  0  0
  3 19  1  0  0  0  0
  4  5  1  0  0  0  0
  4  6  1  0  0  0  0
  4  9  1  0  0  0  0
  4 20  1  0  0  0  0
  5  7  1  0  0  0  0
  6  8  1  0  0  0  0
  7  8  1  0  0  0  0
  7 10  2  0  0  0  0
  8 11  2  0  0  0  0
  9 12  2  0  0  0  0
  9 13  1  0  0  0  0
 10 14  1  0  0  0  0
 10 21  1  0  0  0  0
 11 15  1  0  0  0  0
 11 22  1  0  0  0  0
 12 16  1  0  0  0  0
 12 23  1  0  0  0  0
 13 17  2  0  0  0  0
 13 24  1  0  0  0  0
 14 15  2  0  0  0  0
 14 25  1  0  0  0  0
 15 26  1  0  0  0  0
 16 18  2  0  0  0  0
 16 27  1  0  0  0  0
 17 18  1  0  0  0  0
 17 28  1  0  0  0  0
 19 29  1  0  0  0  0
 19 30  1  0  0  0  0
 19 31  1  0  0  0  0
M  END
>  <DRUGBANK_ID>
DB01125

>  <SECONDARY_ACCESSION_NUMBERS>
APRD00799

>  <COMMON_NAME>
Anisindione

>  <CAS_NUMBER>
117-37-3

>  <UNII>
S747T1ERAJ

>  <SYNONYMS>
2-(4-Methoxyphenyl)-1H-indene-1,3(2H)-dione; 2-(4-Methoxyphenyl)indan-1,3-dione; 2-(p-Methoxyphenyl)-1,3-indandione; 2-(p-Methoxyphenyl)indane-1,3-dione; 2-p-Anisyl-1,3-indandione; 2-para-Anisyl-1,3-indandione; Anisin indandione; Anisindiona; Anisindione; Anisindionum

$$$$
