
 OpenBabel10282417183D

 25 25  0  0  0  0  0  0  0  0999 V2000
    0.7554   -0.0692    0.3508 C   0  0  0  0  0  0  0  0  0  0  0  0
   -0.0647   -0.8678   -0.5085 O   0  0  0  0  0  0  0  0  0  0  0  0
    0.2880   -0.8416   -1.8864 C   0  0  0  0  0  0  0  0  0  0  0  0
    0.1822    0.3705   -2.7902 C   0  0  3  0  0  0  0  0  0  0  0  0
    1.0445    1.4938   -2.2435 C   0  0  0  0  0  0  0  0  0  0  0  0
    2.5050    1.2580   -2.0952 N   0  0  0  0  0  0  0  0  0  0  0  0
    3.2576    2.4367   -1.9935 C   0  0  0  0  0  0  0  0  0  0  0  0
    4.5682    2.0697   -1.9586 C   0  0  0  0  0  0  0  0  0  0  0  0
    4.6783    0.7272   -1.9712 N   0  0  0  0  0  0  0  0  0  0  0  0
    3.4676    0.1969   -2.0457 C   0  0  0  0  0  0  0  0  0  0  0  0
    3.5208   -1.3333   -2.0571 N   0  3  0  0  0  0  0  0  0  0  0  0
    4.6706   -1.8133   -1.9775 O   0  0  0  0  0  0  0  0  0  0  0  0
    2.5557   -2.0791   -2.1626 O   0  5  0  0  0  0  0  0  0  0  0  0
    0.6815    0.0890   -4.1138 O   0  0  0  0  0  0  0  0  0  0  0  0
    0.5892   -0.3192    1.3976 H   0  0  0  0  0  0  0  0  0  0  0  0
    0.4174    0.9531    0.2453 H   0  0  0  0  0  0  0  0  0  0  0  0
    1.8383   -0.1364    0.1638 H   0  0  0  0  0  0  0  0  0  0  0  0
    1.3230   -0.7930   -1.7975 H   0  0  0  0  0  0  0  0  0  0  0  0
    0.0536   -1.7806   -2.4018 H   0  0  0  0  0  0  0  0  0  0  0  0
   -0.8706    0.6432   -2.8993 H   0  0  0  0  0  0  0  0  0  0  0  0
    0.9263    2.3616   -2.9133 H   0  0  0  0  0  0  0  0  0  0  0  0
    0.6641    1.8939   -1.3000 H   0  0  0  0  0  0  0  0  0  0  0  0
    2.8029    3.4221   -1.9897 H   0  0  0  0  0  0  0  0  0  0  0  0
    5.4479    2.6943   -1.9250 H   0  0  0  0  0  0  0  0  0  0  0  0
    1.6573    0.0884   -4.1184 H   0  0  0  0  0  0  0  0  0  0  0  0
  1  2  1  0  0  0  0
  1 15  1  0  0  0  0
  1 16  1  0  0  0  0
  1 17  1  0  0  0  0
  2  3  1  0  0  0  0
  3  4  1  0  0  0  0
  3 18  1  0  0  0  0
  3 19  1  0  0  0  0
  4  5  1  0  0  0  0
  4 14  1  0  0  0  0
  4 20  1  0  0  0  0
  5  6  1  0  0  0  0
  5 21  1  0  0  0  0
  5 22  1  0  0  0  0
  6  7  1  0  0  0  0
  6 10  1  0  0  0  0
  7  8  2  0  0  0  0
  7 23  1  0  0  0  0
  8  9  1  0  0  0  0
  8 24  1  0  0  0  0
  9 10  2  0  0  0  0
 10 11  1  0  0  0  0
 11 12  2  0  0  0  0
 11 13  1  0  0  0  0
 14 25  1  0  0  0  0
M  CHG  2  11   1  13  -1
M  END
>  <DRUGBANK_ID>
DB11716

>  <COMMON_NAME>
Misonidazole

>  <CAS_NUMBER>
13551-87-6

>  <UNII>
8FE7LTN8XE

>  <SYNONYMS>
Misonidazole

$$$$
