
 OpenBabel10282417103D

 43 45  0  0  0  0  0  0  0  0999 V2000
   -1.0984   -0.9886   -0.0189 C   0  0  0  0  0  0  0  0  0  0  0  0
    0.0371   -1.7169   -0.0469 N   0  0  0  0  0  0  0  0  0  0  0  0
    1.2257   -1.0551   -0.0080 C   0  0  0  0  0  0  0  0  0  0  0  0
    2.4431   -1.9651    0.0047 C   0  0  0  0  0  0  0  0  0  0  0  0
    2.4696   -2.0788    2.7028 O   0  0  0  0  0  0  0  0  0  0  0  0
    1.3071    0.3565    0.0037 C   0  0  0  0  0  0  0  0  0  0  0  0
    0.0887    1.0896    0.0244 C   0  0  0  0  0  0  0  0  0  0  0  0
   -0.0787    2.4560    0.0544 O   0  0  0  0  0  0  0  0  0  0  0  0
    1.0328    3.3330    0.1287 C   0  0  0  0  0  0  0  0  0  0  0  0
    2.4921   -2.9881    1.5075 S   0  0  2  0  0  0  0  0  0  0  0  0
    4.1204   -3.6219    1.4030 C   0  0  0  0  0  0  0  0  0  0  0  0
    5.0080   -3.4667    2.3683 N   0  0  0  0  0  0  0  0  0  0  0  0
    4.6472   -4.3806    0.3881 N   0  0  0  0  0  0  0  0  0  0  0  0
    5.9577   -4.6684    0.6958 C   0  0  0  0  0  0  0  0  0  0  0  0
    6.1496   -4.0923    1.9466 C   0  0  0  0  0  0  0  0  0  0  0  0
    6.9698   -5.3519    0.0210 C   0  0  0  0  0  0  0  0  0  0  0  0
    7.4020   -4.1926    2.5734 C   0  0  0  0  0  0  0  0  0  0  0  0
    8.2240   -5.4155    0.6502 C   0  0  0  0  0  0  0  0  0  0  0  0
    8.4492   -4.8430    1.9066 C   0  0  0  0  0  0  0  0  0  0  0  0
    9.6487   -4.8455    2.5725 O   0  0  0  0  0  0  0  0  0  0  0  0
   10.7459   -5.4655    1.9090 C   0  0  0  0  0  0  0  0  0  0  0  0
    2.6534    1.0230   -0.0262 C   0  0  0  0  0  0  0  0  0  0  0  0
   -1.1407    0.3967    0.0034 C   0  0  0  0  0  0  0  0  0  0  0  0
   -2.4765    1.0911   -0.0372 C   0  0  0  0  0  0  0  0  0  0  0  0
   -2.0131   -1.5777   -0.0170 H   0  0  0  0  0  0  0  0  0  0  0  0
    2.4154   -2.6048   -0.8837 H   0  0  0  0  0  0  0  0  0  0  0  0
    3.3914   -1.4385   -0.0295 H   0  0  0  0  0  0  0  0  0  0  0  0
    1.6126    3.1677    1.0402 H   0  0  0  0  0  0  0  0  0  0  0  0
    1.6339    3.2738   -0.7812 H   0  0  0  0  0  0  0  0  0  0  0  0
    0.6779    4.3652    0.1816 H   0  0  0  0  0  0  0  0  0  0  0  0
    4.1661   -4.6748   -0.4525 H   0  0  0  0  0  0  0  0  0  0  0  0
    6.8190   -5.8018   -0.9543 H   0  0  0  0  0  0  0  0  0  0  0  0
    7.5500   -3.7465    3.5515 H   0  0  0  0  0  0  0  0  0  0  0  0
    9.0221   -5.9253    0.1186 H   0  0  0  0  0  0  0  0  0  0  0  0
   10.5549   -6.5326    1.7531 H   0  0  0  0  0  0  0  0  0  0  0  0
   10.9711   -4.9629    0.9618 H   0  0  0  0  0  0  0  0  0  0  0  0
   11.6299   -5.3768    2.5479 H   0  0  0  0  0  0  0  0  0  0  0  0
    2.7415    1.6333   -0.9273 H   0  0  0  0  0  0  0  0  0  0  0  0
    2.8184    1.5913    0.8900 H   0  0  0  0  0  0  0  0  0  0  0  0
    3.5159    0.3682   -0.0864 H   0  0  0  0  0  0  0  0  0  0  0  0
   -2.6111    1.7512    0.8255 H   0  0  0  0  0  0  0  0  0  0  0  0
   -2.5749    1.6723   -0.9604 H   0  0  0  0  0  0  0  0  0  0  0  0
   -3.3050    0.3713   -0.0243 H   0  0  0  0  0  0  0  0  0  0  0  0
  1 23  2  0  0  0  0
  1  2  1  0  0  0  0
  1 25  1  0  0  0  0
  3  2  2  0  0  0  0
  3  4  1  0  0  0  0
  4 26  1  0  0  0  0
  4 27  1  0  0  0  0
  6  3  1  0  0  0  0
  6 22  1  0  0  0  0
  7  6  2  0  0  0  0
  7  8  1  0  0  0  0
  8  9  1  0  0  0  0
  9 28  1  0  0  0  0
  9 29  1  0  0  0  0
  9 30  1  0  0  0  0
 10  4  1  0  0  0  0
 10 11  1  0  0  0  0
 10  5  2  1  0  0  0
 11 12  2  0  0  0  0
 12 15  1  0  0  0  0
 13 11  1  0  0  0  0
 13 14  1  0  0  0  0
 13 31  1  0  0  0  0
 14 15  2  0  0  0  0
 15 17  1  0  0  0  0
 16 14  1  0  0  0  0
 16 18  2  0  0  0  0
 16 32  1  0  0  0  0
 17 19  2  0  0  0  0
 17 33  1  0  0  0  0
 18 34  1  0  0  0  0
 19 18  1  0  0  0  0
 19 20  1  0  0  0  0
 20 21  1  0  0  0  0
 21 35  1  0  0  0  0
 21 36  1  0  0  0  0
 21 37  1  0  0  0  0
 22 38  1  0  0  0  0
 22 39  1  0  0  0  0
 22 40  1  0  0  0  0
 23  7  1  0  0  0  0
 23 24  1  0  0  0  0
 24 41  1  0  0  0  0
 24 42  1  0  0  0  0
 24 43  1  0  0  0  0
M  END
>  <DRUGBANK_ID>
DB00736

>  <SECONDARY_ACCESSION_NUMBERS>
APRD00363

>  <COMMON_NAME>
Esomeprazole

>  <CAS_NUMBER>
119141-88-7

>  <UNII>
N3PA6559FT

>  <SYNONYMS>
(−)-omeprazole; (S)-(−)-omeprazole; (S)-omeprazole; Esomeprazol; Ésoméprazole; Esomeprazole; Esomeprazolum; Omeprazole S-form; Perprazole

$$$$
