
 OpenBabel10282417143D

 77 82  0  0  1  0  0  0  0  0999 V2000
    1.1452   -0.2453   -0.1735 O   0  0  0  0  0  0  0  0  0  0  0  0
    4.4974   -1.1443   -3.3961 O   0  0  0  0  0  0  0  0  0  0  0  0
    3.1250    0.1280   -1.0954 N   0  0  0  0  0  0  0  0  0  0  0  0
    4.4986   -5.9314    2.7075 N   0  0  0  0  0  0  0  0  0  0  0  0
    2.4285   -6.8307    3.6426 N   0  0  0  0  0  0  0  0  0  0  0  0
    2.6324    0.9832    2.3455 C   0  0  0  0  0  0  0  0  0  0  0  0
    1.1797    1.4689    2.3147 C   0  0  0  0  0  0  0  0  0  0  0  0
    3.3504    2.2555    1.9541 C   0  0  0  0  0  0  0  0  0  0  0  0
    3.0146   -0.1892    1.4087 C   0  0  1  0  0  0  0  0  0  0  0  0
    1.2153    2.9045    2.8192 C   0  0  0  0  0  0  0  0  0  0  0  0
    2.6586    3.3691    2.7009 C   0  0  0  0  0  0  0  0  0  0  0  0
    2.7612   -1.5409    2.0344 C   0  0  0  0  0  0  0  0  0  0  0  0
    2.3670   -0.1133    0.0093 C   0  0  0  0  0  0  0  0  0  0  0  0
    3.5748   -2.6335    1.6848 C   0  0  0  0  0  0  0  0  0  0  0  0
    1.6995   -1.7237    2.9286 C   0  0  0  0  0  0  0  0  0  0  0  0
    3.2104   -3.9138    2.0913 C   0  0  0  0  0  0  0  0  0  0  0  0
    4.5849    0.1274   -1.2553 C   0  0  1  0  0  0  0  0  0  0  0  0
    3.9284   -5.1534    1.6100 C   0  0  0  0  0  0  0  0  0  0  0  0
    1.4164   -2.9558    3.4461 C   0  0  0  0  0  0  0  0  0  0  0  0
    2.0941   -4.0306    2.9276 C   0  0  0  0  0  0  0  0  0  0  0  0
    5.8532   -6.0464    2.9810 C   0  0  0  0  0  0  0  0  0  0  0  0
    3.7655   -6.6301    3.6512 C   0  0  0  0  0  0  0  0  0  0  0  0
    5.0124   -1.1221   -2.0629 C   0  0  0  0  0  0  0  0  0  0  0  0
    5.0399    1.4587   -1.8246 C   0  0  0  0  0  0  0  0  0  0  0  0
    4.6345   -7.0205    4.6553 C   0  0  0  0  0  0  0  0  0  0  0  0
    5.9565   -6.7129    4.2075 C   0  0  0  0  0  0  0  0  0  0  0  0
    4.0712   -7.6276    5.7988 C   0  0  0  0  0  0  0  0  0  0  0  0
    6.9943   -5.6181    2.2762 C   0  0  0  0  0  0  0  0  0  0  0  0
    7.2398   -6.9462    4.7446 C   0  0  0  0  0  0  0  0  0  0  0  0
    4.8302    2.6364   -1.1028 C   0  0  0  0  0  0  0  0  0  0  0  0
    5.6585    1.5951   -3.0626 C   0  0  0  0  0  0  0  0  0  0  0  0
    2.6725   -7.7007    5.8715 C   0  0  0  0  0  0  0  0  0  0  0  0
    1.9009   -7.2803    4.8009 C   0  0  0  0  0  0  0  0  0  0  0  0
    8.2527   -5.8855    2.8257 C   0  0  0  0  0  0  0  0  0  0  0  0
    8.3763   -6.5393    4.0447 C   0  0  0  0  0  0  0  0  0  0  0  0
    4.9001   -8.1724    6.9150 C   0  0  0  0  0  0  0  0  0  0  0  0
    4.9330    3.8961   -1.6768 C   0  0  0  0  0  0  0  0  0  0  0  0
    5.9234    2.8574   -3.5921 C   0  0  0  0  0  0  0  0  0  0  0  0
    0.3981   -7.2716    4.9244 C   0  0  0  0  0  0  0  0  0  0  0  0
    5.4781    4.0036   -2.9413 C   0  0  0  0  0  0  0  0  0  0  0  0
    3.5488   -0.9369   -3.3536 H   0  0  0  0  0  0  0  0  0  0  0  0
    2.5583    0.2561   -1.9264 H   0  0  0  0  0  0  0  0  0  0  0  0
    2.9275    0.7355    3.3756 H   0  0  0  0  0  0  0  0  0  0  0  0
    0.7774    1.4852    1.2999 H   0  0  0  0  0  0  0  0  0  0  0  0
    0.4957    0.8792    2.9217 H   0  0  0  0  0  0  0  0  0  0  0  0
    4.4300    2.2194    2.1354 H   0  0  0  0  0  0  0  0  0  0  0  0
    3.1276    2.4189    0.9034 H   0  0  0  0  0  0  0  0  0  0  0  0
    4.0999   -0.1352    1.3188 H   0  0  0  0  0  0  0  0  0  0  0  0
    0.5445    3.5197    2.2117 H   0  0  0  0  0  0  0  0  0  0  0  0
    0.8811    2.9530    3.8581 H   0  0  0  0  0  0  0  0  0  0  0  0
    2.7413    4.3103    2.1481 H   0  0  0  0  0  0  0  0  0  0  0  0
    3.1049    3.5088    3.6891 H   0  0  0  0  0  0  0  0  0  0  0  0
    4.4577   -2.4835    1.0672 H   0  0  0  0  0  0  0  0  0  0  0  0
    1.0392   -0.9289    3.2287 H   0  0  0  0  0  0  0  0  0  0  0  0
    5.0621    0.0215   -0.2821 H   0  0  0  0  0  0  0  0  0  0  0  0
    3.2492   -5.8010    1.0463 H   0  0  0  0  0  0  0  0  0  0  0  0
    4.7375   -4.8739    0.9248 H   0  0  0  0  0  0  0  0  0  0  0  0
    0.6329   -3.0995    4.1803 H   0  0  0  0  0  0  0  0  0  0  0  0
    1.6801   -4.9829    3.1900 H   0  0  0  0  0  0  0  0  0  0  0  0
    6.1049   -1.1626   -2.1211 H   0  0  0  0  0  0  0  0  0  0  0  0
    4.6647   -2.0375   -1.5747 H   0  0  0  0  0  0  0  0  0  0  0  0
    6.9245   -5.1065    1.3218 H   0  0  0  0  0  0  0  0  0  0  0  0
    7.3519   -7.4588    5.6940 H   0  0  0  0  0  0  0  0  0  0  0  0
    4.6090    2.5893   -0.0581 H   0  0  0  0  0  0  0  0  0  0  0  0
    5.9477    0.7279   -3.6472 H   0  0  0  0  0  0  0  0  0  0  0  0
    2.1914   -8.1052    6.7568 H   0  0  0  0  0  0  0  0  0  0  0  0
    9.1492   -5.5787    2.2918 H   0  0  0  0  0  0  0  0  0  0  0  0
    9.3599   -6.7422    4.4595 H   0  0  0  0  0  0  0  0  0  0  0  0
    5.5525   -8.9567    6.5199 H   0  0  0  0  0  0  0  0  0  0  0  0
    5.5043   -7.3748    7.3556 H   0  0  0  0  0  0  0  0  0  0  0  0
    4.2786   -8.6114    7.6997 H   0  0  0  0  0  0  0  0  0  0  0  0
    4.6093    4.7744   -1.1243 H   0  0  0  0  0  0  0  0  0  0  0  0
    6.4579    2.9329   -4.5322 H   0  0  0  0  0  0  0  0  0  0  0  0
    0.0117   -6.2449    4.9327 H   0  0  0  0  0  0  0  0  0  0  0  0
   -0.0515   -7.8115    4.0873 H   0  0  0  0  0  0  0  0  0  0  0  0
    0.0675   -7.7509    5.8529 H   0  0  0  0  0  0  0  0  0  0  0  0
    5.5889    4.9777   -3.4030 H   0  0  0  0  0  0  0  0  0  0  0  0
  1 13  2  0  0  0  0
  2 23  1  0  0  0  0
  2 41  1  0  0  0  0
  3 13  1  0  0  0  0
  3 42  1  0  0  0  0
  4 18  1  0  0  0  0
  4 21  1  0  0  0  0
  4 22  1  0  0  0  0
  5 22  1  0  0  0  0
  5 33  2  0  0  0  0
  6  7  1  0  0  0  0
  6  8  1  0  0  0  0
  6  9  1  0  0  0  0
  6 43  1  0  0  0  0
  7 10  1  0  0  0  0
  7 44  1  0  0  0  0
  7 45  1  0  0  0  0
  8 11  1  0  0  0  0
  8 46  1  0  0  0  0
  8 47  1  0  0  0  0
  9 12  1  0  0  0  0
  9 13  1  0  0  0  0
  9 48  1  6  0  0  0
 10 11  1  0  0  0  0
 10 49  1  0  0  0  0
 10 50  1  0  0  0  0
 11 51  1  0  0  0  0
 11 52  1  0  0  0  0
 12 14  1  0  0  0  0
 12 15  2  0  0  0  0
 14 16  2  0  0  0  0
 14 53  1  0  0  0  0
 15 19  1  0  0  0  0
 15 54  1  0  0  0  0
 16 18  1  0  0  0  0
 16 20  1  0  0  0  0
 17  3  1  0  0  0  0
 17 23  1  0  0  0  0
 17 24  1  0  0  0  0
 17 55  1  1  0  0  0
 18 56  1  0  0  0  0
 18 57  1  0  0  0  0
 19 20  2  0  0  0  0
 19 58  1  0  0  0  0
 20 59  1  0  0  0  0
 21 26  1  0  0  0  0
 21 28  2  0  0  0  0
 22 25  2  0  0  0  0
 23 60  1  0  0  0  0
 23 61  1  0  0  0  0
 24 30  2  0  0  0  0
 24 31  1  0  0  0  0
 25 26  1  0  0  0  0
 25 27  1  0  0  0  0
 26 29  2  0  0  0  0
 27 32  2  0  0  0  0
 27 36  1  0  0  0  0
 28 34  1  0  0  0  0
 28 62  1  0  0  0  0
 29 35  1  0  0  0  0
 29 63  1  0  0  0  0
 30 37  1  0  0  0  0
 30 64  1  0  0  0  0
 31 38  2  0  0  0  0
 31 65  1  0  0  0  0
 32 33  1  0  0  0  0
 32 66  1  0  0  0  0
 33 39  1  0  0  0  0
 34 35  2  0  0  0  0
 34 67  1  0  0  0  0
 35 68  1  0  0  0  0
 36 69  1  0  0  0  0
 36 70  1  0  0  0  0
 36 71  1  0  0  0  0
 37 40  2  0  0  0  0
 37 72  1  0  0  0  0
 38 40  1  0  0  0  0
 38 73  1  0  0  0  0
 39 74  1  0  0  0  0
 39 75  1  0  0  0  0
 39 76  1  0  0  0  0
 40 77  1  0  0  0  0
M  END
>  <DRUGBANK_ID>
DB04852

>  <COMMON_NAME>
Implitapide

>  <CAS_NUMBER>
177469-96-4

>  <UNII>
Q70OH404HR

>  <SYNONYMS>
Implitapide

$$$$
