
 OpenBabel10282417213D

 85 87  0  0  0  0  0  0  0  0999 V2000
    0.8480   -0.1306   -0.0366 O   0  0  0  0  0  0  0  0  0  0  0  0
    0.1121    0.5343   -0.9678 C   0  0  0  0  0  0  0  0  0  0  0  0
   -0.7913    1.3027   -0.6394 O   0  0  0  0  0  0  0  0  0  0  0  0
    0.4097    0.2647   -2.3003 N   0  0  0  0  0  0  0  0  0  0  0  0
    0.3056   -1.1274   -2.7120 C   0  0  0  0  0  0  0  0  0  0  0  0
    0.9141   -1.3409   -4.0993 C   0  0  0  0  0  0  0  0  0  0  0  0
    0.3574   -0.4778   -5.1555 N   0  0  0  0  0  0  0  0  0  0  0  0
    0.3777    0.9398   -4.7164 C   0  0  0  0  0  0  0  0  0  0  0  0
   -0.1662    1.1768   -3.2915 C   0  0  0  0  0  0  0  0  0  0  0  0
   -1.0029   -0.9162   -5.4498 C   0  0  0  0  0  0  0  0  0  0  0  0
    2.3092   -0.0440    0.0551 C   0  0  1  0  0  0  0  0  0  0  0  0
    2.9367   -0.8766   -1.0254 C   0  0  0  0  0  0  0  0  0  0  0  0
    3.9319   -0.4830   -1.8226 C   0  0  0  0  0  0  0  0  0  0  0  0
    4.5519   -1.2272   -2.9298 C   0  0  2  0  0  0  0  0  0  0  0  0
    4.9816   -2.5991   -2.4651 C   0  0  0  0  0  0  0  0  0  0  0  0
    5.6708   -0.4538   -3.6958 C   0  0  1  0  0  0  0  0  0  0  0  0
    5.3760   -0.3510   -5.1752 C   0  0  0  0  0  0  0  0  0  0  0  0
    6.4020   -0.1210   -6.0039 C   0  0  0  0  0  0  0  0  0  0  0  0
    6.2014    0.1494   -7.3874 C   0  0  0  0  0  0  0  0  0  0  0  0
    7.1975    0.4191   -8.2239 C   0  0  0  0  0  0  0  0  0  0  0  0
    6.9187    0.5711   -9.6941 C   0  0  1  0  0  0  0  0  0  0  0  0
    7.3936    1.9620  -10.0993 C   0  0  0  0  0  0  0  0  0  0  0  0
    7.5793   -0.5455  -10.4829 C   0  0  0  0  0  0  0  0  0  0  0  0
    7.7529   -1.8142   -9.9178 C   0  0  0  0  0  0  0  0  0  0  0  0
    8.4287   -2.7896  -10.6343 C   0  0  0  0  0  0  0  0  0  0  0  0
    8.8723   -2.4952  -11.9140 C   0  0  0  0  0  0  0  0  0  0  0  0
    8.6115   -1.2368  -12.4274 C   0  0  0  0  0  0  0  0  0  0  0  0
    7.9761   -0.2641  -11.7456 N   0  0  0  0  0  0  0  0  0  0  0  0
    3.9278   -0.3479   -5.6227 C   0  0  0  0  0  0  0  0  0  0  0  0
    5.9823    0.8544   -3.0958 O   0  0  0  0  0  0  0  0  0  0  0  0
    5.3642    2.0074   -3.5139 C   0  0  0  0  0  0  0  0  0  0  0  0
    5.2915    3.0041   -2.3772 C   0  0  0  0  0  0  0  0  0  0  0  0
    3.9574    3.7663   -2.4227 C   0  0  1  0  0  0  0  0  0  0  0  0
    3.1260    3.6466   -1.1396 C   0  0  0  0  0  0  0  0  0  0  0  0
    2.5023    2.2711   -1.0098 C   0  0  0  0  0  0  0  0  0  0  0  0
    2.8956    1.4133    0.2156 C   0  0  2  0  0  0  0  0  0  0  0  0
    4.4162    1.3776    0.5420 C   0  0  0  0  0  0  0  0  0  0  0  0
    2.3081    2.0226    1.3757 O   0  0  0  0  0  0  0  0  0  0  0  0
    4.2287    5.1511   -2.6186 O   0  0  0  0  0  0  0  0  0  0  0  0
    4.8565    2.2113   -4.5890 O   0  0  0  0  0  0  0  0  0  0  0  0
    0.7403   -1.8078   -1.9846 H   0  0  0  0  0  0  0  0  0  0  0  0
   -0.7575   -1.3796   -2.7072 H   0  0  0  0  0  0  0  0  0  0  0  0
    1.9642   -1.1060   -4.0422 H   0  0  0  0  0  0  0  0  0  0  0  0
    0.8605   -2.3973   -4.3860 H   0  0  0  0  0  0  0  0  0  0  0  0
    1.4081    1.3147   -4.7691 H   0  0  0  0  0  0  0  0  0  0  0  0
   -0.1857    1.5547   -5.4291 H   0  0  0  0  0  0  0  0  0  0  0  0
   -1.2486    1.0136   -3.2793 H   0  0  0  0  0  0  0  0  0  0  0  0
    0.0103    2.2156   -2.9899 H   0  0  0  0  0  0  0  0  0  0  0  0
   -1.6685   -0.8244   -4.5871 H   0  0  0  0  0  0  0  0  0  0  0  0
   -1.4247   -0.3347   -6.2716 H   0  0  0  0  0  0  0  0  0  0  0  0
   -0.9944   -1.9678   -5.7557 H   0  0  0  0  0  0  0  0  0  0  0  0
    2.5305   -0.5706    0.9925 H   0  0  0  0  0  0  0  0  0  0  0  0
    2.5118   -1.8580   -1.1807 H   0  0  0  0  0  0  0  0  0  0  0  0
    4.3277    0.4991   -1.7390 H   0  0  0  0  0  0  0  0  0  0  0  0
    3.7298   -1.4162   -3.5949 H   0  0  0  0  0  0  0  0  0  0  0  0
    4.1334   -3.1345   -2.0230 H   0  0  0  0  0  0  0  0  0  0  0  0
    5.3346   -3.1866   -3.3131 H   0  0  0  0  0  0  0  0  0  0  0  0
    5.7630   -2.5094   -1.7080 H   0  0  0  0  0  0  0  0  0  0  0  0
    6.5973   -1.0315   -3.5631 H   0  0  0  0  0  0  0  0  0  0  0  0
    7.4150   -0.0663   -5.6088 H   0  0  0  0  0  0  0  0  0  0  0  0
    5.2003    0.1298   -7.7995 H   0  0  0  0  0  0  0  0  0  0  0  0
    8.2254    0.4433   -7.8763 H   0  0  0  0  0  0  0  0  0  0  0  0
    5.8383    0.5058   -9.8943 H   0  0  0  0  0  0  0  0  0  0  0  0
    8.4726    2.0651   -9.9382 H   0  0  0  0  0  0  0  0  0  0  0  0
    7.1857    2.1573  -11.1549 H   0  0  0  0  0  0  0  0  0  0  0  0
    6.8867    2.7369   -9.5117 H   0  0  0  0  0  0  0  0  0  0  0  0
    7.3990   -2.0423   -8.9164 H   0  0  0  0  0  0  0  0  0  0  0  0
    8.6094   -3.7619  -10.1877 H   0  0  0  0  0  0  0  0  0  0  0  0
    9.4061   -3.2311  -12.5010 H   0  0  0  0  0  0  0  0  0  0  0  0
    8.9228   -0.9618  -13.4296 H   0  0  0  0  0  0  0  0  0  0  0  0
    3.5026   -1.3492   -5.5244 H   0  0  0  0  0  0  0  0  0  0  0  0
    3.3576    0.3711   -5.0307 H   0  0  0  0  0  0  0  0  0  0  0  0
    3.7343   -0.0770   -6.6567 H   0  0  0  0  0  0  0  0  0  0  0  0
    6.1606    3.6627   -2.4084 H   0  0  0  0  0  0  0  0  0  0  0  0
    5.3661    2.4537   -1.4505 H   0  0  0  0  0  0  0  0  0  0  0  0
    3.3248    3.4457   -3.2605 H   0  0  0  0  0  0  0  0  0  0  0  0
    3.7050    3.9351   -0.2609 H   0  0  0  0  0  0  0  0  0  0  0  0
    2.3055    4.3770   -1.1885 H   0  0  0  0  0  0  0  0  0  0  0  0
    1.4312    2.4742   -0.9489 H   0  0  0  0  0  0  0  0  0  0  0  0
    2.6429    1.7250   -1.9469 H   0  0  0  0  0  0  0  0  0  0  0  0
    4.8008    2.3786    0.7515 H   0  0  0  0  0  0  0  0  0  0  0  0
    4.6198    0.7481    1.4103 H   0  0  0  0  0  0  0  0  0  0  0  0
    5.0884    0.9732   -0.2095 H   0  0  0  0  0  0  0  0  0  0  0  0
    2.5776    2.9566    1.3914 H   0  0  0  0  0  0  0  0  0  0  0  0
    4.7215    5.4669   -1.8438 H   0  0  0  0  0  0  0  0  0  0  0  0
  2  1  1  0  0  0  0
  3  2  2  0  0  0  0
  4  2  1  0  0  0  0
  5  4  1  0  0  0  0
  5 41  1  0  0  0  0
  5 42  1  0  0  0  0
  6  5  1  0  0  0  0
  6 43  1  0  0  0  0
  6 44  1  0  0  0  0
  7  6  1  0  0  0  0
  8  7  1  0  0  0  0
  8 45  1  0  0  0  0
  8 46  1  0  0  0  0
  9  4  1  0  0  0  0
  9  8  1  0  0  0  0
  9 47  1  0  0  0  0
  9 48  1  0  0  0  0
 10  7  1  0  0  0  0
 10 49  1  0  0  0  0
 10 50  1  0  0  0  0
 10 51  1  0  0  0  0
 11  1  1  0  0  0  0
 11 52  1  1  0  0  0
 12 11  1  0  0  0  0
 12 53  1  0  0  0  0
 13 12  2  0  0  0  0
 13 54  1  0  0  0  0
 14 13  1  0  0  0  0
 14 15  1  0  0  0  0
 14 55  1  6  0  0  0
 15 56  1  0  0  0  0
 15 57  1  0  0  0  0
 15 58  1  0  0  0  0
 16 14  1  0  0  0  0
 16 59  1  1  0  0  0
 16 17  1  0  0  0  0
 18 17  2  0  0  0  0
 18 60  1  0  0  0  0
 19 18  1  0  0  0  0
 19 61  1  0  0  0  0
 20 19  2  0  0  0  0
 20 62  1  0  0  0  0
 21 20  1  0  0  0  0
 21 22  1  0  0  0  0
 21 63  1  6  0  0  0
 22 64  1  0  0  0  0
 22 65  1  0  0  0  0
 22 66  1  0  0  0  0
 23 21  1  0  0  0  0
 24 23  2  0  0  0  0
 24 67  1  0  0  0  0
 25 24  1  0  0  0  0
 25 68  1  0  0  0  0
 26 25  2  0  0  0  0
 26 69  1  0  0  0  0
 27 26  1  0  0  0  0
 27 70  1  0  0  0  0
 28 23  1  0  0  0  0
 28 27  2  0  0  0  0
 29 17  1  0  0  0  0
 29 71  1  0  0  0  0
 29 72  1  0  0  0  0
 29 73  1  0  0  0  0
 30 16  1  0  0  0  0
 31 30  1  0  0  0  0
 32 31  1  0  0  0  0
 32 74  1  0  0  0  0
 32 75  1  0  0  0  0
 33 32  1  0  0  0  0
 33 39  1  0  0  0  0
 33 76  1  6  0  0  0
 34 33  1  0  0  0  0
 34 77  1  0  0  0  0
 34 78  1  0  0  0  0
 35 34  1  0  0  0  0
 35 79  1  0  0  0  0
 35 80  1  0  0  0  0
 36 11  1  0  0  0  0
 36 35  1  0  0  0  0
 36 37  1  0  0  0  0
 36 38  1  1  0  0  0
 37 81  1  0  0  0  0
 37 82  1  0  0  0  0
 37 83  1  0  0  0  0
 38 84  1  0  0  0  0
 39 85  1  0  0  0  0
 40 31  2  0  0  0  0
M  END
>  <DRUGBANK_ID>
DB14017

>  <COMMON_NAME>
H3B-8800

>  <CAS_NUMBER>
1825302-42-8

>  <UNII>
90YLS47BRX

>  <SYNONYMS>
(2S,3S,4E,6S,7R,10R)-7,10-Dihydroxy-3,7-dimethyl-12-oxo-2-[(2E,4E,6R)-6-(2-pyridinyl)-2,4-heptadien-2-yl]oxacyclododec-4-en-6-yl 4-methyl-1-piperazinecarboxylate; (2S,3S,4E,6S,7R,10R)-7,10-Dihydroxy-3,7-Dimethyl-12-Oxo-2-[(2E,4E,6R)-6-(Pyridin-2-Yl)Hepta-2,4-Dien-2-Yl]Oxacyclododec-4-En-6-Yl 4-Methylpiperazine-1-Carboxylate; 1-PIPERAZINECARBOXYLIC ACID, 4-METHYL-, (2S,3S,4E,6S,7R,10R)-7,10-DIHYDROXY-3,7-DIMETHYL-2-((1E,3E,5R)-1-METHYL-5-(2-PYRIDINYL)-1,3-HEXADIEN-1-YL)-12-OXOOXACYCLODODEC-4-EN-6-YL ESTER

$$$$
