
 OpenBabel10282417133D

 82 86  0  0  0  0  0  0  0  0999 V2000
   -1.2848    0.7595   -0.4304 N   0  0  0  0  0  0  0  0  0  0  0  0
   -0.0484    1.7114   -0.8098 S   0  0  0  0  0  0  0  0  0  0  0  0
    0.8385    0.9767    0.3276 N   0  0  0  0  0  0  0  0  0  0  0  0
    1.9266    0.0941   -0.3216 C   0  0  1  0  0  0  0  0  0  0  0  0
    1.2134   -1.2106   -0.8781 C   0  0  1  0  0  0  0  0  0  0  0  0
    0.1769   -1.4760    0.1541 C   0  0  2  0  0  0  0  0  0  0  0  0
   -1.3163   -0.6974   -0.2244 C   0  0  1  0  0  0  0  0  0  0  0  0
   -2.3599    1.3355   -1.1265 C   0  0  0  0  0  0  0  0  0  0  0  0
   -2.6376    1.1822   -2.5059 C   0  0  0  0  0  0  0  0  0  0  0  0
   -2.9460   -0.0994   -2.8617 C   0  0  0  0  0  0  0  0  0  0  0  0
   -3.0034   -0.4869   -4.1243 C   0  0  0  0  0  0  0  0  0  0  0  0
   -3.0812    0.6055   -4.9999 C   0  0  0  0  0  0  0  0  0  0  0  0
   -3.0993    1.9736   -4.5620 C   0  0  0  0  0  0  0  0  0  0  0  0
   -2.7987    2.2798   -3.2788 C   0  0  0  0  0  0  0  0  0  0  0  0
    0.2506    1.3820   -2.1511 O   0  0  0  0  0  0  0  0  0  0  0  0
    3.6379    1.7473   -0.8479 O   0  0  0  0  0  0  0  0  0  0  0  0
    3.0539    2.8795   -0.3475 C   0  0  0  0  0  0  0  0  0  0  0  0
    2.2943    2.9452    0.8158 C   0  0  0  0  0  0  0  0  0  0  0  0
    1.5986    4.0691    1.2552 C   0  0  0  0  0  0  0  0  0  0  0  0
    2.0318    5.2708    0.7772 C   0  0  0  0  0  0  0  0  0  0  0  0
    3.0484    5.2655   -0.1833 C   0  0  0  0  0  0  0  0  0  0  0  0
    3.4628    4.0891   -0.8340 C   0  0  0  0  0  0  0  0  0  0  0  0
    0.2411    0.7832    1.9483 C   0  0  0  0  0  0  0  0  0  0  0  0
   -0.5438   -0.6297    2.6342 C   0  0  0  0  0  0  0  0  0  0  0  0
   -0.1151   -2.1165    2.5879 C   0  0  0  0  0  0  0  0  0  0  0  0
   -0.9263   -3.2048    2.3809 C   0  0  0  0  0  0  0  0  0  0  0  0
   -2.2030   -2.9513    2.7069 C   0  0  0  0  0  0  0  0  0  0  0  0
   -2.5953   -1.6685    3.2346 C   0  0  0  0  0  0  0  0  0  0  0  0
   -1.8231   -0.4639    3.0897 C   0  0  0  0  0  0  0  0  0  0  0  0
    0.6676   -1.1916   -2.1718 O   0  0  0  0  0  0  0  0  0  0  0  0
    1.1677   -1.0916    1.1787 O   0  0  0  0  0  0  0  0  0  0  0  0
   -2.8469   -1.1149    0.3927 C   0  0  0  0  0  0  0  0  0  0  0  0
   -4.1603   -0.4145    0.2496 O   0  0  0  0  0  0  0  0  0  0  0  0
   -4.4185    0.8878    0.8096 C   0  0  0  0  0  0  0  0  0  0  0  0
   -3.4620    1.9116    1.0642 C   0  0  0  0  0  0  0  0  0  0  0  0
   -3.6524    3.2409    0.5960 C   0  0  0  0  0  0  0  0  0  0  0  0
   -4.9127    3.6599    0.2960 C   0  0  0  0  0  0  0  0  0  0  0  0
   -5.9418    2.7230    0.4054 C   0  0  0  0  0  0  0  0  0  0  0  0
   -5.7061    1.3397    0.6027 C   0  0  0  0  0  0  0  0  0  0  0  0
   -0.4316    3.0795   -0.4084 O   0  0  0  0  0  0  0  0  0  0  0  0
    2.8027    0.6978   -1.3591 C   0  0  0  0  0  0  0  0  0  0  0  0
   -3.0339   -1.9513   -4.4040 C   0  0  0  0  0  0  0  0  0  0  0  0
   -3.1606   -2.2652   -5.5869 O   0  0  0  0  0  0  0  0  0  0  0  0
   -2.9323   -2.9945   -3.4702 N   0  0  0  0  0  0  0  0  0  0  0  0
   -2.7883   -3.1351   -2.0352 C   0  0  0  0  0  0  0  0  0  0  0  0
    2.6738   -0.1060    0.4731 H   0  0  0  0  0  0  0  0  0  0  0  0
    1.8880   -2.0729   -0.8017 H   0  0  0  0  0  0  0  0  0  0  0  0
   -0.0585   -2.5332    0.1435 H   0  0  0  0  0  0  0  0  0  0  0  0
   -1.3772   -1.1042   -1.2188 H   0  0  0  0  0  0  0  0  0  0  0  0
   -3.1797    0.8189   -0.7872 H   0  0  0  0  0  0  0  0  0  0  0  0
   -2.4076    2.3821   -0.9510 H   0  0  0  0  0  0  0  0  0  0  0  0
   -3.1691   -0.7239   -2.0491 H   0  0  0  0  0  0  0  0  0  0  0  0
   -3.1552    0.4217   -6.0560 H   0  0  0  0  0  0  0  0  0  0  0  0
   -3.3138    2.8115   -5.2054 H   0  0  0  0  0  0  0  0  0  0  0  0
   -2.7140    3.2709   -2.8299 H   0  0  0  0  0  0  0  0  0  0  0  0
    2.1894    2.0693    1.4168 H   0  0  0  0  0  0  0  0  0  0  0  0
    0.7909    3.9825    1.9811 H   0  0  0  0  0  0  0  0  0  0  0  0
    1.6420    6.1837    1.2122 H   0  0  0  0  0  0  0  0  0  0  0  0
    3.5662    6.1892   -0.3950 H   0  0  0  0  0  0  0  0  0  0  0  0
    4.1826    4.1049   -1.6417 H   0  0  0  0  0  0  0  0  0  0  0  0
    1.1037    0.9346    2.6021 H   0  0  0  0  0  0  0  0  0  0  0  0
   -0.3811    1.6891    2.1192 H   0  0  0  0  0  0  0  0  0  0  0  0
    0.8105   -2.5871    2.2126 H   0  0  0  0  0  0  0  0  0  0  0  0
   -0.5410   -4.0602    1.7927 H   0  0  0  0  0  0  0  0  0  0  0  0
   -2.9255   -3.6812    2.3628 H   0  0  0  0  0  0  0  0  0  0  0  0
   -3.6676   -1.5394    3.3504 H   0  0  0  0  0  0  0  0  0  0  0  0
   -2.3367    0.5012    2.9967 H   0  0  0  0  0  0  0  0  0  0  0  0
    0.1776   -0.3446   -2.2744 H   0  0  0  0  0  0  0  0  0  0  0  0
    1.7378   -1.3991    1.9067 H   0  0  0  0  0  0  0  0  0  0  0  0
   -3.0126   -2.1987    0.2697 H   0  0  0  0  0  0  0  0  0  0  0  0
   -2.8734   -0.9831    1.4017 H   0  0  0  0  0  0  0  0  0  0  0  0
   -2.4156    1.7066    1.2420 H   0  0  0  0  0  0  0  0  0  0  0  0
   -2.8012    3.8738    0.2835 H   0  0  0  0  0  0  0  0  0  0  0  0
   -5.0538    4.7099    0.0566 H   0  0  0  0  0  0  0  0  0  0  0  0
   -6.9553    3.0852    0.3170 H   0  0  0  0  0  0  0  0  0  0  0  0
   -6.5168    0.6193    0.6075 H   0  0  0  0  0  0  0  0  0  0  0  0
    3.4568   -0.1423   -1.6441 H   0  0  0  0  0  0  0  0  0  0  0  0
    2.2929    0.9628   -2.2767 H   0  0  0  0  0  0  0  0  0  0  0  0
   -2.9915   -3.8915   -3.9278 H   0  0  0  0  0  0  0  0  0  0  0  0
   -3.6448   -3.6132   -1.5518 H   0  0  0  0  0  0  0  0  0  0  0  0
   -1.8158   -3.5261   -1.7188 H   0  0  0  0  0  0  0  0  0  0  0  0
   -2.8114   -2.1921   -1.6004 H   0  0  0  0  0  0  0  0  0  0  0  0
  1  2  1  0  0  0  0
  3  2  1  0  0  0  0
  4  3  1  0  0  0  0
  4  5  1  0  0  0  0
  4 41  1  0  0  0  0
  4 46  1  1  0  0  0
  5  6  1  0  0  0  0
  5 30  1  0  0  0  0
  5 47  1  1  0  0  0
  6  7  1  0  0  0  0
  6 48  1  1  0  0  0
  6 31  1  0  0  0  0
  7  1  1  0  0  0  0
  7 32  1  0  0  0  0
  7 49  1  6  0  0  0
  8  1  1  0  0  0  0
  8  9  1  0  0  0  0
  8 50  1  0  0  0  0
  8 51  1  0  0  0  0
  9 10  2  0  0  0  0
  9 14  1  0  0  0  0
 10 11  1  0  0  0  0
 10 52  1  0  0  0  0
 11 12  2  0  0  0  0
 11 42  1  0  0  0  0
 12 13  1  0  0  0  0
 12 53  1  0  0  0  0
 13 14  2  0  0  0  0
 13 54  1  0  0  0  0
 14 55  1  0  0  0  0
 15  2  2  0  0  0  0
 17 16  1  0  0  0  0
 17 18  2  0  0  0  0
 17 22  1  0  0  0  0
 18 19  1  0  0  0  0
 18 56  1  0  0  0  0
 19 20  2  0  0  0  0
 19 57  1  0  0  0  0
 20 21  1  0  0  0  0
 20 58  1  0  0  0  0
 21 22  2  0  0  0  0
 21 59  1  0  0  0  0
 22 60  1  0  0  0  0
 23  3  1  0  0  0  0
 23 24  1  0  0  0  0
 23 61  1  0  0  0  0
 23 62  1  0  0  0  0
 24 25  2  0  0  0  0
 24 29  1  0  0  0  0
 25 26  1  0  0  0  0
 25 63  1  0  0  0  0
 26 27  2  0  0  0  0
 26 64  1  0  0  0  0
 27 28  1  0  0  0  0
 27 65  1  0  0  0  0
 28 29  2  0  0  0  0
 28 66  1  0  0  0  0
 29 67  1  0  0  0  0
 30 68  1  0  0  0  0
 31 69  1  0  0  0  0
 32 33  1  0  0  0  0
 32 70  1  0  0  0  0
 32 71  1  0  0  0  0
 34 33  1  0  0  0  0
 34 35  2  0  0  0  0
 34 39  1  0  0  0  0
 35 36  1  0  0  0  0
 35 72  1  0  0  0  0
 36 37  2  0  0  0  0
 36 73  1  0  0  0  0
 37 38  1  0  0  0  0
 37 74  1  0  0  0  0
 38 39  2  0  0  0  0
 38 75  1  0  0  0  0
 39 76  1  0  0  0  0
 40  2  2  0  0  0  0
 41 16  1  0  0  0  0
 41 77  1  0  0  0  0
 41 78  1  0  0  0  0
 42 43  2  0  0  0  0
 42 44  1  0  0  0  0
 44 79  1  0  0  0  0
 45 44  1  0  0  0  0
 45 80  1  0  0  0  0
 45 81  1  0  0  0  0
 45 82  1  0  0  0  0
M  END
>  <DRUGBANK_ID>
DB03076

>  <SECONDARY_ACCESSION_NUMBERS>
EXPT02360

>  <COMMON_NAME>
3-[[(3R,4S,5S,6R)-7-Benzyl-4,5-dihydroxy-1,1-dioxo-3,6-bis(phenoxymethyl)-1,2,7-thiadiazepan-2-yl]methyl]-N-methylbenzamide

$$$$
