692
 OpenBabel10282417163D

 27 28  0  0  0  0  0  0  0  0999 V2000
    1.1539    0.0374    0.0435 C   0  0  0  0  0  0  0  0  0  0  0  0
    0.6103   -0.6530    1.2046 N   0  0  0  0  0  0  0  0  0  0  0  0
   -0.8543   -0.7210    1.1543 C   0  0  0  0  0  0  0  0  0  0  0  0
   -1.3821   -1.4844   -0.0471 C   0  0  0  0  0  0  0  0  0  0  0  0
   -2.0964   -0.7722   -1.0317 C   0  0  0  0  0  0  0  0  0  0  0  0
   -2.5526   -1.4130   -2.1834 C   0  0  0  0  0  0  0  0  0  0  0  0
   -2.2624   -2.7550   -2.3916 C   0  0  0  0  0  0  0  0  0  0  0  0
   -1.5438   -3.4737   -1.4333 C   0  0  0  0  0  0  0  0  0  0  0  0
   -1.1093   -2.8566   -0.2483 C   0  0  0  0  0  0  0  0  0  0  0  0
   -0.3707   -3.6460    0.7482 C   0  0  0  0  0  0  0  0  0  0  0  0
   -0.6556   -3.8200    2.0902 C   0  0  0  0  0  0  0  0  0  0  0  0
    0.3401   -4.5744    2.7701 C   0  0  0  0  0  0  0  0  0  0  0  0
    1.3479   -4.9721    1.9244 C   0  0  0  0  0  0  0  0  0  0  0  0
    1.1108   -4.4045    0.3282 S   0  0  0  0  0  0  0  0  0  0  0  0
    0.8181    1.0776    0.0297 H   0  0  0  0  0  0  0  0  0  0  0  0
    0.8744   -0.4428   -0.9000 H   0  0  0  0  0  0  0  0  0  0  0  0
    2.2457    0.0297    0.0927 H   0  0  0  0  0  0  0  0  0  0  0  0
    0.9805   -1.6047    1.2199 H   0  0  0  0  0  0  0  0  0  0  0  0
   -1.2302   -1.1888    2.0706 H   0  0  0  0  0  0  0  0  0  0  0  0
   -1.2645    0.2955    1.1875 H   0  0  0  0  0  0  0  0  0  0  0  0
   -2.2754    0.2943   -0.9161 H   0  0  0  0  0  0  0  0  0  0  0  0
   -3.1245   -0.8571   -2.9232 H   0  0  0  0  0  0  0  0  0  0  0  0
   -2.5895   -3.2495   -3.3031 H   0  0  0  0  0  0  0  0  0  0  0  0
   -1.3260   -4.5226   -1.6156 H   0  0  0  0  0  0  0  0  0  0  0  0
   -1.5275   -3.3942    2.5706 H   0  0  0  0  0  0  0  0  0  0  0  0
    0.3126   -4.8089    3.8275 H   0  0  0  0  0  0  0  0  0  0  0  0
    2.2212   -5.5620    2.1680 H   0  0  0  0  0  0  0  0  0  0  0  0
  1  2  1  0  0  0  0
  1 15  1  0  0  0  0
  1 16  1  0  0  0  0
  1 17  1  0  0  0  0
  2  3  1  0  0  0  0
  2 18  1  0  0  0  0
  3  4  1  0  0  0  0
  3 19  1  0  0  0  0
  3 20  1  0  0  0  0
  4  9  1  0  0  0  0
  5  4  2  0  0  0  0
  5  6  1  0  0  0  0
  5 21  1  0  0  0  0
  6  7  2  0  0  0  0
  6 22  1  0  0  0  0
  7  8  1  0  0  0  0
  7 23  1  0  0  0  0
  8 24  1  0  0  0  0
  9  8  2  0  0  0  0
  9 10  1  0  0  0  0
 10 14  1  0  0  0  0
 11 10  2  0  0  0  0
 11 12  1  0  0  0  0
 11 25  1  0  0  0  0
 12 13  2  0  0  0  0
 12 26  1  0  0  0  0
 13 27  1  0  0  0  0
 14 13  1  0  0  0  0
M  END
>  <DRUGBANK_ID>
DB07196

>  <COMMON_NAME>
N-methyl-1-(2-thiophen-2-ylphenyl)methanamine

>  <UNII>
JXK7BCF78O

$$$$
