
 OpenBabel10282417173D

 41 44  0  0  1  0  0  0  0  0999 V2000
   -5.3320    7.4217    1.5802 C   0  0  0  0  0  0  0  0  0  0  0  0
   -6.4258    7.4736    2.4202 C   0  0  0  0  0  0  0  0  0  0  0  0
   -7.5347    7.6877    1.6430 N   0  0  0  0  0  0  0  0  0  0  0  0
   -7.1810    7.7334    0.3242 C   0  0  0  0  0  0  0  0  0  0  0  0
   -5.7989    7.6152    0.2471 C   0  0  0  0  0  0  0  0  0  0  0  0
   -5.2644    7.7229   -1.0390 C   0  0  0  0  0  0  0  0  0  0  0  0
   -6.0664    7.8621   -2.1123 N   0  0  0  0  0  0  0  0  0  0  0  0
   -7.3919    7.9093   -1.8835 C   0  0  0  0  0  0  0  0  0  0  0  0
   -8.0319    7.8795   -0.6988 N   0  0  0  0  0  0  0  0  0  0  0  0
   -3.8461    7.6900   -1.2473 C   0  0  0  0  0  0  0  0  0  0  0  0
   -2.9610    8.5941   -1.8607 C   0  0  0  0  0  0  0  0  0  0  0  0
   -1.6868    8.1862   -1.7866 N   0  0  0  0  0  0  0  0  0  0  0  0
   -1.7635    7.0232   -1.1111 N   0  0  0  0  0  0  0  0  0  0  0  0
   -3.0470    6.6639   -0.8202 C   0  0  0  0  0  0  0  0  0  0  0  0
   -0.5447    6.2918   -0.7536 C   0  0  2  0  0  0  0  0  0  0  0  0
   -0.9308    4.9391   -0.1523 C   0  0  0  0  0  0  0  0  0  0  0  0
    0.3422    4.1146   -0.0513 C   0  0  0  0  0  0  0  0  0  0  0  0
    1.3982    3.4307    0.0325 N   0  0  0  0  0  0  0  0  0  0  0  0
    0.3930    7.1216    0.1763 C   0  0  0  0  0  0  0  0  0  0  0  0
    1.7549    6.4999    0.5249 C   0  0  0  0  0  0  0  0  0  0  0  0
    2.2148    7.0980    1.8334 C   0  0  0  0  0  0  0  0  0  0  0  0
    0.9878    7.7773    2.4215 C   0  0  0  0  0  0  0  0  0  0  0  0
   -0.2015    7.3753    1.5604 C   0  0  0  0  0  0  0  0  0  0  0  0
   -4.3075    7.2672    1.8962 H   0  0  0  0  0  0  0  0  0  0  0  0
   -6.5076    7.3865    3.4953 H   0  0  0  0  0  0  0  0  0  0  0  0
   -8.4869    7.7964    1.9719 H   0  0  0  0  0  0  0  0  0  0  0  0
   -8.0207    7.9802   -2.7646 H   0  0  0  0  0  0  0  0  0  0  0  0
   -3.1890    9.5408   -2.3329 H   0  0  0  0  0  0  0  0  0  0  0  0
   -3.3121    5.7422   -0.3205 H   0  0  0  0  0  0  0  0  0  0  0  0
   -0.0294    6.1187   -1.7122 H   0  0  0  0  0  0  0  0  0  0  0  0
   -1.4071    5.0006    0.8292 H   0  0  0  0  0  0  0  0  0  0  0  0
   -1.6093    4.3768   -0.8065 H   0  0  0  0  0  0  0  0  0  0  0  0
    0.5989    8.0861   -0.3059 H   0  0  0  0  0  0  0  0  0  0  0  0
    1.6881    5.4733    0.8295 H   0  0  0  0  0  0  0  0  0  0  0  0
    2.4794    6.5297   -0.2936 H   0  0  0  0  0  0  0  0  0  0  0  0
    2.5613    6.2915    2.4980 H   0  0  0  0  0  0  0  0  0  0  0  0
    3.0526    7.7787    1.6833 H   0  0  0  0  0  0  0  0  0  0  0  0
    0.8259    7.4782    3.4617 H   0  0  0  0  0  0  0  0  0  0  0  0
    1.1280    8.8588    2.3862 H   0  0  0  0  0  0  0  0  0  0  0  0
   -0.9775    8.1453    1.5352 H   0  0  0  0  0  0  0  0  0  0  0  0
   -0.6508    6.4757    1.9912 H   0  0  0  0  0  0  0  0  0  0  0  0
  1  2  2  0  0  0  0
  1  5  1  0  0  0  0
  1 24  1  0  0  0  0
  2  3  1  0  0  0  0
  2 25  1  0  0  0  0
  3  4  1  0  0  0  0
  3 26  1  0  0  0  0
  4  5  1  0  0  0  0
  4  9  2  0  0  0  0
  5  6  2  0  0  0  0
  6  7  1  0  0  0  0
  6 10  1  0  0  0  0
  7  8  2  0  0  0  0
  8  9  1  0  0  0  0
  8 27  1  0  0  0  0
 10 11  1  0  0  0  0
 10 14  2  0  0  0  0
 11 12  2  0  0  0  0
 11 28  1  0  0  0  0
 12 13  1  0  0  0  0
 13 14  1  0  0  0  0
 14 29  1  0  0  0  0
 15 19  1  0  0  0  0
 15 30  1  6  0  0  0
 15 16  1  0  0  0  0
 15 13  1  0  0  0  0
 16 17  1  0  0  0  0
 16 31  1  0  0  0  0
 16 32  1  0  0  0  0
 17 18  3  0  0  0  0
 19 20  1  0  0  0  0
 19 23  1  0  0  0  0
 19 33  1  0  0  0  0
 20 21  1  0  0  0  0
 20 34  1  0  0  0  0
 20 35  1  0  0  0  0
 21 22  1  0  0  0  0
 21 36  1  0  0  0  0
 21 37  1  0  0  0  0
 22 23  1  0  0  0  0
 22 38  1  0  0  0  0
 22 39  1  0  0  0  0
 23 40  1  0  0  0  0
 23 41  1  0  0  0  0
M  END
>  <DRUGBANK_ID>
DB08877

>  <SECONDARY_ACCESSION_NUMBERS>
DB06164

>  <COMMON_NAME>
Ruxolitinib

>  <CAS_NUMBER>
941678-49-5

>  <UNII>
82S8X8XX8H

>  <SYNONYMS>
Ruxolitinib

$$$$
