
 OpenBabel10282417223D

 31 32  0  0  0  0  0  0  0  0999 V2000
    1.7270    0.5035    0.1984 O   0  0  0  0  0  0  0  0  0  0  0  0
   -1.8908    0.8593    0.0283 O   0  0  0  0  0  0  0  0  0  0  0  0
   -0.7238   -1.5095    0.6519 O   0  0  0  0  0  0  0  0  0  0  0  0
    1.4358   -1.7962   -2.6358 O   0  0  0  0  0  0  0  0  0  0  0  0
   -0.2753    3.4865    1.8337 O   0  0  0  0  0  0  0  0  0  0  0  0
    0.1002    6.5805   -3.1000 O   0  0  0  0  0  0  0  0  0  0  0  0
    0.7763    2.6911   -0.0423 N   0  0  0  0  0  0  0  0  0  0  0  0
   -0.0688    4.9207    0.0821 N   0  0  0  0  0  0  0  0  0  0  0  0
   -0.2063    6.2736   -1.7740 N   0  0  0  0  0  0  0  0  0  0  0  0
   -0.5769    0.6392   -0.4663 C   0  0  2  0  0  0  0  0  0  0  0  0
   -0.1713   -0.8200   -0.4781 C   0  0  1  0  0  0  0  0  0  0  0  0
    0.5407    1.3032    0.3772 C   0  0  1  0  0  0  0  0  0  0  0  0
    1.3576   -0.7625   -0.3994 C   0  0  1  0  0  0  0  0  0  0  0  0
    2.0674   -0.8811   -1.7546 C   0  0  0  0  0  0  0  0  0  0  0  0
    1.1024    2.8956   -1.3630 C   0  0  0  0  0  0  0  0  0  0  0  0
    0.1273    3.6966    0.6821 C   0  0  0  0  0  0  0  0  0  0  0  0
    0.5967    3.9261   -2.0268 C   0  0  0  0  0  0  0  0  0  0  0  0
    0.0944    5.0491   -1.2079 C   0  0  0  0  0  0  0  0  0  0  0  0
   -1.9844    0.3729    0.8668 H   0  0  0  0  0  0  0  0  0  0  0  0
   -0.4238   -1.0858    1.4727 H   0  0  0  0  0  0  0  0  0  0  0  0
    1.3595   -2.6555   -2.1845 H   0  0  0  0  0  0  0  0  0  0  0  0
    0.2850    5.7441   -3.5542 H   0  0  0  0  0  0  0  0  0  0  0  0
   -0.3464    7.0673   -1.1522 H   0  0  0  0  0  0  0  0  0  0  0  0
   -0.5634    1.0006   -1.5009 H   0  0  0  0  0  0  0  0  0  0  0  0
   -0.5475   -1.3400   -1.3636 H   0  0  0  0  0  0  0  0  0  0  0  0
    0.2737    1.2621    1.4389 H   0  0  0  0  0  0  0  0  0  0  0  0
    1.7300   -1.5584    0.2572 H   0  0  0  0  0  0  0  0  0  0  0  0
    2.1203    0.0846   -2.2610 H   0  0  0  0  0  0  0  0  0  0  0  0
    3.1052   -1.2012   -1.6067 H   0  0  0  0  0  0  0  0  0  0  0  0
    1.6125    2.0969   -1.8822 H   0  0  0  0  0  0  0  0  0  0  0  0
    0.5853    3.9409   -3.1026 H   0  0  0  0  0  0  0  0  0  0  0  0
  1 12  1  0  0  0  0
  1 13  1  0  0  0  0
  2 19  1  0  0  0  0
  3 20  1  0  0  0  0
  4 14  1  0  0  0  0
  4 21  1  0  0  0  0
  5 16  2  0  0  0  0
  6  9  1  0  0  0  0
  6 22  1  0  0  0  0
  7 15  1  0  0  0  0
  7 16  1  0  0  0  0
  8 16  1  0  0  0  0
  8 18  2  0  0  0  0
  9 18  1  0  0  0  0
  9 23  1  0  0  0  0
 10  2  1  0  0  0  0
 10 11  1  0  0  0  0
 10 12  1  0  0  0  0
 10 24  1  6  0  0  0
 11  3  1  0  0  0  0
 11 13  1  0  0  0  0
 11 25  1  6  0  0  0
 12 26  1  1  0  0  0
 12  7  1  0  0  0  0
 13 27  1  1  0  0  0
 13 14  1  0  0  0  0
 14 28  1  0  0  0  0
 14 29  1  0  0  0  0
 15 17  2  0  0  0  0
 15 30  1  0  0  0  0
 17 18  1  0  0  0  0
 17 31  1  0  0  0  0
M  END
>  <DRUGBANK_ID>
DB15660

>  <COMMON_NAME>
N4-Hydroxycytidine

>  <CAS_NUMBER>
3258-02-4

>  <UNII>
C3D11PV2O4

>  <SYNONYMS>
4-N-Hydroxycytidine; beta-D-N-4-Hydroxycytidine; Beta-D-N4-hydroxycytidine; N(4)-Hydroxycytidine; NHC; Uridine, 4-oxime; Î²-D-N4-hydroxycytidine

$$$$
