
 OpenBabel10282417133D

 30 30  0  0  0  0  0  0  0  0999 V2000
    0.8136   -0.1027   -0.1139 O   0  0  0  0  0  0  0  0  0  0  0  0
    0.3870   -1.2654   -1.1559 S   0  0  0  0  0  0  0  0  0  0  0  0
    0.8467   -0.8321   -2.4585 O   0  0  0  0  0  0  0  0  0  0  0  0
    0.8271   -2.5107   -0.5761 O   0  0  0  0  0  0  0  0  0  0  0  0
   -1.3994   -1.1316   -1.0756 C   0  0  0  0  0  0  0  0  0  0  0  0
   -1.9460   -1.4362    0.3041 C   0  0  0  0  0  0  0  0  0  0  0  0
   -1.5584   -0.4213    1.2823 N   0  0  0  0  0  0  0  0  0  0  0  0
   -1.9839   -0.7301    2.6470 C   0  0  0  0  0  0  0  0  0  0  0  0
   -1.3962    0.3442    3.5775 C   0  0  0  0  0  0  0  0  0  0  0  0
   -1.7343    0.0545    5.0367 C   0  0  0  0  0  0  0  0  0  0  0  0
   -1.2655   -1.3374    5.4489 C   0  0  0  0  0  0  0  0  0  0  0  0
   -1.8526   -2.4066    4.5421 C   0  0  0  0  0  0  0  0  0  0  0  0
   -1.5276   -2.1293    3.0866 C   0  0  0  0  0  0  0  0  0  0  0  0
    1.7924   -0.0356   -0.1013 H   0  0  0  0  0  0  0  0  0  0  0  0
   -1.7050   -0.1459   -1.4343 H   0  0  0  0  0  0  0  0  0  0  0  0
   -1.7790   -1.8859   -1.7744 H   0  0  0  0  0  0  0  0  0  0  0  0
   -3.0412   -1.4761    0.2625 H   0  0  0  0  0  0  0  0  0  0  0  0
   -1.5919   -2.4333    0.5794 H   0  0  0  0  0  0  0  0  0  0  0  0
   -0.5367   -0.3157    1.2729 H   0  0  0  0  0  0  0  0  0  0  0  0
   -3.0785   -0.6667    2.6921 H   0  0  0  0  0  0  0  0  0  0  0  0
   -0.3032    0.3845    3.4682 H   0  0  0  0  0  0  0  0  0  0  0  0
   -1.7755    1.3372    3.3041 H   0  0  0  0  0  0  0  0  0  0  0  0
   -1.2657    0.8063    5.6803 H   0  0  0  0  0  0  0  0  0  0  0  0
   -2.8188    0.1338    5.1790 H   0  0  0  0  0  0  0  0  0  0  0  0
   -0.1703   -1.3837    5.4024 H   0  0  0  0  0  0  0  0  0  0  0  0
   -1.5569   -1.5387    6.4841 H   0  0  0  0  0  0  0  0  0  0  0  0
   -1.4603   -3.3921    4.8143 H   0  0  0  0  0  0  0  0  0  0  0  0
   -2.9417   -2.4448    4.6645 H   0  0  0  0  0  0  0  0  0  0  0  0
   -2.0260   -2.9052    2.4967 H   0  0  0  0  0  0  0  0  0  0  0  0
   -0.4469   -2.2361    2.9211 H   0  0  0  0  0  0  0  0  0  0  0  0
  1  2  1  0  0  0  0
  1 14  1  0  0  0  0
  2  3  2  0  0  0  0
  2  4  2  0  0  0  0
  2  5  1  0  0  0  0
  5  6  1  0  0  0  0
  5 15  1  0  0  0  0
  5 16  1  0  0  0  0
  6  7  1  0  0  0  0
  6 17  1  0  0  0  0
  6 18  1  0  0  0  0
  7  8  1  0  0  0  0
  7 19  1  0  0  0  0
  8  9  1  0  0  0  0
  8 13  1  0  0  0  0
  8 20  1  0  0  0  0
  9 10  1  0  0  0  0
  9 21  1  0  0  0  0
  9 22  1  0  0  0  0
 10 11  1  0  0  0  0
 10 23  1  0  0  0  0
 10 24  1  0  0  0  0
 11 12  1  0  0  0  0
 11 25  1  0  0  0  0
 11 26  1  0  0  0  0
 12 13  1  0  0  0  0
 12 27  1  0  0  0  0
 12 28  1  0  0  0  0
 13 29  1  0  0  0  0
 13 30  1  0  0  0  0
M  END
>  <DRUGBANK_ID>
DB03309

>  <SECONDARY_ACCESSION_NUMBERS>
EXPT02344

>  <COMMON_NAME>
N-cyclohexyltaurine

>  <CAS_NUMBER>
103-47-9

>  <UNII>
71X53V3RZ1

>  <SYNONYMS>
2-(cyclohexylamino)ethanesulfonic acid; CHES

$$$$
