26987
 OpenBabel10282417103D

 50 52  0  0  1  0  0  0  0  0999 V2000
    6.1570   -3.7525    5.3926 Cl  0  0  0  0  0  0  0  0  0  0  0  0
    2.3545    0.3375    0.0024 O   0  0  0  0  0  0  0  0  0  0  0  0
    4.9293   -2.0080    1.4412 N   0  0  0  0  0  0  0  0  0  0  0  0
    3.9414   -0.7156    2.7913 C   0  0  2  0  0  0  0  0  0  0  0  0
    4.5539   -1.2723    3.7363 C   0  0  0  0  0  0  0  0  0  0  0  0
    5.7750   -2.6629    2.4951 C   0  0  0  0  0  0  0  0  0  0  0  0
    6.2568   -2.4051    1.2185 C   0  0  0  0  0  0  0  0  0  0  0  0
    2.0989   -0.5069    2.7093 C   0  0  0  0  0  0  0  0  0  0  0  0
    1.7832    0.4653    1.4531 C   0  0  0  0  0  0  0  0  0  0  0  0
    4.2015   -2.1170   -0.0622 C   0  0  0  0  0  0  0  0  0  0  0  0
    3.8387    0.3874   -0.1840 C   0  0  1  0  0  0  0  0  0  0  0  0
    4.1186   -0.3342    1.0794 C   0  0  0  0  0  0  0  0  0  0  0  0
    4.7745   -0.2837   -1.6129 C   0  0  0  0  0  0  0  0  0  0  0  0
    4.4059    1.7588   -0.0152 C   0  0  0  0  0  0  0  0  0  0  0  0
    5.7861   -0.1070    1.9954 C   0  0  0  0  0  0  0  0  0  0  0  0
    3.1225   -1.9808    1.7144 C   0  0  0  0  0  0  0  0  0  0  0  0
    4.1808   -0.0655   -2.7911 C   0  0  0  0  0  0  0  0  0  0  0  0
    5.8848   -1.5083   -1.6266 C   0  0  0  0  0  0  0  0  0  0  0  0
    6.4511   -1.1193    3.4755 C   0  0  0  0  0  0  0  0  0  0  0  0
    3.8265   -3.0095    3.1947 C   0  0  0  0  0  0  0  0  0  0  0  0
    4.6591   -0.9253   -3.7922 C   0  0  0  0  0  0  0  0  0  0  0  0
    6.1234   -2.4794   -2.5326 C   0  0  0  0  0  0  0  0  0  0  0  0
    5.4729   -2.6758    4.2745 C   0  0  0  0  0  0  0  0  0  0  0  0
    5.5014   -2.1186   -3.6580 C   0  0  0  0  0  0  0  0  0  0  0  0
    4.1790    0.4069    2.9115 H   0  0  0  0  0  0  0  0  0  0  0  0
    4.9583   -0.5919    4.5466 H   0  0  0  0  0  0  0  0  0  0  0  0
    3.7725   -1.6492    4.5006 H   0  0  0  0  0  0  0  0  0  0  0  0
    6.8686   -2.9340    2.9528 H   0  0  0  0  0  0  0  0  0  0  0  0
    5.5809   -3.8077    2.5686 H   0  0  0  0  0  0  0  0  0  0  0  0
    6.4452   -3.3659    0.7143 H   0  0  0  0  0  0  0  0  0  0  0  0
    7.0528   -1.7052    0.9829 H   0  0  0  0  0  0  0  0  0  0  0  0
    1.7704   -0.4917    3.7468 H   0  0  0  0  0  0  0  0  0  0  0  0
    1.4391   -1.4163    2.4904 H   0  0  0  0  0  0  0  0  0  0  0  0
    2.1312    1.4288    1.7915 H   0  0  0  0  0  0  0  0  0  0  0  0
    0.7070    0.3584    1.2941 H   0  0  0  0  0  0  0  0  0  0  0  0
    4.9628   -1.3473   -0.1081 H   0  0  0  0  0  0  0  0  0  0  0  0
    4.1494   -2.7688   -0.9164 H   0  0  0  0  0  0  0  0  0  0  0  0
    3.2290   -1.6048   -0.3322 H   0  0  0  0  0  0  0  0  0  0  0  0
    4.1121    2.3327   -0.8876 H   0  0  0  0  0  0  0  0  0  0  0  0
    4.0575    2.2195    0.9140 H   0  0  0  0  0  0  0  0  0  0  0  0
    5.4976    1.6771    0.0194 H   0  0  0  0  0  0  0  0  0  0  0  0
    6.5387    0.1754    1.1999 H   0  0  0  0  0  0  0  0  0  0  0  0
    2.2250   -2.1494    1.0980 H   0  0  0  0  0  0  0  0  0  0  0  0
    3.4206    0.6994   -2.8662 H   0  0  0  0  0  0  0  0  0  0  0  0
    6.0608   -2.2293   -0.8011 H   0  0  0  0  0  0  0  0  0  0  0  0
    7.5252   -1.2349    3.1819 H   0  0  0  0  0  0  0  0  0  0  0  0
    2.9508   -3.3583    3.7558 H   0  0  0  0  0  0  0  0  0  0  0  0
    4.4312   -0.6388   -4.8005 H   0  0  0  0  0  0  0  0  0  0  0  0
    6.6065   -3.4225   -2.2218 H   0  0  0  0  0  0  0  0  0  0  0  0
    5.7206   -2.7640   -4.4836 H   0  0  0  0  0  0  0  0  0  0  0  0
  1 23  1  0  0  0  0
  2  9  1  0  0  0  0
  3  4  1  0  0  0  0
  3  7  1  0  0  0  0
  3 10  1  0  0  0  0
  4  5  1  0  0  0  0
  4  8  1  0  0  0  0
  4 25  1  6  0  0  0
  5  6  1  0  0  0  0
  5 26  1  0  0  0  0
  5 27  1  0  0  0  0
  6  7  1  0  0  0  0
  6 28  1  0  0  0  0
  6 29  1  0  0  0  0
  7 30  1  0  0  0  0
  7 31  1  0  0  0  0
  8  9  1  0  0  0  0
  8 32  1  0  0  0  0
  8 33  1  0  0  0  0
  9 34  1  0  0  0  0
  9 35  1  0  0  0  0
 10 36  1  0  0  0  0
 10 37  1  0  0  0  0
 10 38  1  0  0  0  0
 11 13  1  0  0  0  0
 11 14  1  0  0  0  0
 11 12  1  0  0  0  0
 11  2  1  6  0  0  0
 12 15  2  0  0  0  0
 12 16  1  0  0  0  0
 13 17  2  0  0  0  0
 13 18  1  0  0  0  0
 14 39  1  0  0  0  0
 14 40  1  0  0  0  0
 14 41  1  0  0  0  0
 15 19  1  0  0  0  0
 15 42  1  0  0  0  0
 16 20  2  0  0  0  0
 16 43  1  0  0  0  0
 17 21  1  0  0  0  0
 17 44  1  0  0  0  0
 18 22  2  0  0  0  0
 18 45  1  0  0  0  0
 19 23  2  0  0  0  0
 19 46  1  0  0  0  0
 20 23  1  0  0  0  0
 20 47  1  0  0  0  0
 21 24  2  0  0  0  0
 21 48  1  0  0  0  0
 22 24  1  0  0  0  0
 22 49  1  0  0  0  0
 24 50  1  0  0  0  0
M  END
>  <DRUGBANK_ID>
DB00283

>  <SECONDARY_ACCESSION_NUMBERS>
APRD00875

>  <COMMON_NAME>
Clemastine

>  <CAS_NUMBER>
15686-51-8

>  <UNII>
95QN29S1ID

>  <SYNONYMS>
(+)-(2R)-2-(2-(((R)-p-chloro-α-methyl-α-phenylbenzyl)oxy)ethyl)-1-methylpyrrolidine; (+)-(2R)-2-[2-[[(R)-p-chloro-α-methyl-α-phenylbenzyl]oxy]ethyl]-1-methylpyrrolidine; Clemastina; Clemastine; Clemastinum

$$$$
