
 OpenBabel10282417123D

 32 31  0  0  1  0  0  0  0  0999 V2000
    1.4339    2.2601    1.4088 C   0  0  0  0  0  0  0  0  0  0  0  0
   -1.2351    1.2293   -1.7084 C   0  0  0  0  0  0  0  0  0  0  0  0
    0.6855    0.9805    1.4053 C   0  0  2  0  0  0  0  0  0  0  0  0
   -1.4929   -0.7015   -1.8024 C   0  0  1  0  0  0  0  0  0  0  0  0
   -1.3725    2.0570   -0.0341 C   0  0  2  0  0  0  0  0  0  0  0  0
    1.3998   -0.0863    0.4530 C   0  0  1  0  0  0  0  0  0  0  0  0
   -2.9030   -1.1467   -1.1384 C   0  0  0  0  0  0  0  0  0  0  0  0
    0.5366    0.0787   -0.6826 C   0  0  0  0  0  0  0  0  0  0  0  0
   -0.9709   -1.5943   -2.8475 N   0  0  0  0  0  0  0  0  0  0  0  0
    2.7530    0.1145   -0.1050 N   0  0  0  0  0  0  0  0  0  0  0  0
   -1.0765    3.4172    0.1118 O   0  0  0  0  0  0  0  0  0  0  0  0
   -3.7534   -1.8635   -1.6294 O   0  0  0  0  0  0  0  0  0  0  0  0
   -3.0867   -0.5822    0.1043 O   0  0  0  0  0  0  0  0  0  0  0  0
    0.9181    0.1893   -1.7858 O   0  0  0  0  0  0  0  0  0  0  0  0
   -0.6988   -0.1047    0.0291 O   0  0  0  0  0  0  0  0  0  0  0  0
   -0.7774    1.4686    1.2866 O   0  0  0  0  0  0  0  0  0  0  0  0
    0.7711    0.4418    2.3617 H   0  0  0  0  0  0  0  0  0  0  0  0
   -0.8611   -1.3881   -1.1007 H   0  0  0  0  0  0  0  0  0  0  0  0
   -2.4508    1.9757    0.1506 H   0  0  0  0  0  0  0  0  0  0  0  0
    1.1721   -1.1567    0.6116 H   0  0  0  0  0  0  0  0  0  0  0  0
    2.4754    2.1054    1.1815 H   0  0  0  0  0  0  0  0  0  0  0  0
    1.3129    2.6789    2.4011 H   0  0  0  0  0  0  0  0  0  0  0  0
    1.0464    2.9599    0.6712 H   0  0  0  0  0  0  0  0  0  0  0  0
   -1.7420    1.6715   -2.5790 H   0  0  0  0  0  0  0  0  0  0  0  0
   -0.2384    1.7137   -1.9563 H   0  0  0  0  0  0  0  0  0  0  0  0
   -1.1168   -2.5669   -2.5242 H   0  0  0  0  0  0  0  0  0  0  0  0
   -1.5221   -1.4204   -3.6566 H   0  0  0  0  0  0  0  0  0  0  0  0
    2.7439   -0.3452   -1.0381 H   0  0  0  0  0  0  0  0  0  0  0  0
    2.7931    1.0831   -0.4444 H   0  0  0  0  0  0  0  0  0  0  0  0
   -1.0778    3.4554    1.0997 H   0  0  0  0  0  0  0  0  0  0  0  0
   -4.0129   -0.6883    0.4417 H   0  0  0  0  0  0  0  0  0  0  0  0
   -1.6536    0.1808   -0.1301 H   0  0  0  0  0  0  0  0  0  0  0  0
  1 21  1  0  0  0  0
  1 22  1  0  0  0  0
  1 23  1  0  0  0  0
  2 24  1  0  0  0  0
  2 25  1  0  0  0  0
  3 17  1  1  0  0  0
  3  6  1  0  0  0  0
  3  1  1  0  0  0  0
  4  2  1  0  0  0  0
  4  9  1  0  0  0  0
  4 18  1  1  0  0  0
  5 19  1  1  0  0  0
  5 11  1  0  0  0  0
  5  2  1  0  0  0  0
  6 10  1  0  0  0  0
  6 20  1  1  0  0  0
  7  4  1  0  0  0  0
  8  6  1  0  0  0  0
  9 26  1  0  0  0  0
  9 27  1  0  0  0  0
 10 28  1  0  0  0  0
 10 29  1  0  0  0  0
 11 30  1  0  0  0  0
 12  7  2  0  0  0  0
 13  7  1  0  0  0  0
 13 31  1  0  0  0  0
 14  8  2  0  0  0  0
 15  8  1  0  0  0  0
 15 32  1  0  0  0  0
 16  3  1  0  0  0  0
 16  5  1  0  0  0  0
M  END
>  <DRUGBANK_ID>
DB01817

>  <SECONDARY_ACCESSION_NUMBERS>
EXPT00445

>  <COMMON_NAME>
Threonine-Aspartic Ester

$$$$
