
 OpenBabel10282417143D

 12 11  0  0  0  0  0  0  0  0999 V2000
    1.1608    0.0750    0.0630 C   0  0  0  0  0  0  0  0  0  0  0  0
    0.1655   -0.3268    1.0881 C   0  0  0  0  0  0  0  0  0  0  0  0
    0.7361    0.5371   -1.1158 O   0  0  0  0  0  0  0  0  0  0  0  0
    2.3554   -0.0223    0.3114 O   0  0  0  0  0  0  0  0  0  0  0  0
   -1.1804   -0.3468    1.1392 C   0  0  0  0  0  0  0  0  0  0  0  0
   -2.0705    0.0805    0.0491 C   0  0  0  0  0  0  0  0  0  0  0  0
   -3.3835   -0.0146    0.2917 O   0  0  0  0  0  0  0  0  0  0  0  0
   -1.6543    0.5001   -1.0215 O   0  0  0  0  0  0  0  0  0  0  0  0
    0.6996   -0.6751    1.9768 H   0  0  0  0  0  0  0  0  0  0  0  0
   -0.2376    0.5913   -1.2543 H   0  0  0  0  0  0  0  0  0  0  0  0
   -1.6487   -0.7044    2.0517 H   0  0  0  0  0  0  0  0  0  0  0  0
   -3.6901   -0.3513    1.1506 H   0  0  0  0  0  0  0  0  0  0  0  0
  1  2  1  0  0  0  0
  1  3  1  0  0  0  0
  1  4  2  0  0  0  0
  2  5  2  0  0  0  0
  2  9  1  0  0  0  0
  3 10  1  0  0  0  0
  5  6  1  0  0  0  0
  5 11  1  0  0  0  0
  6  7  1  0  0  0  0
  6  8  2  0  0  0  0
  7 12  1  0  0  0  0
M  END
>  <DRUGBANK_ID>
DB04299

>  <SECONDARY_ACCESSION_NUMBERS>
EXPT02106

>  <COMMON_NAME>
Maleic acid

>  <CAS_NUMBER>
110-16-7

>  <UNII>
91XW058U2C

>  <SYNONYMS>
(Z)-2-butenedioic acid; (Z)-butenedioic acid; cis-1,2-ethylenedicarboxylic acid; cis-but-2-enedioic acid; cis-Butenedioic acid; Maleic acid; Toxilic acid

$$$$
