
 OpenBabel10282417183D

 45 46  0  0  0  0  0  0  0  0999 V2000
    2.5797   -0.0063   -0.2805 C   0  0  0  0  0  0  0  0  0  0  0  0
    1.1374   -0.0072    0.1786 C   0  0  3  0  0  0  0  0  0  0  0  0
    0.3719    1.2790   -0.2436 C   0  0  0  0  0  0  0  0  0  0  0  0
   -1.1563    1.3402    0.0090 C   0  0  0  0  0  0  0  0  0  0  0  0
   -1.8627    0.0200   -0.3065 C   0  0  3  0  0  0  0  0  0  0  0  0
   -1.0790   -1.1494    0.3338 C   0  0  3  0  0  0  0  0  0  0  0  0
    0.3526   -1.2446   -0.2053 C   0  0  0  0  0  0  0  0  0  0  0  0
   -1.1436   -1.1398    1.8054 O   0  0  0  0  0  0  0  0  0  0  0  0
   -0.6642   -0.1468    2.5948 C   0  0  0  0  0  0  0  0  0  0  0  0
   -0.0492    0.8877    2.3302 O   0  0  0  0  0  0  0  0  0  0  0  0
   -0.9132   -0.2825    4.0000 C   0  0  0  0  0  0  0  0  0  0  0  0
   -1.2443    0.9252    4.6534 C   0  0  0  0  0  0  0  0  0  0  0  0
   -1.2663    0.9740    6.0284 C   0  0  0  0  0  0  0  0  0  0  0  0
   -0.9490   -0.1825    6.7318 C   0  0  0  0  0  0  0  0  0  0  0  0
   -0.5795   -1.3675    6.0637 C   0  0  0  0  0  0  0  0  0  0  0  0
   -0.5632   -1.4492    4.6734 C   0  0  0  0  0  0  0  0  0  0  0  0
    0.0737   -2.5195    4.0306 N   0  0  0  0  0  0  0  0  0  0  0  0
   -3.3504    0.0289    0.1466 C   0  0  0  0  0  0  0  0  0  0  0  0
   -4.0887    1.2725   -0.3555 C   0  0  0  0  0  0  0  0  0  0  0  0
   -4.0909   -1.2191   -0.3494 C   0  0  0  0  0  0  0  0  0  0  0  0
    3.0937   -0.8874    0.1227 H   0  0  0  0  0  0  0  0  0  0  0  0
    2.6606   -0.0035   -1.3653 H   0  0  0  0  0  0  0  0  0  0  0  0
    3.0847    0.8753    0.1324 H   0  0  0  0  0  0  0  0  0  0  0  0
    1.3052   -0.0900    1.2492 H   0  0  0  0  0  0  0  0  0  0  0  0
    0.8340    2.1529    0.2304 H   0  0  0  0  0  0  0  0  0  0  0  0
    0.4986    1.3963   -1.3240 H   0  0  0  0  0  0  0  0  0  0  0  0
   -1.4350    1.6368    1.0246 H   0  0  0  0  0  0  0  0  0  0  0  0
   -1.5605    2.1733   -0.5727 H   0  0  0  0  0  0  0  0  0  0  0  0
   -1.8419   -0.0924   -1.4008 H   0  0  0  0  0  0  0  0  0  0  0  0
   -1.5548   -2.0895    0.0264 H   0  0  0  0  0  0  0  0  0  0  0  0
    0.3432   -1.3499   -1.2981 H   0  0  0  0  0  0  0  0  0  0  0  0
    0.8347   -2.1402    0.2047 H   0  0  0  0  0  0  0  0  0  0  0  0
   -1.3918    1.8393    4.0734 H   0  0  0  0  0  0  0  0  0  0  0  0
   -1.4887    1.9102    6.5319 H   0  0  0  0  0  0  0  0  0  0  0  0
   -0.9515   -0.1551    7.8163 H   0  0  0  0  0  0  0  0  0  0  0  0
   -0.2630   -2.2220    6.6522 H   0  0  0  0  0  0  0  0  0  0  0  0
   -0.1174   -2.5979    3.0309 H   0  0  0  0  0  0  0  0  0  0  0  0
    0.0695   -3.4088    4.5132 H   0  0  0  0  0  0  0  0  0  0  0  0
   -3.3954    0.0351    1.2431 H   0  0  0  0  0  0  0  0  0  0  0  0
   -4.0622    1.3234   -1.4490 H   0  0  0  0  0  0  0  0  0  0  0  0
   -5.1335    1.2643   -0.0317 H   0  0  0  0  0  0  0  0  0  0  0  0
   -3.6465    2.1911    0.0410 H   0  0  0  0  0  0  0  0  0  0  0  0
   -3.6510   -2.1409    0.0406 H   0  0  0  0  0  0  0  0  0  0  0  0
   -5.1359   -1.2065   -0.0237 H   0  0  0  0  0  0  0  0  0  0  0  0
   -4.0739   -1.2717   -1.4435 H   0  0  0  0  0  0  0  0  0  0  0  0
  1  2  1  0  0  0  0
  1 21  1  0  0  0  0
  1 22  1  0  0  0  0
  1 23  1  0  0  0  0
  2  3  1  0  0  0  0
  2  7  1  0  0  0  0
  2 24  1  0  0  0  0
  3  4  1  0  0  0  0
  3 25  1  0  0  0  0
  3 26  1  0  0  0  0
  4  5  1  0  0  0  0
  4 27  1  0  0  0  0
  4 28  1  0  0  0  0
  5  6  1  0  0  0  0
  5 18  1  0  0  0  0
  5 29  1  0  0  0  0
  6  7  1  0  0  0  0
  6  8  1  0  0  0  0
  6 30  1  0  0  0  0
  7 31  1  0  0  0  0
  7 32  1  0  0  0  0
  8  9  1  0  0  0  0
  9 10  2  0  0  0  0
  9 11  1  0  0  0  0
 11 12  2  0  0  0  0
 11 16  1  0  0  0  0
 12 13  1  0  0  0  0
 12 33  1  0  0  0  0
 13 14  2  0  0  0  0
 13 34  1  0  0  0  0
 14 15  1  0  0  0  0
 14 35  1  0  0  0  0
 15 16  2  0  0  0  0
 15 36  1  0  0  0  0
 16 17  1  0  0  0  0
 17 37  1  0  0  0  0
 17 38  1  0  0  0  0
 18 19  1  0  0  0  0
 18 20  1  0  0  0  0
 18 39  1  0  0  0  0
 19 40  1  0  0  0  0
 19 41  1  0  0  0  0
 19 42  1  0  0  0  0
 20 43  1  0  0  0  0
 20 44  1  0  0  0  0
 20 45  1  0  0  0  0
M  END
>  <DRUGBANK_ID>
DB11096

>  <COMMON_NAME>
Meradimate

>  <CAS_NUMBER>
134-09-8

>  <UNII>
J9QGD60OUZ

>  <SYNONYMS>
Menthyl anthranilate; Menthyl-O-aminobenzoate; Meradimate

$$$$
