
 OpenBabel10282417223D

 54 54  0  0  1  0  0  0  0  0999 V2000
   -2.1995    1.5410   -0.7241 O   0  0  0  0  0  0  0  0  0  0  0  0
   -0.9864    2.5721   -0.0470 P   0  0  0  0  0  0  0  0  0  0  0  0
   -0.3714    1.2624    0.6697 O   0  0  0  0  0  0  0  0  0  0  0  0
   -0.2975    2.4980   -1.4070 O   0  0  0  0  0  0  0  0  0  0  0  0
    0.2266    3.6031    0.6301 O   0  0  0  0  0  0  0  0  0  0  0  0
    0.0153    3.0394    2.5493 C   0  0  1  0  0  0  0  0  0  0  0  0
    1.5572    4.0036    3.5222 C   0  0  2  0  0  0  0  0  0  0  0  0
    1.5078    5.3869    4.9860 O   0  0  0  0  0  0  0  0  0  0  0  0
   -0.4688    6.1458    5.6478 P   0  0  0  0  0  0  0  0  0  0  0  0
   -1.6825    4.2909    5.1677 O   0  0  0  0  0  0  0  0  0  0  0  0
    1.3964    5.6569    6.2011 O   0  0  0  0  0  0  0  0  0  0  0  0
   -1.7865    6.0869    6.5466 O   0  0  0  0  0  0  0  0  0  0  0  0
    1.6169    5.9616    3.0577 C   0  0  1  0  0  0  0  0  0  0  0  0
    1.8859    5.6190    0.9376 O   0  0  0  0  0  0  0  0  0  0  0  0
    3.5727    5.4588    0.5885 P   0  0  0  0  0  0  0  0  0  0  0  0
    3.7492    3.9458    1.2914 O   0  0  0  0  0  0  0  0  0  0  0  0
    3.1408    5.2260   -0.9622 O   0  0  0  0  0  0  0  0  0  0  0  0
    5.0824    5.3154    0.2760 O   0  0  0  0  0  0  0  0  0  0  0  0
   -0.0712    6.6068    2.9573 C   0  0  2  0  0  0  0  0  0  0  0  0
    0.4224    6.3550    4.1813 O   0  0  0  0  0  0  0  0  0  0  0  0
    0.0920    4.7282    4.6683 P   0  0  0  0  0  0  0  0  0  0  0  0
   -0.0409    4.7681    6.7919 O   0  0  0  0  0  0  0  0  0  0  0  0
   -1.7921    5.6992    4.2188 O   0  0  0  0  0  0  0  0  0  0  0  0
   -0.2037    3.2722    5.1042 O   0  0  0  0  0  0  0  0  0  0  0  0
   -1.1510    6.0040    2.0664 C   0  0  1  0  0  0  0  0  0  0  0  0
   -0.6358    6.0808    0.7176 O   0  0  0  0  0  0  0  0  0  0  0  0
    0.8644    5.5447    1.3921 P   0  0  0  0  0  0  0  0  0  0  0  0
    1.3923    7.5264    2.0739 O   0  0  0  0  0  0  0  0  0  0  0  0
    0.2584    4.5995    2.1635 O   0  0  0  0  0  0  0  0  0  0  0  0
    2.2070    5.0648    1.9958 O   0  0  0  0  0  0  0  0  0  0  0  0
   -1.4103    4.5030    2.5237 C   0  0  1  0  0  0  0  0  0  0  0  0
   -2.1804    4.0790    1.7378 O   0  0  0  0  0  0  0  0  0  0  0  0
   -1.8863    4.2422    0.0409 P   0  0  0  0  0  0  0  0  0  0  0  0
   -2.7093    5.6483    0.1803 O   0  0  0  0  0  0  0  0  0  0  0  0
   -0.5155    4.8391   -0.5546 O   0  0  0  0  0  0  0  0  0  0  0  0
   -1.6230    4.3883   -1.4779 O   0  0  0  0  0  0  0  0  0  0  0  0
   -2.1075    1.6124   -1.7060 H   0  0  0  0  0  0  0  0  0  0  0  0
   -0.7744    0.9311    1.4915 H   0  0  0  0  0  0  0  0  0  0  0  0
   -0.0691    1.9955    2.4420 H   0  0  0  0  0  0  0  0  0  0  0  0
    2.2964    3.4191    2.7337 H   0  0  0  0  0  0  0  0  0  0  0  0
   -1.8636    3.6104    4.1211 H   0  0  0  0  0  0  0  0  0  0  0  0
    1.5418    4.5549    6.0778 H   0  0  0  0  0  0  0  0  0  0  0  0
    2.7055    6.3004    3.2624 H   0  0  0  0  0  0  0  0  0  0  0  0
    3.8747    4.1975    2.2453 H   0  0  0  0  0  0  0  0  0  0  0  0
    2.2207    5.4010   -1.2173 H   0  0  0  0  0  0  0  0  0  0  0  0
   -0.1291    7.2803    1.8627 H   0  0  0  0  0  0  0  0  0  0  0  0
    0.7762    5.3574    7.0909 H   0  0  0  0  0  0  0  0  0  0  0  0
   -2.3163    5.9783    3.4548 H   0  0  0  0  0  0  0  0  0  0  0  0
   -1.8226    6.8120    2.2481 H   0  0  0  0  0  0  0  0  0  0  0  0
    1.6959    7.7193    3.0867 H   0  0  0  0  0  0  0  0  0  0  0  0
   -0.3087    4.0259    1.4661 H   0  0  0  0  0  0  0  0  0  0  0  0
   -0.9840    4.4865    3.3539 H   0  0  0  0  0  0  0  0  0  0  0  0
   -3.5818    5.7885   -0.2026 H   0  0  0  0  0  0  0  0  0  0  0  0
   -0.1942    4.7747    0.2813 H   0  0  0  0  0  0  0  0  0  0  0  0
  1  2  1  0  0  0  0
  1 37  1  0  0  0  0
  2  3  1  0  0  0  0
  2  4  2  0  0  0  0
  2  5  1  0  0  0  0
  3 38  1  0  0  0  0
  6  7  1  0  0  0  0
  6 31  1  0  0  0  0
  6 39  1  1  0  0  0
  6  5  1  0  0  0  0
  7  8  1  0  0  0  0
  7 13  1  0  0  0  0
  7 40  1  6  0  0  0
  8  9  1  0  0  0  0
  9 10  1  0  0  0  0
  9 11  1  0  0  0  0
  9 12  2  0  0  0  0
 10 41  1  0  0  0  0
 11 42  1  0  0  0  0
 13 19  1  0  0  0  0
 13 43  1  1  0  0  0
 13 14  1  0  0  0  0
 14 15  1  0  0  0  0
 15 16  1  0  0  0  0
 15 17  1  0  0  0  0
 15 18  2  0  0  0  0
 16 44  1  0  0  0  0
 17 45  1  0  0  0  0
 19 20  1  0  0  0  0
 19 46  1  6  0  0  0
 20 21  1  0  0  0  0
 21 22  1  0  0  0  0
 21 23  1  0  0  0  0
 21 24  2  0  0  0  0
 22 47  1  0  0  0  0
 23 48  1  0  0  0  0
 25 19  1  0  0  0  0
 25 49  1  1  0  0  0
 25 26  1  0  0  0  0
 26 27  1  0  0  0  0
 27 28  1  0  0  0  0
 27 29  1  0  0  0  0
 27 30  2  0  0  0  0
 28 50  1  0  0  0  0
 29 51  1  0  0  0  0
 31 25  1  0  0  0  0
 31 32  1  0  0  0  0
 31 52  1  1  0  0  0
 32 33  1  0  0  0  0
 33 34  1  0  0  0  0
 33 35  1  0  0  0  0
 33 36  2  0  0  0  0
 34 53  1  0  0  0  0
 35 54  1  0  0  0  0
M  END
>  <DRUGBANK_ID>
DB14981

>  <COMMON_NAME>
Phytic acid

>  <CAS_NUMBER>
83-86-3

>  <UNII>
7IGF0S7R8I

>  <SYNONYMS>
1D-myo-Inositol 1,2,3,4,5,6-hexakisphosphate; 1D-myo-Inositol hexakisphosphate; Acide fytique; Acido fitico; Acidum fyticum; D-myo-Inositol 1,2,3,4,5,6-hexakisphosphate; Fytic acid; Inosithexaphosphorsäure; Inositol hexaphosphate; myo-inositol 1,2,3,4,5,6-hexakisphosphate; myo-Inositol hexakisphosphate; Phytate; Phytine; Säure des phytins

$$$$
