
 OpenBabel10282417173D

146149  0  0  0  0  0  0  0  0999 V2000
  -10.5165    1.9855    3.8169 C   0  0  0  0  0  0  0  0  0  0  0  0
  -10.8344    0.2465    6.2147 C   0  0  0  0  0  0  0  0  0  0  0  0
   -9.8250    1.0748    5.3196 C   0  0  1  0  0  0  0  0  0  0  0  0
  -16.3868   -0.6550    7.9606 C   0  0  2  0  0  0  0  0  0  0  0  0
  -15.2977   -0.3791    8.9110 C   0  0  0  0  0  0  0  0  0  0  0  0
  -15.2150   -0.5682   10.3733 C   0  0  0  0  0  0  0  0  0  0  0  0
  -14.4252    1.8562    6.5307 C   0  0  0  0  0  0  0  0  0  0  0  0
  -15.9188    2.0150    7.3927 C   0  0  0  0  0  0  0  0  0  0  0  0
  -16.7251    0.8482    7.7336 O   0  0  0  0  0  0  0  0  0  0  0  0
  -14.1710   -1.1210   11.0073 C   0  0  0  0  0  0  0  0  0  0  0  0
  -13.4184   -2.3144   10.5030 C   0  0  0  0  0  0  0  0  0  0  0  0
  -11.6705    3.2937    3.9078 C   0  0  0  0  0  0  0  0  0  0  0  0
  -12.7349    3.4608    4.7687 C   0  0  0  0  0  0  0  0  0  0  0  0
  -13.8868    3.0350    5.8909 C   0  0  0  0  0  0  0  0  0  0  0  0
  -13.4275   -3.0277    9.3524 C   0  0  0  0  0  0  0  0  0  0  0  0
  -13.4325   -2.3075    7.9664 C   0  0  1  0  0  0  0  0  0  0  0  0
  -12.4217   -0.7264    8.0519 C   0  0  2  0  0  0  0  0  0  0  0  0
  -11.0391   -0.6161    7.2884 C   0  0  0  0  0  0  0  0  0  0  0  0
   -9.0327   -0.0954    5.4074 O   0  0  0  0  0  0  0  0  0  0  0  0
  -11.6520   -0.0770    5.0729 C   0  0  0  0  0  0  0  0  0  0  0  0
  -12.5298    0.5658    9.1834 C   0  0  0  0  0  0  0  0  0  0  0  0
  -13.1015   -4.4783    9.4510 C   0  0  0  0  0  0  0  0  0  0  0  0
  -13.6874   -0.3799   12.1933 C   0  0  0  0  0  0  0  0  0  0  0  0
  -17.2432   -1.7135    8.6552 C   0  0  2  0  0  0  0  0  0  0  0  0
  -17.3881   -2.9606    7.9708 O   0  0  0  0  0  0  0  0  0  0  0  0
  -18.4167   -0.9821    9.1630 C   0  0  0  0  0  0  0  0  0  0  0  0
  -16.4378    3.1368    7.4345 O   0  0  0  0  0  0  0  0  0  0  0  0
  -14.2817    0.2058    6.2434 C   0  0  0  0  0  0  0  0  0  0  0  0
  -14.6894   -0.7521    5.3624 O   0  0  0  0  0  0  0  0  0  0  0  0
  -15.7416   -0.7330    4.5237 C   0  0  2  0  0  0  0  0  0  0  0  0
  -15.0377   -0.1369    3.4412 O   0  0  0  0  0  0  0  0  0  0  0  0
  -14.8548    1.2669    3.2040 C   0  0  1  0  0  0  0  0  0  0  0  0
  -16.0945    2.0941    3.4493 C   0  0  2  0  0  0  0  0  0  0  0  0
  -17.0554    1.4414    4.4415 C   0  0  1  0  0  0  0  0  0  0  0  0
  -17.2105   -0.0816    4.5951 C   0  0  2  0  0  0  0  0  0  0  0  0
  -13.5065    1.2003    3.6483 C   0  0  0  0  0  0  0  0  0  0  0  0
  -16.2041    1.4052    5.4621 O   0  0  0  0  0  0  0  0  0  0  0  0
  -17.9014   -0.5490    5.7423 O   0  0  0  0  0  0  0  0  0  0  0  0
  -19.1299    0.1230    5.8924 C   0  0  0  0  0  0  0  0  0  0  0  0
  -16.8088    2.2616    2.2123 O   0  0  0  0  0  0  0  0  0  0  0  0
  -16.6063    1.6030    1.0572 C   0  0  0  0  0  0  0  0  0  0  0  0
  -15.4396    0.7313    0.6340 C   0  0  0  0  0  0  0  0  0  0  0  0
  -15.2376   -0.5616    1.1578 C   0  0  0  0  0  0  0  0  0  0  0  0
  -13.8733   -1.0411    1.2418 C   0  0  0  0  0  0  0  0  0  0  0  0
  -12.8433   -0.4167    0.5360 C   0  0  0  0  0  0  0  0  0  0  0  0
  -13.1961    0.6334   -0.3051 C   0  0  0  0  0  0  0  0  0  0  0  0
  -14.4623    1.2466   -0.2032 C   0  0  0  0  0  0  0  0  0  0  0  0
  -17.4991    1.7853    0.1271 O   0  0  0  0  0  0  0  0  0  0  0  0
  -16.4719   -1.0419    1.9017 C   0  0  0  0  0  0  0  0  0  0  0  0
  -16.5095   -2.3892    2.5951 C   0  0  0  0  0  0  0  0  0  0  0  0
  -13.3261   -2.2877    2.2984 Cl  0  0  0  0  0  0  0  0  0  0  0  0
  -11.5278   -0.8254    0.6277 O   0  0  0  0  0  0  0  0  0  0  0  0
  -12.1253    1.0677   -1.5827 Cl  0  0  0  0  0  0  0  0  0  0  0  0
  -14.7847    2.3357   -0.9620 O   0  0  0  0  0  0  0  0  0  0  0  0
  -13.6957   -3.0473    6.7223 O   0  0  0  0  0  0  0  0  0  0  0  0
  -12.5178   -3.2993    6.0318 C   0  0  1  0  0  0  0  0  0  0  0  0
  -13.6369    1.7818    9.3226 C   0  0  0  0  0  0  0  0  0  0  0  0
  -11.7524   -4.1159    6.9953 C   0  0  2  0  0  0  0  0  0  0  0  0
  -10.3049   -4.2764    6.8515 C   0  0  2  0  0  0  0  0  0  0  0  0
  -10.1921   -4.9000    5.4949 C   0  0  1  0  0  0  0  0  0  0  0  0
  -11.1512   -4.1996    4.4181 C   0  0  0  0  0  0  0  0  0  0  0  0
  -12.5277   -4.0064    4.7983 O   0  0  0  0  0  0  0  0  0  0  0  0
  -10.6238   -2.8383    4.1352 C   0  0  0  0  0  0  0  0  0  0  0  0
  -11.0419   -4.9683    3.1244 C   0  0  0  0  0  0  0  0  0  0  0  0
   -8.7826   -5.0216    5.1500 O   0  0  0  0  0  0  0  0  0  0  0  0
   -7.7801   -4.1186    5.0306 C   0  0  0  0  0  0  0  0  0  0  0  0
   -8.0155   -2.6288    5.2297 C   0  0  0  0  0  0  0  0  0  0  0  0
   -7.2119   -2.0463    6.3861 C   0  0  0  0  0  0  0  0  0  0  0  0
  -12.3849   -5.4015    6.8915 O   0  0  0  0  0  0  0  0  0  0  0  0
   -9.8374   -5.0760    7.9445 O   0  0  0  0  0  0  0  0  0  0  0  0
   -6.6631   -4.5203    4.7237 O   0  0  0  0  0  0  0  0  0  0  0  0
   -7.9048   -1.8541    3.8709 C   0  0  0  0  0  0  0  0  0  0  0  0
  -12.1698   -2.3205    5.8599 H   0  0  0  0  0  0  0  0  0  0  0  0
  -10.8551    1.1953    3.1314 H   0  0  0  0  0  0  0  0  0  0  0  0
   -9.8932    2.2992    2.9479 H   0  0  0  0  0  0  0  0  0  0  0  0
   -8.9422    1.6681    5.4915 H   0  0  0  0  0  0  0  0  0  0  0  0
  -16.1902   -1.1226    6.9946 H   0  0  0  0  0  0  0  0  0  0  0  0
  -14.4633   -0.9235    8.7123 H   0  0  0  0  0  0  0  0  0  0  0  0
  -14.8248    0.4254    8.4368 H   0  0  0  0  0  0  0  0  0  0  0  0
  -15.6410   -1.5338   10.2815 H   0  0  0  0  0  0  0  0  0  0  0  0
  -12.6163   -1.6403   10.2178 H   0  0  0  0  0  0  0  0  0  0  0  0
  -11.6689    4.0135    3.0520 H   0  0  0  0  0  0  0  0  0  0  0  0
  -12.1970    2.6549    5.2476 H   0  0  0  0  0  0  0  0  0  0  0  0
  -14.6074    3.8725    5.8482 H   0  0  0  0  0  0  0  0  0  0  0  0
  -14.5254   -2.2531    7.9538 H   0  0  0  0  0  0  0  0  0  0  0  0
  -12.8944    0.0220    7.5307 H   0  0  0  0  0  0  0  0  0  0  0  0
  -10.2866   -1.0684    7.9192 H   0  0  0  0  0  0  0  0  0  0  0  0
   -8.9393   -0.2485    6.3847 H   0  0  0  0  0  0  0  0  0  0  0  0
  -12.3059   -0.9168    4.9463 H   0  0  0  0  0  0  0  0  0  0  0  0
  -12.1199    0.8560    5.2867 H   0  0  0  0  0  0  0  0  0  0  0  0
  -11.2404   -0.1154    4.0821 H   0  0  0  0  0  0  0  0  0  0  0  0
  -12.3173    0.1844   10.1562 H   0  0  0  0  0  0  0  0  0  0  0  0
  -11.6528    1.1685    8.9376 H   0  0  0  0  0  0  0  0  0  0  0  0
  -13.8559   -5.0249    8.8808 H   0  0  0  0  0  0  0  0  0  0  0  0
  -12.0927   -4.6919    9.1069 H   0  0  0  0  0  0  0  0  0  0  0  0
  -12.9777   -4.8749   10.4506 H   0  0  0  0  0  0  0  0  0  0  0  0
  -14.0986   -0.8590   13.0779 H   0  0  0  0  0  0  0  0  0  0  0  0
  -12.5977   -0.3533   12.2234 H   0  0  0  0  0  0  0  0  0  0  0  0
  -14.0395    0.6591   12.1459 H   0  0  0  0  0  0  0  0  0  0  0  0
  -16.8311   -2.1744    9.5337 H   0  0  0  0  0  0  0  0  0  0  0  0
  -16.8994   -3.6381    8.4993 H   0  0  0  0  0  0  0  0  0  0  0  0
  -18.4957   -1.1794   10.2307 H   0  0  0  0  0  0  0  0  0  0  0  0
  -18.2418    0.0980    9.1233 H   0  0  0  0  0  0  0  0  0  0  0  0
  -19.2692   -1.2602    8.5688 H   0  0  0  0  0  0  0  0  0  0  0  0
  -13.3017   -0.0351    6.0978 H   0  0  0  0  0  0  0  0  0  0  0  0
  -14.5391   -0.4364    7.0034 H   0  0  0  0  0  0  0  0  0  0  0  0
  -15.8411   -1.8177    4.6006 H   0  0  0  0  0  0  0  0  0  0  0  0
  -14.4808    1.7158    2.2891 H   0  0  0  0  0  0  0  0  0  0  0  0
  -15.8222    3.0978    3.8350 H   0  0  0  0  0  0  0  0  0  0  0  0
  -17.7427    2.1569    4.8848 H   0  0  0  0  0  0  0  0  0  0  0  0
  -17.8702   -0.3885    3.7968 H   0  0  0  0  0  0  0  0  0  0  0  0
  -12.7268    0.9400    2.9571 H   0  0  0  0  0  0  0  0  0  0  0  0
  -13.4089    1.6497    4.5503 H   0  0  0  0  0  0  0  0  0  0  0  0
  -13.4181    0.2948    4.1652 H   0  0  0  0  0  0  0  0  0  0  0  0
  -15.3966    1.0686    5.0633 H   0  0  0  0  0  0  0  0  0  0  0  0
  -19.1206    1.1224    5.4744 H   0  0  0  0  0  0  0  0  0  0  0  0
  -19.8877   -0.4438    5.3623 H   0  0  0  0  0  0  0  0  0  0  0  0
  -19.3337    0.2462    6.9500 H   0  0  0  0  0  0  0  0  0  0  0  0
  -16.5797   -0.2458    2.5984 H   0  0  0  0  0  0  0  0  0  0  0  0
  -17.4531   -0.7092    1.5711 H   0  0  0  0  0  0  0  0  0  0  0  0
  -15.5498   -2.7600    2.9632 H   0  0  0  0  0  0  0  0  0  0  0  0
  -17.1683   -2.4243    3.4800 H   0  0  0  0  0  0  0  0  0  0  0  0
  -16.9162   -3.0765    1.8893 H   0  0  0  0  0  0  0  0  0  0  0  0
  -11.4425   -1.5415    1.2883 H   0  0  0  0  0  0  0  0  0  0  0  0
  -15.7533    2.4796   -0.8978 H   0  0  0  0  0  0  0  0  0  0  0  0
  -14.7323    1.6738    9.3767 H   0  0  0  0  0  0  0  0  0  0  0  0
  -13.5949    2.2484   10.2990 H   0  0  0  0  0  0  0  0  0  0  0  0
  -13.5173    2.5323    8.5427 H   0  0  0  0  0  0  0  0  0  0  0  0
  -11.7352   -3.5334    7.8981 H   0  0  0  0  0  0  0  0  0  0  0  0
   -9.8389   -3.3107    7.0198 H   0  0  0  0  0  0  0  0  0  0  0  0
  -10.5512   -5.9357    5.6007 H   0  0  0  0  0  0  0  0  0  0  0  0
   -9.6793   -3.1160    3.7643 H   0  0  0  0  0  0  0  0  0  0  0  0
  -11.0519   -2.1782    3.3999 H   0  0  0  0  0  0  0  0  0  0  0  0
  -10.5633   -2.2451    5.0369 H   0  0  0  0  0  0  0  0  0  0  0  0
  -11.5996   -5.8985    3.1924 H   0  0  0  0  0  0  0  0  0  0  0  0
  -11.4328   -4.3724    2.2981 H   0  0  0  0  0  0  0  0  0  0  0  0
   -9.9879   -5.1750    2.9065 H   0  0  0  0  0  0  0  0  0  0  0  0
   -8.9873   -2.5164    5.6544 H   0  0  0  0  0  0  0  0  0  0  0  0
   -6.1512   -2.1917    6.2418 H   0  0  0  0  0  0  0  0  0  0  0  0
   -7.3386   -0.9726    6.5186 H   0  0  0  0  0  0  0  0  0  0  0  0
   -7.5546   -2.4866    7.3342 H   0  0  0  0  0  0  0  0  0  0  0  0
  -12.6366   -5.8096    7.7190 H   0  0  0  0  0  0  0  0  0  0  0  0
   -8.8675   -5.0400    7.9476 H   0  0  0  0  0  0  0  0  0  0  0  0
   -8.4211   -2.2848    3.0054 H   0  0  0  0  0  0  0  0  0  0  0  0
   -8.3456   -0.8638    3.8479 H   0  0  0  0  0  0  0  0  0  0  0  0
   -6.8799   -1.7393    3.5633 H   0  0  0  0  0  0  0  0  0  0  0  0
  1  3  1  0  0  0  0
  1 12  1  0  0  0  0
  1 74  1  0  0  0  0
  1 75  1  0  0  0  0
  2 20  1  0  0  0  0
  2  3  1  0  0  0  0
  3 76  1  1  0  0  0
  3 19  1  0  0  0  0
  4  9  1  0  0  0  0
  4  5  1  0  0  0  0
  4 77  1  6  0  0  0
  4 24  1  0  0  0  0
  5  6  1  0  0  0  0
  5 78  1  0  0  0  0
  5 79  1  0  0  0  0
  6 10  2  0  0  0  0
  6 80  1  0  0  0  0
  7  8  1  0  0  0  0
  7 28  1  0  0  0  0
  8  9  1  0  0  0  0
  8 27  2  0  0  0  0
 10 23  1  0  0  0  0
 10 11  1  0  0  0  0
 11 15  2  0  0  0  0
 11 81  1  0  0  0  0
 12 13  2  0  0  0  0
 12 82  1  0  0  0  0
 13 14  1  0  0  0  0
 13 83  1  0  0  0  0
 14  7  2  0  0  0  0
 14 84  1  0  0  0  0
 15 22  1  0  0  0  0
 15 16  1  0  0  0  0
 16 17  1  0  0  0  0
 16 85  1  1  0  0  0
 16 55  1  0  0  0  0
 17 18  1  0  0  0  0
 17 86  1  6  0  0  0
 17 21  1  0  0  0  0
 18  2  2  0  0  0  0
 18 87  1  0  0  0  0
 19 88  1  0  0  0  0
 20 89  1  0  0  0  0
 20 90  1  0  0  0  0
 20 91  1  0  0  0  0
 21 57  1  0  0  0  0
 21 92  1  0  0  0  0
 21 93  1  0  0  0  0
 22 94  1  0  0  0  0
 22 95  1  0  0  0  0
 22 96  1  0  0  0  0
 23 97  1  0  0  0  0
 23 98  1  0  0  0  0
 23 99  1  0  0  0  0
 24100  1  1  0  0  0
 24 26  1  0  0  0  0
 24 25  1  0  0  0  0
 25101  1  0  0  0  0
 26102  1  0  0  0  0
 26103  1  0  0  0  0
 26104  1  0  0  0  0
 28 29  1  0  0  0  0
 28105  1  0  0  0  0
 28106  1  0  0  0  0
 30 29  1  0  0  0  0
 30 31  1  0  0  0  0
 30 35  1  0  0  0  0
 30107  1  6  0  0  0
 31 32  1  0  0  0  0
 32 36  1  0  0  0  0
 32 33  1  0  0  0  0
 32108  1  6  0  0  0
 33 34  1  0  0  0  0
 33109  1  1  0  0  0
 33 40  1  0  0  0  0
 34 37  1  0  0  0  0
 34 35  1  0  0  0  0
 34110  1  1  0  0  0
 35111  1  6  0  0  0
 35 38  1  0  0  0  0
 36112  1  0  0  0  0
 36113  1  0  0  0  0
 36114  1  0  0  0  0
 37115  1  0  0  0  0
 38 39  1  0  0  0  0
 39116  1  0  0  0  0
 39117  1  0  0  0  0
 39118  1  0  0  0  0
 40 41  1  0  0  0  0
 41 42  1  0  0  0  0
 41 48  2  0  0  0  0
 42 43  2  0  0  0  0
 43 44  1  0  0  0  0
 43 49  1  0  0  0  0
 44 45  2  0  0  0  0
 44 51  1  0  0  0  0
 45 46  1  0  0  0  0
 45 52  1  0  0  0  0
 46 47  2  0  0  0  0
 46 53  1  0  0  0  0
 47 42  1  0  0  0  0
 47 54  1  0  0  0  0
 49 50  1  0  0  0  0
 49119  1  0  0  0  0
 49120  1  0  0  0  0
 50121  1  0  0  0  0
 50122  1  0  0  0  0
 50123  1  0  0  0  0
 52124  1  0  0  0  0
 54125  1  0  0  0  0
 56 58  1  0  0  0  0
 56 62  1  0  0  0  0
 56 73  1  6  0  0  0
 56 55  1  0  0  0  0
 57126  1  0  0  0  0
 57127  1  0  0  0  0
 57128  1  0  0  0  0
 58 59  1  0  0  0  0
 58129  1  1  0  0  0
 58 69  1  0  0  0  0
 59 60  1  0  0  0  0
 59130  1  1  0  0  0
 59 70  1  0  0  0  0
 60 61  1  0  0  0  0
 60 65  1  0  0  0  0
 60131  1  1  0  0  0
 61 62  1  0  0  0  0
 61 63  1  0  0  0  0
 61 64  1  0  0  0  0
 63132  1  0  0  0  0
 63133  1  0  0  0  0
 63134  1  0  0  0  0
 64135  1  0  0  0  0
 64136  1  0  0  0  0
 64137  1  0  0  0  0
 65 66  1  0  0  0  0
 66 67  1  0  0  0  0
 66 71  2  0  0  0  0
 67 68  1  0  0  0  0
 67 72  1  0  0  0  0
 67138  1  0  0  0  0
 68139  1  0  0  0  0
 68140  1  0  0  0  0
 68141  1  0  0  0  0
 69142  1  0  0  0  0
 70143  1  0  0  0  0
 72144  1  0  0  0  0
 72145  1  0  0  0  0
 72146  1  0  0  0  0
M  END
>  <DRUGBANK_ID>
DB08874

>  <COMMON_NAME>
Fidaxomicin

>  <CAS_NUMBER>
873857-62-6

>  <UNII>
Z5N076G8YQ

>  <SYNONYMS>
Difimicin ; Fidaxomicin; Fidaxomicina; Lipiarmicin; Lipiarmycin; Lipiarrmycin; Tiacumicin B

$$$$
