
 OpenBabel10282417143D

 16 16  0  0  0  0  0  0  0  0999 V2000
    0.0210   -1.3287   -0.0383 N   0  0  0  0  0  0  0  0  0  0  0  0
    1.2266   -0.6263    0.0824 C   0  0  0  0  0  0  0  0  0  0  0  0
    1.1980    0.7454   -0.0297 N   0  0  0  0  0  0  0  0  0  0  0  0
    0.0575    1.3632   -0.0031 C   0  0  0  0  0  0  0  0  0  0  0  0
   -1.2342    0.6559    0.0910 C   0  0  0  0  0  0  0  0  0  0  0  0
   -1.1839   -0.6637   -0.0755 C   0  0  0  0  0  0  0  0  0  0  0  0
    2.2917   -1.2179    0.2843 O   0  0  0  0  0  0  0  0  0  0  0  0
    0.0557    2.7254   -0.0922 N   0  0  0  0  0  0  0  0  0  0  0  0
    0.0071   -2.7739    0.1540 C   0  0  0  0  0  0  0  0  0  0  0  0
   -2.1478    1.2131    0.2294 H   0  0  0  0  0  0  0  0  0  0  0  0
   -2.0850   -1.2620   -0.1629 H   0  0  0  0  0  0  0  0  0  0  0  0
   -0.7968    3.2520   -0.2229 H   0  0  0  0  0  0  0  0  0  0  0  0
    0.9233    3.1742   -0.3630 H   0  0  0  0  0  0  0  0  0  0  0  0
   -0.6018   -3.0058    1.0364 H   0  0  0  0  0  0  0  0  0  0  0  0
   -0.4280   -3.2625   -0.7225 H   0  0  0  0  0  0  0  0  0  0  0  0
    1.0079   -3.1780    0.3280 H   0  0  0  0  0  0  0  0  0  0  0  0
  2  1  1  0  0  0  0
  3  2  1  0  0  0  0
  4  3  2  0  0  0  0
  5  4  1  0  0  0  0
  5 10  1  0  0  0  0
  6  1  1  0  0  0  0
  6  5  2  0  0  0  0
  6 11  1  0  0  0  0
  7  2  2  0  0  0  0
  8  4  1  0  0  0  0
  8 12  1  0  0  0  0
  8 13  1  0  0  0  0
  9  1  1  0  0  0  0
  9 14  1  0  0  0  0
  9 15  1  0  0  0  0
  9 16  1  0  0  0  0
M  END
>  <DRUGBANK_ID>
DB04314

>  <SECONDARY_ACCESSION_NUMBERS>
EXPT00076

>  <COMMON_NAME>
1-Methylcytosine

>  <CAS_NUMBER>
1122-47-0

>  <UNII>
1J54NE82RV

>  <SYNONYMS>
N-Methylcytosine

$$$$
