
 OpenBabel10282417203D

 41 43  0  0  0  0  0  0  0  0999 V2000
    1.0085    0.0773    0.0069 C   0  0  0  0  0  0  0  0  0  0  0  0
    0.4065    1.4973   -0.0439 C   0  0  0  0  0  0  0  0  0  0  0  0
    0.9372    2.1969   -1.2928 C   0  0  0  0  0  0  0  0  0  0  0  0
   -1.1086    1.4748   -0.0508 C   0  0  0  0  0  0  0  0  0  0  0  0
   -1.8038    0.3365   -0.1283 C   0  0  0  0  0  0  0  0  0  0  0  0
   -3.2566    0.3462   -0.0372 C   0  0  0  0  0  0  0  0  0  0  0  0
   -3.9685    1.4277   -0.0258 N   0  0  0  0  0  0  0  0  0  0  0  0
   -3.2574    2.6109   -0.0564 N   0  0  0  0  0  0  0  0  0  0  0  0
   -1.8861    2.7426   -0.0020 C   0  0  0  0  0  0  0  0  0  0  0  0
   -1.3376    3.8381    0.0488 O   0  0  0  0  0  0  0  0  0  0  0  0
   -3.8611   -0.9173    0.0381 O   0  0  0  0  0  0  0  0  0  0  0  0
   -3.1579   -2.1657    0.1009 C   0  0  0  0  0  0  0  0  0  0  0  0
   -3.3165   -3.0872   -0.9435 C   0  0  0  0  0  0  0  0  0  0  0  0
   -2.5653   -4.2770   -0.9639 C   0  0  0  0  0  0  0  0  0  0  0  0
   -1.6704   -4.5684    0.0728 C   0  0  0  0  0  0  0  0  0  0  0  0
   -1.5484   -3.6581    1.1342 C   0  0  0  0  0  0  0  0  0  0  0  0
   -2.2996   -2.4762    1.1651 C   0  0  0  0  0  0  0  0  0  0  0  0
   -2.0722   -1.4254    2.5205 Cl  0  0  0  0  0  0  0  0  0  0  0  0
   -0.9644   -5.8105    0.1075 N   0  0  0  0  0  0  0  0  0  0  0  0
   -1.0929   -6.6539    1.2220 C   0  0  0  0  0  0  0  0  0  0  0  0
   -1.8214   -6.4411    2.1890 O   0  0  0  0  0  0  0  0  0  0  0  0
   -0.3695   -7.8125    1.1835 N   0  0  0  0  0  0  0  0  0  0  0  0
    0.4578   -8.1730    0.1675 C   0  0  0  0  0  0  0  0  0  0  0  0
    1.1061   -9.2059    0.1471 O   0  0  0  0  0  0  0  0  0  0  0  0
    0.5207   -7.1995   -0.9667 C   0  0  0  0  0  0  0  0  0  0  0  0
   -0.1732   -6.0945   -1.0065 N   0  0  0  0  0  0  0  0  0  0  0  0
    1.3797   -7.4502   -2.0946 C   0  0  0  0  0  0  0  0  0  0  0  0
    2.1017   -7.7166   -2.9732 N   0  0  0  0  0  0  0  0  0  0  0  0
   -4.4317   -2.8017   -2.2285 Cl  0  0  0  0  0  0  0  0  0  0  0  0
    0.7038   -0.5059   -0.8733 H   0  0  0  0  0  0  0  0  0  0  0  0
    0.6735   -0.4590    0.9035 H   0  0  0  0  0  0  0  0  0  0  0  0
    2.0998    0.0919    0.0166 H   0  0  0  0  0  0  0  0  0  0  0  0
    0.7513    2.0328    0.8509 H   0  0  0  0  0  0  0  0  0  0  0  0
    0.5865    1.6906   -2.1990 H   0  0  0  0  0  0  0  0  0  0  0  0
    0.6121    3.2393   -1.3443 H   0  0  0  0  0  0  0  0  0  0  0  0
    2.0314    2.1955   -1.3004 H   0  0  0  0  0  0  0  0  0  0  0  0
   -1.3024   -0.6065   -0.2056 H   0  0  0  0  0  0  0  0  0  0  0  0
   -3.8006    3.4682   -0.0634 H   0  0  0  0  0  0  0  0  0  0  0  0
   -2.7266   -5.0039   -1.7572 H   0  0  0  0  0  0  0  0  0  0  0  0
   -0.8450   -3.8542    1.9413 H   0  0  0  0  0  0  0  0  0  0  0  0
   -0.4718   -8.4487    1.9600 H   0  0  0  0  0  0  0  0  0  0  0  0
  1  2  1  0  0  0  0
  1 30  1  0  0  0  0
  1 31  1  0  0  0  0
  1 32  1  0  0  0  0
  2  3  1  0  0  0  0
  2  4  1  0  0  0  0
  2 33  1  0  0  0  0
  3 34  1  0  0  0  0
  3 35  1  0  0  0  0
  3 36  1  0  0  0  0
  4  5  2  0  0  0  0
  4  9  1  0  0  0  0
  5  6  1  0  0  0  0
  5 37  1  0  0  0  0
  6  7  2  0  0  0  0
  6 11  1  0  0  0  0
  7  8  1  0  0  0  0
  8  9  1  0  0  0  0
  8 38  1  0  0  0  0
  9 10  2  0  0  0  0
 11 12  1  0  0  0  0
 12 13  2  0  0  0  0
 12 17  1  0  0  0  0
 13 14  1  0  0  0  0
 13 29  1  0  0  0  0
 14 15  2  0  0  0  0
 14 39  1  0  0  0  0
 15 16  1  0  0  0  0
 15 19  1  0  0  0  0
 16 17  2  0  0  0  0
 16 40  1  0  0  0  0
 17 18  1  0  0  0  0
 19 20  1  0  0  0  0
 19 26  1  0  0  0  0
 20 21  2  0  0  0  0
 20 22  1  0  0  0  0
 22 23  1  0  0  0  0
 22 41  1  0  0  0  0
 23 24  2  0  0  0  0
 23 25  1  0  0  0  0
 25 26  2  0  0  0  0
 25 27  1  0  0  0  0
 27 28  3  0  0  0  0
M  END
>  <DRUGBANK_ID>
DB12914

>  <COMMON_NAME>
Resmetirom

>  <CAS_NUMBER>
920509-32-6

>  <UNII>
RE0V0T1ES0

>  <SYNONYMS>
Resmetirom

$$$$
