BRS
 OpenBabel10282417163D

 33 34  0  0  0  0  0  0  0  0999 V2000
    0.9351    0.0684   -0.0185 N   0  3  0  0  0  0  0  0  0  0  0  0
    0.4014   -1.0491   -0.0233 O   0  0  0  0  0  0  0  0  0  0  0  0
    0.2956    1.1288   -0.0200 O   0  5  0  0  0  0  0  0  0  0  0  0
    5.2206   -2.4257   -0.0229 N   0  3  0  0  0  0  0  0  0  0  0  0
    4.5632   -3.4764   -0.0405 O   0  5  0  0  0  0  0  0  0  0  0  0
    6.4566   -2.3686    0.0054 O   0  0  0  0  0  0  0  0  0  0  0  0
    3.0864   -1.1390   -0.0168 C   0  0  0  0  0  0  0  0  0  0  0  0
    4.4750   -1.1556   -0.0336 C   0  0  0  0  0  0  0  0  0  0  0  0
    5.1812    0.0488   -0.0557 C   0  0  0  0  0  0  0  0  0  0  0  0
    4.5388    1.3100    0.0018 C   0  0  0  0  0  0  0  0  0  0  0  0
    3.1309    1.3218   -0.0039 C   0  0  0  0  0  0  0  0  0  0  0  0
    2.4133    0.1016   -0.0139 C   0  0  0  0  0  0  0  0  0  0  0  0
    2.4281    2.4912   -0.0180 O   0  0  0  0  0  0  0  0  0  0  0  0
    5.9684    3.6791    2.3033 C   0  0  0  0  0  0  0  0  0  0  0  0
    6.2209    2.6694    1.3621 C   0  0  0  0  0  0  0  0  0  0  0  0
    7.2524    1.7558    1.6359 C   0  0  0  0  0  0  0  0  0  0  0  0
    7.9515    1.7794    2.8354 C   0  0  0  0  0  0  0  0  0  0  0  0
    7.6802    2.7754    3.7589 C   0  0  0  0  0  0  0  0  0  0  0  0
    6.7087    3.7386    3.4901 C   0  0  0  0  0  0  0  0  0  0  0  0
    8.5695    2.8202    5.2273 Cl  0  0  0  0  0  0  0  0  0  0  0  0
    5.4010    2.5772    0.0776 C   0  0  1  0  0  0  0  0  0  0  0  0
    6.2880    2.7228   -1.1621 C   0  0  0  0  0  0  0  0  0  0  0  0
    4.7569    3.4607    0.0625 H   0  0  0  0  0  0  0  0  0  0  0  0
    2.5343   -2.0773   -0.0166 H   0  0  0  0  0  0  0  0  0  0  0  0
    6.2619   -0.0105   -0.1192 H   0  0  0  0  0  0  0  0  0  0  0  0
    2.9615    3.2950   -0.0504 H   0  0  0  0  0  0  0  0  0  0  0  0
    5.2083    4.4375    2.1230 H   0  0  0  0  0  0  0  0  0  0  0  0
    7.5489    0.9978    0.9220 H   0  0  0  0  0  0  0  0  0  0  0  0
    8.7068    1.0212    3.0211 H   0  0  0  0  0  0  0  0  0  0  0  0
    6.5228    4.5370    4.2031 H   0  0  0  0  0  0  0  0  0  0  0  0
    5.6832    2.7038   -2.0751 H   0  0  0  0  0  0  0  0  0  0  0  0
    6.8327    3.6728   -1.1323 H   0  0  0  0  0  0  0  0  0  0  0  0
    7.0295    1.9217   -1.2383 H   0  0  0  0  0  0  0  0  0  0  0  0
  1  2  2  0  0  0  0
  1  3  1  0  0  0  0
  1 12  1  0  0  0  0
  4  5  1  0  0  0  0
  4  6  2  0  0  0  0
  4  8  1  0  0  0  0
  7  8  2  0  0  0  0
  7 12  1  0  0  0  0
  7 24  1  0  0  0  0
  8  9  1  0  0  0  0
  9 10  2  0  0  0  0
  9 25  1  0  0  0  0
 10 11  1  0  0  0  0
 10 21  1  0  0  0  0
 11 12  2  0  0  0  0
 11 13  1  0  0  0  0
 13 26  1  0  0  0  0
 14 15  2  0  0  0  0
 14 19  1  0  0  0  0
 14 27  1  0  0  0  0
 15 16  1  0  0  0  0
 15 21  1  0  0  0  0
 16 17  2  0  0  0  0
 16 28  1  0  0  0  0
 17 18  1  0  0  0  0
 17 29  1  0  0  0  0
 18 19  2  0  0  0  0
 18 20  1  0  0  0  0
 19 30  1  0  0  0  0
 21 22  1  0  0  0  0
 21 23  1  1  0  0  0
 22 31  1  0  0  0  0
 22 32  1  0  0  0  0
 22 33  1  0  0  0  0
M  CHG  4   1   1   3  -1   4   1   5  -1
M  END
>  <DRUGBANK_ID>
DB07490

>  <COMMON_NAME>
2-[1-(4-CHLORO-PHENYL)-ETHYL]-4,6-DINITRO-PHENOL

$$$$
