
 OpenBabel10282417113D

 28 27  0  0  0  0  0  0  0  0999 V2000
    0.9635    0.0574    0.0737 C   0  0  0  0  0  0  0  0  0  0  0  0
    0.5341    1.5230    0.2573 N   0  3  0  0  0  0  0  0  0  0  0  0
    0.5750   -0.5719   -1.2900 C   0  0  3  0  0  0  0  0  0  0  0  0
    1.0605    2.3862   -0.8830 C   0  0  0  0  0  0  0  0  0  0  0  0
    1.1649   -1.8816   -1.4143 O   0  0  0  0  0  0  0  0  0  0  0  0
   -0.9353   -0.7714   -1.4467 C   0  0  0  0  0  0  0  0  0  0  0  0
    2.4988   -2.1297   -1.4823 C   0  0  0  0  0  0  0  0  0  0  0  0
    3.3450   -1.0630   -1.3972 N   0  0  0  0  0  0  0  0  0  0  0  0
    2.9352   -3.2585   -1.5746 O   0  0  0  0  0  0  0  0  0  0  0  0
   -0.9710    1.6717    0.3859 C   0  0  0  0  0  0  0  0  0  0  0  0
    1.1180    2.0297    1.5765 C   0  0  0  0  0  0  0  0  0  0  0  0
    0.5781   -0.5348    0.9131 H   0  0  0  0  0  0  0  0  0  0  0  0
    2.0474    0.0684    0.2197 H   0  0  0  0  0  0  0  0  0  0  0  0
    0.9337    0.0152   -2.1400 H   0  0  0  0  0  0  0  0  0  0  0  0
    0.6540    2.0187   -1.8285 H   0  0  0  0  0  0  0  0  0  0  0  0
    0.7258    3.4122   -0.7254 H   0  0  0  0  0  0  0  0  0  0  0  0
    2.1532    2.3183   -0.8917 H   0  0  0  0  0  0  0  0  0  0  0  0
   -1.4679    0.1535   -1.6491 H   0  0  0  0  0  0  0  0  0  0  0  0
   -1.1814   -1.4002   -2.3041 H   0  0  0  0  0  0  0  0  0  0  0  0
   -1.3623   -1.2337   -0.5490 H   0  0  0  0  0  0  0  0  0  0  0  0
    4.3306   -1.3018   -1.4207 H   0  0  0  0  0  0  0  0  0  0  0  0
    3.1181   -0.0901   -1.4623 H   0  0  0  0  0  0  0  0  0  0  0  0
   -1.3368    0.9045    1.0751 H   0  0  0  0  0  0  0  0  0  0  0  0
   -1.2011    2.6773    0.7391 H   0  0  0  0  0  0  0  0  0  0  0  0
   -1.4190    1.6012   -0.5958 H   0  0  0  0  0  0  0  0  0  0  0  0
    0.7441    1.3875    2.3797 H   0  0  0  0  0  0  0  0  0  0  0  0
    2.2085    1.9908    1.5190 H   0  0  0  0  0  0  0  0  0  0  0  0
    0.7766    3.0589    1.7168 H   0  0  0  0  0  0  0  0  0  0  0  0
  1  2  1  0  0  0  0
  1  3  1  0  0  0  0
  1 12  1  0  0  0  0
  1 13  1  0  0  0  0
  2  4  1  0  0  0  0
  2 10  1  0  0  0  0
  2 11  1  0  0  0  0
  3  5  1  0  0  0  0
  3  6  1  0  0  0  0
  3 14  1  0  0  0  0
  4 15  1  0  0  0  0
  4 16  1  0  0  0  0
  4 17  1  0  0  0  0
  5  7  1  0  0  0  0
  6 18  1  0  0  0  0
  6 19  1  0  0  0  0
  6 20  1  0  0  0  0
  7  8  1  0  0  0  0
  7  9  2  0  0  0  0
  8 21  1  0  0  0  0
  8 22  1  0  0  0  0
 10 23  1  0  0  0  0
 10 24  1  0  0  0  0
 10 25  1  0  0  0  0
 11 26  1  0  0  0  0
 11 27  1  0  0  0  0
 11 28  1  0  0  0  0
M  CHG  1   2   1
M  END
>  <DRUGBANK_ID>
DB01019

>  <SECONDARY_ACCESSION_NUMBERS>
APRD00051

>  <COMMON_NAME>
Bethanechol

>  <CAS_NUMBER>
674-38-4

>  <UNII>
004F72P8F4

>  <SYNONYMS>
(2-hydroxypropyl)trimethylammonium carbamate; 2-(carbamoyloxy)-N,N,N-trimethylpropan-1-aminium; 2-carbamoyloxypropyl-trimethylazanium; Amidopropyldimethylbetaine; Bethanechol; Carbamoyl-beta-methylcholine; carbamoyl-β-methylcholine; Carbamyl-beta-methylcholine; carbamyl-β-methylcholine

$$$$
