T12
 OpenBabel10282417173D

 56 58  0  0  0  0  0  0  0  0999 V2000
    1.1374   -0.0637   -0.0740 O   0  5  0  0  0  0  0  0  0  0  0  0
    2.3750   -0.1239   -0.0915 N   0  3  0  0  0  0  0  0  0  0  0  0
    3.0533   -0.9908    0.4782 O   0  0  0  0  0  0  0  0  0  0  0  0
    3.1027    0.9385   -0.7986 C   0  0  0  0  0  0  0  0  0  0  0  0
    4.2020    0.6637   -1.5937 C   0  0  0  0  0  0  0  0  0  0  0  0
    4.9175    1.7410   -2.1661 C   0  0  0  0  0  0  0  0  0  0  0  0
    4.5637    3.0961   -1.9620 C   0  0  0  0  0  0  0  0  0  0  0  0
    2.7667    2.2698   -0.5644 C   0  0  0  0  0  0  0  0  0  0  0  0
    3.5457    3.3885   -1.0828 C   0  0  0  0  0  0  0  0  0  0  0  0
    3.1419    4.7431   -0.5729 C   0  0  0  0  0  0  0  0  0  0  0  0
    1.9778    4.5617   -0.2380 O   0  0  0  0  0  0  0  0  0  0  0  0
    3.7923    6.1076   -0.5062 N   0  0  0  0  0  0  0  0  0  0  0  0
    3.2853    7.5008    0.1727 C   0  0  0  0  0  0  0  0  0  0  0  0
    3.1748    8.5847   -0.5758 N   0  0  0  0  0  0  0  0  0  0  0  0
    2.1653    9.3822   -0.0542 C   0  0  0  0  0  0  0  0  0  0  0  0
    1.5956   10.4389   -0.7553 C   0  0  0  0  0  0  0  0  0  0  0  0
    0.5445   11.2322   -0.5924 C   0  0  0  0  0  0  0  0  0  0  0  0
    0.2977   11.8623   -1.8521 O   0  0  0  0  0  0  0  0  0  0  0  0
    0.7828   11.4878   -3.2267 C   0  0  0  0  0  0  0  0  0  0  0  0
    0.6451   12.3465   -4.1269 O   0  0  0  0  0  0  0  0  0  0  0  0
    1.5310   10.0570   -3.6678 C   0  0  0  0  0  0  0  0  0  0  0  0
    1.8102    8.8523   -2.7977 C   0  0  0  0  0  0  0  0  0  0  0  0
    0.6631    9.3204   -4.6736 C   0  0  0  0  0  0  0  0  0  0  0  0
    2.9766   10.3798   -4.1716 C   0  0  0  0  0  0  0  0  0  0  0  0
    0.1857   11.2846    0.7324 C   0  0  0  0  0  0  0  0  0  0  0  0
    1.7102    9.1445    1.2004 C   0  0  0  0  0  0  0  0  0  0  0  0
    0.6938   10.1793    1.6781 C   0  0  0  0  0  0  0  0  0  0  0  0
    2.4991    7.9360    1.3784 N   0  0  0  0  0  0  0  0  0  0  0  0
    2.2974    6.8434    2.2629 C   0  0  0  0  0  0  0  0  0  0  0  0
    1.1337    5.9988    1.7240 C   0  0  0  0  0  0  0  0  0  0  0  0
    0.3781    6.4137    0.3609 C   0  0  0  0  0  0  0  0  0  0  0  0
    1.2010    6.6190   -0.7592 O   0  0  0  0  0  0  0  0  0  0  0  0
    4.5079   -0.3638   -1.7791 H   0  0  0  0  0  0  0  0  0  0  0  0
    5.8041    1.5203   -2.7570 H   0  0  0  0  0  0  0  0  0  0  0  0
    5.0847    3.8889   -2.4851 H   0  0  0  0  0  0  0  0  0  0  0  0
    1.8884    2.4347    0.0692 H   0  0  0  0  0  0  0  0  0  0  0  0
    4.1800    6.3526   -1.4241 H   0  0  0  0  0  0  0  0  0  0  0  0
    2.1783   10.7089   -1.5860 H   0  0  0  0  0  0  0  0  0  0  0  0
    2.7461    9.1419   -2.3491 H   0  0  0  0  0  0  0  0  0  0  0  0
    0.9425    8.6113   -2.1831 H   0  0  0  0  0  0  0  0  0  0  0  0
    2.1682    7.9040   -3.2173 H   0  0  0  0  0  0  0  0  0  0  0  0
    0.5514    9.8630   -5.6014 H   0  0  0  0  0  0  0  0  0  0  0  0
    1.0863    8.3286   -4.9077 H   0  0  0  0  0  0  0  0  0  0  0  0
   -0.3122    9.1305   -4.2060 H   0  0  0  0  0  0  0  0  0  0  0  0
    3.5447   10.9257   -3.3985 H   0  0  0  0  0  0  0  0  0  0  0  0
    3.5568    9.4549   -4.3427 H   0  0  0  0  0  0  0  0  0  0  0  0
    2.9951   10.9588   -5.0886 H   0  0  0  0  0  0  0  0  0  0  0  0
   -0.3830   12.1507    1.1145 H   0  0  0  0  0  0  0  0  0  0  0  0
    0.2656   10.2084    2.6893 H   0  0  0  0  0  0  0  0  0  0  0  0
    3.2672    6.3122    2.1808 H   0  0  0  0  0  0  0  0  0  0  0  0
    2.2617    7.1414    3.3110 H   0  0  0  0  0  0  0  0  0  0  0  0
    1.6130    5.0165    1.6647 H   0  0  0  0  0  0  0  0  0  0  0  0
    0.3714    5.8675    2.4824 H   0  0  0  0  0  0  0  0  0  0  0  0
   -0.2740    5.6316   -0.0227 H   0  0  0  0  0  0  0  0  0  0  0  0
   -0.1257    7.3658    0.4299 H   0  0  0  0  0  0  0  0  0  0  0  0
    1.9753    6.1728   -0.3951 H   0  0  0  0  0  0  0  0  0  0  0  0
  1  2  1  0  0  0  0
  2  3  2  0  0  0  0
  2  4  1  0  0  0  0
  4  8  1  0  0  0  0
  4  5  2  0  0  0  0
  5  6  1  0  0  0  0
  5 33  1  0  0  0  0
  6  7  2  0  0  0  0
  6 34  1  0  0  0  0
  7  9  1  0  0  0  0
  7 35  1  0  0  0  0
  8  9  2  0  0  0  0
  8 36  1  0  0  0  0
  9 10  1  0  0  0  0
 10 12  1  0  0  0  0
 10 11  2  0  0  0  0
 12 13  1  0  0  0  0
 12 37  1  0  0  0  0
 13 28  1  0  0  0  0
 13 14  2  0  0  0  0
 14 15  1  0  0  0  0
 15 16  2  0  0  0  0
 15 26  1  0  0  0  0
 16 17  1  0  0  0  0
 16 38  1  0  0  0  0
 17 18  1  0  0  0  0
 17 25  2  0  0  0  0
 18 19  1  0  0  0  0
 19 21  1  0  0  0  0
 19 20  2  0  0  0  0
 21 23  1  0  0  0  0
 21 24  1  0  0  0  0
 21 22  1  0  0  0  0
 22 39  1  0  0  0  0
 22 40  1  0  0  0  0
 22 41  1  0  0  0  0
 23 42  1  0  0  0  0
 23 43  1  0  0  0  0
 23 44  1  0  0  0  0
 24 45  1  0  0  0  0
 24 46  1  0  0  0  0
 24 47  1  0  0  0  0
 25 27  1  0  0  0  0
 25 48  1  0  0  0  0
 26 27  2  0  0  0  0
 26 28  1  0  0  0  0
 27 49  1  0  0  0  0
 28 29  1  0  0  0  0
 29 30  1  0  0  0  0
 29 50  1  0  0  0  0
 29 51  1  0  0  0  0
 30 31  1  0  0  0  0
 30 52  1  0  0  0  0
 30 53  1  0  0  0  0
 31 32  1  0  0  0  0
 31 54  1  0  0  0  0
 31 55  1  0  0  0  0
 32 56  1  0  0  0  0
M  CHG  2   1  -1   2   1
M  END
>  <DRUGBANK_ID>
DB08590

>  <COMMON_NAME>
1-(3-HYDROXYPROPYL)-2-[(3-NITROBENZOYL)AMINO]-1H-BENZIMIDAZOL-5-YL PIVALATE

>  <UNII>
QOL8WS9UXV

$$$$
