
 OpenBabel10282417223D

161170  0  0  0  0  0  0  0  0999 V2000
    1.6556    0.1483    0.0878 C   0  0  0  0  0  0  0  0  0  0  0  0
    0.6200   -0.1295    1.4373 C   0  0  3  0  0  0  0  0  0  0  0  0
    1.4021    0.7688    2.4923 O   0  0  0  0  0  0  0  0  0  0  0  0
   -1.5932   -0.1371    1.0965 C   0  0  0  0  0  0  0  0  0  0  0  0
   -2.3856   -1.2927    0.8163 C   0  0  0  0  0  0  0  0  0  0  0  0
   -1.7709   -2.8213    0.5898 C   0  0  0  0  0  0  0  0  0  0  0  0
   -3.6250   -0.8305    1.2628 C   0  0  0  0  0  0  0  0  0  0  0  0
   -4.4477   -1.7910    1.5123 C   0  0  0  0  0  0  0  0  0  0  0  0
   -5.7106   -1.2033    1.5649 C   0  0  0  0  0  0  0  0  0  0  0  0
   -5.9994    0.0492    1.5426 N   0  0  0  0  0  0  0  0  0  0  0  0
   -7.3229    0.0403    1.6450 C   0  0  0  0  0  0  0  0  0  0  0  0
   -8.0238    1.1293    1.9005 C   0  0  0  0  0  0  0  0  0  0  0  0
   -7.6902    2.4941    1.7744 C   0  0  0  0  0  0  0  0  0  0  0  0
   -8.5430    3.5868    1.6972 C   0  0  0  0  0  0  0  0  0  0  0  0
  -10.0126    3.5535    1.7048 C   0  0  0  0  0  0  0  0  0  0  0  0
  -10.6080    2.9050    0.4626 C   0  0  0  0  0  0  0  0  0  0  0  0
  -10.1850    1.5009    0.1411 C   0  0  0  0  0  0  0  0  0  0  0  0
  -11.0473    0.5017    0.4081 O   0  0  0  0  0  0  0  0  0  0  0  0
   -9.1083    1.2321   -0.3684 O   0  0  0  0  0  0  0  0  0  0  0  0
   -7.7862    4.7545    1.6528 C   0  0  0  0  0  0  0  0  0  0  0  0
   -8.1708    6.1735    1.6745 C   0  0  0  0  0  0  0  0  0  0  0  0
   -6.5084    4.3418    1.5989 C   0  0  0  0  0  0  0  0  0  0  0  0
   -6.4341    2.9637    1.5884 N   0  0  0  0  0  0  0  0  0  0  0  0
   -5.4504    5.2182    1.5206 C   0  0  0  0  0  0  0  0  0  0  0  0
   -4.2751    4.7206    1.3513 C   0  0  0  0  0  0  0  0  0  0  0  0
   -4.0798    3.3762    1.3238 N   0  0  0  0  0  0  0  0  0  0  0  0
   -2.8559    3.2614    1.0514 C   0  0  0  0  0  0  0  0  0  0  0  0
   -2.2479    2.1595    0.3897 C   0  0  0  0  0  0  0  0  0  0  0  0
   -2.5640    0.9850    0.8642 C   0  0  0  0  0  0  0  0  0  0  0  0
   -3.6488    0.5156    1.3809 N   0  0  0  0  0  0  0  0  0  0  0  0
   -2.0872    4.3609    1.6459 C   0  0  0  0  0  0  0  0  0  0  0  0
   -0.0309    4.9297    2.1132 C   0  0  0  0  0  0  0  0  0  0  0  0
   -3.1196    5.4850    1.2407 C   0  0  0  0  0  0  0  0  0  0  0  0
   -2.9274    7.1897    1.2817 C   0  0  3  0  0  0  0  0  0  0  0  0
   -2.3700    7.9910    2.5998 C   0  0  0  0  0  0  0  0  0  0  0  0
   -2.2620    7.7321    0.0910 O   0  0  0  0  0  0  0  0  0  0  0  0
   -0.9112    7.3008   -0.1450 C   0  0  3  0  0  0  0  0  0  0  0  0
    0.0677    7.8409    0.9726 C   0  0  0  0  0  0  0  0  0  0  0  0
   -0.8996    5.8793   -0.4335 C   0  0  0  0  0  0  0  0  0  0  0  0
   -0.3860    4.8751   -1.2208 C   0  0  0  0  0  0  0  0  0  0  0  0
   -0.2628    3.5917   -0.7151 N   0  0  0  0  0  0  0  0  0  0  0  0
   -0.3609    3.7133    0.6229 C   0  0  0  0  0  0  0  0  0  0  0  0
   -0.5493    2.6614    2.0566 C   0  0  0  0  0  0  0  0  0  0  0  0
   -0.4704    1.3599    1.8191 C   0  0  0  0  0  0  0  0  0  0  0  0
   -0.3113    0.6950    0.0812 N   0  0  0  0  0  0  0  0  0  0  0  0
   -0.3404   -0.9742    0.1120 C   0  0  0  0  0  0  0  0  0  0  0  0
   -0.5896   -1.6074   -1.2596 C   0  0  0  0  0  0  0  0  0  0  0  0
    0.0236   -1.1399   -2.3162 C   0  0  0  0  0  0  0  0  0  0  0  0
    0.3928    0.1070   -2.6447 N   0  0  0  0  0  0  0  0  0  0  0  0
    0.9608    0.1265   -3.8629 C   0  0  0  0  0  0  0  0  0  0  0  0
    1.3102    1.1593   -4.6129 C   0  0  0  0  0  0  0  0  0  0  0  0
    1.1593    2.5514   -4.2103 C   0  0  0  0  0  0  0  0  0  0  0  0
    0.6637    2.9584   -3.0911 N   0  0  0  0  0  0  0  0  0  0  0  0
    0.7431    4.3176   -3.1929 C   0  0  0  0  0  0  0  0  0  0  0  0
    0.2998    5.2006   -2.3386 C   0  0  0  0  0  0  0  0  0  0  0  0
    1.3184    4.7289   -4.4130 C   0  0  0  0  0  0  0  0  0  0  0  0
    1.5197    6.1571   -4.7930 C   0  0  0  0  0  0  0  0  0  0  0  0
    1.5937    3.6323   -5.1129 C   0  0  0  0  0  0  0  0  0  0  0  0
    2.2276    3.5553   -6.4278 C   0  0  3  0  0  0  0  0  0  0  0  0
    3.5536    2.8306   -6.3401 C   0  0  0  0  0  0  0  0  0  0  0  0
    1.3623    2.9217   -7.3549 O   0  0  0  0  0  0  0  0  0  0  0  0
    1.0962   -1.2757   -4.2502 C   0  0  0  0  0  0  0  0  0  0  0  0
    1.6211   -1.7707   -5.5274 C   0  0  0  0  0  0  0  0  0  0  0  0
    0.6008   -2.0514   -3.2745 C   0  0  0  0  0  0  0  0  0  0  0  0
    0.5934   -3.5485   -3.1230 C   0  0  0  0  0  0  0  0  0  0  0  0
    1.4811   -4.1342   -2.0030 C   0  0  0  0  0  0  0  0  0  0  0  0
    1.2466   -3.7323   -0.5914 C   0  0  0  0  0  0  0  0  0  0  0  0
    0.6608   -4.5788    0.2645 O   0  0  0  0  0  0  0  0  0  0  0  0
    1.5771   -2.6369   -0.1813 O   0  0  0  0  0  0  0  0  0  0  0  0
   -0.6341   -1.4730    2.1272 C   0  0  0  0  0  0  0  0  0  0  0  0
   -1.3562   -2.8833    2.7506 C   0  0  0  0  0  0  0  0  0  0  0  0
   -0.2885   -3.0940    3.6817 C   0  0  0  0  0  0  0  0  0  0  0  0
   -0.4936   -2.1181    4.7493 C   0  0  0  0  0  0  0  0  0  0  0  0
   -1.4392   -2.4620    5.6254 O   0  0  0  0  0  0  0  0  0  0  0  0
    0.1391   -1.0794    4.8158 O   0  0  0  0  0  0  0  0  0  0  0  0
   -0.8780   -0.0827    2.9405 C   0  0  0  0  0  0  0  0  0  0  0  0
   -2.1102    0.1051    3.8365 C   0  0  0  0  0  0  0  0  0  0  0  0
   -0.9832    5.2554    0.7254 C   0  0  0  0  0  0  0  0  0  0  0  0
   -1.5253    5.5083    2.7739 C   0  0  0  0  0  0  0  0  0  0  0  0
   -7.7811   -1.3428    1.5627 C   0  0  0  0  0  0  0  0  0  0  0  0
   -9.1822   -1.8263    1.4706 C   0  0  0  0  0  0  0  0  0  0  0  0
   -9.5365   -2.6032    0.1910 C   0  0  0  0  0  0  0  0  0  0  0  0
   -8.7098   -3.8090   -0.1370 C   0  0  0  0  0  0  0  0  0  0  0  0
   -9.1926   -5.0404    0.1067 O   0  0  0  0  0  0  0  0  0  0  0  0
   -7.5941   -3.6894   -0.6242 O   0  0  0  0  0  0  0  0  0  0  0  0
   -6.7441   -2.1754    1.6086 C   0  0  0  0  0  0  0  0  0  0  0  0
   -6.5312   -3.6370    1.6236 C   0  0  0  0  0  0  0  0  0  0  0  0
    1.4133    1.0913   -0.4281 H   0  0  0  0  0  0  0  0  0  0  0  0
    1.4397   -0.6331   -0.6089 H   0  0  0  0  0  0  0  0  0  0  0  0
    2.6861    0.0302    0.2106 H   0  0  0  0  0  0  0  0  0  0  0  0
    1.1450   -1.0495    1.7911 H   0  0  0  0  0  0  0  0  0  0  0  0
    2.2927    0.9221    2.1573 H   0  0  0  0  0  0  0  0  0  0  0  0
   -0.8458   -3.0150    0.1127 H   0  0  0  0  0  0  0  0  0  0  0  0
   -0.6650   -3.0332    1.0993 H   0  0  0  0  0  0  0  0  0  0  0  0
   -2.4087   -3.6370    0.8675 H   0  0  0  0  0  0  0  0  0  0  0  0
   -4.1739   -2.8172    1.4472 H   0  0  0  0  0  0  0  0  0  0  0  0
   -9.0624    0.9403    2.0408 H   0  0  0  0  0  0  0  0  0  0  0  0
  -10.3302    3.0710    2.6286 H   0  0  0  0  0  0  0  0  0  0  0  0
  -10.3875    4.5841    1.7578 H   0  0  0  0  0  0  0  0  0  0  0  0
  -11.6936    2.9435    0.5258 H   0  0  0  0  0  0  0  0  0  0  0  0
  -10.2891    3.4739   -0.4183 H   0  0  0  0  0  0  0  0  0  0  0  0
  -11.9801    0.7115    0.5577 H   0  0  0  0  0  0  0  0  0  0  0  0
   -7.7373    6.6650    2.5546 H   0  0  0  0  0  0  0  0  0  0  0  0
   -7.8159    6.6919    0.7765 H   0  0  0  0  0  0  0  0  0  0  0  0
   -9.2448    6.2618    1.7270 H   0  0  0  0  0  0  0  0  0  0  0  0
   -5.5832    2.4069    1.5126 H   0  0  0  0  0  0  0  0  0  0  0  0
   -5.5502    6.2838    1.5267 H   0  0  0  0  0  0  0  0  0  0  0  0
   -1.1942    2.1630    0.2009 H   0  0  0  0  0  0  0  0  0  0  0  0
   -4.3912    1.1675    1.5245 H   0  0  0  0  0  0  0  0  0  0  0  0
    0.6211    5.7164    1.1507 H   0  0  0  0  0  0  0  0  0  0  0  0
    0.2681    5.9134    2.7143 H   0  0  0  0  0  0  0  0  0  0  0  0
    0.8903    4.3911    1.8956 H   0  0  0  0  0  0  0  0  0  0  0  0
   -3.9371    7.6018    1.2628 H   0  0  0  0  0  0  0  0  0  0  0  0
   -1.3293    7.8233    2.9432 H   0  0  0  0  0  0  0  0  0  0  0  0
   -2.1862    9.0335    2.4631 H   0  0  0  0  0  0  0  0  0  0  0  0
   -2.8077    7.5769    3.5190 H   0  0  0  0  0  0  0  0  0  0  0  0
   -0.4559    7.6938   -1.0296 H   0  0  0  0  0  0  0  0  0  0  0  0
   -0.1032    7.4826    1.9609 H   0  0  0  0  0  0  0  0  0  0  0  0
    1.1161    7.5230    0.9673 H   0  0  0  0  0  0  0  0  0  0  0  0
   -0.0550    8.9042    1.1364 H   0  0  0  0  0  0  0  0  0  0  0  0
   -0.1429    2.6861   -1.1734 H   0  0  0  0  0  0  0  0  0  0  0  0
   -1.4636    2.7564    2.8511 H   0  0  0  0  0  0  0  0  0  0  0  0
   -0.7341   -2.6592   -1.3370 H   0  0  0  0  0  0  0  0  0  0  0  0
    0.1486    0.9172   -2.0847 H   0  0  0  0  0  0  0  0  0  0  0  0
    1.7141    0.9500   -5.5741 H   0  0  0  0  0  0  0  0  0  0  0  0
    0.3763    6.2623   -2.4239 H   0  0  0  0  0  0  0  0  0  0  0  0
    2.5812    6.3519   -4.9490 H   0  0  0  0  0  0  0  0  0  0  0  0
    0.9674    6.3849   -5.7065 H   0  0  0  0  0  0  0  0  0  0  0  0
    1.1822    6.8815   -4.0439 H   0  0  0  0  0  0  0  0  0  0  0  0
    2.4120    4.5658   -6.8058 H   0  0  0  0  0  0  0  0  0  0  0  0
    3.4316    1.8018   -6.0021 H   0  0  0  0  0  0  0  0  0  0  0  0
    4.0136    2.7709   -7.3265 H   0  0  0  0  0  0  0  0  0  0  0  0
    4.2328    3.3291   -5.6426 H   0  0  0  0  0  0  0  0  0  0  0  0
    1.1577    2.0290   -7.0406 H   0  0  0  0  0  0  0  0  0  0  0  0
    2.4970   -2.3953   -5.3540 H   0  0  0  0  0  0  0  0  0  0  0  0
    0.8432   -2.3542   -6.0290 H   0  0  0  0  0  0  0  0  0  0  0  0
    1.8999   -0.9559   -6.1897 H   0  0  0  0  0  0  0  0  0  0  0  0
   -0.4415   -3.8903   -3.0036 H   0  0  0  0  0  0  0  0  0  0  0  0
    0.9498   -3.9771   -4.0652 H   0  0  0  0  0  0  0  0  0  0  0  0
    1.4456   -5.2212   -2.0197 H   0  0  0  0  0  0  0  0  0  0  0  0
    2.5098   -3.7994   -2.1682 H   0  0  0  0  0  0  0  0  0  0  0  0
    0.5371   -5.5125    0.0549 H   0  0  0  0  0  0  0  0  0  0  0  0
   -2.4489   -2.7758    2.8794 H   0  0  0  0  0  0  0  0  0  0  0  0
   -1.2586   -3.9459    2.2340 H   0  0  0  0  0  0  0  0  0  0  0  0
   -0.4017   -4.1434    3.8715 H   0  0  0  0  0  0  0  0  0  0  0  0
    0.6626   -2.8641    3.1760 H   0  0  0  0  0  0  0  0  0  0  0  0
   -1.4969   -3.4284    5.6247 H   0  0  0  0  0  0  0  0  0  0  0  0
   -3.0172   -0.4859    3.6069 H   0  0  0  0  0  0  0  0  0  0  0  0
   -1.8855   -0.2198    4.8235 H   0  0  0  0  0  0  0  0  0  0  0  0
   -2.3458    1.1589    3.9193 H   0  0  0  0  0  0  0  0  0  0  0  0
   -2.5457    5.0688    3.2473 H   0  0  0  0  0  0  0  0  0  0  0  0
   -0.9624    4.8662    3.5978 H   0  0  0  0  0  0  0  0  0  0  0  0
   -1.6638    6.4307    2.7329 H   0  0  0  0  0  0  0  0  0  0  0  0
   -9.3954   -2.4283    2.3566 H   0  0  0  0  0  0  0  0  0  0  0  0
   -9.8560   -0.9790    1.5485 H   0  0  0  0  0  0  0  0  0  0  0  0
  -10.5870   -2.8920    0.1940 H   0  0  0  0  0  0  0  0  0  0  0  0
   -9.3620   -1.9465   -0.6696 H   0  0  0  0  0  0  0  0  0  0  0  0
  -10.1556   -5.1445    0.1643 H   0  0  0  0  0  0  0  0  0  0  0  0
   -5.9764   -3.9885    0.7350 H   0  0  0  0  0  0  0  0  0  0  0  0
   -5.9920   -4.0135    2.4827 H   0  0  0  0  0  0  0  0  0  0  0  0
   -7.4991   -4.1115    1.7128 H   0  0  0  0  0  0  0  0  0  0  0  0
  1  2  1  0  0  0  0
  1 88  1  0  0  0  0
  1 89  1  0  0  0  0
  1 90  1  0  0  0  0
  2  3  1  0  0  0  0
  2  4  1  0  0  0  0
  2 91  1  0  0  0  0
  3 92  1  0  0  0  0
  4  5  2  0  0  0  0
  4 29  1  0  0  0  0
  5  6  1  0  0  0  0
  5  7  1  0  0  0  0
  6 93  1  0  0  0  0
  6 94  1  0  0  0  0
  6 95  1  0  0  0  0
  7  8  2  0  0  0  0
  7 30  1  0  0  0  0
  8  9  1  0  0  0  0
  8 96  1  0  0  0  0
  9 10  2  0  0  0  0
  9 86  1  0  0  0  0
 10 11  1  0  0  0  0
 11 12  2  0  0  0  0
 11 80  1  0  0  0  0
 12 13  1  0  0  0  0
 12 97  1  0  0  0  0
 13 14  2  0  0  0  0
 13 23  1  0  0  0  0
 14 15  1  0  0  0  0
 14 20  1  0  0  0  0
 15 16  1  0  0  0  0
 15 98  1  0  0  0  0
 15 99  1  0  0  0  0
 16 17  1  0  0  0  0
 16100  1  0  0  0  0
 16101  1  0  0  0  0
 17 18  1  0  0  0  0
 17 19  2  0  0  0  0
 18102  1  0  0  0  0
 20 21  1  0  0  0  0
 20 22  2  0  0  0  0
 21103  1  0  0  0  0
 21104  1  0  0  0  0
 21105  1  0  0  0  0
 22 23  1  0  0  0  0
 22 24  1  0  0  0  0
 23106  1  0  0  0  0
 24 25  2  0  0  0  0
 24107  1  0  0  0  0
 25 26  1  0  0  0  0
 25 33  1  0  0  0  0
 26 27  2  0  0  0  0
 27 28  1  0  0  0  0
 27 31  1  0  0  0  0
 28 29  2  0  0  0  0
 28108  1  0  0  0  0
 29 30  1  0  0  0  0
 30109  1  0  0  0  0
 31 32  1  0  0  0  0
 31 33  2  0  0  0  0
 32110  1  0  0  0  0
 32111  1  0  0  0  0
 32112  1  0  0  0  0
 33 34  1  0  0  0  0
 34 35  1  0  0  0  0
 34 36  1  0  0  0  0
 34113  1  0  0  0  0
 35114  1  0  0  0  0
 35115  1  0  0  0  0
 35116  1  0  0  0  0
 36 37  1  0  0  0  0
 37 38  1  0  0  0  0
 37 39  1  0  0  0  0
 37117  1  0  0  0  0
 38118  1  0  0  0  0
 38119  1  0  0  0  0
 38120  1  0  0  0  0
 39 40  2  0  0  0  0
 39 78  1  0  0  0  0
 40 41  1  0  0  0  0
 40 55  1  0  0  0  0
 41 42  1  0  0  0  0
 41121  1  0  0  0  0
 42 43  1  0  0  0  0
 42 78  2  0  0  0  0
 43 44  2  0  0  0  0
 43122  1  0  0  0  0
 44 45  1  0  0  0  0
 44 76  1  0  0  0  0
 45 46  2  0  0  0  0
 46 47  1  0  0  0  0
 46 70  1  0  0  0  0
 47 48  2  0  0  0  0
 47123  1  0  0  0  0
 48 49  1  0  0  0  0
 48 64  1  0  0  0  0
 49 50  1  0  0  0  0
 49124  1  0  0  0  0
 50 51  2  0  0  0  0
 50 62  1  0  0  0  0
 51 52  1  0  0  0  0
 51125  1  0  0  0  0
 52 53  2  0  0  0  0
 52 58  1  0  0  0  0
 53 54  1  0  0  0  0
 54 55  2  0  0  0  0
 54 56  1  0  0  0  0
 55126  1  0  0  0  0
 56 57  1  0  0  0  0
 56 58  2  0  0  0  0
 57127  1  0  0  0  0
 57128  1  0  0  0  0
 57129  1  0  0  0  0
 58 59  1  0  0  0  0
 59 60  1  0  0  0  0
 59 61  1  0  0  0  0
 59130  1  0  0  0  0
 60131  1  0  0  0  0
 60132  1  0  0  0  0
 60133  1  0  0  0  0
 61134  1  0  0  0  0
 62 63  1  0  0  0  0
 62 64  2  0  0  0  0
 63135  1  0  0  0  0
 63136  1  0  0  0  0
 63137  1  0  0  0  0
 64 65  1  0  0  0  0
 65 66  1  0  0  0  0
 65138  1  0  0  0  0
 65139  1  0  0  0  0
 66 67  1  0  0  0  0
 66140  1  0  0  0  0
 66141  1  0  0  0  0
 67 68  1  0  0  0  0
 67 69  2  0  0  0  0
 68142  1  0  0  0  0
 70 71  1  0  0  0  0
 70 76  2  0  0  0  0
 71 72  1  0  0  0  0
 71143  1  0  0  0  0
 71144  1  0  0  0  0
 72 73  1  0  0  0  0
 72145  1  0  0  0  0
 72146  1  0  0  0  0
 73 74  1  0  0  0  0
 73 75  2  0  0  0  0
 74147  1  0  0  0  0
 76 77  1  0  0  0  0
 77148  1  0  0  0  0
 77149  1  0  0  0  0
 77150  1  0  0  0  0
 78 79  1  0  0  0  0
 79151  1  0  0  0  0
 79152  1  0  0  0  0
 79153  1  0  0  0  0
 80 81  1  0  0  0  0
 80 86  2  0  0  0  0
 81 82  1  0  0  0  0
 81154  1  0  0  0  0
 81155  1  0  0  0  0
 82 83  1  0  0  0  0
 82156  1  0  0  0  0
 82157  1  0  0  0  0
 83 84  1  0  0  0  0
 83 85  2  0  0  0  0
 84158  1  0  0  0  0
 86 87  1  0  0  0  0
 87159  1  0  0  0  0
 87160  1  0  0  0  0
 87161  1  0  0  0  0
M  END
>  <DRUGBANK_ID>
DB15351

>  <COMMON_NAME>
Dihematoporphyrin ether

>  <CAS_NUMBER>
97067-70-4

>  <UNII>
625J2HS54G

>  <SYNONYMS>
bis-1-(8-(1-hydroxyethyl)deuteroporphyrin-3-yl)ethyl ether; DHP ether; Dihematoporphyrin ether

$$$$
