
 OpenBabel10282417133D

 26 25  0  0  1  0  0  0  0  0999 V2000
   -3.5570   -4.4082   -3.2750 C   0  0  0  0  0  0  0  0  0  0  0  0
   -2.0676   -4.6831   -3.4152 C   0  0  0  0  0  0  0  0  0  0  0  0
   -1.2776   -3.4613   -3.8940 C   0  0  0  0  0  0  0  0  0  0  0  0
   -1.4853   -2.1771   -3.0765 C   0  0  0  0  0  0  0  0  0  0  0  0
    1.2147   -0.9044   -2.2167 C   0  0  0  0  0  0  0  0  0  0  0  0
   -0.9145   -2.2128   -1.6512 C   0  0  2  0  0  0  0  0  0  0  0  0
    0.6302   -2.1977   -1.6338 C   0  0  2  0  0  0  0  0  0  0  0  0
    0.7497    0.2335   -1.4882 O   0  0  0  0  0  0  0  0  0  0  0  0
   -1.4247   -3.3334   -0.9312 O   0  0  0  0  0  0  0  0  0  0  0  0
    1.0762   -2.3537   -0.2794 O   0  0  0  0  0  0  0  0  0  0  0  0
   -1.2942   -1.3452   -1.1006 H   0  0  0  0  0  0  0  0  0  0  0  0
    1.0263   -3.0618   -2.1761 H   0  0  0  0  0  0  0  0  0  0  0  0
   -3.7647   -3.5702   -2.6035 H   0  0  0  0  0  0  0  0  0  0  0  0
   -4.0677   -5.2791   -2.8568 H   0  0  0  0  0  0  0  0  0  0  0  0
   -3.9940   -4.1803   -4.2515 H   0  0  0  0  0  0  0  0  0  0  0  0
   -1.6722   -5.0592   -2.4679 H   0  0  0  0  0  0  0  0  0  0  0  0
   -1.9185   -5.5021   -4.1277 H   0  0  0  0  0  0  0  0  0  0  0  0
   -0.2118   -3.7160   -3.9287 H   0  0  0  0  0  0  0  0  0  0  0  0
   -1.5671   -3.2521   -4.9312 H   0  0  0  0  0  0  0  0  0  0  0  0
   -1.0487   -1.3409   -3.6328 H   0  0  0  0  0  0  0  0  0  0  0  0
   -2.5519   -1.9370   -3.0280 H   0  0  0  0  0  0  0  0  0  0  0  0
    2.3047   -0.9131   -2.1315 H   0  0  0  0  0  0  0  0  0  0  0  0
    0.9666   -0.7755   -3.2746 H   0  0  0  0  0  0  0  0  0  0  0  0
   -0.1974    0.3562   -1.6726 H   0  0  0  0  0  0  0  0  0  0  0  0
   -0.7034   -3.9897   -0.8579 H   0  0  0  0  0  0  0  0  0  0  0  0
    0.8112   -1.5414    0.1930 H   0  0  0  0  0  0  0  0  0  0  0  0
  1 13  1  0  0  0  0
  1 14  1  0  0  0  0
  1 15  1  0  0  0  0
  2  1  1  0  0  0  0
  2 16  1  0  0  0  0
  2 17  1  0  0  0  0
  3  2  1  0  0  0  0
  3 18  1  0  0  0  0
  3 19  1  0  0  0  0
  4  3  1  0  0  0  0
  4 20  1  0  0  0  0
  4 21  1  0  0  0  0
  5 22  1  0  0  0  0
  5 23  1  0  0  0  0
  6  9  1  0  0  0  0
  6 11  1  1  0  0  0
  6  7  1  0  0  0  0
  6  4  1  0  0  0  0
  7  5  1  0  0  0  0
  7 10  1  0  0  0  0
  7 12  1  6  0  0  0
  8  5  1  0  0  0  0
  8 24  1  0  0  0  0
  9 25  1  0  0  0  0
 10 26  1  0  0  0  0
M  END
>  <DRUGBANK_ID>
DB04079

>  <SECONDARY_ACCESSION_NUMBERS>
EXPT01791

>  <COMMON_NAME>
Heptane-1,2,3-Triol

$$$$
