U15
 OpenBabel10282417173D

 59 59  0  0  0  0  0  0  0  0999 V2000
   12.2723    4.5215   -6.9548 O   0  0  0  0  0  0  0  0  0  0  0  0
   11.0749    4.3596   -6.7616 C   0  0  0  0  0  0  0  0  0  0  0  0
   10.1770    5.0535   -7.5059 O   0  0  0  0  0  0  0  0  0  0  0  0
    8.7614    5.0124   -7.3047 C   0  0  0  0  0  0  0  0  0  0  0  0
   10.5457    3.4238   -5.6575 C   0  0  1  0  0  0  0  0  0  0  0  0
   10.9254    1.9522   -5.9558 C   0  0  0  0  0  0  0  0  0  0  0  0
   12.4292    1.6424   -6.1050 C   0  0  0  0  0  0  0  0  0  0  0  0
   13.2355    1.9400   -4.8451 C   0  0  0  0  0  0  0  0  0  0  0  0
   12.6521    0.1795   -6.4757 C   0  0  0  0  0  0  0  0  0  0  0  0
   11.0016    3.8844   -4.3312 N   0  0  0  0  0  0  0  0  0  0  0  0
   10.3159    4.2332   -3.2045 C   0  0  0  0  0  0  0  0  0  0  0  0
   10.9334    4.4753   -2.1728 O   0  0  0  0  0  0  0  0  0  0  0  0
    8.8057    4.4525   -3.3253 C   0  0  2  0  0  0  0  0  0  0  0  0
    8.5879    5.8590   -3.8204 C   0  0  0  0  0  0  0  0  0  0  0  0
    8.0488    4.2544   -2.1048 N   0  0  0  0  0  0  0  0  0  0  0  0
    7.1678    3.2389   -1.8400 C   0  0  0  0  0  0  0  0  0  0  0  0
    6.6562    3.1730   -0.7226 O   0  0  0  0  0  0  0  0  0  0  0  0
    6.8494    2.1878   -2.9278 C   0  0  1  0  0  0  0  0  0  0  0  0
    6.2853    2.8413   -4.0818 O   0  0  0  0  0  0  0  0  0  0  0  0
    8.0575    1.2918   -3.3598 C   0  0  2  0  0  0  0  0  0  0  0  0
    7.5791    0.2631   -4.3243 N   0  0  0  0  0  0  0  0  0  0  0  0
    8.8626    0.7129   -2.2097 C   0  0  0  0  0  0  0  0  0  0  0  0
    9.1405   -0.6494   -2.1113 C   0  0  0  0  0  0  0  0  0  0  0  0
    9.8475   -1.1526   -1.0179 C   0  0  0  0  0  0  0  0  0  0  0  0
   10.2939   -0.3061    0.0006 C   0  0  0  0  0  0  0  0  0  0  0  0
   11.0568   -0.8106    1.1761 C   0  0  0  0  0  0  0  0  0  0  0  0
   10.0569    1.0510   -0.0946 C   0  0  0  0  0  0  0  0  0  0  0  0
    9.4027    1.5398   -1.2089 C   0  0  0  0  0  0  0  0  0  0  0  0
    9.4621    3.4346   -5.6585 H   0  0  0  0  0  0  0  0  0  0  0  0
    8.4219    3.7769   -4.0725 H   0  0  0  0  0  0  0  0  0  0  0  0
    6.0656    1.5378   -2.5210 H   0  0  0  0  0  0  0  0  0  0  0  0
    8.7666    1.8584   -3.9596 H   0  0  0  0  0  0  0  0  0  0  0  0
    8.3695    4.0109   -7.4876 H   0  0  0  0  0  0  0  0  0  0  0  0
    8.4991    5.3341   -6.3053 H   0  0  0  0  0  0  0  0  0  0  0  0
    8.2998    5.7265   -7.9889 H   0  0  0  0  0  0  0  0  0  0  0  0
   10.5089    1.2991   -5.1786 H   0  0  0  0  0  0  0  0  0  0  0  0
   10.4180    1.6608   -6.8882 H   0  0  0  0  0  0  0  0  0  0  0  0
   12.8349    2.2307   -6.9326 H   0  0  0  0  0  0  0  0  0  0  0  0
   12.7802    1.4686   -3.9668 H   0  0  0  0  0  0  0  0  0  0  0  0
   14.2664    1.5929   -4.9381 H   0  0  0  0  0  0  0  0  0  0  0  0
   13.3350    3.0085   -4.6762 H   0  0  0  0  0  0  0  0  0  0  0  0
   12.1545   -0.0691   -7.4173 H   0  0  0  0  0  0  0  0  0  0  0  0
   13.7244   -0.0055   -6.6048 H   0  0  0  0  0  0  0  0  0  0  0  0
   12.2821   -0.4886   -5.6921 H   0  0  0  0  0  0  0  0  0  0  0  0
   11.9928    4.0226   -4.1924 H   0  0  0  0  0  0  0  0  0  0  0  0
    8.8835    6.5967   -3.0731 H   0  0  0  0  0  0  0  0  0  0  0  0
    9.2050    6.0574   -4.6956 H   0  0  0  0  0  0  0  0  0  0  0  0
    7.5308    5.9917   -4.0677 H   0  0  0  0  0  0  0  0  0  0  0  0
    8.3525    4.7711   -1.2832 H   0  0  0  0  0  0  0  0  0  0  0  0
    5.5311    3.3597   -3.7412 H   0  0  0  0  0  0  0  0  0  0  0  0
    7.0488    0.7446   -5.0540 H   0  0  0  0  0  0  0  0  0  0  0  0
    6.8926   -0.3197   -3.8446 H   0  0  0  0  0  0  0  0  0  0  0  0
    8.8232   -1.3386   -2.8891 H   0  0  0  0  0  0  0  0  0  0  0  0
   10.0452   -2.2182   -0.9709 H   0  0  0  0  0  0  0  0  0  0  0  0
   12.0383   -0.3259    1.2055 H   0  0  0  0  0  0  0  0  0  0  0  0
   10.5116   -0.5822    2.0970 H   0  0  0  0  0  0  0  0  0  0  0  0
   11.2031   -1.8898    1.1086 H   0  0  0  0  0  0  0  0  0  0  0  0
   10.3825    1.7503    0.6731 H   0  0  0  0  0  0  0  0  0  0  0  0
    9.3477    2.6140   -1.2221 H   0  0  0  0  0  0  0  0  0  0  0  0
  1  2  2  0  0  0  0
  2  3  1  0  0  0  0
  2  5  1  0  0  0  0
  3  4  1  0  0  0  0
  4 33  1  0  0  0  0
  4 34  1  0  0  0  0
  4 35  1  0  0  0  0
  5  6  1  0  0  0  0
  5 10  1  0  0  0  0
  5 29  1  6  0  0  0
  6  7  1  0  0  0  0
  6 36  1  0  0  0  0
  6 37  1  0  0  0  0
  7  8  1  0  0  0  0
  7  9  1  0  0  0  0
  7 38  1  0  0  0  0
  8 39  1  0  0  0  0
  8 40  1  0  0  0  0
  8 41  1  0  0  0  0
  9 42  1  0  0  0  0
  9 43  1  0  0  0  0
  9 44  1  0  0  0  0
 10 11  1  0  0  0  0
 10 45  1  0  0  0  0
 11 12  2  0  0  0  0
 13 15  1  0  0  0  0
 13 30  1  6  0  0  0
 13 14  1  0  0  0  0
 13 11  1  0  0  0  0
 14 46  1  0  0  0  0
 14 47  1  0  0  0  0
 14 48  1  0  0  0  0
 15 16  1  0  0  0  0
 15 49  1  0  0  0  0
 16 17  2  0  0  0  0
 16 18  1  0  0  0  0
 18 19  1  0  0  0  0
 18 31  1  1  0  0  0
 19 50  1  0  0  0  0
 20 22  1  0  0  0  0
 20 32  1  6  0  0  0
 20 21  1  0  0  0  0
 20 18  1  0  0  0  0
 21 51  1  0  0  0  0
 21 52  1  0  0  0  0
 22 23  2  0  0  0  0
 22 28  1  0  0  0  0
 23 24  1  0  0  0  0
 23 53  1  0  0  0  0
 24 25  2  0  0  0  0
 24 54  1  0  0  0  0
 25 26  1  0  0  0  0
 25 27  1  0  0  0  0
 26 55  1  0  0  0  0
 26 56  1  0  0  0  0
 26 57  1  0  0  0  0
 27 28  2  0  0  0  0
 27 58  1  0  0  0  0
 28 59  1  0  0  0  0
M  END
>  <DRUGBANK_ID>
DB08669

>  <COMMON_NAME>
METHYL N-[(2S,3R)-3-AMINO-2-HYDROXY-3-(4-METHYLPHENYL)PROPANOYL]-D-ALANYL-D-LEUCINATE

$$$$
