
 OpenBabel10282417213D

  1  0  0  0  0  0  0  0  0  0999 V2000
    1.0789    0.0523    0.0323 La  0  1  0  0  0  0  0  0  0  0  0  0
M  CHG  1   1   3
M  END
>  <DRUGBANK_ID>
DB14579

>  <COMMON_NAME>
Lanthanum III cation

>  <CAS_NUMBER>
16096-89-2

>  <UNII>
O7FU5X12W5

>  <SYNONYMS>
Lanthanum cation (3+); Lanthanum cation (La3+); Lanthanum ion; Lanthanum, ion (La3+); lanthanum(3+) ion; Lanthanum(3+) ions; lanthanum(III) cation

$$$$
