719
 OpenBabel10282417103D

 44 47  0  0  0  0  0  0  0  0999 V2000
    0.7290    1.2273   -0.2676 N   0  0  0  0  0  0  0  0  0  0  0  0
   -3.0455   -0.6618    2.0517 N   0  0  0  0  0  0  0  0  0  0  0  0
   -0.7805   -1.2675    0.2925 C   0  0  0  0  0  0  0  0  0  0  0  0
    0.6710   -1.3209   -0.1790 C   0  0  0  0  0  0  0  0  0  0  0  0
   -1.4442   -0.0128   -0.2711 C   0  0  0  0  0  0  0  0  0  0  0  0
    1.3996   -0.0084    0.1996 C   0  0  0  0  0  0  0  0  0  0  0  0
   -0.6739    1.2254    0.2003 C   0  0  0  0  0  0  0  0  0  0  0  0
   -1.4113   -2.1540    1.1042 C   0  0  0  0  0  0  0  0  0  0  0  0
   -0.7582   -3.4303    1.4996 C   0  0  0  0  0  0  0  0  0  0  0  0
   -2.8311   -1.8952    1.5088 C   0  0  0  0  0  0  0  0  0  0  0  0
   -1.2839   -4.6326    0.9922 C   0  0  0  0  0  0  0  0  0  0  0  0
   -2.4534   -4.5933    0.0437 C   0  0  0  0  0  0  0  0  0  0  0  0
   -3.7342   -4.2232    0.7864 C   0  0  0  0  0  0  0  0  0  0  0  0
   -3.8668   -2.8183    1.3275 C   0  0  0  0  0  0  0  0  0  0  0  0
    0.7873    1.3486   -1.7268 C   0  0  0  0  0  0  0  0  0  0  0  0
    0.2881   -3.4779    2.4274 C   0  0  0  0  0  0  0  0  0  0  0  0
   -0.7733   -5.8629    1.4266 C   0  0  0  0  0  0  0  0  0  0  0  0
   -5.1587   -2.4189    1.7107 C   0  0  0  0  0  0  0  0  0  0  0  0
    0.8059   -4.7103    2.8396 C   0  0  0  0  0  0  0  0  0  0  0  0
    0.2728   -5.8994    2.3437 C   0  0  0  0  0  0  0  0  0  0  0  0
   -5.3901   -1.1434    2.2064 C   0  0  0  0  0  0  0  0  0  0  0  0
   -4.3093   -0.3038    2.3514 C   0  0  0  0  0  0  0  0  0  0  0  0
    0.6879   -1.4493   -1.2686 H   0  0  0  0  0  0  0  0  0  0  0  0
    1.2322   -2.1674    0.2239 H   0  0  0  0  0  0  0  0  0  0  0  0
   -1.4551   -0.0846   -1.3644 H   0  0  0  0  0  0  0  0  0  0  0  0
   -2.4986    0.1067   -0.0270 H   0  0  0  0  0  0  0  0  0  0  0  0
    2.4305   -0.0271   -0.1752 H   0  0  0  0  0  0  0  0  0  0  0  0
    1.4889    0.0428    1.2942 H   0  0  0  0  0  0  0  0  0  0  0  0
   -0.6852    1.2754    1.2991 H   0  0  0  0  0  0  0  0  0  0  0  0
   -1.1849    2.1344   -0.1385 H   0  0  0  0  0  0  0  0  0  0  0  0
   -2.2521   -3.8977   -0.7804 H   0  0  0  0  0  0  0  0  0  0  0  0
   -2.5813   -5.5776   -0.4226 H   0  0  0  0  0  0  0  0  0  0  0  0
   -4.5632   -4.3885    0.0861 H   0  0  0  0  0  0  0  0  0  0  0  0
   -3.8823   -4.9144    1.6276 H   0  0  0  0  0  0  0  0  0  0  0  0
    0.3399    0.5029   -2.2584 H   0  0  0  0  0  0  0  0  0  0  0  0
    0.2645    2.2529   -2.0569 H   0  0  0  0  0  0  0  0  0  0  0  0
    1.8241    1.4282   -2.0645 H   0  0  0  0  0  0  0  0  0  0  0  0
    0.6914   -2.5595    2.8465 H   0  0  0  0  0  0  0  0  0  0  0  0
   -1.2032   -6.7947    1.0668 H   0  0  0  0  0  0  0  0  0  0  0  0
   -5.9928   -3.1088    1.6091 H   0  0  0  0  0  0  0  0  0  0  0  0
    1.6157   -4.7438    3.5635 H   0  0  0  0  0  0  0  0  0  0  0  0
    0.6627   -6.8571    2.6791 H   0  0  0  0  0  0  0  0  0  0  0  0
   -6.3885   -0.8203    2.4749 H   0  0  0  0  0  0  0  0  0  0  0  0
   -4.4287    0.7136    2.7114 H   0  0  0  0  0  0  0  0  0  0  0  0
  1  6  1  0  0  0  0
  1  7  1  0  0  0  0
  1 15  1  0  0  0  0
  2 10  1  0  0  0  0
  2 22  2  0  0  0  0
  3  4  1  0  0  0  0
  3  5  1  0  0  0  0
  3  8  2  0  0  0  0
  4  6  1  0  0  0  0
  4 23  1  0  0  0  0
  4 24  1  0  0  0  0
  5  7  1  0  0  0  0
  5 25  1  0  0  0  0
  5 26  1  0  0  0  0
  6 27  1  0  0  0  0
  6 28  1  0  0  0  0
  7 29  1  0  0  0  0
  7 30  1  0  0  0  0
  8  9  1  0  0  0  0
  8 10  1  0  0  0  0
  9 11  1  0  0  0  0
  9 16  2  0  0  0  0
 10 14  2  0  0  0  0
 11 12  1  0  0  0  0
 11 17  2  0  0  0  0
 12 13  1  0  0  0  0
 12 31  1  0  0  0  0
 12 32  1  0  0  0  0
 13 14  1  0  0  0  0
 13 33  1  0  0  0  0
 13 34  1  0  0  0  0
 14 18  1  0  0  0  0
 15 35  1  0  0  0  0
 15 36  1  0  0  0  0
 15 37  1  0  0  0  0
 16 19  1  0  0  0  0
 16 38  1  0  0  0  0
 17 20  1  0  0  0  0
 17 39  1  0  0  0  0
 18 21  2  0  0  0  0
 18 40  1  0  0  0  0
 19 20  2  0  0  0  0
 19 41  1  0  0  0  0
 20 42  1  0  0  0  0
 21 22  1  0  0  0  0
 21 43  1  0  0  0  0
 22 44  1  0  0  0  0
M  END
>  <DRUGBANK_ID>
DB00719

>  <SECONDARY_ACCESSION_NUMBERS>
APRD00810

>  <COMMON_NAME>
Azatadine

>  <CAS_NUMBER>
3964-81-6

>  <UNII>
94Z39NID6C

>  <SYNONYMS>
11-(1-Methyl-4-piperidinylidene)-6,11-dihydro-5H-benzo[5,6]cyclohepta[1,2-b]pyridine; 6,11-Dihydro-11-(1-methyl-4-piperidylidene)-5H-benzo(5,6)cyclohepta(1,2-b)pyridine; Azatadin; Azatadina; Azatadine; Azatadinum

$$$$
