
 OpenBabel10282417163D

 45 47  0  0  0  0  0  0  0  0999 V2000
    0.9766    0.1169   -0.3682 C   0  0  0  0  0  0  0  0  0  0  0  0
    0.5967   -1.3639   -0.2081 C   0  0  3  0  0  0  0  0  0  0  0  0
    1.3557   -1.9809    1.0306 C   0  0  0  0  0  0  0  0  0  0  0  0
    0.8711   -1.5418    2.4047 C   0  0  0  0  0  0  0  0  0  0  0  0
    0.3600   -2.4138    3.3960 C   0  0  0  0  0  0  0  0  0  0  0  0
   -0.1498   -1.9211    4.6174 C   0  0  0  0  0  0  0  0  0  0  0  0
   -0.0889   -0.5609    4.8297 C   0  0  0  0  0  0  0  0  0  0  0  0
   -0.4555    0.1198    5.9514 O   0  0  0  0  0  0  0  0  0  0  0  0
    0.0058    1.4501    5.6148 C   0  0  0  0  0  0  0  0  0  0  0  0
    0.4003    1.5848    4.2409 O   0  0  0  0  0  0  0  0  0  0  0  0
    0.4207    0.2781    3.8886 C   0  0  0  0  0  0  0  0  0  0  0  0
    0.9393   -0.1808    2.7006 C   0  0  0  0  0  0  0  0  0  0  0  0
   -0.8752   -1.4138   -0.2427 N   0  0  0  0  0  0  0  0  0  0  0  0
   -1.4631   -2.7487   -0.4433 C   0  0  0  0  0  0  0  0  0  0  0  0
   -1.2522   -3.6904    0.7488 C   0  0  3  0  0  0  0  0  0  0  0  0
   -1.9433   -3.1830    1.8829 O   0  0  0  0  0  0  0  0  0  0  0  0
   -1.6204   -5.1214    0.5846 C   0  0  0  0  0  0  0  0  0  0  0  0
   -2.9195   -5.4557    0.2163 C   0  0  0  0  0  0  0  0  0  0  0  0
   -3.2773   -6.7888    0.1080 C   0  0  0  0  0  0  0  0  0  0  0  0
   -2.3291   -7.7763    0.3727 C   0  0  0  0  0  0  0  0  0  0  0  0
   -2.6515   -9.0992    0.2740 O   0  0  0  0  0  0  0  0  0  0  0  0
   -1.0313   -7.4467    0.7478 C   0  0  0  0  0  0  0  0  0  0  0  0
   -0.0978   -8.4078    1.0018 O   0  0  0  0  0  0  0  0  0  0  0  0
   -0.6692   -6.1229    0.8661 C   0  0  0  0  0  0  0  0  0  0  0  0
    0.4269    0.7536    0.3331 H   0  0  0  0  0  0  0  0  0  0  0  0
    0.7381    0.5086   -1.3594 H   0  0  0  0  0  0  0  0  0  0  0  0
    2.0510    0.2512   -0.1987 H   0  0  0  0  0  0  0  0  0  0  0  0
    0.9697   -1.8685   -1.1090 H   0  0  0  0  0  0  0  0  0  0  0  0
    1.4105   -3.0698    0.9540 H   0  0  0  0  0  0  0  0  0  0  0  0
    2.4176   -1.7217    0.9574 H   0  0  0  0  0  0  0  0  0  0  0  0
    0.2898   -3.4896    3.2246 H   0  0  0  0  0  0  0  0  0  0  0  0
   -0.5754   -2.5873    5.3585 H   0  0  0  0  0  0  0  0  0  0  0  0
   -0.7919    2.1701    5.8202 H   0  0  0  0  0  0  0  0  0  0  0  0
    0.8814    1.6960    6.2280 H   0  0  0  0  0  0  0  0  0  0  0  0
    1.4062    0.5363    2.0524 H   0  0  0  0  0  0  0  0  0  0  0  0
   -1.2815   -0.9412    0.5630 H   0  0  0  0  0  0  0  0  0  0  0  0
   -2.5423   -2.5955   -0.5760 H   0  0  0  0  0  0  0  0  0  0  0  0
   -1.0937   -3.1864   -1.3771 H   0  0  0  0  0  0  0  0  0  0  0  0
   -0.2067   -3.7511    0.9740 H   0  0  0  0  0  0  0  0  0  0  0  0
   -1.5993   -2.2830    2.0150 H   0  0  0  0  0  0  0  0  0  0  0  0
   -3.6458   -4.6651    0.0441 H   0  0  0  0  0  0  0  0  0  0  0  0
   -4.2956   -7.0220   -0.1752 H   0  0  0  0  0  0  0  0  0  0  0  0
   -3.5923   -9.1399    0.0311 H   0  0  0  0  0  0  0  0  0  0  0  0
   -0.5624   -9.2532    0.8516 H   0  0  0  0  0  0  0  0  0  0  0  0
    0.3432   -5.8795    1.1848 H   0  0  0  0  0  0  0  0  0  0  0  0
  1  2  1  0  0  0  0
  1 25  1  0  0  0  0
  1 26  1  0  0  0  0
  1 27  1  0  0  0  0
  2  3  1  0  0  0  0
  2 13  1  0  0  0  0
  2 28  1  0  0  0  0
  3  4  1  0  0  0  0
  3 29  1  0  0  0  0
  3 30  1  0  0  0  0
  4  5  2  0  0  0  0
  4 12  1  0  0  0  0
  5  6  1  0  0  0  0
  5 31  1  0  0  0  0
  6  7  2  0  0  0  0
  6 32  1  0  0  0  0
  7  8  1  0  0  0  0
  7 11  1  0  0  0  0
  8  9  1  0  0  0  0
  9 10  1  0  0  0  0
  9 33  1  0  0  0  0
  9 34  1  0  0  0  0
 10 11  1  0  0  0  0
 11 12  2  0  0  0  0
 12 35  1  0  0  0  0
 13 14  1  0  0  0  0
 13 36  1  0  0  0  0
 14 15  1  0  0  0  0
 14 37  1  0  0  0  0
 14 38  1  0  0  0  0
 15 16  1  0  0  0  0
 15 17  1  0  0  0  0
 15 39  1  0  0  0  0
 16 40  1  0  0  0  0
 17 18  2  0  0  0  0
 17 24  1  0  0  0  0
 18 19  1  0  0  0  0
 18 41  1  0  0  0  0
 19 20  2  0  0  0  0
 19 42  1  0  0  0  0
 20 21  1  0  0  0  0
 20 22  1  0  0  0  0
 21 43  1  0  0  0  0
 22 23  1  0  0  0  0
 22 24  2  0  0  0  0
 23 44  1  0  0  0  0
 24 45  1  0  0  0  0
M  END
>  <DRUGBANK_ID>
DB06814

>  <COMMON_NAME>
Protokylol

>  <CAS_NUMBER>
136-70-9

>  <UNII>
8Y5Y4EEO2V

>  <SYNONYMS>
Protokylol; Protokylolum; Protoquilol

$$$$
