
 OpenBabel10282417193D

 33 34  0  0  0  0  0  0  0  0999 V2000
    4.3093   -0.6089    3.8127 N   0  0  0  0  0  0  0  0  0  0  0  0
    4.3672   -0.3731    2.4230 C   0  0  0  0  0  0  0  0  0  0  0  0
    5.5681   -0.2891    1.8274 N   0  0  0  0  0  0  0  0  0  0  0  0
    5.5711    0.1216    0.5499 C   0  0  0  0  0  0  0  0  0  0  0  0
    6.7825    0.1641   -0.0997 N   0  0  0  0  0  0  0  0  0  0  0  0
    4.5054    0.5069   -0.1610 N   0  0  0  0  0  0  0  0  0  0  0  0
    3.3143    0.3938    0.4442 C   0  0  0  0  0  0  0  0  0  0  0  0
    2.1795    0.8625   -0.2311 N   0  0  0  0  0  0  0  0  0  0  0  0
    0.8850    0.4982    0.3363 C   0  0  0  0  0  0  0  0  0  0  0  0
    0.9195    0.7350    1.8670 C   0  0  2  0  0  0  0  0  0  0  0  0
    1.1854    2.2405    2.2017 C   0  0  1  0  0  0  0  0  0  0  0  0
    0.1186    3.0264    1.6211 O   0  0  0  0  0  0  0  0  0  0  0  0
    1.3207    2.5948    3.7138 C   0  0  2  0  0  0  0  0  0  0  0  0
    1.1274    1.4437    4.6842 C   0  0  0  0  0  0  0  0  0  0  0  0
    0.3843    3.6072    4.1022 O   0  0  0  0  0  0  0  0  0  0  0  0
    1.9345   -0.1783    2.3842 N   0  0  0  0  0  0  0  0  0  0  0  0
    3.1839   -0.0997    1.7510 C   0  0  0  0  0  0  0  0  0  0  0  0
   -0.0600    0.4566    2.2716 H   0  0  0  0  0  0  0  0  0  0  0  0
    5.2312   -0.7300    4.2112 H   0  0  0  0  0  0  0  0  0  0  0  0
    3.6663   -1.3558    4.0435 H   0  0  0  0  0  0  0  0  0  0  0  0
    6.7788    0.4437   -1.0638 H   0  0  0  0  0  0  0  0  0  0  0  0
    7.5894   -0.2033    0.3668 H   0  0  0  0  0  0  0  0  0  0  0  0
    2.2958    1.2534   -1.1518 H   0  0  0  0  0  0  0  0  0  0  0  0
    0.6913   -0.5677    0.1509 H   0  0  0  0  0  0  0  0  0  0  0  0
    0.0705    1.0557   -0.1337 H   0  0  0  0  0  0  0  0  0  0  0  0
    2.1145    2.5861    1.7253 H   0  0  0  0  0  0  0  0  0  0  0  0
    0.2968    3.0701    0.6623 H   0  0  0  0  0  0  0  0  0  0  0  0
    2.3199    3.0183    3.8815 H   0  0  0  0  0  0  0  0  0  0  0  0
    1.9803    0.7659    4.6672 H   0  0  0  0  0  0  0  0  0  0  0  0
    1.0261    1.7969    5.7121 H   0  0  0  0  0  0  0  0  0  0  0  0
    0.2086    0.8952    4.4530 H   0  0  0  0  0  0  0  0  0  0  0  0
   -0.4534    3.3719    3.6621 H   0  0  0  0  0  0  0  0  0  0  0  0
    1.8599   -0.6142    3.2886 H   0  0  0  0  0  0  0  0  0  0  0  0
  1  2  1  0  0  0  0
  1 19  1  0  0  0  0
  1 20  1  0  0  0  0
  2  3  2  0  0  0  0
  2 17  1  0  0  0  0
  3  4  1  0  0  0  0
  4  5  1  0  0  0  0
  4  6  2  0  0  0  0
  5 21  1  0  0  0  0
  5 22  1  0  0  0  0
  7  6  1  0  0  0  0
  7  8  1  0  0  0  0
  8  9  1  0  0  0  0
  8 23  1  0  0  0  0
  9 24  1  0  0  0  0
  9 25  1  0  0  0  0
 10  9  1  0  0  0  0
 10 11  1  0  0  0  0
 10 18  1  1  0  0  0
 11 12  1  0  0  0  0
 11 26  1  6  0  0  0
 12 27  1  0  0  0  0
 13 15  1  0  0  0  0
 13 28  1  1  0  0  0
 13 14  1  0  0  0  0
 13 11  1  0  0  0  0
 14 29  1  0  0  0  0
 14 30  1  0  0  0  0
 14 31  1  0  0  0  0
 15 32  1  0  0  0  0
 16 10  1  0  0  0  0
 16 33  1  0  0  0  0
 17 16  1  0  0  0  0
 17  7  2  0  0  0  0
M  END
>  <DRUGBANK_ID>
DB12575

>  <COMMON_NAME>
Ronopterin

>  <CAS_NUMBER>
185243-78-1

>  <UNII>
1D1Z87AY23

>  <SYNONYMS>
Ronopterin

$$$$
