
 OpenBabel10282417123D

 41 42  0  0  0  0  0  0  0  0999 V2000
   -2.1120    0.6202    0.0048 C   0  0  0  0  0  0  0  0  0  0  0  0
   -2.0086   -0.8271    0.0060 C   0  0  0  0  0  0  0  0  0  0  0  0
   -1.0099    1.3837    0.0091 C   0  0  0  0  0  0  0  0  0  0  0  0
    5.2158   -4.6828    0.0463 C   0  0  0  0  0  0  0  0  0  0  0  0
    5.7273   -5.9213    0.0241 C   0  0  0  0  0  0  0  0  0  0  0  0
   -0.7913   -1.4126   -0.0282 C   0  0  0  0  0  0  0  0  0  0  0  0
    1.5169    1.3144   -0.0159 C   0  0  0  0  0  0  0  0  0  0  0  0
    3.8546    0.6262   -0.3799 C   0  0  0  0  0  0  0  0  0  0  0  0
    2.7260   -5.2871   -0.0069 C   0  0  0  0  0  0  0  0  0  0  0  0
    3.7987   -4.2112    0.0011 C   0  0  0  0  0  0  0  0  0  0  0  0
    2.4564    0.2754   -0.2019 C   0  0  0  0  0  0  0  0  0  0  0  0
    0.2711    0.7703   -0.0184 C   0  0  0  0  0  0  0  0  0  0  0  0
    7.1804   -6.1828    0.0039 C   0  0  0  0  0  0  0  0  0  0  0  0
    3.4669   -2.8775   -0.0565 C   0  0  0  0  0  0  0  0  0  0  0  0
    1.7729   -0.9561   -0.1767 C   0  0  0  0  0  0  0  0  0  0  0  0
    4.5576   -1.9988    0.4439 C   0  0  0  0  0  0  0  0  0  0  0  0
    7.7426   -7.3303   -0.0084 N   0  0  0  0  0  0  0  0  0  0  0  0
    2.1824   -2.2879   -0.2218 N   0  0  0  0  0  0  0  0  0  0  0  0
    0.3802   -0.6202   -0.0671 N   0  0  0  0  0  0  0  0  0  0  0  0
    4.3406    1.7005   -0.0265 O   0  0  0  0  0  0  0  0  0  0  0  0
    7.9873   -5.1207   -0.0060 O   0  0  0  0  0  0  0  0  0  0  0  0
    4.4910   -1.3530    1.4795 O   0  0  0  0  0  0  0  0  0  0  0  0
    5.6304   -1.9068   -0.3630 O   0  0  0  0  0  0  0  0  0  0  0  0
    1.0369   -3.9165    1.5172 O   0  0  0  0  0  0  0  0  0  0  0  0
    0.9373   -6.4158    1.5581 O   0  0  0  0  0  0  0  0  0  0  0  0
    1.7179   -5.1965    1.4815 S   0  0  0  0  0  0  0  0  0  0  0  0
    5.9940   -3.9262    0.0357 H   0  0  0  0  0  0  0  0  0  0  0  0
    5.1203   -6.8112   -0.0044 H   0  0  0  0  0  0  0  0  0  0  0  0
   -3.0956    1.0822   -0.0006 H   0  0  0  0  0  0  0  0  0  0  0  0
   -2.9357   -1.3921    0.0309 H   0  0  0  0  0  0  0  0  0  0  0  0
   -1.0761    2.4677    0.0069 H   0  0  0  0  0  0  0  0  0  0  0  0
   -0.6952   -2.4886   -0.0229 H   0  0  0  0  0  0  0  0  0  0  0  0
    1.7569    2.3680    0.0347 H   0  0  0  0  0  0  0  0  0  0  0  0
    4.4905   -0.0818   -0.9102 H   0  0  0  0  0  0  0  0  0  0  0  0
    2.0680   -5.2036   -0.8743 H   0  0  0  0  0  0  0  0  0  0  0  0
    3.1261   -6.3035    0.0074 H   0  0  0  0  0  0  0  0  0  0  0  0
    7.0273   -8.0644   -0.0018 H   0  0  0  0  0  0  0  0  0  0  0  0
    1.4392   -2.9577    0.0034 H   0  0  0  0  0  0  0  0  0  0  0  0
    8.9026   -5.4560   -0.0285 H   0  0  0  0  0  0  0  0  0  0  0  0
    6.2552   -1.3331    0.1322 H   0  0  0  0  0  0  0  0  0  0  0  0
    2.5469   -5.2197    2.5427 H   0  0  0  0  0  0  0  0  0  0  0  0
  1 29  1  0  0  0  0
  2  1  1  0  0  0  0
  2 30  1  0  0  0  0
  3  1  2  0  0  0  0
  3 31  1  0  0  0  0
  5  4  2  0  0  0  0
  6  2  2  0  0  0  0
  6 32  1  0  0  0  0
  7 33  1  0  0  0  0
  8 34  1  0  0  0  0
  9 35  1  0  0  0  0
  9 36  1  0  0  0  0
 10  4  1  0  0  0  0
 10  9  1  0  0  0  0
 11  7  1  0  0  0  0
 11  8  1  0  0  0  0
 12  3  1  0  0  0  0
 12  7  2  0  0  0  0
 13  5  1  0  0  0  0
 14 10  2  0  0  0  0
 15 11  2  0  0  0  0
 16 14  1  0  0  0  0
 17 13  2  0  0  0  0
 17 37  1  0  0  0  0
 18 14  1  0  0  0  0
 18 15  1  0  0  0  0
 18 38  1  0  0  0  0
 19  6  1  0  0  0  0
 19 12  1  0  0  0  0
 19 15  1  0  0  0  0
 20  8  2  0  0  0  0
 21 13  1  0  0  0  0
 21 39  1  0  0  0  0
 22 16  2  0  0  0  0
 23 16  1  0  0  0  0
 23 40  1  0  0  0  0
 26  9  1  0  0  0  0
 26 24  2  0  0  0  0
 26 25  2  0  0  0  0
 26 41  1  0  0  0  0
 27  4  1  0  0  0  0
 28  5  1  0  0  0  0
M  END
>  <DRUGBANK_ID>
DB02876

>  <SECONDARY_ACCESSION_NUMBERS>
EXPT01303

>  <COMMON_NAME>
3-(4-carbamoyl-1-carboxy-2-methylsulfonyl-buta-1,3-dienylamino)-indolizine-2-carboxylic acid

$$$$
