
 OpenBabel10282417123D

 87 95  0  0  0  0  0  0  0  0999 V2000
    1.0843   -0.0408    0.0351 C   0  0  0  0  0  0  0  0  0  0  0  0
    3.1398   -4.1884    3.5251 C   0  0  0  0  0  0  0  0  0  0  0  0
    3.6292   -8.0000    1.1826 C   0  0  0  0  0  0  0  0  0  0  0  0
   -0.8614  -10.0443   -3.6177 C   0  0  0  0  0  0  0  0  0  0  0  0
   -4.4856   -2.5620    3.1122 C   0  0  0  0  0  0  0  0  0  0  0  0
    0.8741   -1.0473   -1.1674 C   0  0  0  0  0  0  0  0  0  0  0  0
    0.4041   -0.9824   -0.6729 C   0  0  0  0  0  0  0  0  0  0  0  0
    3.3362   -5.3527    2.8495 C   0  0  0  0  0  0  0  0  0  0  0  0
    3.6425   -2.2403    5.2031 C   0  0  0  0  0  0  0  0  0  0  0  0
    4.0954   -2.4469    3.9721 C   0  0  0  0  0  0  0  0  0  0  0  0
    2.3036   -2.4114    5.5143 C   0  0  0  0  0  0  0  0  0  0  0  0
    3.2782   -2.9848    3.0073 C   0  0  0  0  0  0  0  0  0  0  0  0
    1.5646   -3.0873    4.5148 C   0  0  0  0  0  0  0  0  0  0  0  0
   -3.4224   -8.3844   -4.3649 C   0  0  0  0  0  0  0  0  0  0  0  0
   -4.9704   -5.4449    4.0200 C   0  0  0  0  0  0  0  0  0  0  0  0
   -4.7921   -8.5578   -3.7291 C   0  0  0  0  0  0  0  0  0  0  0  0
   -6.0216   -6.3803    3.4452 C   0  0  0  0  0  0  0  0  0  0  0  0
    0.6297   -7.9715   -1.0388 C   0  0  0  0  0  0  0  0  0  0  0  0
   -2.4836   -2.3478    0.8544 C   0  0  0  0  0  0  0  0  0  0  0  0
   -2.7690   -7.5045    1.8216 C   0  0  0  0  0  0  0  0  0  0  0  0
    2.5155   -6.9712    1.0753 C   0  0  0  0  0  0  0  0  0  0  0  0
   -1.3019   -8.7216   -3.0121 C   0  0  0  0  0  0  0  0  0  0  0  0
   -3.7777   -3.7456    2.4732 C   0  0  0  0  0  0  0  0  0  0  0  0
    0.2940   -1.9072   -2.2784 C   0  0  3  0  0  0  0  0  0  0  0  0
    1.9586   -3.2348    3.2630 C   0  0  0  0  0  0  0  0  0  0  0  0
   -1.1159   -0.9824   -0.6729 C   0  0  3  0  0  0  0  0  0  0  0  0
    2.3448   -5.7891    1.7831 C   0  0  0  0  0  0  0  0  0  0  0  0
   -2.4221   -7.9552   -3.3041 C   0  0  0  0  0  0  0  0  0  0  0  0
   -4.0293   -4.9988    2.9128 C   0  0  0  0  0  0  0  0  0  0  0  0
   -0.5143   -7.7492   -1.7407 C   0  0  0  0  0  0  0  0  0  0  0  0
   -2.8660   -3.5346    1.4301 C   0  0  0  0  0  0  0  0  0  0  0  0
    1.0869   -6.9676    0.0069 C   0  0  0  0  0  0  0  0  0  0  0  0
   -1.6226   -2.3010   -0.1115 C   0  0  0  0  0  0  0  0  0  0  0  0
   -2.5864   -6.7932   -2.5929 C   0  0  0  0  0  0  0  0  0  0  0  0
   -2.9815   -6.0002    1.8695 C   0  0  0  0  0  0  0  0  0  0  0  0
   -5.2371   -7.2397   -3.1168 C   0  0  0  0  0  0  0  0  0  0  0  0
   -5.3405   -7.5963    2.8386 C   0  0  0  0  0  0  0  0  0  0  0  0
    0.9878   -3.7178    2.1978 C   0  0  0  0  0  0  0  0  0  0  0  0
   -0.0549   -3.2799   -1.7269 C   0  0  0  0  0  0  0  0  0  0  0  0
    1.2417   -5.0321    1.4778 C   0  0  0  0  0  0  0  0  0  0  0  0
   -1.3450   -4.6267   -0.1378 Fe  0  2  3  0  0  0  0  0  0  0  0  0
   -1.6569   -6.4476   -1.6618 N   0  0  0  0  0  0  0  0  0  0  0  0
   -2.2661   -4.6941    0.9070 N   0  0  0  0  0  0  0  0  0  0  0  0
    0.3782   -5.4720    0.5232 N   0  0  0  0  0  0  0  0  0  0  0  0
   -1.0296   -3.4069   -0.6338 N   0  0  0  0  0  0  0  0  0  0  0  0
   -6.4307   -6.6152   -3.5660 O   0  0  0  0  0  0  0  0  0  0  0  0
   -4.5409   -6.6965   -2.2028 O   0  0  0  0  0  0  0  0  0  0  0  0
   -5.6351   -8.8949    3.3318 O   0  0  0  0  0  0  0  0  0  0  0  0
   -4.5074   -7.4507    1.8899 O   0  0  0  0  0  0  0  0  0  0  0  0
    0.5493    0.6999    0.5920 H   0  0  0  0  0  0  0  0  0  0  0  0
    2.1543   -0.0408    0.0351 H   0  0  0  0  0  0  0  0  0  0  0  0
    3.8376   -3.8811    4.2758 H   0  0  0  0  0  0  0  0  0  0  0  0
    2.2874   -3.5799    3.3059 H   0  0  0  0  0  0  0  0  0  0  0  0
    3.2142   -8.9476    1.4560 H   0  0  0  0  0  0  0  0  0  0  0  0
    4.1264   -8.0872    0.2392 H   0  0  0  0  0  0  0  0  0  0  0  0
    4.3310   -7.6895    1.9282 H   0  0  0  0  0  0  0  0  0  0  0  0
    0.1011   -9.9265   -4.0701 H   0  0  0  0  0  0  0  0  0  0  0  0
   -0.8060  -10.7874   -2.8498 H   0  0  0  0  0  0  0  0  0  0  0  0
   -1.5692  -10.3502   -4.3596 H   0  0  0  0  0  0  0  0  0  0  0  0
   -5.5431   -2.6716    2.9920 H   0  0  0  0  0  0  0  0  0  0  0  0
   -4.2471   -2.5241    4.1546 H   0  0  0  0  0  0  0  0  0  0  0  0
   -4.1648   -1.6571    2.6398 H   0  0  0  0  0  0  0  0  0  0  0  0
    1.7575   -1.5116   -0.7813 H   0  0  0  0  0  0  0  0  0  0  0  0
    1.1197   -0.0809   -1.5556 H   0  0  0  0  0  0  0  0  0  0  0  0
    0.1536   -0.9440   -0.3831 H   0  0  0  0  0  0  0  0  0  0  0  0
    0.9391   -1.7231   -1.2298 H   0  0  0  0  0  0  0  0  0  0  0  0
    4.1885   -5.9612    3.0687 H   0  0  0  0  0  0  0  0  0  0  0  0
    4.3246   -1.9358    5.9692 H   0  0  0  0  0  0  0  0  0  0  0  0
    5.1059   -2.1922    3.7293 H   0  0  0  0  0  0  0  0  0  0  0  0
    1.8678   -2.0639    6.4276 H   0  0  0  0  0  0  0  0  0  0  0  0
    3.6805   -3.2113    2.0420 H   0  0  0  0  0  0  0  0  0  0  0  0
    0.6209   -3.5083    4.7926 H   0  0  0  0  0  0  0  0  0  0  0  0
   -3.4757   -7.6365   -5.1283 H   0  0  0  0  0  0  0  0  0  0  0  0
   -3.1092   -9.3123   -4.7960 H   0  0  0  0  0  0  0  0  0  0  0  0
   -4.4134   -5.9564    4.7769 H   0  0  0  0  0  0  0  0  0  0  0  0
   -5.4498   -4.5889    4.4470 H   0  0  0  0  0  0  0  0  0  0  0  0
   -5.4963   -8.8599   -4.4759 H   0  0  0  0  0  0  0  0  0  0  0  0
   -4.7389   -9.3058   -2.9658 H   0  0  0  0  0  0  0  0  0  0  0  0
   -6.6840   -6.6943    4.2246 H   0  0  0  0  0  0  0  0  0  0  0  0
   -6.5786   -5.8688    2.6882 H   0  0  0  0  0  0  0  0  0  0  0  0
    1.2076   -8.8530   -1.2230 H   0  0  0  0  0  0  0  0  0  0  0  0
   -2.9098   -1.4348    1.2147 H   0  0  0  0  0  0  0  0  0  0  0  0
   -3.3016   -8.1418    2.4961 H   0  0  0  0  0  0  0  0  0  0  0  0
    1.0145   -2.0104   -3.0627 H   0  0  0  0  0  0  0  0  0  0  0  0
   -1.4726   -0.1761   -0.0666 H   0  0  0  0  0  0  0  0  0  0  0  0
   -6.9785   -7.0427   -4.2852 H   0  0  0  0  0  0  0  0  0  0  0  0
   -6.2906   -9.0094    4.0782 H   0  0  0  0  0  0  0  0  0  0  0  0
  1 50  1  0  0  0  0
  1 51  1  0  0  0  0
  2 52  1  0  0  0  0
  2 53  1  0  0  0  0
  3 54  1  0  0  0  0
  3 55  1  0  0  0  0
  3 56  1  0  0  0  0
  4 57  1  0  0  0  0
  4 58  1  0  0  0  0
  4 59  1  0  0  0  0
  5 60  1  0  0  0  0
  5 61  1  0  0  0  0
  5 62  1  0  0  0  0
  6 63  1  0  0  0  0
  6 64  1  0  0  0  0
  6 65  1  0  0  0  0
  7  1  2  0  0  0  0
  7 66  1  0  0  0  0
  8  2  2  0  0  0  0
  8 67  1  0  0  0  0
  9 68  1  0  0  0  0
 10  9  2  0  0  0  0
 10 69  1  0  0  0  0
 11  9  1  0  0  0  0
 11 70  1  0  0  0  0
 12 10  1  0  0  0  0
 12 71  1  0  0  0  0
 13 11  2  0  0  0  0
 13 72  1  0  0  0  0
 14 73  1  0  0  0  0
 14 74  1  0  0  0  0
 15 75  1  0  0  0  0
 15 76  1  0  0  0  0
 16 14  1  0  0  0  0
 16 77  1  0  0  0  0
 16 78  1  0  0  0  0
 17 15  1  0  0  0  0
 17 79  1  0  0  0  0
 17 80  1  0  0  0  0
 18 81  1  0  0  0  0
 19 82  1  0  0  0  0
 20 83  1  0  0  0  0
 21  3  1  0  0  0  0
 22  4  1  0  0  0  0
 23  5  1  0  0  0  0
 24  6  1  0  0  0  0
 24 84  1  0  0  0  0
 25 12  2  0  0  0  0
 25 13  1  0  0  0  0
 26  7  1  0  0  0  0
 26 24  1  0  0  0  0
 26 85  1  0  0  0  0
 27  8  1  0  0  0  0
 27 21  1  0  0  0  0
 28 14  1  0  0  0  0
 28 22  2  0  0  0  0
 29 15  1  0  0  0  0
 29 23  1  0  0  0  0
 30 18  2  0  0  0  0
 30 22  1  0  0  0  0
 31 19  1  0  0  0  0
 31 23  2  0  0  0  0
 32 18  1  0  0  0  0
 32 21  2  0  0  0  0
 33 19  2  0  0  0  0
 33 26  1  0  0  0  0
 34 20  2  0  0  0  0
 34 28  1  0  0  0  0
 35 20  1  0  0  0  0
 35 29  2  0  0  0  0
 36 16  1  0  0  0  0
 37 17  1  0  0  0  0
 38 25  1  0  0  0  0
 39 24  1  0  0  0  0
 39 38  2  0  0  0  0
 40 27  2  0  0  0  0
 40 38  1  0  0  0  0
 42 30  1  0  0  0  0
 42 34  1  0  0  0  0
 42 41  1  0  0  0  0
 43 31  1  0  0  0  0
 43 35  1  0  0  0  0
 43 41  1  0  0  0  0
 44 32  1  0  0  0  0
 44 40  1  0  0  0  0
 44 41  1  0  0  0  0
 45 33  1  0  0  0  0
 45 39  1  0  0  0  0
 45 41  1  0  0  0  0
 46 36  1  0  0  0  0
 46 86  1  0  0  0  0
 47 36  2  0  0  0  0
 48 37  1  0  0  0  0
 48 87  1  0  0  0  0
 49 37  2  0  0  0  0
M  CHG  1  41   2
M  END
>  <DRUGBANK_ID>
DB02468

>  <SECONDARY_ACCESSION_NUMBERS>
EXPT00073

>  <COMMON_NAME>
12-Phenylheme

$$$$
