
 OpenBabel10282417133D

 18 17  0  0  0  0  0  0  0  0999 V2000
    0.8748   -0.3357   -0.1851 C   0  0  0  0  0  0  0  0  0  0  0  0
    0.1594    0.5992   -1.1799 C   0  0  1  0  0  0  0  0  0  0  0  0
    0.3370   -0.8830    0.7652 O   0  0  0  0  0  0  0  0  0  0  0  0
   -0.7457   -0.2794   -1.9445 N   0  0  0  0  0  0  0  0  0  0  0  0
   -0.6128    1.7522   -0.4903 C   0  0  0  0  0  0  0  0  0  0  0  0
    0.2183    2.7049    0.1931 O   0  0  0  0  0  0  0  0  0  0  0  0
    2.1843   -0.5318   -0.4848 O   0  0  0  0  0  0  0  0  0  0  0  0
    0.9646    2.2009    1.5529 S   0  0  0  0  0  0  0  0  0  0  0  0
   -0.0095    1.6699    2.4666 O   0  0  0  0  0  0  0  0  0  0  0  0
    2.1510    1.4820    1.1348 O   0  0  0  0  0  0  0  0  0  0  0  0
    1.5963    3.4967    2.2462 O   0  0  0  0  0  0  0  0  0  0  0  0
    0.9023    1.0360   -1.8587 H   0  0  0  0  0  0  0  0  0  0  0  0
   -1.1875    0.1885   -2.7269 H   0  0  0  0  0  0  0  0  0  0  0  0
   -0.2183   -1.0804   -2.2987 H   0  0  0  0  0  0  0  0  0  0  0  0
   -1.1420    2.3192   -1.2718 H   0  0  0  0  0  0  0  0  0  0  0  0
   -1.3894    1.3817    0.1881 H   0  0  0  0  0  0  0  0  0  0  0  0
    2.6176    0.3156   -0.7202 H   0  0  0  0  0  0  0  0  0  0  0  0
    2.3307    3.1228    2.7867 H   0  0  0  0  0  0  0  0  0  0  0  0
  1  2  1  0  0  0  0
  1  3  2  0  0  0  0
  2  4  1  0  0  0  0
  2  5  1  0  0  0  0
  2 12  1  6  0  0  0
  4 13  1  0  0  0  0
  4 14  1  0  0  0  0
  5  6  1  0  0  0  0
  5 15  1  0  0  0  0
  5 16  1  0  0  0  0
  6  8  1  0  0  0  0
  7  1  1  0  0  0  0
  7 17  1  0  0  0  0
  9  8  2  0  0  0  0
 10  8  2  0  0  0  0
 11  8  1  0  0  0  0
 11 18  1  0  0  0  0
M  END
>  <DRUGBANK_ID>
DB03497

>  <SECONDARY_ACCESSION_NUMBERS>
EXPT02449

>  <COMMON_NAME>
L-serine O-sulfate

>  <CAS_NUMBER>
626-69-7

>  <UNII>
81K4VO7FNP

>  <SYNONYMS>
O-sulfo-L-serine; O-sulfonato-L-serine; Serine O-sulfate; Sulfoserine

$$$$
