
 OpenBabel10282417123D

100102  0  0  0  0  0  0  0  0999 V2000
    5.5763    1.0545   -1.7977 O   0  0  0  0  0  0  0  0  0  0  0  0
    1.8720    3.6892   -2.0182 O   0  0  0  0  0  0  0  0  0  0  0  0
    2.7152   -1.4892   -4.1238 O   0  0  0  0  0  0  0  0  0  0  0  0
    3.2376   -0.6997    3.2401 O   0  0  0  0  0  0  0  0  0  0  0  0
    7.2927    1.6861    4.4569 O   0  0  0  0  0  0  0  0  0  0  0  0
    1.0922   -0.5763   -2.8256 O   0  0  0  0  0  0  0  0  0  0  0  0
    4.6884    0.7088    4.0095 O   0  0  0  0  0  0  0  0  0  0  0  0
   -0.5346   -2.1957   -4.6651 O   0  0  0  0  0  0  0  0  0  0  0  0
    3.3201    1.6974   -6.8126 O   0  0  0  0  0  0  0  0  0  0  0  0
   -1.0126   -1.2754   -6.6734 O   0  0  0  0  0  0  0  0  0  0  0  0
    5.5183    3.6416   -0.4533 O   0  0  0  0  0  0  0  0  0  0  0  0
   -2.8338    3.9449   -7.3176 O   0  0  0  0  0  0  0  0  0  0  0  0
    5.1491    5.0019    1.2834 O   0  0  0  0  0  0  0  0  0  0  0  0
    0.9649    4.0589    1.6072 O   0  0  0  0  0  0  0  0  0  0  0  0
    2.8625    4.8188    2.5263 O   0  0  0  0  0  0  0  0  0  0  0  0
    5.6147    0.3287    0.2831 N   0  0  0  0  0  0  0  0  0  0  0  0
    2.9036    1.8866   -2.7986 N   0  0  0  0  0  0  0  0  0  0  0  0
    1.6825    0.5303   -5.8174 N   0  0  0  0  0  0  0  0  0  0  0  0
    5.8173    2.5066    2.9282 N   0  0  0  0  0  0  0  0  0  0  0  0
   -0.4172    7.1896   -9.6748 N   0  0  0  0  0  0  0  0  0  0  0  0
   -0.8761    5.0151  -10.6705 N   0  0  0  0  0  0  0  0  0  0  0  0
   -1.9877    3.4026   -9.3322 N   0  0  0  0  0  0  0  0  0  0  0  0
   -1.1255    2.7988  -11.3383 N   0  0  0  0  0  0  0  0  0  0  0  0
    3.0216   -0.1952   -1.5001 C   0  0  0  0  0  0  0  0  0  0  0  0
    3.1686    0.4718   -2.8660 C   0  0  1  0  0  0  0  0  0  0  0  0
    5.2576   -0.3650    1.6269 C   0  0  1  0  0  0  0  0  0  0  0  0
    6.6476   -0.6793    2.0901 C   0  0  0  0  0  0  0  0  0  0  0  0
    4.2790   -0.8736   -1.2056 C   0  0  0  0  0  0  0  0  0  0  0  0
   -0.3261    1.1545   -4.1734 C   0  0  0  0  0  0  0  0  0  0  0  0
    7.4748    0.6025    2.3533 C   0  0  0  0  0  0  0  0  0  0  0  0
    0.3513    0.1111   -5.1530 C   0  0  1  0  0  0  0  0  0  0  0  0
    0.2788    1.8408   -2.7040 C   0  0  0  0  0  0  0  0  0  0  0  0
   -1.3632    6.9981   -6.1225 C   0  0  0  0  0  0  0  0  0  0  0  0
   -1.3135    6.8536   -7.6404 C   0  0  0  0  0  0  0  0  0  0  0  0
   -1.6904    5.7141   -5.4076 C   0  0  0  0  0  0  0  0  0  0  0  0
    5.2161    0.2129   -0.9783 C   0  0  0  0  0  0  0  0  0  0  0  0
    1.7484    2.5125   -2.3797 C   0  0  0  0  0  0  0  0  0  0  0  0
   -1.7152    5.7333   -8.5422 C   0  0  0  0  0  0  0  0  0  0  0  0
    4.9774    2.6319    1.6987 C   0  0  3  0  0  0  0  0  0  0  0  0
   -0.5330    4.7629   -5.6149 C   0  0  0  0  0  0  0  0  0  0  0  0
    6.8700    1.6599    3.2962 C   0  0  0  0  0  0  0  0  0  0  0  0
   -1.0243    5.9657   -9.7197 C   0  0  0  0  0  0  0  0  0  0  0  0
    3.4796    2.0240    1.5456 C   0  0  0  0  0  0  0  0  0  0  0  0
    2.2027   -0.4852   -3.3729 C   0  0  0  0  0  0  0  0  0  0  0  0
   -0.5621    7.7256   -8.4162 C   0  0  0  0  0  0  0  0  0  0  0  0
    4.4150   -0.0488    3.0970 C   0  0  0  0  0  0  0  0  0  0  0  0
    1.4469    2.8723   -6.1519 C   0  0  0  0  0  0  0  0  0  0  0  0
    2.2044    1.6769   -6.3168 C   0  0  0  0  0  0  0  0  0  0  0  0
    0.1009    4.2246   -4.5631 C   0  0  0  0  0  0  0  0  0  0  0  0
    0.0516    4.4230   -6.8620 C   0  0  0  0  0  0  0  0  0  0  0  0
   -0.5185   -1.1373   -5.5771 C   0  0  0  0  0  0  0  0  0  0  0  0
    2.4804    2.4921    2.5985 C   0  0  0  0  0  0  0  0  0  0  0  0
    1.1624    3.3892   -4.9101 C   0  0  0  0  0  0  0  0  0  0  0  0
    0.8522    3.3763   -7.2035 C   0  0  0  0  0  0  0  0  0  0  0  0
   -2.2599    4.3304   -8.3491 C   0  0  0  0  0  0  0  0  0  0  0  0
    5.1825    3.8832    0.8484 C   0  0  0  0  0  0  0  0  0  0  0  0
   -1.3566    3.7581  -10.4076 C   0  0  0  0  0  0  0  0  0  0  0  0
    2.1328    3.9110    2.2701 C   0  0  0  0  0  0  0  0  0  0  0  0
    2.7283   -1.4261   -5.1026 H   0  0  0  0  0  0  0  0  0  0  0  0
    2.5893   -0.5855    2.5286 H   0  0  0  0  0  0  0  0  0  0  0  0
   -0.0372   -2.1482   -3.8109 H   0  0  0  0  0  0  0  0  0  0  0  0
    5.8029    2.7608   -0.7694 H   0  0  0  0  0  0  0  0  0  0  0  0
    0.3062    3.3703    1.7810 H   0  0  0  0  0  0  0  0  0  0  0  0
    6.4200    0.9488    0.1923 H   0  0  0  0  0  0  0  0  0  0  0  0
    3.7304    2.4994   -2.7795 H   0  0  0  0  0  0  0  0  0  0  0  0
    2.5439    0.0209   -5.7284 H   0  0  0  0  0  0  0  0  0  0  0  0
    5.4373    2.9553    3.7564 H   0  0  0  0  0  0  0  0  0  0  0  0
    0.1276    7.6229  -10.4061 H   0  0  0  0  0  0  0  0  0  0  0  0
   -0.4236    5.1733  -11.5596 H   0  0  0  0  0  0  0  0  0  0  0  0
   -1.0961    3.0302  -12.3195 H   0  0  0  0  0  0  0  0  0  0  0  0
   -1.6557    1.9472  -11.1452 H   0  0  0  0  0  0  0  0  0  0  0  0
    2.3744   -1.0947   -1.4367 H   0  0  0  0  0  0  0  0  0  0  0  0
    2.5445    0.4708   -0.7800 H   0  0  0  0  0  0  0  0  0  0  0  0
    4.0895    0.3329   -3.4617 H   0  0  0  0  0  0  0  0  0  0  0  0
    4.7182   -1.2529    1.3242 H   0  0  0  0  0  0  0  0  0  0  0  0
    6.5603   -1.3119    2.9709 H   0  0  0  0  0  0  0  0  0  0  0  0
    7.1392   -1.2699    1.3012 H   0  0  0  0  0  0  0  0  0  0  0  0
    4.6180   -1.5335   -2.0035 H   0  0  0  0  0  0  0  0  0  0  0  0
    4.0517   -1.4774   -0.3405 H   0  0  0  0  0  0  0  0  0  0  0  0
   -1.3378    0.8052   -3.9286 H   0  0  0  0  0  0  0  0  0  0  0  0
   -0.5820    1.9232   -4.8983 H   0  0  0  0  0  0  0  0  0  0  0  0
    8.4147    0.2407    2.7902 H   0  0  0  0  0  0  0  0  0  0  0  0
    7.7887    1.1148    1.4384 H   0  0  0  0  0  0  0  0  0  0  0  0
    0.7686   -0.6389   -4.5812 H   0  0  0  0  0  0  0  0  0  0  0  0
    0.0616    1.2127   -1.8377 H   0  0  0  0  0  0  0  0  0  0  0  0
   -0.4287    2.6713   -2.5116 H   0  0  0  0  0  0  0  0  0  0  0  0
   -2.0786    7.7802   -5.8662 H   0  0  0  0  0  0  0  0  0  0  0  0
   -0.3875    7.3309   -5.7159 H   0  0  0  0  0  0  0  0  0  0  0  0
   -2.6538    5.3443   -5.7619 H   0  0  0  0  0  0  0  0  0  0  0  0
   -1.8871    5.8906   -4.3384 H   0  0  0  0  0  0  0  0  0  0  0  0
    5.6134    2.0152    1.1574 H   0  0  0  0  0  0  0  0  0  0  0  0
    3.0815    2.1872    0.5343 H   0  0  0  0  0  0  0  0  0  0  0  0
    3.3966    0.9386    1.5158 H   0  0  0  0  0  0  0  0  0  0  0  0
   -0.0537    8.6425   -8.1311 H   0  0  0  0  0  0  0  0  0  0  0  0
   -0.2645    4.3951   -3.5520 H   0  0  0  0  0  0  0  0  0  0  0  0
    0.0154    5.0265   -7.7200 H   0  0  0  0  0  0  0  0  0  0  0  0
    1.5802    1.8614    2.6584 H   0  0  0  0  0  0  0  0  0  0  0  0
    2.9124    2.4748    3.6013 H   0  0  0  0  0  0  0  0  0  0  0  0
    1.7045    2.8107   -4.2479 H   0  0  0  0  0  0  0  0  0  0  0  0
    1.0491    3.0405   -8.2057 H   0  0  0  0  0  0  0  0  0  0  0  0
  1 36  2  0  0  0  0
  2 37  2  0  0  0  0
  3 44  1  0  0  0  0
  3 59  1  0  0  0  0
  4 46  1  0  0  0  0
  4 60  1  0  0  0  0
  5 41  2  0  0  0  0
  6 44  2  0  0  0  0
  7 46  2  0  0  0  0
  8 51  1  0  0  0  0
  8 61  1  0  0  0  0
  9 48  2  0  0  0  0
 10 51  2  0  0  0  0
 11 56  1  0  0  0  0
 11 62  1  0  0  0  0
 12 55  2  0  0  0  0
 13 56  2  0  0  0  0
 14 58  1  0  0  0  0
 14 63  1  0  0  0  0
 15 58  2  0  0  0  0
 16 36  1  0  0  0  0
 16 64  1  0  0  0  0
 17 37  1  0  0  0  0
 17 65  1  0  0  0  0
 18 48  1  0  0  0  0
 18 66  1  0  0  0  0
 19 39  1  0  0  0  0
 19 41  1  0  0  0  0
 19 67  1  0  0  0  0
 20 42  1  0  0  0  0
 20 45  1  0  0  0  0
 20 68  1  0  0  0  0
 21 42  1  0  0  0  0
 21 57  1  0  0  0  0
 21 69  1  0  0  0  0
 22 55  1  0  0  0  0
 22 57  2  0  0  0  0
 23 57  1  0  0  0  0
 23 70  1  0  0  0  0
 23 71  1  0  0  0  0
 24 28  1  0  0  0  0
 24 72  1  0  0  0  0
 24 73  1  0  0  0  0
 25 44  1  0  0  0  0
 25 74  1  6  0  0  0
 25 24  1  0  0  0  0
 25 17  1  0  0  0  0
 26 16  1  0  0  0  0
 26 27  1  0  0  0  0
 26 46  1  0  0  0  0
 26 75  1  6  0  0  0
 27 30  1  0  0  0  0
 27 76  1  0  0  0  0
 27 77  1  0  0  0  0
 28 36  1  0  0  0  0
 28 78  1  0  0  0  0
 28 79  1  0  0  0  0
 29 32  1  0  0  0  0
 29 80  1  0  0  0  0
 29 81  1  0  0  0  0
 30 41  1  0  0  0  0
 30 82  1  0  0  0  0
 30 83  1  0  0  0  0
 31 51  1  0  0  0  0
 31 84  1  1  0  0  0
 31 29  1  0  0  0  0
 31 18  1  0  0  0  0
 32 37  1  0  0  0  0
 32 85  1  0  0  0  0
 32 86  1  0  0  0  0
 33 34  1  0  0  0  0
 33 35  1  0  0  0  0
 33 87  1  0  0  0  0
 33 88  1  0  0  0  0
 34 38  1  0  0  0  0
 34 45  2  0  0  0  0
 35 40  1  0  0  0  0
 35 89  1  0  0  0  0
 35 90  1  0  0  0  0
 38 42  2  0  0  0  0
 38 55  1  0  0  0  0
 39 43  1  0  0  0  0
 39 56  1  0  0  0  0
 39 91  1  0  0  0  0
 40 49  2  0  0  0  0
 40 50  1  0  0  0  0
 43 52  1  0  0  0  0
 43 92  1  0  0  0  0
 43 93  1  0  0  0  0
 45 94  1  0  0  0  0
 47 48  1  0  0  0  0
 47 53  2  0  0  0  0
 47 54  1  0  0  0  0
 49 53  1  0  0  0  0
 49 95  1  0  0  0  0
 50 54  2  0  0  0  0
 50 96  1  0  0  0  0
 52 58  1  0  0  0  0
 52 97  1  0  0  0  0
 52 98  1  0  0  0  0
 53 99  1  0  0  0  0
 54100  1  0  0  0  0
M  END
>  <DRUGBANK_ID>
DB02223

>  <SECONDARY_ACCESSION_NUMBERS>
EXPT02076

>  <COMMON_NAME>
LY231514 tetra glu

$$$$
