
 OpenBabel10282417133D

 36 38  0  0  0  0  0  0  0  0999 V2000
    0.0062    0.6750    0.0253 C   0  0  0  0  0  0  0  0  0  0  0  0
   -1.2014   -0.0165    0.0560 C   0  0  0  0  0  0  0  0  0  0  0  0
   -1.2117   -1.4195    0.1066 C   0  0  0  0  0  0  0  0  0  0  0  0
    1.1944   -1.4479    0.0676 C   0  0  0  0  0  0  0  0  0  0  0  0
    1.1953   -0.0553    0.0302 C   0  0  0  0  0  0  0  0  0  0  0  0
   -0.7073   -4.1827   -1.2493 C   0  0  1  0  0  0  0  0  0  0  0  0
    0.0083   -3.6958    0.0255 C   0  0  2  0  0  0  0  0  0  0  0  0
   -0.5242   -4.3855    1.1868 O   0  0  0  0  0  0  0  0  0  0  0  0
   -0.3064   -5.6313   -1.4714 C   0  0  0  0  0  0  0  0  0  0  0  0
   -0.4443   -6.4156   -0.1937 C   0  0  0  0  0  0  0  0  0  0  0  0
   -0.5383   -5.7679    1.0523 C   0  0  0  0  0  0  0  0  0  0  0  0
   -0.7166   -6.5327    2.2129 C   0  0  0  0  0  0  0  0  0  0  0  0
   -0.7635   -7.9290    2.1206 C   0  0  0  0  0  0  0  0  0  0  0  0
   -0.6436   -8.5778    0.8962 C   0  0  0  0  0  0  0  0  0  0  0  0
   -0.4801   -7.8155   -0.2522 C   0  0  0  0  0  0  0  0  0  0  0  0
   -0.3574   -8.4159   -1.4748 O   0  0  0  0  0  0  0  0  0  0  0  0
   -0.9260   -8.7251    3.2192 O   0  0  0  0  0  0  0  0  0  0  0  0
   -2.1403   -4.1084   -1.1394 O   0  0  0  0  0  0  0  0  0  0  0  0
   -2.4287    0.5850    0.0253 O   0  0  0  0  0  0  0  0  0  0  0  0
    0.1375    2.0358   -0.0170 O   0  0  0  0  0  0  0  0  0  0  0  0
    2.3976    0.5983   -0.0123 O   0  0  0  0  0  0  0  0  0  0  0  0
   -0.0168   -2.1648    0.1146 C   0  0  0  0  0  0  0  0  0  0  0  0
   -2.1738   -1.9281    0.0959 H   0  0  0  0  0  0  0  0  0  0  0  0
    2.1517   -1.9639    0.0314 H   0  0  0  0  0  0  0  0  0  0  0  0
   -0.4219   -3.5882   -2.1231 H   0  0  0  0  0  0  0  0  0  0  0  0
    1.0715   -3.9745   -0.0311 H   0  0  0  0  0  0  0  0  0  0  0  0
   -0.9432   -6.0654   -2.2496 H   0  0  0  0  0  0  0  0  0  0  0  0
    0.7404   -5.6875   -1.7930 H   0  0  0  0  0  0  0  0  0  0  0  0
   -0.8161   -6.0382    3.1740 H   0  0  0  0  0  0  0  0  0  0  0  0
   -0.6836   -9.6618    0.8569 H   0  0  0  0  0  0  0  0  0  0  0  0
   -0.4238   -9.3789   -1.3679 H   0  0  0  0  0  0  0  0  0  0  0  0
   -0.9826   -8.1692    4.0132 H   0  0  0  0  0  0  0  0  0  0  0  0
   -2.3830   -4.5470   -0.3014 H   0  0  0  0  0  0  0  0  0  0  0  0
   -2.3559    1.5420   -0.0564 H   0  0  0  0  0  0  0  0  0  0  0  0
   -0.7296    2.4630    0.0377 H   0  0  0  0  0  0  0  0  0  0  0  0
    2.1687    1.5488   -0.0097 H   0  0  0  0  0  0  0  0  0  0  0  0
  1  2  2  0  0  0  0
  1  5  1  0  0  0  0
  1 20  1  0  0  0  0
  2  3  1  0  0  0  0
  2 19  1  0  0  0  0
  3 22  2  0  0  0  0
  3 23  1  0  0  0  0
  4  5  2  0  0  0  0
  4 24  1  0  0  0  0
  5 21  1  0  0  0  0
  6  7  1  0  0  0  0
  6  9  1  0  0  0  0
  6 18  1  0  0  0  0
  6 25  1  6  0  0  0
  7  8  1  0  0  0  0
  7 22  1  0  0  0  0
  7 26  1  6  0  0  0
  8 11  1  0  0  0  0
  9 10  1  0  0  0  0
  9 27  1  0  0  0  0
  9 28  1  0  0  0  0
 10 11  2  0  0  0  0
 10 15  1  0  0  0  0
 11 12  1  0  0  0  0
 12 13  2  0  0  0  0
 12 29  1  0  0  0  0
 13 14  1  0  0  0  0
 13 17  1  0  0  0  0
 14 15  2  0  0  0  0
 14 30  1  0  0  0  0
 15 16  1  0  0  0  0
 16 31  1  0  0  0  0
 17 32  1  0  0  0  0
 18 33  1  0  0  0  0
 19 34  1  0  0  0  0
 20 35  1  0  0  0  0
 21 36  1  0  0  0  0
 22  4  1  0  0  0  0
M  END
>  <DRUGBANK_ID>
DB03823

>  <SECONDARY_ACCESSION_NUMBERS>
EXPT01331

>  <COMMON_NAME>
Epigallocatechin

>  <CAS_NUMBER>
970-74-1

>  <UNII>
7Z197MG6QL

>  <SYNONYMS>
(-)-epi-gallocatechin; (-)-epigallocatechin; (-)-epigallocatechol; (âˆ’)-epigallocatechin; 3,3',4',5,5',7-flavanhexol; Antiscurvy factor C2; EGC; Epi-gallocatechin; Galloepicatechin; L-epigallocatechin

$$$$
