
 OpenBabel10282417203D

 24 24  0  0  0  0  0  0  0  0999 V2000
    1.2736   -0.2231    0.1184 C   0  0  0  0  0  0  0  0  0  0  0  0
    1.8544    3.9128    3.0467 C   0  0  0  0  0  0  0  0  0  0  0  0
   -0.2097    3.9738    0.1149 C   0  0  0  0  0  0  0  0  0  0  0  0
    1.0537    1.2073    2.1338 C   0  0  0  0  0  0  0  0  0  0  0  0
    0.7226   -0.1432    1.5561 C   0  0  3  0  0  0  0  0  0  0  0  0
    0.9819    3.6498    1.8592 C   0  0  0  0  0  0  0  0  0  0  0  0
   -0.2918    2.6204    0.3430 C   0  0  0  0  0  0  0  0  0  0  0  0
    0.5554    4.5941    1.0494 N   0  0  0  0  0  0  0  0  0  0  0  0
    0.5315    2.3876    1.4437 N   0  0  0  0  0  0  0  0  0  0  0  0
   -1.0838    1.7836   -0.5334 N   0  0  0  0  0  0  0  0  0  0  0  0
   -0.6487   -0.4010    1.8413 O   0  0  0  0  0  0  0  0  0  0  0  0
   -1.3114    0.6083   -0.2164 O   0  0  0  0  0  0  0  0  0  0  0  0
   -1.5337    2.3044   -1.5484 O   0  0  0  0  0  0  0  0  0  0  0  0
    1.1240    0.6769   -0.4871 H   0  0  0  0  0  0  0  0  0  0  0  0
    0.8580   -1.0533   -0.4506 H   0  0  0  0  0  0  0  0  0  0  0  0
    2.3665   -0.2910    0.1533 H   0  0  0  0  0  0  0  0  0  0  0  0
    2.7859    4.3917    2.7275 H   0  0  0  0  0  0  0  0  0  0  0  0
    1.3430    4.5901    3.7381 H   0  0  0  0  0  0  0  0  0  0  0  0
    2.1240    3.0181    3.6126 H   0  0  0  0  0  0  0  0  0  0  0  0
   -0.6839    4.5129   -0.6934 H   0  0  0  0  0  0  0  0  0  0  0  0
    0.6964    1.2680    3.1716 H   0  0  0  0  0  0  0  0  0  0  0  0
    2.1507    1.3024    2.1530 H   0  0  0  0  0  0  0  0  0  0  0  0
    1.2252   -0.9351    2.1148 H   0  0  0  0  0  0  0  0  0  0  0  0
   -1.2166    0.2158    1.3396 H   0  0  0  0  0  0  0  0  0  0  0  0
  1 14  1  0  0  0  0
  1 15  1  0  0  0  0
  1 16  1  0  0  0  0
  2 17  1  0  0  0  0
  2 18  1  0  0  0  0
  2 19  1  0  0  0  0
  3 20  1  0  0  0  0
  4 21  1  0  0  0  0
  4 22  1  0  0  0  0
  5  1  1  0  0  0  0
  5  4  1  0  0  0  0
  5 23  1  0  0  0  0
  6  2  1  0  0  0  0
  7  3  2  0  0  0  0
  8  3  1  0  0  0  0
  8  6  2  0  0  0  0
  9  4  1  0  0  0  0
  9  6  1  0  0  0  0
  9  7  1  0  0  0  0
 10  7  1  0  0  0  0
 11  5  1  0  0  0  0
 11 24  1  0  0  0  0
 12 10  2  0  0  0  0
 13 10  2  0  0  0  0
M  END
>  <DRUGBANK_ID>
DB12834

>  <COMMON_NAME>
Secnidazole

>  <CAS_NUMBER>
3366-95-8

>  <UNII>
R3459K699K

>  <SYNONYMS>
1-(2­ hydroxypropyl)-2-methyl-5-nitroimidazole; 1-(2-methyl-5-nitro-1H-imidazol-1-yl) propan-2­ ol; Secnidazole

$$$$
