
 OpenBabel10282417183D

 55 54  0  0  0  0  0  0  0  0999 V2000
    1.0270    0.0888    0.1092 C   0  0  0  0  0  0  0  0  0  0  0  0
    0.3198   -0.2874   -0.9580 C   0  0  0  0  0  0  0  0  0  0  0  0
   -1.1783   -0.2284   -1.0021 C   0  0  0  0  0  0  0  0  0  0  0  0
   -1.6411    0.7235   -2.1068 C   0  0  0  0  0  0  0  0  0  0  0  0
   -1.1746    0.2536   -3.4906 C   0  0  0  0  0  0  0  0  0  0  0  0
   -1.7131   -1.1461   -3.8087 C   0  0  0  0  0  0  0  0  0  0  0  0
   -3.2441   -1.1465   -3.8202 C   0  0  0  0  0  0  0  0  0  0  0  0
   -3.7720   -0.1823   -4.8884 C   0  0  0  0  0  0  0  0  0  0  0  0
   -3.3487   -0.6237   -6.2957 C   0  0  0  0  0  0  0  0  0  0  0  0
   -3.8335   -2.0351   -6.6399 C   0  0  0  0  0  0  0  0  0  0  0  0
   -5.3448   -2.1287   -6.5587 C   0  0  0  0  0  0  0  0  0  0  0  0
   -5.9810   -2.4562   -7.7268 N   0  0  0  0  0  0  0  0  0  0  0  0
   -7.4433   -2.5359   -7.7594 C   0  0  1  0  0  0  0  0  0  0  0  0
   -5.9650   -1.9179   -5.5223 O   0  0  0  0  0  0  0  0  0  0  0  0
   -7.9815   -1.5459   -8.8331 C   0  0  0  0  0  0  0  0  0  0  0  0
   -8.0221   -3.9944   -7.7825 C   0  0  0  0  0  0  0  0  0  0  0  0
   -9.0781   -4.3089   -7.2675 O   0  0  0  0  0  0  0  0  0  0  0  0
   -7.2969   -4.8460   -8.5769 O   0  0  0  0  0  0  0  0  0  0  0  0
   -8.0511   -5.8852   -9.2535 C   0  0  0  0  0  0  0  0  0  0  0  0
   -7.5076   -1.7969  -10.2830 C   0  0  0  0  0  0  0  0  0  0  0  0
   -7.9717   -3.1372  -10.7973 C   0  0  0  0  0  0  0  0  0  0  0  0
   -8.0069   -0.7661  -11.2789 C   0  0  0  0  0  0  0  0  0  0  0  0
    0.5268    0.4224    1.0108 H   0  0  0  0  0  0  0  0  0  0  0  0
    2.1099    0.0739    0.0861 H   0  0  0  0  0  0  0  0  0  0  0  0
    0.8513   -0.6224   -1.8474 H   0  0  0  0  0  0  0  0  0  0  0  0
   -1.5718   -1.2399   -1.1531 H   0  0  0  0  0  0  0  0  0  0  0  0
   -1.5948    0.1027   -0.0459 H   0  0  0  0  0  0  0  0  0  0  0  0
   -2.7345    0.8064   -2.0734 H   0  0  0  0  0  0  0  0  0  0  0  0
   -1.2746    1.7387   -1.9207 H   0  0  0  0  0  0  0  0  0  0  0  0
   -1.4835    0.9829   -4.2464 H   0  0  0  0  0  0  0  0  0  0  0  0
   -0.0837    0.2520   -3.5631 H   0  0  0  0  0  0  0  0  0  0  0  0
   -1.3057   -1.4871   -4.7655 H   0  0  0  0  0  0  0  0  0  0  0  0
   -1.3513   -1.8902   -3.0925 H   0  0  0  0  0  0  0  0  0  0  0  0
   -3.6089   -2.1664   -3.9742 H   0  0  0  0  0  0  0  0  0  0  0  0
   -3.6535   -0.8715   -2.8427 H   0  0  0  0  0  0  0  0  0  0  0  0
   -4.8568   -0.0930   -4.8061 H   0  0  0  0  0  0  0  0  0  0  0  0
   -3.4317    0.8420   -4.7064 H   0  0  0  0  0  0  0  0  0  0  0  0
   -3.7172    0.1003   -7.0289 H   0  0  0  0  0  0  0  0  0  0  0  0
   -2.2547   -0.5914   -6.3840 H   0  0  0  0  0  0  0  0  0  0  0  0
   -3.4652   -2.3191   -7.6294 H   0  0  0  0  0  0  0  0  0  0  0  0
   -3.4242   -2.7810   -5.9494 H   0  0  0  0  0  0  0  0  0  0  0  0
   -5.4448   -2.7529   -8.5304 H   0  0  0  0  0  0  0  0  0  0  0  0
   -7.8196   -2.1426   -6.8046 H   0  0  0  0  0  0  0  0  0  0  0  0
   -9.0773   -1.5190   -8.7923 H   0  0  0  0  0  0  0  0  0  0  0  0
   -7.6466   -0.5331   -8.5535 H   0  0  0  0  0  0  0  0  0  0  0  0
   -7.8823   -6.8373   -8.7556 H   0  0  0  0  0  0  0  0  0  0  0  0
   -9.1222   -5.6594   -9.3396 H   0  0  0  0  0  0  0  0  0  0  0  0
   -7.6766   -5.9776  -10.2857 H   0  0  0  0  0  0  0  0  0  0  0  0
   -6.4110   -1.7783  -10.3016 H   0  0  0  0  0  0  0  0  0  0  0  0
   -9.0254   -3.3261  -10.5592 H   0  0  0  0  0  0  0  0  0  0  0  0
   -7.7991   -3.3114  -11.8596 H   0  0  0  0  0  0  0  0  0  0  0  0
   -7.3165   -3.8503  -10.3417 H   0  0  0  0  0  0  0  0  0  0  0  0
   -7.6335    0.2321  -11.0466 H   0  0  0  0  0  0  0  0  0  0  0  0
   -7.6502   -1.0369  -12.2813 H   0  0  0  0  0  0  0  0  0  0  0  0
   -9.1005   -0.7534  -11.3073 H   0  0  0  0  0  0  0  0  0  0  0  0
  1  2  2  0  0  0  0
  1 23  1  0  0  0  0
  1 24  1  0  0  0  0
  2  3  1  0  0  0  0
  2 25  1  0  0  0  0
  3  4  1  0  0  0  0
  3 26  1  0  0  0  0
  3 27  1  0  0  0  0
  4  5  1  0  0  0  0
  4 28  1  0  0  0  0
  4 29  1  0  0  0  0
  5  6  1  0  0  0  0
  5 30  1  0  0  0  0
  5 31  1  0  0  0  0
  6  7  1  0  0  0  0
  6 32  1  0  0  0  0
  6 33  1  0  0  0  0
  7  8  1  0  0  0  0
  7 34  1  0  0  0  0
  7 35  1  0  0  0  0
  8  9  1  0  0  0  0
  8 36  1  0  0  0  0
  8 37  1  0  0  0  0
  9 10  1  0  0  0  0
  9 38  1  0  0  0  0
  9 39  1  0  0  0  0
 10 11  1  0  0  0  0
 10 40  1  0  0  0  0
 10 41  1  0  0  0  0
 11 12  1  0  0  0  0
 11 14  2  0  0  0  0
 12 13  1  0  0  0  0
 12 42  1  0  0  0  0
 13 15  1  0  0  0  0
 13 16  1  0  0  0  0
 13 43  1  1  0  0  0
 15 20  1  0  0  0  0
 15 44  1  0  0  0  0
 15 45  1  0  0  0  0
 16 17  2  0  0  0  0
 16 18  1  0  0  0  0
 18 19  1  0  0  0  0
 19 46  1  0  0  0  0
 19 47  1  0  0  0  0
 19 48  1  0  0  0  0
 20 21  1  0  0  0  0
 20 22  1  0  0  0  0
 20 49  1  0  0  0  0
 21 50  1  0  0  0  0
 21 51  1  0  0  0  0
 21 52  1  0  0  0  0
 22 53  1  0  0  0  0
 22 54  1  0  0  0  0
 22 55  1  0  0  0  0
M  END
>  <DRUGBANK_ID>
DB11272

>  <COMMON_NAME>
Methyl undecenoyl leucinate

>  <CAS_NUMBER>
1246371-29-8

>  <UNII>
D7PH6N3IEI

$$$$
