
 OpenBabel10282417203D

 35 35  0  0  0  0  0  0  0  0999 V2000
   -1.9026   -0.0217   -0.0583 C   0  0  0  0  0  0  0  0  0  0  0  0
   -3.6924   -0.0340    0.0129 S   0  0  0  0  0  0  0  0  0  0  0  0
   -1.2034    1.1919   -0.0361 C   0  0  0  0  0  0  0  0  0  0  0  0
   -1.1991   -1.2262   -0.0342 C   0  0  0  0  0  0  0  0  0  0  0  0
   -4.1609   -0.9670   -1.3292 N   0  0  0  0  0  0  0  0  0  0  0  0
   -4.0125   -0.6880    1.2630 O   0  0  0  0  0  0  0  0  0  0  0  0
   -4.1275    1.3194   -0.2569 O   0  0  0  0  0  0  0  0  0  0  0  0
    0.2001    1.1915   -0.0247 C   0  0  0  0  0  0  0  0  0  0  0  0
    0.2044   -1.2104   -0.0175 C   0  0  0  0  0  0  0  0  0  0  0  0
   -5.0521   -2.0428   -1.2038 C   0  0  0  0  0  0  0  0  0  0  0  0
    0.9187   -0.0068    0.0026 C   0  0  0  0  0  0  0  0  0  0  0  0
   -5.5221   -2.6126   -2.3637 N   0  0  0  0  0  0  0  0  0  0  0  0
   -5.3942   -2.4901   -0.1148 O   0  0  0  0  0  0  0  0  0  0  0  0
    2.3025   -0.0028   -0.1073 N   0  0  0  0  0  0  0  0  0  0  0  0
   -6.3813   -3.8013   -2.3074 C   0  0  0  0  0  0  0  0  0  0  0  0
   -7.7208   -3.6029   -3.0207 C   0  0  0  0  0  0  0  0  0  0  0  0
   -7.5622   -3.3406   -4.5179 C   0  0  0  0  0  0  0  0  0  0  0  0
   -6.8957   -4.5070   -5.2330 C   0  0  0  0  0  0  0  0  0  0  0  0
   -1.7294    2.1438   -0.0024 H   0  0  0  0  0  0  0  0  0  0  0  0
   -1.7276   -2.1755   -0.0021 H   0  0  0  0  0  0  0  0  0  0  0  0
   -4.0816   -0.4685   -2.2096 H   0  0  0  0  0  0  0  0  0  0  0  0
    0.7315    2.1410   -0.0210 H   0  0  0  0  0  0  0  0  0  0  0  0
    0.7422   -2.1552   -0.0020 H   0  0  0  0  0  0  0  0  0  0  0  0
   -5.2141   -2.2826   -3.2666 H   0  0  0  0  0  0  0  0  0  0  0  0
    2.8154   -0.8617    0.0508 H   0  0  0  0  0  0  0  0  0  0  0  0
    2.8105    0.8597    0.0493 H   0  0  0  0  0  0  0  0  0  0  0  0
   -5.8272   -4.6421   -2.7377 H   0  0  0  0  0  0  0  0  0  0  0  0
   -6.5829   -4.0861   -1.2694 H   0  0  0  0  0  0  0  0  0  0  0  0
   -8.3457   -4.4962   -2.8799 H   0  0  0  0  0  0  0  0  0  0  0  0
   -8.2630   -2.7690   -2.5584 H   0  0  0  0  0  0  0  0  0  0  0  0
   -8.5481   -3.1607   -4.9622 H   0  0  0  0  0  0  0  0  0  0  0  0
   -6.9773   -2.4282   -4.6752 H   0  0  0  0  0  0  0  0  0  0  0  0
   -7.4945   -5.4172   -5.1258 H   0  0  0  0  0  0  0  0  0  0  0  0
   -6.7782   -4.2878   -6.2967 H   0  0  0  0  0  0  0  0  0  0  0  0
   -5.8969   -4.7099   -4.8367 H   0  0  0  0  0  0  0  0  0  0  0  0
  1  2  1  0  0  0  0
  1  3  1  0  0  0  0
  1  4  2  0  0  0  0
  2  5  1  0  0  0  0
  2  6  2  0  0  0  0
  2  7  2  0  0  0  0
  3  8  2  0  0  0  0
  3 19  1  0  0  0  0
  4  9  1  0  0  0  0
  4 20  1  0  0  0  0
  5 10  1  0  0  0  0
  5 21  1  0  0  0  0
  8 11  1  0  0  0  0
  8 22  1  0  0  0  0
  9 11  2  0  0  0  0
  9 23  1  0  0  0  0
 10 12  1  0  0  0  0
 10 13  2  0  0  0  0
 11 14  1  0  0  0  0
 12 15  1  0  0  0  0
 12 24  1  0  0  0  0
 14 25  1  0  0  0  0
 14 26  1  0  0  0  0
 15 16  1  0  0  0  0
 15 27  1  0  0  0  0
 15 28  1  0  0  0  0
 16 17  1  0  0  0  0
 16 29  1  0  0  0  0
 16 30  1  0  0  0  0
 17 18  1  0  0  0  0
 17 31  1  0  0  0  0
 17 32  1  0  0  0  0
 18 33  1  0  0  0  0
 18 34  1  0  0  0  0
 18 35  1  0  0  0  0
M  END
>  <DRUGBANK_ID>
DB13406

>  <COMMON_NAME>
Carbutamide

>  <CAS_NUMBER>
339-43-5

>  <UNII>
E3K8P4869P

>  <SYNONYMS>
Carbutamida; Carbutamide; Carbutamidum

$$$$
