
 OpenBabel10282417123D

 15 14  0  0  0  0  0  0  0  0999 V2000
    1.0592    0.0013   -0.0106 C   0  0  0  0  0  0  0  0  0  0  0  0
    0.5791   -0.9523    1.0729 C   0  0  0  0  0  0  0  0  0  0  0  0
    1.0313   -0.5274    2.4736 C   0  0  0  0  0  0  0  0  0  0  0  0
    0.5289    0.8505    2.8965 C   0  0  0  0  0  0  0  0  0  0  0  0
   -0.8898    0.8906    2.9214 O   0  0  0  0  0  0  0  0  0  0  0  0
    0.6656    1.0114    0.1360 H   0  0  0  0  0  0  0  0  0  0  0  0
    0.7234   -0.3385   -0.9943 H   0  0  0  0  0  0  0  0  0  0  0  0
    2.1523    0.0567   -0.0190 H   0  0  0  0  0  0  0  0  0  0  0  0
   -0.5130   -1.0329    1.0339 H   0  0  0  0  0  0  0  0  0  0  0  0
    0.9684   -1.9556    0.8630 H   0  0  0  0  0  0  0  0  0  0  0  0
    0.6643   -1.2739    3.1889 H   0  0  0  0  0  0  0  0  0  0  0  0
    2.1265   -0.5431    2.5230 H   0  0  0  0  0  0  0  0  0  0  0  0
    0.8855    1.0846    3.9043 H   0  0  0  0  0  0  0  0  0  0  0  0
    0.8951    1.6410    2.2345 H   0  0  0  0  0  0  0  0  0  0  0  0
   -1.2100    0.7234    2.0160 H   0  0  0  0  0  0  0  0  0  0  0  0
  1  2  1  0  0  0  0
  1  6  1  0  0  0  0
  1  7  1  0  0  0  0
  1  8  1  0  0  0  0
  2  3  1  0  0  0  0
  2  9  1  0  0  0  0
  2 10  1  0  0  0  0
  3  4  1  0  0  0  0
  3 11  1  0  0  0  0
  3 12  1  0  0  0  0
  4  5  1  0  0  0  0
  4 13  1  0  0  0  0
  4 14  1  0  0  0  0
  5 15  1  0  0  0  0
M  END
>  <DRUGBANK_ID>
DB02145

>  <SECONDARY_ACCESSION_NUMBERS>
EXPT00068

>  <COMMON_NAME>
Butyl alcohol

>  <CAS_NUMBER>
71-36-3

>  <UNII>
8PJ61P6TS3

>  <SYNONYMS>
1-butanol; Butan-1-ol; Butanol; N-butanol; N-butyl alcohol

$$$$
