Structure #1
 OpenBabel10282417123D

 50 51  0  0  0  0  0  0  0  0999 V2000
    1.0874   -0.1801   -0.1366 C   0  0  0  0  0  0  0  0  0  0  0  0
   -0.8186   -3.9310    3.9891 C   0  0  0  0  0  0  0  0  0  0  0  0
    5.0851   -5.1848    4.6808 C   0  0  0  0  0  0  0  0  0  0  0  0
    0.4127    2.2534    1.8691 C   0  0  0  0  0  0  0  0  0  0  0  0
   -1.0665    2.6119    2.1298 C   0  0  0  0  0  0  0  0  0  0  0  0
    3.3470   -3.8485    1.6318 C   0  0  0  0  0  0  0  0  0  0  0  0
    1.0032   -2.8351    1.4199 C   0  0  0  0  0  0  0  0  0  0  0  0
    0.7828   -0.2904    1.2954 C   0  0  0  0  0  0  0  0  0  0  0  0
   -0.3784   -2.4765    4.2534 C   0  0  0  0  0  0  0  0  0  0  0  0
    4.0948   -4.7805    3.6465 C   0  0  0  0  0  0  0  0  0  0  0  0
    2.1633   -3.5197    2.1707 C   0  0  0  0  0  0  0  0  0  0  0  0
    0.6554    0.7896    2.1444 C   0  0  0  0  0  0  0  0  0  0  0  0
    2.2378   -3.8140    3.5244 C   0  0  0  0  0  0  0  0  0  0  0  0
    0.1883   -1.4108    3.1824 C   0  0  0  0  0  0  0  0  0  0  0  0
    2.0325   -2.8297    4.4449 N   0  0  0  0  0  0  0  0  0  0  0  0
    4.3757   -4.3807    2.3754 N   0  0  0  0  0  0  0  0  0  0  0  0
    2.9360   -4.7101    4.1755 N   0  0  0  0  0  0  0  0  0  0  0  0
    0.6422   -1.5297    1.9516 N   0  3  0  0  0  0  0  0  0  0  0  0
    0.0191   -2.3143    5.4299 O   0  0  0  0  0  0  0  0  0  0  0  0
   -2.2099   -2.3681    5.6916 O   0  0  0  0  0  0  0  0  0  0  0  0
   -0.4896   -0.0593    6.0613 O   0  0  0  0  0  0  0  0  0  0  0  0
   -2.0670   -0.9029    7.3951 O   0  0  0  0  0  0  0  0  0  0  0  0
   -3.7438    0.9007    3.8393 O   0  0  0  0  0  0  0  0  0  0  0  0
   -2.3394    0.1107    1.8053 O   0  0  0  0  0  0  0  0  0  0  0  0
   -1.5166    1.9819    3.3705 O   0  0  0  0  0  0  0  0  0  0  0  0
   -1.6930   -0.6774    4.1460 O   0  0  0  0  0  0  0  0  0  0  0  0
   -1.8903   -0.7964    5.8606 P   0  0  0  0  0  0  0  0  0  0  0  0
   -2.3108    0.5588    3.2368 P   0  0  3  0  0  0  0  0  0  0  0  0
    0.9530    0.1539    3.7122 S   0  0  0  0  0  0  0  0  0  0  0  0
    0.6960    0.7555   -0.5516 H   0  0  0  0  0  0  0  0  0  0  0  0
    0.6668   -0.9930   -0.7215 H   0  0  0  0  0  0  0  0  0  0  0  0
    2.1764   -0.1535   -0.2290 H   0  0  0  0  0  0  0  0  0  0  0  0
   -0.1903   -4.5627    4.6500 H   0  0  0  0  0  0  0  0  0  0  0  0
   -1.8373   -4.1887    4.2826 H   0  0  0  0  0  0  0  0  0  0  0  0
   -0.6074   -4.2764    2.9925 H   0  0  0  0  0  0  0  0  0  0  0  0
    5.1525   -4.4173    5.4696 H   0  0  0  0  0  0  0  0  0  0  0  0
    4.6827   -6.0839    5.1655 H   0  0  0  0  0  0  0  0  0  0  0  0
    6.0414   -5.3632    4.2201 H   0  0  0  0  0  0  0  0  0  0  0  0
    1.0572    2.8869    2.4892 H   0  0  0  0  0  0  0  0  0  0  0  0
    0.6623    2.5018    0.8268 H   0  0  0  0  0  0  0  0  0  0  0  0
   -1.1749    3.7122    2.1432 H   0  0  0  0  0  0  0  0  0  0  0  0
   -1.7042    2.3011    1.2914 H   0  0  0  0  0  0  0  0  0  0  0  0
    3.5742   -3.6176    0.5980 H   0  0  0  0  0  0  0  0  0  0  0  0
    0.0702   -3.4142    1.4189 H   0  0  0  0  0  0  0  0  0  0  0  0
    1.2391   -2.7231    0.3631 H   0  0  0  0  0  0  0  0  0  0  0  0
    1.7605   -3.1782    5.3809 H   0  0  0  0  0  0  0  0  0  0  0  0
    1.1931   -2.8643    3.9970 H   0  0  0  0  0  0  0  0  0  0  0  0
   -3.1396   -2.5900    5.9052 H   0  0  0  0  0  0  0  0  0  0  0  0
    0.3260   -0.3479    5.6378 H   0  0  0  0  0  0  0  0  0  0  0  0
   -3.7839    1.4530    4.6443 H   0  0  0  0  0  0  0  0  0  0  0  0
  1  8  1  0  0  0  0
  1 30  1  0  0  0  0
  1 31  1  0  0  0  0
  1 32  1  0  0  0  0
  2  9  1  0  0  0  0
  2 33  1  0  0  0  0
  2 34  1  0  0  0  0
  2 35  1  0  0  0  0
  3 10  1  0  0  0  0
  3 36  1  0  0  0  0
  3 37  1  0  0  0  0
  3 38  1  0  0  0  0
  4  5  1  0  0  0  0
  4 12  1  0  0  0  0
  4 39  1  0  0  0  0
  4 40  1  0  0  0  0
  5 25  1  0  0  0  0
  5 41  1  0  0  0  0
  5 42  1  0  0  0  0
  6 11  2  0  0  0  0
  6 16  1  0  0  0  0
  6 43  1  0  0  0  0
  7 11  1  0  0  0  0
  7 18  1  0  0  0  0
  7 44  1  0  0  0  0
  7 45  1  0  0  0  0
  8 12  2  0  0  0  0
  8 18  1  0  0  0  0
  9 14  1  0  0  0  0
  9 19  2  0  0  0  0
 10 16  2  0  0  0  0
 10 17  1  0  0  0  0
 11 13  1  0  0  0  0
 12 29  1  0  0  0  0
 13 15  1  0  0  0  0
 13 17  2  0  0  0  0
 14 18  2  0  0  0  0
 14 29  1  0  0  0  0
 15 46  1  0  0  0  0
 15 47  1  0  0  0  0
 20 27  1  0  0  0  0
 20 48  1  0  0  0  0
 21 27  1  0  0  0  0
 21 49  1  0  0  0  0
 22 27  2  0  0  0  0
 23 28  1  0  0  0  0
 23 50  1  0  0  0  0
 24 28  2  0  0  0  0
 25 28  1  0  0  0  0
 26 27  1  0  0  0  0
 26 28  1  0  0  0  0
M  CHG  1  18   1
M  END
>  <DRUGBANK_ID>
DB02410

>  <SECONDARY_ACCESSION_NUMBERS>
EXPT01790

>  <COMMON_NAME>
2-Acetyl-3-[(4-Amino-2-Methyl-5-Pyrimidinyl)Methyl]-4-Methyl-5-(4,6,6-Trihydroxy-3,5-Dioxa-4,6-Diphosphahex-1-Yl)Thiazolium Inner Salt P,P'-Dioxide

$$$$
