074
 OpenBabel10282417123D

 58 58  0  0  0  0  0  0  0  0999 V2000
    0.9842   -3.3103   -2.4146 C   0  0  0  0  0  0  0  0  0  0  0  0
    1.4664   -3.5756   -1.0076 C   0  0  0  0  0  0  0  0  0  0  0  0
    0.5791   -2.8676   -0.0068 C   0  0  0  0  0  0  0  0  0  0  0  0
   -0.7518   -3.4354    0.0476 N   0  0  0  0  0  0  0  0  0  0  0  0
   -1.3704   -4.0925    1.0697 C   0  0  0  0  0  0  0  0  0  0  0  0
   -2.5101   -4.5187    0.8844 O   0  0  0  0  0  0  0  0  0  0  0  0
   -0.6263   -4.2800    2.4030 C   0  0  2  0  0  0  0  0  0  0  0  0
   -0.2272   -2.9343    3.0149 C   0  0  0  0  0  0  0  0  0  0  0  0
    0.4922   -5.1517    2.2653 O   0  0  0  0  0  0  0  0  0  0  0  0
   -0.0891   -3.0075    4.5040 C   0  0  0  0  0  0  0  0  0  0  0  0
    1.0184   -2.9851    5.0415 O   0  0  0  0  0  0  0  0  0  0  0  0
   -1.1848   -3.0939    5.2896 N   0  0  0  0  0  0  0  0  0  0  0  0
   -2.5856   -3.0146    4.9073 C   0  0  1  0  0  0  0  0  0  0  0  0
   -3.3243   -4.3580    5.1807 C   0  0  1  0  0  0  0  0  0  0  0  0
   -3.4396   -4.6605    6.6646 C   0  0  0  0  0  0  0  0  0  0  0  0
   -4.7406   -4.3748    4.5739 C   0  0  0  0  0  0  0  0  0  0  0  0
   -4.7223   -4.2919    3.0606 C   0  0  0  0  0  0  0  0  0  0  0  0
   -3.3735   -1.7837    5.4511 C   0  0  0  0  0  0  0  0  0  0  0  0
   -4.0428   -1.1254    4.6461 O   0  0  0  0  0  0  0  0  0  0  0  0
   -3.5404   -1.6133    6.8141 N   0  0  0  0  0  0  0  0  0  0  0  0
   -2.6259   -1.8864    7.9071 C   0  0  0  0  0  0  0  0  0  0  0  0
   -3.5154   -2.3602    9.0428 C   0  0  0  0  0  0  0  0  0  0  0  0
   -4.7723   -1.5235    8.8573 C   0  0  0  0  0  0  0  0  0  0  0  0
   -4.8482   -1.2002    7.3459 C   0  0  1  0  0  0  0  0  0  0  0  0
   -5.1615    0.2807    7.1440 C   0  0  0  0  0  0  0  0  0  0  0  0
   -4.5454    1.1034    6.4773 O   0  0  0  0  0  0  0  0  0  0  0  0
   -6.2745    0.6623    7.8096 O   0  0  0  0  0  0  0  0  0  0  0  0
   -1.3193   -4.8120    3.0600 H   0  0  0  0  0  0  0  0  0  0  0  0
   -2.5848   -2.8721    3.8242 H   0  0  0  0  0  0  0  0  0  0  0  0
   -2.7477   -5.1823    4.7423 H   0  0  0  0  0  0  0  0  0  0  0  0
   -5.6308   -1.7899    6.8487 H   0  0  0  0  0  0  0  0  0  0  0  0
   -0.0242   -3.7080   -2.5617 H   0  0  0  0  0  0  0  0  0  0  0  0
    1.6502   -3.7831   -3.1378 H   0  0  0  0  0  0  0  0  0  0  0  0
    0.9595   -2.2327   -2.6046 H   0  0  0  0  0  0  0  0  0  0  0  0
    1.4888   -4.6537   -0.8053 H   0  0  0  0  0  0  0  0  0  0  0  0
    2.4908   -3.2036   -0.8880 H   0  0  0  0  0  0  0  0  0  0  0  0
    1.0926   -2.9639    0.9357 H   0  0  0  0  0  0  0  0  0  0  0  0
    0.4786   -1.7975   -0.2057 H   0  0  0  0  0  0  0  0  0  0  0  0
   -1.3403   -3.3619   -0.7767 H   0  0  0  0  0  0  0  0  0  0  0  0
    0.7651   -2.6125    2.6965 H   0  0  0  0  0  0  0  0  0  0  0  0
   -0.9152   -2.1246    2.7427 H   0  0  0  0  0  0  0  0  0  0  0  0
    1.1028   -4.7816    1.6108 H   0  0  0  0  0  0  0  0  0  0  0  0
   -0.9242   -3.1737    6.2575 H   0  0  0  0  0  0  0  0  0  0  0  0
   -4.1273   -3.9422    7.0979 H   0  0  0  0  0  0  0  0  0  0  0  0
   -3.8831   -5.6330    6.8791 H   0  0  0  0  0  0  0  0  0  0  0  0
   -2.4655   -4.6192    7.1599 H   0  0  0  0  0  0  0  0  0  0  0  0
   -5.2524   -5.2992    4.8678 H   0  0  0  0  0  0  0  0  0  0  0  0
   -5.3419   -3.5512    4.9758 H   0  0  0  0  0  0  0  0  0  0  0  0
   -4.1673   -5.1407    2.6533 H   0  0  0  0  0  0  0  0  0  0  0  0
   -5.7381   -4.3170    2.6608 H   0  0  0  0  0  0  0  0  0  0  0  0
   -4.2613   -3.3659    2.7072 H   0  0  0  0  0  0  0  0  0  0  0  0
   -2.1540   -0.9332    8.1636 H   0  0  0  0  0  0  0  0  0  0  0  0
   -1.8425   -2.5963    7.6863 H   0  0  0  0  0  0  0  0  0  0  0  0
   -3.7628   -3.4238    8.9649 H   0  0  0  0  0  0  0  0  0  0  0  0
   -3.0449   -2.2384   10.0207 H   0  0  0  0  0  0  0  0  0  0  0  0
   -5.6623   -2.0590    9.2078 H   0  0  0  0  0  0  0  0  0  0  0  0
   -4.6760   -0.6153    9.4606 H   0  0  0  0  0  0  0  0  0  0  0  0
   -6.3685    1.6101    7.5763 H   0  0  0  0  0  0  0  0  0  0  0  0
  1  2  1  0  0  0  0
  1 32  1  0  0  0  0
  1 33  1  0  0  0  0
  1 34  1  0  0  0  0
  2  3  1  0  0  0  0
  2 35  1  0  0  0  0
  2 36  1  0  0  0  0
  3  4  1  0  0  0  0
  3 37  1  0  0  0  0
  3 38  1  0  0  0  0
  4  5  1  0  0  0  0
  4 39  1  0  0  0  0
  5  6  2  0  0  0  0
  7  9  1  0  0  0  0
  7 28  1  1  0  0  0
  7  8  1  0  0  0  0
  7  5  1  0  0  0  0
  8 10  1  0  0  0  0
  8 40  1  0  0  0  0
  8 41  1  0  0  0  0
  9 42  1  0  0  0  0
 10 11  2  0  0  0  0
 10 12  1  0  0  0  0
 12 43  1  0  0  0  0
 13 12  1  0  0  0  0
 13 14  1  0  0  0  0
 13 18  1  0  0  0  0
 13 29  1  6  0  0  0
 14 15  1  0  0  0  0
 14 16  1  0  0  0  0
 14 30  1  6  0  0  0
 15 44  1  0  0  0  0
 15 45  1  0  0  0  0
 15 46  1  0  0  0  0
 16 17  1  0  0  0  0
 16 47  1  0  0  0  0
 16 48  1  0  0  0  0
 17 49  1  0  0  0  0
 17 50  1  0  0  0  0
 17 51  1  0  0  0  0
 18 19  2  0  0  0  0
 18 20  1  0  0  0  0
 20 21  1  0  0  0  0
 20 24  1  0  0  0  0
 21 22  1  0  0  0  0
 21 52  1  0  0  0  0
 21 53  1  0  0  0  0
 22 23  1  0  0  0  0
 22 54  1  0  0  0  0
 22 55  1  0  0  0  0
 23 24  1  0  0  0  0
 23 56  1  0  0  0  0
 23 57  1  0  0  0  0
 24 31  1  6  0  0  0
 24 25  1  0  0  0  0
 25 26  2  0  0  0  0
 25 27  1  0  0  0  0
 27 58  1  0  0  0  0
M  END
>  <DRUGBANK_ID>
DB02855

>  <SECONDARY_ACCESSION_NUMBERS>
EXPT00003

>  <COMMON_NAME>
N-(3-Propylcarbamoyloxirane-2-Carbonyl)-Isoleucyl-Proline

>  <CAS_NUMBER>
134448-10-5

>  <SYNONYMS>
N-(3-Propylcarbamoyloxirane-2-carbonyl)-isoleucyl-proline

$$$$
