CY0
 OpenBabel10282417163D

 50 52  0  0  0  0  0  0  0  0999 V2000
    1.3561   -0.1944   -0.0103 C   0  0  0  0  0  0  0  0  0  0  0  0
    0.5213   -1.3153    0.0158 C   0  0  0  0  0  0  0  0  0  0  0  0
   -0.8678   -1.1683   -0.0080 C   0  0  0  0  0  0  0  0  0  0  0  0
   -1.4281    0.0911    0.0302 C   0  0  0  0  0  0  0  0  0  0  0  0
   -0.5946    1.1842    0.0873 C   0  0  0  0  0  0  0  0  0  0  0  0
    0.7887    1.0783   -0.0556 C   0  0  0  0  0  0  0  0  0  0  0  0
    1.5593    2.2033   -0.3497 N   0  0  0  0  0  0  0  0  0  0  0  0
    1.1034    3.5052   -0.6811 C   0  0  0  0  0  0  0  0  0  0  0  0
    2.0350    4.4947   -0.8173 C   0  0  0  0  0  0  0  0  0  0  0  0
    3.4125    4.2179   -0.8029 C   0  0  0  0  0  0  0  0  0  0  0  0
   -0.2027    3.8260   -0.5534 N   0  0  0  0  0  0  0  0  0  0  0  0
   -0.5836    5.1024   -0.5227 C   0  0  0  0  0  0  0  0  0  0  0  0
    0.2451    6.1238   -0.5575 N   0  0  0  0  0  0  0  0  0  0  0  0
    1.5151    5.7535   -0.5343 C   0  0  0  0  0  0  0  0  0  0  0  0
    2.3207    6.5411    0.1986 C   0  0  0  0  0  0  0  0  0  0  0  0
    3.5319    6.0316    0.6731 C   0  0  0  0  0  0  0  0  0  0  0  0
    4.1879    4.9697    0.0557 C   0  0  0  0  0  0  0  0  0  0  0  0
    5.6041    4.8000    0.0550 N   0  0  0  0  0  0  0  0  0  0  0  0
    6.5765    5.7197    0.3697 C   0  0  0  0  0  0  0  0  0  0  0  0
    7.7624    5.4416    0.1883 O   0  0  0  0  0  0  0  0  0  0  0  0
    6.2082    7.0549    0.9468 C   0  0  0  0  0  0  0  0  0  0  0  0
    5.4967    8.1298    0.0747 C   0  0  0  0  0  0  0  0  0  0  0  0
    4.4172    8.0170   -1.4820 S   0  0  0  0  0  0  0  0  0  0  0  0
    4.8645    6.4819   -2.3928 C   0  0  0  0  0  0  0  0  0  0  0  0
    6.0608    6.6023   -3.2942 C   0  0  1  0  0  0  0  0  0  0  0  0
    7.3339    7.0322   -2.5378 C   0  0  0  0  0  0  0  0  0  0  0  0
    8.3044    6.3505   -2.3674 O   0  0  0  0  0  0  0  0  0  0  0  0
    6.3291    5.2478   -3.8719 N   0  0  0  0  0  0  0  0  0  0  0  0
    7.2767    8.2746   -2.0185 O   0  0  0  0  0  0  0  0  0  0  0  0
    5.8033    7.2977   -4.0872 H   0  0  0  0  0  0  0  0  0  0  0  0
    2.4346   -0.3352   -0.0161 H   0  0  0  0  0  0  0  0  0  0  0  0
    0.9500   -2.3116    0.0221 H   0  0  0  0  0  0  0  0  0  0  0  0
   -1.5236   -2.0291   -0.0325 H   0  0  0  0  0  0  0  0  0  0  0  0
   -2.4973    0.2656    0.0054 H   0  0  0  0  0  0  0  0  0  0  0  0
   -1.0835    2.1367    0.2168 H   0  0  0  0  0  0  0  0  0  0  0  0
    2.5563    2.0497   -0.3955 H   0  0  0  0  0  0  0  0  0  0  0  0
    3.8101    3.4784   -1.4994 H   0  0  0  0  0  0  0  0  0  0  0  0
   -1.6346    5.3045   -0.3607 H   0  0  0  0  0  0  0  0  0  0  0  0
    1.9956    7.5342    0.4910 H   0  0  0  0  0  0  0  0  0  0  0  0
    3.9694    6.6733    1.4041 H   0  0  0  0  0  0  0  0  0  0  0  0
    5.9992    4.0633   -0.5305 H   0  0  0  0  0  0  0  0  0  0  0  0
    5.6929    6.8229    1.8869 H   0  0  0  0  0  0  0  0  0  0  0  0
    7.1216    7.5132    1.3501 H   0  0  0  0  0  0  0  0  0  0  0  0
    4.8548    8.6913    0.7711 H   0  0  0  0  0  0  0  0  0  0  0  0
    6.2315    8.8958   -0.1697 H   0  0  0  0  0  0  0  0  0  0  0  0
    5.0980    5.6141   -1.8209 H   0  0  0  0  0  0  0  0  0  0  0  0
    3.9643    6.1447   -2.9368 H   0  0  0  0  0  0  0  0  0  0  0  0
    7.1216    5.3708   -4.5037 H   0  0  0  0  0  0  0  0  0  0  0  0
    6.7362    4.6629   -3.1293 H   0  0  0  0  0  0  0  0  0  0  0  0
    7.9564    8.2938   -1.3128 H   0  0  0  0  0  0  0  0  0  0  0  0
  1  2  2  0  0  0  0
  1  6  1  0  0  0  0
  1 31  1  0  0  0  0
  2  3  1  0  0  0  0
  2 32  1  0  0  0  0
  3  4  2  0  0  0  0
  3 33  1  0  0  0  0
  4  5  1  0  0  0  0
  4 34  1  0  0  0  0
  5  6  2  0  0  0  0
  5 35  1  0  0  0  0
  6  7  1  0  0  0  0
  7  8  1  0  0  0  0
  7 36  1  0  0  0  0
  8  9  1  0  0  0  0
  8 11  2  0  0  0  0
  9 10  1  0  0  0  0
  9 14  2  0  0  0  0
 10 17  2  0  0  0  0
 10 37  1  0  0  0  0
 11 12  1  0  0  0  0
 12 13  2  0  0  0  0
 12 38  1  0  0  0  0
 13 14  1  0  0  0  0
 14 15  1  0  0  0  0
 15 16  2  0  0  0  0
 15 39  1  0  0  0  0
 16 17  1  0  0  0  0
 16 40  1  0  0  0  0
 17 18  1  0  0  0  0
 18 19  1  0  0  0  0
 18 41  1  0  0  0  0
 19 20  2  0  0  0  0
 19 21  1  0  0  0  0
 21 22  1  0  0  0  0
 21 42  1  0  0  0  0
 21 43  1  0  0  0  0
 22 23  1  0  0  0  0
 22 44  1  0  0  0  0
 22 45  1  0  0  0  0
 23 24  1  0  0  0  0
 24 25  1  0  0  0  0
 24 46  1  0  0  0  0
 24 47  1  0  0  0  0
 25 26  1  0  0  0  0
 25 28  1  0  0  0  0
 25 30  1  6  0  0  0
 26 27  2  0  0  0  0
 26 29  1  0  0  0  0
 28 48  1  0  0  0  0
 28 49  1  0  0  0  0
 29 50  1  0  0  0  0
M  END
>  <DRUGBANK_ID>
DB07602

>  <COMMON_NAME>
S-{3-[(4-ANILINOQUINAZOLIN-6-YL)AMINO]-3-OXOPROPYL}-L-CYSTEINE

$$$$
