AK3
 OpenBabel10282417163D

 49 52  0  0  0  0  0  0  0  0999 V2000
   -1.5901    1.0711   -0.0023 C   0  0  0  0  0  0  0  0  0  0  0  0
   -1.7018   -1.0559    0.0027 N   0  0  0  0  0  0  0  0  0  0  0  0
    6.1937  -10.4562   -0.3135 C   0  0  0  0  0  0  0  0  0  0  0  0
    7.5182  -10.9004   -0.3219 C   0  0  0  0  0  0  0  0  0  0  0  0
    7.8723  -11.9379   -1.1919 C   0  0  0  0  0  0  0  0  0  0  0  0
    1.9771    0.6490    0.0085 C   0  0  0  0  0  0  0  0  0  0  0  0
    5.5811  -12.0873   -1.9828 C   0  0  0  0  0  0  0  0  0  0  0  0
   -0.2643    0.6351   -0.0007 C   0  0  0  0  0  0  0  0  0  0  0  0
    0.9358   -1.4349    0.0090 C   0  0  0  0  0  0  0  0  0  0  0  0
   -0.3185   -0.7631    0.0014 C   0  0  0  0  0  0  0  0  0  0  0  0
    3.7070   -9.1592   -1.1782 C   0  0  0  0  0  0  0  0  0  0  0  0
    2.0824   -7.4723   -1.2542 C   0  0  0  0  0  0  0  0  0  0  0  0
    0.8177   -5.4886   -1.3780 C   0  0  0  0  0  0  0  0  0  0  0  0
    2.1810   -5.3060   -1.4027 C   0  0  0  0  0  0  0  0  0  0  0  0
   -0.1996   -4.4473   -1.2431 C   0  0  0  0  0  0  0  0  0  0  0  0
    0.1209   -3.7142    0.0503 C   0  0  0  0  0  0  0  0  0  0  0  0
    9.0818  -11.1884    1.4457 F   0  0  0  0  0  0  0  0  0  0  0  0
    2.8979   -6.4511   -1.2818 N   0  0  0  0  0  0  0  0  0  0  0  0
    0.4203   -7.1421   -1.2983 S   0  0  0  0  0  0  0  0  0  0  0  0
   -2.5678   -2.2307    0.0148 C   0  0  0  0  0  0  0  0  0  0  0  0
   -2.4603    0.0714   -0.0030 N   0  0  0  0  0  0  0  0  0  0  0  0
    0.8647    1.3758   -0.0018 N   0  0  0  0  0  0  0  0  0  0  0  0
    2.0616   -0.6847    0.0217 N   0  0  0  0  0  0  0  0  0  0  0  0
    1.1962   -2.7883   -0.0174 N   0  0  0  0  0  0  0  0  0  0  0  0
    8.5345  -10.2748    0.5947 C   0  0  0  0  0  0  0  0  0  0  0  0
    9.5796   -9.7199   -0.0779 F   0  0  0  0  0  0  0  0  0  0  0  0
    8.0320   -9.2896    1.3901 F   0  0  0  0  0  0  0  0  0  0  0  0
    6.9107  -12.5227   -2.0210 C   0  0  0  0  0  0  0  0  0  0  0  0
    5.2259  -11.0349   -1.1426 C   0  0  0  0  0  0  0  0  0  0  0  0
    3.9073  -10.5286   -1.1385 N   0  0  0  0  0  0  0  0  0  0  0  0
    4.6528   -8.3577   -1.2066 O   0  0  0  0  0  0  0  0  0  0  0  0
    2.3929   -8.7955   -1.1978 N   0  0  0  0  0  0  0  0  0  0  0  0
   -1.9603    2.0842   -0.0027 H   0  0  0  0  0  0  0  0  0  0  0  0
    5.9145   -9.6413    0.3550 H   0  0  0  0  0  0  0  0  0  0  0  0
    8.9026  -12.2891   -1.2253 H   0  0  0  0  0  0  0  0  0  0  0  0
    2.9188    1.1916    0.0060 H   0  0  0  0  0  0  0  0  0  0  0  0
    4.8622  -12.5291   -2.6663 H   0  0  0  0  0  0  0  0  0  0  0  0
    2.6947   -4.3506   -1.4247 H   0  0  0  0  0  0  0  0  0  0  0  0
   -1.2069   -4.8835   -1.1822 H   0  0  0  0  0  0  0  0  0  0  0  0
   -0.2128   -3.7798   -2.1143 H   0  0  0  0  0  0  0  0  0  0  0  0
    0.0378   -4.3049    0.9668 H   0  0  0  0  0  0  0  0  0  0  0  0
   -0.6511   -3.0408    0.1637 H   0  0  0  0  0  0  0  0  0  0  0  0
   -3.1766   -2.1847    0.9203 H   0  0  0  0  0  0  0  0  0  0  0  0
   -3.1461   -2.2268   -0.9107 H   0  0  0  0  0  0  0  0  0  0  0  0
   -2.2133   -3.2548    0.0547 H   0  0  0  0  0  0  0  0  0  0  0  0
    2.1434   -3.0614    0.2177 H   0  0  0  0  0  0  0  0  0  0  0  0
    7.2070  -13.3104   -2.7098 H   0  0  0  0  0  0  0  0  0  0  0  0
    3.1655  -11.1255   -1.4729 H   0  0  0  0  0  0  0  0  0  0  0  0
    1.6277   -9.4477   -1.2024 H   0  0  0  0  0  0  0  0  0  0  0  0
  1  8  1  0  0  0  0
  1 21  2  0  0  0  0
  1 33  1  0  0  0  0
  2 10  1  0  0  0  0
  2 20  1  0  0  0  0
  2 21  1  0  0  0  0
  3  4  2  0  0  0  0
  3 29  1  0  0  0  0
  3 34  1  0  0  0  0
  4  5  1  0  0  0  0
  4 25  1  0  0  0  0
  5 28  2  0  0  0  0
  5 35  1  0  0  0  0
  6 22  2  0  0  0  0
  6 23  1  0  0  0  0
  6 36  1  0  0  0  0
  7 28  1  0  0  0  0
  7 29  2  0  0  0  0
  7 37  1  0  0  0  0
  8 10  2  0  0  0  0
  8 22  1  0  0  0  0
  9 10  1  0  0  0  0
  9 23  2  0  0  0  0
  9 24  1  0  0  0  0
 11 30  1  0  0  0  0
 11 31  2  0  0  0  0
 11 32  1  0  0  0  0
 12 18  2  0  0  0  0
 12 19  1  0  0  0  0
 12 32  1  0  0  0  0
 13 14  2  0  0  0  0
 13 15  1  0  0  0  0
 13 19  1  0  0  0  0
 14 18  1  0  0  0  0
 14 38  1  0  0  0  0
 15 16  1  0  0  0  0
 15 39  1  0  0  0  0
 15 40  1  0  0  0  0
 16 24  1  0  0  0  0
 16 41  1  0  0  0  0
 16 42  1  0  0  0  0
 17 25  1  0  0  0  0
 20 43  1  0  0  0  0
 20 44  1  0  0  0  0
 20 45  1  0  0  0  0
 24 46  1  0  0  0  0
 25 26  1  0  0  0  0
 25 27  1  0  0  0  0
 28 47  1  0  0  0  0
 29 30  1  0  0  0  0
 30 48  1  0  0  0  0
 32 49  1  0  0  0  0
M  END
>  <DRUGBANK_ID>
DB07362

>  <COMMON_NAME>
1-(5-{2-[(1-methyl-1H-pyrazolo[4,3-d]pyrimidin-7-yl)amino]ethyl}-1,3-thiazol-2-yl)-3-[3-(trifluoromethyl)phenyl]urea

$$$$
