WAN
 OpenBabel10282417173D

 45 47  0  0  0  0  0  0  0  0999 V2000
    0.3395    0.7129    0.1928 C   0  0  0  0  0  0  0  0  0  0  0  0
    0.0943    1.7686   -0.8029 C   0  0  0  0  0  0  0  0  0  0  0  0
    0.8337    1.4997   -2.1596 C   0  0  0  0  0  0  0  0  0  0  0  0
    0.5270    0.2458   -2.9936 C   0  0  0  0  0  0  0  0  0  0  0  0
    1.1365   -1.0612   -3.0347 C   0  0  0  0  0  0  0  0  0  0  0  0
    2.1883   -1.6526   -2.2985 N   0  0  0  0  0  0  0  0  0  0  0  0
   -0.4166    0.3058   -3.9621 N   0  0  0  0  0  0  0  0  0  0  0  0
   -0.4374   -0.9456   -4.5056 N   0  0  0  0  0  0  0  0  0  0  0  0
   -1.1901   -1.2123   -5.7098 C   0  0  0  0  0  0  0  0  0  0  0  0
    0.3568   -1.8287   -3.8400 C   0  0  0  0  0  0  0  0  0  0  0  0
    0.4673   -3.2598   -3.8942 C   0  0  0  0  0  0  0  0  0  0  0  0
   -0.0229   -3.9848   -4.7197 O   0  0  0  0  0  0  0  0  0  0  0  0
    1.2366   -3.7486   -2.8433 N   0  0  0  0  0  0  0  0  0  0  0  0
    2.0569   -2.9431   -2.1005 C   0  0  0  0  0  0  0  0  0  0  0  0
    2.8569   -3.6459   -1.0424 C   0  0  0  0  0  0  0  0  0  0  0  0
    4.1402   -4.1554   -1.3344 C   0  0  0  0  0  0  0  0  0  0  0  0
    4.7898   -4.7041   -0.2557 C   0  0  0  0  0  0  0  0  0  0  0  0
    6.3147   -5.5702   -0.2067 S   0  0  0  0  0  0  0  0  0  0  0  0
    7.2557   -4.7435    0.5072 O   0  0  0  0  0  0  0  0  0  0  0  0
    6.0020   -6.9331    0.1417 O   0  0  0  0  0  0  0  0  0  0  0  0
    6.8075   -5.5610   -1.8233 N   0  0  0  0  0  0  0  0  0  0  0  0
    3.9311   -4.5232    1.1823 S   0  0  0  0  0  0  0  0  0  0  0  0
    2.5816   -3.8603    0.3377 C   0  0  0  0  0  0  0  0  0  0  0  0
    1.5488   -3.5250    1.1362 O   0  0  0  0  0  0  0  0  0  0  0  0
    0.7785   -2.4863    0.5992 C   0  0  0  0  0  0  0  0  0  0  0  0
    1.7690   -1.3988    0.2868 C   0  0  0  0  0  0  0  0  0  0  0  0
   -0.2237   -0.1577   -0.1738 H   0  0  0  0  0  0  0  0  0  0  0  0
    0.1069    0.7718    1.2570 H   0  0  0  0  0  0  0  0  0  0  0  0
    1.4368    0.7107    0.1644 H   0  0  0  0  0  0  0  0  0  0  0  0
   -0.9852    1.8491   -0.9020 H   0  0  0  0  0  0  0  0  0  0  0  0
    0.5124    2.6633   -0.3272 H   0  0  0  0  0  0  0  0  0  0  0  0
    0.6094    2.3912   -2.7579 H   0  0  0  0  0  0  0  0  0  0  0  0
    1.9210    1.5136   -2.0004 H   0  0  0  0  0  0  0  0  0  0  0  0
   -0.4920   -1.5893   -6.4642 H   0  0  0  0  0  0  0  0  0  0  0  0
   -1.9522   -1.9613   -5.4864 H   0  0  0  0  0  0  0  0  0  0  0  0
   -1.6550   -0.2926   -6.0748 H   0  0  0  0  0  0  0  0  0  0  0  0
    1.3658   -4.7469   -2.7969 H   0  0  0  0  0  0  0  0  0  0  0  0
    4.5602   -4.1406   -2.3259 H   0  0  0  0  0  0  0  0  0  0  0  0
    6.9638   -4.6050   -2.1446 H   0  0  0  0  0  0  0  0  0  0  0  0
    7.6388   -6.1386   -1.9310 H   0  0  0  0  0  0  0  0  0  0  0  0
    0.2068   -2.8801   -0.2542 H   0  0  0  0  0  0  0  0  0  0  0  0
    0.0143   -2.0893    1.2833 H   0  0  0  0  0  0  0  0  0  0  0  0
    2.7933   -1.5566   -0.0527 H   0  0  0  0  0  0  0  0  0  0  0  0
    1.3356   -0.9373   -0.5792 H   0  0  0  0  0  0  0  0  0  0  0  0
    1.9468   -0.7939    1.1671 H   0  0  0  0  0  0  0  0  0  0  0  0
  1  2  1  0  0  0  0
  1 27  1  0  0  0  0
  1 28  1  0  0  0  0
  1 29  1  0  0  0  0
  2  3  1  0  0  0  0
  2 30  1  0  0  0  0
  2 31  1  0  0  0  0
  3  4  1  0  0  0  0
  3 32  1  0  0  0  0
  3 33  1  0  0  0  0
  4  5  1  0  0  0  0
  4  7  2  0  0  0  0
  5  6  1  0  0  0  0
  5 10  2  0  0  0  0
  6 14  2  0  0  0  0
  7  8  1  0  0  0  0
  8  9  1  0  0  0  0
  8 10  1  0  0  0  0
  9 34  1  0  0  0  0
  9 35  1  0  0  0  0
  9 36  1  0  0  0  0
 10 11  1  0  0  0  0
 11 12  2  0  0  0  0
 11 13  1  0  0  0  0
 13 14  1  0  0  0  0
 13 37  1  0  0  0  0
 14 15  1  0  0  0  0
 15 16  1  0  0  0  0
 15 23  2  0  0  0  0
 16 17  2  0  0  0  0
 16 38  1  0  0  0  0
 17 18  1  0  0  0  0
 17 22  1  0  0  0  0
 18 19  2  0  0  0  0
 18 20  2  0  0  0  0
 18 21  1  0  0  0  0
 21 39  1  0  0  0  0
 21 40  1  0  0  0  0
 22 23  1  0  0  0  0
 23 24  1  0  0  0  0
 24 25  1  0  0  0  0
 25 26  1  0  0  0  0
 25 41  1  0  0  0  0
 25 42  1  0  0  0  0
 26 43  1  0  0  0  0
 26 44  1  0  0  0  0
 26 45  1  0  0  0  0
M  END
>  <DRUGBANK_ID>
DB08729

>  <COMMON_NAME>
5-ethoxy-4-(1-methyl-7-oxo-3-propyl-6,7-dihydro-1H-pyrazolo[4,3-d]pyrimidin-5-yl)thiophene-2-sulfonamide

$$$$
