
 OpenBabel10282417153D

 45 47  0  0  1  0  0  0  0  0999 V2000
    2.5252    0.0008   -0.0077 C   0  0  0  0  0  0  0  0  0  0  0  0
    1.0304    0.0372    0.0175 C   0  0  0  0  0  0  0  0  0  0  0  0
    0.3663    1.2651    0.0172 C   0  0  0  0  0  0  0  0  0  0  0  0
   -1.0118    1.3020   -0.0617 C   0  0  0  0  0  0  0  0  0  0  0  0
   -1.6764    0.0633   -0.1654 C   0  0  0  0  0  0  0  0  0  0  0  0
   -1.1080   -1.2020    0.0010 C   0  0  0  0  0  0  0  0  0  0  0  0
    0.2993   -1.1669    0.0309 C   0  0  0  0  0  0  0  0  0  0  0  0
   -2.0244   -2.7859    0.0126 P   0  0  1  0  0  0  0  0  0  0  0  0
   -0.7509   -3.5933    0.2473 O   0  0  0  0  0  0  0  0  0  0  0  0
   -2.7310   -2.2163    1.6627 C   0  0  0  0  0  0  0  0  0  0  0  0
   -3.7504   -1.1624    1.8144 C   0  0  0  0  0  0  0  0  0  0  0  0
   -4.4608   -0.2079    1.0155 C   0  0  0  0  0  0  0  0  0  0  0  0
   -5.2489    0.8011    1.5978 C   0  0  0  0  0  0  0  0  0  0  0  0
   -5.5035    0.7858    2.9431 C   0  0  0  0  0  0  0  0  0  0  0  0
   -5.0689   -0.2992    3.7016 C   0  0  0  0  0  0  0  0  0  0  0  0
   -4.1499   -1.2146    3.1454 C   0  0  0  0  0  0  0  0  0  0  0  0
   -3.5492   -2.3266    3.6988 N   0  0  0  0  0  0  0  0  0  0  0  0
   -2.5595   -2.8688    2.8836 C   0  0  0  0  0  0  0  0  0  0  0  0
   -1.8011   -4.0624    3.2831 C   0  0  0  0  0  0  0  0  0  0  0  0
   -2.1250   -4.7323    4.2609 O   0  0  0  0  0  0  0  0  0  0  0  0
   -0.8430   -4.5777    2.4465 N   0  0  0  0  0  0  0  0  0  0  0  0
   -6.0757    1.9903    0.6573 Cl  0  0  0  0  0  0  0  0  0  0  0  0
   -2.8908   -4.2833    0.0235 O   0  0  0  0  0  0  0  0  0  0  0  0
   -3.5167   -4.9154    1.1155 C   0  0  0  0  0  0  0  0  0  0  0  0
   -1.6967    2.6145   -0.0482 C   0  0  0  0  0  0  0  0  0  0  0  0
   -3.0178    2.7726   -0.1582 C   0  0  0  0  0  0  0  0  0  0  0  0
   -3.7141    4.0180   -0.0789 C   0  0  0  0  0  0  0  0  0  0  0  0
   -4.3551    4.9671   -0.0128 N   0  0  0  0  0  0  0  0  0  0  0  0
    2.9014   -0.5286    0.8711 H   0  0  0  0  0  0  0  0  0  0  0  0
    2.8696   -0.4960   -0.9199 H   0  0  0  0  0  0  0  0  0  0  0  0
    2.9337    1.0159    0.0003 H   0  0  0  0  0  0  0  0  0  0  0  0
    0.9338    2.1916    0.0317 H   0  0  0  0  0  0  0  0  0  0  0  0
   -2.7004    0.0781   -0.4339 H   0  0  0  0  0  0  0  0  0  0  0  0
    0.8677   -2.0978    0.0339 H   0  0  0  0  0  0  0  0  0  0  0  0
   -4.4146   -0.1960   -0.0672 H   0  0  0  0  0  0  0  0  0  0  0  0
   -6.1338    1.5630    3.3678 H   0  0  0  0  0  0  0  0  0  0  0  0
   -5.4501   -0.4084    4.7092 H   0  0  0  0  0  0  0  0  0  0  0  0
   -3.8220   -2.7230    4.5875 H   0  0  0  0  0  0  0  0  0  0  0  0
   -0.8253   -4.3012    1.4634 H   0  0  0  0  0  0  0  0  0  0  0  0
   -0.6893   -5.5778    2.4861 H   0  0  0  0  0  0  0  0  0  0  0  0
   -2.7542   -5.3537    1.7297 H   0  0  0  0  0  0  0  0  0  0  0  0
   -4.1897   -4.2485    1.6555 H   0  0  0  0  0  0  0  0  0  0  0  0
   -4.0775   -5.8136    0.8580 H   0  0  0  0  0  0  0  0  0  0  0  0
   -1.0816    3.5007    0.0826 H   0  0  0  0  0  0  0  0  0  0  0  0
   -3.6447    1.9174   -0.3098 H   0  0  0  0  0  0  0  0  0  0  0  0
  1  2  1  0  0  0  0
  1 29  1  0  0  0  0
  1 30  1  0  0  0  0
  1 31  1  0  0  0  0
  2  3  2  0  0  0  0
  2  7  1  0  0  0  0
  3  4  1  0  0  0  0
  3 32  1  0  0  0  0
  4  5  2  0  0  0  0
  4 25  1  0  0  0  0
  5  6  1  0  0  0  0
  5 33  1  0  0  0  0
  6  7  2  0  0  0  0
  7 34  1  0  0  0  0
  8  6  1  0  0  0  0
  8  9  2  1  0  0  0
  8 10  1  0  0  0  0
  8 23  1  0  0  0  0
 10 11  1  0  0  0  0
 10 18  2  0  0  0  0
 11 12  2  0  0  0  0
 11 16  1  0  0  0  0
 12 13  1  0  0  0  0
 12 35  1  0  0  0  0
 13 14  2  0  0  0  0
 13 22  1  0  0  0  0
 14 15  1  0  0  0  0
 14 36  1  0  0  0  0
 15 16  2  0  0  0  0
 15 37  1  0  0  0  0
 16 17  1  0  0  0  0
 17 18  1  0  0  0  0
 17 38  1  0  0  0  0
 18 19  1  0  0  0  0
 19 20  2  0  0  0  0
 19 21  1  0  0  0  0
 21 39  1  0  0  0  0
 21 40  1  0  0  0  0
 23 24  1  0  0  0  0
 24 41  1  0  0  0  0
 24 42  1  0  0  0  0
 24 43  1  0  0  0  0
 25 26  2  0  0  0  0
 25 44  1  0  0  0  0
 26 27  1  0  0  0  0
 26 45  1  0  0  0  0
 27 28  3  0  0  0  0
M  END
>  <DRUGBANK_ID>
DB06166

>  <COMMON_NAME>
Fosdevirine

>  <CAS_NUMBER>
1018450-26-4

>  <UNII>
Z4I0C281BJ

>  <SYNONYMS>
Fosdevirine

$$$$
