
 OpenBabel10282417183D

 15 12  0  0  0  0  0  0  0  0999 V2000
    0.9153   -0.0217   -0.0485 C   0  0  3  0  0  0  0  0  0  0  0  0
    0.4086   -0.4854   -1.4045 C   0  0  0  0  0  0  0  0  0  0  0  0
    0.4086   -0.9641    1.0311 C   0  0  0  0  0  0  0  0  0  0  0  0
    0.3120    1.6528    0.2805 S   0  0  0  0  0  0  0  0  0  0  0  0
    0.9153   -1.8916   -1.6808 C   0  0  0  0  0  0  0  0  0  0  0  0
   -0.3220   -0.5193    1.9711 O   0  0  0  0  0  0  0  0  0  0  0  0
    0.7517   -2.3414    0.9894 O   0  5  0  0  0  0  0  0  0  0  0  0
   -2.0980    1.6528    0.2805 Au  0  0  0  0  0  0  0  0  0  0  0  0
    0.0894   -2.8395   -1.8671 O   0  0  0  0  0  0  0  0  0  0  0  0
    2.3114   -2.1462   -1.7308 O   0  5  0  0  0  0  0  0  0  0  0  0
    0.9069    0.0118   -0.0346 Na  0  3  0  0  0  0  0  0  0  0  0  0
    0.9876   -0.0548   -0.0827 Na  0  3  0  0  0  0  0  0  0  0  0  0
    1.9853   -0.0217   -0.0485 H   0  0  0  0  0  0  0  0  0  0  0  0
   -0.6614   -0.4854   -1.4045 H   0  0  0  0  0  0  0  0  0  0  0  0
    0.7653    0.1780   -2.1645 H   0  0  0  0  0  0  0  0  0  0  0  0
  1  2  1  0  0  0  0
  1  3  1  0  0  0  0
  1  4  1  0  0  0  0
  1 13  1  0  0  0  0
  2  5  1  0  0  0  0
  2 14  1  0  0  0  0
  2 15  1  0  0  0  0
  3  6  2  0  0  0  0
  3  7  1  0  0  0  0
  4  8  1  0  0  0  0
  5  9  2  0  0  0  0
  5 10  1  0  0  0  0
M  CHG  4   7  -1  10  -1  11   1  12   1
M  END
>  <DRUGBANK_ID>
DB09276

>  <COMMON_NAME>
Sodium aurothiomalate

>  <CAS_NUMBER>
12244-57-4

>  <UNII>
HRS6S09A0H

>  <SYNONYMS>
Aurotiomalato sodico; Gold sodium thiomalate; Natrii aurothiomalas; Sodium aurothiomalate

$$$$
