
 OpenBabel10282417183D

 47 48  0  0  0  0  0  0  0  0999 V2000
    1.0785    0.1286   -0.0252 C   0  0  0  0  0  0  0  0  0  0  0  0
    3.5383   -6.0643    1.8762 C   0  0  0  0  0  0  0  0  0  0  0  0
    2.5557   -4.0935    2.3026 C   0  0  0  0  0  0  0  0  0  0  0  0
    0.6263   -1.1151   -0.7823 C   0  0  0  0  0  0  0  0  0  0  0  0
    0.6002   -3.6581    5.0079 C   0  0  0  0  0  0  0  0  0  0  0  0
   -4.0894   -2.0768   -0.4578 C   0  0  0  0  0  0  0  0  0  0  0  0
    0.1360   -4.7751    4.3168 C   0  0  0  0  0  0  0  0  0  0  0  0
    0.5799   -2.4071    4.3908 C   0  0  0  0  0  0  0  0  0  0  0  0
   -3.1672   -1.1364   -0.0323 C   0  0  0  0  0  0  0  0  0  0  0  0
   -3.7929   -3.4385   -0.3890 C   0  0  0  0  0  0  0  0  0  0  0  0
   -0.3307   -4.6469    2.9994 C   0  0  0  0  0  0  0  0  0  0  0  0
    0.1011   -2.2627    3.0820 C   0  0  0  0  0  0  0  0  0  0  0  0
   -1.9558   -1.5758    0.4587 C   0  0  0  0  0  0  0  0  0  0  0  0
   -2.5420   -3.8624    0.0348 C   0  0  0  0  0  0  0  0  0  0  0  0
    0.3172   -4.7389    0.0838 C   0  0  0  0  0  0  0  0  0  0  0  0
    1.7977   -5.2646    0.3019 C   0  0  0  0  0  0  0  0  0  0  0  0
   -0.2452   -3.4013    2.3211 C   0  0  0  0  0  0  0  0  0  0  0  0
   -1.5655   -2.9232    0.3492 C   0  0  0  0  0  0  0  0  0  0  0  0
    0.9694   -2.3311    0.0653 C   0  0  0  0  0  0  0  0  0  0  0  0
   -0.1472   -3.3368    0.7260 C   0  0  0  0  0  0  0  0  0  0  0  0
    2.2687   -5.3859    1.6935 N   0  0  0  0  0  0  0  0  0  0  0  0
    2.1787   -2.4977    0.1559 O   0  0  0  0  0  0  0  0  0  0  0  0
    0.7186    0.1380    1.0077 H   0  0  0  0  0  0  0  0  0  0  0  0
    0.7217    1.0352   -0.5176 H   0  0  0  0  0  0  0  0  0  0  0  0
    2.1727    0.1712    0.0297 H   0  0  0  0  0  0  0  0  0  0  0  0
    4.3582   -5.4495    1.4853 H   0  0  0  0  0  0  0  0  0  0  0  0
    3.6943   -6.1732    2.9603 H   0  0  0  0  0  0  0  0  0  0  0  0
    3.5681   -7.0558    1.4354 H   0  0  0  0  0  0  0  0  0  0  0  0
    3.4125   -3.5304    1.9388 H   0  0  0  0  0  0  0  0  0  0  0  0
    1.7811   -3.4318    2.0617 H   0  0  0  0  0  0  0  0  0  0  0  0
    2.5940   -4.1703    3.3882 H   0  0  0  0  0  0  0  0  0  0  0  0
   -0.3985   -1.0556   -1.1221 H   0  0  0  0  0  0  0  0  0  0  0  0
    1.1912   -1.1969   -1.7198 H   0  0  0  0  0  0  0  0  0  0  0  0
    1.0969   -3.7847    5.9670 H   0  0  0  0  0  0  0  0  0  0  0  0
   -5.0608   -1.7473   -0.8029 H   0  0  0  0  0  0  0  0  0  0  0  0
    0.3337   -5.7708    4.7153 H   0  0  0  0  0  0  0  0  0  0  0  0
    1.0972   -1.5725    4.8597 H   0  0  0  0  0  0  0  0  0  0  0  0
   -3.3663   -0.0702   -0.0777 H   0  0  0  0  0  0  0  0  0  0  0  0
   -4.5316   -4.1808   -0.6687 H   0  0  0  0  0  0  0  0  0  0  0  0
   -0.4840   -5.5787    2.4582 H   0  0  0  0  0  0  0  0  0  0  0  0
    0.2427   -1.3031    2.5999 H   0  0  0  0  0  0  0  0  0  0  0  0
   -1.2846   -0.8288    0.8720 H   0  0  0  0  0  0  0  0  0  0  0  0
   -2.3576   -4.9259    0.1566 H   0  0  0  0  0  0  0  0  0  0  0  0
   -0.3566   -5.5529    0.3784 H   0  0  0  0  0  0  0  0  0  0  0  0
    0.1780   -4.6640   -1.0085 H   0  0  0  0  0  0  0  0  0  0  0  0
    1.8170   -6.2645   -0.1596 H   0  0  0  0  0  0  0  0  0  0  0  0
    2.5012   -4.6838   -0.3014 H   0  0  0  0  0  0  0  0  0  0  0  0
  1 23  1  0  0  0  0
  1 24  1  0  0  0  0
  1 25  1  0  0  0  0
  2 26  1  0  0  0  0
  2 27  1  0  0  0  0
  2 28  1  0  0  0  0
  3 29  1  0  0  0  0
  3 30  1  0  0  0  0
  3 31  1  0  0  0  0
  4  1  1  0  0  0  0
  4 32  1  0  0  0  0
  4 33  1  0  0  0  0
  5 34  1  0  0  0  0
  6 35  1  0  0  0  0
  7  5  2  0  0  0  0
  7 36  1  0  0  0  0
  8  5  1  0  0  0  0
  8 37  1  0  0  0  0
  9  6  2  0  0  0  0
  9 38  1  0  0  0  0
 10  6  1  0  0  0  0
 10 39  1  0  0  0  0
 11  7  1  0  0  0  0
 11 40  1  0  0  0  0
 12  8  2  0  0  0  0
 12 41  1  0  0  0  0
 13  9  1  0  0  0  0
 13 42  1  0  0  0  0
 14 10  2  0  0  0  0
 14 43  1  0  0  0  0
 15 44  1  0  0  0  0
 15 45  1  0  0  0  0
 16 15  1  0  0  0  0
 16 46  1  0  0  0  0
 16 47  1  0  0  0  0
 17 11  2  0  0  0  0
 17 12  1  0  0  0  0
 18 13  2  0  0  0  0
 18 14  1  0  0  0  0
 19  4  1  0  0  0  0
 20 15  1  0  0  0  0
 20 17  1  0  0  0  0
 20 18  1  0  0  0  0
 20 19  1  0  0  0  0
 21  2  1  0  0  0  0
 21  3  1  0  0  0  0
 21 16  1  0  0  0  0
 22 19  2  0  0  0  0
M  END
>  <DRUGBANK_ID>
DB11609

>  <COMMON_NAME>
Normethadone

>  <CAS_NUMBER>
467-85-6

>  <UNII>
KR2L2A68XL

>  <SYNONYMS>
6-dimethylamino-4,4-diphenyl-3-hexanone; Desmethylmethadone; Isomethadone I; Normethadone

$$$$
