
 OpenBabel10282417203D

 55 59  0  0  0  0  0  0  0  0999 V2000
   -1.2880    1.0231   -1.8504 C   0  0  0  0  0  0  0  0  0  0  0  0
   -0.5969    0.6382   -0.7049 N   0  0  0  0  0  0  0  0  0  0  0  0
   -0.0983    2.0339   -0.3846 C   0  0  1  0  0  0  0  0  0  0  0  0
    0.5645    3.0777   -1.8847 C   0  0  0  0  0  0  0  0  0  0  0  0
   -0.4606    3.2336   -3.2318 C   0  0  0  0  0  0  0  0  0  0  0  0
   -1.9642    3.4420   -2.4306 C   0  0  1  0  0  0  0  0  0  0  0  0
   -2.7461    4.5636   -2.8624 O   0  0  0  0  0  0  0  0  0  0  0  0
   -3.8662    4.7408   -1.9456 C   0  0  0  0  0  0  0  0  0  0  0  0
   -4.8903    3.5802   -1.7323 C   0  0  0  0  0  0  0  0  0  0  0  0
   -4.4398    2.2220   -2.0921 C   0  0  0  0  0  0  0  0  0  0  0  0
   -3.2218    2.1469   -2.7490 C   0  0  0  0  0  0  0  0  0  0  0  0
   -3.2117    0.7145   -3.1134 N   0  0  0  0  0  0  0  0  0  0  0  0
   -4.0171   -0.0419   -2.2391 C   0  0  0  0  0  0  0  0  0  0  0  0
   -4.9714    0.8714   -1.8295 C   0  0  0  0  0  0  0  0  0  0  0  0
   -6.1214    0.2768   -1.2702 C   0  0  0  0  0  0  0  0  0  0  0  0
   -6.1956   -1.1309   -1.0895 C   0  0  0  0  0  0  0  0  0  0  0  0
   -5.1063   -1.9675   -1.2532 C   0  0  0  0  0  0  0  0  0  0  0  0
   -3.9721   -1.4237   -1.8338 C   0  0  0  0  0  0  0  0  0  0  0  0
   -7.3785   -1.6916   -0.8032 F   0  0  0  0  0  0  0  0  0  0  0  0
   -1.5088    3.9667   -0.7568 C   0  0  0  0  0  0  0  0  0  0  0  0
   -1.2308    2.8954    0.2746 C   0  0  0  0  0  0  0  0  0  0  0  0
    1.0352    1.6113    0.5017 C   0  0  0  0  0  0  0  0  0  0  0  0
    1.7819    2.6905    0.8638 C   0  0  0  0  0  0  0  0  0  0  0  0
    3.0581    2.6111    0.3903 C   0  0  0  0  0  0  0  0  0  0  0  0
    3.6271    1.3708    0.0481 C   0  0  0  0  0  0  0  0  0  0  0  0
    2.9219    0.1797    0.1490 C   0  0  0  0  0  0  0  0  0  0  0  0
    1.5786    0.2975    0.3531 C   0  0  0  0  0  0  0  0  0  0  0  0
   -1.6875   -0.1316   -0.1090 C   0  0  0  0  0  0  0  0  0  0  0  0
   -0.7927    1.8150   -2.1093 H   0  0  0  0  0  0  0  0  0  0  0  0
   -2.1111    1.5417   -1.3519 H   0  0  0  0  0  0  0  0  0  0  0  0
   -1.0788    0.6663   -2.8151 H   0  0  0  0  0  0  0  0  0  0  0  0
    1.6039    2.8622   -2.1732 H   0  0  0  0  0  0  0  0  0  0  0  0
    0.6812    4.1663   -1.7437 H   0  0  0  0  0  0  0  0  0  0  0  0
    0.0990    2.2654   -3.4620 H   0  0  0  0  0  0  0  0  0  0  0  0
   -0.7805    2.8350   -4.2275 H   0  0  0  0  0  0  0  0  0  0  0  0
   -3.5308    5.0494   -0.9578 H   0  0  0  0  0  0  0  0  0  0  0  0
   -4.3910    5.6346   -2.2738 H   0  0  0  0  0  0  0  0  0  0  0  0
   -5.2520    3.6086   -0.6978 H   0  0  0  0  0  0  0  0  0  0  0  0
   -5.7047    3.7757   -2.4212 H   0  0  0  0  0  0  0  0  0  0  0  0
   -2.4535    0.1614   -3.4804 H   0  0  0  0  0  0  0  0  0  0  0  0
   -6.9844    0.8875   -1.0619 H   0  0  0  0  0  0  0  0  0  0  0  0
   -5.1598   -3.0325   -1.0159 H   0  0  0  0  0  0  0  0  0  0  0  0
   -3.0975   -2.0742   -1.9445 H   0  0  0  0  0  0  0  0  0  0  0  0
   -1.9653    4.8756   -0.3595 H   0  0  0  0  0  0  0  0  0  0  0  0
   -0.5535    4.5080   -0.7145 H   0  0  0  0  0  0  0  0  0  0  0  0
   -2.1970    2.4285    0.4935 H   0  0  0  0  0  0  0  0  0  0  0  0
   -0.9264    3.2745    1.2634 H   0  0  0  0  0  0  0  0  0  0  0  0
    1.2836    3.6356    1.0460 H   0  0  0  0  0  0  0  0  0  0  0  0
    3.5491    3.5496    0.1769 H   0  0  0  0  0  0  0  0  0  0  0  0
    4.6322    1.3476   -0.3407 H   0  0  0  0  0  0  0  0  0  0  0  0
    3.3365   -0.7926   -0.0868 H   0  0  0  0  0  0  0  0  0  0  0  0
    0.9719   -0.5816    0.0930 H   0  0  0  0  0  0  0  0  0  0  0  0
   -2.6432    0.3991    0.0576 H   0  0  0  0  0  0  0  0  0  0  0  0
   -1.8652   -0.8500   -0.9212 H   0  0  0  0  0  0  0  0  0  0  0  0
   -1.5332   -0.8281    0.7039 H   0  0  0  0  0  0  0  0  0  0  0  0
  1  2  1  0  0  0  0
  1 29  1  0  0  0  0
  1 30  1  0  0  0  0
  1 31  1  0  0  0  0
  2 28  1  0  0  0  0
  3  4  1  0  0  0  0
  3 21  1  0  0  0  0
  3 22  1  0  0  0  0
  3  2  1  6  0  0  0
  4  5  1  0  0  0  0
  4 32  1  0  0  0  0
  4 33  1  0  0  0  0
  5  6  1  0  0  0  0
  5 34  1  0  0  0  0
  5 35  1  0  0  0  0
  6  7  1  6  0  0  0
  6 11  1  0  0  0  0
  6 20  1  0  0  0  0
  7  8  1  0  0  0  0
  8  9  1  0  0  0  0
  8 36  1  0  0  0  0
  8 37  1  0  0  0  0
  9 10  1  0  0  0  0
  9 38  1  0  0  0  0
  9 39  1  0  0  0  0
 10 11  2  0  0  0  0
 10 14  1  0  0  0  0
 11 12  1  0  0  0  0
 12 13  1  0  0  0  0
 12 40  1  0  0  0  0
 13 14  1  0  0  0  0
 13 18  2  0  0  0  0
 14 15  2  0  0  0  0
 15 16  1  0  0  0  0
 15 41  1  0  0  0  0
 16 17  2  0  0  0  0
 16 19  1  0  0  0  0
 17 18  1  0  0  0  0
 17 42  1  0  0  0  0
 18 43  1  0  0  0  0
 20 21  1  0  0  0  0
 20 44  1  0  0  0  0
 20 45  1  0  0  0  0
 21 46  1  0  0  0  0
 21 47  1  0  0  0  0
 22 23  2  0  0  0  0
 22 27  1  0  0  0  0
 23 24  1  0  0  0  0
 23 48  1  0  0  0  0
 24 25  2  0  0  0  0
 24 49  1  0  0  0  0
 25 26  1  0  0  0  0
 25 50  1  0  0  0  0
 26 27  2  0  0  0  0
 26 51  1  0  0  0  0
 27 52  1  0  0  0  0
 28 53  1  0  0  0  0
 28 54  1  0  0  0  0
 28 55  1  0  0  0  0
M  END
>  <DRUGBANK_ID>
DB12830

>  <COMMON_NAME>
Cebranopadol

>  <CAS_NUMBER>
863513-91-1

>  <UNII>
7GDW9S3GN3

>  <SYNONYMS>
Cebranopadol

$$$$
