
 OpenBabel10282417183D

209223  0  0  0  0  0  0  0  0999 V2000
    0.8431   -5.5449    8.2865 Co  0  7  0  0  0  0  0  0  0  0  0  0
    4.3105   -7.0504    6.0585 C   0  0  0  0  0  0  0  0  0  0  0  0
    0.0893   -4.3574    8.9065 N   0  0  0  0  0  0  0  0  0  0  0  0
    2.2938   -5.4667    8.7989 N   0  3  0  0  0  0  0  0  0  0  0  0
    4.0636   -1.5579    9.5349 C   0  0  0  0  0  0  0  0  0  0  0  0
    3.0050   -1.6595    8.4489 C   0  0  2  0  0  0  0  0  0  0  0  0
    0.7334   -7.5318    9.9237 C   0  0  0  0  0  0  0  0  0  0  0  0
    0.2172   -6.8371    8.7355 N   0  3  0  0  0  0  0  0  0  0  0  0
   -0.8315   -7.3632    8.0368 C   0  0  0  0  0  0  0  0  0  0  0  0
   -1.3168   -6.6765    6.8361 C   0  0  0  0  0  0  0  0  0  0  0  0
   -0.5494   -5.7467    6.2371 C   0  0  0  0  0  0  0  0  0  0  0  0
    0.8255   -5.4348    6.7660 N   0  3  0  0  0  0  0  0  0  0  0  0
    0.2794   -3.0212    5.6401 C   0  0  0  0  0  0  0  0  0  0  0  0
   -1.1198   -3.5154    5.3111 C   0  0  1  0  0  0  0  0  0  0  0  0
   -1.6451   -2.7750    4.0920 C   0  0  0  0  0  0  0  0  0  0  0  0
   -3.0443   -3.2692    3.7629 C   0  0  0  0  0  0  0  0  0  0  0  0
   -3.9634   -3.0131    4.9462 C   0  0  0  0  0  0  0  0  0  0  0  0
   -1.0747   -5.0062    5.0179 C   0  0  0  0  0  0  0  0  0  0  0  0
   -0.1556   -5.2623    3.8347 C   0  0  0  0  0  0  0  0  0  0  0  0
   -2.4739   -5.5004    4.6889 C   0  0  0  0  0  0  0  0  0  0  0  0
    2.2355   -7.8506   11.8739 C   0  0  0  0  0  0  0  0  0  0  0  0
    3.9020   -2.3384   10.8291 C   0  0  0  0  0  0  0  0  0  0  0  0
    4.9606   -2.2368   11.9152 C   0  0  0  0  0  0  0  0  0  0  0  0
    1.0331   -3.6055    6.8237 C   0  0  0  0  0  0  0  0  0  0  0  0
    0.3775   -4.8814    6.3211 C   0  0  0  0  0  0  0  0  0  0  0  0
    1.1092   -3.5969    9.7787 C   0  0  1  0  0  0  0  0  0  0  0  0
    1.0444   -3.9111   10.7994 H   0  0  0  0  0  0  0  0  0  0  0  0
    2.4841   -3.9757    9.1733 C   0  0  2  0  0  0  0  0  0  0  0  0
    3.5976   -3.8049   10.1937 C   0  0  0  0  0  0  0  0  0  0  0  0
    4.3412   -8.9731    4.4889 C   0  0  0  0  0  0  0  0  0  0  0  0
    1.5236   -5.5655   11.2161 C   0  0  1  0  0  0  0  0  0  0  0  0
    2.6910   -4.9784   11.9926 C   0  0  0  0  0  0  0  0  0  0  0  0
    3.9008   -4.8644   11.0794 C   0  0  0  0  0  0  0  0  0  0  0  0
    3.5661   -3.9584    9.9057 C   0  0  0  0  0  0  0  0  0  0  0  0
    4.2370   -2.8968    9.7109 O   0  0  0  0  0  0  0  0  0  0  0  0
    2.4663   -4.3102    8.9959 N   0  0  0  0  0  0  0  0  0  0  0  0
    3.1105   -6.8307    9.7870 C   0  0  0  0  0  0  0  0  0  0  0  0
    2.7772   -7.4932    8.4602 C   0  0  0  0  0  0  0  0  0  0  0  0
    2.3947   -8.7049    8.4334 O   0  0  0  0  0  0  0  0  0  0  0  0
    2.8973   -6.7324    7.2082 N   0  0  0  0  0  0  0  0  0  0  0  0
    1.9007   -6.9447   10.7002 C   0  0  2  0  0  0  0  0  0  0  0  0
    1.8248   -3.2061    6.9074 C   0  0  0  0  0  0  0  0  0  0  0  0
    2.4892   -3.1659    5.5409 C   0  0  0  0  0  0  0  0  0  0  0  0
    2.3725   -4.1525    4.7483 O   0  0  0  0  0  0  0  0  0  0  0  0
    3.2668   -1.9859    5.1362 N   0  0  0  0  0  0  0  0  0  0  0  0
    2.1826   -7.9298    5.1314 C   0  0  2  0  0  0  0  0  0  0  0  0
    1.4146   -7.2610    6.2598 C   0  0  0  0  0  0  0  0  0  0  0  0
    2.1519   -6.0071    6.7009 C   0  0  0  0  0  0  0  0  0  0  0  0
    1.5808   -4.8743    6.6250 O   0  0  0  0  0  0  0  0  0  0  0  0
    3.5254   -6.1048    7.2153 N   0  0  0  0  0  0  0  0  0  0  0  0
    2.8788   -6.9796    6.7145 C   0  0  0  0  0  0  0  0  0  0  0  0
    1.5072   -8.3525    7.6795 C   0  0  0  0  0  0  0  0  0  0  0  0
    3.2776   -8.2546    6.3965 C   0  0  0  0  0  0  0  0  0  0  0  0
    1.8092   -7.0668    7.4920 N   0  3  0  0  0  0  0  0  0  0  0  0
    2.4070   -9.1109    7.0125 N   0  0  0  0  0  0  0  0  0  0  0  0
    2.4425  -10.5795    6.9596 C   0  0  1  0  0  0  0  0  0  0  0  0
    2.4822  -11.1762    8.3879 O   0  0  0  0  0  0  0  0  0  0  0  0
    1.9198  -12.6068    8.1740 C   0  0  2  0  0  0  0  0  0  0  0  0
    3.0017  -13.5390    7.6537 C   0  0  0  0  0  0  0  0  0  0  0  0
    2.5619  -14.1568    6.4531 O   0  0  0  0  0  0  0  0  0  0  0  0
    1.1373  -11.1333    6.3516 C   0  0  2  0  0  0  0  0  0  0  0  0
    0.0828  -10.1880    6.4552 O   0  0  0  0  0  0  0  0  0  0  0  0
    0.8047  -12.4224    7.1234 C   0  0  2  0  0  0  0  0  0  0  0  0
   -0.4713  -12.3354    7.7404 O   0  0  0  0  0  0  0  0  0  0  0  0
    2.6906   -8.5951    7.9190 C   0  0  0  0  0  0  0  0  0  0  0  0
    1.2999   -8.2205    7.4330 C   0  0  0  0  0  0  0  0  0  0  0  0
    1.1626   -7.4229    6.4532 O   0  0  0  0  0  0  0  0  0  0  0  0
    0.1138   -8.7810    8.0963 N   0  0  0  0  0  0  0  0  0  0  0  0
   -1.2311   -8.4188    7.6263 C   0  0  0  0  0  0  0  0  0  0  0  0
    3.4586   -9.2639    6.7905 C   0  0  0  0  0  0  0  0  0  0  0  0
    3.5732   -8.3043    5.6173 C   0  0  1  0  0  0  0  0  0  0  0  0
   -1.9684   -9.6726    7.1852 C   0  0  2  0  0  0  0  0  0  0  0  0
   -2.0755  -10.5691    8.2812 O   0  0  0  0  0  0  0  0  0  0  0  0
   -1.2004  -10.3414    6.0568 C   0  0  0  0  0  0  0  0  0  0  0  0
   -0.3254  -11.9672   10.0280 O   0  0  0  0  0  0  0  0  0  0  0  0
   -0.4927  -10.9954    8.8343 P   0  0  3  0  0  0  0  0  0  0  0  0
   -0.5141   -9.6553    9.9283 O   0  5  0  0  0  0  0  0  0  0  0  0
   -4.9863   -2.2718    4.8075 O   0  0  0  0  0  0  0  0  0  0  0  0
   -3.6691   -3.6229    6.2510 N   0  0  0  0  0  0  0  0  0  0  0  0
    2.8834   -3.1045    7.9935 C   0  0  1  0  0  0  0  0  0  0  0  0
    4.2197   -3.5769    7.4443 C   0  0  0  0  0  0  0  0  0  0  0  0
    4.3671   -8.4587    5.5970 C   0  0  0  0  0  0  0  0  0  0  0  0
    4.6823   -6.0975    5.4168 C   0  0  0  0  0  0  0  0  0  0  0  0
    3.4044   -0.7883    7.2690 C   0  0  0  0  0  0  0  0  0  0  0  0
    2.3458   -0.8899    6.1830 C   0  0  0  0  0  0  0  0  0  0  0  0
    1.0095   -0.4175    6.7322 C   0  0  0  0  0  0  0  0  0  0  0  0
    0.4862   -1.0101    7.7274 O   0  0  0  0  0  0  0  0  0  0  0  0
    0.3224    0.7246    6.1123 N   0  0  0  0  0  0  0  0  0  0  0  0
   -1.0591   -5.6474    7.6147 C   0  0  0  0  0  0  0  0  0  0  0  0
   -2.7046  -12.9100    7.1611 N   0  0  0  0  0  0  0  0  0  0  0  0
   -2.2305  -11.5199    7.2226 C   0  0  0  0  0  0  0  0  0  0  0  0
   -2.2397  -10.8080    8.4089 N   0  0  0  0  0  0  0  0  0  0  0  0
   -1.7747   -9.4979    8.4463 C   0  0  0  0  0  0  0  0  0  0  0  0
   -1.3236   -8.8656    7.3949 N   0  0  0  0  0  0  0  0  0  0  0  0
   -1.2693   -9.4446    6.1832 C   0  0  0  0  0  0  0  0  0  0  0  0
   -1.7299  -10.8330    6.0318 C   0  0  0  0  0  0  0  0  0  0  0  0
   -1.5730  -11.1577    4.7647 N   0  0  0  0  0  0  0  0  0  0  0  0
   -1.0355  -10.0603    4.0801 C   0  0  0  0  0  0  0  0  0  0  0  0
   -0.8548   -9.0372    4.9304 N   0  0  0  0  0  0  0  0  0  0  0  0
   -1.0304   -7.5946    4.7092 C   0  0  2  0  0  0  0  0  0  0  0  0
   -0.2197   -6.7810    5.7391 O   0  0  0  0  0  0  0  0  0  0  0  0
   -1.0723   -5.5511    6.0978 C   0  0  1  0  0  0  0  0  0  0  0  0
   -2.3719   -5.6606    5.2730 C   0  0  1  0  0  0  0  0  0  0  0  0
   -2.2720   -4.9071    4.0736 O   0  0  0  0  0  0  0  0  0  0  0  0
   -2.4996   -7.1757    4.9620 C   0  0  1  0  0  0  0  0  0  0  0  0
   -3.3624   -7.4568    3.8699 O   0  0  0  0  0  0  0  0  0  0  0  0
    5.0655   -7.4138    5.1093 C   0  0  0  0  0  0  0  0  0  0  0  0
    3.6004   -5.8783    6.2111 C   0  0  0  0  0  0  0  0  0  0  0  0
    6.2744   -7.6611    4.2217 C   0  0  0  0  0  0  0  0  0  0  0  0
    5.4736   -4.9234    4.8640 C   0  0  0  0  0  0  0  0  0  0  0  0
    2.0644   -1.3269    8.8355 H   0  0  0  0  0  0  0  0  0  0  0  0
   -2.2804   -6.9142    6.4361 H   0  0  0  0  0  0  0  0  0  0  0  0
   -1.7668   -3.3352    6.1440 H   0  0  0  0  0  0  0  0  0  0  0  0
   -1.6768   -1.7256    4.2984 H   0  0  0  0  0  0  0  0  0  0  0  0
   -0.9981   -2.9553    3.2590 H   0  0  0  0  0  0  0  0  0  0  0  0
   -3.4140   -2.7480    2.9048 H   0  0  0  0  0  0  0  0  0  0  0  0
   -3.0125   -4.3186    3.5566 H   0  0  0  0  0  0  0  0  0  0  0  0
   -0.1238   -6.3117    3.6283 H   0  0  0  0  0  0  0  0  0  0  0  0
   -0.5253   -4.7411    2.9765 H   0  0  0  0  0  0  0  0  0  0  0  0
    0.8294   -4.9144    4.0663 H   0  0  0  0  0  0  0  0  0  0  0  0
   -2.4422   -6.5499    4.4825 H   0  0  0  0  0  0  0  0  0  0  0  0
   -3.1209   -5.3202    5.5219 H   0  0  0  0  0  0  0  0  0  0  0  0
   -2.8437   -4.9792    3.8307 H   0  0  0  0  0  0  0  0  0  0  0  0
    1.6920   -8.7522   11.6825 H   0  0  0  0  0  0  0  0  0  0  0  0
    3.2848   -8.0600   11.8741 H   0  0  0  0  0  0  0  0  0  0  0  0
    1.9500   -7.4576   12.8272 H   0  0  0  0  0  0  0  0  0  0  0  0
    5.9013   -2.5693   11.5285 H   0  0  0  0  0  0  0  0  0  0  0  0
    5.0462   -1.2195   12.2357 H   0  0  0  0  0  0  0  0  0  0  0  0
    4.6795   -2.8500   12.7457 H   0  0  0  0  0  0  0  0  0  0  0  0
    0.6855   -5.7049    6.9310 H   0  0  0  0  0  0  0  0  0  0  0  0
   -0.6864   -4.7792    6.3705 H   0  0  0  0  0  0  0  0  0  0  0  0
    0.6721   -5.0585    5.3077 H   0  0  0  0  0  0  0  0  0  0  0  0
    3.3555   -4.3520   11.0808 H   0  0  0  0  0  0  0  0  0  0  0  0
    4.5150   -4.1748    9.7858 H   0  0  0  0  0  0  0  0  0  0  0  0
    3.7062   -2.7676   10.4329 H   0  0  0  0  0  0  0  0  0  0  0  0
    3.8222   -9.8557    4.1784 H   0  0  0  0  0  0  0  0  0  0  0  0
    4.4219   -8.2976    3.6630 H   0  0  0  0  0  0  0  0  0  0  0  0
    5.3202   -9.2367    4.8310 H   0  0  0  0  0  0  0  0  0  0  0  0
    1.2880   -4.9278   10.3899 H   0  0  0  0  0  0  0  0  0  0  0  0
    2.4255   -4.0075   12.3558 H   0  0  0  0  0  0  0  0  0  0  0  0
    2.9266   -5.6161   12.8188 H   0  0  0  0  0  0  0  0  0  0  0  0
    4.7225   -4.4511   11.6260 H   0  0  0  0  0  0  0  0  0  0  0  0
    4.1662   -5.8352   10.7162 H   0  0  0  0  0  0  0  0  0  0  0  0
    1.9278   -5.1622    9.1523 H   0  0  0  0  0  0  0  0  0  0  0  0
    2.2417   -3.7022    8.2083 H   0  0  0  0  0  0  0  0  0  0  0  0
    3.4116   -5.8185    9.6146 H   0  0  0  0  0  0  0  0  0  0  0  0
    3.9075   -7.3639   10.2617 H   0  0  0  0  0  0  0  0  0  0  0  0
    2.6736   -7.1770    6.3178 H   0  0  0  0  0  0  0  0  0  0  0  0
    3.2043   -5.7599    7.2297 H   0  0  0  0  0  0  0  0  0  0  0  0
    1.3073   -4.1352    7.0252 H   0  0  0  0  0  0  0  0  0  0  0  0
    1.1290   -2.3974    6.9897 H   0  0  0  0  0  0  0  0  0  0  0  0
    3.3604   -1.1940    5.7723 H   0  0  0  0  0  0  0  0  0  0  0  0
    3.7126   -1.9589    4.2192 H   0  0  0  0  0  0  0  0  0  0  0  0
    2.2632   -7.2543    4.3055 H   0  0  0  0  0  0  0  0  0  0  0  0
    0.4356   -6.9973    5.9177 H   0  0  0  0  0  0  0  0  0  0  0  0
    1.3339   -7.9365    7.0856 H   0  0  0  0  0  0  0  0  0  0  0  0
    3.9838   -7.0140    7.2762 H   0  0  0  0  0  0  0  0  0  0  0  0
    4.0202   -5.2634    7.5114 H   0  0  0  0  0  0  0  0  0  0  0  0
    0.6888   -8.7226    8.2611 H   0  0  0  0  0  0  0  0  0  0  0  0
    3.3055  -10.8397    6.3831 H   0  0  0  0  0  0  0  0  0  0  0  0
    1.5596  -13.0452    9.0811 H   0  0  0  0  0  0  0  0  0  0  0  0
    3.8429  -12.9117    7.4445 H   0  0  0  0  0  0  0  0  0  0  0  0
    3.2850  -14.2919    8.3592 H   0  0  0  0  0  0  0  0  0  0  0  0
    1.7758  -14.7432    6.6486 H   0  0  0  0  0  0  0  0  0  0  0  0
    1.2769  -11.3504    5.3132 H   0  0  0  0  0  0  0  0  0  0  0  0
   -0.0713   -9.9648    7.4178 H   0  0  0  0  0  0  0  0  0  0  0  0
    0.7849  -13.2581    6.4554 H   0  0  0  0  0  0  0  0  0  0  0  0
    3.2096   -7.7124    8.2295 H   0  0  0  0  0  0  0  0  0  0  0  0
    2.6099   -9.2706    8.7448 H   0  0  0  0  0  0  0  0  0  0  0  0
    0.2241   -9.4212    8.8827 H   0  0  0  0  0  0  0  0  0  0  0  0
   -1.1504   -7.7433    6.8004 H   0  0  0  0  0  0  0  0  0  0  0  0
   -1.7717   -7.9480    8.4207 H   0  0  0  0  0  0  0  0  0  0  0  0
    4.4375   -9.5275    7.1326 H   0  0  0  0  0  0  0  0  0  0  0  0
    2.9396  -10.1465    6.4800 H   0  0  0  0  0  0  0  0  0  0  0  0
   -2.9474   -9.4090    6.8431 H   0  0  0  0  0  0  0  0  0  0  0  0
   -1.7194  -11.2241    5.7462 H   0  0  0  0  0  0  0  0  0  0  0  0
   -1.1197   -9.6659    5.2309 H   0  0  0  0  0  0  0  0  0  0  0  0
   -0.2214  -10.6051    6.3989 H   0  0  0  0  0  0  0  0  0  0  0  0
   -2.8481   -4.2178    6.3623 H   0  0  0  0  0  0  0  0  0  0  0  0
   -4.2858   -3.4510    7.0450 H   0  0  0  0  0  0  0  0  0  0  0  0
    4.9803   -2.8393    7.5935 H   0  0  0  0  0  0  0  0  0  0  0  0
    4.4836   -4.4722    7.9673 H   0  0  0  0  0  0  0  0  0  0  0  0
    4.1278   -3.7881    6.3993 H   0  0  0  0  0  0  0  0  0  0  0  0
    4.6685   -9.4566    5.3559 H   0  0  0  0  0  0  0  0  0  0  0  0
    3.4900    0.2289    7.5896 H   0  0  0  0  0  0  0  0  0  0  0  0
    4.3450   -1.1208    6.8824 H   0  0  0  0  0  0  0  0  0  0  0  0
    2.6269   -0.2767    5.3524 H   0  0  0  0  0  0  0  0  0  0  0  0
    2.2601   -1.9072    5.8624 H   0  0  0  0  0  0  0  0  0  0  0  0
   -0.5743    1.0416    6.4808 H   0  0  0  0  0  0  0  0  0  0  0  0
    0.7423    1.2001    5.3136 H   0  0  0  0  0  0  0  0  0  0  0  0
   -1.4955   -6.5756    7.9196 H   0  0  0  0  0  0  0  0  0  0  0  0
   -1.6255   -4.8361    8.0221 H   0  0  0  0  0  0  0  0  0  0  0  0
   -2.6887  -13.4155    6.2754 H   0  0  0  0  0  0  0  0  0  0  0  0
   -3.0494  -13.3689    8.0042 H   0  0  0  0  0  0  0  0  0  0  0  0
   -1.7868   -8.9813    9.3832 H   0  0  0  0  0  0  0  0  0  0  0  0
   -0.8037  -10.0404    3.0357 H   0  0  0  0  0  0  0  0  0  0  0  0
   -0.7190   -7.4065    3.7030 H   0  0  0  0  0  0  0  0  0  0  0  0
   -0.7732   -4.5526    5.8561 H   0  0  0  0  0  0  0  0  0  0  0  0
   -3.2227   -5.2767    5.7962 H   0  0  0  0  0  0  0  0  0  0  0  0
   -1.3919   -5.1430    3.6617 H   0  0  0  0  0  0  0  0  0  0  0  0
   -2.9149   -7.7067    5.7929 H   0  0  0  0  0  0  0  0  0  0  0  0
   -3.0294   -6.9869    3.0524 H   0  0  0  0  0  0  0  0  0  0  0  0
    3.2999   -4.8799    6.4515 H   0  0  0  0  0  0  0  0  0  0  0  0
    7.0017   -8.2316    4.7605 H   0  0  0  0  0  0  0  0  0  0  0  0
    5.9717   -8.2018    3.3494 H   0  0  0  0  0  0  0  0  0  0  0  0
    6.7006   -6.7239    3.9303 H   0  0  0  0  0  0  0  0  0  0  0  0
    4.8328   -4.3127    4.2629 H   0  0  0  0  0  0  0  0  0  0  0  0
    5.8628   -4.3426    5.6740 H   0  0  0  0  0  0  0  0  0  0  0  0
    6.2824   -5.2883    4.2660 H   0  0  0  0  0  0  0  0  0  0  0  0
  2  3  1  0  0  0  0
  3  1  1  0  0  0  0
  4  5  2  0  0  0  0
  4  1  1  0  0  0  0
  5 22  1  0  0  0  0
  6  5  1  0  0  0  0
  6 84  1  0  0  0  0
  6111  1  1  0  0  0
  7  8  1  0  0  0  0
  8  9  2  0  0  0  0
  8  1  1  0  0  0  0
  9 10  1  0  0  0  0
 10 11  2  0  0  0  0
 10112  1  0  0  0  0
 11 12  1  0  0  0  0
 11 18  1  0  0  0  0
 12 13  2  0  0  0  0
 12  1  1  0  0  0  0
 13 14  1  0  0  0  0
 14 15  1  0  0  0  0
 14 18  1  0  0  0  0
 14113  1  1  0  0  0
 15 16  1  0  0  0  0
 15114  1  0  0  0  0
 15115  1  0  0  0  0
 16 17  1  0  0  0  0
 16116  1  0  0  0  0
 16117  1  0  0  0  0
 17 78  2  0  0  0  0
 17 79  1  0  0  0  0
 18 19  1  0  0  0  0
 18 20  1  0  0  0  0
 19118  1  0  0  0  0
 19119  1  0  0  0  0
 19120  1  0  0  0  0
 20121  1  0  0  0  0
 20122  1  0  0  0  0
 20123  1  0  0  0  0
 21124  1  0  0  0  0
 21125  1  0  0  0  0
 21126  1  0  0  0  0
 22  7  2  0  0  0  0
 22 23  1  0  0  0  0
 23127  1  0  0  0  0
 23128  1  0  0  0  0
 23129  1  0  0  0  0
 24  2  2  0  0  0  0
 24 13  1  0  0  0  0
 24 25  1  0  0  0  0
 25130  1  0  0  0  0
 25131  1  0  0  0  0
 25132  1  0  0  0  0
 26  3  1  0  0  0  0
 26 46  1  0  0  0  0
 26 28  1  0  0  0  0
 26 27  1  6  0  0  0
 28  4  1  0  0  0  0
 28 80  1  0  0  0  0
 28 29  1  6  0  0  0
 29133  1  0  0  0  0
 29134  1  0  0  0  0
 29135  1  0  0  0  0
 30136  1  0  0  0  0
 30137  1  0  0  0  0
 30138  1  0  0  0  0
 31  9  1  0  0  0  0
 31 41  1  0  0  0  0
 31 32  1  0  0  0  0
 31139  1  6  0  0  0
 32 33  1  0  0  0  0
 32140  1  0  0  0  0
 32141  1  0  0  0  0
 33 34  1  0  0  0  0
 33142  1  0  0  0  0
 33143  1  0  0  0  0
 34 35  2  0  0  0  0
 34 36  1  0  0  0  0
 36144  1  0  0  0  0
 36145  1  0  0  0  0
 37 38  1  0  0  0  0
 37146  1  0  0  0  0
 37147  1  0  0  0  0
 38 40  1  0  0  0  0
 38 39  2  0  0  0  0
 40148  1  0  0  0  0
 40149  1  0  0  0  0
 41  7  1  0  0  0  0
 41 37  1  6  0  0  0
 41 21  1  0  0  0  0
 42 43  1  0  0  0  0
 42150  1  0  0  0  0
 42151  1  0  0  0  0
 43 44  2  0  0  0  0
 43 45  1  0  0  0  0
 45152  1  0  0  0  0
 45153  1  0  0  0  0
 46 71  1  0  0  0  0
 46 47  1  0  0  0  0
 46154  1  6  0  0  0
 47 48  1  0  0  0  0
 47155  1  0  0  0  0
 47156  1  0  0  0  0
 48 49  2  0  0  0  0
 48 50  1  0  0  0  0
 50157  1  0  0  0  0
 50158  1  0  0  0  0
 51 54  1  0  0  0  0
 51 53  1  0  0  0  0
 52 55  1  0  0  0  0
 52 54  2  0  0  0  0
 52159  1  0  0  0  0
 53 82  2  0  0  0  0
 54  1  1  0  0  0  0
 55 53  1  0  0  0  0
 56 55  1  0  0  0  0
 56 61  1  0  0  0  0
 56 57  1  0  0  0  0
 56160  1  6  0  0  0
 58 57  1  0  0  0  0
 58161  1  1  0  0  0
 58 59  1  0  0  0  0
 59 60  1  0  0  0  0
 59162  1  0  0  0  0
 59163  1  0  0  0  0
 60164  1  0  0  0  0
 61 63  1  0  0  0  0
 61 62  1  0  0  0  0
 61165  1  6  0  0  0
 62166  1  0  0  0  0
 63 58  1  0  0  0  0
 63 64  1  0  0  0  0
 63167  1  6  0  0  0
 65 66  1  0  0  0  0
 65168  1  0  0  0  0
 65169  1  0  0  0  0
 66 67  2  0  0  0  0
 66 68  1  0  0  0  0
 68170  1  0  0  0  0
 69 68  1  0  0  0  0
 69171  1  0  0  0  0
 69172  1  0  0  0  0
 70 65  1  0  0  0  0
 70173  1  0  0  0  0
 70174  1  0  0  0  0
 71  2  1  0  0  0  0
 71 30  1  1  0  0  0
 71 70  1  0  0  0  0
 72 69  1  0  0  0  0
 72 73  1  0  0  0  0
 72 74  1  0  0  0  0
 72175  1  6  0  0  0
 74176  1  0  0  0  0
 74177  1  0  0  0  0
 74178  1  0  0  0  0
 76 64  1  0  0  0  0
 76 73  1  0  0  0  0
 76 75  2  0  0  0  0
 76 77  1  0  0  0  0
 79179  1  0  0  0  0
 79180  1  0  0  0  0
 80  6  1  0  0  0  0
 80 81  1  6  0  0  0
 80 42  1  0  0  0  0
 81181  1  0  0  0  0
 81182  1  0  0  0  0
 81183  1  0  0  0  0
 82107  1  0  0  0  0
 82184  1  0  0  0  0
 83110  1  0  0  0  0
 84 85  1  0  0  0  0
 84185  1  0  0  0  0
 84186  1  0  0  0  0
 85 86  1  0  0  0  0
 85187  1  0  0  0  0
 85188  1  0  0  0  0
 86 88  1  0  0  0  0
 86 87  2  0  0  0  0
 88189  1  0  0  0  0
 88190  1  0  0  0  0
 89  1  1  0  0  0  0
 89191  1  0  0  0  0
 89192  1  0  0  0  0
 90 91  1  0  0  0  0
 90193  1  0  0  0  0
 90194  1  0  0  0  0
 91 92  2  0  0  0  0
 91 96  1  0  0  0  0
 92 93  1  0  0  0  0
 93 94  2  0  0  0  0
 93195  1  0  0  0  0
 94 95  1  0  0  0  0
 95 96  2  0  0  0  0
 95 99  1  0  0  0  0
 96 97  1  0  0  0  0
 97 98  2  0  0  0  0
 98 99  1  0  0  0  0
 98196  1  0  0  0  0
100101  1  0  0  0  0
100105  1  0  0  0  0
100197  1  6  0  0  0
100 99  1  0  0  0  0
101102  1  0  0  0  0
102103  1  0  0  0  0
102198  1  6  0  0  0
102 89  1  0  0  0  0
103105  1  0  0  0  0
103199  1  1  0  0  0
103104  1  0  0  0  0
104200  1  0  0  0  0
105106  1  0  0  0  0
105201  1  1  0  0  0
106202  1  0  0  0  0
107 83  2  0  0  0  0
107109  1  0  0  0  0
108 51  2  0  0  0  0
108 83  1  0  0  0  0
108203  1  0  0  0  0
109204  1  0  0  0  0
109205  1  0  0  0  0
109206  1  0  0  0  0
110207  1  0  0  0  0
110208  1  0  0  0  0
110209  1  0  0  0  0
M  CHG  6   1  -3   4   1   8   1  12   1  54   1  77  -1
M  END
>  <DRUGBANK_ID>
DB11191

>  <COMMON_NAME>
Cobamamide

>  <CAS_NUMBER>
13870-90-1

>  <UNII>
F0R1QK73KB

>  <SYNONYMS>
(5,6-Dimethylbenzimidazolyl)cobamide coenzyme; 5'-Deoxy-5'-adenosylcobalamin; Adenosylcob(III)alamin; Adenosylcobalamin; cobamamida; Cobamamide; cobamamidum; Cobanamida; Coenzyme B-12; Coenzyme B12; Vitamin B12 coenzyme

$$$$
