
 OpenBabel10282417193D

 68 72  0  0  1  0  0  0  0  0999 V2000
    1.2019    0.0809   -0.0460 C   0  0  0  0  0  0  0  0  0  0  0  0
    0.4094    1.3708    0.0407 C   0  0  1  0  0  0  0  0  0  0  0  0
    0.8776    2.2454   -1.1056 C   0  0  0  0  0  0  0  0  0  0  0  0
    0.6137    3.5954   -0.9828 C   0  0  0  0  0  0  0  0  0  0  0  0
    1.0899    4.4781   -1.9197 C   0  0  0  0  0  0  0  0  0  0  0  0
    1.7284    4.0508   -3.0781 C   0  0  0  0  0  0  0  0  0  0  0  0
    2.1085    2.7121   -3.1592 C   0  0  0  0  0  0  0  0  0  0  0  0
    1.6714    1.8132   -2.1892 C   0  0  0  0  0  0  0  0  0  0  0  0
    1.9919    4.9274   -4.2461 C   0  0  0  0  0  0  0  0  0  0  0  0
    2.7058    4.5180   -5.1619 O   0  0  0  0  0  0  0  0  0  0  0  0
    1.4104    6.1602   -4.3823 N   0  0  0  0  0  0  0  0  0  0  0  0
    0.5374    6.9633   -3.5338 C   0  0  0  0  0  0  0  0  0  0  0  0
    1.3190    8.0518   -2.8151 C   0  0  0  0  0  0  0  0  0  0  0  0
    1.5066    9.1848   -3.7847 C   0  0  0  0  0  0  0  0  0  0  0  0
    1.0190   10.2838   -3.6984 O   0  0  0  0  0  0  0  0  0  0  0  0
    2.2574    8.8255   -4.8520 O   0  0  0  0  0  0  0  0  0  0  0  0
   -1.0684    1.2804    0.1335 N   0  0  0  0  0  0  0  0  0  0  0  0
   -1.8763    0.1573    0.2609 C   0  0  0  0  0  0  0  0  0  0  0  0
   -3.1707    0.6620    0.1426 C   0  0  0  0  0  0  0  0  0  0  0  0
   -3.0831    2.0750    0.0926 C   0  0  0  0  0  0  0  0  0  0  0  0
   -1.8014    2.4455    0.1643 N   0  0  0  0  0  0  0  0  0  0  0  0
   -4.1887    3.0450    0.0853 C   0  0  0  0  0  0  0  0  0  0  0  0
   -5.1160    3.0099    1.1371 C   0  0  0  0  0  0  0  0  0  0  0  0
   -6.1474    3.9486    1.2127 C   0  0  0  0  0  0  0  0  0  0  0  0
   -6.2735    4.9445    0.2513 C   0  0  0  0  0  0  0  0  0  0  0  0
   -5.3444    4.9984   -0.7863 C   0  0  0  0  0  0  0  0  0  0  0  0
   -4.3270    4.0376   -0.8985 C   0  0  0  0  0  0  0  0  0  0  0  0
   -5.4092    6.3199   -1.8924 Cl  0  0  0  0  0  0  0  0  0  0  0  0
   -7.2373    3.9042    2.5446 Cl  0  0  0  0  0  0  0  0  0  0  0  0
   -1.4233   -1.2504    0.1974 C   0  0  0  0  0  0  0  0  0  0  0  0
   -1.7549   -1.9644   -0.9440 C   0  0  0  0  0  0  0  0  0  0  0  0
   -1.3788   -3.3060   -1.0276 C   0  0  0  0  0  0  0  0  0  0  0  0
   -0.6179   -3.9240    0.0084 C   0  0  0  0  0  0  0  0  0  0  0  0
   -0.4346   -5.3120    0.3284 C   0  0  0  0  0  0  0  0  0  0  0  0
    0.5795   -5.6833    1.2325 C   0  0  0  0  0  0  0  0  0  0  0  0
    1.6963   -5.1828    0.7061 C   0  0  0  0  0  0  0  0  0  0  0  0
    1.5568   -3.7756    0.8105 C   0  0  0  0  0  0  0  0  0  0  0  0
    0.2025   -3.1096    0.7049 C   0  0  0  0  0  0  0  0  0  0  0  0
   -0.4915   -1.8677    1.0772 C   0  0  0  0  0  0  0  0  0  0  0  0
    0.5355   -5.4084    2.6306 O   0  0  0  0  0  0  0  0  0  0  0  0
    1.8628   -5.3812    3.2882 C   0  0  0  0  0  0  0  0  0  0  0  0
    0.8334   -0.5406   -0.8722 H   0  0  0  0  0  0  0  0  0  0  0  0
    1.1752   -0.4185    0.9090 H   0  0  0  0  0  0  0  0  0  0  0  0
    2.2737    0.2243   -0.1965 H   0  0  0  0  0  0  0  0  0  0  0  0
    0.7062    1.8600    0.9814 H   0  0  0  0  0  0  0  0  0  0  0  0
    0.0372    3.9871   -0.1475 H   0  0  0  0  0  0  0  0  0  0  0  0
    0.9419    5.5022   -1.6405 H   0  0  0  0  0  0  0  0  0  0  0  0
    2.7478    2.3588   -3.9671 H   0  0  0  0  0  0  0  0  0  0  0  0
    1.9827    0.7773   -2.3069 H   0  0  0  0  0  0  0  0  0  0  0  0
    1.7517    6.6315   -5.2152 H   0  0  0  0  0  0  0  0  0  0  0  0
   -0.2483    7.3766   -4.1700 H   0  0  0  0  0  0  0  0  0  0  0  0
   -0.0267    6.3576   -2.8371 H   0  0  0  0  0  0  0  0  0  0  0  0
    0.7424    8.4291   -1.9630 H   0  0  0  0  0  0  0  0  0  0  0  0
    2.2923    7.7256   -2.4276 H   0  0  0  0  0  0  0  0  0  0  0  0
    2.2452    9.6031   -5.4466 H   0  0  0  0  0  0  0  0  0  0  0  0
   -4.0835    0.0856    0.0904 H   0  0  0  0  0  0  0  0  0  0  0  0
   -5.0123    2.2640    1.9209 H   0  0  0  0  0  0  0  0  0  0  0  0
   -7.0700    5.6814    0.3243 H   0  0  0  0  0  0  0  0  0  0  0  0
   -3.6429    4.0783   -1.7431 H   0  0  0  0  0  0  0  0  0  0  0  0
   -2.3273   -1.4949   -1.7426 H   0  0  0  0  0  0  0  0  0  0  0  0
   -1.6699   -3.8685   -1.9080 H   0  0  0  0  0  0  0  0  0  0  0  0
   -0.5503   -5.9088   -0.5877 H   0  0  0  0  0  0  0  0  0  0  0  0
    2.0161   -5.7959   -0.1451 H   0  0  0  0  0  0  0  0  0  0  0  0
    2.3840   -3.2685    1.3017 H   0  0  0  0  0  0  0  0  0  0  0  0
   -0.1927   -1.3329    1.9793 H   0  0  0  0  0  0  0  0  0  0  0  0
    1.8964   -6.1441    4.0653 H   0  0  0  0  0  0  0  0  0  0  0  0
    2.7388   -5.5784    2.6452 H   0  0  0  0  0  0  0  0  0  0  0  0
    2.0475   -4.3924    3.7373 H   0  0  0  0  0  0  0  0  0  0  0  0
  1 42  1  0  0  0  0
  1 43  1  0  0  0  0
  1 44  1  0  0  0  0
  2  1  1  0  0  0  0
  2  3  1  0  0  0  0
  2 17  1  0  0  0  0
  2 45  1  1  0  0  0
  3  4  2  0  0  0  0
  3  8  1  0  0  0  0
  4  5  1  0  0  0  0
  4 46  1  0  0  0  0
  5  6  2  0  0  0  0
  5 47  1  0  0  0  0
  6  7  1  0  0  0  0
  6  9  1  0  0  0  0
  7  8  2  0  0  0  0
  7 48  1  0  0  0  0
  8 49  1  0  0  0  0
  9 10  2  0  0  0  0
  9 11  1  0  0  0  0
 11 12  1  0  0  0  0
 11 50  1  0  0  0  0
 12 13  1  0  0  0  0
 12 51  1  0  0  0  0
 12 52  1  0  0  0  0
 13 14  1  0  0  0  0
 13 53  1  0  0  0  0
 13 54  1  0  0  0  0
 14 15  2  0  0  0  0
 14 16  1  0  0  0  0
 16 55  1  0  0  0  0
 17 18  1  0  0  0  0
 17 21  1  0  0  0  0
 18 19  2  0  0  0  0
 18 30  1  0  0  0  0
 19 20  1  0  0  0  0
 19 56  1  0  0  0  0
 20 21  2  0  0  0  0
 20 22  1  0  0  0  0
 22 23  2  0  0  0  0
 22 27  1  0  0  0  0
 23 24  1  0  0  0  0
 23 57  1  0  0  0  0
 24 25  2  0  0  0  0
 24 29  1  0  0  0  0
 25 26  1  0  0  0  0
 25 58  1  0  0  0  0
 26 27  2  0  0  0  0
 26 28  1  0  0  0  0
 27 59  1  0  0  0  0
 30 31  2  0  0  0  0
 30 39  1  0  0  0  0
 31 32  1  0  0  0  0
 31 60  1  0  0  0  0
 32 33  2  0  0  0  0
 32 61  1  0  0  0  0
 33 34  1  0  0  0  0
 33 38  1  0  0  0  0
 34 35  2  0  0  0  0
 34 62  1  0  0  0  0
 35 36  1  0  0  0  0
 35 40  1  0  0  0  0
 36 37  2  0  0  0  0
 36 63  1  0  0  0  0
 37 38  1  0  0  0  0
 37 64  1  0  0  0  0
 38 39  2  0  0  0  0
 39 65  1  0  0  0  0
 40 41  1  0  0  0  0
 41 66  1  0  0  0  0
 41 67  1  0  0  0  0
 41 68  1  0  0  0  0
M  END
>  <DRUGBANK_ID>
DB12044

>  <COMMON_NAME>
MK-0893

>  <UNII>
CCP2U6LWTP

$$$$
