997
 OpenBabel10282417113D

 68 72  0  0  1  0  0  0  0  0999 V2000
   -0.8462    0.0046    1.4277 O   0  0  0  0  0  0  0  0  0  0  0  0
   -0.7488    1.0973   -0.7472 O   0  0  0  0  0  0  0  0  0  0  0  0
   -0.6727    0.4565    4.2252 O   0  0  0  0  0  0  0  0  0  0  0  0
    0.4495    3.8187   -1.1354 O   0  0  0  0  0  0  0  0  0  0  0  0
    0.5923   -2.4578    0.2234 O   0  0  0  0  0  0  0  0  0  0  0  0
    2.5226   -2.5418    5.4289 O   0  0  0  0  0  0  0  0  0  0  0  0
   -0.0317    3.1196    4.5984 O   0  0  0  0  0  0  0  0  0  0  0  0
    2.8272    1.9396    5.9679 O   0  0  0  0  0  0  0  0  0  0  0  0
    0.9494   -4.7123    0.2107 O   0  0  0  0  0  0  0  0  0  0  0  0
    2.8156   -5.0400    5.1226 O   0  0  0  0  0  0  0  0  0  0  0  0
    1.2989   -7.6753   -0.1892 O   0  0  0  0  0  0  0  0  0  0  0  0
    1.2003    3.9914    1.8294 N   0  0  0  0  0  0  0  0  0  0  0  0
    0.5266   -0.1749    1.7367 C   0  0  1  0  0  0  0  0  0  0  0  0
    0.7010    0.8370    4.0777 C   0  0  2  0  0  0  0  0  0  0  0  0
    1.0771    0.8443    2.6520 C   0  0  0  0  0  0  0  0  0  0  0  0
    1.6202   -0.2271    4.5452 C   0  0  0  0  0  0  0  0  0  0  0  0
    0.9143   -1.4472    2.3618 C   0  0  0  0  0  0  0  0  0  0  0  0
    1.4621   -1.4666    3.6768 C   0  0  0  0  0  0  0  0  0  0  0  0
   -1.1849    1.1746    0.6245 C   0  0  2  0  0  0  0  0  0  0  0  0
   -0.8298    2.5534    1.2421 C   0  0  0  0  0  0  0  0  0  0  0  0
    0.6879    2.9253    0.9772 C   0  0  1  0  0  0  0  0  0  0  0  0
    1.0810    2.7666   -0.4535 C   0  0  1  0  0  0  0  0  0  0  0  0
    0.6322    1.3902   -0.9791 C   0  0  2  0  0  0  0  0  0  0  0  0
    0.9391   -2.5468    1.5516 C   0  0  0  0  0  0  0  0  0  0  0  0
    0.9025    2.3081    4.5824 C   0  0  0  0  0  0  0  0  0  0  0  0
    1.9872   -2.6219    4.1803 C   0  0  0  0  0  0  0  0  0  0  0  0
    1.4332   -3.7150    2.1185 C   0  0  0  0  0  0  0  0  0  0  0  0
    1.9354   -3.7632    3.4131 C   0  0  0  0  0  0  0  0  0  0  0  0
    1.0720    1.2686   -2.4140 C   0  0  0  0  0  0  0  0  0  0  0  0
    2.2960    2.7794    4.9630 C   0  0  0  0  0  0  0  0  0  0  0  0
    1.3934   -4.9106    1.3443 C   0  0  0  0  0  0  0  0  0  0  0  0
    2.3872   -5.0245    3.9703 C   0  0  0  0  0  0  0  0  0  0  0  0
    1.8022   -6.2191    1.8342 C   0  0  0  0  0  0  0  0  0  0  0  0
    2.2969   -6.2449    3.1560 C   0  0  0  0  0  0  0  0  0  0  0  0
    1.7311   -7.4121    1.0909 C   0  0  0  0  0  0  0  0  0  0  0  0
    2.7218   -7.4283    3.7523 C   0  0  0  0  0  0  0  0  0  0  0  0
    2.1696   -8.5898    1.7183 C   0  0  0  0  0  0  0  0  0  0  0  0
    2.6585   -8.6038    3.0277 C   0  0  0  0  0  0  0  0  0  0  0  0
    0.8082   -6.6255   -1.0061 C   0  0  0  0  0  0  0  0  0  0  0  0
   -1.0309    0.1388    3.3699 H   0  0  0  0  0  0  0  0  0  0  0  0
   -0.5016    3.6530   -1.0008 H   0  0  0  0  0  0  0  0  0  0  0  0
    0.0755   -1.6894   -0.0690 H   0  0  0  0  0  0  0  0  0  0  0  0
    2.7560   -3.4477    5.7161 H   0  0  0  0  0  0  0  0  0  0  0  0
    2.1443    1.8786    6.6628 H   0  0  0  0  0  0  0  0  0  0  0  0
    2.2213    3.9586    1.8451 H   0  0  0  0  0  0  0  0  0  0  0  0
    0.9312    4.8978    1.4698 H   0  0  0  0  0  0  0  0  0  0  0  0
    1.0909   -0.2098    0.8303 H   0  0  0  0  0  0  0  0  0  0  0  0
    0.4841    1.6732    2.4983 H   0  0  0  0  0  0  0  0  0  0  0  0
    2.1524    0.9977    2.4488 H   0  0  0  0  0  0  0  0  0  0  0  0
    2.6672    0.0960    4.4351 H   0  0  0  0  0  0  0  0  0  0  0  0
    1.3779   -0.4276    5.5821 H   0  0  0  0  0  0  0  0  0  0  0  0
   -2.2852    1.1272    0.5974 H   0  0  0  0  0  0  0  0  0  0  0  0
   -1.4618    3.3400    0.8227 H   0  0  0  0  0  0  0  0  0  0  0  0
   -1.1224    2.5385    2.3079 H   0  0  0  0  0  0  0  0  0  0  0  0
    1.4248    2.1920    1.2345 H   0  0  0  0  0  0  0  0  0  0  0  0
    2.1798    2.8092   -0.5255 H   0  0  0  0  0  0  0  0  0  0  0  0
    1.2185    0.5818   -0.5760 H   0  0  0  0  0  0  0  0  0  0  0  0
    0.4746    0.5486   -2.9669 H   0  0  0  0  0  0  0  0  0  0  0  0
    1.0606    2.2428   -2.8987 H   0  0  0  0  0  0  0  0  0  0  0  0
    2.1220    0.9366   -2.4024 H   0  0  0  0  0  0  0  0  0  0  0  0
    2.9703    2.8074    4.0995 H   0  0  0  0  0  0  0  0  0  0  0  0
    2.2304    3.7946    5.3684 H   0  0  0  0  0  0  0  0  0  0  0  0
    3.0995   -7.4298    4.7735 H   0  0  0  0  0  0  0  0  0  0  0  0
    2.1281   -9.5263    1.1657 H   0  0  0  0  0  0  0  0  0  0  0  0
    2.9901   -9.5330    3.4807 H   0  0  0  0  0  0  0  0  0  0  0  0
   -0.1132   -6.2258   -0.5563 H   0  0  0  0  0  0  0  0  0  0  0  0
    1.6304   -5.9240   -1.2123 H   0  0  0  0  0  0  0  0  0  0  0  0
    0.4931   -6.9453   -1.9973 H   0  0  0  0  0  0  0  0  0  0  0  0
  2 19  1  0  0  0  0
  2 23  1  0  0  0  0
  3 40  1  0  0  0  0
  4 41  1  0  0  0  0
  5 24  1  0  0  0  0
  5 42  1  0  0  0  0
  6 26  1  0  0  0  0
  6 43  1  0  0  0  0
  7 25  2  0  0  0  0
  8 30  1  0  0  0  0
  8 44  1  0  0  0  0
  9 31  2  0  0  0  0
 10 32  2  0  0  0  0
 11 35  1  0  0  0  0
 11 39  1  0  0  0  0
 12 45  1  0  0  0  0
 12 46  1  0  0  0  0
 13 15  1  0  0  0  0
 13 17  1  0  0  0  0
 13 47  1  6  0  0  0
 13  1  1  0  0  0  0
 14 15  1  0  0  0  0
 14 16  1  0  0  0  0
 14 25  1  1  0  0  0
 14  3  1  0  0  0  0
 15 48  1  0  0  0  0
 15 49  1  0  0  0  0
 16 18  1  0  0  0  0
 16 50  1  0  0  0  0
 16 51  1  0  0  0  0
 17 18  2  0  0  0  0
 17 24  1  0  0  0  0
 18 26  1  0  0  0  0
 19  1  1  0  0  0  0
 19 20  1  0  0  0  0
 19 52  1  6  0  0  0
 20 21  1  0  0  0  0
 20 53  1  0  0  0  0
 20 54  1  0  0  0  0
 21 12  1  0  0  0  0
 21 22  1  0  0  0  0
 21 55  1  1  0  0  0
 22  4  1  0  0  0  0
 22 23  1  0  0  0  0
 22 56  1  6  0  0  0
 23 57  1  1  0  0  0
 23 29  1  0  0  0  0
 24 27  2  0  0  0  0
 25 30  1  0  0  0  0
 26 28  2  0  0  0  0
 27 28  1  0  0  0  0
 27 31  1  0  0  0  0
 28 32  1  0  0  0  0
 29 58  1  0  0  0  0
 29 59  1  0  0  0  0
 29 60  1  0  0  0  0
 30 61  1  0  0  0  0
 30 62  1  0  0  0  0
 31 33  1  0  0  0  0
 32 34  1  0  0  0  0
 33 34  2  0  0  0  0
 33 35  1  0  0  0  0
 34 36  1  0  0  0  0
 35 37  2  0  0  0  0
 36 38  2  0  0  0  0
 36 63  1  0  0  0  0
 37 38  1  0  0  0  0
 37 64  1  0  0  0  0
 38 65  1  0  0  0  0
 39 66  1  0  0  0  0
 39 67  1  0  0  0  0
 39 68  1  0  0  0  0
M  END
>  <DRUGBANK_ID>
DB00997

>  <SECONDARY_ACCESSION_NUMBERS>
APRD00185; DB05331; DB05847

>  <COMMON_NAME>
Doxorubicin

>  <CAS_NUMBER>
23214-92-8

>  <UNII>
80168379AG

>  <SYNONYMS>
(1S,3S)-3-glycoloyl-3,5,12-trihydroxy-10-methoxy-6,11-dioxo-1,2,3,4,6,11-hexahydrotetracen-1-yl 3-amino-2,3,6-trideoxy-α-L-lyxo-hexopyranoside; (8S-cis)-10-((3-amino-2,3,6-trideoxy-α-L-lyxo-hexopyranosyl)oxy)-7,8,9,10-tetrahydro-6,8,11-trihydroxy-8-(hydroxyacetyl)-1-methoxy-5,12-naphthacenedione; 14-hydroxydaunomycin; 14-hydroxydaunorubicine; Doxorubicin; Doxorubicin nanoparticles; Doxorubicina; Doxorubicine; Doxorubicinum; Hydroxydaunorubicin; MTC-DOX; MTC-DOX for Injection

$$$$
