
 OpenBabel10282417133D

 20 19  0  0  1  0  0  0  0  0999 V2000
    0.9723   -0.1862   -0.0702 N   0  0  0  0  0  0  0  0  0  0  0  0
    0.7217   -0.8885    1.2214 C   0  0  1  0  0  0  0  0  0  0  0  0
    1.1196    0.0518    2.3609 C   0  0  0  0  0  0  0  0  0  0  0  0
    0.4816    1.4805    2.3008 C   0  0  0  0  0  0  0  0  0  0  0  0
   -1.3532    1.9291    2.2076 S   0  0  0  0  0  0  0  0  0  0  0  0
   -2.1463    1.2450    0.6778 C   0  0  0  0  0  0  0  0  0  0  0  0
   -1.7142    1.9408   -0.4018 F   0  0  0  0  0  0  0  0  0  0  0  0
   -1.9951   -0.0493    0.3284 F   0  0  0  0  0  0  0  0  0  0  0  0
   -3.4955    1.4227    0.7546 F   0  0  0  0  0  0  0  0  0  0  0  0
   -0.6918   -1.3546    1.6317 C   0  0  0  0  0  0  0  0  0  0  0  0
   -1.2390   -2.4645    1.1462 O   0  0  0  0  0  0  0  0  0  0  0  0
   -1.3524   -0.7670    2.5089 O   0  0  0  0  0  0  0  0  0  0  0  0
    0.5982    0.7671   -0.0739 H   0  0  0  0  0  0  0  0  0  0  0  0
    1.9862   -0.0052   -0.1457 H   0  0  0  0  0  0  0  0  0  0  0  0
    1.3379   -1.7940    1.1955 H   0  0  0  0  0  0  0  0  0  0  0  0
    0.8626   -0.4296    3.3166 H   0  0  0  0  0  0  0  0  0  0  0  0
    2.2162    0.1392    2.3966 H   0  0  0  0  0  0  0  0  0  0  0  0
    0.8170    1.9517    3.2414 H   0  0  0  0  0  0  0  0  0  0  0  0
    0.9743    2.0699    1.5245 H   0  0  0  0  0  0  0  0  0  0  0  0
   -0.6844   -3.0915    0.6623 H   0  0  0  0  0  0  0  0  0  0  0  0
  1 13  1  0  0  0  0
  1 14  1  0  0  0  0
  2  1  1  0  0  0  0
  2  3  1  0  0  0  0
  2 10  1  0  0  0  0
  2 15  1  1  0  0  0
  3  4  1  0  0  0  0
  3 16  1  0  0  0  0
  3 17  1  0  0  0  0
  4  5  1  0  0  0  0
  4 18  1  0  0  0  0
  4 19  1  0  0  0  0
  5  6  1  0  0  0  0
  6  7  1  0  0  0  0
  6  8  1  0  0  0  0
  6  9  1  0  0  0  0
 10 11  1  0  0  0  0
 10 12  2  0  0  0  0
 11 20  1  0  0  0  0
M  END
>  <DRUGBANK_ID>
DB03799

>  <SECONDARY_ACCESSION_NUMBERS>
EXPT02158

>  <COMMON_NAME>
Trifluoromethionine

>  <UNII>
QH3U5JK2DR

$$$$
