
 OpenBabel10282417183D

 63 67  0  0  0  0  0  0  0  0999 V2000
    1.0244    0.0773   -0.1270 F   0  0  0  0  0  0  0  0  0  0  0  0
    2.8506    0.6485   -1.1927 F   0  0  0  0  0  0  0  0  0  0  0  0
    2.8132    0.5514    0.9993 F   0  0  0  0  0  0  0  0  0  0  0  0
    4.9794    7.1045    2.7624 O   0  0  0  0  0  0  0  0  0  0  0  0
    5.4319    4.6754    5.0075 O   0  0  0  0  0  0  0  0  0  0  0  0
    1.2179   10.5746    0.1971 O   0  5  0  0  0  0  0  0  0  0  0  0
    3.2036   11.4866    0.4851 O   0  0  0  0  0  0  0  0  0  0  0  0
    8.1603   -2.6824    0.3475 O   0  0  0  0  0  0  0  0  0  0  0  0
    2.7006   -1.4394   -0.2700 O   0  0  0  0  0  0  0  0  0  0  0  0
    2.9001    7.3165    1.9331 N   0  0  0  0  0  0  0  0  0  0  0  0
    4.1430    9.1145    1.6860 N   0  0  0  0  0  0  0  0  0  0  0  0
    2.3880   10.5437    0.5769 N   0  3  0  0  0  0  0  0  0  0  0  0
    7.5457    0.3593    2.3760 N   0  0  0  0  0  0  0  0  0  0  0  0
    4.3245    5.7833    2.9175 C   0  0  2  0  0  0  0  0  0  0  0  0
    4.1014    7.8880    2.1387 C   0  0  0  0  0  0  0  0  0  0  0  0
    2.8554    5.9764    2.4284 C   0  0  0  0  0  0  0  0  0  0  0  0
    2.8465    9.3077    1.1790 C   0  0  0  0  0  0  0  0  0  0  0  0
    2.0572    8.1718    1.3444 C   0  0  0  0  0  0  0  0  0  0  0  0
    4.2824    5.3237    4.4259 C   0  0  0  0  0  0  0  0  0  0  0  0
    5.0101    4.8251    1.9409 C   0  0  0  0  0  0  0  0  0  0  0  0
    5.7528    3.4083    4.5909 C   0  0  0  0  0  0  0  0  0  0  0  0
    6.8933    1.3390    3.0930 C   0  0  0  0  0  0  0  0  0  0  0  0
    4.9621    2.6420    3.7462 C   0  0  0  0  0  0  0  0  0  0  0  0
    7.0480    2.9805    4.8656 C   0  0  0  0  0  0  0  0  0  0  0  0
    5.5796    1.7361    2.8800 C   0  0  0  0  0  0  0  0  0  0  0  0
    7.5990    1.9363    4.1312 C   0  0  0  0  0  0  0  0  0  0  0  0
    9.0139   -1.6661    1.0497 C   0  0  3  0  0  0  0  0  0  0  0  0
    7.7378   -0.9454    3.1372 C   0  0  0  0  0  0  0  0  0  0  0  0
    7.7525    0.5431    0.8982 C   0  0  0  0  0  0  0  0  0  0  0  0
    6.8105   -2.5556    0.1518 C   0  0  0  0  0  0  0  0  0  0  0  0
    8.9662   -1.6439    2.6053 C   0  0  0  0  0  0  0  0  0  0  0  0
    8.9924   -0.2239    0.4740 C   0  0  0  0  0  0  0  0  0  0  0  0
    4.0070   -1.7815   -0.1682 C   0  0  0  0  0  0  0  0  0  0  0  0
    6.0626   -1.6934    0.8668 C   0  0  0  0  0  0  0  0  0  0  0  0
    6.0061   -3.2260   -0.7389 C   0  0  0  0  0  0  0  0  0  0  0  0
    4.7803   -1.2234    0.7790 C   0  0  0  0  0  0  0  0  0  0  0  0
    4.6162   -2.8193   -0.9017 C   0  0  0  0  0  0  0  0  0  0  0  0
    2.3713   -0.0443   -0.1375 C   0  0  0  0  0  0  0  0  0  0  0  0
    2.5782    5.3127    1.6045 H   0  0  0  0  0  0  0  0  0  0  0  0
    2.1092    5.9282    3.2242 H   0  0  0  0  0  0  0  0  0  0  0  0
    1.0294    7.9563    1.0963 H   0  0  0  0  0  0  0  0  0  0  0  0
    3.4078    4.6902    4.6196 H   0  0  0  0  0  0  0  0  0  0  0  0
    4.1240    6.2199    5.0408 H   0  0  0  0  0  0  0  0  0  0  0  0
    6.0123    4.5603    2.2857 H   0  0  0  0  0  0  0  0  0  0  0  0
    4.3873    3.9362    1.8036 H   0  0  0  0  0  0  0  0  0  0  0  0
    5.1444    5.2273    0.9356 H   0  0  0  0  0  0  0  0  0  0  0  0
    3.9165    2.8744    3.5798 H   0  0  0  0  0  0  0  0  0  0  0  0
    7.6677    3.4867    5.5958 H   0  0  0  0  0  0  0  0  0  0  0  0
    5.0209    1.4234    2.0066 H   0  0  0  0  0  0  0  0  0  0  0  0
    8.6296    1.6292    4.2870 H   0  0  0  0  0  0  0  0  0  0  0  0
   10.0350   -2.0203    0.8373 H   0  0  0  0  0  0  0  0  0  0  0  0
    6.9244   -1.6994    3.0958 H   0  0  0  0  0  0  0  0  0  0  0  0
    7.7201   -0.7977    4.2226 H   0  0  0  0  0  0  0  0  0  0  0  0
    7.7739    1.6040    0.6186 H   0  0  0  0  0  0  0  0  0  0  0  0
    6.9526    0.2178    0.2207 H   0  0  0  0  0  0  0  0  0  0  0  0
    9.0328   -2.6621    3.0031 H   0  0  0  0  0  0  0  0  0  0  0  0
    9.8142   -1.0747    3.0104 H   0  0  0  0  0  0  0  0  0  0  0  0
    9.8475    0.3562    0.8493 H   0  0  0  0  0  0  0  0  0  0  0  0
    9.0780   -0.2584   -0.6181 H   0  0  0  0  0  0  0  0  0  0  0  0
    6.5493   -1.1366    1.5768 H   0  0  0  0  0  0  0  0  0  0  0  0
    6.4081   -4.0516   -1.3122 H   0  0  0  0  0  0  0  0  0  0  0  0
    4.5152   -0.4392    1.4639 H   0  0  0  0  0  0  0  0  0  0  0  0
    4.0105   -3.3300   -1.6415 H   0  0  0  0  0  0  0  0  0  0  0  0
  1 38  1  0  0  0  0
  4 14  1  0  0  0  0
  5 19  1  0  0  0  0
  8 27  1  0  0  0  0
  9 33  1  0  0  0  0
 10 18  1  0  0  0  0
 11 15  2  0  0  0  0
 12  6  1  0  0  0  0
 12  7  2  0  0  0  0
 13 22  1  0  0  0  0
 13 28  1  0  0  0  0
 14 16  1  0  0  0  0
 14 19  1  1  0  0  0
 14 20  1  0  0  0  0
 15  4  1  0  0  0  0
 15 10  1  0  0  0  0
 16 10  1  0  0  0  0
 16 39  1  0  0  0  0
 16 40  1  0  0  0  0
 17 11  1  0  0  0  0
 17 12  1  0  0  0  0
 18 17  2  0  0  0  0
 18 41  1  0  0  0  0
 19 42  1  0  0  0  0
 19 43  1  0  0  0  0
 20 44  1  0  0  0  0
 20 45  1  0  0  0  0
 20 46  1  0  0  0  0
 21  5  1  0  0  0  0
 21 23  2  0  0  0  0
 22 26  1  0  0  0  0
 23 25  1  0  0  0  0
 23 47  1  0  0  0  0
 24 21  1  0  0  0  0
 24 48  1  0  0  0  0
 25 22  2  0  0  0  0
 25 49  1  0  0  0  0
 26 24  2  0  0  0  0
 26 50  1  0  0  0  0
 27 32  1  0  0  0  0
 27 51  1  0  0  0  0
 28 31  1  0  0  0  0
 28 52  1  0  0  0  0
 28 53  1  0  0  0  0
 29 13  1  0  0  0  0
 29 54  1  0  0  0  0
 29 55  1  0  0  0  0
 30  8  1  0  0  0  0
 30 34  2  0  0  0  0
 31 27  1  0  0  0  0
 31 56  1  0  0  0  0
 31 57  1  0  0  0  0
 32 29  1  0  0  0  0
 32 58  1  0  0  0  0
 32 59  1  0  0  0  0
 33 37  1  0  0  0  0
 34 36  1  0  0  0  0
 34 60  1  0  0  0  0
 35 30  1  0  0  0  0
 35 61  1  0  0  0  0
 36 33  2  0  0  0  0
 36 62  1  0  0  0  0
 37 35  2  0  0  0  0
 37 63  1  0  0  0  0
 38  2  1  0  0  0  0
 38  3  1  0  0  0  0
 38  9  1  0  0  0  0
M  CHG  2   6  -1  12   1
M  END
>  <DRUGBANK_ID>
DB11637

>  <COMMON_NAME>
Delamanid

>  <CAS_NUMBER>
681492-22-8

>  <UNII>
8OOT6M1PC7

>  <SYNONYMS>
(2R)-2-methyl-6-nitro-2-((4-(4-(4-(trifluoromethoxy)phenoxy)piperidin-1-yl)phenoxy)methyl)-2,3-dihydroimidazo(2,1-B)(1,3)oxazole; (R)-2-methyl-6-nitro-2-{4-[4-(4-trifluoromethoxyphenoxy)piperidin-1-yl]phenoxymethyl}-2,3-dihydroimidazo[2,1-b]oxazole; Delamanid; Imidazo(2,1-B)oxazole, 2,3-dihydro-2-methyl-6-nitro-2-((4-(4-(4-(trifluoromethoxy)phenoxy)-1-piperidinyl)phenoxy)methyl)-, (2R)-

$$$$
