TQT
 OpenBabel10282417123D

 55 58  0  0  0  0  0  0  0  0999 V2000
    2.3885    0.2279   -0.6551 C   0  0  1  0  0  0  0  0  0  0  0  0
    0.7229   -1.5693   -0.5814 C   0  0  1  0  0  0  0  0  0  0  0  0
    0.0293   -1.0250    0.6174 C   0  0  1  0  0  0  0  0  0  0  0  0
   -2.2213   -0.6915   -0.6065 C   0  0  2  0  0  0  0  0  0  0  0  0
   -1.5768    0.5388   -1.3587 C   0  0  0  0  0  0  0  0  0  0  0  0
    0.3259    0.4916    0.4826 C   0  0  1  0  0  0  0  0  0  0  0  0
   -3.7510   -0.3844   -0.3026 C   0  0  0  0  0  0  0  0  0  0  0  0
   -3.7473    1.9863    0.6868 C   0  0  0  0  0  0  0  0  0  0  0  0
   -3.9956    0.7742    1.9332 C   0  0  1  0  0  0  0  0  0  0  0  0
   -2.1255    0.8297    2.0594 C   0  0  0  0  0  0  0  0  0  0  0  0
   -1.3816    2.1734    1.5227 C   0  0  0  0  0  0  0  0  0  0  0  0
   -1.7507    3.5973    1.8567 C   0  0  0  0  0  0  0  0  0  0  0  0
   -3.4127    3.9669    1.6564 C   0  0  0  0  0  0  0  0  0  0  0  0
   -4.6530    2.5538    2.1364 C   0  0  2  0  0  0  0  0  0  0  0  0
   -3.3992    2.3069    2.6996 C   0  0  0  0  0  0  0  0  0  0  0  0
    1.7179    0.8848    0.3892 N   0  0  0  0  0  0  0  0  0  0  0  0
    3.7188    0.6261   -0.5117 N   0  0  0  0  0  0  0  0  0  0  0  0
    2.1083   -1.1637   -0.4929 N   0  0  0  0  0  0  0  0  0  0  0  0
    0.6876   -2.9976   -0.6540 N   0  0  0  0  0  0  0  0  0  0  0  0
   -1.4491   -1.4560    0.5839 C   0  0  0  0  0  0  0  0  0  0  0  0
   -0.3349    1.2253   -0.7985 C   0  0  0  0  0  0  0  0  0  0  0  0
   -4.3150    0.6776    0.5682 N   0  0  0  0  0  0  0  0  0  0  0  0
    2.0207    0.5804   -1.6199 H   0  0  0  0  0  0  0  0  0  0  0  0
    0.2649   -1.1496   -1.4798 H   0  0  0  0  0  0  0  0  0  0  0  0
    0.4731   -1.3688    1.5747 H   0  0  0  0  0  0  0  0  0  0  0  0
   -2.2019   -1.4607   -1.3901 H   0  0  0  0  0  0  0  0  0  0  0  0
    0.1998    0.7580    1.5371 H   0  0  0  0  0  0  0  0  0  0  0  0
   -4.4083   -0.0018    2.5888 H   0  0  0  0  0  0  0  0  0  0  0  0
   -5.3739    2.7126    2.9018 H   0  0  0  0  0  0  0  0  0  0  0  0
   -1.4128    0.3448   -2.4273 H   0  0  0  0  0  0  0  0  0  0  0  0
   -2.3385    1.3074   -1.4681 H   0  0  0  0  0  0  0  0  0  0  0  0
   -4.2098   -0.2381   -1.2988 H   0  0  0  0  0  0  0  0  0  0  0  0
   -4.1891   -1.3304    0.0401 H   0  0  0  0  0  0  0  0  0  0  0  0
   -4.5019    2.6571    0.1977 H   0  0  0  0  0  0  0  0  0  0  0  0
   -3.0371    2.2141   -0.0795 H   0  0  0  0  0  0  0  0  0  0  0  0
   -1.6832    0.3532    2.9372 H   0  0  0  0  0  0  0  0  0  0  0  0
   -2.0541    0.2186    1.2391 H   0  0  0  0  0  0  0  0  0  0  0  0
   -0.3104    2.3094    1.4109 H   0  0  0  0  0  0  0  0  0  0  0  0
   -1.6230    1.9632    0.5291 H   0  0  0  0  0  0  0  0  0  0  0  0
   -1.1270    4.3521    1.3591 H   0  0  0  0  0  0  0  0  0  0  0  0
   -1.3373    3.5686    2.8726 H   0  0  0  0  0  0  0  0  0  0  0  0
   -3.6156    4.8726    2.2170 H   0  0  0  0  0  0  0  0  0  0  0  0
   -3.4832    4.2202    0.5907 H   0  0  0  0  0  0  0  0  0  0  0  0
   -3.3602    3.1603    3.3885 H   0  0  0  0  0  0  0  0  0  0  0  0
   -3.2997    1.5351    3.4945 H   0  0  0  0  0  0  0  0  0  0  0  0
    1.9923    1.8086    0.7271 H   0  0  0  0  0  0  0  0  0  0  0  0
    3.9958    1.5445   -0.8449 H   0  0  0  0  0  0  0  0  0  0  0  0
    4.3545    0.1401    0.0987 H   0  0  0  0  0  0  0  0  0  0  0  0
    2.6529   -1.7356    0.1246 H   0  0  0  0  0  0  0  0  0  0  0  0
    0.3203   -3.4170    0.2055 H   0  0  0  0  0  0  0  0  0  0  0  0
   -0.0218   -3.2512   -1.3522 H   0  0  0  0  0  0  0  0  0  0  0  0
   -1.6416   -2.5316    0.5183 H   0  0  0  0  0  0  0  0  0  0  0  0
   -1.8476   -1.3922    1.6229 H   0  0  0  0  0  0  0  0  0  0  0  0
    0.3760    1.4481   -1.6035 H   0  0  0  0  0  0  0  0  0  0  0  0
   -0.5546    2.3149   -0.6929 H   0  0  0  0  0  0  0  0  0  0  0  0
  1 16  1  0  0  0  0
  1 17  1  0  0  0  0
  1 18  1  0  0  0  0
  1 23  1  6  0  0  0
  2  3  1  0  0  0  0
  2 18  1  0  0  0  0
  2 24  1  6  0  0  0
  2 19  1  0  0  0  0
  3  6  1  0  0  0  0
  3 20  1  0  0  0  0
  3 25  1  1  0  0  0
  4  5  1  0  0  0  0
  4 20  1  0  0  0  0
  4 26  1  6  0  0  0
  4  7  1  0  0  0  0
  5 21  1  0  0  0  0
  5 30  1  0  0  0  0
  5 31  1  0  0  0  0
  6 16  1  0  0  0  0
  6 21  1  0  0  0  0
  6 27  1  1  0  0  0
  7 32  1  0  0  0  0
  7 33  1  0  0  0  0
  7 22  1  0  0  0  0
  8 15  1  0  0  0  0
  8 22  1  0  0  0  0
  8 34  1  0  0  0  0
  8 35  1  0  0  0  0
  9 10  1  0  0  0  0
  9 14  1  0  0  0  0
  9 22  1  0  0  0  0
  9 28  1  1  0  0  0
 10 11  1  0  0  0  0
 10 36  1  0  0  0  0
 10 37  1  0  0  0  0
 11 12  1  0  0  0  0
 11 38  1  0  0  0  0
 11 39  1  0  0  0  0
 12 13  1  0  0  0  0
 12 40  1  0  0  0  0
 12 41  1  0  0  0  0
 13 14  1  0  0  0  0
 13 42  1  0  0  0  0
 13 43  1  0  0  0  0
 14 15  1  0  0  0  0
 14 29  1  1  0  0  0
 15 44  1  0  0  0  0
 15 45  1  0  0  0  0
 16 46  1  0  0  0  0
 17 47  1  0  0  0  0
 17 48  1  0  0  0  0
 18 49  1  0  0  0  0
 19 50  1  0  0  0  0
 19 51  1  0  0  0  0
 20 52  1  0  0  0  0
 20 53  1  0  0  0  0
 21 54  1  0  0  0  0
 21 55  1  0  0  0  0
M  END
>  <DRUGBANK_ID>
DB02559

>  <SECONDARY_ACCESSION_NUMBERS>
EXPT03103

>  <COMMON_NAME>
6-(Octahydro-1h-Indol-1-Ylmethyl)Decahydroquinazoline-2,4-Diamine

$$$$
