433
 OpenBabel10282417103D

 49 52  0  0  0  0  0  0  0  0999 V2000
    1.3174    0.9068   -0.7195 Cl  0  0  0  0  0  0  0  0  0  0  0  0
    7.4320    0.2530    0.0844 S   0  0  0  0  0  0  0  0  0  0  0  0
    1.8324   -3.0873    0.4669 N   0  0  0  0  0  0  0  0  0  0  0  0
   -0.7226   -3.4170   -0.9978 N   0  0  0  0  0  0  0  0  0  0  0  0
    5.5765   -2.3286   -0.1298 N   0  0  0  0  0  0  0  0  0  0  0  0
    1.1601   -4.3784    0.4564 C   0  0  0  0  0  0  0  0  0  0  0  0
    0.8357   -2.0277    0.3586 C   0  0  0  0  0  0  0  0  0  0  0  0
    2.7846   -2.8608    1.5550 C   0  0  0  0  0  0  0  0  0  0  0  0
    0.2714   -4.4999   -0.8075 C   0  0  0  0  0  0  0  0  0  0  0  0
   -0.0165   -2.1253   -0.9302 C   0  0  0  0  0  0  0  0  0  0  0  0
    4.0111   -3.7439    1.3557 C   0  0  0  0  0  0  0  0  0  0  0  0
    4.7063   -3.5506   -0.0119 C   0  0  0  0  0  0  0  0  0  0  0  0
   -1.7356   -3.4432    0.0580 C   0  0  0  0  0  0  0  0  0  0  0  0
    4.9576   -1.0338   -0.2700 C   0  0  0  0  0  0  0  0  0  0  0  0
    6.9981   -2.5362   -0.0416 C   0  0  0  0  0  0  0  0  0  0  0  0
    5.6903    0.1577   -0.0629 C   0  0  0  0  0  0  0  0  0  0  0  0
    7.8933   -1.4417   -0.0116 C   0  0  0  0  0  0  0  0  0  0  0  0
    3.6162   -0.7885   -0.6253 C   0  0  0  0  0  0  0  0  0  0  0  0
    7.6272   -3.8037   -0.0255 C   0  0  0  0  0  0  0  0  0  0  0  0
    5.0748    1.4209    0.0173 C   0  0  0  0  0  0  0  0  0  0  0  0
    9.2884   -1.6063   -0.0181 C   0  0  0  0  0  0  0  0  0  0  0  0
    2.9853    0.4836   -0.4644 C   0  0  0  0  0  0  0  0  0  0  0  0
    9.0251   -3.9648   -0.0192 C   0  0  0  0  0  0  0  0  0  0  0  0
    3.7292    1.5789   -0.0715 C   0  0  0  0  0  0  0  0  0  0  0  0
    9.8589   -2.8607   -0.0261 C   0  0  0  0  0  0  0  0  0  0  0  0
    1.8828   -5.1971    0.4246 H   0  0  0  0  0  0  0  0  0  0  0  0
    0.5678   -4.4890    1.3703 H   0  0  0  0  0  0  0  0  0  0  0  0
    0.2257   -1.9112    1.2561 H   0  0  0  0  0  0  0  0  0  0  0  0
    1.3920   -1.1269    0.3342 H   0  0  0  0  0  0  0  0  0  0  0  0
    3.1453   -1.8266    1.5804 H   0  0  0  0  0  0  0  0  0  0  0  0
    2.3151   -3.0013    2.5331 H   0  0  0  0  0  0  0  0  0  0  0  0
    0.9291   -4.5141   -1.6903 H   0  0  0  0  0  0  0  0  0  0  0  0
   -0.2339   -5.4695   -0.7925 H   0  0  0  0  0  0  0  0  0  0  0  0
    0.6079   -2.0037   -1.8298 H   0  0  0  0  0  0  0  0  0  0  0  0
   -0.7355   -1.2958   -0.9753 H   0  0  0  0  0  0  0  0  0  0  0  0
    3.6859   -4.7911    1.4353 H   0  0  0  0  0  0  0  0  0  0  0  0
    4.7173   -3.6054    2.1808 H   0  0  0  0  0  0  0  0  0  0  0  0
    4.0173   -3.6173   -0.8604 H   0  0  0  0  0  0  0  0  0  0  0  0
    5.2698   -4.4784   -0.1349 H   0  0  0  0  0  0  0  0  0  0  0  0
   -1.3283   -3.2563    1.0565 H   0  0  0  0  0  0  0  0  0  0  0  0
   -2.4906   -2.6732   -0.1316 H   0  0  0  0  0  0  0  0  0  0  0  0
   -2.2360   -4.4118    0.0865 H   0  0  0  0  0  0  0  0  0  0  0  0
    3.0328   -1.6271   -1.0058 H   0  0  0  0  0  0  0  0  0  0  0  0
    7.0854   -4.7426   -0.0340 H   0  0  0  0  0  0  0  0  0  0  0  0
    5.6751    2.3239    0.1501 H   0  0  0  0  0  0  0  0  0  0  0  0
    9.9358   -0.7297   -0.0156 H   0  0  0  0  0  0  0  0  0  0  0  0
    9.4587   -4.9609   -0.0215 H   0  0  0  0  0  0  0  0  0  0  0  0
    3.2536    2.5411    0.0738 H   0  0  0  0  0  0  0  0  0  0  0  0
   10.9377   -2.9640   -0.0321 H   0  0  0  0  0  0  0  0  0  0  0  0
  1 22  1  0  0  0  0
  2 16  1  0  0  0  0
  2 17  1  0  0  0  0
  3  6  1  0  0  0  0
  3  7  1  0  0  0  0
  3  8  1  0  0  0  0
  4  9  1  0  0  0  0
  4 10  1  0  0  0  0
  4 13  1  0  0  0  0
  5 12  1  0  0  0  0
  5 14  1  0  0  0  0
  5 15  1  0  0  0  0
  6  9  1  0  0  0  0
  6 26  1  0  0  0  0
  6 27  1  0  0  0  0
  7 10  1  0  0  0  0
  7 28  1  0  0  0  0
  7 29  1  0  0  0  0
  8 11  1  0  0  0  0
  8 30  1  0  0  0  0
  8 31  1  0  0  0  0
  9 32  1  0  0  0  0
  9 33  1  0  0  0  0
 10 34  1  0  0  0  0
 10 35  1  0  0  0  0
 11 12  1  0  0  0  0
 11 36  1  0  0  0  0
 11 37  1  0  0  0  0
 12 38  1  0  0  0  0
 12 39  1  0  0  0  0
 13 40  1  0  0  0  0
 13 41  1  0  0  0  0
 13 42  1  0  0  0  0
 14 16  2  0  0  0  0
 14 18  1  0  0  0  0
 15 17  1  0  0  0  0
 15 19  2  0  0  0  0
 16 20  1  0  0  0  0
 17 21  2  0  0  0  0
 18 22  2  0  0  0  0
 18 43  1  0  0  0  0
 19 23  1  0  0  0  0
 19 44  1  0  0  0  0
 20 24  2  0  0  0  0
 20 45  1  0  0  0  0
 21 25  1  0  0  0  0
 21 46  1  0  0  0  0
 22 24  1  0  0  0  0
 23 25  2  0  0  0  0
 23 47  1  0  0  0  0
 24 48  1  0  0  0  0
 25 49  1  0  0  0  0
M  END
>  <DRUGBANK_ID>
DB00433

>  <SECONDARY_ACCESSION_NUMBERS>
APRD00624

>  <COMMON_NAME>
Prochlorperazine

>  <CAS_NUMBER>
58-38-8

>  <UNII>
YHP6YLT61T

>  <SYNONYMS>
2-Chloro-10-(3-(1-methyl-4-piperazinyl)propyl)-phenothiazine; 2-Chloro-10-(3-(4-methyl-1-piperazinyl)propyl)phenothiazine; 3-Chloro-10-(3-(1-methyl-4-piperazinyl)propyl)phenothiazine; 3-Chloro-10-(3-(4-methyl-1-piperazinyl)propyl)phenothiazine; Capazine; Chlormeprazine; Chloro-3 (N-methylpiperazinyl-3 propyl)-10 phenothiazine; Chloropernazine; N-(gamma-(4'-Methylpiperazinyl-1')propyl)-3-chlorophenothiazine; Prochlorperazin; Prochlorp√©razine; Prochlorperazine; Prochlorperazinum; Prochlorpermazine; Prochlorpromazine; Procloperazine; Proclorperazina

$$$$
