
 OpenBabel10282417183D

 31 30  0  0  0  0  0  0  0  0999 V2000
    1.0696   -0.1089    0.0661 C   0  0  0  0  0  0  0  0  0  0  0  0
    1.5251    4.6651   -3.5666 C   0  0  0  0  0  0  0  0  0  0  0  0
    2.9028    6.8803    0.1518 C   0  0  0  0  0  0  0  0  0  0  0  0
    0.5668    0.3485    1.4271 C   0  0  0  0  0  0  0  0  0  0  0  0
    1.1027    1.7189    1.8353 C   0  0  0  0  0  0  0  0  0  0  0  0
    0.6236    2.8629    0.9814 C   0  0  0  0  0  0  0  0  0  0  0  0
    0.4267    3.6405   -1.4144 C   0  0  3  0  0  0  0  0  0  0  0  0
   -1.1631    3.7022   -1.4779 C   0  0  0  0  0  0  0  0  0  0  0  0
   -2.1079    4.1417   -0.0054 Cl  0  0  0  0  0  0  0  0  0  0  0  0
   -1.7849    4.8703   -2.7048 Cl  0  0  0  0  0  0  0  0  0  0  0  0
   -1.7841    2.0585   -1.9589 Cl  0  0  0  0  0  0  0  0  0  0  0  0
    0.1709    3.9083    1.4512 O   0  0  0  0  0  0  0  0  0  0  0  0
    2.2571    4.5753   -0.3102 O   0  0  0  0  0  0  0  0  0  0  0  0
    1.5230    5.6242   -2.5107 O   0  0  0  0  0  0  0  0  0  0  0  0
    1.6134    6.8603   -0.4666 O   0  0  0  0  0  0  0  0  0  0  0  0
    0.7918    2.6392   -0.3427 O   0  0  0  0  0  0  0  0  0  0  0  0
    1.0367    5.2956   -0.9272 P   0  0  0  0  0  0  0  0  0  0  0  0
    0.6732    0.5020   -0.7451 H   0  0  0  0  0  0  0  0  0  0  0  0
    0.7402   -1.1263   -0.1516 H   0  0  0  0  0  0  0  0  0  0  0  0
    2.1621   -0.0644    0.0252 H   0  0  0  0  0  0  0  0  0  0  0  0
    2.1466    3.7932   -3.3224 H   0  0  0  0  0  0  0  0  0  0  0  0
    0.4969    4.3589   -3.7719 H   0  0  0  0  0  0  0  0  0  0  0  0
    1.8861    5.0687   -4.5093 H   0  0  0  0  0  0  0  0  0  0  0  0
    2.8698    6.3218    1.0955 H   0  0  0  0  0  0  0  0  0  0  0  0
    3.6460    6.4391   -0.5233 H   0  0  0  0  0  0  0  0  0  0  0  0
    3.2029    7.9028    0.3763 H   0  0  0  0  0  0  0  0  0  0  0  0
   -0.5294    0.3536    1.4355 H   0  0  0  0  0  0  0  0  0  0  0  0
    0.8888   -0.3860    2.1765 H   0  0  0  0  0  0  0  0  0  0  0  0
    0.7596    1.9224    2.8587 H   0  0  0  0  0  0  0  0  0  0  0  0
    2.1973    1.7336    1.8553 H   0  0  0  0  0  0  0  0  0  0  0  0
    0.7556    3.0760   -2.2771 H   0  0  0  0  0  0  0  0  0  0  0  0
  1 18  1  0  0  0  0
  1 19  1  0  0  0  0
  1 20  1  0  0  0  0
  2 21  1  0  0  0  0
  2 22  1  0  0  0  0
  2 23  1  0  0  0  0
  3 24  1  0  0  0  0
  3 25  1  0  0  0  0
  3 26  1  0  0  0  0
  4  1  1  0  0  0  0
  4 27  1  0  0  0  0
  4 28  1  0  0  0  0
  5  4  1  0  0  0  0
  5 29  1  0  0  0  0
  5 30  1  0  0  0  0
  6  5  1  0  0  0  0
  7 31  1  0  0  0  0
  8  7  1  0  0  0  0
  9  8  1  0  0  0  0
 10  8  1  0  0  0  0
 11  8  1  0  0  0  0
 12  6  2  0  0  0  0
 14  2  1  0  0  0  0
 15  3  1  0  0  0  0
 16  6  1  0  0  0  0
 16  7  1  0  0  0  0
 17  7  1  0  0  0  0
 17 13  2  0  0  0  0
 17 14  1  0  0  0  0
 17 15  1  0  0  0  0
M  END
>  <DRUGBANK_ID>
DB11379

>  <COMMON_NAME>
Butonate

>  <CAS_NUMBER>
126-22-7

>  <UNII>
39M9R3Q494

>  <SYNONYMS>
Butonate; Butonato; Butonatum

$$$$
