
 OpenBabel10282417203D

 59 61  0  0  0  0  0  0  0  0999 V2000
   -1.0836   -0.0116   -0.0211 O   0  0  0  0  0  0  0  0  0  0  0  0
   -0.2278    1.0491   -0.0158 C   0  0  0  0  0  0  0  0  0  0  0  0
    1.0778    0.6192   -0.0045 C   0  0  0  0  0  0  0  0  0  0  0  0
    1.0210   -0.7952    0.0060 C   0  0  0  0  0  0  0  0  0  0  0  0
   -0.3182   -1.1458    0.0220 C   0  0  0  0  0  0  0  0  0  0  0  0
   -1.0137   -2.4785    0.0638 C   0  0  0  0  0  0  0  0  0  0  0  0
   -1.9347   -2.7082    1.6164 S   0  0  3  0  0  0  0  0  0  0  0  0
   -2.6848   -4.3581    1.5136 C   0  0  0  0  0  0  0  0  0  0  0  0
   -1.8185   -5.5885    1.3837 C   0  0  0  0  0  0  0  0  0  0  0  0
   -1.4476   -6.2420    2.5584 N   0  0  0  0  0  0  0  0  0  0  0  0
   -0.6009   -7.4307    2.7746 C   0  0  0  0  0  0  0  0  0  0  0  0
   -0.9975   -2.6693    2.7844 O   0  0  0  0  0  0  0  0  0  0  0  0
   -1.5622   -5.9797    0.2236 O   0  0  0  0  0  0  0  0  0  0  0  0
    0.1343   -7.3172    4.1029 C   0  0  0  0  0  0  0  0  0  0  0  0
    0.5379   -8.3674    4.8387 C   0  0  0  0  0  0  0  0  0  0  0  0
    0.1984   -9.7870    4.4951 C   0  0  0  0  0  0  0  0  0  0  0  0
    1.3194  -10.6805    4.4676 O   0  0  0  0  0  0  0  0  0  0  0  0
    2.1746  -10.5417    3.3950 C   0  0  0  0  0  0  0  0  0  0  0  0
    2.3523  -11.6196    2.6095 N   0  0  0  0  0  0  0  0  0  0  0  0
    3.3011  -11.5172    1.6397 C   0  0  0  0  0  0  0  0  0  0  0  0
    4.0289  -10.3671    1.3619 C   0  0  0  0  0  0  0  0  0  0  0  0
    3.8343   -9.2599    2.1769 C   0  0  0  0  0  0  0  0  0  0  0  0
    2.9623   -9.4109    3.2646 C   0  0  0  0  0  0  0  0  0  0  0  0
    4.4977   -7.9267    1.8671 C   0  0  0  0  0  0  0  0  0  0  0  0
    3.6000   -6.8486    1.3969 N   0  0  0  0  0  0  0  0  0  0  0  0
    2.8531   -7.2660    0.1956 C   0  0  0  0  0  0  0  0  0  0  0  0
    1.9510   -6.1621   -0.3339 C   0  0  0  0  0  0  0  0  0  0  0  0
    1.0783   -5.6498    0.7583 C   0  0  0  0  0  0  0  0  0  0  0  0
    1.7462   -5.3261    2.0696 C   0  0  0  0  0  0  0  0  0  0  0  0
    2.6915   -6.4377    2.4662 C   0  0  0  0  0  0  0  0  0  0  0  0
   -0.6847    2.0300   -0.0173 H   0  0  0  0  0  0  0  0  0  0  0  0
    1.9596    1.2469    0.0041 H   0  0  0  0  0  0  0  0  0  0  0  0
    1.8573   -1.4804    0.0210 H   0  0  0  0  0  0  0  0  0  0  0  0
   -1.6626   -2.6020   -0.8082 H   0  0  0  0  0  0  0  0  0  0  0  0
   -0.2325   -3.2217   -0.0050 H   0  0  0  0  0  0  0  0  0  0  0  0
   -3.2960   -4.4834    2.4138 H   0  0  0  0  0  0  0  0  0  0  0  0
   -3.3745   -4.3593    0.6631 H   0  0  0  0  0  0  0  0  0  0  0  0
   -2.0617   -6.0812    3.3426 H   0  0  0  0  0  0  0  0  0  0  0  0
   -1.2375   -8.3063    2.6828 H   0  0  0  0  0  0  0  0  0  0  0  0
    0.1644   -7.6373    2.0311 H   0  0  0  0  0  0  0  0  0  0  0  0
    0.5808   -6.3634    4.3936 H   0  0  0  0  0  0  0  0  0  0  0  0
    1.2121   -8.2012    5.6826 H   0  0  0  0  0  0  0  0  0  0  0  0
   -0.4781  -10.1123    5.2942 H   0  0  0  0  0  0  0  0  0  0  0  0
   -0.3706   -9.8751    3.5676 H   0  0  0  0  0  0  0  0  0  0  0  0
    3.4781  -12.4223    1.0648 H   0  0  0  0  0  0  0  0  0  0  0  0
    4.7324  -10.3382    0.5359 H   0  0  0  0  0  0  0  0  0  0  0  0
    2.8831   -8.6240    3.9992 H   0  0  0  0  0  0  0  0  0  0  0  0
    5.0421   -7.5825    2.7550 H   0  0  0  0  0  0  0  0  0  0  0  0
    5.2608   -8.0613    1.0917 H   0  0  0  0  0  0  0  0  0  0  0  0
    2.2330   -8.1512    0.4071 H   0  0  0  0  0  0  0  0  0  0  0  0
    3.5407   -7.5364   -0.6085 H   0  0  0  0  0  0  0  0  0  0  0  0
    1.2964   -6.5815   -1.1134 H   0  0  0  0  0  0  0  0  0  0  0  0
    2.4928   -5.3173   -0.7488 H   0  0  0  0  0  0  0  0  0  0  0  0
    0.5080   -4.7941    0.4561 H   0  0  0  0  0  0  0  0  0  0  0  0
    0.3869   -6.4658    0.8291 H   0  0  0  0  0  0  0  0  0  0  0  0
    2.2657   -4.3734    2.0053 H   0  0  0  0  0  0  0  0  0  0  0  0
    0.9775   -5.1662    2.8335 H   0  0  0  0  0  0  0  0  0  0  0  0
    3.2149   -6.1746    3.3934 H   0  0  0  0  0  0  0  0  0  0  0  0
    2.0782   -7.2960    2.6889 H   0  0  0  0  0  0  0  0  0  0  0  0
  1  2  1  0  0  0  0
  2  3  2  0  0  0  0
  2 31  1  0  0  0  0
  3  4  1  0  0  0  0
  3 32  1  0  0  0  0
  4  5  2  0  0  0  0
  4 33  1  0  0  0  0
  5  1  1  0  0  0  0
  5  6  1  0  0  0  0
  6  7  1  0  0  0  0
  6 34  1  0  0  0  0
  6 35  1  0  0  0  0
  7  8  1  0  0  0  0
  7 12  2  0  0  0  0
  8  9  1  0  0  0  0
  8 36  1  0  0  0  0
  8 37  1  0  0  0  0
  9 10  1  0  0  0  0
  9 13  2  0  0  0  0
 10 11  1  0  0  0  0
 10 38  1  0  0  0  0
 11 14  1  0  0  0  0
 11 39  1  0  0  0  0
 11 40  1  0  0  0  0
 14 15  2  0  0  0  0
 14 41  1  0  0  0  0
 15 16  1  0  0  0  0
 15 42  1  0  0  0  0
 16 17  1  0  0  0  0
 16 43  1  0  0  0  0
 16 44  1  0  0  0  0
 17 18  1  0  0  0  0
 18 19  2  0  0  0  0
 19 20  1  0  0  0  0
 20 21  2  0  0  0  0
 20 45  1  0  0  0  0
 21 22  1  0  0  0  0
 21 46  1  0  0  0  0
 22 23  2  0  0  0  0
 22 24  1  0  0  0  0
 23 18  1  0  0  0  0
 23 47  1  0  0  0  0
 24 25  1  0  0  0  0
 24 48  1  0  0  0  0
 24 49  1  0  0  0  0
 25 26  1  0  0  0  0
 25 30  1  0  0  0  0
 26 27  1  0  0  0  0
 26 50  1  0  0  0  0
 26 51  1  0  0  0  0
 27 28  1  0  0  0  0
 27 52  1  0  0  0  0
 27 53  1  0  0  0  0
 28 29  1  0  0  0  0
 28 54  1  0  0  0  0
 28 55  1  0  0  0  0
 29 30  1  0  0  0  0
 29 56  1  0  0  0  0
 29 57  1  0  0  0  0
 30 58  1  0  0  0  0
 30 59  1  0  0  0  0
M  END
>  <DRUGBANK_ID>
DB12770

>  <COMMON_NAME>
Lafutidine

>  <CAS_NUMBER>
118288-08-7

>  <UNII>
49S4O7ADLC

>  <SYNONYMS>
Lafutidine

$$$$
