
 OpenBabel10282417153D

 61 64  0  0  0  0  0  0  0  0999 V2000
    1.0281    0.0785   -0.1263 C   0  0  0  0  0  0  0  0  0  0  0  0
    0.4841    0.7563    1.1403 C   0  0  0  0  0  0  0  0  0  0  0  0
    1.0729    2.1778    1.1939 C   0  0  0  0  0  0  0  0  0  0  0  0
   -1.0400    0.7164    1.1686 C   0  0  0  0  0  0  0  0  0  0  0  0
   -1.7796    1.9157    1.1932 C   0  0  0  0  0  0  0  0  0  0  0  0
   -3.1768    1.9640    1.1143 C   0  0  0  0  0  0  0  0  0  0  0  0
   -3.8640    0.7478    1.0910 C   0  0  0  0  0  0  0  0  0  0  0  0
   -3.1668   -0.4622    1.1237 C   0  0  0  0  0  0  0  0  0  0  0  0
   -1.7720   -0.4756    1.1691 C   0  0  0  0  0  0  0  0  0  0  0  0
   -1.1964   -1.7135    1.2284 O   0  0  0  0  0  0  0  0  0  0  0  0
   -5.2301    0.6605    1.0709 O   0  0  0  0  0  0  0  0  0  0  0  0
   -3.8963    3.2795    1.1885 C   0  0  0  0  0  0  0  0  0  0  0  0
   -5.1200    3.2742    1.3344 O   0  0  0  0  0  0  0  0  0  0  0  0
   -3.1287    4.4273    1.2550 N   0  0  0  0  0  0  0  0  0  0  0  0
   -2.3199    4.9424    0.1404 C   0  0  0  0  0  0  0  0  0  0  0  0
   -1.8524    6.2704    0.6400 C   0  0  0  0  0  0  0  0  0  0  0  0
   -0.9238    7.1256    0.0713 C   0  0  0  0  0  0  0  0  0  0  0  0
   -0.6554    8.3317    0.7167 C   0  0  0  0  0  0  0  0  0  0  0  0
   -1.3178    8.6735    1.9140 C   0  0  0  0  0  0  0  0  0  0  0  0
   -2.2479    7.7834    2.4842 C   0  0  0  0  0  0  0  0  0  0  0  0
   -2.4994    6.5857    1.8400 C   0  0  0  0  0  0  0  0  0  0  0  0
   -3.3950    5.4613    2.2572 C   0  0  0  0  0  0  0  0  0  0  0  0
   -0.9390    9.9466    2.6419 C   0  0  0  0  0  0  0  0  0  0  0  0
   -0.4094    9.6536    3.9732 N   0  0  0  0  0  0  0  0  0  0  0  0
    0.7978    8.8063    3.9133 C   0  0  0  0  0  0  0  0  0  0  0  0
    1.2650    8.4388    5.3332 C   0  0  0  0  0  0  0  0  0  0  0  0
    1.5508    9.6080    6.1910 N   0  0  0  0  0  0  0  0  0  0  0  0
    0.4082   10.5506    6.1391 C   0  0  0  0  0  0  0  0  0  0  0  0
   -0.0909   10.8850    4.7126 C   0  0  0  0  0  0  0  0  0  0  0  0
    2.7803   10.2664    5.7529 C   0  0  0  0  0  0  0  0  0  0  0  0
    0.6757    0.5948   -1.0261 H   0  0  0  0  0  0  0  0  0  0  0  0
    0.7224   -0.9660   -0.2233 H   0  0  0  0  0  0  0  0  0  0  0  0
    2.1226    0.0868   -0.1274 H   0  0  0  0  0  0  0  0  0  0  0  0
    0.8468    0.2230    2.0288 H   0  0  0  0  0  0  0  0  0  0  0  0
    0.7564    2.7650    0.3216 H   0  0  0  0  0  0  0  0  0  0  0  0
    0.7526    2.7083    2.0982 H   0  0  0  0  0  0  0  0  0  0  0  0
    2.1658    2.1595    1.1964 H   0  0  0  0  0  0  0  0  0  0  0  0
   -1.2512    2.8504    1.3093 H   0  0  0  0  0  0  0  0  0  0  0  0
   -3.7095   -1.4037    1.1247 H   0  0  0  0  0  0  0  0  0  0  0  0
   -0.2434   -1.6324    1.3836 H   0  0  0  0  0  0  0  0  0  0  0  0
   -5.5889    1.5739    1.1287 H   0  0  0  0  0  0  0  0  0  0  0  0
   -1.4764    4.2875   -0.0767 H   0  0  0  0  0  0  0  0  0  0  0  0
   -2.9394    5.0498   -0.7545 H   0  0  0  0  0  0  0  0  0  0  0  0
   -0.4032    6.8667   -0.8443 H   0  0  0  0  0  0  0  0  0  0  0  0
    0.0967    9.0005    0.3029 H   0  0  0  0  0  0  0  0  0  0  0  0
   -2.7169    8.0173    3.4371 H   0  0  0  0  0  0  0  0  0  0  0  0
   -4.4498    5.7470    2.2804 H   0  0  0  0  0  0  0  0  0  0  0  0
   -3.0913    5.0527    3.2280 H   0  0  0  0  0  0  0  0  0  0  0  0
   -1.8433   10.5636    2.7213 H   0  0  0  0  0  0  0  0  0  0  0  0
   -0.2122   10.5241    2.0558 H   0  0  0  0  0  0  0  0  0  0  0  0
    0.6097    7.8653    3.3864 H   0  0  0  0  0  0  0  0  0  0  0  0
    1.5968    9.3181    3.3612 H   0  0  0  0  0  0  0  0  0  0  0  0
    0.4888    7.8257    5.8121 H   0  0  0  0  0  0  0  0  0  0  0  0
    2.1490    7.7926    5.2651 H   0  0  0  0  0  0  0  0  0  0  0  0
   -0.4254   10.1164    6.7081 H   0  0  0  0  0  0  0  0  0  0  0  0
    0.6695   11.4798    6.6599 H   0  0  0  0  0  0  0  0  0  0  0  0
    0.6732   11.4649    4.1782 H   0  0  0  0  0  0  0  0  0  0  0  0
   -0.9772   11.5253    4.7910 H   0  0  0  0  0  0  0  0  0  0  0  0
    2.7151   10.6735    4.7390 H   0  0  0  0  0  0  0  0  0  0  0  0
    3.0290   11.0886    6.4301 H   0  0  0  0  0  0  0  0  0  0  0  0
    3.6183    9.5622    5.7766 H   0  0  0  0  0  0  0  0  0  0  0  0
  1  2  1  0  0  0  0
  1 31  1  0  0  0  0
  1 32  1  0  0  0  0
  1 33  1  0  0  0  0
  2  3  1  0  0  0  0
  2  4  1  0  0  0  0
  2 34  1  0  0  0  0
  3 35  1  0  0  0  0
  3 36  1  0  0  0  0
  3 37  1  0  0  0  0
  4  5  2  0  0  0  0
  4  9  1  0  0  0  0
  5  6  1  0  0  0  0
  5 38  1  0  0  0  0
  6  7  2  0  0  0  0
  6 12  1  0  0  0  0
  7  8  1  0  0  0  0
  7 11  1  0  0  0  0
  8  9  2  0  0  0  0
  8 39  1  0  0  0  0
  9 10  1  0  0  0  0
 10 40  1  0  0  0  0
 11 41  1  0  0  0  0
 12 13  2  0  0  0  0
 12 14  1  0  0  0  0
 14 15  1  0  0  0  0
 14 22  1  0  0  0  0
 15 16  1  0  0  0  0
 15 42  1  0  0  0  0
 15 43  1  0  0  0  0
 16 17  2  0  0  0  0
 16 21  1  0  0  0  0
 17 18  1  0  0  0  0
 17 44  1  0  0  0  0
 18 19  2  0  0  0  0
 18 45  1  0  0  0  0
 19 20  1  0  0  0  0
 19 23  1  0  0  0  0
 20 21  2  0  0  0  0
 20 46  1  0  0  0  0
 21 22  1  0  0  0  0
 22 47  1  0  0  0  0
 22 48  1  0  0  0  0
 23 24  1  0  0  0  0
 23 49  1  0  0  0  0
 23 50  1  0  0  0  0
 24 25  1  0  0  0  0
 24 29  1  0  0  0  0
 25 26  1  0  0  0  0
 25 51  1  0  0  0  0
 25 52  1  0  0  0  0
 26 27  1  0  0  0  0
 26 53  1  0  0  0  0
 26 54  1  0  0  0  0
 27 28  1  0  0  0  0
 27 30  1  0  0  0  0
 28 29  1  0  0  0  0
 28 55  1  0  0  0  0
 28 56  1  0  0  0  0
 29 57  1  0  0  0  0
 29 58  1  0  0  0  0
 30 59  1  0  0  0  0
 30 60  1  0  0  0  0
 30 61  1  0  0  0  0
M  END
>  <DRUGBANK_ID>
DB06306

>  <COMMON_NAME>
Onalespib

>  <CAS_NUMBER>
912999-49-6

>  <UNII>
Q7Y33N57ZZ

>  <SYNONYMS>
Onalespib

$$$$
