3QC
 OpenBabel10282417163D

 48 50  0  0  0  0  0  0  0  0999 V2000
    0.0447    0.7081    0.0004 C   0  0  0  0  0  0  0  0  0  0  0  0
   -1.2642    1.4441    0.1480 C   0  0  0  0  0  0  0  0  0  0  0  0
    1.2919   -1.3189   -0.3976 C   0  0  0  0  0  0  0  0  0  0  0  0
    2.4881   -0.6388   -0.2034 C   0  0  0  0  0  0  0  0  0  0  0  0
    2.4903    0.7409   -0.0049 C   0  0  0  0  0  0  0  0  0  0  0  0
    1.2664    1.4320    0.0629 C   0  0  0  0  0  0  0  0  0  0  0  0
   -2.1638   -3.6445    0.9958 C   0  0  0  0  0  0  0  0  0  0  0  0
   -2.0704   -4.6216    1.9940 C   0  0  0  0  0  0  0  0  0  0  0  0
   -0.9300   -4.7623    2.7774 C   0  0  0  0  0  0  0  0  0  0  0  0
    0.1726   -3.9858    2.5076 C   0  0  0  0  0  0  0  0  0  0  0  0
   -3.0860   -5.4969    2.2415 O   0  0  0  0  0  0  0  0  0  0  0  0
    1.2381    2.9383    0.1729 C   0  0  0  0  0  0  0  0  0  0  0  0
   -2.3987    0.7113   -0.3765 N   0  0  0  0  0  0  0  0  0  0  0  0
   -2.4690   -0.6110    0.2721 C   0  0  0  0  0  0  0  0  0  0  0  0
   -1.2460   -1.5094   -0.1077 C   0  0  1  0  0  0  0  0  0  0  0  0
    0.0543   -0.6826   -0.1919 C   0  0  0  0  0  0  0  0  0  0  0  0
   -1.1347   -2.7029    0.8667 C   0  0  0  0  0  0  0  0  0  0  0  0
    0.0124   -2.8994    1.6681 C   0  0  0  0  0  0  0  0  0  0  0  0
    3.8068    1.4559    0.0676 C   0  0  0  0  0  0  0  0  0  0  0  0
   -3.3214    1.0667   -1.3523 C   0  0  0  0  0  0  0  0  0  0  0  0
   -3.2662    2.2952   -2.0077 N   0  0  0  0  0  0  0  0  0  0  0  0
   -4.2568    2.6251   -3.0304 C   0  0  0  0  0  0  0  0  0  0  0  0
   -2.2843    3.3446   -1.8451 C   0  0  0  0  0  0  0  0  0  0  0  0
   -4.2268    0.2633   -1.6463 O   0  0  0  0  0  0  0  0  0  0  0  0
   -1.4197   -1.8963   -1.1219 H   0  0  0  0  0  0  0  0  0  0  0  0
   -1.1131    2.3711   -0.3454 H   0  0  0  0  0  0  0  0  0  0  0  0
   -1.4645    1.6859    1.1977 H   0  0  0  0  0  0  0  0  0  0  0  0
    1.3377   -2.3964   -0.5557 H   0  0  0  0  0  0  0  0  0  0  0  0
    3.4178   -1.2037   -0.1923 H   0  0  0  0  0  0  0  0  0  0  0  0
   -3.0429   -3.5890    0.3595 H   0  0  0  0  0  0  0  0  0  0  0  0
   -0.8954   -5.4643    3.6017 H   0  0  0  0  0  0  0  0  0  0  0  0
    1.1366   -4.1675    2.9718 H   0  0  0  0  0  0  0  0  0  0  0  0
   -3.7418   -5.4152    1.5320 H   0  0  0  0  0  0  0  0  0  0  0  0
    0.7504    3.3622   -0.7115 H   0  0  0  0  0  0  0  0  0  0  0  0
    0.7022    3.2444    1.0765 H   0  0  0  0  0  0  0  0  0  0  0  0
    2.2299    3.3895    0.2147 H   0  0  0  0  0  0  0  0  0  0  0  0
   -2.4635   -0.4257    1.3582 H   0  0  0  0  0  0  0  0  0  0  0  0
   -3.4166   -1.1214    0.0664 H   0  0  0  0  0  0  0  0  0  0  0  0
    0.8401   -2.2003    1.6846 H   0  0  0  0  0  0  0  0  0  0  0  0
    3.8977    2.1244   -0.7944 H   0  0  0  0  0  0  0  0  0  0  0  0
    3.8814    2.0290    0.9969 H   0  0  0  0  0  0  0  0  0  0  0  0
    4.6488    0.7586    0.0378 H   0  0  0  0  0  0  0  0  0  0  0  0
   -4.7604    3.5542   -2.7355 H   0  0  0  0  0  0  0  0  0  0  0  0
   -3.7332    2.8116   -3.9766 H   0  0  0  0  0  0  0  0  0  0  0  0
   -5.0081    1.8512   -3.1885 H   0  0  0  0  0  0  0  0  0  0  0  0
   -2.3269    3.6999   -0.8115 H   0  0  0  0  0  0  0  0  0  0  0  0
   -1.3097    2.9511   -2.1497 H   0  0  0  0  0  0  0  0  0  0  0  0
   -2.4876    4.2114   -2.4786 H   0  0  0  0  0  0  0  0  0  0  0  0
  1  2  1  0  0  0  0
  1  6  1  0  0  0  0
  1 16  2  0  0  0  0
  2 13  1  0  0  0  0
  2 26  1  0  0  0  0
  2 27  1  0  0  0  0
  3  4  2  0  0  0  0
  3 16  1  0  0  0  0
  3 28  1  0  0  0  0
  4  5  1  0  0  0  0
  4 29  1  0  0  0  0
  5  6  2  0  0  0  0
  5 19  1  0  0  0  0
  6 12  1  0  0  0  0
  7  8  1  0  0  0  0
  7 17  2  0  0  0  0
  7 30  1  0  0  0  0
  8  9  2  0  0  0  0
  8 11  1  0  0  0  0
  9 10  1  0  0  0  0
  9 31  1  0  0  0  0
 10 18  2  0  0  0  0
 10 32  1  0  0  0  0
 11 33  1  0  0  0  0
 12 34  1  0  0  0  0
 12 35  1  0  0  0  0
 12 36  1  0  0  0  0
 13 14  1  0  0  0  0
 13 20  1  0  0  0  0
 14 15  1  0  0  0  0
 14 37  1  0  0  0  0
 14 38  1  0  0  0  0
 15 16  1  0  0  0  0
 15 17  1  0  0  0  0
 15 25  1  6  0  0  0
 17 18  1  0  0  0  0
 18 39  1  0  0  0  0
 19 40  1  0  0  0  0
 19 41  1  0  0  0  0
 19 42  1  0  0  0  0
 20 21  1  0  0  0  0
 20 24  2  0  0  0  0
 21 22  1  0  0  0  0
 21 23  1  0  0  0  0
 22 43  1  0  0  0  0
 22 44  1  0  0  0  0
 22 45  1  0  0  0  0
 23 46  1  0  0  0  0
 23 47  1  0  0  0  0
 23 48  1  0  0  0  0
M  END
>  <DRUGBANK_ID>
DB07064

>  <COMMON_NAME>
(4R)-4-(3-HYDROXYPHENYL)-N,N,7,8-TETRAMETHYL-3,4-DIHYDROISOQUINOLINE-2(1H)-CARBOXAMIDE

$$$$
