648
 OpenBabel10282417103D

 28 29  0  0  1  0  0  0  0  0999 V2000
    0.7553    0.2866   -0.1800 Cl  0  0  0  0  0  0  0  0  0  0  0  0
    2.9041   -0.5943   -1.8613 Cl  0  0  0  0  0  0  0  0  0  0  0  0
    5.1588   -1.3696    0.4293 Cl  0  0  0  0  0  0  0  0  0  0  0  0
    1.8920    4.6075    4.9783 Cl  0  0  0  0  0  0  0  0  0  0  0  0
    3.3260    1.4598   -0.0185 C   0  0  3  0  0  0  0  0  0  0  0  0
    2.8392    2.2504    1.2217 C   0  0  0  0  0  0  0  0  0  0  0  0
    4.8872    1.3834   -0.0300 C   0  0  0  0  0  0  0  0  0  0  0  0
    2.5500    0.1200   -0.2476 C   0  0  0  0  0  0  0  0  0  0  0  0
    2.9003    3.6640    1.2319 C   0  0  0  0  0  0  0  0  0  0  0  0
    2.3797    1.6128    2.3787 C   0  0  0  0  0  0  0  0  0  0  0  0
    5.6958    0.2318    0.0637 C   0  0  0  0  0  0  0  0  0  0  0  0
    5.5916    2.6146   -0.1436 C   0  0  0  0  0  0  0  0  0  0  0  0
    2.6351    4.3878    2.3979 C   0  0  0  0  0  0  0  0  0  0  0  0
    2.0391    2.3424    3.5217 C   0  0  0  0  0  0  0  0  0  0  0  0
    7.0953    0.3141   -0.0549 C   0  0  0  0  0  0  0  0  0  0  0  0
    6.9884    2.6955   -0.1421 C   0  0  0  0  0  0  0  0  0  0  0  0
    2.2085    3.7269    3.5362 C   0  0  0  0  0  0  0  0  0  0  0  0
    7.7415    1.5404   -0.1328 C   0  0  0  0  0  0  0  0  0  0  0  0
    3.0565    2.0798   -0.8907 H   0  0  0  0  0  0  0  0  0  0  0  0
    2.7787   -0.6115    0.5279 H   0  0  0  0  0  0  0  0  0  0  0  0
    3.1871    4.2213    0.3460 H   0  0  0  0  0  0  0  0  0  0  0  0
    2.2611    0.5315    2.4260 H   0  0  0  0  0  0  0  0  0  0  0  0
    5.0699    3.5623   -0.2135 H   0  0  0  0  0  0  0  0  0  0  0  0
    2.7760    5.4685    2.4040 H   0  0  0  0  0  0  0  0  0  0  0  0
    1.6651    1.8244    4.3961 H   0  0  0  0  0  0  0  0  0  0  0  0
    7.6941   -0.5932   -0.0503 H   0  0  0  0  0  0  0  0  0  0  0  0
    7.4777    3.6676   -0.1553 H   0  0  0  0  0  0  0  0  0  0  0  0
    8.8265    1.5826   -0.1633 H   0  0  0  0  0  0  0  0  0  0  0  0
  1  8  1  0  0  0  0
  2  8  1  0  0  0  0
  3 11  1  0  0  0  0
  4 17  1  0  0  0  0
  5  6  1  0  0  0  0
  5  7  1  0  0  0  0
  5  8  1  0  0  0  0
  5 19  1  0  0  0  0
  6  9  2  0  0  0  0
  6 10  1  0  0  0  0
  7 11  1  0  0  0  0
  7 12  2  0  0  0  0
  8 20  1  0  0  0  0
  9 13  1  0  0  0  0
  9 21  1  0  0  0  0
 10 14  2  0  0  0  0
 10 22  1  0  0  0  0
 11 15  2  0  0  0  0
 12 16  1  0  0  0  0
 12 23  1  0  0  0  0
 13 17  2  0  0  0  0
 13 24  1  0  0  0  0
 14 17  1  0  0  0  0
 14 25  1  0  0  0  0
 15 18  1  0  0  0  0
 15 26  1  0  0  0  0
 16 18  2  0  0  0  0
 16 27  1  0  0  0  0
 18 28  1  0  0  0  0
M  END
>  <DRUGBANK_ID>
DB00648

>  <SECONDARY_ACCESSION_NUMBERS>
APRD00494

>  <COMMON_NAME>
Mitotane

>  <CAS_NUMBER>
53-19-0

>  <UNII>
78E4J5IB5J

>  <SYNONYMS>
1-chloro-2-[2,2-dichloro-1-(4-chlorophenyl)ethyl]-benzene; Mitotan; Mitotane; Mitotano; Mitotanum; o,p'-DDD

$$$$
