
 OpenBabel10282417143D

 54 57  0  0  0  0  0  0  0  0999 V2000
   -3.2775    0.3244   -1.6220 C   0  0  0  0  0  0  0  0  0  0  0  0
   -2.0825   -0.8474   -1.2431 C   0  0  0  0  0  0  0  0  0  0  0  0
   -2.2907   -1.9426   -0.0733 C   0  0  0  0  0  0  0  0  0  0  0  0
   -1.6221   -3.1156    0.4737 C   0  0  0  0  0  0  0  0  0  0  0  0
   -2.6948   -2.3810    2.4646 C   0  0  0  0  0  0  0  0  0  0  0  0
   -3.7692   -1.5446    1.8657 C   0  0  0  0  0  0  0  0  0  0  0  0
   -3.7932   -1.7054    0.2498 C   0  0  2  0  0  0  0  0  0  0  0  0
   -7.3832    0.0221   -0.1714 C   0  0  0  0  0  0  0  0  0  0  0  0
   -7.1358    3.0720   -1.2673 C   0  0  0  0  0  0  0  0  0  0  0  0
   -5.8532    2.1767   -1.0449 C   0  0  0  0  0  0  0  0  0  0  0  0
   -4.8957   -0.6731   -0.1449 C   0  0  2  0  0  0  0  0  0  0  0  0
   -4.8148    0.2009    0.5394 H   0  0  0  0  0  0  0  0  0  0  0  0
   -5.8740    0.8414   -1.8983 C   0  0  1  0  0  0  0  0  0  0  0  0
   -5.6753    0.9592   -2.9732 H   0  0  0  0  0  0  0  0  0  0  0  0
   -4.7575   -0.1353   -1.5179 C   0  0  2  0  0  0  0  0  0  0  0  0
   -4.9246   -0.8935   -2.2774 H   0  0  0  0  0  0  0  0  0  0  0  0
   -7.3976    0.5902   -1.8304 C   0  0  1  0  0  0  0  0  0  0  0  0
   -7.5638    2.3043   -2.5166 C   0  0  1  0  0  0  0  0  0  0  0  0
   -2.7540   -3.4988    1.4634 C   0  0  0  0  0  0  0  0  0  0  0  0
   -3.5780   -4.3354    1.2790 O   0  0  0  0  0  0  0  0  0  0  0  0
   -6.3688   -1.1969    0.0380 C   0  0  1  0  0  0  0  0  0  0  0  0
   -7.0828   -2.3722    0.4210 O   0  0  0  0  0  0  0  0  0  0  0  0
   -7.9445    3.5539   -3.6630 C   0  0  0  0  0  0  0  0  0  0  0  0
   -7.1741    4.5354   -3.7760 O   0  0  0  0  0  0  0  0  0  0  0  0
   -9.1975    3.6156   -4.5386 C   0  0  0  0  0  0  0  0  0  0  0  0
   -9.9818    4.8044   -4.4359 O   0  0  0  0  0  0  0  0  0  0  0  0
   -6.6233    2.3704   -3.1296 H   0  0  0  0  0  0  0  0  0  0  0  0
   -8.1468   -0.7172   -2.3818 C   0  0  0  0  0  0  0  0  0  0  0  0
   -8.8068   -1.4870   -1.6632 O   0  0  0  0  0  0  0  0  0  0  0  0
   -4.1277   -2.8394   -0.7992 C   0  0  0  0  0  0  0  0  0  0  0  0
   -3.2116    0.7102   -2.6509 H   0  0  0  0  0  0  0  0  0  0  0  0
   -3.0503    1.2258   -1.0269 H   0  0  0  0  0  0  0  0  0  0  0  0
   -1.9700   -1.3905   -2.1874 H   0  0  0  0  0  0  0  0  0  0  0  0
   -1.1956   -0.2549   -1.0023 H   0  0  0  0  0  0  0  0  0  0  0  0
   -1.3766   -4.0780    1.1127 H   0  0  0  0  0  0  0  0  0  0  0  0
   -2.6219   -2.7146    3.4838 H   0  0  0  0  0  0  0  0  0  0  0  0
   -1.7691   -1.7948    2.3152 H   0  0  0  0  0  0  0  0  0  0  0  0
   -4.7055   -1.8060    2.3499 H   0  0  0  0  0  0  0  0  0  0  0  0
   -3.5458   -0.4928    2.1565 H   0  0  0  0  0  0  0  0  0  0  0  0
   -8.3895   -0.2914    0.1315 H   0  0  0  0  0  0  0  0  0  0  0  0
   -7.1056    0.7312    0.6069 H   0  0  0  0  0  0  0  0  0  0  0  0
   -8.2292    3.2628   -1.1888 H   0  0  0  0  0  0  0  0  0  0  0  0
   -7.4379    2.8769   -0.2195 H   0  0  0  0  0  0  0  0  0  0  0  0
   -5.7847    2.0141    0.0383 H   0  0  0  0  0  0  0  0  0  0  0  0
   -4.9080    2.6615   -1.2697 H   0  0  0  0  0  0  0  0  0  0  0  0
   -5.9731   -1.3680    1.0168 H   0  0  0  0  0  0  0  0  0  0  0  0
   -7.7269   -2.0675    1.1076 H   0  0  0  0  0  0  0  0  0  0  0  0
   -8.8934    3.5944   -5.6000 H   0  0  0  0  0  0  0  0  0  0  0  0
   -9.8089    2.7584   -4.3109 H   0  0  0  0  0  0  0  0  0  0  0  0
  -10.0879    5.0432   -3.5010 H   0  0  0  0  0  0  0  0  0  0  0  0
   -8.0644   -1.0403   -3.4217 H   0  0  0  0  0  0  0  0  0  0  0  0
   -4.3118   -2.4481   -1.8027 H   0  0  0  0  0  0  0  0  0  0  0  0
   -3.3051   -3.5006   -1.1281 H   0  0  0  0  0  0  0  0  0  0  0  0
   -4.9723   -3.4208   -0.4935 H   0  0  0  0  0  0  0  0  0  0  0  0
  1  2  1  0  0  0  0
  1 31  1  0  0  0  0
  1 32  1  0  0  0  0
  2  3  1  0  0  0  0
  2 33  1  0  0  0  0
  2 34  1  0  0  0  0
  3  4  2  0  0  0  0
  3  7  1  0  0  0  0
  4 19  1  0  0  0  0
  4 35  1  0  0  0  0
  5  6  1  0  0  0  0
  5 36  1  0  0  0  0
  5 37  1  0  0  0  0
  6  7  1  0  0  0  0
  6 38  1  0  0  0  0
  6 39  1  0  0  0  0
  7 11  1  0  0  0  0
  7 30  1  1  0  0  0
  8 17  1  0  0  0  0
  8 40  1  0  0  0  0
  8 41  1  0  0  0  0
  9 10  1  0  0  0  0
  9 42  1  0  0  0  0
  9 43  1  0  0  0  0
 10 13  1  0  0  0  0
 10 44  1  0  0  0  0
 10 45  1  0  0  0  0
 11 21  1  0  0  0  0
 11 12  1  6  0  0  0
 13 14  1  6  0  0  0
 15  1  1  0  0  0  0
 15 11  1  0  0  0  0
 15 13  1  0  0  0  0
 15 16  1  1  0  0  0
 17 18  1  0  0  0  0
 17 13  1  0  0  0  0
 17 28  1  1  0  0  0
 18  9  1  0  0  0  0
 18 23  1  0  0  0  0
 18 27  1  6  0  0  0
 19  5  1  0  0  0  0
 19 20  2  0  0  0  0
 21  8  1  0  0  0  0
 21 22  1  0  0  0  0
 21 46  1  6  0  0  0
 22 47  1  0  0  0  0
 23 25  1  0  0  0  0
 23 24  2  0  0  0  0
 25 26  1  0  0  0  0
 25 48  1  0  0  0  0
 25 49  1  0  0  0  0
 26 50  1  0  0  0  0
 28 29  2  0  0  0  0
 28 51  1  0  0  0  0
 30 52  1  0  0  0  0
 30 53  1  0  0  0  0
 30 54  1  0  0  0  0
M  END
>  <DRUGBANK_ID>
DB04630

>  <COMMON_NAME>
Aldosterone

>  <CAS_NUMBER>
52-39-1

>  <UNII>
4964P6T9RB

>  <SYNONYMS>
(+)-aldosterone; (11Î²)-11,21-dihydroxy-3,20-dioxopregn-4-en-18-al; 11beta,21-Dihydroxy-3,20-dioxo-4-pregnen-18-al; 11beta,21-dihydroxy-3,20-dioxopregn-4-en-18-al; Aldosterona; Aldosterone; Aldosteronum

$$$$
