972
 OpenBabel10282417113D

 51 54  0  0  1  0  0  0  0  0999 V2000
   -2.1271    0.0111   -0.0037 Cl  0  0  0  0  0  0  0  0  0  0  0  0
    6.0660   -2.6790    4.3867 O   0  0  0  0  0  0  0  0  0  0  0  0
    2.1337   -6.4654    1.8764 N   0  0  0  0  0  0  0  0  0  0  0  0
    4.8795   -2.7825    2.3816 N   0  0  0  0  0  0  0  0  0  0  0  0
    4.3014   -2.0902    1.3213 N   0  0  0  0  0  0  0  0  0  0  0  0
    4.2338   -4.0389    2.8198 C   0  0  3  0  0  0  0  0  0  0  0  0
    2.8104   -3.7154    3.2902 C   0  0  0  0  0  0  0  0  0  0  0  0
    4.3389   -5.2799    1.9164 C   0  0  0  0  0  0  0  0  0  0  0  0
    1.7658   -4.0087    2.2195 C   0  0  0  0  0  0  0  0  0  0  0  0
    3.4725   -6.4310    2.4877 C   0  0  0  0  0  0  0  0  0  0  0  0
    1.2223   -5.4230    2.3716 C   0  0  0  0  0  0  0  0  0  0  0  0
    5.6593   -2.1420    3.3468 C   0  0  0  0  0  0  0  0  0  0  0  0
    1.5010   -7.7705    2.0740 C   0  0  0  0  0  0  0  0  0  0  0  0
    5.9559   -0.7260    3.1488 C   0  0  0  0  0  0  0  0  0  0  0  0
    4.5188   -0.8092    1.1775 C   0  0  0  0  0  0  0  0  0  0  0  0
    5.3687   -0.0336    2.1034 C   0  0  0  0  0  0  0  0  0  0  0  0
    3.8935   -0.0754   -0.0157 C   0  0  0  0  0  0  0  0  0  0  0  0
    6.7949   -0.0659    4.0525 C   0  0  0  0  0  0  0  0  0  0  0  0
    5.5873    1.3443    1.9954 C   0  0  0  0  0  0  0  0  0  0  0  0
    2.3868   -0.0225   -0.0049 C   0  0  0  0  0  0  0  0  0  0  0  0
    6.9200    1.3170    3.9962 C   0  0  0  0  0  0  0  0  0  0  0  0
    6.2580    2.0280    3.0047 C   0  0  0  0  0  0  0  0  0  0  0  0
    1.6919    1.1969    0.0015 C   0  0  0  0  0  0  0  0  0  0  0  0
    1.6612   -1.2149   -0.0517 C   0  0  0  0  0  0  0  0  0  0  0  0
    0.2944    1.2081   -0.0099 C   0  0  0  0  0  0  0  0  0  0  0  0
    0.2709   -1.2087   -0.0389 C   0  0  0  0  0  0  0  0  0  0  0  0
   -0.4082    0.0038   -0.0168 C   0  0  0  0  0  0  0  0  0  0  0  0
    4.7808   -4.3586    3.7151 H   0  0  0  0  0  0  0  0  0  0  0  0
    2.5974   -4.2896    4.2009 H   0  0  0  0  0  0  0  0  0  0  0  0
    2.7353   -2.6647    3.5926 H   0  0  0  0  0  0  0  0  0  0  0  0
    5.3851   -5.6147    1.8932 H   0  0  0  0  0  0  0  0  0  0  0  0
    4.0787   -5.0743    0.8709 H   0  0  0  0  0  0  0  0  0  0  0  0
    0.9433   -3.2940    2.3204 H   0  0  0  0  0  0  0  0  0  0  0  0
    2.1651   -3.8766    1.2086 H   0  0  0  0  0  0  0  0  0  0  0  0
    3.4011   -6.3753    3.5841 H   0  0  0  0  0  0  0  0  0  0  0  0
    3.9956   -7.3735    2.2826 H   0  0  0  0  0  0  0  0  0  0  0  0
    0.2832   -5.4756    1.8074 H   0  0  0  0  0  0  0  0  0  0  0  0
    0.9667   -5.5990    3.4251 H   0  0  0  0  0  0  0  0  0  0  0  0
    1.3096   -7.9763    3.1332 H   0  0  0  0  0  0  0  0  0  0  0  0
    0.5473   -7.8120    1.5353 H   0  0  0  0  0  0  0  0  0  0  0  0
    2.1241   -8.5729    1.6669 H   0  0  0  0  0  0  0  0  0  0  0  0
    4.2426   -0.5726   -0.9257 H   0  0  0  0  0  0  0  0  0  0  0  0
    4.2491    0.9491   -0.1111 H   0  0  0  0  0  0  0  0  0  0  0  0
    7.3230   -0.6313    4.8174 H   0  0  0  0  0  0  0  0  0  0  0  0
    5.2575    1.9370    1.1517 H   0  0  0  0  0  0  0  0  0  0  0  0
    7.5357    1.8378    4.7221 H   0  0  0  0  0  0  0  0  0  0  0  0
    6.2681    3.1146    3.0009 H   0  0  0  0  0  0  0  0  0  0  0  0
    2.2247    2.1459    0.0044 H   0  0  0  0  0  0  0  0  0  0  0  0
    2.1898   -2.1631   -0.0928 H   0  0  0  0  0  0  0  0  0  0  0  0
   -0.2396    2.1545   -0.0138 H   0  0  0  0  0  0  0  0  0  0  0  0
   -0.2623   -2.1542   -0.0478 H   0  0  0  0  0  0  0  0  0  0  0  0
  1 27  1  0  0  0  0
  2 12  2  0  0  0  0
  3 10  1  0  0  0  0
  3 11  1  0  0  0  0
  3 13  1  0  0  0  0
  4  5  1  0  0  0  0
  4  6  1  0  0  0  0
  4 12  1  0  0  0  0
  5 15  2  0  0  0  0
  6  7  1  0  0  0  0
  6  8  1  0  0  0  0
  6 28  1  0  0  0  0
  7  9  1  0  0  0  0
  7 29  1  0  0  0  0
  7 30  1  0  0  0  0
  8 10  1  0  0  0  0
  8 31  1  0  0  0  0
  8 32  1  0  0  0  0
  9 11  1  0  0  0  0
  9 33  1  0  0  0  0
  9 34  1  0  0  0  0
 10 35  1  0  0  0  0
 10 36  1  0  0  0  0
 11 37  1  0  0  0  0
 11 38  1  0  0  0  0
 12 14  1  0  0  0  0
 13 39  1  0  0  0  0
 13 40  1  0  0  0  0
 13 41  1  0  0  0  0
 14 16  1  0  0  0  0
 14 18  2  0  0  0  0
 15 16  1  0  0  0  0
 15 17  1  0  0  0  0
 16 19  2  0  0  0  0
 17 20  1  0  0  0  0
 17 42  1  0  0  0  0
 17 43  1  0  0  0  0
 18 21  1  0  0  0  0
 18 44  1  0  0  0  0
 19 22  1  0  0  0  0
 19 45  1  0  0  0  0
 20 23  2  0  0  0  0
 20 24  1  0  0  0  0
 21 22  2  0  0  0  0
 21 46  1  0  0  0  0
 22 47  1  0  0  0  0
 23 25  1  0  0  0  0
 23 48  1  0  0  0  0
 24 26  2  0  0  0  0
 24 49  1  0  0  0  0
 25 27  2  0  0  0  0
 25 50  1  0  0  0  0
 26 27  1  0  0  0  0
 26 51  1  0  0  0  0
M  END
>  <DRUGBANK_ID>
DB00972

>  <SECONDARY_ACCESSION_NUMBERS>
APRD00813

>  <COMMON_NAME>
Azelastine

>  <CAS_NUMBER>
58581-89-8

>  <UNII>
ZQI909440X

>  <SYNONYMS>
4-(p-Chlorobenzyl)-2-(hexahydro-1-methyl-1H-azepin-4-yl)-1-(2H)-phthalazinone; Azelastina; Azelastine; Az√©lastine; Azelastinum

$$$$
