
 OpenBabel10282417143D

 79 84  0  0  1  0  0  0  0  0999 V2000
    0.8852   -0.1513   -0.4519 O   0  0  0  0  0  0  0  0  0  0  0  0
    0.4410   -0.9581    0.6777 C   0  0  2  0  0  0  0  0  0  0  0  0
    0.6672   -2.4458    0.7429 C   0  0  1  0  0  0  0  0  0  0  0  0
    1.9054   -2.6862    0.0577 O   0  0  0  0  0  0  0  0  0  0  0  0
    0.8453   -3.0030    2.2114 C   0  0  1  0  0  0  0  0  0  0  0  0
    1.6410   -1.9944    3.0483 C   0  0  0  0  0  0  0  0  0  0  0  0
    1.1002   -0.5354    2.9176 C   0  0  0  0  0  0  0  0  0  0  0  0
   -0.0707   -0.3061    3.4409 C   0  0  0  0  0  0  0  0  0  0  0  0
   -1.3108    0.9087    3.4212 C   0  0  0  0  0  0  0  0  0  0  0  0
   -1.1414    2.1896    3.3727 C   0  0  0  0  0  0  0  0  0  0  0  0
    0.1191    2.1337    2.9056 C   0  0  0  0  0  0  0  0  0  0  0  0
    1.0900    0.7977    2.4952 C   0  0  0  0  0  0  0  0  0  0  0  0
   -0.3190   -3.2632    3.0655 N   0  0  0  0  0  0  0  0  0  0  0  0
   -0.5837   -4.5858    3.6272 C   0  0  0  0  0  0  0  0  0  0  0  0
   -1.0982   -4.4116    5.0467 C   0  0  0  0  0  0  0  0  0  0  0  0
   -2.2778   -3.7013    5.3074 C   0  0  0  0  0  0  0  0  0  0  0  0
   -2.9639   -3.6330    6.5153 C   0  0  0  0  0  0  0  0  0  0  0  0
   -2.3207   -4.2120    7.5886 C   0  0  0  0  0  0  0  0  0  0  0  0
   -1.1189   -4.9141    7.3821 C   0  0  0  0  0  0  0  0  0  0  0  0
   -0.4853   -4.9743    6.1332 C   0  0  0  0  0  0  0  0  0  0  0  0
   -4.3072   -2.9647    6.6859 C   0  0  0  0  0  0  0  0  0  0  0  0
   -4.7657   -2.7947    7.8152 O   0  0  0  0  0  0  0  0  0  0  0  0
   -5.0167   -2.4553    5.6360 N   0  0  0  0  0  0  0  0  0  0  0  0
   -4.8739   -2.7901    4.3470 C   0  0  0  0  0  0  0  0  0  0  0  0
   -4.6579   -3.9567    3.7925 N   0  0  0  0  0  0  0  0  0  0  0  0
   -4.3652   -3.7481    2.4780 C   0  0  0  0  0  0  0  0  0  0  0  0
   -4.2173   -2.4181    2.1957 C   0  0  0  0  0  0  0  0  0  0  0  0
   -4.6987   -1.3939    3.4586 S   0  0  0  0  0  0  0  0  0  0  0  0
   -1.4582   -2.6543    2.7374 C   0  0  0  0  0  0  0  0  0  0  0  0
   -2.0842   -3.4028    2.0248 O   0  0  0  0  0  0  0  0  0  0  0  0
   -1.7060   -1.2979    3.0938 N   0  0  0  0  0  0  0  0  0  0  0  0
   -1.3720   -0.5938    4.9100 C   0  0  0  0  0  0  0  0  0  0  0  0
    0.4161    0.1996    5.4709 C   0  0  0  0  0  0  0  0  0  0  0  0
    1.7074    1.3795    4.8396 C   0  0  0  0  0  0  0  0  0  0  0  0
    2.1865    0.0014    4.9995 C   0  0  0  0  0  0  0  0  0  0  0  0
   -1.1191   -0.5405    1.4299 C   0  0  2  0  0  0  0  0  0  0  0  0
   -2.0266   -0.6588    0.2189 C   0  0  0  0  0  0  0  0  0  0  0  0
   -3.3255    0.0711    0.4193 C   0  0  0  0  0  0  0  0  0  0  0  0
   -3.3237    1.3887    0.8738 C   0  0  0  0  0  0  0  0  0  0  0  0
   -4.4841    1.9524    1.3904 C   0  0  0  0  0  0  0  0  0  0  0  0
   -5.6292    1.1833    1.5492 C   0  0  0  0  0  0  0  0  0  0  0  0
   -5.6742   -0.0777    0.9833 C   0  0  0  0  0  0  0  0  0  0  0  0
   -4.5600   -0.5737    0.3035 C   0  0  0  0  0  0  0  0  0  0  0  0
    1.8684   -0.0388   -0.3249 H   0  0  0  0  0  0  0  0  0  0  0  0
    1.3886   -0.7124    1.1240 H   0  0  0  0  0  0  0  0  0  0  0  0
   -0.1506   -2.9002    0.2086 H   0  0  0  0  0  0  0  0  0  0  0  0
    1.9642   -3.6498   -0.0085 H   0  0  0  0  0  0  0  0  0  0  0  0
    1.4027   -3.9518    2.1393 H   0  0  0  0  0  0  0  0  0  0  0  0
    1.5497   -2.4197    4.1008 H   0  0  0  0  0  0  0  0  0  0  0  0
    2.6913   -2.0996    2.8187 H   0  0  0  0  0  0  0  0  0  0  0  0
   -0.1246   -1.3643    4.0358 H   0  0  0  0  0  0  0  0  0  0  0  0
   -2.4042    0.6389    3.5324 H   0  0  0  0  0  0  0  0  0  0  0  0
   -1.8231    2.8517    3.8784 H   0  0  0  0  0  0  0  0  0  0  0  0
    0.6134    3.0144    3.3165 H   0  0  0  0  0  0  0  0  0  0  0  0
    2.0309    1.0531    2.0586 H   0  0  0  0  0  0  0  0  0  0  0  0
   -1.3551   -5.1572    3.0717 H   0  0  0  0  0  0  0  0  0  0  0  0
    0.3110   -5.2010    3.5839 H   0  0  0  0  0  0  0  0  0  0  0  0
   -2.6489   -3.1081    4.5075 H   0  0  0  0  0  0  0  0  0  0  0  0
   -2.7400   -4.1156    8.5855 H   0  0  0  0  0  0  0  0  0  0  0  0
   -0.6881   -5.4630    8.2092 H   0  0  0  0  0  0  0  0  0  0  0  0
    0.4794   -5.4491    6.0062 H   0  0  0  0  0  0  0  0  0  0  0  0
   -5.7592   -1.7938    5.7945 H   0  0  0  0  0  0  0  0  0  0  0  0
   -3.8630   -4.4925    1.8530 H   0  0  0  0  0  0  0  0  0  0  0  0
   -3.5190   -2.0999    1.4457 H   0  0  0  0  0  0  0  0  0  0  0  0
   -2.0808    0.2557    5.2558 H   0  0  0  0  0  0  0  0  0  0  0  0
   -1.6482   -1.3595    5.6376 H   0  0  0  0  0  0  0  0  0  0  0  0
    0.3592    0.2699    6.5424 H   0  0  0  0  0  0  0  0  0  0  0  0
    2.0376    1.8217    3.8398 H   0  0  0  0  0  0  0  0  0  0  0  0
    2.2603    2.3239    5.0085 H   0  0  0  0  0  0  0  0  0  0  0  0
    2.8524   -0.8443    4.6909 H   0  0  0  0  0  0  0  0  0  0  0  0
    2.7216   -0.0577    3.8861 H   0  0  0  0  0  0  0  0  0  0  0  0
   -1.0244    0.5595    1.4331 H   0  0  0  0  0  0  0  0  0  0  0  0
   -1.5255   -0.1850   -0.6427 H   0  0  0  0  0  0  0  0  0  0  0  0
   -2.0446   -1.7262    0.0300 H   0  0  0  0  0  0  0  0  0  0  0  0
   -2.4049    1.9722    0.8929 H   0  0  0  0  0  0  0  0  0  0  0  0
   -4.4731    2.9913    1.6863 H   0  0  0  0  0  0  0  0  0  0  0  0
   -6.4768    1.5421    2.1199 H   0  0  0  0  0  0  0  0  0  0  0  0
   -6.4723   -0.7766    1.2514 H   0  0  0  0  0  0  0  0  0  0  0  0
   -4.6235   -1.6196   -0.0052 H   0  0  0  0  0  0  0  0  0  0  0  0
  1 44  1  0  0  0  0
  2  1  1  0  0  0  0
  2  3  1  0  0  0  0
  2 36  1  0  0  0  0
  2 45  1  1  0  0  0
  3  5  1  0  0  0  0
  3 46  1  6  0  0  0
  3  4  1  0  0  0  0
  4 47  1  0  0  0  0
  5 13  1  0  0  0  0
  5 48  1  6  0  0  0
  5  6  1  0  0  0  0
  6  7  1  0  0  0  0
  6 49  1  0  0  0  0
  6 50  1  0  0  0  0
  7  8  2  0  0  0  0
  7 12  1  0  0  0  0
  8  9  1  0  0  0  0
  8 51  1  0  0  0  0
  9 10  2  0  0  0  0
  9 52  1  0  0  0  0
 10 11  1  0  0  0  0
 10 53  1  0  0  0  0
 11 12  2  0  0  0  0
 11 54  1  0  0  0  0
 12 55  1  0  0  0  0
 13 14  1  0  0  0  0
 13 29  1  0  0  0  0
 14 15  1  0  0  0  0
 14 56  1  0  0  0  0
 14 57  1  0  0  0  0
 15 16  2  0  0  0  0
 15 20  1  0  0  0  0
 16 17  1  0  0  0  0
 16 58  1  0  0  0  0
 17 18  2  0  0  0  0
 17 21  1  0  0  0  0
 18 19  1  0  0  0  0
 18 59  1  0  0  0  0
 19 20  2  0  0  0  0
 19 60  1  0  0  0  0
 20 61  1  0  0  0  0
 21 22  2  0  0  0  0
 21 23  1  0  0  0  0
 23 24  1  0  0  0  0
 23 62  1  0  0  0  0
 24 25  2  0  0  0  0
 24 28  1  0  0  0  0
 25 26  1  0  0  0  0
 26 27  2  0  0  0  0
 26 63  1  0  0  0  0
 27 28  1  0  0  0  0
 27 64  1  0  0  0  0
 29 30  2  0  0  0  0
 29 31  1  0  0  0  0
 31 32  1  0  0  0  0
 31 36  1  0  0  0  0
 32 33  1  0  0  0  0
 32 65  1  0  0  0  0
 32 66  1  0  0  0  0
 33 34  1  0  0  0  0
 33 35  1  0  0  0  0
 33 67  1  0  0  0  0
 34 35  1  0  0  0  0
 34 68  1  0  0  0  0
 34 69  1  0  0  0  0
 35 70  1  0  0  0  0
 35 71  1  0  0  0  0
 36 72  1  1  0  0  0
 36 37  1  0  0  0  0
 37 38  1  0  0  0  0
 37 73  1  0  0  0  0
 37 74  1  0  0  0  0
 38 39  2  0  0  0  0
 38 43  1  0  0  0  0
 39 40  1  0  0  0  0
 39 75  1  0  0  0  0
 40 41  2  0  0  0  0
 40 76  1  0  0  0  0
 41 42  1  0  0  0  0
 41 77  1  0  0  0  0
 42 43  2  0  0  0  0
 42 78  1  0  0  0  0
 43 79  1  0  0  0  0
M  END
>  <DRUGBANK_ID>
DB04609

>  <COMMON_NAME>
INHIBITOR Q8467 OF DUPONT MERCK

$$$$
