
 OpenBabel10282417143D

 41 35  0  0  0  0  0  0  0  0999 V2000
    1.0653    0.0250   -0.0715 Pt  0  0  0  0  0  0  0  0  0  0  0  0
    1.0353    0.0440    0.0826 Cl  0  5  0  0  0  0  0  0  0  0  0  0
    1.0194    0.0607    0.0770 Cl  0  5  0  0  0  0  0  0  0  0  0  0
    1.0257    0.0129    0.0958 O   0  5  0  0  0  0  0  0  0  0  0  0
    1.0759    0.0113    0.0642 O   0  5  0  0  0  0  0  0  0  0  0  0
    3.0812   -0.2247   -0.9789 O   0  0  0  0  0  0  0  0  0  0  0  0
    3.1313    0.1762   -1.0240 O   0  0  0  0  0  0  0  0  0  0  0  0
   -2.4000    0.0030    0.0920 N   0  0  0  0  0  0  0  0  0  0  0  0
    0.9886   -0.0457   -0.0882 N   0  0  0  0  0  0  0  0  0  0  0  0
   -0.9860   -0.0260   -0.3020 C   0  0  0  0  0  0  0  0  0  0  0  0
   -0.2910    1.2440    0.1630 C   0  0  0  0  0  0  0  0  0  0  0  0
   -0.2430   -1.2840    0.1680 C   0  0  0  0  0  0  0  0  0  0  0  0
    1.1830    1.2690   -0.2170 C   0  0  0  0  0  0  0  0  0  0  0  0
    1.2340   -1.2350   -0.2200 C   0  0  0  0  0  0  0  0  0  0  0  0
    1.9030    0.0290    0.3030 C   0  0  0  0  0  0  0  0  0  0  0  0
    3.2057    0.2970    1.3811 C   0  0  0  0  0  0  0  0  0  0  0  0
    3.2559   -0.1859    1.3657 C   0  0  0  0  0  0  0  0  0  0  0  0
    2.4457    0.0129    0.0958 C   0  0  0  0  0  0  0  0  0  0  0  0
    2.4959    0.0113    0.0642 C   0  0  0  0  0  0  0  0  0  0  0  0
   -2.4703   -0.0301    1.1090 H   0  0  0  0  0  0  0  0  0  0  0  0
   -2.8309    0.8616   -0.2508 H   0  0  0  0  0  0  0  0  0  0  0  0
    0.6486    0.0692    0.8666 H   0  0  0  0  0  0  0  0  0  0  0  0
    0.6486    0.7237   -0.6651 H   0  0  0  0  0  0  0  0  0  0  0  0
    2.0086   -0.0457   -0.0882 H   0  0  0  0  0  0  0  0  0  0  0  0
   -0.9594   -0.0688   -1.3708 H   0  0  0  0  0  0  0  0  0  0  0  0
   -0.7670    2.0725   -0.3186 H   0  0  0  0  0  0  0  0  0  0  0  0
   -0.3729    1.3108    1.2278 H   0  0  0  0  0  0  0  0  0  0  0  0
   -0.3100   -1.3367    1.2346 H   0  0  0  0  0  0  0  0  0  0  0  0
   -0.6933   -2.1435   -0.2830 H   0  0  0  0  0  0  0  0  0  0  0  0
    1.2596    1.2851   -1.2841 H   0  0  0  0  0  0  0  0  0  0  0  0
    1.6383    2.1406    0.2048 H   0  0  0  0  0  0  0  0  0  0  0  0
    1.3024   -1.2356   -1.2878 H   0  0  0  0  0  0  0  0  0  0  0  0
    1.7309   -2.0882    0.1922 H   0  0  0  0  0  0  0  0  0  0  0  0
    2.9173    0.0497   -0.0372 H   0  0  0  0  0  0  0  0  0  0  0  0
    1.8725    0.0267    1.3726 H   0  0  0  0  0  0  0  0  0  0  0  0
    2.9472    1.2712    1.7404 H   0  0  0  0  0  0  0  0  0  0  0  0
    2.9472   -0.4349    2.1175 H   0  0  0  0  0  0  0  0  0  0  0  0
    4.2577    0.2548    1.1902 H   0  0  0  0  0  0  0  0  0  0  0  0
    2.9974    0.5938    2.0513 H   0  0  0  0  0  0  0  0  0  0  0  0
    2.9974   -1.1338    1.7895 H   0  0  0  0  0  0  0  0  0  0  0  0
    4.3078   -0.1566    1.1723 H   0  0  0  0  0  0  0  0  0  0  0  0
  4 18  1  0  0  0  0
  5 19  1  0  0  0  0
  6 18  2  0  0  0  0
  7 19  2  0  0  0  0
  8 10  1  0  0  0  0
  8 20  1  0  0  0  0
  8 21  1  0  0  0  0
  9 22  1  0  0  0  0
  9 23  1  0  0  0  0
  9 24  1  0  0  0  0
 10 11  1  0  0  0  0
 10 12  1  0  0  0  0
 10 25  1  0  0  0  0
 11 13  1  0  0  0  0
 11 26  1  0  0  0  0
 11 27  1  0  0  0  0
 12 14  1  0  0  0  0
 12 28  1  0  0  0  0
 12 29  1  0  0  0  0
 13 15  1  0  0  0  0
 13 30  1  0  0  0  0
 13 31  1  0  0  0  0
 14 15  1  0  0  0  0
 14 32  1  0  0  0  0
 14 33  1  0  0  0  0
 15 34  1  0  0  0  0
 15 35  1  0  0  0  0
 16 18  1  0  0  0  0
 16 36  1  0  0  0  0
 16 37  1  0  0  0  0
 16 38  1  0  0  0  0
 17 19  1  0  0  0  0
 17 39  1  0  0  0  0
 17 40  1  0  0  0  0
 17 41  1  0  0  0  0
M  CHG  5   1   4   2  -1   3  -1   4  -1   5  -1
M  END
>  <DRUGBANK_ID>
DB04996

>  <COMMON_NAME>
Satraplatin

>  <CAS_NUMBER>
129580-63-8

>  <UNII>
8D7B37T28G

>  <SYNONYMS>
Satraplatin

$$$$
