
 OpenBabel10282417123D

135138  0  0  0  0  0  0  0  0999 V2000
    6.8707   11.9757    7.2183 C   0  0  0  0  0  0  0  0  0  0  0  0
    5.9338   10.9976    6.3208 C   0  0  1  0  0  0  0  0  0  0  0  0
    6.6066    9.7774    5.6606 C   0  0  1  0  0  0  0  0  0  0  0  0
    5.9001    9.1937    5.0546 H   0  0  0  0  0  0  0  0  0  0  0  0
    7.6884   10.2361    4.6559 C   0  0  2  0  0  0  0  0  0  0  0  0
    7.9207   11.7977    4.5823 C   0  0  0  0  0  0  0  0  0  0  0  0
    7.7846    9.7416    3.2156 C   0  0  0  0  0  0  0  0  0  0  0  0
    9.0960   10.2482    2.5623 C   0  0  0  0  0  0  0  0  0  0  0  0
   10.4090    9.7930    3.1062 C   0  0  0  0  0  0  0  0  0  0  0  0
   11.2614    9.4614    2.2790 O   0  0  0  0  0  0  0  0  0  0  0  0
   10.6703    9.7832    4.4637 N   0  0  0  0  0  0  0  0  0  0  0  0
   10.3359   10.7552    5.4787 C   0  0  0  0  0  0  0  0  0  0  0  0
    9.5926   10.1433    6.6510 C   0  0  0  0  0  0  0  0  0  0  0  0
   10.3507    9.8941    7.8686 C   0  0  0  0  0  0  0  0  0  0  0  0
   10.9671   10.8802    8.5855 N   0  0  0  0  0  0  0  0  0  0  0  0
   11.4858   10.4089    9.7861 C   0  0  0  0  0  0  0  0  0  0  0  0
   12.1882   11.1466   10.3949 O   0  0  0  0  0  0  0  0  0  0  0  0
   11.0832    8.9083   10.2061 C   0  0  2  0  0  0  0  0  0  0  0  0
   11.9623    8.7245   11.3496 O   0  0  0  0  0  0  0  0  0  0  0  0
   11.3865    7.6827    9.2587 C   0  0  1  0  0  0  0  0  0  0  0  0
   11.0299    6.4960    9.9858 O   0  0  0  0  0  0  0  0  0  0  0  0
   11.0792    7.2867    7.7846 C   0  0  2  0  0  0  0  0  0  0  0  0
    9.8912    6.5007    7.5431 O   0  0  0  0  0  0  0  0  0  0  0  0
   12.4991    6.8953    7.1715 C   0  0  2  0  0  0  0  0  0  0  0  0
   13.3145    6.1452    8.0663 O   0  0  0  0  0  0  0  0  0  0  0  0
   13.5842    8.1822    6.7489 C   0  0  0  0  0  0  0  0  0  0  0  0
   14.6105    7.7979    5.8342 O   0  0  0  0  0  0  0  0  0  0  0  0
   11.8124    9.1354    4.8428 C   0  0  0  0  0  0  0  0  0  0  0  0
   11.6517    7.6902    4.8080 C   0  0  0  0  0  0  0  0  0  0  0  0
   11.8571    7.2102    3.4905 C   0  0  0  0  0  0  0  0  0  0  0  0
   13.0608    7.4793    2.8250 N   0  0  0  0  0  0  0  0  0  0  0  0
   13.8551    6.4903    2.3256 C   0  0  0  0  0  0  0  0  0  0  0  0
   14.9321    6.8298    1.8447 O   0  0  0  0  0  0  0  0  0  0  0  0
   13.3874    4.9858    2.4668 C   0  0  2  0  0  0  0  0  0  0  0  0
   14.3905    4.1652    1.8482 O   0  0  0  0  0  0  0  0  0  0  0  0
   12.0164    4.5836    1.8166 C   0  0  1  0  0  0  0  0  0  0  0  0
   11.8845    3.1673    1.9081 O   0  0  0  0  0  0  0  0  0  0  0  0
   10.7139    5.1500    2.4148 C   0  0  2  0  0  0  0  0  0  0  0  0
   10.5052    4.9419    3.8215 O   0  0  0  0  0  0  0  0  0  0  0  0
    9.3537    5.1978    1.7771 C   0  0  2  0  0  0  0  0  0  0  0  0
    8.4179    4.3032    2.3747 O   0  0  0  0  0  0  0  0  0  0  0  0
    9.5431    4.8836    0.3220 C   0  0  0  0  0  0  0  0  0  0  0  0
    8.2689    4.7864   -0.2668 O   0  0  0  0  0  0  0  0  0  0  0  0
    6.8602    8.8059    6.9014 C   0  0  0  0  0  0  0  0  0  0  0  0
    5.9106    9.2663    8.0118 C   0  0  0  0  0  0  0  0  0  0  0  0
    5.0155   10.2535    7.2922 C   0  0  1  0  0  0  0  0  0  0  0  0
    4.2997    9.6316    6.7400 H   0  0  0  0  0  0  0  0  0  0  0  0
    4.2461   11.2722    8.1042 C   0  0  2  0  0  0  0  0  0  0  0  0
    4.9311   11.9367    8.6405 H   0  0  0  0  0  0  0  0  0  0  0  0
    3.4342   10.5581    9.1628 C   0  0  0  0  0  0  0  0  0  0  0  0
    2.5227   11.5305    9.8820 C   0  0  0  0  0  0  0  0  0  0  0  0
    1.6406   12.3473    8.9223 C   0  0  2  0  0  0  0  0  0  0  0  0
    1.1160   13.0964    9.5273 H   0  0  0  0  0  0  0  0  0  0  0  0
    0.5678   11.4324    8.3010 C   0  0  0  0  0  0  0  0  0  0  0  0
   -0.3407   12.1905    7.3414 C   0  0  2  0  0  0  0  0  0  0  0  0
   -1.3041   11.3028    6.7906 O   0  0  0  0  0  0  0  0  0  0  0  0
    0.4694   12.8441    6.2299 C   0  0  0  0  0  0  0  0  0  0  0  0
    1.4998   13.7956    6.8328 C   0  0  0  0  0  0  0  0  0  0  0  0
    2.4646   13.1102    7.8411 C   0  0  1  0  0  0  0  0  0  0  0  0
    3.3001   14.2270    8.5124 C   0  0  0  0  0  0  0  0  0  0  0  0
    3.3779   12.1011    7.1139 C   0  0  1  0  0  0  0  0  0  0  0  0
    2.7415   11.3673    6.6074 H   0  0  0  0  0  0  0  0  0  0  0  0
    4.1953   12.7618    5.9905 C   0  0  0  0  0  0  0  0  0  0  0  0
    5.0495   11.7537    5.2754 C   0  0  2  0  0  0  0  0  0  0  0  0
    4.2824   10.8734    4.4584 O   0  0  0  0  0  0  0  0  0  0  0  0
    7.2695   11.4884    8.1127 H   0  0  0  0  0  0  0  0  0  0  0  0
    7.7593   12.4262    6.7857 H   0  0  0  0  0  0  0  0  0  0  0  0
    6.3498   12.8720    7.5509 H   0  0  0  0  0  0  0  0  0  0  0  0
    8.4683    9.5697    4.9526 H   0  0  0  0  0  0  0  0  0  0  0  0
    8.0469   12.2112    3.5904 H   0  0  0  0  0  0  0  0  0  0  0  0
    7.1367   12.3981    4.9514 H   0  0  0  0  0  0  0  0  0  0  0  0
    8.6562   12.2765    5.2303 H   0  0  0  0  0  0  0  0  0  0  0  0
    7.7638    8.6425    3.1827 H   0  0  0  0  0  0  0  0  0  0  0  0
    6.9327   10.1279    2.6589 H   0  0  0  0  0  0  0  0  0  0  0  0
    9.0832    9.9251    1.5181 H   0  0  0  0  0  0  0  0  0  0  0  0
    9.2357   11.3271    2.5345 H   0  0  0  0  0  0  0  0  0  0  0  0
   11.1534   11.3658    5.8583 H   0  0  0  0  0  0  0  0  0  0  0  0
    9.9045   11.4179    4.8009 H   0  0  0  0  0  0  0  0  0  0  0  0
    8.7627   10.7145    7.0075 H   0  0  0  0  0  0  0  0  0  0  0  0
    9.2748    9.1197    6.4010 H   0  0  0  0  0  0  0  0  0  0  0  0
    9.6883    9.2869    8.5068 H   0  0  0  0  0  0  0  0  0  0  0  0
   11.2719    9.4198    7.5976 H   0  0  0  0  0  0  0  0  0  0  0  0
   11.6915   11.3998    8.0932 H   0  0  0  0  0  0  0  0  0  0  0  0
   10.0565    8.8800   10.5848 H   0  0  0  0  0  0  0  0  0  0  0  0
   11.8887    7.8073   11.6554 H   0  0  0  0  0  0  0  0  0  0  0  0
   12.4686    7.8002    9.2356 H   0  0  0  0  0  0  0  0  0  0  0  0
   11.8707    6.1011   10.2701 H   0  0  0  0  0  0  0  0  0  0  0  0
   10.7691    7.9847    7.0457 H   0  0  0  0  0  0  0  0  0  0  0  0
    9.8409    5.6999    8.0825 H   0  0  0  0  0  0  0  0  0  0  0  0
   12.2505    6.1140    6.4382 H   0  0  0  0  0  0  0  0  0  0  0  0
   14.1576    6.6350    8.0749 H   0  0  0  0  0  0  0  0  0  0  0  0
   13.3536    9.1165    6.2596 H   0  0  0  0  0  0  0  0  0  0  0  0
   13.9737    8.6623    7.6421 H   0  0  0  0  0  0  0  0  0  0  0  0
   14.8827    6.8807    5.9480 H   0  0  0  0  0  0  0  0  0  0  0  0
   12.6697    9.5311    4.3108 H   0  0  0  0  0  0  0  0  0  0  0  0
   11.8598    9.4174    5.8678 H   0  0  0  0  0  0  0  0  0  0  0  0
   12.5189    7.2122    5.1831 H   0  0  0  0  0  0  0  0  0  0  0  0
   10.7073    7.2685    5.1910 H   0  0  0  0  0  0  0  0  0  0  0  0
   12.0136    6.1953    3.7656 H   0  0  0  0  0  0  0  0  0  0  0  0
   10.9229    7.4771    3.0113 H   0  0  0  0  0  0  0  0  0  0  0  0
   13.3930    8.4349    2.7565 H   0  0  0  0  0  0  0  0  0  0  0  0
   13.4035    4.6999    3.5266 H   0  0  0  0  0  0  0  0  0  0  0  0
   13.9350    3.3760    1.5196 H   0  0  0  0  0  0  0  0  0  0  0  0
   12.0935    4.8976    0.7662 H   0  0  0  0  0  0  0  0  0  0  0  0
   12.1440    2.7819    1.0570 H   0  0  0  0  0  0  0  0  0  0  0  0
   10.9246    6.1515    2.0822 H   0  0  0  0  0  0  0  0  0  0  0  0
   11.2984    4.5641    4.2451 H   0  0  0  0  0  0  0  0  0  0  0  0
    8.9250    6.2123    1.9095 H   0  0  0  0  0  0  0  0  0  0  0  0
    7.9801    4.8174    3.0817 H   0  0  0  0  0  0  0  0  0  0  0  0
   10.1590    5.6445   -0.1744 H   0  0  0  0  0  0  0  0  0  0  0  0
   10.0305    3.9102    0.2381 H   0  0  0  0  0  0  0  0  0  0  0  0
    7.7947    4.2016    0.3618 H   0  0  0  0  0  0  0  0  0  0  0  0
    7.8106    8.8092    7.4162 H   0  0  0  0  0  0  0  0  0  0  0  0
    6.7072    7.7541    6.6310 H   0  0  0  0  0  0  0  0  0  0  0  0
    6.4750    9.7426    8.8253 H   0  0  0  0  0  0  0  0  0  0  0  0
    5.3702    8.4293    8.4608 H   0  0  0  0  0  0  0  0  0  0  0  0
    4.1093   10.0900    9.8899 H   0  0  0  0  0  0  0  0  0  0  0  0
    2.8630    9.7466    8.7008 H   0  0  0  0  0  0  0  0  0  0  0  0
    3.1368   12.2072   10.4872 H   0  0  0  0  0  0  0  0  0  0  0  0
    1.9004   10.9669   10.5830 H   0  0  0  0  0  0  0  0  0  0  0  0
   -0.0363   10.9785    9.0947 H   0  0  0  0  0  0  0  0  0  0  0  0
    1.0188   10.5860    7.7676 H   0  0  0  0  0  0  0  0  0  0  0  0
   -0.8877   12.9649    7.8903 H   0  0  0  0  0  0  0  0  0  0  0  0
   -0.8371   10.5418    6.4068 H   0  0  0  0  0  0  0  0  0  0  0  0
    0.9448   12.0806    5.6001 H   0  0  0  0  0  0  0  0  0  0  0  0
   -0.1960   13.3952    5.5562 H   0  0  0  0  0  0  0  0  0  0  0  0
    2.0467   14.2925    6.0247 H   0  0  0  0  0  0  0  0  0  0  0  0
    0.9656   14.6003    7.3502 H   0  0  0  0  0  0  0  0  0  0  0  0
    4.0184   13.8399    9.2403 H   0  0  0  0  0  0  0  0  0  0  0  0
    3.8660   14.8145    7.7822 H   0  0  0  0  0  0  0  0  0  0  0  0
    2.6457   14.9256    9.0419 H   0  0  0  0  0  0  0  0  0  0  0  0
    3.5557   13.2176    5.2335 H   0  0  0  0  0  0  0  0  0  0  0  0
    4.8392   13.5591    6.3750 H   0  0  0  0  0  0  0  0  0  0  0  0
    5.5588   12.3303    4.5089 H   0  0  0  0  0  0  0  0  0  0  0  0
    3.6334   10.4127    5.0052 H   0  0  0  0  0  0  0  0  0  0  0  0
  1 66  1  0  0  0  0
  1 67  1  0  0  0  0
  1 68  1  0  0  0  0
  2  1  1  1  0  0  0
  2  3  1  0  0  0  0
  2 46  1  0  0  0  0
  2 64  1  0  0  0  0
  3  4  1  6  0  0  0
  3 44  1  0  0  0  0
  5  7  1  0  0  0  0
  5 69  1  1  0  0  0
  5  6  1  0  0  0  0
  5  3  1  0  0  0  0
  6 70  1  0  0  0  0
  6 71  1  0  0  0  0
  6 72  1  0  0  0  0
  7  8  1  0  0  0  0
  7 73  1  0  0  0  0
  7 74  1  0  0  0  0
  8  9  1  0  0  0  0
  8 75  1  0  0  0  0
  8 76  1  0  0  0  0
  9 10  2  0  0  0  0
  9 11  1  0  0  0  0
 11 12  1  0  0  0  0
 11 28  1  0  0  0  0
 12 13  1  0  0  0  0
 12 77  1  0  0  0  0
 12 78  1  0  0  0  0
 13 14  1  0  0  0  0
 13 79  1  0  0  0  0
 13 80  1  0  0  0  0
 14 15  1  0  0  0  0
 14 81  1  0  0  0  0
 14 82  1  0  0  0  0
 15 16  1  0  0  0  0
 15 83  1  0  0  0  0
 16 17  2  0  0  0  0
 18 20  1  0  0  0  0
 18 84  1  1  0  0  0
 18 19  1  0  0  0  0
 18 16  1  0  0  0  0
 19 85  1  0  0  0  0
 20 21  1  0  0  0  0
 20 86  1  1  0  0  0
 21 87  1  0  0  0  0
 22 88  1  6  0  0  0
 22 23  1  0  0  0  0
 22 20  1  0  0  0  0
 23 89  1  0  0  0  0
 24 26  1  0  0  0  0
 24 90  1  6  0  0  0
 24 25  1  0  0  0  0
 24 22  1  0  0  0  0
 25 91  1  0  0  0  0
 26 27  1  0  0  0  0
 26 92  1  0  0  0  0
 26 93  1  0  0  0  0
 27 94  1  0  0  0  0
 28 29  1  0  0  0  0
 28 95  1  0  0  0  0
 28 96  1  0  0  0  0
 29 30  1  0  0  0  0
 29 97  1  0  0  0  0
 29 98  1  0  0  0  0
 30 31  1  0  0  0  0
 30 99  1  0  0  0  0
 30100  1  0  0  0  0
 31 32  1  0  0  0  0
 31101  1  0  0  0  0
 32 33  2  0  0  0  0
 34 36  1  0  0  0  0
 34102  1  1  0  0  0
 34 35  1  0  0  0  0
 34 32  1  0  0  0  0
 35103  1  0  0  0  0
 36 37  1  0  0  0  0
 36104  1  6  0  0  0
 37105  1  0  0  0  0
 38106  1  1  0  0  0
 38 39  1  0  0  0  0
 38 36  1  0  0  0  0
 39107  1  0  0  0  0
 40 42  1  0  0  0  0
 40108  1  1  0  0  0
 40 41  1  0  0  0  0
 40 38  1  0  0  0  0
 41109  1  0  0  0  0
 42 43  1  0  0  0  0
 42110  1  0  0  0  0
 42111  1  0  0  0  0
 43112  1  0  0  0  0
 44113  1  0  0  0  0
 44114  1  0  0  0  0
 45 44  1  0  0  0  0
 45115  1  0  0  0  0
 45116  1  0  0  0  0
 46 45  1  0  0  0  0
 46 47  1  6  0  0  0
 46 48  1  0  0  0  0
 48 49  1  1  0  0  0
 48 50  1  0  0  0  0
 48 61  1  0  0  0  0
 50 51  1  0  0  0  0
 50117  1  0  0  0  0
 50118  1  0  0  0  0
 51 52  1  0  0  0  0
 51119  1  0  0  0  0
 51120  1  0  0  0  0
 52 53  1  1  0  0  0
 52 54  1  0  0  0  0
 54 55  1  0  0  0  0
 54121  1  0  0  0  0
 54122  1  0  0  0  0
 55 56  1  0  0  0  0
 55123  1  1  0  0  0
 56124  1  0  0  0  0
 57 55  1  0  0  0  0
 57125  1  0  0  0  0
 57126  1  0  0  0  0
 58 57  1  0  0  0  0
 58127  1  0  0  0  0
 58128  1  0  0  0  0
 59 58  1  0  0  0  0
 59 52  1  0  0  0  0
 59 60  1  1  0  0  0
 60129  1  0  0  0  0
 60130  1  0  0  0  0
 60131  1  0  0  0  0
 61 59  1  0  0  0  0
 61 62  1  6  0  0  0
 63 61  1  0  0  0  0
 63132  1  0  0  0  0
 63133  1  0  0  0  0
 64 63  1  0  0  0  0
 64 65  1  0  0  0  0
 64134  1  6  0  0  0
 65135  1  0  0  0  0
M  END
>  <DRUGBANK_ID>
DB01890

>  <SECONDARY_ACCESSION_NUMBERS>
EXPT01003

>  <COMMON_NAME>
N,N-Bis(3-(D-gluconamido)propyl)deoxycholamide

>  <CAS_NUMBER>
86303-23-3

>  <UNII>
8A64ND3B39

>  <SYNONYMS>
D-Gluconamide, N,N'-((((3alpha,5beta,12alpha)-3,12-dihydroxy-24-oxocholan-24-yl)imino)di-3,1-propanediyl)bis-; Deoxy-bigchap; N,N-Bis(3-(D-gluconamido)propyl)deoxycholamide; N,N'-((((3alpha,5beta,12alpha)-3,12-Dihydroxy-24-oxocholan-24-yl)imino)di-3,1-propandiyl)bis-D-gluconamide

$$$$
