MSR
 OpenBabel10282417173D

 20 21  0  0  0  0  0  0  0  0999 V2000
   -1.2260   -1.1957    0.0603 C   0  0  0  0  0  0  0  0  0  0  0  0
    0.1723   -1.2218    0.0409 C   0  0  0  0  0  0  0  0  0  0  0  0
    0.8810   -0.0217    0.0117 C   0  0  0  0  0  0  0  0  0  0  0  0
    2.2444    0.0072    0.0058 O   0  0  0  0  0  0  0  0  0  0  0  0
    0.2167    1.2005   -0.0157 C   0  0  0  0  0  0  0  0  0  0  0  0
   -1.1775    1.2352   -0.0489 C   0  0  0  0  0  0  0  0  0  0  0  0
   -1.8926    0.0332   -0.0012 C   0  0  0  0  0  0  0  0  0  0  0  0
   -3.2988    0.0673   -0.0239 N   0  0  0  0  0  0  0  0  0  0  0  0
   -4.1528   -0.5210    0.8773 C   0  0  0  0  0  0  0  0  0  0  0  0
   -5.4190   -0.1800    0.4576 C   0  0  0  0  0  0  0  0  0  0  0  0
   -5.3673    0.5616   -0.6939 N   0  0  0  0  0  0  0  0  0  0  0  0
   -4.0875    0.7017   -0.9523 C   0  0  0  0  0  0  0  0  0  0  0  0
   -1.7783   -2.1333    0.0597 H   0  0  0  0  0  0  0  0  0  0  0  0
    0.6874   -2.1775    0.0435 H   0  0  0  0  0  0  0  0  0  0  0  0
    2.5838   -0.9022   -0.0147 H   0  0  0  0  0  0  0  0  0  0  0  0
    0.7880    2.1252   -0.0085 H   0  0  0  0  0  0  0  0  0  0  0  0
   -1.6845    2.1968   -0.0519 H   0  0  0  0  0  0  0  0  0  0  0  0
   -3.7999   -1.0467    1.7525 H   0  0  0  0  0  0  0  0  0  0  0  0
   -6.3634   -0.4185    0.9292 H   0  0  0  0  0  0  0  0  0  0  0  0
   -3.6716    1.2019   -1.8192 H   0  0  0  0  0  0  0  0  0  0  0  0
  1  2  2  0  0  0  0
  1  7  1  0  0  0  0
  1 13  1  0  0  0  0
  2  3  1  0  0  0  0
  2 14  1  0  0  0  0
  3  4  1  0  0  0  0
  3  5  2  0  0  0  0
  4 15  1  0  0  0  0
  5  6  1  0  0  0  0
  5 16  1  0  0  0  0
  6  7  2  0  0  0  0
  6 17  1  0  0  0  0
  7  8  1  0  0  0  0
  8  9  1  0  0  0  0
  8 12  1  0  0  0  0
  9 10  2  0  0  0  0
  9 18  1  0  0  0  0
 10 11  1  0  0  0  0
 10 19  1  0  0  0  0
 11 12  2  0  0  0  0
 12 20  1  0  0  0  0
M  END
>  <DRUGBANK_ID>
DB08214

>  <COMMON_NAME>
4-(1H-IMIDAZOL-1-YL)PHENOL

$$$$
