
 OpenBabel10282417233D

 39 40  0  0  1  0  0  0  0  0999 V2000
    1.0642    0.4891   -0.2052 C   0  0  0  0  0  0  0  0  0  0  0  0
    1.7832   -3.6550   -3.9659 C   0  0  0  0  0  0  0  0  0  0  0  0
    1.0518   -3.8121   -2.8410 C   0  0  0  0  0  0  0  0  0  0  0  0
    2.0010   -2.3498   -4.4320 C   0  0  0  0  0  0  0  0  0  0  0  0
    0.3592   -2.6773   -2.4571 C   0  0  0  0  0  0  0  0  0  0  0  0
    1.6817   -1.1941   -3.6728 C   0  0  0  0  0  0  0  0  0  0  0  0
    0.3405   -4.0450    2.0583 C   0  0  0  0  0  0  0  0  0  0  0  0
    1.0686   -5.1559    2.5016 C   0  0  0  0  0  0  0  0  0  0  0  0
   -1.4519   -3.0409    0.5705 C   0  0  0  0  0  0  0  0  0  0  0  0
   -1.2486   -5.4899    0.9648 C   0  0  0  0  0  0  0  0  0  0  0  0
    0.7046   -2.0545   -0.1166 C   0  0  0  0  0  0  0  0  0  0  0  0
    0.4529   -0.0003   -1.6688 C   0  0  1  0  0  0  0  0  0  0  0  0
   -0.7828   -4.1944    1.2262 C   0  0  0  0  0  0  0  0  0  0  0  0
    0.8328   -1.3133   -2.5974 C   0  0  0  0  0  0  0  0  0  0  0  0
   -0.8154   -2.0545   -0.1166 C   0  0  0  0  0  0  0  0  0  0  0  0
    0.6426   -6.4298    2.1550 C   0  0  0  0  0  0  0  0  0  0  0  0
   -0.5127   -6.5915    1.3959 C   0  0  0  0  0  0  0  0  0  0  0  0
   -1.5121   -0.9052   -0.8077 C   0  0  0  0  0  0  0  0  0  0  0  0
    1.9656   -2.0545   -0.1166 N   0  0  0  0  0  0  0  0  0  0  0  0
   -1.0098    0.0369   -1.4766 N   0  0  0  0  0  0  0  0  0  0  0  0
    1.3264   -7.5457    2.5471 O   0  0  0  0  0  0  0  0  0  0  0  0
   -0.9262   -7.8380    1.0173 O   0  0  0  0  0  0  0  0  0  0  0  0
   -2.8660   -0.8954   -0.7380 O   0  0  0  0  0  0  0  0  0  0  0  0
   -2.5330   -3.1106    0.6174 H   0  0  0  0  0  0  0  0  0  0  0  0
    0.7448    0.8569   -2.2815 H   0  0  0  0  0  0  0  0  0  0  0  0
    0.6813   -0.0351    0.6939 H   0  0  0  0  0  0  0  0  0  0  0  0
    0.7425    1.5043    0.0573 H   0  0  0  0  0  0  0  0  0  0  0  0
    2.1578    0.4410   -0.1504 H   0  0  0  0  0  0  0  0  0  0  0  0
    2.0799   -4.5485   -4.5004 H   0  0  0  0  0  0  0  0  0  0  0  0
    0.8720   -4.7715   -2.3525 H   0  0  0  0  0  0  0  0  0  0  0  0
    2.4089   -2.2330   -5.4254 H   0  0  0  0  0  0  0  0  0  0  0  0
   -0.4990   -3.0227   -1.9069 H   0  0  0  0  0  0  0  0  0  0  0  0
    2.0255   -0.2170   -3.9851 H   0  0  0  0  0  0  0  0  0  0  0  0
    0.6998   -3.0582    2.3448 H   0  0  0  0  0  0  0  0  0  0  0  0
    1.9725   -4.9951    3.0816 H   0  0  0  0  0  0  0  0  0  0  0  0
   -2.1573   -5.6650    0.3959 H   0  0  0  0  0  0  0  0  0  0  0  0
    2.0546   -7.2660    3.1305 H   0  0  0  0  0  0  0  0  0  0  0  0
   -0.2180   -8.4454    1.3107 H   0  0  0  0  0  0  0  0  0  0  0  0
   -3.3006   -1.6592   -0.3596 H   0  0  0  0  0  0  0  0  0  0  0  0
  1 26  1  0  0  0  0
  1 27  1  0  0  0  0
  1 28  1  0  0  0  0
  2 29  1  0  0  0  0
  3  2  2  0  0  0  0
  3 30  1  0  0  0  0
  4  2  1  0  0  0  0
  4 31  1  0  0  0  0
  5  3  1  0  0  0  0
  5 32  1  0  0  0  0
  6  4  2  0  0  0  0
  6 33  1  0  0  0  0
  7 34  1  0  0  0  0
  8  7  2  0  0  0  0
  8 35  1  0  0  0  0
 10 36  1  0  0  0  0
 12  1  1  0  0  0  0
 12 14  1  0  0  0  0
 12 20  1  0  0  0  0
 12 25  1  6  0  0  0
 13  7  1  0  0  0  0
 13  9  1  0  0  0  0
 13 10  2  0  0  0  0
 14  5  2  0  0  0  0
 14  6  1  0  0  0  0
 15  9  2  0  0  0  0
 15 11  1  0  0  0  0
 16  8  1  0  0  0  0
 17 10  1  0  0  0  0
 17 16  2  0  0  0  0
 18 15  1  0  0  0  0
 18 23  1  0  0  0  0
 19 11  3  0  0  0  0
 20 18  2  3  0  0  0
 21 16  1  0  0  0  0
 21 37  1  0  0  0  0
 22 17  1  0  0  0  0
 22 38  1  0  0  0  0
 23 39  1  0  0  0  0
 24  9  1  0  0  0  0
M  END
>  <DRUGBANK_ID>
DB16763

>  <COMMON_NAME>
Tyrphostin AG 835

>  <CAS_NUMBER>
133550-37-5

>  <SYNONYMS>
Tyrphostin Ag-835; Tyrphostin B44, (+) enantiomer; Tyrphostin B50

$$$$
