P01
 OpenBabel10282417143D

 52 54  0  0  0  0  0  0  0  0999 V2000
   12.9034   -8.0508   -1.2339 Cl  0  0  0  0  0  0  0  0  0  0  0  0
   12.3667   -6.4200   -1.0915 C   0  0  0  0  0  0  0  0  0  0  0  0
   11.0345   -6.1499   -0.7529 C   0  0  0  0  0  0  0  0  0  0  0  0
   10.5943   -4.8261   -0.6311 C   0  0  0  0  0  0  0  0  0  0  0  0
   11.5301   -3.8004   -0.8533 C   0  0  0  0  0  0  0  0  0  0  0  0
   12.8529   -4.0701   -1.1989 C   0  0  0  0  0  0  0  0  0  0  0  0
   13.2725   -5.3866   -1.3270 C   0  0  0  0  0  0  0  0  0  0  0  0
    9.2231   -4.5402   -0.4030 N   0  0  0  0  0  0  0  0  0  0  0  0
    8.7368   -3.2322   -0.1910 C   0  0  0  0  0  0  0  0  0  0  0  0
    8.2089   -2.7955    1.0340 C   0  0  0  0  0  0  0  0  0  0  0  0
    7.9949   -3.4256    2.2476 N   0  0  0  0  0  0  0  0  0  0  0  0
    7.8795   -1.4553    1.1125 C   0  0  0  0  0  0  0  0  0  0  0  0
    7.4009   -1.2812    2.3856 N   0  0  0  0  0  0  0  0  0  0  0  0
    6.8483   -0.0612    2.9587 C   0  0  0  0  0  0  0  0  0  0  0  0
    7.8665    1.0772    2.9685 C   0  0  0  0  0  0  0  0  0  0  0  0
    5.5565    0.3566    2.2549 C   0  0  0  0  0  0  0  0  0  0  0  0
    7.5299   -2.4811    3.0392 C   0  0  0  0  0  0  0  0  0  0  0  0
    8.0143   -0.5239    0.1472 N   0  0  0  0  0  0  0  0  0  0  0  0
    8.5089   -1.0202   -0.9936 C   0  0  0  0  0  0  0  0  0  0  0  0
    8.8500   -2.3045   -1.1931 N   0  0  0  0  0  0  0  0  0  0  0  0
    8.6438   -0.2201   -2.1126 N   0  0  0  0  0  0  0  0  0  0  0  0
    8.0463    1.1113   -2.2542 C   0  0  2  0  0  0  0  0  0  0  0  0
    6.4703    1.1178   -2.2198 C   0  0  0  0  0  0  0  0  0  0  0  0
    5.7600    1.9489   -3.3021 C   0  0  0  0  0  0  0  0  0  0  0  0
    5.8196   -0.2684   -2.2774 C   0  0  0  0  0  0  0  0  0  0  0  0
    8.6586    1.8020   -3.5104 C   0  0  0  0  0  0  0  0  0  0  0  0
    8.5459    3.2249   -3.4806 O   0  0  0  0  0  0  0  0  0  0  0  0
    8.3898    1.7135   -1.4007 H   0  0  0  0  0  0  0  0  0  0  0  0
   10.3471   -6.9762   -0.5950 H   0  0  0  0  0  0  0  0  0  0  0  0
   11.2414   -2.7570   -0.7607 H   0  0  0  0  0  0  0  0  0  0  0  0
   13.5375   -3.2455   -1.3765 H   0  0  0  0  0  0  0  0  0  0  0  0
   14.2990   -5.5962   -1.6129 H   0  0  0  0  0  0  0  0  0  0  0  0
    8.7732   -5.2167    0.2073 H   0  0  0  0  0  0  0  0  0  0  0  0
    6.5966   -0.2920    4.0032 H   0  0  0  0  0  0  0  0  0  0  0  0
    8.1771    1.3503    1.9556 H   0  0  0  0  0  0  0  0  0  0  0  0
    7.4454    1.9728    3.4367 H   0  0  0  0  0  0  0  0  0  0  0  0
    8.7641    0.7907    3.5268 H   0  0  0  0  0  0  0  0  0  0  0  0
    4.8052   -0.4388    2.3116 H   0  0  0  0  0  0  0  0  0  0  0  0
    5.1327    1.2542    2.7176 H   0  0  0  0  0  0  0  0  0  0  0  0
    5.7275    0.5765    1.1964 H   0  0  0  0  0  0  0  0  0  0  0  0
    7.2680   -2.6074    4.0844 H   0  0  0  0  0  0  0  0  0  0  0  0
    8.7930   -0.7900   -2.9357 H   0  0  0  0  0  0  0  0  0  0  0  0
    6.1916    1.5688   -1.2561 H   0  0  0  0  0  0  0  0  0  0  0  0
    6.0696    1.6486   -4.3083 H   0  0  0  0  0  0  0  0  0  0  0  0
    4.6742    1.8083   -3.2566 H   0  0  0  0  0  0  0  0  0  0  0  0
    5.9139    3.0204   -3.1669 H   0  0  0  0  0  0  0  0  0  0  0  0
    6.0635   -0.8854   -1.4145 H   0  0  0  0  0  0  0  0  0  0  0  0
    4.7286   -0.1871   -2.2652 H   0  0  0  0  0  0  0  0  0  0  0  0
    6.1177   -0.7929   -3.1902 H   0  0  0  0  0  0  0  0  0  0  0  0
    9.7329    1.5997   -3.5681 H   0  0  0  0  0  0  0  0  0  0  0  0
    8.2277    1.4151   -4.4412 H   0  0  0  0  0  0  0  0  0  0  0  0
    7.6399    3.4807   -3.7103 H   0  0  0  0  0  0  0  0  0  0  0  0
  1  2  1  0  0  0  0
  2  3  2  0  0  0  0
  2  7  1  0  0  0  0
  3  4  1  0  0  0  0
  3 29  1  0  0  0  0
  4  5  2  0  0  0  0
  4  8  1  0  0  0  0
  5  6  1  0  0  0  0
  5 30  1  0  0  0  0
  6  7  2  0  0  0  0
  6 31  1  0  0  0  0
  7 32  1  0  0  0  0
  8  9  1  0  0  0  0
  8 33  1  0  0  0  0
  9 10  2  0  0  0  0
  9 20  1  0  0  0  0
 10 11  1  0  0  0  0
 10 12  1  0  0  0  0
 11 17  2  0  0  0  0
 12 13  1  0  0  0  0
 12 18  2  0  0  0  0
 13 14  1  0  0  0  0
 13 17  1  0  0  0  0
 14 15  1  0  0  0  0
 14 16  1  0  0  0  0
 14 34  1  0  0  0  0
 15 35  1  0  0  0  0
 15 36  1  0  0  0  0
 15 37  1  0  0  0  0
 16 38  1  0  0  0  0
 16 39  1  0  0  0  0
 16 40  1  0  0  0  0
 17 41  1  0  0  0  0
 18 19  1  0  0  0  0
 19 20  2  0  0  0  0
 19 21  1  0  0  0  0
 21 42  1  0  0  0  0
 22 26  1  0  0  0  0
 22 28  1  1  0  0  0
 22 23  1  0  0  0  0
 22 21  1  0  0  0  0
 23 24  1  0  0  0  0
 23 25  1  0  0  0  0
 23 43  1  0  0  0  0
 24 44  1  0  0  0  0
 24 45  1  0  0  0  0
 24 46  1  0  0  0  0
 25 47  1  0  0  0  0
 25 48  1  0  0  0  0
 25 49  1  0  0  0  0
 26 27  1  0  0  0  0
 26 50  1  0  0  0  0
 26 51  1  0  0  0  0
 27 52  1  0  0  0  0
M  END
>  <DRUGBANK_ID>
DB04751

>  <COMMON_NAME>
Purvalanol A

>  <CAS_NUMBER>
212844-53-6

>  <UNII>
YP483E75C4

>  <SYNONYMS>
2-(1R-Isopropyl-2-hydroxyethylamino)-6-(3-chloroanilino)-9-isopropylpurine; Purv

$$$$
