
 OpenBabel10282417173D

 36 36  0  0  0  0  0  0  0  0999 V2000
   -1.1640    0.6157    0.0165 C   0  0  0  0  0  0  0  0  0  0  0  0
   -0.7534   -0.8071   -0.0060 C   0  0  0  0  0  0  0  0  0  0  0  0
    0.5471   -1.1536    0.0048 C   0  0  0  0  0  0  0  0  0  0  0  0
    1.6076   -0.1122    0.0089 C   0  0  0  0  0  0  0  0  0  0  0  0
    1.2003    1.3275   -0.0630 C   0  0  0  0  0  0  0  0  0  0  0  0
   -0.1057    1.6690   -0.0443 C   0  0  0  0  0  0  0  0  0  0  0  0
    2.7835   -0.4499    0.0614 O   0  0  0  0  0  0  0  0  0  0  0  0
   -2.3522    0.9145    0.0708 O   0  0  0  0  0  0  0  0  0  0  0  0
    0.2702    4.0625   -0.1126 C   0  0  0  0  0  0  0  0  0  0  0  0
   -1.8833   -1.7947   -0.0554 C   0  0  0  0  0  0  0  0  0  0  0  0
    1.0540   -2.5803   -0.0102 C   0  0  0  0  0  0  0  0  0  0  0  0
    0.5401   -3.3769    1.1602 C   0  0  0  0  0  0  0  0  0  0  0  0
   -0.2679   -4.4509    1.0571 C   0  0  0  0  0  0  0  0  0  0  0  0
   -0.8521   -5.1056    2.2753 C   0  0  0  0  0  0  0  0  0  0  0  0
   -0.6921   -5.0130   -0.2738 C   0  0  0  0  0  0  0  0  0  0  0  0
    2.1476    2.3346   -0.1420 O   0  0  0  0  0  0  0  0  0  0  0  0
   -0.6226    2.9590   -0.0781 O   0  0  0  0  0  0  0  0  0  0  0  0
    3.5343    2.0676   -0.1746 C   0  0  0  0  0  0  0  0  0  0  0  0
    0.9017    4.0778    0.7828 H   0  0  0  0  0  0  0  0  0  0  0  0
    0.8600    4.0495   -1.0357 H   0  0  0  0  0  0  0  0  0  0  0  0
   -0.3091    4.9873   -0.1143 H   0  0  0  0  0  0  0  0  0  0  0  0
   -1.8076   -2.3770   -0.9760 H   0  0  0  0  0  0  0  0  0  0  0  0
   -1.8729   -2.4435    0.8222 H   0  0  0  0  0  0  0  0  0  0  0  0
   -2.8804   -1.3522   -0.0636 H   0  0  0  0  0  0  0  0  0  0  0  0
    0.7642   -3.0208   -0.9701 H   0  0  0  0  0  0  0  0  0  0  0  0
    2.1468   -2.6490    0.0078 H   0  0  0  0  0  0  0  0  0  0  0  0
    0.8089   -2.9954    2.1461 H   0  0  0  0  0  0  0  0  0  0  0  0
   -1.9458   -5.0385    2.2539 H   0  0  0  0  0  0  0  0  0  0  0  0
   -0.5638   -6.1592    2.3096 H   0  0  0  0  0  0  0  0  0  0  0  0
   -0.5142   -4.6301    3.2026 H   0  0  0  0  0  0  0  0  0  0  0  0
   -1.2391   -4.2801   -0.8673 H   0  0  0  0  0  0  0  0  0  0  0  0
    0.1820   -5.3216   -0.8539 H   0  0  0  0  0  0  0  0  0  0  0  0
   -1.3611   -5.8688   -0.1632 H   0  0  0  0  0  0  0  0  0  0  0  0
    3.8612    1.5964    0.7552 H   0  0  0  0  0  0  0  0  0  0  0  0
    3.7997    1.4874   -1.0618 H   0  0  0  0  0  0  0  0  0  0  0  0
    4.0416    3.0346   -0.2478 H   0  0  0  0  0  0  0  0  0  0  0  0
  1  2  1  0  0  0  0
  2  3  2  0  0  0  0
  4  3  1  0  0  0  0
  5  4  1  0  0  0  0
  6  1  1  0  0  0  0
  6  5  2  0  0  0  0
  7  4  2  0  0  0  0
  8  1  2  0  0  0  0
  9 17  1  0  0  0  0
  9 19  1  0  0  0  0
  9 20  1  0  0  0  0
  9 21  1  0  0  0  0
 10  2  1  0  0  0  0
 10 22  1  0  0  0  0
 10 23  1  0  0  0  0
 10 24  1  0  0  0  0
 11  3  1  0  0  0  0
 11 25  1  0  0  0  0
 11 26  1  0  0  0  0
 12 11  1  0  0  0  0
 12 27  1  0  0  0  0
 13 12  2  0  0  0  0
 14 13  1  0  0  0  0
 14 28  1  0  0  0  0
 14 29  1  0  0  0  0
 14 30  1  0  0  0  0
 15 13  1  0  0  0  0
 15 31  1  0  0  0  0
 15 32  1  0  0  0  0
 15 33  1  0  0  0  0
 16  5  1  0  0  0  0
 16 18  1  0  0  0  0
 17  6  1  0  0  0  0
 18 34  1  0  0  0  0
 18 35  1  0  0  0  0
 18 36  1  0  0  0  0
M  END
>  <DRUGBANK_ID>
DB08689

>  <COMMON_NAME>
Ubiquinone Q1

>  <CAS_NUMBER>
727-81-1

>  <UNII>
JR17826E4G

>  <SYNONYMS>
Coenzyme Q1; Coenzyme Q5; CoQ1; Ubiquinone 5; Ubiquinone-1

$$$$
