
 OpenBabel10282417233D

 65 68  0  0  1  0  0  0  0  0999 V2000
    2.4926    0.2635    0.8715 H   0  0  0  0  0  0  0  0  0  0  0  0
    2.1275   -0.1203   -0.0963 C   0  0  1  0  0  0  0  0  0  0  0  0
    2.8422   -1.4722   -0.3067 C   0  0  0  0  0  0  0  0  0  0  0  0
    4.0095   -1.2270   -1.2561 C   0  0  0  0  0  0  0  0  0  0  0  0
    4.1840    0.2842   -1.2436 C   0  0  1  0  0  0  0  0  0  0  0  0
    4.6982    0.5251   -0.3005 H   0  0  0  0  0  0  0  0  0  0  0  0
    4.9794    0.9369   -2.3777 C   0  0  2  0  0  0  0  0  0  0  0  0
    4.4950    0.6597   -3.3214 H   0  0  0  0  0  0  0  0  0  0  0  0
    6.4387    0.4487   -2.4373 C   0  0  1  0  0  0  0  0  0  0  0  0
    6.5296   -0.9575   -2.6334 O   0  0  0  0  0  0  0  0  0  0  0  0
    7.2050    1.1370   -3.5670 C   0  0  0  0  0  0  0  0  0  0  0  0
    7.1631    2.6717   -3.4888 C   0  0  2  0  0  0  0  0  0  0  0  0
    7.5884    3.0550   -4.4274 H   0  0  0  0  0  0  0  0  0  0  0  0
    8.0893    3.1629   -2.3583 C   0  0  0  0  0  0  0  0  0  0  0  0
    8.0714    4.6802   -2.2100 C   0  0  2  0  0  0  0  0  0  0  0  0
    8.9015    5.0665   -1.1211 O   0  0  0  0  0  0  0  0  0  0  0  0
    6.6526    5.1867   -1.9869 C   0  0  0  0  0  0  0  0  0  0  0  0
    5.7546    4.7599   -3.1429 C   0  0  0  0  0  0  0  0  0  0  0  0
    5.7039    3.2207   -3.3604 C   0  0  1  0  0  0  0  0  0  0  0  0
    4.9592    2.9879   -4.7024 C   0  0  0  0  0  0  0  0  0  0  0  0
    4.9734    2.4891   -2.1781 C   0  0  1  0  0  0  0  0  0  0  0  0
    5.5616    2.6606   -1.2660 H   0  0  0  0  0  0  0  0  0  0  0  0
    3.5860    3.0942   -1.8418 C   0  0  0  0  0  0  0  0  0  0  0  0
    2.8047    2.2973   -0.7901 C   0  0  0  0  0  0  0  0  0  0  0  0
    2.7318    0.8159   -1.1836 C   0  0  2  0  0  0  0  0  0  0  0  0
    1.9833    0.6915   -2.5282 C   0  0  0  0  0  0  0  0  0  0  0  0
    0.5751   -0.1823   -0.0522 C   0  0  2  0  0  0  0  0  0  0  0  0
    0.0969    0.1076    1.3888 C   0  0  0  0  0  0  0  0  0  0  0  0
   -0.1163   -1.4803   -0.5542 C   0  0  0  0  0  0  0  0  0  0  0  0
    0.2186   -2.0828   -1.9175 C   0  0  0  0  0  0  0  0  0  0  0  0
    0.5602   -3.3947   -1.8826 O   0  0  0  0  0  0  0  0  0  0  0  0
    0.1386   -1.4895   -2.9850 O   0  0  0  0  0  0  0  0  0  0  0  0
    2.2342   -2.2411   -0.7550 H   0  0  0  0  0  0  0  0  0  0  0  0
    3.1650   -1.8932    0.6507 H   0  0  0  0  0  0  0  0  0  0  0  0
    3.7633   -1.5971   -2.2595 H   0  0  0  0  0  0  0  0  0  0  0  0
    4.8927   -1.7703   -0.9125 H   0  0  0  0  0  0  0  0  0  0  0  0
    6.9223    0.6561   -1.4769 H   0  0  0  0  0  0  0  0  0  0  0  0
    6.0697   -1.1818   -3.4597 H   0  0  0  0  0  0  0  0  0  0  0  0
    6.7985    0.8043   -4.5308 H   0  0  0  0  0  0  0  0  0  0  0  0
    8.2435    0.7833   -3.5671 H   0  0  0  0  0  0  0  0  0  0  0  0
    9.1182    2.8337   -2.5501 H   0  0  0  0  0  0  0  0  0  0  0  0
    7.8194    2.7084   -1.3979 H   0  0  0  0  0  0  0  0  0  0  0  0
    8.4864    5.1440   -3.1122 H   0  0  0  0  0  0  0  0  0  0  0  0
    8.6190    4.5733   -0.3325 H   0  0  0  0  0  0  0  0  0  0  0  0
    6.2630    4.8247   -1.0273 H   0  0  0  0  0  0  0  0  0  0  0  0
    6.6586    6.2799   -1.9038 H   0  0  0  0  0  0  0  0  0  0  0  0
    4.7502    5.1718   -2.9979 H   0  0  0  0  0  0  0  0  0  0  0  0
    6.1306    5.2381   -4.0571 H   0  0  0  0  0  0  0  0  0  0  0  0
    4.8925    1.9325   -4.9783 H   0  0  0  0  0  0  0  0  0  0  0  0
    3.9396    3.3835   -4.6767 H   0  0  0  0  0  0  0  0  0  0  0  0
    5.4774    3.4928   -5.5258 H   0  0  0  0  0  0  0  0  0  0  0  0
    3.7094    4.1107   -1.4538 H   0  0  0  0  0  0  0  0  0  0  0  0
    2.9795    3.2002   -2.7449 H   0  0  0  0  0  0  0  0  0  0  0  0
    3.3068    2.4163    0.1796 H   0  0  0  0  0  0  0  0  0  0  0  0
    1.8030    2.7275   -0.6761 H   0  0  0  0  0  0  0  0  0  0  0  0
    2.0792   -0.3153   -2.9258 H   0  0  0  0  0  0  0  0  0  0  0  0
    0.9246    0.9500   -2.4354 H   0  0  0  0  0  0  0  0  0  0  0  0
    2.3603    1.3440   -3.3161 H   0  0  0  0  0  0  0  0  0  0  0  0
    0.1640    0.6560   -0.6233 H   0  0  0  0  0  0  0  0  0  0  0  0
    0.7057   -0.4116    2.1364 H   0  0  0  0  0  0  0  0  0  0  0  0
    0.1531    1.1830    1.6003 H   0  0  0  0  0  0  0  0  0  0  0  0
   -0.9455   -0.1954    1.5300 H   0  0  0  0  0  0  0  0  0  0  0  0
   -0.0054   -2.2536    0.2132 H   0  0  0  0  0  0  0  0  0  0  0  0
   -1.1903   -1.2695   -0.6237 H   0  0  0  0  0  0  0  0  0  0  0  0
    0.6020   -3.8051   -0.9984 H   0  0  0  0  0  0  0  0  0  0  0  0
  2  3  1  0  0  0  0
  2 27  1  0  0  0  0
  2  1  1  1  0  0  0
  3  4  1  0  0  0  0
  3 33  1  0  0  0  0
  3 34  1  0  0  0  0
  4 35  1  0  0  0  0
  4 36  1  0  0  0  0
  5  4  1  0  0  0  0
  5  6  1  1  0  0  0
  5 25  1  0  0  0  0
  7  5  1  0  0  0  0
  7  8  1  6  0  0  0
  7  9  1  0  0  0  0
  7 21  1  0  0  0  0
  9 10  1  0  0  0  0
  9 11  1  0  0  0  0
  9 37  1  1  0  0  0
 10 38  1  0  0  0  0
 11 39  1  0  0  0  0
 11 40  1  0  0  0  0
 12 11  1  0  0  0  0
 12 13  1  6  0  0  0
 12 14  1  0  0  0  0
 14 41  1  0  0  0  0
 14 42  1  0  0  0  0
 15 14  1  0  0  0  0
 15 16  1  0  0  0  0
 15 17  1  0  0  0  0
 15 43  1  6  0  0  0
 16 44  1  0  0  0  0
 17 18  1  0  0  0  0
 17 45  1  0  0  0  0
 17 46  1  0  0  0  0
 18 47  1  0  0  0  0
 18 48  1  0  0  0  0
 19 18  1  0  0  0  0
 19 12  1  0  0  0  0
 19 20  1  6  0  0  0
 20 49  1  0  0  0  0
 20 50  1  0  0  0  0
 20 51  1  0  0  0  0
 21 19  1  0  0  0  0
 21 22  1  1  0  0  0
 21 23  1  0  0  0  0
 23 24  1  0  0  0  0
 23 52  1  0  0  0  0
 23 53  1  0  0  0  0
 24 54  1  0  0  0  0
 24 55  1  0  0  0  0
 25 24  1  0  0  0  0
 25  2  1  0  0  0  0
 25 26  1  6  0  0  0
 26 56  1  0  0  0  0
 26 57  1  0  0  0  0
 26 58  1  0  0  0  0
 27 59  1  6  0  0  0
 27 29  1  0  0  0  0
 27 28  1  0  0  0  0
 28 60  1  0  0  0  0
 28 61  1  0  0  0  0
 28 62  1  0  0  0  0
 29 30  1  0  0  0  0
 29 63  1  0  0  0  0
 29 64  1  0  0  0  0
 30 31  1  0  0  0  0
 30 32  2  0  0  0  0
 31 65  1  0  0  0  0
M  END
>  <DRUGBANK_ID>
DB16260

>  <COMMON_NAME>
norUrsodeoxycholic acid

>  <CAS_NUMBER>
99697-24-2

>  <UNII>
8A5G600D9V

>  <SYNONYMS>
24-norursodeoxycholic acid; Nor-ursodeoxycholic acid; Norucholic acid; NorUrsodeoxycholic Acid

$$$$
