
 OpenBabel10282417203D

 20 21  0  0  0  0  0  0  0  0999 V2000
    2.5861   -0.0566   -0.1418 C   0  0  0  0  0  0  0  0  0  0  0  0
    1.7052   -1.2141   -0.6323 C   0  0  0  0  0  0  0  0  0  0  0  0
    1.8349    1.0238    0.6450 C   0  0  0  0  0  0  0  0  0  0  0  0
    0.5862   -1.5602    0.3522 C   0  0  0  0  0  0  0  0  0  0  0  0
    0.6320    1.5491   -0.1349 C   0  0  0  0  0  0  0  0  0  0  0  0
   -0.5889   -0.6670    0.1665 C   0  0  0  0  0  0  0  0  0  0  0  0
   -1.8625   -1.0131    0.1545 N   0  0  0  0  0  0  0  0  0  0  0  0
   -2.5697    0.1386   -0.0882 N   0  0  0  0  0  0  0  0  0  0  0  0
   -1.7590    1.1787   -0.2237 N   0  0  0  0  0  0  0  0  0  0  0  0
   -0.5247    0.6834   -0.0501 N   0  0  0  0  0  0  0  0  0  0  0  0
    3.3874   -0.4585    0.4893 H   0  0  0  0  0  0  0  0  0  0  0  0
    3.0780    0.4027   -1.0089 H   0  0  0  0  0  0  0  0  0  0  0  0
    1.2790   -0.9576   -1.6123 H   0  0  0  0  0  0  0  0  0  0  0  0
    2.3414   -2.0907   -0.7999 H   0  0  0  0  0  0  0  0  0  0  0  0
    1.5138    0.6317    1.6192 H   0  0  0  0  0  0  0  0  0  0  0  0
    2.5266    1.8423    0.8709 H   0  0  0  0  0  0  0  0  0  0  0  0
    0.2743   -2.5988    0.2004 H   0  0  0  0  0  0  0  0  0  0  0  0
    0.9452   -1.4992    1.3870 H   0  0  0  0  0  0  0  0  0  0  0  0
    0.8712    1.6690   -1.1982 H   0  0  0  0  0  0  0  0  0  0  0  0
    0.3365    2.5269    0.2603 H   0  0  0  0  0  0  0  0  0  0  0  0
  1 11  1  0  0  0  0
  1 12  1  0  0  0  0
  2  1  1  0  0  0  0
  2 13  1  0  0  0  0
  2 14  1  0  0  0  0
  3  1  1  0  0  0  0
  3 15  1  0  0  0  0
  3 16  1  0  0  0  0
  4  2  1  0  0  0  0
  4 17  1  0  0  0  0
  4 18  1  0  0  0  0
  5  3  1  0  0  0  0
  5 19  1  0  0  0  0
  5 20  1  0  0  0  0
  6  4  1  0  0  0  0
  7  6  2  0  0  0  0
  8  7  1  0  0  0  0
  9  8  2  0  0  0  0
 10  5  1  0  0  0  0
 10  6  1  0  0  0  0
 10  9  1  0  0  0  0
M  END
>  <DRUGBANK_ID>
DB13415

>  <COMMON_NAME>
Pentetrazol

>  <CAS_NUMBER>
54-95-5

>  <UNII>
WM5Z385K7T

>  <SYNONYMS>
Pentetrazol; Pentylenetetrazol

$$$$
