
 OpenBabel10282417193D

 32 33  0  0  0  0  0  0  0  0999 V2000
    2.2228   -0.0038    0.0149 C   0  0  0  0  0  0  0  0  0  0  0  0
    0.7808   -0.0437    0.1203 N   0  0  0  0  0  0  0  0  0  0  0  0
   -0.0116   -1.1682    0.0810 C   0  0  0  0  0  0  0  0  0  0  0  0
   -1.3095   -0.7256    0.0706 C   0  0  0  0  0  0  0  0  0  0  0  0
   -1.3375    0.6451    0.1313 N   0  0  0  0  0  0  0  0  0  0  0  0
   -0.0756    1.0542    0.1372 C   0  0  0  0  0  0  0  0  0  0  0  0
    0.3777    2.4881    0.0242 C   0  0  0  0  0  0  0  0  0  0  0  0
   -0.1165    3.1467   -1.1659 O   0  0  0  0  0  0  0  0  0  0  0  0
    0.3417    2.7075   -2.3782 C   0  0  0  0  0  0  0  0  0  0  0  0
    0.2458    1.3816   -2.7822 C   0  0  0  0  0  0  0  0  0  0  0  0
    0.6445    0.9540   -4.0443 C   0  0  0  0  0  0  0  0  0  0  0  0
    1.0787    1.8725   -4.9863 C   0  0  0  0  0  0  0  0  0  0  0  0
    1.0736    3.2308   -4.6279 C   0  0  0  0  0  0  0  0  0  0  0  0
    0.7484    3.6451   -3.3217 C   0  0  0  0  0  0  0  0  0  0  0  0
    1.6405    1.4096   -6.6172 S   0  0  0  0  0  0  0  0  0  0  0  0
    1.6195   -0.4131   -6.5834 C   0  0  0  0  0  0  0  0  0  0  0  0
    0.4504   -2.5149    0.0283 N   0  3  0  0  0  0  0  0  0  0  0  0
   -0.4104   -3.3955   -0.0090 O   0  0  0  0  0  0  0  0  0  0  0  0
    1.6752   -2.7044    0.0209 O   0  5  0  0  0  0  0  0  0  0  0  0
    2.6423   -0.5195    0.8804 H   0  0  0  0  0  0  0  0  0  0  0  0
    2.5192   -0.4781   -0.9249 H   0  0  0  0  0  0  0  0  0  0  0  0
    2.5947    1.0181    0.0098 H   0  0  0  0  0  0  0  0  0  0  0  0
   -2.2197   -1.3105    0.0066 H   0  0  0  0  0  0  0  0  0  0  0  0
   -0.0389    3.0321    0.8809 H   0  0  0  0  0  0  0  0  0  0  0  0
    1.4585    2.6273    0.0790 H   0  0  0  0  0  0  0  0  0  0  0  0
   -0.2062    0.6285   -2.1623 H   0  0  0  0  0  0  0  0  0  0  0  0
    0.5548   -0.1053   -4.2536 H   0  0  0  0  0  0  0  0  0  0  0  0
    1.3134    3.9867   -5.3733 H   0  0  0  0  0  0  0  0  0  0  0  0
    0.7999    4.7008   -3.0655 H   0  0  0  0  0  0  0  0  0  0  0  0
    2.2461   -0.8157   -5.7805 H   0  0  0  0  0  0  0  0  0  0  0  0
    0.5971   -0.7873   -6.4765 H   0  0  0  0  0  0  0  0  0  0  0  0
    2.0149   -0.7839   -7.5332 H   0  0  0  0  0  0  0  0  0  0  0  0
  1  2  1  0  0  0  0
  1 20  1  0  0  0  0
  1 21  1  0  0  0  0
  1 22  1  0  0  0  0
  2  3  1  0  0  0  0
  2  6  1  0  0  0  0
  3  4  2  0  0  0  0
  3 17  1  0  0  0  0
  4  5  1  0  0  0  0
  4 23  1  0  0  0  0
  5  6  2  0  0  0  0
  6  7  1  0  0  0  0
  7  8  1  0  0  0  0
  7 24  1  0  0  0  0
  7 25  1  0  0  0  0
  8  9  1  0  0  0  0
  9 10  2  0  0  0  0
  9 14  1  0  0  0  0
 10 11  1  0  0  0  0
 10 26  1  0  0  0  0
 11 12  2  0  0  0  0
 11 27  1  0  0  0  0
 12 13  1  0  0  0  0
 12 15  1  0  0  0  0
 13 14  2  0  0  0  0
 13 28  1  0  0  0  0
 14 29  1  0  0  0  0
 15 16  1  0  0  0  0
 16 30  1  0  0  0  0
 16 31  1  0  0  0  0
 16 32  1  0  0  0  0
 17 18  2  0  0  0  0
 17 19  1  0  0  0  0
M  CHG  2  17   1  19  -1
M  END
>  <DRUGBANK_ID>
DB12265

>  <COMMON_NAME>
Fexinidazole

>  <CAS_NUMBER>
59729-37-2

>  <UNII>
306ERL82IR

>  <SYNONYMS>
Fexinidazole

$$$$
