
 OpenBabel10282417203D

 78 81  0  0  1  0  0  0  0  0999 V2000
    0.9005   -1.1538    2.1865 C   0  0  0  0  0  0  0  0  0  0  0  0
    0.3938   -1.2092    0.7545 C   0  0  2  0  0  0  0  0  0  0  0  0
    0.9005    0.0032   -0.0095 C   0  0  0  0  0  0  0  0  0  0  0  0
    2.3587   -0.0944    0.4083 C   0  0  0  0  0  0  0  0  0  0  0  0
    2.9104   -1.4531    0.0085 C   0  0  0  0  0  0  0  0  0  0  0  0
    2.8028   -1.6202   -1.4985 C   0  0  0  0  0  0  0  0  0  0  0  0
    3.6017   -0.5262   -2.1879 C   0  0  0  0  0  0  0  0  0  0  0  0
    3.3545   -2.9789   -1.8983 C   0  0  0  0  0  0  0  0  0  0  0  0
   -1.1262   -1.2092    0.7545 C   0  0  1  0  0  0  0  0  0  0  0  0
   -2.7825   -5.0224    1.0342 C   0  0  0  0  0  0  0  0  0  0  0  0
   -1.6941   -4.8272    2.0771 C   0  0  0  0  0  0  0  0  0  0  0  0
   -0.7836   -3.6868    1.6520 C   0  0  2  0  0  0  0  0  0  0  0  0
   -1.6328   -2.4216    1.5185 C   0  0  2  0  0  0  0  0  0  0  0  0
   -2.1072   -1.8963    2.8670 C   0  0  0  0  0  0  0  0  0  0  0  0
   -0.9109   -1.6253    3.7805 C   0  0  0  0  0  0  0  0  0  0  0  0
   -0.1516   -2.9292    4.0174 C   0  0  1  0  0  0  0  0  0  0  0  0
    0.2937   -3.5271    2.6999 C   0  0  1  0  0  0  0  0  0  0  0  0
    1.0636   -4.8156    2.9870 C   0  0  0  0  0  0  0  0  0  0  0  0
    2.3579   -4.4256    3.6965 C   0  0  2  0  0  0  0  0  0  0  0  0
    2.1711   -3.3359    4.7301 C   0  0  0  0  0  0  0  0  0  0  0  0
    1.0725   -2.6588    4.8804 C   0  0  0  0  0  0  0  0  0  0  0  0
    0.9034   -1.5666    5.9114 C   0  0  0  0  0  0  0  0  0  0  0  0
    1.9419   -1.6991    7.0212 C   0  0  0  0  0  0  0  0  0  0  0  0
    3.3183   -1.7789    6.3484 C   0  0  1  0  0  0  0  0  0  0  0  0
    3.3947   -3.0981    5.5945 C   0  0  0  0  0  0  0  0  0  0  0  0
    3.4967   -0.6885    5.4564 O   0  0  0  0  0  0  0  0  0  0  0  0
    3.3504   -3.9365    2.6544 C   0  0  0  0  0  0  0  0  0  0  0  0
    2.3896   -3.6799    0.9654 Se  0  0  0  0  0  0  0  0  0  0  0  0
    1.6106   -5.3845    0.3915 C   0  0  0  0  0  0  0  0  0  0  0  0
   -2.7179   -3.0149    0.6348 C   0  0  0  0  0  0  0  0  0  0  0  0
    0.3242   -0.4425    2.7404 H   0  0  0  0  0  0  0  0  0  0  0  0
    1.9294   -0.8602    2.1911 H   0  0  0  0  0  0  0  0  0  0  0  0
    0.8032   -2.1196    2.6366 H   0  0  0  0  0  0  0  0  0  0  0  0
    0.7505   -2.1017    0.2843 H   0  0  0  0  0  0  0  0  0  0  0  0
    0.8247   -0.1144   -1.0703 H   0  0  0  0  0  0  0  0  0  0  0  0
    0.5121    0.9597    0.2720 H   0  0  0  0  0  0  0  0  0  0  0  0
    2.9211    0.6758   -0.0770 H   0  0  0  0  0  0  0  0  0  0  0  0
    2.4345    0.0232    1.4691 H   0  0  0  0  0  0  0  0  0  0  0  0
    3.9369   -1.5218    0.3025 H   0  0  0  0  0  0  0  0  0  0  0  0
    2.3481   -2.2233    0.4938 H   0  0  0  0  0  0  0  0  0  0  0  0
    1.7763   -1.5515   -1.7926 H   0  0  0  0  0  0  0  0  0  0  0  0
    4.6282   -0.5949   -1.8938 H   0  0  0  0  0  0  0  0  0  0  0  0
    3.5259   -0.6438   -3.2487 H   0  0  0  0  0  0  0  0  0  0  0  0
    3.2133    0.4303   -1.9065 H   0  0  0  0  0  0  0  0  0  0  0  0
    2.7922   -3.7491   -1.4130 H   0  0  0  0  0  0  0  0  0  0  0  0
    3.2788   -3.0966   -2.9591 H   0  0  0  0  0  0  0  0  0  0  0  0
    4.3810   -3.0476   -1.6042 H   0  0  0  0  0  0  0  0  0  0  0  0
   -1.4828   -0.3167    1.2248 H   0  0  0  0  0  0  0  0  0  0  0  0
   -3.4235   -5.8251    1.3335 H   0  0  0  0  0  0  0  0  0  0  0  0
   -3.3554   -4.1232    0.9440 H   0  0  0  0  0  0  0  0  0  0  0  0
   -1.1213   -5.7264    2.1673 H   0  0  0  0  0  0  0  0  0  0  0  0
   -2.1419   -4.5935    3.0204 H   0  0  0  0  0  0  0  0  0  0  0  0
   -0.3225   -3.8964    0.7094 H   0  0  0  0  0  0  0  0  0  0  0  0
   -2.6442   -0.9832    2.7159 H   0  0  0  0  0  0  0  0  0  0  0  0
   -2.7440   -2.6238    3.3253 H   0  0  0  0  0  0  0  0  0  0  0  0
   -0.2616   -0.9112    3.3186 H   0  0  0  0  0  0  0  0  0  0  0  0
   -1.2562   -1.2376    4.7161 H   0  0  0  0  0  0  0  0  0  0  0  0
   -0.8026   -3.6182    4.5138 H   0  0  0  0  0  0  0  0  0  0  0  0
    0.9404   -2.8152    2.2310 H   0  0  0  0  0  0  0  0  0  0  0  0
    0.4823   -5.4750    3.5970 H   0  0  0  0  0  0  0  0  0  0  0  0
    1.2868   -5.3202    2.0703 H   0  0  0  0  0  0  0  0  0  0  0  0
    2.7095   -5.2943    4.2129 H   0  0  0  0  0  0  0  0  0  0  0  0
    1.0360   -0.6198    5.4308 H   0  0  0  0  0  0  0  0  0  0  0  0
   -0.0755   -1.6358    6.3376 H   0  0  0  0  0  0  0  0  0  0  0  0
    1.8932   -0.8639    7.6882 H   0  0  0  0  0  0  0  0  0  0  0  0
    1.7596   -2.5873    7.5894 H   0  0  0  0  0  0  0  0  0  0  0  0
    4.0884   -1.7390    7.0902 H   0  0  0  0  0  0  0  0  0  0  0  0
    3.4452   -3.8864    6.3163 H   0  0  0  0  0  0  0  0  0  0  0  0
    4.2622   -3.0873    4.9682 H   0  0  0  0  0  0  0  0  0  0  0  0
    2.7837   -0.7111    4.7555 H   0  0  0  0  0  0  0  0  0  0  0  0
    3.7757   -3.0060    2.9677 H   0  0  0  0  0  0  0  0  0  0  0  0
    4.1299   -4.6561    2.5155 H   0  0  0  0  0  0  0  0  0  0  0  0
    2.3901   -6.1041    0.2526 H   0  0  0  0  0  0  0  0  0  0  0  0
    0.9302   -5.7354    1.1391 H   0  0  0  0  0  0  0  0  0  0  0  0
    1.0861   -5.2444   -0.5306 H   0  0  0  0  0  0  0  0  0  0  0  0
   -3.4909   -2.2906    0.4842 H   0  0  0  0  0  0  0  0  0  0  0  0
   -2.2977   -3.2898   -0.3101 H   0  0  0  0  0  0  0  0  0  0  0  0
   -3.1289   -3.8821    1.1081 H   0  0  0  0  0  0  0  0  0  0  0  0
  1 31  1  0  0  0  0
  1 32  1  0  0  0  0
  1 33  1  0  0  0  0
  2 34  1  6  0  0  0
  2  3  1  0  0  0  0
  2  1  1  0  0  0  0
  3  4  1  0  0  0  0
  3 35  1  0  0  0  0
  3 36  1  0  0  0  0
  4  5  1  0  0  0  0
  4 37  1  0  0  0  0
  4 38  1  0  0  0  0
  5  6  1  0  0  0  0
  5 39  1  0  0  0  0
  5 40  1  0  0  0  0
  6  7  1  0  0  0  0
  6  8  1  0  0  0  0
  6 41  1  0  0  0  0
  7 42  1  0  0  0  0
  7 43  1  0  0  0  0
  7 44  1  0  0  0  0
  8 45  1  0  0  0  0
  8 46  1  0  0  0  0
  8 47  1  0  0  0  0
  9  2  1  0  0  0  0
  9 10  1  0  0  0  0
  9 13  1  0  0  0  0
  9 48  1  6  0  0  0
 10 11  1  0  0  0  0
 10 49  1  0  0  0  0
 10 50  1  0  0  0  0
 11 51  1  0  0  0  0
 11 52  1  0  0  0  0
 12 11  1  0  0  0  0
 12 13  1  0  0  0  0
 12 17  1  0  0  0  0
 12 53  1  1  0  0  0
 13 14  1  0  0  0  0
 13 30  1  1  0  0  0
 14 15  1  0  0  0  0
 14 54  1  0  0  0  0
 14 55  1  0  0  0  0
 15 56  1  0  0  0  0
 15 57  1  0  0  0  0
 16 15  1  0  0  0  0
 16 17  1  0  0  0  0
 16 21  1  0  0  0  0
 16 58  1  1  0  0  0
 17 18  1  0  0  0  0
 17 59  1  6  0  0  0
 18 19  1  0  0  0  0
 18 60  1  0  0  0  0
 18 61  1  0  0  0  0
 19 20  1  0  0  0  0
 19 62  1  1  0  0  0
 19 27  1  0  0  0  0
 20 21  2  0  0  0  0
 20 25  1  0  0  0  0
 21 22  1  0  0  0  0
 22 23  1  0  0  0  0
 22 63  1  0  0  0  0
 22 64  1  0  0  0  0
 23 24  1  0  0  0  0
 23 65  1  0  0  0  0
 23 66  1  0  0  0  0
 24 25  1  0  0  0  0
 24 26  1  0  0  0  0
 24 67  1  1  0  0  0
 25 68  1  0  0  0  0
 25 69  1  0  0  0  0
 26 70  1  0  0  0  0
 27 28  1  0  0  0  0
 27 71  1  0  0  0  0
 27 72  1  0  0  0  0
 28 29  1  0  0  0  0
 29 73  1  0  0  0  0
 29 74  1  0  0  0  0
 29 75  1  0  0  0  0
 30 76  1  0  0  0  0
 30 77  1  0  0  0  0
 30 78  1  0  0  0  0
M  ISO  1  28  75
M  END
>  <DRUGBANK_ID>
DB13622

>  <COMMON_NAME>
Selenium (75Se) norcholesterol

>  <CAS_NUMBER>
63795-61-9

>  <UNII>
XWR21TJ99H

>  <SYNONYMS>
Selenium se-75 norcholesterol

$$$$
