
 OpenBabel10282417123D

 21 20  0  0  1  0  0  0  0  0999 V2000
    1.0415    0.0939   -0.0754 C   0  0  0  0  0  0  0  0  0  0  0  0
    0.5199    1.1538    0.8973 C   0  0  0  0  0  0  0  0  0  0  0  0
    1.0250    2.5368    0.4803 C   0  0  0  0  0  0  0  0  0  0  0  0
   -1.0231    1.1394    0.9950 C   0  0  1  0  0  0  0  0  0  0  0  0
   -1.5313   -0.1881    1.4230 N   0  0  0  0  0  0  0  0  0  0  0  0
   -1.5554    2.2070    1.9767 C   0  0  0  0  0  0  0  0  0  0  0  0
   -2.2937    3.1182    1.5827 O   0  0  0  0  0  0  0  0  0  0  0  0
   -1.1919    2.1411    3.2860 N   0  0  0  0  0  0  0  0  0  0  0  0
   -0.4096    1.1151    3.8385 O   0  0  0  0  0  0  0  0  0  0  0  0
    0.6704    0.2741   -1.0888 H   0  0  0  0  0  0  0  0  0  0  0  0
    0.7409   -0.9144    0.2263 H   0  0  0  0  0  0  0  0  0  0  0  0
    2.1353    0.1018   -0.0969 H   0  0  0  0  0  0  0  0  0  0  0  0
    0.9726    0.9350    1.8696 H   0  0  0  0  0  0  0  0  0  0  0  0
    0.6626    2.8047   -0.5169 H   0  0  0  0  0  0  0  0  0  0  0  0
    0.6967    3.3110    1.1818 H   0  0  0  0  0  0  0  0  0  0  0  0
    2.1191    2.5554    0.4699 H   0  0  0  0  0  0  0  0  0  0  0  0
   -1.4504    1.3623    0.0076 H   0  0  0  0  0  0  0  0  0  0  0  0
   -2.5548   -0.1580    1.3811 H   0  0  0  0  0  0  0  0  0  0  0  0
   -1.2782   -0.8801    0.7154 H   0  0  0  0  0  0  0  0  0  0  0  0
   -1.5629    2.8273    3.9333 H   0  0  0  0  0  0  0  0  0  0  0  0
   -0.4924    0.3748    3.2004 H   0  0  0  0  0  0  0  0  0  0  0  0
  1  2  1  0  0  0  0
  1 10  1  0  0  0  0
  1 11  1  0  0  0  0
  1 12  1  0  0  0  0
  2  3  1  0  0  0  0
  2  4  1  0  0  0  0
  2 13  1  0  0  0  0
  3 14  1  0  0  0  0
  3 15  1  0  0  0  0
  3 16  1  0  0  0  0
  4  5  1  0  0  0  0
  4  6  1  0  0  0  0
  4 17  1  6  0  0  0
  5 18  1  0  0  0  0
  5 19  1  0  0  0  0
  6  7  2  0  0  0  0
  6  8  1  0  0  0  0
  8  9  1  0  0  0  0
  8 20  1  0  0  0  0
  9 21  1  0  0  0  0
M  END
>  <DRUGBANK_ID>
DB02697

>  <SECONDARY_ACCESSION_NUMBERS>
EXPT01693

>  <COMMON_NAME>
Hydroxyaminovaline

$$$$
