
 OpenBabel10282417133D

 26 25  0  0  1  0  0  0  0  0999 V2000
    0.9958   -2.3257   -0.4938 C   0  0  0  0  0  0  0  0  0  0  0  0
    0.4342   -0.9858   -0.9818 C   0  0  2  0  0  0  0  0  0  0  0  0
    0.9501    0.3232   -0.2956 C   0  0  2  0  0  0  0  0  0  0  0  0
    2.4241    0.6360   -0.5626 C   0  0  1  0  0  0  0  0  0  0  0  0
    2.5952    2.1242   -0.3566 C   0  0  0  0  0  0  0  0  0  0  0  0
   -1.0044   -1.0667   -0.9185 O   0  0  0  0  0  0  0  0  0  0  0  0
    0.9666    0.2718    1.1295 O   0  0  0  0  0  0  0  0  0  0  0  0
    3.2330   -0.0518    0.4416 O   0  0  0  0  0  0  0  0  0  0  0  0
    3.2651    2.6429    0.5364 O   0  0  0  0  0  0  0  0  0  0  0  0
    1.8811    2.8618   -1.2175 O   0  0  0  0  0  0  0  0  0  0  0  0
   -0.0422   -3.3410    1.9857 O   0  0  0  0  0  0  0  0  0  0  0  0
    1.5539   -1.8481    3.0590 O   0  0  0  0  0  0  0  0  0  0  0  0
   -0.7464   -1.3521    3.0180 O   0  0  0  0  0  0  0  0  0  0  0  0
    1.5281   -2.1830    0.8081 O   0  0  0  0  0  0  0  0  0  0  0  0
    0.3278   -1.7445    1.9743 P   0  0  0  0  0  0  0  0  0  0  0  0
    0.6455   -0.9126   -2.0520 H   0  0  0  0  0  0  0  0  0  0  0  0
    0.2367    1.1211   -0.5096 H   0  0  0  0  0  0  0  0  0  0  0  0
    2.7606    0.3233   -1.5486 H   0  0  0  0  0  0  0  0  0  0  0  0
    1.8000   -2.6814   -1.1435 H   0  0  0  0  0  0  0  0  0  0  0  0
    0.2309   -3.1156   -0.4820 H   0  0  0  0  0  0  0  0  0  0  0  0
   -1.3379   -1.0842   -0.0068 H   0  0  0  0  0  0  0  0  0  0  0  0
    1.7715   -0.2958    1.2655 H   0  0  0  0  0  0  0  0  0  0  0  0
    3.2761    0.5463    1.2262 H   0  0  0  0  0  0  0  0  0  0  0  0
    2.0340    3.7880   -0.9356 H   0  0  0  0  0  0  0  0  0  0  0  0
   -0.9001   -3.5212    1.5702 H   0  0  0  0  0  0  0  0  0  0  0  0
    2.4113   -1.5638    2.7054 H   0  0  0  0  0  0  0  0  0  0  0  0
  1 19  1  0  0  0  0
  1 20  1  0  0  0  0
  2  6  1  0  0  0  0
  2 16  1  6  0  0  0
  2  3  1  0  0  0  0
  2  1  1  0  0  0  0
  3 17  1  6  0  0  0
  3  7  1  0  0  0  0
  3  4  1  0  0  0  0
  4  8  1  0  0  0  0
  4 18  1  6  0  0  0
  5  4  1  0  0  0  0
  6 21  1  0  0  0  0
  7 22  1  0  0  0  0
  8 23  1  0  0  0  0
  9  5  2  0  0  0  0
 10  5  1  0  0  0  0
 10 24  1  0  0  0  0
 11 25  1  0  0  0  0
 12 26  1  0  0  0  0
 14  1  1  0  0  0  0
 15 11  1  0  0  0  0
 15 12  1  0  0  0  0
 15 13  2  0  0  0  0
 15 14  1  0  0  0  0
M  END
>  <DRUGBANK_ID>
DB03042

>  <SECONDARY_ACCESSION_NUMBERS>
EXPT02485

>  <COMMON_NAME>
5-Phosphoarabinonic Acid

$$$$
