
 OpenBabel10282417163D

 57 60  0  0  0  0  0  0  0  0999 V2000
   -1.1846    1.4137   -0.0198 N   0  0  0  0  0  0  0  0  0  0  0  0
    3.0590    3.6130    1.2209 N   0  0  0  0  0  0  0  0  0  0  0  0
    0.0160    0.7050    0.0435 C   0  0  0  0  0  0  0  0  0  0  0  0
    3.6341    2.9254    0.1983 C   0  0  0  0  0  0  0  0  0  0  0  0
   -2.3452    0.7231   -0.3025 C   0  0  0  0  0  0  0  0  0  0  0  0
    1.1509    1.4307    0.0879 N   0  0  0  0  0  0  0  0  0  0  0  0
    3.1011    4.9592    1.1883 C   0  0  0  0  0  0  0  0  0  0  0  0
   -1.1878   -1.4292   -0.0070 O   0  0  0  0  0  0  0  0  0  0  0  0
   -2.3434   -0.6585    0.3874 C   0  0  0  0  0  0  0  0  0  0  0  0
    3.5350    1.5132    0.1669 N   0  0  0  0  0  0  0  0  0  0  0  0
    4.2784    3.5909   -0.8374 C   0  0  0  0  0  0  0  0  0  0  0  0
    2.4734    9.9453    2.4275 C   0  0  0  0  0  0  0  0  0  0  0  0
   -0.0215   -0.6910   -0.0114 C   0  0  0  0  0  0  0  0  0  0  0  0
    2.3367    0.7801    0.0687 C   0  0  0  0  0  0  0  0  0  0  0  0
    1.8617    9.2701    1.3506 C   0  0  0  0  0  0  0  0  0  0  0  0
    3.0733    9.1572    3.4665 C   0  0  0  0  0  0  0  0  0  0  0  0
    3.7042    5.6516    0.2069 N   0  0  0  0  0  0  0  0  0  0  0  0
    2.4656    7.0760    2.3601 C   0  0  0  0  0  0  0  0  0  0  0  0
    1.8878    7.8534    1.3489 C   0  0  0  0  0  0  0  0  0  0  0  0
    3.0536    7.7470    3.4255 C   0  0  0  0  0  0  0  0  0  0  0  0
    2.5289    5.6790    2.2409 N   0  0  0  0  0  0  0  0  0  0  0  0
    4.2781    4.9592   -0.7864 C   0  0  0  0  0  0  0  0  0  0  0  0
   -3.2507    1.1829   -0.9645 O   0  0  0  0  0  0  0  0  0  0  0  0
    1.1910   -1.3600   -0.0630 C   0  0  0  0  0  0  0  0  0  0  0  0
    4.8617    2.9512   -1.8611 F   0  0  0  0  0  0  0  0  0  0  0  0
    2.3822   -0.6192   -0.0135 C   0  0  0  0  0  0  0  0  0  0  0  0
    2.6336   11.2644    2.6927 O   0  0  0  0  0  0  0  0  0  0  0  0
    3.7357    9.6352    4.5925 O   0  0  0  0  0  0  0  0  0  0  0  0
    1.2022    9.6687    0.2108 O   0  0  0  0  0  0  0  0  0  0  0  0
   -2.3185   -0.4251    1.9151 C   0  0  0  0  0  0  0  0  0  0  0  0
   -3.6386   -1.4240    0.0806 C   0  0  0  0  0  0  0  0  0  0  0  0
    2.1669   12.3791    2.0056 C   0  0  0  0  0  0  0  0  0  0  0  0
    3.8337   11.0455    4.7946 C   0  0  0  0  0  0  0  0  0  0  0  0
    1.0415   11.0252   -0.0959 C   0  0  0  0  0  0  0  0  0  0  0  0
   -1.1418    2.4158   -0.1132 H   0  0  0  0  0  0  0  0  0  0  0  0
    4.3793    1.0408   -0.1224 H   0  0  0  0  0  0  0  0  0  0  0  0
    1.4286    7.3336    0.5061 H   0  0  0  0  0  0  0  0  0  0  0  0
    3.5523    7.1854    4.2128 H   0  0  0  0  0  0  0  0  0  0  0  0
    2.2414    5.1017    3.0150 H   0  0  0  0  0  0  0  0  0  0  0  0
    4.7368    5.5645   -1.5601 H   0  0  0  0  0  0  0  0  0  0  0  0
    1.2167   -2.4446   -0.1237 H   0  0  0  0  0  0  0  0  0  0  0  0
    3.3307   -1.1491   -0.0422 H   0  0  0  0  0  0  0  0  0  0  0  0
   -3.1771    0.1781    2.2313 H   0  0  0  0  0  0  0  0  0  0  0  0
   -2.3222   -1.3750    2.4565 H   0  0  0  0  0  0  0  0  0  0  0  0
   -1.4199    0.1078    2.2433 H   0  0  0  0  0  0  0  0  0  0  0  0
   -3.7569   -1.6372   -0.9858 H   0  0  0  0  0  0  0  0  0  0  0  0
   -3.6616   -2.3856    0.6079 H   0  0  0  0  0  0  0  0  0  0  0  0
   -4.5188   -0.8515    0.4046 H   0  0  0  0  0  0  0  0  0  0  0  0
    2.6947   12.4408    1.0608 H   0  0  0  0  0  0  0  0  0  0  0  0
    1.0821   12.3740    2.0329 H   0  0  0  0  0  0  0  0  0  0  0  0
    2.4321   13.3169    2.4979 H   0  0  0  0  0  0  0  0  0  0  0  0
    4.4208   11.5176    3.9957 H   0  0  0  0  0  0  0  0  0  0  0  0
    2.8381   11.4934    4.9095 H   0  0  0  0  0  0  0  0  0  0  0  0
    4.3681   11.2545    5.7234 H   0  0  0  0  0  0  0  0  0  0  0  0
    0.3924   11.4657    0.6545 H   0  0  0  0  0  0  0  0  0  0  0  0
    2.0252   11.4525   -0.2732 H   0  0  0  0  0  0  0  0  0  0  0  0
    0.5063   11.2214   -1.0271 H   0  0  0  0  0  0  0  0  0  0  0  0
  1 35  1  0  0  0  0
  3  1  1  0  0  0  0
  3  6  2  0  0  0  0
  4  2  2  0  0  0  0
  4 10  1  0  0  0  0
  5  1  1  0  0  0  0
  5  9  1  0  0  0  0
  5 23  2  0  0  0  0
  7  2  1  0  0  0  0
  7 17  2  0  0  0  0
  7 21  1  0  0  0  0
  9  8  1  0  0  0  0
 10 36  1  0  0  0  0
 11  4  1  0  0  0  0
 11 22  2  0  0  0  0
 11 25  1  0  0  0  0
 12 15  2  0  0  0  0
 12 16  1  0  0  0  0
 12 27  1  0  0  0  0
 13  3  1  0  0  0  0
 13  8  1  0  0  0  0
 13 24  2  0  0  0  0
 14  6  1  0  0  0  0
 14 10  1  0  0  0  0
 14 26  2  0  0  0  0
 15 19  1  0  0  0  0
 15 29  1  0  0  0  0
 16 20  2  0  0  0  0
 16 28  1  0  0  0  0
 18 19  2  0  0  0  0
 18 20  1  0  0  0  0
 18 21  1  0  0  0  0
 19 37  1  0  0  0  0
 20 38  1  0  0  0  0
 21 39  1  0  0  0  0
 22 17  1  0  0  0  0
 22 40  1  0  0  0  0
 24 26  1  0  0  0  0
 24 41  1  0  0  0  0
 26 42  1  0  0  0  0
 30  9  1  0  0  0  0
 30 43  1  0  0  0  0
 30 44  1  0  0  0  0
 30 45  1  0  0  0  0
 31  9  1  0  0  0  0
 31 46  1  0  0  0  0
 31 47  1  0  0  0  0
 31 48  1  0  0  0  0
 32 27  1  0  0  0  0
 32 49  1  0  0  0  0
 32 50  1  0  0  0  0
 32 51  1  0  0  0  0
 33 28  1  0  0  0  0
 33 52  1  0  0  0  0
 33 53  1  0  0  0  0
 33 54  1  0  0  0  0
 34 29  1  0  0  0  0
 34 55  1  0  0  0  0
 34 56  1  0  0  0  0
 34 57  1  0  0  0  0
M  END
>  <DRUGBANK_ID>
DB07159

>  <SECONDARY_ACCESSION_NUMBERS>
DB06646

>  <COMMON_NAME>
Tamatinib

>  <CAS_NUMBER>
841290-80-0

>  <UNII>
RC3A285J2G

>  <SYNONYMS>
6-({5-fluoro-2-[(3,4,5-trimethoxyphenyl)amino]pyrimidin-4-yl}amino)-2,2-dimethyl-2H-pyrido[3,2-b][1,4]oxazin-3(4H)-one

$$$$
