
 OpenBabel10282417223D

 60 62  0  0  1  0  0  0  0  0999 V2000
    1.2127   -0.8292    2.3593 C   0  0  0  0  0  0  0  0  0  0  0  0
    0.6015   -2.0724    1.7349 C   0  0  0  0  0  0  0  0  0  0  0  0
    1.0891   -2.3366    0.2764 C   0  0  2  0  0  0  0  0  0  0  0  0
    0.6068   -1.2790   -0.6276 N   0  0  0  0  0  0  0  0  0  0  0  0
    1.2955   -0.8283   -1.7394 C   0  0  0  0  0  0  0  0  0  0  0  0
    1.8374   -1.7355   -2.5851 N   0  0  0  0  0  0  0  0  0  0  0  0
    2.3100   -1.3885   -3.8145 C   0  0  0  0  0  0  0  0  0  0  0  0
    2.7467   -2.3875   -4.6713 N   0  0  0  0  0  0  0  0  0  0  0  0
    3.5446   -2.1177   -5.8575 C   0  0  0  0  0  0  0  0  0  0  0  0
    4.9348   -2.6922   -5.7666 C   0  0  0  0  0  0  0  0  0  0  0  0
    5.8391   -2.4497   -4.7190 C   0  0  0  0  0  0  0  0  0  0  0  0
    5.5720   -1.5471   -3.5529 C   0  0  0  0  0  0  0  0  0  0  0  0
    7.0809   -3.0923   -4.7438 C   0  0  0  0  0  0  0  0  0  0  0  0
    7.4211   -3.8928   -5.8253 C   0  0  0  0  0  0  0  0  0  0  0  0
    8.7231   -4.6299   -5.8399 C   0  0  0  0  0  0  0  0  0  0  0  0
    6.6101   -4.0554   -6.8920 N   0  0  0  0  0  0  0  0  0  0  0  0
    5.4019   -3.4519   -6.8404 C   0  0  0  0  0  0  0  0  0  0  0  0
    2.3961   -0.0188   -4.0897 C   0  0  0  0  0  0  0  0  0  0  0  0
    2.9604    0.6737   -5.1380 N   0  0  0  0  0  0  0  0  0  0  0  0
    2.8505    1.9395   -4.8173 C   0  0  0  0  0  0  0  0  0  0  0  0
    2.1864    2.0853   -3.6330 N   0  0  0  0  0  0  0  0  0  0  0  0
    1.8573    3.3736   -3.0552 C   0  0  0  0  0  0  0  0  0  0  0  0
    0.3471    3.5417   -2.9726 C   0  0  0  0  0  0  0  0  0  0  0  0
    2.5504    3.5700   -1.7143 C   0  0  0  0  0  0  0  0  0  0  0  0
    1.8926    0.8400   -3.1267 C   0  0  0  0  0  0  0  0  0  0  0  0
    1.2767    0.5000   -1.9805 N   0  0  0  0  0  0  0  0  0  0  0  0
    0.5686   -3.7469   -0.1334 C   0  0  1  0  0  0  0  0  0  0  0  0
    1.0023   -4.1667   -1.5225 C   0  0  0  0  0  0  0  0  0  0  0  0
    1.0387   -4.7517    0.7798 O   0  0  0  0  0  0  0  0  0  0  0  0
    2.3030   -0.9135    2.3941 H   0  0  0  0  0  0  0  0  0  0  0  0
    0.8533   -0.7036    3.3870 H   0  0  0  0  0  0  0  0  0  0  0  0
    0.9449    0.0671    1.7956 H   0  0  0  0  0  0  0  0  0  0  0  0
    0.8649   -2.9188    2.3852 H   0  0  0  0  0  0  0  0  0  0  0  0
   -0.4932   -1.9952    1.7664 H   0  0  0  0  0  0  0  0  0  0  0  0
    2.1872   -2.3512    0.3121 H   0  0  0  0  0  0  0  0  0  0  0  0
   -0.0566   -0.6060   -0.2686 H   0  0  0  0  0  0  0  0  0  0  0  0
    2.7598   -3.3182   -4.2785 H   0  0  0  0  0  0  0  0  0  0  0  0
    3.0078   -2.5581   -6.7069 H   0  0  0  0  0  0  0  0  0  0  0  0
    3.6646   -1.0729   -6.1336 H   0  0  0  0  0  0  0  0  0  0  0  0
    5.4471   -2.1311   -2.6368 H   0  0  0  0  0  0  0  0  0  0  0  0
    6.3831   -0.8233   -3.4266 H   0  0  0  0  0  0  0  0  0  0  0  0
    4.6958   -0.9351   -3.6970 H   0  0  0  0  0  0  0  0  0  0  0  0
    7.7724   -2.9650   -3.9160 H   0  0  0  0  0  0  0  0  0  0  0  0
    8.5343   -5.7060   -5.8990 H   0  0  0  0  0  0  0  0  0  0  0  0
    9.3195   -4.3180   -6.7013 H   0  0  0  0  0  0  0  0  0  0  0  0
    9.3026   -4.4369   -4.9313 H   0  0  0  0  0  0  0  0  0  0  0  0
    4.7948   -3.6013   -7.7313 H   0  0  0  0  0  0  0  0  0  0  0  0
    3.2253    2.7602   -5.4105 H   0  0  0  0  0  0  0  0  0  0  0  0
    2.2446    4.1343   -3.7481 H   0  0  0  0  0  0  0  0  0  0  0  0
   -0.1029    2.7887   -2.3186 H   0  0  0  0  0  0  0  0  0  0  0  0
    0.0878    4.5298   -2.5860 H   0  0  0  0  0  0  0  0  0  0  0  0
   -0.1071    3.4283   -3.9644 H   0  0  0  0  0  0  0  0  0  0  0  0
    3.6382    3.4855   -1.8239 H   0  0  0  0  0  0  0  0  0  0  0  0
    2.3237    4.5583   -1.3057 H   0  0  0  0  0  0  0  0  0  0  0  0
    2.2340    2.8185   -0.9850 H   0  0  0  0  0  0  0  0  0  0  0  0
   -0.5264   -3.7634   -0.0836 H   0  0  0  0  0  0  0  0  0  0  0  0
    2.0926   -4.0900   -1.6155 H   0  0  0  0  0  0  0  0  0  0  0  0
    0.7345   -5.2009   -1.7426 H   0  0  0  0  0  0  0  0  0  0  0  0
    0.5061   -3.5497   -2.2726 H   0  0  0  0  0  0  0  0  0  0  0  0
    2.0098   -4.7714    0.7222 H   0  0  0  0  0  0  0  0  0  0  0  0
  1  2  1  0  0  0  0
  1 30  1  0  0  0  0
  1 31  1  0  0  0  0
  1 32  1  0  0  0  0
  2 33  1  0  0  0  0
  2 34  1  0  0  0  0
  3 27  1  0  0  0  0
  3 35  1  6  0  0  0
  3  4  1  0  0  0  0
  3  2  1  0  0  0  0
  4  5  1  0  0  0  0
  4 36  1  0  0  0  0
  5  6  2  0  0  0  0
  5 26  1  0  0  0  0
  6  7  1  0  0  0  0
  7  8  1  0  0  0  0
  7 18  2  0  0  0  0
  8  9  1  0  0  0  0
  8 37  1  0  0  0  0
  9 10  1  0  0  0  0
  9 38  1  0  0  0  0
  9 39  1  0  0  0  0
 10 11  2  0  0  0  0
 10 17  1  0  0  0  0
 11 12  1  0  0  0  0
 11 13  1  0  0  0  0
 12 40  1  0  0  0  0
 12 41  1  0  0  0  0
 12 42  1  0  0  0  0
 13 14  2  0  0  0  0
 13 43  1  0  0  0  0
 14 15  1  0  0  0  0
 14 16  1  0  0  0  0
 15 44  1  0  0  0  0
 15 45  1  0  0  0  0
 15 46  1  0  0  0  0
 16 17  2  0  0  0  0
 17 47  1  0  0  0  0
 18 19  1  0  0  0  0
 18 25  1  0  0  0  0
 19 20  2  0  0  0  0
 20 21  1  0  0  0  0
 20 48  1  0  0  0  0
 21 22  1  0  0  0  0
 21 25  1  0  0  0  0
 22 23  1  0  0  0  0
 22 24  1  0  0  0  0
 22 49  1  0  0  0  0
 23 50  1  0  0  0  0
 23 51  1  0  0  0  0
 23 52  1  0  0  0  0
 24 53  1  0  0  0  0
 24 54  1  0  0  0  0
 24 55  1  0  0  0  0
 25 26  2  0  0  0  0
 27 28  1  0  0  0  0
 27 29  1  0  0  0  0
 27 56  1  1  0  0  0
 28 57  1  0  0  0  0
 28 58  1  0  0  0  0
 28 59  1  0  0  0  0
 29 60  1  0  0  0  0
M  END
>  <DRUGBANK_ID>
DB15425

>  <COMMON_NAME>
CYC-065

>  <CAS_NUMBER>
1070790-89-4

>  <UNII>
YET2XNU791

$$$$
