
 OpenBabel10282417203D

 43 44  0  0  0  0  0  0  0  0999 V2000
    0.9598   -0.0555   -0.1176 C   0  0  0  0  0  0  0  0  0  0  0  0
    0.4441    0.5351    1.1849 C   0  0  0  0  0  0  0  0  0  0  0  0
    0.8891    1.9967    1.3555 C   0  0  3  0  0  0  0  0  0  0  0  0
    0.2968    2.8175    0.1832 C   0  0  0  0  0  0  0  0  0  0  0  0
    0.4878    2.5816    2.7444 C   0  0  3  0  0  0  0  0  0  0  0  0
    0.9749    1.7052    3.9141 C   0  0  0  0  0  0  0  0  0  0  0  0
    1.0216    4.0304    2.9746 C   0  0  3  0  0  0  0  0  0  0  0  0
   -0.0407    4.9753    2.7149 N   0  0  0  0  0  0  0  0  0  0  0  0
    0.2614    6.3300    2.8313 C   0  0  0  0  0  0  0  0  0  0  0  0
   -0.7640    7.2387    3.1006 C   0  0  0  0  0  0  0  0  0  0  0  0
   -0.5538    8.6280    3.0664 C   0  0  0  0  0  0  0  0  0  0  0  0
    0.6955    9.1274    2.6943 C   0  0  0  0  0  0  0  0  0  0  0  0
    1.7488    8.2295    2.4516 C   0  0  0  0  0  0  0  0  0  0  0  0
    1.5257    6.8551    2.5604 C   0  0  0  0  0  0  0  0  0  0  0  0
    2.8697    5.7619    2.2719 S   0  0  0  0  0  0  0  0  0  0  0  0
    3.6625    5.6701    3.4782 O   0  0  0  0  0  0  0  0  0  0  0  0
    3.4308    6.0709    0.9797 O   0  0  0  0  0  0  0  0  0  0  0  0
    2.1048    4.3182    2.0683 N   0  0  0  0  0  0  0  0  0  0  0  0
    1.0956   10.8379    2.4862 S   0  0  0  0  0  0  0  0  0  0  0  0
    2.0701   11.1703    3.4993 O   0  0  0  0  0  0  0  0  0  0  0  0
    1.3491   11.0528    1.0809 O   0  0  0  0  0  0  0  0  0  0  0  0
   -0.2592   11.7346    2.8604 N   0  0  0  0  0  0  0  0  0  0  0  0
   -1.9260    9.5593    3.5398 Cl  0  0  0  0  0  0  0  0  0  0  0  0
    0.5864    0.4853   -0.9898 H   0  0  0  0  0  0  0  0  0  0  0  0
    0.6314   -1.0906   -0.2179 H   0  0  0  0  0  0  0  0  0  0  0  0
    2.0545   -0.0249   -0.1377 H   0  0  0  0  0  0  0  0  0  0  0  0
   -0.6498    0.4831    1.2218 H   0  0  0  0  0  0  0  0  0  0  0  0
    0.8280   -0.0946    1.9920 H   0  0  0  0  0  0  0  0  0  0  0  0
    1.9882    1.9984    1.2977 H   0  0  0  0  0  0  0  0  0  0  0  0
   -0.7875    2.6977    0.1516 H   0  0  0  0  0  0  0  0  0  0  0  0
    0.4543    3.8947    0.1964 H   0  0  0  0  0  0  0  0  0  0  0  0
    0.7357    2.4995   -0.7659 H   0  0  0  0  0  0  0  0  0  0  0  0
   -0.6110    2.5712    2.8037 H   0  0  0  0  0  0  0  0  0  0  0  0
    2.0679    1.6567    3.9358 H   0  0  0  0  0  0  0  0  0  0  0  0
    0.6286    2.1116    4.8717 H   0  0  0  0  0  0  0  0  0  0  0  0
    0.5827    0.6864    3.8654 H   0  0  0  0  0  0  0  0  0  0  0  0
    1.3663    4.1272    4.0125 H   0  0  0  0  0  0  0  0  0  0  0  0
   -0.9608    4.6942    3.0462 H   0  0  0  0  0  0  0  0  0  0  0  0
   -1.7545    6.8649    3.3577 H   0  0  0  0  0  0  0  0  0  0  0  0
    2.7397    8.5856    2.1654 H   0  0  0  0  0  0  0  0  0  0  0  0
    1.8702    4.3029    1.0858 H   0  0  0  0  0  0  0  0  0  0  0  0
   -0.6157   11.5433    3.7968 H   0  0  0  0  0  0  0  0  0  0  0  0
   -0.1277   12.7268    2.6709 H   0  0  0  0  0  0  0  0  0  0  0  0
  1  2  1  0  0  0  0
  1 24  1  0  0  0  0
  1 25  1  0  0  0  0
  1 26  1  0  0  0  0
  2  3  1  0  0  0  0
  2 27  1  0  0  0  0
  2 28  1  0  0  0  0
  3  4  1  0  0  0  0
  3  5  1  0  0  0  0
  3 29  1  0  0  0  0
  4 30  1  0  0  0  0
  4 31  1  0  0  0  0
  4 32  1  0  0  0  0
  5  6  1  0  0  0  0
  5  7  1  0  0  0  0
  5 33  1  0  0  0  0
  6 34  1  0  0  0  0
  6 35  1  0  0  0  0
  6 36  1  0  0  0  0
  7  8  1  0  0  0  0
  7 18  1  0  0  0  0
  7 37  1  0  0  0  0
  8  9  1  0  0  0  0
  8 38  1  0  0  0  0
  9 10  2  0  0  0  0
  9 14  1  0  0  0  0
 10 11  1  0  0  0  0
 10 39  1  0  0  0  0
 11 12  2  0  0  0  0
 11 23  1  0  0  0  0
 12 13  1  0  0  0  0
 12 19  1  0  0  0  0
 13 14  2  0  0  0  0
 13 40  1  0  0  0  0
 14 15  1  0  0  0  0
 15 16  2  0  0  0  0
 15 17  2  0  0  0  0
 15 18  1  0  0  0  0
 18 41  1  0  0  0  0
 19 20  2  0  0  0  0
 19 21  2  0  0  0  0
 19 22  1  0  0  0  0
 22 42  1  0  0  0  0
 22 43  1  0  0  0  0
M  END
>  <DRUGBANK_ID>
DB13430

>  <COMMON_NAME>
Mebutizide

>  <CAS_NUMBER>
3568-00-1

>  <UNII>
7738AS8324

>  <SYNONYMS>
Mebutizide

$$$$
