TN4
 OpenBabel10282417173D

 55 57  0  0  0  0  0  0  0  0999 V2000
    2.8186    4.0442   -0.7805 N   0  0  0  0  0  0  0  0  0  0  0  0
    3.2199    5.0312   -1.6765 C   0  0  0  0  0  0  0  0  0  0  0  0
    4.0576    5.8692   -1.4578 O   0  0  0  0  0  0  0  0  0  0  0  0
    2.4766    5.1271   -2.8185 O   0  0  0  0  0  0  0  0  0  0  0  0
    1.8539    4.0032   -3.4280 C   0  0  2  0  0  0  0  0  0  0  0  0
    0.3230    4.0548   -3.2908 C   0  0  0  0  0  0  0  0  0  0  0  0
   -0.3375    2.8464   -3.9421 C   0  0  0  0  0  0  0  0  0  0  0  0
    0.4030    1.6409   -3.4941 C   0  0  2  0  0  0  0  0  0  0  0  0
   -0.3829    0.4991   -3.4569 O   0  0  0  0  0  0  0  0  0  0  0  0
    0.0038    0.9229   -2.1313 C   0  0  0  0  0  0  0  0  0  0  0  0
    1.8776    1.6144   -3.8667 C   0  0  2  0  0  0  0  0  0  0  0  0
    2.6515    2.6797   -3.2174 C   0  0  2  0  0  0  0  0  0  0  0  0
    3.3324    2.1430   -2.0705 O   0  0  0  0  0  0  0  0  0  0  0  0
    2.9169    0.9348   -1.4158 C   0  0  0  0  0  0  0  0  0  0  0  0
    2.4354    1.2904   -5.1898 C   0  0  1  0  0  0  0  0  0  0  0  0
    2.5293    2.2500   -6.2303 O   0  0  0  0  0  0  0  0  0  0  0  0
    3.8131    1.9529   -5.6648 C   0  0  2  0  0  0  0  0  0  0  0  0
    4.8223    1.2983   -6.5073 C   0  0  0  0  0  0  0  0  0  0  0  0
    5.3912    0.1257   -5.7714 C   0  0  0  0  0  0  0  0  0  0  0  0
    5.1214   -1.1347   -6.1407 C   0  0  0  0  0  0  0  0  0  0  0  0
    5.5762   -2.3014   -5.3285 C   0  0  0  0  0  0  0  0  0  0  0  0
    4.3234   -1.4111   -7.3814 C   0  0  0  0  0  0  0  0  0  0  0  0
    2.0135   -0.1072   -5.4351 C   0  0  0  0  0  0  0  0  0  0  0  0
    3.5777    3.4870    0.2299 C   0  0  0  0  0  0  0  0  0  0  0  0
    3.2435    2.4209    0.7597 O   0  0  0  0  0  0  0  0  0  0  0  0
    4.7444    4.2463    0.7417 C   0  0  0  0  0  0  0  0  0  0  0  0
    6.1462    4.1230   -0.3256 Cl  0  0  0  0  0  0  0  0  0  0  0  0
    1.9643    4.1917   -4.5153 H   0  0  0  0  0  0  0  0  0  0  0  0
    2.1470    0.7028   -3.3867 H   0  0  0  0  0  0  0  0  0  0  0  0
    3.5577    3.0325   -3.6840 H   0  0  0  0  0  0  0  0  0  0  0  0
    4.3589    2.7392   -5.1535 H   0  0  0  0  0  0  0  0  0  0  0  0
    2.2126    3.3301   -1.1430 H   0  0  0  0  0  0  0  0  0  0  0  0
    0.0339    4.1585   -2.2421 H   0  0  0  0  0  0  0  0  0  0  0  0
   -0.0383    4.9613   -3.7977 H   0  0  0  0  0  0  0  0  0  0  0  0
   -1.4113    2.7748   -3.7160 H   0  0  0  0  0  0  0  0  0  0  0  0
   -0.2661    2.9202   -5.0341 H   0  0  0  0  0  0  0  0  0  0  0  0
   -0.4089    0.0848   -1.5679 H   0  0  0  0  0  0  0  0  0  0  0  0
   -0.3864    1.6900   -1.4561 H   0  0  0  0  0  0  0  0  0  0  0  0
    1.9401    1.1280   -0.9854 H   0  0  0  0  0  0  0  0  0  0  0  0
    2.9375    0.0179   -2.0156 H   0  0  0  0  0  0  0  0  0  0  0  0
    3.5959    0.6936   -0.6022 H   0  0  0  0  0  0  0  0  0  0  0  0
    4.3598    1.0596   -7.4624 H   0  0  0  0  0  0  0  0  0  0  0  0
    5.6519    1.9808   -6.7473 H   0  0  0  0  0  0  0  0  0  0  0  0
    5.9584    0.3325   -4.8617 H   0  0  0  0  0  0  0  0  0  0  0  0
    4.7155   -2.8831   -4.9829 H   0  0  0  0  0  0  0  0  0  0  0  0
    6.2212   -2.9368   -5.9386 H   0  0  0  0  0  0  0  0  0  0  0  0
    6.1420   -1.9903   -4.4431 H   0  0  0  0  0  0  0  0  0  0  0  0
    3.3469   -0.9447   -7.3407 H   0  0  0  0  0  0  0  0  0  0  0  0
    4.8151   -0.9785   -8.2559 H   0  0  0  0  0  0  0  0  0  0  0  0
    4.1517   -2.4726   -7.5421 H   0  0  0  0  0  0  0  0  0  0  0  0
    1.8771   -0.4667   -6.4335 H   0  0  0  0  0  0  0  0  0  0  0  0
    2.5908   -0.7682   -4.7685 H   0  0  0  0  0  0  0  0  0  0  0  0
    0.9954   -0.1961   -5.0589 H   0  0  0  0  0  0  0  0  0  0  0  0
    4.3976    5.2682    0.8931 H   0  0  0  0  0  0  0  0  0  0  0  0
    5.0240    3.8032    1.6976 H   0  0  0  0  0  0  0  0  0  0  0  0
  1  2  1  0  0  0  0
  1 24  1  0  0  0  0
  1 32  1  0  0  0  0
  2  3  2  0  0  0  0
  2  4  1  0  0  0  0
  5  6  1  0  0  0  0
  5 12  1  0  0  0  0
  5  4  1  0  0  0  0
  5 28  1  6  0  0  0
  6  7  1  0  0  0  0
  6 33  1  0  0  0  0
  6 34  1  0  0  0  0
  7  8  1  0  0  0  0
  7 35  1  0  0  0  0
  7 36  1  0  0  0  0
  8  9  1  6  0  0  0
  8 10  1  0  0  0  0
  8 11  1  0  0  0  0
  9 10  1  0  0  0  0
 10 37  1  0  0  0  0
 10 38  1  0  0  0  0
 11 12  1  0  0  0  0
 11 29  1  1  0  0  0
 12 13  1  0  0  0  0
 12 30  1  6  0  0  0
 13 14  1  0  0  0  0
 14 39  1  0  0  0  0
 14 40  1  0  0  0  0
 14 41  1  0  0  0  0
 15 16  1  0  0  0  0
 15 17  1  0  0  0  0
 15 11  1  0  0  0  0
 15 23  1  6  0  0  0
 16 17  1  0  0  0  0
 17 31  1  1  0  0  0
 17 18  1  0  0  0  0
 18 19  1  0  0  0  0
 18 42  1  0  0  0  0
 18 43  1  0  0  0  0
 19 20  2  0  0  0  0
 19 44  1  0  0  0  0
 20 21  1  0  0  0  0
 20 22  1  0  0  0  0
 21 45  1  0  0  0  0
 21 46  1  0  0  0  0
 21 47  1  0  0  0  0
 22 48  1  0  0  0  0
 22 49  1  0  0  0  0
 22 50  1  0  0  0  0
 23 51  1  0  0  0  0
 23 52  1  0  0  0  0
 23 53  1  0  0  0  0
 24 25  2  0  0  0  0
 24 26  1  0  0  0  0
 26 27  1  0  0  0  0
 26 54  1  0  0  0  0
 26 55  1  0  0  0  0
M  END
>  <DRUGBANK_ID>
DB08633

>  <SECONDARY_ACCESSION_NUMBERS>
DB12828

>  <COMMON_NAME>
TNP-470

>  <CAS_NUMBER>
129298-91-5

>  <UNII>
X47GR46481

>  <SYNONYMS>
O-(chloroacetylcarbamoyl)fumagillol; O-chloroacetylcarbamoylfumagillol

$$$$
