
 OpenBabel10282417153D

 67 71  0  0  0  0  0  0  0  0999 V2000
   -1.2711    0.0421   -0.2216 O   0  0  0  0  0  0  0  0  0  0  0  0
    1.0786    0.1605    0.0843 O   0  0  0  0  0  0  0  0  0  0  0  0
   -0.2483    4.8904   -0.9269 N   0  0  0  0  0  0  0  0  0  0  0  0
    0.7218    6.5050    1.5551 N   0  0  0  0  0  0  0  0  0  0  0  0
    0.5445    4.4602    0.1890 C   0  0  0  0  0  0  0  0  0  0  0  0
   -0.1515    6.3534   -0.8348 C   0  0  0  0  0  0  0  0  0  0  0  0
    0.1154    5.2309    1.5345 C   0  0  0  0  0  0  0  0  0  0  0  0
   -0.0676    7.1551    0.5153 C   0  0  0  0  0  0  0  0  0  0  0  0
   -1.4773    4.1128   -1.0426 C   0  0  0  0  0  0  0  0  0  0  0  0
    2.2282    6.3020    1.7190 C   0  0  0  0  0  0  0  0  0  0  0  0
   -1.1826    2.7686   -1.8116 C   0  0  0  0  0  0  0  0  0  0  0  0
   -0.0240    1.7972   -1.3419 C   0  0  0  0  0  0  0  0  0  0  0  0
   -0.1617    0.8973    0.0330 C   0  0  0  0  0  0  0  0  0  0  0  0
    3.0993    5.5617    0.6389 C   0  0  0  0  0  0  0  0  0  0  0  0
    2.7871    7.6332    2.0561 C   0  0  0  0  0  0  0  0  0  0  0  0
   -0.3284    1.3269    1.4840 C   0  0  0  0  0  0  0  0  0  0  0  0
   -0.7529   -1.2341    0.1034 C   0  0  0  0  0  0  0  0  0  0  0  0
    0.6971   -1.1469   -0.3015 C   0  0  0  0  0  0  0  0  0  0  0  0
    3.0072    6.0460   -0.6923 C   0  0  0  0  0  0  0  0  0  0  0  0
    2.3484    8.3189    3.1858 C   0  0  0  0  0  0  0  0  0  0  0  0
    3.7226    4.3073    0.8148 C   0  0  0  0  0  0  0  0  0  0  0  0
    3.6739    8.2200    1.1591 C   0  0  0  0  0  0  0  0  0  0  0  0
   -0.3736    0.8608    2.7929 C   0  0  0  0  0  0  0  0  0  0  0  0
   -0.4356    2.6277    1.6498 C   0  0  0  0  0  0  0  0  0  0  0  0
    3.2113    5.2436   -1.8016 C   0  0  0  0  0  0  0  0  0  0  0  0
    2.7924    9.6152    3.3521 C   0  0  0  0  0  0  0  0  0  0  0  0
    4.1268    3.5767   -0.3242 C   0  0  0  0  0  0  0  0  0  0  0  0
    4.1276    9.4829    1.3257 C   0  0  0  0  0  0  0  0  0  0  0  0
   -0.3509    1.8131    3.9211 C   0  0  0  0  0  0  0  0  0  0  0  0
    0.5630    2.9979    2.4804 C   0  0  0  0  0  0  0  0  0  0  0  0
    3.7954    4.0084   -1.6180 C   0  0  0  0  0  0  0  0  0  0  0  0
    3.6668   10.1885    2.4153 C   0  0  0  0  0  0  0  0  0  0  0  0
   -0.0162    3.1012    3.6540 C   0  0  0  0  0  0  0  0  0  0  0  0
    0.7642    3.4030    0.1182 H   0  0  0  0  0  0  0  0  0  0  0  0
    1.5568    4.5345   -0.0467 H   0  0  0  0  0  0  0  0  0  0  0  0
    0.8859    6.3993   -1.0474 H   0  0  0  0  0  0  0  0  0  0  0  0
   -0.4748    6.9186   -1.7000 H   0  0  0  0  0  0  0  0  0  0  0  0
   -0.9778    5.2051    1.6902 H   0  0  0  0  0  0  0  0  0  0  0  0
    0.4692    5.0312    2.5332 H   0  0  0  0  0  0  0  0  0  0  0  0
   -1.1059    7.2222    0.8969 H   0  0  0  0  0  0  0  0  0  0  0  0
    0.2863    8.1731    0.3977 H   0  0  0  0  0  0  0  0  0  0  0  0
   -2.2551    4.7132   -1.5139 H   0  0  0  0  0  0  0  0  0  0  0  0
   -2.0021    3.8388   -0.1188 H   0  0  0  0  0  0  0  0  0  0  0  0
    2.3930    5.7073    2.6461 H   0  0  0  0  0  0  0  0  0  0  0  0
   -0.9718    3.0621   -2.8545 H   0  0  0  0  0  0  0  0  0  0  0  0
   -2.0965    2.1668   -1.8529 H   0  0  0  0  0  0  0  0  0  0  0  0
    0.9579    2.2912   -1.4453 H   0  0  0  0  0  0  0  0  0  0  0  0
    0.0647    1.0605   -2.1678 H   0  0  0  0  0  0  0  0  0  0  0  0
   -0.8660   -1.3727    1.1826 H   0  0  0  0  0  0  0  0  0  0  0  0
   -1.3245   -1.9836   -0.4300 H   0  0  0  0  0  0  0  0  0  0  0  0
    1.3384   -1.8766    0.1910 H   0  0  0  0  0  0  0  0  0  0  0  0
    0.8172   -1.1991   -1.3861 H   0  0  0  0  0  0  0  0  0  0  0  0
    2.5338    7.0111   -0.8604 H   0  0  0  0  0  0  0  0  0  0  0  0
    1.6330    7.8658    3.8751 H   0  0  0  0  0  0  0  0  0  0  0  0
    3.7645    3.8050    1.7817 H   0  0  0  0  0  0  0  0  0  0  0  0
    4.0341    7.7291    0.2718 H   0  0  0  0  0  0  0  0  0  0  0  0
   -0.3204   -0.1882    3.0019 H   0  0  0  0  0  0  0  0  0  0  0  0
   -0.7789    3.0275    0.7559 H   0  0  0  0  0  0  0  0  0  0  0  0
    2.8003    5.5655   -2.7555 H   0  0  0  0  0  0  0  0  0  0  0  0
    2.4458   10.1870    4.2028 H   0  0  0  0  0  0  0  0  0  0  0  0
    4.6151    2.6121   -0.2135 H   0  0  0  0  0  0  0  0  0  0  0  0
    4.8174    9.8467    0.5774 H   0  0  0  0  0  0  0  0  0  0  0  0
   -0.3756    1.5900    4.9682 H   0  0  0  0  0  0  0  0  0  0  0  0
    1.4618    3.5301    2.1933 H   0  0  0  0  0  0  0  0  0  0  0  0
    3.9473    3.3726   -2.4837 H   0  0  0  0  0  0  0  0  0  0  0  0
    4.0023   11.2062    2.5217 H   0  0  0  0  0  0  0  0  0  0  0  0
    0.0716    3.9719    4.2913 H   0  0  0  0  0  0  0  0  0  0  0  0
  1 13  1  0  0  0  0
  1 17  1  0  0  0  0
  2 13  1  0  0  0  0
  2 18  1  0  0  0  0
  3  5  1  0  0  0  0
  3  6  1  0  0  0  0
  3  9  1  0  0  0  0
  4  7  1  0  0  0  0
  4  8  1  0  0  0  0
  4 10  1  0  0  0  0
  5  7  1  0  0  0  0
  5 34  1  0  0  0  0
  5 35  1  0  0  0  0
  6  8  1  0  0  0  0
  6 36  1  0  0  0  0
  6 37  1  0  0  0  0
  7 38  1  0  0  0  0
  7 39  1  0  0  0  0
  8 40  1  0  0  0  0
  8 41  1  0  0  0  0
  9 11  1  0  0  0  0
  9 42  1  0  0  0  0
  9 43  1  0  0  0  0
 10 14  1  0  0  0  0
 10 15  1  0  0  0  0
 10 44  1  0  0  0  0
 11 12  1  0  0  0  0
 11 45  1  0  0  0  0
 11 46  1  0  0  0  0
 12 13  1  0  0  0  0
 12 47  1  0  0  0  0
 12 48  1  0  0  0  0
 13 16  1  0  0  0  0
 14 19  2  0  0  0  0
 14 21  1  0  0  0  0
 15 20  2  0  0  0  0
 15 22  1  0  0  0  0
 16 23  2  0  0  0  0
 16 24  1  0  0  0  0
 17 18  1  0  0  0  0
 17 49  1  0  0  0  0
 17 50  1  0  0  0  0
 18 51  1  0  0  0  0
 18 52  1  0  0  0  0
 19 25  1  0  0  0  0
 19 53  1  0  0  0  0
 20 26  1  0  0  0  0
 20 54  1  0  0  0  0
 21 27  2  0  0  0  0
 21 55  1  0  0  0  0
 22 28  2  0  0  0  0
 22 56  1  0  0  0  0
 23 29  1  0  0  0  0
 23 57  1  0  0  0  0
 24 30  2  0  0  0  0
 24 58  1  0  0  0  0
 25 31  2  0  0  0  0
 25 59  1  0  0  0  0
 26 32  2  0  0  0  0
 26 60  1  0  0  0  0
 27 31  1  0  0  0  0
 27 61  1  0  0  0  0
 28 32  1  0  0  0  0
 28 62  1  0  0  0  0
 29 33  2  0  0  0  0
 29 63  1  0  0  0  0
 30 33  1  0  0  0  0
 30 64  1  0  0  0  0
 31 65  1  0  0  0  0
 32 66  1  0  0  0  0
 33 67  1  0  0  0  0
M  END
>  <DRUGBANK_ID>
DB06446

>  <COMMON_NAME>
Dotarizine

>  <CAS_NUMBER>
84625-59-2

>  <UNII>
IO7663S6D3

>  <SYNONYMS>
dotarizina; Dotarizine

$$$$
