
 OpenBabel10282417133D

 62 63  0  0  0  0  0  0  0  0999 V2000
    4.3150    4.0670   -1.0470 O   0  0  0  0  0  0  0  0  0  0  0  0
    5.9018   -2.7704    2.4169 O   0  0  0  0  0  0  0  0  0  0  0  0
    4.7049   -1.9708    0.6864 O   0  0  0  0  0  0  0  0  0  0  0  0
    4.7735    2.1433   -0.0186 N   0  0  0  0  0  0  0  0  0  0  0  0
    4.6058    0.9067    0.7696 C   0  0  2  0  0  0  0  0  0  0  0  0
    3.1680    0.8277    1.1239 C   0  0  0  0  0  0  0  0  0  0  0  0
    5.3006    0.6302    2.1373 C   0  0  0  0  0  0  0  0  0  0  0  0
    2.8393    1.9160    2.3836 C   0  0  0  0  0  0  0  0  0  0  0  0
    1.8083    5.2226    0.5262 C   0  0  0  0  0  0  0  0  0  0  0  0
    1.5194    3.8014    0.7771 C   0  0  0  0  0  0  0  0  0  0  0  0
    2.2739    2.9784   -0.2445 C   0  0  0  0  0  0  0  0  0  0  0  0
    1.0848    5.5075   -0.7158 C   0  0  0  0  0  0  0  0  0  0  0  0
    4.7770   -0.6965    2.7467 C   0  0  0  0  0  0  0  0  0  0  0  0
    3.8437    3.0846   -0.4544 C   0  0  0  0  0  0  0  0  0  0  0  0
   -0.4245    5.3645   -0.3982 C   0  0  0  0  0  0  0  0  0  0  0  0
    3.5621    3.4568    2.6707 C   0  0  0  0  0  0  0  0  0  0  0  0
   -0.9064    6.2467    0.7630 C   0  0  0  0  0  0  0  0  0  0  0  0
   -0.7648    7.7017    0.4123 C   0  0  0  0  0  0  0  0  0  0  0  0
    5.1125   -1.8532    1.8545 C   0  0  0  0  0  0  0  0  0  0  0  0
    2.8820    4.6207    3.1791 C   0  0  0  0  0  0  0  0  0  0  0  0
    4.8250    3.7893    2.1533 C   0  0  0  0  0  0  0  0  0  0  0  0
   -1.4231    8.6583    1.1574 C   0  0  0  0  0  0  0  0  0  0  0  0
    0.0437    8.1582   -0.6405 C   0  0  0  0  0  0  0  0  0  0  0  0
    3.3174    5.9635    2.8658 C   0  0  0  0  0  0  0  0  0  0  0  0
    5.2209    5.0942    1.7759 C   0  0  0  0  0  0  0  0  0  0  0  0
    4.4386    6.1858    2.0755 C   0  0  0  0  0  0  0  0  0  0  0  0
   -1.2350   10.0041    0.8422 C   0  0  0  0  0  0  0  0  0  0  0  0
    0.4321    9.4653   -0.7972 C   0  0  0  0  0  0  0  0  0  0  0  0
   -0.2839   10.4056   -0.1039 C   0  0  0  0  0  0  0  0  0  0  0  0
    5.7216    2.3946   -0.2885 H   0  0  0  0  0  0  0  0  0  0  0  0
    6.0957   -2.5942    3.3566 H   0  0  0  0  0  0  0  0  0  0  0  0
    4.9487    0.1552    0.0546 H   0  0  0  0  0  0  0  0  0  0  0  0
    2.7373    0.8042    0.1164 H   0  0  0  0  0  0  0  0  0  0  0  0
    2.7669   -0.1594    1.3711 H   0  0  0  0  0  0  0  0  0  0  0  0
    6.3862    0.6603    2.0705 H   0  0  0  0  0  0  0  0  0  0  0  0
    5.0647    1.3838    2.8926 H   0  0  0  0  0  0  0  0  0  0  0  0
    1.7380    1.9388    2.3763 H   0  0  0  0  0  0  0  0  0  0  0  0
    3.0109    1.3762    3.3162 H   0  0  0  0  0  0  0  0  0  0  0  0
    1.4852    5.8994    1.3167 H   0  0  0  0  0  0  0  0  0  0  0  0
    2.8641    5.4202    0.3696 H   0  0  0  0  0  0  0  0  0  0  0  0
    0.4809    3.4755    0.7838 H   0  0  0  0  0  0  0  0  0  0  0  0
    1.5703    3.6099    1.8186 H   0  0  0  0  0  0  0  0  0  0  0  0
    1.8610    3.1096   -1.2417 H   0  0  0  0  0  0  0  0  0  0  0  0
    1.7977    2.0473   -0.0426 H   0  0  0  0  0  0  0  0  0  0  0  0
    1.5573    6.4478   -0.9647 H   0  0  0  0  0  0  0  0  0  0  0  0
    1.3815    4.8874   -1.5574 H   0  0  0  0  0  0  0  0  0  0  0  0
    5.1474   -0.8223    3.7657 H   0  0  0  0  0  0  0  0  0  0  0  0
    3.6879   -0.7211    2.9004 H   0  0  0  0  0  0  0  0  0  0  0  0
   -1.0022    5.5283   -1.3013 H   0  0  0  0  0  0  0  0  0  0  0  0
   -0.6991    4.3383   -0.1351 H   0  0  0  0  0  0  0  0  0  0  0  0
   -1.9416    5.9846    1.0051 H   0  0  0  0  0  0  0  0  0  0  0  0
   -0.3795    6.0507    1.7160 H   0  0  0  0  0  0  0  0  0  0  0  0
    1.8445    4.5829    3.5275 H   0  0  0  0  0  0  0  0  0  0  0  0
    5.5149    3.0458    1.8074 H   0  0  0  0  0  0  0  0  0  0  0  0
   -2.1212    8.3562    1.9323 H   0  0  0  0  0  0  0  0  0  0  0  0
    0.3630    7.5253   -1.4520 H   0  0  0  0  0  0  0  0  0  0  0  0
    2.6193    6.8043    2.9637 H   0  0  0  0  0  0  0  0  0  0  0  0
    6.0562    5.2034    1.0832 H   0  0  0  0  0  0  0  0  0  0  0  0
    4.6051    7.1329    1.5582 H   0  0  0  0  0  0  0  0  0  0  0  0
   -1.8334   10.7522    1.3438 H   0  0  0  0  0  0  0  0  0  0  0  0
    1.2103    9.7061   -1.5152 H   0  0  0  0  0  0  0  0  0  0  0  0
   -0.1360   11.4477   -0.3516 H   0  0  0  0  0  0  0  0  0  0  0  0
  1 14  2  0  0  0  0
  2 19  1  0  0  0  0
  2 31  1  0  0  0  0
  3 19  2  0  0  0  0
  4 14  1  0  0  0  0
  4 30  1  0  0  0  0
  5  7  1  0  0  0  0
  5 32  1  6  0  0  0
  5  6  1  0  0  0  0
  5  4  1  0  0  0  0
  6  8  1  0  0  0  0
  6 33  1  0  0  0  0
  6 34  1  0  0  0  0
  7 13  1  0  0  0  0
  7 35  1  0  0  0  0
  7 36  1  0  0  0  0
  8 16  1  0  0  0  0
  8 37  1  0  0  0  0
  8 38  1  0  0  0  0
  9 10  1  0  0  0  0
  9 12  1  0  0  0  0
  9 39  1  0  0  0  0
  9 40  1  0  0  0  0
 10 11  1  0  0  0  0
 10 41  1  0  0  0  0
 10 42  1  0  0  0  0
 11 14  1  0  0  0  0
 11 43  1  0  0  0  0
 11 44  1  0  0  0  0
 12 15  1  0  0  0  0
 12 45  1  0  0  0  0
 12 46  1  0  0  0  0
 13 19  1  0  0  0  0
 13 47  1  0  0  0  0
 13 48  1  0  0  0  0
 15 17  1  0  0  0  0
 15 49  1  0  0  0  0
 15 50  1  0  0  0  0
 16 20  2  0  0  0  0
 16 21  1  0  0  0  0
 17 18  1  0  0  0  0
 17 51  1  0  0  0  0
 17 52  1  0  0  0  0
 18 22  2  0  0  0  0
 18 23  1  0  0  0  0
 20 24  1  0  0  0  0
 20 53  1  0  0  0  0
 21 25  2  0  0  0  0
 21 54  1  0  0  0  0
 22 27  1  0  0  0  0
 22 55  1  0  0  0  0
 23 28  2  0  0  0  0
 23 56  1  0  0  0  0
 24 26  2  0  0  0  0
 24 57  1  0  0  0  0
 25 26  1  0  0  0  0
 25 58  1  0  0  0  0
 26 59  1  0  0  0  0
 27 29  2  0  0  0  0
 27 60  1  0  0  0  0
 28 29  1  0  0  0  0
 28 61  1  0  0  0  0
 29 62  1  0  0  0  0
M  END
>  <DRUGBANK_ID>
DB03471

>  <SECONDARY_ACCESSION_NUMBERS>
EXPT00747

>  <COMMON_NAME>
6-phenyl-4(R)-(7-phenyl-heptanoylamino)-hexanoic acid

$$$$
