
 OpenBabel10282417183D

 60 60  0  0  0  0  0  0  0  0999 V2000
    1.0190    0.1546   -0.0419 C   0  0  0  0  0  0  0  0  0  0  0  0
    0.5861   -1.2522   -0.4216 C   0  0  0  0  0  0  0  0  0  0  0  0
    1.0811   -2.2644    0.6125 C   0  0  0  0  0  0  0  0  0  0  0  0
    0.5174   -1.9667    2.0062 C   0  0  0  0  0  0  0  0  0  0  0  0
   -1.0150   -1.9945    1.9944 C   0  0  0  0  0  0  0  0  0  0  0  0
   -1.5172   -3.3821    1.5850 C   0  0  0  0  0  0  0  0  0  0  0  0
   -1.0145   -4.4327    2.5798 C   0  0  0  0  0  0  0  0  0  0  0  0
   -1.5302   -4.1043    3.9845 C   0  0  0  0  0  0  0  0  0  0  0  0
   -3.0618   -4.1055    3.9824 C   0  0  0  0  0  0  0  0  0  0  0  0
   -3.5723   -5.4865    3.5583 C   0  0  0  0  0  0  0  0  0  0  0  0
   -3.0607   -6.5493    4.5362 C   0  0  0  0  0  0  0  0  0  0  0  0
   -3.5582   -6.2345    5.9470 C   0  0  0  0  0  0  0  0  0  0  0  0
   -5.0863   -6.2194    5.9685 C   0  0  0  0  0  0  0  0  0  0  0  0
   -5.6485   -7.5882    5.5723 C   0  0  0  0  0  0  0  0  0  0  0  0
   -5.1889   -8.6775    6.5463 C   0  0  0  0  0  0  0  0  0  0  0  0
   -5.6451   -8.3863    7.9789 C   0  0  0  0  0  0  0  0  0  0  0  0
   -7.1275   -8.3594    8.0006 N   0  3  0  0  0  0  0  0  0  0  0  0
   -7.7892   -9.5436    7.9521 C   0  0  0  0  0  0  0  0  0  0  0  0
   -9.1561   -9.5705    7.7328 C   0  0  0  0  0  0  0  0  0  0  0  0
   -9.8605   -8.3803    7.6484 C   0  0  0  0  0  0  0  0  0  0  0  0
   -9.1869   -7.1739    7.8040 C   0  0  0  0  0  0  0  0  0  0  0  0
   -7.8063   -7.1922    7.9618 C   0  0  0  0  0  0  0  0  0  0  0  0
    0.6113    0.4636    0.9262 H   0  0  0  0  0  0  0  0  0  0  0  0
    0.6685    0.8792   -0.7778 H   0  0  0  0  0  0  0  0  0  0  0  0
    2.1100    0.2028    0.0218 H   0  0  0  0  0  0  0  0  0  0  0  0
   -0.5054   -1.2883   -0.5203 H   0  0  0  0  0  0  0  0  0  0  0  0
    0.9775   -1.5156   -1.4081 H   0  0  0  0  0  0  0  0  0  0  0  0
    0.8073   -3.2765    0.2895 H   0  0  0  0  0  0  0  0  0  0  0  0
    2.1745   -2.2637    0.6531 H   0  0  0  0  0  0  0  0  0  0  0  0
    0.9272   -2.6840    2.7253 H   0  0  0  0  0  0  0  0  0  0  0  0
    0.8650   -1.0012    2.3819 H   0  0  0  0  0  0  0  0  0  0  0  0
   -1.3937   -1.6992    2.9785 H   0  0  0  0  0  0  0  0  0  0  0  0
   -1.4349   -1.2382    1.3263 H   0  0  0  0  0  0  0  0  0  0  0  0
   -2.6098   -3.3723    1.5167 H   0  0  0  0  0  0  0  0  0  0  0  0
   -1.2035   -3.6509    0.5730 H   0  0  0  0  0  0  0  0  0  0  0  0
   -1.3208   -5.4295    2.2494 H   0  0  0  0  0  0  0  0  0  0  0  0
    0.0761   -4.5016    2.5929 H   0  0  0  0  0  0  0  0  0  0  0  0
   -1.1158   -4.8146    4.7055 H   0  0  0  0  0  0  0  0  0  0  0  0
   -1.1615   -3.1417    4.3488 H   0  0  0  0  0  0  0  0  0  0  0  0
   -3.4331   -3.8084    4.9672 H   0  0  0  0  0  0  0  0  0  0  0  0
   -3.4771   -3.3392    3.3220 H   0  0  0  0  0  0  0  0  0  0  0  0
   -4.6634   -5.4724    3.4926 H   0  0  0  0  0  0  0  0  0  0  0  0
   -3.2687   -5.7466    2.5406 H   0  0  0  0  0  0  0  0  0  0  0  0
   -3.3730   -7.5418    4.2019 H   0  0  0  0  0  0  0  0  0  0  0  0
   -1.9688   -6.6166    4.5397 H   0  0  0  0  0  0  0  0  0  0  0  0
   -3.1455   -6.9539    6.6589 H   0  0  0  0  0  0  0  0  0  0  0  0
   -3.1805   -5.2736    6.3112 H   0  0  0  0  0  0  0  0  0  0  0  0
   -5.4120   -5.9026    6.9589 H   0  0  0  0  0  0  0  0  0  0  0  0
   -5.5021   -5.4512    5.3083 H   0  0  0  0  0  0  0  0  0  0  0  0
   -6.7394   -7.5415    5.5183 H   0  0  0  0  0  0  0  0  0  0  0  0
   -5.3488   -7.8606    4.5538 H   0  0  0  0  0  0  0  0  0  0  0  0
   -5.5700   -9.6445    6.2017 H   0  0  0  0  0  0  0  0  0  0  0  0
   -4.0977   -8.7802    6.5259 H   0  0  0  0  0  0  0  0  0  0  0  0
   -5.3040   -9.1627    8.6680 H   0  0  0  0  0  0  0  0  0  0  0  0
   -5.2703   -7.4317    8.3624 H   0  0  0  0  0  0  0  0  0  0  0  0
   -7.1982  -10.4468    8.0508 H   0  0  0  0  0  0  0  0  0  0  0  0
   -9.6695  -10.5247    7.6198 H   0  0  0  0  0  0  0  0  0  0  0  0
  -10.9339   -8.3858    7.4675 H   0  0  0  0  0  0  0  0  0  0  0  0
   -9.7275   -6.2329    7.7776 H   0  0  0  0  0  0  0  0  0  0  0  0
   -7.2425   -6.2629    8.0050 H   0  0  0  0  0  0  0  0  0  0  0  0
  1  2  1  0  0  0  0
  1 23  1  0  0  0  0
  1 24  1  0  0  0  0
  1 25  1  0  0  0  0
  2  3  1  0  0  0  0
  2 26  1  0  0  0  0
  2 27  1  0  0  0  0
  3  4  1  0  0  0  0
  3 28  1  0  0  0  0
  3 29  1  0  0  0  0
  4  5  1  0  0  0  0
  4 30  1  0  0  0  0
  4 31  1  0  0  0  0
  5  6  1  0  0  0  0
  5 32  1  0  0  0  0
  5 33  1  0  0  0  0
  6  7  1  0  0  0  0
  6 34  1  0  0  0  0
  6 35  1  0  0  0  0
  7  8  1  0  0  0  0
  7 36  1  0  0  0  0
  7 37  1  0  0  0  0
  8  9  1  0  0  0  0
  8 38  1  0  0  0  0
  8 39  1  0  0  0  0
  9 10  1  0  0  0  0
  9 40  1  0  0  0  0
  9 41  1  0  0  0  0
 10 11  1  0  0  0  0
 10 42  1  0  0  0  0
 10 43  1  0  0  0  0
 11 12  1  0  0  0  0
 11 44  1  0  0  0  0
 11 45  1  0  0  0  0
 12 13  1  0  0  0  0
 12 46  1  0  0  0  0
 12 47  1  0  0  0  0
 13 14  1  0  0  0  0
 13 48  1  0  0  0  0
 13 49  1  0  0  0  0
 14 15  1  0  0  0  0
 14 50  1  0  0  0  0
 14 51  1  0  0  0  0
 15 16  1  0  0  0  0
 15 52  1  0  0  0  0
 15 53  1  0  0  0  0
 16 17  1  0  0  0  0
 16 54  1  0  0  0  0
 16 55  1  0  0  0  0
 17 18  2  0  0  0  0
 17 22  1  0  0  0  0
 18 19  1  0  0  0  0
 18 56  1  0  0  0  0
 19 20  2  0  0  0  0
 19 57  1  0  0  0  0
 20 21  1  0  0  0  0
 20 58  1  0  0  0  0
 21 22  2  0  0  0  0
 21 59  1  0  0  0  0
 22 60  1  0  0  0  0
M  CHG  1  17   1
M  END
>  <DRUGBANK_ID>
DB11073

>  <SECONDARY_ACCESSION_NUMBERS>
DB05748

>  <COMMON_NAME>
Cetylpyridinium

>  <CAS_NUMBER>
7773-52-6

>  <UNII>
CUB7JI0JV3

>  <SYNONYMS>
1-hexadecylpyridinium

$$$$
