183
 OpenBabel10282417163D

 50 52  0  0  0  0  0  0  0  0999 V2000
    0.5872    0.1179   -0.0408 O   0  0  0  0  0  0  0  0  0  0  0  0
    0.3452   -0.9586    0.8632 C   0  0  0  0  0  0  0  0  0  0  0  0
    0.9399   -2.2747    0.3805 C   0  0  0  0  0  0  0  0  0  0  0  0
    2.3681   -2.2441    0.3948 O   0  0  0  0  0  0  0  0  0  0  0  0
    2.9809   -1.4405   -0.6116 C   0  0  0  0  0  0  0  0  0  0  0  0
    2.4146   -1.6638   -1.9264 N   0  0  0  0  0  0  0  0  0  0  0  0
    2.4241   -2.9678   -2.3950 C   0  0  0  0  0  0  0  0  0  0  0  0
    2.8225   -3.9475   -1.7649 O   0  0  0  0  0  0  0  0  0  0  0  0
    1.9204   -3.1490   -3.6404 N   0  0  0  0  0  0  0  0  0  0  0  0
    1.6326   -2.1663   -4.5300 C   0  0  0  0  0  0  0  0  0  0  0  0
    1.2568   -2.4506   -5.6508 O   0  0  0  0  0  0  0  0  0  0  0  0
    2.0504   -0.5994   -2.7371 C   0  0  0  0  0  0  0  0  0  0  0  0
    1.7825   -0.7733   -4.0384 C   0  0  0  0  0  0  0  0  0  0  0  0
    1.7066    0.3236   -5.0583 C   0  0  0  0  0  0  0  0  0  0  0  0
    2.9279    0.2744   -5.9632 C   0  0  0  0  0  0  0  0  0  0  0  0
    3.0599   -0.6372   -7.0171 C   0  0  0  0  0  0  0  0  0  0  0  0
    4.2078   -0.6788   -7.8082 C   0  0  0  0  0  0  0  0  0  0  0  0
    5.2316    0.2346   -7.5951 C   0  0  0  0  0  0  0  0  0  0  0  0
    3.9911    1.1451   -5.7260 C   0  0  0  0  0  0  0  0  0  0  0  0
    5.1047    1.1806   -6.5820 C   0  0  0  0  0  0  0  0  0  0  0  0
    6.0351    2.1864   -6.6025 O   0  0  0  0  0  0  0  0  0  0  0  0
    5.7493    3.3522   -5.8166 C   0  0  0  0  0  0  0  0  0  0  0  0
    4.6402    4.2446   -6.3706 C   0  0  0  0  0  0  0  0  0  0  0  0
    3.4856    3.7491   -7.0095 C   0  0  0  0  0  0  0  0  0  0  0  0
    2.4976    4.5506   -7.5521 C   0  0  0  0  0  0  0  0  0  0  0  0
    2.6233    5.9145   -7.4403 C   0  0  0  0  0  0  0  0  0  0  0  0
    3.7068    6.4506   -6.7397 C   0  0  0  0  0  0  0  0  0  0  0  0
    4.7225    5.6294   -6.2281 C   0  0  0  0  0  0  0  0  0  0  0  0
    1.4097    0.5455    0.2501 H   0  0  0  0  0  0  0  0  0  0  0  0
    0.7697   -0.6916    1.8352 H   0  0  0  0  0  0  0  0  0  0  0  0
   -0.7375   -1.0569    0.9496 H   0  0  0  0  0  0  0  0  0  0  0  0
    0.6381   -3.0799    1.0605 H   0  0  0  0  0  0  0  0  0  0  0  0
    0.5503   -2.5511   -0.6050 H   0  0  0  0  0  0  0  0  0  0  0  0
    2.9453   -0.3909   -0.3149 H   0  0  0  0  0  0  0  0  0  0  0  0
    4.0474   -1.6889   -0.6470 H   0  0  0  0  0  0  0  0  0  0  0  0
    1.8591   -4.0919   -3.9815 H   0  0  0  0  0  0  0  0  0  0  0  0
    2.0624    0.3953   -2.2940 H   0  0  0  0  0  0  0  0  0  0  0  0
    0.7799    0.2807   -5.6419 H   0  0  0  0  0  0  0  0  0  0  0  0
    1.6750    1.3045   -4.5559 H   0  0  0  0  0  0  0  0  0  0  0  0
    2.2792   -1.3553   -7.2427 H   0  0  0  0  0  0  0  0  0  0  0  0
    4.2785   -1.4154   -8.6033 H   0  0  0  0  0  0  0  0  0  0  0  0
    6.0998    0.2376   -8.2481 H   0  0  0  0  0  0  0  0  0  0  0  0
    3.8318    1.9220   -4.9825 H   0  0  0  0  0  0  0  0  0  0  0  0
    5.5834    3.0727   -4.7673 H   0  0  0  0  0  0  0  0  0  0  0  0
    6.6872    3.9237   -5.8053 H   0  0  0  0  0  0  0  0  0  0  0  0
    3.2825    2.7041   -7.1645 H   0  0  0  0  0  0  0  0  0  0  0  0
    1.6664    4.0752   -8.0662 H   0  0  0  0  0  0  0  0  0  0  0  0
    1.8793    6.5471   -7.9093 H   0  0  0  0  0  0  0  0  0  0  0  0
    3.7647    7.5249   -6.6040 H   0  0  0  0  0  0  0  0  0  0  0  0
    5.5859    6.0851   -5.7479 H   0  0  0  0  0  0  0  0  0  0  0  0
  1  2  1  0  0  0  0
  1 29  1  0  0  0  0
  2  3  1  0  0  0  0
  2 30  1  0  0  0  0
  2 31  1  0  0  0  0
  3  4  1  0  0  0  0
  3 32  1  0  0  0  0
  3 33  1  0  0  0  0
  4  5  1  0  0  0  0
  5  6  1  0  0  0  0
  5 34  1  0  0  0  0
  5 35  1  0  0  0  0
  6  7  1  0  0  0  0
  6 12  1  0  0  0  0
  7  8  2  0  0  0  0
  7  9  1  0  0  0  0
  9 10  1  0  0  0  0
  9 36  1  0  0  0  0
 10 11  2  0  0  0  0
 10 13  1  0  0  0  0
 12 13  2  0  0  0  0
 12 37  1  0  0  0  0
 13 14  1  0  0  0  0
 14 15  1  0  0  0  0
 14 38  1  0  0  0  0
 14 39  1  0  0  0  0
 15 16  2  0  0  0  0
 15 19  1  0  0  0  0
 16 17  1  0  0  0  0
 16 40  1  0  0  0  0
 17 18  2  0  0  0  0
 17 41  1  0  0  0  0
 18 20  1  0  0  0  0
 18 42  1  0  0  0  0
 19 20  2  0  0  0  0
 19 43  1  0  0  0  0
 20 21  1  0  0  0  0
 21 22  1  0  0  0  0
 22 23  1  0  0  0  0
 22 44  1  0  0  0  0
 22 45  1  0  0  0  0
 23 24  2  0  0  0  0
 23 28  1  0  0  0  0
 24 25  1  0  0  0  0
 24 46  1  0  0  0  0
 25 26  2  0  0  0  0
 25 47  1  0  0  0  0
 26 27  1  0  0  0  0
 26 48  1  0  0  0  0
 27 28  2  0  0  0  0
 27 49  1  0  0  0  0
 28 50  1  0  0  0  0
M  END
>  <DRUGBANK_ID>
DB06873

>  <COMMON_NAME>
1-((2-HYDROXYETHOXY)METHYL)-5-(3-(BENZYLOXY)BENZYL)PYRIMIDINE-2,4(1H,3H)-DIONE

>  <UNII>
TA375L4WSV

$$$$
