
 OpenBabel10282417173D

 56 59  0  0  1  0  0  0  0  0999 V2000
   -1.2939   -0.1080    0.2386 C   0  0  1  0  0  0  0  0  0  0  0  0
   -0.0200   -0.8306   -0.2030 C   0  0  1  0  0  0  0  0  0  0  0  0
    1.2375   -0.0751    0.2370 C   0  0  2  0  0  0  0  0  0  0  0  0
    1.1499    1.4088   -0.1887 C   0  0  1  0  0  0  0  0  0  0  0  0
   -0.0749    1.9996    0.2940 O   0  0  0  0  0  0  0  0  0  0  0  0
   -1.2541    1.3556   -0.2073 C   0  0  2  0  0  0  0  0  0  0  0  0
   -2.4881    2.0933    0.3336 C   0  0  0  0  0  0  0  0  0  0  0  0
   -0.0027   -2.1657    0.3179 O   0  0  0  0  0  0  0  0  0  0  0  0
    2.3417    2.1832    0.3522 C   0  0  0  0  0  0  0  0  0  0  0  0
    2.3751   -0.7511   -0.3186 O   0  0  0  0  0  0  0  0  0  0  0  0
   -2.4553   -0.7577   -0.2794 O   0  0  0  0  0  0  0  0  0  0  0  0
   -2.4618    3.4633   -0.0613 O   0  0  0  0  0  0  0  0  0  0  0  0
    3.6445    1.8599   -0.0365 C   0  0  0  0  0  0  0  0  0  0  0  0
    4.7406    2.5314    0.4975 C   0  0  0  0  0  0  0  0  0  0  0  0
    4.5655    3.6027    1.3812 C   0  0  0  0  0  0  0  0  0  0  0  0
    3.2642    3.9835    1.7501 C   0  0  0  0  0  0  0  0  0  0  0  0
    2.1805    3.2259    1.2661 C   0  0  0  0  0  0  0  0  0  0  0  0
    5.7800    4.3041    1.9115 C   0  0  0  0  0  0  0  0  0  0  0  0
    2.9736    5.1846    2.6374 C   0  0  0  0  0  0  0  0  0  0  0  0
    2.1580    6.2377    1.9261 C   0  0  0  0  0  0  0  0  0  0  0  0
    2.8322    7.7651    1.5259 S   0  0  0  0  0  0  0  0  0  0  0  0
    1.4089    8.2541    0.7127 C   0  0  0  0  0  0  0  0  0  0  0  0
    0.4349    7.2840    0.7608 C   0  0  0  0  0  0  0  0  0  0  0  0
    0.8461    6.1508    1.4984 C   0  0  0  0  0  0  0  0  0  0  0  0
    1.2991    9.5523    0.0553 C   0  0  0  0  0  0  0  0  0  0  0  0
    0.2676   10.4268    0.4320 C   0  0  0  0  0  0  0  0  0  0  0  0
    0.0512   11.6073   -0.2816 C   0  0  0  0  0  0  0  0  0  0  0  0
    0.8685   11.9055   -1.3623 C   0  0  0  0  0  0  0  0  0  0  0  0
    1.9014   11.0579   -1.7434 C   0  0  0  0  0  0  0  0  0  0  0  0
    2.1191    9.8749   -1.0318 C   0  0  0  0  0  0  0  0  0  0  0  0
    0.6479   13.0291   -2.0620 F   0  0  0  0  0  0  0  0  0  0  0  0
    1.1662    1.5076   -1.2827 H   0  0  0  0  0  0  0  0  0  0  0  0
   -1.3592   -0.1633    1.3324 H   0  0  0  0  0  0  0  0  0  0  0  0
   -0.0141   -0.9479   -1.2934 H   0  0  0  0  0  0  0  0  0  0  0  0
    1.3367   -0.1394    1.3285 H   0  0  0  0  0  0  0  0  0  0  0  0
   -1.2552    1.4432   -1.3018 H   0  0  0  0  0  0  0  0  0  0  0  0
   -3.4125    1.6506   -0.0504 H   0  0  0  0  0  0  0  0  0  0  0  0
   -2.5149    2.0652    1.4280 H   0  0  0  0  0  0  0  0  0  0  0  0
    0.1275   -2.1126    1.2816 H   0  0  0  0  0  0  0  0  0  0  0  0
    2.3306   -0.6857   -1.2876 H   0  0  0  0  0  0  0  0  0  0  0  0
   -2.3616   -0.8458   -1.2441 H   0  0  0  0  0  0  0  0  0  0  0  0
   -1.6145    3.8171    0.2656 H   0  0  0  0  0  0  0  0  0  0  0  0
    3.8384    1.0516   -0.7349 H   0  0  0  0  0  0  0  0  0  0  0  0
    5.7375    2.2049    0.2103 H   0  0  0  0  0  0  0  0  0  0  0  0
    1.1776    3.4626    1.6040 H   0  0  0  0  0  0  0  0  0  0  0  0
    5.7648    5.3565    1.6150 H   0  0  0  0  0  0  0  0  0  0  0  0
    5.8100    4.2209    3.0024 H   0  0  0  0  0  0  0  0  0  0  0  0
    6.7017    3.8610    1.5211 H   0  0  0  0  0  0  0  0  0  0  0  0
    2.4304    4.8355    3.5249 H   0  0  0  0  0  0  0  0  0  0  0  0
    3.9008    5.6233    3.0206 H   0  0  0  0  0  0  0  0  0  0  0  0
   -0.5313    7.3815    0.2800 H   0  0  0  0  0  0  0  0  0  0  0  0
    0.2125    5.2901    1.6499 H   0  0  0  0  0  0  0  0  0  0  0  0
   -0.3836   10.1820    1.2679 H   0  0  0  0  0  0  0  0  0  0  0  0
   -0.7566   12.2774   -0.0089 H   0  0  0  0  0  0  0  0  0  0  0  0
    2.5171   11.3064   -2.6003 H   0  0  0  0  0  0  0  0  0  0  0  0
    2.9014    9.1922   -1.3540 H   0  0  0  0  0  0  0  0  0  0  0  0
  1  2  1  0  0  0  0
  1  6  1  0  0  0  0
  1 11  1  0  0  0  0
  1 33  1  1  0  0  0
  2  3  1  0  0  0  0
  2  8  1  0  0  0  0
  2 34  1  6  0  0  0
  3  4  1  0  0  0  0
  3 10  1  0  0  0  0
  3 35  1  1  0  0  0
  4  5  1  0  0  0  0
  4  9  1  0  0  0  0
  4 32  1  6  0  0  0
  5  6  1  0  0  0  0
  6  7  1  0  0  0  0
  6 36  1  6  0  0  0
  7 12  1  0  0  0  0
  7 37  1  0  0  0  0
  7 38  1  0  0  0  0
  8 39  1  0  0  0  0
  9 13  2  0  0  0  0
  9 17  1  0  0  0  0
 10 40  1  0  0  0  0
 11 41  1  0  0  0  0
 12 42  1  0  0  0  0
 13 14  1  0  0  0  0
 13 43  1  0  0  0  0
 14 15  2  0  0  0  0
 14 44  1  0  0  0  0
 15 16  1  0  0  0  0
 15 18  1  0  0  0  0
 16 17  2  0  0  0  0
 16 19  1  0  0  0  0
 17 45  1  0  0  0  0
 18 46  1  0  0  0  0
 18 47  1  0  0  0  0
 18 48  1  0  0  0  0
 19 20  1  0  0  0  0
 19 49  1  0  0  0  0
 19 50  1  0  0  0  0
 20 21  1  0  0  0  0
 20 24  2  0  0  0  0
 21 22  1  0  0  0  0
 22 23  2  0  0  0  0
 22 25  1  0  0  0  0
 23 24  1  0  0  0  0
 23 51  1  0  0  0  0
 24 52  1  0  0  0  0
 25 26  2  0  0  0  0
 25 30  1  0  0  0  0
 26 27  1  0  0  0  0
 26 53  1  0  0  0  0
 27 28  2  0  0  0  0
 27 54  1  0  0  0  0
 28 29  1  0  0  0  0
 28 31  1  0  0  0  0
 29 30  2  0  0  0  0
 29 55  1  0  0  0  0
 30 56  1  0  0  0  0
M  END
>  <DRUGBANK_ID>
DB08907

>  <COMMON_NAME>
Canagliflozin

>  <CAS_NUMBER>
842133-18-0

>  <UNII>
6S49DGR869

>  <SYNONYMS>
Canagliflozin; Canagliflozin anhydrous; Canagliflozina

$$$$
