
 OpenBabel10282417223D

 37 39  0  0  0  0  0  0  0  0999 V2000
    0.9282    0.0873   -0.0041 C   0  0  0  0  0  0  0  0  0  0  0  0
    0.3152   -1.0704    0.5855 O   0  0  0  0  0  0  0  0  0  0  0  0
    1.1049   -2.2375    0.2916 C   0  0  0  0  0  0  0  0  0  0  0  0
    0.2458   -3.4383   -0.1055 C   0  0  0  0  0  0  0  0  0  0  0  0
   -0.4227   -4.1270    1.0766 C   0  0  0  0  0  0  0  0  0  0  0  0
    0.5636   -4.4674    2.1030 N   0  0  0  0  0  0  0  0  0  0  0  0
    1.1979   -3.2480    2.6061 C   0  0  0  0  0  0  0  0  0  0  0  0
    1.9858   -2.5513    1.4993 C   0  0  0  0  0  0  0  0  0  0  0  0
    0.5157    1.4106    0.5871 C   0  0  0  0  0  0  0  0  0  0  0  0
    1.1805    2.5673    0.1459 C   0  0  0  0  0  0  0  0  0  0  0  0
    0.8283    3.8246    0.6339 C   0  0  0  0  0  0  0  0  0  0  0  0
   -0.2127    3.9600    1.5580 C   0  0  0  0  0  0  0  0  0  0  0  0
   -0.6039    5.2211    2.0292 C   0  0  0  0  0  0  0  0  0  0  0  0
   -1.6478    5.3463    2.9448 C   0  0  0  0  0  0  0  0  0  0  0  0
   -2.3094    4.2102    3.4043 C   0  0  0  0  0  0  0  0  0  0  0  0
   -1.9294    2.9474    2.9465 C   0  0  0  0  0  0  0  0  0  0  0  0
   -0.8878    2.8024    2.0184 C   0  0  0  0  0  0  0  0  0  0  0  0
   -0.5077    1.5400    1.5302 C   0  0  0  0  0  0  0  0  0  0  0  0
    0.6630    0.0822   -1.0669 H   0  0  0  0  0  0  0  0  0  0  0  0
    2.0199    0.0203    0.0956 H   0  0  0  0  0  0  0  0  0  0  0  0
    1.7373   -2.0212   -0.5791 H   0  0  0  0  0  0  0  0  0  0  0  0
   -0.5152   -3.1457   -0.8370 H   0  0  0  0  0  0  0  0  0  0  0  0
    0.9049   -4.1686   -0.5947 H   0  0  0  0  0  0  0  0  0  0  0  0
   -1.2180   -3.5008    1.4964 H   0  0  0  0  0  0  0  0  0  0  0  0
   -0.8942   -5.0525    0.7255 H   0  0  0  0  0  0  0  0  0  0  0  0
    0.0931   -4.9436    2.8724 H   0  0  0  0  0  0  0  0  0  0  0  0
    1.8820   -3.5127    3.4192 H   0  0  0  0  0  0  0  0  0  0  0  0
    0.4414   -2.5762    3.0298 H   0  0  0  0  0  0  0  0  0  0  0  0
    2.8127   -3.1956    1.1774 H   0  0  0  0  0  0  0  0  0  0  0  0
    2.4226   -1.6316    1.9056 H   0  0  0  0  0  0  0  0  0  0  0  0
    1.9801    2.4943   -0.5890 H   0  0  0  0  0  0  0  0  0  0  0  0
    1.3703    4.6994    0.2795 H   0  0  0  0  0  0  0  0  0  0  0  0
   -0.1008    6.1195    1.6766 H   0  0  0  0  0  0  0  0  0  0  0  0
   -1.9447    6.3300    3.2974 H   0  0  0  0  0  0  0  0  0  0  0  0
   -3.1240    4.3067    4.1165 H   0  0  0  0  0  0  0  0  0  0  0  0
   -2.4589    2.0714    3.3163 H   0  0  0  0  0  0  0  0  0  0  0  0
   -1.0217    0.6463    1.8807 H   0  0  0  0  0  0  0  0  0  0  0  0
  1  2  1  0  0  0  0
  1  9  1  0  0  0  0
  1 19  1  0  0  0  0
  1 20  1  0  0  0  0
  2  3  1  0  0  0  0
  3  4  1  0  0  0  0
  3  8  1  0  0  0  0
  3 21  1  0  0  0  0
  4  5  1  0  0  0  0
  4 22  1  0  0  0  0
  4 23  1  0  0  0  0
  5  6  1  0  0  0  0
  5 24  1  0  0  0  0
  5 25  1  0  0  0  0
  6  7  1  0  0  0  0
  6 26  1  0  0  0  0
  7  8  1  0  0  0  0
  7 27  1  0  0  0  0
  7 28  1  0  0  0  0
  8 29  1  0  0  0  0
  8 30  1  0  0  0  0
  9 10  2  0  0  0  0
  9 18  1  0  0  0  0
 10 11  1  0  0  0  0
 10 31  1  0  0  0  0
 11 12  2  0  0  0  0
 11 32  1  0  0  0  0
 12 13  1  0  0  0  0
 12 17  1  0  0  0  0
 13 14  2  0  0  0  0
 13 33  1  0  0  0  0
 14 15  1  0  0  0  0
 14 34  1  0  0  0  0
 15 16  2  0  0  0  0
 15 35  1  0  0  0  0
 16 17  1  0  0  0  0
 16 36  1  0  0  0  0
 17 18  2  0  0  0  0
 18 37  1  0  0  0  0
M  END
>  <DRUGBANK_ID>
DB15038

>  <COMMON_NAME>
Litoxetine

>  <CAS_NUMBER>
86811-09-8

>  <UNII>
9980ST005G

>  <SYNONYMS>
Litoxetine

$$$$
