219
 OpenBabel10282417103D

 59 60  0  0  1  0  0  0  0  0999 V2000
    0.9215    0.2549    0.8996 O   0  0  0  0  0  0  0  0  0  0  0  0
   -1.5666    0.0616    0.5229 O   0  0  0  0  0  0  0  0  0  0  0  0
   -1.9372    2.0137    1.5960 O   0  0  0  0  0  0  0  0  0  0  0  0
    0.8760    0.4813   -1.6968 N   0  3  0  0  0  0  0  0  0  0  0  0
    1.0427    1.2338    2.7431 C   0  0  0  0  0  0  0  0  0  0  0  0
    0.5809   -0.1746    3.2468 C   0  0  0  0  0  0  0  0  0  0  0  0
    0.5854    2.4283    3.4972 C   0  0  0  0  0  0  0  0  0  0  0  0
    0.5163    1.4649    1.3862 C   0  0  3  0  0  0  0  0  0  0  0  0
    1.0090   -0.3025    4.6606 C   0  0  0  0  0  0  0  0  0  0  0  0
    0.9989    2.2454    4.8982 C   0  0  0  0  0  0  0  0  0  0  0  0
    0.4713    0.9093    5.4072 C   0  0  0  0  0  0  0  0  0  0  0  0
    1.2784    2.7635    0.7634 C   0  0  0  0  0  0  0  0  0  0  0  0
   -0.2313   -0.5373   -1.8790 C   0  0  0  0  0  0  0  0  0  0  0  0
   -1.1174    1.2258    1.2316 C   0  0  0  0  0  0  0  0  0  0  0  0
    1.9692   -0.3333   -0.8346 C   0  0  0  0  0  0  0  0  0  0  0  0
    1.7171    1.1175   -2.7746 C   0  0  0  0  0  0  0  0  0  0  0  0
   -0.9702   -0.9530   -0.4692 C   0  0  0  0  0  0  0  0  0  0  0  0
   -0.1161    1.6445   -1.3283 C   0  0  0  0  0  0  0  0  0  0  0  0
    0.5241    3.9521    0.7962 C   0  0  0  0  0  0  0  0  0  0  0  0
    2.4808    2.8465   -0.0247 C   0  0  0  0  0  0  0  0  0  0  0  0
    2.8514   -1.4178   -1.3542 C   0  0  0  0  0  0  0  0  0  0  0  0
    0.9220    2.0599   -3.6451 C   0  0  0  0  0  0  0  0  0  0  0  0
    0.8484    5.0851    0.0411 C   0  0  0  0  0  0  0  0  0  0  0  0
    2.7706    3.9769   -0.8407 C   0  0  0  0  0  0  0  0  0  0  0  0
    1.9483    5.0917   -0.8050 C   0  0  0  0  0  0  0  0  0  0  0  0
    1.7182   -0.0545    1.3658 H   0  0  0  0  0  0  0  0  0  0  0  0
    2.1538    1.2131    2.7091 H   0  0  0  0  0  0  0  0  0  0  0  0
   -0.5002   -0.3029    3.1195 H   0  0  0  0  0  0  0  0  0  0  0  0
    1.0188   -1.0373    2.7080 H   0  0  0  0  0  0  0  0  0  0  0  0
    1.0611    3.3377    3.1192 H   0  0  0  0  0  0  0  0  0  0  0  0
   -0.4943    2.5502    3.3900 H   0  0  0  0  0  0  0  0  0  0  0  0
    0.6093   -1.2454    5.0416 H   0  0  0  0  0  0  0  0  0  0  0  0
    2.1043   -0.3562    4.6748 H   0  0  0  0  0  0  0  0  0  0  0  0
    0.5790    3.0979    5.4276 H   0  0  0  0  0  0  0  0  0  0  0  0
    2.0937    2.2936    4.9179 H   0  0  0  0  0  0  0  0  0  0  0  0
   -0.6213    0.9089    5.2855 H   0  0  0  0  0  0  0  0  0  0  0  0
    0.7308    0.8186    6.4524 H   0  0  0  0  0  0  0  0  0  0  0  0
    0.2220   -1.3909   -2.3779 H   0  0  0  0  0  0  0  0  0  0  0  0
   -0.9572   -0.0841   -2.5608 H   0  0  0  0  0  0  0  0  0  0  0  0
    2.6195    0.3310   -0.2641 H   0  0  0  0  0  0  0  0  0  0  0  0
    1.4257   -1.0596   -0.2252 H   0  0  0  0  0  0  0  0  0  0  0  0
    2.4933    1.7153   -2.2825 H   0  0  0  0  0  0  0  0  0  0  0  0
    2.2246    0.3211   -3.3069 H   0  0  0  0  0  0  0  0  0  0  0  0
   -0.3849   -1.6453    0.1367 H   0  0  0  0  0  0  0  0  0  0  0  0
   -1.8302   -1.5409   -0.8163 H   0  0  0  0  0  0  0  0  0  0  0  0
   -0.7509    1.9962   -2.1430 H   0  0  0  0  0  0  0  0  0  0  0  0
   -0.9323    1.3102   -0.7664 H   0  0  0  0  0  0  0  0  0  0  0  0
    0.3129    2.5310   -0.9693 H   0  0  0  0  0  0  0  0  0  0  0  0
   -0.4276    3.9556    1.3169 H   0  0  0  0  0  0  0  0  0  0  0  0
    3.1810    2.0389   -0.2062 H   0  0  0  0  0  0  0  0  0  0  0  0
    3.5948   -1.0451   -2.0400 H   0  0  0  0  0  0  0  0  0  0  0  0
    3.3772   -1.8273   -0.4643 H   0  0  0  0  0  0  0  0  0  0  0  0
    2.2328   -2.2331   -1.7265 H   0  0  0  0  0  0  0  0  0  0  0  0
    0.5616    2.9424   -3.0918 H   0  0  0  0  0  0  0  0  0  0  0  0
    1.5468    2.4901   -4.4140 H   0  0  0  0  0  0  0  0  0  0  0  0
    0.0651    1.5211   -4.0558 H   0  0  0  0  0  0  0  0  0  0  0  0
    0.1726    5.9344    0.0720 H   0  0  0  0  0  0  0  0  0  0  0  0
    3.5968    3.9651   -1.5602 H   0  0  0  0  0  0  0  0  0  0  0  0
    2.1430    5.9533   -1.4417 H   0  0  0  0  0  0  0  0  0  0  0  0
  1  8  1  0  0  0  0
  1 26  1  0  0  0  0
  2 14  1  0  0  0  0
  2 17  1  0  0  0  0
  3 14  2  0  0  0  0
  4 13  1  0  0  0  0
  4 15  1  0  0  0  0
  4 16  1  0  0  0  0
  4 18  1  0  0  0  0
  5  6  1  0  0  0  0
  5  7  1  0  0  0  0
  5  8  1  0  0  0  0
  5 27  1  0  0  0  0
  6  9  1  0  0  0  0
  6 28  1  0  0  0  0
  6 29  1  0  0  0  0
  7 10  1  0  0  0  0
  7 30  1  0  0  0  0
  7 31  1  0  0  0  0
  8 12  1  0  0  0  0
  8 14  1  0  0  0  0
  9 11  1  0  0  0  0
  9 32  1  0  0  0  0
  9 33  1  0  0  0  0
 10 11  1  0  0  0  0
 10 34  1  0  0  0  0
 10 35  1  0  0  0  0
 11 36  1  0  0  0  0
 11 37  1  0  0  0  0
 12 19  2  0  0  0  0
 12 20  1  0  0  0  0
 13 17  1  0  0  0  0
 13 38  1  0  0  0  0
 13 39  1  0  0  0  0
 15 21  1  0  0  0  0
 15 40  1  0  0  0  0
 15 41  1  0  0  0  0
 16 22  1  0  0  0  0
 16 42  1  0  0  0  0
 16 43  1  0  0  0  0
 17 44  1  0  0  0  0
 17 45  1  0  0  0  0
 18 46  1  0  0  0  0
 18 47  1  0  0  0  0
 18 48  1  0  0  0  0
 19 23  1  0  0  0  0
 19 49  1  0  0  0  0
 20 24  2  0  0  0  0
 20 50  1  0  0  0  0
 21 51  1  0  0  0  0
 21 52  1  0  0  0  0
 21 53  1  0  0  0  0
 22 54  1  0  0  0  0
 22 55  1  0  0  0  0
 22 56  1  0  0  0  0
 23 25  2  0  0  0  0
 23 57  1  0  0  0  0
 24 25  1  0  0  0  0
 24 58  1  0  0  0  0
 25 59  1  0  0  0  0
M  CHG  1   4   1
M  END
>  <DRUGBANK_ID>
DB00219

>  <SECONDARY_ACCESSION_NUMBERS>
APRD00189

>  <COMMON_NAME>
Oxyphenonium

>  <CAS_NUMBER>
14214-84-7

>  <UNII>
D2G5508Y7I

>  <SYNONYMS>
Oxyphenonium cation; Oxyphenonium ion

$$$$
