GNF
 OpenBabel10282417163D

 64 67  0  0  0  0  0  0  0  0999 V2000
    1.0966   -0.0633   -0.0930 O   0  0  0  0  0  0  0  0  0  0  0  0
    2.3337   -0.0433   -0.1168 C   0  0  0  0  0  0  0  0  0  0  0  0
    3.1656   -0.6720    1.0397 C   0  0  1  0  0  0  0  0  0  0  0  0
    4.0227   -1.7804    0.5728 N   0  0  0  0  0  0  0  0  0  0  0  0
    5.3693   -1.7390    0.6218 C   0  0  0  0  0  0  0  0  0  0  0  0
    5.9610   -1.4552    1.8266 O   0  0  0  0  0  0  0  0  0  0  0  0
    7.2984   -1.4734    1.5720 C   0  0  0  0  0  0  0  0  0  0  0  0
    8.3418   -1.2216    2.4594 C   0  0  0  0  0  0  0  0  0  0  0  0
    9.6317   -1.3330    1.9242 C   0  0  0  0  0  0  0  0  0  0  0  0
    9.8326   -1.6639    0.5779 C   0  0  0  0  0  0  0  0  0  0  0  0
    8.7477   -1.8976   -0.2836 C   0  0  0  0  0  0  0  0  0  0  0  0
    7.4516   -1.8015    0.2371 C   0  0  0  0  0  0  0  0  0  0  0  0
    6.2188   -1.9835   -0.3495 N   0  0  0  0  0  0  0  0  0  0  0  0
    3.9433    0.4217    1.7706 C   0  0  0  0  0  0  0  0  0  0  0  0
    3.0679    1.5213    2.3637 C   0  0  0  0  0  0  0  0  0  0  0  0
    3.7102    2.8769    2.0582 C   0  0  0  0  0  0  0  0  0  0  0  0
    2.9250    4.0051    2.7030 C   0  0  0  0  0  0  0  0  0  0  0  0
    2.7995    3.7887    4.2076 C   0  0  0  0  0  0  0  0  0  0  0  0
    2.1618    2.4402    4.5306 C   0  0  0  0  0  0  0  0  0  0  0  0
    2.9259    1.3009    3.8764 C   0  0  0  0  0  0  0  0  0  0  0  0
    3.0227    0.6067   -1.1138 N   0  0  0  0  0  0  0  0  0  0  0  0
    2.3395    1.3117   -2.1984 C   0  0  0  0  0  0  0  0  0  0  0  0
    2.7318    2.7934   -2.2790 C   0  0  0  0  0  0  0  0  0  0  0  0
    4.1433    2.8802   -2.6308 N   0  0  0  0  0  0  0  0  0  0  0  0
    4.5711    3.6779   -3.6738 C   0  0  0  0  0  0  0  0  0  0  0  0
    3.9813    4.9101   -3.9540 C   0  0  0  0  0  0  0  0  0  0  0  0
    4.3688    5.6653   -5.0617 C   0  0  0  0  0  0  0  0  0  0  0  0
    5.5933    3.2310   -4.5156 C   0  0  0  0  0  0  0  0  0  0  0  0
    6.0051    3.9980   -5.6142 C   0  0  0  0  0  0  0  0  0  0  0  0
    5.3657    5.2020   -5.9152 C   0  0  0  0  0  0  0  0  0  0  0  0
    5.7726    5.8315   -7.0609 O   0  0  0  0  0  0  0  0  0  0  0  0
    5.0261    6.9878   -7.4351 C   0  0  0  0  0  0  0  0  0  0  0  0
    2.4309   -1.1078    1.7287 H   0  0  0  0  0  0  0  0  0  0  0  0
    3.6178   -2.3145   -0.1887 H   0  0  0  0  0  0  0  0  0  0  0  0
    8.1697   -0.9651    3.4980 H   0  0  0  0  0  0  0  0  0  0  0  0
   10.4955   -1.1647    2.5667 H   0  0  0  0  0  0  0  0  0  0  0  0
   10.8466   -1.7465    0.1910 H   0  0  0  0  0  0  0  0  0  0  0  0
    8.9001   -2.1548   -1.3248 H   0  0  0  0  0  0  0  0  0  0  0  0
    4.4943   -0.0267    2.6016 H   0  0  0  0  0  0  0  0  0  0  0  0
    4.6910    0.8509    1.0912 H   0  0  0  0  0  0  0  0  0  0  0  0
    2.0640    1.5115    1.9233 H   0  0  0  0  0  0  0  0  0  0  0  0
    4.7463    2.8903    2.4217 H   0  0  0  0  0  0  0  0  0  0  0  0
    3.7527    3.0311    0.9728 H   0  0  0  0  0  0  0  0  0  0  0  0
    3.4234    4.9579    2.4988 H   0  0  0  0  0  0  0  0  0  0  0  0
    1.9268    4.0543    2.2515 H   0  0  0  0  0  0  0  0  0  0  0  0
    3.7964    3.8371    4.6639 H   0  0  0  0  0  0  0  0  0  0  0  0
    2.2010    4.5926    4.6457 H   0  0  0  0  0  0  0  0  0  0  0  0
    2.1398    2.2877    5.6148 H   0  0  0  0  0  0  0  0  0  0  0  0
    1.1240    2.4273    4.1775 H   0  0  0  0  0  0  0  0  0  0  0  0
    2.4162    0.3488    4.0694 H   0  0  0  0  0  0  0  0  0  0  0  0
    3.9194    1.2270    4.3398 H   0  0  0  0  0  0  0  0  0  0  0  0
    4.0339    0.5480   -1.1469 H   0  0  0  0  0  0  0  0  0  0  0  0
    2.6142    0.8079   -3.1323 H   0  0  0  0  0  0  0  0  0  0  0  0
    1.2532    1.2378   -2.0856 H   0  0  0  0  0  0  0  0  0  0  0  0
    2.0993    3.2618   -3.0445 H   0  0  0  0  0  0  0  0  0  0  0  0
    2.5376    3.3088   -1.3313 H   0  0  0  0  0  0  0  0  0  0  0  0
    4.8345    2.5768   -1.9556 H   0  0  0  0  0  0  0  0  0  0  0  0
    3.2067    5.3068   -3.3049 H   0  0  0  0  0  0  0  0  0  0  0  0
    3.8644    6.6101   -5.2243 H   0  0  0  0  0  0  0  0  0  0  0  0
    6.0388    2.2511   -4.3569 H   0  0  0  0  0  0  0  0  0  0  0  0
    6.8143    3.6393   -6.2455 H   0  0  0  0  0  0  0  0  0  0  0  0
    3.9595    6.7609   -7.5539 H   0  0  0  0  0  0  0  0  0  0  0  0
    5.1755    7.7932   -6.7081 H   0  0  0  0  0  0  0  0  0  0  0  0
    5.3959    7.3391   -8.4024 H   0  0  0  0  0  0  0  0  0  0  0  0
  1  2  2  0  0  0  0
  2  3  1  0  0  0  0
  2 21  1  0  0  0  0
  3  4  1  0  0  0  0
  3 14  1  0  0  0  0
  3 33  1  1  0  0  0
  4  5  1  0  0  0  0
  4 34  1  0  0  0  0
  5  6  1  0  0  0  0
  5 13  2  0  0  0  0
  6  7  1  0  0  0  0
  7  8  2  0  0  0  0
  7 12  1  0  0  0  0
  8  9  1  0  0  0  0
  8 35  1  0  0  0  0
  9 10  2  0  0  0  0
  9 36  1  0  0  0  0
 10 11  1  0  0  0  0
 10 37  1  0  0  0  0
 11 12  2  0  0  0  0
 11 38  1  0  0  0  0
 12 13  1  0  0  0  0
 14 15  1  0  0  0  0
 14 39  1  0  0  0  0
 14 40  1  0  0  0  0
 15 16  1  0  0  0  0
 15 20  1  0  0  0  0
 15 41  1  0  0  0  0
 16 17  1  0  0  0  0
 16 42  1  0  0  0  0
 16 43  1  0  0  0  0
 17 18  1  0  0  0  0
 17 44  1  0  0  0  0
 17 45  1  0  0  0  0
 18 19  1  0  0  0  0
 18 46  1  0  0  0  0
 18 47  1  0  0  0  0
 19 20  1  0  0  0  0
 19 48  1  0  0  0  0
 19 49  1  0  0  0  0
 20 50  1  0  0  0  0
 20 51  1  0  0  0  0
 21 22  1  0  0  0  0
 21 52  1  0  0  0  0
 22 23  1  0  0  0  0
 22 53  1  0  0  0  0
 22 54  1  0  0  0  0
 23 24  1  0  0  0  0
 23 55  1  0  0  0  0
 23 56  1  0  0  0  0
 24 25  1  0  0  0  0
 24 57  1  0  0  0  0
 25 26  1  0  0  0  0
 25 28  2  0  0  0  0
 26 27  2  0  0  0  0
 26 58  1  0  0  0  0
 27 30  1  0  0  0  0
 27 59  1  0  0  0  0
 28 29  1  0  0  0  0
 28 60  1  0  0  0  0
 29 30  2  0  0  0  0
 29 61  1  0  0  0  0
 30 31  1  0  0  0  0
 31 32  1  0  0  0  0
 32 62  1  0  0  0  0
 32 63  1  0  0  0  0
 32 64  1  0  0  0  0
M  END
>  <DRUGBANK_ID>
DB07839

>  <COMMON_NAME>
N~2~-1,3-BENZOXAZOL-2-YL-3-CYCLOHEXYL-N-{2-[(4-METHOXYPHENYL)AMINO]ETHYL}-L-ALANINAMIDE

$$$$
