B67
 OpenBabel10282417163D

 42 43  0  0  0  0  0  0  0  0999 V2000
    0.0375   -0.2468   -0.2932 F   0  0  0  0  0  0  0  0  0  0  0  0
    0.1424   -1.5930   -0.4192 C   0  0  0  0  0  0  0  0  0  0  0  0
    0.4573   -2.0381    0.8275 F   0  0  0  0  0  0  0  0  0  0  0  0
   -1.0849   -2.0960   -0.6989 F   0  0  0  0  0  0  0  0  0  0  0  0
    1.1599   -1.9926   -1.4389 C   0  0  0  0  0  0  0  0  0  0  0  0
    2.2630   -2.8366   -1.0384 C   0  0  0  0  0  0  0  0  0  0  0  0
    1.0570   -1.5286   -2.7643 C   0  0  0  0  0  0  0  0  0  0  0  0
    0.0595   -0.5856   -3.3149 N   0  3  0  0  0  0  0  0  0  0  0  0
    0.1738   -0.2392   -4.4901 O   0  0  0  0  0  0  0  0  0  0  0  0
   -0.8219   -0.1499   -2.5528 O   0  5  0  0  0  0  0  0  0  0  0  0
    2.0874   -1.8153   -3.6155 C   0  0  0  0  0  0  0  0  0  0  0  0
    3.2569   -2.3098   -3.0715 C   0  0  0  0  0  0  0  0  0  0  0  0
    3.3354   -3.0397   -1.8971 C   0  0  0  0  0  0  0  0  0  0  0  0
    4.3621   -4.0321   -1.6724 N   0  0  0  0  0  0  0  0  0  0  0  0
    5.2087   -4.7016   -2.6053 C   0  0  0  0  0  0  0  0  0  0  0  0
    6.0465   -5.5128   -2.2070 O   0  0  0  0  0  0  0  0  0  0  0  0
    4.9656   -4.4867   -4.1239 C   0  0  2  0  0  0  0  0  0  0  0  0
    5.5044   -3.1689   -4.3356 O   0  0  0  0  0  0  0  0  0  0  0  0
    3.4599   -4.8796   -4.2132 C   0  0  0  0  0  0  0  0  0  0  0  0
    5.6288   -5.3347   -5.2268 C   0  0  0  0  0  0  0  0  0  0  0  0
    5.4832   -4.8192   -6.6218 O   0  0  0  0  0  0  0  0  0  0  0  0
    4.2521   -4.5987   -7.2027 C   0  0  0  0  0  0  0  0  0  0  0  0
    3.3933   -3.5769   -6.8090 C   0  0  0  0  0  0  0  0  0  0  0  0
    3.8126   -2.6302   -5.9699 F   0  0  0  0  0  0  0  0  0  0  0  0
    2.0332   -3.6075   -7.1227 C   0  0  0  0  0  0  0  0  0  0  0  0
    1.1335   -3.0233   -6.3171 F   0  0  0  0  0  0  0  0  0  0  0  0
    1.6315   -4.2776   -8.2407 C   0  0  0  0  0  0  0  0  0  0  0  0
    0.3720   -4.1528   -8.6786 F   0  0  0  0  0  0  0  0  0  0  0  0
    2.5977   -4.9670   -8.9501 C   0  0  0  0  0  0  0  0  0  0  0  0
    2.3550   -5.2856  -10.2273 F   0  0  0  0  0  0  0  0  0  0  0  0
    3.8572   -5.2354   -8.3747 C   0  0  0  0  0  0  0  0  0  0  0  0
    4.7030   -6.0533   -9.0141 F   0  0  0  0  0  0  0  0  0  0  0  0
    2.2648   -3.2893   -0.0472 H   0  0  0  0  0  0  0  0  0  0  0  0
    2.0640   -1.5850   -4.6765 H   0  0  0  0  0  0  0  0  0  0  0  0
    4.0861   -2.1547   -3.7136 H   0  0  0  0  0  0  0  0  0  0  0  0
    4.3867   -4.4838   -0.7630 H   0  0  0  0  0  0  0  0  0  0  0  0
    6.2411   -3.1373   -4.9719 H   0  0  0  0  0  0  0  0  0  0  0  0
    2.9468   -4.4744   -5.0402 H   0  0  0  0  0  0  0  0  0  0  0  0
    3.3249   -5.9606   -4.2386 H   0  0  0  0  0  0  0  0  0  0  0  0
    2.7656   -4.5689   -3.4444 H   0  0  0  0  0  0  0  0  0  0  0  0
    6.7140   -5.3519   -5.0512 H   0  0  0  0  0  0  0  0  0  0  0  0
    5.2940   -6.3742   -5.1777 H   0  0  0  0  0  0  0  0  0  0  0  0
  1  2  1  0  0  0  0
  2  3  1  0  0  0  0
  2  4  1  0  0  0  0
  2  5  1  0  0  0  0
  5  6  2  0  0  0  0
  5  7  1  0  0  0  0
  6 13  1  0  0  0  0
  6 33  1  0  0  0  0
  7  8  1  0  0  0  0
  7 11  2  0  0  0  0
  8  9  2  0  0  0  0
 10  8  1  0  0  0  0
 11 12  1  0  0  0  0
 11 34  1  0  0  0  0
 12 13  2  0  0  0  0
 12 35  1  0  0  0  0
 13 14  1  0  0  0  0
 14 15  1  0  0  0  0
 14 36  1  0  0  0  0
 15 16  2  0  0  0  0
 17 19  1  0  0  0  0
 17 20  1  0  0  0  0
 17 18  1  6  0  0  0
 17 15  1  0  0  0  0
 18 37  1  0  0  0  0
 19 38  1  0  0  0  0
 19 39  1  0  0  0  0
 19 40  1  0  0  0  0
 20 21  1  0  0  0  0
 20 41  1  0  0  0  0
 20 42  1  0  0  0  0
 21 22  1  0  0  0  0
 22 23  2  0  0  0  0
 22 31  1  0  0  0  0
 23 24  1  0  0  0  0
 23 25  1  0  0  0  0
 25 26  1  0  0  0  0
 25 27  2  0  0  0  0
 27 28  1  0  0  0  0
 27 29  1  0  0  0  0
 29 30  1  0  0  0  0
 29 31  2  0  0  0  0
 31 32  1  0  0  0  0
M  CHG  2   8   1  10  -1
M  END
>  <DRUGBANK_ID>
DB07422

>  <COMMON_NAME>
(2S)-2-hydroxy-2-methyl-N-[4-nitro-3-(trifluoromethyl)phenyl]-3-(pentafluorophenoxy)propanamide

$$$$
