
 OpenBabel10282417133D

 81 88  0  0  1  0  0  0  0  0999 V2000
    0.6238   11.2557    5.0920 C   0  0  0  0  0  0  0  0  0  0  0  0
    0.6906   10.0574    5.8510 O   0  0  0  0  0  0  0  0  0  0  0  0
    1.8012    9.8174    6.7026 C   0  0  0  0  0  0  0  0  0  0  0  0
    2.7354   10.6750    6.7855 O   0  0  0  0  0  0  0  0  0  0  0  0
    1.8727    8.5347    7.5151 C   0  0  0  0  0  0  0  0  0  0  0  0
    0.6731    8.4566    8.4453 C   0  0  0  0  0  0  0  0  0  0  0  0
   -0.6061    8.4657    7.6243 C   0  0  0  0  0  0  0  0  0  0  0  0
   -0.7703    8.6780    6.2622 C   0  0  0  0  0  0  0  0  0  0  0  0
    0.4178    8.9404    5.3512 C   0  0  0  0  0  0  0  0  0  0  0  0
   -2.0524    8.6404    5.7744 C   0  0  0  0  0  0  0  0  0  0  0  0
   -4.4253   11.3075    3.4696 C   0  0  0  0  0  0  0  0  0  0  0  0
   -5.0103    9.9441    3.1389 C   0  0  0  0  0  0  0  0  0  0  0  0
   -5.4117    9.4388    1.9098 C   0  0  0  0  0  0  0  0  0  0  0  0
   -5.2935   10.2612    0.6369 C   0  0  0  0  0  0  0  0  0  0  0  0
   -4.1528   10.9566    0.3804 C   0  0  0  0  0  0  0  0  0  0  0  0
   -5.9200    8.1642    1.8944 C   0  0  0  0  0  0  0  0  0  0  0  0
   -6.3941    7.5410    0.5917 C   0  0  0  0  0  0  0  0  0  0  0  0
   -5.9945    7.4652    3.0590 C   0  0  0  0  0  0  0  0  0  0  0  0
   -6.5094    6.0524    3.2808 C   0  0  0  0  0  0  0  0  0  0  0  0
   -6.5059    5.5155    4.5307 C   0  0  0  0  0  0  0  0  0  0  0  0
   -6.9210    4.2644    4.9663 N   0  0  0  0  0  0  0  0  0  0  0  0
   -6.8144    4.0037    6.3094 C   0  0  0  0  0  0  0  0  0  0  0  0
   -7.2120    2.8033    6.8112 C   0  0  0  0  0  0  0  0  0  0  0  0
   -7.0899    2.5241    8.3003 C   0  0  0  0  0  0  0  0  0  0  0  0
   -5.9930    2.4993    9.1510 C   0  0  0  0  0  0  0  0  0  0  0  0
   -4.5995    2.8553    8.6593 C   0  0  0  0  0  0  0  0  0  0  0  0
   -6.2222    2.1392   10.4551 C   0  0  0  0  0  0  0  0  0  0  0  0
   -5.0734    2.0748   11.4484 C   0  0  0  0  0  0  0  0  0  0  0  0
   -4.5122    0.6626   11.4830 C   0  0  0  0  0  0  0  0  0  0  0  0
   -4.0081    0.2837   10.1000 C   0  0  0  0  0  0  0  0  0  0  0  0
   -2.7860   -0.0212    9.9307 O   0  0  0  0  0  0  0  0  0  0  0  0
   -4.9026    0.2704    8.9973 O   0  0  0  0  0  0  0  0  0  0  0  0
   -4.4316   -0.0836    7.7053 C   0  0  0  0  0  0  0  0  0  0  0  0
   -7.4897    1.8405   10.8485 C   0  0  0  0  0  0  0  0  0  0  0  0
   -2.7945    7.9435    9.3946 C   0  0  0  0  0  0  0  0  0  0  0  0
   -2.2879    8.2063    8.1597 C   0  0  0  0  0  0  0  0  0  0  0  0
   -3.0808    8.3906    6.6290 N   0  0  0  0  0  0  0  0  0  0  0  0
   -5.0637    8.2642    6.2129 Fe  0  0  2  0  0  0  0  0  0  0  0  0
   -8.4137    2.0452    9.3959 N   0  0  0  0  0  0  0  0  0  0  0  0
   -5.3600    8.5761    4.2291 N   0  0  0  0  0  0  0  0  0  0  0  0
   -6.3065    4.9598    7.1330 C   0  0  0  0  0  0  0  0  0  0  0  0
   -6.0909    4.8936    8.6361 C   0  0  0  0  0  0  0  0  0  0  0  0
   -5.9648    6.2721    6.0529 C   0  0  0  0  0  0  0  0  0  0  0  0
   -5.3811    7.6497    6.3214 C   0  0  0  0  0  0  0  0  0  0  0  0
   -4.2946    7.7818    7.1293 C   0  0  0  0  0  0  0  0  0  0  0  0
   -0.2767   11.2621    4.5141 H   0  0  0  0  0  0  0  0  0  0  0  0
    1.4682   11.3107    4.4372 H   0  0  0  0  0  0  0  0  0  0  0  0
    0.6295   12.0972    5.7528 H   0  0  0  0  0  0  0  0  0  0  0  0
    1.8670    7.6932    6.8543 H   0  0  0  0  0  0  0  0  0  0  0  0
    2.7731    8.5283    8.0930 H   0  0  0  0  0  0  0  0  0  0  0  0
    0.7234    7.5537    9.0172 H   0  0  0  0  0  0  0  0  0  0  0  0
    0.6787    9.2982    9.1061 H   0  0  0  0  0  0  0  0  0  0  0  0
    0.8383    9.8973    5.5802 H   0  0  0  0  0  0  0  0  0  0  0  0
    1.1566    8.1810    5.5008 H   0  0  0  0  0  0  0  0  0  0  0  0
    0.0947    8.9277    4.3312 H   0  0  0  0  0  0  0  0  0  0  0  0
   -4.5437   12.3476    3.2480 H   0  0  0  0  0  0  0  0  0  0  0  0
   -6.1071   10.2931   -0.0573 H   0  0  0  0  0  0  0  0  0  0  0  0
   -4.0692   11.5355   -0.5156 H   0  0  0  0  0  0  0  0  0  0  0  0
   -3.3392   10.9247    1.0746 H   0  0  0  0  0  0  0  0  0  0  0  0
   -5.5474    7.2911   -0.0130 H   0  0  0  0  0  0  0  0  0  0  0  0
   -6.9548    6.6547    0.8039 H   0  0  0  0  0  0  0  0  0  0  0  0
   -7.0137    8.2381    0.0672 H   0  0  0  0  0  0  0  0  0  0  0  0
   -6.8746    5.4801    2.4537 H   0  0  0  0  0  0  0  0  0  0  0  0
   -7.6106    2.0558    6.1576 H   0  0  0  0  0  0  0  0  0  0  0  0
   -4.1800    2.0188    8.1405 H   0  0  0  0  0  0  0  0  0  0  0  0
   -4.6581    3.6933    7.9965 H   0  0  0  0  0  0  0  0  0  0  0  0
   -3.9793    3.1043    9.4949 H   0  0  0  0  0  0  0  0  0  0  0  0
   -4.3049    2.7568   11.1496 H   0  0  0  0  0  0  0  0  0  0  0  0
   -5.4283    2.3416   12.4219 H   0  0  0  0  0  0  0  0  0  0  0  0
   -3.7035    0.6173   12.1822 H   0  0  0  0  0  0  0  0  0  0  0  0
   -5.2807   -0.0193   11.7818 H   0  0  0  0  0  0  0  0  0  0  0  0
   -3.6631    0.5984    7.4065 H   0  0  0  0  0  0  0  0  0  0  0  0
   -4.0365   -1.0777    7.7297 H   0  0  0  0  0  0  0  0  0  0  0  0
   -5.2403   -0.0382    7.0061 H   0  0  0  0  0  0  0  0  0  0  0  0
   -2.5410    8.5982   10.2020 H   0  0  0  0  0  0  0  0  0  0  0  0
   -5.4096    5.6633    8.9333 H   0  0  0  0  0  0  0  0  0  0  0  0
   -7.0261    5.0322    9.1371 H   0  0  0  0  0  0  0  0  0  0  0  0
   -5.6852    3.9383    8.8962 H   0  0  0  0  0  0  0  0  0  0  0  0
   -5.8245    8.5153    5.8753 H   0  0  0  0  0  0  0  0  0  0  0  0
   -3.8834    8.7513    7.3186 H   0  0  0  0  0  0  0  0  0  0  0  0
   -3.8512    6.9162    7.5754 H   0  0  0  0  0  0  0  0  0  0  0  0
  1  2  1  0  0  0  0
  1 46  1  0  0  0  0
  1 47  1  0  0  0  0
  1 48  1  0  0  0  0
  2  3  1  0  0  0  0
  3  4  2  0  0  0  0
  3  5  1  0  0  0  0
  5  6  1  0  0  0  0
  5 49  1  0  0  0  0
  5 50  1  0  0  0  0
  6 51  1  0  0  0  0
  6 52  1  0  0  0  0
  6  7  1  0  0  0  0
  7  8  2  0  0  0  0
  7 36  1  0  0  0  0
  8 10  1  0  0  0  0
  8  9  1  0  0  0  0
  9 53  1  0  0  0  0
  9 54  1  0  0  0  0
  9 55  1  0  0  0  0
 10 11  2  0  0  0  0
 10 37  1  0  0  0  0
 11 12  1  0  0  0  0
 11 56  1  0  0  0  0
 12 13  2  0  0  0  0
 12 40  1  0  0  0  0
 13 16  1  0  0  0  0
 13 14  1  0  0  0  0
 14 15  2  0  0  0  0
 14 57  1  0  0  0  0
 15 58  1  0  0  0  0
 15 59  1  0  0  0  0
 16 18  2  0  0  0  0
 16 17  1  0  0  0  0
 17 60  1  0  0  0  0
 17 61  1  0  0  0  0
 17 62  1  0  0  0  0
 18 19  1  0  0  0  0
 18 40  1  0  0  0  0
 19 20  2  0  0  0  0
 19 63  1  0  0  0  0
 20 21  1  0  0  0  0
 20 43  1  0  0  0  0
 21 22  1  0  0  0  0
 21 38  1  0  0  0  0
 22 23  2  0  0  0  0
 22 41  1  0  0  0  0
 23 24  1  0  0  0  0
 23 64  1  0  0  0  0
 24 25  2  0  0  0  0
 24 39  1  0  0  0  0
 25 27  1  0  0  0  0
 25 26  1  0  0  0  0
 26 65  1  0  0  0  0
 26 66  1  0  0  0  0
 26 67  1  0  0  0  0
 27 34  2  0  0  0  0
 27 28  1  0  0  0  0
 28 29  1  0  0  0  0
 28 68  1  0  0  0  0
 28 69  1  0  0  0  0
 29 30  1  0  0  0  0
 29 70  1  0  0  0  0
 29 71  1  0  0  0  0
 30 31  2  0  0  0  0
 30 32  1  0  0  0  0
 32 33  1  0  0  0  0
 33 72  1  0  0  0  0
 33 73  1  0  0  0  0
 33 74  1  0  0  0  0
 34 35  1  0  0  0  0
 34 39  1  0  0  0  0
 35 36  2  0  0  0  0
 35 75  1  0  0  0  0
 36 37  1  0  0  0  0
 38 37  1  1  0  0  0
 38 39  1  0  0  0  0
 38 40  1  0  0  0  0
 41 43  2  0  0  0  0
 41 42  1  0  0  0  0
 42 76  1  0  0  0  0
 42 77  1  0  0  0  0
 42 78  1  0  0  0  0
 43 44  1  0  0  0  0
 44 45  2  0  0  0  0
 44 79  1  0  0  0  0
 45 80  1  0  0  0  0
 45 81  1  0  0  0  0
M  END
>  <DRUGBANK_ID>
DB04009

>  <SECONDARY_ACCESSION_NUMBERS>
EXPT01714

>  <COMMON_NAME>
Dimethyl Propionate Ester Heme

$$$$
