
 OpenBabel10282417203D

 51 55  0  0  0  0  0  0  0  0999 V2000
    1.3636   -0.2132    0.0150 C   0  0  0  0  0  0  0  0  0  0  0  0
    0.4848   -1.2927    0.0179 C   0  0  0  0  0  0  0  0  0  0  0  0
   -0.8974   -1.0710   -0.0163 C   0  0  0  0  0  0  0  0  0  0  0  0
   -1.4277    0.2336   -0.0484 C   0  0  0  0  0  0  0  0  0  0  0  0
   -0.5217    1.3057   -0.0051 C   0  0  0  0  0  0  0  0  0  0  0  0
    0.8609    1.0856   -0.0012 C   0  0  0  0  0  0  0  0  0  0  0  0
   -2.8761    0.4674   -0.1522 C   0  0  0  0  0  0  0  0  0  0  0  0
   -3.7838   -0.0235    0.7664 C   0  0  0  0  0  0  0  0  0  0  0  0
   -5.1695    0.1718    0.5793 C   0  0  0  0  0  0  0  0  0  0  0  0
   -5.6258    0.8816   -0.5536 C   0  0  0  0  0  0  0  0  0  0  0  0
   -4.7046    1.3299   -1.4337 N   0  0  0  0  0  0  0  0  0  0  0  0
   -3.3267    1.1414   -1.2269 N   0  0  0  0  0  0  0  0  0  0  0  0
   -6.9664    1.1034   -0.7968 N   0  0  0  0  0  0  0  0  0  0  0  0
   -7.8304    1.8666    0.1189 C   0  0  0  0  0  0  0  0  0  0  0  0
   -9.1073    1.0618    0.4529 C   0  0  0  0  0  0  0  0  0  0  0  0
   -9.7246    0.5296   -0.7551 N   0  0  0  0  0  0  0  0  0  0  0  0
   -8.8772   -0.1828   -1.7045 C   0  0  0  0  0  0  0  0  0  0  0  0
   -7.6183    0.6812   -2.0457 C   0  0  0  0  0  0  0  0  0  0  0  0
  -11.0598    0.7210   -0.9803 C   0  0  0  0  0  0  0  0  0  0  0  0
  -11.8420   -0.3486   -1.1848 N   0  0  0  0  0  0  0  0  0  0  0  0
  -13.1644   -0.1203   -1.3518 C   0  0  0  0  0  0  0  0  0  0  0  0
  -13.7192    1.1320   -1.3958 C   0  0  0  0  0  0  0  0  0  0  0  0
  -12.8340    2.1615   -1.2182 C   0  0  0  0  0  0  0  0  0  0  0  0
  -11.5185    1.9813   -0.9749 N   0  0  0  0  0  0  0  0  0  0  0  0
   -6.0820   -0.4809    1.5306 C   0  0  0  0  0  0  0  0  0  0  0  0
   -6.1413   -0.0947    2.8722 C   0  0  0  0  0  0  0  0  0  0  0  0
   -7.0807   -0.6970    3.6935 C   0  0  0  0  0  0  0  0  0  0  0  0
   -7.9510   -1.6413    3.2771 N   0  0  0  0  0  0  0  0  0  0  0  0
   -7.8575   -2.0284    1.9892 C   0  0  0  0  0  0  0  0  0  0  0  0
   -6.9334   -1.5050    1.1016 C   0  0  0  0  0  0  0  0  0  0  0  0
    2.4377   -0.3829    0.0225 H   0  0  0  0  0  0  0  0  0  0  0  0
    0.8750   -2.3079    0.0250 H   0  0  0  0  0  0  0  0  0  0  0  0
   -1.5601   -1.9339   -0.0443 H   0  0  0  0  0  0  0  0  0  0  0  0
   -0.8931    2.3284    0.0208 H   0  0  0  0  0  0  0  0  0  0  0  0
    1.5444    1.9309   -0.0253 H   0  0  0  0  0  0  0  0  0  0  0  0
   -3.4262   -0.5906    1.6218 H   0  0  0  0  0  0  0  0  0  0  0  0
   -7.3083    2.1566    1.0368 H   0  0  0  0  0  0  0  0  0  0  0  0
   -8.1317    2.7965   -0.3809 H   0  0  0  0  0  0  0  0  0  0  0  0
   -8.8391    0.2097    1.0728 H   0  0  0  0  0  0  0  0  0  0  0  0
   -9.7910    1.6551    1.0694 H   0  0  0  0  0  0  0  0  0  0  0  0
   -8.5554   -1.1242   -1.2474 H   0  0  0  0  0  0  0  0  0  0  0  0
   -9.4088   -0.4457   -2.6258 H   0  0  0  0  0  0  0  0  0  0  0  0
   -7.9444    1.5717   -2.5989 H   0  0  0  0  0  0  0  0  0  0  0  0
   -6.9421    0.1136   -2.6941 H   0  0  0  0  0  0  0  0  0  0  0  0
  -13.7815   -1.0080   -1.4543 H   0  0  0  0  0  0  0  0  0  0  0  0
  -14.7760    1.2968   -1.5601 H   0  0  0  0  0  0  0  0  0  0  0  0
  -13.1580    3.1964   -1.2655 H   0  0  0  0  0  0  0  0  0  0  0  0
   -5.4872    0.6747    3.2692 H   0  0  0  0  0  0  0  0  0  0  0  0
   -7.1706   -0.4170    4.7388 H   0  0  0  0  0  0  0  0  0  0  0  0
   -8.5962   -2.7538    1.6598 H   0  0  0  0  0  0  0  0  0  0  0  0
   -6.9264   -1.8363    0.0691 H   0  0  0  0  0  0  0  0  0  0  0  0
  1  2  2  0  0  0  0
  1  6  1  0  0  0  0
  1 31  1  0  0  0  0
  2  3  1  0  0  0  0
  2 32  1  0  0  0  0
  3  4  2  0  0  0  0
  3 33  1  0  0  0  0
  4  5  1  0  0  0  0
  4  7  1  0  0  0  0
  5  6  2  0  0  0  0
  5 34  1  0  0  0  0
  6 35  1  0  0  0  0
  7  8  2  0  0  0  0
  7 12  1  0  0  0  0
  8  9  1  0  0  0  0
  8 36  1  0  0  0  0
  9 10  2  0  0  0  0
  9 25  1  0  0  0  0
 10 11  1  0  0  0  0
 10 13  1  0  0  0  0
 11 12  2  0  0  0  0
 13 14  1  0  0  0  0
 13 18  1  0  0  0  0
 14 15  1  0  0  0  0
 14 37  1  0  0  0  0
 14 38  1  0  0  0  0
 15 16  1  0  0  0  0
 15 39  1  0  0  0  0
 15 40  1  0  0  0  0
 16 17  1  0  0  0  0
 16 19  1  0  0  0  0
 17 18  1  0  0  0  0
 17 41  1  0  0  0  0
 17 42  1  0  0  0  0
 18 43  1  0  0  0  0
 18 44  1  0  0  0  0
 19 20  2  0  0  0  0
 19 24  1  0  0  0  0
 20 21  1  0  0  0  0
 21 22  2  0  0  0  0
 21 45  1  0  0  0  0
 22 23  1  0  0  0  0
 22 46  1  0  0  0  0
 23 24  2  0  0  0  0
 23 47  1  0  0  0  0
 25 26  2  0  0  0  0
 25 30  1  0  0  0  0
 26 27  1  0  0  0  0
 26 48  1  0  0  0  0
 27 28  2  0  0  0  0
 27 49  1  0  0  0  0
 28 29  1  0  0  0  0
 29 30  2  0  0  0  0
 29 50  1  0  0  0  0
 30 51  1  0  0  0  0
M  END
>  <DRUGBANK_ID>
DB12899

>  <COMMON_NAME>
TT-301

>  <CAS_NUMBER>
886208-76-0

>  <UNII>
CY416F5NSK

$$$$
