
 OpenBabel10282417213D

 53 57  0  0  0  0  0  0  0  0999 V2000
    0.1407    1.3464    0.1695 C   0  0  0  0  0  0  0  0  0  0  0  0
   -0.6769    0.1376   -0.1970 C   0  0  1  0  0  0  0  0  0  0  0  0
    0.1321   -0.9575    0.4509 C   0  0  0  0  0  0  0  0  0  0  0  0
    1.4789   -0.6444    0.0795 N   0  0  0  0  0  0  0  0  0  0  0  0
    1.5872    0.8197    0.0366 C   0  0  0  0  0  0  0  0  0  0  0  0
   -2.0225    0.1733    0.2341 O   0  0  0  0  0  0  0  0  0  0  0  0
    2.5117   -1.4814   -0.2756 C   0  0  0  0  0  0  0  0  0  0  0  0
    3.6443   -1.0389   -0.4434 O   0  0  0  0  0  0  0  0  0  0  0  0
    2.3524   -2.8467   -0.3380 N   0  0  0  0  0  0  0  0  0  0  0  0
    1.2203   -3.6488   -0.3561 C   0  0  0  0  0  0  0  0  0  0  0  0
    0.0607   -3.5040   -1.1146 C   0  0  0  0  0  0  0  0  0  0  0  0
    0.9628   -4.7529    0.4884 C   0  0  0  0  0  0  0  0  0  0  0  0
   -0.3157   -5.1399    0.4467 N   0  0  0  0  0  0  0  0  0  0  0  0
   -0.8910   -4.2803   -0.4364 N   0  0  0  0  0  0  0  0  0  0  0  0
   -1.5785   -2.2068   -2.1243 C   0  0  0  0  0  0  0  0  0  0  0  0
   -0.3080   -2.5637   -2.0646 N   0  0  0  0  0  0  0  0  0  0  0  0
   -2.2444   -4.0206   -0.6090 C   0  0  0  0  0  0  0  0  0  0  0  0
   -2.6410   -2.9900   -1.3680 C   0  0  0  0  0  0  0  0  0  0  0  0
   -2.0043   -1.1937   -2.9868 N   0  0  0  0  0  0  0  0  0  0  0  0
   -2.9938   -0.1663   -2.6641 C   0  0  0  0  0  0  0  0  0  0  0  0
   -3.6298    0.1262   -4.0080 C   0  0  0  0  0  0  0  0  0  0  0  0
   -2.4345    0.0985   -4.9505 C   0  0  0  0  0  0  0  0  0  0  0  0
   -1.4532   -0.9424   -4.3351 C   0  0  2  0  0  0  0  0  0  0  0  0
   -1.3932   -2.1887   -5.1945 C   0  0  0  0  0  0  0  0  0  0  0  0
   -1.7141   -4.5856   -5.5047 C   0  0  0  0  0  0  0  0  0  0  0  0
   -1.2636   -4.5072   -6.8038 C   0  0  0  0  0  0  0  0  0  0  0  0
   -0.8730   -3.2678   -7.3134 C   0  0  0  0  0  0  0  0  0  0  0  0
   -0.9198   -2.1274   -6.5063 C   0  0  0  0  0  0  0  0  0  0  0  0
   -1.8053   -3.4469   -4.7346 C   0  0  0  0  0  0  0  0  0  0  0  0
   -0.5358   -0.9527   -7.0278 F   0  0  0  0  0  0  0  0  0  0  0  0
   -2.0927   -5.7532   -4.9717 F   0  0  0  0  0  0  0  0  0  0  0  0
   -0.0825    2.1884   -0.4922 H   0  0  0  0  0  0  0  0  0  0  0  0
   -0.1061    1.6427    1.1938 H   0  0  0  0  0  0  0  0  0  0  0  0
   -0.6430    0.0501   -1.2858 H   0  0  0  0  0  0  0  0  0  0  0  0
    0.0402   -1.0420    1.5355 H   0  0  0  0  0  0  0  0  0  0  0  0
   -0.2512   -1.8722    0.1124 H   0  0  0  0  0  0  0  0  0  0  0  0
    2.1882    1.1684    0.8813 H   0  0  0  0  0  0  0  0  0  0  0  0
    2.0538    1.1355   -0.9012 H   0  0  0  0  0  0  0  0  0  0  0  0
   -2.0309    0.0744    1.2002 H   0  0  0  0  0  0  0  0  0  0  0  0
    3.2409   -3.3327   -0.2999 H   0  0  0  0  0  0  0  0  0  0  0  0
    1.6171   -5.2178    1.2180 H   0  0  0  0  0  0  0  0  0  0  0  0
   -2.9318   -4.6707   -0.0848 H   0  0  0  0  0  0  0  0  0  0  0  0
   -3.6803   -2.7855   -1.5825 H   0  0  0  0  0  0  0  0  0  0  0  0
   -2.5005    0.7485   -2.3093 H   0  0  0  0  0  0  0  0  0  0  0  0
   -3.7330   -0.4699   -1.9199 H   0  0  0  0  0  0  0  0  0  0  0  0
   -4.3382   -0.6687   -4.2664 H   0  0  0  0  0  0  0  0  0  0  0  0
   -4.1606    1.0831   -4.0312 H   0  0  0  0  0  0  0  0  0  0  0  0
   -2.7596   -0.1333   -5.9705 H   0  0  0  0  0  0  0  0  0  0  0  0
   -1.9644    1.0900   -4.9816 H   0  0  0  0  0  0  0  0  0  0  0  0
   -0.4533   -0.4931   -4.2512 H   0  0  0  0  0  0  0  0  0  0  0  0
   -1.2334   -5.4087   -7.4010 H   0  0  0  0  0  0  0  0  0  0  0  0
   -0.5336   -3.1835   -8.3393 H   0  0  0  0  0  0  0  0  0  0  0  0
   -2.2144   -3.6086   -3.7556 H   0  0  0  0  0  0  0  0  0  0  0  0
  1  2  1  0  0  0  0
  1  5  1  0  0  0  0
  1 32  1  0  0  0  0
  1 33  1  0  0  0  0
  2  3  1  0  0  0  0
  2  6  1  0  0  0  0
  2 34  1  6  0  0  0
  3  4  1  0  0  0  0
  3 35  1  0  0  0  0
  3 36  1  0  0  0  0
  4  5  1  0  0  0  0
  4  7  1  0  0  0  0
  5 37  1  0  0  0  0
  5 38  1  0  0  0  0
  6 39  1  0  0  0  0
  7  8  2  0  0  0  0
  7  9  1  0  0  0  0
  9 10  1  0  0  0  0
  9 40  1  0  0  0  0
 10 12  1  0  0  0  0
 11 14  1  0  0  0  0
 11 10  2  0  0  0  0
 12 13  2  0  0  0  0
 12 41  1  0  0  0  0
 13 14  1  0  0  0  0
 14 17  1  0  0  0  0
 15 16  2  0  0  0  0
 15 18  1  0  0  0  0
 15 19  1  0  0  0  0
 16 11  1  0  0  0  0
 17 18  2  0  0  0  0
 17 42  1  0  0  0  0
 18 43  1  0  0  0  0
 19 20  1  0  0  0  0
 19 23  1  0  0  0  0
 20 21  1  0  0  0  0
 20 44  1  0  0  0  0
 20 45  1  0  0  0  0
 21 22  1  0  0  0  0
 21 46  1  0  0  0  0
 21 47  1  0  0  0  0
 22 23  1  0  0  0  0
 22 48  1  0  0  0  0
 22 49  1  0  0  0  0
 23 24  1  0  0  0  0
 23 50  1  1  0  0  0
 24 29  1  0  0  0  0
 25 26  1  0  0  0  0
 25 29  2  0  0  0  0
 25 31  1  0  0  0  0
 26 27  2  0  0  0  0
 26 51  1  0  0  0  0
 27 28  1  0  0  0  0
 27 52  1  0  0  0  0
 28 24  2  0  0  0  0
 28 30  1  0  0  0  0
 29 53  1  0  0  0  0
M  END
>  <DRUGBANK_ID>
DB14723

>  <COMMON_NAME>
Larotrectinib

>  <CAS_NUMBER>
1223403-58-4

>  <UNII>
PF9462I9HX

>  <SYNONYMS>
Larotrectinib

$$$$
