768
 OpenBabel10282417113D

 48 50  0  0  0  0  0  0  0  0999 V2000
   -0.7743    1.6980   -0.8260 O   0  0  0  0  0  0  0  0  0  0  0  0
   -4.3325   -4.5553    0.3669 O   0  0  0  0  0  0  0  0  0  0  0  0
   -5.2818   -2.8979   -0.8147 O   0  0  0  0  0  0  0  0  0  0  0  0
   -0.1896   -2.1436   -5.1979 N   0  0  0  0  0  0  0  0  0  0  0  0
   -0.0159   -0.9912   -0.9458 C   0  0  0  0  0  0  0  0  0  0  0  0
   -1.2702   -0.5838   -0.3456 C   0  0  0  0  0  0  0  0  0  0  0  0
    1.2839   -0.5367   -0.4116 C   0  0  0  0  0  0  0  0  0  0  0  0
    1.4623    0.7871    0.0348 C   0  0  0  0  0  0  0  0  0  0  0  0
   -1.6078    0.7590   -0.2835 C   0  0  0  0  0  0  0  0  0  0  0  0
   -1.2321   -2.2657   -2.8519 C   0  0  0  0  0  0  0  0  0  0  0  0
   -0.0620   -1.8019   -2.0146 C   0  0  0  0  0  0  0  0  0  0  0  0
    0.3979    1.8786   -0.0150 C   0  0  0  0  0  0  0  0  0  0  0  0
   -1.2747   -1.6990   -4.2919 C   0  0  0  0  0  0  0  0  0  0  0  0
   -2.0964   -1.5685    0.1992 C   0  0  0  0  0  0  0  0  0  0  0  0
   -3.3163   -1.2194    0.7608 C   0  0  0  0  0  0  0  0  0  0  0  0
    2.3327   -1.4654   -0.2725 C   0  0  0  0  0  0  0  0  0  0  0  0
   -2.8237    1.1263    0.2672 C   0  0  0  0  0  0  0  0  0  0  0  0
    2.6929    1.1297    0.6300 C   0  0  0  0  0  0  0  0  0  0  0  0
   -3.6710    0.1385    0.7952 C   0  0  0  0  0  0  0  0  0  0  0  0
   -4.2125   -2.3130    1.2778 C   0  0  0  0  0  0  0  0  0  0  0  0
    3.5430   -1.1030    0.3053 C   0  0  0  0  0  0  0  0  0  0  0  0
    3.7203    0.1943    0.7645 C   0  0  0  0  0  0  0  0  0  0  0  0
   -0.4002   -1.6035   -6.5403 C   0  0  0  0  0  0  0  0  0  0  0  0
    1.1317   -1.7035   -4.7587 C   0  0  0  0  0  0  0  0  0  0  0  0
   -4.6670   -3.2550    0.1740 C   0  0  0  0  0  0  0  0  0  0  0  0
   -3.8212   -4.7580    1.1709 H   0  0  0  0  0  0  0  0  0  0  0  0
   -1.2181   -3.3604   -2.8890 H   0  0  0  0  0  0  0  0  0  0  0  0
   -2.1847   -1.9918   -2.3874 H   0  0  0  0  0  0  0  0  0  0  0  0
    0.8924   -2.1932   -2.3112 H   0  0  0  0  0  0  0  0  0  0  0  0
    0.8814    2.7769   -0.4211 H   0  0  0  0  0  0  0  0  0  0  0  0
    0.0893    2.1240    1.0097 H   0  0  0  0  0  0  0  0  0  0  0  0
   -2.2313   -2.0370   -4.7206 H   0  0  0  0  0  0  0  0  0  0  0  0
   -1.3362   -0.6019   -4.2537 H   0  0  0  0  0  0  0  0  0  0  0  0
   -1.7900   -2.6120    0.1303 H   0  0  0  0  0  0  0  0  0  0  0  0
    2.2046   -2.4966   -0.5948 H   0  0  0  0  0  0  0  0  0  0  0  0
   -3.1117    2.1720    0.2876 H   0  0  0  0  0  0  0  0  0  0  0  0
    2.8504    2.1377    1.0090 H   0  0  0  0  0  0  0  0  0  0  0  0
   -4.6222    0.4418    1.2226 H   0  0  0  0  0  0  0  0  0  0  0  0
   -3.6821   -2.8608    2.0664 H   0  0  0  0  0  0  0  0  0  0  0  0
   -5.1087   -1.8891    1.7404 H   0  0  0  0  0  0  0  0  0  0  0  0
    4.3314   -1.8425    0.4091 H   0  0  0  0  0  0  0  0  0  0  0  0
    4.6557    0.4772    1.2378 H   0  0  0  0  0  0  0  0  0  0  0  0
   -0.4014   -0.5075   -6.5399 H   0  0  0  0  0  0  0  0  0  0  0  0
    0.4069   -1.9441   -7.1996 H   0  0  0  0  0  0  0  0  0  0  0  0
   -1.3364   -1.9658   -6.9726 H   0  0  0  0  0  0  0  0  0  0  0  0
    1.1433   -0.6449   -4.4715 H   0  0  0  0  0  0  0  0  0  0  0  0
    1.4856   -2.3373   -3.9552 H   0  0  0  0  0  0  0  0  0  0  0  0
    1.9019   -1.8749   -5.5140 H   0  0  0  0  0  0  0  0  0  0  0  0
  1  9  1  0  0  0  0
  1 12  1  0  0  0  0
  2 25  1  0  0  0  0
  2 26  1  0  0  0  0
  3 25  2  0  0  0  0
  4 13  1  0  0  0  0
  4 23  1  0  0  0  0
  4 24  1  0  0  0  0
  5  6  1  0  0  0  0
  5  7  1  0  0  0  0
  5 11  2  0  0  0  0
  6  9  2  0  0  0  0
  6 14  1  0  0  0  0
  7  8  1  0  0  0  0
  7 16  2  0  0  0  0
  8 12  1  0  0  0  0
  8 18  2  0  0  0  0
  9 17  1  0  0  0  0
 10 11  1  0  0  0  0
 10 13  1  0  0  0  0
 10 27  1  0  0  0  0
 10 28  1  0  0  0  0
 11 29  1  0  0  0  0
 12 30  1  0  0  0  0
 12 31  1  0  0  0  0
 13 32  1  0  0  0  0
 13 33  1  0  0  0  0
 14 15  2  0  0  0  0
 14 34  1  0  0  0  0
 15 19  1  0  0  0  0
 15 20  1  0  0  0  0
 16 21  1  0  0  0  0
 16 35  1  0  0  0  0
 17 19  2  0  0  0  0
 17 36  1  0  0  0  0
 18 22  1  0  0  0  0
 18 37  1  0  0  0  0
 19 38  1  0  0  0  0
 20 25  1  0  0  0  0
 20 39  1  0  0  0  0
 20 40  1  0  0  0  0
 21 22  2  0  0  0  0
 21 41  1  0  0  0  0
 22 42  1  0  0  0  0
 23 43  1  0  0  0  0
 23 44  1  0  0  0  0
 23 45  1  0  0  0  0
 24 46  1  0  0  0  0
 24 47  1  0  0  0  0
 24 48  1  0  0  0  0
M  END
>  <DRUGBANK_ID>
DB00768

>  <SECONDARY_ACCESSION_NUMBERS>
APRD00310

>  <COMMON_NAME>
Olopatadine

>  <CAS_NUMBER>
113806-05-6

>  <UNII>
D27V6190PM

>  <SYNONYMS>
Olopatadin; Olopatadina; Olopatadine; Olopatadinum

$$$$
