
 OpenBabel10282417233D

 67 71  0  0  1  0  0  0  0  0999 V2000
   -1.3525   -0.4597   -0.4710 C   0  0  2  0  0  0  0  0  0  0  0  0
   -1.9708    0.9314   -0.2386 C   0  0  0  0  0  0  0  0  0  0  0  0
   -3.2100    1.1342    0.2473 C   0  0  0  0  0  0  0  0  0  0  0  0
   -4.1638    0.0116    0.3990 C   0  0  0  0  0  0  0  0  0  0  0  0
   -3.7244   -1.3439   -0.0887 C   0  0  0  0  0  0  0  0  0  0  0  0
   -2.2394   -1.5433    0.2063 C   0  0  0  0  0  0  0  0  0  0  0  0
   -5.3025    0.2331    0.8028 O   0  0  0  0  0  0  0  0  0  0  0  0
   -1.1321    2.1247   -0.6289 C   0  0  0  0  0  0  0  0  0  0  0  0
    0.3173    2.0064   -0.1718 C   0  0  0  0  0  0  0  0  0  0  0  0
    0.9661    0.6533   -0.5985 C   0  0  1  0  0  0  0  0  0  0  0  0
    2.4491    0.5578   -0.2178 C   0  0  2  0  0  0  0  0  0  0  0  0
    3.5443    1.5307   -0.6919 C   0  0  0  0  0  0  0  0  0  0  0  0
    4.8959    0.8555   -0.2850 C   0  0  0  0  0  0  0  0  0  0  0  0
    4.5855   -0.5589    0.2621 C   0  0  1  0  0  0  0  0  0  0  0  0
    3.1327   -0.8366   -0.2536 C   0  0  1  0  0  0  0  0  0  0  0  0
    2.2870   -1.8535    0.5604 C   0  0  0  0  0  0  0  0  0  0  0  0
    0.8022   -1.8594    0.1355 C   0  0  0  0  0  0  0  0  0  0  0  0
    0.1154   -0.4677    0.1192 C   0  0  2  0  0  0  0  0  0  0  0  0
    0.0199   -0.1932    1.1866 H   0  0  0  0  0  0  0  0  0  0  0  0
    3.2719   -1.2550   -1.7029 C   0  0  0  0  0  0  0  0  0  0  0  0
    5.6689   -1.5065    0.0940 O   0  0  0  0  0  0  0  0  0  0  0  0
    6.5062   -1.9270    1.0991 C   0  0  0  0  0  0  0  0  0  0  0  0
    7.4370   -2.7177    0.8086 O   0  0  0  0  0  0  0  0  0  0  0  0
    6.2888   -1.6078    2.5902 C   0  0  0  0  0  0  0  0  0  0  0  0
    6.4649   -0.1641    3.1293 C   0  0  0  0  0  0  0  0  0  0  0  0
    5.2768    0.7700    3.0582 C   0  0  0  0  0  0  0  0  0  0  0  0
    3.9902    0.2341    3.1688 C   0  0  0  0  0  0  0  0  0  0  0  0
    2.8951    0.9843    2.7903 C   0  0  0  0  0  0  0  0  0  0  0  0
    3.0586    2.3028    2.3477 C   0  0  0  0  0  0  0  0  0  0  0  0
    4.3109    2.8993    2.3763 C   0  0  0  0  0  0  0  0  0  0  0  0
    5.4214    2.1390    2.7571 C   0  0  0  0  0  0  0  0  0  0  0  0
    2.2844    0.8341    0.7818 H   0  0  0  0  0  0  0  0  0  0  0  0
    0.9262    0.5637   -1.6827 H   0  0  0  0  0  0  0  0  0  0  0  0
   -1.2949   -0.7401   -1.9886 C   0  0  0  0  0  0  0  0  0  0  0  0
   -3.6170    2.1203    0.4465 H   0  0  0  0  0  0  0  0  0  0  0  0
   -4.3137   -2.1114    0.4219 H   0  0  0  0  0  0  0  0  0  0  0  0
   -3.9393   -1.4104   -1.1605 H   0  0  0  0  0  0  0  0  0  0  0  0
   -2.0984   -1.5201    1.2961 H   0  0  0  0  0  0  0  0  0  0  0  0
   -1.9468   -2.5450   -0.1299 H   0  0  0  0  0  0  0  0  0  0  0  0
   -1.1511    2.2222   -1.7194 H   0  0  0  0  0  0  0  0  0  0  0  0
   -1.5628    3.0522   -0.2264 H   0  0  0  0  0  0  0  0  0  0  0  0
    0.8877    2.8535   -0.5634 H   0  0  0  0  0  0  0  0  0  0  0  0
    0.3122    2.1098    0.9239 H   0  0  0  0  0  0  0  0  0  0  0  0
    3.4918    1.7108   -1.7670 H   0  0  0  0  0  0  0  0  0  0  0  0
    3.4702    2.5277   -0.2413 H   0  0  0  0  0  0  0  0  0  0  0  0
    5.6270    0.8748   -1.0975 H   0  0  0  0  0  0  0  0  0  0  0  0
    5.3924    1.4385    0.4825 H   0  0  0  0  0  0  0  0  0  0  0  0
    4.4954   -0.5757    1.3033 H   0  0  0  0  0  0  0  0  0  0  0  0
    2.3102   -1.6721    1.6439 H   0  0  0  0  0  0  0  0  0  0  0  0
    2.6977   -2.8644    0.4455 H   0  0  0  0  0  0  0  0  0  0  0  0
    0.2577   -2.5205    0.8263 H   0  0  0  0  0  0  0  0  0  0  0  0
    0.7316   -2.3293   -0.8457 H   0  0  0  0  0  0  0  0  0  0  0  0
    3.7662   -0.4631   -2.2734 H   0  0  0  0  0  0  0  0  0  0  0  0
    3.8927   -2.1472   -1.7746 H   0  0  0  0  0  0  0  0  0  0  0  0
    2.3000   -1.4220   -2.1619 H   0  0  0  0  0  0  0  0  0  0  0  0
    5.3792   -2.1100    2.9350 H   0  0  0  0  0  0  0  0  0  0  0  0
    7.0740   -2.1778    3.1231 H   0  0  0  0  0  0  0  0  0  0  0  0
    6.6639   -0.2208    4.2072 H   0  0  0  0  0  0  0  0  0  0  0  0
    7.3454    0.2857    2.6572 H   0  0  0  0  0  0  0  0  0  0  0  0
    3.8318   -0.8446    3.2242 H   0  0  0  0  0  0  0  0  0  0  0  0
    1.9913    0.4100    2.5646 H   0  0  0  0  0  0  0  0  0  0  0  0
    2.2722    2.7923    1.7699 H   0  0  0  0  0  0  0  0  0  0  0  0
    4.4307    3.8896    1.9388 H   0  0  0  0  0  0  0  0  0  0  0  0
    6.4068    2.5825    2.6369 H   0  0  0  0  0  0  0  0  0  0  0  0
   -0.7260    0.0140   -2.5367 H   0  0  0  0  0  0  0  0  0  0  0  0
   -0.8256   -1.7070   -2.1908 H   0  0  0  0  0  0  0  0  0  0  0  0
   -2.2842   -0.7400   -2.4477 H   0  0  0  0  0  0  0  0  0  0  0  0
  1 34  1  6  0  0  0
  2  1  1  0  0  0  0
  3  2  2  0  0  0  0
  3  4  1  0  0  0  0
  3 35  1  0  0  0  0
  4  5  1  0  0  0  0
  5  6  1  0  0  0  0
  5 36  1  0  0  0  0
  5 37  1  0  0  0  0
  6  1  1  0  0  0  0
  6 38  1  0  0  0  0
  6 39  1  0  0  0  0
  7  4  2  0  0  0  0
  8  2  1  0  0  0  0
  8 40  1  0  0  0  0
  8 41  1  0  0  0  0
  9  8  1  0  0  0  0
  9 10  1  0  0  0  0
  9 42  1  0  0  0  0
  9 43  1  0  0  0  0
 10 18  1  0  0  0  0
 10 33  1  6  0  0  0
 11 10  1  0  0  0  0
 11 32  1  1  0  0  0
 12 11  1  0  0  0  0
 12 44  1  0  0  0  0
 12 45  1  0  0  0  0
 13 12  1  0  0  0  0
 13 46  1  0  0  0  0
 13 47  1  0  0  0  0
 14 13  1  0  0  0  0
 14 15  1  0  0  0  0
 14 48  1  1  0  0  0
 14 21  1  0  0  0  0
 15 16  1  0  0  0  0
 15 20  1  6  0  0  0
 15 11  1  0  0  0  0
 16 17  1  0  0  0  0
 16 49  1  0  0  0  0
 16 50  1  0  0  0  0
 17 18  1  0  0  0  0
 17 51  1  0  0  0  0
 17 52  1  0  0  0  0
 18  1  1  0  0  0  0
 18 19  1  1  0  0  0
 20 53  1  0  0  0  0
 20 54  1  0  0  0  0
 20 55  1  0  0  0  0
 22 21  1  0  0  0  0
 23 22  2  0  0  0  0
 24 22  1  0  0  0  0
 24 56  1  0  0  0  0
 24 57  1  0  0  0  0
 25 24  1  0  0  0  0
 25 58  1  0  0  0  0
 25 59  1  0  0  0  0
 26 25  1  0  0  0  0
 27 26  2  0  0  0  0
 27 60  1  0  0  0  0
 28 27  1  0  0  0  0
 28 61  1  0  0  0  0
 29 28  2  0  0  0  0
 29 30  1  0  0  0  0
 29 62  1  0  0  0  0
 30 31  2  0  0  0  0
 30 63  1  0  0  0  0
 31 26  1  0  0  0  0
 31 64  1  0  0  0  0
 34 65  1  0  0  0  0
 34 66  1  0  0  0  0
 34 67  1  0  0  0  0
M  END
>  <DRUGBANK_ID>
DB16003

>  <COMMON_NAME>
Testosterone phenylpropionate

>  <CAS_NUMBER>
1255-49-8

>  <UNII>
8GN84GWX51

$$$$
