
 OpenBabel10282417203D

 33 31  0  0  0  0  0  0  0  0999 V2000
    0.3340    1.0060   -0.1730 C   0  0  0  0  0  0  0  0  0  0  0  0
   -1.0070    0.3330    0.1730 C   0  0  2  0  0  0  0  0  0  0  0  0
   -0.3330   -1.0050   -0.1730 C   0  0  2  0  0  0  0  0  0  0  0  0
   -0.7660   -2.3122    0.4705 C   0  0  0  0  0  0  0  0  0  0  0  0
   -2.1371   -2.6348    0.0501 N   0  0  0  0  0  0  0  0  0  0  0  0
    1.0060   -0.3340    0.1730 C   0  0  0  0  0  0  0  0  0  0  0  0
   -2.1643    0.7162   -0.7348 C   0  0  0  0  0  0  0  0  0  0  0  0
   -2.1807    2.1710   -0.9449 N   0  0  0  0  0  0  0  0  0  0  0  0
    0.9701   -0.0610   -0.0734 Pt  0  2  0  0  0  0  0  0  0  0  0  0
    0.9448   -0.0024   -0.0833 C   0  0  0  0  0  0  0  0  0  0  0  0
    0.2348   -0.6538    0.9597 O   0  5  0  0  0  0  0  0  0  0  0  0
    0.1848    0.6949   -1.1998 C   0  0  1  0  0  0  0  0  0  0  0  0
    0.5278    2.0727   -1.2173 O   0  5  0  0  0  0  0  0  0  0  0  0
    0.5520    0.0644   -2.5333 C   0  0  0  0  0  0  0  0  0  0  0  0
    2.2157   -0.0024   -0.0833 O   0  0  0  0  0  0  0  0  0  0  0  0
    0.4966    1.4956   -1.1104 H   0  0  0  0  0  0  0  0  0  0  0  0
    0.6042    1.8206    0.4660 H   0  0  0  0  0  0  0  0  0  0  0  0
   -1.4974    0.4950    1.1101 H   0  0  0  0  0  0  0  0  0  0  0  0
   -0.4322   -1.3046   -1.1954 H   0  0  0  0  0  0  0  0  0  0  0  0
   -0.1053   -3.0964    0.1646 H   0  0  0  0  0  0  0  0  0  0  0  0
   -0.7333   -2.2135    1.5354 H   0  0  0  0  0  0  0  0  0  0  0  0
   -2.4277   -3.5120    0.4819 H   0  0  0  0  0  0  0  0  0  0  0  0
   -2.7669   -1.8873    0.3417 H   0  0  0  0  0  0  0  0  0  0  0  0
    1.9262   -0.6396   -0.2796 H   0  0  0  0  0  0  0  0  0  0  0  0
    1.3059   -0.4338    1.1952 H   0  0  0  0  0  0  0  0  0  0  0  0
   -2.0757    0.2204   -1.6789 H   0  0  0  0  0  0  0  0  0  0  0  0
   -3.0732    0.4145   -0.2575 H   0  0  0  0  0  0  0  0  0  0  0  0
   -2.9740    2.4203   -1.5356 H   0  0  0  0  0  0  0  0  0  0  0  0
   -2.2651    2.6436   -0.0449 H   0  0  0  0  0  0  0  0  0  0  0  0
   -0.8672    0.5913   -1.0340 H   0  0  0  0  0  0  0  0  0  0  0  0
    0.2935   -0.9738   -2.5202 H   0  0  0  0  0  0  0  0  0  0  0  0
    0.0170    0.5553   -3.3193 H   0  0  0  0  0  0  0  0  0  0  0  0
    1.6040    0.1680   -2.6991 H   0  0  0  0  0  0  0  0  0  0  0  0
  1  6  1  0  0  0  0
  1 16  1  0  0  0  0
  1 17  1  0  0  0  0
  2  1  1  0  0  0  0
  2 18  1  1  0  0  0
  2  7  1  0  0  0  0
  3  2  1  0  0  0  0
  3  4  1  0  0  0  0
  3 19  1  6  0  0  0
  4  5  1  0  0  0  0
  4 20  1  0  0  0  0
  4 21  1  0  0  0  0
  5 22  1  0  0  0  0
  5 23  1  0  0  0  0
  6  3  1  0  0  0  0
  6 24  1  0  0  0  0
  6 25  1  0  0  0  0
  7  8  1  0  0  0  0
  7 26  1  0  0  0  0
  7 27  1  0  0  0  0
  8 28  1  0  0  0  0
  8 29  1  0  0  0  0
 10 12  1  0  0  0  0
 10 15  2  0  0  0  0
 11 10  1  0  0  0  0
 12 13  1  0  0  0  0
 12 14  1  0  0  0  0
 12 30  1  1  0  0  0
 14 31  1  0  0  0  0
 14 32  1  0  0  0  0
 14 33  1  0  0  0  0
M  CHG  3   9   2  11  -1  13  -1
M  END
>  <DRUGBANK_ID>
DB13049

>  <COMMON_NAME>
Lobaplatin

>  <CAS_NUMBER>
135558-11-1

>  <UNII>
OX5XK1JD8C

>  <SYNONYMS>
Lobaplatin

$$$$
