
 OpenBabel10282417163D

 26 26  0  0  0  0  0  0  0  0999 V2000
    0.9380    0.0822    0.0287 O   0  0  0  0  0  0  0  0  0  0  0  0
    0.3614   -1.1470    0.1444 C   0  0  0  0  0  0  0  0  0  0  0  0
    0.9862   -2.2001    0.2626 O   0  0  0  0  0  0  0  0  0  0  0  0
   -1.1756   -1.0773    0.1439 C   0  0  1  0  0  0  0  0  0  0  0  0
   -1.6823   -0.3103    1.3065 N   0  0  0  0  0  0  0  0  0  0  0  0
   -1.7178   -0.4899   -1.1691 C   0  0  0  0  0  0  0  0  0  0  0  0
   -1.2999   -1.3084   -2.3662 C   0  0  0  0  0  0  0  0  0  0  0  0
   -0.4919   -0.7473   -3.3620 C   0  0  0  0  0  0  0  0  0  0  0  0
   -1.6636   -2.6591   -2.4586 C   0  0  0  0  0  0  0  0  0  0  0  0
   -1.1709   -3.4517   -3.4912 C   0  0  0  0  0  0  0  0  0  0  0  0
   -0.0521   -1.5290   -4.4296 C   0  0  0  0  0  0  0  0  0  0  0  0
   -0.3917   -2.8797   -4.4933 C   0  0  0  0  0  0  0  0  0  0  0  0
    2.3674    0.0626    0.0327 C   0  0  0  0  0  0  0  0  0  0  0  0
   -1.5351   -2.1070    0.2650 H   0  0  0  0  0  0  0  0  0  0  0  0
   -2.7011   -0.3546    1.3077 H   0  0  0  0  0  0  0  0  0  0  0  0
   -1.3777   -0.7771    2.1609 H   0  0  0  0  0  0  0  0  0  0  0  0
   -2.8158   -0.4611   -1.1480 H   0  0  0  0  0  0  0  0  0  0  0  0
   -1.3866    0.5501   -1.2863 H   0  0  0  0  0  0  0  0  0  0  0  0
   -0.1905    0.2966   -3.3064 H   0  0  0  0  0  0  0  0  0  0  0  0
   -2.3123   -3.1108   -1.7115 H   0  0  0  0  0  0  0  0  0  0  0  0
   -1.3865   -4.5164   -3.5058 H   0  0  0  0  0  0  0  0  0  0  0  0
    0.5720   -1.0891   -5.2026 H   0  0  0  0  0  0  0  0  0  0  0  0
   -0.0490   -3.4890   -5.3244 H   0  0  0  0  0  0  0  0  0  0  0  0
    2.7224    1.0943   -0.0454 H   0  0  0  0  0  0  0  0  0  0  0  0
    2.7494   -0.3611    0.9674 H   0  0  0  0  0  0  0  0  0  0  0  0
    2.7474   -0.4970   -0.8284 H   0  0  0  0  0  0  0  0  0  0  0  0
  1 13  1  0  0  0  0
  2  1  1  0  0  0  0
  3  2  2  0  0  0  0
  4  2  1  0  0  0  0
  4  5  1  0  0  0  0
  4 14  1  1  0  0  0
  5 15  1  0  0  0  0
  5 16  1  0  0  0  0
  6  4  1  0  0  0  0
  6 17  1  0  0  0  0
  6 18  1  0  0  0  0
  7  6  1  0  0  0  0
  8  7  2  0  0  0  0
  8 19  1  0  0  0  0
  9  7  1  0  0  0  0
  9 20  1  0  0  0  0
 10  9  2  0  0  0  0
 10 21  1  0  0  0  0
 11  8  1  0  0  0  0
 11 12  2  0  0  0  0
 11 22  1  0  0  0  0
 12 10  1  0  0  0  0
 12 23  1  0  0  0  0
 13 24  1  0  0  0  0
 13 25  1  0  0  0  0
 13 26  1  0  0  0  0
M  END
>  <DRUGBANK_ID>
DB06838

>  <COMMON_NAME>
methyl L-phenylalaninate

>  <CAS_NUMBER>
2577-90-4

>  <UNII>
10AT497I17

>  <SYNONYMS>
(S)-phenylalanine methyl ester; Methyl 3-phenyl-L-alaninate; Phenylalanine methyl ester

$$$$
