
 OpenBabel10282417133D

 23 22  0  0  1  0  0  0  0  0999 V2000
   -1.0869   -0.2971   -6.2719 C   0  0  0  0  0  0  0  0  0  0  0  0
   -0.6303    0.4542   -5.0236 C   0  0  0  0  0  0  0  0  0  0  0  0
   -1.0159    1.9296   -5.1667 C   0  0  0  0  0  0  0  0  0  0  0  0
   -1.1444   -0.2382   -3.7254 C   0  0  2  0  0  0  0  0  0  0  0  0
   -2.1239   -1.2424   -4.0042 O   0  0  0  0  0  0  0  0  0  0  0  0
   -1.6989    0.7332   -2.6387 C   0  0  2  0  0  0  0  0  0  0  0  0
   -1.1719    0.4052   -1.2923 N   0  0  0  0  0  0  0  0  0  0  0  0
   -3.2479    0.7411   -2.6269 C   0  0  0  0  0  0  0  0  0  0  0  0
   -3.8057    1.9027   -3.0574 O   0  0  0  0  0  0  0  0  0  0  0  0
   -3.9582   -0.1900   -2.2572 O   0  0  0  0  0  0  0  0  0  0  0  0
   -2.1818   -0.3141   -6.3168 H   0  0  0  0  0  0  0  0  0  0  0  0
   -0.7197   -1.3284   -6.2589 H   0  0  0  0  0  0  0  0  0  0  0  0
   -0.7219    0.1772   -7.1857 H   0  0  0  0  0  0  0  0  0  0  0  0
    0.4698    0.4304   -4.9921 H   0  0  0  0  0  0  0  0  0  0  0  0
   -2.1001    2.0490   -5.1003 H   0  0  0  0  0  0  0  0  0  0  0  0
   -0.5363    2.5493   -4.4010 H   0  0  0  0  0  0  0  0  0  0  0  0
   -0.6943    2.3411   -6.1270 H   0  0  0  0  0  0  0  0  0  0  0  0
   -0.2897   -0.7950   -3.3140 H   0  0  0  0  0  0  0  0  0  0  0  0
   -1.7597   -1.9570   -4.5495 H   0  0  0  0  0  0  0  0  0  0  0  0
   -1.3506    1.7551   -2.7768 H   0  0  0  0  0  0  0  0  0  0  0  0
   -0.1823    0.6441   -1.2530 H   0  0  0  0  0  0  0  0  0  0  0  0
   -1.2323   -0.6085   -1.1760 H   0  0  0  0  0  0  0  0  0  0  0  0
   -3.1814    2.6250   -3.2467 H   0  0  0  0  0  0  0  0  0  0  0  0
  1  2  1  0  0  0  0
  1 11  1  0  0  0  0
  1 12  1  0  0  0  0
  1 13  1  0  0  0  0
  2  3  1  0  0  0  0
  2 14  1  0  0  0  0
  3 15  1  0  0  0  0
  3 16  1  0  0  0  0
  3 17  1  0  0  0  0
  4 18  1  1  0  0  0
  4  5  1  0  0  0  0
  4  2  1  0  0  0  0
  5 19  1  0  0  0  0
  6  8  1  0  0  0  0
  6 20  1  6  0  0  0
  6  7  1  0  0  0  0
  6  4  1  0  0  0  0
  7 21  1  0  0  0  0
  7 22  1  0  0  0  0
  8  9  1  0  0  0  0
  8 10  2  0  0  0  0
  9 23  1  0  0  0  0
M  END
>  <DRUGBANK_ID>
DB02978

>  <SECONDARY_ACCESSION_NUMBERS>
EXPT01755

>  <COMMON_NAME>
Beta-Hydroxyleucine

$$$$
