
 OpenBabel10282417133D

 71 70  0  0  0  0  0  0  0  0999 V2000
    0.9716    0.0283    0.0252 C   0  0  0  0  0  0  0  0  0  0  0  0
   -1.6348   -3.8227    0.5188 C   0  0  0  0  0  0  0  0  0  0  0  0
    0.4952   -1.2031   -0.7324 C   0  0  0  0  0  0  0  0  0  0  0  0
   -1.0818   -2.6505    1.3108 C   0  0  0  0  0  0  0  0  0  0  0  0
    1.0021   -2.4986   -0.1014 C   0  0  0  0  0  0  0  0  0  0  0  0
    0.4456   -2.7836    1.2926 C   0  0  0  0  0  0  0  0  0  0  0  0
    0.5268    0.1021    1.4837 C   0  0  0  0  0  0  0  0  0  0  0  0
    1.0152    1.3079    2.2267 C   0  0  0  0  0  0  0  0  0  0  0  0
   -1.1437   -5.1168    1.1714 C   0  0  0  0  0  0  0  0  0  0  0  0
   -1.6197   -5.1597    2.6289 C   0  0  0  0  0  0  0  0  0  0  0  0
    0.4201    2.5363    1.5930 C   0  0  0  0  0  0  0  0  0  0  0  0
   -1.1147    2.4589    1.6282 C   0  0  0  0  0  0  0  0  0  0  0  0
   -3.1488   -5.1440    2.6458 C   0  0  0  0  0  0  0  0  0  0  0  0
   -3.6704   -6.3432    1.8490 C   0  0  0  0  0  0  0  0  0  0  0  0
   -1.6201    2.3359    3.0719 C   0  0  0  0  0  0  0  0  0  0  0  0
   -1.1213    3.5249    3.8982 C   0  0  0  0  0  0  0  0  0  0  0  0
   -3.1586   -7.6457    2.4751 C   0  0  0  0  0  0  0  0  0  0  0  0
   -3.6634   -7.7812    3.9154 C   0  0  0  0  0  0  0  0  0  0  0  0
   -1.6603    4.8443    3.3332 C   0  0  0  0  0  0  0  0  0  0  0  0
   -3.1887    4.8780    3.3135 C   0  0  0  0  0  0  0  0  0  0  0  0
   -5.1915   -7.7680    3.9659 C   0  0  0  0  0  0  0  0  0  0  0  0
   -5.7551   -8.9247    3.1568 C   0  0  0  0  0  0  0  0  0  0  0  0
   -3.7557    4.7138    4.7129 C   0  0  0  0  0  0  0  0  0  0  0  0
   -4.4835    5.7705    5.1343 O   0  0  0  0  0  0  0  0  0  0  0  0
   -3.5944    3.7383    5.4132 O   0  0  0  0  0  0  0  0  0  0  0  0
    0.6043    0.8940   -0.5331 H   0  0  0  0  0  0  0  0  0  0  0  0
    2.0646    0.0596   -0.0018 H   0  0  0  0  0  0  0  0  0  0  0  0
   -2.7253   -3.7577    0.4662 H   0  0  0  0  0  0  0  0  0  0  0  0
   -1.3172   -3.7773   -0.5261 H   0  0  0  0  0  0  0  0  0  0  0  0
   -0.5976   -1.1870   -0.8330 H   0  0  0  0  0  0  0  0  0  0  0  0
    0.8595   -1.1458   -1.7649 H   0  0  0  0  0  0  0  0  0  0  0  0
   -1.4521   -2.6024    2.3411 H   0  0  0  0  0  0  0  0  0  0  0  0
   -1.4789   -1.7283    0.8811 H   0  0  0  0  0  0  0  0  0  0  0  0
    0.7343   -3.3291   -0.7654 H   0  0  0  0  0  0  0  0  0  0  0  0
    2.0942   -2.4903   -0.0628 H   0  0  0  0  0  0  0  0  0  0  0  0
    0.8115   -3.7512    1.6248 H   0  0  0  0  0  0  0  0  0  0  0  0
    0.9088   -2.2472    2.1036 H   0  0  0  0  0  0  0  0  0  0  0  0
   -0.5537   -0.0401    1.5811 H   0  0  0  0  0  0  0  0  0  0  0  0
    1.0047   -0.6317    2.0935 H   0  0  0  0  0  0  0  0  0  0  0  0
    0.7309    1.1930    3.2828 H   0  0  0  0  0  0  0  0  0  0  0  0
    2.1082    1.3157    2.2269 H   0  0  0  0  0  0  0  0  0  0  0  0
   -1.4649   -5.9722    0.5788 H   0  0  0  0  0  0  0  0  0  0  0  0
   -0.0603   -5.2377    1.1364 H   0  0  0  0  0  0  0  0  0  0  0  0
   -1.1996   -6.0357    3.1282 H   0  0  0  0  0  0  0  0  0  0  0  0
   -1.2347   -4.3341    3.2363 H   0  0  0  0  0  0  0  0  0  0  0  0
    0.8123    3.4123    2.1106 H   0  0  0  0  0  0  0  0  0  0  0  0
    0.7678    2.6391    0.5639 H   0  0  0  0  0  0  0  0  0  0  0  0
   -1.5242    3.3361    1.1238 H   0  0  0  0  0  0  0  0  0  0  0  0
   -1.5085    1.6239    1.0378 H   0  0  0  0  0  0  0  0  0  0  0  0
   -3.5104   -5.1377    3.6768 H   0  0  0  0  0  0  0  0  0  0  0  0
   -3.5564   -4.2168    2.2303 H   0  0  0  0  0  0  0  0  0  0  0  0
   -4.7599   -6.3050    1.7931 H   0  0  0  0  0  0  0  0  0  0  0  0
   -3.3717   -6.3005    0.7968 H   0  0  0  0  0  0  0  0  0  0  0  0
   -2.7115    2.2594    3.0748 H   0  0  0  0  0  0  0  0  0  0  0  0
   -1.3003    1.3997    3.5441 H   0  0  0  0  0  0  0  0  0  0  0  0
   -1.3913    3.3935    4.9469 H   0  0  0  0  0  0  0  0  0  0  0  0
   -0.0275    3.5575    3.9318 H   0  0  0  0  0  0  0  0  0  0  0  0
   -3.4596   -8.4947    1.8576 H   0  0  0  0  0  0  0  0  0  0  0  0
   -2.0648   -7.7029    2.4642 H   0  0  0  0  0  0  0  0  0  0  0  0
   -3.2724   -8.7025    4.3564 H   0  0  0  0  0  0  0  0  0  0  0  0
   -3.2709   -6.9743    4.5467 H   0  0  0  0  0  0  0  0  0  0  0  0
   -1.2594    5.6804    3.9124 H   0  0  0  0  0  0  0  0  0  0  0  0
   -1.2850    4.9996    2.3123 H   0  0  0  0  0  0  0  0  0  0  0  0
   -3.5257    5.8094    2.8505 H   0  0  0  0  0  0  0  0  0  0  0  0
   -3.6103    4.0840    2.6863 H   0  0  0  0  0  0  0  0  0  0  0  0
   -5.5259   -7.8291    5.0047 H   0  0  0  0  0  0  0  0  0  0  0  0
   -5.5941   -6.8214    3.5858 H   0  0  0  0  0  0  0  0  0  0  0  0
   -5.3820   -9.8716    3.5575 H   0  0  0  0  0  0  0  0  0  0  0  0
   -6.8448   -8.9221    3.1843 H   0  0  0  0  0  0  0  0  0  0  0  0
   -5.4671   -8.8700    2.1017 H   0  0  0  0  0  0  0  0  0  0  0  0
   -4.5908    6.4821    4.4814 H   0  0  0  0  0  0  0  0  0  0  0  0
  1 26  1  0  0  0  0
  1 27  1  0  0  0  0
  2 28  1  0  0  0  0
  2 29  1  0  0  0  0
  3  1  1  0  0  0  0
  3 30  1  0  0  0  0
  3 31  1  0  0  0  0
  4  2  1  0  0  0  0
  4 32  1  0  0  0  0
  4 33  1  0  0  0  0
  5  3  1  0  0  0  0
  5 34  1  0  0  0  0
  5 35  1  0  0  0  0
  6  4  1  0  0  0  0
  6  5  1  0  0  0  0
  6 36  1  0  0  0  0
  6 37  1  0  0  0  0
  7  1  1  0  0  0  0
  7 38  1  0  0  0  0
  7 39  1  0  0  0  0
  8  7  1  0  0  0  0
  8 40  1  0  0  0  0
  8 41  1  0  0  0  0
  9  2  1  0  0  0  0
  9 42  1  0  0  0  0
  9 43  1  0  0  0  0
 10  9  1  0  0  0  0
 10 44  1  0  0  0  0
 10 45  1  0  0  0  0
 11  8  1  0  0  0  0
 11 46  1  0  0  0  0
 11 47  1  0  0  0  0
 12 11  1  0  0  0  0
 12 48  1  0  0  0  0
 12 49  1  0  0  0  0
 13 10  1  0  0  0  0
 13 50  1  0  0  0  0
 13 51  1  0  0  0  0
 14 13  1  0  0  0  0
 14 52  1  0  0  0  0
 14 53  1  0  0  0  0
 15 12  1  0  0  0  0
 15 54  1  0  0  0  0
 15 55  1  0  0  0  0
 16 15  1  0  0  0  0
 16 56  1  0  0  0  0
 16 57  1  0  0  0  0
 17 14  1  0  0  0  0
 17 58  1  0  0  0  0
 17 59  1  0  0  0  0
 18 17  1  0  0  0  0
 18 60  1  0  0  0  0
 18 61  1  0  0  0  0
 19 16  1  0  0  0  0
 19 62  1  0  0  0  0
 19 63  1  0  0  0  0
 20 19  1  0  0  0  0
 20 23  1  0  0  0  0
 20 64  1  0  0  0  0
 20 65  1  0  0  0  0
 21 18  1  0  0  0  0
 21 66  1  0  0  0  0
 21 67  1  0  0  0  0
 22 21  1  0  0  0  0
 22 68  1  0  0  0  0
 22 69  1  0  0  0  0
 22 70  1  0  0  0  0
 23 24  1  0  0  0  0
 23 25  2  0  0  0  0
 24 71  1  0  0  0  0
M  END
>  <DRUGBANK_ID>
DB03500

>  <SECONDARY_ACCESSION_NUMBERS>
EXPT01377

>  <COMMON_NAME>
Tricosanoic acid

>  <CAS_NUMBER>
2433-96-7

>  <UNII>
MUC9A0MS6V

>  <SYNONYMS>
n-Tricosanoic acid

$$$$
