
 OpenBabel10282417143D

 28 28  0  0  0  0  0  0  0  0999 V2000
    0.6754    0.0779   -0.0599 O   0  0  0  0  0  0  0  0  0  0  0  0
    1.8518    0.2604    0.1857 C   0  0  0  0  0  0  0  0  0  0  0  0
    2.6059    1.5470   -0.1387 C   0  0  0  0  0  0  0  0  0  0  0  0
    3.7838    1.7880    0.8020 C   0  0  0  0  0  0  0  0  0  0  0  0
    4.8027    0.6339    0.9895 C   0  0  0  0  0  0  0  0  0  0  0  0
    5.6979    0.1885   -0.2114 C   0  0  0  0  0  0  0  0  0  0  0  0
    5.2613    0.6468   -1.6068 C   0  0  0  0  0  0  0  0  0  0  0  0
    4.0938   -0.1869   -2.1611 C   0  0  0  0  0  0  0  0  0  0  0  0
    4.2677   -1.6294   -2.1302 N   0  0  0  0  0  0  0  0  0  0  0  0
    4.6429   -2.0728   -0.7807 C   0  0  0  0  0  0  0  0  0  0  0  0
    5.8872   -1.3442   -0.2713 C   0  0  0  0  0  0  0  0  0  0  0  0
    2.4565   -0.5905    0.5455 H   0  0  0  0  0  0  0  0  0  0  0  0
    2.9809    1.5894   -1.1562 H   0  0  0  0  0  0  0  0  0  0  0  0
    1.8810    2.3596   -0.1738 H   0  0  0  0  0  0  0  0  0  0  0  0
    4.3287    2.6771    0.4636 H   0  0  0  0  0  0  0  0  0  0  0  0
    3.3554    2.0349    1.7799 H   0  0  0  0  0  0  0  0  0  0  0  0
    5.4883    0.9594    1.7891 H   0  0  0  0  0  0  0  0  0  0  0  0
    4.3058   -0.2324    1.4380 H   0  0  0  0  0  0  0  0  0  0  0  0
    6.6898    0.6268   -0.0219 H   0  0  0  0  0  0  0  0  0  0  0  0
    5.0428    1.7217   -1.5829 H   0  0  0  0  0  0  0  0  0  0  0  0
    6.1052    0.5574   -2.3021 H   0  0  0  0  0  0  0  0  0  0  0  0
    3.2200   -0.1217   -1.5483 H   0  0  0  0  0  0  0  0  0  0  0  0
    3.7544    0.2140   -3.1224 H   0  0  0  0  0  0  0  0  0  0  0  0
    3.3475   -2.0346   -2.3388 H   0  0  0  0  0  0  0  0  0  0  0  0
    4.8112   -3.1516   -0.8131 H   0  0  0  0  0  0  0  0  0  0  0  0
    3.8233   -1.9333   -0.0703 H   0  0  0  0  0  0  0  0  0  0  0  0
    6.7130   -1.5715   -0.9583 H   0  0  0  0  0  0  0  0  0  0  0  0
    6.1712   -1.7339    0.7112 H   0  0  0  0  0  0  0  0  0  0  0  0
  1  2  2  0  0  0  0
  2  3  1  0  0  0  0
  2 12  1  0  0  0  0
  3  4  1  0  0  0  0
  3 13  1  0  0  0  0
  3 14  1  0  0  0  0
  4  5  1  0  0  0  0
  4 15  1  0  0  0  0
  4 16  1  0  0  0  0
  5  6  1  0  0  0  0
  5 17  1  0  0  0  0
  5 18  1  0  0  0  0
  6  7  1  0  0  0  0
  6 11  1  0  0  0  0
  6 19  1  0  0  0  0
  7  8  1  0  0  0  0
  7 20  1  0  0  0  0
  7 21  1  0  0  0  0
  8  9  1  0  0  0  0
  8 22  1  0  0  0  0
  8 23  1  0  0  0  0
  9 10  1  0  0  0  0
  9 24  1  0  0  0  0
 10 11  1  0  0  0  0
 10 25  1  0  0  0  0
 10 26  1  0  0  0  0
 11 27  1  0  0  0  0
 11 28  1  0  0  0  0
M  END
>  <DRUGBANK_ID>
DB04654

>  <COMMON_NAME>
4-PIPERIDIN-4-YLBUTANAL

$$$$
