
 OpenBabel10282417123D

 13 12  0  0  0  0  0  0  0  0999 V2000
    0.9889    0.0159   -0.1076 C   0  0  0  0  0  0  0  0  0  0  0  0
    0.4886   -1.4207   -0.2603 C   0  0  0  0  0  0  0  0  0  0  0  0
    0.9889   -2.2858    0.8966 C   0  0  0  0  0  0  0  0  0  0  0  0
   -0.9422   -1.4143   -0.2456 O   0  0  0  0  0  0  0  0  0  0  0  0
    0.9953   -1.9937   -1.5738 C   0  0  0  0  0  0  0  0  0  0  0  0
    1.4156   -2.4691   -2.6635 N   0  0  0  0  0  0  0  0  0  0  0  0
    0.6253    0.4607    0.8256 H   0  0  0  0  0  0  0  0  0  0  0  0
    0.6194    0.6493   -0.9224 H   0  0  0  0  0  0  0  0  0  0  0  0
    2.0838    0.0648   -0.1096 H   0  0  0  0  0  0  0  0  0  0  0  0
    0.6253   -1.9044    1.8575 H   0  0  0  0  0  0  0  0  0  0  0  0
    0.6194   -3.3140    0.8067 H   0  0  0  0  0  0  0  0  0  0  0  0
    2.0838   -2.3206    0.9311 H   0  0  0  0  0  0  0  0  0  0  0  0
   -1.2329   -1.0432    0.6050 H   0  0  0  0  0  0  0  0  0  0  0  0
  1  2  1  0  0  0  0
  1  7  1  0  0  0  0
  1  8  1  0  0  0  0
  1  9  1  0  0  0  0
  2  3  1  0  0  0  0
  2  4  1  0  0  0  0
  2  5  1  0  0  0  0
  3 10  1  0  0  0  0
  3 11  1  0  0  0  0
  3 12  1  0  0  0  0
  4 13  1  0  0  0  0
  5  6  3  0  0  0  0
M  END
>  <DRUGBANK_ID>
DB02203

>  <SECONDARY_ACCESSION_NUMBERS>
EXPT00968

>  <COMMON_NAME>
Acetone Cyanohydrin

>  <CAS_NUMBER>
75-86-5

>  <UNII>
CO1YOV1KFI

$$$$
