
 OpenBabel10282417203D

 30 30  0  0  0  0  0  0  0  0999 V2000
    1.6870   -0.3855    0.3390 C   0  0  0  0  0  0  0  0  0  0  0  0
    0.8840   -0.7910    1.6090 C   0  0  3  0  0  0  0  0  0  0  0  0
    1.1038    0.4057    2.5082 C   0  0  0  0  0  0  0  0  0  0  0  0
    0.3286    1.7527    2.0631 C   0  0  0  0  0  0  0  0  0  0  0  0
    0.9733    2.8587    1.1667 C   0  0  0  0  0  0  0  0  0  0  0  0
    1.3343    2.7167   -0.0066 O   0  0  0  0  0  0  0  0  0  0  0  0
    0.8959    4.1578    1.5577 N   0  0  0  0  0  0  0  0  0  0  0  0
    0.6007    4.6374    2.7903 C   0  0  0  0  0  0  0  0  0  0  0  0
    0.6316    5.8169    3.0465 O   0  0  0  0  0  0  0  0  0  0  0  0
    0.2702    3.6932    3.7064 N   0  0  0  0  0  0  0  0  0  0  0  0
    0.0468    2.3693    3.4780 C   0  0  0  0  0  0  0  0  0  0  0  0
   -0.3197    1.7081    4.4564 O   0  0  0  0  0  0  0  0  0  0  0  0
   -0.9722    1.4298    1.1218 C   0  0  0  0  0  0  0  0  0  0  0  0
   -0.7804    0.6331   -0.3023 C   0  0  0  0  0  0  0  0  0  0  0  0
   -0.9580   -0.6576   -0.7174 C   0  0  0  0  0  0  0  0  0  0  0  0
   -0.4659   -1.2134    1.8488 O   0  0  0  0  0  0  0  0  0  0  0  0
    1.6689    0.6889    0.2096 H   0  0  0  0  0  0  0  0  0  0  0  0
    1.4547   -0.7776   -0.6461 H   0  0  0  0  0  0  0  0  0  0  0  0
    2.7555   -0.5354    0.5113 H   0  0  0  0  0  0  0  0  0  0  0  0
    1.3571   -1.7224    1.9068 H   0  0  0  0  0  0  0  0  0  0  0  0
    0.7567    0.0484    3.4895 H   0  0  0  0  0  0  0  0  0  0  0  0
    2.1826    0.5632    2.6258 H   0  0  0  0  0  0  0  0  0  0  0  0
    1.1221    4.8447    0.8522 H   0  0  0  0  0  0  0  0  0  0  0  0
    0.1081    4.0342    4.6453 H   0  0  0  0  0  0  0  0  0  0  0  0
   -1.7329    0.9904    1.7716 H   0  0  0  0  0  0  0  0  0  0  0  0
   -1.4112    2.3933    0.8291 H   0  0  0  0  0  0  0  0  0  0  0  0
   -0.1976    1.2033   -1.0365 H   0  0  0  0  0  0  0  0  0  0  0  0
   -0.4144   -1.0478   -1.5921 H   0  0  0  0  0  0  0  0  0  0  0  0
   -1.3471   -1.5117   -0.1613 H   0  0  0  0  0  0  0  0  0  0  0  0
   -1.1879   -0.6942    1.4682 H   0  0  0  0  0  0  0  0  0  0  0  0
  1  2  1  0  0  0  0
  1 17  1  0  0  0  0
  1 18  1  0  0  0  0
  1 19  1  0  0  0  0
  2  3  1  0  0  0  0
  2 16  1  0  0  0  0
  2 20  1  0  0  0  0
  3  4  1  0  0  0  0
  3 21  1  0  0  0  0
  3 22  1  0  0  0  0
  4  5  1  0  0  0  0
  4 11  1  0  0  0  0
  4 13  1  0  0  0  0
  5  6  2  0  0  0  0
  5  7  1  0  0  0  0
  7  8  1  0  0  0  0
  7 23  1  0  0  0  0
  8  9  2  0  0  0  0
  8 10  1  0  0  0  0
 10 11  1  0  0  0  0
 10 24  1  0  0  0  0
 11 12  2  0  0  0  0
 13 14  1  0  0  0  0
 13 25  1  0  0  0  0
 13 26  1  0  0  0  0
 14 15  2  0  0  0  0
 14 27  1  0  0  0  0
 15 28  1  0  0  0  0
 15 29  1  0  0  0  0
 16 30  1  0  0  0  0
M  END
>  <DRUGBANK_ID>
DB13253

>  <COMMON_NAME>
Proxibarbal

>  <CAS_NUMBER>
2537-29-3

>  <UNII>
F97OMS297F

>  <SYNONYMS>
Proxibarbal

$$$$
