
 OpenBabel10282417133D

 23 23  0  0  0  0  0  0  0  0999 V2000
    0.9383   -1.5095    2.0139 N   0  0  0  0  0  0  0  0  0  0  0  0
    0.4651   -1.3321    0.6166 C   0  0  1  0  0  0  0  0  0  0  0  0
   -1.0681   -1.3051    0.5649 C   0  0  0  0  0  0  0  0  0  0  0  0
   -1.5834   -1.1087   -0.8191 C   0  0  0  0  0  0  0  0  0  0  0  0
   -1.7621    0.0851   -1.4828 C   0  0  0  0  0  0  0  0  0  0  0  0
   -2.3014   -1.6148   -2.7728 C   0  0  0  0  0  0  0  0  0  0  0  0
   -1.9055   -2.1618   -1.6417 N   0  0  0  0  0  0  0  0  0  0  0  0
    1.6572   -0.1465   -1.1437 O   0  0  0  0  0  0  0  0  0  0  0  0
    1.0563   -0.0216    0.0627 C   0  0  0  0  0  0  0  0  0  0  0  0
    1.0287    1.0469    0.6640 O   0  0  0  0  0  0  0  0  0  0  0  0
   -2.1994   -0.2559   -2.7268 N   0  0  0  0  0  0  0  0  0  0  0  0
   -2.4667    0.6731   -3.7937 C   0  0  0  0  0  0  0  0  0  0  0  0
    0.6322   -0.6907    2.5500 H   0  0  0  0  0  0  0  0  0  0  0  0
    1.9578   -1.4463    2.0244 H   0  0  0  0  0  0  0  0  0  0  0  0
    0.8456   -2.1754    0.0301 H   0  0  0  0  0  0  0  0  0  0  0  0
   -1.4686   -2.2416    0.9749 H   0  0  0  0  0  0  0  0  0  0  0  0
   -1.4581   -0.4977    1.1993 H   0  0  0  0  0  0  0  0  0  0  0  0
   -1.5884    1.1084   -1.1779 H   0  0  0  0  0  0  0  0  0  0  0  0
   -2.6545   -2.1514   -3.6449 H   0  0  0  0  0  0  0  0  0  0  0  0
    1.5780   -1.0387   -1.5355 H   0  0  0  0  0  0  0  0  0  0  0  0
   -3.2242    1.3830   -3.4519 H   0  0  0  0  0  0  0  0  0  0  0  0
   -1.5363    1.1974   -4.0299 H   0  0  0  0  0  0  0  0  0  0  0  0
   -2.8250    0.1347   -4.6735 H   0  0  0  0  0  0  0  0  0  0  0  0
  1 13  1  0  0  0  0
  1 14  1  0  0  0  0
  2 15  1  6  0  0  0
  2  9  1  0  0  0  0
  2  1  1  0  0  0  0
  3  2  1  0  0  0  0
  3 16  1  0  0  0  0
  3 17  1  0  0  0  0
  4  3  1  0  0  0  0
  5  4  2  0  0  0  0
  5 18  1  0  0  0  0
  6 11  1  0  0  0  0
  6  7  2  0  0  0  0
  6 19  1  0  0  0  0
  7  4  1  0  0  0  0
  8 20  1  0  0  0  0
  9  8  1  0  0  0  0
 10  9  2  0  0  0  0
 11  5  1  0  0  0  0
 11 12  1  0  0  0  0
 12 21  1  0  0  0  0
 12 22  1  0  0  0  0
 12 23  1  0  0  0  0
M  END
>  <DRUGBANK_ID>
DB04151

>  <SECONDARY_ACCESSION_NUMBERS>
EXPT01748

>  <COMMON_NAME>
1-Methylhistidine

>  <CAS_NUMBER>
332-80-9

>  <UNII>
583O01BJ32

>  <SYNONYMS>
(2S)-2-amino-3-(1-methyl-1H-imidazol-4-yl)propanoic acid; 1-methyl-L-histidine; N(tele)-methyl-L-histidine; Pi-methylhistidine

$$$$
