
 OpenBabel10282417213D

 53 56  0  0  0  0  0  0  0  0999 V2000
   -5.4618   -1.8967    7.9067 N   0  0  0  0  0  0  0  0  0  0  0  0
   -6.1017   -1.3176    6.8062 C   0  0  0  0  0  0  0  0  0  0  0  0
   -7.2978   -1.8392    6.4692 N   0  0  0  0  0  0  0  0  0  0  0  0
   -7.8645   -1.3736    5.3402 C   0  0  0  0  0  0  0  0  0  0  0  0
   -7.3403   -0.4571    4.5162 N   0  0  0  0  0  0  0  0  0  0  0  0
   -6.1355    0.0208    4.8815 C   0  0  0  0  0  0  0  0  0  0  0  0
   -5.4748   -0.3591    6.0266 C   0  0  0  0  0  0  0  0  0  0  0  0
   -4.1195    0.1145    6.3296 C   0  0  0  0  0  0  0  0  0  0  0  0
   -3.9194    0.7512    7.3601 O   0  0  0  0  0  0  0  0  0  0  0  0
   -3.1347   -0.1510    5.3789 N   0  0  0  0  0  0  0  0  0  0  0  0
   -3.1591    0.5922    4.1234 C   0  0  0  0  0  0  0  0  0  0  0  0
   -4.4597    0.3660    3.3396 C   0  0  0  0  0  0  0  0  0  0  0  0
   -5.5919    0.9350    4.0129 O   0  0  0  0  0  0  0  0  0  0  0  0
   -2.2105   -1.2222    5.5388 C   0  0  0  0  0  0  0  0  0  0  0  0
   -0.8395   -1.0424    5.3313 C   0  0  0  0  0  0  0  0  0  0  0  0
    0.0391   -2.1329    5.3630 C   0  0  0  0  0  0  0  0  0  0  0  0
   -0.4319   -3.4408    5.5354 C   0  0  0  0  0  0  0  0  0  0  0  0
   -1.7968   -3.6010    5.8065 C   0  0  0  0  0  0  0  0  0  0  0  0
   -2.6710   -2.5086    5.8156 C   0  0  0  0  0  0  0  0  0  0  0  0
    0.5166   -4.6128    5.2849 C   0  0  1  0  0  0  0  0  0  0  0  0
    1.8585   -4.4715    6.0317 C   0  0  0  0  0  0  0  0  0  0  0  0
    1.6662   -4.7070    7.5270 C   0  0  0  0  0  0  0  0  0  0  0  0
    1.1301   -6.1238    7.7966 C   0  0  2  0  0  0  0  0  0  0  0  0
    2.1211   -7.2259    7.3709 C   0  0  0  0  0  0  0  0  0  0  0  0
    3.4705   -7.1036    8.0418 C   0  0  0  0  0  0  0  0  0  0  0  0
    3.8234   -8.1643    8.7902 O   0  0  0  0  0  0  0  0  0  0  0  0
    4.2233   -6.1434    7.9042 O   0  0  0  0  0  0  0  0  0  0  0  0
   -0.2135   -6.2963    7.0620 C   0  0  0  0  0  0  0  0  0  0  0  0
   -0.0920   -6.0060    5.5597 C   0  0  0  0  0  0  0  0  0  0  0  0
   -5.9986   -2.6580    8.3048 H   0  0  0  0  0  0  0  0  0  0  0  0
   -5.1868   -1.1998    8.5997 H   0  0  0  0  0  0  0  0  0  0  0  0
   -8.8253   -1.7951    5.0562 H   0  0  0  0  0  0  0  0  0  0  0  0
   -3.0628    1.6534    4.3785 H   0  0  0  0  0  0  0  0  0  0  0  0
   -2.3101    0.3054    3.4933 H   0  0  0  0  0  0  0  0  0  0  0  0
   -4.3829    0.8881    2.3801 H   0  0  0  0  0  0  0  0  0  0  0  0
   -4.6207   -0.6972    3.1135 H   0  0  0  0  0  0  0  0  0  0  0  0
   -0.4169   -0.0587    5.1513 H   0  0  0  0  0  0  0  0  0  0  0  0
    1.1000   -1.9475    5.2104 H   0  0  0  0  0  0  0  0  0  0  0  0
   -2.2368   -4.5792    5.9785 H   0  0  0  0  0  0  0  0  0  0  0  0
   -3.7274   -2.7169    5.9418 H   0  0  0  0  0  0  0  0  0  0  0  0
    0.7341   -4.5759    4.2077 H   0  0  0  0  0  0  0  0  0  0  0  0
    2.5780   -5.1898    5.6180 H   0  0  0  0  0  0  0  0  0  0  0  0
    2.3316   -3.4982    5.8769 H   0  0  0  0  0  0  0  0  0  0  0  0
    2.6034   -4.5234    8.0567 H   0  0  0  0  0  0  0  0  0  0  0  0
    0.9701   -3.9630    7.9339 H   0  0  0  0  0  0  0  0  0  0  0  0
    0.9447   -6.2189    8.8742 H   0  0  0  0  0  0  0  0  0  0  0  0
    1.6784   -8.2080    7.5727 H   0  0  0  0  0  0  0  0  0  0  0  0
    2.3109   -7.2156    6.2925 H   0  0  0  0  0  0  0  0  0  0  0  0
    3.1851   -8.8998    8.7912 H   0  0  0  0  0  0  0  0  0  0  0  0
   -0.6155   -7.3047    7.2103 H   0  0  0  0  0  0  0  0  0  0  0  0
   -0.9434   -5.6145    7.5154 H   0  0  0  0  0  0  0  0  0  0  0  0
   -1.0648   -6.1177    5.0669 H   0  0  0  0  0  0  0  0  0  0  0  0
    0.5397   -6.7721    5.0933 H   0  0  0  0  0  0  0  0  0  0  0  0
  1  2  1  0  0  0  0
  1 30  1  0  0  0  0
  1 31  1  0  0  0  0
  2  3  2  0  0  0  0
  2  7  1  0  0  0  0
  3  4  1  0  0  0  0
  4  5  2  0  0  0  0
  4 32  1  0  0  0  0
  5  6  1  0  0  0  0
  6  7  2  0  0  0  0
  6 13  1  0  0  0  0
  7  8  1  0  0  0  0
  8  9  2  0  0  0  0
  8 10  1  0  0  0  0
 10 11  1  0  0  0  0
 10 14  1  0  0  0  0
 11 12  1  0  0  0  0
 11 33  1  0  0  0  0
 11 34  1  0  0  0  0
 12 13  1  0  0  0  0
 12 35  1  0  0  0  0
 12 36  1  0  0  0  0
 14 15  2  0  0  0  0
 14 19  1  0  0  0  0
 15 16  1  0  0  0  0
 15 37  1  0  0  0  0
 16 17  2  0  0  0  0
 16 38  1  0  0  0  0
 17 18  1  0  0  0  0
 18 19  2  0  0  0  0
 18 39  1  0  0  0  0
 19 40  1  0  0  0  0
 20 21  1  0  0  0  0
 20 29  1  0  0  0  0
 20 41  1  6  0  0  0
 20 17  1  0  0  0  0
 21 22  1  0  0  0  0
 21 42  1  0  0  0  0
 21 43  1  0  0  0  0
 22 44  1  0  0  0  0
 22 45  1  0  0  0  0
 23 22  1  0  0  0  0
 23 24  1  0  0  0  0
 23 28  1  0  0  0  0
 23 46  1  1  0  0  0
 24 25  1  0  0  0  0
 24 47  1  0  0  0  0
 24 48  1  0  0  0  0
 25 26  1  0  0  0  0
 25 27  2  0  0  0  0
 26 49  1  0  0  0  0
 28 29  1  0  0  0  0
 28 50  1  0  0  0  0
 28 51  1  0  0  0  0
 29 52  1  0  0  0  0
 29 53  1  0  0  0  0
M  END
>  <DRUGBANK_ID>
DB14887

>  <COMMON_NAME>
PF-04620110

>  <CAS_NUMBER>
1109276-89-2

>  <UNII>
CQ4M18RLJW

$$$$
