6116
 OpenBabel10282417103D

 15 12  0  0  0  0  0  0  0  0999 V2000
    0.7212   -0.4627   -1.3013 Ca  0  2  0  0  0  0  0  0  0  0  0  0
    0.1902   -0.2632    0.9275 O   0  5  0  0  0  0  0  0  0  0  0  0
    2.2866    0.8742   -1.3935 O   0  5  0  0  0  0  0  0  0  0  0  0
    1.8099   -1.5048    0.2830 O   0  0  0  0  0  0  0  0  0  0  0  0
    4.0904   -0.3242   -0.7756 O   0  0  0  0  0  0  0  0  0  0  0  0
    2.3126    0.3641    1.7679 C   0  0  0  0  0  0  0  0  0  0  0  0
    4.0874    1.9872   -0.3115 C   0  0  0  0  0  0  0  0  0  0  0  0
    1.3996   -0.6372    1.1094 C   0  0  0  0  0  0  0  0  0  0  0  0
    3.4670    0.7402   -0.8758 C   0  0  0  0  0  0  0  0  0  0  0  0
    2.0702    1.3337    1.3057 H   0  0  0  0  0  0  0  0  0  0  0  0
    2.1318    0.5045    2.8279 H   0  0  0  0  0  0  0  0  0  0  0  0
    3.3883    0.1895    1.6439 H   0  0  0  0  0  0  0  0  0  0  0  0
    3.7272    2.8229   -0.9081 H   0  0  0  0  0  0  0  0  0  0  0  0
    3.8662    2.2148    0.7376 H   0  0  0  0  0  0  0  0  0  0  0  0
    5.1688    1.8709   -0.3830 H   0  0  0  0  0  0  0  0  0  0  0  0
  2  8  1  0  0  0  0
  3  9  1  0  0  0  0
  4  8  2  0  0  0  0
  5  9  2  0  0  0  0
  6  8  1  0  0  0  0
  6 10  1  0  0  0  0
  6 11  1  0  0  0  0
  6 12  1  0  0  0  0
  7  9  1  0  0  0  0
  7 13  1  0  0  0  0
  7 14  1  0  0  0  0
  7 15  1  0  0  0  0
M  CHG  3   1   2   2  -1   3  -1
M  END
>  <DRUGBANK_ID>
DB00258

>  <SECONDARY_ACCESSION_NUMBERS>
APRD00839

>  <COMMON_NAME>
Calcium acetate

>  <CAS_NUMBER>
62-54-4

>  <UNII>
Y882YXF34X

>  <SYNONYMS>
Acetate of lime; Brown acetate of lime; Calcio acetato; Calcium acetate; calcium ethanoate; calcium(II) acetate; Gray acetate of lime; Lime acetate; Lime pyrolignite

$$$$
