CO4
 OpenBabel10282417123D

 52 54  0  0  0  0  0  0  0  0999 V2000
    0.9157   -0.0812    0.1138 N   0  0  0  0  0  0  0  0  0  0  0  0
    0.2873    0.5506    1.1605 C   0  0  0  0  0  0  0  0  0  0  0  0
    0.8133    1.6969    1.5582 N   0  0  0  0  0  0  0  0  0  0  0  0
    0.2183    2.3237    2.5832 C   0  0  0  0  0  0  0  0  0  0  0  0
    0.6829    3.6252    2.7417 N   0  0  0  0  0  0  0  0  0  0  0  0
   -0.8454    1.7576    3.3200 C   0  0  0  0  0  0  0  0  0  0  0  0
   -1.5108    2.2842    4.4893 C   0  0  0  0  0  0  0  0  0  0  0  0
   -2.5315    1.5357    5.1070 C   0  0  0  0  0  0  0  0  0  0  0  0
   -2.8582    0.3240    4.5299 C   0  0  0  0  0  0  0  0  0  0  0  0
   -2.2619   -0.1667    3.4160 N   0  0  0  0  0  0  0  0  0  0  0  0
   -1.2820    0.5269    2.8187 C   0  0  0  0  0  0  0  0  0  0  0  0
   -0.7608   -0.0339    1.7232 N   0  0  0  0  0  0  0  0  0  0  0  0
   -3.2540    2.0350    6.3429 C   0  0  0  0  0  0  0  0  0  0  0  0
   -4.6655    2.2634    6.0828 N   0  0  0  0  0  0  0  0  0  0  0  0
   -5.5973    1.6227    6.8757 C   0  0  0  0  0  0  0  0  0  0  0  0
   -5.4652    1.5899    8.2714 C   0  0  0  0  0  0  0  0  0  0  0  0
   -6.3674    0.8905    9.0785 C   0  0  0  0  0  0  0  0  0  0  0  0
   -6.2676    0.8386   10.4391 O   0  0  0  0  0  0  0  0  0  0  0  0
   -5.2250    1.5155   11.1101 C   0  0  0  0  0  0  0  0  0  0  0  0
   -7.4380    0.1947    8.4841 C   0  0  0  0  0  0  0  0  0  0  0  0
   -8.3712   -0.5351    9.1680 O   0  0  0  0  0  0  0  0  0  0  0  0
   -8.3364   -0.6464   10.5756 C   0  0  0  0  0  0  0  0  0  0  0  0
   -7.5897    0.2289    7.0823 C   0  0  0  0  0  0  0  0  0  0  0  0
   -8.5577   -0.3897    6.3232 O   0  0  0  0  0  0  0  0  0  0  0  0
   -9.5447   -1.1534    7.0048 C   0  0  0  0  0  0  0  0  0  0  0  0
   -6.6755    0.9484    6.3034 C   0  0  0  0  0  0  0  0  0  0  0  0
   -5.0786    3.1545    5.0052 C   0  0  0  0  0  0  0  0  0  0  0  0
   -1.1943    3.5971    5.1449 C   0  0  0  0  0  0  0  0  0  0  0  0
    0.3566   -0.6033   -0.5375 H   0  0  0  0  0  0  0  0  0  0  0  0
    1.8416    0.2371   -0.1137 H   0  0  0  0  0  0  0  0  0  0  0  0
    0.8824    3.9321    3.6775 H   0  0  0  0  0  0  0  0  0  0  0  0
    1.4957    3.7602    2.1481 H   0  0  0  0  0  0  0  0  0  0  0  0
   -3.6461   -0.3059    4.9453 H   0  0  0  0  0  0  0  0  0  0  0  0
   -3.0632    1.3192    7.1530 H   0  0  0  0  0  0  0  0  0  0  0  0
   -2.8516    2.9769    6.7239 H   0  0  0  0  0  0  0  0  0  0  0  0
   -4.6488    2.1440    8.7226 H   0  0  0  0  0  0  0  0  0  0  0  0
   -4.2489    1.1205   10.8167 H   0  0  0  0  0  0  0  0  0  0  0  0
   -5.2955    2.5949   10.9542 H   0  0  0  0  0  0  0  0  0  0  0  0
   -5.3578    1.3212   12.1794 H   0  0  0  0  0  0  0  0  0  0  0  0
   -7.4245   -1.1531   10.9055 H   0  0  0  0  0  0  0  0  0  0  0  0
   -8.4795    0.3303   11.0472 H   0  0  0  0  0  0  0  0  0  0  0  0
   -9.1790   -1.2743   10.8748 H   0  0  0  0  0  0  0  0  0  0  0  0
   -9.0904   -2.0020    7.5292 H   0  0  0  0  0  0  0  0  0  0  0  0
  -10.1381   -0.5173    7.6714 H   0  0  0  0  0  0  0  0  0  0  0  0
  -10.2362   -1.5714    6.2702 H   0  0  0  0  0  0  0  0  0  0  0  0
   -6.7859    0.9393    5.2206 H   0  0  0  0  0  0  0  0  0  0  0  0
   -4.6676    4.1584    5.1649 H   0  0  0  0  0  0  0  0  0  0  0  0
   -4.7196    2.7905    4.0376 H   0  0  0  0  0  0  0  0  0  0  0  0
   -6.1660    3.2637    4.9362 H   0  0  0  0  0  0  0  0  0  0  0  0
   -2.1002    4.2111    5.1680 H   0  0  0  0  0  0  0  0  0  0  0  0
   -0.8214    3.4107    6.1588 H   0  0  0  0  0  0  0  0  0  0  0  0
   -0.4723    4.2368    4.6738 H   0  0  0  0  0  0  0  0  0  0  0  0
  1  2  1  0  0  0  0
  1 29  1  0  0  0  0
  1 30  1  0  0  0  0
  2  3  2  0  0  0  0
  2 12  1  0  0  0  0
  3  4  1  0  0  0  0
  4  5  1  0  0  0  0
  4  6  2  0  0  0  0
  5 31  1  0  0  0  0
  5 32  1  0  0  0  0
  6  7  1  0  0  0  0
  6 11  1  0  0  0  0
  7  8  2  0  0  0  0
  7 28  1  0  0  0  0
  8  9  1  0  0  0  0
  8 13  1  0  0  0  0
  9 10  2  0  0  0  0
  9 33  1  0  0  0  0
 10 11  1  0  0  0  0
 11 12  2  0  0  0  0
 13 14  1  0  0  0  0
 13 34  1  0  0  0  0
 13 35  1  0  0  0  0
 14 15  1  0  0  0  0
 14 27  1  0  0  0  0
 15 16  2  0  0  0  0
 15 26  1  0  0  0  0
 16 17  1  0  0  0  0
 16 36  1  0  0  0  0
 17 18  1  0  0  0  0
 17 20  2  0  0  0  0
 18 19  1  0  0  0  0
 19 37  1  0  0  0  0
 19 38  1  0  0  0  0
 19 39  1  0  0  0  0
 20 21  1  0  0  0  0
 20 23  1  0  0  0  0
 21 22  1  0  0  0  0
 22 40  1  0  0  0  0
 22 41  1  0  0  0  0
 22 42  1  0  0  0  0
 23 24  1  0  0  0  0
 23 26  2  0  0  0  0
 24 25  1  0  0  0  0
 25 43  1  0  0  0  0
 25 44  1  0  0  0  0
 25 45  1  0  0  0  0
 26 46  1  0  0  0  0
 27 47  1  0  0  0  0
 27 48  1  0  0  0  0
 27 49  1  0  0  0  0
 28 50  1  0  0  0  0
 28 51  1  0  0  0  0
 28 52  1  0  0  0  0
M  END
>  <DRUGBANK_ID>
DB02104

>  <SECONDARY_ACCESSION_NUMBERS>
EXPT00976

>  <COMMON_NAME>
2,4-Diamino-5-Methyl-6-[(3,4,5-Trimethoxy-N-Methylanilino)Methyl]Pyrido[2,3-D]Pyrimidine

$$$$
