1016
 OpenBabel10282417113D

 61 63  0  0  0  0  0  0  0  0999 V2000
   -2.0572   -0.3088   -0.0034 Cl  0  0  0  0  0  0  0  0  0  0  0  0
    1.4661   10.5812   -0.0050 S   0  0  0  0  0  0  0  0  0  0  0  0
    5.2655    9.1956   -0.3296 O   0  0  0  0  0  0  0  0  0  0  0  0
    1.0660   11.4472   -1.0393 O   0  0  0  0  0  0  0  0  0  0  0  0
    1.2614   11.1514    1.3591 O   0  0  0  0  0  0  0  0  0  0  0  0
    3.3959    2.9151    0.0666 O   0  0  0  0  0  0  0  0  0  0  0  0
    3.8745   -0.2360    0.0490 O   0  0  0  0  0  0  0  0  0  0  0  0
    3.8482    7.9383    0.8677 N   0  0  0  0  0  0  0  0  0  0  0  0
    3.2301   10.2347   -0.0743 N   0  0  0  0  0  0  0  0  0  0  0  0
    1.4745    3.5130   -0.2378 N   0  0  0  0  0  0  0  0  0  0  0  0
    2.5738    7.7546    1.5612 C   0  0  0  0  0  0  0  0  0  0  0  0
    2.1735    8.8712    2.4696 C   0  0  0  0  0  0  0  0  0  0  0  0
    2.0532    6.4620    2.2155 C   0  0  0  0  0  0  0  0  0  0  0  0
    0.6968    9.0506    2.8335 C   0  0  0  0  0  0  0  0  0  0  0  0
    0.6375    6.4963    2.9363 C   0  0  0  0  0  0  0  0  0  0  0  0
    0.1610    7.8209    3.4858 C   0  0  0  0  0  0  0  0  0  0  0  0
    4.1477    9.1189    0.1360 C   0  0  0  0  0  0  0  0  0  0  0  0
    0.3992    8.7995   -0.3481 C   0  0  0  0  0  0  0  0  0  0  0  0
   -0.2836    6.0522    0.2678 C   0  0  0  0  0  0  0  0  0  0  0  0
   -0.4056    4.6256    0.8072 C   0  0  0  0  0  0  0  0  0  0  0  0
    1.1096    7.7264   -0.9380 C   0  0  0  0  0  0  0  0  0  0  0  0
   -0.8094    8.4465    0.3483 C   0  0  0  0  0  0  0  0  0  0  0  0
    0.8488    6.4311   -0.4644 C   0  0  0  0  0  0  0  0  0  0  0  0
   -1.1556    7.0816    0.6109 C   0  0  0  0  0  0  0  0  0  0  0  0
    0.0804    3.8192   -0.3537 C   0  0  0  0  0  0  0  0  0  0  0  0
    2.2635    2.4703   -0.0091 C   0  0  0  0  0  0  0  0  0  0  0  0
    1.7340    1.0726    0.0367 C   0  0  0  0  0  0  0  0  0  0  0  0
    2.5115   -0.0772    0.0315 C   0  0  0  0  0  0  0  0  0  0  0  0
    0.3369    0.8717    0.0524 C   0  0  0  0  0  0  0  0  0  0  0  0
    1.8225   -1.3208    0.0064 C   0  0  0  0  0  0  0  0  0  0  0  0
   -0.3334   -0.3249    0.0003 C   0  0  0  0  0  0  0  0  0  0  0  0
    0.4198   -1.4507   -0.0193 C   0  0  0  0  0  0  0  0  0  0  0  0
    4.7052    0.9160    0.0717 C   0  0  0  0  0  0  0  0  0  0  0  0
    4.2468    7.1573    0.3375 H   0  0  0  0  0  0  0  0  0  0  0  0
    3.7647   11.1071    0.0944 H   0  0  0  0  0  0  0  0  0  0  0  0
    2.1828    4.2238   -0.3700 H   0  0  0  0  0  0  0  0  0  0  0  0
    2.0953    8.0361    0.6932 H   0  0  0  0  0  0  0  0  0  0  0  0
    2.8599    9.0179    3.2804 H   0  0  0  0  0  0  0  0  0  0  0  0
    2.4587    9.6826    1.8777 H   0  0  0  0  0  0  0  0  0  0  0  0
    2.1595    5.5375    1.6355 H   0  0  0  0  0  0  0  0  0  0  0  0
    2.7628    6.3240    3.0200 H   0  0  0  0  0  0  0  0  0  0  0  0
    0.5376    9.8985    3.5012 H   0  0  0  0  0  0  0  0  0  0  0  0
    0.0708    9.4386    2.0385 H   0  0  0  0  0  0  0  0  0  0  0  0
    0.6457    5.7133    3.6966 H   0  0  0  0  0  0  0  0  0  0  0  0
   -0.2547    6.1141    2.4592 H   0  0  0  0  0  0  0  0  0  0  0  0
    0.5853    7.8551    4.4750 H   0  0  0  0  0  0  0  0  0  0  0  0
   -0.9405    7.8733    3.5664 H   0  0  0  0  0  0  0  0  0  0  0  0
   -1.4499    4.3812    1.0388 H   0  0  0  0  0  0  0  0  0  0  0  0
    0.1461    4.3107    1.7253 H   0  0  0  0  0  0  0  0  0  0  0  0
    2.1287    7.7776   -1.3248 H   0  0  0  0  0  0  0  0  0  0  0  0
   -1.4354    9.1480    0.9056 H   0  0  0  0  0  0  0  0  0  0  0  0
    1.7534    5.8253   -0.4013 H   0  0  0  0  0  0  0  0  0  0  0  0
   -1.9440    6.8668    1.3441 H   0  0  0  0  0  0  0  0  0  0  0  0
   -0.0553    4.2832   -1.3242 H   0  0  0  0  0  0  0  0  0  0  0  0
   -0.6113    3.0284   -0.4136 H   0  0  0  0  0  0  0  0  0  0  0  0
   -0.3930    1.6187    0.1640 H   0  0  0  0  0  0  0  0  0  0  0  0
    2.4054   -2.2341    0.0033 H   0  0  0  0  0  0  0  0  0  0  0  0
   -0.0851   -2.4058   -0.0394 H   0  0  0  0  0  0  0  0  0  0  0  0
    4.5830    1.4700   -0.8695 H   0  0  0  0  0  0  0  0  0  0  0  0
    4.5301    1.4766    1.0000 H   0  0  0  0  0  0  0  0  0  0  0  0
    5.7652    0.6662    0.1061 H   0  0  0  0  0  0  0  0  0  0  0  0
  1 31  1  0  0  0  0
  2  4  2  0  0  0  0
  2  5  2  0  0  0  0
  2  9  1  0  0  0  0
  2 18  1  0  0  0  0
  3 17  2  0  0  0  0
  6 26  2  0  0  0  0
  7 28  1  0  0  0  0
  7 33  1  0  0  0  0
  8 11  1  0  0  0  0
  8 17  1  0  0  0  0
  8 34  1  0  0  0  0
  9 17  1  0  0  0  0
  9 35  1  0  0  0  0
 10 25  1  0  0  0  0
 10 26  1  0  0  0  0
 10 36  1  0  0  0  0
 11 12  1  0  0  0  0
 11 13  1  0  0  0  0
 11 37  1  0  0  0  0
 12 14  1  0  0  0  0
 12 38  1  0  0  0  0
 12 39  1  0  0  0  0
 13 15  1  0  0  0  0
 13 40  1  0  0  0  0
 13 41  1  0  0  0  0
 14 16  1  0  0  0  0
 14 42  1  0  0  0  0
 14 43  1  0  0  0  0
 15 16  1  0  0  0  0
 15 44  1  0  0  0  0
 15 45  1  0  0  0  0
 16 46  1  0  0  0  0
 16 47  1  0  0  0  0
 18 21  2  0  0  0  0
 18 22  1  0  0  0  0
 19 20  1  0  0  0  0
 19 23  2  0  0  0  0
 19 24  1  0  0  0  0
 20 25  1  0  0  0  0
 20 48  1  0  0  0  0
 20 49  1  0  0  0  0
 21 23  1  0  0  0  0
 21 50  1  0  0  0  0
 22 24  2  0  0  0  0
 22 51  1  0  0  0  0
 23 52  1  0  0  0  0
 24 53  1  0  0  0  0
 25 54  1  0  0  0  0
 25 55  1  0  0  0  0
 26 27  1  0  0  0  0
 27 28  2  0  0  0  0
 27 29  1  0  0  0  0
 28 30  1  0  0  0  0
 29 31  2  0  0  0  0
 29 56  1  0  0  0  0
 30 32  2  0  0  0  0
 30 57  1  0  0  0  0
 31 32  1  0  0  0  0
 32 58  1  0  0  0  0
 33 59  1  0  0  0  0
 33 60  1  0  0  0  0
 33 61  1  0  0  0  0
M  END
>  <DRUGBANK_ID>
DB01016

>  <SECONDARY_ACCESSION_NUMBERS>
APRD00233

>  <COMMON_NAME>
Glyburide

>  <CAS_NUMBER>
10238-21-8

>  <UNII>
SX6K58TVWC

>  <SYNONYMS>
1-((p-(2-(5-chloro-o-anisamido)ethyl)phenyl)sulfonyl)-3-cyclohexylurea; 1-(p-(2-(5-chloro-2-methoxybenzamido)ethyl)benzenesulfonyl)-3-cyclohexylurea; 5-chloro-N-(2-(4-((((cyclohexylamino)carbonyl)amino)sulfonyl)phenyl)ethyl)-2-methoxybenzamide; Glibenclamida; Glibenclamide; Glibenclamidum; Glyburide

$$$$
