
 OpenBabel10282417163D

 33 34  0  0  0  0  0  0  0  0999 V2000
    1.4052   -0.2000    0.0101 C   0  0  0  0  0  0  0  0  0  0  0  0
    0.5491   -1.2948   -0.0245 C   0  0  0  0  0  0  0  0  0  0  0  0
   -0.8245   -1.0923   -0.1237 C   0  0  0  0  0  0  0  0  0  0  0  0
   -1.3602    0.2058   -0.1245 C   0  0  0  0  0  0  0  0  0  0  0  0
   -0.4958    1.2989   -0.0132 C   0  0  0  0  0  0  0  0  0  0  0  0
    0.8855    1.0950   -0.0021 C   0  0  0  0  0  0  0  0  0  0  0  0
   -2.8271    0.4595   -0.2574 C   0  0  0  0  0  0  0  0  0  0  0  0
   -3.2632    1.6062   -0.3407 O   0  0  0  0  0  0  0  0  0  0  0  0
   -3.7865   -0.6647   -0.3021 C   0  0  0  0  0  0  0  0  0  0  0  0
   -3.8676   -1.5784    0.7719 C   0  0  0  0  0  0  0  0  0  0  0  0
   -4.8538   -2.5784    0.7012 C   0  0  0  0  0  0  0  0  0  0  0  0
   -5.6883   -2.6755   -0.4345 C   0  0  0  0  0  0  0  0  0  0  0  0
   -5.5949   -1.7578   -1.4770 C   0  0  0  0  0  0  0  0  0  0  0  0
   -4.6201   -0.7678   -1.4290 C   0  0  0  0  0  0  0  0  0  0  0  0
   -5.1008   -3.5325    1.8472 C   0  0  0  0  0  0  0  0  0  0  0  0
   -6.4869   -3.3890    2.4293 C   0  0  0  0  0  0  0  0  0  0  0  0
   -7.2803   -4.3297    2.4929 O   0  0  0  0  0  0  0  0  0  0  0  0
   -6.8091   -2.1630    2.9305 N   0  0  0  0  0  0  0  0  0  0  0  0
   -3.1636   -1.3686    1.9751 N   0  0  0  0  0  0  0  0  0  0  0  0
    2.4797   -0.3575    0.0454 H   0  0  0  0  0  0  0  0  0  0  0  0
    0.9442   -2.3072    0.0011 H   0  0  0  0  0  0  0  0  0  0  0  0
   -1.4566   -1.9732   -0.1792 H   0  0  0  0  0  0  0  0  0  0  0  0
   -0.8922    2.3111    0.0507 H   0  0  0  0  0  0  0  0  0  0  0  0
    1.5578    1.9489   -0.0147 H   0  0  0  0  0  0  0  0  0  0  0  0
   -6.4519   -3.4528   -0.4860 H   0  0  0  0  0  0  0  0  0  0  0  0
   -6.3018   -1.8000   -2.3035 H   0  0  0  0  0  0  0  0  0  0  0  0
   -4.5213   -0.0704   -2.2588 H   0  0  0  0  0  0  0  0  0  0  0  0
   -4.9478   -4.5570    1.4900 H   0  0  0  0  0  0  0  0  0  0  0  0
   -4.4014   -3.4012    2.6760 H   0  0  0  0  0  0  0  0  0  0  0  0
   -6.2215   -1.3469    2.7947 H   0  0  0  0  0  0  0  0  0  0  0  0
   -7.7511   -2.0263    3.2713 H   0  0  0  0  0  0  0  0  0  0  0  0
   -2.9414   -2.2018    2.5073 H   0  0  0  0  0  0  0  0  0  0  0  0
   -2.3395   -0.7780    1.9152 H   0  0  0  0  0  0  0  0  0  0  0  0
  1  2  2  0  0  0  0
  1  6  1  0  0  0  0
  1 20  1  0  0  0  0
  2  3  1  0  0  0  0
  2 21  1  0  0  0  0
  3  4  2  0  0  0  0
  3 22  1  0  0  0  0
  4  5  1  0  0  0  0
  4  7  1  0  0  0  0
  5  6  2  0  0  0  0
  5 23  1  0  0  0  0
  6 24  1  0  0  0  0
  7  8  2  0  0  0  0
  7  9  1  0  0  0  0
  9 10  2  0  0  0  0
  9 14  1  0  0  0  0
 10 11  1  0  0  0  0
 10 19  1  0  0  0  0
 11 12  2  0  0  0  0
 11 15  1  0  0  0  0
 12 13  1  0  0  0  0
 12 25  1  0  0  0  0
 13 14  2  0  0  0  0
 13 26  1  0  0  0  0
 14 27  1  0  0  0  0
 15 16  1  0  0  0  0
 15 28  1  0  0  0  0
 15 29  1  0  0  0  0
 16 17  2  0  0  0  0
 16 18  1  0  0  0  0
 18 30  1  0  0  0  0
 18 31  1  0  0  0  0
 19 32  1  0  0  0  0
 19 33  1  0  0  0  0
M  END
>  <DRUGBANK_ID>
DB06802

>  <COMMON_NAME>
Nepafenac

>  <CAS_NUMBER>
78281-72-8

>  <UNII>
0J9L7J6V8C

>  <SYNONYMS>
2-amino-3-benzoylbenzeneacetamide; Nepafenac; Népafénac; Nepafenaco; Nepafenacum

$$$$
