
 OpenBabel10282417113D

 58 61  0  0  0  0  0  0  0  0999 V2000
    9.0966    0.4064    1.8156 C   0  0  0  0  0  0  0  0  0  0  0  0
    5.5094   -0.3736    1.5213 C   0  0  0  0  0  0  0  0  0  0  0  0
    9.7003   -1.7910    0.9260 C   0  0  2  0  0  0  0  0  0  0  0  0
    8.4423   -1.6436   -1.4294 C   0  0  0  0  0  0  0  0  0  0  0  0
    9.2542   -1.0435    2.2598 C   0  0  0  0  0  0  0  0  0  0  0  0
    5.1349   -2.7647    0.2591 C   0  0  2  0  0  0  0  0  0  0  0  0
    7.3036   -2.5779   -1.0540 C   0  0  0  0  0  0  0  0  0  0  0  0
    4.5821   -1.6123    2.3265 C   0  0  0  0  0  0  0  0  0  0  0  0
    4.5130   -3.0875    1.7149 C   0  0  0  0  0  0  0  0  0  0  0  0
    4.7039   -3.7704   -0.8457 C   0  0  0  0  0  0  0  0  0  0  0  0
    4.2526   -4.4117    2.2246 C   0  0  0  0  0  0  0  0  0  0  0  0
    3.9643   -4.8322   -0.1211 C   0  0  0  0  0  0  0  0  0  0  0  0
    6.7676   -0.8957    0.7923 C   0  0  2  0  0  0  0  0  0  0  0  0
    7.1250   -1.6246    1.5062 H   0  0  0  0  0  0  0  0  0  0  0  0
    6.1939   -1.7738   -0.3833 C   0  0  1  0  0  0  0  0  0  0  0  0
    5.7165   -1.1726   -1.1419 H   0  0  0  0  0  0  0  0  0  0  0  0
    9.1610   -0.8205   -0.2839 C   0  0  2  0  0  0  0  0  0  0  0  0
   10.2038    0.1061   -0.9718 C   0  0  0  0  0  0  0  0  0  0  0  0
    8.1308    0.0665    0.5161 C   0  0  1  0  0  0  0  0  0  0  0  0
    7.8337    0.9587   -0.0538 H   0  0  0  0  0  0  0  0  0  0  0  0
    4.9367   -5.0232    1.0437 C   0  0  0  0  0  0  0  0  0  0  0  0
    5.9676   -2.9930    0.9100 H   0  0  0  0  0  0  0  0  0  0  0  0
    9.2156   -3.1312    0.4701 C   0  0  0  0  0  0  0  0  0  0  0  0
   11.0682   -2.1568    1.1873 O   0  0  0  0  0  0  0  0  0  0  0  0
    9.0773   -4.2291    0.0969 C   0  0  0  0  0  0  0  0  0  0  0  0
    6.2210   -5.3088    1.0547 N   0  0  0  0  0  0  0  0  0  0  0  0
   11.1501   -0.6468   -1.8902 C   0  0  0  0  0  0  0  0  0  0  0  0
   11.2750   -3.4286    1.7796 C   0  0  0  0  0  0  0  0  0  0  0  0
   10.1012   -4.1657    2.5469 C   0  0  0  0  0  0  0  0  0  0  0  0
   12.3343   -4.0236    1.5847 O   0  0  0  0  0  0  0  0  0  0  0  0
    6.8332   -4.7484    2.2441 O   0  0  0  0  0  0  0  0  0  0  0  0
   10.1441    0.7833    1.6957 H   0  0  0  0  0  0  0  0  0  0  0  0
    8.6848    1.1223    2.5475 H   0  0  0  0  0  0  0  0  0  0  0  0
    5.8487    0.4295    2.1847 H   0  0  0  0  0  0  0  0  0  0  0  0
    4.8431    0.1290    0.7987 H   0  0  0  0  0  0  0  0  0  0  0  0
    9.2023   -2.2473   -1.9470 H   0  0  0  0  0  0  0  0  0  0  0  0
    8.0103   -1.0300   -2.2315 H   0  0  0  0  0  0  0  0  0  0  0  0
    9.8767   -1.2655    3.1314 H   0  0  0  0  0  0  0  0  0  0  0  0
    8.2726   -1.2095    2.6844 H   0  0  0  0  0  0  0  0  0  0  0  0
    7.4540   -3.3372   -1.8408 H   0  0  0  0  0  0  0  0  0  0  0  0
    7.2248   -3.4632   -0.4174 H   0  0  0  0  0  0  0  0  0  0  0  0
    4.9833   -1.6601    3.3431 H   0  0  0  0  0  0  0  0  0  0  0  0
    3.5520   -1.2307    2.3122 H   0  0  0  0  0  0  0  0  0  0  0  0
    5.4943   -4.2737   -1.4110 H   0  0  0  0  0  0  0  0  0  0  0  0
    4.0888   -3.1988   -1.5434 H   0  0  0  0  0  0  0  0  0  0  0  0
    4.0662   -5.5963    2.1761 H   0  0  0  0  0  0  0  0  0  0  0  0
    3.5107   -5.7260   -0.5249 H   0  0  0  0  0  0  0  0  0  0  0  0
    3.0633   -4.2564    0.1955 H   0  0  0  0  0  0  0  0  0  0  0  0
    9.6779    0.8658   -1.5751 H   0  0  0  0  0  0  0  0  0  0  0  0
   10.7930    0.6665   -0.2423 H   0  0  0  0  0  0  0  0  0  0  0  0
    8.7764   -5.2684   -0.0400 H   0  0  0  0  0  0  0  0  0  0  0  0
   10.6209   -1.0915   -2.7382 H   0  0  0  0  0  0  0  0  0  0  0  0
   11.8948    0.0241   -2.3214 H   0  0  0  0  0  0  0  0  0  0  0  0
   11.6525   -1.4411   -1.3354 H   0  0  0  0  0  0  0  0  0  0  0  0
    9.8831   -5.1261    2.0393 H   0  0  0  0  0  0  0  0  0  0  0  0
   10.2963   -4.4089    3.5784 H   0  0  0  0  0  0  0  0  0  0  0  0
    9.1521   -3.6152    2.5892 H   0  0  0  0  0  0  0  0  0  0  0  0
    7.0705   -3.8347    1.9656 H   0  0  0  0  0  0  0  0  0  0  0  0
  1 32  1  0  0  0  0
  1 33  1  0  0  0  0
  2  8  1  0  0  0  0
  2 34  1  0  0  0  0
  2 35  1  0  0  0  0
  3  5  1  0  0  0  0
  3 24  1  0  0  0  0
  3 23  1  6  0  0  0
  4  7  1  0  0  0  0
  4 36  1  0  0  0  0
  4 37  1  0  0  0  0
  5  1  1  0  0  0  0
  5 38  1  0  0  0  0
  5 39  1  0  0  0  0
  6  9  1  0  0  0  0
  6 10  1  0  0  0  0
  6 22  1  6  0  0  0
  7 40  1  0  0  0  0
  7 41  1  0  0  0  0
  8  9  1  0  0  0  0
  8 42  1  0  0  0  0
  8 43  1  0  0  0  0
  9 11  2  0  0  0  0
 10 12  1  0  0  0  0
 10 44  1  0  0  0  0
 10 45  1  0  0  0  0
 11 21  1  0  0  0  0
 11 46  1  0  0  0  0
 12 21  1  0  0  0  0
 12 47  1  0  0  0  0
 12 48  1  0  0  0  0
 13 15  1  0  0  0  0
 13  2  1  0  0  0  0
 13 14  1  6  0  0  0
 15  6  1  0  0  0  0
 15  7  1  0  0  0  0
 15 16  1  1  0  0  0
 17  3  1  0  0  0  0
 17  4  1  0  0  0  0
 17 18  1  6  0  0  0
 18 27  1  0  0  0  0
 18 49  1  0  0  0  0
 18 50  1  0  0  0  0
 19 13  1  0  0  0  0
 19 17  1  0  0  0  0
 19  1  1  0  0  0  0
 19 20  1  1  0  0  0
 21 26  2  0  0  0  0
 23 25  3  0  0  0  0
 24 28  1  0  0  0  0
 25 51  1  0  0  0  0
 26 31  1  0  0  0  0
 27 52  1  0  0  0  0
 27 53  1  0  0  0  0
 27 54  1  0  0  0  0
 28 29  1  0  0  0  0
 28 30  2  0  0  0  0
 29 55  1  0  0  0  0
 29 56  1  0  0  0  0
 29 57  1  0  0  0  0
 31 58  1  0  0  0  0
M  END
>  <DRUGBANK_ID>
DB00957

>  <SECONDARY_ACCESSION_NUMBERS>
APRD00569

>  <COMMON_NAME>
Norgestimate

>  <CAS_NUMBER>
35189-28-7

>  <UNII>
NKX8DN6TY9

>  <SYNONYMS>
(+)-13-Ethyl-17-hydroxy-18,19-dinor-17α-pregn-4-en-20-yn-3-one oxime acetate (ester); (17α)-17-(Acetyloxy)-13-ethyl-18,19-dinorpregn-4-en-20-yn-3-one 3-oxime; d-13β-Ethyl-17α-ethynyl-17β-acetoxygon-4-en-3-one oxime; Dexnorgestrel Acetime; Norgestimate; Norgestimato; Norgestimatum

$$$$
