BPY
 OpenBabel10282417133D

 24 25  0  0  0  0  0  0  0  0999 V2000
   -1.9090    0.6947   -0.0240 C   0  0  0  0  0  0  0  0  0  0  0  0
   -0.7020    1.4154   -0.0245 C   0  0  0  0  0  0  0  0  0  0  0  0
    0.4950    0.6876   -0.0317 C   0  0  0  0  0  0  0  0  0  0  0  0
    0.4887   -0.7090   -0.0237 C   0  0  0  0  0  0  0  0  0  0  0  0
   -0.7110   -1.4106   -0.0196 C   0  0  0  0  0  0  0  0  0  0  0  0
   -1.9138   -0.7050   -0.0242 C   0  0  0  0  0  0  0  0  0  0  0  0
   -0.7128    2.8825    0.0420 C   0  0  0  0  0  0  0  0  0  0  0  0
   -1.2994    3.5324    1.1380 C   0  0  0  0  0  0  0  0  0  0  0  0
   -1.2448    4.9213    1.2581 C   0  0  0  0  0  0  0  0  0  0  0  0
   -0.5888    5.6755    0.2880 C   0  0  0  0  0  0  0  0  0  0  0  0
   -0.0008    5.0470   -0.8067 C   0  0  0  0  0  0  0  0  0  0  0  0
   -0.0860    3.6603   -0.9430 C   0  0  0  0  0  0  0  0  0  0  0  0
    1.6983   -1.3484   -0.0078 O   0  0  0  0  0  0  0  0  0  0  0  0
    1.7045    1.3368   -0.0196 O   0  0  0  0  0  0  0  0  0  0  0  0
   -2.8579    1.2279   -0.0187 H   0  0  0  0  0  0  0  0  0  0  0  0
   -0.7329   -2.4956   -0.0099 H   0  0  0  0  0  0  0  0  0  0  0  0
   -2.8620   -1.2369   -0.0207 H   0  0  0  0  0  0  0  0  0  0  0  0
   -1.7740    2.9498    1.9246 H   0  0  0  0  0  0  0  0  0  0  0  0
   -1.6913    5.4052    2.1210 H   0  0  0  0  0  0  0  0  0  0  0  0
   -0.5267    6.7552    0.3916 H   0  0  0  0  0  0  0  0  0  0  0  0
    0.5436    5.6280   -1.5456 H   0  0  0  0  0  0  0  0  0  0  0  0
    0.3694    3.1798   -1.8061 H   0  0  0  0  0  0  0  0  0  0  0  0
    1.5324   -2.3069    0.0071 H   0  0  0  0  0  0  0  0  0  0  0  0
    2.3770    0.6304   -0.0084 H   0  0  0  0  0  0  0  0  0  0  0  0
  1  2  2  0  0  0  0
  1  6  1  0  0  0  0
  1 15  1  0  0  0  0
  2  3  1  0  0  0  0
  2  7  1  0  0  0  0
  3  4  2  0  0  0  0
  3 14  1  0  0  0  0
  4  5  1  0  0  0  0
  4 13  1  0  0  0  0
  5  6  2  0  0  0  0
  5 16  1  0  0  0  0
  6 17  1  0  0  0  0
  7  8  2  0  0  0  0
  7 12  1  0  0  0  0
  8  9  1  0  0  0  0
  8 18  1  0  0  0  0
  9 10  2  0  0  0  0
  9 19  1  0  0  0  0
 10 11  1  0  0  0  0
 10 20  1  0  0  0  0
 11 12  2  0  0  0  0
 11 21  1  0  0  0  0
 12 22  1  0  0  0  0
 13 23  1  0  0  0  0
 14 24  1  0  0  0  0
M  END
>  <DRUGBANK_ID>
DB02923

>  <SECONDARY_ACCESSION_NUMBERS>
EXPT00746

>  <COMMON_NAME>
Biphenyl-2,3-Diol

>  <CAS_NUMBER>
1133-63-7

>  <UNII>
XQT8N5388Z

$$$$
