DLI
 OpenBabel10282417163D

 50 53  0  0  0  0  0  0  0  0999 V2000
    0.4589    4.0617   -0.7364 C   0  0  0  0  0  0  0  0  0  0  0  0
   -0.3544    5.1919   -0.6030 C   0  0  0  0  0  0  0  0  0  0  0  0
   -0.1646    6.0511    0.4727 C   0  0  0  0  0  0  0  0  0  0  0  0
    2.3156    2.4922    0.0523 C   0  0  2  0  0  0  0  0  0  0  0  0
    3.1599    2.3628   -1.2521 C   0  0  0  0  0  0  0  0  0  0  0  0
    7.5641    8.8758   -6.9836 C   0  0  0  0  0  0  0  0  0  0  0  0
    7.7161    2.3073   -2.2775 C   0  0  0  0  0  0  0  0  0  0  0  0
    5.4688    3.5489   -2.9499 C   0  0  0  0  0  0  0  0  0  0  0  0
    6.5717    4.3113   -5.0493 C   0  0  0  0  0  0  0  0  0  0  0  0
    6.8598    4.3643   -7.4737 C   0  0  0  0  0  0  0  0  0  0  0  0
    6.3710    6.4037   -6.2918 C   0  0  0  0  0  0  0  0  0  0  0  0
    0.8212    5.7882    1.4025 C   0  0  0  0  0  0  0  0  0  0  0  0
    1.6305    4.6696    1.2617 C   0  0  0  0  0  0  0  0  0  0  0  0
    1.4787    3.7731    0.1834 C   0  0  0  0  0  0  0  0  0  0  0  0
    3.4053    2.3705    1.1529 C   0  0  2  0  0  0  0  0  0  0  0  0
    0.2348    3.2319   -1.7651 F   0  0  0  0  0  0  0  0  0  0  0  0
    4.4740    2.9024   -0.8990 N   0  0  0  0  0  0  0  0  0  0  0  0
    4.5748    3.1771    0.5242 C   0  0  0  0  0  0  0  0  0  0  0  0
   -0.9396    7.1337    0.6119 F   0  0  0  0  0  0  0  0  0  0  0  0
    5.5582    2.8828   -1.7423 C   0  0  0  0  0  0  0  0  0  0  0  0
    1.0159    6.5944    2.4544 F   0  0  0  0  0  0  0  0  0  0  0  0
    6.7050    2.2773   -1.3863 N   0  0  0  0  0  0  0  0  0  0  0  0
    7.7134    2.9221   -3.4698 N   0  0  0  0  0  0  0  0  0  0  0  0
    6.5735    3.5660   -3.7812 C   0  0  0  0  0  0  0  0  0  0  0  0
    3.7709    0.9880    1.4939 N   0  0  0  0  0  0  0  0  0  0  0  0
    6.8123    3.6559   -6.2675 C   0  0  0  0  0  0  0  0  0  0  0  0
    6.6091    5.7365   -7.4941 C   0  0  0  0  0  0  0  0  0  0  0  0
    6.3438    5.6998   -5.0791 C   0  0  0  0  0  0  0  0  0  0  0  0
    6.0917    8.1628   -6.2930 S   0  0  0  0  0  0  0  0  0  0  0  0
    4.9934    8.4106   -7.2151 O   0  0  0  0  0  0  0  0  0  0  0  0
    6.0108    8.5928   -4.9145 O   0  0  0  0  0  0  0  0  0  0  0  0
    1.6018    1.6581    0.1123 H   0  0  0  0  0  0  0  0  0  0  0  0
    3.0895    2.7954    2.1058 H   0  0  0  0  0  0  0  0  0  0  0  0
   -1.1341    5.4004   -1.3261 H   0  0  0  0  0  0  0  0  0  0  0  0
    3.2518    1.3008   -1.5213 H   0  0  0  0  0  0  0  0  0  0  0  0
    2.7202    2.8957   -2.0998 H   0  0  0  0  0  0  0  0  0  0  0  0
    7.6976    8.5315   -8.0103 H   0  0  0  0  0  0  0  0  0  0  0  0
    7.4414    9.9627   -6.9828 H   0  0  0  0  0  0  0  0  0  0  0  0
    8.4228    8.6073   -6.3659 H   0  0  0  0  0  0  0  0  0  0  0  0
    8.6305    1.7849   -2.0091 H   0  0  0  0  0  0  0  0  0  0  0  0
    4.5692    4.0875   -3.2113 H   0  0  0  0  0  0  0  0  0  0  0  0
    7.0966    3.8373   -8.3954 H   0  0  0  0  0  0  0  0  0  0  0  0
    2.3747    4.5555    2.0398 H   0  0  0  0  0  0  0  0  0  0  0  0
    5.5400    2.9646    0.9892 H   0  0  0  0  0  0  0  0  0  0  0  0
    4.3854    4.2538    0.6400 H   0  0  0  0  0  0  0  0  0  0  0  0
    2.9858    0.3595    1.3470 H   0  0  0  0  0  0  0  0  0  0  0  0
    3.9680    0.9542    2.4967 H   0  0  0  0  0  0  0  0  0  0  0  0
    6.9544    2.5755   -6.2776 H   0  0  0  0  0  0  0  0  0  0  0  0
    6.5898    6.2629   -8.4454 H   0  0  0  0  0  0  0  0  0  0  0  0
    6.1522    6.2314   -4.1480 H   0  0  0  0  0  0  0  0  0  0  0  0
  1 16  1  0  0  0  0
  1  2  2  0  0  0  0
  1 14  1  0  0  0  0
  2  3  1  0  0  0  0
  2 34  1  0  0  0  0
  3 19  1  0  0  0  0
  3 12  2  0  0  0  0
  4  5  1  0  0  0  0
  4 15  1  0  0  0  0
  4 32  1  1  0  0  0
  4 14  1  0  0  0  0
  5 17  1  0  0  0  0
  5 35  1  0  0  0  0
  5 36  1  0  0  0  0
  6 29  1  0  0  0  0
  6 37  1  0  0  0  0
  6 38  1  0  0  0  0
  6 39  1  0  0  0  0
  7 22  2  0  0  0  0
  7 23  1  0  0  0  0
  7 40  1  0  0  0  0
  8 20  2  0  0  0  0
  8 24  1  0  0  0  0
  8 41  1  0  0  0  0
  9 24  1  0  0  0  0
  9 28  2  0  0  0  0
  9 26  1  0  0  0  0
 10 26  2  0  0  0  0
 10 27  1  0  0  0  0
 10 42  1  0  0  0  0
 11 28  1  0  0  0  0
 11 29  1  0  0  0  0
 11 27  2  0  0  0  0
 12 13  1  0  0  0  0
 12 21  1  0  0  0  0
 13 14  2  0  0  0  0
 13 43  1  0  0  0  0
 15 18  1  0  0  0  0
 15 33  1  1  0  0  0
 15 25  1  0  0  0  0
 17 20  1  0  0  0  0
 17 18  1  0  0  0  0
 18 44  1  0  0  0  0
 18 45  1  0  0  0  0
 20 22  1  0  0  0  0
 23 24  2  0  0  0  0
 25 46  1  0  0  0  0
 25 47  1  0  0  0  0
 26 48  1  0  0  0  0
 27 49  1  0  0  0  0
 28 50  1  0  0  0  0
 29 30  2  0  0  0  0
 29 31  2  0  0  0  0
M  END
>  <DRUGBANK_ID>
DB07666

>  <COMMON_NAME>
(3R,4S)-1-{6-[3-(METHYLSULFONYL)PHENYL]PYRIMIDIN-4-YL}-4-(2,4,5-TRIFLUOROPHENYL)PYRROLIDIN-3-AMINE

$$$$
