919
 OpenBabel10282417113D

 47 49  0  0  1  0  0  0  0  0999 V2000
   -0.3883   -0.2234    4.4376 O   0  0  0  0  0  0  0  0  0  0  0  0
   -1.4217    2.4148    4.2586 O   0  0  0  0  0  0  0  0  0  0  0  0
    1.1517    2.9897    3.2389 O   0  0  0  0  0  0  0  0  0  0  0  0
   -3.9843    1.3723    3.4978 O   0  0  0  0  0  0  0  0  0  0  0  0
   -4.7722   -2.2703    5.6681 O   0  0  0  0  0  0  0  0  0  0  0  0
    1.6005    0.4244    3.7660 O   0  0  0  0  0  0  0  0  0  0  0  0
   -1.5223    0.5816    1.7074 O   0  0  0  0  0  0  0  0  0  0  0  0
   -1.3907   -1.8090    6.2031 N   0  0  0  0  0  0  0  0  0  0  0  0
   -4.5097    0.4935    7.1792 N   0  0  0  0  0  0  0  0  0  0  0  0
   -1.8061   -0.1468    4.4468 C   0  0  1  0  0  0  0  0  0  0  0  0
   -2.1680    1.2600    5.0173 C   0  0  1  0  0  0  0  0  0  0  0  0
   -2.4112   -1.3891    5.1924 C   0  0  2  0  0  0  0  0  0  0  0  0
   -3.7389    1.3491    4.9033 C   0  0  2  0  0  0  0  0  0  0  0  0
   -4.4810    0.2090    5.7265 C   0  0  1  0  0  0  0  0  0  0  0  0
   -3.9621   -1.1672    5.2295 C   0  0  2  0  0  0  0  0  0  0  0  0
    0.2175    0.7567    3.6324 C   0  0  2  0  0  0  0  0  0  0  0  0
    0.0757    2.1788    4.1779 C   0  0  2  0  0  0  0  0  0  0  0  0
   -0.5502    1.1285    2.1445 C   0  0  0  0  0  0  0  0  0  0  0  0
    1.3448    2.3939    1.8694 C   0  0  1  0  0  0  0  0  0  0  0  0
   -0.0742    2.4072    1.4482 C   0  0  0  0  0  0  0  0  0  0  0  0
   -0.5880   -2.9409    5.6221 C   0  0  0  0  0  0  0  0  0  0  0  0
   -3.9930    1.7723    7.6224 C   0  0  0  0  0  0  0  0  0  0  0  0
    2.4074    2.7504    0.7659 C   0  0  0  0  0  0  0  0  0  0  0  0
   -2.1808   -0.2947    3.4430 H   0  0  0  0  0  0  0  0  0  0  0  0
   -1.8147    1.3193    6.0500 H   0  0  0  0  0  0  0  0  0  0  0  0
    0.4519    2.4172    5.1820 H   0  0  0  0  0  0  0  0  0  0  0  0
   -3.3683    2.0789    3.1961 H   0  0  0  0  0  0  0  0  0  0  0  0
   -4.4467   -3.1002    5.2720 H   0  0  0  0  0  0  0  0  0  0  0  0
    2.0515    1.1544    4.2395 H   0  0  0  0  0  0  0  0  0  0  0  0
   -0.6827   -1.0533    6.1883 H   0  0  0  0  0  0  0  0  0  0  0  0
   -4.3585   -0.2981    7.8028 H   0  0  0  0  0  0  0  0  0  0  0  0
   -2.4625   -2.2982    4.5881 H   0  0  0  0  0  0  0  0  0  0  0  0
   -4.2133    2.2848    5.1855 H   0  0  0  0  0  0  0  0  0  0  0  0
   -5.5557    0.1565    5.4779 H   0  0  0  0  0  0  0  0  0  0  0  0
   -4.1970   -1.1384    4.1489 H   0  0  0  0  0  0  0  0  0  0  0  0
    1.6777    1.3574    1.9597 H   0  0  0  0  0  0  0  0  0  0  0  0
   -0.2547    2.4113    0.3764 H   0  0  0  0  0  0  0  0  0  0  0  0
   -0.6058    3.2685    1.8853 H   0  0  0  0  0  0  0  0  0  0  0  0
    0.4881   -2.7173    5.5737 H   0  0  0  0  0  0  0  0  0  0  0  0
   -0.7387   -3.8158    6.2512 H   0  0  0  0  0  0  0  0  0  0  0  0
   -0.8508   -3.2208    4.5899 H   0  0  0  0  0  0  0  0  0  0  0  0
   -4.3367    2.0524    8.6173 H   0  0  0  0  0  0  0  0  0  0  0  0
   -2.9039    1.7586    7.6436 H   0  0  0  0  0  0  0  0  0  0  0  0
   -4.3215    2.6080    6.9968 H   0  0  0  0  0  0  0  0  0  0  0  0
    3.4054    3.0145    1.1333 H   0  0  0  0  0  0  0  0  0  0  0  0
    2.5958    1.8317    0.1589 H   0  0  0  0  0  0  0  0  0  0  0  0
    2.0887    3.4646   -0.0010 H   0  0  0  0  0  0  0  0  0  0  0  0
  1 10  1  0  0  0  0
  1 16  1  0  0  0  0
  2 11  1  0  0  0  0
  2 17  1  0  0  0  0
  3 17  1  0  0  0  0
  3 19  1  0  0  0  0
  4 27  1  0  0  0  0
  5 28  1  0  0  0  0
  6 29  1  0  0  0  0
  7 18  2  0  0  0  0
  8 21  1  0  0  0  0
  8 30  1  0  0  0  0
  9 22  1  0  0  0  0
  9 31  1  0  0  0  0
 10 11  1  0  0  0  0
 10 12  1  0  0  0  0
 10 24  1  1  0  0  0
 11 13  1  0  0  0  0
 11 25  1  6  0  0  0
 12 15  1  0  0  0  0
 12 32  1  6  0  0  0
 12  8  1  0  0  0  0
 13 14  1  0  0  0  0
 13 33  1  1  0  0  0
 13  4  1  0  0  0  0
 14 15  1  0  0  0  0
 14 34  1  6  0  0  0
 14  9  1  0  0  0  0
 15  5  1  0  0  0  0
 15 35  1  6  0  0  0
 16 17  1  0  0  0  0
 16 18  1  0  0  0  0
 16  6  1  6  0  0  0
 17 26  1  1  0  0  0
 18 20  1  0  0  0  0
 19 20  1  0  0  0  0
 19 23  1  0  0  0  0
 19 36  1  1  0  0  0
 20 37  1  0  0  0  0
 20 38  1  0  0  0  0
 21 39  1  0  0  0  0
 21 40  1  0  0  0  0
 21 41  1  0  0  0  0
 22 42  1  0  0  0  0
 22 43  1  0  0  0  0
 22 44  1  0  0  0  0
 23 45  1  0  0  0  0
 23 46  1  0  0  0  0
 23 47  1  0  0  0  0
M  END
>  <DRUGBANK_ID>
DB00919

>  <SECONDARY_ACCESSION_NUMBERS>
APRD01232

>  <COMMON_NAME>
Spectinomycin

>  <CAS_NUMBER>
1695-77-8

>  <UNII>
93AKI1U6QF

>  <SYNONYMS>
Actinospectacina; Espectinomicina; SCM; Spectinomicina; Spectinomycin; Spectinomycine; Spectinomycinum

$$$$
