
 OpenBabel10282417133D

 37 38  0  0  0  0  0  0  0  0999 V2000
    0.6451    5.5034    0.0102 P   0  0  1  0  0  0  0  0  0  0  0  0
    1.5909    3.6813    2.1814 P   0  0  0  0  0  0  0  0  0  0  0  0
    0.1285    0.2639    0.0238 F   0  0  0  0  0  0  0  0  0  0  0  0
   -0.7897    3.1319    1.4974 O   0  0  0  0  0  0  0  0  0  0  0  0
    0.0026    4.4558   -1.0791 O   0  0  0  0  0  0  0  0  0  0  0  0
   -3.1772    2.2893    0.0522 O   0  0  0  0  0  0  0  0  0  0  0  0
    0.6687    4.8556    1.5074 O   0  0  0  0  0  0  0  0  0  0  0  0
    1.9571    4.3788   -0.0731 O   0  0  0  0  0  0  0  0  0  0  0  0
   -0.5291    6.5099    0.0848 O   0  0  0  0  0  0  0  0  0  0  0  0
   -6.4638    4.4630    2.0030 O   0  0  0  0  0  0  0  0  0  0  0  0
    2.8750    4.3861    2.7870 O   0  0  0  0  0  0  0  0  0  0  0  0
    0.6743    3.5265    3.4709 O   0  0  0  0  0  0  0  0  0  0  0  0
    1.8842    2.3633    1.5280 O   0  0  0  0  0  0  0  0  0  0  0  0
   -2.8739    2.7632    2.3066 N   0  0  0  0  0  0  0  0  0  0  0  0
   -4.7004    3.4446    1.0448 N   0  0  0  0  0  0  0  0  0  0  0  0
   -0.5326    2.5262    0.2032 C   0  0  1  0  0  0  0  0  0  0  0  0
   -0.9199    1.0660    0.3719 C   0  0  2  0  0  0  0  0  0  0  0  0
   -1.5254    2.2663    2.3374 C   0  0  1  0  0  0  0  0  0  0  0  0
   -1.1555    0.9017    1.8637 C   0  0  0  0  0  0  0  0  0  0  0  0
   -1.0760    3.5814   -0.7592 C   0  0  0  0  0  0  0  0  0  0  0  0
   -3.5308    2.7888    1.0963 C   0  0  0  0  0  0  0  0  0  0  0  0
   -3.4012    3.3866    3.4257 C   0  0  0  0  0  0  0  0  0  0  0  0
   -4.5976    3.9840    3.3750 C   0  0  0  0  0  0  0  0  0  0  0  0
   -5.3268    3.9965    2.0972 C   0  0  0  0  0  0  0  0  0  0  0  0
   -1.7531    0.7407   -0.2352 H   0  0  0  0  0  0  0  0  0  0  0  0
   -5.1413    3.3769    0.1427 H   0  0  0  0  0  0  0  0  0  0  0  0
    1.8654    3.9058   -0.9289 H   0  0  0  0  0  0  0  0  0  0  0  0
    3.5511    4.3706    2.0882 H   0  0  0  0  0  0  0  0  0  0  0  0
   -0.1300    3.9008    3.0430 H   0  0  0  0  0  0  0  0  0  0  0  0
    0.5199    2.4894   -0.0766 H   0  0  0  0  0  0  0  0  0  0  0  0
   -1.1959    2.3575    3.3782 H   0  0  0  0  0  0  0  0  0  0  0  0
   -1.9054    0.1692    2.1448 H   0  0  0  0  0  0  0  0  0  0  0  0
   -0.2067    0.6262    2.3565 H   0  0  0  0  0  0  0  0  0  0  0  0
   -1.8240    4.2400   -0.3110 H   0  0  0  0  0  0  0  0  0  0  0  0
   -1.4526    3.1600   -1.6923 H   0  0  0  0  0  0  0  0  0  0  0  0
   -2.8322    3.3631    4.3564 H   0  0  0  0  0  0  0  0  0  0  0  0
   -5.0733    4.4433    4.2277 H   0  0  0  0  0  0  0  0  0  0  0  0
  1  8  1  0  0  0  0
  1  9  2  6  0  0  0
  1  7  1  0  0  0  0
  1  5  1  0  0  0  0
  2  7  1  0  0  0  0
  2 11  1  0  0  0  0
  2 12  1  0  0  0  0
  2 13  2  0  0  0  0
  4 16  1  0  0  0  0
  4 18  1  0  0  0  0
  5 20  1  0  0  0  0
  6 21  2  0  0  0  0
  8 27  1  0  0  0  0
 10 24  2  0  0  0  0
 11 28  1  0  0  0  0
 12 29  1  0  0  0  0
 14 21  1  0  0  0  0
 14 22  1  0  0  0  0
 15 21  1  0  0  0  0
 15 24  1  0  0  0  0
 15 26  1  0  0  0  0
 16 17  1  0  0  0  0
 16 30  1  6  0  0  0
 16 20  1  0  0  0  0
 17 19  1  0  0  0  0
 17 25  1  6  0  0  0
 17  3  1  0  0  0  0
 18 19  1  0  0  0  0
 18 31  1  1  0  0  0
 18 14  1  0  0  0  0
 19 32  1  0  0  0  0
 19 33  1  0  0  0  0
 20 34  1  0  0  0  0
 20 35  1  0  0  0  0
 22 23  2  0  0  0  0
 22 36  1  0  0  0  0
 23 24  1  0  0  0  0
 23 37  1  0  0  0  0
M  END
>  <DRUGBANK_ID>
DB04068

>  <SECONDARY_ACCESSION_NUMBERS>
EXPT01512

>  <COMMON_NAME>
2',3'-dideoxy-3'-fluoro-urididine-5'-diphosphate

>  <SYNONYMS>
FUDP

$$$$
