
 OpenBabel10282417123D

 50 50  0  0  0  0  0  0  0  0999 V2000
   -1.5884    1.1737    0.5255 O   0  0  0  0  0  0  0  0  0  0  0  0
    1.3916   -1.8091   -0.0588 O   0  0  0  0  0  0  0  0  0  0  0  0
   -1.2118   -1.5395    0.9795 O   0  0  0  0  0  0  0  0  0  0  0  0
    2.2335    0.8322    0.6951 O   0  0  0  0  0  0  0  0  0  0  0  0
   -4.0527    1.0332   -0.9789 O   0  0  0  0  0  0  0  0  0  0  0  0
    0.7392    5.0317    1.3359 O   0  0  0  0  0  0  0  0  0  0  0  0
    1.9018   -0.9664   -5.4849 O   0  0  0  0  0  0  0  0  0  0  0  0
   -0.2352   -0.2696   -5.5687 O   0  0  0  0  0  0  0  0  0  0  0  0
    0.0253    2.9205    1.1074 N   0  0  0  0  0  0  0  0  0  0  0  0
    1.2673    0.9676   -4.4095 N   0  0  0  0  0  0  0  0  0  0  0  0
    0.5675   -0.6741   -0.3502 C   0  0  1  0  0  0  0  0  0  0  0  0
   -0.9328   -1.0336   -0.3361 C   0  0  2  0  0  0  0  0  0  0  0  0
    0.8354    0.4707    0.6708 C   0  0  2  0  0  0  0  0  0  0  0  0
   -1.8392    0.1957   -0.5562 C   0  0  1  0  0  0  0  0  0  0  0  0
   -0.2286    1.6444    0.4650 C   0  0  1  0  0  0  0  0  0  0  0  0
   -3.3269   -0.1418   -0.6014 C   0  0  0  0  0  0  0  0  0  0  0  0
    0.5060    4.1019    0.5541 C   0  0  0  0  0  0  0  0  0  0  0  0
    0.7015    4.3742   -0.9788 C   0  0  0  0  0  0  0  0  0  0  0  0
    1.8399    3.6579   -1.7297 C   0  0  0  0  0  0  0  0  0  0  0  0
    1.5474    2.2018   -1.8417 C   0  0  0  0  0  0  0  0  0  0  0  0
    0.2182    1.8450   -2.5167 C   0  0  0  0  0  0  0  0  0  0  0  0
    0.2856    1.9257   -3.9863 C   0  0  0  0  0  0  0  0  0  0  0  0
    0.8992   -0.0992   -5.1819 C   0  0  0  0  0  0  0  0  0  0  0  0
    3.2392   -0.8412   -4.9861 C   0  0  0  0  0  0  0  0  0  0  0  0
    0.0045    2.9389    2.1186 H   0  0  0  0  0  0  0  0  0  0  0  0
    2.1792    0.9896   -3.9903 H   0  0  0  0  0  0  0  0  0  0  0  0
    1.2062   -2.0670    0.8609 H   0  0  0  0  0  0  0  0  0  0  0  0
   -1.2694   -0.7623    1.5710 H   0  0  0  0  0  0  0  0  0  0  0  0
    2.6569    0.6358   -0.1633 H   0  0  0  0  0  0  0  0  0  0  0  0
   -3.7765    1.7398   -0.3659 H   0  0  0  0  0  0  0  0  0  0  0  0
    0.9083   -0.4322   -1.3566 H   0  0  0  0  0  0  0  0  0  0  0  0
   -1.1403   -1.8317   -1.0588 H   0  0  0  0  0  0  0  0  0  0  0  0
    0.6846    0.0780    1.6743 H   0  0  0  0  0  0  0  0  0  0  0  0
   -1.6891    0.6507   -1.5355 H   0  0  0  0  0  0  0  0  0  0  0  0
   -0.2540    2.0199   -0.5086 H   0  0  0  0  0  0  0  0  0  0  0  0
   -3.5312   -0.9040   -1.3625 H   0  0  0  0  0  0  0  0  0  0  0  0
   -3.6884   -0.4705    0.3711 H   0  0  0  0  0  0  0  0  0  0  0  0
   -0.2616    4.2555   -1.4836 H   0  0  0  0  0  0  0  0  0  0  0  0
    0.9284    5.4430   -1.0910 H   0  0  0  0  0  0  0  0  0  0  0  0
    2.0054    4.0341   -2.7416 H   0  0  0  0  0  0  0  0  0  0  0  0
    2.7764    3.7698   -1.1692 H   0  0  0  0  0  0  0  0  0  0  0  0
    2.3699    1.5621   -2.1606 H   0  0  0  0  0  0  0  0  0  0  0  0
    1.5395    2.0023   -0.8037 H   0  0  0  0  0  0  0  0  0  0  0  0
   -0.0229    0.8136   -2.2959 H   0  0  0  0  0  0  0  0  0  0  0  0
   -0.6537    2.4396   -2.2114 H   0  0  0  0  0  0  0  0  0  0  0  0
   -0.7153    1.6977   -4.3638 H   0  0  0  0  0  0  0  0  0  0  0  0
    0.5801    2.9344   -4.2598 H   0  0  0  0  0  0  0  0  0  0  0  0
    3.6657    0.1408   -5.2169 H   0  0  0  0  0  0  0  0  0  0  0  0
    3.2525   -1.0333   -3.9086 H   0  0  0  0  0  0  0  0  0  0  0  0
    3.8438   -1.6017   -5.4843 H   0  0  0  0  0  0  0  0  0  0  0  0
  1 14  1  0  0  0  0
  1 15  1  0  0  0  0
  2 27  1  0  0  0  0
  3 28  1  0  0  0  0
  4 29  1  0  0  0  0
  5 16  1  0  0  0  0
  5 30  1  0  0  0  0
  6 17  2  0  0  0  0
  7 23  1  0  0  0  0
  7 24  1  0  0  0  0
  8 23  2  0  0  0  0
  9 17  1  0  0  0  0
  9 25  1  0  0  0  0
 10 22  1  0  0  0  0
 10 23  1  0  0  0  0
 10 26  1  0  0  0  0
 11  2  1  0  0  0  0
 11 12  1  0  0  0  0
 11 13  1  0  0  0  0
 11 31  1  6  0  0  0
 12  3  1  0  0  0  0
 12 14  1  0  0  0  0
 12 32  1  6  0  0  0
 13  4  1  0  0  0  0
 13 15  1  0  0  0  0
 13 33  1  1  0  0  0
 14 16  1  0  0  0  0
 14 34  1  6  0  0  0
 15  9  1  0  0  0  0
 15 35  1  6  0  0  0
 16 36  1  0  0  0  0
 16 37  1  0  0  0  0
 17 18  1  0  0  0  0
 18 19  1  0  0  0  0
 18 38  1  0  0  0  0
 18 39  1  0  0  0  0
 19 20  1  0  0  0  0
 19 40  1  0  0  0  0
 19 41  1  0  0  0  0
 20 21  1  0  0  0  0
 20 42  1  0  0  0  0
 20 43  1  0  0  0  0
 21 22  1  0  0  0  0
 21 44  1  0  0  0  0
 21 45  1  0  0  0  0
 22 46  1  0  0  0  0
 22 47  1  0  0  0  0
 24 48  1  0  0  0  0
 24 49  1  0  0  0  0
 24 50  1  0  0  0  0
M  END
>  <DRUGBANK_ID>
DB02474

>  <SECONDARY_ACCESSION_NUMBERS>
EXPT00089

>  <COMMON_NAME>
BMSC-0013

>  <SYNONYMS>
N-{6-[(Methoxycarbonyl)amino]hexanoyl}-Î²-D-galactopyranosylamine

$$$$
