HI5
 OpenBabel10282417163D

 44 43  0  0  0  0  0  0  0  0999 V2000
    0.9305    0.0410    0.0591 P   0  0  0  0  0  0  0  0  0  0  0  0
    0.9305    1.6502    0.6944 O   0  0  0  0  0  0  0  0  0  0  0  0
    0.9305   -0.2134   -1.6521 O   0  0  0  0  0  0  0  0  0  0  0  0
    0.9305   -1.3137    1.1350 O   0  0  0  0  0  0  0  0  0  0  0  0
   -0.7995    0.0410    0.0591 O   0  0  0  0  0  0  0  0  0  0  0  0
    2.6605    0.0410    0.0591 O   0  0  0  0  0  0  0  0  0  0  0  0
    2.2693   -1.6844    1.4294 C   0  0  0  0  0  0  0  0  0  0  0  0
    2.9859   -2.0594    0.1424 C   0  0  1  0  0  0  0  0  0  0  0  0
    2.9859   -0.8691   -0.8029 C   0  0  0  0  0  0  0  0  0  0  0  0
    3.6553    0.2226   -0.1894 O   0  0  0  0  0  0  0  0  0  0  0  0
    3.1701    0.7560    1.0339 C   0  0  0  0  0  0  0  0  0  0  0  0
    2.1368    0.2564    1.5797 O   0  0  0  0  0  0  0  0  0  0  0  0
    3.8867    1.9246    1.6907 C   0  0  0  0  0  0  0  0  0  0  0  0
    5.3197    1.5279    2.0058 C   0  0  0  0  0  0  0  0  0  0  0  0
    6.0363    1.1528    0.7188 C   0  0  0  0  0  0  0  0  0  0  0  0
    4.3247   -2.4301    0.4368 O   0  0  0  0  0  0  0  0  0  0  0  0
    5.1990   -1.4991    1.0574 C   0  0  0  0  0  0  0  0  0  0  0  0
    4.7019   -0.1058    1.4067 C   0  0  0  0  0  0  0  0  0  0  0  0
    4.8226    0.1142    2.9058 C   0  0  0  0  0  0  0  0  0  0  0  0
    6.2779   -0.0237    3.3225 C   0  0  0  0  0  0  0  0  0  0  0  0
    6.3972   -1.8309    1.3209 O   0  0  0  0  0  0  0  0  0  0  0  0
    2.4815   -2.8821   -0.3199 H   0  0  0  0  0  0  0  0  0  0  0  0
    0.9305    1.6140    1.6937 H   0  0  0  0  0  0  0  0  0  0  0  0
    0.9305    0.6702   -2.1204 H   0  0  0  0  0  0  0  0  0  0  0  0
   -1.1328    0.6325    0.7933 H   0  0  0  0  0  0  0  0  0  0  0  0
    2.9939    0.7632   -0.5471 H   0  0  0  0  0  0  0  0  0  0  0  0
    2.7737   -0.8617    1.8917 H   0  0  0  0  0  0  0  0  0  0  0  0
    2.2693   -2.5223    2.0948 H   0  0  0  0  0  0  0  0  0  0  0  0
    3.4903   -1.1332   -1.7089 H   0  0  0  0  0  0  0  0  0  0  0  0
    1.9771   -0.5898   -1.0247 H   0  0  0  0  0  0  0  0  0  0  0  0
    3.8867    2.7625    1.0253 H   0  0  0  0  0  0  0  0  0  0  0  0
    3.3823    2.1887    2.5967 H   0  0  0  0  0  0  0  0  0  0  0  0
    5.8241    2.3505    2.4681 H   0  0  0  0  0  0  0  0  0  0  0  0
    5.3197    0.6900    2.6713 H   0  0  0  0  0  0  0  0  0  0  0  0
    6.0363    1.9907    0.0534 H   0  0  0  0  0  0  0  0  0  0  0  0
    7.0451    0.8735    0.9407 H   0  0  0  0  0  0  0  0  0  0  0  0
    5.5319    0.3302    0.2565 H   0  0  0  0  0  0  0  0  0  0  0  0
    5.2913    0.6230    0.8906 H   0  0  0  0  0  0  0  0  0  0  0  0
    3.6775   -0.0087    1.1133 H   0  0  0  0  0  0  0  0  0  0  0  0
    4.4727    1.0950    3.1516 H   0  0  0  0  0  0  0  0  0  0  0  0
    4.2332   -0.6145    3.4219 H   0  0  0  0  0  0  0  0  0  0  0  0
    6.8673    0.7051    2.8064 H   0  0  0  0  0  0  0  0  0  0  0  0
    6.3629    0.1312    4.3778 H   0  0  0  0  0  0  0  0  0  0  0  0
    6.6278   -1.0045    3.0767 H   0  0  0  0  0  0  0  0  0  0  0  0
  1  2  1  0  0  0  0
  1  3  1  0  0  0  0
  1  4  1  0  0  0  0
  1  5  1  0  0  0  0
  1  6  1  0  0  0  0
  2 23  1  0  0  0  0
  3 24  1  0  0  0  0
  4  7  1  0  0  0  0
  5 25  1  0  0  0  0
  6 26  1  0  0  0  0
  7  8  1  0  0  0  0
  7 27  1  0  0  0  0
  7 28  1  0  0  0  0
  8  9  1  0  0  0  0
  8 16  1  0  0  0  0
  8 22  1  6  0  0  0
  9 10  1  0  0  0  0
  9 29  1  0  0  0  0
  9 30  1  0  0  0  0
 10 11  1  0  0  0  0
 11 12  2  0  0  0  0
 11 13  1  0  0  0  0
 13 14  1  0  0  0  0
 13 31  1  0  0  0  0
 13 32  1  0  0  0  0
 14 15  1  0  0  0  0
 14 33  1  0  0  0  0
 14 34  1  0  0  0  0
 15 35  1  0  0  0  0
 15 36  1  0  0  0  0
 15 37  1  0  0  0  0
 16 17  1  0  0  0  0
 17 18  1  0  0  0  0
 17 21  2  0  0  0  0
 18 19  1  0  0  0  0
 18 38  1  0  0  0  0
 18 39  1  0  0  0  0
 19 20  1  0  0  0  0
 19 40  1  0  0  0  0
 19 41  1  0  0  0  0
 20 42  1  0  0  0  0
 20 43  1  0  0  0  0
 20 44  1  0  0  0  0
M  END
>  <DRUGBANK_ID>
DB07898

>  <COMMON_NAME>
(2R)-3-[(tetrahydroxyphosphoranyl)oxy]-1,2-propanediyl dibutanoate

>  <SYNONYMS>
2-(butyryloxy)-1-{[(tetrahydroxyphosphoranyl)oxy]methyl}ethyl butyrate

$$$$
