
 OpenBabel10282417203D

 38 41  0  0  0  0  0  0  0  0999 V2000
    1.5249   -0.4075    0.0107 C   0  0  0  0  0  0  0  0  0  0  0  0
    0.5977   -1.4489    0.0259 C   0  0  0  0  0  0  0  0  0  0  0  0
   -0.7875   -1.2017    0.0053 C   0  0  0  0  0  0  0  0  0  0  0  0
   -1.2931    0.1005   -0.0123 C   0  0  0  0  0  0  0  0  0  0  0  0
   -0.2941    1.1069    0.0943 C   0  0  0  0  0  0  0  0  0  0  0  0
    1.0736    0.8878    0.0363 C   0  0  0  0  0  0  0  0  0  0  0  0
   -2.8175    0.4831   -0.2801 C   0  0  0  0  0  0  0  0  0  0  0  0
   -3.9128    0.0070    0.6617 C   0  0  0  0  0  0  0  0  0  0  0  0
   -3.7767   -0.6614   -0.6801 C   0  0  3  0  0  0  0  0  0  0  0  0
   -4.8538   -0.6640   -1.6897 C   0  0  0  0  0  0  0  0  0  0  0  0
   -6.0949   -0.9080   -1.3841 N   0  0  0  0  0  0  0  0  0  0  0  0
   -6.7419   -1.1657   -2.7206 C   0  0  0  0  0  0  0  0  0  0  0  0
   -5.7556   -0.6663   -3.7852 C   0  0  0  0  0  0  0  0  0  0  0  0
   -4.5423   -0.6104   -3.0163 N   0  0  0  0  0  0  0  0  0  0  0  0
   -2.9180    1.9487   -0.7741 C   0  0  0  0  0  0  0  0  0  0  0  0
   -2.6245    2.9888    0.1481 C   0  0  0  0  0  0  0  0  0  0  0  0
   -2.0035    4.1743   -0.2718 C   0  0  0  0  0  0  0  0  0  0  0  0
   -1.8166    4.4148   -1.6276 C   0  0  0  0  0  0  0  0  0  0  0  0
   -2.2398    3.4690   -2.5586 C   0  0  0  0  0  0  0  0  0  0  0  0
   -2.7953    2.2547   -2.1374 C   0  0  0  0  0  0  0  0  0  0  0  0
    2.5917   -0.5952   -0.0050 H   0  0  0  0  0  0  0  0  0  0  0  0
    0.9561   -2.4726    0.0260 H   0  0  0  0  0  0  0  0  0  0  0  0
   -1.4529   -2.0574   -0.0160 H   0  0  0  0  0  0  0  0  0  0  0  0
   -0.5330    2.1526    0.1854 H   0  0  0  0  0  0  0  0  0  0  0  0
    1.7420    1.7441   -0.0005 H   0  0  0  0  0  0  0  0  0  0  0  0
   -3.6361   -0.5670    1.5399 H   0  0  0  0  0  0  0  0  0  0  0  0
   -4.7732    0.6468    0.8345 H   0  0  0  0  0  0  0  0  0  0  0  0
   -3.3951   -1.6742   -0.6139 H   0  0  0  0  0  0  0  0  0  0  0  0
   -7.7158   -0.6740   -2.8023 H   0  0  0  0  0  0  0  0  0  0  0  0
   -6.8995   -2.2482   -2.8287 H   0  0  0  0  0  0  0  0  0  0  0  0
   -5.7044   -1.3276   -4.6571 H   0  0  0  0  0  0  0  0  0  0  0  0
   -6.0257    0.3417   -4.1148 H   0  0  0  0  0  0  0  0  0  0  0  0
   -3.6208   -0.7057   -3.4042 H   0  0  0  0  0  0  0  0  0  0  0  0
   -2.5789    2.7441    1.2127 H   0  0  0  0  0  0  0  0  0  0  0  0
   -1.5361    4.8292    0.4626 H   0  0  0  0  0  0  0  0  0  0  0  0
   -1.2998    5.3128   -1.9560 H   0  0  0  0  0  0  0  0  0  0  0  0
   -2.0472    3.6318   -3.6156 H   0  0  0  0  0  0  0  0  0  0  0  0
   -2.9899    1.4902   -2.8805 H   0  0  0  0  0  0  0  0  0  0  0  0
  1  2  2  0  0  0  0
  1  6  1  0  0  0  0
  1 21  1  0  0  0  0
  2  3  1  0  0  0  0
  2 22  1  0  0  0  0
  3  4  2  0  0  0  0
  3 23  1  0  0  0  0
  4  5  1  0  0  0  0
  4  7  1  0  0  0  0
  5  6  2  0  0  0  0
  5 24  1  0  0  0  0
  6 25  1  0  0  0  0
  7  8  1  0  0  0  0
  7  9  1  0  0  0  0
  7 15  1  0  0  0  0
  8  9  1  0  0  0  0
  8 26  1  0  0  0  0
  8 27  1  0  0  0  0
  9 10  1  0  0  0  0
  9 28  1  0  0  0  0
 10 11  2  0  0  0  0
 10 14  1  0  0  0  0
 11 12  1  0  0  0  0
 12 13  1  0  0  0  0
 12 29  1  0  0  0  0
 12 30  1  0  0  0  0
 13 14  1  0  0  0  0
 13 31  1  0  0  0  0
 13 32  1  0  0  0  0
 14 33  1  0  0  0  0
 15 16  2  0  0  0  0
 15 20  1  0  0  0  0
 16 17  1  0  0  0  0
 16 34  1  0  0  0  0
 17 18  2  0  0  0  0
 17 35  1  0  0  0  0
 18 19  1  0  0  0  0
 18 36  1  0  0  0  0
 19 20  2  0  0  0  0
 19 37  1  0  0  0  0
 20 38  1  0  0  0  0
M  END
>  <DRUGBANK_ID>
DB13358

>  <COMMON_NAME>
Cibenzoline

>  <CAS_NUMBER>
53267-01-9

>  <UNII>
Z7489237QT

>  <SYNONYMS>
Cibenzoline; Cifenline

$$$$
