TBA
 OpenBabel10282417123D

 53 52  0  0  0  0  0  0  0  0999 V2000
    0.9285    0.0614    0.0162 N   0  3  0  0  0  0  0  0  0  0  0  0
    0.0961   -1.1300   -0.5860 C   0  0  0  0  0  0  0  0  0  0  0  0
    0.2522   -2.4005    0.2008 C   0  0  0  0  0  0  0  0  0  0  0  0
    0.4037    0.3555    1.4655 C   0  0  0  0  0  0  0  0  0  0  0  0
    0.7517    1.6312    2.2798 C   0  0  0  0  0  0  0  0  0  0  0  0
    0.6059    1.2055   -1.0142 C   0  0  0  0  0  0  0  0  0  0  0  0
    1.2607    2.5092   -0.6547 C   0  0  0  0  0  0  0  0  0  0  0  0
    2.4772   -0.1909    0.0144 C   0  0  0  0  0  0  0  0  0  0  0  0
    3.1634   -1.4242    0.6621 C   0  0  0  0  0  0  0  0  0  0  0  0
   -0.1064   -2.7010    1.6346 C   0  0  0  0  0  0  0  0  0  0  0  0
   -1.5758   -2.5414    1.7930 C   0  0  0  0  0  0  0  0  0  0  0  0
    0.0013    2.9741    2.0310 C   0  0  0  0  0  0  0  0  0  0  0  0
   -1.4580    2.7841    1.6844 C   0  0  0  0  0  0  0  0  0  0  0  0
    2.7232    2.8549   -0.5279 C   0  0  0  0  0  0  0  0  0  0  0  0
    3.3666    2.6615   -1.8539 C   0  0  0  0  0  0  0  0  0  0  0  0
    3.2157   -2.7957   -0.0759 C   0  0  0  0  0  0  0  0  0  0  0  0
    3.3703   -2.6590   -1.5737 C   0  0  0  0  0  0  0  0  0  0  0  0
   -0.9504   -0.8240   -0.7060 H   0  0  0  0  0  0  0  0  0  0  0  0
    0.5166   -1.2864   -1.5918 H   0  0  0  0  0  0  0  0  0  0  0  0
    0.1333   -3.2752   -0.4337 H   0  0  0  0  0  0  0  0  0  0  0  0
    1.2739   -2.2729    0.4146 H   0  0  0  0  0  0  0  0  0  0  0  0
   -0.6699    0.1637    1.4658 H   0  0  0  0  0  0  0  0  0  0  0  0
    0.8977   -0.4038    2.0543 H   0  0  0  0  0  0  0  0  0  0  0  0
    0.5086    1.3710    3.3206 H   0  0  0  0  0  0  0  0  0  0  0  0
    1.8394    1.7768    2.2879 H   0  0  0  0  0  0  0  0  0  0  0  0
    0.8500    0.8666   -2.0285 H   0  0  0  0  0  0  0  0  0  0  0  0
   -0.4865    1.3344   -0.9582 H   0  0  0  0  0  0  0  0  0  0  0  0
    0.6784    3.3552   -1.0113 H   0  0  0  0  0  0  0  0  0  0  0  0
    1.1250    2.4179    0.3841 H   0  0  0  0  0  0  0  0  0  0  0  0
    2.8302   -0.0285   -1.0045 H   0  0  0  0  0  0  0  0  0  0  0  0
    2.8468    0.6039    0.6464 H   0  0  0  0  0  0  0  0  0  0  0  0
    4.2182   -1.1308    0.7688 H   0  0  0  0  0  0  0  0  0  0  0  0
    2.8125   -1.5396    1.6955 H   0  0  0  0  0  0  0  0  0  0  0  0
    0.2479   -3.7135    1.8729 H   0  0  0  0  0  0  0  0  0  0  0  0
    0.4439   -2.1096    2.3676 H   0  0  0  0  0  0  0  0  0  0  0  0
   -2.0574   -3.3877    1.3062 H   0  0  0  0  0  0  0  0  0  0  0  0
   -1.8297   -2.4976    2.8513 H   0  0  0  0  0  0  0  0  0  0  0  0
   -1.9135   -1.6225    1.3108 H   0  0  0  0  0  0  0  0  0  0  0  0
    0.1911    3.6467    2.8717 H   0  0  0  0  0  0  0  0  0  0  0  0
    0.3864    3.6213    1.2375 H   0  0  0  0  0  0  0  0  0  0  0  0
   -2.0466    2.6689    2.5919 H   0  0  0  0  0  0  0  0  0  0  0  0
   -1.8168    3.6437    1.1101 H   0  0  0  0  0  0  0  0  0  0  0  0
   -1.6287    1.9207    1.0366 H   0  0  0  0  0  0  0  0  0  0  0  0
    2.8021    3.8851   -0.1539 H   0  0  0  0  0  0  0  0  0  0  0  0
    3.2467    2.3075    0.2570 H   0  0  0  0  0  0  0  0  0  0  0  0
    3.0454    3.4750   -2.5021 H   0  0  0  0  0  0  0  0  0  0  0  0
    4.4499    2.6517   -1.7399 H   0  0  0  0  0  0  0  0  0  0  0  0
    3.0499    1.7158   -2.2969 H   0  0  0  0  0  0  0  0  0  0  0  0
    3.9631   -3.4299    0.4082 H   0  0  0  0  0  0  0  0  0  0  0  0
    2.3572   -3.4622    0.0483 H   0  0  0  0  0  0  0  0  0  0  0  0
    4.4187   -2.5250   -1.8313 H   0  0  0  0  0  0  0  0  0  0  0  0
    2.9722   -3.5496   -2.0694 H   0  0  0  0  0  0  0  0  0  0  0  0
    2.7932   -1.8262   -1.9831 H   0  0  0  0  0  0  0  0  0  0  0  0
  1  2  1  0  0  0  0
  1  4  1  0  0  0  0
  1  6  1  0  0  0  0
  1  8  1  0  0  0  0
  2  3  1  0  0  0  0
  2 18  1  0  0  0  0
  2 19  1  0  0  0  0
  3 10  1  0  0  0  0
  3 20  1  0  0  0  0
  3 21  1  0  0  0  0
  4  5  1  0  0  0  0
  4 22  1  0  0  0  0
  4 23  1  0  0  0  0
  5 12  1  0  0  0  0
  5 24  1  0  0  0  0
  5 25  1  0  0  0  0
  6  7  1  0  0  0  0
  6 26  1  0  0  0  0
  6 27  1  0  0  0  0
  7 14  1  0  0  0  0
  7 28  1  0  0  0  0
  7 29  1  0  0  0  0
  8  9  1  0  0  0  0
  8 30  1  0  0  0  0
  8 31  1  0  0  0  0
  9 16  1  0  0  0  0
  9 32  1  0  0  0  0
  9 33  1  0  0  0  0
 10 11  1  0  0  0  0
 10 34  1  0  0  0  0
 10 35  1  0  0  0  0
 11 36  1  0  0  0  0
 11 37  1  0  0  0  0
 11 38  1  0  0  0  0
 12 13  1  0  0  0  0
 12 39  1  0  0  0  0
 12 40  1  0  0  0  0
 13 41  1  0  0  0  0
 13 42  1  0  0  0  0
 13 43  1  0  0  0  0
 14 15  1  0  0  0  0
 14 44  1  0  0  0  0
 14 45  1  0  0  0  0
 15 46  1  0  0  0  0
 15 47  1  0  0  0  0
 15 48  1  0  0  0  0
 16 17  1  0  0  0  0
 16 49  1  0  0  0  0
 16 50  1  0  0  0  0
 17 51  1  0  0  0  0
 17 52  1  0  0  0  0
 17 53  1  0  0  0  0
M  CHG  1   1   1
M  END
>  <DRUGBANK_ID>
DB01851

>  <SECONDARY_ACCESSION_NUMBERS>
EXPT03013

>  <COMMON_NAME>
Tetrabutylammonium Ion

>  <CAS_NUMBER>
2052-49-5

>  <UNII>
CBU2X6BBJR

$$$$
