
 OpenBabel10282417233D

 74 78  0  0  0  0  0  0  0  0999 V2000
    0.9573    0.1190    0.1650 C   0  0  0  0  0  0  0  0  0  0  0  0
    0.5250   -1.0112   -0.5611 O   0  0  0  0  0  0  0  0  0  0  0  0
    0.8941   -0.8574   -1.8579 C   0  0  0  0  0  0  0  0  0  0  0  0
   -0.1613   -1.0065   -2.7297 C   0  0  0  0  0  0  0  0  0  0  0  0
    0.1740   -0.7679   -4.0225 C   0  0  0  0  0  0  0  0  0  0  0  0
    1.4815   -0.5699   -4.3845 C   0  0  0  0  0  0  0  0  0  0  0  0
    1.4922   -0.5408   -5.7153 N   0  0  0  0  0  0  0  0  0  0  0  0
    0.2743   -0.8152   -6.1932 C   0  0  0  0  0  0  0  0  0  0  0  0
   -0.5661   -0.6944   -5.1923 C   0  0  0  0  0  0  0  0  0  0  0  0
   -1.9632   -0.9434   -5.3768 C   0  0  0  0  0  0  0  0  0  0  0  0
   -2.6664   -0.0588   -6.4958 C   0  0  0  0  0  0  0  0  0  0  0  0
   -2.3444   -0.0886   -7.9758 N   0  0  0  0  0  0  0  0  0  0  0  0
   -3.0399   -0.5214   -9.1003 C   0  0  0  0  0  0  0  0  0  0  0  0
   -2.4994   -0.4855  -10.2083 O   0  0  0  0  0  0  0  0  0  0  0  0
   -4.4363   -1.0670   -9.0110 C   0  0  0  0  0  0  0  0  0  0  0  0
   -4.6533   -2.4345   -8.3687 C   0  0  3  0  0  0  0  0  0  0  0  0
   -4.6526   -2.3805   -6.8922 N   0  0  0  0  0  0  0  0  0  0  0  0
   -5.7123   -1.8619   -5.9438 C   0  0  0  0  0  0  0  0  0  0  0  0
   -6.5321   -0.6250   -6.3528 C   0  0  0  0  0  0  0  0  0  0  0  0
   -7.3045   -0.9382   -7.5906 C   0  0  0  0  0  0  0  0  0  0  0  0
   -7.6135   -2.2055   -8.0502 C   0  0  0  0  0  0  0  0  0  0  0  0
   -7.8105   -2.2135   -9.4547 C   0  0  0  0  0  0  0  0  0  0  0  0
   -7.9864   -0.9410   -9.9391 C   0  0  0  0  0  0  0  0  0  0  0  0
   -7.7373    0.2551   -8.7327 S   0  0  0  0  0  0  0  0  0  0  0  0
   -3.5054   -2.8753   -6.3156 C   0  0  0  0  0  0  0  0  0  0  0  0
   -3.4682   -3.0054   -5.1089 O   0  0  0  0  0  0  0  0  0  0  0  0
   -2.2763   -2.9698   -7.3156 C   0  0  0  0  0  0  0  0  0  0  0  0
   -2.5888   -3.8446   -8.3472 N   0  0  0  0  0  0  0  0  0  0  0  0
   -1.5310   -4.7616   -8.6917 C   0  0  0  0  0  0  0  0  0  0  0  0
   -0.3688   -4.1505   -9.5094 C   0  0  0  0  0  0  0  0  0  0  0  0
    0.5500   -3.0707   -8.9617 C   0  0  0  0  0  0  0  0  0  0  0  0
    0.3498   -1.7476   -9.4117 C   0  0  0  0  0  0  0  0  0  0  0  0
    1.1685   -0.6848   -9.0203 C   0  0  0  0  0  0  0  0  0  0  0  0
    2.3077   -0.9488   -8.2703 C   0  0  0  0  0  0  0  0  0  0  0  0
    3.1391    0.4969   -7.6785 Cl  0  0  0  0  0  0  0  0  0  0  0  0
    2.4474   -2.2484   -7.6824 C   0  0  0  0  0  0  0  0  0  0  0  0
    1.5806   -3.3020   -8.0436 C   0  0  0  0  0  0  0  0  0  0  0  0
    1.7426   -4.8340   -7.2541 Cl  0  0  0  0  0  0  0  0  0  0  0  0
   -3.8159   -3.6592   -8.9501 C   0  0  0  0  0  0  0  0  0  0  0  0
   -4.2401   -4.3880   -9.8198 O   0  0  0  0  0  0  0  0  0  0  0  0
    2.5734   -0.4357   -3.5761 C   0  0  0  0  0  0  0  0  0  0  0  0
    2.2218   -0.5572   -2.2572 C   0  0  0  0  0  0  0  0  0  0  0  0
    0.5793   -0.0201    1.1714 H   0  0  0  0  0  0  0  0  0  0  0  0
    0.5585    1.0514   -0.2578 H   0  0  0  0  0  0  0  0  0  0  0  0
    2.0476    0.1481    0.2011 H   0  0  0  0  0  0  0  0  0  0  0  0
   -1.1822   -1.2349   -2.4447 H   0  0  0  0  0  0  0  0  0  0  0  0
    2.3530   -0.4248   -6.1843 H   0  0  0  0  0  0  0  0  0  0  0  0
    0.0002   -1.1163   -7.1846 H   0  0  0  0  0  0  0  0  0  0  0  0
   -1.7633   -2.0033   -5.5133 H   0  0  0  0  0  0  0  0  0  0  0  0
   -2.4801   -0.9123   -4.4212 H   0  0  0  0  0  0  0  0  0  0  0  0
   -3.7290   -0.2305   -6.4454 H   0  0  0  0  0  0  0  0  0  0  0  0
   -2.4871    0.9676   -6.1871 H   0  0  0  0  0  0  0  0  0  0  0  0
   -1.4126    0.2108   -8.2401 H   0  0  0  0  0  0  0  0  0  0  0  0
   -4.9896   -0.2651   -8.5273 H   0  0  0  0  0  0  0  0  0  0  0  0
   -4.8353   -1.1294  -10.0353 H   0  0  0  0  0  0  0  0  0  0  0  0
   -5.6091   -2.8331   -8.6468 H   0  0  0  0  0  0  0  0  0  0  0  0
   -6.3571   -2.7072   -5.6753 H   0  0  0  0  0  0  0  0  0  0  0  0
   -5.2482   -1.5792   -4.9861 H   0  0  0  0  0  0  0  0  0  0  0  0
   -7.2176   -0.3530   -5.5402 H   0  0  0  0  0  0  0  0  0  0  0  0
   -5.8529    0.2325   -6.4678 H   0  0  0  0  0  0  0  0  0  0  0  0
   -7.3655   -3.1102   -7.4995 H   0  0  0  0  0  0  0  0  0  0  0  0
   -7.7725   -3.1140  -10.0584 H   0  0  0  0  0  0  0  0  0  0  0  0
   -8.2122   -0.6606  -10.9551 H   0  0  0  0  0  0  0  0  0  0  0  0
   -2.0205   -2.0930   -7.8774 H   0  0  0  0  0  0  0  0  0  0  0  0
   -1.3288   -3.2289   -6.8493 H   0  0  0  0  0  0  0  0  0  0  0  0
   -1.1709   -5.1694   -7.7386 H   0  0  0  0  0  0  0  0  0  0  0  0
   -1.9877   -5.5700   -9.2578 H   0  0  0  0  0  0  0  0  0  0  0  0
    0.2877   -4.9767   -9.7968 H   0  0  0  0  0  0  0  0  0  0  0  0
   -0.7884   -3.7508  -10.4384 H   0  0  0  0  0  0  0  0  0  0  0  0
   -0.5550   -1.5140   -9.9573 H   0  0  0  0  0  0  0  0  0  0  0  0
    0.7417    0.3288   -9.0073 H   0  0  0  0  0  0  0  0  0  0  0  0
    3.0162   -2.4066   -6.7551 H   0  0  0  0  0  0  0  0  0  0  0  0
    3.5611   -0.2416   -3.9737 H   0  0  0  0  0  0  0  0  0  0  0  0
    3.0214   -0.4202   -1.5465 H   0  0  0  0  0  0  0  0  0  0  0  0
  1  2  1  0  0  0  0
  1 43  1  0  0  0  0
  1 44  1  0  0  0  0
  1 45  1  0  0  0  0
  2  3  1  0  0  0  0
  3  4  2  0  0  0  0
  3 42  1  0  0  0  0
  4  5  1  0  0  0  0
  4 46  1  0  0  0  0
  5  6  2  0  0  0  0
  5  9  1  0  0  0  0
  6  7  1  0  0  0  0
  6 41  1  0  0  0  0
  7  8  1  0  0  0  0
  7 47  1  0  0  0  0
  8  9  2  0  0  0  0
  8 48  1  0  0  0  0
  9 10  1  0  0  0  0
 10 11  1  0  0  0  0
 10 49  1  0  0  0  0
 10 50  1  0  0  0  0
 11 12  1  0  0  0  0
 11 51  1  0  0  0  0
 11 52  1  0  0  0  0
 12 13  1  0  0  0  0
 12 53  1  0  0  0  0
 13 14  2  0  0  0  0
 13 15  1  0  0  0  0
 15 16  1  0  0  0  0
 15 54  1  0  0  0  0
 15 55  1  0  0  0  0
 16 17  1  0  0  0  0
 16 39  1  0  0  0  0
 16 56  1  0  0  0  0
 17 18  1  0  0  0  0
 17 25  1  0  0  0  0
 18 19  1  0  0  0  0
 18 57  1  0  0  0  0
 18 58  1  0  0  0  0
 19 20  1  0  0  0  0
 19 59  1  0  0  0  0
 19 60  1  0  0  0  0
 20 21  2  0  0  0  0
 20 24  1  0  0  0  0
 21 22  1  0  0  0  0
 21 61  1  0  0  0  0
 22 23  2  0  0  0  0
 22 62  1  0  0  0  0
 23 24  1  0  0  0  0
 23 63  1  0  0  0  0
 25 26  2  0  0  0  0
 25 27  1  0  0  0  0
 27 28  1  0  0  0  0
 27 64  1  0  0  0  0
 27 65  1  0  0  0  0
 28 29  1  0  0  0  0
 28 39  1  0  0  0  0
 29 30  1  0  0  0  0
 29 66  1  0  0  0  0
 29 67  1  0  0  0  0
 30 31  1  0  0  0  0
 30 68  1  0  0  0  0
 30 69  1  0  0  0  0
 31 32  2  0  0  0  0
 31 37  1  0  0  0  0
 32 33  1  0  0  0  0
 32 70  1  0  0  0  0
 33 34  2  0  0  0  0
 33 71  1  0  0  0  0
 34 35  1  0  0  0  0
 34 36  1  0  0  0  0
 36 37  2  0  0  0  0
 36 72  1  0  0  0  0
 37 38  1  0  0  0  0
 39 40  2  0  0  0  0
 41 42  2  0  0  0  0
 41 73  1  0  0  0  0
 42 74  1  0  0  0  0
M  END
>  <DRUGBANK_ID>
DB17142

>  <COMMON_NAME>
LPT-99

>  <CAS_NUMBER>
1263477-83-3

>  <UNII>
A2Y8E9P363

>  <SYNONYMS>
2-(4-(2,4-dichlorophenethyl)-3,6-dioxo-1-(2-(thiophen-2-yl)ethyl)piperazin-2-yl)-n-(2-(5-methoxy-1h-indol-3-yl)ethyl) acetamide; 2-(4-(2,4-dichlorophenethyl)-3,6-dioxo-1-(2-(thiophen-2-yl)ethyl)piperazin-2-yl)-n-(2-(5-methoxy-1h-indol-3-yl)ethyl)acetamide; 2-piperazineacetamide, 4-(2-(2,4-dichlorophenyl)ethyl)-n-(2-(5-methoxy-1h-indol-3-yl)ethyl)-3,6-dioxo-1-(2-(2-thienyl)ethyl)-

$$$$
