
 OpenBabel10282417173D

 30 32  0  0  0  0  0  0  0  0999 V2000
   -0.4026   -1.0829    0.0055 N   0  0  0  0  0  0  0  0  0  0  0  0
   -1.2723    0.0047    0.0024 C   0  0  0  0  0  0  0  0  0  0  0  0
   -0.5081    1.1528    0.0026 C   0  0  0  0  0  0  0  0  0  0  0  0
    0.8060    0.8568   -0.0201 N   0  0  0  0  0  0  0  0  0  0  0  0
    0.8462   -0.4596   -0.0409 C   0  0  0  0  0  0  0  0  0  0  0  0
   -0.7494   -2.4903    0.0123 C   0  0  0  0  0  0  0  0  0  0  0  0
    0.1561   -3.4894    0.0938 C   0  0  0  0  0  0  0  0  0  0  0  0
   -2.2284   -2.8409    0.0173 C   0  0  0  0  0  0  0  0  0  0  0  0
    1.4447   -5.7313   -0.6256 C   0  0  1  0  0  0  0  0  0  0  0  0
   -0.2545   -5.1557   -0.1511 S   0  0  0  0  0  0  0  0  0  0  0  0
    1.8756   -3.3015    0.3002 S   0  0  0  0  0  0  0  0  0  0  0  0
    2.2407   -4.4750   -1.0175 C   0  0  0  0  0  0  0  0  0  0  0  0
    2.1164   -6.6013    0.4388 C   0  0  0  0  0  0  0  0  0  0  0  0
    2.2338   -8.6124    1.8131 C   0  0  0  0  0  0  0  0  0  0  0  0
    1.5261   -7.7749    0.9464 C   0  0  0  0  0  0  0  0  0  0  0  0
    3.4332   -6.3066    0.8720 C   0  0  0  0  0  0  0  0  0  0  0  0
    4.1499   -7.1638    1.6986 C   0  0  0  0  0  0  0  0  0  0  0  0
    3.5471   -8.3194    2.1593 C   0  0  0  0  0  0  0  0  0  0  0  0
   -0.0590   -8.3213    0.5187 Cl  0  0  0  0  0  0  0  0  0  0  0  0
    4.4432   -9.4041    3.1411 Cl  0  0  0  0  0  0  0  0  0  0  0  0
   -3.4554   -3.1319    0.0214 N   0  0  0  0  0  0  0  0  0  0  0  0
   -2.3428   -0.1117    0.0058 H   0  0  0  0  0  0  0  0  0  0  0  0
   -0.8288    2.1864    0.0091 H   0  0  0  0  0  0  0  0  0  0  0  0
    1.7921   -0.9563   -0.1031 H   0  0  0  0  0  0  0  0  0  0  0  0
    1.3327   -6.3407   -1.5277 H   0  0  0  0  0  0  0  0  0  0  0  0
    3.3205   -4.6113   -1.1116 H   0  0  0  0  0  0  0  0  0  0  0  0
    1.9136   -4.0553   -1.9753 H   0  0  0  0  0  0  0  0  0  0  0  0
    1.7622   -9.5140    2.1920 H   0  0  0  0  0  0  0  0  0  0  0  0
    3.9688   -5.4084    0.5756 H   0  0  0  0  0  0  0  0  0  0  0  0
    5.1769   -6.9181    1.9567 H   0  0  0  0  0  0  0  0  0  0  0  0
  1  2  1  0  0  0  0
  1  5  1  0  0  0  0
  1  6  1  0  0  0  0
  2  3  2  0  0  0  0
  2 22  1  0  0  0  0
  3  4  1  0  0  0  0
  3 23  1  0  0  0  0
  4  5  2  0  0  0  0
  5 24  1  0  0  0  0
  6  7  2  0  0  0  0
  6  8  1  0  0  0  0
  7 11  1  0  0  0  0
  8 21  3  0  0  0  0
  9 10  1  0  0  0  0
  9 12  1  0  0  0  0
  9 13  1  0  0  0  0
  9 25  1  6  0  0  0
 10  7  1  0  0  0  0
 11 12  1  0  0  0  0
 12 26  1  0  0  0  0
 12 27  1  0  0  0  0
 13 16  1  0  0  0  0
 14 15  1  0  0  0  0
 14 18  2  0  0  0  0
 14 28  1  0  0  0  0
 15 13  2  0  0  0  0
 15 19  1  0  0  0  0
 16 17  2  0  0  0  0
 16 29  1  0  0  0  0
 17 18  1  0  0  0  0
 17 30  1  0  0  0  0
 18 20  1  0  0  0  0
M  END
>  <DRUGBANK_ID>
DB08933

>  <COMMON_NAME>
Luliconazole

>  <CAS_NUMBER>
187164-19-8

>  <UNII>
RE91AN4S8G

>  <SYNONYMS>
Luliconazole

$$$$
