
 OpenBabel10282417223D

 47 50  0  0  0  0  0  0  0  0999 V2000
   -1.5585   -1.3167   -0.2490 C   0  0  2  0  0  0  0  0  0  0  0  0
   -2.1627   -0.0764    0.4043 C   0  0  0  0  0  0  0  0  0  0  0  0
   -1.4892    1.1770   -0.0699 C   0  0  0  0  0  0  0  0  0  0  0  0
   -0.0922    1.0141   -0.0701 O   0  0  0  0  0  0  0  0  0  0  0  0
    0.8066   -0.3410    0.0157 P   0  0  1  0  0  0  0  0  0  0  0  0
   -0.2296   -1.5395    0.1479 O   0  0  0  0  0  0  0  0  0  0  0  0
    4.9419    3.8139   -0.5318 N   0  0  0  0  0  0  0  0  0  0  0  0
    4.7515    5.1719   -0.5875 C   0  0  0  0  0  0  0  0  0  0  0  0
    3.6268    5.9203   -0.8226 N   0  0  0  0  0  0  0  0  0  0  0  0
    2.4962    5.2512   -1.0476 C   0  0  0  0  0  0  0  0  0  0  0  0
    3.7769    3.2017   -0.7438 C   0  0  0  0  0  0  0  0  0  0  0  0
    2.5762    3.8713   -1.0096 C   0  0  0  0  0  0  0  0  0  0  0  0
    1.5585    3.0841   -1.2491 N   0  0  0  0  0  0  0  0  0  0  0  0
    2.1473    1.9311   -1.1240 C   0  0  0  0  0  0  0  0  0  0  0  0
    3.4459    1.8565   -0.7840 N   0  0  0  0  0  0  0  0  0  0  0  0
    1.2652    5.8133   -1.3357 N   0  0  0  0  0  0  0  0  0  0  0  0
    4.3104    0.6640   -0.6800 C   0  0  0  0  0  0  0  0  0  0  0  0
    3.8140   -0.8422   -0.5171 C   0  0  0  0  0  0  0  0  0  0  0  0
    2.9653   -1.4688   -1.4860 O   0  0  0  0  0  0  0  0  0  0  0  0
    1.8045   -0.7097   -1.7770 C   0  0  0  0  0  0  0  0  0  0  0  0
    1.7117   -0.1907    1.2049 O   0  0  0  0  0  0  0  0  0  0  0  0
   -1.6773   -1.3411   -1.7581 C   0  0  0  0  0  0  0  0  0  0  0  0
   -1.1625   -0.3425   -2.6121 C   0  0  0  0  0  0  0  0  0  0  0  0
   -1.3308   -0.3700   -3.9861 C   0  0  0  0  0  0  0  0  0  0  0  0
   -2.0157   -1.4300   -4.5462 C   0  0  0  0  0  0  0  0  0  0  0  0
   -2.5132   -2.4456   -3.7286 C   0  0  0  0  0  0  0  0  0  0  0  0
   -2.3459   -2.4093   -2.3465 C   0  0  0  0  0  0  0  0  0  0  0  0
   -3.3599   -3.7621   -4.4314 Cl  0  0  0  0  0  0  0  0  0  0  0  0
   -2.0962   -2.1697    0.1766 H   0  0  0  0  0  0  0  0  0  0  0  0
   -2.0094   -0.1279    1.4890 H   0  0  0  0  0  0  0  0  0  0  0  0
   -3.2376   -0.0174    0.2087 H   0  0  0  0  0  0  0  0  0  0  0  0
   -1.7757    2.0403    0.5436 H   0  0  0  0  0  0  0  0  0  0  0  0
   -1.8220    1.4800   -1.0694 H   0  0  0  0  0  0  0  0  0  0  0  0
    5.6437    5.7571   -0.4152 H   0  0  0  0  0  0  0  0  0  0  0  0
    1.4852    1.1933   -1.3586 H   0  0  0  0  0  0  0  0  0  0  0  0
    0.4809    5.1674   -1.4273 H   0  0  0  0  0  0  0  0  0  0  0  0
    1.1223    6.8036   -1.2950 H   0  0  0  0  0  0  0  0  0  0  0  0
    4.9555    0.8419    0.1929 H   0  0  0  0  0  0  0  0  0  0  0  0
    4.9494    0.6829   -1.5701 H   0  0  0  0  0  0  0  0  0  0  0  0
    3.4060   -1.0539    0.4630 H   0  0  0  0  0  0  0  0  0  0  0  0
    4.7021   -1.4881   -0.5079 H   0  0  0  0  0  0  0  0  0  0  0  0
    1.1481   -1.1534   -2.5243 H   0  0  0  0  0  0  0  0  0  0  0  0
    2.2467    0.1121   -2.3726 H   0  0  0  0  0  0  0  0  0  0  0  0
   -0.5780    0.4999   -2.2620 H   0  0  0  0  0  0  0  0  0  0  0  0
   -0.9188    0.4341   -4.5918 H   0  0  0  0  0  0  0  0  0  0  0  0
   -2.1523   -1.4593   -5.6205 H   0  0  0  0  0  0  0  0  0  0  0  0
   -2.7425   -3.2086   -1.7243 H   0  0  0  0  0  0  0  0  0  0  0  0
  1  2  1  0  0  0  0
  1  6  1  0  0  0  0
  1 29  1  1  0  0  0
  1 22  1  0  0  0  0
  2  3  1  0  0  0  0
  2 30  1  0  0  0  0
  2 31  1  0  0  0  0
  3  4  1  0  0  0  0
  3 32  1  0  0  0  0
  3 33  1  0  0  0  0
  4  5  1  0  0  0  0
  5 20  1  0  0  0  0
  5 21  2  1  0  0  0
  5  6  1  0  0  0  0
  7  8  2  0  0  0  0
  8  9  1  0  0  0  0
  8 34  1  0  0  0  0
  9 10  2  0  0  0  0
 10 16  1  0  0  0  0
 10 12  1  0  0  0  0
 11 12  2  0  0  0  0
 11  7  1  0  0  0  0
 12 13  1  0  0  0  0
 13 14  2  0  0  0  0
 14 15  1  0  0  0  0
 14 35  1  0  0  0  0
 15 11  1  0  0  0  0
 15 17  1  0  0  0  0
 16 36  1  0  0  0  0
 16 37  1  0  0  0  0
 17 18  1  0  0  0  0
 17 38  1  0  0  0  0
 17 39  1  0  0  0  0
 18 19  1  0  0  0  0
 18 40  1  0  0  0  0
 18 41  1  0  0  0  0
 19 20  1  0  0  0  0
 20 42  1  0  0  0  0
 20 43  1  0  0  0  0
 22 23  2  0  0  0  0
 23 24  1  0  0  0  0
 23 44  1  0  0  0  0
 24 25  2  0  0  0  0
 24 45  1  0  0  0  0
 25 26  1  0  0  0  0
 25 46  1  0  0  0  0
 26 27  2  0  0  0  0
 26 28  1  0  0  0  0
 27 22  1  0  0  0  0
 27 47  1  0  0  0  0
M  END
>  <DRUGBANK_ID>
DB15550

>  <COMMON_NAME>
Pradefovir

>  <CAS_NUMBER>
625095-60-5

>  <UNII>
GZE85Q9Q61

>  <SYNONYMS>
Pradefovir

$$$$
