LZK
 OpenBabel10282417173D

 37 39  0  0  0  0  0  0  0  0999 V2000
    0.8351   -0.0374   -0.0687 N   0  0  0  0  0  0  0  0  0  0  0  0
    0.1482    0.0576   -1.2472 C   0  0  0  0  0  0  0  0  0  0  0  0
   -0.9603    0.8091   -1.2815 N   0  0  0  0  0  0  0  0  0  0  0  0
    0.6583   -0.6169   -2.2734 N   0  0  0  0  0  0  0  0  0  0  0  0
    0.0052   -0.4929   -3.4314 C   0  0  0  0  0  0  0  0  0  0  0  0
   -1.0814    0.3405   -3.5806 C   0  0  0  0  0  0  0  0  0  0  0  0
   -1.5864    0.9680   -2.4554 C   0  0  0  0  0  0  0  0  0  0  0  0
   -2.7116    1.7167   -2.5403 N   0  0  0  0  0  0  0  0  0  0  0  0
   -3.3815    1.8006   -3.7151 C   0  0  0  0  0  0  0  0  0  0  0  0
   -4.5903    2.5117   -3.7422 N   0  0  0  0  0  0  0  0  0  0  0  0
   -1.6875    0.5109   -4.8185 C   0  0  0  0  0  0  0  0  0  0  0  0
   -2.9041    1.1822   -4.8818 C   0  0  0  0  0  0  0  0  0  0  0  0
   -3.6013    1.2620   -6.1638 C   0  0  0  0  0  0  0  0  0  0  0  0
   -4.2729    0.1337   -6.7047 C   0  0  0  0  0  0  0  0  0  0  0  0
   -4.3171   -1.1636   -6.2409 O   0  0  0  0  0  0  0  0  0  0  0  0
   -3.7690   -1.5096   -4.9766 C   0  0  0  0  0  0  0  0  0  0  0  0
   -3.6805    2.5067   -6.8470 C   0  0  0  0  0  0  0  0  0  0  0  0
   -2.9974    3.6733   -6.5720 O   0  0  0  0  0  0  0  0  0  0  0  0
   -1.9000    3.6627   -5.6626 C   0  0  0  0  0  0  0  0  0  0  0  0
   -4.5985    2.6554   -7.8935 C   0  0  0  0  0  0  0  0  0  0  0  0
   -5.3207    1.5638   -8.3636 C   0  0  0  0  0  0  0  0  0  0  0  0
   -5.0613    0.2963   -7.8518 C   0  0  0  0  0  0  0  0  0  0  0  0
    0.3507    0.1532    0.7876 H   0  0  0  0  0  0  0  0  0  0  0  0
    1.8008   -0.3132   -0.1103 H   0  0  0  0  0  0  0  0  0  0  0  0
    0.3690   -1.1167   -4.2415 H   0  0  0  0  0  0  0  0  0  0  0  0
   -4.6693    3.1765   -2.9810 H   0  0  0  0  0  0  0  0  0  0  0  0
   -4.8533    2.8980   -4.6447 H   0  0  0  0  0  0  0  0  0  0  0  0
   -1.2821    0.0481   -5.7146 H   0  0  0  0  0  0  0  0  0  0  0  0
   -2.6840   -1.5728   -5.0584 H   0  0  0  0  0  0  0  0  0  0  0  0
   -4.1162   -0.8486   -4.1767 H   0  0  0  0  0  0  0  0  0  0  0  0
   -4.0669   -2.5180   -4.6865 H   0  0  0  0  0  0  0  0  0  0  0  0
   -2.2657    3.6484   -4.6374 H   0  0  0  0  0  0  0  0  0  0  0  0
   -1.1920    2.8551   -5.8731 H   0  0  0  0  0  0  0  0  0  0  0  0
   -1.3440    4.5988   -5.7214 H   0  0  0  0  0  0  0  0  0  0  0  0
   -4.7536    3.6326   -8.3468 H   0  0  0  0  0  0  0  0  0  0  0  0
   -6.0804    1.6959   -9.1299 H   0  0  0  0  0  0  0  0  0  0  0  0
   -5.5170   -0.5721   -8.3239 H   0  0  0  0  0  0  0  0  0  0  0  0
  1  2  1  0  0  0  0
  1 23  1  0  0  0  0
  1 24  1  0  0  0  0
  2  3  1  0  0  0  0
  2  4  2  0  0  0  0
  3  7  2  0  0  0  0
  4  5  1  0  0  0  0
  5  6  2  0  0  0  0
  5 25  1  0  0  0  0
  6  7  1  0  0  0  0
  6 11  1  0  0  0  0
  7  8  1  0  0  0  0
  8  9  2  0  0  0  0
  9 10  1  0  0  0  0
  9 12  1  0  0  0  0
 10 26  1  0  0  0  0
 10 27  1  0  0  0  0
 11 12  2  0  0  0  0
 11 28  1  0  0  0  0
 12 13  1  0  0  0  0
 13 14  1  0  0  0  0
 13 17  2  0  0  0  0
 14 15  1  0  0  0  0
 14 22  2  0  0  0  0
 15 16  1  0  0  0  0
 16 29  1  0  0  0  0
 16 30  1  0  0  0  0
 16 31  1  0  0  0  0
 17 18  1  0  0  0  0
 17 20  1  0  0  0  0
 18 19  1  0  0  0  0
 19 32  1  0  0  0  0
 19 33  1  0  0  0  0
 19 34  1  0  0  0  0
 20 21  2  0  0  0  0
 20 35  1  0  0  0  0
 21 22  1  0  0  0  0
 21 36  1  0  0  0  0
 22 37  1  0  0  0  0
M  END
>  <DRUGBANK_ID>
DB08145

>  <COMMON_NAME>
6-(2,6-DIMETHOXYPHENYL)PYRIDO[2,3-D]PYRIMIDINE-2,7-DIAMINE

$$$$
