
 OpenBabel10282417193D

 51 57  0  0  1  0  0  0  0  0999 V2000
   -1.4150    0.0821    2.7629 C   0  0  0  0  0  0  0  0  0  0  0  0
   -0.8299    0.4898    1.4820 C   0  0  0  0  0  0  0  0  0  0  0  0
   -1.1833    1.9730    1.1322 C   0  0  0  0  0  0  0  0  0  0  0  0
    0.6106    0.3605    1.5750 C   0  0  1  0  0  0  0  0  0  0  0  0
    1.3938    1.5328    1.5002 C   0  0  1  0  0  0  0  0  0  0  0  0
    0.8315    0.6857    0.3085 O   0  0  0  0  0  0  0  0  0  0  0  0
    2.1081    2.4427    0.7241 C   0  0  1  0  0  0  0  0  0  0  0  0
    3.1880    1.2490    0.5775 C   0  0  1  0  0  0  0  0  0  0  0  0
    2.3677    1.8148   -0.5331 O   0  0  0  0  0  0  0  0  0  0  0  0
    4.5099    1.7985    0.0927 C   0  0  1  0  0  0  0  0  0  0  0  0
    5.6469    2.8701    0.7872 C   0  0  0  0  0  0  0  0  0  0  0  0
    6.4576    2.8496   -0.4909 C   0  0  0  0  0  0  0  0  0  0  0  0
    7.1794    1.5993   -0.5017 C   0  0  0  0  0  0  0  0  0  0  0  0
    6.8303    0.3124   -0.4042 C   0  0  0  0  0  0  0  0  0  0  0  0
    5.3677    0.0512   -0.3136 C   0  0  2  0  0  0  0  0  0  0  0  0
    5.2772   -1.5094    0.5379 C   0  0  0  0  0  0  0  0  0  0  0  0
    3.8331   -1.8524    0.3896 C   0  0  1  0  0  0  0  0  0  0  0  0
    2.6980   -0.6052    0.9016 C   0  0  1  0  0  0  0  0  0  0  0  0
    1.5604   -0.6167    2.0179 C   0  0  2  0  0  0  0  0  0  0  0  0
    0.8925   -1.6949    2.6223 O   0  0  0  0  0  0  0  0  0  0  0  0
    3.4403   -1.5592    1.6542 O   0  0  0  0  0  0  0  0  0  0  0  0
    5.0961   -0.6670   -1.6442 O   0  0  0  0  0  0  0  0  0  0  0  0
    7.7796   -0.4960   -1.2466 C   0  0  0  0  0  0  0  0  0  0  0  0
    8.8159    0.4848   -1.1645 O   0  0  0  0  0  0  0  0  0  0  0  0
    8.1121    1.5043   -1.5578 C   0  0  0  0  0  0  0  0  0  0  0  0
    7.8154    1.8067   -2.7673 O   0  0  0  0  0  0  0  0  0  0  0  0
    3.8577    3.5650   -0.4943 C   0  0  0  0  0  0  0  0  0  0  0  0
   -0.8628    0.5974    3.5571 H   0  0  0  0  0  0  0  0  0  0  0  0
   -1.3058   -0.9971    2.8403 H   0  0  0  0  0  0  0  0  0  0  0  0
   -2.4677    0.3099    2.7762 H   0  0  0  0  0  0  0  0  0  0  0  0
   -1.1422   -0.1389    0.6329 H   0  0  0  0  0  0  0  0  0  0  0  0
   -0.7556    2.6650    1.8721 H   0  0  0  0  0  0  0  0  0  0  0  0
   -0.7820    2.3052    0.1546 H   0  0  0  0  0  0  0  0  0  0  0  0
   -2.2559    2.0839    1.1114 H   0  0  0  0  0  0  0  0  0  0  0  0
    1.2072    1.9288    2.5083 H   0  0  0  0  0  0  0  0  0  0  0  0
    1.7206    3.4443    0.6447 H   0  0  0  0  0  0  0  0  0  0  0  0
    5.8602    3.9859    0.5574 H   0  0  0  0  0  0  0  0  0  0  0  0
    5.0874    3.5069    1.5279 H   0  0  0  0  0  0  0  0  0  0  0  0
    6.7011    3.3801   -1.4279 H   0  0  0  0  0  0  0  0  0  0  0  0
    5.5937    2.8623   -1.1484 H   0  0  0  0  0  0  0  0  0  0  0  0
    5.9353   -2.3499    0.1549 H   0  0  0  0  0  0  0  0  0  0  0  0
    5.4853   -1.6821    1.6229 H   0  0  0  0  0  0  0  0  0  0  0  0
    3.6186   -2.8754    0.0215 H   0  0  0  0  0  0  0  0  0  0  0  0
    2.1873   -0.2955    2.8747 H   0  0  0  0  0  0  0  0  0  0  0  0
    0.5272   -1.2256    3.4131 H   0  0  0  0  0  0  0  0  0  0  0  0
    5.5996   -1.5441   -1.6709 H   0  0  0  0  0  0  0  0  0  0  0  0
    8.5626   -1.1609   -1.5963 H   0  0  0  0  0  0  0  0  0  0  0  0
    7.2363   -0.5515   -2.1936 H   0  0  0  0  0  0  0  0  0  0  0  0
    3.0808    3.7120   -1.2739 H   0  0  0  0  0  0  0  0  0  0  0  0
    3.3915    4.1094    0.3937 H   0  0  0  0  0  0  0  0  0  0  0  0
    4.5297    4.4442   -0.6536 H   0  0  0  0  0  0  0  0  0  0  0  0
  1  2  1  0  0  0  0
  1 28  1  0  0  0  0
  1 29  1  0  0  0  0
  1 30  1  0  0  0  0
  2  3  1  0  0  0  0
  2 31  1  0  0  0  0
  3 32  1  0  0  0  0
  3 33  1  0  0  0  0
  3 34  1  0  0  0  0
  4  5  1  0  0  0  0
  4  6  1  0  0  0  0
  4 19  1  0  0  0  0
  4  2  1  6  0  0  0
  5  6  1  0  0  0  0
  5  7  1  0  0  0  0
  5 35  1  6  0  0  0
  7  8  1  0  0  0  0
  7  9  1  0  0  0  0
  7 36  1  1  0  0  0
  8  9  1  6  0  0  0
  8 10  1  0  0  0  0
  8 18  1  0  0  0  0
 10 11  1  0  0  0  0
 10 15  1  0  0  0  0
 10 27  1  6  0  0  0
 11 12  1  0  0  0  0
 11 37  1  0  0  0  0
 11 38  1  0  0  0  0
 12 13  1  0  0  0  0
 12 39  1  0  0  0  0
 12 40  1  0  0  0  0
 13 14  2  0  0  0  0
 13 25  1  0  0  0  0
 14 15  1  0  0  0  0
 14 23  1  0  0  0  0
 15 16  1  0  0  0  0
 15 22  1  1  0  0  0
 16 17  1  0  0  0  0
 16 41  1  0  0  0  0
 16 42  1  0  0  0  0
 17 18  1  0  0  0  0
 17 21  1  0  0  0  0
 17 43  1  1  0  0  0
 18 19  1  0  0  0  0
 18 21  1  6  0  0  0
 19 44  1  1  0  0  0
 19 20  1  0  0  0  0
 20 45  1  0  0  0  0
 22 46  1  0  0  0  0
 23 24  1  0  0  0  0
 23 47  1  0  0  0  0
 23 48  1  0  0  0  0
 24 25  1  0  0  0  0
 25 26  2  0  0  0  0
 27 49  1  0  0  0  0
 27 50  1  0  0  0  0
 27 51  1  0  0  0  0
M  END
>  <DRUGBANK_ID>
DB12252

>  <COMMON_NAME>
PG-701

>  <CAS_NUMBER>
583028-68-6

>  <UNII>
XT5J6G12EH

>  <SYNONYMS>
Hydroxytriptolide; LLDT-8

$$$$
