388
 OpenBabel10282417103D

 25 25  0  0  1  0  0  0  0  0999 V2000
    0.9465    0.0435   -0.1126 O   0  0  0  0  0  0  0  0  0  0  0  0
    0.7387   -5.7886    1.7503 O   0  0  0  0  0  0  0  0  0  0  0  0
    2.5062   -1.7869   -1.7344 N   0  0  0  0  0  0  0  0  0  0  0  0
    0.5056   -1.3062   -0.3145 C   0  0  1  0  0  0  0  0  0  0  0  0
    1.0315   -1.7752   -1.6943 C   0  0  0  0  0  0  0  0  0  0  0  0
    0.9199   -2.2236    0.8277 C   0  0  0  0  0  0  0  0  0  0  0  0
    0.6461   -3.6037    0.7507 C   0  0  0  0  0  0  0  0  0  0  0  0
    1.5457   -1.7319    1.9833 C   0  0  0  0  0  0  0  0  0  0  0  0
    0.9886   -4.4484    1.8044 C   0  0  0  0  0  0  0  0  0  0  0  0
    1.8786   -2.5878    3.0361 C   0  0  0  0  0  0  0  0  0  0  0  0
    1.5899   -3.9472    2.9471 C   0  0  0  0  0  0  0  0  0  0  0  0
    2.9848   -2.2998   -3.0065 C   0  0  0  0  0  0  0  0  0  0  0  0
    1.9139   -0.0118   -0.0350 H   0  0  0  0  0  0  0  0  0  0  0  0
    0.3661   -6.0025    0.8806 H   0  0  0  0  0  0  0  0  0  0  0  0
    2.8553   -0.8386   -1.6128 H   0  0  0  0  0  0  0  0  0  0  0  0
   -0.5899   -1.2723   -0.3371 H   0  0  0  0  0  0  0  0  0  0  0  0
    0.6423   -2.7736   -1.9241 H   0  0  0  0  0  0  0  0  0  0  0  0
    0.6606   -1.0889   -2.4652 H   0  0  0  0  0  0  0  0  0  0  0  0
    0.1669   -4.0143   -0.1313 H   0  0  0  0  0  0  0  0  0  0  0  0
    1.7781   -0.6744    2.0860 H   0  0  0  0  0  0  0  0  0  0  0  0
    2.3555   -2.1898    3.9261 H   0  0  0  0  0  0  0  0  0  0  0  0
    1.8322   -4.6133    3.7701 H   0  0  0  0  0  0  0  0  0  0  0  0
    2.6512   -1.6670   -3.8340 H   0  0  0  0  0  0  0  0  0  0  0  0
    4.0784   -2.3092   -3.0011 H   0  0  0  0  0  0  0  0  0  0  0  0
    2.6432   -3.3261   -3.1720 H   0  0  0  0  0  0  0  0  0  0  0  0
  1 13  1  0  0  0  0
  2  9  1  0  0  0  0
  2 14  1  0  0  0  0
  3  5  1  0  0  0  0
  3 12  1  0  0  0  0
  3 15  1  0  0  0  0
  4  1  1  0  0  0  0
  4  5  1  0  0  0  0
  4  6  1  0  0  0  0
  4 16  1  6  0  0  0
  5 17  1  0  0  0  0
  5 18  1  0  0  0  0
  6  7  2  0  0  0  0
  6  8  1  0  0  0  0
  7  9  1  0  0  0  0
  7 19  1  0  0  0  0
  8 10  2  0  0  0  0
  8 20  1  0  0  0  0
  9 11  2  0  0  0  0
 10 11  1  0  0  0  0
 10 21  1  0  0  0  0
 11 22  1  0  0  0  0
 12 23  1  0  0  0  0
 12 24  1  0  0  0  0
 12 25  1  0  0  0  0
M  END
>  <DRUGBANK_ID>
DB00388

>  <SECONDARY_ACCESSION_NUMBERS>
APRD00365

>  <COMMON_NAME>
Phenylephrine

>  <CAS_NUMBER>
59-42-7

>  <UNII>
1WS297W6MV

>  <SYNONYMS>
(−)-m-hydroxy-α-(methylaminomethyl)benzyl alcohol; Fenilefrina; l-(3-Hydroxyphenyl)-N-methylethanolamine; Phenylephrine; Phenylephrinum; R(-)-Phenylephrine

$$$$
