
 OpenBabel10282417143D

 23 23  0  0  1  0  0  0  0  0999 V2000
    0.8195   -0.1411    0.0722 C   0  0  0  0  0  0  0  0  0  0  0  0
    0.5444    0.0782   -1.4308 C   0  0  2  0  0  0  0  0  0  0  0  0
    2.7516    1.5336   -2.6780 C   0  0  2  0  0  0  0  0  0  0  0  0
    1.5460   -0.6643   -2.3484 C   0  0  2  0  0  0  0  0  0  0  0  0
    2.9162    0.0422   -2.3809 C   0  0  2  0  0  0  0  0  0  0  0  0
    1.7134    2.1596   -1.7370 C   0  0  1  0  0  0  0  0  0  0  0  0
    2.3452    1.6830   -3.9723 F   0  0  0  0  0  0  0  0  0  0  0  0
    0.2940   -1.3846    0.5207 O   0  0  0  0  0  0  0  0  0  0  0  0
    1.0554   -0.7708   -3.6925 O   0  0  0  0  0  0  0  0  0  0  0  0
    3.6415   -0.2067   -1.1684 O   0  0  0  0  0  0  0  0  0  0  0  0
    1.5017    3.5177   -2.0861 O   0  0  0  0  0  0  0  0  0  0  0  0
    0.4671    1.4763   -1.7693 O   0  0  0  0  0  0  0  0  0  0  0  0
   -0.4574   -0.3185   -1.6384 H   0  0  0  0  0  0  0  0  0  0  0  0
    3.7036    2.0657   -2.5826 H   0  0  0  0  0  0  0  0  0  0  0  0
    1.6642   -1.6933   -1.9941 H   0  0  0  0  0  0  0  0  0  0  0  0
    3.5157   -0.4000   -3.1849 H   0  0  0  0  0  0  0  0  0  0  0  0
    2.0878    2.1602   -0.7077 H   0  0  0  0  0  0  0  0  0  0  0  0
    0.3626    0.6568    0.6658 H   0  0  0  0  0  0  0  0  0  0  0  0
    1.8782   -0.1288    0.3287 H   0  0  0  0  0  0  0  0  0  0  0  0
    0.8493   -2.1012    0.1660 H   0  0  0  0  0  0  0  0  0  0  0  0
    0.1590   -0.3958   -3.7507 H   0  0  0  0  0  0  0  0  0  0  0  0
    3.6143    0.5695   -0.5790 H   0  0  0  0  0  0  0  0  0  0  0  0
    0.7227    3.7962   -1.5777 H   0  0  0  0  0  0  0  0  0  0  0  0
  1 18  1  0  0  0  0
  1 19  1  0  0  0  0
  2  1  1  0  0  0  0
  2 13  1  6  0  0  0
  3 14  1  1  0  0  0
  3  7  1  0  0  0  0
  4  2  1  0  0  0  0
  4 15  1  1  0  0  0
  4  9  1  0  0  0  0
  5  3  1  0  0  0  0
  5  4  1  0  0  0  0
  5 10  1  0  0  0  0
  5 16  1  6  0  0  0
  6  3  1  0  0  0  0
  6 17  1  1  0  0  0
  6 11  1  0  0  0  0
  8  1  1  0  0  0  0
  8 20  1  0  0  0  0
  9 21  1  0  0  0  0
 10 22  1  0  0  0  0
 11 23  1  0  0  0  0
 12  2  1  0  0  0  0
 12  6  1  0  0  0  0
M  END
>  <DRUGBANK_ID>
DB04282

>  <SECONDARY_ACCESSION_NUMBERS>
EXPT01525

>  <COMMON_NAME>
2-deoxy-2-fluoro-Î±-D-glucose

>  <UNII>
H0QPM375HE

>  <SYNONYMS>
2-deoxy-2-fluoro-alpha-D-glucose; 2-DEOXY-2-FLUORO-GLUCOSE

$$$$
