SCE
 OpenBabel10282417173D

 31 33  0  0  0  0  0  0  0  0999 V2000
    1.5844    1.2066    0.0022 C   0  0  0  0  0  0  0  0  0  0  0  0
    0.2832    0.7498    0.0038 N   0  0  0  0  0  0  0  0  0  0  0  0
    0.3574   -0.6175    0.0104 C   0  0  0  0  0  0  0  0  0  0  0  0
    1.5991   -1.0515    0.0140 N   0  0  0  0  0  0  0  0  0  0  0  0
    2.3650    0.0690    0.0039 C   0  0  0  0  0  0  0  0  0  0  0  0
   -0.9485    1.3711   -0.0002 C   0  0  0  0  0  0  0  0  0  0  0  0
   -2.0512    0.5921   -0.0033 C   0  0  0  0  0  0  0  0  0  0  0  0
   -2.0291   -0.7925    0.0002 N   0  0  0  0  0  0  0  0  0  0  0  0
   -0.8625   -1.4132    0.0122 C   0  0  0  0  0  0  0  0  0  0  0  0
   -0.8802   -2.7863    0.0246 N   0  0  0  0  0  0  0  0  0  0  0  0
    0.2746   -3.6500    0.0010 C   0  0  0  0  0  0  0  0  0  0  0  0
    0.3453   -4.4986    1.2390 C   0  0  0  0  0  0  0  0  0  0  0  0
    1.3739   -4.3338    2.1749 C   0  0  0  0  0  0  0  0  0  0  0  0
    1.4713   -5.2451    3.2138 C   0  0  0  0  0  0  0  0  0  0  0  0
    0.5691   -6.2243    3.4367 N   0  0  0  0  0  0  0  0  0  0  0  0
   -0.4624   -6.3065    2.5696 C   0  0  0  0  0  0  0  0  0  0  0  0
   -0.5938   -5.5070    1.4490 C   0  0  0  0  0  0  0  0  0  0  0  0
    2.0168    2.6146   -0.0008 C   0  0  0  0  0  0  0  0  0  0  0  0
    3.4450    0.0024    0.0004 H   0  0  0  0  0  0  0  0  0  0  0  0
   -0.9881    2.4489   -0.0001 H   0  0  0  0  0  0  0  0  0  0  0  0
   -3.0366    1.0508   -0.0061 H   0  0  0  0  0  0  0  0  0  0  0  0
   -1.7953   -3.2150    0.0205 H   0  0  0  0  0  0  0  0  0  0  0  0
    0.2312   -4.2968   -0.8819 H   0  0  0  0  0  0  0  0  0  0  0  0
    1.2252   -3.1349   -0.1044 H   0  0  0  0  0  0  0  0  0  0  0  0
    2.0997   -3.5296    2.0885 H   0  0  0  0  0  0  0  0  0  0  0  0
    2.3060   -5.2172    3.9090 H   0  0  0  0  0  0  0  0  0  0  0  0
   -1.2098   -7.0574    2.8036 H   0  0  0  0  0  0  0  0  0  0  0  0
   -1.4090   -5.6637    0.7522 H   0  0  0  0  0  0  0  0  0  0  0  0
    2.6326    2.8072    0.8839 H   0  0  0  0  0  0  0  0  0  0  0  0
    2.6310    2.8049   -0.8870 H   0  0  0  0  0  0  0  0  0  0  0  0
    1.1832    3.3181   -0.0008 H   0  0  0  0  0  0  0  0  0  0  0  0
  1  2  1  0  0  0  0
  1 18  1  0  0  0  0
  2  6  1  0  0  0  0
  3  9  1  0  0  0  0
  3  2  1  0  0  0  0
  4  5  1  0  0  0  0
  4  3  2  0  0  0  0
  5  1  2  0  0  0  0
  5 19  1  0  0  0  0
  6 20  1  0  0  0  0
  7  6  2  0  0  0  0
  7 21  1  0  0  0  0
  8  7  1  0  0  0  0
  9  8  2  0  0  0  0
 10 11  1  0  0  0  0
 10  9  1  0  0  0  0
 10 22  1  0  0  0  0
 11 23  1  0  0  0  0
 11 24  1  0  0  0  0
 12 13  1  0  0  0  0
 12 11  1  0  0  0  0
 13 25  1  0  0  0  0
 14 13  2  0  0  0  0
 14 26  1  0  0  0  0
 15 14  1  0  0  0  0
 16 15  2  0  0  0  0
 16 17  1  0  0  0  0
 16 27  1  0  0  0  0
 17 12  2  0  0  0  0
 17 28  1  0  0  0  0
 18 29  1  0  0  0  0
 18 30  1  0  0  0  0
 18 31  1  0  0  0  0
M  END
>  <DRUGBANK_ID>
DB08533

>  <COMMON_NAME>
3-methyl-N-(pyridin-4-ylmethyl)imidazo[1,2-a]pyrazin-8-amine

$$$$
