
 OpenBabel10282417143D

 18 17  0  0  0  0  0  0  0  0999 V2000
    1.0323    0.0444   -0.0604 O   0  0  0  0  0  0  0  0  0  0  0  0
    0.6344   -1.1361    0.6267 C   0  0  0  0  0  0  0  0  0  0  0  0
    1.1556   -2.3586   -0.1408 C   0  0  0  0  0  0  0  0  0  0  0  0
    2.6657   -2.3445   -0.1897 C   0  0  0  0  0  0  0  0  0  0  0  0
    3.2685   -3.4114    0.3702 O   0  0  0  0  0  0  0  0  0  0  0  0
    3.3111   -1.4055   -0.6366 O   0  0  0  0  0  0  0  0  0  0  0  0
    1.0827   -1.1409    2.0914 C   0  0  0  0  0  0  0  0  0  0  0  0
    0.5894    0.0725    2.8434 C   0  0  0  0  0  0  0  0  0  0  0  0
   -0.1893   -0.1999    3.9125 O   0  0  0  0  0  0  0  0  0  0  0  0
    0.8993    1.2220    2.5617 O   0  0  0  0  0  0  0  0  0  0  0  0
    2.0111    0.1091   -0.0568 H   0  0  0  0  0  0  0  0  0  0  0  0
   -0.4619   -1.1427    0.5943 H   0  0  0  0  0  0  0  0  0  0  0  0
    0.7858   -3.2841    0.3118 H   0  0  0  0  0  0  0  0  0  0  0  0
    0.8015   -2.3341   -1.1787 H   0  0  0  0  0  0  0  0  0  0  0  0
    2.6904   -4.1171    0.7108 H   0  0  0  0  0  0  0  0  0  0  0  0
    0.7299   -2.0591    2.5770 H   0  0  0  0  0  0  0  0  0  0  0  0
    2.1750   -1.1359    2.1744 H   0  0  0  0  0  0  0  0  0  0  0  0
   -0.3591   -1.1374    4.1106 H   0  0  0  0  0  0  0  0  0  0  0  0
  1  2  1  0  0  0  0
  1 11  1  0  0  0  0
  2  3  1  0  0  0  0
  2  7  1  0  0  0  0
  2 12  1  0  0  0  0
  3  4  1  0  0  0  0
  3 13  1  0  0  0  0
  3 14  1  0  0  0  0
  4  5  1  0  0  0  0
  4  6  2  0  0  0  0
  5 15  1  0  0  0  0
  7  8  1  0  0  0  0
  7 16  1  0  0  0  0
  7 17  1  0  0  0  0
  8  9  1  0  0  0  0
  8 10  2  0  0  0  0
  9 18  1  0  0  0  0
M  END
>  <DRUGBANK_ID>
DB04594

>  <COMMON_NAME>
3-hydroxyglutaric acid

>  <CAS_NUMBER>
638-18-6

>  <UNII>
C3FG9S37DY

$$$$
