1470
 OpenBabel10282417113D

 53 55  0  0  1  0  0  0  0  0999 V2000
   -0.8234   -0.0171    0.8624 S   0  0  0  0  0  0  0  0  0  0  0  0
   -5.8029    0.6088   -0.0412 O   0  0  0  0  0  0  0  0  0  0  0  0
   -2.2868    2.3176   -1.4073 N   0  0  0  0  0  0  0  0  0  0  0  0
   -5.8018    0.1485   -2.3066 N   0  0  0  0  0  0  0  0  0  0  0  0
   -4.5134    0.8273   -2.4996 C   0  0  3  0  0  0  0  0  0  0  0  0
   -4.6292    2.3133   -2.1557 C   0  0  0  0  0  0  0  0  0  0  0  0
   -3.3577    0.1553   -1.7618 C   0  0  0  0  0  0  0  0  0  0  0  0
   -3.2893    3.0201   -2.2203 C   0  0  0  0  0  0  0  0  0  0  0  0
   -2.1017    0.9808   -1.9991 C   0  0  0  0  0  0  0  0  0  0  0  0
   -0.9994    3.0335   -1.2498 C   0  0  3  0  0  0  0  0  0  0  0  0
   -0.2400    2.6530    0.0726 C   0  0  0  0  0  0  0  0  0  0  0  0
   -1.1943    4.5720   -1.2312 C   0  0  0  0  0  0  0  0  0  0  0  0
   -6.3547   -0.4441   -3.4691 C   0  0  0  0  0  0  0  0  0  0  0  0
   -6.3577    0.1065   -1.0175 C   0  0  0  0  0  0  0  0  0  0  0  0
    0.2113    1.2177    0.2309 C   0  0  0  0  0  0  0  0  0  0  0  0
   -7.6548   -0.6381   -0.7497 C   0  0  0  0  0  0  0  0  0  0  0  0
   -5.7058   -1.5110   -4.0923 C   0  0  0  0  0  0  0  0  0  0  0  0
   -7.5231    0.0514   -4.0412 C   0  0  0  0  0  0  0  0  0  0  0  0
    1.4773    0.6911    0.0485 C   0  0  0  0  0  0  0  0  0  0  0  0
   -8.8892    0.0194   -1.3182 C   0  0  0  0  0  0  0  0  0  0  0  0
   -6.3123   -2.1689   -5.1654 C   0  0  0  0  0  0  0  0  0  0  0  0
   -8.2034   -0.6918   -5.0058 C   0  0  0  0  0  0  0  0  0  0  0  0
    1.4737   -0.7357    0.0410 C   0  0  0  0  0  0  0  0  0  0  0  0
    0.2065   -1.2415    0.2306 C   0  0  0  0  0  0  0  0  0  0  0  0
   -7.5870   -1.7934   -5.5855 C   0  0  0  0  0  0  0  0  0  0  0  0
   -4.2598    0.7811   -3.5696 H   0  0  0  0  0  0  0  0  0  0  0  0
   -5.3341    2.7978   -2.8409 H   0  0  0  0  0  0  0  0  0  0  0  0
   -5.0322    2.4667   -1.1497 H   0  0  0  0  0  0  0  0  0  0  0  0
   -3.5569    0.0667   -0.6871 H   0  0  0  0  0  0  0  0  0  0  0  0
   -3.2055   -0.8685   -2.1220 H   0  0  0  0  0  0  0  0  0  0  0  0
   -2.9462    3.1022   -3.2590 H   0  0  0  0  0  0  0  0  0  0  0  0
   -3.4924    4.0278   -1.8479 H   0  0  0  0  0  0  0  0  0  0  0  0
   -1.2564    0.4349   -1.6045 H   0  0  0  0  0  0  0  0  0  0  0  0
   -1.8744    1.0545   -3.0686 H   0  0  0  0  0  0  0  0  0  0  0  0
   -0.3646    2.8130   -2.1182 H   0  0  0  0  0  0  0  0  0  0  0  0
   -0.8285    2.9557    0.9466 H   0  0  0  0  0  0  0  0  0  0  0  0
    0.6726    3.2666    0.0929 H   0  0  0  0  0  0  0  0  0  0  0  0
   -0.2382    5.0970   -1.1603 H   0  0  0  0  0  0  0  0  0  0  0  0
   -1.6606    4.9407   -2.1530 H   0  0  0  0  0  0  0  0  0  0  0  0
   -1.8206    4.8813   -0.3848 H   0  0  0  0  0  0  0  0  0  0  0  0
   -7.5499   -1.6811   -1.0565 H   0  0  0  0  0  0  0  0  0  0  0  0
   -7.7803   -0.6466    0.3433 H   0  0  0  0  0  0  0  0  0  0  0  0
   -4.7409   -1.8557   -3.7336 H   0  0  0  0  0  0  0  0  0  0  0  0
   -7.9589    0.9819   -3.6844 H   0  0  0  0  0  0  0  0  0  0  0  0
    2.3504    1.3010   -0.1411 H   0  0  0  0  0  0  0  0  0  0  0  0
   -8.9812   -0.1789   -2.3731 H   0  0  0  0  0  0  0  0  0  0  0  0
   -9.8039   -0.4124   -0.9121 H   0  0  0  0  0  0  0  0  0  0  0  0
   -8.8817    1.1039   -1.1686 H   0  0  0  0  0  0  0  0  0  0  0  0
   -5.8075   -3.0018   -5.6458 H   0  0  0  0  0  0  0  0  0  0  0  0
   -9.2221   -0.4244   -5.2766 H   0  0  0  0  0  0  0  0  0  0  0  0
    2.3401   -1.3540   -0.1552 H   0  0  0  0  0  0  0  0  0  0  0  0
   -0.1253   -2.2687    0.1441 H   0  0  0  0  0  0  0  0  0  0  0  0
   -8.0943   -2.3463   -6.3713 H   0  0  0  0  0  0  0  0  0  0  0  0
  1 15  1  0  0  0  0
  1 24  1  0  0  0  0
  2 14  2  0  0  0  0
  3  8  1  0  0  0  0
  3  9  1  0  0  0  0
  3 10  1  0  0  0  0
  4  5  1  0  0  0  0
  4 13  1  0  0  0  0
  4 14  1  0  0  0  0
  5  6  1  0  0  0  0
  5  7  1  0  0  0  0
  5 26  1  0  0  0  0
  6  8  1  0  0  0  0
  6 27  1  0  0  0  0
  6 28  1  0  0  0  0
  7  9  1  0  0  0  0
  7 29  1  0  0  0  0
  7 30  1  0  0  0  0
  8 31  1  0  0  0  0
  8 32  1  0  0  0  0
  9 33  1  0  0  0  0
  9 34  1  0  0  0  0
 10 11  1  0  0  0  0
 10 12  1  0  0  0  0
 10 35  1  0  0  0  0
 11 15  1  0  0  0  0
 11 36  1  0  0  0  0
 11 37  1  0  0  0  0
 12 38  1  0  0  0  0
 12 39  1  0  0  0  0
 12 40  1  0  0  0  0
 13 17  2  0  0  0  0
 13 18  1  0  0  0  0
 14 16  1  0  0  0  0
 15 19  2  0  0  0  0
 16 20  1  0  0  0  0
 16 41  1  0  0  0  0
 16 42  1  0  0  0  0
 17 21  1  0  0  0  0
 17 43  1  0  0  0  0
 18 22  2  0  0  0  0
 18 44  1  0  0  0  0
 19 23  1  0  0  0  0
 19 45  1  0  0  0  0
 20 46  1  0  0  0  0
 20 47  1  0  0  0  0
 20 48  1  0  0  0  0
 21 25  2  0  0  0  0
 21 49  1  0  0  0  0
 22 25  1  0  0  0  0
 22 50  1  0  0  0  0
 23 24  2  0  0  0  0
 23 51  1  0  0  0  0
 24 52  1  0  0  0  0
 25 53  1  0  0  0  0
M  END
>  <DRUGBANK_ID>
DB01470

>  <COMMON_NAME>
alpha-methylthiofentanyl

>  <CAS_NUMBER>
103963-66-2

>  <UNII>
NF684LIF79

>  <SYNONYMS>
alpha-methylthiofentanyl; Î±-methylthiofentanyl

$$$$
