
 OpenBabel10282417103D

 52 55  0  0  1  0  0  0  0  0999 V2000
    9.1287   -1.0500    1.5188 C   0  0  0  0  0  0  0  0  0  0  0  0
    5.3441   -1.1887    1.6240 C   0  0  0  0  0  0  0  0  0  0  0  0
    9.0368   -3.3722    1.9936 C   0  0  2  0  0  0  0  0  0  0  0  0
    7.7818   -4.2243   -0.2877 C   0  0  0  0  0  0  0  0  0  0  0  0
    8.8673   -1.9517    2.6775 C   0  0  0  0  0  0  0  0  0  0  0  0
    4.6152   -3.9280    1.8210 C   0  0  2  0  0  0  0  0  0  0  0  0
    6.5634   -4.5552    0.4199 C   0  0  0  0  0  0  0  0  0  0  0  0
    4.2905   -1.7387    2.8894 C   0  0  0  0  0  0  0  0  0  0  0  0
    3.9372   -3.2979    3.1189 C   0  0  0  0  0  0  0  0  0  0  0  0
    3.6534   -4.9515    1.1530 C   0  0  0  0  0  0  0  0  0  0  0  0
    3.3137   -4.1266    4.1453 C   0  0  0  0  0  0  0  0  0  0  0  0
    2.7252   -5.3809    2.2118 C   0  0  0  0  0  0  0  0  0  0  0  0
    6.4208   -2.2161    1.3057 C   0  0  2  0  0  0  0  0  0  0  0  0
    6.6574   -2.5448    2.3063 H   0  0  0  0  0  0  0  0  0  0  0  0
    5.6438   -3.4153    0.7616 C   0  0  1  0  0  0  0  0  0  0  0  0
    5.1504   -3.1354   -0.1705 H   0  0  0  0  0  0  0  0  0  0  0  0
    8.6756   -3.1683    0.3928 C   0  0  2  0  0  0  0  0  0  0  0  0
    9.8900   -2.9781   -0.6036 C   0  0  0  0  0  0  0  0  0  0  0  0
    7.9360   -1.7944    0.5674 C   0  0  1  0  0  0  0  0  0  0  0  0
    7.7539   -1.2866   -0.3909 H   0  0  0  0  0  0  0  0  0  0  0  0
    4.6478   -6.0115    3.7272 O   0  0  0  0  0  0  0  0  0  0  0  0
    3.6526   -5.3716    3.4109 C   0  0  0  0  0  0  0  0  0  0  0  0
    5.3922   -4.3017    2.4879 H   0  0  0  0  0  0  0  0  0  0  0  0
    8.1952   -4.3621    2.7103 C   0  0  0  0  0  0  0  0  0  0  0  0
   10.3760   -3.7939    2.2165 O   0  0  0  0  0  0  0  0  0  0  0  0
   10.0890   -4.1290   -1.6072 C   0  0  0  0  0  0  0  0  0  0  0  0
    7.5058   -5.1973    3.1528 C   0  0  0  0  0  0  0  0  0  0  0  0
    6.2322   -5.8485    0.3197 C   0  0  0  0  0  0  0  0  0  0  0  0
   10.2221   -1.1858    1.3254 H   0  0  0  0  0  0  0  0  0  0  0  0
    9.0359    0.0276    1.7189 H   0  0  0  0  0  0  0  0  0  0  0  0
    5.9020   -0.2726    1.8492 H   0  0  0  0  0  0  0  0  0  0  0  0
    4.7408   -0.9210    0.7387 H   0  0  0  0  0  0  0  0  0  0  0  0
    8.3344   -5.1670   -0.4218 H   0  0  0  0  0  0  0  0  0  0  0  0
    7.4100   -3.9286   -1.2800 H   0  0  0  0  0  0  0  0  0  0  0  0
    9.3115   -1.8769    3.6660 H   0  0  0  0  0  0  0  0  0  0  0  0
    7.8871   -1.5422    2.9183 H   0  0  0  0  0  0  0  0  0  0  0  0
    4.7640   -1.3794    3.8031 H   0  0  0  0  0  0  0  0  0  0  0  0
    3.3531   -1.2081    2.6761 H   0  0  0  0  0  0  0  0  0  0  0  0
    4.0342   -5.9037    0.8186 H   0  0  0  0  0  0  0  0  0  0  0  0
    3.1762   -4.4847    0.2874 H   0  0  0  0  0  0  0  0  0  0  0  0
    2.8498   -5.1506    4.6327 H   0  0  0  0  0  0  0  0  0  0  0  0
    2.0892   -6.2499    2.1892 H   0  0  0  0  0  0  0  0  0  0  0  0
    2.0232   -4.5291    2.2155 H   0  0  0  0  0  0  0  0  0  0  0  0
    9.7329   -2.0776   -1.2161 H   0  0  0  0  0  0  0  0  0  0  0  0
   10.8218   -2.8342   -0.0558 H   0  0  0  0  0  0  0  0  0  0  0  0
   10.4974   -4.6521    1.7771 H   0  0  0  0  0  0  0  0  0  0  0  0
    9.2163   -4.2425   -2.2666 H   0  0  0  0  0  0  0  0  0  0  0  0
   10.9366   -3.9677   -2.2718 H   0  0  0  0  0  0  0  0  0  0  0  0
   10.2532   -5.0687   -1.0706 H   0  0  0  0  0  0  0  0  0  0  0  0
    6.7608   -5.9734    3.2857 H   0  0  0  0  0  0  0  0  0  0  0  0
    5.5006   -5.9219   -0.4971 H   0  0  0  0  0  0  0  0  0  0  0  0
    5.7764   -6.2929    1.2089 H   0  0  0  0  0  0  0  0  0  0  0  0
  1 29  1  0  0  0  0
  1 30  1  0  0  0  0
  2  8  1  0  0  0  0
  2 31  1  0  0  0  0
  2 32  1  0  0  0  0
  3  5  1  0  0  0  0
  3 25  1  0  0  0  0
  3 24  1  1  0  0  0
  4  7  1  0  0  0  0
  4 33  1  0  0  0  0
  4 34  1  0  0  0  0
  5  1  1  0  0  0  0
  5 35  1  0  0  0  0
  5 36  1  0  0  0  0
  6  9  1  0  0  0  0
  6 10  1  0  0  0  0
  6 23  1  6  0  0  0
  7 28  2  0  0  0  0
  8  9  1  0  0  0  0
  8 37  1  0  0  0  0
  8 38  1  0  0  0  0
  9 11  2  0  0  0  0
 10 12  1  0  0  0  0
 10 39  1  0  0  0  0
 10 40  1  0  0  0  0
 11 22  1  0  0  0  0
 11 41  1  0  0  0  0
 12 22  1  0  0  0  0
 12 42  1  0  0  0  0
 12 43  1  0  0  0  0
 13 15  1  0  0  0  0
 13  2  1  0  0  0  0
 13 14  1  6  0  0  0
 15  6  1  0  0  0  0
 15  7  1  0  0  0  0
 15 16  1  1  0  0  0
 17  3  1  0  0  0  0
 17  4  1  0  0  0  0
 17 18  1  6  0  0  0
 18 26  1  0  0  0  0
 18 44  1  0  0  0  0
 18 45  1  0  0  0  0
 19 13  1  0  0  0  0
 19 17  1  0  0  0  0
 19  1  1  0  0  0  0
 19 20  1  1  0  0  0
 22 21  2  0  0  0  0
 24 27  3  0  0  0  0
 25 46  1  0  0  0  0
 26 47  1  0  0  0  0
 26 48  1  0  0  0  0
 26 49  1  0  0  0  0
 27 50  1  0  0  0  0
 28 51  1  0  0  0  0
 28 52  1  0  0  0  0
M  END
>  <DRUGBANK_ID>
DB00294

>  <SECONDARY_ACCESSION_NUMBERS>
APRD00766

>  <COMMON_NAME>
Etonogestrel

>  <CAS_NUMBER>
54048-10-1

>  <UNII>
304GTH6RNH

>  <SYNONYMS>
3-Ketodesogestrel; 3-Oxodesogestrel; Etonogestrel; Ã©tonogestrel; Etonogestrelum

$$$$
