294
 OpenBabel10282417163D

 48 50  0  0  0  0  0  0  0  0999 V2000
    0.7736   -1.2701   -0.1804 C   0  0  0  0  0  0  0  0  0  0  0  0
    3.0074    0.0239   -2.3111 C   0  0  0  0  0  0  0  0  0  0  0  0
    2.4339    1.1405   -2.9110 C   0  0  0  0  0  0  0  0  0  0  0  0
    2.3004    1.2097   -4.2896 C   0  0  0  0  0  0  0  0  0  0  0  0
    2.8727    0.2379   -5.1051 C   0  0  0  0  0  0  0  0  0  0  0  0
    3.5564   -0.8296   -4.5070 C   0  0  0  0  0  0  0  0  0  0  0  0
    3.5741   -0.9739   -3.1097 C   0  0  0  0  0  0  0  0  0  0  0  0
    2.0733    1.2255   -7.1107 C   0  0  0  0  0  0  0  0  0  0  0  0
    2.4627    2.5674   -7.0626 C   0  0  0  0  0  0  0  0  0  0  0  0
    1.6990    3.5417   -7.7078 C   0  0  0  0  0  0  0  0  0  0  0  0
    0.5787    3.1760   -8.4678 C   0  0  0  0  0  0  0  0  0  0  0  0
    0.2527    1.8144   -8.5860 C   0  0  0  0  0  0  0  0  0  0  0  0
    0.9689    0.8473   -7.8736 C   0  0  0  0  0  0  0  0  0  0  0  0
   -0.3021    4.2213   -9.1086 C   0  0  0  0  0  0  0  0  0  0  0  0
    3.0217    0.0127    3.7658 O   0  0  0  0  0  0  0  0  0  0  0  0
    2.9774    0.0042    2.3519 N   0  0  0  0  0  0  0  0  0  0  0  0
    1.7377   -0.0183    1.7805 C   0  0  0  0  0  0  0  0  0  0  0  0
    0.7624   -0.0277    2.5444 O   0  0  0  0  0  0  0  0  0  0  0  0
    1.5567   -0.0138    0.2427 C   0  0  0  0  0  0  0  0  0  0  0  0
    0.7478    1.2431   -0.1331 C   0  0  0  0  0  0  0  0  0  0  0  0
   -0.7049    1.1783    0.2988 C   0  0  0  0  0  0  0  0  0  0  0  0
   -1.2965   -0.0009   -0.2422 O   0  0  0  0  0  0  0  0  0  0  0  0
   -0.6915   -1.1988    0.2392 C   0  0  0  0  0  0  0  0  0  0  0  0
    3.1762   -0.0119   -0.5404 S   0  0  0  0  0  0  0  0  0  0  0  0
    3.8377    1.2378   -0.1893 O   0  0  0  0  0  0  0  0  0  0  0  0
    3.8254   -1.2610   -0.2022 O   0  0  0  0  0  0  0  0  0  0  0  0
    2.8037    0.2389   -6.4836 O   0  0  0  0  0  0  0  0  0  0  0  0
   -0.3632    4.1073  -10.4626 F   0  0  0  0  0  0  0  0  0  0  0  0
   -1.5888    4.1432   -8.6661 F   0  0  0  0  0  0  0  0  0  0  0  0
    0.0974    5.4989   -8.8546 F   0  0  0  0  0  0  0  0  0  0  0  0
    0.7998   -1.3595   -1.2745 H   0  0  0  0  0  0  0  0  0  0  0  0
    1.2351   -2.1787    0.2226 H   0  0  0  0  0  0  0  0  0  0  0  0
    2.0855    1.9928   -2.3396 H   0  0  0  0  0  0  0  0  0  0  0  0
    1.7662    2.0634   -4.6894 H   0  0  0  0  0  0  0  0  0  0  0  0
    4.0827   -1.5530   -5.1277 H   0  0  0  0  0  0  0  0  0  0  0  0
    4.0603   -1.8420   -2.6676 H   0  0  0  0  0  0  0  0  0  0  0  0
    3.3293    2.8652   -6.4779 H   0  0  0  0  0  0  0  0  0  0  0  0
    1.9805    4.5893   -7.6098 H   0  0  0  0  0  0  0  0  0  0  0  0
   -0.5739    1.5077   -9.2264 H   0  0  0  0  0  0  0  0  0  0  0  0
    0.6537   -0.1925   -7.9073 H   0  0  0  0  0  0  0  0  0  0  0  0
    2.0707    0.0070    4.0132 H   0  0  0  0  0  0  0  0  0  0  0  0
    3.8782    0.0156    1.8794 H   0  0  0  0  0  0  0  0  0  0  0  0
    1.2301    2.1596    0.2238 H   0  0  0  0  0  0  0  0  0  0  0  0
    0.6732    1.3044   -1.2164 H   0  0  0  0  0  0  0  0  0  0  0  0
   -0.8381    1.2249    1.3813 H   0  0  0  0  0  0  0  0  0  0  0  0
   -1.2390    2.0378   -0.1216 H   0  0  0  0  0  0  0  0  0  0  0  0
   -1.2357   -2.0427   -0.1956 H   0  0  0  0  0  0  0  0  0  0  0  0
   -0.8212   -1.2715    1.3223 H   0  0  0  0  0  0  0  0  0  0  0  0
  1 19  1  0  0  0  0
  1 23  1  0  0  0  0
  1 31  1  0  0  0  0
  1 32  1  0  0  0  0
  2  3  2  0  0  0  0
  2  7  1  0  0  0  0
  2 24  1  0  0  0  0
  3  4  1  0  0  0  0
  3 33  1  0  0  0  0
  4  5  2  0  0  0  0
  4 34  1  0  0  0  0
  5  6  1  0  0  0  0
  5 27  1  0  0  0  0
  6  7  2  0  0  0  0
  6 35  1  0  0  0  0
  7 36  1  0  0  0  0
  8  9  2  0  0  0  0
  8 13  1  0  0  0  0
  8 27  1  0  0  0  0
  9 10  1  0  0  0  0
  9 37  1  0  0  0  0
 10 11  2  0  0  0  0
 10 38  1  0  0  0  0
 11 12  1  0  0  0  0
 11 14  1  0  0  0  0
 12 13  2  0  0  0  0
 12 39  1  0  0  0  0
 13 40  1  0  0  0  0
 14 28  1  0  0  0  0
 14 29  1  0  0  0  0
 14 30  1  0  0  0  0
 15 16  1  0  0  0  0
 15 41  1  0  0  0  0
 16 17  1  0  0  0  0
 16 42  1  0  0  0  0
 17 18  2  0  0  0  0
 17 19  1  0  0  0  0
 19 20  1  0  0  0  0
 19 24  1  0  0  0  0
 20 21  1  0  0  0  0
 20 43  1  0  0  0  0
 20 44  1  0  0  0  0
 21 22  1  0  0  0  0
 21 45  1  0  0  0  0
 21 46  1  0  0  0  0
 22 23  1  0  0  0  0
 23 47  1  0  0  0  0
 23 48  1  0  0  0  0
 24 25  2  0  0  0  0
 24 26  2  0  0  0  0
M  END
>  <DRUGBANK_ID>
DB06945

>  <COMMON_NAME>
N-hydroxy-4-({4-[4-(trifluoromethyl)phenoxy]phenyl}sulfonyl)tetrahydro-2H-pyran-4-carboxamide

$$$$
