
 OpenBabel10282417223D

 45 47  0  0  0  0  0  0  0  0999 V2000
    2.7258    0.6632    0.0688 S   0  0  0  0  0  0  0  0  0  0  0  0
    2.8060   -1.0498    0.0127 C   0  0  0  0  0  0  0  0  0  0  0  0
    1.6283   -1.6736    0.0050 N   0  0  0  0  0  0  0  0  0  0  0  0
    0.5997   -0.7323    0.0223 C   0  0  0  0  0  0  0  0  0  0  0  0
    1.0147    0.6009    0.0300 C   0  0  0  0  0  0  0  0  0  0  0  0
   -0.7929   -0.9937    0.0129 C   0  0  0  0  0  0  0  0  0  0  0  0
   -1.6934    0.0801    0.0007 C   0  0  0  0  0  0  0  0  0  0  0  0
   -1.2483    1.3979   -0.0076 C   0  0  0  0  0  0  0  0  0  0  0  0
    0.1183    1.6780    0.0068 C   0  0  0  0  0  0  0  0  0  0  0  0
    4.1331   -1.6308   -0.1764 C   0  0  0  0  0  0  0  0  0  0  0  0
    4.4645   -2.2202   -1.4067 C   0  0  0  0  0  0  0  0  0  0  0  0
    5.7661   -2.6934   -1.6750 C   0  0  0  0  0  0  0  0  0  0  0  0
    6.7290   -2.7039   -0.6488 C   0  0  0  0  0  0  0  0  0  0  0  0
    6.4227   -2.0661    0.5761 C   0  0  0  0  0  0  0  0  0  0  0  0
    5.1282   -1.5612    0.8179 C   0  0  0  0  0  0  0  0  0  0  0  0
    7.7135   -3.6845   -0.5390 O   0  0  0  0  0  0  0  0  0  0  0  0
    7.7045   -4.8446   -1.4158 C   0  0  0  0  0  0  0  0  0  0  0  0
    6.6545   -6.0323   -1.2407 C   0  0  0  0  0  0  0  0  0  0  0  0
    5.2235   -5.6911   -1.2162 N   0  0  0  0  0  0  0  0  0  0  0  0
    4.2421   -6.7296   -1.4950 C   0  0  0  0  0  0  0  0  0  0  0  0
    4.0454   -7.6312   -0.2913 C   0  0  0  0  0  0  0  0  0  0  0  0
    4.8241   -4.9736   -0.0088 C   0  0  0  0  0  0  0  0  0  0  0  0
    5.1200   -5.3143    1.4353 C   0  0  0  0  0  0  0  0  0  0  0  0
   -3.3893   -0.2275   -0.0069 Cl  0  0  0  0  0  0  0  0  0  0  0  0
   -1.1507   -2.0172    0.0106 H   0  0  0  0  0  0  0  0  0  0  0  0
   -1.9567    2.2228   -0.0231 H   0  0  0  0  0  0  0  0  0  0  0  0
    0.4801    2.7023   -0.0017 H   0  0  0  0  0  0  0  0  0  0  0  0
    3.6585   -2.4728   -2.0993 H   0  0  0  0  0  0  0  0  0  0  0  0
    5.8860   -3.3213   -2.5539 H   0  0  0  0  0  0  0  0  0  0  0  0
    7.1114   -2.1500    1.4174 H   0  0  0  0  0  0  0  0  0  0  0  0
    4.8660   -1.2142    1.8171 H   0  0  0  0  0  0  0  0  0  0  0  0
    7.7553   -4.5126   -2.4571 H   0  0  0  0  0  0  0  0  0  0  0  0
    8.6781   -5.3223   -1.2244 H   0  0  0  0  0  0  0  0  0  0  0  0
    6.8411   -6.7087   -2.0914 H   0  0  0  0  0  0  0  0  0  0  0  0
    6.9129   -6.6190   -0.3527 H   0  0  0  0  0  0  0  0  0  0  0  0
    3.2873   -6.2247   -1.7145 H   0  0  0  0  0  0  0  0  0  0  0  0
    4.4781   -7.2957   -2.4020 H   0  0  0  0  0  0  0  0  0  0  0  0
    3.5672   -7.0766    0.5188 H   0  0  0  0  0  0  0  0  0  0  0  0
    3.3715   -8.4574   -0.5009 H   0  0  0  0  0  0  0  0  0  0  0  0
    5.0073   -8.0109    0.0656 H   0  0  0  0  0  0  0  0  0  0  0  0
    5.4994   -4.1877   -0.0360 H   0  0  0  0  0  0  0  0  0  0  0  0
    3.8395   -4.5166   -0.1403 H   0  0  0  0  0  0  0  0  0  0  0  0
    6.0737   -5.8322    1.5428 H   0  0  0  0  0  0  0  0  0  0  0  0
    5.2169   -4.3672    1.9852 H   0  0  0  0  0  0  0  0  0  0  0  0
    4.3130   -5.8595    1.9115 H   0  0  0  0  0  0  0  0  0  0  0  0
  1  2  1  0  0  0  0
  1  5  1  0  0  0  0
  2  3  2  0  0  0  0
  2 10  1  0  0  0  0
  3  4  1  0  0  0  0
  4  5  1  0  0  0  0
  4  6  2  0  0  0  0
  5  9  2  0  0  0  0
  6  7  1  0  0  0  0
  6 25  1  0  0  0  0
  7  8  2  0  0  0  0
  7 24  1  0  0  0  0
  8  9  1  0  0  0  0
  8 26  1  0  0  0  0
  9 27  1  0  0  0  0
 10 11  1  0  0  0  0
 10 15  2  0  0  0  0
 11 12  2  0  0  0  0
 11 28  1  0  0  0  0
 12 13  1  0  0  0  0
 12 29  1  0  0  0  0
 13 14  2  0  0  0  0
 13 16  1  0  0  0  0
 14 15  1  0  0  0  0
 14 30  1  0  0  0  0
 15 31  1  0  0  0  0
 16 17  1  0  0  0  0
 17 18  1  0  0  0  0
 17 32  1  0  0  0  0
 17 33  1  0  0  0  0
 18 19  1  0  0  0  0
 18 34  1  0  0  0  0
 18 35  1  0  0  0  0
 19 20  1  0  0  0  0
 19 22  1  0  0  0  0
 20 21  1  0  0  0  0
 20 36  1  0  0  0  0
 20 37  1  0  0  0  0
 21 38  1  0  0  0  0
 21 39  1  0  0  0  0
 21 40  1  0  0  0  0
 22 23  1  0  0  0  0
 22 41  1  0  0  0  0
 22 42  1  0  0  0  0
 23 43  1  0  0  0  0
 23 44  1  0  0  0  0
 23 45  1  0  0  0  0
M  END
>  <DRUGBANK_ID>
DB15942

>  <COMMON_NAME>
Haletazole

>  <CAS_NUMBER>
15599-36-7

>  <UNII>
U89MCO87LX

>  <SYNONYMS>
Haletazole; Halethazole

$$$$
