
 OpenBabel10282417183D

123127  0  0  1  0  0  0  0  0999 V2000
   -8.5779   -0.0846    0.5765 C   0  0  0  0  0  0  0  0  0  0  0  0
   -5.1233   -1.2399   -2.2141 C   0  0  0  0  0  0  0  0  0  0  0  0
   -4.7668  -14.7651    0.6622 C   0  0  0  0  0  0  0  0  0  0  0  0
   -7.5683   -2.0080   -7.1888 C   0  0  0  0  0  0  0  0  0  0  0  0
   -8.8640   -5.8311   -0.3010 C   0  0  0  0  0  0  0  0  0  0  0  0
   -5.8287   -7.7068    2.2506 C   0  0  0  0  0  0  0  0  0  0  0  0
  -10.1028   -3.8390   -2.5638 C   0  0  0  0  0  0  0  0  0  0  0  0
   -8.5398   -4.7135   -6.1746 C   0  0  0  0  0  0  0  0  0  0  0  0
   -5.2482  -11.1853   -1.7231 C   0  0  0  0  0  0  0  0  0  0  0  0
   -1.9399   -9.1786    2.6843 C   0  0  0  0  0  0  0  0  0  0  0  0
   -9.6379   -0.3777   -0.4924 C   0  0  0  0  0  0  0  0  0  0  0  0
   -5.0716   -2.4196   -1.1438 C   0  0  0  0  0  0  0  0  0  0  0  0
   -4.4711  -13.5956   -0.1842 C   0  0  0  0  0  0  0  0  0  0  0  0
   -9.2280   -0.8019   -5.5166 C   0  0  0  0  0  0  0  0  0  0  0  0
   -9.3923   -0.1791   -4.0076 C   0  0  0  0  0  0  0  0  0  0  0  0
   -3.9215   -6.9965   -1.9089 C   0  0  0  0  0  0  0  0  0  0  0  0
   -2.5477  -11.9451    1.6528 C   0  0  0  0  0  0  0  0  0  0  0  0
   -4.0219  -12.2433    1.9422 C   0  0  0  0  0  0  0  0  0  0  0  0
   -3.6475   -6.0477   -0.7804 C   0  0  0  0  0  0  0  0  0  0  0  0
   -4.2166   -9.4506    1.6481 C   0  0  0  0  0  0  0  0  0  0  0  0
   -4.8015   -9.0009    0.2816 C   0  0  0  0  0  0  0  0  0  0  0  0
   -7.1198   -6.7003    0.7093 C   0  0  0  0  0  0  0  0  0  0  0  0
   -7.8613   -1.5126   -5.7944 C   0  0  1  0  0  0  0  0  0  0  0  0
   -7.5162   -5.3780    0.2869 C   0  0  1  0  0  0  0  0  0  0  0  0
   -5.8913   -6.4292    1.5400 C   0  0  2  0  0  0  0  0  0  0  0  0
   -8.5345   -4.1734   -2.5084 C   0  0  1  0  0  0  0  0  0  0  0  0
   -8.6186   -3.8994   -4.9354 C   0  0  1  0  0  0  0  0  0  0  0  0
   -4.4195  -11.3911   -0.4267 C   0  0  1  0  0  0  0  0  0  0  0  0
   -9.0620   -1.4434   -1.3384 C   0  0  2  0  0  0  0  0  0  0  0  0
   -6.4541   -3.3289   -0.7948 C   0  0  1  0  0  0  0  0  0  0  0  0
   -9.2880   -1.3207   -3.0336 C   0  0  2  0  0  0  0  0  0  0  0  0
   -3.2331   -8.3241   -1.7496 C   0  0  2  0  0  0  0  0  0  0  0  0
   -2.3489  -10.7590    0.7049 C   0  0  2  0  0  0  0  0  0  0  0  0
   -8.3370   -4.8775   -3.8081 C   0  0  2  0  0  0  0  0  0  0  0  0
   -7.3032   -3.4089   -1.9682 C   0  0  0  0  0  0  0  0  0  0  0  0
   -7.8036   -2.6236   -4.8135 C   0  0  2  0  0  0  0  0  0  0  0  0
   -6.2721   -4.7583   -0.4838 C   0  0  1  0  0  0  0  0  0  0  0  0
   -9.4880   -2.6715   -0.2913 C   0  0  0  0  0  0  0  0  0  0  0  0
   -2.7523   -9.4586    1.4103 C   0  0  2  0  0  0  0  0  0  0  0  0
   -4.8234  -12.3973    0.6046 C   0  0  1  0  0  0  0  0  0  0  0  0
   -4.5490   -5.9649    0.5651 C   0  0  2  0  0  0  0  0  0  0  0  0
   -3.7090   -8.2268   -0.2573 C   0  0  2  0  0  0  0  0  0  0  0  0
   -2.0651   -7.9586   -2.4655 O   0  0  0  0  0  0  0  0  0  0  0  0
   -9.2839   -5.9846   -3.8186 O   0  0  0  0  0  0  0  0  0  0  0  0
   -6.7183   -2.5823   -2.7229 O   0  0  0  0  0  0  0  0  0  0  0  0
   -8.7425   -3.1864    0.5156 O   0  0  0  0  0  0  0  0  0  0  0  0
  -10.7926   -3.0648   -0.2226 O   0  0  0  0  0  0  0  0  0  0  0  0
   -6.2369  -12.2346    0.8427 O   0  0  0  0  0  0  0  0  0  0  0  0
   -3.0461  -11.0416   -0.5316 O   0  0  0  0  0  0  0  0  0  0  0  0
   -8.1944   -1.8849   -3.6634 O   0  0  0  0  0  0  0  0  0  0  0  0
   -5.0901   -4.6900    0.2989 O   0  0  0  0  0  0  0  0  0  0  0  0
   -2.6028   -8.2758    0.6240 O   0  0  0  0  0  0  0  0  0  0  0  0
   -4.8449   -7.1363   -0.0921 O   0  0  0  0  0  0  0  0  0  0  0  0
   -7.0527   -0.8113   -5.5327 H   0  0  0  0  0  0  0  0  0  0  0  0
   -7.6389   -4.8273    1.2218 H   0  0  0  0  0  0  0  0  0  0  0  0
   -6.0132   -5.7301    2.3681 H   0  0  0  0  0  0  0  0  0  0  0  0
   -8.3149   -5.0311   -1.9692 H   0  0  0  0  0  0  0  0  0  0  0  0
   -9.6405   -3.5612   -4.9401 H   0  0  0  0  0  0  0  0  0  0  0  0
   -4.8732  -10.7826    0.2588 H   0  0  0  0  0  0  0  0  0  0  0  0
   -7.9777   -1.3512   -1.2023 H   0  0  0  0  0  0  0  0  0  0  0  0
   -6.8063   -2.7633    0.0561 H   0  0  0  0  0  0  0  0  0  0  0  0
  -10.2477   -1.7381   -3.2410 H   0  0  0  0  0  0  0  0  0  0  0  0
   -3.3981   -9.3616   -2.0850 H   0  0  0  0  0  0  0  0  0  0  0  0
   -1.2969  -10.6366    0.4234 H   0  0  0  0  0  0  0  0  0  0  0  0
   -7.3443   -5.3423   -3.8452 H   0  0  0  0  0  0  0  0  0  0  0  0
   -6.7399   -2.9565   -4.7203 H   0  0  0  0  0  0  0  0  0  0  0  0
   -6.0443   -5.2993   -1.4132 H   0  0  0  0  0  0  0  0  0  0  0  0
   -8.2524   -0.9749    1.1417 H   0  0  0  0  0  0  0  0  0  0  0  0
   -8.9827    0.6253    1.2832 H   0  0  0  0  0  0  0  0  0  0  0  0
   -7.6637    0.3011    0.1099 H   0  0  0  0  0  0  0  0  0  0  0  0
   -5.9551   -0.5505   -1.9952 H   0  0  0  0  0  0  0  0  0  0  0  0
   -4.2082   -0.6742   -2.3385 H   0  0  0  0  0  0  0  0  0  0  0  0
   -5.2445   -1.6233   -3.2470 H   0  0  0  0  0  0  0  0  0  0  0  0
   -5.8341  -14.7694    0.8907 H   0  0  0  0  0  0  0  0  0  0  0  0
   -4.4597  -15.6376    0.1123 H   0  0  0  0  0  0  0  0  0  0  0  0
   -4.2033  -14.7128    1.5920 H   0  0  0  0  0  0  0  0  0  0  0  0
   -7.5421   -1.1773   -7.8819 H   0  0  0  0  0  0  0  0  0  0  0  0
   -6.6206   -2.5718   -7.2189 H   0  0  0  0  0  0  0  0  0  0  0  0
   -8.3508   -2.6407   -7.5755 H   0  0  0  0  0  0  0  0  0  0  0  0
   -9.5573   -6.2703    0.4098 H   0  0  0  0  0  0  0  0  0  0  0  0
   -9.4430   -5.0144   -0.6408 H   0  0  0  0  0  0  0  0  0  0  0  0
   -8.7383   -6.5431   -1.1403 H   0  0  0  0  0  0  0  0  0  0  0  0
   -6.0098   -7.9450    3.2777 H   0  0  0  0  0  0  0  0  0  0  0  0
   -6.3926   -8.5385    1.7693 H   0  0  0  0  0  0  0  0  0  0  0  0
   -4.7667   -7.5913    2.1565 H   0  0  0  0  0  0  0  0  0  0  0  0
  -10.5099   -2.9846   -2.0749 H   0  0  0  0  0  0  0  0  0  0  0  0
  -10.5326   -3.5524   -3.5208 H   0  0  0  0  0  0  0  0  0  0  0  0
  -10.7398   -4.6599   -2.2525 H   0  0  0  0  0  0  0  0  0  0  0  0
   -7.5095   -5.0183   -6.3475 H   0  0  0  0  0  0  0  0  0  0  0  0
   -9.2097   -5.5727   -6.1062 H   0  0  0  0  0  0  0  0  0  0  0  0
   -8.9781   -4.1456   -6.9723 H   0  0  0  0  0  0  0  0  0  0  0  0
   -6.3284  -11.1435   -1.5121 H   0  0  0  0  0  0  0  0  0  0  0  0
   -5.0531  -10.2476   -2.2607 H   0  0  0  0  0  0  0  0  0  0  0  0
   -5.0227  -11.9710   -2.4266 H   0  0  0  0  0  0  0  0  0  0  0  0
   -2.1577   -9.9218    3.4516 H   0  0  0  0  0  0  0  0  0  0  0  0
   -0.8687   -9.1662    2.4662 H   0  0  0  0  0  0  0  0  0  0  0  0
   -2.1792   -8.1969    3.1210 H   0  0  0  0  0  0  0  0  0  0  0  0
  -10.5467   -0.7591   -0.0110 H   0  0  0  0  0  0  0  0  0  0  0  0
   -9.8858    0.4529   -1.1310 H   0  0  0  0  0  0  0  0  0  0  0  0
   -4.7986   -1.9323   -0.2041 H   0  0  0  0  0  0  0  0  0  0  0  0
   -4.2786   -3.1002   -1.4610 H   0  0  0  0  0  0  0  0  0  0  0  0
   -5.0573  -13.6237   -1.1073 H   0  0  0  0  0  0  0  0  0  0  0  0
   -3.4126  -13.5260   -0.4663 H   0  0  0  0  0  0  0  0  0  0  0  0
   -9.3822   -0.0243   -6.2509 H   0  0  0  0  0  0  0  0  0  0  0  0
  -10.0102   -1.5695   -5.6440 H   0  0  0  0  0  0  0  0  0  0  0  0
   -8.6179    0.5689   -3.8328 H   0  0  0  0  0  0  0  0  0  0  0  0
  -10.3956    0.2301   -3.8979 H   0  0  0  0  0  0  0  0  0  0  0  0
   -4.9460   -7.4199   -2.1308 H   0  0  0  0  0  0  0  0  0  0  0  0
   -2.0096  -11.7950    2.5901 H   0  0  0  0  0  0  0  0  0  0  0  0
   -2.1204  -12.8142    1.1625 H   0  0  0  0  0  0  0  0  0  0  0  0
   -4.1640  -13.1038    2.5837 H   0  0  0  0  0  0  0  0  0  0  0  0
   -4.4110  -11.5370    2.6814 H   0  0  0  0  0  0  0  0  0  0  0  0
   -2.6931   -6.1254   -0.1784 H   0  0  0  0  0  0  0  0  0  0  0  0
   -4.1565   -8.9422    2.6178 H   0  0  0  0  0  0  0  0  0  0  0  0
   -4.9426  -10.1343    2.0388 H   0  0  0  0  0  0  0  0  0  0  0  0
   -5.4750   -9.5175   -0.4080 H   0  0  0  0  0  0  0  0  0  0  0  0
   -5.7706   -8.5378    0.2728 H   0  0  0  0  0  0  0  0  0  0  0  0
   -7.9063   -7.2190    1.2739 H   0  0  0  0  0  0  0  0  0  0  0  0
   -7.0159   -7.2867   -0.2254 H   0  0  0  0  0  0  0  0  0  0  0  0
   -2.3023   -7.1306   -2.9409 H   0  0  0  0  0  0  0  0  0  0  0  0
  -10.1932   -5.6313   -3.8277 H   0  0  0  0  0  0  0  0  0  0  0  0
  -10.8552   -4.0518   -0.2070 H   0  0  0  0  0  0  0  0  0  0  0  0
   -6.5475  -12.9022    1.4685 H   0  0  0  0  0  0  0  0  0  0  0  0
  1 68  1  0  0  0  0
  1 69  1  0  0  0  0
  1 70  1  0  0  0  0
  2 71  1  0  0  0  0
  2 72  1  0  0  0  0
  2 73  1  0  0  0  0
  3 74  1  0  0  0  0
  3 75  1  0  0  0  0
  3 76  1  0  0  0  0
  4 77  1  0  0  0  0
  4 78  1  0  0  0  0
  4 79  1  0  0  0  0
  5 80  1  0  0  0  0
  5 81  1  0  0  0  0
  5 82  1  0  0  0  0
  6 83  1  0  0  0  0
  6 84  1  0  0  0  0
  6 85  1  0  0  0  0
  7 86  1  0  0  0  0
  7 87  1  0  0  0  0
  7 88  1  0  0  0  0
  8 89  1  0  0  0  0
  8 90  1  0  0  0  0
  8 91  1  0  0  0  0
  9 92  1  0  0  0  0
  9 93  1  0  0  0  0
  9 94  1  0  0  0  0
 10 95  1  0  0  0  0
 10 96  1  0  0  0  0
 10 97  1  0  0  0  0
 11  1  1  0  0  0  0
 11 98  1  0  0  0  0
 11 99  1  0  0  0  0
 12  2  1  0  0  0  0
 12100  1  0  0  0  0
 12101  1  0  0  0  0
 13  3  1  0  0  0  0
 13102  1  0  0  0  0
 13103  1  0  0  0  0
 14104  1  0  0  0  0
 14105  1  0  0  0  0
 15 14  1  0  0  0  0
 15106  1  0  0  0  0
 15107  1  0  0  0  0
 16108  1  0  0  0  0
 17109  1  0  0  0  0
 17110  1  0  0  0  0
 18 17  1  0  0  0  0
 18111  1  0  0  0  0
 18112  1  0  0  0  0
 19 16  2  0  0  0  0
 19113  1  0  0  0  0
 20114  1  0  0  0  0
 20115  1  0  0  0  0
 21 20  1  0  0  0  0
 21116  1  0  0  0  0
 21117  1  0  0  0  0
 22118  1  0  0  0  0
 22119  1  0  0  0  0
 23  4  1  0  0  0  0
 23 14  1  0  0  0  0
 23 54  1  1  0  0  0
 24  5  1  0  0  0  0
 24 22  1  0  0  0  0
 24 55  1  1  0  0  0
 25 22  1  0  0  0  0
 25 56  1  1  0  0  0
 25  6  1  0  0  0  0
 26 57  1  1  0  0  0
 26 34  1  0  0  0  0
 26  7  1  0  0  0  0
 27  8  1  0  0  0  0
 27 58  1  1  0  0  0
 28  9  1  0  0  0  0
 28 59  1  1  0  0  0
 29 38  1  0  0  0  0
 29 60  1  1  0  0  0
 29 11  1  0  0  0  0
 30 61  1  1  0  0  0
 30 35  1  0  0  0  0
 30 12  1  0  0  0  0
 31 15  1  0  0  0  0
 31 29  1  0  0  0  0
 31 62  1  6  0  0  0
 32 16  1  0  0  0  0
 32 43  1  0  0  0  0
 32 63  1  6  0  0  0
 33 17  1  0  0  0  0
 33 64  1  6  0  0  0
 33 39  1  0  0  0  0
 34 27  1  0  0  0  0
 34 44  1  0  0  0  0
 34 65  1  6  0  0  0
 35 26  1  0  0  0  0
 36 23  1  0  0  0  0
 36 27  1  0  0  0  0
 36 66  1  1  0  0  0
 37 24  1  0  0  0  0
 37 30  1  0  0  0  0
 37 67  1  6  0  0  0
 39 10  1  1  0  0  0
 39 20  1  0  0  0  0
 40 13  1  0  0  0  0
 40 18  1  0  0  0  0
 40 28  1  0  0  0  0
 40 48  1  1  0  0  0
 41 19  1  6  0  0  0
 41 25  1  0  0  0  0
 41 51  1  0  0  0  0
 42 21  1  0  0  0  0
 42 32  1  0  0  0  0
 42 52  1  1  0  0  0
 43120  1  0  0  0  0
 44121  1  0  0  0  0
 45 35  2  0  0  0  0
 46 38  2  0  0  0  0
 47 38  1  0  0  0  0
 47122  1  0  0  0  0
 48123  1  0  0  0  0
 49 28  1  0  0  0  0
 49 33  1  0  0  0  0
 50 31  1  0  0  0  0
 50 36  1  0  0  0  0
 51 37  1  0  0  0  0
 52 39  1  0  0  0  0
 53 41  1  0  0  0  0
 53 42  1  0  0  0  0
M  END
>  <DRUGBANK_ID>
DB11544

>  <COMMON_NAME>
Salinomycin

>  <CAS_NUMBER>
53003-10-4

>  <UNII>
62UXS86T64

>  <SYNONYMS>
Procoxacin; Salinomycin

$$$$
