
 OpenBabel10282417233D

 50 53  0  0  0  0  0  0  0  0999 V2000
    0.7880    0.0144    0.2127 C   0  0  0  0  0  0  0  0  0  0  0  0
    0.3037   -1.2397    0.8148 N   0  0  0  0  0  0  0  0  0  0  0  0
   -0.9191   -1.3694    1.6365 C   0  0  0  0  0  0  0  0  0  0  0  0
   -1.4378   -2.5832    2.1160 C   0  0  0  0  0  0  0  0  0  0  0  0
   -0.4898   -3.6889    1.8464 C   0  0  0  0  0  0  0  0  0  0  0  0
    0.6292   -3.5528    1.0384 C   0  0  0  0  0  0  0  0  0  0  0  0
    1.2299   -4.7764    0.9018 N   0  0  0  0  0  0  0  0  0  0  0  0
    0.4577   -5.6967    1.5572 C   0  0  0  0  0  0  0  0  0  0  0  0
   -0.4405   -5.0044    2.3443 C   0  0  0  0  0  0  0  0  0  0  0  0
    1.0759   -2.3505    0.4288 C   0  0  0  0  0  0  0  0  0  0  0  0
    2.0433   -2.3129   -0.3422 O   0  0  0  0  0  0  0  0  0  0  0  0
   -2.8088   -2.9710    3.1716 C   0  0  0  0  0  0  0  0  0  0  0  0
   -4.2671   -2.4728    3.1510 C   0  0  0  0  0  0  0  0  0  0  0  0
   -5.9457   -3.0094    3.4943 O   0  0  0  0  0  0  0  0  0  0  0  0
   -7.5190   -2.0217    3.8416 C   0  0  0  0  0  0  0  0  0  0  0  0
   -8.3286   -0.7441    4.9033 C   0  0  0  0  0  0  0  0  0  0  0  0
   -8.2538   -1.3829    2.6193 C   0  0  0  0  0  0  0  0  0  0  0  0
   -6.4626   -1.4014    4.5848 C   0  0  0  0  0  0  0  0  0  0  0  0
   -6.4198   -1.6044    5.8098 O   0  0  0  0  0  0  0  0  0  0  0  0
   -5.5103   -0.8274    3.7583 N   0  0  0  0  0  0  0  0  0  0  0  0
   -5.6378   -0.8222    2.0967 C   0  0  0  0  0  0  0  0  0  0  0  0
   -4.3771   -1.5883    4.1363 C   0  0  0  0  0  0  0  0  0  0  0  0
   -4.0170   -2.2084    5.3814 C   0  0  0  0  0  0  0  0  0  0  0  0
   -2.8517   -2.9243    5.5581 C   0  0  0  0  0  0  0  0  0  0  0  0
   -2.1144   -3.0948    4.4315 C   0  0  0  0  0  0  0  0  0  0  0  0
   -2.3384   -3.4168    7.1814 S   0  0  0  0  0  0  0  0  0  0  0  0
   -1.7197   -5.0721    7.0598 C   0  0  0  0  0  0  0  0  0  0  0  0
   -1.2747   -2.5542    7.5749 O   0  0  0  0  0  0  0  0  0  0  0  0
   -3.5657   -3.5243    7.9969 O   0  0  0  0  0  0  0  0  0  0  0  0
    0.4564    0.9053    0.7431 H   0  0  0  0  0  0  0  0  0  0  0  0
    0.4771    0.0527   -0.8410 H   0  0  0  0  0  0  0  0  0  0  0  0
    1.8947    0.0412    0.1787 H   0  0  0  0  0  0  0  0  0  0  0  0
   -1.3554   -0.4013    1.8571 H   0  0  0  0  0  0  0  0  0  0  0  0
    2.0598   -4.9637    0.3441 H   0  0  0  0  0  0  0  0  0  0  0  0
    0.6296   -6.7554    1.4322 H   0  0  0  0  0  0  0  0  0  0  0  0
   -1.0778   -5.4324    3.0995 H   0  0  0  0  0  0  0  0  0  0  0  0
   -7.8423    0.2630    4.8006 H   0  0  0  0  0  0  0  0  0  0  0  0
   -9.3711   -0.5150    4.6152 H   0  0  0  0  0  0  0  0  0  0  0  0
   -8.4191   -0.9469    5.9848 H   0  0  0  0  0  0  0  0  0  0  0  0
   -7.9910   -0.3106    2.5227 H   0  0  0  0  0  0  0  0  0  0  0  0
   -8.1616   -1.9722    1.7183 H   0  0  0  0  0  0  0  0  0  0  0  0
   -9.3451   -1.2234    2.7441 H   0  0  0  0  0  0  0  0  0  0  0  0
   -4.9261   -0.1188    1.6965 H   0  0  0  0  0  0  0  0  0  0  0  0
   -5.5177   -1.8226    1.6106 H   0  0  0  0  0  0  0  0  0  0  0  0
   -6.5783   -0.5853    1.6335 H   0  0  0  0  0  0  0  0  0  0  0  0
   -4.6889   -2.3348    6.2282 H   0  0  0  0  0  0  0  0  0  0  0  0
   -1.0283   -3.1646    4.5273 H   0  0  0  0  0  0  0  0  0  0  0  0
   -0.8042   -5.0744    6.4670 H   0  0  0  0  0  0  0  0  0  0  0  0
   -1.4916   -5.4133    8.0756 H   0  0  0  0  0  0  0  0  0  0  0  0
   -2.4760   -5.7273    6.6266 H   0  0  0  0  0  0  0  0  0  0  0  0
  1  2  1  0  0  0  0
  1 30  1  0  0  0  0
  1 31  1  0  0  0  0
  1 32  1  0  0  0  0
  2  3  1  0  0  0  0
  2 10  1  0  0  0  0
  3  4  2  0  0  0  0
  3 33  1  0  0  0  0
  4  5  1  0  0  0  0
  4 12  1  0  0  0  0
  5  6  2  0  0  0  0
  5  9  1  0  0  0  0
  6  7  1  0  0  0  0
  6 10  1  0  0  0  0
  7  8  1  0  0  0  0
  7 34  1  0  0  0  0
  8  9  2  0  0  0  0
  8 35  1  0  0  0  0
  9 36  1  0  0  0  0
 10 11  2  0  0  0  0
 12 13  2  0  0  0  0
 12 25  1  0  0  0  0
 13 14  1  0  0  0  0
 13 22  1  0  0  0  0
 14 15  1  0  0  0  0
 15 16  1  0  0  0  0
 15 17  1  0  0  0  0
 15 18  1  0  0  0  0
 16 37  1  0  0  0  0
 16 38  1  0  0  0  0
 16 39  1  0  0  0  0
 17 40  1  0  0  0  0
 17 41  1  0  0  0  0
 17 42  1  0  0  0  0
 18 19  2  0  0  0  0
 18 20  1  0  0  0  0
 20 21  1  0  0  0  0
 20 22  1  0  0  0  0
 21 43  1  0  0  0  0
 21 44  1  0  0  0  0
 21 45  1  0  0  0  0
 22 23  2  0  0  0  0
 23 24  1  0  0  0  0
 23 46  1  0  0  0  0
 24 25  2  0  0  0  0
 24 26  1  0  0  0  0
 25 47  1  0  0  0  0
 26 27  1  0  0  0  0
 26 28  2  0  0  0  0
 26 29  2  0  0  0  0
 27 48  1  0  0  0  0
 27 49  1  0  0  0  0
 27 50  1  0  0  0  0
M  END
>  <DRUGBANK_ID>
DB16054

>  <COMMON_NAME>
INCB-057643

>  <CAS_NUMBER>
1820889-23-3

>  <UNII>
87TZD0JEBS

$$$$
