
 OpenBabel10282417183D

  5  0  0  0  0  0  0  0  0  0999 V2000
    0.9358    0.0010    0.0767 O   0  6  0  0  0  0  0  0  0  0  0  0
    1.0122    0.0861   -0.0494 O   0  6  0  0  0  0  0  0  0  0  0  0
    0.9113   -0.0024   -0.0461 O   0  6  0  0  0  0  0  0  0  0  0  0
    0.9068   -0.0362   -0.0006 Al  0  1  0  0  0  0  0  0  0  0  0  0
    1.0335    0.0312   -0.0889 Al  0  1  0  0  0  0  0  0  0  0  0  0
M  CHG  5   1  -2   2  -2   3  -2   4   3   5   3
M  END
>  <DRUGBANK_ID>
DB11342

>  <COMMON_NAME>
Aluminum oxide

>  <CAS_NUMBER>
1344-28-1

>  <UNII>
LMI26O6933

>  <SYNONYMS>
Aluminium oxide

$$$$
