
 OpenBabel10282417193D

 65 69  0  0  0  0  0  0  0  0999 V2000
   -0.0364   -0.7352   -0.2603 C   0  0  0  0  0  0  0  0  0  0  0  0
   -1.4322   -1.6330   -0.5312 S   0  0  0  0  0  0  0  0  0  0  0  0
   -2.5063   -0.3745   -0.3441 C   0  0  0  0  0  0  0  0  0  0  0  0
   -3.9176   -0.9883   -0.1080 C   0  0  0  0  0  0  0  0  0  0  0  0
   -4.6293   -0.8229    1.1851 N   0  0  0  0  0  0  0  0  0  0  0  0
   -4.9807    0.5748    1.4284 C   0  0  0  0  0  0  0  0  0  0  0  0
   -3.7773    1.3376    1.9467 C   0  0  0  0  0  0  0  0  0  0  0  0
   -2.9859    0.7518    3.0016 N   0  0  0  0  0  0  0  0  0  0  0  0
   -2.1829    1.6608    3.6805 C   0  0  0  0  0  0  0  0  0  0  0  0
   -1.3898    1.0984    4.8614 C   0  0  1  0  0  0  0  0  0  0  0  0
   -0.0705    1.6032    4.9376 O   0  0  0  0  0  0  0  0  0  0  0  0
   -2.1923    1.4796    6.0931 C   0  0  0  0  0  0  0  0  0  0  0  0
   -2.1919    2.8514    3.4351 O   0  0  0  0  0  0  0  0  0  0  0  0
   -2.6884   -0.6820    2.8156 C   0  0  0  0  0  0  0  0  0  0  0  0
   -3.9814   -1.3852    2.3962 C   0  0  0  0  0  0  0  0  0  0  0  0
   -1.7904    0.8601   -0.4712 C   0  0  0  0  0  0  0  0  0  0  0  0
   -2.4247    2.2642   -0.5202 C   0  0  0  0  0  0  0  0  0  0  0  0
   -0.3005    0.6263   -0.2798 C   0  0  0  0  0  0  0  0  0  0  0  0
    0.7355    1.5295   -0.1297 N   0  0  0  0  0  0  0  0  0  0  0  0
    1.9800    0.9693   -0.0114 C   0  0  0  0  0  0  0  0  0  0  0  0
    3.1820    1.8508    0.0048 C   0  0  0  0  0  0  0  0  0  0  0  0
    4.1892    1.8205   -0.9514 C   0  0  0  0  0  0  0  0  0  0  0  0
    5.3207    2.5951   -0.9554 N   0  0  0  0  0  0  0  0  0  0  0  0
    5.4789    3.4401    0.0658 C   0  0  0  0  0  0  0  0  0  0  0  0
    6.5913    4.2365    0.1048 N   0  0  0  0  0  0  0  0  0  0  0  0
    4.5977    3.5457    1.0637 N   0  0  0  0  0  0  0  0  0  0  0  0
    3.4813    2.7557    1.0051 C   0  0  0  0  0  0  0  0  0  0  0  0
    2.2491   -0.3611    0.0586 N   0  0  0  0  0  0  0  0  0  0  0  0
    1.2436   -1.2712   -0.0635 C   0  0  0  0  0  0  0  0  0  0  0  0
    1.5187   -2.6450   -0.0730 N   0  0  0  0  0  0  0  0  0  0  0  0
    2.1721   -3.1675    1.1359 C   0  0  0  0  0  0  0  0  0  0  0  0
    2.8400   -4.5030    0.7489 C   0  0  0  0  0  0  0  0  0  0  0  0
    1.8917   -5.4690    0.2493 O   0  0  0  0  0  0  0  0  0  0  0  0
    1.2440   -4.9575   -0.9192 C   0  0  0  0  0  0  0  0  0  0  0  0
    0.5483   -3.6494   -0.5923 C   0  0  0  0  0  0  0  0  0  0  0  0
   -4.5692   -0.7649   -0.9587 H   0  0  0  0  0  0  0  0  0  0  0  0
   -3.8348   -2.0927   -0.1691 H   0  0  0  0  0  0  0  0  0  0  0  0
   -5.3452    1.0092    0.4880 H   0  0  0  0  0  0  0  0  0  0  0  0
   -5.7935    0.6654    2.1523 H   0  0  0  0  0  0  0  0  0  0  0  0
   -3.0720    1.2116    1.1849 H   0  0  0  0  0  0  0  0  0  0  0  0
   -3.9349    2.4147    1.9917 H   0  0  0  0  0  0  0  0  0  0  0  0
   -1.3010    0.0181    4.8323 H   0  0  0  0  0  0  0  0  0  0  0  0
    0.3470    1.4128    4.0788 H   0  0  0  0  0  0  0  0  0  0  0  0
   -3.2196    1.0998    6.0258 H   0  0  0  0  0  0  0  0  0  0  0  0
   -1.7215    1.0781    6.9915 H   0  0  0  0  0  0  0  0  0  0  0  0
   -2.2460    2.5689    6.2020 H   0  0  0  0  0  0  0  0  0  0  0  0
   -1.8972   -0.8079    2.0729 H   0  0  0  0  0  0  0  0  0  0  0  0
   -2.2753   -1.1467    3.7096 H   0  0  0  0  0  0  0  0  0  0  0  0
   -4.6728   -1.2283    3.2401 H   0  0  0  0  0  0  0  0  0  0  0  0
   -3.8459   -2.4689    2.3304 H   0  0  0  0  0  0  0  0  0  0  0  0
   -2.1552    2.8448    0.3789 H   0  0  0  0  0  0  0  0  0  0  0  0
   -2.1635    2.8666   -1.3872 H   0  0  0  0  0  0  0  0  0  0  0  0
   -3.5245    2.1929   -0.5296 H   0  0  0  0  0  0  0  0  0  0  0  0
    4.1360    1.1453   -1.8027 H   0  0  0  0  0  0  0  0  0  0  0  0
    6.6892    4.8752    0.8760 H   0  0  0  0  0  0  0  0  0  0  0  0
    7.2596    4.1930   -0.6448 H   0  0  0  0  0  0  0  0  0  0  0  0
    2.8249    2.8815    1.8606 H   0  0  0  0  0  0  0  0  0  0  0  0
    1.4122   -3.3487    1.9123 H   0  0  0  0  0  0  0  0  0  0  0  0
    2.9175   -2.4780    1.5408 H   0  0  0  0  0  0  0  0  0  0  0  0
    3.5908   -4.3292   -0.0297 H   0  0  0  0  0  0  0  0  0  0  0  0
    3.3264   -4.9494    1.6172 H   0  0  0  0  0  0  0  0  0  0  0  0
    0.5022   -5.6891   -1.2620 H   0  0  0  0  0  0  0  0  0  0  0  0
    1.9677   -4.8008   -1.7250 H   0  0  0  0  0  0  0  0  0  0  0  0
   -0.2121   -3.8724    0.1754 H   0  0  0  0  0  0  0  0  0  0  0  0
    0.0842   -3.3301   -1.5297 H   0  0  0  0  0  0  0  0  0  0  0  0
  1  2  1  0  0  0  0
  1 18  1  0  0  0  0
  2  3  1  0  0  0  0
  3  4  1  0  0  0  0
  4  5  1  0  0  0  0
  4 36  1  0  0  0  0
  4 37  1  0  0  0  0
  5  6  1  0  0  0  0
  6  7  1  0  0  0  0
  6 38  1  0  0  0  0
  6 39  1  0  0  0  0
  7  8  1  0  0  0  0
  7 40  1  0  0  0  0
  7 41  1  0  0  0  0
  8  9  1  0  0  0  0
  8 14  1  0  0  0  0
  9 10  1  0  0  0  0
  9 13  2  0  0  0  0
 10 11  1  0  0  0  0
 10 12  1  0  0  0  0
 10 42  1  6  0  0  0
 11 43  1  0  0  0  0
 12 44  1  0  0  0  0
 12 45  1  0  0  0  0
 12 46  1  0  0  0  0
 14 15  1  0  0  0  0
 14 47  1  0  0  0  0
 14 48  1  0  0  0  0
 15  5  1  0  0  0  0
 15 49  1  0  0  0  0
 15 50  1  0  0  0  0
 16  3  2  0  0  0  0
 16 17  1  0  0  0  0
 17 51  1  0  0  0  0
 17 52  1  0  0  0  0
 17 53  1  0  0  0  0
 18 16  1  0  0  0  0
 18 19  2  0  0  0  0
 19 20  1  0  0  0  0
 20 21  1  0  0  0  0
 20 28  2  0  0  0  0
 21 22  1  0  0  0  0
 22 23  2  0  0  0  0
 22 54  1  0  0  0  0
 23 24  1  0  0  0  0
 24 25  1  0  0  0  0
 24 26  2  0  0  0  0
 25 55  1  0  0  0  0
 25 56  1  0  0  0  0
 26 27  1  0  0  0  0
 27 21  2  0  0  0  0
 27 57  1  0  0  0  0
 28 29  1  0  0  0  0
 29 30  1  0  0  0  0
 29  1  2  0  0  0  0
 30 31  1  0  0  0  0
 31 32  1  0  0  0  0
 31 58  1  0  0  0  0
 31 59  1  0  0  0  0
 32 33  1  0  0  0  0
 32 60  1  0  0  0  0
 32 61  1  0  0  0  0
 33 34  1  0  0  0  0
 34 35  1  0  0  0  0
 34 62  1  0  0  0  0
 34 63  1  0  0  0  0
 35 30  1  0  0  0  0
 35 64  1  0  0  0  0
 35 65  1  0  0  0  0
M  END
>  <DRUGBANK_ID>
DB12180

>  <COMMON_NAME>
Apitolisib

>  <CAS_NUMBER>
1032754-93-0

>  <UNII>
1C854K1MIJ

>  <SYNONYMS>
Apitolisib; Apitolisibum

$$$$
