
 OpenBabel10282417233D

 64 69  0  0  0  0  0  0  0  0999 V2000
   -0.0407    0.2488   -0.0133 N   0  0  0  0  0  0  0  0  0  0  0  0
   -0.0778    1.6859   -0.0146 C   0  0  0  0  0  0  0  0  0  0  0  0
    0.9960    2.5257    0.0012 C   0  0  0  0  0  0  0  0  0  0  0  0
    2.2763    1.7467    0.1050 C   0  0  0  0  0  0  0  0  0  0  0  0
    2.3461    0.3188   -0.0668 C   0  0  0  0  0  0  0  0  0  0  0  0
    3.6372   -0.2295   -0.0832 C   0  0  0  0  0  0  0  0  0  0  0  0
    3.7843   -1.5792   -0.0793 C   0  0  0  0  0  0  0  0  0  0  0  0
    2.6292   -2.3389   -0.0566 C   0  0  0  0  0  0  0  0  0  0  0  0
    1.3654   -1.7994   -0.0666 N   0  0  0  0  0  0  0  0  0  0  0  0
    1.2102   -0.4512   -0.0584 C   0  0  0  0  0  0  0  0  0  0  0  0
   -1.7475    2.3300   -0.0110 S   0  0  0  0  0  0  0  0  0  0  0  0
   -1.3626   -0.2948   -0.0033 C   0  0  0  0  0  0  0  0  0  0  0  0
   -2.3761    0.6856   -0.0007 C   0  0  0  0  0  0  0  0  0  0  0  0
   -3.7289    0.3918    0.0010 C   0  0  0  0  0  0  0  0  0  0  0  0
   -4.1047   -0.9412    0.0007 C   0  0  0  0  0  0  0  0  0  0  0  0
   -3.1240   -1.9435    0.0004 C   0  0  0  0  0  0  0  0  0  0  0  0
   -1.7523   -1.6272   -0.0008 C   0  0  0  0  0  0  0  0  0  0  0  0
    0.8622    4.0663    0.0031 C   0  0  0  0  0  0  0  0  0  0  0  0
   -0.2379    4.6333   -0.0017 O   0  0  0  0  0  0  0  0  0  0  0  0
    1.8800    4.9767    0.0088 N   0  0  0  0  0  0  0  0  0  0  0  0
    3.3542    2.1352    0.4774 O   0  0  0  0  0  0  0  0  0  0  0  0
    3.3038    4.7907   -0.0202 C   0  0  0  0  0  0  0  0  0  0  0  0
    4.0149    5.1027   -1.2904 C   0  0  0  0  0  0  0  0  0  0  0  0
    4.1376    6.4193   -1.6437 C   0  0  0  0  0  0  0  0  0  0  0  0
    4.4899    4.0883   -2.0792 N   0  0  0  0  0  0  0  0  0  0  0  0
    4.5813    6.7925   -2.8522 N   0  0  0  0  0  0  0  0  0  0  0  0
    4.9803    5.7911   -3.6773 C   0  0  0  0  0  0  0  0  0  0  0  0
    5.0066    4.4664   -3.2663 C   0  0  0  0  0  0  0  0  0  0  0  0
    5.3201    6.1944   -5.0700 C   0  0  0  0  0  0  0  0  0  0  0  0
    2.7471   -3.7082    0.1014 N   0  0  0  0  0  0  0  0  0  0  0  0
    3.5671   -4.1191    1.2507 C   0  0  0  0  0  0  0  0  0  0  0  0
    2.8132   -5.2617    1.9414 C   0  0  0  0  0  0  0  0  0  0  0  0
    3.1531   -6.6146    1.4520 N   0  0  0  0  0  0  0  0  0  0  0  0
    3.3761   -6.7009   -0.0017 C   0  0  0  0  0  0  0  0  0  0  0  0
    2.4010   -5.9017   -0.8779 C   0  0  0  0  0  0  0  0  0  0  0  0
    2.9106   -4.4800   -1.1242 C   0  0  0  0  0  0  0  0  0  0  0  0
    2.0956   -7.5427    1.8566 C   0  0  0  0  0  0  0  0  0  0  0  0
    4.5292    0.3923   -0.0412 H   0  0  0  0  0  0  0  0  0  0  0  0
    4.7815   -1.9996   -0.0361 H   0  0  0  0  0  0  0  0  0  0  0  0
   -4.4645    1.1905    0.0003 H   0  0  0  0  0  0  0  0  0  0  0  0
   -5.1608   -1.1962    0.0002 H   0  0  0  0  0  0  0  0  0  0  0  0
   -3.4363   -2.9852    0.0004 H   0  0  0  0  0  0  0  0  0  0  0  0
   -1.0248   -2.4331   -0.0002 H   0  0  0  0  0  0  0  0  0  0  0  0
    1.5339    5.9299    0.0097 H   0  0  0  0  0  0  0  0  0  0  0  0
    3.7888    5.1004    0.9085 H   0  0  0  0  0  0  0  0  0  0  0  0
    3.3915    3.7722   -0.0679 H   0  0  0  0  0  0  0  0  0  0  0  0
    3.8515    7.1939   -0.9468 H   0  0  0  0  0  0  0  0  0  0  0  0
    5.4353    3.6792   -3.8801 H   0  0  0  0  0  0  0  0  0  0  0  0
    4.4231    6.6002   -5.5514 H   0  0  0  0  0  0  0  0  0  0  0  0
    6.0888    6.9701   -5.0444 H   0  0  0  0  0  0  0  0  0  0  0  0
    5.6784    5.3531   -5.6680 H   0  0  0  0  0  0  0  0  0  0  0  0
    4.5840   -4.4089    0.9494 H   0  0  0  0  0  0  0  0  0  0  0  0
    3.6903   -3.3046    1.9782 H   0  0  0  0  0  0  0  0  0  0  0  0
    3.0187   -5.2146    3.0161 H   0  0  0  0  0  0  0  0  0  0  0  0
    1.7351   -5.0708    1.8259 H   0  0  0  0  0  0  0  0  0  0  0  0
    4.4077   -6.3861   -0.2131 H   0  0  0  0  0  0  0  0  0  0  0  0
    3.3583   -7.7539   -0.3093 H   0  0  0  0  0  0  0  0  0  0  0  0
    2.2801   -6.4176   -1.8353 H   0  0  0  0  0  0  0  0  0  0  0  0
    1.4031   -5.8652   -0.4221 H   0  0  0  0  0  0  0  0  0  0  0  0
    2.3340   -4.0392   -1.9470 H   0  0  0  0  0  0  0  0  0  0  0  0
    3.9616   -4.4984   -1.4466 H   0  0  0  0  0  0  0  0  0  0  0  0
    1.1452   -7.3239    1.3566 H   0  0  0  0  0  0  0  0  0  0  0  0
    2.3809   -8.5715    1.6162 H   0  0  0  0  0  0  0  0  0  0  0  0
    1.9321   -7.4982    2.9381 H   0  0  0  0  0  0  0  0  0  0  0  0
  1  2  1  0  0  0  0
  1 10  1  0  0  0  0
  1 12  1  0  0  0  0
  2  3  2  0  0  0  0
  2 11  1  0  0  0  0
  3  4  1  0  0  0  0
  3 18  1  0  0  0  0
  4  5  1  0  0  0  0
  4 21  2  0  0  0  0
  5  6  1  0  0  0  0
  5 10  2  0  0  0  0
  6  7  2  0  0  0  0
  6 38  1  0  0  0  0
  7  8  1  0  0  0  0
  7 39  1  0  0  0  0
  8  9  2  0  0  0  0
  8 30  1  0  0  0  0
  9 10  1  0  0  0  0
 11 13  1  0  0  0  0
 12 13  1  0  0  0  0
 12 17  2  0  0  0  0
 13 14  2  0  0  0  0
 14 15  1  0  0  0  0
 14 40  1  0  0  0  0
 15 16  2  0  0  0  0
 15 41  1  0  0  0  0
 16 17  1  0  0  0  0
 16 42  1  0  0  0  0
 17 43  1  0  0  0  0
 18 19  2  0  0  0  0
 18 20  1  0  0  0  0
 20 22  1  0  0  0  0
 20 44  1  0  0  0  0
 22 23  1  0  0  0  0
 22 45  1  0  0  0  0
 22 46  1  0  0  0  0
 23 24  1  0  0  0  0
 23 25  2  0  0  0  0
 24 26  2  0  0  0  0
 24 47  1  0  0  0  0
 25 28  1  0  0  0  0
 26 27  1  0  0  0  0
 27 28  2  0  0  0  0
 27 29  1  0  0  0  0
 28 48  1  0  0  0  0
 29 49  1  0  0  0  0
 29 50  1  0  0  0  0
 29 51  1  0  0  0  0
 30 31  1  0  0  0  0
 30 36  1  0  0  0  0
 31 32  1  0  0  0  0
 31 52  1  0  0  0  0
 31 53  1  0  0  0  0
 32 33  1  0  0  0  0
 32 54  1  0  0  0  0
 32 55  1  0  0  0  0
 33 34  1  0  0  0  0
 33 37  1  0  0  0  0
 34 35  1  0  0  0  0
 34 56  1  0  0  0  0
 34 57  1  0  0  0  0
 35 36  1  0  0  0  0
 35 58  1  0  0  0  0
 35 59  1  0  0  0  0
 36 60  1  0  0  0  0
 36 61  1  0  0  0  0
 37 62  1  0  0  0  0
 37 63  1  0  0  0  0
 37 64  1  0  0  0  0
M  END
>  <DRUGBANK_ID>
DB16846

>  <COMMON_NAME>
Pidnarulex

>  <CAS_NUMBER>
1138549-36-6

>  <UNII>
3R4C5YLB9I

$$$$
