
 OpenBabel10282417243D

 40 40  0  0  0  0  0  0  0  0999 V2000
    1.0182   -0.0811    0.0695 C   0  0  0  0  0  0  0  0  0  0  0  0
    0.5090    1.1019    0.8817 C   0  0  0  0  0  0  0  0  0  0  0  0
    1.0081    2.4562    0.3574 C   0  0  0  0  0  0  0  0  0  0  0  0
    0.5812    2.7207   -1.0083 N   0  0  0  0  0  0  0  0  0  0  0  0
   -0.2659    3.7828   -1.2563 C   0  0  0  0  0  0  0  0  0  0  0  0
    0.0590    4.9688   -0.7519 N   0  0  0  0  0  0  0  0  0  0  0  0
   -0.6806    5.9799   -1.1563 C   0  0  0  0  0  0  0  0  0  0  0  0
   -0.3078    7.2260   -0.7225 N   0  0  0  0  0  0  0  0  0  0  0  0
   -1.0184    8.4299   -1.0753 C   0  0  0  0  0  0  0  0  0  0  0  0
   -1.5762    9.1066    0.1751 C   0  0  0  0  0  0  0  0  0  0  0  0
   -0.4778    9.5694    1.1204 C   0  0  0  0  0  0  0  0  0  0  0  0
   -1.7337    5.8650   -1.9400 N   0  0  0  0  0  0  0  0  0  0  0  0
   -2.0460    4.6451   -2.3665 C   0  0  0  0  0  0  0  0  0  0  0  0
   -1.2975    3.5793   -2.0723 N   0  0  0  0  0  0  0  0  0  0  0  0
   -3.2030    4.5130   -3.1587 N   0  0  0  0  0  0  0  0  0  0  0  0
   -3.9822    5.7085   -3.4637 C   0  0  0  0  0  0  0  0  0  0  0  0
   -3.6819    3.2339   -3.5228 O   0  0  0  0  0  0  0  0  0  0  0  0
   -4.8841    3.2908   -4.2858 C   0  0  0  0  0  0  0  0  0  0  0  0
    0.6636   -0.0380   -0.9636 H   0  0  0  0  0  0  0  0  0  0  0  0
    0.6624   -1.0233    0.4988 H   0  0  0  0  0  0  0  0  0  0  0  0
    2.1124   -0.1042    0.0590 H   0  0  0  0  0  0  0  0  0  0  0  0
   -0.5866    1.0815    0.9104 H   0  0  0  0  0  0  0  0  0  0  0  0
    0.8529    0.9767    1.9178 H   0  0  0  0  0  0  0  0  0  0  0  0
    0.6798    3.2341    1.0587 H   0  0  0  0  0  0  0  0  0  0  0  0
    2.1038    2.4587    0.3774 H   0  0  0  0  0  0  0  0  0  0  0  0
    0.3955    1.9396   -1.6206 H   0  0  0  0  0  0  0  0  0  0  0  0
    0.5169    7.2419   -0.1443 H   0  0  0  0  0  0  0  0  0  0  0  0
   -0.3375    9.1117   -1.5973 H   0  0  0  0  0  0  0  0  0  0  0  0
   -1.8507    8.2447   -1.7648 H   0  0  0  0  0  0  0  0  0  0  0  0
   -2.1707    9.9768   -0.1282 H   0  0  0  0  0  0  0  0  0  0  0  0
   -2.2524    8.4243    0.7041 H   0  0  0  0  0  0  0  0  0  0  0  0
    0.1913   10.2758    0.6191 H   0  0  0  0  0  0  0  0  0  0  0  0
   -0.9111   10.0661    1.9931 H   0  0  0  0  0  0  0  0  0  0  0  0
    0.1201    8.7268    1.4806 H   0  0  0  0  0  0  0  0  0  0  0  0
   -4.0663    5.8310   -4.5489 H   0  0  0  0  0  0  0  0  0  0  0  0
   -4.9884    5.6471   -3.0349 H   0  0  0  0  0  0  0  0  0  0  0  0
   -3.5555    6.6468   -3.0956 H   0  0  0  0  0  0  0  0  0  0  0  0
   -5.7063    3.6993   -3.6895 H   0  0  0  0  0  0  0  0  0  0  0  0
   -4.7446    3.8598   -5.2103 H   0  0  0  0  0  0  0  0  0  0  0  0
   -5.1617    2.2717   -4.5668 H   0  0  0  0  0  0  0  0  0  0  0  0
  1  2  1  0  0  0  0
  1 19  1  0  0  0  0
  1 20  1  0  0  0  0
  1 21  1  0  0  0  0
  2  3  1  0  0  0  0
  2 22  1  0  0  0  0
  2 23  1  0  0  0  0
  3  4  1  0  0  0  0
  3 24  1  0  0  0  0
  3 25  1  0  0  0  0
  4  5  1  0  0  0  0
  4 26  1  0  0  0  0
  5  6  2  0  0  0  0
  5 14  1  0  0  0  0
  6  7  1  0  0  0  0
  7  8  1  0  0  0  0
  7 12  2  0  0  0  0
  8  9  1  0  0  0  0
  8 27  1  0  0  0  0
  9 10  1  0  0  0  0
  9 28  1  0  0  0  0
  9 29  1  0  0  0  0
 10 11  1  0  0  0  0
 10 30  1  0  0  0  0
 10 31  1  0  0  0  0
 11 32  1  0  0  0  0
 11 33  1  0  0  0  0
 11 34  1  0  0  0  0
 12 13  1  0  0  0  0
 13 14  2  0  0  0  0
 13 15  1  0  0  0  0
 15 16  1  0  0  0  0
 15 17  1  0  0  0  0
 16 35  1  0  0  0  0
 16 36  1  0  0  0  0
 16 37  1  0  0  0  0
 17 18  1  0  0  0  0
 18 38  1  0  0  0  0
 18 39  1  0  0  0  0
 18 40  1  0  0  0  0
M  END
>  <DRUGBANK_ID>
DB18153

>  <COMMON_NAME>
ENA-001

>  <CAS_NUMBER>
1380341-99-0

>  <UNII>
4RZ4OGT40Z

>  <SYNONYMS>
1,3,5-triazine-2,4,6-triamine, n2-methoxy-n2-methyl-n4,n6-dipropyl-

$$$$
