
 OpenBabel10282417143D

 51 54  0  0  0  0  0  0  0  0999 V2000
   -0.7975    0.0832    0.2290 C   0  0  0  0  0  0  0  0  0  0  0  0
    0.2584   -1.0037   -0.1401 C   0  0  0  0  0  0  0  0  0  0  0  0
    1.0772    0.0681   -0.6813 N   0  0  0  0  0  0  0  0  0  0  0  0
    0.3129    1.1386   -0.0792 C   0  0  0  0  0  0  0  0  0  0  0  0
   -1.8749    0.1084   -0.7464 O   0  0  0  0  0  0  0  0  0  0  0  0
   -1.4150    0.1376    1.6679 C   0  0  2  0  0  0  0  0  0  0  0  0
    3.5366    2.1047   -1.0063 C   0  0  0  0  0  0  0  0  0  0  0  0
    2.9096    1.2035   -1.8986 C   0  0  0  0  0  0  0  0  0  0  0  0
    3.5577    1.9743    0.4193 N   0  0  0  0  0  0  0  0  0  0  0  0
    4.1783    3.2209   -1.6063 C   0  0  0  0  0  0  0  0  0  0  0  0
    4.7779    4.1363   -0.8249 F   0  0  0  0  0  0  0  0  0  0  0  0
    4.2122    3.4151   -2.9962 C   0  0  0  0  0  0  0  0  0  0  0  0
    4.8168    4.4919   -3.5217 F   0  0  0  0  0  0  0  0  0  0  0  0
    3.6247    2.4992   -3.8521 C   0  0  0  0  0  0  0  0  0  0  0  0
    2.9933    1.3863   -3.3022 C   0  0  0  0  0  0  0  0  0  0  0  0
    2.1811   -0.0313   -1.5018 C   0  0  0  0  0  0  0  0  0  0  0  0
    2.5723   -1.0959   -1.9522 O   0  0  0  0  0  0  0  0  0  0  0  0
    3.2732   -1.6104    1.4659 C   0  0  0  0  0  0  0  0  0  0  0  0
    3.7961   -0.4406    0.9033 C   0  0  0  0  0  0  0  0  0  0  0  0
    2.2667   -1.5219    2.4207 C   0  0  0  0  0  0  0  0  0  0  0  0
    1.8342   -0.2646    2.8455 C   0  0  0  0  0  0  0  0  0  0  0  0
    2.3914    0.9108    2.2970 C   0  0  0  0  0  0  0  0  0  0  0  0
    3.3111    0.8348    1.2349 C   0  0  0  0  0  0  0  0  0  0  0  0
    4.6951   -0.5621   -0.0845 F   0  0  0  0  0  0  0  0  0  0  0  0
    1.2085   -3.2583    2.9840 I   0  0  0  0  0  0  0  0  0  0  0  0
   -3.0370   -1.0669    3.2409 C   0  0  0  0  0  0  0  0  0  0  0  0
   -2.2637   -1.1233    1.9243 C   0  0  0  0  0  0  0  0  0  0  0  0
   -2.2009    1.3777    1.8538 N   0  0  0  0  0  0  0  0  0  0  0  0
   -2.8602    1.4359    3.1570 C   0  0  0  0  0  0  0  0  0  0  0  0
   -3.7950    0.2488    3.3540 C   0  0  0  0  0  0  0  0  0  0  0  0
    0.7100   -1.5574    0.6617 H   0  0  0  0  0  0  0  0  0  0  0  0
   -0.0501   -1.7436   -0.8829 H   0  0  0  0  0  0  0  0  0  0  0  0
    0.0446    1.9319   -0.7765 H   0  0  0  0  0  0  0  0  0  0  0  0
    0.7366    1.6249    0.7922 H   0  0  0  0  0  0  0  0  0  0  0  0
   -1.4023   -0.0123   -1.5878 H   0  0  0  0  0  0  0  0  0  0  0  0
   -0.6517    0.1723    2.4404 H   0  0  0  0  0  0  0  0  0  0  0  0
    4.0007    2.7536    0.9028 H   0  0  0  0  0  0  0  0  0  0  0  0
    3.6593    2.6493   -4.9286 H   0  0  0  0  0  0  0  0  0  0  0  0
    2.5611    0.6416   -3.9707 H   0  0  0  0  0  0  0  0  0  0  0  0
    3.5733   -2.5646    1.0451 H   0  0  0  0  0  0  0  0  0  0  0  0
    0.9720   -0.1877    3.5049 H   0  0  0  0  0  0  0  0  0  0  0  0
    1.9417    1.8675    2.5668 H   0  0  0  0  0  0  0  0  0  0  0  0
   -3.7386   -1.9080    3.2931 H   0  0  0  0  0  0  0  0  0  0  0  0
   -2.3502   -1.1744    4.0902 H   0  0  0  0  0  0  0  0  0  0  0  0
   -1.6251   -2.0125    1.9321 H   0  0  0  0  0  0  0  0  0  0  0  0
   -2.9769   -1.2651    1.1056 H   0  0  0  0  0  0  0  0  0  0  0  0
   -1.5948    2.1889    1.7509 H   0  0  0  0  0  0  0  0  0  0  0  0
   -3.4376    2.3651    3.2152 H   0  0  0  0  0  0  0  0  0  0  0  0
   -2.1143    1.4735    3.9611 H   0  0  0  0  0  0  0  0  0  0  0  0
   -4.5867    0.2764    2.5948 H   0  0  0  0  0  0  0  0  0  0  0  0
   -4.2834    0.3159    4.3322 H   0  0  0  0  0  0  0  0  0  0  0  0
  1  2  1  0  0  0  0
  1  5  1  0  0  0  0
  2  3  1  0  0  0  0
  2 31  1  0  0  0  0
  2 32  1  0  0  0  0
  3  4  1  0  0  0  0
  4  1  1  0  0  0  0
  4 33  1  0  0  0  0
  4 34  1  0  0  0  0
  5 35  1  0  0  0  0
  6  1  1  0  0  0  0
  6 28  1  0  0  0  0
  6 36  1  1  0  0  0
  7  8  2  0  0  0  0
  7 10  1  0  0  0  0
  9  7  1  0  0  0  0
  9 37  1  0  0  0  0
 10 12  2  0  0  0  0
 11 10  1  0  0  0  0
 12 13  1  0  0  0  0
 12 14  1  0  0  0  0
 14 15  2  0  0  0  0
 14 38  1  0  0  0  0
 15  8  1  0  0  0  0
 15 39  1  0  0  0  0
 16  3  1  0  0  0  0
 16  8  1  0  0  0  0
 17 16  2  0  0  0  0
 18 19  1  0  0  0  0
 18 20  2  0  0  0  0
 18 40  1  0  0  0  0
 19 23  2  0  0  0  0
 20 21  1  0  0  0  0
 20 25  1  0  0  0  0
 21 22  2  0  0  0  0
 21 41  1  0  0  0  0
 22 42  1  0  0  0  0
 23  9  1  0  0  0  0
 23 22  1  0  0  0  0
 24 19  1  0  0  0  0
 26 27  1  0  0  0  0
 26 30  1  0  0  0  0
 26 43  1  0  0  0  0
 26 44  1  0  0  0  0
 27  6  1  0  0  0  0
 27 45  1  0  0  0  0
 27 46  1  0  0  0  0
 28 29  1  0  0  0  0
 28 47  1  0  0  0  0
 29 30  1  0  0  0  0
 29 48  1  0  0  0  0
 29 49  1  0  0  0  0
 30 50  1  0  0  0  0
 30 51  1  0  0  0  0
M  END
>  <DRUGBANK_ID>
DB05239

>  <COMMON_NAME>
Cobimetinib

>  <CAS_NUMBER>
934660-93-2

>  <UNII>
ER29L26N1X

>  <SYNONYMS>
Cobimetinib

$$$$
