
 OpenBabel10282417243D

 35 36  0  0  0  0  0  0  0  0999 V2000
    0.8975   -0.0530    0.0293 O   0  0  0  0  0  0  0  0  0  0  0  0
    0.3546   -1.2782    0.0490 C   0  0  0  0  0  0  0  0  0  0  0  0
    1.0403   -2.2918    0.0917 O   0  0  0  0  0  0  0  0  0  0  0  0
   -1.1196   -1.2536    0.0339 C   0  0  0  0  0  0  0  0  0  0  0  0
   -1.8274   -0.3860   -0.8013 C   0  0  0  0  0  0  0  0  0  0  0  0
   -3.2272   -0.4891   -0.8960 C   0  0  0  0  0  0  0  0  0  0  0  0
   -3.9348   -1.4651   -0.1675 C   0  0  0  0  0  0  0  0  0  0  0  0
   -5.4152   -1.5349   -0.2389 C   0  0  0  0  0  0  0  0  0  0  0  0
   -6.1789   -2.3695    0.4942 C   0  0  0  0  0  0  0  0  0  0  0  0
   -7.9259   -2.3661    0.5274 S   0  0  0  0  0  0  0  0  0  0  0  0
   -8.3703   -3.5810   -0.1320 O   0  0  0  0  0  0  0  0  0  0  0  0
   -8.3474   -2.1369    1.9006 O   0  0  0  0  0  0  0  0  0  0  0  0
   -8.4740   -0.9903   -0.4662 C   0  0  0  0  0  0  0  0  0  0  0  0
   -8.0585    0.3729    0.0538 C   0  0  0  0  0  0  0  0  0  0  0  0
   -8.4422    1.5057   -0.6817 C   0  0  0  0  0  0  0  0  0  0  0  0
   -8.1670    2.7913   -0.2013 C   0  0  0  0  0  0  0  0  0  0  0  0
   -7.5055    2.9586    1.0137 C   0  0  0  0  0  0  0  0  0  0  0  0
   -7.1308    4.5285    1.5982 Cl  0  0  0  0  0  0  0  0  0  0  0  0
   -7.1147    1.8557    1.7512 C   0  0  0  0  0  0  0  0  0  0  0  0
   -7.3555    0.5828    1.2528 C   0  0  0  0  0  0  0  0  0  0  0  0
   -3.1954   -2.3345    0.6448 C   0  0  0  0  0  0  0  0  0  0  0  0
   -1.8104   -2.2080    0.7788 C   0  0  0  0  0  0  0  0  0  0  0  0
    1.8656   -0.2138    0.0572 H   0  0  0  0  0  0  0  0  0  0  0  0
   -1.2917    0.3500   -1.3971 H   0  0  0  0  0  0  0  0  0  0  0  0
   -3.7455    0.1971   -1.5647 H   0  0  0  0  0  0  0  0  0  0  0  0
   -5.8531   -0.7869   -0.8932 H   0  0  0  0  0  0  0  0  0  0  0  0
   -5.7655   -3.0928    1.1796 H   0  0  0  0  0  0  0  0  0  0  0  0
   -8.1228   -1.1636   -1.4897 H   0  0  0  0  0  0  0  0  0  0  0  0
   -9.5701   -1.0404   -0.4708 H   0  0  0  0  0  0  0  0  0  0  0  0
   -8.9696    1.3998   -1.6295 H   0  0  0  0  0  0  0  0  0  0  0  0
   -8.4872    3.6597   -0.7695 H   0  0  0  0  0  0  0  0  0  0  0  0
   -6.6319    1.9557    2.7193 H   0  0  0  0  0  0  0  0  0  0  0  0
   -6.9632   -0.2268    1.8603 H   0  0  0  0  0  0  0  0  0  0  0  0
   -3.6729   -3.1468    1.1827 H   0  0  0  0  0  0  0  0  0  0  0  0
   -1.2802   -2.8710    1.4586 H   0  0  0  0  0  0  0  0  0  0  0  0
  1  2  1  0  0  0  0
  1 23  1  0  0  0  0
  2  3  2  0  0  0  0
  2  4  1  0  0  0  0
  4  5  2  0  0  0  0
  4 22  1  0  0  0  0
  5  6  1  0  0  0  0
  5 24  1  0  0  0  0
  6  7  2  0  0  0  0
  6 25  1  0  0  0  0
  7  8  1  0  0  0  0
  7 21  1  0  0  0  0
  8  9  2  0  0  0  0
  8 26  1  0  0  0  0
  9 10  1  0  0  0  0
  9 27  1  0  0  0  0
 10 11  2  0  0  0  0
 10 12  2  0  0  0  0
 10 13  1  0  0  0  0
 13 14  1  0  0  0  0
 13 28  1  0  0  0  0
 13 29  1  0  0  0  0
 14 15  2  0  0  0  0
 14 20  1  0  0  0  0
 15 16  1  0  0  0  0
 15 30  1  0  0  0  0
 16 17  2  0  0  0  0
 16 31  1  0  0  0  0
 17 18  1  0  0  0  0
 17 19  1  0  0  0  0
 19 20  2  0  0  0  0
 19 32  1  0  0  0  0
 20 33  1  0  0  0  0
 21 22  2  0  0  0  0
 21 34  1  0  0  0  0
 22 35  1  0  0  0  0
M  END
>  <DRUGBANK_ID>
DB18310

>  <COMMON_NAME>
Recilisib

>  <CAS_NUMBER>
334969-03-8

>  <UNII>
F5V4K11SYV

>  <SYNONYMS>
4-((1e)-2-(((4-chlorophenyl)methyl)sulfonyl)ethenyl)benzoic acid; Benzoic acid, 4-((1e)-2-(((4-chlorophenyl)methyl)sulfonyl)ethenyl)-

$$$$
