
 OpenBabel10282417103D

167171  0  0  1  0  0  0  0  0999 V2000
   -0.1986  -21.1393   -6.9831 C   0  0  1  0  0  0  0  0  0  0  0  0
   -6.2958  -19.8290   -9.7387 C   0  0  0  0  0  0  0  0  0  0  0  0
   -7.0826  -18.4367   -9.4650 C   0  0  2  0  0  0  0  0  0  0  0  0
   -8.1418  -18.6858   -8.3599 N   0  0  0  0  0  0  0  0  0  0  0  0
   -8.3207  -18.2424   -7.0690 C   0  0  0  0  0  0  0  0  0  0  0  0
   -9.5602  -18.7522   -6.3143 C   0  0  0  0  0  0  0  0  0  0  0  0
   -9.2429  -19.4704   -5.0679 N   0  0  0  0  0  0  0  0  0  0  0  0
   -9.4926  -18.8636   -3.8506 C   0  0  0  0  0  0  0  0  0  0  0  0
   -9.2348  -19.6534   -2.5018 C   0  0  1  0  0  0  0  0  0  0  0  0
   -7.8257  -19.5658   -2.1149 N   0  0  0  0  0  0  0  0  0  0  0  0
   -7.2497  -20.0321   -0.9320 C   0  0  0  0  0  0  0  0  0  0  0  0
   -5.7122  -19.8425   -0.7018 C   0  0  2  0  0  0  0  0  0  0  0  0
   -5.1367  -18.6571   -1.4438 C   0  0  0  0  0  0  0  0  0  0  0  0
   -5.1787  -18.8560   -2.9359 C   0  0  0  0  0  0  0  0  0  0  0  0
   -5.0172  -17.7254   -3.6788 C   0  0  0  0  0  0  0  0  0  0  0  0
   -5.1124  -17.8604   -5.0251 C   0  0  0  0  0  0  0  0  0  0  0  0
   -5.2776  -19.0815   -5.6937 C   0  0  0  0  0  0  0  0  0  0  0  0
   -5.5280  -20.2257   -4.9767 C   0  0  0  0  0  0  0  0  0  0  0  0
   -5.5297  -20.0690   -3.6079 C   0  0  0  0  0  0  0  0  0  0  0  0
   -5.2342  -19.0712   -7.0569 O   0  0  0  0  0  0  0  0  0  0  0  0
   -4.9853  -21.0878   -1.0058 N   0  0  0  0  0  0  0  0  0  0  0  0
   -4.1740  -21.7476   -0.1460 C   0  0  0  0  0  0  0  0  0  0  0  0
   -3.6312  -23.0637   -0.7504 C   0  0  1  0  0  0  0  0  0  0  0  0
   -2.3977  -22.6902   -1.4721 N   0  0  0  0  0  0  0  0  0  0  0  0
   -2.1362  -22.9669   -2.8050 C   0  0  0  0  0  0  0  0  0  0  0  0
   -0.7398  -22.5528   -3.3991 C   0  0  1  0  0  0  0  0  0  0  0  0
   -0.8663  -21.7639   -4.6442 N   0  0  0  0  0  0  0  0  0  0  0  0
    0.0213  -21.9604   -5.6933 C   0  0  0  0  0  0  0  0  0  0  0  0
    0.8891  -22.8332   -5.6546 O   0  0  0  0  0  0  0  0  0  0  0  0
    0.1974  -21.8431   -2.4065 C   0  0  0  0  0  0  0  0  0  0  0  0
    0.6111  -22.7086   -1.2061 C   0  0  0  0  0  0  0  0  0  0  0  0
    1.3259  -23.9712   -1.6110 C   0  0  0  0  0  0  0  0  0  0  0  0
    2.5582  -24.1430   -1.0806 N   0  0  0  0  0  0  0  0  0  0  0  0
    0.8215  -24.8353   -2.3163 O   0  0  0  0  0  0  0  0  0  0  0  0
   -2.9915  -23.5000   -3.5136 O   0  0  0  0  0  0  0  0  0  0  0  0
   -3.3978  -24.0618    0.3773 C   0  0  0  0  0  0  0  0  0  0  0  0
   -4.6772  -24.3497    1.1397 C   0  0  0  0  0  0  0  0  0  0  0  0
   -5.2734  -25.4132    1.1441 O   0  0  0  0  0  0  0  0  0  0  0  0
   -5.1391  -23.3028    1.8432 O   0  0  0  0  0  0  0  0  0  0  0  0
   -3.8085  -21.2618    0.9160 O   0  0  0  0  0  0  0  0  0  0  0  0
   -7.8802  -20.7364   -0.1413 O   0  0  0  0  0  0  0  0  0  0  0  0
  -10.0845  -18.9611   -1.4094 C   0  0  1  0  0  0  0  0  0  0  0  0
  -11.5553  -19.0147   -1.7319 C   0  0  0  0  0  0  0  0  0  0  0  0
  -10.0211  -19.5651   -0.1173 O   0  0  0  0  0  0  0  0  0  0  0  0
   -9.8891  -17.6958   -3.8334 O   0  0  0  0  0  0  0  0  0  0  0  0
   -9.4790  -20.7138   -2.6271 H   0  0  0  0  0  0  0  0  0  0  0  0
   -7.5401  -17.4746   -6.5178 O   0  0  0  0  0  0  0  0  0  0  0  0
   -7.3197  -17.4673  -10.7791 C   0  0  0  0  0  0  0  0  0  0  0  0
   -6.6887  -16.2614  -10.9504 N   0  0  0  0  0  0  0  0  0  0  0  0
   -8.1893  -17.6943  -11.6222 O   0  0  0  0  0  0  0  0  0  0  0  0
   -7.1936  -15.3696  -12.0477 C   0  0  1  0  0  0  0  0  0  0  0  0
   -7.7551  -14.0951  -11.4463 C   0  0  0  0  0  0  0  0  0  0  0  0
   -6.7445  -13.3334  -10.5596 C   0  0  0  0  0  0  0  0  0  0  0  0
   -5.0111  -12.7828  -11.0332 S   0  0  0  0  0  0  0  0  0  0  0  0
   -4.0299  -14.2608  -11.5688 C   0  0  0  0  0  0  0  0  0  0  0  0
   -6.3141  -14.9034  -13.2282 C   0  0  0  0  0  0  0  0  0  0  0  0
   -5.7586  -15.8082  -14.0768 N   0  0  0  0  0  0  0  0  0  0  0  0
   -4.6200  -15.3474  -14.9125 C   0  0  1  0  0  0  0  0  0  0  0  0
   -3.6246  -16.4720  -15.1982 C   0  0  0  0  0  0  0  0  0  0  0  0
   -4.1794  -17.6514  -15.9178 C   0  0  0  0  0  0  0  0  0  0  0  0
   -3.6966  -17.8143  -17.1649 O   0  0  0  0  0  0  0  0  0  0  0  0
   -5.0659  -18.3541  -15.4457 O   0  0  0  0  0  0  0  0  0  0  0  0
   -4.9386  -14.4784  -16.1606 C   0  0  0  0  0  0  0  0  0  0  0  0
   -6.0941  -13.7148  -13.4526 O   0  0  0  0  0  0  0  0  0  0  0  0
   -4.4247  -13.3701  -16.3318 O   0  0  0  0  0  0  0  0  0  0  0  0
   -5.6851  -14.9966  -17.1781 N   0  0  0  0  0  0  0  0  0  0  0  0
   -6.4087  -16.2630  -17.1733 C   0  0  1  0  0  0  0  0  0  0  0  0
   -7.8928  -16.1892  -16.9255 C   0  0  0  0  0  0  0  0  0  0  0  0
   -6.0787  -17.2316  -18.3334 C   0  0  0  0  0  0  0  0  0  0  0  0
   -6.0311  -18.4531  -18.2239 O   0  0  0  0  0  0  0  0  0  0  0  0
   -6.0086  -16.6979  -19.5852 N   0  0  0  0  0  0  0  0  0  0  0  0
   -8.5544  -15.6190  -18.1226 C   0  0  0  0  0  0  0  0  0  0  0  0
   -9.2729  -16.4749  -18.9555 C   0  0  0  0  0  0  0  0  0  0  0  0
   -9.8970  -15.9523  -20.0708 C   0  0  0  0  0  0  0  0  0  0  0  0
   -9.7757  -14.5913  -20.3597 C   0  0  0  0  0  0  0  0  0  0  0  0
   -9.0120  -13.7509  -19.5536 C   0  0  0  0  0  0  0  0  0  0  0  0
   -8.3711  -14.2721  -18.4505 C   0  0  0  0  0  0  0  0  0  0  0  0
   -0.6833  -19.7983   -6.7739 N   0  0  0  0  0  0  0  0  0  0  0  0
    1.1380  -20.9187   -7.7033 C   0  0  0  0  0  0  0  0  0  0  0  0
    0.0341  -18.8575   -7.4825 C   0  0  0  0  0  0  0  0  0  0  0  0
    0.9870  -19.5735   -8.3969 C   0  0  0  0  0  0  0  0  0  0  0  0
   -0.1119  -17.6517   -7.3970 O   0  0  0  0  0  0  0  0  0  0  0  0
   -7.1956  -20.8223  -10.4348 C   0  0  0  0  0  0  0  0  0  0  0  0
   -7.7227  -20.3258  -11.6096 C   0  0  0  0  0  0  0  0  0  0  0  0
   -8.9017  -19.7685  -11.0054 N   0  0  0  0  0  0  0  0  0  0  0  0
   -9.3675  -20.6348  -10.0695 C   0  0  0  0  0  0  0  0  0  0  0  0
  -10.5020  -20.7039   -9.2922 C   0  0  0  0  0  0  0  0  0  0  0  0
  -10.8702  -22.0309   -9.1541 C   0  0  0  0  0  0  0  0  0  0  0  0
  -10.1285  -23.0428   -9.8011 C   0  0  0  0  0  0  0  0  0  0  0  0
   -8.3295  -21.5533   -9.9992 C   0  0  0  0  0  0  0  0  0  0  0  0
   -8.8200  -22.8215  -10.2405 C   0  0  0  0  0  0  0  0  0  0  0  0
   -4.5526  -17.7663   -7.8284 S   0  0  0  0  0  0  0  0  0  0  0  0
   -5.6517  -16.5490   -7.6949 O   0  0  0  0  0  0  0  0  0  0  0  0
   -3.3618  -17.3354   -7.0839 O   0  0  0  0  0  0  0  0  0  0  0  0
   -4.4099  -18.0559   -9.2142 O   0  0  0  0  0  0  0  0  0  0  0  0
   -0.9095  -21.6665   -7.6309 H   0  0  0  0  0  0  0  0  0  0  0  0
   -5.4358  -19.7000  -10.4143 H   0  0  0  0  0  0  0  0  0  0  0  0
   -5.9148  -20.3140   -8.8314 H   0  0  0  0  0  0  0  0  0  0  0  0
   -6.4920  -17.7126   -9.0125 H   0  0  0  0  0  0  0  0  0  0  0  0
   -8.5005  -19.6268   -8.4051 H   0  0  0  0  0  0  0  0  0  0  0  0
  -10.1952  -19.3826   -6.9357 H   0  0  0  0  0  0  0  0  0  0  0  0
  -10.1378  -17.8426   -6.1009 H   0  0  0  0  0  0  0  0  0  0  0  0
   -8.6821  -20.3110   -5.1241 H   0  0  0  0  0  0  0  0  0  0  0  0
   -7.3133  -18.9837   -2.7561 H   0  0  0  0  0  0  0  0  0  0  0  0
   -5.5870  -19.6347    0.3675 H   0  0  0  0  0  0  0  0  0  0  0  0
   -5.6942  -17.7458   -1.1677 H   0  0  0  0  0  0  0  0  0  0  0  0
   -4.0898  -18.4801   -1.1615 H   0  0  0  0  0  0  0  0  0  0  0  0
   -4.8817  -16.7284   -3.2732 H   0  0  0  0  0  0  0  0  0  0  0  0
   -5.0393  -16.9199   -5.5444 H   0  0  0  0  0  0  0  0  0  0  0  0
   -5.7584  -21.2154   -5.3710 H   0  0  0  0  0  0  0  0  0  0  0  0
   -5.9960  -20.9060   -3.0922 H   0  0  0  0  0  0  0  0  0  0  0  0
   -4.8399  -21.4058   -1.9511 H   0  0  0  0  0  0  0  0  0  0  0  0
   -4.3367  -23.4896   -1.4751 H   0  0  0  0  0  0  0  0  0  0  0  0
   -1.7878  -22.0828   -0.9431 H   0  0  0  0  0  0  0  0  0  0  0  0
   -0.2726  -23.4864   -3.7180 H   0  0  0  0  0  0  0  0  0  0  0  0
   -1.6174  -21.0942   -4.7243 H   0  0  0  0  0  0  0  0  0  0  0  0
    1.1087  -21.5110   -2.9233 H   0  0  0  0  0  0  0  0  0  0  0  0
   -0.2918  -20.9238   -2.0552 H   0  0  0  0  0  0  0  0  0  0  0  0
    1.2088  -22.1065   -0.5143 H   0  0  0  0  0  0  0  0  0  0  0  0
   -0.2291  -23.0653   -0.6089 H   0  0  0  0  0  0  0  0  0  0  0  0
    3.0393  -24.9976   -1.3286 H   0  0  0  0  0  0  0  0  0  0  0  0
    2.9708  -23.5172   -0.4059 H   0  0  0  0  0  0  0  0  0  0  0  0
   -3.0402  -25.0089   -0.0430 H   0  0  0  0  0  0  0  0  0  0  0  0
   -2.6263  -23.7196    1.0757 H   0  0  0  0  0  0  0  0  0  0  0  0
   -6.0091  -23.5138    2.2397 H   0  0  0  0  0  0  0  0  0  0  0  0
   -9.7314  -17.9279   -1.2884 H   0  0  0  0  0  0  0  0  0  0  0  0
  -11.8623  -20.0627   -1.8076 H   0  0  0  0  0  0  0  0  0  0  0  0
  -12.1099  -18.5618   -0.9070 H   0  0  0  0  0  0  0  0  0  0  0  0
  -11.8147  -18.5002   -2.6553 H   0  0  0  0  0  0  0  0  0  0  0  0
   -9.7317  -20.4940   -0.2189 H   0  0  0  0  0  0  0  0  0  0  0  0
   -6.0859  -15.8872  -10.2204 H   0  0  0  0  0  0  0  0  0  0  0  0
   -8.0251  -15.8672  -12.5636 H   0  0  0  0  0  0  0  0  0  0  0  0
   -8.1356  -13.4625  -12.2624 H   0  0  0  0  0  0  0  0  0  0  0  0
   -8.6535  -14.3382  -10.8567 H   0  0  0  0  0  0  0  0  0  0  0  0
   -7.2699  -12.4080  -10.2827 H   0  0  0  0  0  0  0  0  0  0  0  0
   -6.6140  -13.8822   -9.6266 H   0  0  0  0  0  0  0  0  0  0  0  0
   -3.7726  -14.8751  -10.7133 H   0  0  0  0  0  0  0  0  0  0  0  0
   -4.4147  -14.9974  -12.2593 H   0  0  0  0  0  0  0  0  0  0  0  0
   -3.1486  -13.9013  -12.1222 H   0  0  0  0  0  0  0  0  0  0  0  0
   -6.4297  -16.4795  -14.4324 H   0  0  0  0  0  0  0  0  0  0  0  0
   -4.0372  -14.6434  -14.2975 H   0  0  0  0  0  0  0  0  0  0  0  0
   -2.7541  -16.0996  -15.7428 H   0  0  0  0  0  0  0  0  0  0  0  0
   -3.2771  -16.8950  -14.2497 H   0  0  0  0  0  0  0  0  0  0  0  0
   -3.1655  -17.1097  -17.5826 H   0  0  0  0  0  0  0  0  0  0  0  0
   -5.7543  -14.3802  -17.9810 H   0  0  0  0  0  0  0  0  0  0  0  0
   -6.1212  -16.7243  -16.2650 H   0  0  0  0  0  0  0  0  0  0  0  0
   -8.2511  -17.2104  -16.7276 H   0  0  0  0  0  0  0  0  0  0  0  0
   -8.1429  -15.6004  -16.0359 H   0  0  0  0  0  0  0  0  0  0  0  0
   -6.6974  -15.9846  -19.7951 H   0  0  0  0  0  0  0  0  0  0  0  0
   -5.9682  -17.4325  -20.2842 H   0  0  0  0  0  0  0  0  0  0  0  0
   -9.3236  -17.5427  -18.7393 H   0  0  0  0  0  0  0  0  0  0  0  0
  -10.4995  -16.6040  -20.6939 H   0  0  0  0  0  0  0  0  0  0  0  0
  -10.2898  -14.1763  -21.2183 H   0  0  0  0  0  0  0  0  0  0  0  0
   -8.9374  -12.6869  -19.7535 H   0  0  0  0  0  0  0  0  0  0  0  0
   -7.7286  -13.6223  -17.8583 H   0  0  0  0  0  0  0  0  0  0  0  0
   -1.4226  -19.5009   -6.1527 H   0  0  0  0  0  0  0  0  0  0  0  0
    1.3897  -21.7240   -8.4010 H   0  0  0  0  0  0  0  0  0  0  0  0
    1.9619  -20.8487   -6.9802 H   0  0  0  0  0  0  0  0  0  0  0  0
    0.5311  -19.6733   -9.3870 H   0  0  0  0  0  0  0  0  0  0  0  0
    1.9397  -19.0434   -8.4732 H   0  0  0  0  0  0  0  0  0  0  0  0
   -7.1384  -19.7291  -12.3063 H   0  0  0  0  0  0  0  0  0  0  0  0
   -8.9722  -18.7919  -10.7603 H   0  0  0  0  0  0  0  0  0  0  0  0
  -11.1244  -19.8589   -9.0130 H   0  0  0  0  0  0  0  0  0  0  0  0
  -11.8087  -22.2648   -8.6667 H   0  0  0  0  0  0  0  0  0  0  0  0
  -10.5849  -23.9963  -10.0197 H   0  0  0  0  0  0  0  0  0  0  0  0
   -8.2184  -23.4941  -10.8321 H   0  0  0  0  0  0  0  0  0  0  0  0
   -6.5534  -16.8612   -7.3843 H   0  0  0  0  0  0  0  0  0  0  0  0
  1 96  1  6  0  0  0
  1 28  1  0  0  0  0
  2 83  1  0  0  0  0
  2 97  1  0  0  0  0
  2 98  1  0  0  0  0
  3  2  1  0  0  0  0
  3 48  1  0  0  0  0
  3 99  1  1  0  0  0
  4  3  1  0  0  0  0
  4100  1  0  0  0  0
  5  4  1  0  0  0  0
  6  5  1  0  0  0  0
  6101  1  0  0  0  0
  6102  1  0  0  0  0
  7  6  1  0  0  0  0
  7103  1  0  0  0  0
  8  7  1  0  0  0  0
  9 46  1  6  0  0  0
  9 10  1  0  0  0  0
  9  8  1  0  0  0  0
 10104  1  0  0  0  0
 11 10  1  0  0  0  0
 12105  1  1  0  0  0
 12 13  1  0  0  0  0
 12 11  1  0  0  0  0
 13106  1  0  0  0  0
 13107  1  0  0  0  0
 14 13  1  0  0  0  0
 15 14  2  0  0  0  0
 15108  1  0  0  0  0
 16 15  1  0  0  0  0
 16109  1  0  0  0  0
 17 16  2  0  0  0  0
 18 17  1  0  0  0  0
 18110  1  0  0  0  0
 19 14  1  0  0  0  0
 19 18  2  0  0  0  0
 19111  1  0  0  0  0
 20 17  1  0  0  0  0
 20 92  1  0  0  0  0
 21 12  1  0  0  0  0
 21112  1  0  0  0  0
 22 21  1  0  0  0  0
 23113  1  6  0  0  0
 23 36  1  0  0  0  0
 23 22  1  0  0  0  0
 24 23  1  0  0  0  0
 24114  1  0  0  0  0
 25 24  1  0  0  0  0
 26 30  1  0  0  0  0
 26115  1  6  0  0  0
 26 27  1  0  0  0  0
 26 25  1  0  0  0  0
 27116  1  0  0  0  0
 28 27  1  0  0  0  0
 29 28  2  0  0  0  0
 30117  1  0  0  0  0
 30118  1  0  0  0  0
 31 30  1  0  0  0  0
 31119  1  0  0  0  0
 31120  1  0  0  0  0
 32 31  1  0  0  0  0
 33 32  1  0  0  0  0
 33121  1  0  0  0  0
 33122  1  0  0  0  0
 34 32  2  0  0  0  0
 35 25  2  0  0  0  0
 36123  1  0  0  0  0
 36124  1  0  0  0  0
 37 36  1  0  0  0  0
 38 37  2  0  0  0  0
 39 37  1  0  0  0  0
 39125  1  0  0  0  0
 40 22  2  0  0  0  0
 41 11  2  0  0  0  0
 42  9  1  0  0  0  0
 42 44  1  0  0  0  0
 42126  1  1  0  0  0
 43 42  1  0  0  0  0
 43127  1  0  0  0  0
 43128  1  0  0  0  0
 43129  1  0  0  0  0
 44130  1  0  0  0  0
 45  8  2  0  0  0  0
 47  5  2  0  0  0  0
 49 48  1  0  0  0  0
 49131  1  0  0  0  0
 50 48  2  0  0  0  0
 51 49  1  0  0  0  0
 51132  1  6  0  0  0
 52 51  1  0  0  0  0
 52133  1  0  0  0  0
 52134  1  0  0  0  0
 53 52  1  0  0  0  0
 53135  1  0  0  0  0
 53136  1  0  0  0  0
 54 53  1  0  0  0  0
 55 54  1  0  0  0  0
 55137  1  0  0  0  0
 55138  1  0  0  0  0
 55139  1  0  0  0  0
 56 51  1  0  0  0  0
 57 56  1  0  0  0  0
 57140  1  0  0  0  0
 58 57  1  0  0  0  0
 58 63  1  0  0  0  0
 58141  1  1  0  0  0
 59 58  1  0  0  0  0
 59142  1  0  0  0  0
 59143  1  0  0  0  0
 60 59  1  0  0  0  0
 61 60  1  0  0  0  0
 61144  1  0  0  0  0
 62 60  2  0  0  0  0
 64 56  2  0  0  0  0
 65 63  2  0  0  0  0
 66 63  1  0  0  0  0
 66145  1  0  0  0  0
 67 66  1  0  0  0  0
 67146  1  1  0  0  0
 68 67  1  0  0  0  0
 68147  1  0  0  0  0
 68148  1  0  0  0  0
 69 67  1  0  0  0  0
 70 69  2  0  0  0  0
 71 69  1  0  0  0  0
 71149  1  0  0  0  0
 71150  1  0  0  0  0
 72 68  1  0  0  0  0
 73 72  2  0  0  0  0
 73151  1  0  0  0  0
 74 73  1  0  0  0  0
 74152  1  0  0  0  0
 75 74  2  0  0  0  0
 75153  1  0  0  0  0
 76 75  1  0  0  0  0
 76154  1  0  0  0  0
 77 72  1  0  0  0  0
 77 76  2  0  0  0  0
 77155  1  0  0  0  0
 78  1  1  0  0  0  0
 78156  1  0  0  0  0
 79  1  1  0  0  0  0
 79157  1  0  0  0  0
 79158  1  0  0  0  0
 80 78  1  0  0  0  0
 80 82  2  0  0  0  0
 81 79  1  0  0  0  0
 81 80  1  0  0  0  0
 81159  1  0  0  0  0
 81160  1  0  0  0  0
 83 84  2  0  0  0  0
 84161  1  0  0  0  0
 85 84  1  0  0  0  0
 85162  1  0  0  0  0
 86 85  1  0  0  0  0
 86 87  2  0  0  0  0
 87163  1  0  0  0  0
 88 87  1  0  0  0  0
 88164  1  0  0  0  0
 89 88  2  0  0  0  0
 89165  1  0  0  0  0
 90 83  1  0  0  0  0
 90 86  1  0  0  0  0
 91 89  1  0  0  0  0
 91 90  2  0  0  0  0
 91166  1  0  0  0  0
 92 93  1  0  0  0  0
 92 94  2  0  0  0  0
 92 95  2  0  0  0  0
 93167  1  0  0  0  0
M  END
>  <DRUGBANK_ID>
DB00403

>  <SECONDARY_ACCESSION_NUMBERS>
APRD00861

>  <COMMON_NAME>
Ceruletide

>  <CAS_NUMBER>
17650-98-5

>  <UNII>
888Y08971B

>  <SYNONYMS>
Caerulein; Cerulein; Ceruletida; Ceruletide; Ceruletidum

$$$$
