
 OpenBabel10282417153D

 62 64  0  0  0  0  0  0  0  0999 V2000
    1.1897   -0.2011   -0.2435 C   0  0  0  0  0  0  0  0  0  0  0  0
    0.2342    0.2377   -1.4015 C   0  0  3  0  0  0  0  0  0  0  0  0
   -0.6888   -0.9264   -1.7182 C   0  0  0  0  0  0  0  0  0  0  0  0
   -1.6766   -1.1902   -0.5934 C   0  0  0  0  0  0  0  0  0  0  0  0
   -2.5239   -1.4165    0.3715 C   0  0  0  0  0  0  0  0  0  0  0  0
   -3.5116   -1.6803    1.4963 C   0  0  0  0  0  0  0  0  0  0  0  0
    0.9074   -0.9401    0.6919 O   0  0  0  0  0  0  0  0  0  0  0  0
    2.4845    0.1723   -0.3476 O   0  0  0  0  0  0  0  0  0  0  0  0
   -3.2078   -0.8473    2.6850 N   0  0  0  0  0  0  0  0  0  0  0  0
   -3.8133    0.4962    2.5805 C   0  0  0  0  0  0  0  0  0  0  0  0
   -3.2602    1.3163    1.4149 C   0  0  0  0  0  0  0  0  0  0  0  0
   -1.8719    1.5879    1.6415 O   0  0  0  0  0  0  0  0  0  0  0  0
   -1.1136    0.4229    1.9826 C   0  0  0  0  0  0  0  0  0  0  0  0
   -1.7498   -0.6574    2.8867 C   0  0  0  0  0  0  0  0  0  0  0  0
   -0.5986    1.4828   -1.3132 N   0  0  0  0  0  0  0  0  0  0  0  0
   -1.6037    1.9083   -2.6575 S   0  0  0  0  0  0  0  0  0  0  0  0
   -2.4342    0.7811   -3.0552 O   0  0  0  0  0  0  0  0  0  0  0  0
   -2.2226    3.1616   -2.3373 O   0  0  0  0  0  0  0  0  0  0  0  0
   -0.4165    2.1727   -3.9577 C   0  0  0  0  0  0  0  0  0  0  0  0
   -0.1233    3.4683   -4.3766 C   0  0  0  0  0  0  0  0  0  0  0  0
    0.8641    3.6847   -5.3587 C   0  0  0  0  0  0  0  0  0  0  0  0
    1.5806    2.6086   -5.9078 C   0  0  0  0  0  0  0  0  0  0  0  0
    1.2942    1.3290   -5.4280 C   0  0  0  0  0  0  0  0  0  0  0  0
    0.2479    1.0967   -4.5386 C   0  0  0  0  0  0  0  0  0  0  0  0
    2.5253    2.8226   -6.9547 N   0  0  0  0  0  0  0  0  0  0  0  0
    3.1919    1.8030   -7.6398 C   0  0  0  0  0  0  0  0  0  0  0  0
    4.1065    2.1702   -8.7480 C   0  0  0  0  0  0  0  0  0  0  0  0
    5.0103    3.2209   -8.6160 C   0  0  0  0  0  0  0  0  0  0  0  0
    5.9879    3.4254   -9.5976 C   0  0  0  0  0  0  0  0  0  0  0  0
    6.0784    2.5829  -10.7099 C   0  0  0  0  0  0  0  0  0  0  0  0
    5.2056    1.4983  -10.8133 C   0  0  0  0  0  0  0  0  0  0  0  0
    4.2020    1.3106   -9.8563 C   0  0  0  0  0  0  0  0  0  0  0  0
    3.1155    0.5989   -7.4117 O   0  0  0  0  0  0  0  0  0  0  0  0
    6.9686    2.7277  -11.7401 O   0  0  0  0  0  0  0  0  0  0  0  0
    7.7654    3.9097  -11.7229 C   0  0  0  0  0  0  0  0  0  0  0  0
    0.9296    0.3842   -2.2289 H   0  0  0  0  0  0  0  0  0  0  0  0
   -1.1823   -0.9072   -2.6847 H   0  0  0  0  0  0  0  0  0  0  0  0
   -0.0683   -1.8328   -1.7897 H   0  0  0  0  0  0  0  0  0  0  0  0
   -4.5355   -1.5033    1.1470 H   0  0  0  0  0  0  0  0  0  0  0  0
   -3.4505   -2.7392    1.7719 H   0  0  0  0  0  0  0  0  0  0  0  0
    2.8010    0.4561   -1.2199 H   0  0  0  0  0  0  0  0  0  0  0  0
   -3.5815    1.0380    3.5072 H   0  0  0  0  0  0  0  0  0  0  0  0
   -4.9015    0.4147    2.5225 H   0  0  0  0  0  0  0  0  0  0  0  0
   -3.4410    0.8411    0.4419 H   0  0  0  0  0  0  0  0  0  0  0  0
   -3.7614    2.2837    1.3488 H   0  0  0  0  0  0  0  0  0  0  0  0
   -0.1235    0.7131    2.3363 H   0  0  0  0  0  0  0  0  0  0  0  0
   -0.9152   -0.0126    1.0382 H   0  0  0  0  0  0  0  0  0  0  0  0
   -1.5635   -0.3512    3.9198 H   0  0  0  0  0  0  0  0  0  0  0  0
   -1.2265   -1.6218    2.7765 H   0  0  0  0  0  0  0  0  0  0  0  0
   -1.1941    1.5132   -0.4693 H   0  0  0  0  0  0  0  0  0  0  0  0
   -0.6709    4.3060   -3.9495 H   0  0  0  0  0  0  0  0  0  0  0  0
    1.0507    4.7101   -5.6666 H   0  0  0  0  0  0  0  0  0  0  0  0
    1.8655    0.4612   -5.7344 H   0  0  0  0  0  0  0  0  0  0  0  0
    0.0042    0.0635   -4.3100 H   0  0  0  0  0  0  0  0  0  0  0  0
    2.6156    3.7707   -7.3010 H   0  0  0  0  0  0  0  0  0  0  0  0
    5.0078    3.8511   -7.7331 H   0  0  0  0  0  0  0  0  0  0  0  0
    6.6916    4.2369   -9.4487 H   0  0  0  0  0  0  0  0  0  0  0  0
    5.3145    0.7856  -11.6294 H   0  0  0  0  0  0  0  0  0  0  0  0
    3.5131    0.4731   -9.9627 H   0  0  0  0  0  0  0  0  0  0  0  0
    7.1469    4.8142  -11.6799 H   0  0  0  0  0  0  0  0  0  0  0  0
    8.4741    3.8796  -10.8891 H   0  0  0  0  0  0  0  0  0  0  0  0
    8.3430    3.9520  -12.6512 H   0  0  0  0  0  0  0  0  0  0  0  0
  1  2  1  0  0  0  0
  1  7  2  0  0  0  0
  1  8  1  0  0  0  0
  2  3  1  0  0  0  0
  2 15  1  0  0  0  0
  2 36  1  0  0  0  0
  3  4  1  0  0  0  0
  3 37  1  0  0  0  0
  3 38  1  0  0  0  0
  4  5  3  0  0  0  0
  5  6  1  0  0  0  0
  6  9  1  0  0  0  0
  6 39  1  0  0  0  0
  6 40  1  0  0  0  0
  8 41  1  0  0  0  0
  9 10  1  0  0  0  0
  9 14  1  0  0  0  0
 10 11  1  0  0  0  0
 10 42  1  0  0  0  0
 10 43  1  0  0  0  0
 11 12  1  0  0  0  0
 11 44  1  0  0  0  0
 11 45  1  0  0  0  0
 12 13  1  0  0  0  0
 13 14  1  0  0  0  0
 13 46  1  0  0  0  0
 13 47  1  0  0  0  0
 14 48  1  0  0  0  0
 14 49  1  0  0  0  0
 15 16  1  0  0  0  0
 15 50  1  0  0  0  0
 16 17  2  0  0  0  0
 16 18  2  0  0  0  0
 16 19  1  0  0  0  0
 19 20  1  0  0  0  0
 19 24  2  0  0  0  0
 20 21  2  0  0  0  0
 20 51  1  0  0  0  0
 21 22  1  0  0  0  0
 21 52  1  0  0  0  0
 22 23  2  0  0  0  0
 22 25  1  0  0  0  0
 23 24  1  0  0  0  0
 23 53  1  0  0  0  0
 24 54  1  0  0  0  0
 25 26  1  0  0  0  0
 25 55  1  0  0  0  0
 26 27  1  0  0  0  0
 26 33  2  0  0  0  0
 27 28  1  0  0  0  0
 27 32  2  0  0  0  0
 28 29  2  0  0  0  0
 28 56  1  0  0  0  0
 29 30  1  0  0  0  0
 29 57  1  0  0  0  0
 30 31  2  0  0  0  0
 30 34  1  0  0  0  0
 31 32  1  0  0  0  0
 31 58  1  0  0  0  0
 32 59  1  0  0  0  0
 34 35  1  0  0  0  0
 35 60  1  0  0  0  0
 35 61  1  0  0  0  0
 35 62  1  0  0  0  0
M  END
>  <DRUGBANK_ID>
DB05495

>  <COMMON_NAME>
PG-530742

>  <CAS_NUMBER>
291533-11-4

>  <UNII>
F94T42GL80

$$$$
