
 OpenBabel10282417193D

 66 69  0  0  0  0  0  0  0  0999 V2000
   -2.1797   10.6916   10.5563 Cl  0  0  0  0  0  0  0  0  0  0  0  0
   -4.7210    4.6011    9.8585 F   0  0  0  0  0  0  0  0  0  0  0  0
   -3.7288    2.7559   10.4546 F   0  0  0  0  0  0  0  0  0  0  0  0
   -3.9623    4.3751   11.8882 F   0  0  0  0  0  0  0  0  0  0  0  0
   -1.2899    4.1276   10.9923 O   0  0  0  0  0  0  0  0  0  0  0  0
    9.0348    1.9169   12.1747 O   0  0  0  0  0  0  0  0  0  0  0  0
    9.3239   -0.2986   11.9912 O   0  0  0  0  0  0  0  0  0  0  0  0
   -2.0046    6.3925    7.7624 N   0  0  0  0  0  0  0  0  0  0  0  0
   -2.9122    5.5137    7.2594 N   0  0  0  0  0  0  0  0  0  0  0  0
    0.3500    5.7237   10.4265 N   0  0  0  0  0  0  0  0  0  0  0  0
    2.6278    5.0983   10.4447 N   0  0  0  0  0  0  0  0  0  0  0  0
    2.0067    7.2940   10.0464 N   0  0  0  0  0  0  0  0  0  0  0  0
    8.3431    0.2058    9.1985 N   0  0  0  0  0  0  0  0  0  0  0  0
   -2.3303    4.6725   10.1409 C   0  0  2  0  0  0  0  0  0  0  0  0
   -2.3936    6.1931   10.1841 C   0  0  0  0  0  0  0  0  0  0  0  0
   -3.6931    4.1043   10.5857 C   0  0  0  0  0  0  0  0  0  0  0  0
   -2.1773    6.9870    9.0385 C   0  0  0  0  0  0  0  0  0  0  0  0
   -2.5339    6.8277   11.4377 C   0  0  0  0  0  0  0  0  0  0  0  0
    0.0110    4.4454   10.6490 C   0  0  0  0  0  0  0  0  0  0  0  0
   -2.0833    8.3797    9.1578 C   0  0  0  0  0  0  0  0  0  0  0  0
   -2.2539    8.9791   10.4095 C   0  0  0  0  0  0  0  0  0  0  0  0
   -2.4817    8.2123   11.5480 C   0  0  0  0  0  0  0  0  0  0  0  0
    0.9269    3.4404   10.7678 C   0  0  0  0  0  0  0  0  0  0  0  0
   -0.9170    6.5311    6.9335 C   0  0  0  0  0  0  0  0  0  0  0  0
    2.2448    3.8185   10.6446 C   0  0  0  0  0  0  0  0  0  0  0  0
   -2.4196    5.1656    6.0619 C   0  0  0  0  0  0  0  0  0  0  0  0
    1.6530    6.0003   10.3247 C   0  0  0  0  0  0  0  0  0  0  0  0
   -1.1507    5.7382    5.8361 C   0  0  0  0  0  0  0  0  0  0  0  0
    3.3063    2.8166   10.7069 C   0  0  0  0  0  0  0  0  0  0  0  0
    3.3363    1.7586    9.7783 C   0  0  0  0  0  0  0  0  0  0  0  0
    4.2858    2.8628   11.7013 C   0  0  0  0  0  0  0  0  0  0  0  0
    5.2997    0.8336   10.8174 C   0  0  0  0  0  0  0  0  0  0  0  0
   -3.1515    4.2587    5.1396 C   0  0  0  0  0  0  0  0  0  0  0  0
    4.3387    0.7904    9.8114 C   0  0  0  0  0  0  0  0  0  0  0  0
    5.2531    1.8656   11.7660 C   0  0  0  0  0  0  0  0  0  0  0  0
    7.7244    0.6830   10.4589 C   0  0  1  0  0  0  0  0  0  0  0  0
    6.4737   -0.1236   10.8254 C   0  0  0  0  0  0  0  0  0  0  0  0
    8.7407    0.7221   11.6040 C   0  0  0  0  0  0  0  0  0  0  0  0
    8.5066    3.2132   11.8116 C   0  0  0  0  0  0  0  0  0  0  0  0
    8.8525    3.6481   10.3995 C   0  0  0  0  0  0  0  0  0  0  0  0
    2.9819    7.5273   10.1408 H   0  0  0  0  0  0  0  0  0  0  0  0
    1.2843    7.9882   10.1457 H   0  0  0  0  0  0  0  0  0  0  0  0
    9.3602    0.2531    9.2778 H   0  0  0  0  0  0  0  0  0  0  0  0
    8.0921    0.8591    8.4547 H   0  0  0  0  0  0  0  0  0  0  0  0
   -2.1392    4.2786    9.1411 H   0  0  0  0  0  0  0  0  0  0  0  0
   -2.6479    6.2390   12.3485 H   0  0  0  0  0  0  0  0  0  0  0  0
   -1.9290    9.0034    8.2817 H   0  0  0  0  0  0  0  0  0  0  0  0
   -2.6037    8.6747   12.5246 H   0  0  0  0  0  0  0  0  0  0  0  0
    0.6374    2.4189   10.9680 H   0  0  0  0  0  0  0  0  0  0  0  0
   -0.0565    7.1158    7.2241 H   0  0  0  0  0  0  0  0  0  0  0  0
   -0.5003    5.5783    4.9874 H   0  0  0  0  0  0  0  0  0  0  0  0
    2.5731    1.6934    9.0059 H   0  0  0  0  0  0  0  0  0  0  0  0
    4.2930    3.6611   12.4413 H   0  0  0  0  0  0  0  0  0  0  0  0
   -3.3010    4.7513    4.1718 H   0  0  0  0  0  0  0  0  0  0  0  0
   -2.5692    3.3480    4.9626 H   0  0  0  0  0  0  0  0  0  0  0  0
   -4.1328    3.9694    5.5270 H   0  0  0  0  0  0  0  0  0  0  0  0
    4.3720    0.0229    9.0414 H   0  0  0  0  0  0  0  0  0  0  0  0
    6.0125    1.9200   12.5404 H   0  0  0  0  0  0  0  0  0  0  0  0
    7.3869    1.6893   10.2557 H   0  0  0  0  0  0  0  0  0  0  0  0
    6.5440   -0.5857   11.8165 H   0  0  0  0  0  0  0  0  0  0  0  0
    6.2991   -0.9368   10.1097 H   0  0  0  0  0  0  0  0  0  0  0  0
    7.4374    3.2591   12.0044 H   0  0  0  0  0  0  0  0  0  0  0  0
    8.9473    3.9308   12.5140 H   0  0  0  0  0  0  0  0  0  0  0  0
    8.5584    2.9498    9.6186 H   0  0  0  0  0  0  0  0  0  0  0  0
    8.3524    4.5909   10.1672 H   0  0  0  0  0  0  0  0  0  0  0  0
    9.9325    3.7454   10.2899 H   0  0  0  0  0  0  0  0  0  0  0  0
  1 21  1  0  0  0  0
  5 19  1  0  0  0  0
  6 39  1  0  0  0  0
  8 24  1  0  0  0  0
  9  8  1  0  0  0  0
 10 19  1  0  0  0  0
 11 27  1  0  0  0  0
 12 41  1  0  0  0  0
 12 42  1  0  0  0  0
 13 43  1  0  0  0  0
 13 44  1  0  0  0  0
 14  5  1  0  0  0  0
 14 16  1  0  0  0  0
 14 45  1  6  0  0  0
 15 14  1  0  0  0  0
 15 17  1  0  0  0  0
 16  2  1  0  0  0  0
 16  3  1  0  0  0  0
 16  4  1  0  0  0  0
 17  8  1  0  0  0  0
 17 20  2  0  0  0  0
 18 15  2  0  0  0  0
 18 46  1  0  0  0  0
 19 23  2  0  0  0  0
 20 21  1  0  0  0  0
 20 47  1  0  0  0  0
 21 22  2  0  0  0  0
 22 18  1  0  0  0  0
 22 48  1  0  0  0  0
 23 25  1  0  0  0  0
 23 49  1  0  0  0  0
 24 28  2  0  0  0  0
 24 50  1  0  0  0  0
 25 11  2  0  0  0  0
 25 29  1  0  0  0  0
 26  9  2  0  0  0  0
 26 33  1  0  0  0  0
 27 10  2  0  0  0  0
 27 12  1  0  0  0  0
 28 26  1  0  0  0  0
 28 51  1  0  0  0  0
 29 31  1  0  0  0  0
 30 29  2  0  0  0  0
 30 52  1  0  0  0  0
 31 35  2  0  0  0  0
 31 53  1  0  0  0  0
 32 34  2  0  0  0  0
 32 37  1  0  0  0  0
 33 54  1  0  0  0  0
 33 55  1  0  0  0  0
 33 56  1  0  0  0  0
 34 30  1  0  0  0  0
 34 57  1  0  0  0  0
 35 32  1  0  0  0  0
 35 58  1  0  0  0  0
 36 38  1  0  0  0  0
 36 59  1  6  0  0  0
 36 37  1  0  0  0  0
 36 13  1  0  0  0  0
 37 60  1  0  0  0  0
 37 61  1  0  0  0  0
 38  6  1  0  0  0  0
 38  7  2  0  0  0  0
 39 40  1  0  0  0  0
 39 62  1  0  0  0  0
 39 63  1  0  0  0  0
 40 64  1  0  0  0  0
 40 65  1  0  0  0  0
 40 66  1  0  0  0  0
M  END
>  <DRUGBANK_ID>
DB12095

>  <COMMON_NAME>
Telotristat ethyl

>  <CAS_NUMBER>
1033805-22-9

>  <UNII>
8G388563M7

>  <SYNONYMS>
Telotristat ethyl

$$$$
