SK2
 OpenBabel10282417173D

 50 52  0  0  0  0  0  0  0  0999 V2000
    1.0401   -0.0210   -0.0717 O   0  0  0  0  0  0  0  0  0  0  0  0
    0.4897    0.6618   -1.4182 S   0  0  0  0  0  0  0  0  0  0  0  0
    0.8713    2.0527   -1.3587 O   0  0  0  0  0  0  0  0  0  0  0  0
    0.9348   -0.1740   -2.5077 O   0  0  0  0  0  0  0  0  0  0  0  0
   -1.1691    0.5707   -1.3683 N   0  0  0  0  0  0  0  0  0  0  0  0
   -1.9112    0.1406   -0.2399 C   0  0  0  0  0  0  0  0  0  0  0  0
   -3.0788   -0.5992   -0.4572 C   0  0  0  0  0  0  0  0  0  0  0  0
   -1.5569    0.4990    1.0585 C   0  0  0  0  0  0  0  0  0  0  0  0
   -2.3399    0.1033    2.1441 C   0  0  0  0  0  0  0  0  0  0  0  0
   -1.9041    0.4123    3.5527 C   0  0  0  0  0  0  0  0  0  0  0  0
   -3.0182    0.7536    4.4274 N   0  0  0  0  0  0  0  0  0  0  0  0
   -4.3601    0.1821    4.1345 C   0  0  2  0  0  0  0  0  0  0  0  0
   -5.0177   -0.3448    5.4173 C   0  0  0  0  0  0  0  0  0  0  0  0
   -6.1177    0.0686    5.7912 O   0  0  0  0  0  0  0  0  0  0  0  0
   -4.3928   -1.3206    6.1471 N   0  0  0  0  0  0  0  0  0  0  0  0
   -3.1360   -1.9845    5.8841 C   0  0  0  0  0  0  0  0  0  0  0  0
   -4.3647   -0.9769    3.1008 C   0  0  0  0  0  0  0  0  0  0  0  0
   -3.5183   -0.6222    1.9155 C   0  0  0  0  0  0  0  0  0  0  0  0
   -3.8727   -0.9996    0.6199 C   0  0  0  0  0  0  0  0  0  0  0  0
   -2.7933    1.6999    5.4211 C   0  0  0  0  0  0  0  0  0  0  0  0
   -1.6767    2.1631    5.6603 O   0  0  0  0  0  0  0  0  0  0  0  0
   -3.9011    2.0204    6.1360 O   0  0  0  0  0  0  0  0  0  0  0  0
   -3.7202    2.8784    7.2833 C   0  0  0  0  0  0  0  0  0  0  0  0
   -2.8630    2.2899    8.3842 C   0  0  0  0  0  0  0  0  0  0  0  0
   -2.1227    3.1230    9.2342 C   0  0  0  0  0  0  0  0  0  0  0  0
   -1.3855    2.5796   10.2896 C   0  0  0  0  0  0  0  0  0  0  0  0
   -2.8537    0.9104    8.6225 C   0  0  0  0  0  0  0  0  0  0  0  0
   -2.1549    0.3717    9.6994 C   0  0  0  0  0  0  0  0  0  0  0  0
   -1.4013    1.2045   10.5199 C   0  0  0  0  0  0  0  0  0  0  0  0
   -4.9620    1.0093    3.7336 H   0  0  0  0  0  0  0  0  0  0  0  0
    2.0163    0.0289   -0.0817 H   0  0  0  0  0  0  0  0  0  0  0  0
   -1.6586    1.0040   -2.1469 H   0  0  0  0  0  0  0  0  0  0  0  0
   -3.3812   -0.8798   -1.4631 H   0  0  0  0  0  0  0  0  0  0  0  0
   -0.6725    1.1008    1.2442 H   0  0  0  0  0  0  0  0  0  0  0  0
   -1.1516    1.2074    3.5618 H   0  0  0  0  0  0  0  0  0  0  0  0
   -1.4037   -0.4727    3.9623 H   0  0  0  0  0  0  0  0  0  0  0  0
   -4.8899   -1.5609    6.9962 H   0  0  0  0  0  0  0  0  0  0  0  0
   -2.4430   -1.7965    6.7033 H   0  0  0  0  0  0  0  0  0  0  0  0
   -3.3307   -3.0512    5.7675 H   0  0  0  0  0  0  0  0  0  0  0  0
   -2.6651   -1.6436    4.9747 H   0  0  0  0  0  0  0  0  0  0  0  0
   -3.9749   -1.9208    3.4950 H   0  0  0  0  0  0  0  0  0  0  0  0
   -5.3960   -1.2080    2.8082 H   0  0  0  0  0  0  0  0  0  0  0  0
   -4.7712   -1.5878    0.4438 H   0  0  0  0  0  0  0  0  0  0  0  0
   -3.3515    3.8556    6.9517 H   0  0  0  0  0  0  0  0  0  0  0  0
   -4.7158    3.0440    7.7180 H   0  0  0  0  0  0  0  0  0  0  0  0
   -2.1076    4.1992    9.0758 H   0  0  0  0  0  0  0  0  0  0  0  0
   -0.8076    3.2305   10.9404 H   0  0  0  0  0  0  0  0  0  0  0  0
   -3.3928    0.2462    7.9586 H   0  0  0  0  0  0  0  0  0  0  0  0
   -2.2090   -0.6944    9.8983 H   0  0  0  0  0  0  0  0  0  0  0  0
   -0.8259    0.7803   11.3375 H   0  0  0  0  0  0  0  0  0  0  0  0
  1  2  1  0  0  0  0
  1 31  1  0  0  0  0
  2  3  2  0  0  0  0
  2  4  2  0  0  0  0
  2  5  1  0  0  0  0
  5  6  1  0  0  0  0
  5 32  1  0  0  0  0
  6  7  1  0  0  0  0
  6  8  2  0  0  0  0
  7 19  2  0  0  0  0
  7 33  1  0  0  0  0
  8  9  1  0  0  0  0
  8 34  1  0  0  0  0
  9 10  1  0  0  0  0
  9 18  2  0  0  0  0
 10 11  1  0  0  0  0
 10 35  1  0  0  0  0
 10 36  1  0  0  0  0
 11 12  1  0  0  0  0
 11 20  1  0  0  0  0
 12 13  1  0  0  0  0
 12 17  1  0  0  0  0
 12 30  1  6  0  0  0
 13 14  2  0  0  0  0
 13 15  1  0  0  0  0
 15 16  1  0  0  0  0
 15 37  1  0  0  0  0
 16 38  1  0  0  0  0
 16 39  1  0  0  0  0
 16 40  1  0  0  0  0
 17 18  1  0  0  0  0
 17 41  1  0  0  0  0
 17 42  1  0  0  0  0
 18 19  1  0  0  0  0
 19 43  1  0  0  0  0
 20 21  2  0  0  0  0
 20 22  1  0  0  0  0
 22 23  1  0  0  0  0
 23 24  1  0  0  0  0
 23 44  1  0  0  0  0
 23 45  1  0  0  0  0
 24 25  1  0  0  0  0
 24 27  2  0  0  0  0
 25 26  2  0  0  0  0
 25 46  1  0  0  0  0
 26 29  1  0  0  0  0
 26 47  1  0  0  0  0
 27 28  1  0  0  0  0
 27 48  1  0  0  0  0
 28 29  2  0  0  0  0
 28 49  1  0  0  0  0
 29 50  1  0  0  0  0
M  END
>  <DRUGBANK_ID>
DB08549

>  <COMMON_NAME>
(3R)-METHYLCARBAMOYL-7-SULFOAMINO-3,4-DIHYDRO-1H-ISOQUINOLINE-2-CARBOXYLIC ACID BENZYL ESTER

$$$$
