
 OpenBabel10282417203D

 50 54  0  0  0  0  0  0  0  0999 V2000
   -2.1403    0.8066   -0.0452 C   0  0  0  0  0  0  0  0  0  0  0  0
   -2.1465   -0.5853    0.0718 C   0  0  0  0  0  0  0  0  0  0  0  0
   -0.9603   -1.2702    0.3569 C   0  0  0  0  0  0  0  0  0  0  0  0
    0.2429   -0.5707    0.4014 C   0  0  0  0  0  0  0  0  0  0  0  0
    0.2484    0.8093    0.1925 C   0  0  0  0  0  0  0  0  0  0  0  0
   -0.9364    1.5141    0.0291 C   0  0  0  0  0  0  0  0  0  0  0  0
    1.6629    1.3251    0.1577 C   0  0  0  0  0  0  0  0  0  0  0  0
    2.4805    0.0356   -0.1918 C   0  0  0  0  0  0  0  0  0  0  0  0
    1.6650   -1.0449    0.5866 C   0  0  0  0  0  0  0  0  0  0  0  0
    2.6209   -0.0821   -1.6744 N   0  0  0  0  0  0  0  0  0  0  0  0
    3.3132   -1.2669   -2.2264 C   0  0  0  0  0  0  0  0  0  0  0  0
    2.5924   -2.5886   -2.1265 C   0  0  0  0  0  0  0  0  0  0  0  0
    1.2210   -2.6516   -1.9011 C   0  0  0  0  0  0  0  0  0  0  0  0
    0.6643   -3.7817   -1.3110 C   0  0  0  0  0  0  0  0  0  0  0  0
    1.3514   -4.9799   -1.2338 C   0  0  0  0  0  0  0  0  0  0  0  0
    2.6506   -5.0016   -1.7595 C   0  0  0  0  0  0  0  0  0  0  0  0
    3.2587   -3.8030   -2.1626 C   0  0  0  0  0  0  0  0  0  0  0  0
    4.5347   -3.8488   -2.5876 F   0  0  0  0  0  0  0  0  0  0  0  0
    0.6884   -6.1443   -0.6307 C   0  0  0  0  0  0  0  0  0  0  0  0
    1.3341   -6.9332    0.3300 C   0  0  0  0  0  0  0  0  0  0  0  0
    0.6690   -7.9936    0.9471 C   0  0  0  0  0  0  0  0  0  0  0  0
   -0.6717   -8.2414    0.6546 C   0  0  0  0  0  0  0  0  0  0  0  0
   -1.3579   -7.4298   -0.2503 C   0  0  0  0  0  0  0  0  0  0  0  0
   -0.6644   -6.4220   -0.9271 C   0  0  0  0  0  0  0  0  0  0  0  0
   -2.7992   -7.5511   -0.3719 C   0  0  0  0  0  0  0  0  0  0  0  0
   -3.6106   -7.4308    0.7364 N   0  0  0  0  0  0  0  0  0  0  0  0
   -4.8192   -7.5581    0.2479 C   0  0  0  0  0  0  0  0  0  0  0  0
   -4.7412   -7.7757   -1.0891 N   0  0  0  0  0  0  0  0  0  0  0  0
   -3.4674   -7.7398   -1.5189 N   0  0  0  0  0  0  0  0  0  0  0  0
    0.4615   -1.5757   -2.0837 F   0  0  0  0  0  0  0  0  0  0  0  0
   -3.0776    1.3334   -0.2081 H   0  0  0  0  0  0  0  0  0  0  0  0
   -3.0757   -1.1373   -0.0614 H   0  0  0  0  0  0  0  0  0  0  0  0
   -1.0133   -2.3433    0.4758 H   0  0  0  0  0  0  0  0  0  0  0  0
   -0.9343    2.5930   -0.0734 H   0  0  0  0  0  0  0  0  0  0  0  0
    1.9376    1.6834    1.1565 H   0  0  0  0  0  0  0  0  0  0  0  0
    1.7949    2.1283   -0.5717 H   0  0  0  0  0  0  0  0  0  0  0  0
    3.4933    0.1174    0.2181 H   0  0  0  0  0  0  0  0  0  0  0  0
    1.8980   -2.0571    0.2819 H   0  0  0  0  0  0  0  0  0  0  0  0
    1.9133   -1.0153    1.6530 H   0  0  0  0  0  0  0  0  0  0  0  0
    1.6962   -0.0125   -2.1076 H   0  0  0  0  0  0  0  0  0  0  0  0
    3.5109   -1.0828   -3.2902 H   0  0  0  0  0  0  0  0  0  0  0  0
    4.2955   -1.3429   -1.7406 H   0  0  0  0  0  0  0  0  0  0  0  0
   -0.3129   -3.6989   -0.8436 H   0  0  0  0  0  0  0  0  0  0  0  0
    3.2004   -5.9305   -1.8290 H   0  0  0  0  0  0  0  0  0  0  0  0
    2.3552   -6.7065    0.6321 H   0  0  0  0  0  0  0  0  0  0  0  0
    1.1830   -8.6025    1.6849 H   0  0  0  0  0  0  0  0  0  0  0  0
   -1.1940   -9.0535    1.1545 H   0  0  0  0  0  0  0  0  0  0  0  0
   -1.2010   -5.8126   -1.6535 H   0  0  0  0  0  0  0  0  0  0  0  0
   -5.7485   -7.5089    0.7978 H   0  0  0  0  0  0  0  0  0  0  0  0
   -5.4886   -7.9452   -1.7519 H   0  0  0  0  0  0  0  0  0  0  0  0
  1  2  2  0  0  0  0
  1  6  1  0  0  0  0
  1 31  1  0  0  0  0
  2  3  1  0  0  0  0
  2 32  1  0  0  0  0
  3  4  2  0  0  0  0
  3 33  1  0  0  0  0
  4  5  1  0  0  0  0
  4  9  1  0  0  0  0
  5  6  2  0  0  0  0
  5  7  1  0  0  0  0
  6 34  1  0  0  0  0
  7  8  1  0  0  0  0
  7 35  1  0  0  0  0
  7 36  1  0  0  0  0
  8  9  1  0  0  0  0
  8 10  1  0  0  0  0
  8 37  1  0  0  0  0
  9 38  1  0  0  0  0
  9 39  1  0  0  0  0
 10 11  1  0  0  0  0
 10 40  1  0  0  0  0
 11 12  1  0  0  0  0
 11 41  1  0  0  0  0
 11 42  1  0  0  0  0
 12 13  2  0  0  0  0
 12 17  1  0  0  0  0
 13 14  1  0  0  0  0
 13 30  1  0  0  0  0
 14 15  2  0  0  0  0
 14 43  1  0  0  0  0
 15 16  1  0  0  0  0
 15 19  1  0  0  0  0
 16 17  2  0  0  0  0
 16 44  1  0  0  0  0
 17 18  1  0  0  0  0
 19 20  2  0  0  0  0
 19 24  1  0  0  0  0
 20 21  1  0  0  0  0
 20 45  1  0  0  0  0
 21 22  2  0  0  0  0
 21 46  1  0  0  0  0
 22 23  1  0  0  0  0
 22 47  1  0  0  0  0
 23 24  2  0  0  0  0
 23 25  1  0  0  0  0
 24 48  1  0  0  0  0
 25 26  1  0  0  0  0
 25 29  2  0  0  0  0
 26 27  2  0  0  0  0
 27 28  1  0  0  0  0
 27 49  1  0  0  0  0
 28 29  1  0  0  0  0
 28 50  1  0  0  0  0
M  END
>  <DRUGBANK_ID>
DB12886

>  <COMMON_NAME>
GSK-1521498

>  <CAS_NUMBER>
1007573-18-3

>  <UNII>
W0UTB622GK

$$$$
