
 OpenBabel10282417183D

 81 83  0  0  0  0  0  0  0  0999 V2000
    2.4828    0.2316   -2.9501 C   0  0  2  0  0  0  0  0  0  0  0  0
    2.1335    1.5161   -3.3862 C   0  0  2  0  0  0  0  0  0  0  0  0
    1.1003    0.3169   -2.5931 C   0  0  2  0  0  0  0  0  0  0  0  0
    3.7759   -0.0490   -2.1681 C   0  0  0  0  0  0  0  0  0  0  0  0
    1.0456   -0.4408   -2.3295 C   0  0  0  0  0  0  0  0  0  0  0  0
    0.4233    1.7043   -3.4660 C   0  0  2  0  0  0  0  0  0  0  0  0
    3.1020    2.1613   -2.4617 C   0  0  0  0  0  0  0  0  0  0  0  0
    0.6463    2.5126   -2.0018 C   0  0  1  0  0  0  0  0  0  0  0  0
    1.8949   -1.7864   -3.2897 C   0  0  0  0  0  0  0  0  0  0  0  0
    3.7452    1.3519   -1.3883 C   0  0  0  0  0  0  0  0  0  0  0  0
   -0.0344   -0.4996   -4.0738 C   0  0  0  0  0  0  0  0  0  0  0  0
   -0.2975    1.1509   -1.5314 C   0  0  1  0  0  0  0  0  0  0  0  0
   -0.3234    0.8507   -4.3195 C   0  0  1  0  0  0  0  0  0  0  0  0
    0.6652    3.3119   -3.9933 C   0  0  0  0  0  0  0  0  0  0  0  0
    3.6312    3.1651   -2.8914 O   0  0  0  0  0  0  0  0  0  0  0  0
   -1.3623    3.0591   -2.2123 C   0  0  1  0  0  0  0  0  0  0  0  0
   -0.4024    4.0765   -1.3861 O   0  0  0  0  0  0  0  0  0  0  0  0
   -1.5642    2.0183   -1.2365 C   0  0  0  0  0  0  0  0  0  0  0  0
    1.2923    1.1525   -0.6542 O   0  0  0  0  0  0  0  0  0  0  0  0
   -1.3394    0.8758   -5.3297 C   0  0  0  0  0  0  0  0  0  0  0  0
    1.9627    0.0353   -0.2038 C   0  0  0  0  0  0  0  0  0  0  0  0
    1.2775   -1.1127    0.1857 C   0  0  0  0  0  0  0  0  0  0  0  0
    3.1421   -0.1928    0.0145 O   0  0  0  0  0  0  0  0  0  0  0  0
    1.3007   -2.9433   -0.5176 S   0  0  0  0  0  0  0  0  0  0  0  0
    2.4669    1.4312   -4.3731 H   0  0  0  0  0  0  0  0  0  0  0  0
    0.0567   -2.9960   -2.5117 C   0  0  0  0  0  0  0  0  0  0  0  0
   -1.3033   -2.6443   -2.7959 C   0  0  0  0  0  0  0  0  0  0  0  0
   -1.4761   -1.2947   -2.1166 N   0  0  0  0  0  0  0  0  0  0  0  0
   -2.6194   -0.6312   -2.4968 C   0  0  0  0  0  0  0  0  0  0  0  0
   -3.4339   -1.6045   -1.8494 C   0  0  0  0  0  0  0  0  0  0  0  0
   -1.0704   -1.0856   -0.8211 C   0  0  0  0  0  0  0  0  0  0  0  0
   -1.3448   -2.1468    0.0718 C   0  0  0  0  0  0  0  0  0  0  0  0
   -2.6685    4.2070   -2.7902 C   0  0  0  0  0  0  0  0  0  0  0  0
   -3.6873    4.8388   -2.1978 C   0  0  0  0  0  0  0  0  0  0  0  0
   -1.9084    2.6531   -3.4654 C   0  0  0  0  0  0  0  0  0  0  0  0
    0.2959    1.3208   -4.9943 H   0  0  0  0  0  0  0  0  0  0  0  0
    1.6046   -0.5178   -3.8449 H   0  0  0  0  0  0  0  0  0  0  0  0
    4.4432   -0.7484   -1.6343 H   0  0  0  0  0  0  0  0  0  0  0  0
    3.4673   -1.1878   -1.8059 H   0  0  0  0  0  0  0  0  0  0  0  0
    0.9773   -1.3996   -1.8827 H   0  0  0  0  0  0  0  0  0  0  0  0
    2.1022   -0.8329   -1.9916 H   0  0  0  0  0  0  0  0  0  0  0  0
    0.7173    3.4234   -1.0435 H   0  0  0  0  0  0  0  0  0  0  0  0
    2.2279   -3.1794   -3.2890 H   0  0  0  0  0  0  0  0  0  0  0  0
    1.7717   -2.9721   -2.4378 H   0  0  0  0  0  0  0  0  0  0  0  0
    1.3583   -2.5394   -4.3143 H   0  0  0  0  0  0  0  0  0  0  0  0
    4.6252    1.6656   -0.8689 H   0  0  0  0  0  0  0  0  0  0  0  0
    3.2522    1.6130   -0.4205 H   0  0  0  0  0  0  0  0  0  0  0  0
   -1.0924   -0.8291   -4.1867 H   0  0  0  0  0  0  0  0  0  0  0  0
   -0.5455   -1.1175   -3.5409 H   0  0  0  0  0  0  0  0  0  0  0  0
   -0.1901    1.6016   -0.4503 H   0  0  0  0  0  0  0  0  0  0  0  0
    1.5660    3.4195   -4.5184 H   0  0  0  0  0  0  0  0  0  0  0  0
   -0.0965    3.4560   -4.7400 H   0  0  0  0  0  0  0  0  0  0  0  0
    0.5133    4.0444   -3.1698 H   0  0  0  0  0  0  0  0  0  0  0  0
   -0.3592    5.1976   -1.1049 H   0  0  0  0  0  0  0  0  0  0  0  0
   -2.6280    1.8832   -1.1528 H   0  0  0  0  0  0  0  0  0  0  0  0
   -1.6240    1.0250   -1.5138 H   0  0  0  0  0  0  0  0  0  0  0  0
   -2.1573    0.2083   -5.1247 H   0  0  0  0  0  0  0  0  0  0  0  0
   -1.6887    1.8560   -5.3920 H   0  0  0  0  0  0  0  0  0  0  0  0
   -0.7695    0.6378   -6.2015 H   0  0  0  0  0  0  0  0  0  0  0  0
    1.5104   -1.1326    1.1921 H   0  0  0  0  0  0  0  0  0  0  0  0
    0.4160   -0.5644    0.3636 H   0  0  0  0  0  0  0  0  0  0  0  0
    0.2803   -2.2980   -3.3463 H   0  0  0  0  0  0  0  0  0  0  0  0
    0.3360   -3.8540   -3.1470 H   0  0  0  0  0  0  0  0  0  0  0  0
   -1.2212   -2.7186   -3.9907 H   0  0  0  0  0  0  0  0  0  0  0  0
   -1.6214   -3.4560   -2.2252 H   0  0  0  0  0  0  0  0  0  0  0  0
   -2.7685    0.3389   -2.1365 H   0  0  0  0  0  0  0  0  0  0  0  0
   -2.7243   -0.5474   -3.5425 H   0  0  0  0  0  0  0  0  0  0  0  0
   -3.3223   -1.5075   -0.8095 H   0  0  0  0  0  0  0  0  0  0  0  0
   -4.4135   -1.3118   -1.9185 H   0  0  0  0  0  0  0  0  0  0  0  0
   -3.1930   -2.6174   -2.1387 H   0  0  0  0  0  0  0  0  0  0  0  0
   -0.1354   -1.3399   -1.0126 H   0  0  0  0  0  0  0  0  0  0  0  0
   -0.9995   -0.1407   -0.3162 H   0  0  0  0  0  0  0  0  0  0  0  0
   -1.1991   -3.0754   -0.4510 H   0  0  0  0  0  0  0  0  0  0  0  0
   -0.8910   -2.0318    1.0209 H   0  0  0  0  0  0  0  0  0  0  0  0
   -2.2945   -1.8338    0.2768 H   0  0  0  0  0  0  0  0  0  0  0  0
   -2.9107    4.3323   -3.9097 H   0  0  0  0  0  0  0  0  0  0  0  0
   -4.4715    5.3509   -2.7800 H   0  0  0  0  0  0  0  0  0  0  0  0
   -3.7001    4.8653   -1.1363 H   0  0  0  0  0  0  0  0  0  0  0  0
   -0.9365    2.7751   -3.5570 H   0  0  0  0  0  0  0  0  0  0  0  0
   -1.9383    1.6280   -3.4408 H   0  0  0  0  0  0  0  0  0  0  0  0
   -1.9473    3.1728   -4.4426 H   0  0  0  0  0  0  0  0  0  0  0  0
  1  2  1  0  0  0  0
  1  3  1  0  0  0  0
  1  4  1  1  0  0  0
  1  5  1  0  0  0  0
  2  6  1  0  0  0  0
  2  7  1  0  0  0  0
  2 25  1  1  0  0  0
  3  8  1  0  0  0  0
  3  9  1  0  0  0  0
  3 37  1  6  0  0  0
  4 10  1  0  0  0  0
  4 38  1  0  0  0  0
  4 39  1  0  0  0  0
  5 40  1  0  0  0  0
  5 41  1  0  0  0  0
  6 12  1  0  0  0  0
  6 13  1  0  0  0  0
  6 14  1  6  0  0  0
  7 10  1  0  0  0  0
  7 15  2  0  0  0  0
  8 16  1  0  0  0  0
  8 17  1  0  0  0  0
  8 42  1  6  0  0  0
  9 43  1  0  0  0  0
  9 44  1  0  0  0  0
  9 45  1  0  0  0  0
 10 46  1  0  0  0  0
 10 47  1  0  0  0  0
 11 13  1  0  0  0  0
 11  5  1  0  0  0  0
 11 48  1  0  0  0  0
 11 49  1  0  0  0  0
 12 18  1  0  0  0  0
 12 50  1  1  0  0  0
 12 19  1  0  0  0  0
 13 20  1  0  0  0  0
 13 36  1  6  0  0  0
 14 51  1  0  0  0  0
 14 52  1  0  0  0  0
 14 53  1  0  0  0  0
 16 18  1  0  0  0  0
 16 33  1  1  0  0  0
 16 35  1  0  0  0  0
 17 54  1  0  0  0  0
 18 55  1  0  0  0  0
 18 56  1  0  0  0  0
 19 21  1  0  0  0  0
 20 57  1  0  0  0  0
 20 58  1  0  0  0  0
 20 59  1  0  0  0  0
 21 22  1  0  0  0  0
 21 23  2  0  0  0  0
 22 24  1  0  0  0  0
 22 60  1  0  0  0  0
 22 61  1  0  0  0  0
 24 26  1  0  0  0  0
 26 27  1  0  0  0  0
 26 62  1  0  0  0  0
 26 63  1  0  0  0  0
 27 28  1  0  0  0  0
 27 64  1  0  0  0  0
 27 65  1  0  0  0  0
 28 29  1  0  0  0  0
 28 31  1  0  0  0  0
 29 30  1  0  0  0  0
 29 66  1  0  0  0  0
 29 67  1  0  0  0  0
 30 68  1  0  0  0  0
 30 69  1  0  0  0  0
 30 70  1  0  0  0  0
 31 32  1  0  0  0  0
 31 71  1  0  0  0  0
 31 72  1  0  0  0  0
 32 73  1  0  0  0  0
 32 74  1  0  0  0  0
 32 75  1  0  0  0  0
 33 34  2  0  0  0  0
 33 76  1  0  0  0  0
 34 77  1  0  0  0  0
 34 78  1  0  0  0  0
 35 79  1  0  0  0  0
 35 80  1  0  0  0  0
 35 81  1  0  0  0  0
M  END
>  <DRUGBANK_ID>
DB11468

>  <COMMON_NAME>
Tiamulin

>  <CAS_NUMBER>
55297-95-5

>  <UNII>
E38WZ4U54R

>  <SYNONYMS>
Tiamulin; Tiamulina; Tiamuline; Tiamulinum

$$$$
