
 OpenBabel10282417123D

 31 30  0  0  1  0  0  0  0  0999 V2000
    1.0088    0.0535   -0.0377 C   0  0  0  0  0  0  0  0  0  0  0  0
    0.5054   -1.2836    0.5031 C   0  0  1  0  0  0  0  0  0  0  0  0
    1.0281   -1.4333    1.9611 C   0  0  0  0  0  0  0  0  0  0  0  0
    0.5223   -0.3885    2.9699 C   0  0  0  0  0  0  0  0  0  0  0  0
   -0.9958   -0.3662    3.1873 C   0  0  0  0  0  0  0  0  0  0  0  0
   -1.6076   -1.7280    3.6011 C   0  0  0  0  0  0  0  0  0  0  0  0
   -1.1020   -2.0376    5.0035 C   0  0  0  0  0  0  0  0  0  0  0  0
   -3.1281   -1.6910    3.5251 C   0  0  0  0  0  0  0  0  0  0  0  0
   -1.2231   -2.8067    2.7567 O   0  0  0  0  0  0  0  0  0  0  0  0
   -0.9924   -1.3683    0.2568 C   0  0  0  0  0  0  0  0  0  0  0  0
   -1.6663   -2.3605   -0.3222 C   0  0  0  0  0  0  0  0  0  0  0  0
    0.6252    0.8962    0.5489 H   0  0  0  0  0  0  0  0  0  0  0  0
    0.6938    0.2079   -1.0715 H   0  0  0  0  0  0  0  0  0  0  0  0
    2.1020    0.0877    0.0062 H   0  0  0  0  0  0  0  0  0  0  0  0
    0.9758   -2.0886   -0.0755 H   0  0  0  0  0  0  0  0  0  0  0  0
    0.8655   -2.4493    2.3339 H   0  0  0  0  0  0  0  0  0  0  0  0
    2.1256   -1.3666    1.9458 H   0  0  0  0  0  0  0  0  0  0  0  0
    1.0208   -0.5500    3.9334 H   0  0  0  0  0  0  0  0  0  0  0  0
    0.8540    0.6108    2.6655 H   0  0  0  0  0  0  0  0  0  0  0  0
   -1.2306    0.3842    3.9540 H   0  0  0  0  0  0  0  0  0  0  0  0
   -1.4814    0.0589    2.3120 H   0  0  0  0  0  0  0  0  0  0  0  0
   -1.3931   -1.2439    5.6966 H   0  0  0  0  0  0  0  0  0  0  0  0
   -1.4754   -2.9986    5.3607 H   0  0  0  0  0  0  0  0  0  0  0  0
   -0.0085   -2.1178    5.0113 H   0  0  0  0  0  0  0  0  0  0  0  0
   -3.4613   -1.5544    2.4876 H   0  0  0  0  0  0  0  0  0  0  0  0
   -3.5448   -2.6521    3.8481 H   0  0  0  0  0  0  0  0  0  0  0  0
   -3.5465   -0.8925    4.1391 H   0  0  0  0  0  0  0  0  0  0  0  0
   -1.5299   -3.6483    3.1297 H   0  0  0  0  0  0  0  0  0  0  0  0
   -1.6091   -0.5344    0.5763 H   0  0  0  0  0  0  0  0  0  0  0  0
   -2.7550   -2.3159   -0.3567 H   0  0  0  0  0  0  0  0  0  0  0  0
   -1.1790   -3.2401   -0.7249 H   0  0  0  0  0  0  0  0  0  0  0  0
  1 12  1  0  0  0  0
  1 13  1  0  0  0  0
  1 14  1  0  0  0  0
  2  1  1  0  0  0  0
  2  3  1  0  0  0  0
  2 10  1  0  0  0  0
  2 15  1  6  0  0  0
  3  4  1  0  0  0  0
  3 16  1  0  0  0  0
  3 17  1  0  0  0  0
  4  5  1  0  0  0  0
  4 18  1  0  0  0  0
  4 19  1  0  0  0  0
  5  6  1  0  0  0  0
  5 20  1  0  0  0  0
  5 21  1  0  0  0  0
  6  7  1  0  0  0  0
  6  8  1  0  0  0  0
  6  9  1  0  0  0  0
  7 22  1  0  0  0  0
  7 23  1  0  0  0  0
  7 24  1  0  0  0  0
  8 25  1  0  0  0  0
  8 26  1  0  0  0  0
  8 27  1  0  0  0  0
  9 28  1  0  0  0  0
 10 11  2  0  0  0  0
 10 29  1  0  0  0  0
 11 30  1  0  0  0  0
 11 31  1  0  0  0  0
M  END
>  <DRUGBANK_ID>
DB02273

>  <SECONDARY_ACCESSION_NUMBERS>
EXPT01192

>  <COMMON_NAME>
2,6-Dimethyl-7-Octen-2-Ol

>  <CAS_NUMBER>
18479-58-8

>  <UNII>
46L1B02ND9

$$$$
