234
 OpenBabel10282417123D

 46 48  0  0  0  0  0  0  0  0999 V2000
    0.8491    0.0267    0.0271 C   0  0  0  0  0  0  0  0  0  0  0  0
    0.1695    1.2526    0.0449 C   0  0  0  0  0  0  0  0  0  0  0  0
   -1.2372    1.2344    0.0751 C   0  0  0  0  0  0  0  0  0  0  0  0
   -1.9450    0.0114    0.0951 C   0  0  0  0  0  0  0  0  0  0  0  0
   -1.2171   -1.1881    0.0370 C   0  0  0  0  0  0  0  0  0  0  0  0
    0.1715   -1.1834    0.0186 C   0  0  0  0  0  0  0  0  0  0  0  0
    0.9388    2.4796   -0.1061 C   0  0  0  0  0  0  0  0  0  0  0  0
    0.8479    3.4559    0.8437 O   0  0  0  0  0  0  0  0  0  0  0  0
    1.7137    4.5156    0.5106 N   0  0  0  0  0  0  0  0  0  0  0  0
    2.3010    4.1470   -0.6448 C   0  0  0  0  0  0  0  0  0  0  0  0
    1.8448    2.8732   -1.0542 C   0  0  0  0  0  0  0  0  0  0  0  0
    3.2705    4.9585   -1.3822 C   0  0  0  0  0  0  0  0  0  0  0  0
    3.5988    6.1622   -0.8457 O   0  0  0  0  0  0  0  0  0  0  0  0
    3.7613    4.5806   -2.4454 O   0  0  0  0  0  0  0  0  0  0  0  0
   -3.4216    0.0059    0.1318 C   0  0  0  0  0  0  0  0  0  0  0  0
   -5.8355   -1.3500   -2.4581 C   0  0  0  0  0  0  0  0  0  0  0  0
   -4.5337   -0.9735   -2.8273 C   0  0  0  0  0  0  0  0  0  0  0  0
   -4.2104   -0.5768   -4.1157 C   0  0  0  0  0  0  0  0  0  0  0  0
   -5.1875   -0.6057   -5.0923 C   0  0  0  0  0  0  0  0  0  0  0  0
   -6.4911   -1.0088   -4.7647 C   0  0  0  0  0  0  0  0  0  0  0  0
   -6.8489   -1.3759   -3.4436 C   0  0  0  0  0  0  0  0  0  0  0  0
   -8.2499   -1.7777   -3.0552 C   0  0  0  0  0  0  0  0  0  0  0  0
   -8.5992   -2.0503   -1.9152 O   0  0  0  0  0  0  0  0  0  0  0  0
   -9.1053   -1.7758   -4.1109 O   0  0  0  0  0  0  0  0  0  0  0  0
  -10.4553   -2.1326   -3.8078 C   0  0  0  0  0  0  0  0  0  0  0  0
   -7.4035   -1.0482   -5.7856 O   0  0  0  0  0  0  0  0  0  0  0  0
   -6.0685   -1.8720   -1.2065 O   0  0  0  0  0  0  0  0  0  0  0  0
   -5.6702   -1.1111   -0.0523 C   0  0  0  0  0  0  0  0  0  0  0  0
   -4.1826   -1.1066    0.1341 C   0  0  0  0  0  0  0  0  0  0  0  0
    2.1896   -0.0058   -0.0085 F   0  0  0  0  0  0  0  0  0  0  0  0
   -1.7835    2.1764    0.0482 H   0  0  0  0  0  0  0  0  0  0  0  0
   -1.7083   -2.1562    0.0042 H   0  0  0  0  0  0  0  0  0  0  0  0
    0.7212   -2.1187   -0.0076 H   0  0  0  0  0  0  0  0  0  0  0  0
    2.1447    2.3211   -1.9318 H   0  0  0  0  0  0  0  0  0  0  0  0
    3.1323    6.3273   -0.0022 H   0  0  0  0  0  0  0  0  0  0  0  0
   -3.9115    0.9756    0.0593 H   0  0  0  0  0  0  0  0  0  0  0  0
   -3.7009   -1.0322   -2.1450 H   0  0  0  0  0  0  0  0  0  0  0  0
   -3.1859   -0.2901   -4.3414 H   0  0  0  0  0  0  0  0  0  0  0  0
   -4.9090   -0.3281   -6.1043 H   0  0  0  0  0  0  0  0  0  0  0  0
  -10.5025   -3.1565   -3.4256 H   0  0  0  0  0  0  0  0  0  0  0  0
  -10.8902   -1.4280   -3.0921 H   0  0  0  0  0  0  0  0  0  0  0  0
  -11.0389   -2.0843   -4.7327 H   0  0  0  0  0  0  0  0  0  0  0  0
   -6.9903   -0.8113   -6.6300 H   0  0  0  0  0  0  0  0  0  0  0  0
   -6.0936   -1.6290    0.8180 H   0  0  0  0  0  0  0  0  0  0  0  0
   -6.1041   -0.1063   -0.0724 H   0  0  0  0  0  0  0  0  0  0  0  0
   -3.7545   -2.1047    0.1388 H   0  0  0  0  0  0  0  0  0  0  0  0
  1  2  2  0  0  0  0
  1  6  1  0  0  0  0
  1 30  1  0  0  0  0
  2  3  1  0  0  0  0
  2  7  1  0  0  0  0
  3  4  2  0  0  0  0
  3 31  1  0  0  0  0
  4  5  1  0  0  0  0
  4 15  1  0  0  0  0
  5  6  2  0  0  0  0
  5 32  1  0  0  0  0
  6 33  1  0  0  0  0
  7  8  1  0  0  0  0
  7 11  2  0  0  0  0
  8  9  1  0  0  0  0
  9 10  2  0  0  0  0
 10 11  1  0  0  0  0
 10 12  1  0  0  0  0
 11 34  1  0  0  0  0
 12 13  1  0  0  0  0
 12 14  2  0  0  0  0
 13 35  1  0  0  0  0
 15 29  2  0  0  0  0
 15 36  1  0  0  0  0
 16 17  2  0  0  0  0
 16 21  1  0  0  0  0
 16 27  1  0  0  0  0
 17 18  1  0  0  0  0
 17 37  1  0  0  0  0
 18 19  2  0  0  0  0
 18 38  1  0  0  0  0
 19 20  1  0  0  0  0
 19 39  1  0  0  0  0
 20 21  2  0  0  0  0
 20 26  1  0  0  0  0
 21 22  1  0  0  0  0
 22 23  2  0  0  0  0
 22 24  1  0  0  0  0
 24 25  1  0  0  0  0
 25 40  1  0  0  0  0
 25 41  1  0  0  0  0
 25 42  1  0  0  0  0
 26 43  1  0  0  0  0
 27 28  1  0  0  0  0
 28 29  1  0  0  0  0
 28 44  1  0  0  0  0
 28 45  1  0  0  0  0
 29 46  1  0  0  0  0
M  END
>  <DRUGBANK_ID>
DB02014

>  <SECONDARY_ACCESSION_NUMBERS>
EXPT00090

>  <COMMON_NAME>
5-(2-Fluoro-5-{(1E)-3-[3-hydroxy-2-(methoxycarbonyl)phenoxy]-1-propen-1-yl}phenyl)-1,2-oxazole-3-carboxylic acid

>  <SYNONYMS>
5-{2-fluoro-5-[3-(3-hydroxy-2-methoxycarbonyl-phenoxy)-propenyl]-phenyl}-isoxazole-3-carboxylic acid

$$$$
