
 OpenBabel10282417243D

 70 74  0  0  0  0  0  0  0  0999 V2000
   -2.3914    0.0070   -0.1129 C   0  0  0  0  0  0  0  0  0  0  0  0
   -0.9925   -0.0015    0.3134 N   0  0  0  0  0  0  0  0  0  0  0  0
   -0.3317   -1.2268   -0.1640 C   0  0  0  0  0  0  0  0  0  0  0  0
    1.1318   -1.2779    0.2768 C   0  0  0  0  0  0  0  0  0  0  0  0
    1.8312   -0.0310   -0.2341 C   0  0  0  0  0  0  0  0  0  0  0  0
    1.1396    1.2313    0.2655 C   0  0  0  0  0  0  0  0  0  0  0  0
   -0.3171    1.2085   -0.1791 C   0  0  0  0  0  0  0  0  0  0  0  0
    3.2470   -0.0083    0.0815 N   0  0  0  0  0  0  0  0  0  0  0  0
    4.2959    0.0176   -0.8030 C   0  0  0  0  0  0  0  0  0  0  0  0
    5.4513   -0.0571   -0.3932 O   0  0  0  0  0  0  0  0  0  0  0  0
    4.0293    0.0515   -2.2573 C   0  0  0  0  0  0  0  0  0  0  0  0
    4.7264   -0.8240   -3.0501 C   0  0  0  0  0  0  0  0  0  0  0  0
    4.5179   -0.8517   -4.4406 C   0  0  0  0  0  0  0  0  0  0  0  0
    3.4812   -0.1018   -5.1066 C   0  0  0  0  0  0  0  0  0  0  0  0
    2.8260    0.8119   -4.2531 C   0  0  0  0  0  0  0  0  0  0  0  0
    3.1433    0.9177   -2.8852 C   0  0  0  0  0  0  0  0  0  0  0  0
    2.5152    1.8667   -2.1802 F   0  0  0  0  0  0  0  0  0  0  0  0
    2.9386   -0.1887   -6.4533 N   0  0  0  0  0  0  0  0  0  0  0  0
    3.2028   -0.9885   -7.6095 C   0  0  0  0  0  0  0  0  0  0  0  0
    3.9775   -0.4334   -8.5596 N   0  0  0  0  0  0  0  0  0  0  0  0
    4.6587   -1.2828   -9.3671 C   0  0  0  0  0  0  0  0  0  0  0  0
    4.5879   -2.6625   -9.3178 C   0  0  0  0  0  0  0  0  0  0  0  0
    3.7787   -3.1774   -8.3263 C   0  0  0  0  0  0  0  0  0  0  0  0
    2.9856   -2.3348   -7.5730 N   0  0  0  0  0  0  0  0  0  0  0  0
    3.9702   -4.4373   -7.7071 O   0  0  0  0  0  0  0  0  0  0  0  0
    4.4773   -5.5131   -8.4071 C   0  0  0  0  0  0  0  0  0  0  0  0
    3.5581   -6.2712   -9.1428 C   0  0  0  0  0  0  0  0  0  0  0  0
    4.0022   -7.1433  -10.1549 C   0  0  0  0  0  0  0  0  0  0  0  0
    5.3675   -7.2905  -10.4318 C   0  0  0  0  0  0  0  0  0  0  0  0
    6.2789   -6.6493   -9.6032 C   0  0  0  0  0  0  0  0  0  0  0  0
    5.8347   -5.8352   -8.5416 C   0  0  0  0  0  0  0  0  0  0  0  0
    7.0460   -5.1815   -7.9768 C   0  0  0  0  0  0  0  0  0  0  0  0
    7.0511   -4.3611   -7.1032 O   0  0  0  0  0  0  0  0  0  0  0  0
    8.1370   -5.5916   -8.7433 N   0  0  0  0  0  0  0  0  0  0  0  0
    7.7657   -6.5129   -9.7973 C   0  0  0  0  0  0  0  0  0  0  0  0
    9.4386   -4.9543   -8.6771 C   0  0  0  0  0  0  0  0  0  0  0  0
    5.3488   -3.4001  -10.3440 C   0  0  0  0  0  0  0  0  0  0  0  0
    6.5323   -3.8820   -9.9255 F   0  0  0  0  0  0  0  0  0  0  0  0
    4.6342   -4.4140  -10.8853 F   0  0  0  0  0  0  0  0  0  0  0  0
    5.7103   -2.6399  -11.4153 F   0  0  0  0  0  0  0  0  0  0  0  0
    5.5764   -1.6030   -4.9114 O   0  0  0  0  0  0  0  0  0  0  0  0
    5.4741   -1.7431   -6.2699 C   0  0  0  0  0  0  0  0  0  0  0  0
   -2.9085    0.8857    0.2867 H   0  0  0  0  0  0  0  0  0  0  0  0
   -2.4842    0.0165   -1.2051 H   0  0  0  0  0  0  0  0  0  0  0  0
   -2.9140   -0.8747    0.2718 H   0  0  0  0  0  0  0  0  0  0  0  0
   -0.8409   -2.1109    0.2338 H   0  0  0  0  0  0  0  0  0  0  0  0
   -0.3873   -1.2848   -1.2609 H   0  0  0  0  0  0  0  0  0  0  0  0
    1.2117   -1.3462    1.3669 H   0  0  0  0  0  0  0  0  0  0  0  0
    1.6101   -2.1712   -0.1441 H   0  0  0  0  0  0  0  0  0  0  0  0
    1.7080   -0.0901   -1.3140 H   0  0  0  0  0  0  0  0  0  0  0  0
    1.2132    1.2993    1.3575 H   0  0  0  0  0  0  0  0  0  0  0  0
    1.6265    2.1319   -0.1261 H   0  0  0  0  0  0  0  0  0  0  0  0
   -0.3661    1.2598   -1.2762 H   0  0  0  0  0  0  0  0  0  0  0  0
   -0.8117    2.1058    0.2098 H   0  0  0  0  0  0  0  0  0  0  0  0
    3.5273   -0.0303    1.0558 H   0  0  0  0  0  0  0  0  0  0  0  0
    5.4831   -1.4841   -2.6205 H   0  0  0  0  0  0  0  0  0  0  0  0
    2.0522    1.4845   -4.6156 H   0  0  0  0  0  0  0  0  0  0  0  0
    2.5237    0.6841   -6.7677 H   0  0  0  0  0  0  0  0  0  0  0  0
    5.3738   -0.8137  -10.0484 H   0  0  0  0  0  0  0  0  0  0  0  0
    2.4912   -6.1036   -9.0113 H   0  0  0  0  0  0  0  0  0  0  0  0
    3.2665   -7.6314  -10.7919 H   0  0  0  0  0  0  0  0  0  0  0  0
    5.6890   -7.8459  -11.3096 H   0  0  0  0  0  0  0  0  0  0  0  0
    8.0144   -6.0721  -10.7731 H   0  0  0  0  0  0  0  0  0  0  0  0
    8.2920   -7.4567   -9.6519 H   0  0  0  0  0  0  0  0  0  0  0  0
   10.1887   -5.7194   -8.4702 H   0  0  0  0  0  0  0  0  0  0  0  0
    9.6721   -4.4581   -9.6271 H   0  0  0  0  0  0  0  0  0  0  0  0
    9.4603   -4.1989   -7.8853 H   0  0  0  0  0  0  0  0  0  0  0  0
    4.5175   -2.2115   -6.3003 H   0  0  0  0  0  0  0  0  0  0  0  0
    5.6072   -0.7753   -6.7594 H   0  0  0  0  0  0  0  0  0  0  0  0
    6.1068   -2.4692   -6.7448 H   0  0  0  0  0  0  0  0  0  0  0  0
  1  2  1  0  0  0  0
  1 43  1  0  0  0  0
  1 44  1  0  0  0  0
  1 45  1  0  0  0  0
  2  3  1  0  0  0  0
  2  7  1  0  0  0  0
  3  4  1  0  0  0  0
  3 46  1  0  0  0  0
  3 47  1  0  0  0  0
  4  5  1  0  0  0  0
  4 48  1  0  0  0  0
  4 49  1  0  0  0  0
  5  6  1  0  0  0  0
  5  8  1  0  0  0  0
  5 50  1  0  0  0  0
  6  7  1  0  0  0  0
  6 51  1  0  0  0  0
  6 52  1  0  0  0  0
  7 53  1  0  0  0  0
  7 54  1  0  0  0  0
  8  9  1  0  0  0  0
  8 55  1  0  0  0  0
  9 10  2  0  0  0  0
  9 11  1  0  0  0  0
 11 12  2  0  0  0  0
 11 16  1  0  0  0  0
 12 13  1  0  0  0  0
 12 56  1  0  0  0  0
 13 14  2  0  0  0  0
 13 41  1  0  0  0  0
 14 15  1  0  0  0  0
 14 18  1  0  0  0  0
 15 16  2  0  0  0  0
 15 57  1  0  0  0  0
 16 17  1  0  0  0  0
 18 19  1  0  0  0  0
 18 58  1  0  0  0  0
 19 20  2  0  0  0  0
 19 24  1  0  0  0  0
 20 21  1  0  0  0  0
 21 22  2  0  0  0  0
 21 59  1  0  0  0  0
 22 23  1  0  0  0  0
 22 37  1  0  0  0  0
 23 24  2  0  0  0  0
 23 25  1  0  0  0  0
 25 26  1  0  0  0  0
 26 27  2  0  0  0  0
 26 31  1  0  0  0  0
 27 28  1  0  0  0  0
 27 60  1  0  0  0  0
 28 29  2  0  0  0  0
 28 61  1  0  0  0  0
 29 30  1  0  0  0  0
 29 62  1  0  0  0  0
 30 31  2  0  0  0  0
 30 35  1  0  0  0  0
 31 32  1  0  0  0  0
 32 33  2  0  0  0  0
 32 34  1  0  0  0  0
 34 35  1  0  0  0  0
 34 36  1  0  0  0  0
 35 63  1  0  0  0  0
 35 64  1  0  0  0  0
 36 65  1  0  0  0  0
 36 66  1  0  0  0  0
 36 67  1  0  0  0  0
 37 38  1  0  0  0  0
 37 39  1  0  0  0  0
 37 40  1  0  0  0  0
 41 42  1  0  0  0  0
 42 68  1  0  0  0  0
 42 69  1  0  0  0  0
 42 70  1  0  0  0  0
M  END
>  <DRUGBANK_ID>
DB17570

>  <COMMON_NAME>
Ifebemtinib

>  <CAS_NUMBER>
1227948-82-4

>  <UNII>
C57O858DKU

>  <SYNONYMS>
Ifebemtinib

$$$$
