VRV
 OpenBabel10282417173D

 34 36  0  0  0  0  0  0  0  0999 V2000
   -0.5978   -1.1966    0.0315 C   0  0  0  0  0  0  0  0  0  0  0  0
   -1.9932   -1.2055    0.0180 C   0  0  0  0  0  0  0  0  0  0  0  0
   -2.6910    0.0018    0.0027 C   0  0  0  0  0  0  0  0  0  0  0  0
   -2.0083    1.2303    0.0138 C   0  0  0  0  0  0  0  0  0  0  0  0
   -0.6041    1.2249    0.0163 C   0  0  0  0  0  0  0  0  0  0  0  0
    0.0897    0.0155    0.0204 C   0  0  0  0  0  0  0  0  0  0  0  0
   -2.7125    2.5210    0.0410 C   0  0  0  0  0  0  0  0  0  0  0  0
   -2.4955    3.4173   -0.9723 N   0  0  0  0  0  0  0  0  0  0  0  0
   -3.1147    4.6392   -1.0661 C   0  0  0  0  0  0  0  0  0  0  0  0
   -4.0078    5.0260    0.0635 C   0  0  0  0  0  0  0  0  0  0  0  0
   -4.2101    4.1461    1.0716 C   0  0  0  0  0  0  0  0  0  0  0  0
   -3.5420    2.8473    1.0418 C   0  0  0  0  0  0  0  0  0  0  0  0
   -5.1386    4.4653    2.1785 C   0  0  0  0  0  0  0  0  0  0  0  0
   -4.6996    4.4278    3.5066 C   0  0  0  0  0  0  0  0  0  0  0  0
   -5.6221    4.5469    4.5456 C   0  0  0  0  0  0  0  0  0  0  0  0
   -6.9577    4.8344    4.2663 C   0  0  0  0  0  0  0  0  0  0  0  0
   -7.3929    4.9214    2.9474 C   0  0  0  0  0  0  0  0  0  0  0  0
   -6.4915    4.7155    1.9083 C   0  0  0  0  0  0  0  0  0  0  0  0
   -4.6107    6.3163    0.0218 C   0  0  0  0  0  0  0  0  0  0  0  0
   -5.1458    7.3437    0.0482 N   0  0  0  0  0  0  0  0  0  0  0  0
   -2.9297    5.3674   -2.0360 O   0  0  0  0  0  0  0  0  0  0  0  0
   -4.0594   -0.0106   -0.0312 O   0  0  0  0  0  0  0  0  0  0  0  0
    1.9801    0.0151    0.0041 Br  0  0  0  0  0  0  0  0  0  0  0  0
   -0.0550   -2.1381    0.0465 H   0  0  0  0  0  0  0  0  0  0  0  0
   -2.5165   -2.1568    0.0178 H   0  0  0  0  0  0  0  0  0  0  0  0
   -0.0551    2.1644    0.0291 H   0  0  0  0  0  0  0  0  0  0  0  0
   -1.8916    3.1677   -1.7458 H   0  0  0  0  0  0  0  0  0  0  0  0
   -3.7440    2.1468    1.8503 H   0  0  0  0  0  0  0  0  0  0  0  0
   -3.6454    4.2953    3.7412 H   0  0  0  0  0  0  0  0  0  0  0  0
   -5.3044    4.4028    5.5745 H   0  0  0  0  0  0  0  0  0  0  0  0
   -7.6602    4.9955    5.0789 H   0  0  0  0  0  0  0  0  0  0  0  0
   -8.4355    5.1266    2.7217 H   0  0  0  0  0  0  0  0  0  0  0  0
   -6.8543    4.7658    0.8838 H   0  0  0  0  0  0  0  0  0  0  0  0
   -4.3770   -0.9283   -0.0642 H   0  0  0  0  0  0  0  0  0  0  0  0
  1  6  1  0  0  0  0
  1  2  2  0  0  0  0
  1 24  1  0  0  0  0
  2  3  1  0  0  0  0
  2 25  1  0  0  0  0
  3  4  2  0  0  0  0
  3 22  1  0  0  0  0
  4  5  1  0  0  0  0
  4  7  1  0  0  0  0
  5  6  2  0  0  0  0
  5 26  1  0  0  0  0
  6 23  1  0  0  0  0
  7 12  2  0  0  0  0
  7  8  1  0  0  0  0
  8  9  1  0  0  0  0
  8 27  1  0  0  0  0
  9 10  1  0  0  0  0
  9 21  2  0  0  0  0
 10 11  2  0  0  0  0
 10 19  1  0  0  0  0
 11 13  1  0  0  0  0
 11 12  1  0  0  0  0
 12 28  1  0  0  0  0
 13 18  2  0  0  0  0
 13 14  1  0  0  0  0
 14 15  2  0  0  0  0
 14 29  1  0  0  0  0
 15 16  1  0  0  0  0
 15 30  1  0  0  0  0
 16 17  2  0  0  0  0
 16 31  1  0  0  0  0
 17 18  1  0  0  0  0
 17 32  1  0  0  0  0
 18 33  1  0  0  0  0
 19 20  3  0  0  0  0
 22 34  1  0  0  0  0
M  END
>  <DRUGBANK_ID>
DB08705

>  <COMMON_NAME>
6-(5-BROMO-2-HYDROXYPHENYL)-2-OXO-4-PHENYL-1,2-DIHYDROPYRIDINE-3-CARBONITRILE

$$$$
