
 OpenBabel10282417183D

 47 49  0  0  0  0  0  0  0  0999 V2000
   -2.3471   -0.4370    0.0784 O   0  0  0  0  0  0  0  0  0  0  0  0
   -4.5569    4.2205    0.1559 N   0  0  0  0  0  0  0  0  0  0  0  0
   -1.7981    0.9318    0.0964 C   0  0  3  0  0  0  0  0  0  0  0  0
   -1.2847   -1.4318   -0.0133 C   0  0  0  0  0  0  0  0  0  0  0  0
   -0.3088    0.7102   -0.0755 C   0  0  0  0  0  0  0  0  0  0  0  0
   -0.0262   -0.6444   -0.0406 C   0  0  0  0  0  0  0  0  0  0  0  0
   -2.5136    1.7341   -1.0915 C   0  0  0  0  0  0  0  0  0  0  0  0
   -1.9953    1.6357    1.4482 C   0  0  0  0  0  0  0  0  0  0  0  0
   -4.0732    1.9918   -1.0424 C   0  0  0  0  0  0  0  0  0  0  0  0
   -1.3407   -2.2185   -1.3287 C   0  0  0  0  0  0  0  0  0  0  0  0
   -1.3119   -2.3509    1.2102 C   0  0  0  0  0  0  0  0  0  0  0  0
    0.7458    1.6106   -0.0673 C   0  0  0  0  0  0  0  0  0  0  0  0
    1.2700   -1.1483   -0.0246 C   0  0  0  0  0  0  0  0  0  0  0  0
   -4.7717    2.7607    0.1241 C   0  0  0  0  0  0  0  0  0  0  0  0
   -1.9982    1.0388    2.7188 C   0  0  0  0  0  0  0  0  0  0  0  0
   -2.0642    3.0203    1.4540 C   0  0  0  0  0  0  0  0  0  0  0  0
    2.0615    1.1208   -0.0366 C   0  0  0  0  0  0  0  0  0  0  0  0
    2.3236   -0.2540   -0.0208 C   0  0  0  0  0  0  0  0  0  0  0  0
   -2.4767    1.7536    3.8296 C   0  0  0  0  0  0  0  0  0  0  0  0
   -2.4327    3.7576    2.5672 C   0  0  0  0  0  0  0  0  0  0  0  0
   -2.8086    3.0863    3.7219 C   0  0  0  0  0  0  0  0  0  0  0  0
   -4.9985    4.8342    1.4145 C   0  0  0  0  0  0  0  0  0  0  0  0
   -3.5835    4.4538   -0.0059 H   0  0  0  0  0  0  0  0  0  0  0  0
   -2.0157    2.6946   -1.2751 H   0  0  0  0  0  0  0  0  0  0  0  0
   -2.3374    1.1791   -2.0282 H   0  0  0  0  0  0  0  0  0  0  0  0
   -4.3469    2.5204   -1.9694 H   0  0  0  0  0  0  0  0  0  0  0  0
   -4.5650    1.0139   -1.1187 H   0  0  0  0  0  0  0  0  0  0  0  0
   -0.4545   -2.8591   -1.4474 H   0  0  0  0  0  0  0  0  0  0  0  0
   -2.2233   -2.8582   -1.3946 H   0  0  0  0  0  0  0  0  0  0  0  0
   -1.3605   -1.5400   -2.1908 H   0  0  0  0  0  0  0  0  0  0  0  0
   -1.3785   -1.7788    2.1366 H   0  0  0  0  0  0  0  0  0  0  0  0
   -2.1739   -3.0223    1.1994 H   0  0  0  0  0  0  0  0  0  0  0  0
   -0.4047   -2.9608    1.2892 H   0  0  0  0  0  0  0  0  0  0  0  0
    0.5690    2.6800   -0.0237 H   0  0  0  0  0  0  0  0  0  0  0  0
    1.4506   -2.2196   -0.0001 H   0  0  0  0  0  0  0  0  0  0  0  0
   -5.8549    2.6319    0.0157 H   0  0  0  0  0  0  0  0  0  0  0  0
   -4.5299    2.2649    1.0678 H   0  0  0  0  0  0  0  0  0  0  0  0
   -1.6052    0.0499    2.8749 H   0  0  0  0  0  0  0  0  0  0  0  0
   -1.9372    3.5649    0.5231 H   0  0  0  0  0  0  0  0  0  0  0  0
    2.8967    1.8134    0.0008 H   0  0  0  0  0  0  0  0  0  0  0  0
    3.3421   -0.6303    0.0075 H   0  0  0  0  0  0  0  0  0  0  0  0
   -2.5732    1.2670    4.8009 H   0  0  0  0  0  0  0  0  0  0  0  0
   -2.5571    4.8245    2.4718 H   0  0  0  0  0  0  0  0  0  0  0  0
   -3.3200    3.6263    4.5114 H   0  0  0  0  0  0  0  0  0  0  0  0
   -4.8279    4.2157    2.3004 H   0  0  0  0  0  0  0  0  0  0  0  0
   -4.4517    5.7752    1.5758 H   0  0  0  0  0  0  0  0  0  0  0  0
   -6.0621    5.0669    1.4078 H   0  0  0  0  0  0  0  0  0  0  0  0
  1  3  1  0  0  0  0
  1  4  1  0  0  0  0
  2 14  1  0  0  0  0
  2 22  1  0  0  0  0
  2 23  1  0  0  0  0
  3  5  1  0  0  0  0
  3  7  1  0  0  0  0
  3  8  1  0  0  0  0
  4  6  1  0  0  0  0
  4 10  1  0  0  0  0
  4 11  1  0  0  0  0
  5  6  1  0  0  0  0
  5 12  2  0  0  0  0
  6 13  2  0  0  0  0
  7  9  1  0  0  0  0
  7 24  1  0  0  0  0
  7 25  1  0  0  0  0
  8 15  2  0  0  0  0
  8 16  1  0  0  0  0
  9 14  1  0  0  0  0
  9 26  1  0  0  0  0
  9 27  1  0  0  0  0
 10 28  1  0  0  0  0
 10 29  1  0  0  0  0
 10 30  1  0  0  0  0
 11 31  1  0  0  0  0
 11 32  1  0  0  0  0
 11 33  1  0  0  0  0
 12 17  1  0  0  0  0
 12 34  1  0  0  0  0
 13 18  1  0  0  0  0
 13 35  1  0  0  0  0
 14 36  1  0  0  0  0
 14 37  1  0  0  0  0
 15 19  1  0  0  0  0
 15 38  1  0  0  0  0
 16 20  2  0  0  0  0
 16 39  1  0  0  0  0
 17 18  2  0  0  0  0
 17 40  1  0  0  0  0
 18 41  1  0  0  0  0
 19 21  2  0  0  0  0
 19 42  1  0  0  0  0
 20 21  1  0  0  0  0
 20 43  1  0  0  0  0
 21 44  1  0  0  0  0
 22 45  1  0  0  0  0
 22 46  1  0  0  0  0
 22 47  1  0  0  0  0
M  END
>  <DRUGBANK_ID>
DB09190

>  <COMMON_NAME>
Talopram

>  <CAS_NUMBER>
7182-51-6

>  <UNII>
5PY881HC79

>  <SYNONYMS>
Phthalapromine; Talopram

$$$$
