
 OpenBabel10282417203D

 33 34  0  0  1  0  0  0  0  0999 V2000
   -4.8172   -1.9845    1.9686 C   0  0  0  0  0  0  0  0  0  0  0  0
   -5.5032   -1.6680    3.1377 C   0  0  0  0  0  0  0  0  0  0  0  0
   -5.5864   -0.3459    3.5386 C   0  0  0  0  0  0  0  0  0  0  0  0
   -4.9829    0.6670    2.7930 C   0  0  0  0  0  0  0  0  0  0  0  0
   -4.3044    0.3630    1.6204 C   0  0  0  0  0  0  0  0  0  0  0  0
   -4.2120   -0.9740    1.1969 C   0  0  0  0  0  0  0  0  0  0  0  0
   -3.3995   -1.3766   -0.0175 C   0  0  2  0  0  0  0  0  0  0  0  0
   -1.9542   -0.7935   -0.0040 C   0  0  2  0  0  0  0  0  0  0  0  0
   -1.1674   -1.4180   -1.1676 C   0  0  0  0  0  0  0  0  0  0  0  0
    0.3061   -1.0377   -1.1361 C   0  0  0  0  0  0  0  0  0  0  0  0
    0.8965   -1.2801    0.2482 C   0  0  0  0  0  0  0  0  0  0  0  0
    0.0816   -0.5730    1.3218 C   0  0  0  0  0  0  0  0  0  0  0  0
   -1.2914   -1.0501    1.2893 N   0  0  0  0  0  0  0  0  0  0  0  0
   -4.0919   -0.9893   -1.2044 O   0  0  0  0  0  0  0  0  0  0  0  0
   -5.0675    1.9473    3.2629 O   0  0  0  0  0  0  0  0  0  0  0  0
   -6.2671   -0.0452    4.6819 O   0  0  0  0  0  0  0  0  0  0  0  0
   -4.7303   -3.0276    1.6708 H   0  0  0  0  0  0  0  0  0  0  0  0
   -5.9597   -2.4523    3.7353 H   0  0  0  0  0  0  0  0  0  0  0  0
   -3.8119    1.1485    1.0536 H   0  0  0  0  0  0  0  0  0  0  0  0
   -3.3216   -2.4710   -0.0464 H   0  0  0  0  0  0  0  0  0  0  0  0
   -2.0015    0.2920   -0.1749 H   0  0  0  0  0  0  0  0  0  0  0  0
   -1.6014   -1.1052   -2.1253 H   0  0  0  0  0  0  0  0  0  0  0  0
   -1.2529   -2.5113   -1.1235 H   0  0  0  0  0  0  0  0  0  0  0  0
    0.8494   -1.6253   -1.8834 H   0  0  0  0  0  0  0  0  0  0  0  0
    0.4173    0.0190   -1.4060 H   0  0  0  0  0  0  0  0  0  0  0  0
    0.9092   -2.3586    0.4540 H   0  0  0  0  0  0  0  0  0  0  0  0
    1.9332   -0.9323    0.2788 H   0  0  0  0  0  0  0  0  0  0  0  0
    0.5046   -0.7945    2.3075 H   0  0  0  0  0  0  0  0  0  0  0  0
    0.1149    0.5154    1.1921 H   0  0  0  0  0  0  0  0  0  0  0  0
   -1.8216   -0.6216    2.0497 H   0  0  0  0  0  0  0  0  0  0  0  0
   -4.2650   -0.0369   -1.1514 H   0  0  0  0  0  0  0  0  0  0  0  0
   -4.5785    2.5293    2.6545 H   0  0  0  0  0  0  0  0  0  0  0  0
   -6.2186    0.9275    4.7519 H   0  0  0  0  0  0  0  0  0  0  0  0
  1  2  2  0  0  0  0
  1  6  1  0  0  0  0
  1 17  1  0  0  0  0
  2  3  1  0  0  0  0
  2 18  1  0  0  0  0
  3  4  2  0  0  0  0
  3 16  1  0  0  0  0
  4  5  1  0  0  0  0
  4 15  1  0  0  0  0
  5  6  2  0  0  0  0
  5 19  1  0  0  0  0
  7 14  1  0  0  0  0
  7 20  1  6  0  0  0
  7  8  1  0  0  0  0
  7  6  1  0  0  0  0
  8  9  1  0  0  0  0
  8 13  1  0  0  0  0
  8 21  1  6  0  0  0
  9 10  1  0  0  0  0
  9 22  1  0  0  0  0
  9 23  1  0  0  0  0
 10 11  1  0  0  0  0
 10 24  1  0  0  0  0
 10 25  1  0  0  0  0
 11 12  1  0  0  0  0
 11 26  1  0  0  0  0
 11 27  1  0  0  0  0
 12 13  1  0  0  0  0
 12 28  1  0  0  0  0
 12 29  1  0  0  0  0
 13 30  1  0  0  0  0
 14 31  1  0  0  0  0
 15 32  1  0  0  0  0
 16 33  1  0  0  0  0
M  END
>  <DRUGBANK_ID>
DB13559

>  <COMMON_NAME>
Rimiterol

>  <CAS_NUMBER>
32953-89-2

>  <UNII>
26GIW6ZLPH

>  <SYNONYMS>
Rimiterol

$$$$
