
 OpenBabel10282417143D

 87 90  0  0  1  0  0  0  0  0999 V2000
    0.8625   -0.0769   -0.0742 S   0  0  0  0  0  0  0  0  0  0  0  0
    4.6906    2.6995    3.6066 O   0  0  0  0  0  0  0  0  0  0  0  0
    5.6615    4.3226   -1.5337 O   0  0  0  0  0  0  0  0  0  0  0  0
    0.4007    0.7618    0.9837 O   0  0  0  0  0  0  0  0  0  0  0  0
    0.3335    0.0386   -1.4380 O   0  0  0  0  0  0  0  0  0  0  0  0
    0.8558   -1.8776    1.7337 O   0  0  0  0  0  0  0  0  0  0  0  0
    4.5757    6.1906   -0.7295 N   0  0  0  0  0  0  0  0  0  0  0  0
    4.0598    8.9972   -1.4386 N   0  0  0  0  0  0  0  0  0  0  0  0
    3.5164    2.1688    1.8051 N   0  0  0  0  0  0  0  0  0  0  0  0
    5.5143    4.5797    0.7482 N   0  0  0  0  0  0  0  0  0  0  0  0
    0.4527   -1.6319    0.3615 N   0  0  0  0  0  0  0  0  0  0  0  0
    2.7813    2.3016    0.5443 C   0  0  2  0  0  0  0  0  0  0  0  0
    3.2144    1.2757   -0.4908 C   0  0  0  0  0  0  0  0  0  0  0  0
    3.2066    3.4253   -0.2621 C   0  0  0  0  0  0  0  0  0  0  0  0
    5.4399    7.2338   -0.2553 C   0  0  0  0  0  0  0  0  0  0  0  0
    3.8806    6.6099   -2.0154 C   0  0  0  0  0  0  0  0  0  0  0  0
    4.7474    8.5847   -0.1947 C   0  0  0  0  0  0  0  0  0  0  0  0
    3.1352    7.9397   -1.8395 C   0  0  0  0  0  0  0  0  0  0  0  0
    4.5729    4.5508    1.9836 C   0  0  2  0  0  0  0  0  0  0  0  0
    2.6419   -0.0329   -0.2334 C   0  0  0  0  0  0  0  0  0  0  0  0
    2.5414    3.8533   -1.5115 C   0  0  0  0  0  0  0  0  0  0  0  0
    4.2819    3.0752    2.4994 C   0  0  0  0  0  0  0  0  0  0  0  0
    5.2924    5.0056   -0.5786 C   0  0  0  0  0  0  0  0  0  0  0  0
    3.2425    5.3969    1.9471 C   0  0  0  0  0  0  0  0  0  0  0  0
    5.0098    9.1843   -2.5356 C   0  0  0  0  0  0  0  0  0  0  0  0
    1.0995    4.1264   -1.4090 C   0  0  0  0  0  0  0  0  0  0  0  0
    2.5375    5.5496    3.2360 C   0  0  0  0  0  0  0  0  0  0  0  0
    0.3491    2.9840   -1.4095 C   0  0  0  0  0  0  0  0  0  0  0  0
    0.4788    5.3586   -1.2431 C   0  0  0  0  0  0  0  0  0  0  0  0
    1.9978    4.4346    3.8915 C   0  0  0  0  0  0  0  0  0  0  0  0
    2.3157    6.8353    3.6898 C   0  0  0  0  0  0  0  0  0  0  0  0
   -0.9906    2.9914   -1.1364 C   0  0  0  0  0  0  0  0  0  0  0  0
   -0.8910    5.3959   -1.0117 C   0  0  0  0  0  0  0  0  0  0  0  0
    1.4210    4.5888    5.1279 C   0  0  0  0  0  0  0  0  0  0  0  0
    1.7596    6.9906    4.9374 C   0  0  0  0  0  0  0  0  0  0  0  0
   -1.6224    4.2084   -0.9682 C   0  0  0  0  0  0  0  0  0  0  0  0
    1.3212    5.8713    5.6548 C   0  0  0  0  0  0  0  0  0  0  0  0
    2.2755   -2.1002    1.8230 C   0  0  0  0  0  0  0  0  0  0  0  0
    2.8151   -3.0296    0.7522 C   0  0  0  0  0  0  0  0  0  0  0  0
    3.7910   -2.7364   -0.2233 C   0  0  0  0  0  0  0  0  0  0  0  0
    2.2675   -4.3099    0.7506 C   0  0  0  0  0  0  0  0  0  0  0  0
    4.1163   -3.6508   -1.2277 C   0  0  0  0  0  0  0  0  0  0  0  0
    2.7137   -5.2734   -0.1444 C   0  0  0  0  0  0  0  0  0  0  0  0
    3.5958   -4.9336   -1.1660 C   0  0  0  0  0  0  0  0  0  0  0  0
    3.2379    1.3957    2.4072 H   0  0  0  0  0  0  0  0  0  0  0  0
    6.1033    3.7519    0.7333 H   0  0  0  0  0  0  0  0  0  0  0  0
   -0.5706   -1.6610    0.2895 H   0  0  0  0  0  0  0  0  0  0  0  0
    1.7363    2.4255    0.8048 H   0  0  0  0  0  0  0  0  0  0  0  0
    4.3207    1.2021   -0.4871 H   0  0  0  0  0  0  0  0  0  0  0  0
    2.9708    1.5200   -1.5271 H   0  0  0  0  0  0  0  0  0  0  0  0
    3.2008    4.3161    0.2635 H   0  0  0  0  0  0  0  0  0  0  0  0
    4.2399    3.1783   -0.4355 H   0  0  0  0  0  0  0  0  0  0  0  0
    5.8518    6.9744    0.7252 H   0  0  0  0  0  0  0  0  0  0  0  0
    6.2841    7.2429   -0.9563 H   0  0  0  0  0  0  0  0  0  0  0  0
    4.6165    6.5530   -2.8159 H   0  0  0  0  0  0  0  0  0  0  0  0
    3.0944    6.0168   -2.4807 H   0  0  0  0  0  0  0  0  0  0  0  0
    4.0170    8.5586    0.6256 H   0  0  0  0  0  0  0  0  0  0  0  0
    5.5035    9.3235    0.0714 H   0  0  0  0  0  0  0  0  0  0  0  0
    2.3315    7.8637   -1.0931 H   0  0  0  0  0  0  0  0  0  0  0  0
    2.6231    8.1866   -2.7807 H   0  0  0  0  0  0  0  0  0  0  0  0
    5.2068    4.9820    2.7713 H   0  0  0  0  0  0  0  0  0  0  0  0
    3.2256   -0.2487    0.6400 H   0  0  0  0  0  0  0  0  0  0  0  0
    2.9106   -0.6354   -1.0926 H   0  0  0  0  0  0  0  0  0  0  0  0
    2.9562    4.7993   -1.5269 H   0  0  0  0  0  0  0  0  0  0  0  0
    2.9057    3.3579   -2.4087 H   0  0  0  0  0  0  0  0  0  0  0  0
    3.4394    6.3589    1.4756 H   0  0  0  0  0  0  0  0  0  0  0  0
    2.3597    5.0032    1.4286 H   0  0  0  0  0  0  0  0  0  0  0  0
    5.5693    8.2814   -2.8023 H   0  0  0  0  0  0  0  0  0  0  0  0
    4.4699    9.4991   -3.4342 H   0  0  0  0  0  0  0  0  0  0  0  0
    5.7384    9.9457   -2.2709 H   0  0  0  0  0  0  0  0  0  0  0  0
    0.8907    2.0796   -1.5917 H   0  0  0  0  0  0  0  0  0  0  0  0
    1.0233    6.2906   -1.2846 H   0  0  0  0  0  0  0  0  0  0  0  0
    2.0126    3.4413    3.4513 H   0  0  0  0  0  0  0  0  0  0  0  0
    2.5803    7.6869    3.0665 H   0  0  0  0  0  0  0  0  0  0  0  0
   -1.4995    2.0403   -1.0543 H   0  0  0  0  0  0  0  0  0  0  0  0
   -1.3866    6.3468   -0.8467 H   0  0  0  0  0  0  0  0  0  0  0  0
    1.0807    3.7097    5.6654 H   0  0  0  0  0  0  0  0  0  0  0  0
    1.6943    7.9872    5.3527 H   0  0  0  0  0  0  0  0  0  0  0  0
   -2.6923    4.2210   -0.8172 H   0  0  0  0  0  0  0  0  0  0  0  0
    0.8778    6.0042    6.6314 H   0  0  0  0  0  0  0  0  0  0  0  0
    2.7215   -1.1248    1.9217 H   0  0  0  0  0  0  0  0  0  0  0  0
    2.5127   -2.5019    2.8073 H   0  0  0  0  0  0  0  0  0  0  0  0
    4.3265   -1.7934   -0.2702 H   0  0  0  0  0  0  0  0  0  0  0  0
    1.4901   -4.5514    1.4712 H   0  0  0  0  0  0  0  0  0  0  0  0
    4.8014   -3.3729   -2.0275 H   0  0  0  0  0  0  0  0  0  0  0  0
    2.3660   -6.2931   -0.0330 H   0  0  0  0  0  0  0  0  0  0  0  0
    3.8899   -5.6764   -1.8999 H   0  0  0  0  0  0  0  0  0  0  0  0
  1  4  2  0  0  0  0
  1  5  2  0  0  0  0
  1 11  1  0  0  0  0
  1 20  1  0  0  0  0
  2 22  2  0  0  0  0
  3 23  2  0  0  0  0
  6 11  1  0  0  0  0
  6 38  1  0  0  0  0
  7 15  1  0  0  0  0
  7 16  1  0  0  0  0
  7 23  1  0  0  0  0
  8 17  1  0  0  0  0
  8 18  1  0  0  0  0
  8 25  1  0  0  0  0
  9 22  1  0  0  0  0
  9 45  1  0  0  0  0
 10 23  1  0  0  0  0
 10 46  1  0  0  0  0
 11 47  1  0  0  0  0
 12  9  1  0  0  0  0
 12 13  1  0  0  0  0
 12 14  1  0  0  0  0
 12 48  1  1  0  0  0
 13 20  1  0  0  0  0
 13 49  1  0  0  0  0
 13 50  1  0  0  0  0
 14 21  1  0  0  0  0
 14 51  1  0  0  0  0
 14 52  1  0  0  0  0
 15 17  1  0  0  0  0
 15 53  1  0  0  0  0
 15 54  1  0  0  0  0
 16 18  1  0  0  0  0
 16 55  1  0  0  0  0
 16 56  1  0  0  0  0
 17 57  1  0  0  0  0
 17 58  1  0  0  0  0
 18 59  1  0  0  0  0
 18 60  1  0  0  0  0
 19 10  1  0  0  0  0
 19 22  1  0  0  0  0
 19 24  1  0  0  0  0
 19 61  1  1  0  0  0
 20 62  1  0  0  0  0
 20 63  1  0  0  0  0
 21 26  1  0  0  0  0
 21 64  1  0  0  0  0
 21 65  1  0  0  0  0
 24 27  1  0  0  0  0
 24 66  1  0  0  0  0
 24 67  1  0  0  0  0
 25 68  1  0  0  0  0
 25 69  1  0  0  0  0
 25 70  1  0  0  0  0
 26 28  2  0  0  0  0
 26 29  1  0  0  0  0
 27 30  2  0  0  0  0
 27 31  1  0  0  0  0
 28 32  1  0  0  0  0
 28 71  1  0  0  0  0
 29 33  2  0  0  0  0
 29 72  1  0  0  0  0
 30 34  1  0  0  0  0
 30 73  1  0  0  0  0
 31 35  2  0  0  0  0
 31 74  1  0  0  0  0
 32 36  2  0  0  0  0
 32 75  1  0  0  0  0
 33 36  1  0  0  0  0
 33 76  1  0  0  0  0
 34 37  2  0  0  0  0
 34 77  1  0  0  0  0
 35 37  1  0  0  0  0
 35 78  1  0  0  0  0
 36 79  1  0  0  0  0
 37 80  1  0  0  0  0
 38 39  1  0  0  0  0
 38 81  1  0  0  0  0
 38 82  1  0  0  0  0
 39 40  2  0  0  0  0
 39 41  1  0  0  0  0
 40 42  1  0  0  0  0
 40 83  1  0  0  0  0
 41 43  2  0  0  0  0
 41 84  1  0  0  0  0
 42 44  2  0  0  0  0
 42 85  1  0  0  0  0
 43 44  1  0  0  0  0
 43 86  1  0  0  0  0
 44 87  1  0  0  0  0
M  END
>  <DRUGBANK_ID>
DB04427

>  <SECONDARY_ACCESSION_NUMBERS>
EXPT03234

>  <COMMON_NAME>
N-{(3S)-1-[(Benzyloxy)sulfamoyl]-5-phenyl-3-pentanyl}-NÎ±-[(4-methyl-1-piperazinyl)carbonyl]-L-phenylalaninamide

$$$$
