
 OpenBabel10282417123D

 78 79  0  0  1  0  0  0  0  0999 V2000
  -11.0102   11.7598   -9.0269 C   0  0  0  0  0  0  0  0  0  0  0  0
  -11.1622   10.5662   -8.0980 C   0  0  0  0  0  0  0  0  0  0  0  0
  -10.4488    9.3422   -8.6734 C   0  0  0  0  0  0  0  0  0  0  0  0
   -8.9495    9.6004   -8.8588 C   0  0  0  0  0  0  0  0  0  0  0  0
   -8.2856    9.9645   -7.5252 C   0  0  0  0  0  0  0  0  0  0  0  0
   -8.4225    8.8089   -6.5311 C   0  0  0  0  0  0  0  0  0  0  0  0
   -7.7637    7.5531   -7.1082 C   0  0  0  0  0  0  0  0  0  0  0  0
   -6.2722    7.8143   -7.3673 C   0  0  0  0  0  0  0  0  0  0  0  0
   -5.5497    8.1119   -6.0515 C   0  0  0  0  0  0  0  0  0  0  0  0
   -5.7342    6.9180   -5.1153 C   0  0  0  0  0  0  0  0  0  0  0  0
   -5.1023    5.6610   -5.7277 C   0  0  0  0  0  0  0  0  0  0  0  0
   -2.2853   10.5921   -2.4686 C   0  0  0  0  0  0  0  0  0  0  0  0
    0.3399    7.5154   -3.8321 C   0  0  0  0  0  0  0  0  0  0  0  0
   -2.2334    9.1360   -1.9865 C   0  0  2  0  0  0  0  0  0  0  0  0
   -0.9839    6.7220   -3.7632 C   0  0  2  0  0  0  0  0  0  0  0  0
   -3.6671    8.5883   -2.0133 C   0  0  2  0  0  0  0  0  0  0  0  0
   -3.7244    7.1279   -1.5573 C   0  0  1  0  0  0  0  0  0  0  0  0
   -2.1022    4.7149   -2.5981 C   0  0  2  0  0  0  0  0  0  0  0  0
   -2.9083    6.8232   -0.2816 C   0  0  2  0  0  0  0  0  0  0  0  0
   -2.9298    4.5486   -3.8916 C   0  0  2  0  0  0  0  0  0  0  0  0
   -0.9412    5.7353   -2.6013 C   0  0  2  0  0  0  0  0  0  0  0  0
   -2.9060    5.8277   -4.7649 C   0  0  2  0  0  0  0  0  0  0  0  0
   -1.4801    7.3172   -0.5522 C   0  0  2  0  0  0  0  0  0  0  0  0
   -1.0101   11.2023   -2.4478 O   0  0  0  0  0  0  0  0  0  0  0  0
    0.1810    8.7256   -4.5650 O   0  0  0  0  0  0  0  0  0  0  0  0
   -4.2029    8.7620   -3.3298 O   0  0  0  0  0  0  0  0  0  0  0  0
   -5.0101    6.5163   -1.6317 O   0  0  0  0  0  0  0  0  0  0  0  0
   -1.6876    3.4983   -1.9492 O   0  0  0  0  0  0  0  0  0  0  0  0
   -2.9234    5.4592    0.1661 O   0  0  0  0  0  0  0  0  0  0  0  0
   -4.2663    4.2158   -3.4505 O   0  0  0  0  0  0  0  0  0  0  0  0
   -3.6793    5.7383   -5.9607 O   0  0  0  0  0  0  0  0  0  0  0  0
   -1.4833    8.7538   -0.8390 O   0  0  0  0  0  0  0  0  0  0  0  0
   -1.5124    6.1957   -4.9928 O   0  0  0  0  0  0  0  0  0  0  0  0
   -0.6484    6.4122   -1.3388 O   0  0  0  0  0  0  0  0  0  0  0  0
   -1.5720    8.8142   -2.7564 H   0  0  0  0  0  0  0  0  0  0  0  0
   -1.7430    7.4275   -3.5458 H   0  0  0  0  0  0  0  0  0  0  0  0
   -4.3273    9.1590   -1.3616 H   0  0  0  0  0  0  0  0  0  0  0  0
   -3.2354    6.6695   -2.3769 H   0  0  0  0  0  0  0  0  0  0  0  0
   -2.8585    4.9956   -1.9036 H   0  0  0  0  0  0  0  0  0  0  0  0
   -3.3620    7.3846    0.5380 H   0  0  0  0  0  0  0  0  0  0  0  0
   -2.5795    3.7075   -4.4883 H   0  0  0  0  0  0  0  0  0  0  0  0
   -0.0508    5.1147   -2.7769 H   0  0  0  0  0  0  0  0  0  0  0  0
   -3.3702    6.6550   -4.2510 H   0  0  0  0  0  0  0  0  0  0  0  0
   -0.9661    7.2766    0.4165 H   0  0  0  0  0  0  0  0  0  0  0  0
   -9.9614   12.0407   -9.1679 H   0  0  0  0  0  0  0  0  0  0  0  0
  -11.5193   12.6340   -8.6197 H   0  0  0  0  0  0  0  0  0  0  0  0
  -11.4297   11.5221  -10.0088 H   0  0  0  0  0  0  0  0  0  0  0  0
  -10.7732   10.8197   -7.1046 H   0  0  0  0  0  0  0  0  0  0  0  0
  -12.2205   10.3358   -7.9478 H   0  0  0  0  0  0  0  0  0  0  0  0
  -10.6181    8.4810   -8.0149 H   0  0  0  0  0  0  0  0  0  0  0  0
  -10.8918    9.0596   -9.6333 H   0  0  0  0  0  0  0  0  0  0  0  0
   -8.4841    8.7201   -9.3149 H   0  0  0  0  0  0  0  0  0  0  0  0
   -8.7647   10.3909   -9.5899 H   0  0  0  0  0  0  0  0  0  0  0  0
   -7.2363   10.2243   -7.6973 H   0  0  0  0  0  0  0  0  0  0  0  0
   -8.7037   10.8770   -7.0929 H   0  0  0  0  0  0  0  0  0  0  0  0
   -7.9858    9.0950   -5.5684 H   0  0  0  0  0  0  0  0  0  0  0  0
   -9.4692    8.6007   -6.2891 H   0  0  0  0  0  0  0  0  0  0  0  0
   -7.9386    6.7077   -6.4374 H   0  0  0  0  0  0  0  0  0  0  0  0
   -8.2438    7.2185   -8.0310 H   0  0  0  0  0  0  0  0  0  0  0  0
   -5.8315    6.9557   -7.8776 H   0  0  0  0  0  0  0  0  0  0  0  0
   -6.1077    8.6289   -8.0769 H   0  0  0  0  0  0  0  0  0  0  0  0
   -4.4899    8.3097   -6.2393 H   0  0  0  0  0  0  0  0  0  0  0  0
   -5.9310    9.0323   -5.5892 H   0  0  0  0  0  0  0  0  0  0  0  0
   -5.3474    7.1231   -4.1263 H   0  0  0  0  0  0  0  0  0  0  0  0
   -6.7928    6.7473   -4.8907 H   0  0  0  0  0  0  0  0  0  0  0  0
   -5.3765    4.7939   -5.1387 H   0  0  0  0  0  0  0  0  0  0  0  0
   -5.5613    5.4337   -6.6894 H   0  0  0  0  0  0  0  0  0  0  0  0
   -2.6023   10.5849   -3.5270 H   0  0  0  0  0  0  0  0  0  0  0  0
   -3.0085   11.1867   -1.9147 H   0  0  0  0  0  0  0  0  0  0  0  0
    0.6572    7.8287   -2.8267 H   0  0  0  0  0  0  0  0  0  0  0  0
    1.1521    6.9317   -4.2660 H   0  0  0  0  0  0  0  0  0  0  0  0
   -0.5048   10.7739   -1.7356 H   0  0  0  0  0  0  0  0  0  0  0  0
   -0.1497    8.4975   -5.4490 H   0  0  0  0  0  0  0  0  0  0  0  0
   -3.5317    8.6190   -4.0240 H   0  0  0  0  0  0  0  0  0  0  0  0
   -5.3937    6.4683   -0.7409 H   0  0  0  0  0  0  0  0  0  0  0  0
   -1.7412    2.7836   -2.5610 H   0  0  0  0  0  0  0  0  0  0  0  0
   -2.1191    4.9816   -0.1486 H   0  0  0  0  0  0  0  0  0  0  0  0
   -4.6787    5.0046   -3.0268 H   0  0  0  0  0  0  0  0  0  0  0  0
  1 45  1  0  0  0  0
  1 46  1  0  0  0  0
  1 47  1  0  0  0  0
  2  1  1  0  0  0  0
  2 48  1  0  0  0  0
  2 49  1  0  0  0  0
  3  2  1  0  0  0  0
  3 50  1  0  0  0  0
  3 51  1  0  0  0  0
  4  3  1  0  0  0  0
  4 52  1  0  0  0  0
  4 53  1  0  0  0  0
  5  4  1  0  0  0  0
  5 54  1  0  0  0  0
  5 55  1  0  0  0  0
  6  5  1  0  0  0  0
  6 56  1  0  0  0  0
  6 57  1  0  0  0  0
  7  6  1  0  0  0  0
  7 58  1  0  0  0  0
  7 59  1  0  0  0  0
  8  7  1  0  0  0  0
  8 60  1  0  0  0  0
  8 61  1  0  0  0  0
  9  8  1  0  0  0  0
  9 62  1  0  0  0  0
  9 63  1  0  0  0  0
 10  9  1  0  0  0  0
 10 64  1  0  0  0  0
 10 65  1  0  0  0  0
 11 10  1  0  0  0  0
 11 66  1  0  0  0  0
 11 67  1  0  0  0  0
 12 68  1  0  0  0  0
 12 69  1  0  0  0  0
 13 70  1  0  0  0  0
 13 71  1  0  0  0  0
 14 12  1  0  0  0  0
 14 35  1  6  0  0  0
 15 13  1  0  0  0  0
 15 36  1  1  0  0  0
 16 14  1  0  0  0  0
 16 26  1  0  0  0  0
 16 37  1  1  0  0  0
 17 16  1  0  0  0  0
 17 27  1  0  0  0  0
 17 38  1  6  0  0  0
 18 28  1  0  0  0  0
 18 39  1  1  0  0  0
 19 17  1  0  0  0  0
 19 29  1  0  0  0  0
 19 40  1  1  0  0  0
 20 18  1  0  0  0  0
 20 30  1  0  0  0  0
 20 41  1  6  0  0  0
 21 15  1  0  0  0  0
 21 18  1  0  0  0  0
 21 34  1  0  0  0  0
 21 42  1  6  0  0  0
 22 20  1  0  0  0  0
 22 43  1  1  0  0  0
 22 31  1  0  0  0  0
 23 19  1  0  0  0  0
 23 34  1  0  0  0  0
 23 44  1  1  0  0  0
 24 12  1  0  0  0  0
 24 72  1  0  0  0  0
 25 13  1  0  0  0  0
 25 73  1  0  0  0  0
 26 74  1  0  0  0  0
 27 75  1  0  0  0  0
 28 76  1  0  0  0  0
 29 77  1  0  0  0  0
 30 78  1  0  0  0  0
 31 11  1  0  0  0  0
 32 14  1  0  0  0  0
 32 23  1  0  0  0  0
 33 15  1  0  0  0  0
 33 22  1  0  0  0  0
M  END
>  <DRUGBANK_ID>
DB02686

>  <SECONDARY_ACCESSION_NUMBERS>
EXPT03188

>  <COMMON_NAME>
Undecyl-Beta-D-Maltopyranoside

$$$$
