3162
 OpenBabel10282417103D

 42 43  0  0  1  0  0  0  0  0999 V2000
    1.1775    0.0938    0.1284 O   0  0  0  0  0  0  0  0  0  0  0  0
    2.5047   -1.2193   -2.1977 N   0  0  0  0  0  0  0  0  0  0  0  0
    1.7433    2.5096   -1.1968 N   0  0  0  0  0  0  0  0  0  0  0  0
    0.6506    1.2930    0.7269 C   0  0  3  0  0  0  0  0  0  0  0  0
    1.0884    1.2658    2.2044 C   0  0  0  0  0  0  0  0  0  0  0  0
    0.9659    2.5842   -0.0894 C   0  0  0  0  0  0  0  0  0  0  0  0
   -0.8934    1.1419    0.6842 C   0  0  0  0  0  0  0  0  0  0  0  0
    2.6026    0.0223    0.0031 C   0  0  0  0  0  0  0  0  0  0  0  0
    2.9819   -1.2249   -0.7971 C   0  0  0  0  0  0  0  0  0  0  0  0
    1.3833    2.4245    2.9285 C   0  0  0  0  0  0  0  0  0  0  0  0
    1.1989    0.0306    2.8857 C   0  0  0  0  0  0  0  0  0  0  0  0
    0.4441    3.8148    0.3158 C   0  0  0  0  0  0  0  0  0  0  0  0
    1.7051    2.3785    4.2790 C   0  0  0  0  0  0  0  0  0  0  0  0
    1.5567   -0.0219    4.2320 C   0  0  0  0  0  0  0  0  0  0  0  0
    0.8501    4.9837   -0.3211 C   0  0  0  0  0  0  0  0  0  0  0  0
    1.7970    1.1556    4.9289 C   0  0  0  0  0  0  0  0  0  0  0  0
    3.0228   -2.3936   -2.8891 C   0  0  0  0  0  0  0  0  0  0  0  0
    1.0398   -1.2105   -2.2853 C   0  0  0  0  0  0  0  0  0  0  0  0
    2.1015    3.6505   -1.8266 C   0  0  0  0  0  0  0  0  0  0  0  0
    1.6950    4.9004   -1.4112 C   0  0  0  0  0  0  0  0  0  0  0  0
   -1.2624    1.1371   -0.3503 H   0  0  0  0  0  0  0  0  0  0  0  0
   -1.2360    0.2076    1.1419 H   0  0  0  0  0  0  0  0  0  0  0  0
   -1.4008    1.9619    1.2078 H   0  0  0  0  0  0  0  0  0  0  0  0
    3.0411    0.8869   -0.4902 H   0  0  0  0  0  0  0  0  0  0  0  0
    3.0679   -0.0456    0.9912 H   0  0  0  0  0  0  0  0  0  0  0  0
    4.0798   -1.2665   -0.7991 H   0  0  0  0  0  0  0  0  0  0  0  0
    2.6211   -2.1170   -0.2697 H   0  0  0  0  0  0  0  0  0  0  0  0
    1.3921    3.4054    2.4753 H   0  0  0  0  0  0  0  0  0  0  0  0
    1.0485   -0.9092    2.3528 H   0  0  0  0  0  0  0  0  0  0  0  0
   -0.2290    3.8842    1.1614 H   0  0  0  0  0  0  0  0  0  0  0  0
    1.8887    3.3092    4.8050 H   0  0  0  0  0  0  0  0  0  0  0  0
    1.6455   -0.9829    4.7310 H   0  0  0  0  0  0  0  0  0  0  0  0
    0.5099    5.9416    0.0567 H   0  0  0  0  0  0  0  0  0  0  0  0
    2.0726    1.1273    5.9774 H   0  0  0  0  0  0  0  0  0  0  0  0
    2.6839   -3.3228   -2.4183 H   0  0  0  0  0  0  0  0  0  0  0  0
    2.6985   -2.3911   -3.9345 H   0  0  0  0  0  0  0  0  0  0  0  0
    4.1174   -2.3810   -2.8950 H   0  0  0  0  0  0  0  0  0  0  0  0
    0.5915   -2.0267   -1.7061 H   0  0  0  0  0  0  0  0  0  0  0  0
    0.6066   -0.2614   -1.9615 H   0  0  0  0  0  0  0  0  0  0  0  0
    0.7112   -1.3025   -3.3250 H   0  0  0  0  0  0  0  0  0  0  0  0
    2.7549    3.5176   -2.6824 H   0  0  0  0  0  0  0  0  0  0  0  0
    2.0236    5.7923   -1.9339 H   0  0  0  0  0  0  0  0  0  0  0  0
  1  4  1  0  0  0  0
  1  8  1  0  0  0  0
  2  9  1  0  0  0  0
  2 17  1  0  0  0  0
  2 18  1  0  0  0  0
  3  6  1  0  0  0  0
  3 19  2  0  0  0  0
  4  5  1  0  0  0  0
  4  6  1  0  0  0  0
  4  7  1  0  0  0  0
  5 10  2  0  0  0  0
  5 11  1  0  0  0  0
  6 12  2  0  0  0  0
  7 21  1  0  0  0  0
  7 22  1  0  0  0  0
  7 23  1  0  0  0  0
  8  9  1  0  0  0  0
  8 24  1  0  0  0  0
  8 25  1  0  0  0  0
  9 26  1  0  0  0  0
  9 27  1  0  0  0  0
 10 13  1  0  0  0  0
 10 28  1  0  0  0  0
 11 14  2  0  0  0  0
 11 29  1  0  0  0  0
 12 15  1  0  0  0  0
 12 30  1  0  0  0  0
 13 16  2  0  0  0  0
 13 31  1  0  0  0  0
 14 16  1  0  0  0  0
 14 32  1  0  0  0  0
 15 20  2  0  0  0  0
 15 33  1  0  0  0  0
 16 34  1  0  0  0  0
 17 35  1  0  0  0  0
 17 36  1  0  0  0  0
 17 37  1  0  0  0  0
 18 38  1  0  0  0  0
 18 39  1  0  0  0  0
 18 40  1  0  0  0  0
 19 20  1  0  0  0  0
 19 41  1  0  0  0  0
 20 42  1  0  0  0  0
M  END
>  <DRUGBANK_ID>
DB00366

>  <SECONDARY_ACCESSION_NUMBERS>
APRD00937

>  <COMMON_NAME>
Doxylamine

>  <CAS_NUMBER>
469-21-6

>  <UNII>
95QB77JKPL

>  <SYNONYMS>
2-(alpha-(2-(Dimethylamino)ethoxy)-alpha-methylbenzyl)pyridine; 2-Dimethylaminoethoxyphenylmethyl-2-picoline; Dossilamina; Doxilamina; Doxilminio; Doxylamine; Doxylaminum; N,N-Dimethyl-2-(1-phenyl-1-(2-pyridinyl)ethoxy)ethanamine; Phenyl-2-pyridylmethyl-beta-N,N-dimethylaminoethyl ether

$$$$
