
 OpenBabel10282417113D

 87 86  0  0  0  0  0  0  0  0999 V2000
    0.6878    0.3212    0.0106 C   0  0  0  0  0  0  0  0  0  0  0  0
    6.3197   -8.9912   -2.6148 C   0  0  0  0  0  0  0  0  0  0  0  0
    2.8124   -6.5030    7.3382 C   0  0  0  0  0  0  0  0  0  0  0  0
    0.0640   -0.4536    1.0071 N   0  0  0  0  0  0  0  0  0  0  0  0
    5.3837   -8.0009   -2.4471 N   0  0  0  0  0  0  0  0  0  0  0  0
    3.1599   -6.6955    6.0310 N   0  0  0  0  0  0  0  0  0  0  0  0
    2.8972   -2.9198    0.6119 C   0  0  0  0  0  0  0  0  0  0  0  0
    7.0730   -8.0338    0.3157 C   0  0  0  0  0  0  0  0  0  0  0  0
    5.0549   -7.1973   -3.5641 O   0  0  0  0  0  0  0  0  0  0  0  0
    2.2376   -7.3861    5.2108 O   0  0  0  0  0  0  0  0  0  0  0  0
   -1.2787   -0.7678    0.7523 O   0  0  0  0  0  0  0  0  0  0  0  0
    0.0452    0.9035   -0.8619 O   0  0  0  0  0  0  0  0  0  0  0  0
    6.7705   -9.2340   -3.7410 O   0  0  0  0  0  0  0  0  0  0  0  0
    1.7799   -6.9755    7.8110 O   0  0  0  0  0  0  0  0  0  0  0  0
    6.7026   -9.8789   -1.3951 C   0  0  0  0  0  0  0  0  0  0  0  0
    2.1606    0.4653    0.0060 C   0  0  0  0  0  0  0  0  0  0  0  0
    3.7726   -3.9181    0.3645 N   0  0  0  0  0  0  0  0  0  0  0  0
    6.3539   -7.9545    1.4860 N   0  0  0  0  0  0  0  0  0  0  0  0
    2.6191   -0.8680    0.9276 C   0  0  0  0  0  0  0  0  0  0  0  0
    7.5691   -9.2947   -0.2669 C   0  0  0  0  0  0  0  0  0  0  0  0
    5.7791   -3.0401    1.3406 N   0  0  0  0  0  0  0  0  0  0  0  0
    3.7654   -5.6606    8.1490 C   0  0  0  0  0  0  0  0  0  0  0  0
    0.5500   -1.5076    1.8404 C   0  0  0  0  0  0  0  0  0  0  0  0
    4.3686   -6.2475    5.3508 C   0  0  0  0  0  0  0  0  0  0  0  0
    4.8608   -7.4507   -1.2164 C   0  0  0  0  0  0  0  0  0  0  0  0
    5.5127   -6.8676    2.0802 C   0  0  0  0  0  0  0  0  0  0  0  0
    3.0678   -5.0689   -0.2692 C   0  0  0  0  0  0  0  0  0  0  0  0
    4.8541   -2.2509    2.0926 C   0  0  0  0  0  0  0  0  0  0  0  0
    5.2287   -7.4181    4.8807 C   0  0  0  0  0  0  0  0  0  0  0  0
    5.4181   -6.0076   -0.9332 C   0  0  0  0  0  0  0  0  0  0  0  0
    1.2552   -2.3056    0.7858 C   0  0  0  0  0  0  0  0  0  0  0  0
    3.4541   -5.0835   -1.7569 C   0  0  0  0  0  0  0  0  0  0  0  0
    4.1846   -7.3876    2.6205 C   0  0  0  0  0  0  0  0  0  0  0  0
    4.3950   -1.2942    0.9209 C   0  0  0  0  0  0  0  0  0  0  0  0
    4.9453   -4.9729   -1.8598 C   0  0  0  0  0  0  0  0  0  0  0  0
    2.8464   -1.6867   -0.4867 C   0  0  0  0  0  0  0  0  0  0  0  0
    4.5174   -8.2512    3.8112 C   0  0  0  0  0  0  0  0  0  0  0  0
    2.0569   -3.3755   -0.5101 O   0  0  0  0  0  0  0  0  0  0  0  0
    7.3733   -7.1467   -0.4638 O   0  0  0  0  0  0  0  0  0  0  0  0
    5.6749   -7.4876   -4.2600 H   0  0  0  0  0  0  0  0  0  0  0  0
    1.5845   -7.7570    5.8413 H   0  0  0  0  0  0  0  0  0  0  0  0
   -1.4641   -0.1301    0.0440 H   0  0  0  0  0  0  0  0  0  0  0  0
    5.7800  -10.3078   -0.9943 H   0  0  0  0  0  0  0  0  0  0  0  0
    7.2861  -10.7136   -1.8091 H   0  0  0  0  0  0  0  0  0  0  0  0
    2.6119    0.4665   -1.0692 H   0  0  0  0  0  0  0  0  0  0  0  0
    2.6476    1.3894    0.3464 H   0  0  0  0  0  0  0  0  0  0  0  0
    4.3751   -3.3824   -0.2715 H   0  0  0  0  0  0  0  0  0  0  0  0
    6.6295   -8.6377    2.1746 H   0  0  0  0  0  0  0  0  0  0  0  0
    3.5656   -0.2835   -0.0176 H   0  0  0  0  0  0  0  0  0  0  0  0
    2.5078   -0.4193    1.9321 H   0  0  0  0  0  0  0  0  0  0  0  0
    7.8316   -9.9746    0.5343 H   0  0  0  0  0  0  0  0  0  0  0  0
    8.4964   -8.9418   -0.7563 H   0  0  0  0  0  0  0  0  0  0  0  0
    6.3098   -3.6309    1.9428 H   0  0  0  0  0  0  0  0  0  0  0  0
    5.2312   -3.7818    0.8989 H   0  0  0  0  0  0  0  0  0  0  0  0
    4.7515   -6.1331    8.1979 H   0  0  0  0  0  0  0  0  0  0  0  0
    3.8561   -4.6625    7.7052 H   0  0  0  0  0  0  0  0  0  0  0  0
    3.3835   -5.5486    9.1638 H   0  0  0  0  0  0  0  0  0  0  0  0
    1.1917   -1.2303    2.7013 H   0  0  0  0  0  0  0  0  0  0  0  0
   -0.1565   -2.2153    2.3180 H   0  0  0  0  0  0  0  0  0  0  0  0
    4.9722   -5.6407    6.0262 H   0  0  0  0  0  0  0  0  0  0  0  0
    4.0839   -5.5687    4.5405 H   0  0  0  0  0  0  0  0  0  0  0  0
    5.0004   -8.2027   -0.4412 H   0  0  0  0  0  0  0  0  0  0  0  0
    3.7642   -7.5003   -1.2137 H   0  0  0  0  0  0  0  0  0  0  0  0
    6.0952   -6.2524    2.7685 H   0  0  0  0  0  0  0  0  0  0  0  0
    5.1714   -6.0830    1.4734 H   0  0  0  0  0  0  0  0  0  0  0  0
    3.2595   -5.8452    0.4358 H   0  0  0  0  0  0  0  0  0  0  0  0
    1.9519   -5.1152   -0.2264 H   0  0  0  0  0  0  0  0  0  0  0  0
    5.3784   -1.6441    2.8472 H   0  0  0  0  0  0  0  0  0  0  0  0
    4.0536   -2.7936    2.6713 H   0  0  0  0  0  0  0  0  0  0  0  0
    5.5122   -8.0604    5.7143 H   0  0  0  0  0  0  0  0  0  0  0  0
    6.1788   -7.0211    4.5014 H   0  0  0  0  0  0  0  0  0  0  0  0
    6.4380   -5.6687   -0.7766 H   0  0  0  0  0  0  0  0  0  0  0  0
    5.0682   -5.6986    0.0040 H   0  0  0  0  0  0  0  0  0  0  0  0
    1.7095   -3.0299    1.8349 H   0  0  0  0  0  0  0  0  0  0  0  0
    0.6630   -3.3056    0.6281 H   0  0  0  0  0  0  0  0  0  0  0  0
    3.0461   -6.0142   -2.1325 H   0  0  0  0  0  0  0  0  0  0  0  0
    3.0368   -4.2875   -2.3762 H   0  0  0  0  0  0  0  0  0  0  0  0
    3.5202   -6.5478    2.8877 H   0  0  0  0  0  0  0  0  0  0  0  0
    3.6155   -7.9339    1.8589 H   0  0  0  0  0  0  0  0  0  0  0  0
    4.6792   -0.1052    0.9669 H   0  0  0  0  0  0  0  0  0  0  0  0
    4.0884   -0.6245    2.0179 H   0  0  0  0  0  0  0  0  0  0  0  0
    5.3816   -5.1346   -2.8265 H   0  0  0  0  0  0  0  0  0  0  0  0
    5.3705   -4.0184   -1.5168 H   0  0  0  0  0  0  0  0  0  0  0  0
    3.4942   -2.2174   -1.2816 H   0  0  0  0  0  0  0  0  0  0  0  0
    2.1527   -1.1737   -1.2231 H   0  0  0  0  0  0  0  0  0  0  0  0
    3.6193   -8.7260    4.1964 H   0  0  0  0  0  0  0  0  0  0  0  0
    5.1488   -9.0797    3.4896 H   0  0  0  0  0  0  0  0  0  0  0  0
  2  5  1  0  0  0  0
  3  6  1  0  0  0  0
  4  1  1  0  0  0  0
  5 25  1  0  0  0  0
  6 24  1  0  0  0  0
  7 19  1  0  0  0  0
  7 38  2  0  0  0  0
  8 20  1  0  0  0  0
  8 39  2  0  0  0  0
  9  5  1  0  0  0  0
  9 40  1  0  0  0  0
 10  6  1  0  0  0  0
 10 41  1  0  0  0  0
 11  4  1  0  0  0  0
 11 42  1  0  0  0  0
 12  1  2  0  0  0  0
 13  2  2  0  0  0  0
 14  3  2  0  0  0  0
 15  2  1  0  0  0  0
 15 43  1  0  0  0  0
 15 44  1  0  0  0  0
 16  1  1  0  0  0  0
 16 45  1  0  0  0  0
 16 46  1  0  0  0  0
 17  7  1  0  0  0  0
 17 47  1  0  0  0  0
 18  8  1  0  0  0  0
 18 48  1  0  0  0  0
 19 16  1  0  0  0  0
 19 49  1  0  0  0  0
 19 50  1  0  0  0  0
 20 15  1  0  0  0  0
 20 51  1  0  0  0  0
 20 52  1  0  0  0  0
 21 28  1  0  0  0  0
 21 53  1  0  0  0  0
 21 54  1  0  0  0  0
 22  3  1  0  0  0  0
 22 55  1  0  0  0  0
 22 56  1  0  0  0  0
 22 57  1  0  0  0  0
 23  4  1  0  0  0  0
 23 58  1  0  0  0  0
 23 59  1  0  0  0  0
 24 29  1  0  0  0  0
 24 60  1  0  0  0  0
 24 61  1  0  0  0  0
 25 30  1  0  0  0  0
 25 62  1  0  0  0  0
 25 63  1  0  0  0  0
 26 18  1  0  0  0  0
 26 64  1  0  0  0  0
 26 65  1  0  0  0  0
 27 17  1  0  0  0  0
 27 66  1  0  0  0  0
 27 67  1  0  0  0  0
 28 34  1  0  0  0  0
 28 68  1  0  0  0  0
 28 69  1  0  0  0  0
 29 37  1  0  0  0  0
 29 70  1  0  0  0  0
 29 71  1  0  0  0  0
 30 35  1  0  0  0  0
 30 72  1  0  0  0  0
 30 73  1  0  0  0  0
 31 23  1  0  0  0  0
 31 74  1  0  0  0  0
 31 75  1  0  0  0  0
 32 27  1  0  0  0  0
 32 76  1  0  0  0  0
 32 77  1  0  0  0  0
 33 26  1  0  0  0  0
 33 78  1  0  0  0  0
 33 79  1  0  0  0  0
 34 36  1  0  0  0  0
 34 80  1  0  0  0  0
 34 81  1  0  0  0  0
 35 32  1  0  0  0  0
 35 82  1  0  0  0  0
 35 83  1  0  0  0  0
 36 31  1  0  0  0  0
 36 84  1  0  0  0  0
 36 85  1  0  0  0  0
 37 33  1  0  0  0  0
 37 86  1  0  0  0  0
 37 87  1  0  0  0  0
M  END
>  <DRUGBANK_ID>
DB00746

>  <SECONDARY_ACCESSION_NUMBERS>
APRD00904

>  <COMMON_NAME>
Deferoxamine

>  <CAS_NUMBER>
70-51-9

>  <UNII>
J06Y7MXW4D

>  <SYNONYMS>
Deferoxamin; Deferoxamina; DÃ©feroxamine; Deferoxamine; Deferoxaminum; Deferrioxamine; Deferrioxamine B; Desferrioxamine; DFO; DFOA; DFOM

$$$$
