
 OpenBabel10282417213D

 91 95  0  0  0  0  0  0  0  0999 V2000
    0.2232   -0.2457    0.0145 C   0  0  0  0  0  0  0  0  0  0  0  0
    5.5257   -6.1655   -1.1073 C   0  0  0  0  0  0  0  0  0  0  0  0
    6.5881   -2.9299   -1.8005 C   0  0  0  0  0  0  0  0  0  0  0  0
    1.3741   -2.3071    1.8584 C   0  0  0  0  0  0  0  0  0  0  0  0
    2.5768   -3.4079    1.2003 C   0  0  0  0  0  0  0  0  0  0  0  0
    3.8748    3.8089   -0.3523 C   0  0  0  0  0  0  0  0  0  0  0  0
    3.0426    3.5717    1.1533 C   0  0  0  0  0  0  0  0  0  0  0  0
    0.9631    2.1661   -0.6454 C   0  0  0  0  0  0  0  0  0  0  0  0
   -0.5008    1.9015   -0.3445 C   0  0  0  0  0  0  0  0  0  0  0  0
    7.0089   -5.3267    0.5731 C   0  0  0  0  0  0  0  0  0  0  0  0
    6.0475   -4.5175    1.3592 C   0  0  0  0  0  0  0  0  0  0  0  0
    3.7869   -4.8583   -0.5387 C   0  0  0  0  0  0  0  0  0  0  0  0
    4.2756   -3.6197   -1.8912 C   0  0  0  0  0  0  0  0  0  0  0  0
    6.1415   -1.9705    0.3899 C   0  0  0  0  0  0  0  0  0  0  0  0
    5.2530   -1.5095    1.5874 C   0  0  0  0  0  0  0  0  0  0  0  0
    2.6686   -1.8267   -0.5577 C   0  0  0  0  0  0  0  0  0  0  0  0
    3.8563   -1.0704   -2.1403 C   0  0  0  0  0  0  0  0  0  0  0  0
    6.2215    0.6097   -0.3701 C   0  0  0  0  0  0  0  0  0  0  0  0
    4.9827    1.0129    1.0870 C   0  0  0  0  0  0  0  0  0  0  0  0
    2.7497    0.7837   -1.2119 C   0  0  0  0  0  0  0  0  0  0  0  0
    2.9867    1.8055   -2.4271 C   0  0  0  0  0  0  0  0  0  0  0  0
    0.5873    0.6444    2.6423 C   0  0  0  0  0  0  0  0  0  0  0  0
    1.4534   -0.6622    2.1125 C   0  0  0  0  0  0  0  0  0  0  0  0
    4.1333   -2.8076    0.3497 C   0  0  0  0  0  0  0  0  0  0  0  0
    4.7072    2.9543   -1.3481 C   0  0  1  0  0  0  0  0  0  0  0  0
    0.8168    1.8176    1.6944 C   0  0  2  0  0  0  0  0  0  0  0  0
    2.4463   -0.1104    1.1650 C   0  0  0  0  0  0  0  0  0  0  0  0
    3.9354   -0.8329    0.1811 C   0  0  0  0  0  0  0  0  0  0  0  0
    4.1826    1.9558   -0.5617 C   0  0  1  0  0  0  0  0  0  0  0  0
    2.3119    1.7537    0.4091 C   0  0  2  0  0  0  0  0  0  0  0  0
    2.3080    2.3271    1.7268 C   0  0  1  0  0  0  0  0  0  0  0  0
   -0.0148    1.0598    0.6272 N   0  0  0  0  0  0  0  0  0  0  0  0
    2.9132    1.8106    2.9375 O   0  0  0  0  0  0  0  0  0  0  0  0
    6.7555   -5.5461   -0.8419 O   0  0  0  0  0  0  0  0  0  0  0  0
    5.4784   -3.6406   -0.4788 O   0  0  0  0  0  0  0  0  0  0  0  0
    4.5675   -4.9207    1.0512 O   0  0  0  0  0  0  0  0  0  0  0  0
    5.0774   -2.0837   -1.1471 O   0  0  0  0  0  0  0  0  0  0  0  0
    3.3711   -1.7524    1.4879 O   0  0  0  0  0  0  0  0  0  0  0  0
    5.6201   -0.2714   -1.9688 O   0  0  0  0  0  0  0  0  0  0  0  0
    3.6974    0.8813    0.5815 O   0  0  0  0  0  0  0  0  0  0  0  0
    4.2911    2.3576   -2.5445 O   0  0  0  0  0  0  0  0  0  0  0  0
    4.4483    0.1195   -0.7467 O   0  0  0  0  0  0  0  0  0  0  0  0
    5.8367    3.0048   -1.1831 H   0  0  0  0  0  0  0  0  0  0  0  0
    0.3738    2.8223    1.7215 H   0  0  0  0  0  0  0  0  0  0  0  0
    5.3473    2.1907   -0.0232 H   0  0  0  0  0  0  0  0  0  0  0  0
    0.1088   -0.5586   -1.0315 H   0  0  0  0  0  0  0  0  0  0  0  0
   -0.1594   -0.9691    0.6806 H   0  0  0  0  0  0  0  0  0  0  0  0
    1.2401   -0.3817   -0.1045 H   0  0  0  0  0  0  0  0  0  0  0  0
    5.1223   -6.6149   -0.1911 H   0  0  0  0  0  0  0  0  0  0  0  0
    5.4917   -6.9943   -1.7521 H   0  0  0  0  0  0  0  0  0  0  0  0
    4.9145   -5.6558   -1.8895 H   0  0  0  0  0  0  0  0  0  0  0  0
    6.0167   -2.4027   -2.6587 H   0  0  0  0  0  0  0  0  0  0  0  0
    7.1934   -2.0735   -1.4368 H   0  0  0  0  0  0  0  0  0  0  0  0
    6.9654   -3.8220   -2.1767 H   0  0  0  0  0  0  0  0  0  0  0  0
    0.4228   -2.8564    1.7946 H   0  0  0  0  0  0  0  0  0  0  0  0
    2.0372   -4.3509    1.0232 H   0  0  0  0  0  0  0  0  0  0  0  0
    3.0983    4.0288   -1.0444 H   0  0  0  0  0  0  0  0  0  0  0  0
    4.5794    4.5691   -0.0811 H   0  0  0  0  0  0  0  0  0  0  0  0
    3.7524    3.8517    1.9326 H   0  0  0  0  0  0  0  0  0  0  0  0
    2.2109    4.2393    0.9978 H   0  0  0  0  0  0  0  0  0  0  0  0
    0.8982    1.6014   -1.5664 H   0  0  0  0  0  0  0  0  0  0  0  0
    1.5270    3.0506   -0.7946 H   0  0  0  0  0  0  0  0  0  0  0  0
   -1.2184    2.5203    0.1784 H   0  0  0  0  0  0  0  0  0  0  0  0
   -1.1152    1.1538   -0.9164 H   0  0  0  0  0  0  0  0  0  0  0  0
    7.9974   -4.8091    0.6120 H   0  0  0  0  0  0  0  0  0  0  0  0
    6.8380   -6.1891    1.1481 H   0  0  0  0  0  0  0  0  0  0  0  0
    6.6696   -3.8162    0.7752 H   0  0  0  0  0  0  0  0  0  0  0  0
    6.2119   -3.9109    2.3220 H   0  0  0  0  0  0  0  0  0  0  0  0
    2.9166   -5.5373   -0.6221 H   0  0  0  0  0  0  0  0  0  0  0  0
    2.9743   -4.2891   -0.3375 H   0  0  0  0  0  0  0  0  0  0  0  0
    3.4988   -2.9524   -2.1853 H   0  0  0  0  0  0  0  0  0  0  0  0
    3.7850   -3.7698   -2.8888 H   0  0  0  0  0  0  0  0  0  0  0  0
    7.2553   -1.9429    0.2775 H   0  0  0  0  0  0  0  0  0  0  0  0
    5.9645   -2.6462    1.1599 H   0  0  0  0  0  0  0  0  0  0  0  0
    5.5475   -1.0544    0.6258 H   0  0  0  0  0  0  0  0  0  0  0  0
    5.6358   -0.9357    2.4253 H   0  0  0  0  0  0  0  0  0  0  0  0
    1.7048   -2.3119   -0.7269 H   0  0  0  0  0  0  0  0  0  0  0  0
    2.8695   -2.7847   -0.8401 H   0  0  0  0  0  0  0  0  0  0  0  0
    3.6824   -0.1277   -2.6668 H   0  0  0  0  0  0  0  0  0  0  0  0
    3.3119   -1.2897   -3.1247 H   0  0  0  0  0  0  0  0  0  0  0  0
    7.1915    0.1234   -0.2352 H   0  0  0  0  0  0  0  0  0  0  0  0
    6.1774    0.1985    0.6726 H   0  0  0  0  0  0  0  0  0  0  0  0
    4.6642    2.0626    1.2556 H   0  0  0  0  0  0  0  0  0  0  0  0
    5.2278    1.3953    2.0611 H   0  0  0  0  0  0  0  0  0  0  0  0
    1.7634    0.2929   -1.5662 H   0  0  0  0  0  0  0  0  0  0  0  0
    2.6148   -0.2316   -1.3009 H   0  0  0  0  0  0  0  0  0  0  0  0
    2.3217    2.6497   -2.3616 H   0  0  0  0  0  0  0  0  0  0  0  0
    2.6206    1.3185   -3.3245 H   0  0  0  0  0  0  0  0  0  0  0  0
    0.9252    1.1023    3.5656 H   0  0  0  0  0  0  0  0  0  0  0  0
   -0.5095    0.6200    2.6274 H   0  0  0  0  0  0  0  0  0  0  0  0
    3.8260    1.5006    2.9308 H   0  0  0  0  0  0  0  0  0  0  0  0
  1 46  1  0  0  0  0
  1 47  1  0  0  0  0
  1 48  1  0  0  0  0
  2 49  1  0  0  0  0
  2 50  1  0  0  0  0
  2 51  1  0  0  0  0
  3 52  1  0  0  0  0
  3 53  1  0  0  0  0
  3 54  1  0  0  0  0
  4 55  1  0  0  0  0
  5  4  2  0  0  0  0
  5 56  1  0  0  0  0
  6 57  1  0  0  0  0
  6 58  1  0  0  0  0
  7  6  1  0  0  0  0
  7 59  1  0  0  0  0
  7 60  1  0  0  0  0
  8 61  1  0  0  0  0
  8 62  1  0  0  0  0
  9  8  1  0  0  0  0
  9 63  1  0  0  0  0
  9 64  1  0  0  0  0
 10 65  1  0  0  0  0
 10 66  1  0  0  0  0
 11 10  1  0  0  0  0
 11 67  1  0  0  0  0
 11 68  1  0  0  0  0
 12 69  1  0  0  0  0
 12 70  1  0  0  0  0
 13 12  1  0  0  0  0
 13 71  1  0  0  0  0
 13 72  1  0  0  0  0
 14 73  1  0  0  0  0
 14 74  1  0  0  0  0
 15 14  1  0  0  0  0
 15 75  1  0  0  0  0
 15 76  1  0  0  0  0
 16 77  1  0  0  0  0
 16 78  1  0  0  0  0
 17 16  1  0  0  0  0
 17 79  1  0  0  0  0
 17 80  1  0  0  0  0
 18 81  1  0  0  0  0
 18 82  1  0  0  0  0
 19 18  1  0  0  0  0
 19 83  1  0  0  0  0
 19 84  1  0  0  0  0
 20 85  1  0  0  0  0
 20 86  1  0  0  0  0
 21 20  1  0  0  0  0
 21 87  1  0  0  0  0
 21 88  1  0  0  0  0
 22 89  1  0  0  0  0
 22 90  1  0  0  0  0
 23  4  1  0  0  0  0
 23 22  1  0  0  0  0
 24  5  1  0  0  0  0
 25  6  1  0  0  0  0
 25 41  1  0  0  0  0
 25 43  1  1  0  0  0
 26 22  1  0  0  0  0
 26 32  1  0  0  0  0
 26 44  1  6  0  0  0
 27 23  2  0  0  0  0
 28 24  2  0  0  0  0
 28 27  1  0  0  0  0
 29 25  1  0  0  0  0
 29 30  1  0  0  0  0
 29 42  1  0  0  0  0
 29 45  1  1  0  0  0
 30  8  1  0  0  0  0
 30 27  1  6  0  0  0
 30 31  1  0  0  0  0
 31  7  1  0  0  0  0
 31 26  1  0  0  0  0
 31 33  1  1  0  0  0
 32  1  1  0  0  0  0
 32  9  1  0  0  0  0
 33 91  1  0  0  0  0
 34  2  1  0  0  0  0
 34 10  1  0  0  0  0
 35  3  1  0  0  0  0
 35 24  1  0  0  0  0
 36 11  1  0  0  0  0
 36 12  1  0  0  0  0
 37 13  1  0  0  0  0
 37 14  1  0  0  0  0
 38 15  1  0  0  0  0
 38 16  1  0  0  0  0
 39 17  1  0  0  0  0
 39 18  1  0  0  0  0
 40 19  1  0  0  0  0
 40 20  1  0  0  0  0
 41 21  1  0  0  0  0
 42 28  1  0  0  0  0
M  END
>  <DRUGBANK_ID>
DB14146

>  <COMMON_NAME>
Loxicodegol

>  <CAS_NUMBER>
1211231-76-3

>  <UNII>
J2WIV0JMML

$$$$
