
 OpenBabel10282417203D

 52 53  0  0  0  0  0  0  0  0999 V2000
   -0.0832   -0.2853    0.6765 C   0  0  0  0  0  0  0  0  0  0  0  0
   -1.7450   -0.4233   -0.9779 C   0  0  0  0  0  0  0  0  0  0  0  0
    4.5499    0.4318    2.2755 C   0  0  0  0  0  0  0  0  0  0  0  0
    4.0545   -0.8919    1.7336 C   0  0  0  0  0  0  0  0  0  0  0  0
   -1.6119    1.1825   -3.9623 C   0  0  0  0  0  0  0  0  0  0  0  0
   -1.0323    2.4167   -3.6428 C   0  0  0  0  0  0  0  0  0  0  0  0
   -0.7491    0.0966   -4.2215 C   0  0  0  0  0  0  0  0  0  0  0  0
    4.4219    1.6598    1.3582 C   0  0  0  0  0  0  0  0  0  0  0  0
    2.7083   -0.7060    1.1296 C   0  0  0  0  0  0  0  0  0  0  0  0
    0.2538    2.3481   -0.7932 C   0  0  0  0  0  0  0  0  0  0  0  0
    0.4151    2.5773   -3.6154 C   0  0  0  0  0  0  0  0  0  0  0  0
    0.6761    0.1929   -3.9760 C   0  0  0  0  0  0  0  0  0  0  0  0
    4.4445    1.4508   -0.2258 C   0  0  0  0  0  0  0  0  0  0  0  0
    2.8046   -0.3367   -0.3721 C   0  0  0  0  0  0  0  0  0  0  0  0
    0.1264    0.9167   -1.2676 C   0  0  0  0  0  0  0  0  0  0  0  0
    1.1184    2.5816    0.3422 C   0  0  0  0  0  0  0  0  0  0  0  0
    2.7830    1.3331   -2.6148 C   0  0  0  0  0  0  0  0  0  0  0  0
    1.3166    1.4304   -3.5970 C   0  0  0  0  0  0  0  0  0  0  0  0
    2.9949    1.2002   -0.8126 C   0  0  0  0  0  0  0  0  0  0  0  0
   -0.3422   -0.3106   -0.6962 N   0  0  0  0  0  0  0  0  0  0  0  0
    2.4371    2.3369   -0.1011 O   0  0  0  0  0  0  0  0  0  0  0  0
    0.0557   -1.2887    1.0549 H   0  0  0  0  0  0  0  0  0  0  0  0
   -0.7443    0.3635    1.2387 H   0  0  0  0  0  0  0  0  0  0  0  0
    0.8473    0.2353    0.7338 H   0  0  0  0  0  0  0  0  0  0  0  0
   -2.2122    0.5190   -0.7000 H   0  0  0  0  0  0  0  0  0  0  0  0
   -1.9211   -0.6277   -2.0303 H   0  0  0  0  0  0  0  0  0  0  0  0
   -2.1179   -1.2767   -0.4221 H   0  0  0  0  0  0  0  0  0  0  0  0
    3.9941    0.6505    3.2045 H   0  0  0  0  0  0  0  0  0  0  0  0
    5.5913    0.2991    2.5618 H   0  0  0  0  0  0  0  0  0  0  0  0
    4.7319   -1.2977    0.9842 H   0  0  0  0  0  0  0  0  0  0  0  0
    3.9658   -1.6279    2.5415 H   0  0  0  0  0  0  0  0  0  0  0  0
   -2.6622    0.9946   -3.6992 H   0  0  0  0  0  0  0  0  0  0  0  0
   -1.6627    3.1152   -3.0588 H   0  0  0  0  0  0  0  0  0  0  0  0
   -1.2132   -0.8948   -4.2692 H   0  0  0  0  0  0  0  0  0  0  0  0
    3.5150    2.1825    1.7002 H   0  0  0  0  0  0  0  0  0  0  0  0
    5.2134    2.3644    1.6323 H   0  0  0  0  0  0  0  0  0  0  0  0
    2.1537   -1.6510    1.2260 H   0  0  0  0  0  0  0  0  0  0  0  0
    2.1922    0.0187    1.7760 H   0  0  0  0  0  0  0  0  0  0  0  0
    0.8597    2.9054   -1.5072 H   0  0  0  0  0  0  0  0  0  0  0  0
   -0.7213    2.8388   -0.7816 H   0  0  0  0  0  0  0  0  0  0  0  0
    0.7099    3.5528   -3.2189 H   0  0  0  0  0  0  0  0  0  0  0  0
    1.1530   -0.7578   -3.7160 H   0  0  0  0  0  0  0  0  0  0  0  0
    5.1479    0.6526   -0.4773 H   0  0  0  0  0  0  0  0  0  0  0  0
    4.8269    2.3831   -0.6553 H   0  0  0  0  0  0  0  0  0  0  0  0
    3.6084   -0.9416   -0.8192 H   0  0  0  0  0  0  0  0  0  0  0  0
    1.9783   -0.8174   -0.8896 H   0  0  0  0  0  0  0  0  0  0  0  0
    1.1092    0.6086   -1.5830 H   0  0  0  0  0  0  0  0  0  0  0  0
   -0.4239    0.9704   -2.1026 H   0  0  0  0  0  0  0  0  0  0  0  0
    1.0406    3.6522    0.5797 H   0  0  0  0  0  0  0  0  0  0  0  0
    0.8234    2.0667    1.2554 H   0  0  0  0  0  0  0  0  0  0  0  0
    3.4287    2.1444   -2.9616 H   0  0  0  0  0  0  0  0  0  0  0  0
    3.2220    0.3809   -2.9592 H   0  0  0  0  0  0  0  0  0  0  0  0
  1 22  1  0  0  0  0
  1 23  1  0  0  0  0
  1 24  1  0  0  0  0
  2 25  1  0  0  0  0
  2 26  1  0  0  0  0
  2 27  1  0  0  0  0
  3 28  1  0  0  0  0
  3 29  1  0  0  0  0
  4  3  1  0  0  0  0
  4 30  1  0  0  0  0
  4 31  1  0  0  0  0
  5 32  1  0  0  0  0
  6  5  2  0  0  0  0
  6 33  1  0  0  0  0
  7  5  1  0  0  0  0
  7 34  1  0  0  0  0
  8  3  1  0  0  0  0
  8 35  1  0  0  0  0
  8 36  1  0  0  0  0
  9  4  1  0  0  0  0
  9 37  1  0  0  0  0
  9 38  1  0  0  0  0
 10 39  1  0  0  0  0
 10 40  1  0  0  0  0
 11  6  1  0  0  0  0
 11 41  1  0  0  0  0
 12  7  2  0  0  0  0
 12 42  1  0  0  0  0
 13  8  1  0  0  0  0
 13 43  1  0  0  0  0
 13 44  1  0  0  0  0
 14  9  1  0  0  0  0
 14 45  1  0  0  0  0
 14 46  1  0  0  0  0
 15 10  1  0  0  0  0
 15 47  1  0  0  0  0
 15 48  1  0  0  0  0
 16 10  1  0  0  0  0
 16 49  1  0  0  0  0
 16 50  1  0  0  0  0
 17 51  1  0  0  0  0
 17 52  1  0  0  0  0
 18 11  2  0  0  0  0
 18 12  1  0  0  0  0
 18 17  1  0  0  0  0
 19 13  1  0  0  0  0
 19 14  1  0  0  0  0
 19 17  1  0  0  0  0
 20  1  1  0  0  0  0
 20  2  1  0  0  0  0
 20 15  1  0  0  0  0
 21 16  1  0  0  0  0
 21 19  1  0  0  0  0
M  END
>  <DRUGBANK_ID>
DB13488

>  <COMMON_NAME>
Bencyclane

>  <CAS_NUMBER>
2179-37-5

>  <UNII>
6I97Z6S135

>  <SYNONYMS>
3-((1-Benzylcycloheptyl)oxy)-N,N-dimethylpropylamin; Benciclano; Bencyclane; Bencyclanum

$$$$
