
 OpenBabel10282417133D

 59 61  0  0  1  0  0  0  0  0999 V2000
    0.5151    1.4940    0.3880 C   0  0  2  0  0  0  0  0  0  0  0  0
    0.7370    2.8581    0.0017 N   0  0  0  0  0  0  0  0  0  0  0  0
    1.7170    0.7791    0.1673 O   0  0  0  0  0  0  0  0  0  0  0  0
   -0.6212    0.8850   -0.4428 C   0  0  1  0  0  0  0  0  0  0  0  0
    1.1977    3.0918   -1.2904 C   0  0  0  0  0  0  0  0  0  0  0  0
    0.0683    3.8146    0.7255 C   0  0  0  0  0  0  0  0  0  0  0  0
    1.3502   -0.4651   -0.4095 C   0  0  1  0  0  0  0  0  0  0  0  0
   -0.2015   -0.5438   -0.5020 C   0  0  1  0  0  0  0  0  0  0  0  0
   -1.9065    1.0618    0.1476 O   0  0  0  0  0  0  0  0  0  0  0  0
    0.9912    4.3423   -1.7722 N   0  0  0  0  0  0  0  0  0  0  0  0
    1.6937    2.2519   -2.0454 O   0  0  0  0  0  0  0  0  0  0  0  0
   -0.2947    4.9620    0.1622 C   0  0  0  0  0  0  0  0  0  0  0  0
    2.0329   -0.7559   -1.7676 C   0  0  0  0  0  0  0  0  0  0  0  0
   -0.8102   -1.2810    0.5847 O   0  0  0  0  0  0  0  0  0  0  0  0
    0.0846    5.2082   -1.2399 C   0  0  0  0  0  0  0  0  0  0  0  0
    1.3373   -1.7441   -2.5724 O   0  0  0  0  0  0  0  0  0  0  0  0
   -0.3991    6.1304   -1.8734 O   0  0  0  0  0  0  0  0  0  0  0  0
    1.2796   -3.3125   -1.8445 P   0  0  3  0  0  0  0  0  0  0  0  0
    3.0085   -3.3723   -1.8362 O   0  0  0  0  0  0  0  0  0  0  0  0
    0.9588   -2.7641   -0.3735 O   0  0  0  0  0  0  0  0  0  0  0  0
    1.2279   -4.7161   -1.1930 O   0  0  0  0  0  0  0  0  0  0  0  0
    3.5682   -4.0783   -3.3131 P   0  0  3  0  0  0  0  0  0  0  0  0
    2.8050   -2.8677   -4.1667 O   0  0  0  0  0  0  0  0  0  0  0  0
    4.9663   -3.3130   -2.9359 O   0  0  0  0  0  0  0  0  0  0  0  0
    4.0690   -4.7103   -4.6349 O   0  0  0  0  0  0  0  0  0  0  0  0
    1.5292   -3.2177   -4.7309 C   0  0  1  0  0  0  0  0  0  0  0  0
    0.5706   -2.1526   -4.6282 O   0  0  0  0  0  0  0  0  0  0  0  0
    1.5088   -3.6616   -6.1706 C   0  0  1  0  0  0  0  0  0  0  0  0
    1.0243   -0.9361   -5.2462 C   0  0  1  0  0  0  0  0  0  0  0  0
    1.8731   -2.4751   -7.0619 C   0  0  2  0  0  0  0  0  0  0  0  0
    2.3023   -4.8147   -6.3957 O   0  0  0  0  0  0  0  0  0  0  0  0
    1.0224   -1.2139   -6.7423 C   0  0  2  0  0  0  0  0  0  0  0  0
    0.0585    0.2177   -4.9218 C   0  0  0  0  0  0  0  0  0  0  0  0
    1.6729   -2.8455   -8.4282 O   0  0  0  0  0  0  0  0  0  0  0  0
    1.4875   -0.0791   -7.4680 O   0  0  0  0  0  0  0  0  0  0  0  0
    0.6261    1.3506   -4.4402 O   0  0  0  0  0  0  0  0  0  0  0  0
   -1.1558    0.1424   -5.0528 O   0  0  0  0  0  0  0  0  0  0  0  0
    0.2767    1.4150    1.4590 H   0  0  0  0  0  0  0  0  0  0  0  0
   -0.6536    1.2791   -1.4640 H   0  0  0  0  0  0  0  0  0  0  0  0
   -0.2261    3.5554    1.7405 H   0  0  0  0  0  0  0  0  0  0  0  0
    1.7699   -1.1338    0.3494 H   0  0  0  0  0  0  0  0  0  0  0  0
   -0.5788   -1.0131   -1.4170 H   0  0  0  0  0  0  0  0  0  0  0  0
   -2.0430    0.3205    0.7690 H   0  0  0  0  0  0  0  0  0  0  0  0
    1.1970    4.4510   -2.7525 H   0  0  0  0  0  0  0  0  0  0  0  0
   -0.9186    5.6851    0.6626 H   0  0  0  0  0  0  0  0  0  0  0  0
    2.1280    0.1291   -2.3842 H   0  0  0  0  0  0  0  0  0  0  0  0
    3.0677   -1.0740   -1.5946 H   0  0  0  0  0  0  0  0  0  0  0  0
   -0.3404   -1.0657    1.4120 H   0  0  0  0  0  0  0  0  0  0  0  0
    0.0096   -2.8649   -0.1332 H   0  0  0  0  0  0  0  0  0  0  0  0
    5.2207   -3.5527   -2.0229 H   0  0  0  0  0  0  0  0  0  0  0  0
    1.1273   -4.0523   -4.1500 H   0  0  0  0  0  0  0  0  0  0  0  0
    0.4773   -3.9663   -6.3923 H   0  0  0  0  0  0  0  0  0  0  0  0
    2.0223   -0.6487   -4.8871 H   0  0  0  0  0  0  0  0  0  0  0  0
    2.9390   -2.2474   -6.9502 H   0  0  0  0  0  0  0  0  0  0  0  0
    3.2070   -4.6513   -6.0355 H   0  0  0  0  0  0  0  0  0  0  0  0
   -0.0103   -1.4072   -7.0622 H   0  0  0  0  0  0  0  0  0  0  0  0
    0.7735   -3.2133   -8.5024 H   0  0  0  0  0  0  0  0  0  0  0  0
    2.4522   -0.0153   -7.3726 H   0  0  0  0  0  0  0  0  0  0  0  0
    1.5681    1.3326   -4.1755 H   0  0  0  0  0  0  0  0  0  0  0  0
  1  3  1  0  0  0  0
  1  4  1  0  0  0  0
  1 38  1  1  0  0  0
  1  2  1  0  0  0  0
  2  5  1  0  0  0  0
  2  6  1  0  0  0  0
  3  7  1  0  0  0  0
  4  8  1  0  0  0  0
  4  9  1  0  0  0  0
  4 39  1  6  0  0  0
  5 10  1  0  0  0  0
  5 11  2  0  0  0  0
  6 12  2  0  0  0  0
  6 40  1  0  0  0  0
  7  8  1  0  0  0  0
  7 41  1  1  0  0  0
  7 13  1  0  0  0  0
  8 14  1  0  0  0  0
  8 42  1  6  0  0  0
  9 43  1  0  0  0  0
 10 15  1  0  0  0  0
 10 44  1  0  0  0  0
 12 15  1  0  0  0  0
 12 45  1  0  0  0  0
 13 16  1  0  0  0  0
 13 46  1  0  0  0  0
 13 47  1  0  0  0  0
 14 48  1  0  0  0  0
 15 17  2  0  0  0  0
 16 18  1  0  0  0  0
 18 19  1  0  0  0  0
 18 20  1  0  0  0  0
 18 21  2  0  0  0  0
 19 22  1  0  0  0  0
 20 49  1  0  0  0  0
 22 23  1  0  0  0  0
 22 24  1  0  0  0  0
 22 25  2  0  0  0  0
 24 50  1  0  0  0  0
 26 23  1  0  0  0  0
 26 27  1  0  0  0  0
 26 28  1  0  0  0  0
 26 51  1  1  0  0  0
 27 29  1  0  0  0  0
 28 30  1  0  0  0  0
 28 31  1  0  0  0  0
 28 52  1  6  0  0  0
 29 32  1  0  0  0  0
 29 33  1  0  0  0  0
 29 53  1  1  0  0  0
 30 34  1  0  0  0  0
 30 32  1  0  0  0  0
 30 54  1  1  0  0  0
 31 55  1  0  0  0  0
 32 35  1  0  0  0  0
 32 56  1  6  0  0  0
 33 36  1  0  0  0  0
 33 37  2  0  0  0  0
 34 57  1  0  0  0  0
 35 58  1  0  0  0  0
 36 59  1  0  0  0  0
M  END
>  <DRUGBANK_ID>
DB03041

>  <SECONDARY_ACCESSION_NUMBERS>
EXPT03177

>  <COMMON_NAME>
UDP-alpha-D-glucuronic acid

>  <CAS_NUMBER>
2616-64-0

>  <UNII>
04SZC4MEFQ

>  <SYNONYMS>
UDP-alpha-D-glucuronate; UDP-D-glucuronate; UDP-glucuronate; UDP-Glucuronic Acid; UDPglucuronate; uridine diphosphate glucuronic acid; Uridine-5'-diphosphate-glucuronic acid

$$$$
