RC8
 OpenBabel10282417173D

 61 64  0  0  0  0  0  0  0  0999 V2000
   -5.0103    2.2925   -2.1033 C   0  0  0  0  0  0  0  0  0  0  0  0
   -5.7100    0.2230   -2.6684 C   0  0  0  0  0  0  0  0  0  0  0  0
   -6.2574    0.6339   -3.8617 C   0  0  0  0  0  0  0  0  0  0  0  0
   -6.1866    2.0110   -4.1406 C   0  0  0  0  0  0  0  0  0  0  0  0
   -6.5496   -1.4916   -3.7820 C   0  0  0  0  0  0  0  0  0  0  0  0
   -5.4066   -2.0961   -1.6576 C   0  0  0  0  0  0  0  0  0  0  0  0
   -6.0234   -1.8099   -0.2950 C   0  0  0  0  0  0  0  0  0  0  0  0
   -3.5277    2.7393   -0.0622 C   0  0  1  0  0  0  0  0  0  0  0  0
   -1.3266    3.0955    1.2558 C   0  0  0  0  0  0  0  0  0  0  0  0
   -3.4023    0.7249    1.4057 O   0  0  0  0  0  0  0  0  0  0  0  0
   -3.1575    1.2412    0.0972 C   0  0  0  0  0  0  0  0  0  0  0  0
   -2.1637    3.4939    0.0254 C   0  0  0  0  0  0  0  0  0  0  0  0
   -4.2162    3.1068   -1.3192 N   0  0  0  0  0  0  0  0  0  0  0  0
   -5.5368    2.8179   -3.2343 N   0  0  0  0  0  0  0  0  0  0  0  0
   -5.8613   -1.1419   -2.6555 N   0  0  0  0  0  0  0  0  0  0  0  0
   -3.8852   -2.1970   -1.6023 C   0  0  0  0  0  0  0  0  0  0  0  0
   -6.7914   -0.4467   -4.5334 N   0  0  0  0  0  0  0  0  0  0  0  0
   -5.1519    1.0104   -1.7629 N   0  0  0  0  0  0  0  0  0  0  0  0
   -6.7090    2.5783   -5.2861 N   0  0  0  0  0  0  0  0  0  0  0  0
   -7.4525    1.8170   -6.2708 C   0  0  0  0  0  0  0  0  0  0  0  0
   -8.8909    2.2525   -6.3263 C   0  0  0  0  0  0  0  0  0  0  0  0
   -9.7155    2.1317   -5.2003 C   0  0  0  0  0  0  0  0  0  0  0  0
  -11.0483    2.5304   -5.2621 C   0  0  0  0  0  0  0  0  0  0  0  0
  -11.5937    3.0421   -6.4510 C   0  0  0  0  0  0  0  0  0  0  0  0
  -10.7758    3.1080   -7.5883 C   0  0  0  0  0  0  0  0  0  0  0  0
   -9.4376    2.7152   -7.5274 C   0  0  0  0  0  0  0  0  0  0  0  0
  -12.9644    3.5562   -6.4649 C   0  0  0  0  0  0  0  0  0  0  0  0
  -13.8322    2.9894   -7.3379 N   0  0  0  0  0  0  0  0  0  0  0  0
  -15.1062    3.4435   -7.3171 C   0  0  0  0  0  0  0  0  0  0  0  0
  -15.5562    4.4537   -6.4810 C   0  0  0  0  0  0  0  0  0  0  0  0
  -14.6500    5.0337   -5.6047 C   0  0  0  0  0  0  0  0  0  0  0  0
  -13.3384    4.5783   -5.5930 C   0  0  0  0  0  0  0  0  0  0  0  0
   -4.1474    3.0775    0.7821 H   0  0  0  0  0  0  0  0  0  0  0  0
   -6.8465   -2.5054   -4.0125 H   0  0  0  0  0  0  0  0  0  0  0  0
   -5.7761   -3.0788   -1.9844 H   0  0  0  0  0  0  0  0  0  0  0  0
   -7.1174   -1.8219   -0.3597 H   0  0  0  0  0  0  0  0  0  0  0  0
   -5.7169   -2.5626    0.4369 H   0  0  0  0  0  0  0  0  0  0  0  0
   -5.7246   -0.8287    0.0831 H   0  0  0  0  0  0  0  0  0  0  0  0
   -1.1254    2.0198    1.3125 H   0  0  0  0  0  0  0  0  0  0  0  0
   -0.3409    3.5658    1.2319 H   0  0  0  0  0  0  0  0  0  0  0  0
   -1.8373    3.3734    2.1821 H   0  0  0  0  0  0  0  0  0  0  0  0
   -3.2180    1.4164    2.0589 H   0  0  0  0  0  0  0  0  0  0  0  0
   -3.6490    0.5545   -0.5531 H   0  0  0  0  0  0  0  0  0  0  0  0
   -2.1114    1.0732   -0.1756 H   0  0  0  0  0  0  0  0  0  0  0  0
   -1.5816    3.2587   -0.8764 H   0  0  0  0  0  0  0  0  0  0  0  0
   -2.3046    4.5808    0.0242 H   0  0  0  0  0  0  0  0  0  0  0  0
   -4.3307    4.0875   -1.5493 H   0  0  0  0  0  0  0  0  0  0  0  0
   -3.4256   -1.2520   -1.3227 H   0  0  0  0  0  0  0  0  0  0  0  0
   -3.5692   -2.9460   -0.8695 H   0  0  0  0  0  0  0  0  0  0  0  0
   -3.4700   -2.4725   -2.5775 H   0  0  0  0  0  0  0  0  0  0  0  0
   -6.6909    3.5850   -5.3414 H   0  0  0  0  0  0  0  0  0  0  0  0
   -6.9619    1.9433   -7.2408 H   0  0  0  0  0  0  0  0  0  0  0  0
   -7.4787    0.7392   -6.1314 H   0  0  0  0  0  0  0  0  0  0  0  0
   -9.3219    1.7288   -4.2690 H   0  0  0  0  0  0  0  0  0  0  0  0
  -11.6653    2.4477   -4.3696 H   0  0  0  0  0  0  0  0  0  0  0  0
  -11.1743    3.4930   -8.5243 H   0  0  0  0  0  0  0  0  0  0  0  0
   -8.8208    2.7727   -8.4212 H   0  0  0  0  0  0  0  0  0  0  0  0
  -15.7833    2.9558   -8.0128 H   0  0  0  0  0  0  0  0  0  0  0  0
  -16.5882    4.7830   -6.5119 H   0  0  0  0  0  0  0  0  0  0  0  0
  -14.9544    5.8303   -4.9335 H   0  0  0  0  0  0  0  0  0  0  0  0
  -12.6099    5.0159   -4.9175 H   0  0  0  0  0  0  0  0  0  0  0  0
  1 14  1  0  0  0  0
  2  3  2  0  0  0  0
  3  4  1  0  0  0  0
  3 17  1  0  0  0  0
  4 19  1  0  0  0  0
  5 17  2  0  0  0  0
  5 34  1  0  0  0  0
  6 15  1  0  0  0  0
  6 16  1  0  0  0  0
  6 35  1  0  0  0  0
  7  6  1  0  0  0  0
  7 36  1  0  0  0  0
  7 37  1  0  0  0  0
  7 38  1  0  0  0  0
  8 33  1  1  0  0  0
  8 13  1  0  0  0  0
  8 11  1  0  0  0  0
  9 12  1  0  0  0  0
  9 39  1  0  0  0  0
  9 40  1  0  0  0  0
  9 41  1  0  0  0  0
 10 42  1  0  0  0  0
 11 10  1  0  0  0  0
 11 43  1  0  0  0  0
 11 44  1  0  0  0  0
 12  8  1  0  0  0  0
 12 45  1  0  0  0  0
 12 46  1  0  0  0  0
 13  1  1  0  0  0  0
 13 47  1  0  0  0  0
 14  4  2  0  0  0  0
 15  2  1  0  0  0  0
 15  5  1  0  0  0  0
 16 48  1  0  0  0  0
 16 49  1  0  0  0  0
 16 50  1  0  0  0  0
 18  1  2  0  0  0  0
 18  2  1  0  0  0  0
 19 51  1  0  0  0  0
 20 19  1  0  0  0  0
 20 21  1  0  0  0  0
 20 52  1  0  0  0  0
 20 53  1  0  0  0  0
 21 26  1  0  0  0  0
 22 21  2  0  0  0  0
 22 23  1  0  0  0  0
 22 54  1  0  0  0  0
 23 24  2  0  0  0  0
 23 55  1  0  0  0  0
 24 25  1  0  0  0  0
 24 27  1  0  0  0  0
 25 56  1  0  0  0  0
 26 25  2  0  0  0  0
 26 57  1  0  0  0  0
 27 28  1  0  0  0  0
 28 29  2  0  0  0  0
 29 58  1  0  0  0  0
 30 29  1  0  0  0  0
 30 59  1  0  0  0  0
 31 30  2  0  0  0  0
 31 60  1  0  0  0  0
 32 27  2  0  0  0  0
 32 31  1  0  0  0  0
 32 61  1  0  0  0  0
M  END
>  <DRUGBANK_ID>
DB08463

>  <COMMON_NAME>
(2R)-2-({9-(1-methylethyl)-6-[(4-pyridin-2-ylbenzyl)amino]-9H-purin-2-yl}amino)butan-1-ol

$$$$
