
 OpenBabel10282417143D

 26 26  0  0  0  0  0  0  0  0999 V2000
    3.0287    0.4016    1.3823 O   0  0  0  0  0  0  0  0  0  0  0  0
    4.3213    0.9751    1.5002 C   0  0  0  0  0  0  0  0  0  0  0  0
    2.6028    0.0854    0.0482 C   0  0  1  0  0  0  0  0  0  0  0  0
    2.9766    1.1383   -1.0146 C   0  0  2  0  0  0  0  0  0  0  0  0
    2.4410    2.4217   -0.6737 O   0  0  0  0  0  0  0  0  0  0  0  0
    2.4893    0.7209   -2.4031 C   0  0  2  0  0  0  0  0  0  0  0  0
    1.0545    0.7783   -2.4180 O   0  0  0  0  0  0  0  0  0  0  0  0
    3.0047   -0.6904   -2.7233 C   0  0  1  0  0  0  0  0  0  0  0  0
    2.5384   -1.6146   -1.7282 O   0  0  0  0  0  0  0  0  0  0  0  0
    3.0442   -1.3273   -0.4186 C   0  0  1  0  0  0  0  0  0  0  0  0
    4.4436   -1.5630   -0.3902 O   0  0  0  0  0  0  0  0  0  0  0  0
    2.5315   -1.1668   -4.0872 C   0  0  0  0  0  0  0  0  0  0  0  0
    5.0852    0.3138    1.0895 H   0  0  0  0  0  0  0  0  0  0  0  0
    4.3668    1.9513    1.0098 H   0  0  0  0  0  0  0  0  0  0  0  0
    4.5362    1.1337    2.5584 H   0  0  0  0  0  0  0  0  0  0  0  0
    1.5059    0.0641    0.1150 H   0  0  0  0  0  0  0  0  0  0  0  0
    4.0638    1.2560   -1.0598 H   0  0  0  0  0  0  0  0  0  0  0  0
    1.4713    2.3546   -0.7686 H   0  0  0  0  0  0  0  0  0  0  0  0
    2.8445    1.4418   -3.1475 H   0  0  0  0  0  0  0  0  0  0  0  0
    0.7186   -0.0409   -2.0079 H   0  0  0  0  0  0  0  0  0  0  0  0
    4.1017   -0.6987   -2.7355 H   0  0  0  0  0  0  0  0  0  0  0  0
    2.6106   -2.0676    0.2643 H   0  0  0  0  0  0  0  0  0  0  0  0
    4.9010   -0.7850   -0.7506 H   0  0  0  0  0  0  0  0  0  0  0  0
    2.8919   -0.4956   -4.8734 H   0  0  0  0  0  0  0  0  0  0  0  0
    2.9091   -2.1743   -4.2913 H   0  0  0  0  0  0  0  0  0  0  0  0
    1.4401   -1.2190   -4.1375 H   0  0  0  0  0  0  0  0  0  0  0  0
  1  2  1  0  0  0  0
  2 13  1  0  0  0  0
  2 14  1  0  0  0  0
  2 15  1  0  0  0  0
  3  4  1  0  0  0  0
  3 10  1  0  0  0  0
  3 16  1  1  0  0  0
  3  1  1  0  0  0  0
  4  5  1  0  0  0  0
  4  6  1  0  0  0  0
  4 17  1  6  0  0  0
  5 18  1  0  0  0  0
  6  7  1  0  0  0  0
  6  8  1  0  0  0  0
  6 19  1  6  0  0  0
  7 20  1  0  0  0  0
  8 12  1  0  0  0  0
  8 21  1  1  0  0  0
  9  8  1  0  0  0  0
 10  9  1  0  0  0  0
 10 11  1  0  0  0  0
 10 22  1  1  0  0  0
 11 23  1  0  0  0  0
 12 24  1  0  0  0  0
 12 25  1  0  0  0  0
 12 26  1  0  0  0  0
M  END
>  <DRUGBANK_ID>
DB04515

>  <SECONDARY_ACCESSION_NUMBERS>
EXPT02263

>  <COMMON_NAME>
2-O-methyl-alpha-L-fucopyranose

>  <CAS_NUMBER>
1887228-22-9

>  <UNII>
ZN7HRG4F33

>  <SYNONYMS>
6-deoxy-2-O-methyl-alpha-L-galactopyranose; 6-deoxy-2-O-methyl-Î±-L-galactopyranose

$$$$
