
 OpenBabel10282417243D

 75 72  0  0  0  0  0  0  0  0999 V2000
    1.0425    0.0705    0.0567 O   0  0  0  0  0  0  0  0  0  0  0  0
    2.9846    0.0705    0.0567 Re  0  1  0  0  0  0  0  0  0  0  0  0
    1.0933   -0.0107   -0.0344 C   0  0  0  0  0  0  0  0  0  0  0  0
    0.5866   -1.0558    0.9461 C   0  0  0  0  0  0  0  0  0  0  0  0
    1.0766   -0.7398    2.2956 N   0  0  0  0  0  0  0  0  0  0  0  0
    0.5866   -1.7505    3.2439 C   0  0  0  0  0  0  0  0  0  0  0  0
    1.0933   -3.1223    2.8291 C   0  0  0  0  0  0  0  0  0  0  0  0
    2.5466   -0.7398    2.2956 C   0  0  0  0  0  0  0  0  0  0  0  0
    3.0533   -2.1116    1.8808 C   0  0  0  0  0  0  0  0  0  0  0  0
    2.5633   -2.4275    0.5314 N   0  0  0  0  0  0  0  0  0  0  0  0
    3.0533   -3.7541    0.1303 C   0  0  0  0  0  0  0  0  0  0  0  0
    2.5466   -4.7992    1.1108 C   0  0  0  0  0  0  0  0  0  0  0  0
    0.7366   -4.7992    1.1108 S   0  0  0  0  0  0  0  0  0  0  0  0
    1.0933   -2.4275    0.5314 C   0  0  0  0  0  0  0  0  0  0  0  0
    0.5866   -3.4726    1.5120 C   0  0  0  0  0  0  0  0  0  0  0  0
    1.1899   -3.0836    3.1735 S   0  5  0  0  0  0  0  0  0  0  0  0
    1.0041   -0.0094   -0.0995 C   0  0  0  0  0  0  0  0  0  0  0  0
    0.4974   -1.3608   -0.5763 C   0  0  0  0  0  0  0  0  0  0  0  0
    0.9874   -2.4136    0.3251 N   0  0  0  0  0  0  0  0  0  0  0  0
    0.4974   -3.7206   -0.1360 C   0  0  0  0  0  0  0  0  0  0  0  0
    1.0040   -3.9834   -1.5448 C   0  0  0  0  0  0  0  0  0  0  0  0
    2.4574   -2.4136    0.3251 C   0  0  0  0  0  0  0  0  0  0  0  0
    2.9640   -2.6765   -1.0837 C   0  0  0  0  0  0  0  0  0  0  0  0
    2.4741   -1.6236   -1.9850 N   0  0  0  0  0  0  0  0  0  0  0  0
    2.9641   -1.8778   -3.3474 C   0  0  0  0  0  0  0  0  0  0  0  0
    2.4574   -3.2292   -3.8242 C   0  0  0  0  0  0  0  0  0  0  0  0
    0.6474   -3.2292   -3.8242 S   0  5  0  0  0  0  0  0  0  0  0  0
    1.0041   -1.6236   -1.9850 C   0  0  0  0  0  0  0  0  0  0  0  0
    0.4974   -2.9751   -2.4618 C   0  0  0  0  0  0  0  0  0  0  0  0
    1.1007   -4.2714   -1.3520 S   0  5  0  0  0  0  0  0  0  0  0  0
    0.7366    0.9549    0.2575 H   0  0  0  0  0  0  0  0  0  0  0  0
    0.7366   -0.2407   -1.0167 H   0  0  0  0  0  0  0  0  0  0  0  0
    2.1633   -0.0107   -0.0344 H   0  0  0  0  0  0  0  0  0  0  0  0
   -0.4834   -1.0558    0.9461 H   0  0  0  0  0  0  0  0  0  0  0  0
    0.9433   -2.0214    0.6542 H   0  0  0  0  0  0  0  0  0  0  0  0
    0.9433   -1.5206    4.2262 H   0  0  0  0  0  0  0  0  0  0  0  0
   -0.4834   -1.7505    3.2439 H   0  0  0  0  0  0  0  0  0  0  0  0
    2.1633   -3.1223    2.8292 H   0  0  0  0  0  0  0  0  0  0  0  0
    0.7366   -3.8579    3.5194 H   0  0  0  0  0  0  0  0  0  0  0  0
    0.7366   -3.3522    1.8469 H   0  0  0  0  0  0  0  0  0  0  0  0
    2.9033   -0.0042    1.6053 H   0  0  0  0  0  0  0  0  0  0  0  0
    2.9033   -0.5099    3.2778 H   0  0  0  0  0  0  0  0  0  0  0  0
    4.1233   -2.1116    1.8808 H   0  0  0  0  0  0  0  0  0  0  0  0
    2.6966   -2.8472    2.5711 H   0  0  0  0  0  0  0  0  0  0  0  0
    2.6966   -3.9841   -0.8520 H   0  0  0  0  0  0  0  0  0  0  0  0
    4.1233   -3.7541    0.1303 H   0  0  0  0  0  0  0  0  0  0  0  0
    2.9033   -5.7648    0.8189 H   0  0  0  0  0  0  0  0  0  0  0  0
    2.9033   -4.5692    2.0931 H   0  0  0  0  0  0  0  0  0  0  0  0
    0.2833   -3.5718    1.4819 H   0  0  0  0  0  0  0  0  0  0  0  0
    0.7366   -1.4619    0.8234 H   0  0  0  0  0  0  0  0  0  0  0  0
    0.7366   -2.6575   -0.4509 H   0  0  0  0  0  0  0  0  0  0  0  0
   -0.4834   -3.4726    1.5119 H   0  0  0  0  0  0  0  0  0  0  0  0
    0.9433   -4.4382    1.2200 H   0  0  0  0  0  0  0  0  0  0  0  0
    0.6474    0.1756    0.8922 H   0  0  0  0  0  0  0  0  0  0  0  0
    0.6474    0.7569   -0.7555 H   0  0  0  0  0  0  0  0  0  0  0  0
    2.0741   -0.0094   -0.0995 H   0  0  0  0  0  0  0  0  0  0  0  0
   -0.5726   -1.3608   -0.5763 H   0  0  0  0  0  0  0  0  0  0  0  0
    0.8540   -1.5458   -1.5679 H   0  0  0  0  0  0  0  0  0  0  0  0
    0.8540   -4.4869    0.5201 H   0  0  0  0  0  0  0  0  0  0  0  0
   -0.5726   -3.7206   -0.1360 H   0  0  0  0  0  0  0  0  0  0  0  0
    2.0740   -3.9834   -1.5448 H   0  0  0  0  0  0  0  0  0  0  0  0
    0.6474   -4.9348   -1.8804 H   0  0  0  0  0  0  0  0  0  0  0  0
    0.6474   -3.2171   -2.2008 H   0  0  0  0  0  0  0  0  0  0  0  0
    2.8140   -1.4623    0.6607 H   0  0  0  0  0  0  0  0  0  0  0  0
    2.8140   -3.1800    0.9812 H   0  0  0  0  0  0  0  0  0  0  0  0
    4.0340   -2.6765   -1.0837 H   0  0  0  0  0  0  0  0  0  0  0  0
    2.6074   -3.6278   -1.4193 H   0  0  0  0  0  0  0  0  0  0  0  0
    2.6074   -1.1115   -4.0035 H   0  0  0  0  0  0  0  0  0  0  0  0
    4.0341   -1.8778   -3.3474 H   0  0  0  0  0  0  0  0  0  0  0  0
    2.8141   -3.4143   -4.8159 H   0  0  0  0  0  0  0  0  0  0  0  0
    2.8141   -3.9956   -3.1681 H   0  0  0  0  0  0  0  0  0  0  0  0
    0.6474   -1.4386   -0.9933 H   0  0  0  0  0  0  0  0  0  0  0  0
    0.6474   -0.8573   -2.6411 H   0  0  0  0  0  0  0  0  0  0  0  0
   -0.5726   -2.9751   -2.4618 H   0  0  0  0  0  0  0  0  0  0  0  0
    0.8541   -3.1601   -3.4535 H   0  0  0  0  0  0  0  0  0  0  0  0
  1  2  2  0  0  0  0
  3  4  1  0  0  0  0
  3 31  1  0  0  0  0
  3 32  1  0  0  0  0
  3 33  1  0  0  0  0
  4  5  1  0  0  0  0
  4 34  1  0  0  0  0
  4 35  1  0  0  0  0
  5  6  1  0  0  0  0
  5  8  1  0  0  0  0
  6  7  1  0  0  0  0
  6 36  1  0  0  0  0
  6 37  1  0  0  0  0
  7 38  1  0  0  0  0
  7 39  1  0  0  0  0
  7 40  1  0  0  0  0
  8  9  1  0  0  0  0
  8 41  1  0  0  0  0
  8 42  1  0  0  0  0
  9 10  1  0  0  0  0
  9 43  1  0  0  0  0
  9 44  1  0  0  0  0
 10 11  1  0  0  0  0
 10 14  1  0  0  0  0
 11 12  1  0  0  0  0
 11 45  1  0  0  0  0
 11 46  1  0  0  0  0
 12 13  1  0  0  0  0
 12 47  1  0  0  0  0
 12 48  1  0  0  0  0
 13 49  1  0  0  0  0
 14 15  1  0  0  0  0
 14 50  1  0  0  0  0
 14 51  1  0  0  0  0
 15 16  1  0  0  0  0
 15 52  1  0  0  0  0
 15 53  1  0  0  0  0
 17 18  1  0  0  0  0
 17 54  1  0  0  0  0
 17 55  1  0  0  0  0
 17 56  1  0  0  0  0
 18 19  1  0  0  0  0
 18 57  1  0  0  0  0
 18 58  1  0  0  0  0
 19 20  1  0  0  0  0
 19 22  1  0  0  0  0
 20 21  1  0  0  0  0
 20 59  1  0  0  0  0
 20 60  1  0  0  0  0
 21 61  1  0  0  0  0
 21 62  1  0  0  0  0
 21 63  1  0  0  0  0
 22 23  1  0  0  0  0
 22 64  1  0  0  0  0
 22 65  1  0  0  0  0
 23 24  1  0  0  0  0
 23 66  1  0  0  0  0
 23 67  1  0  0  0  0
 24 25  1  0  0  0  0
 24 28  1  0  0  0  0
 25 26  1  0  0  0  0
 25 68  1  0  0  0  0
 25 69  1  0  0  0  0
 26 27  1  0  0  0  0
 26 70  1  0  0  0  0
 26 71  1  0  0  0  0
 28 29  1  0  0  0  0
 28 72  1  0  0  0  0
 28 73  1  0  0  0  0
 29 30  1  0  0  0  0
 29 74  1  0  0  0  0
 29 75  1  0  0  0  0
M  ISO  1   2 186
M  CHG  4   2   3  16  -1  27  -1  30  -1
M  END
>  <DRUGBANK_ID>
DB18523

>  <COMMON_NAME>
Rhenium (186-Re) obisbemeda

>  <CAS_NUMBER>
644961-22-8

>  <UNII>
O5L8T4LD4L

>  <SYNONYMS>
Rhenium (186re) obisbemeda

$$$$
