
 OpenBabel10282417143D

 44 44  0  0  0  0  0  0  0  0999 V2000
    2.7351    1.4924   -4.0952 P   0  0  0  0  0  0  0  0  0  0  0  0
    1.3905    1.8133   -3.2902 O   0  0  0  0  0  0  0  0  0  0  0  0
    2.8616   -0.1046   -4.1309 O   0  0  0  0  0  0  0  0  0  0  0  0
    3.9315    1.8706   -3.1240 O   0  0  0  0  0  0  0  0  0  0  0  0
    2.8631    2.0725   -5.4414 O   0  0  0  0  0  0  0  0  0  0  0  0
    1.0390    1.5757   -1.9280 C   0  0  1  0  0  0  0  0  0  0  0  0
    2.0642    2.0972   -0.8775 C   0  0  1  0  0  0  0  0  0  0  0  0
   -0.3504    2.1454   -1.7590 C   0  0  1  0  0  0  0  0  0  0  0  0
    1.5742    2.1659    0.5780 C   0  0  2  0  0  0  0  0  0  0  0  0
    3.2518    1.2397   -0.8844 O   0  0  0  0  0  0  0  0  0  0  0  0
   -0.7607    1.9781   -0.2698 C   0  0  1  0  0  0  0  0  0  0  0  0
   -0.3953    3.4802   -2.2885 O   0  0  0  0  0  0  0  0  0  0  0  0
    0.1608    2.5498    0.8095 C   0  0  1  0  0  0  0  0  0  0  0  0
    2.4182    2.8743    1.4868 O   0  0  0  0  0  0  0  0  0  0  0  0
    3.1876   -0.3829   -0.6818 P   0  0  0  0  0  0  0  0  0  0  0  0
   -2.0346    2.4980   -0.0147 O   0  0  0  0  0  0  0  0  0  0  0  0
   -0.3525    2.1859    2.0740 O   0  0  0  0  0  0  0  0  0  0  0  0
    2.4210   -0.4507    0.7020 O   0  0  0  0  0  0  0  0  0  0  0  0
    2.1470   -0.8408   -1.7938 O   0  0  0  0  0  0  0  0  0  0  0  0
    4.4459   -1.1272   -0.6339 O   0  0  0  0  0  0  0  0  0  0  0  0
   -2.2508    4.1580   -0.4513 P   0  0  0  0  0  0  0  0  0  0  0  0
   -0.2732    0.7542    2.7409 P   0  0  0  0  0  0  0  0  0  0  0  0
   -2.5691    4.3632    1.1445 O   0  0  0  0  0  0  0  0  0  0  0  0
   -0.6907    4.5402   -0.2957 O   0  0  0  0  0  0  0  0  0  0  0  0
   -2.4442    5.6437   -0.8421 O   0  0  0  0  0  0  0  0  0  0  0  0
    1.0502    0.9266    3.6056 O   0  0  0  0  0  0  0  0  0  0  0  0
   -1.4998    1.0174    3.7129 O   0  0  0  0  0  0  0  0  0  0  0  0
   -0.3475   -0.4138    1.8260 O   0  0  0  0  0  0  0  0  0  0  0  0
    3.3018   -0.3081   -4.9933 H   0  0  0  0  0  0  0  0  0  0  0  0
    3.8296    1.5235   -2.2258 H   0  0  0  0  0  0  0  0  0  0  0  0
    0.7983    0.5416   -1.7440 H   0  0  0  0  0  0  0  0  0  0  0  0
    2.3910    3.1048   -1.1889 H   0  0  0  0  0  0  0  0  0  0  0  0
   -1.0697    1.5839   -2.3764 H   0  0  0  0  0  0  0  0  0  0  0  0
    1.5415    1.1955    0.9795 H   0  0  0  0  0  0  0  0  0  0  0  0
   -0.8596    0.9005   -0.1048 H   0  0  0  0  0  0  0  0  0  0  0  0
    0.4976    3.7915   -2.5582 H   0  0  0  0  0  0  0  0  0  0  0  0
    0.2162    3.6098    0.9965 H   0  0  0  0  0  0  0  0  0  0  0  0
    3.3391    2.9216    1.1876 H   0  0  0  0  0  0  0  0  0  0  0  0
    3.0344   -0.0748    1.3606 H   0  0  0  0  0  0  0  0  0  0  0  0
    2.4352   -0.7139   -2.7299 H   0  0  0  0  0  0  0  0  0  0  0  0
   -3.4828    4.6317    1.3175 H   0  0  0  0  0  0  0  0  0  0  0  0
   -0.3752    4.3573   -1.1872 H   0  0  0  0  0  0  0  0  0  0  0  0
    1.8340    0.9571    3.0345 H   0  0  0  0  0  0  0  0  0  0  0  0
   -1.9965    1.7467    3.2829 H   0  0  0  0  0  0  0  0  0  0  0  0
  1  2  1  0  0  0  0
  1  3  1  0  0  0  0
  1  4  1  0  0  0  0
  1  5  2  0  0  0  0
  3 29  1  0  0  0  0
  4 30  1  0  0  0  0
  6  7  1  0  0  0  0
  6  8  1  0  0  0  0
  6 31  1  1  0  0  0
  6  2  1  0  0  0  0
  7  9  1  0  0  0  0
  7 10  1  0  0  0  0
  7 32  1  6  0  0  0
  8 11  1  0  0  0  0
  8 12  1  0  0  0  0
  8 33  1  6  0  0  0
  9 13  1  0  0  0  0
  9 34  1  1  0  0  0
  9 14  1  0  0  0  0
 10 15  1  0  0  0  0
 11 13  1  0  0  0  0
 11 35  1  1  0  0  0
 11 16  1  0  0  0  0
 12 36  1  0  0  0  0
 13 17  1  0  0  0  0
 13 37  1  6  0  0  0
 14 38  1  0  0  0  0
 15 18  1  0  0  0  0
 15 19  1  0  0  0  0
 15 20  2  0  0  0  0
 16 21  1  0  0  0  0
 17 22  1  0  0  0  0
 18 39  1  0  0  0  0
 19 40  1  0  0  0  0
 21 23  1  0  0  0  0
 21 24  1  0  0  0  0
 21 25  2  0  0  0  0
 22 26  1  0  0  0  0
 22 27  1  0  0  0  0
 22 28  2  0  0  0  0
 23 41  1  0  0  0  0
 24 42  1  0  0  0  0
 26 43  1  0  0  0  0
 27 44  1  0  0  0  0
M  END
>  <DRUGBANK_ID>
DB04300

>  <SECONDARY_ACCESSION_NUMBERS>
EXPT01814

>  <COMMON_NAME>
(1s,3r,4r,6s)-1,3,4,6-Tetrapkisphosphate

$$$$
