NDD
 OpenBabel10282417173D

 24 25  0  0  0  0  0  0  0  0999 V2000
    1.2429   -1.3905    0.0031 C   0  0  0  0  0  0  0  0  0  0  0  0
    2.4623   -0.6930   -0.0264 C   0  0  0  0  0  0  0  0  0  0  0  0
    2.4441    0.7029   -0.0126 C   0  0  0  0  0  0  0  0  0  0  0  0
    1.2231    1.3904    0.0203 C   0  0  0  0  0  0  0  0  0  0  0  0
   -0.0060    0.7048    0.0133 C   0  0  0  0  0  0  0  0  0  0  0  0
   -1.2408    1.3922    0.0002 C   0  0  0  0  0  0  0  0  0  0  0  0
   -2.4630    0.7015   -0.0093 C   0  0  0  0  0  0  0  0  0  0  0  0
   -2.4500   -0.6946   -0.0042 C   0  0  0  0  0  0  0  0  0  0  0  0
   -1.2305   -1.3887    0.0121 C   0  0  0  0  0  0  0  0  0  0  0  0
    0.0034   -0.7080    0.0128 C   0  0  0  0  0  0  0  0  0  0  0  0
    3.7370   -1.4623   -0.0796 C   0  0  0  0  0  0  0  0  0  0  0  0
    3.8338   -2.6773   -0.0957 O   0  0  0  0  0  0  0  0  0  0  0  0
    4.8296   -0.6753   -0.1187 O   0  0  0  0  0  0  0  0  0  0  0  0
   -3.7329    1.4808   -0.0200 C   0  0  0  0  0  0  0  0  0  0  0  0
   -3.8205    2.6966   -0.0234 O   0  0  0  0  0  0  0  0  0  0  0  0
   -4.8322    0.7027   -0.0198 O   0  0  0  0  0  0  0  0  0  0  0  0
    1.2608   -2.4801    0.0077 H   0  0  0  0  0  0  0  0  0  0  0  0
    3.3724    1.2701   -0.0312 H   0  0  0  0  0  0  0  0  0  0  0  0
    1.2411    2.4785    0.0462 H   0  0  0  0  0  0  0  0  0  0  0  0
   -1.2514    2.4816   -0.0123 H   0  0  0  0  0  0  0  0  0  0  0  0
   -3.3820   -1.2560   -0.0155 H   0  0  0  0  0  0  0  0  0  0  0  0
   -1.2548   -2.4771    0.0185 H   0  0  0  0  0  0  0  0  0  0  0  0
    5.5902   -1.2944   -0.1569 H   0  0  0  0  0  0  0  0  0  0  0  0
   -5.5884    1.3285   -0.0196 H   0  0  0  0  0  0  0  0  0  0  0  0
  1  2  2  0  0  0  0
  1 10  1  0  0  0  0
  1 17  1  0  0  0  0
  2  3  1  0  0  0  0
  2 11  1  0  0  0  0
  3  4  2  0  0  0  0
  3 18  1  0  0  0  0
  4  5  1  0  0  0  0
  4 19  1  0  0  0  0
  5  6  2  0  0  0  0
  5 10  1  0  0  0  0
  6  7  1  0  0  0  0
  6 20  1  0  0  0  0
  7  8  2  0  0  0  0
  7 14  1  0  0  0  0
  8  9  1  0  0  0  0
  8 21  1  0  0  0  0
  9 10  2  0  0  0  0
  9 22  1  0  0  0  0
 11 12  2  0  0  0  0
 11 13  1  0  0  0  0
 13 23  1  0  0  0  0
 14 15  2  0  0  0  0
 14 16  1  0  0  0  0
 16 24  1  0  0  0  0
M  END
>  <DRUGBANK_ID>
DB08262

>  <COMMON_NAME>
2,6-dicarboxynaphthalene

>  <CAS_NUMBER>
1141-38-4

>  <UNII>
K3C4DYZ29O

$$$$
