
 OpenBabel10282417183D

 23 24  0  0  0  0  0  0  0  0999 V2000
   -1.0982    0.7276    0.2076 C   0  0  0  0  0  0  0  0  0  0  0  0
   -1.1391   -0.7288   -0.1796 C   0  0  0  0  0  0  0  0  0  0  0  0
    0.2770   -1.2077    0.1316 C   0  0  3  0  0  0  0  0  0  0  0  0
    1.1139   -0.0715   -0.1095 O   0  0  0  0  0  0  0  0  0  0  0  0
    0.3189    1.1214   -0.1380 C   0  0  0  0  0  0  0  0  0  0  0  0
    0.4236   -1.7526    1.5009 N   0  0  0  0  0  0  0  0  0  0  0  0
   -0.3815   -2.8343    1.8585 C   0  0  0  0  0  0  0  0  0  0  0  0
   -0.4548   -3.2766    3.1148 C   0  0  0  0  0  0  0  0  0  0  0  0
    0.4346   -2.7057    4.1360 C   0  0  0  0  0  0  0  0  0  0  0  0
    0.3470   -2.9809    5.3288 O   0  0  0  0  0  0  0  0  0  0  0  0
    1.3743   -1.8454    3.6430 N   0  0  0  0  0  0  0  0  0  0  0  0
    1.3226   -1.2095    2.4229 C   0  0  0  0  0  0  0  0  0  0  0  0
    2.0372   -0.2251    2.2701 O   0  0  0  0  0  0  0  0  0  0  0  0
   -1.3262   -4.2258    3.5018 F   0  0  0  0  0  0  0  0  0  0  0  0
   -1.8446    1.3368   -0.3105 H   0  0  0  0  0  0  0  0  0  0  0  0
   -1.2663    0.8347    1.2852 H   0  0  0  0  0  0  0  0  0  0  0  0
   -1.3206   -0.8100   -1.2582 H   0  0  0  0  0  0  0  0  0  0  0  0
   -1.9347   -1.2731    0.3344 H   0  0  0  0  0  0  0  0  0  0  0  0
    0.5908   -1.9986   -0.5595 H   0  0  0  0  0  0  0  0  0  0  0  0
    0.3827    1.5409   -1.1475 H   0  0  0  0  0  0  0  0  0  0  0  0
    0.7205    1.8615    0.5622 H   0  0  0  0  0  0  0  0  0  0  0  0
   -1.0015   -3.2881    1.0913 H   0  0  0  0  0  0  0  0  0  0  0  0
    2.0086   -1.4337    4.3097 H   0  0  0  0  0  0  0  0  0  0  0  0
  1  2  1  0  0  0  0
  1  5  1  0  0  0  0
  1 15  1  0  0  0  0
  1 16  1  0  0  0  0
  2  3  1  0  0  0  0
  2 17  1  0  0  0  0
  2 18  1  0  0  0  0
  3  4  1  0  0  0  0
  3  6  1  0  0  0  0
  3 19  1  0  0  0  0
  4  5  1  0  0  0  0
  5 20  1  0  0  0  0
  5 21  1  0  0  0  0
  6  7  1  0  0  0  0
  6 12  1  0  0  0  0
  7  8  2  0  0  0  0
  7 22  1  0  0  0  0
  8  9  1  0  0  0  0
  8 14  1  0  0  0  0
  9 10  2  0  0  0  0
  9 11  1  0  0  0  0
 11 12  1  0  0  0  0
 11 23  1  0  0  0  0
 12 13  2  0  0  0  0
M  END
>  <DRUGBANK_ID>
DB09256

>  <COMMON_NAME>
Tegafur

>  <CAS_NUMBER>
17902-23-7

>  <UNII>
1548R74NSZ

>  <SYNONYMS>
1-(2-Tetrahydrofuryl)-5-fluorouracil; Tegafur

$$$$
