
 OpenBabel10282417213D

 51 54  0  0  0  0  0  0  0  0999 V2000
   -1.3671    4.0229  -10.3962 C   0  0  2  0  0  0  0  0  0  0  0  0
    0.7350    2.8927   -7.3842 C   0  0  0  0  0  0  0  0  0  0  0  0
    1.5080    2.9787   -6.1156 C   0  0  0  0  0  0  0  0  0  0  0  0
   -2.0537    5.7827  -10.8822 C   0  0  2  0  0  0  0  0  0  0  0  0
   -0.2632    4.6833   -9.5951 C   0  0  2  0  0  0  0  0  0  0  0  0
    1.9715    4.3626   -6.0093 C   0  0  0  0  0  0  0  0  0  0  0  0
    0.9345    3.9394   -8.7475 C   0  0  2  0  0  0  0  0  0  0  0  0
    1.7212    4.9355   -4.8244 C   0  0  0  0  0  0  0  0  0  0  0  0
   -1.7136    2.9004   -8.9622 C   0  0  0  0  0  0  0  0  0  0  0  0
   -0.3786    2.0200   -8.1502 C   0  0  0  0  0  0  0  0  0  0  0  0
   -2.5951    5.7637   -9.4543 C   0  0  0  0  0  0  0  0  0  0  0  0
   -1.2574    5.5725   -8.6602 C   0  0  0  0  0  0  0  0  0  0  0  0
    2.0347    2.4139   -4.3678 C   0  0  0  0  0  0  0  0  0  0  0  0
    1.8057    5.1469   -8.5061 C   0  0  0  0  0  0  0  0  0  0  0  0
   -3.0674    6.6382  -11.9285 C   0  0  0  0  0  0  0  0  0  0  0  0
    1.9959    5.4140   -7.0602 C   0  0  0  0  0  0  0  0  0  0  0  0
    0.8876    4.1112   -3.8990 C   0  0  0  0  0  0  0  0  0  0  0  0
   -3.9828    7.3484  -11.4547 O   0  0  0  0  0  0  0  0  0  0  0  0
   -0.3202    3.7978   -4.0526 O   0  0  0  0  0  0  0  0  0  0  0  0
    1.7350    3.4056   -3.0125 C   0  0  0  0  0  0  0  0  0  0  0  0
   -1.2061    2.8191  -11.4104 C   0  0  0  0  0  0  0  0  0  0  0  0
   -1.1842    7.3861  -10.9010 C   0  0  0  0  0  0  0  0  0  0  0  0
   -2.5260    7.1326  -13.3572 C   0  0  0  0  0  0  0  0  0  0  0  0
    0.2410    5.2526  -10.3987 H   0  0  0  0  0  0  0  0  0  0  0  0
    1.4477    3.2889   -9.4878 H   0  0  0  0  0  0  0  0  0  0  0  0
    2.3903    5.7263   -4.5050 H   0  0  0  0  0  0  0  0  0  0  0  0
   -2.4127    2.1270   -9.3212 H   0  0  0  0  0  0  0  0  0  0  0  0
   -2.2809    3.3683   -8.1548 H   0  0  0  0  0  0  0  0  0  0  0  0
   -0.7892    1.1781   -7.5724 H   0  0  0  0  0  0  0  0  0  0  0  0
    0.1795    1.5171   -8.9605 H   0  0  0  0  0  0  0  0  0  0  0  0
   -3.3571    6.5115   -9.2199 H   0  0  0  0  0  0  0  0  0  0  0  0
   -3.1840    4.8545   -9.2917 H   0  0  0  0  0  0  0  0  0  0  0  0
   -0.9480    6.5050   -8.1842 H   0  0  0  0  0  0  0  0  0  0  0  0
   -1.3876    4.9464   -7.7851 H   0  0  0  0  0  0  0  0  0  0  0  0
    3.1267    2.4750   -4.1836 H   0  0  0  0  0  0  0  0  0  0  0  0
    1.9950    1.3176   -4.1657 H   0  0  0  0  0  0  0  0  0  0  0  0
    2.6750    5.2700   -9.1619 H   0  0  0  0  0  0  0  0  0  0  0  0
    1.2437    6.0344   -8.8394 H   0  0  0  0  0  0  0  0  0  0  0  0
    2.8504    6.0712   -6.9392 H   0  0  0  0  0  0  0  0  0  0  0  0
    1.0884    6.0015   -6.8313 H   0  0  0  0  0  0  0  0  0  0  0  0
    1.7238    2.9549   -2.0125 H   0  0  0  0  0  0  0  0  0  0  0  0
    1.7954    4.4497   -2.5671 H   0  0  0  0  0  0  0  0  0  0  0  0
   -2.1500    2.4966  -11.8902 H   0  0  0  0  0  0  0  0  0  0  0  0
   -0.3895    2.8413  -12.1288 H   0  0  0  0  0  0  0  0  0  0  0  0
   -0.9740    1.8855  -10.8511 H   0  0  0  0  0  0  0  0  0  0  0  0
   -1.3001    7.9937   -9.9889 H   0  0  0  0  0  0  0  0  0  0  0  0
   -0.2316    7.4335  -11.4395 H   0  0  0  0  0  0  0  0  0  0  0  0
   -1.6962    8.1939  -11.5185 H   0  0  0  0  0  0  0  0  0  0  0  0
   -1.4309    7.1674  -13.4189 H   0  0  0  0  0  0  0  0  0  0  0  0
   -2.9336    6.5217  -14.1510 H   0  0  0  0  0  0  0  0  0  0  0  0
   -2.8026    8.1941  -13.5853 H   0  0  0  0  0  0  0  0  0  0  0  0
  1 21  1  1  0  0  0
  2 10  1  0  0  0  0
  3  2  2  0  0  0  0
  4  1  1  0  0  0  0
  4 15  1  6  0  0  0
  4 22  1  0  0  0  0
  5  1  1  0  0  0  0
  5 24  1  6  0  0  0
  6  3  1  0  0  0  0
  7  5  1  0  0  0  0
  7  2  1  0  0  0  0
  7 25  1  1  0  0  0
  8  6  2  0  0  0  0
  8 17  1  0  0  0  0
  8 26  1  0  0  0  0
  9  1  1  0  0  0  0
  9 27  1  0  0  0  0
  9 28  1  0  0  0  0
 10  9  1  0  0  0  0
 10 29  1  0  0  0  0
 10 30  1  0  0  0  0
 11  4  1  0  0  0  0
 11 31  1  0  0  0  0
 11 32  1  0  0  0  0
 12  5  1  0  0  0  0
 12 11  1  0  0  0  0
 12 33  1  0  0  0  0
 12 34  1  0  0  0  0
 13  3  1  0  0  0  0
 13 35  1  0  0  0  0
 13 36  1  0  0  0  0
 14  7  1  0  0  0  0
 14 37  1  0  0  0  0
 14 38  1  0  0  0  0
 16 14  1  0  0  0  0
 16  6  1  0  0  0  0
 16 39  1  0  0  0  0
 16 40  1  0  0  0  0
 17 20  1  0  0  0  0
 18 15  2  0  0  0  0
 19 17  2  0  0  0  0
 20 13  1  0  0  0  0
 20 41  1  0  0  0  0
 20 42  1  0  0  0  0
 21 43  1  0  0  0  0
 21 44  1  0  0  0  0
 21 45  1  0  0  0  0
 22 46  1  0  0  0  0
 22 47  1  0  0  0  0
 22 48  1  0  0  0  0
 23 15  1  0  0  0  0
 23 49  1  0  0  0  0
 23 50  1  0  0  0  0
 23 51  1  0  0  0  0
M  END
>  <DRUGBANK_ID>
DB13857

>  <COMMON_NAME>
Demegestone

>  <CAS_NUMBER>
10116-22-0

>  <UNII>
6E89AM91SZ

>  <SYNONYMS>
Demegestone

$$$$
