
 OpenBabel10282417203D

 57 59  0  0  0  0  0  0  0  0999 V2000
    2.5218    0.0214   -0.0175 C   0  0  0  0  0  0  0  0  0  0  0  0
    1.0277    0.0373    0.0080 C   0  0  0  0  0  0  0  0  0  0  0  0
    0.3049    1.2372    0.0050 C   0  0  0  0  0  0  0  0  0  0  0  0
   -1.0928    1.2298    0.0051 C   0  0  0  0  0  0  0  0  0  0  0  0
   -1.7830    0.0160    0.0331 C   0  0  0  0  0  0  0  0  0  0  0  0
   -1.0418   -1.1724    0.1009 C   0  0  0  0  0  0  0  0  0  0  0  0
    0.3423   -1.1716    0.0465 C   0  0  0  0  0  0  0  0  0  0  0  0
   -3.2887   -0.0408   -0.0464 C   0  0  0  0  0  0  0  0  0  0  0  0
   -3.7213   -0.7457   -1.2382 N   0  0  0  0  0  0  0  0  0  0  0  0
   -3.6060   -2.1008   -1.5283 C   0  0  0  0  0  0  0  0  0  0  0  0
   -3.2439   -3.0321   -0.8206 O   0  0  0  0  0  0  0  0  0  0  0  0
   -3.9954   -2.2405   -2.8216 N   0  0  0  0  0  0  0  0  0  0  0  0
   -4.3806   -1.0224   -3.2182 C   0  0  0  0  0  0  0  0  0  0  0  0
   -4.1975   -0.0857   -2.3374 N   0  0  0  0  0  0  0  0  0  0  0  0
   -5.0507   -0.8235   -4.5388 C   0  0  0  0  0  0  0  0  0  0  0  0
   -6.5279   -0.4818   -4.3018 C   0  0  0  0  0  0  0  0  0  0  0  0
   -6.7213    0.9011   -3.6296 C   0  0  0  0  0  0  0  0  0  0  0  0
   -6.7354    2.0752   -4.5613 C   0  0  0  0  0  0  0  0  0  0  0  0
   -6.7640    1.8735   -5.9256 C   0  0  0  0  0  0  0  0  0  0  0  0
   -6.8432    2.9367   -6.7823 C   0  0  0  0  0  0  0  0  0  0  0  0
   -6.8770    4.2495   -6.3416 C   0  0  0  0  0  0  0  0  0  0  0  0
   -6.8032    4.4796   -4.9683 C   0  0  0  0  0  0  0  0  0  0  0  0
   -6.7333    3.3942   -4.0791 C   0  0  0  0  0  0  0  0  0  0  0  0
   -6.9794    5.3260   -7.1788 O   0  0  0  0  0  0  0  0  0  0  0  0
   -7.0740    5.0984   -8.6063 C   0  0  0  0  0  0  0  0  0  0  0  0
   -5.7755    4.4716   -9.1657 C   0  0  0  0  0  0  0  0  0  0  0  0
   -8.3731    4.3462   -8.9817 C   0  0  0  0  0  0  0  0  0  0  0  0
   -7.1890    6.4832   -9.2837 C   0  0  0  0  0  0  0  0  0  0  0  0
   -7.2057    7.5828   -8.7544 O   0  0  0  0  0  0  0  0  0  0  0  0
   -7.2790    6.3977  -10.6364 O   0  0  0  0  0  0  0  0  0  0  0  0
    2.9010   -0.5102    0.8614 H   0  0  0  0  0  0  0  0  0  0  0  0
    2.8745   -0.4811   -0.9237 H   0  0  0  0  0  0  0  0  0  0  0  0
    2.9263    1.0364   -0.0045 H   0  0  0  0  0  0  0  0  0  0  0  0
    0.8287    2.1891   -0.0075 H   0  0  0  0  0  0  0  0  0  0  0  0
   -1.6309    2.1746   -0.0220 H   0  0  0  0  0  0  0  0  0  0  0  0
   -1.5295   -2.1356    0.1826 H   0  0  0  0  0  0  0  0  0  0  0  0
    0.8667   -2.1238    0.0405 H   0  0  0  0  0  0  0  0  0  0  0  0
   -3.6897   -0.5481    0.8368 H   0  0  0  0  0  0  0  0  0  0  0  0
   -3.7154    0.9722   -0.0686 H   0  0  0  0  0  0  0  0  0  0  0  0
   -3.9411   -3.1039   -3.3296 H   0  0  0  0  0  0  0  0  0  0  0  0
   -4.5307   -0.0345   -5.0900 H   0  0  0  0  0  0  0  0  0  0  0  0
   -4.9842   -1.7461   -5.1280 H   0  0  0  0  0  0  0  0  0  0  0  0
   -7.0690   -0.5602   -5.2515 H   0  0  0  0  0  0  0  0  0  0  0  0
   -6.9970   -1.2519   -3.6812 H   0  0  0  0  0  0  0  0  0  0  0  0
   -5.9343    1.1174   -2.9121 H   0  0  0  0  0  0  0  0  0  0  0  0
   -7.6547    0.8881   -3.0587 H   0  0  0  0  0  0  0  0  0  0  0  0
   -6.7312    0.9053   -6.4044 H   0  0  0  0  0  0  0  0  0  0  0  0
   -6.8863    2.6280   -7.8126 H   0  0  0  0  0  0  0  0  0  0  0  0
   -6.8067    5.4941   -4.5771 H   0  0  0  0  0  0  0  0  0  0  0  0
   -6.6742    3.5810   -3.0079 H   0  0  0  0  0  0  0  0  0  0  0  0
   -5.5040    3.5035   -8.7462 H   0  0  0  0  0  0  0  0  0  0  0  0
   -5.8355    4.3142  -10.2455 H   0  0  0  0  0  0  0  0  0  0  0  0
   -4.9140    5.1083   -8.9375 H   0  0  0  0  0  0  0  0  0  0  0  0
   -9.2520    4.8990   -8.6328 H   0  0  0  0  0  0  0  0  0  0  0  0
   -8.4504    4.1883  -10.0607 H   0  0  0  0  0  0  0  0  0  0  0  0
   -8.4875    3.3588   -8.5350 H   0  0  0  0  0  0  0  0  0  0  0  0
   -7.3442    7.3260  -10.9443 H   0  0  0  0  0  0  0  0  0  0  0  0
  1  2  1  0  0  0  0
  1 31  1  0  0  0  0
  1 32  1  0  0  0  0
  1 33  1  0  0  0  0
  2  3  2  0  0  0  0
  2  7  1  0  0  0  0
  3  4  1  0  0  0  0
  3 34  1  0  0  0  0
  4  5  2  0  0  0  0
  4 35  1  0  0  0  0
  5  6  1  0  0  0  0
  5  8  1  0  0  0  0
  6  7  2  0  0  0  0
  6 36  1  0  0  0  0
  7 37  1  0  0  0  0
  8  9  1  0  0  0  0
  8 38  1  0  0  0  0
  8 39  1  0  0  0  0
  9 10  1  0  0  0  0
  9 14  1  0  0  0  0
 10 11  2  0  0  0  0
 10 12  1  0  0  0  0
 12 13  1  0  0  0  0
 12 40  1  0  0  0  0
 13 14  2  0  0  0  0
 13 15  1  0  0  0  0
 15 16  1  0  0  0  0
 15 41  1  0  0  0  0
 15 42  1  0  0  0  0
 16 17  1  0  0  0  0
 16 43  1  0  0  0  0
 16 44  1  0  0  0  0
 17 18  1  0  0  0  0
 17 45  1  0  0  0  0
 17 46  1  0  0  0  0
 18 19  2  0  0  0  0
 18 23  1  0  0  0  0
 19 20  1  0  0  0  0
 19 47  1  0  0  0  0
 20 21  2  0  0  0  0
 20 48  1  0  0  0  0
 21 22  1  0  0  0  0
 21 24  1  0  0  0  0
 22 23  2  0  0  0  0
 22 49  1  0  0  0  0
 23 50  1  0  0  0  0
 24 25  1  0  0  0  0
 25 26  1  0  0  0  0
 25 27  1  0  0  0  0
 25 28  1  0  0  0  0
 26 51  1  0  0  0  0
 26 52  1  0  0  0  0
 26 53  1  0  0  0  0
 27 54  1  0  0  0  0
 27 55  1  0  0  0  0
 27 56  1  0  0  0  0
 28 29  2  0  0  0  0
 28 30  1  0  0  0  0
 30 57  1  0  0  0  0
M  END
>  <DRUGBANK_ID>
DB12988

>  <SECONDARY_ACCESSION_NUMBERS>
DB05627

>  <COMMON_NAME>
LY-518674

>  <CAS_NUMBER>
425671-29-0

>  <UNII>
U8I57RC739

$$$$
