
 OpenBabel10282417133D

 19 19  0  0  1  0  0  0  0  0999 V2000
    0.8867   -1.0371   -1.9262 O   0  0  0  0  0  0  0  0  0  0  0  0
    0.4515   -1.0435   -0.5623 C   0  0  2  0  0  0  0  0  0  0  0  0
    1.0664    0.2036    0.0912 C   0  0  0  0  0  0  0  0  0  0  0  0
    0.2626    0.9736    0.8519 O   0  0  0  0  0  0  0  0  0  0  0  0
    2.2557    0.4877   -0.0688 O   0  0  0  0  0  0  0  0  0  0  0  0
    0.8750   -2.3460    0.0992 C   0  0  0  0  0  0  0  0  0  0  0  0
    1.4122   -2.3446    1.3972 C   0  0  0  0  0  0  0  0  0  0  0  0
    1.6613   -3.5325    2.0793 C   0  0  0  0  0  0  0  0  0  0  0  0
    1.3657   -4.7505    1.4802 C   0  0  0  0  0  0  0  0  0  0  0  0
    0.8589   -4.7802    0.1819 C   0  0  0  0  0  0  0  0  0  0  0  0
    0.6562   -3.5881   -0.5232 C   0  0  0  0  0  0  0  0  0  0  0  0
    1.7712   -0.6143   -1.9049 H   0  0  0  0  0  0  0  0  0  0  0  0
   -0.6441   -0.9829   -0.5632 H   0  0  0  0  0  0  0  0  0  0  0  0
   -0.6817    0.7319    0.8933 H   0  0  0  0  0  0  0  0  0  0  0  0
    1.6539   -1.4146    1.9066 H   0  0  0  0  0  0  0  0  0  0  0  0
    2.0658   -3.4939    3.0871 H   0  0  0  0  0  0  0  0  0  0  0  0
    1.5376   -5.6746    2.0248 H   0  0  0  0  0  0  0  0  0  0  0  0
    0.6055   -5.7348   -0.2734 H   0  0  0  0  0  0  0  0  0  0  0  0
    0.3190   -3.6392   -1.5584 H   0  0  0  0  0  0  0  0  0  0  0  0
  1 12  1  0  0  0  0
  2  6  1  0  0  0  0
  2 13  1  1  0  0  0
  2  3  1  0  0  0  0
  2  1  1  0  0  0  0
  3  4  1  0  0  0  0
  3  5  2  0  0  0  0
  4 14  1  0  0  0  0
  6  7  2  0  0  0  0
  6 11  1  0  0  0  0
  7  8  1  0  0  0  0
  7 15  1  0  0  0  0
  8  9  2  0  0  0  0
  8 16  1  0  0  0  0
  9 10  1  0  0  0  0
  9 17  1  0  0  0  0
 10 11  2  0  0  0  0
 10 18  1  0  0  0  0
 11 19  1  0  0  0  0
M  END
>  <DRUGBANK_ID>
DB03357

>  <SECONDARY_ACCESSION_NUMBERS>
EXPT02923

>  <COMMON_NAME>
(S)-Mandelic acid

>  <CAS_NUMBER>
17199-29-0

>  <UNII>
L0UMW58G3T

>  <SYNONYMS>
(S)-2-Hydroxy-2-phenylacetic acid; (S)-Mandelsäure; (S)-α-hydroxybenzeneacetic acid; L-mandelic acid

$$$$
