
 OpenBabel10282417133D

 31 31  0  0  0  0  0  0  0  0999 V2000
    0.8449   -0.1020   -0.0597 C   0  0  0  0  0  0  0  0  0  0  0  0
    0.4294    0.4898   -1.3912 C   0  0  0  0  0  0  0  0  0  0  0  0
   -0.2420   -0.1604   -2.1929 O   0  0  0  0  0  0  0  0  0  0  0  0
    0.7043    1.8152   -1.6633 N   0  0  0  0  0  0  0  0  0  0  0  0
    1.6093    2.6754   -1.0033 C   0  0  0  0  0  0  0  0  0  0  0  0
    2.8010    2.1316   -0.4961 C   0  0  0  0  0  0  0  0  0  0  0  0
    3.7390    2.9077    0.1718 C   0  0  0  0  0  0  0  0  0  0  0  0
    3.5652    4.2806    0.2459 C   0  0  0  0  0  0  0  0  0  0  0  0
    2.4492    4.8444   -0.3852 C   0  0  0  0  0  0  0  0  0  0  0  0
    1.3885    4.0769   -0.9167 C   0  0  0  0  0  0  0  0  0  0  0  0
    0.2013    4.7007   -1.3591 N   0  0  0  0  0  0  0  0  0  0  0  0
   -0.0926    6.0829   -1.0884 C   0  0  0  0  0  0  0  0  0  0  0  0
   -0.2193    6.7594   -2.3280 N   0  0  0  0  0  0  0  0  0  0  0  0
   -1.2743    6.3301   -0.3327 N   0  0  0  0  0  0  0  0  0  0  0  0
    4.5707    5.0696    1.0110 C   0  0  0  0  0  0  0  0  0  0  0  0
    4.3655    6.3944    1.1159 O   0  0  0  0  0  0  0  0  0  0  0  0
    5.5196    4.5263    1.5643 O   0  0  0  0  0  0  0  0  0  0  0  0
    0.3673   -1.0744    0.0848 H   0  0  0  0  0  0  0  0  0  0  0  0
    0.5381    0.5612    0.7539 H   0  0  0  0  0  0  0  0  0  0  0  0
    1.9147   -0.2991   -0.0103 H   0  0  0  0  0  0  0  0  0  0  0  0
    0.3037    2.1328   -2.5393 H   0  0  0  0  0  0  0  0  0  0  0  0
    3.0703    1.0925   -0.6512 H   0  0  0  0  0  0  0  0  0  0  0  0
    4.6234    2.4277    0.5903 H   0  0  0  0  0  0  0  0  0  0  0  0
    2.4297    5.9157   -0.4666 H   0  0  0  0  0  0  0  0  0  0  0  0
   -0.5795    4.0603   -1.4850 H   0  0  0  0  0  0  0  0  0  0  0  0
    0.6960    6.6022   -0.5501 H   0  0  0  0  0  0  0  0  0  0  0  0
   -0.6328    7.6804   -2.4087 H   0  0  0  0  0  0  0  0  0  0  0  0
    0.2620    6.3928   -3.1396 H   0  0  0  0  0  0  0  0  0  0  0  0
   -1.3502    7.1721    0.2356 H   0  0  0  0  0  0  0  0  0  0  0  0
   -2.0780    5.7158   -0.3059 H   0  0  0  0  0  0  0  0  0  0  0  0
    3.6011    6.8128    0.6982 H   0  0  0  0  0  0  0  0  0  0  0  0
  1  2  1  0  0  0  0
  1 18  1  0  0  0  0
  1 19  1  0  0  0  0
  1 20  1  0  0  0  0
  2  3  2  0  0  0  0
  2  4  1  0  0  0  0
  4  5  1  0  0  0  0
  4 21  1  0  0  0  0
  5  6  2  0  0  0  0
  5 10  1  0  0  0  0
  6  7  1  0  0  0  0
  6 22  1  0  0  0  0
  7  8  2  0  0  0  0
  7 23  1  0  0  0  0
  8  9  1  0  0  0  0
  8 15  1  0  0  0  0
  9 10  2  0  0  0  0
  9 24  1  0  0  0  0
 10 11  1  0  0  0  0
 11 12  1  0  0  0  0
 11 25  1  0  0  0  0
 12 13  1  0  0  0  0
 12 14  1  0  0  0  0
 12 26  1  0  0  0  0
 13 27  1  0  0  0  0
 13 28  1  0  0  0  0
 14 29  1  0  0  0  0
 14 30  1  0  0  0  0
 15 16  1  0  0  0  0
 15 17  2  0  0  0  0
 16 31  1  0  0  0  0
M  END
>  <DRUGBANK_ID>
DB03342

>  <SECONDARY_ACCESSION_NUMBERS>
EXPT02961

>  <COMMON_NAME>
4-(Acetylamino)-3-Guanidinobenzoic Acid

>  <UNII>
V02KF5948M

$$$$
