
 OpenBabel10282417143D

 45 46  0  0  1  0  0  0  0  0999 V2000
   -1.6161   -0.2012   -2.3467 O   0  0  0  0  0  0  0  0  0  0  0  0
   -0.3292   -0.5478   -2.8189 C   0  0  0  0  0  0  0  0  0  0  0  0
    0.7486   -0.6236   -1.6194 C   0  0  1  0  0  0  0  0  0  0  0  0
    1.6870   -1.7139   -1.8751 O   0  0  0  0  0  0  0  0  0  0  0  0
    3.0451   -1.7163   -1.3992 C   0  0  2  0  0  0  0  0  0  0  0  0
    3.6546   -0.3868   -0.9647 C   0  0  2  0  0  0  0  0  0  0  0  0
    4.7681   -0.5739   -0.0791 O   0  0  0  0  0  0  0  0  0  0  0  0
    2.6802    0.7012   -0.5317 C   0  0  1  0  0  0  0  0  0  0  0  0
    3.3833    1.9630   -0.6676 O   0  0  0  0  0  0  0  0  0  0  0  0
    1.4413    0.7492   -1.4269 C   0  0  1  0  0  0  0  0  0  0  0  0
    1.9126    1.2800   -2.6580 O   0  0  0  0  0  0  0  0  0  0  0  0
    4.4410   -1.9424   -3.6825 C   0  0  2  0  0  0  0  0  0  0  0  0
    5.2357   -0.5994   -3.6857 C   0  0  1  0  0  0  0  0  0  0  0  0
    6.3055   -0.3864   -4.7697 C   0  0  0  0  0  0  0  0  0  0  0  0
    5.8503   -0.6646   -6.0830 O   0  0  0  0  0  0  0  0  0  0  0  0
    4.3412    0.5521   -3.7493 O   0  0  0  0  0  0  0  0  0  0  0  0
    3.5022    0.6107   -4.9002 C   0  0  3  0  0  0  0  0  0  0  0  0
    2.6827    1.7890   -4.8946 O   0  0  0  0  0  0  0  0  0  0  0  0
    2.6655   -0.6789   -5.0391 C   0  0  2  0  0  0  0  0  0  0  0  0
    1.7814   -0.7532   -3.9578 O   0  0  0  0  0  0  0  0  0  0  0  0
    3.4426   -1.9822   -4.8936 C   0  0  1  0  0  0  0  0  0  0  0  0
    4.0681   -2.1889   -6.1589 O   0  0  0  0  0  0  0  0  0  0  0  0
    3.8893   -2.4112   -2.3852 O   0  0  0  0  0  0  0  0  0  0  0  0
   -1.8908   -0.9367   -1.7822 H   0  0  0  0  0  0  0  0  0  0  0  0
   -0.3930   -1.4875   -3.3929 H   0  0  0  0  0  0  0  0  0  0  0  0
   -0.1160    0.2297   -3.5704 H   0  0  0  0  0  0  0  0  0  0  0  0
    0.2006   -0.8869   -0.7123 H   0  0  0  0  0  0  0  0  0  0  0  0
    3.0441   -2.3710   -0.5141 H   0  0  0  0  0  0  0  0  0  0  0  0
    4.1454    0.0246   -1.8075 H   0  0  0  0  0  0  0  0  0  0  0  0
    4.4391   -0.6406    0.8301 H   0  0  0  0  0  0  0  0  0  0  0  0
    2.4123    0.5994    0.5181 H   0  0  0  0  0  0  0  0  0  0  0  0
    3.5708    2.0601   -1.6314 H   0  0  0  0  0  0  0  0  0  0  0  0
    0.7191    1.5004   -1.1081 H   0  0  0  0  0  0  0  0  0  0  0  0
    1.6978    0.5906   -3.3231 H   0  0  0  0  0  0  0  0  0  0  0  0
    5.1772   -2.7332   -3.8888 H   0  0  0  0  0  0  0  0  0  0  0  0
    5.7935   -0.5472   -2.7400 H   0  0  0  0  0  0  0  0  0  0  0  0
    6.5897    0.6715   -4.7570 H   0  0  0  0  0  0  0  0  0  0  0  0
    7.1959   -0.9923   -4.5967 H   0  0  0  0  0  0  0  0  0  0  0  0
    5.7348   -1.6392   -6.1246 H   0  0  0  0  0  0  0  0  0  0  0  0
    4.1057    0.7711   -5.7832 H   0  0  0  0  0  0  0  0  0  0  0  0
    2.3579    1.9694   -3.9871 H   0  0  0  0  0  0  0  0  0  0  0  0
    2.0235   -0.6396   -5.9094 H   0  0  0  0  0  0  0  0  0  0  0  0
    2.2417   -1.1982   -3.2603 H   0  0  0  0  0  0  0  0  0  0  0  0
    2.7657   -2.8313   -4.7290 H   0  0  0  0  0  0  0  0  0  0  0  0
    4.0905   -1.3098   -6.6039 H   0  0  0  0  0  0  0  0  0  0  0  0
  1  2  1  0  0  0  0
  1 24  1  0  0  0  0
  2 25  1  0  0  0  0
  2 26  1  0  0  0  0
  3  4  1  0  0  0  0
  3 10  1  0  0  0  0
  3 27  1  1  0  0  0
  3  2  1  0  0  0  0
  4  5  1  0  0  0  0
  5 23  1  0  0  0  0
  5  6  1  0  0  0  0
  5 28  1  1  0  0  0
  6  7  1  0  0  0  0
  6  8  1  0  0  0  0
  6 29  1  6  0  0  0
  7 30  1  0  0  0  0
  8  9  1  0  0  0  0
  8 10  1  0  0  0  0
  8 31  1  1  0  0  0
  9 32  1  0  0  0  0
 10 11  1  0  0  0  0
 10 33  1  1  0  0  0
 11 34  1  0  0  0  0
 12 13  1  0  0  0  0
 12 21  1  0  0  0  0
 12 23  1  0  0  0  0
 12 35  1  6  0  0  0
 13 16  1  0  0  0  0
 13 36  1  1  0  0  0
 13 14  1  0  0  0  0
 14 15  1  0  0  0  0
 14 37  1  0  0  0  0
 14 38  1  0  0  0  0
 15 39  1  0  0  0  0
 16 17  1  0  0  0  0
 17 18  1  0  0  0  0
 17 19  1  0  0  0  0
 17 40  1  0  0  0  0
 18 41  1  0  0  0  0
 19 20  1  0  0  0  0
 19 21  1  0  0  0  0
 19 42  1  6  0  0  0
 20 43  1  0  0  0  0
 21 22  1  0  0  0  0
 21 44  1  1  0  0  0
 22 45  1  0  0  0  0
M  END
>  <DRUGBANK_ID>
DB04465

>  <SECONDARY_ACCESSION_NUMBERS>
EXPT02005

>  <COMMON_NAME>
Lactose

>  <CAS_NUMBER>
63-42-3

>  <UNII>
3SY5LH9PMK

$$$$
