
 OpenBabel10282417113D

 51 55  0  0  0  0  0  0  0  0999 V2000
   -2.6394   -0.3149    0.3828 C   0  0  0  0  0  0  0  0  0  0  0  0
   -4.1569   -1.1303    1.0225 C   0  0  0  0  0  0  0  0  0  0  0  0
   -4.1597   -1.6841    2.2720 C   0  0  0  0  0  0  0  0  0  0  0  0
   -3.2182   -1.2270    3.2105 C   0  0  2  0  0  0  0  0  0  0  0  0
   -1.6338   -1.4990    2.3449 C   0  0  1  0  0  0  0  0  0  0  0  0
   -0.9865   -0.6166    1.2397 C   0  0  1  0  0  0  0  0  0  0  0  0
    0.3287   -1.6561    0.6473 C   0  0  2  0  0  0  0  0  0  0  0  0
   -1.9616   -2.7377    1.2395 C   0  0  0  0  0  0  0  0  0  0  0  0
   -0.8629   -3.7342    0.8608 C   0  0  0  0  0  0  0  0  0  0  0  0
   -0.0330   -2.9969   -0.2745 C   0  0  1  0  0  0  0  0  0  0  0  0
    2.5544   -1.8502   -0.3103 C   0  0  0  0  0  0  0  0  0  0  0  0
    1.4437   -0.8904    0.0046 C   0  0  0  0  0  0  0  0  0  0  0  0
    1.0956   -3.9014   -1.4661 C   0  0  1  0  0  0  0  0  0  0  0  0
    2.0747   -2.8936   -1.2565 C   0  0  1  0  0  0  0  0  0  0  0  0
    3.2369   -4.2451   -1.1264 C   0  0  2  0  0  0  0  0  0  0  0  0
    2.5036   -3.7597   -2.8729 C   0  0  0  0  0  0  0  0  0  0  0  0
    3.9693   -3.6915   -2.2192 C   0  0  0  0  0  0  0  0  0  0  0  0
   -4.4864   -3.0345    2.4775 O   0  0  0  0  0  0  0  0  0  0  0  0
   -5.5730   -1.2801    0.6463 C   0  0  0  0  0  0  0  0  0  0  0  0
   -6.6728   -1.5575    0.8279 N   0  0  0  0  0  0  0  0  0  0  0  0
   -2.3099   -0.3356    2.8495 O   0  0  0  0  0  0  0  0  0  0  0  0
    0.7750   -2.0552    1.5931 H   0  0  0  0  0  0  0  0  0  0  0  0
    1.1830   -4.8581   -0.9408 H   0  0  0  0  0  0  0  0  0  0  0  0
   -0.1963    0.5239    2.0288 C   0  0  0  0  0  0  0  0  0  0  0  0
    1.0723   -2.0591   -2.5398 C   0  0  0  0  0  0  0  0  0  0  0  0
    3.0603   -5.6327   -1.6410 O   0  0  0  0  0  0  0  0  0  0  0  0
   -0.7890   -2.6506   -0.9815 H   0  0  0  0  0  0  0  0  0  0  0  0
   -2.8533    0.6446   -0.1143 H   0  0  0  0  0  0  0  0  0  0  0  0
   -2.3074   -0.7900   -0.5478 H   0  0  0  0  0  0  0  0  0  0  0  0
   -3.7365   -0.6824    3.9952 H   0  0  0  0  0  0  0  0  0  0  0  0
   -2.0969   -2.2967    0.2624 H   0  0  0  0  0  0  0  0  0  0  0  0
   -2.9299   -3.1971    1.1530 H   0  0  0  0  0  0  0  0  0  0  0  0
   -1.4086   -4.6310    0.5563 H   0  0  0  0  0  0  0  0  0  0  0  0
   -0.2839   -3.9590    1.7595 H   0  0  0  0  0  0  0  0  0  0  0  0
    3.0689   -2.3476    0.5240 H   0  0  0  0  0  0  0  0  0  0  0  0
    3.3474   -1.2450   -0.7649 H   0  0  0  0  0  0  0  0  0  0  0  0
    1.8877   -0.0472    0.5305 H   0  0  0  0  0  0  0  0  0  0  0  0
    0.9846   -0.4465   -0.8719 H   0  0  0  0  0  0  0  0  0  0  0  0
    3.3810   -4.4462   -0.0705 H   0  0  0  0  0  0  0  0  0  0  0  0
    2.4490   -4.4631   -3.7132 H   0  0  0  0  0  0  0  0  0  0  0  0
    2.6336   -2.8251   -3.4738 H   0  0  0  0  0  0  0  0  0  0  0  0
    4.7430   -4.2672   -2.7312 H   0  0  0  0  0  0  0  0  0  0  0  0
    4.3721   -2.7038   -1.9567 H   0  0  0  0  0  0  0  0  0  0  0  0
   -3.6527   -3.4228    2.8455 H   0  0  0  0  0  0  0  0  0  0  0  0
    0.3604    1.1876    1.3716 H   0  0  0  0  0  0  0  0  0  0  0  0
   -0.7749    1.1493    2.7194 H   0  0  0  0  0  0  0  0  0  0  0  0
    0.5472    0.0349    2.6940 H   0  0  0  0  0  0  0  0  0  0  0  0
    1.6187   -1.2535   -3.0208 H   0  0  0  0  0  0  0  0  0  0  0  0
    0.6849   -2.7706   -3.3239 H   0  0  0  0  0  0  0  0  0  0  0  0
    0.1138   -1.6601   -2.2084 H   0  0  0  0  0  0  0  0  0  0  0  0
    3.9556   -5.9800   -1.8472 H   0  0  0  0  0  0  0  0  0  0  0  0
  1  2  1  0  0  0  0
  1  6  1  0  0  0  0
  1 28  1  0  0  0  0
  1 29  1  0  0  0  0
  2  3  2  0  0  0  0
  2 19  1  0  0  0  0
  3  4  1  0  0  0  0
  3 18  1  0  0  0  0
  4  5  1  0  0  0  0
  4 21  1  0  0  0  0
  4 30  1  6  0  0  0
  5  8  1  0  0  0  0
  5 21  1  6  0  0  0
  6  5  1  0  0  0  0
  6 24  1  1  0  0  0
  7  6  1  0  0  0  0
  7 10  1  0  0  0  0
  7 22  1  6  0  0  0
  8  9  1  0  0  0  0
  8 31  1  0  0  0  0
  8 32  1  0  0  0  0
  9 10  1  0  0  0  0
  9 33  1  0  0  0  0
  9 34  1  0  0  0  0
 10 13  1  0  0  0  0
 10 27  1  1  0  0  0
 11 12  1  0  0  0  0
 11 14  1  0  0  0  0
 11 35  1  0  0  0  0
 11 36  1  0  0  0  0
 12  7  1  0  0  0  0
 12 37  1  0  0  0  0
 12 38  1  0  0  0  0
 13 16  1  0  0  0  0
 13 23  1  6  0  0  0
 14 13  1  0  0  0  0
 14 25  1  1  0  0  0
 15 14  1  0  0  0  0
 15 17  1  0  0  0  0
 15 26  1  0  0  0  0
 15 39  1  1  0  0  0
 16 17  1  0  0  0  0
 16 40  1  0  0  0  0
 16 41  1  0  0  0  0
 17 42  1  0  0  0  0
 17 43  1  0  0  0  0
 18 44  1  0  0  0  0
 19 20  3  0  0  0  0
 24 45  1  0  0  0  0
 24 46  1  0  0  0  0
 24 47  1  0  0  0  0
 25 48  1  0  0  0  0
 25 49  1  0  0  0  0
 25 50  1  0  0  0  0
 26 51  1  0  0  0  0
M  END
>  <DRUGBANK_ID>
DB01108

>  <SECONDARY_ACCESSION_NUMBERS>
APRD01276

>  <COMMON_NAME>
Trilostane

>  <CAS_NUMBER>
13647-35-3

>  <UNII>
L0FPV48Q5R

>  <SYNONYMS>
Trilostane; Trilostano; Trilostanum

$$$$
