
 OpenBabel10282417233D

 41 44  0  0  0  0  0  0  0  0999 V2000
    0.4784   -1.3689   -0.2891 C   0  0  0  0  0  0  0  0  0  0  0  0
   -0.9824   -1.0902   -0.5287 C   0  0  0  0  0  0  0  0  0  0  0  0
   -1.1366    0.3089   -0.1092 N   0  0  0  0  0  0  0  0  0  0  0  0
    0.1531    0.9038   -0.5141 C   0  0  0  0  0  0  0  0  0  0  0  0
    1.2318   -0.1346   -0.6799 C   0  0  0  0  0  0  0  0  0  0  0  0
    3.2024   -2.2838    2.6325 C   0  0  0  0  0  0  0  0  0  0  0  0
    4.2846   -1.7473    3.2913 C   0  0  0  0  0  0  0  0  0  0  0  0
    4.1949   -0.4390    3.7597 C   0  0  0  0  0  0  0  0  0  0  0  0
    2.0316   -1.5188    2.5221 C   0  0  0  0  0  0  0  0  0  0  0  0
    1.9311   -0.1354    2.8649 C   0  0  0  0  0  0  0  0  0  0  0  0
    3.0680    0.3764    3.5104 C   0  0  0  0  0  0  0  0  0  0  0  0
    3.1274    2.0541    4.1070 S   0  0  0  0  0  0  0  0  0  0  0  0
    0.8275    0.7524    2.5158 N   0  0  0  0  0  0  0  0  0  0  0  0
    0.9664    2.1999    2.3652 C   0  0  0  0  0  0  0  0  0  0  0  0
    2.1014    2.8468    2.8894 C   0  0  0  0  0  0  0  0  0  0  0  0
    2.4595    4.1453    2.4645 C   0  0  0  0  0  0  0  0  0  0  0  0
    1.8115    4.8074    1.4297 C   0  0  0  0  0  0  0  0  0  0  0  0
    0.6803    4.2165    0.8946 C   0  0  0  0  0  0  0  0  0  0  0  0
    0.2058    3.0368    1.4818 C   0  0  0  0  0  0  0  0  0  0  0  0
   -0.5164    0.1032    2.5092 C   0  0  0  0  0  0  0  0  0  0  0  0
   -1.4940    0.4599    1.3502 C   0  0  0  0  0  0  0  0  0  0  0  0
    0.4964   -1.4129    0.7715 H   0  0  0  0  0  0  0  0  0  0  0  0
    0.9106   -2.3000   -0.6420 H   0  0  0  0  0  0  0  0  0  0  0  0
   -1.2013   -1.1826   -1.5939 H   0  0  0  0  0  0  0  0  0  0  0  0
   -1.6322   -1.7665    0.0348 H   0  0  0  0  0  0  0  0  0  0  0  0
    0.5865    1.4086    0.2946 H   0  0  0  0  0  0  0  0  0  0  0  0
    0.0856    1.6556   -1.3045 H   0  0  0  0  0  0  0  0  0  0  0  0
    2.0660    0.0701    0.0144 H   0  0  0  0  0  0  0  0  0  0  0  0
    1.6534   -0.1474   -1.6822 H   0  0  0  0  0  0  0  0  0  0  0  0
    3.2449   -3.2926    2.2211 H   0  0  0  0  0  0  0  0  0  0  0  0
    5.1722   -2.3491    3.4570 H   0  0  0  0  0  0  0  0  0  0  0  0
    5.0342   -0.0372    4.3205 H   0  0  0  0  0  0  0  0  0  0  0  0
    1.2298   -2.1217    2.1210 H   0  0  0  0  0  0  0  0  0  0  0  0
    3.3119    4.6448    2.9263 H   0  0  0  0  0  0  0  0  0  0  0  0
    2.1488    5.7596    1.0455 H   0  0  0  0  0  0  0  0  0  0  0  0
    0.1995    4.6375    0.0137 H   0  0  0  0  0  0  0  0  0  0  0  0
   -0.6974    2.7255    0.9597 H   0  0  0  0  0  0  0  0  0  0  0  0
   -0.9888    0.3164    3.4791 H   0  0  0  0  0  0  0  0  0  0  0  0
   -0.4588   -0.9917    2.5222 H   0  0  0  0  0  0  0  0  0  0  0  0
   -1.8677    1.4695    1.5518 H   0  0  0  0  0  0  0  0  0  0  0  0
   -2.4192   -0.1112    1.5246 H   0  0  0  0  0  0  0  0  0  0  0  0
  1  5  1  0  0  0  0
  1  2  1  0  0  0  0
  1 22  1  0  0  0  0
  1 23  1  0  0  0  0
  2  3  1  0  0  0  0
  2 24  1  0  0  0  0
  2 25  1  0  0  0  0
  3  4  1  0  0  0  0
  4  5  1  0  0  0  0
  4 26  1  0  0  0  0
  4 27  1  0  0  0  0
  5 28  1  0  0  0  0
  5 29  1  0  0  0  0
  6  7  2  0  0  0  0
  6 30  1  0  0  0  0
  7  8  1  0  0  0  0
  7 31  1  0  0  0  0
  8 11  2  0  0  0  0
  8 32  1  0  0  0  0
  9  6  1  0  0  0  0
  9 33  1  0  0  0  0
 10 13  1  0  0  0  0
 10  9  2  0  0  0  0
 10 11  1  0  0  0  0
 11 12  1  0  0  0  0
 12 15  1  0  0  0  0
 13 20  1  0  0  0  0
 14 13  1  0  0  0  0
 14 15  2  0  0  0  0
 15 16  1  0  0  0  0
 16 17  2  0  0  0  0
 16 34  1  0  0  0  0
 17 18  1  0  0  0  0
 17 35  1  0  0  0  0
 18 19  2  0  0  0  0
 18 36  1  0  0  0  0
 19 14  1  0  0  0  0
 19 37  1  0  0  0  0
 20 21  1  0  0  0  0
 20 38  1  0  0  0  0
 20 39  1  0  0  0  0
 21  3  1  0  0  0  0
 21 40  1  0  0  0  0
 21 41  1  0  0  0  0
M  END
>  <DRUGBANK_ID>
DB15978

>  <COMMON_NAME>
Parathiazine

>  <CAS_NUMBER>
84-08-2

>  <UNII>
2305SQ56Z2

>  <SYNONYMS>
Parathiazine; Paratiazina; Pyrathiazine

$$$$
