426
 OpenBabel10282417163D

 51 54  0  0  0  0  0  0  0  0999 V2000
    0.8938    0.0751   -0.0035 N   0  0  0  0  0  0  0  0  0  0  0  0
    0.2676   -0.6510   -0.8668 C   0  0  0  0  0  0  0  0  0  0  0  0
    0.9414   -1.4458   -1.7496 N   0  0  0  0  0  0  0  0  0  0  0  0
   -1.2183   -0.6222   -0.8670 C   0  0  0  0  0  0  0  0  0  0  0  0
   -1.9179   -1.8028   -1.0741 C   0  0  0  0  0  0  0  0  0  0  0  0
   -3.3112   -1.7689   -1.1277 C   0  0  0  0  0  0  0  0  0  0  0  0
   -3.9787   -2.9131   -1.4938 C   0  0  0  0  0  0  0  0  0  0  0  0
   -5.3342   -2.8314   -1.7694 C   0  0  0  0  0  0  0  0  0  0  0  0
   -6.1358   -1.7628   -1.3672 C   0  0  0  0  0  0  0  0  0  0  0  0
   -5.4629   -0.5984   -0.9813 C   0  0  0  0  0  0  0  0  0  0  0  0
   -4.0452   -0.5751   -0.9121 C   0  0  0  0  0  0  0  0  0  0  0  0
   -3.3166    0.5922   -0.6542 C   0  0  0  0  0  0  0  0  0  0  0  0
   -1.9140    0.5712   -0.6474 C   0  0  0  0  0  0  0  0  0  0  0  0
   -7.6493   -1.8338   -1.3655 C   0  0  0  0  0  0  0  0  0  0  0  0
   -8.2927   -0.7881   -1.1839 O   0  0  0  0  0  0  0  0  0  0  0  0
   -8.3587   -3.0100   -1.6102 N   0  0  0  0  0  0  0  0  0  0  0  0
   -7.8927   -4.3382   -1.5940 C   0  0  0  0  0  0  0  0  0  0  0  0
   -6.9904   -4.7309   -0.5966 C   0  0  0  0  0  0  0  0  0  0  0  0
   -6.2108   -5.8555   -0.7789 C   0  0  0  0  0  0  0  0  0  0  0  0
   -6.4628   -6.6722   -1.8593 C   0  0  0  0  0  0  0  0  0  0  0  0
   -7.5328   -6.4431   -2.7235 C   0  0  0  0  0  0  0  0  0  0  0  0
   -7.9425   -7.3616   -3.6513 O   0  0  0  0  0  0  0  0  0  0  0  0
   -7.6086   -8.7463   -3.4488 C   0  0  0  0  0  0  0  0  0  0  0  0
   -7.7913   -9.3401   -2.0389 C   0  0  0  0  0  0  0  0  0  0  0  0
   -6.8957  -10.5735   -2.0056 C   0  0  0  0  0  0  0  0  0  0  0  0
   -5.9781  -10.5016   -3.2286 C   0  0  0  0  0  0  0  0  0  0  0  0
   -6.1876   -9.1360   -3.8690 C   0  0  0  0  0  0  0  0  0  0  0  0
   -8.2104   -5.2185   -2.6424 C   0  0  0  0  0  0  0  0  0  0  0  0
    1.8996   -0.0723   -0.0848 H   0  0  0  0  0  0  0  0  0  0  0  0
    0.4590   -1.7896   -2.5739 H   0  0  0  0  0  0  0  0  0  0  0  0
    1.9374   -1.3151   -1.8728 H   0  0  0  0  0  0  0  0  0  0  0  0
   -1.3799   -2.7376   -1.2149 H   0  0  0  0  0  0  0  0  0  0  0  0
   -3.4684   -3.8601   -1.6486 H   0  0  0  0  0  0  0  0  0  0  0  0
   -5.7407   -3.6764   -2.2993 H   0  0  0  0  0  0  0  0  0  0  0  0
   -6.0324    0.3097   -0.7847 H   0  0  0  0  0  0  0  0  0  0  0  0
   -3.8347    1.5326   -0.4842 H   0  0  0  0  0  0  0  0  0  0  0  0
   -1.3621    1.4915   -0.4783 H   0  0  0  0  0  0  0  0  0  0  0  0
   -9.3434   -2.8694   -1.8071 H   0  0  0  0  0  0  0  0  0  0  0  0
   -6.7476   -4.0703    0.2301 H   0  0  0  0  0  0  0  0  0  0  0  0
   -5.3753   -6.0820   -0.1262 H   0  0  0  0  0  0  0  0  0  0  0  0
   -5.8224   -7.5356   -1.9347 H   0  0  0  0  0  0  0  0  0  0  0  0
   -8.2888   -9.3042   -4.1078 H   0  0  0  0  0  0  0  0  0  0  0  0
   -7.4917   -8.6871   -1.2180 H   0  0  0  0  0  0  0  0  0  0  0  0
   -8.8392   -9.5686   -1.8214 H   0  0  0  0  0  0  0  0  0  0  0  0
   -6.3105  -10.5973   -1.0777 H   0  0  0  0  0  0  0  0  0  0  0  0
   -7.4976  -11.4870   -2.0289 H   0  0  0  0  0  0  0  0  0  0  0  0
   -4.9294  -10.6585   -2.9530 H   0  0  0  0  0  0  0  0  0  0  0  0
   -6.2531  -11.2882   -3.9381 H   0  0  0  0  0  0  0  0  0  0  0  0
   -6.0750   -9.1579   -4.9570 H   0  0  0  0  0  0  0  0  0  0  0  0
   -5.4099   -8.4460   -3.5368 H   0  0  0  0  0  0  0  0  0  0  0  0
   -8.9023   -4.9282   -3.4314 H   0  0  0  0  0  0  0  0  0  0  0  0
  1  2  2  0  0  0  0
  1 29  1  0  0  0  0
  2  3  1  0  0  0  0
  2  4  1  0  0  0  0
  3 30  1  0  0  0  0
  3 31  1  0  0  0  0
  4  5  2  0  0  0  0
  4 13  1  0  0  0  0
  5  6  1  0  0  0  0
  5 32  1  0  0  0  0
  6  7  2  0  0  0  0
  6 11  1  0  0  0  0
  7  8  1  0  0  0  0
  7 33  1  0  0  0  0
  8  9  2  0  0  0  0
  8 34  1  0  0  0  0
  9 10  1  0  0  0  0
  9 14  1  0  0  0  0
 10 11  2  0  0  0  0
 10 35  1  0  0  0  0
 11 12  1  0  0  0  0
 12 13  2  0  0  0  0
 12 36  1  0  0  0  0
 13 37  1  0  0  0  0
 14 15  2  0  0  0  0
 14 16  1  0  0  0  0
 16 17  1  0  0  0  0
 16 38  1  0  0  0  0
 17 18  2  0  0  0  0
 17 28  1  0  0  0  0
 18 19  1  0  0  0  0
 18 39  1  0  0  0  0
 19 20  2  0  0  0  0
 19 40  1  0  0  0  0
 20 21  1  0  0  0  0
 20 41  1  0  0  0  0
 21 22  1  0  0  0  0
 21 28  2  0  0  0  0
 22 23  1  0  0  0  0
 23 24  1  0  0  0  0
 23 27  1  0  0  0  0
 23 42  1  0  0  0  0
 24 25  1  0  0  0  0
 24 43  1  0  0  0  0
 24 44  1  0  0  0  0
 25 26  1  0  0  0  0
 25 45  1  0  0  0  0
 25 46  1  0  0  0  0
 26 27  1  0  0  0  0
 26 47  1  0  0  0  0
 26 48  1  0  0  0  0
 27 49  1  0  0  0  0
 27 50  1  0  0  0  0
 28 51  1  0  0  0  0
M  END
>  <DRUGBANK_ID>
DB07076

>  <COMMON_NAME>
6-[(Z)-AMINO(IMINO)METHYL]-N-[3-(CYCLOPENTYLOXY)PHENYL]-2-NAPHTHAMIDE

$$$$
