
 OpenBabel10282417203D

 42 42  0  0  0  0  0  0  0  0999 V2000
    1.6352    0.5113    0.8341 C   0  0  0  0  0  0  0  0  0  0  0  0
   -0.2754   -5.4519    1.0024 C   0  0  0  0  0  0  0  0  0  0  0  0
    1.4024   -0.8832    0.4648 C   0  0  0  0  0  0  0  0  0  0  0  0
    0.9647   -4.8247    1.5673 C   0  0  0  0  0  0  0  0  0  0  0  0
    1.4564   -1.9192    1.4726 C   0  0  0  0  0  0  0  0  0  0  0  0
    2.0630   -4.6360    0.4807 C   0  0  0  0  0  0  0  0  0  0  0  0
   -0.9504    1.9779   -0.9607 C   0  0  0  0  0  0  0  0  0  0  0  0
    0.0379    1.4772   -1.8132 C   0  0  0  0  0  0  0  0  0  0  0  0
   -1.7066    1.0789   -0.1902 C   0  0  0  0  0  0  0  0  0  0  0  0
    0.1855    0.0676   -1.9959 C   0  0  0  0  0  0  0  0  0  0  0  0
    0.4314   -1.6030    2.5423 C   0  0  0  0  0  0  0  0  0  0  0  0
    1.6452   -4.2105   -1.0188 C   0  0  0  0  0  0  0  0  0  0  0  0
   -1.4902   -0.3357   -0.2605 C   0  0  0  0  0  0  0  0  0  0  0  0
   -0.6451   -0.8927   -1.3160 C   0  0  0  0  0  0  0  0  0  0  0  0
   -1.8660   -1.0604    1.0751 C   0  0  0  0  0  0  0  0  0  0  0  0
   -0.3079   -2.4565   -1.2145 C   0  0  0  0  0  0  0  0  0  0  0  0
   -3.0681   -1.0193    1.3594 O   0  0  0  0  0  0  0  0  0  0  0  0
   -1.1446   -3.1664   -0.7434 O   0  0  0  0  0  0  0  0  0  0  0  0
   -1.0135   -1.5707    2.0473 O   0  0  0  0  0  0  0  0  0  0  0  0
    1.0178   -2.8745   -1.4280 O   0  0  0  0  0  0  0  0  0  0  0  0
    1.2189    0.7579    1.8024 H   0  0  0  0  0  0  0  0  0  0  0  0
    1.1152    1.1655    0.1624 H   0  0  0  0  0  0  0  0  0  0  0  0
    2.6910    0.6556    0.7001 H   0  0  0  0  0  0  0  0  0  0  0  0
   -0.1860   -6.5312    1.0027 H   0  0  0  0  0  0  0  0  0  0  0  0
   -1.1539   -5.1146    1.5621 H   0  0  0  0  0  0  0  0  0  0  0  0
   -0.4412   -5.1376   -0.0226 H   0  0  0  0  0  0  0  0  0  0  0  0
    0.3623   -0.9637    0.3928 H   0  0  0  0  0  0  0  0  0  0  0  0
    1.8662   -1.1613   -0.4754 H   0  0  0  0  0  0  0  0  0  0  0  0
    1.3628   -5.3057    2.4709 H   0  0  0  0  0  0  0  0  0  0  0  0
    0.5741   -3.9311    2.0283 H   0  0  0  0  0  0  0  0  0  0  0  0
    1.0450   -2.7220    0.8890 H   0  0  0  0  0  0  0  0  0  0  0  0
    2.4931   -2.1193    1.7251 H   0  0  0  0  0  0  0  0  0  0  0  0
    2.5494   -5.6219    0.4165 H   0  0  0  0  0  0  0  0  0  0  0  0
    2.8815   -4.0011    0.8584 H   0  0  0  0  0  0  0  0  0  0  0  0
   -0.9903    3.0505   -0.7441 H   0  0  0  0  0  0  0  0  0  0  0  0
    0.8357    2.1666   -2.1276 H   0  0  0  0  0  0  0  0  0  0  0  0
   -2.3639    1.4948    0.5776 H   0  0  0  0  0  0  0  0  0  0  0  0
    1.1638   -0.2365   -2.3886 H   0  0  0  0  0  0  0  0  0  0  0  0
    0.4970   -2.3618    3.3341 H   0  0  0  0  0  0  0  0  0  0  0  0
    0.6519   -0.6573    3.0290 H   0  0  0  0  0  0  0  0  0  0  0  0
    1.0626   -5.0170   -1.4654 H   0  0  0  0  0  0  0  0  0  0  0  0
    2.6086   -4.2189   -1.5590 H   0  0  0  0  0  0  0  0  0  0  0  0
  1 21  1  0  0  0  0
  1 22  1  0  0  0  0
  1 23  1  0  0  0  0
  2 24  1  0  0  0  0
  2 25  1  0  0  0  0
  2 26  1  0  0  0  0
  3  1  1  0  0  0  0
  3 27  1  0  0  0  0
  3 28  1  0  0  0  0
  4  2  1  0  0  0  0
  4 29  1  0  0  0  0
  4 30  1  0  0  0  0
  5  3  1  0  0  0  0
  5 31  1  0  0  0  0
  5 32  1  0  0  0  0
  6  4  1  0  0  0  0
  6 33  1  0  0  0  0
  6 34  1  0  0  0  0
  7 35  1  0  0  0  0
  8  7  2  0  0  0  0
  8 36  1  0  0  0  0
  9  7  1  0  0  0  0
  9 37  1  0  0  0  0
 10  8  1  0  0  0  0
 10 38  1  0  0  0  0
 11  5  1  0  0  0  0
 11 39  1  0  0  0  0
 11 40  1  0  0  0  0
 12  6  1  0  0  0  0
 12 41  1  0  0  0  0
 12 42  1  0  0  0  0
 13  9  2  0  0  0  0
 14 10  2  0  0  0  0
 14 13  1  0  0  0  0
 15 13  1  0  0  0  0
 16 14  1  0  0  0  0
 17 15  2  0  0  0  0
 18 16  2  0  0  0  0
 19 11  1  0  0  0  0
 19 15  1  0  0  0  0
 20 12  1  0  0  0  0
 20 16  1  0  0  0  0
M  END
>  <DRUGBANK_ID>
DB13716

>  <COMMON_NAME>
Dibutylphthalate

>  <CAS_NUMBER>
84-74-2

>  <UNII>
2286E5R2KE

>  <SYNONYMS>
Dibutyl phthalate

$$$$
