
 OpenBabel10282417173D

 43 46  0  0  0  0  0  0  0  0999 V2000
    1.0015    0.0747    0.0716 S   0  0  1  0  0  0  0  0  0  0  0  0
   -5.9876   -4.1834   10.6627 F   0  0  0  0  0  0  0  0  0  0  0  0
    0.5664   -0.8794   -1.0019 O   0  0  0  0  0  0  0  0  0  0  0  0
    0.1558   -3.0300    6.2123 N   0  0  0  0  0  0  0  0  0  0  0  0
   -1.9890   -2.7012    5.7717 N   0  0  0  0  0  0  0  0  0  0  0  0
    1.0592   -4.7065   11.1006 N   0  0  0  0  0  0  0  0  0  0  0  0
   -0.5088   -3.3690    7.3719 C   0  0  0  0  0  0  0  0  0  0  0  0
   -1.8428   -3.1671    7.0606 C   0  0  0  0  0  0  0  0  0  0  0  0
   -0.7697   -2.6012    5.2775 C   0  0  0  0  0  0  0  0  0  0  0  0
   -0.3718   -2.0057    3.9947 C   0  0  0  0  0  0  0  0  0  0  0  0
   -2.9468   -3.3959    7.9788 C   0  0  0  0  0  0  0  0  0  0  0  0
    0.1207   -3.8501    8.5991 C   0  0  0  0  0  0  0  0  0  0  0  0
   -0.6537   -0.6566    3.7440 C   0  0  0  0  0  0  0  0  0  0  0  0
    0.3367   -2.7264    3.0238 C   0  0  0  0  0  0  0  0  0  0  0  0
   -3.9427   -4.3281    7.6624 C   0  0  0  0  0  0  0  0  0  0  0  0
   -2.9951   -2.7321    9.2169 C   0  0  0  0  0  0  0  0  0  0  0  0
    0.5538   -0.7378    1.6294 C   0  0  0  0  0  0  0  0  0  0  0  0
   -0.1940   -0.0271    2.5755 C   0  0  0  0  0  0  0  0  0  0  0  0
    0.8127   -2.0931    1.8599 C   0  0  0  0  0  0  0  0  0  0  0  0
   -0.2231   -5.1079    9.1014 C   0  0  0  0  0  0  0  0  0  0  0  0
    0.9500   -3.0289    9.3626 C   0  0  0  0  0  0  0  0  0  0  0  0
   -4.9708   -4.5941    8.5728 C   0  0  0  0  0  0  0  0  0  0  0  0
   -4.0217   -3.0001   10.1253 C   0  0  0  0  0  0  0  0  0  0  0  0
   -5.0010   -3.9272    9.7933 C   0  0  0  0  0  0  0  0  0  0  0  0
    0.2635   -5.4864   10.3410 C   0  0  0  0  0  0  0  0  0  0  0  0
    1.3798   -3.4952   10.5976 C   0  0  0  0  0  0  0  0  0  0  0  0
    2.8072   -0.0258    0.1459 C   0  0  0  0  0  0  0  0  0  0  0  0
    1.1519   -3.0424    6.0717 H   0  0  0  0  0  0  0  0  0  0  0  0
   -1.2415   -0.0871    4.4625 H   0  0  0  0  0  0  0  0  0  0  0  0
    0.4969   -3.7962    3.1416 H   0  0  0  0  0  0  0  0  0  0  0  0
   -3.9109   -4.8600    6.7144 H   0  0  0  0  0  0  0  0  0  0  0  0
   -2.2287   -2.0086    9.4846 H   0  0  0  0  0  0  0  0  0  0  0  0
   -0.4515    1.0163    2.4061 H   0  0  0  0  0  0  0  0  0  0  0  0
    1.3589   -2.6745    1.1198 H   0  0  0  0  0  0  0  0  0  0  0  0
   -0.8893   -5.7701    8.5584 H   0  0  0  0  0  0  0  0  0  0  0  0
    1.2167   -2.0276    9.0440 H   0  0  0  0  0  0  0  0  0  0  0  0
   -5.7459   -5.3169    8.3393 H   0  0  0  0  0  0  0  0  0  0  0  0
   -4.0601   -2.4953   11.0854 H   0  0  0  0  0  0  0  0  0  0  0  0
    0.0018   -6.4481   10.7738 H   0  0  0  0  0  0  0  0  0  0  0  0
    1.9955   -2.8800   11.2483 H   0  0  0  0  0  0  0  0  0  0  0  0
    3.2033    0.4054   -0.7802 H   0  0  0  0  0  0  0  0  0  0  0  0
    3.1861    0.5520    0.9909 H   0  0  0  0  0  0  0  0  0  0  0  0
    3.1389   -1.0645    0.2097 H   0  0  0  0  0  0  0  0  0  0  0  0
  1  3  2  6  0  0  0
  1 17  1  0  0  0  0
  1 27  1  0  0  0  0
  2 24  1  0  0  0  0
  4  7  1  0  0  0  0
  4  9  1  0  0  0  0
  4 28  1  0  0  0  0
  5  8  1  0  0  0  0
  5  9  2  0  0  0  0
  6 25  2  0  0  0  0
  6 26  1  0  0  0  0
  7  8  2  0  0  0  0
  7 12  1  0  0  0  0
  8 11  1  0  0  0  0
  9 10  1  0  0  0  0
 10 13  2  0  0  0  0
 10 14  1  0  0  0  0
 11 15  2  0  0  0  0
 11 16  1  0  0  0  0
 12 20  2  0  0  0  0
 12 21  1  0  0  0  0
 13 18  1  0  0  0  0
 13 29  1  0  0  0  0
 14 19  2  0  0  0  0
 14 30  1  0  0  0  0
 15 22  1  0  0  0  0
 15 31  1  0  0  0  0
 16 23  2  0  0  0  0
 16 32  1  0  0  0  0
 17 18  2  0  0  0  0
 17 19  1  0  0  0  0
 18 33  1  0  0  0  0
 19 34  1  0  0  0  0
 20 25  1  0  0  0  0
 20 35  1  0  0  0  0
 21 26  2  0  0  0  0
 21 36  1  0  0  0  0
 22 24  2  0  0  0  0
 22 37  1  0  0  0  0
 23 24  1  0  0  0  0
 23 38  1  0  0  0  0
 25 39  1  0  0  0  0
 26 40  1  0  0  0  0
 27 41  1  0  0  0  0
 27 42  1  0  0  0  0
 27 43  1  0  0  0  0
M  END
>  <DRUGBANK_ID>
DB08521

>  <COMMON_NAME>
4-[4-(4-Fluorophenyl)-2-[4-[(R)-methylsulfinyl]phenyl]-1H-imidazol-5-yl]pyridine

>  <CAS_NUMBER>
652162-77-1

>  <UNII>
WS78QR6DSV

$$$$
