
 OpenBabel10282417103D

 62 65  0  0  1  0  0  0  0  0999 V2000
    8.1364    3.9690   -7.4029 C   0  0  0  0  0  0  0  0  0  0  0  0
    4.3606    2.6483   -5.4093 C   0  0  0  0  0  0  0  0  0  0  0  0
    6.4091    4.8556   -8.5870 C   0  0  2  0  0  0  0  0  0  0  0  0
    5.5216    6.6134   -6.2350 C   0  0  0  0  0  0  0  0  0  0  0  0
    7.2278    3.4030   -8.3843 C   0  0  0  0  0  0  0  0  0  0  0  0
    2.4599    4.5295   -6.7355 C   0  0  2  0  0  0  0  0  0  0  0  0
    4.0678    6.2333   -6.2361 C   0  0  0  0  0  0  0  0  0  0  0  0
    2.7199    2.2454   -6.0630 C   0  0  1  0  0  0  0  0  0  0  0  0
    1.5685    3.5477   -6.6436 C   0  0  0  0  0  0  0  0  0  0  0  0
    1.2663    5.3540   -5.7358 C   0  0  0  0  0  0  0  0  0  0  0  0
    0.6156    4.3199   -7.6014 C   0  0  0  0  0  0  0  0  0  0  0  0
   -0.3456    4.4635   -5.8454 C   0  0  0  0  0  0  0  0  0  0  0  0
    5.0472    3.7835   -6.2300 C   0  0  2  0  0  0  0  0  0  0  0  0
    4.9856    3.2684   -7.1760 H   0  0  0  0  0  0  0  0  0  0  0  0
    3.9114    4.8049   -5.9540 C   0  0  1  0  0  0  0  0  0  0  0  0
    3.7569    4.8232   -4.8729 H   0  0  0  0  0  0  0  0  0  0  0  0
    6.6056    5.6988   -7.0527 C   0  0  2  0  0  0  0  0  0  0  0  0
    7.8735    6.5855   -7.0103 C   0  0  0  0  0  0  0  0  0  0  0  0
    6.8011    4.3969   -6.2754 C   0  0  1  0  0  0  0  0  0  0  0  0
    7.1642    4.4017   -5.2480 H   0  0  0  0  0  0  0  0  0  0  0  0
   -0.4299    3.0735   -8.4357 O   0  0  0  0  0  0  0  0  0  0  0  0
   -0.3478    3.4280   -7.2306 C   0  0  0  0  0  0  0  0  0  0  0  0
    2.6493    3.6595   -8.2270 C   0  0  0  0  0  0  0  0  0  0  0  0
    5.0087    4.7067   -8.6948 O   0  0  0  0  0  0  0  0  0  0  0  0
    6.5336    5.1025  -10.1439 C   0  0  0  0  0  0  0  0  0  0  0  0
    5.6631    6.0725  -10.9168 C   0  0  0  0  0  0  0  0  0  0  0  0
    7.1621    4.3150  -10.8699 O   0  0  0  0  0  0  0  0  0  0  0  0
    3.2028    1.0838   -6.9834 C   0  0  0  0  0  0  0  0  0  0  0  0
    4.2780    5.8145   -8.7330 C   0  0  0  0  0  0  0  0  0  0  0  0
    4.7381    7.2366   -8.6117 C   0  0  0  0  0  0  0  0  0  0  0  0
    3.0369    5.7934   -9.0166 O   0  0  0  0  0  0  0  0  0  0  0  0
    8.4909    4.7464   -8.1678 H   0  0  0  0  0  0  0  0  0  0  0  0
    9.2367    3.8968   -7.1736 H   0  0  0  0  0  0  0  0  0  0  0  0
    5.1106    1.8503   -5.4953 H   0  0  0  0  0  0  0  0  0  0  0  0
    4.2682    2.7415   -4.3155 H   0  0  0  0  0  0  0  0  0  0  0  0
    5.7098    7.6253   -6.6076 H   0  0  0  0  0  0  0  0  0  0  0  0
    5.7451    6.7957   -5.1829 H   0  0  0  0  0  0  0  0  0  0  0  0
    7.7759    2.9340   -9.2142 H   0  0  0  0  0  0  0  0  0  0  0  0
    6.7450    2.6021   -7.8320 H   0  0  0  0  0  0  0  0  0  0  0  0
    3.5584    6.7001   -7.0647 H   0  0  0  0  0  0  0  0  0  0  0  0
    3.1846    6.7061   -5.7824 H   0  0  0  0  0  0  0  0  0  0  0  0
    2.1536    1.8061   -5.1767 H   0  0  0  0  0  0  0  0  0  0  0  0
    1.1236    6.3619   -6.1650 H   0  0  0  0  0  0  0  0  0  0  0  0
    1.5057    5.4610   -4.6686 H   0  0  0  0  0  0  0  0  0  0  0  0
   -0.3418    4.9267   -7.9902 H   0  0  0  0  0  0  0  0  0  0  0  0
   -1.1097    5.2418   -5.8930 H   0  0  0  0  0  0  0  0  0  0  0  0
   -0.3713    3.8440   -4.9439 H   0  0  0  0  0  0  0  0  0  0  0  0
    7.8435    7.2316   -6.1306 H   0  0  0  0  0  0  0  0  0  0  0  0
    8.8306    6.0766   -6.8885 H   0  0  0  0  0  0  0  0  0  0  0  0
    7.9133    7.1827   -7.9212 H   0  0  0  0  0  0  0  0  0  0  0  0
    2.0567    2.6998   -8.4169 H   0  0  0  0  0  0  0  0  0  0  0  0
    2.1439    4.1761   -9.0656 H   0  0  0  0  0  0  0  0  0  0  0  0
    3.5992    3.2921   -8.4129 H   0  0  0  0  0  0  0  0  0  0  0  0
    6.2219    6.9306  -11.2628 H   0  0  0  0  0  0  0  0  0  0  0  0
    4.7276    5.6268  -11.2869 H   0  0  0  0  0  0  0  0  0  0  0  0
    5.0987    6.7438  -10.3691 H   0  0  0  0  0  0  0  0  0  0  0  0
    4.2704    0.8753   -6.8172 H   0  0  0  0  0  0  0  0  0  0  0  0
    2.7186    0.1302   -6.7869 H   0  0  0  0  0  0  0  0  0  0  0  0
    3.2013    1.2902   -8.0424 H   0  0  0  0  0  0  0  0  0  0  0  0
    4.0581    7.6770   -9.3378 H   0  0  0  0  0  0  0  0  0  0  0  0
    4.4550    7.9318   -7.8322 H   0  0  0  0  0  0  0  0  0  0  0  0
    5.8108    7.3169   -8.7502 H   0  0  0  0  0  0  0  0  0  0  0  0
  1 32  1  0  0  0  0
  1 33  1  0  0  0  0
  2  8  1  0  0  0  0
  2 34  1  0  0  0  0
  2 35  1  0  0  0  0
  3  5  1  0  0  0  0
  3 25  1  6  0  0  0
  3 24  1  0  0  0  0
  4  7  1  0  0  0  0
  4 36  1  0  0  0  0
  4 37  1  0  0  0  0
  5  1  1  0  0  0  0
  5 38  1  0  0  0  0
  5 39  1  0  0  0  0
  6  9  1  0  0  0  0
  6 10  1  0  0  0  0
  6 23  1  1  0  0  0
  7 40  1  0  0  0  0
  7 41  1  0  0  0  0
  8  9  1  0  0  0  0
  8 28  1  0  0  0  0
  8 42  1  1  0  0  0
  9 11  2  0  0  0  0
 10 12  1  0  0  0  0
 10 43  1  0  0  0  0
 10 44  1  0  0  0  0
 11 22  1  0  0  0  0
 11 45  1  0  0  0  0
 12 22  1  0  0  0  0
 12 46  1  0  0  0  0
 12 47  1  0  0  0  0
 13 15  1  0  0  0  0
 13  2  1  0  0  0  0
 13 14  1  1  0  0  0
 15  6  1  0  0  0  0
 15  7  1  0  0  0  0
 15 16  1  6  0  0  0
 17  3  1  0  0  0  0
 17  4  1  0  0  0  0
 17 18  1  6  0  0  0
 18 48  1  0  0  0  0
 18 49  1  0  0  0  0
 18 50  1  0  0  0  0
 19 13  1  0  0  0  0
 19 17  1  0  0  0  0
 19  1  1  0  0  0  0
 19 20  1  6  0  0  0
 22 21  2  0  0  0  0
 23 51  1  0  0  0  0
 23 52  1  0  0  0  0
 23 53  1  0  0  0  0
 24 29  1  0  0  0  0
 25 26  1  0  0  0  0
 25 27  2  0  0  0  0
 26 54  1  0  0  0  0
 26 55  1  0  0  0  0
 26 56  1  0  0  0  0
 28 57  1  0  0  0  0
 28 58  1  0  0  0  0
 28 59  1  0  0  0  0
 29 30  1  0  0  0  0
 29 31  2  0  0  0  0
 30 60  1  0  0  0  0
 30 61  1  0  0  0  0
 30 62  1  0  0  0  0
M  END
>  <DRUGBANK_ID>
DB00603

>  <SECONDARY_ACCESSION_NUMBERS>
APRD00627

>  <COMMON_NAME>
Medroxyprogesterone acetate

>  <CAS_NUMBER>
71-58-9

>  <UNII>
C2QI4IOI2G

>  <SYNONYMS>
(6α)-17-(Acetyloxy)-6-methylpreg-4-ene-3,20-dione; 17-Acetoxy-6α-methylprogesterone; 17α-hydroxy-6α-methylprogesterone acetate; 6-alpha-Methyl-17-alpha-acetoxyprogesterone; 6-alpha-Methyl-17-alpha-hydroxyprogesterone acetate; 6α-Methyl-17-acetoxy progesterone; 6α-Methyl-17α-hydroxyprogesterone acetate; 6α-Methyl-4-pregnene-3,20-dion-17α-ol acetate; Medroxyacetate progesterone; Medroxyprogesterone 17-acetate; Medroxyprogesterone acetate; Methylacetoxyprogesterone; Metigestrona; MPA

$$$$
