
 OpenBabel10282417233D

 48 52  0  0  0  0  0  0  0  0999 V2000
    0.2890    0.7174    0.0052 C   0  0  0  0  0  0  0  0  0  0  0  0
    0.2829   -0.6704    0.0086 N   0  0  0  0  0  0  0  0  0  0  0  0
    1.5665   -1.1150   -0.0008 N   0  0  0  0  0  0  0  0  0  0  0  0
    2.2601    0.0241   -0.0018 C   0  0  0  0  0  0  0  0  0  0  0  0
    1.5227    1.1697    0.0006 N   0  0  0  0  0  0  0  0  0  0  0  0
   -0.8905   -1.4106    0.0041 C   0  0  0  0  0  0  0  0  0  0  0  0
   -2.1136   -0.8270    0.0019 C   0  0  0  0  0  0  0  0  0  0  0  0
   -2.1230    0.6636    0.0023 C   0  0  0  0  0  0  0  0  0  0  0  0
   -0.9667    1.3726    0.0025 C   0  0  0  0  0  0  0  0  0  0  0  0
   -3.4093    1.4436    0.0038 C   0  0  0  0  0  0  0  0  0  0  0  0
   -3.2984   -1.5457   -0.0587 N   0  0  0  0  0  0  0  0  0  0  0  0
   -3.4229   -2.9365   -0.0103 C   0  0  0  0  0  0  0  0  0  0  0  0
   -2.8298   -4.8903    1.0918 C   0  0  0  0  0  0  0  0  0  0  0  0
   -2.8165   -3.5518    1.0364 N   0  0  0  0  0  0  0  0  0  0  0  0
   -3.4185   -5.6098    0.1094 C   0  0  0  0  0  0  0  0  0  0  0  0
   -4.0857   -3.5822   -1.0034 N   0  0  0  0  0  0  0  0  0  0  0  0
   -4.0282   -4.9214   -0.9227 C   0  0  0  0  0  0  0  0  0  0  0  0
   -3.5419   -6.9774   -0.0915 N   0  0  0  0  0  0  0  0  0  0  0  0
   -4.2320   -7.1827   -1.2835 C   0  0  0  0  0  0  0  0  0  0  0  0
   -4.5309   -5.9038   -1.8051 N   0  0  0  0  0  0  0  0  0  0  0  0
   -3.0799   -8.0273    0.7582 C   0  0  0  0  0  0  0  0  0  0  0  0
   -4.5133   -8.2752   -1.7594 O   0  0  0  0  0  0  0  0  0  0  0  0
   -5.2326   -5.6990   -3.0536 C   0  0  0  0  0  0  0  0  0  0  0  0
   -6.6414   -6.3096   -2.9835 C   0  0  0  0  0  0  0  0  0  0  0  0
   -7.3227   -6.2891   -4.3393 C   0  0  0  0  0  0  0  0  0  0  0  0
   -6.5161   -6.9217   -5.3293 O   0  0  0  0  0  0  0  0  0  0  0  0
   -5.2607   -6.2707   -5.5060 C   0  0  0  0  0  0  0  0  0  0  0  0
   -4.4471   -6.3112   -4.2257 C   0  0  0  0  0  0  0  0  0  0  0  0
    3.3433    0.0207   -0.0054 H   0  0  0  0  0  0  0  0  0  0  0  0
   -0.7384   -2.4805   -0.0132 H   0  0  0  0  0  0  0  0  0  0  0  0
   -0.9576    2.4579   -0.0014 H   0  0  0  0  0  0  0  0  0  0  0  0
   -3.4612    2.0844    0.8913 H   0  0  0  0  0  0  0  0  0  0  0  0
   -3.4645    2.0788   -0.8876 H   0  0  0  0  0  0  0  0  0  0  0  0
   -4.3085    0.8281    0.0101 H   0  0  0  0  0  0  0  0  0  0  0  0
   -4.1748   -1.0777   -0.2087 H   0  0  0  0  0  0  0  0  0  0  0  0
   -2.3346   -5.3392    1.9409 H   0  0  0  0  0  0  0  0  0  0  0  0
   -3.9421   -8.6274    1.0637 H   0  0  0  0  0  0  0  0  0  0  0  0
   -2.4014   -8.6658    0.1855 H   0  0  0  0  0  0  0  0  0  0  0  0
   -2.5698   -7.6353    1.6387 H   0  0  0  0  0  0  0  0  0  0  0  0
   -5.3313   -4.6205   -3.2328 H   0  0  0  0  0  0  0  0  0  0  0  0
   -6.5867   -7.3544   -2.6550 H   0  0  0  0  0  0  0  0  0  0  0  0
   -7.2475   -5.7823   -2.2384 H   0  0  0  0  0  0  0  0  0  0  0  0
   -8.2684   -6.8384   -4.2814 H   0  0  0  0  0  0  0  0  0  0  0  0
   -7.5499   -5.2651   -4.6524 H   0  0  0  0  0  0  0  0  0  0  0  0
   -5.4254   -5.2404   -5.8376 H   0  0  0  0  0  0  0  0  0  0  0  0
   -4.7218   -6.7964   -6.3013 H   0  0  0  0  0  0  0  0  0  0  0  0
   -3.4918   -5.7913   -4.3595 H   0  0  0  0  0  0  0  0  0  0  0  0
   -4.2046   -7.3601   -4.0162 H   0  0  0  0  0  0  0  0  0  0  0  0
  1  2  1  0  0  0  0
  1  9  1  0  0  0  0
  2  3  1  0  0  0  0
  2  6  1  0  0  0  0
  3  4  2  0  0  0  0
  4  5  1  0  0  0  0
  4 29  1  0  0  0  0
  5  1  2  0  0  0  0
  6  7  2  0  0  0  0
  6 30  1  0  0  0  0
  7  8  1  0  0  0  0
  7 11  1  0  0  0  0
  8  9  2  0  0  0  0
  8 10  1  0  0  0  0
  9 31  1  0  0  0  0
 10 32  1  0  0  0  0
 10 33  1  0  0  0  0
 10 34  1  0  0  0  0
 11 12  1  0  0  0  0
 11 35  1  0  0  0  0
 12 16  1  0  0  0  0
 13 14  1  0  0  0  0
 13 36  1  0  0  0  0
 14 12  2  0  0  0  0
 15 13  2  0  0  0  0
 15 18  1  0  0  0  0
 16 17  2  0  0  0  0
 17 15  1  0  0  0  0
 18 19  1  0  0  0  0
 18 21  1  0  0  0  0
 19 20  1  0  0  0  0
 19 22  2  0  0  0  0
 20 17  1  0  0  0  0
 20 23  1  0  0  0  0
 21 37  1  0  0  0  0
 21 38  1  0  0  0  0
 21 39  1  0  0  0  0
 23 24  1  0  0  0  0
 23 40  1  0  0  0  0
 24 25  1  0  0  0  0
 24 41  1  0  0  0  0
 24 42  1  0  0  0  0
 25 26  1  0  0  0  0
 25 43  1  0  0  0  0
 25 44  1  0  0  0  0
 26 27  1  0  0  0  0
 27 28  1  0  0  0  0
 27 45  1  0  0  0  0
 27 46  1  0  0  0  0
 28 23  1  0  0  0  0
 28 47  1  0  0  0  0
 28 48  1  0  0  0  0
M  END
>  <DRUGBANK_ID>
DB16834

>  <COMMON_NAME>
AZD-7648

>  <CAS_NUMBER>
2230820-11-6

>  <UNII>
97A09L5JCK

>  <SYNONYMS>
AZD7648

$$$$
