
 OpenBabel10282417233D

 51 54  0  0  1  0  0  0  0  0999 V2000
    1.0781    0.0831   -0.0215 C   0  0  0  0  0  0  0  0  0  0  0  0
    0.5785    1.3893    0.5620 C   0  0  0  0  0  0  0  0  0  0  0  0
    0.9194    2.5136   -0.2926 N   0  0  0  0  0  0  0  0  0  0  0  0
    0.0841    3.3629   -0.9586 C   0  0  0  0  0  0  0  0  0  0  0  0
    0.5730    4.2828   -1.6303 O   0  0  0  0  0  0  0  0  0  0  0  0
   -1.4344    3.1895   -0.8405 C   0  0  1  0  0  0  0  0  0  0  0  0
   -2.0080    4.2479   -0.0585 O   0  0  0  0  0  0  0  0  0  0  0  0
   -2.9025    4.9949   -0.8998 C   0  0  2  0  0  0  0  0  0  0  0  0
   -2.5896    4.6302   -2.3521 C   0  0  2  0  0  0  0  0  0  0  0  0
   -3.7174    4.7733   -3.2075 O   0  0  0  0  0  0  0  0  0  0  0  0
   -2.1086    3.2013   -2.2108 C   0  0  2  0  0  0  0  0  0  0  0  0
   -3.2328    2.3031   -2.2257 O   0  0  0  0  0  0  0  0  0  0  0  0
   -2.7132    6.3906   -0.6366 N   0  0  0  0  0  0  0  0  0  0  0  0
   -1.5560    7.0476   -0.9150 C   0  0  0  0  0  0  0  0  0  0  0  0
   -1.7057    8.3192   -0.7121 N   0  0  0  0  0  0  0  0  0  0  0  0
   -2.9568    8.4903   -0.1639 C   0  0  0  0  0  0  0  0  0  0  0  0
   -3.6302    7.2878   -0.1516 C   0  0  0  0  0  0  0  0  0  0  0  0
   -4.8903    7.0860    0.2664 N   0  0  0  0  0  0  0  0  0  0  0  0
   -5.4286    8.2491    0.7157 C   0  0  0  0  0  0  0  0  0  0  0  0
   -4.8656    9.4802    0.8079 N   0  0  0  0  0  0  0  0  0  0  0  0
   -3.5896    9.6338    0.3752 C   0  0  0  0  0  0  0  0  0  0  0  0
   -2.9848   10.8717    0.5129 N   0  0  0  0  0  0  0  0  0  0  0  0
   -1.6053   11.1337    0.1311 C   0  0  0  0  0  0  0  0  0  0  0  0
   -1.3709   10.9602   -1.3748 C   0  0  0  0  0  0  0  0  0  0  0  0
    0.0657   10.4662   -1.5114 C   0  0  0  0  0  0  0  0  0  0  0  0
    0.5749   10.1064   -0.1103 C   0  0  0  0  0  0  0  0  0  0  0  0
   -0.5921   10.2408    0.8601 C   0  0  0  0  0  0  0  0  0  0  0  0
    0.7102   -0.0601   -1.0432 H   0  0  0  0  0  0  0  0  0  0  0  0
    0.7300   -0.7558    0.5889 H   0  0  0  0  0  0  0  0  0  0  0  0
    2.1717    0.0600   -0.0487 H   0  0  0  0  0  0  0  0  0  0  0  0
   -0.4950    1.3111    0.7154 H   0  0  0  0  0  0  0  0  0  0  0  0
    1.0247    1.5735    1.5431 H   0  0  0  0  0  0  0  0  0  0  0  0
    1.9046    2.7295   -0.4135 H   0  0  0  0  0  0  0  0  0  0  0  0
   -1.6999    2.2674   -0.3346 H   0  0  0  0  0  0  0  0  0  0  0  0
   -3.9274    4.7319   -0.6238 H   0  0  0  0  0  0  0  0  0  0  0  0
   -1.7801    5.2365   -2.7747 H   0  0  0  0  0  0  0  0  0  0  0  0
   -4.3936    4.1286   -2.9342 H   0  0  0  0  0  0  0  0  0  0  0  0
   -1.4402    2.8954   -3.0216 H   0  0  0  0  0  0  0  0  0  0  0  0
   -3.8354    2.5231   -1.4945 H   0  0  0  0  0  0  0  0  0  0  0  0
   -0.6474    6.5854   -1.2829 H   0  0  0  0  0  0  0  0  0  0  0  0
   -6.4592    8.1875    1.0549 H   0  0  0  0  0  0  0  0  0  0  0  0
   -3.5552   11.6143    0.8926 H   0  0  0  0  0  0  0  0  0  0  0  0
   -1.3572   12.1727    0.3821 H   0  0  0  0  0  0  0  0  0  0  0  0
   -2.0624   10.2568   -1.8521 H   0  0  0  0  0  0  0  0  0  0  0  0
   -1.5436   11.8874   -1.9291 H   0  0  0  0  0  0  0  0  0  0  0  0
    0.1160    9.6012   -2.1861 H   0  0  0  0  0  0  0  0  0  0  0  0
    0.6941   11.2435   -1.9542 H   0  0  0  0  0  0  0  0  0  0  0  0
    0.9937    9.0922   -0.0904 H   0  0  0  0  0  0  0  0  0  0  0  0
    1.3733   10.7928    0.1820 H   0  0  0  0  0  0  0  0  0  0  0  0
   -0.2928   10.6482    1.8299 H   0  0  0  0  0  0  0  0  0  0  0  0
   -0.9672    9.2525    1.1375 H   0  0  0  0  0  0  0  0  0  0  0  0
  1  2  1  0  0  0  0
  1 28  1  0  0  0  0
  1 29  1  0  0  0  0
  1 30  1  0  0  0  0
  2  3  1  0  0  0  0
  2 31  1  0  0  0  0
  2 32  1  0  0  0  0
  3  4  1  0  0  0  0
  3 33  1  0  0  0  0
  4  5  2  0  0  0  0
  6  4  1  0  0  0  0
  6  7  1  0  0  0  0
  6 34  1  1  0  0  0
  8  7  1  0  0  0  0
  8 35  1  1  0  0  0
  8 13  1  0  0  0  0
  9  8  1  0  0  0  0
  9 10  1  0  0  0  0
  9 11  1  0  0  0  0
  9 36  1  6  0  0  0
 10 37  1  0  0  0  0
 11  6  1  0  0  0  0
 11 12  1  0  0  0  0
 11 38  1  6  0  0  0
 12 39  1  0  0  0  0
 13 14  1  0  0  0  0
 13 17  1  0  0  0  0
 14 15  2  0  0  0  0
 14 40  1  0  0  0  0
 15 16  1  0  0  0  0
 16 17  2  0  0  0  0
 16 21  1  0  0  0  0
 17 18  1  0  0  0  0
 18 19  2  0  0  0  0
 19 20  1  0  0  0  0
 19 41  1  0  0  0  0
 20 21  2  0  0  0  0
 21 22  1  0  0  0  0
 22 23  1  0  0  0  0
 22 42  1  0  0  0  0
 23 24  1  0  0  0  0
 23 27  1  0  0  0  0
 23 43  1  0  0  0  0
 24 25  1  0  0  0  0
 24 44  1  0  0  0  0
 24 45  1  0  0  0  0
 25 26  1  0  0  0  0
 25 46  1  0  0  0  0
 25 47  1  0  0  0  0
 26 27  1  0  0  0  0
 26 48  1  0  0  0  0
 26 49  1  0  0  0  0
 27 50  1  0  0  0  0
 27 51  1  0  0  0  0
M  END
>  <DRUGBANK_ID>
DB16325

>  <COMMON_NAME>
Selodenoson

>  <CAS_NUMBER>
110299-05-3

>  <UNII>
103G5E953K

>  <SYNONYMS>
Selodenoson

$$$$
