
 OpenBabel10282417153D

 43 44  0  0  1  0  0  0  0  0999 V2000
    1.0439   -0.3194    0.8261 O   0  0  0  0  0  0  0  0  0  0  0  0
   -2.7848    1.5184    2.1255 O   0  0  0  0  0  0  0  0  0  0  0  0
    1.0915   -2.4618    0.3146 O   0  0  0  0  0  0  0  0  0  0  0  0
    1.9418    0.6016   -1.6204 O   0  0  0  0  0  0  0  0  0  0  0  0
    1.0275    1.5270   -3.4326 O   0  0  0  0  0  0  0  0  0  0  0  0
   -1.7161   -0.2655    1.3599 N   0  0  0  0  0  0  0  0  0  0  0  0
   -0.5304   -2.8389   -4.2018 N   0  0  0  0  0  0  0  0  0  0  0  0
   -1.0807    0.4738   -2.3826 N   0  0  0  0  0  0  0  0  0  0  0  0
   -1.9207   -1.5484   -0.8162 C   0  0  0  0  0  0  0  0  0  0  0  0
   -1.1647   -1.4424    0.5357 C   0  0  1  0  0  0  0  0  0  0  0  0
   -1.3496   -2.1708   -2.1560 C   0  0  0  0  0  0  0  0  0  0  0  0
   -1.3964   -3.5382   -2.2707 C   0  0  0  0  0  0  0  0  0  0  0  0
   -0.9668   -3.9338   -3.5329 C   0  0  0  0  0  0  0  0  0  0  0  0
   -2.7418    1.5079   -0.2667 C   0  0  0  0  0  0  0  0  0  0  0  0
   -1.5791    2.1591   -1.1255 C   0  0  0  0  0  0  0  0  0  0  0  0
   -0.9077   -1.7738   -3.4487 C   0  0  0  0  0  0  0  0  0  0  0  0
   -2.3906    0.9108    1.1208 C   0  0  0  0  0  0  0  0  0  0  0  0
   -0.4258    1.2551   -1.4161 C   0  0  2  0  0  0  0  0  0  0  0  0
   -1.9112   -4.4089   -1.3335 C   0  0  0  0  0  0  0  0  0  0  0  0
    0.4072   -1.4958    0.5436 C   0  0  0  0  0  0  0  0  0  0  0  0
   -1.0644   -5.2373   -3.9448 C   0  0  0  0  0  0  0  0  0  0  0  0
   -2.0620   -5.7010   -1.7311 C   0  0  0  0  0  0  0  0  0  0  0  0
   -1.6520   -6.0974   -3.0092 C   0  0  0  0  0  0  0  0  0  0  0  0
    0.9374    1.2943   -2.2387 C   0  0  0  0  0  0  0  0  0  0  0  0
    1.9984   -0.5372    0.9689 H   0  0  0  0  0  0  0  0  0  0  0  0
    1.6703    0.2239   -0.7683 H   0  0  0  0  0  0  0  0  0  0  0  0
   -1.5831   -0.3740    2.3644 H   0  0  0  0  0  0  0  0  0  0  0  0
   -0.1428   -2.7641   -5.1399 H   0  0  0  0  0  0  0  0  0  0  0  0
   -0.5288   -0.3627   -2.2285 H   0  0  0  0  0  0  0  0  0  0  0  0
   -2.0673    0.2378   -2.3953 H   0  0  0  0  0  0  0  0  0  0  0  0
   -2.9727   -1.8634   -0.6815 H   0  0  0  0  0  0  0  0  0  0  0  0
   -2.1545   -0.5375   -0.9351 H   0  0  0  0  0  0  0  0  0  0  0  0
   -1.4353   -2.3206    1.1417 H   0  0  0  0  0  0  0  0  0  0  0  0
   -3.3958    0.7986   -0.8044 H   0  0  0  0  0  0  0  0  0  0  0  0
   -3.4557    2.3260   -0.1007 H   0  0  0  0  0  0  0  0  0  0  0  0
   -2.0300    2.4762   -2.0810 H   0  0  0  0  0  0  0  0  0  0  0  0
   -1.1811    3.0268   -0.6216 H   0  0  0  0  0  0  0  0  0  0  0  0
   -0.7284   -0.8340   -3.9785 H   0  0  0  0  0  0  0  0  0  0  0  0
   -0.2372    0.7190   -0.5004 H   0  0  0  0  0  0  0  0  0  0  0  0
   -2.2710   -4.0390   -0.3805 H   0  0  0  0  0  0  0  0  0  0  0  0
   -0.7676   -5.5311   -4.9424 H   0  0  0  0  0  0  0  0  0  0  0  0
   -2.5407   -6.3623   -1.0260 H   0  0  0  0  0  0  0  0  0  0  0  0
   -1.8182   -7.1225   -3.2949 H   0  0  0  0  0  0  0  0  0  0  0  0
  1 20  1  0  0  0  0
  1 25  1  0  0  0  0
  2 17  2  0  0  0  0
  3 20  2  0  0  0  0
  4 24  1  0  0  0  0
  4 26  1  0  0  0  0
  5 24  2  0  0  0  0
  6 17  1  0  0  0  0
  6 27  1  0  0  0  0
  7 13  1  0  0  0  0
  7 16  1  0  0  0  0
  7 28  1  0  0  0  0
  8 29  1  0  0  0  0
  8 30  1  0  0  0  0
  9 10  1  0  0  0  0
  9 11  1  0  0  0  0
  9 31  1  0  0  0  0
  9 32  1  0  0  0  0
 10  6  1  0  0  0  0
 10 20  1  0  0  0  0
 10 33  1  1  0  0  0
 11 12  1  0  0  0  0
 11 16  2  0  0  0  0
 12 13  1  0  0  0  0
 12 19  2  0  0  0  0
 13 21  2  0  0  0  0
 14 15  1  0  0  0  0
 14 17  1  0  0  0  0
 14 34  1  0  0  0  0
 14 35  1  0  0  0  0
 15 18  1  0  0  0  0
 15 36  1  0  0  0  0
 15 37  1  0  0  0  0
 16 38  1  0  0  0  0
 18  8  1  0  0  0  0
 18 24  1  0  0  0  0
 18 39  1  1  0  0  0
 19 22  1  0  0  0  0
 19 40  1  0  0  0  0
 21 23  1  0  0  0  0
 21 41  1  0  0  0  0
 22 23  2  0  0  0  0
 22 42  1  0  0  0  0
 23 43  1  0  0  0  0
M  END
>  <DRUGBANK_ID>
DB05475

>  <COMMON_NAME>
Golotimod

>  <CAS_NUMBER>
229305-39-9

>  <UNII>
637C487Y09

>  <SYNONYMS>
Golotimod

$$$$
