
 OpenBabel10282417233D

 51 55  0  0  0  0  0  0  0  0999 V2000
    0.4423   -1.1582    0.2574 C   0  0  0  0  0  0  0  0  0  0  0  0
   -0.6176   -0.0361    1.0439 S   0  0  0  0  0  0  0  0  0  0  0  0
    0.0946    1.2743    0.2978 N   0  0  0  0  0  0  0  0  0  0  0  0
    1.3077    0.8310   -0.0194 C   0  0  0  0  0  0  0  0  0  0  0  0
    1.5513   -0.5452   -0.1035 N   0  0  0  0  0  0  0  0  0  0  0  0
   -5.3043   -2.9199   -2.3946 C   0  0  1  0  0  0  0  0  0  0  0  0
   -3.9448   -2.3597   -2.7426 C   0  0  0  0  0  0  0  0  0  0  0  0
   -5.2135   -3.2003   -0.8909 C   0  0  0  0  0  0  0  0  0  0  0  0
   -4.4368   -2.0157   -0.3317 C   0  0  2  0  0  0  0  0  0  0  0  0
   -3.6264   -1.5027   -1.5384 C   0  0  1  0  0  0  0  0  0  0  0  0
   -2.1986   -1.5497   -1.1600 C   0  0  0  0  0  0  0  0  0  0  0  0
   -2.1418   -2.3940   -0.0002 N   0  0  0  0  0  0  0  0  0  0  0  0
   -3.4043   -2.3878    0.7246 C   0  0  0  0  0  0  0  0  0  0  0  0
   -1.0337   -3.1583    0.2364 C   0  0  0  0  0  0  0  0  0  0  0  0
    0.1819   -2.5110    0.1547 N   0  0  0  0  0  0  0  0  0  0  0  0
   -1.0945   -4.3669    0.3886 O   0  0  0  0  0  0  0  0  0  0  0  0
    2.2047    1.8288   -0.1346 O   0  0  0  0  0  0  0  0  0  0  0  0
    3.5337    1.3609   -0.0332 C   0  0  0  0  0  0  0  0  0  0  0  0
   -3.8041   -0.4549   -1.7420 H   0  0  0  0  0  0  0  0  0  0  0  0
   -5.1320   -1.2581    0.0529 H   0  0  0  0  0  0  0  0  0  0  0  0
   -6.5571   -0.7091   -2.3288 C   0  0  0  0  0  0  0  0  0  0  0  0
   -5.6072    0.2236   -2.6094 N   0  0  0  0  0  0  0  0  0  0  0  0
   -5.6469    1.4355   -2.0094 C   0  0  0  0  0  0  0  0  0  0  0  0
   -6.5836    1.9102   -1.1798 N   0  0  0  0  0  0  0  0  0  0  0  0
   -7.6493   -0.2603   -1.5612 C   0  0  0  0  0  0  0  0  0  0  0  0
   -7.5730    1.0205   -1.0297 C   0  0  0  0  0  0  0  0  0  0  0  0
   -8.7001    1.2467   -0.2917 N   0  0  0  0  0  0  0  0  0  0  0  0
   -9.5244    0.1543   -0.3639 C   0  0  0  0  0  0  0  0  0  0  0  0
   -8.8846   -0.8060   -1.1182 C   0  0  0  0  0  0  0  0  0  0  0  0
   -6.4149   -2.0221   -2.7447 N   0  0  0  0  0  0  0  0  0  0  0  0
   -7.3811   -2.5429   -3.6841 C   0  0  0  0  0  0  0  0  0  0  0  0
   -5.4310   -3.8766   -2.9170 H   0  0  0  0  0  0  0  0  0  0  0  0
   -3.2098   -3.1697   -2.8454 H   0  0  0  0  0  0  0  0  0  0  0  0
   -3.9276   -1.7831   -3.6724 H   0  0  0  0  0  0  0  0  0  0  0  0
   -6.1907   -3.3224   -0.4138 H   0  0  0  0  0  0  0  0  0  0  0  0
   -4.6438   -4.1233   -0.7176 H   0  0  0  0  0  0  0  0  0  0  0  0
   -1.4929   -1.8367   -1.9426 H   0  0  0  0  0  0  0  0  0  0  0  0
   -1.9965   -0.5254   -0.8769 H   0  0  0  0  0  0  0  0  0  0  0  0
   -3.3251   -1.5562    1.4398 H   0  0  0  0  0  0  0  0  0  0  0  0
   -3.6156   -3.2892    1.3071 H   0  0  0  0  0  0  0  0  0  0  0  0
    0.9757   -3.1128   -0.0072 H   0  0  0  0  0  0  0  0  0  0  0  0
    3.6992    0.7888    0.8881 H   0  0  0  0  0  0  0  0  0  0  0  0
    3.7851    0.7678   -0.9153 H   0  0  0  0  0  0  0  0  0  0  0  0
    4.1890    2.2362   -0.0031 H   0  0  0  0  0  0  0  0  0  0  0  0
   -4.7993    2.0906   -2.1960 H   0  0  0  0  0  0  0  0  0  0  0  0
   -8.8791    2.1085    0.2033 H   0  0  0  0  0  0  0  0  0  0  0  0
  -10.4867    0.1522    0.1276 H   0  0  0  0  0  0  0  0  0  0  0  0
   -9.2676   -1.7878   -1.3588 H   0  0  0  0  0  0  0  0  0  0  0  0
   -6.8695   -2.8524   -4.6026 H   0  0  0  0  0  0  0  0  0  0  0  0
   -7.8643   -3.4253   -3.2520 H   0  0  0  0  0  0  0  0  0  0  0  0
   -8.1506   -1.8167   -3.9557 H   0  0  0  0  0  0  0  0  0  0  0  0
  1  2  1  0  0  0  0
  2  3  1  0  0  0  0
  3  4  2  0  0  0  0
  4 17  1  0  0  0  0
  4  5  1  0  0  0  0
  5  1  2  0  0  0  0
  6  7  1  0  0  0  0
  6 32  1  6  0  0  0
  6 30  1  0  0  0  0
  7 10  1  0  0  0  0
  7 33  1  0  0  0  0
  7 34  1  0  0  0  0
  8  6  1  0  0  0  0
  8 35  1  0  0  0  0
  8 36  1  0  0  0  0
  9  8  1  0  0  0  0
  9 10  1  0  0  0  0
  9 20  1  1  0  0  0
 10 19  1  6  0  0  0
 10 11  1  0  0  0  0
 11 12  1  0  0  0  0
 11 37  1  0  0  0  0
 11 38  1  0  0  0  0
 12 13  1  0  0  0  0
 12 14  1  0  0  0  0
 13  9  1  0  0  0  0
 13 39  1  0  0  0  0
 13 40  1  0  0  0  0
 14 15  1  0  0  0  0
 14 16  2  0  0  0  0
 15  1  1  0  0  0  0
 15 41  1  0  0  0  0
 17 18  1  0  0  0  0
 18 42  1  0  0  0  0
 18 43  1  0  0  0  0
 18 44  1  0  0  0  0
 21 22  2  0  0  0  0
 21 30  1  0  0  0  0
 22 23  1  0  0  0  0
 23 24  2  0  0  0  0
 23 45  1  0  0  0  0
 24 26  1  0  0  0  0
 25 21  1  0  0  0  0
 25 26  2  0  0  0  0
 26 27  1  0  0  0  0
 27 28  1  0  0  0  0
 27 46  1  0  0  0  0
 28 29  2  0  0  0  0
 28 47  1  0  0  0  0
 29 25  1  0  0  0  0
 29 48  1  0  0  0  0
 30 31  1  0  0  0  0
 31 49  1  0  0  0  0
 31 50  1  0  0  0  0
 31 51  1  0  0  0  0
M  END
>  <DRUGBANK_ID>
DB16756

>  <COMMON_NAME>
Ivarmacitinib

>  <CAS_NUMBER>
1445987-21-2

>  <UNII>
K6K4B9Z5TV

>  <SYNONYMS>
Ivarmacitinib

$$$$
