
 OpenBabel10282417183D

 28 29  0  0  0  0  0  0  0  0999 V2000
   -1.1206    1.1914   -0.0150 C   0  0  0  0  0  0  0  0  0  0  0  0
    0.2731    1.1940    0.0102 C   0  0  0  0  0  0  0  0  0  0  0  0
    0.9827   -0.0122    0.0296 C   0  0  0  0  0  0  0  0  0  0  0  0
    0.2752   -1.2249    0.0555 C   0  0  0  0  0  0  0  0  0  0  0  0
   -1.1228   -1.2288    0.0057 C   0  0  0  0  0  0  0  0  0  0  0  0
   -1.8169   -0.0171   -0.0440 C   0  0  0  0  0  0  0  0  0  0  0  0
    2.4825   -0.0091   -0.0058 C   0  0  0  0  0  0  0  0  0  0  0  0
   -1.8356   -2.4354    0.0211 N   0  0  0  0  0  0  0  0  0  0  0  0
   -1.7112   -3.4085    1.0535 C   0  0  0  0  0  0  0  0  0  0  0  0
   -2.8990   -4.3167    0.7894 C   0  0  3  0  0  0  0  0  0  0  0  0
   -3.3078   -4.0261   -0.5544 O   0  0  0  0  0  0  0  0  0  0  0  0
   -2.7468   -2.8339   -0.9298 C   0  0  0  0  0  0  0  0  0  0  0  0
   -3.0162   -2.2812   -1.9863 O   0  0  0  0  0  0  0  0  0  0  0  0
   -2.5613   -5.7952    0.9352 C   0  0  0  0  0  0  0  0  0  0  0  0
   -2.1694   -6.1051    2.2673 O   0  0  0  0  0  0  0  0  0  0  0  0
   -1.6639    2.1327   -0.0190 H   0  0  0  0  0  0  0  0  0  0  0  0
    0.8019    2.1449    0.0030 H   0  0  0  0  0  0  0  0  0  0  0  0
    0.8235   -2.1632    0.0405 H   0  0  0  0  0  0  0  0  0  0  0  0
   -2.9036   -0.0028   -0.0658 H   0  0  0  0  0  0  0  0  0  0  0  0
    2.8822   -0.5306    0.8687 H   0  0  0  0  0  0  0  0  0  0  0  0
    2.8406   -0.4981   -0.9177 H   0  0  0  0  0  0  0  0  0  0  0  0
    2.8792    1.0120    0.0019 H   0  0  0  0  0  0  0  0  0  0  0  0
   -0.7501   -3.9250    0.9663 H   0  0  0  0  0  0  0  0  0  0  0  0
   -1.7835   -2.9429    2.0430 H   0  0  0  0  0  0  0  0  0  0  0  0
   -3.7295   -4.0639    1.4608 H   0  0  0  0  0  0  0  0  0  0  0  0
   -3.4378   -6.4051    0.6891 H   0  0  0  0  0  0  0  0  0  0  0  0
   -1.7692   -6.0979    0.2407 H   0  0  0  0  0  0  0  0  0  0  0  0
   -1.3442   -5.6345    2.4721 H   0  0  0  0  0  0  0  0  0  0  0  0
  1  2  2  0  0  0  0
  1  6  1  0  0  0  0
  1 16  1  0  0  0  0
  2  3  1  0  0  0  0
  2 17  1  0  0  0  0
  3  4  2  0  0  0  0
  3  7  1  0  0  0  0
  4  5  1  0  0  0  0
  4 18  1  0  0  0  0
  5  6  2  0  0  0  0
  5  8  1  0  0  0  0
  6 19  1  0  0  0  0
  7 20  1  0  0  0  0
  7 21  1  0  0  0  0
  7 22  1  0  0  0  0
  8  9  1  0  0  0  0
  8 12  1  0  0  0  0
  9 10  1  0  0  0  0
  9 23  1  0  0  0  0
  9 24  1  0  0  0  0
 10 11  1  0  0  0  0
 10 14  1  0  0  0  0
 10 25  1  0  0  0  0
 11 12  1  0  0  0  0
 12 13  2  0  0  0  0
 14 15  1  0  0  0  0
 14 26  1  0  0  0  0
 14 27  1  0  0  0  0
 15 28  1  0  0  0  0
M  END
>  <DRUGBANK_ID>
DB09245

>  <COMMON_NAME>
Toloxatone

>  <CAS_NUMBER>
29218-27-7

>  <UNII>
5T206015T5

>  <SYNONYMS>
Toloxatone

$$$$
