341
 OpenBabel10282417103D

 52 54  0  0  1  0  0  0  0  0999 V2000
   -2.2246    0.0670    0.1634 Cl  0  0  0  0  0  0  0  0  0  0  0  0
    4.8340   -1.5320    4.6010 O   0  0  0  0  0  0  0  0  0  0  0  0
    5.4246   -1.8098    1.1976 O   0  0  0  0  0  0  0  0  0  0  0  0
    7.1653   -0.7568    1.9261 O   0  0  0  0  0  0  0  0  0  0  0  0
    3.4967   -0.4957    0.9084 N   0  0  0  0  0  0  0  0  0  0  0  0
    1.6852   -1.4399    3.0497 N   0  0  0  0  0  0  0  0  0  0  0  0
    3.0658   -2.0043    1.2148 C   0  0  0  0  0  0  0  0  0  0  0  0
    3.1292    0.5408    1.9145 C   0  0  0  0  0  0  0  0  0  0  0  0
    1.7609   -2.2610    1.8606 C   0  0  0  0  0  0  0  0  0  0  0  0
    1.9597    0.0169    2.8046 C   0  0  0  0  0  0  0  0  0  0  0  0
    3.6246    0.1019   -0.4446 C   0  0  3  0  0  0  0  0  0  0  0  0
    2.3260   -2.1624    4.1789 C   0  0  0  0  0  0  0  0  0  0  0  0
    2.1533    0.2692   -0.8174 C   0  0  0  0  0  0  0  0  0  0  0  0
    4.5022   -0.6350   -1.5101 C   0  0  0  0  0  0  0  0  0  0  0  0
    3.8651   -2.5657    4.3532 C   0  0  0  0  0  0  0  0  0  0  0  0
    1.4751    1.4482   -0.4716 C   0  0  0  0  0  0  0  0  0  0  0  0
    1.4377   -0.9279   -0.9919 C   0  0  0  0  0  0  0  0  0  0  0  0
    4.2755   -0.2075   -2.8116 C   0  0  0  0  0  0  0  0  0  0  0  0
    5.4552   -1.6940   -1.4049 C   0  0  0  0  0  0  0  0  0  0  0  0
    0.1033    1.3929   -0.2271 C   0  0  0  0  0  0  0  0  0  0  0  0
    0.1004   -0.9919   -0.6246 C   0  0  0  0  0  0  0  0  0  0  0  0
    4.7505   -0.9522   -3.8913 C   0  0  0  0  0  0  0  0  0  0  0  0
    5.9099   -2.4640   -2.4645 C   0  0  0  0  0  0  0  0  0  0  0  0
   -0.5673    0.1690   -0.2695 C   0  0  0  0  0  0  0  0  0  0  0  0
    5.5128   -2.1088   -3.7198 C   0  0  0  0  0  0  0  0  0  0  0  0
    5.0848   -0.7893    3.4397 C   0  0  0  0  0  0  0  0  0  0  0  0
    5.9346   -1.1023    2.1443 C   0  0  0  0  0  0  0  0  0  0  0  0
    4.7270   -1.2489    0.7311 H   0  0  0  0  0  0  0  0  0  0  0  0
    3.2290   -2.7010    0.3889 H   0  0  0  0  0  0  0  0  0  0  0  0
    3.7495   -2.4797    1.9365 H   0  0  0  0  0  0  0  0  0  0  0  0
    4.1861    0.6969    2.1473 H   0  0  0  0  0  0  0  0  0  0  0  0
    3.1686    1.6603    2.0614 H   0  0  0  0  0  0  0  0  0  0  0  0
    1.0303   -2.0179    1.1325 H   0  0  0  0  0  0  0  0  0  0  0  0
    1.6102   -3.3481    2.0130 H   0  0  0  0  0  0  0  0  0  0  0  0
    1.1012    0.3754    2.2182 H   0  0  0  0  0  0  0  0  0  0  0  0
    1.8877    0.5899    3.7343 H   0  0  0  0  0  0  0  0  0  0  0  0
    4.1066    1.0978   -0.3225 H   0  0  0  0  0  0  0  0  0  0  0  0
    1.9541   -1.6828    5.0842 H   0  0  0  0  0  0  0  0  0  0  0  0
    1.8264   -3.1485    4.1558 H   0  0  0  0  0  0  0  0  0  0  0  0
    3.9232   -3.2459    5.2069 H   0  0  0  0  0  0  0  0  0  0  0  0
    4.2629   -3.1834    3.5460 H   0  0  0  0  0  0  0  0  0  0  0  0
    2.0272    2.3523   -0.2123 H   0  0  0  0  0  0  0  0  0  0  0  0
    1.9959   -1.8603   -1.0986 H   0  0  0  0  0  0  0  0  0  0  0  0
    3.6441    0.6612   -2.9907 H   0  0  0  0  0  0  0  0  0  0  0  0
    5.9504   -2.1229   -0.5529 H   0  0  0  0  0  0  0  0  0  0  0  0
   -0.4188    2.2864    0.0963 H   0  0  0  0  0  0  0  0  0  0  0  0
   -0.3493   -1.9678   -0.4329 H   0  0  0  0  0  0  0  0  0  0  0  0
    4.4678   -0.6440   -4.8868 H   0  0  0  0  0  0  0  0  0  0  0  0
    6.5292   -3.3386   -2.2512 H   0  0  0  0  0  0  0  0  0  0  0  0
    5.8095   -2.7318   -4.5505 H   0  0  0  0  0  0  0  0  0  0  0  0
    4.0678   -0.7262    3.1494 H   0  0  0  0  0  0  0  0  0  0  0  0
    5.2826    0.2592    3.7035 H   0  0  0  0  0  0  0  0  0  0  0  0
  1 24  1  0  0  0  0
  2 15  1  0  0  0  0
  2 26  1  0  0  0  0
  3 27  1  0  0  0  0
  3 28  1  0  0  0  0
  4 27  2  0  0  0  0
  5  7  1  0  0  0  0
  5  8  1  0  0  0  0
  5 11  1  0  0  0  0
  6  9  1  0  0  0  0
  6 10  1  0  0  0  0
  6 12  1  0  0  0  0
  7  9  1  0  0  0  0
  7 29  1  0  0  0  0
  7 30  1  0  0  0  0
  8 10  1  0  0  0  0
  8 31  1  0  0  0  0
  8 32  1  0  0  0  0
  9 33  1  0  0  0  0
  9 34  1  0  0  0  0
 10 35  1  0  0  0  0
 10 36  1  0  0  0  0
 11 13  1  0  0  0  0
 11 14  1  0  0  0  0
 11 37  1  0  0  0  0
 12 15  1  0  0  0  0
 12 38  1  0  0  0  0
 12 39  1  0  0  0  0
 13 16  2  0  0  0  0
 13 17  1  0  0  0  0
 14 18  2  0  0  0  0
 14 19  1  0  0  0  0
 15 40  1  0  0  0  0
 15 41  1  0  0  0  0
 16 20  1  0  0  0  0
 16 42  1  0  0  0  0
 17 21  2  0  0  0  0
 17 43  1  0  0  0  0
 18 22  1  0  0  0  0
 18 44  1  0  0  0  0
 19 23  2  0  0  0  0
 19 45  1  0  0  0  0
 20 24  2  0  0  0  0
 20 46  1  0  0  0  0
 21 24  1  0  0  0  0
 21 47  1  0  0  0  0
 22 25  2  0  0  0  0
 22 48  1  0  0  0  0
 23 25  1  0  0  0  0
 23 49  1  0  0  0  0
 25 50  1  0  0  0  0
 26 27  1  0  0  0  0
 26 51  1  0  0  0  0
 26 52  1  0  0  0  0
M  END
>  <DRUGBANK_ID>
DB00341

>  <SECONDARY_ACCESSION_NUMBERS>
APRD00630

>  <COMMON_NAME>
Cetirizine

>  <CAS_NUMBER>
83881-51-0

>  <UNII>
YO7261ME24

>  <SYNONYMS>
Cetirizin; Cetirizina; Cetirizine; Cetirizinum

$$$$
