WR2
 OpenBabel10282417173D

 64 64  0  0  0  0  0  0  0  0999 V2000
    8.7671    1.5005    2.4511 O   0  0  0  0  0  0  0  0  0  0  0  0
    8.2649    2.2343    3.3130 C   0  0  0  0  0  0  0  0  0  0  0  0
    9.1303    2.7612    4.2523 N   0  0  0  0  0  0  0  0  0  0  0  0
    8.8459    3.4524    5.4884 C   0  0  0  0  0  0  0  0  0  0  0  0
    6.7038    2.5609    3.2597 C   0  0  2  0  0  0  0  0  0  0  0  0
    5.9596    2.7184    4.6128 C   0  0  0  0  0  0  0  0  0  0  0  0
    5.9970    4.2242    5.1590 C   0  0  0  0  0  0  0  0  0  0  0  0
    4.4378    2.4794    4.5875 C   0  0  0  0  0  0  0  0  0  0  0  0
    6.5213    1.5179    5.4608 C   0  0  0  0  0  0  0  0  0  0  0  0
    6.0451    1.4446    2.5069 N   0  0  0  0  0  0  0  0  0  0  0  0
    5.2261    1.5255    1.4491 C   0  0  0  0  0  0  0  0  0  0  0  0
    4.6073    0.4847    1.0595 O   0  0  0  0  0  0  0  0  0  0  0  0
    5.0941    2.8362    0.7491 C   0  0  2  0  0  0  0  0  0  0  0  0
    3.5888    3.0470    0.7795 C   0  0  0  0  0  0  0  0  0  0  0  0
    3.2708    4.0063   -0.2982 C   0  0  0  0  0  0  0  0  0  0  0  0
    3.5596    3.1594   -1.9749 C   0  0  0  0  0  0  0  0  0  0  0  0
    1.9080    4.7817    0.0409 C   0  0  0  0  0  0  0  0  0  0  0  0
    5.7024    2.8986   -0.6535 C   0  0  1  0  0  0  0  0  0  0  0  0
    5.6101    4.5353   -1.5127 C   0  0  0  0  0  0  0  0  0  0  0  0
    6.7199    4.9534   -1.8859 O   0  0  0  0  0  0  0  0  0  0  0  0
    4.5118    5.4390   -1.9060 N   0  0  0  0  0  0  0  0  0  0  0  0
    3.0831    5.5027   -2.1468 O   0  0  0  0  0  0  0  0  0  0  0  0
    7.1331    2.2742   -0.7638 C   0  0  0  0  0  0  0  0  0  0  0  0
    7.2675    0.8776   -0.2640 N   0  0  0  0  0  0  0  0  0  0  0  0
    7.6483   -0.2694   -0.9178 C   0  0  0  0  0  0  0  0  0  0  0  0
    7.6054   -1.3525   -0.2745 O   0  0  0  0  0  0  0  0  0  0  0  0
    8.0856   -0.1838   -2.2913 C   0  0  0  0  0  0  0  0  0  0  0  0
    8.8521    0.7984   -2.7369 N   0  0  0  0  0  0  0  0  0  0  0  0
    9.0722    0.6389   -4.0829 C   0  0  0  0  0  0  0  0  0  0  0  0
    8.4884   -0.4700   -4.6538 C   0  0  0  0  0  0  0  0  0  0  0  0
    7.6315   -1.3553   -3.4577 S   0  0  0  0  0  0  0  0  0  0  0  0
    6.6388    3.4891    2.6994 H   0  0  0  0  0  0  0  0  0  0  0  0
    5.5859    3.6504    1.2650 H   0  0  0  0  0  0  0  0  0  0  0  0
    5.1934    2.0443   -1.1250 H   0  0  0  0  0  0  0  0  0  0  0  0
   10.0524    2.3468    4.1938 H   0  0  0  0  0  0  0  0  0  0  0  0
    9.0513    2.9030    6.4105 H   0  0  0  0  0  0  0  0  0  0  0  0
    9.1340    4.5028    5.4890 H   0  0  0  0  0  0  0  0  0  0  0  0
    7.8064    3.4357    5.5545 H   0  0  0  0  0  0  0  0  0  0  0  0
    5.2572    4.8770    4.6809 H   0  0  0  0  0  0  0  0  0  0  0  0
    5.8220    4.2215    6.2423 H   0  0  0  0  0  0  0  0  0  0  0  0
    6.9030    4.8203    4.9735 H   0  0  0  0  0  0  0  0  0  0  0  0
    4.1564    1.5286    4.1357 H   0  0  0  0  0  0  0  0  0  0  0  0
    4.0776    2.4623    5.6245 H   0  0  0  0  0  0  0  0  0  0  0  0
    3.9092    3.2848    4.0687 H   0  0  0  0  0  0  0  0  0  0  0  0
    6.2417    0.5630    4.9942 H   0  0  0  0  0  0  0  0  0  0  0  0
    7.6071    1.4101    5.4867 H   0  0  0  0  0  0  0  0  0  0  0  0
    6.1990    1.5368    6.4958 H   0  0  0  0  0  0  0  0  0  0  0  0
    6.0381    0.5164    2.9264 H   0  0  0  0  0  0  0  0  0  0  0  0
    2.9743    2.1734    0.5705 H   0  0  0  0  0  0  0  0  0  0  0  0
    3.3205    3.4309    1.7741 H   0  0  0  0  0  0  0  0  0  0  0  0
    3.9941    4.8114    0.0066 H   0  0  0  0  0  0  0  0  0  0  0  0
    2.9020    2.3350   -2.1433 H   0  0  0  0  0  0  0  0  0  0  0  0
    3.5306    3.7584   -2.9167 H   0  0  0  0  0  0  0  0  0  0  0  0
    4.5700    2.8642   -2.3624 H   0  0  0  0  0  0  0  0  0  0  0  0
    1.8052    5.0886    1.0987 H   0  0  0  0  0  0  0  0  0  0  0  0
    1.7931    5.7646   -0.4542 H   0  0  0  0  0  0  0  0  0  0  0  0
    1.0635    4.1655   -0.2407 H   0  0  0  0  0  0  0  0  0  0  0  0
    4.8214    6.2652   -2.3984 H   0  0  0  0  0  0  0  0  0  0  0  0
    2.5097    4.7100   -1.9866 H   0  0  0  0  0  0  0  0  0  0  0  0
    7.3658    2.2686   -1.8262 H   0  0  0  0  0  0  0  0  0  0  0  0
    7.8587    2.8790   -0.2268 H   0  0  0  0  0  0  0  0  0  0  0  0
    7.1559    0.6897    0.7285 H   0  0  0  0  0  0  0  0  0  0  0  0
    9.6766    1.3714   -4.6021 H   0  0  0  0  0  0  0  0  0  0  0  0
    8.5335   -0.7914   -5.6832 H   0  0  0  0  0  0  0  0  0  0  0  0
  1  2  2  0  0  0  0
  2  3  1  0  0  0  0
  3  4  1  0  0  0  0
  3 35  1  0  0  0  0
  4 36  1  0  0  0  0
  4 37  1  0  0  0  0
  4 38  1  0  0  0  0
  5 10  1  0  0  0  0
  5 32  1  6  0  0  0
  5  6  1  0  0  0  0
  5  2  1  0  0  0  0
  6  7  1  0  0  0  0
  6  8  1  0  0  0  0
  6  9  1  0  0  0  0
  7 39  1  0  0  0  0
  7 40  1  0  0  0  0
  7 41  1  0  0  0  0
  8 42  1  0  0  0  0
  8 43  1  0  0  0  0
  8 44  1  0  0  0  0
  9 45  1  0  0  0  0
  9 46  1  0  0  0  0
  9 47  1  0  0  0  0
 10 11  1  0  0  0  0
 10 48  1  0  0  0  0
 11 12  2  0  0  0  0
 13 18  1  0  0  0  0
 13 33  1  1  0  0  0
 13 14  1  0  0  0  0
 13 11  1  0  0  0  0
 14 15  1  0  0  0  0
 14 49  1  0  0  0  0
 14 50  1  0  0  0  0
 15 16  1  0  0  0  0
 15 17  1  0  0  0  0
 15 51  1  0  0  0  0
 16 52  1  0  0  0  0
 16 53  1  0  0  0  0
 16 54  1  0  0  0  0
 17 55  1  0  0  0  0
 17 56  1  0  0  0  0
 17 57  1  0  0  0  0
 18 19  1  0  0  0  0
 18 23  1  0  0  0  0
 18 34  1  6  0  0  0
 19 20  2  0  0  0  0
 19 21  1  0  0  0  0
 21 22  1  0  0  0  0
 21 58  1  0  0  0  0
 22 59  1  0  0  0  0
 23 24  1  0  0  0  0
 23 60  1  0  0  0  0
 23 61  1  0  0  0  0
 24 25  1  0  0  0  0
 24 62  1  0  0  0  0
 25 26  2  0  0  0  0
 25 27  1  0  0  0  0
 27 28  2  0  0  0  0
 27 31  1  0  0  0  0
 28 29  1  0  0  0  0
 29 30  2  0  0  0  0
 29 63  1  0  0  0  0
 30 31  1  0  0  0  0
 30 64  1  0  0  0  0
M  END
>  <DRUGBANK_ID>
DB08733

>  <COMMON_NAME>
(2R,3R)-N^1^-[(1S)-2,2-DIMETHYL-1-(METHYLCARBAMOYL)PROPYL]-N^4^-HYDROXY-2-(2-METHYLPROPYL)-3-{[(1,3-THIAZOL-2-YLCARBONYL)AMINO]METHYL}BUTANEDIAMIDE

$$$$
