
 OpenBabel10282417183D

 37 36  0  0  0  0  0  0  0  0999 V2000
    0.9868   -0.0151    0.0980 S   0  0  0  0  0  0  0  0  0  0  0  0
    2.8842    1.5999   -0.5222 O   0  0  0  0  0  0  0  0  0  0  0  0
    4.8253    2.0180   -2.3058 S   0  0  0  0  0  0  0  0  0  0  0  0
    2.8842    1.5535   -2.2516 P   0  0  0  0  0  0  0  0  0  0  0  0
    2.8842   -0.0151    0.0980 P   0  0  0  0  0  0  0  0  0  0  0  0
    2.9224    0.3650    1.7729 O   0  0  0  0  0  0  0  0  0  0  0  0
    1.8065    0.0716    2.6872 C   0  0  0  0  0  0  0  0  0  0  0  0
    0.8494    1.2829    2.7455 C   0  0  0  0  0  0  0  0  0  0  0  0
    2.1729    0.0864   -2.4304 O   0  0  0  0  0  0  0  0  0  0  0  0
    2.2371   -1.3169   -2.3714 C   0  0  0  0  0  0  0  0  0  0  0  0
    3.4461   -1.8770   -1.7104 C   0  0  0  0  0  0  0  0  0  0  0  0
    2.8842    1.5071   -3.9810 O   0  0  0  0  0  0  0  0  0  0  0  0
    3.0371    0.2962   -4.7491 C   0  0  0  0  0  0  0  0  0  0  0  0
    4.2819   -0.5196   -4.4175 C   0  0  0  0  0  0  0  0  0  0  0  0
    4.6142   -0.0151    0.0980 O   0  0  0  0  0  0  0  0  0  0  0  0
    5.2753   -1.1594    0.6825 C   0  0  0  0  0  0  0  0  0  0  0  0
    4.8069   -1.5972    2.0637 C   0  0  0  0  0  0  0  0  0  0  0  0
    1.2940   -0.8691    2.4049 H   0  0  0  0  0  0  0  0  0  0  0  0
    2.1715   -0.1655    3.6888 H   0  0  0  0  0  0  0  0  0  0  0  0
    0.7699    1.8369    1.8010 H   0  0  0  0  0  0  0  0  0  0  0  0
   -0.1716    0.9930    3.0244 H   0  0  0  0  0  0  0  0  0  0  0  0
    1.2421    2.0279    3.4306 H   0  0  0  0  0  0  0  0  0  0  0  0
    1.2421   -1.1626   -1.9080 H   0  0  0  0  0  0  0  0  0  0  0  0
    1.5891   -2.2564   -2.3585 H   0  0  0  0  0  0  0  0  0  0  0  0
    4.1583   -1.0607   -1.6089 H   0  0  0  0  0  0  0  0  0  0  0  0
    3.2203   -2.3286   -0.7412 H   0  0  0  0  0  0  0  0  0  0  0  0
    4.0235   -2.6053   -2.2835 H   0  0  0  0  0  0  0  0  0  0  0  0
    2.1239   -0.3041   -4.6475 H   0  0  0  0  0  0  0  0  0  0  0  0
    3.0646    0.5557   -5.8103 H   0  0  0  0  0  0  0  0  0  0  0  0
    4.5188   -0.4965   -3.3651 H   0  0  0  0  0  0  0  0  0  0  0  0
    4.1708   -1.5730   -4.6938 H   0  0  0  0  0  0  0  0  0  0  0  0
    5.1771   -0.1058   -4.8808 H   0  0  0  0  0  0  0  0  0  0  0  0
    5.1806   -2.0227    0.0210 H   0  0  0  0  0  0  0  0  0  0  0  0
    6.3460   -0.9402    0.7120 H   0  0  0  0  0  0  0  0  0  0  0  0
    3.7393   -1.8357    2.0752 H   0  0  0  0  0  0  0  0  0  0  0  0
    5.3207   -2.5110    2.3791 H   0  0  0  0  0  0  0  0  0  0  0  0
    4.9981   -0.8181    2.8070 H   0  0  0  0  0  0  0  0  0  0  0  0
  2  4  1  0  0  0  0
  4  3  2  0  0  0  0
  4  9  1  0  0  0  0
  4 12  1  0  0  0  0
  5  1  2  0  0  0  0
  5  2  1  0  0  0  0
  5  6  1  0  0  0  0
  5 15  1  0  0  0  0
  6  7  1  0  0  0  0
  7  8  1  0  0  0  0
  7 18  1  0  0  0  0
  7 19  1  0  0  0  0
  8 20  1  0  0  0  0
  8 21  1  0  0  0  0
  8 22  1  0  0  0  0
  9 10  1  0  0  0  0
 10 11  1  0  0  0  0
 10 23  1  0  0  0  0
 10 24  1  0  0  0  0
 11 25  1  0  0  0  0
 11 26  1  0  0  0  0
 11 27  1  0  0  0  0
 12 13  1  0  0  0  0
 13 14  1  0  0  0  0
 13 28  1  0  0  0  0
 13 29  1  0  0  0  0
 14 30  1  0  0  0  0
 14 31  1  0  0  0  0
 14 32  1  0  0  0  0
 15 16  1  0  0  0  0
 16 17  1  0  0  0  0
 16 33  1  0  0  0  0
 16 34  1  0  0  0  0
 17 35  1  0  0  0  0
 17 36  1  0  0  0  0
 17 37  1  0  0  0  0
M  END
>  <DRUGBANK_ID>
DB11497

>  <COMMON_NAME>
Sulfotep

>  <CAS_NUMBER>
3689-24-5

>  <UNII>
V41BK2EE8X

>  <SYNONYMS>
Bis(O,O-diethylphosphorothionic) anhydride; Dithion; Dithiophos; O,O,O,O-Tetraethyl dithiopyrophosphate; Sulfotepp; Sulphotepp; TEDP; TEDTP; Tetraethyl dithiopyrophosphate; Thiodiphosphate, tetraethyl ester

$$$$
