
 OpenBabel10282417183D

 28 28  0  0  0  0  0  0  0  0999 V2000
    0.1934    1.1725    0.0041 C   0  0  0  0  0  0  0  0  0  0  0  0
   -1.1812   -1.2441   -0.0453 C   0  0  0  0  0  0  0  0  0  0  0  0
   -1.2240    1.2058    0.0136 C   0  0  0  0  0  0  0  0  0  0  0  0
    0.9384   -0.0234   -0.0198 C   0  0  0  0  0  0  0  0  0  0  0  0
   -1.9081   -0.0294   -0.0647 C   0  0  0  0  0  0  0  0  0  0  0  0
    0.2324   -1.2368   -0.0011 C   0  0  0  0  0  0  0  0  0  0  0  0
   -1.8872    2.5367    0.1247 C   0  0  0  0  0  0  0  0  0  0  0  0
   -2.7543    2.8913    1.0991 C   0  0  0  0  0  0  0  0  0  0  0  0
   -1.4460    3.6687   -1.1354 Cl  0  0  0  0  0  0  0  0  0  0  0  0
   -3.7275    4.3306    1.0107 Cl  0  0  0  0  0  0  0  0  0  0  0  0
   -3.0715    1.8939    2.4925 Cl  0  0  0  0  0  0  0  0  0  0  0  0
    2.3200    0.0660    0.1108 N   0  0  0  0  0  0  0  0  0  0  0  0
   -4.1115   -0.9514   -1.4849 N   0  0  0  0  0  0  0  0  0  0  0  0
    0.6642   -3.5855    1.3707 N   0  0  0  0  0  0  0  0  0  0  0  0
   -4.1246   -0.9221    1.0354 O   0  0  0  0  0  0  0  0  0  0  0  0
   -4.2769    1.1726   -0.3693 O   0  0  0  0  0  0  0  0  0  0  0  0
    0.6017   -3.5683   -1.1532 O   0  0  0  0  0  0  0  0  0  0  0  0
    2.5346   -2.5629    0.1106 O   0  0  0  0  0  0  0  0  0  0  0  0
   -3.7023   -0.1179   -0.0905 S   0  0  0  0  0  0  0  0  0  0  0  0
    1.1143   -2.7936   -0.0467 S   0  0  0  0  0  0  0  0  0  0  0  0
    0.7493    2.1121    0.0232 H   0  0  0  0  0  0  0  0  0  0  0  0
   -1.7149   -2.1953   -0.0471 H   0  0  0  0  0  0  0  0  0  0  0  0
    2.8814   -0.7840   -0.0161 H   0  0  0  0  0  0  0  0  0  0  0  0
    2.8142    0.9347   -0.0501 H   0  0  0  0  0  0  0  0  0  0  0  0
   -5.1386   -1.0095   -1.4570 H   0  0  0  0  0  0  0  0  0  0  0  0
   -3.8788   -0.3728   -2.2951 H   0  0  0  0  0  0  0  0  0  0  0  0
    1.0888   -4.5191    1.3523 H   0  0  0  0  0  0  0  0  0  0  0  0
    0.9901   -3.0832    2.1978 H   0  0  0  0  0  0  0  0  0  0  0  0
  1 21  1  0  0  0  0
  2 22  1  0  0  0  0
  3  1  2  0  0  0  0
  4  1  1  0  0  0  0
  5  2  2  0  0  0  0
  5  3  1  0  0  0  0
  6  2  1  0  0  0  0
  6  4  2  0  0  0  0
  7  3  1  0  0  0  0
  8  7  2  0  0  0  0
  9  7  1  0  0  0  0
 10  8  1  0  0  0  0
 11  8  1  0  0  0  0
 12  4  1  0  0  0  0
 12 23  1  0  0  0  0
 12 24  1  0  0  0  0
 13 25  1  0  0  0  0
 13 26  1  0  0  0  0
 14 27  1  0  0  0  0
 14 28  1  0  0  0  0
 19  5  1  0  0  0  0
 19 13  1  0  0  0  0
 19 15  2  0  0  0  0
 19 16  2  0  0  0  0
 20  6  1  0  0  0  0
 20 14  1  0  0  0  0
 20 17  2  0  0  0  0
 20 18  2  0  0  0  0
M  END
>  <DRUGBANK_ID>
DB11389

>  <COMMON_NAME>
Clorsulon

>  <CAS_NUMBER>
60200-06-8

>  <UNII>
EG1ZDO6LRD

>  <SYNONYMS>
Clorsulon

$$$$
