
 OpenBabel10282417193D

 42 44  0  0  0  0  0  0  0  0999 V2000
    1.3643    0.9892   -0.1106 C   0  0  0  0  0  0  0  0  0  0  0  0
    0.0172    1.0036    0.0141 C   0  0  0  0  0  0  0  0  0  0  0  0
   -0.6774   -0.1113    0.3503 N   0  0  0  0  0  0  0  0  0  0  0  0
   -0.0886   -1.3112    0.3791 C   0  0  0  0  0  0  0  0  0  0  0  0
    1.2563   -1.3129    0.0865 C   0  0  0  0  0  0  0  0  0  0  0  0
    2.0192   -0.1833   -0.1080 N   0  0  0  0  0  0  0  0  0  0  0  0
   -0.8403   -2.4562    0.8000 N   0  0  0  0  0  0  0  0  0  0  0  0
   -0.7321   -3.6210   -0.0371 N   0  0  0  0  0  0  0  0  0  0  0  0
   -1.5947   -4.7084   -0.0080 C   0  0  0  0  0  0  0  0  0  0  0  0
   -1.1181   -5.8341   -0.0665 O   0  0  0  0  0  0  0  0  0  0  0  0
   -3.0919   -4.6264   -0.0159 C   0  0  0  0  0  0  0  0  0  0  0  0
   -3.9517   -3.6120   -0.1069 C   0  0  0  0  0  0  0  0  0  0  0  0
   -3.6555   -2.2689   -0.2445 N   0  0  0  0  0  0  0  0  0  0  0  0
   -2.8781   -1.6936   -1.2249 C   0  0  0  0  0  0  0  0  0  0  0  0
   -2.8576   -0.3913   -1.0491 N   0  0  0  0  0  0  0  0  0  0  0  0
   -3.3237   -0.2240    0.2569 C   0  0  0  0  0  0  0  0  0  0  0  0
   -3.8510   -1.3524    0.7521 N   0  0  0  0  0  0  0  0  0  0  0  0
   -3.0202    1.0165    1.0497 C   0  0  0  0  0  0  0  0  0  0  0  0
   -2.5540    1.0357    2.4003 C   0  0  0  0  0  0  0  0  0  0  0  0
   -2.1524    2.2485    3.0372 C   0  0  0  0  0  0  0  0  0  0  0  0
   -2.1307    3.4325    2.2874 C   0  0  0  0  0  0  0  0  0  0  0  0
   -2.4204    3.4091    0.9212 C   0  0  0  0  0  0  0  0  0  0  0  0
   -2.9160    2.2219    0.3350 C   0  0  0  0  0  0  0  0  0  0  0  0
   -2.0215    4.5778    0.0505 C   0  0  0  0  0  0  0  0  0  0  0  0
   -0.9421    4.2721   -0.7284 F   0  0  0  0  0  0  0  0  0  0  0  0
   -3.0034    4.9718   -0.7967 F   0  0  0  0  0  0  0  0  0  0  0  0
   -1.6520    5.6806    0.7588 F   0  0  0  0  0  0  0  0  0  0  0  0
   -1.7353    2.3546    4.4948 C   0  0  0  0  0  0  0  0  0  0  0  0
   -0.5260    2.9697    4.6608 F   0  0  0  0  0  0  0  0  0  0  0  0
   -2.6176    3.1123    5.2083 F   0  0  0  0  0  0  0  0  0  0  0  0
   -1.6429    1.1668    5.1457 F   0  0  0  0  0  0  0  0  0  0  0  0
    1.9093    1.9209   -0.2031 H   0  0  0  0  0  0  0  0  0  0  0  0
   -0.5284    1.9212   -0.1447 H   0  0  0  0  0  0  0  0  0  0  0  0
    1.7956   -2.2425    0.0368 H   0  0  0  0  0  0  0  0  0  0  0  0
   -1.7909   -2.1325    0.9919 H   0  0  0  0  0  0  0  0  0  0  0  0
    0.2176   -3.9881   -0.0057 H   0  0  0  0  0  0  0  0  0  0  0  0
   -3.5383   -5.6220    0.1008 H   0  0  0  0  0  0  0  0  0  0  0  0
   -5.0144   -3.7894    0.0519 H   0  0  0  0  0  0  0  0  0  0  0  0
   -2.3049   -2.2817   -1.9395 H   0  0  0  0  0  0  0  0  0  0  0  0
   -2.3971    0.1012    2.9447 H   0  0  0  0  0  0  0  0  0  0  0  0
   -1.8236    4.3697    2.7609 H   0  0  0  0  0  0  0  0  0  0  0  0
   -3.0607    2.1860   -0.7459 H   0  0  0  0  0  0  0  0  0  0  0  0
  1  2  2  0  0  0  0
  1  6  1  0  0  0  0
  1 32  1  0  0  0  0
  2  3  1  0  0  0  0
  2 33  1  0  0  0  0
  3  4  2  0  0  0  0
  4  5  1  0  0  0  0
  4  7  1  0  0  0  0
  5  6  2  0  0  0  0
  5 34  1  0  0  0  0
  7  8  1  0  0  0  0
  7 35  1  0  0  0  0
  8  9  1  0  0  0  0
  8 36  1  0  0  0  0
  9 10  2  0  0  0  0
  9 11  1  0  0  0  0
 11 12  2  0  0  0  0
 11 37  1  0  0  0  0
 12 13  1  0  0  0  0
 12 38  1  0  0  0  0
 13 14  1  0  0  0  0
 13 17  1  0  0  0  0
 14 15  2  0  0  0  0
 14 39  1  0  0  0  0
 15 16  1  0  0  0  0
 16 17  2  0  0  0  0
 16 18  1  0  0  0  0
 18 19  2  0  0  0  0
 18 23  1  0  0  0  0
 19 20  1  0  0  0  0
 19 40  1  0  0  0  0
 20 21  2  0  0  0  0
 20 28  1  0  0  0  0
 21 22  1  0  0  0  0
 21 41  1  0  0  0  0
 22 23  2  0  0  0  0
 22 24  1  0  0  0  0
 23 42  1  0  0  0  0
 24 25  1  0  0  0  0
 24 26  1  0  0  0  0
 24 27  1  0  0  0  0
 28 29  1  0  0  0  0
 28 30  1  0  0  0  0
 28 31  1  0  0  0  0
M  END
>  <DRUGBANK_ID>
DB11942

>  <COMMON_NAME>
Selinexor

>  <CAS_NUMBER>
1393477-72-9

>  <UNII>
31TZ62FO8F

>  <SYNONYMS>
Selinexor

$$$$
