
 OpenBabel10282417193D

 65 67  0  0  1  0  0  0  0  0999 V2000
   -1.2483    0.2239    0.2698 C   0  0  0  0  0  0  0  0  0  0  0  0
   -0.6005    0.0116   -0.9795 N   0  0  0  0  0  0  0  0  0  0  0  0
    0.2783   -1.1095   -1.2115 C   0  0  0  0  0  0  0  0  0  0  0  0
    1.1138   -1.4811   -0.1659 C   0  0  0  0  0  0  0  0  0  0  0  0
    2.0152   -2.5347   -0.3143 C   0  0  0  0  0  0  0  0  0  0  0  0
    2.1444   -3.2106   -1.5257 C   0  0  0  0  0  0  0  0  0  0  0  0
    1.3748   -2.8329   -2.6098 C   0  0  0  0  0  0  0  0  0  0  0  0
    0.4298   -1.8168   -2.4462 C   0  0  0  0  0  0  0  0  0  0  0  0
   -0.3262   -1.4654   -3.6559 C   0  0  0  0  0  0  0  0  0  0  0  0
   -0.5741   -0.2403   -3.9044 N   0  0  0  0  0  0  0  0  0  0  0  0
    0.0447    0.8265   -3.0660 C   0  0  1  0  0  0  0  0  0  0  0  0
   -0.7751    1.0296   -1.8728 C   0  0  0  0  0  0  0  0  0  0  0  0
   -1.4777    2.0568   -1.7105 O   0  0  0  0  0  0  0  0  0  0  0  0
    1.6774    0.9719   -2.8854 N   0  0  0  0  0  0  0  0  0  0  0  0
    2.5636    1.9518   -3.4936 C   0  0  0  0  0  0  0  0  0  0  0  0
    3.7916    1.7797   -3.4309 O   0  0  0  0  0  0  0  0  0  0  0  0
    2.0263    3.2542   -4.3904 C   0  0  2  0  0  0  0  0  0  0  0  0
    2.3149    4.5666   -3.6259 C   0  0  0  0  0  0  0  0  0  0  0  0
    1.4387    4.8223   -2.3874 C   0  0  0  0  0  0  0  0  0  0  0  0
    1.5353    3.7361   -1.3627 C   0  0  0  0  0  0  0  0  0  0  0  0
    2.8033    3.3879   -1.0877 F   0  0  0  0  0  0  0  0  0  0  0  0
    0.8830    3.9624   -0.2173 F   0  0  0  0  0  0  0  0  0  0  0  0
    0.9114    2.7012   -1.8931 F   0  0  0  0  0  0  0  0  0  0  0  0
    0.6074    3.2357   -5.0311 C   0  0  2  0  0  0  0  0  0  0  0  0
    0.4134    2.2073   -6.2816 C   0  0  0  0  0  0  0  0  0  0  0  0
    1.6368    1.1691   -6.6693 C   0  0  0  0  0  0  0  0  0  0  0  0
    1.7442    0.1862   -5.5992 C   0  0  0  0  0  0  0  0  0  0  0  0
    0.8889   -0.7751   -5.6792 F   0  0  0  0  0  0  0  0  0  0  0  0
    2.8872   -0.2819   -5.1233 F   0  0  0  0  0  0  0  0  0  0  0  0
    1.2088    0.9878   -4.7456 F   0  0  0  0  0  0  0  0  0  0  0  0
   -0.1209    4.5340   -5.3219 C   0  0  0  0  0  0  0  0  0  0  0  0
   -1.0715    4.9595   -4.6467 O   0  0  0  0  0  0  0  0  0  0  0  0
    0.3243    5.2348   -6.3726 N   0  0  0  0  0  0  0  0  0  0  0  0
   -0.7983   -2.5089   -4.6511 C   0  0  0  0  0  0  0  0  0  0  0  0
   -0.4080   -2.6290   -6.0145 C   0  0  0  0  0  0  0  0  0  0  0  0
   -1.0450   -3.4557   -6.9177 C   0  0  0  0  0  0  0  0  0  0  0  0
   -1.9875   -4.3220   -6.4265 C   0  0  0  0  0  0  0  0  0  0  0  0
   -2.2831   -4.3367   -5.0579 C   0  0  0  0  0  0  0  0  0  0  0  0
   -1.7479   -3.3912   -4.1831 C   0  0  0  0  0  0  0  0  0  0  0  0
   -1.7494   -0.7067    0.5142 H   0  0  0  0  0  0  0  0  0  0  0  0
   -2.0109    1.0077    0.1817 H   0  0  0  0  0  0  0  0  0  0  0  0
   -0.5173    0.5543    1.0064 H   0  0  0  0  0  0  0  0  0  0  0  0
    1.1178   -0.9146    0.7596 H   0  0  0  0  0  0  0  0  0  0  0  0
    2.6285   -2.8197    0.5331 H   0  0  0  0  0  0  0  0  0  0  0  0
    2.8484   -4.0299   -1.6278 H   0  0  0  0  0  0  0  0  0  0  0  0
    1.5212   -3.3203   -3.5725 H   0  0  0  0  0  0  0  0  0  0  0  0
   -0.3186    1.6186   -3.6610 H   0  0  0  0  0  0  0  0  0  0  0  0
    2.1739    0.1383   -2.5849 H   0  0  0  0  0  0  0  0  0  0  0  0
    2.6943    3.2977   -5.2673 H   0  0  0  0  0  0  0  0  0  0  0  0
    3.3746    4.5761   -3.3445 H   0  0  0  0  0  0  0  0  0  0  0  0
    2.1927    5.4132   -4.3168 H   0  0  0  0  0  0  0  0  0  0  0  0
    1.6811    5.7783   -1.9316 H   0  0  0  0  0  0  0  0  0  0  0  0
    0.3900    4.8640   -2.6940 H   0  0  0  0  0  0  0  0  0  0  0  0
   -0.0065    3.0484   -4.1660 H   0  0  0  0  0  0  0  0  0  0  0  0
   -0.5078    1.6296   -6.0554 H   0  0  0  0  0  0  0  0  0  0  0  0
    0.1942    2.7574   -7.1911 H   0  0  0  0  0  0  0  0  0  0  0  0
    1.4009    0.5755   -7.5461 H   0  0  0  0  0  0  0  0  0  0  0  0
    2.5884    1.6856   -6.6987 H   0  0  0  0  0  0  0  0  0  0  0  0
    1.0133    4.8528   -7.0000 H   0  0  0  0  0  0  0  0  0  0  0  0
   -0.1817    6.0796   -6.5984 H   0  0  0  0  0  0  0  0  0  0  0  0
    0.4133   -2.1452   -6.5160 H   0  0  0  0  0  0  0  0  0  0  0  0
   -0.7681   -3.4133   -7.9699 H   0  0  0  0  0  0  0  0  0  0  0  0
   -2.4808   -4.9952   -7.1145 H   0  0  0  0  0  0  0  0  0  0  0  0
   -2.9592   -5.0854   -4.6678 H   0  0  0  0  0  0  0  0  0  0  0  0
   -2.0743   -3.3339   -3.1508 H   0  0  0  0  0  0  0  0  0  0  0  0
  1  2  1  0  0  0  0
  1 40  1  0  0  0  0
  1 41  1  0  0  0  0
  1 42  1  0  0  0  0
  2  3  1  0  0  0  0
  2 12  1  0  0  0  0
  3  4  2  0  0  0  0
  3  8  1  0  0  0  0
  4  5  1  0  0  0  0
  4 43  1  0  0  0  0
  5  6  2  0  0  0  0
  5 44  1  0  0  0  0
  6  7  1  0  0  0  0
  6 45  1  0  0  0  0
  7  8  2  0  0  0  0
  7 46  1  0  0  0  0
  8  9  1  0  0  0  0
  9 10  2  0  0  0  0
  9 34  1  0  0  0  0
 10 11  1  0  0  0  0
 11 12  1  0  0  0  0
 11 14  1  0  0  0  0
 11 47  1  6  0  0  0
 12 13  2  0  0  0  0
 14 15  1  0  0  0  0
 14 48  1  0  0  0  0
 15 16  2  0  0  0  0
 17 49  1  6  0  0  0
 17 18  1  0  0  0  0
 17 15  1  0  0  0  0
 18 19  1  0  0  0  0
 18 50  1  0  0  0  0
 18 51  1  0  0  0  0
 19 20  1  0  0  0  0
 19 52  1  0  0  0  0
 19 53  1  0  0  0  0
 20 21  1  0  0  0  0
 20 22  1  0  0  0  0
 20 23  1  0  0  0  0
 24 31  1  0  0  0  0
 24 54  1  1  0  0  0
 24 25  1  0  0  0  0
 24 17  1  0  0  0  0
 25 26  1  0  0  0  0
 25 55  1  0  0  0  0
 25 56  1  0  0  0  0
 26 27  1  0  0  0  0
 26 57  1  0  0  0  0
 26 58  1  0  0  0  0
 27 28  1  0  0  0  0
 27 29  1  0  0  0  0
 27 30  1  0  0  0  0
 31 32  2  0  0  0  0
 31 33  1  0  0  0  0
 33 59  1  0  0  0  0
 33 60  1  0  0  0  0
 34 35  2  0  0  0  0
 34 39  1  0  0  0  0
 35 36  1  0  0  0  0
 35 61  1  0  0  0  0
 36 37  2  0  0  0  0
 36 62  1  0  0  0  0
 37 38  1  0  0  0  0
 37 63  1  0  0  0  0
 38 39  2  0  0  0  0
 38 64  1  0  0  0  0
 39 65  1  0  0  0  0
M  END
>  <DRUGBANK_ID>
DB12006

>  <COMMON_NAME>
Osugacestat

>  <CAS_NUMBER>
1401066-79-2

>  <UNII>
DRL23N424R

>  <SYNONYMS>
(2R,3S)-N1-((S)-1-methyl-2-oxo-5-phenyl-2,3-dihydro-1H-benzo[e][1,4]diazepin-3-yl)-2,3-bis(3,3,3-trifluoropropyl)succinamide; Butanediamide, N1-((3S)-2,3-dihydro-1-methyl-2-oxo-5-phenyl-1H-1,4-benzodiazepin-3-yl)-2,3-bis(3,3,3-trifluorophenyl)-, (2R,3S)-

$$$$
