
 OpenBabel10282417213D

 22 22  0  0  0  0  0  0  0  0999 V2000
    1.0321    0.0274    0.0051 C   0  0  0  0  0  0  0  0  0  0  0  0
    0.6613    0.9427    1.1652 C   0  0  0  0  0  0  0  0  0  0  0  0
    1.1208    2.3195    0.9878 N   0  0  0  0  0  0  0  0  0  0  0  0
    2.0078    2.7533    0.0575 C   0  0  0  0  0  0  0  0  0  0  0  0
    2.6878    2.0937   -0.7132 O   0  0  0  0  0  0  0  0  0  0  0  0
    2.0464    4.2523    0.1299 C   0  0  0  0  0  0  0  0  0  0  0  0
    1.2094    4.5239    1.2552 O   0  0  0  0  0  0  0  0  0  0  0  0
    0.9410    3.3275    1.8654 C   0  0  0  0  0  0  0  0  0  0  0  0
    0.6364    3.2393    3.0485 O   0  0  0  0  0  0  0  0  0  0  0  0
    3.4395    4.7759    0.4212 C   0  0  0  0  0  0  0  0  0  0  0  0
    1.5303    4.8188   -1.1889 C   0  0  0  0  0  0  0  0  0  0  0  0
    0.6851    0.4547   -0.9440 H   0  0  0  0  0  0  0  0  0  0  0  0
    0.5990   -0.9699    0.1031 H   0  0  0  0  0  0  0  0  0  0  0  0
    2.1188   -0.0953   -0.0488 H   0  0  0  0  0  0  0  0  0  0  0  0
   -0.4348    0.9848    1.2382 H   0  0  0  0  0  0  0  0  0  0  0  0
    1.0154    0.5398    2.1208 H   0  0  0  0  0  0  0  0  0  0  0  0
    4.1438    4.4831   -0.3630 H   0  0  0  0  0  0  0  0  0  0  0  0
    3.4213    5.8695    0.4854 H   0  0  0  0  0  0  0  0  0  0  0  0
    3.8108    4.4033    1.3811 H   0  0  0  0  0  0  0  0  0  0  0  0
    0.5402    4.4313   -1.4517 H   0  0  0  0  0  0  0  0  0  0  0  0
    1.4632    5.9099   -1.1562 H   0  0  0  0  0  0  0  0  0  0  0  0
    2.2127    4.5469   -2.0064 H   0  0  0  0  0  0  0  0  0  0  0  0
  1  2  1  0  0  0  0
  1 12  1  0  0  0  0
  1 13  1  0  0  0  0
  1 14  1  0  0  0  0
  2  3  1  0  0  0  0
  2 15  1  0  0  0  0
  2 16  1  0  0  0  0
  3  4  1  0  0  0  0
  3  8  1  0  0  0  0
  4  5  2  0  0  0  0
  4  6  1  0  0  0  0
  6  7  1  0  0  0  0
  6 10  1  0  0  0  0
  6 11  1  0  0  0  0
  7  8  1  0  0  0  0
  8  9  2  0  0  0  0
 10 17  1  0  0  0  0
 10 18  1  0  0  0  0
 10 19  1  0  0  0  0
 11 20  1  0  0  0  0
 11 21  1  0  0  0  0
 11 22  1  0  0  0  0
M  END
>  <DRUGBANK_ID>
DB13799

>  <COMMON_NAME>
Ethadione

>  <CAS_NUMBER>
520-77-4

>  <UNII>
I0F8O700BB

$$$$
