DFA
 OpenBabel10282417133D

 28 29  0  0  0  0  0  0  0  0999 V2000
    1.1418   -0.0619    0.0023 C   0  0  0  0  0  0  0  0  0  0  0  0
    0.5854    0.0057   -1.0779 O   0  0  0  0  0  0  0  0  0  0  0  0
    0.4253   -3.9287    2.0261 C   0  0  0  0  0  0  0  0  0  0  0  0
    0.3020   -2.7009    1.3728 C   0  0  0  0  0  0  0  0  0  0  0  0
    0.7463   -1.5294    1.9971 C   0  0  0  0  0  0  0  0  0  0  0  0
    1.4090   -1.6684    3.2226 C   0  0  0  0  0  0  0  0  0  0  0  0
    1.3184   -2.8312    3.9675 C   0  0  0  0  0  0  0  0  0  0  0  0
    0.8936   -3.9855    3.3391 C   0  0  0  0  0  0  0  0  0  0  0  0
    0.5939    1.0920    2.2406 C   0  0  0  0  0  0  0  0  0  0  0  0
    0.6613    2.3585    1.6469 C   0  0  0  0  0  0  0  0  0  0  0  0
    0.7301    3.5125    2.4349 C   0  0  0  0  0  0  0  0  0  0  0  0
    0.7721    3.4282    3.8261 C   0  0  0  0  0  0  0  0  0  0  0  0
    0.6650    2.1960    4.4383 C   0  0  0  0  0  0  0  0  0  0  0  0
    0.5162    1.0635    3.6497 C   0  0  0  0  0  0  0  0  0  0  0  0
    0.4480   -0.1673    1.3624 C   0  0  0  0  0  0  0  0  0  0  0  0
    2.4921   -0.0609    0.0739 O   0  0  0  0  0  0  0  0  0  0  0  0
    0.1280   -4.8412    1.5204 H   0  0  0  0  0  0  0  0  0  0  0  0
   -0.1198   -2.6691    0.3691 H   0  0  0  0  0  0  0  0  0  0  0  0
    1.9694   -0.8491    3.6610 H   0  0  0  0  0  0  0  0  0  0  0  0
    1.6079   -2.8196    5.0146 H   0  0  0  0  0  0  0  0  0  0  0  0
    0.9764   -4.9310    3.8630 H   0  0  0  0  0  0  0  0  0  0  0  0
    0.6251    2.4712    0.5648 H   0  0  0  0  0  0  0  0  0  0  0  0
    0.7304    4.4866    1.9566 H   0  0  0  0  0  0  0  0  0  0  0  0
    0.8467    4.3203    4.4376 H   0  0  0  0  0  0  0  0  0  0  0  0
    0.6525    2.0927    5.5200 H   0  0  0  0  0  0  0  0  0  0  0  0
    0.3354    0.1527    4.2097 H   0  0  0  0  0  0  0  0  0  0  0  0
   -0.6317   -0.1790    1.1359 H   0  0  0  0  0  0  0  0  0  0  0  0
    2.7959   -0.0162   -0.8554 H   0  0  0  0  0  0  0  0  0  0  0  0
  1  2  2  0  0  0  0
  1 15  1  0  0  0  0
  1 16  1  0  0  0  0
  3  4  2  0  0  0  0
  3  8  1  0  0  0  0
  3 17  1  0  0  0  0
  4  5  1  0  0  0  0
  4 18  1  0  0  0  0
  5  6  2  0  0  0  0
  5 15  1  0  0  0  0
  6  7  1  0  0  0  0
  6 19  1  0  0  0  0
  7  8  2  0  0  0  0
  7 20  1  0  0  0  0
  8 21  1  0  0  0  0
  9 10  2  0  0  0  0
  9 14  1  0  0  0  0
  9 15  1  0  0  0  0
 10 11  1  0  0  0  0
 10 22  1  0  0  0  0
 11 12  2  0  0  0  0
 11 23  1  0  0  0  0
 12 13  1  0  0  0  0
 12 24  1  0  0  0  0
 13 14  2  0  0  0  0
 13 25  1  0  0  0  0
 14 26  1  0  0  0  0
 15 27  1  0  0  0  0
 16 28  1  0  0  0  0
M  END
>  <DRUGBANK_ID>
DB03588

>  <SECONDARY_ACCESSION_NUMBERS>
EXPT01167

>  <COMMON_NAME>
Diphenylacetic acid

>  <CAS_NUMBER>
117-34-0

>  <UNII>
658NCZ0NKO

>  <SYNONYMS>
2,2-diphenylacetic acid; Î±-phenylbenzeneacetic acid

$$$$
