
 OpenBabel10282417113D

 24 24  0  0  0  0  0  0  0  0999 V2000
    1.4304   -0.1996    0.0044 C   0  0  0  0  0  0  0  0  0  0  0  0
    0.5422   -1.2741   -0.0041 C   0  0  0  0  0  0  0  0  0  0  0  0
   -0.8390   -1.0457   -0.0668 C   0  0  0  0  0  0  0  0  0  0  0  0
   -1.2894    0.2825   -0.1623 C   0  0  0  0  0  0  0  0  0  0  0  0
   -0.4138    1.3522   -0.0602 C   0  0  0  0  0  0  0  0  0  0  0  0
    0.9549    1.1125   -0.0075 C   0  0  0  0  0  0  0  0  0  0  0  0
   -1.8166   -2.2000    0.0194 C   0  0  1  0  0  0  0  0  0  0  0  0
   -2.7142   -2.1430    1.3046 C   0  0  1  0  0  0  0  0  0  0  0  0
   -3.5847   -0.9468    1.3817 N   0  0  0  0  0  0  0  0  0  0  0  0
   -3.6302   -3.3623    1.3793 C   0  0  0  0  0  0  0  0  0  0  0  0
   -2.6128   -2.2143   -1.1649 O   0  0  0  0  0  0  0  0  0  0  0  0
    2.5020   -0.3829    0.0350 H   0  0  0  0  0  0  0  0  0  0  0  0
    0.9324   -2.2894    0.0323 H   0  0  0  0  0  0  0  0  0  0  0  0
   -2.3483    0.4998   -0.2929 H   0  0  0  0  0  0  0  0  0  0  0  0
   -0.8026    2.3662   -0.0262 H   0  0  0  0  0  0  0  0  0  0  0  0
    1.6449    1.9479    0.0074 H   0  0  0  0  0  0  0  0  0  0  0  0
   -1.2619   -3.1477    0.0315 H   0  0  0  0  0  0  0  0  0  0  0  0
   -2.0611   -2.1367    2.1868 H   0  0  0  0  0  0  0  0  0  0  0  0
   -4.1535   -0.9977    2.2267 H   0  0  0  0  0  0  0  0  0  0  0  0
   -2.9850   -0.1355    1.5439 H   0  0  0  0  0  0  0  0  0  0  0  0
   -3.0427   -4.2851    1.4063 H   0  0  0  0  0  0  0  0  0  0  0  0
   -4.2452   -3.3340    2.2861 H   0  0  0  0  0  0  0  0  0  0  0  0
   -4.3051   -3.4109    0.5179 H   0  0  0  0  0  0  0  0  0  0  0  0
   -3.2496   -1.4864   -1.0489 H   0  0  0  0  0  0  0  0  0  0  0  0
  1  2  1  0  0  0  0
  1  6  2  0  0  0  0
  1 12  1  0  0  0  0
  2  3  2  0  0  0  0
  2 13  1  0  0  0  0
  3  4  1  0  0  0  0
  3  7  1  0  0  0  0
  4  5  2  0  0  0  0
  4 14  1  0  0  0  0
  5  6  1  0  0  0  0
  5 15  1  0  0  0  0
  6 16  1  0  0  0  0
  7  8  1  0  0  0  0
  7 11  1  0  0  0  0
  7 17  1  1  0  0  0
  8  9  1  0  0  0  0
  8 10  1  0  0  0  0
  8 18  1  1  0  0  0
  9 19  1  0  0  0  0
  9 20  1  0  0  0  0
 10 21  1  0  0  0  0
 10 22  1  0  0  0  0
 10 23  1  0  0  0  0
 11 24  1  0  0  0  0
M  END
>  <DRUGBANK_ID>
DB01486

>  <COMMON_NAME>
Cathine

>  <CAS_NUMBER>
492-39-7

>  <UNII>
E1L4ZW2F8O

>  <SYNONYMS>
(+)-Norpseudoephedrine; Cathina; Cathine; Cathinum; D-Cathine; d-Nor-psi-ephedrine; d-Norpseudoephedrine; Katine; Pseudonorephedrine; psi-Norephedrine

$$$$
