
 OpenBabel10282417193D

 39 41  0  0  0  0  0  0  0  0999 V2000
    1.3541    0.2440   -0.4980 C   0  0  0  0  0  0  0  0  0  0  0  0
    0.6651   -0.8012   -1.3469 C   0  0  0  0  0  0  0  0  0  0  0  0
    1.1009   -2.2287   -0.9583 C   0  0  0  0  0  0  0  0  0  0  0  0
    0.4316   -2.7372    0.2708 N   0  0  0  0  0  0  0  0  0  0  0  0
   -0.2833   -3.9486    0.1711 C   0  0  0  0  0  0  0  0  0  0  0  0
   -1.4122   -4.1117    0.9786 C   0  0  0  0  0  0  0  0  0  0  0  0
   -2.1422   -5.2856    0.9063 C   0  0  0  0  0  0  0  0  0  0  0  0
   -1.8252   -6.3209    0.1005 N   0  0  0  0  0  0  0  0  0  0  0  0
   -0.7178   -6.1677   -0.6593 C   0  0  0  0  0  0  0  0  0  0  0  0
    0.0691   -5.0259   -0.6574 C   0  0  0  0  0  0  0  0  0  0  0  0
    1.1821   -5.0077   -1.4073 F   0  0  0  0  0  0  0  0  0  0  0  0
    0.8454   -2.2396    1.5527 N   0  0  0  0  0  0  0  0  0  0  0  0
    0.4327   -1.0501    2.1296 C   0  0  0  0  0  0  0  0  0  0  0  0
    1.3298   -0.7152    3.1126 C   0  0  0  0  0  0  0  0  0  0  0  0
    1.8765   -1.9586    3.5357 C   0  0  0  0  0  0  0  0  0  0  0  0
    1.5419   -2.9117    2.5557 C   0  0  0  0  0  0  0  0  0  0  0  0
    1.8803   -4.2642    2.7188 C   0  0  0  0  0  0  0  0  0  0  0  0
    2.4933   -4.6473    3.9151 C   0  0  0  0  0  0  0  0  0  0  0  0
    2.8401   -3.7105    4.8870 C   0  0  0  0  0  0  0  0  0  0  0  0
    2.5774   -2.3560    4.6830 C   0  0  0  0  0  0  0  0  0  0  0  0
    1.5744    0.6358    3.6956 C   0  0  0  0  0  0  0  0  0  0  0  0
    1.3891   -0.0994    0.5059 H   0  0  0  0  0  0  0  0  0  0  0  0
    0.8174    1.1941   -0.4625 H   0  0  0  0  0  0  0  0  0  0  0  0
    2.4152    0.3688   -0.7118 H   0  0  0  0  0  0  0  0  0  0  0  0
   -0.4258   -0.7177   -1.2566 H   0  0  0  0  0  0  0  0  0  0  0  0
    0.9059   -0.5910   -2.3989 H   0  0  0  0  0  0  0  0  0  0  0  0
    0.7986   -2.8297   -1.8290 H   0  0  0  0  0  0  0  0  0  0  0  0
    2.1917   -2.3104   -0.8966 H   0  0  0  0  0  0  0  0  0  0  0  0
   -1.7280   -3.3162    1.6455 H   0  0  0  0  0  0  0  0  0  0  0  0
   -3.0307   -5.4172    1.5154 H   0  0  0  0  0  0  0  0  0  0  0  0
   -0.4601   -7.0155   -1.2868 H   0  0  0  0  0  0  0  0  0  0  0  0
   -0.3061   -0.4294    1.6226 H   0  0  0  0  0  0  0  0  0  0  0  0
    1.6078   -5.0080    1.9782 H   0  0  0  0  0  0  0  0  0  0  0  0
    2.6902   -5.7010    4.0979 H   0  0  0  0  0  0  0  0  0  0  0  0
    3.2940   -4.0318    5.8186 H   0  0  0  0  0  0  0  0  0  0  0  0
    2.8250   -1.6301    5.4561 H   0  0  0  0  0  0  0  0  0  0  0  0
    2.2013    1.2311    3.0177 H   0  0  0  0  0  0  0  0  0  0  0  0
    0.6298    1.1678    3.8334 H   0  0  0  0  0  0  0  0  0  0  0  0
    2.0916    0.5909    4.6574 H   0  0  0  0  0  0  0  0  0  0  0  0
  1  2  1  0  0  0  0
  1 22  1  0  0  0  0
  1 23  1  0  0  0  0
  1 24  1  0  0  0  0
  2  3  1  0  0  0  0
  2 25  1  0  0  0  0
  2 26  1  0  0  0  0
  3  4  1  0  0  0  0
  3 27  1  0  0  0  0
  3 28  1  0  0  0  0
  4  5  1  0  0  0  0
  4 12  1  0  0  0  0
  5  6  2  0  0  0  0
  5 10  1  0  0  0  0
  6  7  1  0  0  0  0
  6 29  1  0  0  0  0
  7  8  2  0  0  0  0
  7 30  1  0  0  0  0
  8  9  1  0  0  0  0
  9 10  2  0  0  0  0
  9 31  1  0  0  0  0
 10 11  1  0  0  0  0
 12 13  1  0  0  0  0
 12 16  1  0  0  0  0
 13 14  2  0  0  0  0
 13 32  1  0  0  0  0
 14 15  1  0  0  0  0
 14 21  1  0  0  0  0
 15 16  1  0  0  0  0
 15 20  2  0  0  0  0
 16 17  2  0  0  0  0
 17 18  1  0  0  0  0
 17 33  1  0  0  0  0
 18 19  2  0  0  0  0
 18 34  1  0  0  0  0
 19 20  1  0  0  0  0
 19 35  1  0  0  0  0
 20 36  1  0  0  0  0
 21 37  1  0  0  0  0
 21 38  1  0  0  0  0
 21 39  1  0  0  0  0
M  END
>  <DRUGBANK_ID>
DB12714

>  <COMMON_NAME>
Nerispirdine

>  <CAS_NUMBER>
119229-65-1

>  <UNII>
G7M7YWO6CG

>  <SYNONYMS>
Nerispirdine

$$$$
