I84
 OpenBabel10282417123D

 49 50  0  0  0  0  0  0  0  0999 V2000
    0.2787    1.1949   -0.0056 C   0  0  0  0  0  0  0  0  0  0  0  0
    0.9866   -0.0196   -0.0113 C   0  0  0  0  0  0  0  0  0  0  0  0
    0.2705   -1.2366   -0.0111 C   0  0  0  0  0  0  0  0  0  0  0  0
   -1.1356   -1.1996   -0.0211 C   0  0  0  0  0  0  0  0  0  0  0  0
   -1.8222    0.0132   -0.0196 C   0  0  0  0  0  0  0  0  0  0  0  0
   -1.1156    1.2102   -0.0074 C   0  0  0  0  0  0  0  0  0  0  0  0
    2.4900    0.0187   -0.0134 C   0  0  0  0  0  0  0  0  0  0  0  0
    0.9484   -2.5946    0.0314 C   0  0  0  0  0  0  0  0  0  0  0  0
    0.6211   -3.3405    1.3219 C   0  0  0  0  0  0  0  0  0  0  0  0
    0.0338   -4.5944    1.1747 N   0  0  0  0  0  0  0  0  0  0  0  0
   -0.4174   -5.3544    2.2853 C   0  0  0  0  0  0  0  0  0  0  0  0
    0.9041   -2.8415    2.4121 O   0  0  0  0  0  0  0  0  0  0  0  0
   -1.0336   -4.7310    3.3709 C   0  0  0  0  0  0  0  0  0  0  0  0
   -1.5614   -5.4605    4.4572 C   0  0  0  0  0  0  0  0  0  0  0  0
   -1.4233   -6.8660    4.4758 C   0  0  0  0  0  0  0  0  0  0  0  0
   -0.7684   -7.5231    3.3964 C   0  0  0  0  0  0  0  0  0  0  0  0
   -0.2970   -6.7449    2.3004 C   0  0  0  0  0  0  0  0  0  0  0  0
   -0.5023   -9.0061    3.2786 C   0  0  0  0  0  0  0  0  0  0  0  0
   -2.2752   -4.6611    5.5145 C   0  0  0  0  0  0  0  0  0  0  0  0
   -2.2123   -7.7774    5.8096 S   0  0  0  0  0  0  0  0  0  0  0  0
   -1.3710   -7.3273    7.2304 N   0  0  0  0  0  0  0  0  0  0  0  0
   -1.8627   -8.0676    8.4334 C   0  0  0  0  0  0  0  0  0  0  0  0
   -1.6807   -9.5905    8.4336 C   0  0  0  0  0  0  0  0  0  0  0  0
   -0.7758  -10.0694    9.3181 O   0  0  0  0  0  0  0  0  0  0  0  0
   -2.3046  -10.3766    7.7385 O   0  0  0  0  0  0  0  0  0  0  0  0
   -3.5828   -7.3495    5.9280 O   0  0  0  0  0  0  0  0  0  0  0  0
   -1.8946   -9.1701    5.6399 O   0  0  0  0  0  0  0  0  0  0  0  0
    0.8125    2.1434    0.0057 H   0  0  0  0  0  0  0  0  0  0  0  0
   -1.7081   -2.1246   -0.0099 H   0  0  0  0  0  0  0  0  0  0  0  0
   -2.9086    0.0210   -0.0195 H   0  0  0  0  0  0  0  0  0  0  0  0
   -1.6491    2.1569    0.0035 H   0  0  0  0  0  0  0  0  0  0  0  0
    2.8867   -0.4894    0.8712 H   0  0  0  0  0  0  0  0  0  0  0  0
    2.8721   -0.4629   -0.9192 H   0  0  0  0  0  0  0  0  0  0  0  0
    2.8719    1.0452   -0.0014 H   0  0  0  0  0  0  0  0  0  0  0  0
    0.6757   -3.1644   -0.8633 H   0  0  0  0  0  0  0  0  0  0  0  0
    2.0392   -2.4959    0.0051 H   0  0  0  0  0  0  0  0  0  0  0  0
    0.0416   -5.0434    0.2665 H   0  0  0  0  0  0  0  0  0  0  0  0
   -1.1616   -3.6487    3.3591 H   0  0  0  0  0  0  0  0  0  0  0  0
    0.2170   -7.2524    1.4839 H   0  0  0  0  0  0  0  0  0  0  0  0
   -0.9667   -9.4017    2.3717 H   0  0  0  0  0  0  0  0  0  0  0  0
    0.5753   -9.1935    3.2845 H   0  0  0  0  0  0  0  0  0  0  0  0
   -0.8730   -9.6536    4.0543 H   0  0  0  0  0  0  0  0  0  0  0  0
   -1.5865   -3.9412    5.9646 H   0  0  0  0  0  0  0  0  0  0  0  0
   -3.1304   -4.1392    5.0731 H   0  0  0  0  0  0  0  0  0  0  0  0
   -2.6660   -5.2519    6.3381 H   0  0  0  0  0  0  0  0  0  0  0  0
   -0.3620   -7.3980    7.0963 H   0  0  0  0  0  0  0  0  0  0  0  0
   -1.3633   -7.6458    9.3147 H   0  0  0  0  0  0  0  0  0  0  0  0
   -2.9282   -7.8528    8.5771 H   0  0  0  0  0  0  0  0  0  0  0  0
   -0.4417   -9.4537    9.9908 H   0  0  0  0  0  0  0  0  0  0  0  0
  1  2  2  0  0  0  0
  1  6  1  0  0  0  0
  1 28  1  0  0  0  0
  2  3  1  0  0  0  0
  2  7  1  0  0  0  0
  3  4  2  0  0  0  0
  3  8  1  0  0  0  0
  4  5  1  0  0  0  0
  4 29  1  0  0  0  0
  5  6  2  0  0  0  0
  5 30  1  0  0  0  0
  6 31  1  0  0  0  0
  7 32  1  0  0  0  0
  7 33  1  0  0  0  0
  7 34  1  0  0  0  0
  8  9  1  0  0  0  0
  8 35  1  0  0  0  0
  8 36  1  0  0  0  0
  9 10  1  0  0  0  0
  9 12  2  0  0  0  0
 10 11  1  0  0  0  0
 10 37  1  0  0  0  0
 11 13  2  0  0  0  0
 11 17  1  0  0  0  0
 13 14  1  0  0  0  0
 13 38  1  0  0  0  0
 14 15  2  0  0  0  0
 14 19  1  0  0  0  0
 15 16  1  0  0  0  0
 15 20  1  0  0  0  0
 16 17  2  0  0  0  0
 16 18  1  0  0  0  0
 17 39  1  0  0  0  0
 18 40  1  0  0  0  0
 18 41  1  0  0  0  0
 18 42  1  0  0  0  0
 19 43  1  0  0  0  0
 19 44  1  0  0  0  0
 19 45  1  0  0  0  0
 20 21  1  0  0  0  0
 20 26  2  0  0  0  0
 20 27  2  0  0  0  0
 21 22  1  0  0  0  0
 21 46  1  0  0  0  0
 22 23  1  0  0  0  0
 22 47  1  0  0  0  0
 22 48  1  0  0  0  0
 23 24  1  0  0  0  0
 23 25  2  0  0  0  0
 24 49  1  0  0  0  0
M  END
>  <DRUGBANK_ID>
DB01689

>  <SECONDARY_ACCESSION_NUMBERS>
EXPT01819

>  <COMMON_NAME>
Inhibitor Idd 384

$$$$
