
 OpenBabel10282417243D

 61 64  0  0  1  0  0  0  0  0999 V2000
    6.9855    4.9461    6.6829 C   0  0  0  0  0  0  0  0  0  0  0  0
    7.5451    3.9881    5.8001 O   0  0  0  0  0  0  0  0  0  0  0  0
    6.8903    3.8257    4.6117 C   0  0  0  0  0  0  0  0  0  0  0  0
    6.2919    4.8884    3.8917 C   0  0  0  0  0  0  0  0  0  0  0  0
    5.7531    4.6760    2.6326 C   0  0  0  0  0  0  0  0  0  0  0  0
    5.1893    5.7097    1.9083 N   0  0  0  0  0  0  0  0  0  0  0  0
    4.5479    5.6550    0.5582 C   0  0  2  0  0  0  0  0  0  0  0  0
    3.4211    4.6177    0.5142 C   0  0  0  0  0  0  0  0  0  0  0  0
    3.5165    3.3936    0.5914 O   0  0  0  0  0  0  0  0  0  0  0  0
    2.0850    5.0093    0.8907 C   0  0  0  0  0  0  0  0  0  0  0  0
    1.9338    4.7549    2.2574 C   0  0  0  0  0  0  0  0  0  0  0  0
    1.3313    3.5053    2.2411 N   0  0  0  0  0  0  0  0  0  0  0  0
    0.6105    3.3719    1.0788 C   0  0  0  0  0  0  0  0  0  0  0  0
   -0.2806    2.3800    0.7307 C   0  0  0  0  0  0  0  0  0  0  0  0
   -0.9675    2.5782   -0.4591 C   0  0  0  0  0  0  0  0  0  0  0  0
   -0.6409    3.6052   -1.3559 C   0  0  0  0  0  0  0  0  0  0  0  0
   -1.2630    3.8148   -2.5589 O   0  0  0  0  0  0  0  0  0  0  0  0
   -2.3125    2.9092   -2.8654 C   0  0  0  0  0  0  0  0  0  0  0  0
   -1.8625    1.6351   -2.8999 F   0  0  0  0  0  0  0  0  0  0  0  0
   -3.3142    3.0104   -1.9627 F   0  0  0  0  0  0  0  0  0  0  0  0
   -2.8161    3.2056   -4.0818 F   0  0  0  0  0  0  0  0  0  0  0  0
    0.3806    4.5120   -1.0449 C   0  0  0  0  0  0  0  0  0  0  0  0
    0.9571    4.4309    0.2380 C   0  0  0  0  0  0  0  0  0  0  0  0
    5.5848    5.8539   -0.5811 C   0  0  0  0  0  0  0  0  0  0  0  0
    5.8326    7.2245   -0.8815 C   0  0  0  0  0  0  0  0  0  0  0  0
    6.8396    7.6196   -1.7692 C   0  0  0  0  0  0  0  0  0  0  0  0
    7.6816    6.6683   -2.3211 C   0  0  0  0  0  0  0  0  0  0  0  0
    8.8761    7.0895   -3.4748 Cl  0  0  0  0  0  0  0  0  0  0  0  0
    7.5101    5.3398   -2.0190 C   0  0  0  0  0  0  0  0  0  0  0  0
    6.4100    4.9202   -1.2802 C   0  0  0  0  0  0  0  0  0  0  0  0
    6.3291    3.5595   -1.5264 O   0  0  0  0  0  0  0  0  0  0  0  0
    5.1205    3.0435   -1.1158 C   0  0  0  0  0  0  0  0  0  0  0  0
    5.8491    3.3589    2.2068 C   0  0  0  0  0  0  0  0  0  0  0  0
    6.5223    2.3203    2.8163 C   0  0  0  0  0  0  0  0  0  0  0  0
    6.9867    2.5274    4.0850 C   0  0  0  0  0  0  0  0  0  0  0  0
    6.7644    0.8157    1.8863 S   0  0  0  0  0  0  0  0  0  0  0  0
    8.5114    0.6964    1.6935 C   0  0  0  0  0  0  0  0  0  0  0  0
    6.2577   -0.2749    2.6566 O   0  0  0  0  0  0  0  0  0  0  0  0
    6.2972    1.0173    0.5111 O   0  0  0  0  0  0  0  0  0  0  0  0
    7.6796    5.0454    7.5198 H   0  0  0  0  0  0  0  0  0  0  0  0
    6.0261    4.5810    7.0591 H   0  0  0  0  0  0  0  0  0  0  0  0
    6.8783    5.9408    6.2421 H   0  0  0  0  0  0  0  0  0  0  0  0
    6.2454    5.8913    4.3016 H   0  0  0  0  0  0  0  0  0  0  0  0
    5.1882    6.6325    2.3313 H   0  0  0  0  0  0  0  0  0  0  0  0
    3.9448    6.5792    0.5161 H   0  0  0  0  0  0  0  0  0  0  0  0
    2.6982    4.8948    3.0137 H   0  0  0  0  0  0  0  0  0  0  0  0
    1.5106    2.7588    2.9006 H   0  0  0  0  0  0  0  0  0  0  0  0
   -0.4994    1.5570    1.3988 H   0  0  0  0  0  0  0  0  0  0  0  0
   -1.7936    1.8974   -0.6272 H   0  0  0  0  0  0  0  0  0  0  0  0
    0.6648    5.2961   -1.7448 H   0  0  0  0  0  0  0  0  0  0  0  0
    5.2282    8.0154   -0.4318 H   0  0  0  0  0  0  0  0  0  0  0  0
    6.9752    8.6687   -2.0107 H   0  0  0  0  0  0  0  0  0  0  0  0
    8.1743    4.5747   -2.4150 H   0  0  0  0  0  0  0  0  0  0  0  0
    5.2273    3.4211   -0.1449 H   0  0  0  0  0  0  0  0  0  0  0  0
    4.2457    3.4613   -1.6190 H   0  0  0  0  0  0  0  0  0  0  0  0
    4.9948    1.9748   -0.9538 H   0  0  0  0  0  0  0  0  0  0  0  0
    5.3069    2.9708    1.3953 H   0  0  0  0  0  0  0  0  0  0  0  0
    7.3948    1.7082    4.6631 H   0  0  0  0  0  0  0  0  0  0  0  0
    8.9601    0.6061    2.6784 H   0  0  0  0  0  0  0  0  0  0  0  0
    8.7169   -0.1857    1.0811 H   0  0  0  0  0  0  0  0  0  0  0  0
    8.8727    1.5829    1.1636 H   0  0  0  0  0  0  0  0  0  0  0  0
  1  2  1  0  0  0  0
  1 40  1  0  0  0  0
  1 41  1  0  0  0  0
  1 42  1  0  0  0  0
  2  3  1  0  0  0  0
  3  4  2  0  0  0  0
  3 35  1  0  0  0  0
  4  5  1  0  0  0  0
  4 43  1  0  0  0  0
  5  6  1  0  0  0  0
  5 33  2  0  0  0  0
  6 44  1  0  0  0  0
  7 24  1  0  0  0  0
  7 45  1  6  0  0  0
  7  8  1  0  0  0  0
  7  6  1  0  0  0  0
  8  9  2  0  0  0  0
  8 10  1  0  0  0  0
 10 11  2  0  0  0  0
 10 23  1  0  0  0  0
 11 12  1  0  0  0  0
 11 46  1  0  0  0  0
 12 13  1  0  0  0  0
 12 47  1  0  0  0  0
 13 14  2  0  0  0  0
 13 23  1  0  0  0  0
 14 15  1  0  0  0  0
 14 48  1  0  0  0  0
 15 16  2  0  0  0  0
 15 49  1  0  0  0  0
 16 17  1  0  0  0  0
 16 22  1  0  0  0  0
 17 18  1  0  0  0  0
 18 19  1  0  0  0  0
 18 20  1  0  0  0  0
 18 21  1  0  0  0  0
 22 23  2  0  0  0  0
 22 50  1  0  0  0  0
 24 25  2  0  0  0  0
 24 30  1  0  0  0  0
 25 26  1  0  0  0  0
 25 51  1  0  0  0  0
 26 27  2  0  0  0  0
 26 52  1  0  0  0  0
 27 28  1  0  0  0  0
 27 29  1  0  0  0  0
 29 30  2  0  0  0  0
 29 53  1  0  0  0  0
 30 31  1  0  0  0  0
 31 32  1  0  0  0  0
 32 54  1  0  0  0  0
 32 55  1  0  0  0  0
 32 56  1  0  0  0  0
 33 34  1  0  0  0  0
 33 57  1  0  0  0  0
 34 35  2  0  0  0  0
 34 36  1  0  0  0  0
 35 58  1  0  0  0  0
 36 37  1  0  0  0  0
 36 38  2  0  0  0  0
 36 39  2  0  0  0  0
 37 59  1  0  0  0  0
 37 60  1  0  0  0  0
 37 61  1  0  0  0  0
M  END
>  <DRUGBANK_ID>
DB17734

>  <COMMON_NAME>
JNJ-1802

>  <CAS_NUMBER>
2043343-94-6

>  <UNII>
5EJO0RJF9O

>  <SYNONYMS>
(+)-(2s)-2-(4-chloro-2-methoxyphenyl)-2-((3-methoxy-5-(methylsulfonyl)phenyl)amino)-1-(5-(trifluoromethoxy)-1h-indol-3-yl)ethanone; 2-(4-chloro-2-methoxyphenyl)-2-((3-methoxy-5-(methylsulfonyl)phenyl)amino)-1-(5-(trifluoromethoxy)-1h-indol-3-yl)ethanone, (s)-; Ethanone, 2-(4-chloro-2-methoxyphenyl)-2-((3-methoxy-5-(methylsulfonyl)phenyl)amino)-1-(5-(trifluoromethoxy)-1h-indol-3-yl)-, (+)-

$$$$
