
 OpenBabel10282417213D

133135  0  0  1  0  0  0  0  0999 V2000
   -2.8767   -0.6182   -2.1389 C   0  0  0  0  0  0  0  0  0  0  0  0
   -1.9812   -1.3984   -3.6948 C   0  0  0  0  0  0  0  0  0  0  0  0
   -2.8701   -3.4103   -4.8303 C   0  0  2  0  0  0  0  0  0  0  0  0
   -1.7533   -2.7693   -3.0764 C   0  0  0  0  0  0  0  0  0  0  0  0
   -3.5374   -5.5122   -6.1653 C   0  0  1  0  0  0  0  0  0  0  0  0
   -5.0326   -7.5750   -7.4502 C   0  0  0  0  0  0  0  0  0  0  0  0
   -5.8982   -8.8491   -8.0132 O   0  0  0  0  0  0  0  0  0  0  0  0
   -6.2854   -9.1966   -8.6363 N   0  0  0  0  0  0  0  0  0  0  0  0
   -7.5435  -11.2744   -9.1414 C   0  0  2  0  0  0  0  0  0  0  0  0
   -6.7529  -12.4110   -9.6572 C   0  0  0  0  0  0  0  0  0  0  0  0
   -6.3865  -13.4126  -10.1799 O   0  0  0  0  0  0  0  0  0  0  0  0
   -6.0373  -11.5014   -8.9508 N   0  0  0  0  0  0  0  0  0  0  0  0
   -4.6608  -11.3279   -9.0385 C   0  0  2  0  0  0  0  0  0  0  0  0
   -4.2104  -10.0577   -9.8049 C   0  0  0  0  0  0  0  0  0  0  0  0
   -4.5050   -9.9145  -10.9960 O   0  0  0  0  0  0  0  0  0  0  0  0
   -3.3999   -9.1363   -9.1429 N   0  0  0  0  0  0  0  0  0  0  0  0
   -2.8727   -7.9427   -9.8205 C   0  0  1  0  0  0  0  0  0  0  0  0
   -3.4089   -6.6839   -9.2394 C   0  0  0  0  0  0  0  0  0  0  0  0
   -2.7506   -6.8209   -7.7409 S   0  0  0  0  0  0  0  0  0  0  0  0
   -3.4291   -8.3877   -6.3272 S   0  0  0  0  0  0  0  0  0  0  0  0
   -2.8557   -8.2394   -4.6815 C   0  0  0  0  0  0  0  0  0  0  0  0
   -1.3644   -8.2060   -4.6381 C   0  0  0  0  0  0  0  0  0  0  0  0
   -0.8051   -7.0320   -5.3659 C   0  0  0  0  0  0  0  0  0  0  0  0
   -1.0053   -6.9294   -6.5439 O   0  0  0  0  0  0  0  0  0  0  0  0
    0.0460   -6.1435   -4.7439 N   0  0  0  0  0  0  0  0  0  0  0  0
    0.5373   -4.9890   -5.4871 C   0  0  2  0  0  0  0  0  0  0  0  0
   -0.4618   -3.9957   -4.7222 C   0  0  0  0  0  0  0  0  0  0  0  0
   -1.6010   -3.9942   -5.6918 O   0  0  0  0  0  0  0  0  0  0  0  0
   -1.5702   -4.6483   -5.6003 N   0  0  0  0  0  0  0  0  0  0  0  0
    0.0371   -4.8630   -6.9636 C   0  0  0  0  0  0  0  0  0  0  0  0
    0.3016   -3.6428   -7.7109 C   0  0  0  0  0  0  0  0  0  0  0  0
    0.7121   -3.6805   -9.1246 C   0  0  0  0  0  0  0  0  0  0  0  0
    1.4110   -2.5503   -9.6330 C   0  0  0  0  0  0  0  0  0  0  0  0
    1.0474   -1.3623   -9.0899 C   0  0  0  0  0  0  0  0  0  0  0  0
    0.3475   -1.2970   -7.8918 C   0  0  0  0  0  0  0  0  0  0  0  0
    0.0570   -2.4265   -7.1797 C   0  0  0  0  0  0  0  0  0  0  0  0
    1.2717   -0.1918   -9.7368 O   0  0  0  0  0  0  0  0  0  0  0  0
   -1.3065   -7.9487   -9.8298 C   0  0  0  0  0  0  0  0  0  0  0  0
   -0.7210   -7.3181  -10.7157 O   0  0  0  0  0  0  0  0  0  0  0  0
   -0.6177   -8.6132   -8.7631 N   0  0  0  0  0  0  0  0  0  0  0  0
   -0.9135   -9.9321   -8.2215 C   0  0  0  0  0  0  0  0  0  0  0  0
   -0.5708   -9.8046   -6.7955 C   0  0  0  0  0  0  0  0  0  0  0  0
    0.7122   -8.9715   -6.7805 C   0  0  0  0  0  0  0  0  0  0  0  0
    0.5804   -8.0986   -8.0359 C   0  0  1  0  0  0  0  0  0  0  0  0
    1.8444   -8.1410   -8.8807 C   0  0  0  0  0  0  0  0  0  0  0  0
    1.9959   -9.0852   -9.6583 O   0  0  0  0  0  0  0  0  0  0  0  0
    2.8200   -7.1418   -8.7391 N   0  0  0  0  0  0  0  0  0  0  0  0
    2.7344   -6.0338   -7.8305 C   0  0  1  0  0  0  0  0  0  0  0  0
    3.8187   -5.9964   -6.7838 C   0  0  0  0  0  0  0  0  0  0  0  0
    5.1813   -5.8271   -7.3742 C   0  0  0  0  0  0  0  0  0  0  0  0
    5.3283   -4.4122   -7.8956 C   0  0  0  0  0  0  0  0  0  0  0  0
    6.2982   -5.8327   -6.4857 C   0  0  0  0  0  0  0  0  0  0  0  0
    2.8442   -4.7617   -8.5893 C   0  0  0  0  0  0  0  0  0  0  0  0
    2.3358   -3.8701   -7.9671 O   0  0  0  0  0  0  0  0  0  0  0  0
    3.5676   -4.3635   -9.7446 N   0  0  0  0  0  0  0  0  0  0  0  0
    4.9445   -5.3430   -9.8067 C   0  0  0  0  0  0  0  0  0  0  0  0
    5.2958   -5.6400  -11.0533 C   0  0  0  0  0  0  0  0  0  0  0  0
    6.3892   -5.3029  -11.4426 O   0  0  0  0  0  0  0  0  0  0  0  0
    4.2768   -6.3125  -11.6127 N   0  0  0  0  0  0  0  0  0  0  0  0
   -4.1531  -12.5460   -9.7213 C   0  0  0  0  0  0  0  0  0  0  0  0
   -2.6563  -12.5669   -9.7256 C   0  0  0  0  0  0  0  0  0  0  0  0
   -2.0576  -13.4794   -9.1559 O   0  0  0  0  0  0  0  0  0  0  0  0
   -1.9810  -11.5242  -10.3775 N   0  0  0  0  0  0  0  0  0  0  0  0
   -8.7046  -13.2558   -8.8847 C   0  0  0  0  0  0  0  0  0  0  0  0
   -8.4412  -13.5826   -7.4453 C   0  0  0  0  0  0  0  0  0  0  0  0
   -8.9604  -12.3262   -6.7454 C   0  0  0  0  0  0  0  0  0  0  0  0
   -9.6729  -12.4312   -5.7525 O   0  0  0  0  0  0  0  0  0  0  0  0
   -8.6335  -11.0640   -7.2147 N   0  0  0  0  0  0  0  0  0  0  0  0
   -3.6617   -0.8813   -2.7588 H   0  0  0  0  0  0  0  0  0  0  0  0
   -3.1890    0.3557   -1.6226 H   0  0  0  0  0  0  0  0  0  0  0  0
   -2.6378   -1.2637   -1.3187 H   0  0  0  0  0  0  0  0  0  0  0  0
   -1.8423    0.2645   -3.6818 H   0  0  0  0  0  0  0  0  0  0  0  0
   -1.0864   -0.3337   -2.5953 H   0  0  0  0  0  0  0  0  0  0  0  0
   -1.7996   -2.0344   -4.8395 H   0  0  0  0  0  0  0  0  0  0  0  0
   -1.8923   -3.6217   -3.4409 H   0  0  0  0  0  0  0  0  0  0  0  0
   -0.8064   -3.0754   -2.3258 H   0  0  0  0  0  0  0  0  0  0  0  0
   -2.4509   -2.5144   -2.2877 H   0  0  0  0  0  0  0  0  0  0  0  0
   -2.1715   -5.5784   -5.2326 H   0  0  0  0  0  0  0  0  0  0  0  0
   -7.1229  -10.1075   -9.7987 H   0  0  0  0  0  0  0  0  0  0  0  0
   -8.8448  -11.4505   -9.2217 H   0  0  0  0  0  0  0  0  0  0  0  0
   -6.4999  -10.6415   -8.4486 H   0  0  0  0  0  0  0  0  0  0  0  0
   -4.3503  -11.2772   -8.0107 H   0  0  0  0  0  0  0  0  0  0  0  0
   -3.1517   -9.2230   -8.1366 H   0  0  0  0  0  0  0  0  0  0  0  0
   -3.2308   -7.9465  -10.8407 H   0  0  0  0  0  0  0  0  0  0  0  0
   -4.4672   -6.6371   -9.1638 H   0  0  0  0  0  0  0  0  0  0  0  0
   -3.0238   -5.7834   -9.6743 H   0  0  0  0  0  0  0  0  0  0  0  0
   -3.2360   -9.1215   -4.1555 H   0  0  0  0  0  0  0  0  0  0  0  0
   -3.2450   -7.3608   -4.1980 H   0  0  0  0  0  0  0  0  0  0  0  0
   -0.9563   -9.1250   -4.9973 H   0  0  0  0  0  0  0  0  0  0  0  0
   -0.9941   -8.2236   -3.6493 H   0  0  0  0  0  0  0  0  0  0  0  0
    0.2345   -6.1915   -3.7638 H   0  0  0  0  0  0  0  0  0  0  0  0
    1.5817   -4.8596   -5.4490 H   0  0  0  0  0  0  0  0  0  0  0  0
   -0.2722   -3.7153   -5.1750 H   0  0  0  0  0  0  0  0  0  0  0  0
    0.3110   -5.7161   -7.4123 H   0  0  0  0  0  0  0  0  0  0  0  0
   -1.0441   -4.9460   -7.0880 H   0  0  0  0  0  0  0  0  0  0  0  0
    1.2603   -4.7251   -9.3616 H   0  0  0  0  0  0  0  0  0  0  0  0
    2.0679   -2.6610  -10.4815 H   0  0  0  0  0  0  0  0  0  0  0  0
    0.0256   -0.3481   -7.5047 H   0  0  0  0  0  0  0  0  0  0  0  0
   -0.4914   -2.3651   -6.2787 H   0  0  0  0  0  0  0  0  0  0  0  0
    1.7508   -0.2459  -10.5828 H   0  0  0  0  0  0  0  0  0  0  0  0
   -0.3297  -10.7230   -8.6787 H   0  0  0  0  0  0  0  0  0  0  0  0
   -1.9191  -10.2413   -8.3595 H   0  0  0  0  0  0  0  0  0  0  0  0
   -1.4280   -9.3273   -6.3672 H   0  0  0  0  0  0  0  0  0  0  0  0
   -0.4781  -10.7362   -6.2632 H   0  0  0  0  0  0  0  0  0  0  0  0
    0.8867   -8.4089   -5.8570 H   0  0  0  0  0  0  0  0  0  0  0  0
    1.5710   -9.6211   -6.8555 H   0  0  0  0  0  0  0  0  0  0  0  0
    0.4386   -7.1103   -7.7721 H   0  0  0  0  0  0  0  0  0  0  0  0
    3.6554   -7.1873   -9.3200 H   0  0  0  0  0  0  0  0  0  0  0  0
    1.8149   -6.1065   -7.2827 H   0  0  0  0  0  0  0  0  0  0  0  0
    3.6799   -5.1670   -6.0963 H   0  0  0  0  0  0  0  0  0  0  0  0
    3.8126   -6.9233   -6.2428 H   0  0  0  0  0  0  0  0  0  0  0  0
    5.3676   -6.7424   -8.0442 H   0  0  0  0  0  0  0  0  0  0  0  0
    4.9786   -3.5680   -7.4860 H   0  0  0  0  0  0  0  0  0  0  0  0
    6.2642   -4.0831   -8.4519 H   0  0  0  0  0  0  0  0  0  0  0  0
    4.5530   -4.4003   -8.4942 H   0  0  0  0  0  0  0  0  0  0  0  0
    6.2867   -6.7640   -5.9672 H   0  0  0  0  0  0  0  0  0  0  0  0
    7.2246   -5.7132   -7.0376 H   0  0  0  0  0  0  0  0  0  0  0  0
    6.1595   -5.0045   -5.8150 H   0  0  0  0  0  0  0  0  0  0  0  0
    3.8338   -3.3567   -9.8819 H   0  0  0  0  0  0  0  0  0  0  0  0
    5.8707   -4.9458   -9.4944 H   0  0  0  0  0  0  0  0  0  0  0  0
    4.7319   -6.0447   -9.1048 H   0  0  0  0  0  0  0  0  0  0  0  0
    3.3754   -6.5375  -11.1702 H   0  0  0  0  0  0  0  0  0  0  0  0
    4.4238   -6.5885  -12.5656 H   0  0  0  0  0  0  0  0  0  0  0  0
   -4.5430  -13.4347   -9.1840 H   0  0  0  0  0  0  0  0  0  0  0  0
   -4.5439  -12.5911  -10.7448 H   0  0  0  0  0  0  0  0  0  0  0  0
   -2.4548  -10.7421  -10.8502 H   0  0  0  0  0  0  0  0  0  0  0  0
   -0.9538  -11.4880  -10.3897 H   0  0  0  0  0  0  0  0  0  0  0  0
   -9.9974  -13.5945   -8.9027 H   0  0  0  0  0  0  0  0  0  0  0  0
   -8.5649  -14.4876   -9.3851 H   0  0  0  0  0  0  0  0  0  0  0  0
   -8.8072  -14.4811   -6.9321 H   0  0  0  0  0  0  0  0  0  0  0  0
   -7.3625  -13.6149   -7.4435 H   0  0  0  0  0  0  0  0  0  0  0  0
   -8.0507  -10.8089   -7.9216 H   0  0  0  0  0  0  0  0  0  0  0  0
   -8.9419  -10.1878   -6.8412 H   0  0  0  0  0  0  0  0  0  0  0  0
  1  2  1  0  0  0  0
  1 69  1  0  0  0  0
  1 70  1  0  0  0  0
  1 71  1  0  0  0  0
  2 72  1  0  0  0  0
  2 73  1  0  0  0  0
  3 74  1  1  0  0  0
  3  4  1  0  0  0  0
  3  2  1  0  0  0  0
  4 75  1  0  0  0  0
  4 76  1  0  0  0  0
  4 77  1  0  0  0  0
  5  6  1  0  0  0  0
  5 29  1  0  0  0  0
  5 78  1  1  0  0  0
  5  3  1  0  0  0  0
  6  7  2  0  0  0  0
  6  8  1  0  0  0  0
  8  9  1  0  0  0  0
  8 79  1  0  0  0  0
  9 10  1  0  0  0  0
  9 64  1  0  0  0  0
  9 80  1  1  0  0  0
 10 11  2  0  0  0  0
 10 12  1  0  0  0  0
 12 13  1  0  0  0  0
 12 81  1  0  0  0  0
 13 14  1  0  0  0  0
 13 60  1  0  0  0  0
 13 82  1  1  0  0  0
 14 15  2  0  0  0  0
 14 16  1  0  0  0  0
 16 17  1  0  0  0  0
 16 83  1  0  0  0  0
 17 18  1  0  0  0  0
 17 84  1  6  0  0  0
 17 38  1  0  0  0  0
 18 19  1  0  0  0  0
 18 85  1  0  0  0  0
 18 86  1  0  0  0  0
 19 20  1  0  0  0  0
 20 21  1  0  0  0  0
 21 22  1  0  0  0  0
 21 87  1  0  0  0  0
 21 88  1  0  0  0  0
 22 23  1  0  0  0  0
 22 89  1  0  0  0  0
 22 90  1  0  0  0  0
 23 24  2  0  0  0  0
 23 25  1  0  0  0  0
 25 26  1  0  0  0  0
 25 91  1  0  0  0  0
 26 27  1  0  0  0  0
 26 30  1  0  0  0  0
 26 92  1  1  0  0  0
 27 28  2  0  0  0  0
 27 29  1  0  0  0  0
 29 93  1  0  0  0  0
 30 31  1  0  0  0  0
 30 94  1  0  0  0  0
 30 95  1  0  0  0  0
 31 32  2  0  0  0  0
 31 36  1  0  0  0  0
 32 33  1  0  0  0  0
 32 96  1  0  0  0  0
 33 34  2  0  0  0  0
 33 97  1  0  0  0  0
 34 35  1  0  0  0  0
 34 37  1  0  0  0  0
 35 36  2  0  0  0  0
 35 98  1  0  0  0  0
 36 99  1  0  0  0  0
 37100  1  0  0  0  0
 38 39  2  0  0  0  0
 38 40  1  0  0  0  0
 40 41  1  0  0  0  0
 40 44  1  0  0  0  0
 41 42  1  0  0  0  0
 41101  1  0  0  0  0
 41102  1  0  0  0  0
 42 43  1  0  0  0  0
 42103  1  0  0  0  0
 42104  1  0  0  0  0
 43 44  1  0  0  0  0
 43105  1  0  0  0  0
 43106  1  0  0  0  0
 44107  1  1  0  0  0
 44 45  1  0  0  0  0
 45 46  2  0  0  0  0
 45 47  1  0  0  0  0
 47108  1  0  0  0  0
 48 47  1  0  0  0  0
 48 49  1  0  0  0  0
 48 53  1  0  0  0  0
 48109  1  1  0  0  0
 49 50  1  0  0  0  0
 49110  1  0  0  0  0
 49111  1  0  0  0  0
 50 51  1  0  0  0  0
 50 52  1  0  0  0  0
 50112  1  0  0  0  0
 51113  1  0  0  0  0
 51114  1  0  0  0  0
 51115  1  0  0  0  0
 52116  1  0  0  0  0
 52117  1  0  0  0  0
 52118  1  0  0  0  0
 53 54  2  0  0  0  0
 53 55  1  0  0  0  0
 55 56  1  0  0  0  0
 55119  1  0  0  0  0
 56 57  1  0  0  0  0
 56120  1  0  0  0  0
 56121  1  0  0  0  0
 57 58  2  0  0  0  0
 57 59  1  0  0  0  0
 59122  1  0  0  0  0
 59123  1  0  0  0  0
 60 61  1  0  0  0  0
 60124  1  0  0  0  0
 60125  1  0  0  0  0
 61 62  2  0  0  0  0
 61 63  1  0  0  0  0
 63126  1  0  0  0  0
 63127  1  0  0  0  0
 64 65  1  0  0  0  0
 64128  1  0  0  0  0
 64129  1  0  0  0  0
 65 66  1  0  0  0  0
 65130  1  0  0  0  0
 65131  1  0  0  0  0
 66 67  2  0  0  0  0
 66 68  1  0  0  0  0
 68132  1  0  0  0  0
 68133  1  0  0  0  0
M  END
>  <DRUGBANK_ID>
DB13798

>  <COMMON_NAME>
Demoxytocin

>  <CAS_NUMBER>
113-78-0

>  <UNII>
2N9HM3X95F

>  <SYNONYMS>
Demoxytocin

$$$$
