
 OpenBabel10282417163D

 54 59  0  0  1  0  0  0  0  0999 V2000
   -1.0591    1.2216    0.9456 C   0  0  0  0  0  0  0  0  0  0  0  0
   -1.3139    1.6611    2.2953 O   0  0  0  0  0  0  0  0  0  0  0  0
   -0.6184    0.7214    3.4062 C   0  0  2  0  0  0  0  0  0  0  0  0
   -0.2646   -0.2259    2.3426 C   0  0  2  0  0  0  0  0  0  0  0  0
    0.2676    0.7125    1.1750 C   0  0  2  0  0  0  0  0  0  0  0  0
    1.6112   -1.4858    4.0291 C   0  0  2  0  0  0  0  0  0  0  0  0
    0.7672   -1.2725    2.7970 C   0  0  1  0  0  0  0  0  0  0  0  0
    3.1733   -2.4013    3.3404 C   0  0  2  0  0  0  0  0  0  0  0  0
    3.1819   -1.1124    2.4855 C   0  0  2  0  0  0  0  0  0  0  0  0
    1.8637   -0.9435    1.9304 O   0  0  0  0  0  0  0  0  0  0  0  0
    4.2647   -0.9759    1.5606 O   0  0  0  0  0  0  0  0  0  0  0  0
    5.0611   -2.0118    1.8946 C   0  0  0  0  0  0  0  0  0  0  0  0
    4.1265   -3.0932    1.9975 C   0  0  2  0  0  0  0  0  0  0  0  0
   -1.6791    1.1927   -0.1050 O   0  0  0  0  0  0  0  0  0  0  0  0
    0.9216    0.2770    4.2929 C   0  0  0  0  0  0  0  0  0  0  0  0
    1.0050   -2.7008    4.9921 C   0  0  1  0  0  0  0  0  0  0  0  0
    2.5979   -4.1039    3.4882 C   0  0  1  0  0  0  0  0  0  0  0  0
    2.1091   -3.8811    4.9626 C   0  0  1  0  0  0  0  0  0  0  0  0
    6.2543   -1.9924    2.2597 O   0  0  0  0  0  0  0  0  0  0  0  0
   -1.5819   -0.7915    2.0065 O   0  0  0  0  0  0  0  0  0  0  0  0
    0.9973    2.0531    1.5164 C   0  0  0  0  0  0  0  0  0  0  0  0
   -0.4114   -2.2153    3.4659 C   0  0  0  0  0  0  0  0  0  0  0  0
   -0.3174   -2.2709    4.8276 O   0  0  0  0  0  0  0  0  0  0  0  0
   -1.2179   -2.9111    2.8696 O   0  0  0  0  0  0  0  0  0  0  0  0
    3.7706   -3.1016    0.5588 O   0  0  0  0  0  0  0  0  0  0  0  0
    1.7061   -4.7320    2.1460 C   0  0  0  0  0  0  0  0  0  0  0  0
    1.2559   -3.4413    1.6796 C   0  0  0  0  0  0  0  0  0  0  0  0
    2.3910   -5.2809    0.8851 C   0  0  0  0  0  0  0  0  0  0  0  0
    0.3604   -5.4331    2.2612 C   0  0  0  0  0  0  0  0  0  0  0  0
    3.1578   -3.2734    5.7624 O   0  0  0  0  0  0  0  0  0  0  0  0
   -1.4829    0.6345    4.0760 H   0  0  0  0  0  0  0  0  0  0  0  0
    0.6647    0.2585    0.2620 H   0  0  0  0  0  0  0  0  0  0  0  0
    3.4216   -0.2806    3.1515 H   0  0  0  0  0  0  0  0  0  0  0  0
    4.6521   -4.0567    2.1782 H   0  0  0  0  0  0  0  0  0  0  0  0
    0.6154    0.3725    5.3499 H   0  0  0  0  0  0  0  0  0  0  0  0
    1.6363    1.0796    4.1048 H   0  0  0  0  0  0  0  0  0  0  0  0
    0.5029   -3.6529    4.6785 H   0  0  0  0  0  0  0  0  0  0  0  0
    3.3654   -4.9089    3.5895 H   0  0  0  0  0  0  0  0  0  0  0  0
    1.9445   -4.8668    5.4523 H   0  0  0  0  0  0  0  0  0  0  0  0
   -2.0828   -1.0327    2.8253 H   0  0  0  0  0  0  0  0  0  0  0  0
    0.9925    2.2921    2.5843 H   0  0  0  0  0  0  0  0  0  0  0  0
    2.0292    2.0401    1.1910 H   0  0  0  0  0  0  0  0  0  0  0  0
    0.4887    2.9260    1.0641 H   0  0  0  0  0  0  0  0  0  0  0  0
    3.1235   -2.4091    0.3202 H   0  0  0  0  0  0  0  0  0  0  0  0
    2.0856   -2.8457    1.5535 H   0  0  0  0  0  0  0  0  0  0  0  0
    0.5961   -3.0895    0.9062 H   0  0  0  0  0  0  0  0  0  0  0  0
    0.9166   -3.2275    2.6353 H   0  0  0  0  0  0  0  0  0  0  0  0
    2.2990   -6.3526    0.7530 H   0  0  0  0  0  0  0  0  0  0  0  0
    1.9461   -4.7909   -0.0056 H   0  0  0  0  0  0  0  0  0  0  0  0
    3.4586   -5.1300    0.8545 H   0  0  0  0  0  0  0  0  0  0  0  0
    0.4612   -6.5017    2.1079 H   0  0  0  0  0  0  0  0  0  0  0  0
   -0.1763   -5.2088    3.1800 H   0  0  0  0  0  0  0  0  0  0  0  0
   -0.2772   -5.0671    1.4282 H   0  0  0  0  0  0  0  0  0  0  0  0
    4.0352   -3.6404    5.5654 H   0  0  0  0  0  0  0  0  0  0  0  0
  1  2  1  0  0  0  0
  1 14  2  0  0  0  0
  3  2  1  0  0  0  0
  3  4  1  0  0  0  0
  3 15  1  0  0  0  0
  3 31  1  6  0  0  0
  4  5  1  0  0  0  0
  4 20  1  1  0  0  0
  5  1  1  0  0  0  0
  5 21  1  0  0  0  0
  5 32  1  6  0  0  0
  6  7  1  0  0  0  0
  6  8  1  0  0  0  0
  6 15  1  6  0  0  0
  6 16  1  0  0  0  0
  7  4  1  0  0  0  0
  7 10  1  1  0  0  0
  7 22  1  0  0  0  0
  8  9  1  0  0  0  0
  8 17  1  0  0  0  0
  9 10  1  0  0  0  0
  9 11  1  0  0  0  0
  9 33  1  0  0  0  0
 11 12  1  0  0  0  0
 12 13  1  0  0  0  0
 12 19  2  0  0  0  0
 13  8  1  0  0  0  0
 13 34  1  0  0  0  0
 13 25  1  0  0  0  0
 15 35  1  0  0  0  0
 15 36  1  0  0  0  0
 16 23  1  0  0  0  0
 16 37  1  0  0  0  0
 17 18  1  0  0  0  0
 17 38  1  0  0  0  0
 17 26  1  0  0  0  0
 18 16  1  0  0  0  0
 18 39  1  0  0  0  0
 18 30  1  0  0  0  0
 20 40  1  0  0  0  0
 21 41  1  0  0  0  0
 21 42  1  0  0  0  0
 21 43  1  0  0  0  0
 22 23  1  0  0  0  0
 22 24  2  0  0  0  0
 25 44  1  0  0  0  0
 26 27  1  0  0  0  0
 26 28  1  0  0  0  0
 26 29  1  0  0  0  0
 27 45  1  0  0  0  0
 27 46  1  0  0  0  0
 27 47  1  0  0  0  0
 28 48  1  0  0  0  0
 28 49  1  0  0  0  0
 28 50  1  0  0  0  0
 29 51  1  0  0  0  0
 29 52  1  0  0  0  0
 29 53  1  0  0  0  0
 30 54  1  0  0  0  0
M  END
>  <DRUGBANK_ID>
DB06746

>  <COMMON_NAME>
ginkgolide-J

>  <CAS_NUMBER>
107438-79-9

>  <UNII>
M5297RI2UE

$$$$
