
 OpenBabel10282417233D

 60 63  0  0  0  0  0  0  0  0999 V2000
    0.2243    1.3077   -0.1794 C   0  0  0  0  0  0  0  0  0  0  0  0
    0.9686    0.1141    0.3730 C   0  0  1  0  0  0  0  0  0  0  0  0
    0.3861   -1.0773   -0.1518 O   0  0  0  0  0  0  0  0  0  0  0  0
   -0.9600   -1.2651    0.2713 C   0  0  0  0  0  0  0  0  0  0  0  0
   -1.8587   -0.1308   -0.1802 C   0  0  0  0  0  0  0  0  0  0  0  0
   -1.2745    1.2387    0.1812 C   0  0  2  0  0  0  0  0  0  0  0  0
    2.4295    0.1251   -0.0472 C   0  0  0  0  0  0  0  0  0  0  0  0
   -1.9463    2.3343   -0.5049 N   0  0  0  0  0  0  0  0  0  0  0  0
   -1.7954    2.3084   -1.9096 C   0  0  0  0  0  0  0  0  0  0  0  0
   -1.0616    3.4676   -2.4801 C   0  0  0  0  0  0  0  0  0  0  0  0
   -1.6040    4.7420   -1.8638 C   0  0  2  0  0  0  0  0  0  0  0  0
   -1.4798    4.5862   -0.4259 N   0  0  0  0  0  0  0  0  0  0  0  0
   -2.1244    3.5514    0.1367 C   0  0  0  0  0  0  0  0  0  0  0  0
   -2.9871    3.7822    1.0720 N   0  0  0  0  0  0  0  0  0  0  0  0
   -2.2490    1.4445   -2.6605 O   0  0  0  0  0  0  0  0  0  0  0  0
   -3.0737    5.0151   -2.3245 C   0  0  0  0  0  0  0  0  0  0  0  0
   -4.2598    4.2122   -2.1011 C   0  0  0  0  0  0  0  0  0  0  0  0
   -5.5174    4.6114   -2.5852 C   0  0  0  0  0  0  0  0  0  0  0  0
   -5.6249    5.7794   -3.3120 C   0  0  0  0  0  0  0  0  0  0  0  0
   -4.5184    6.5667   -3.5666 C   0  0  0  0  0  0  0  0  0  0  0  0
   -3.2705    6.1970   -3.0859 C   0  0  0  0  0  0  0  0  0  0  0  0
   -0.5830    5.8456   -2.2558 C   0  0  0  0  0  0  0  0  0  0  0  0
   -4.5075    2.6801   -1.2547 Cl  0  0  0  0  0  0  0  0  0  0  0  0
   -6.6340    3.7833   -2.2811 N   0  0  0  0  0  0  0  0  0  0  0  0
   -8.3339    4.9222   -3.3340 O   0  0  0  0  0  0  0  0  0  0  0  0
   -8.9249    3.0111   -2.1866 C   0  0  0  0  0  0  0  0  0  0  0  0
   -7.9261    3.9938   -2.6488 C   0  0  0  0  0  0  0  0  0  0  0  0
   -8.9441    2.5066   -0.8823 C   0  0  0  0  0  0  0  0  0  0  0  0
  -10.0377    1.7442   -0.4653 C   0  0  0  0  0  0  0  0  0  0  0  0
  -11.0999    1.4969   -1.3418 C   0  0  0  0  0  0  0  0  0  0  0  0
  -11.0794    2.0104   -2.6410 C   0  0  0  0  0  0  0  0  0  0  0  0
   -9.9800    2.7469   -3.0700 C   0  0  0  0  0  0  0  0  0  0  0  0
  -12.2189    1.8390   -3.5041 C   0  0  0  0  0  0  0  0  0  0  0  0
  -13.1478    1.7117   -4.1707 N   0  0  0  0  0  0  0  0  0  0  0  0
    0.6543    2.2542    0.1713 H   0  0  0  0  0  0  0  0  0  0  0  0
    0.3396    1.2924   -1.2718 H   0  0  0  0  0  0  0  0  0  0  0  0
    0.9084    0.1136    1.4659 H   0  0  0  0  0  0  0  0  0  0  0  0
   -0.9828   -1.3726    1.3583 H   0  0  0  0  0  0  0  0  0  0  0  0
   -1.3123   -2.2014   -0.1729 H   0  0  0  0  0  0  0  0  0  0  0  0
   -2.8627   -0.2404    0.2439 H   0  0  0  0  0  0  0  0  0  0  0  0
   -1.9709   -0.2361   -1.2612 H   0  0  0  0  0  0  0  0  0  0  0  0
   -1.3719    1.3894    1.2654 H   0  0  0  0  0  0  0  0  0  0  0  0
    2.9323    1.0455    0.2632 H   0  0  0  0  0  0  0  0  0  0  0  0
    2.9423   -0.7272    0.4095 H   0  0  0  0  0  0  0  0  0  0  0  0
    2.5365    0.0101   -1.1324 H   0  0  0  0  0  0  0  0  0  0  0  0
   -0.0060    3.3091   -2.2246 H   0  0  0  0  0  0  0  0  0  0  0  0
   -1.1452    3.4592   -3.5706 H   0  0  0  0  0  0  0  0  0  0  0  0
   -1.2433    5.3762    0.1602 H   0  0  0  0  0  0  0  0  0  0  0  0
   -3.6565    3.0064    1.1532 H   0  0  0  0  0  0  0  0  0  0  0  0
   -6.5749    6.1109   -3.6976 H   0  0  0  0  0  0  0  0  0  0  0  0
   -4.6454    7.4803   -4.1389 H   0  0  0  0  0  0  0  0  0  0  0  0
   -2.4672    6.8872   -3.3381 H   0  0  0  0  0  0  0  0  0  0  0  0
   -0.9027    6.8385   -1.9204 H   0  0  0  0  0  0  0  0  0  0  0  0
    0.3997    5.6728   -1.7996 H   0  0  0  0  0  0  0  0  0  0  0  0
   -0.4343    5.8746   -3.3429 H   0  0  0  0  0  0  0  0  0  0  0  0
   -6.3960    2.9412   -1.7549 H   0  0  0  0  0  0  0  0  0  0  0  0
   -8.1608    2.7511   -0.1686 H   0  0  0  0  0  0  0  0  0  0  0  0
  -10.0899    1.3757    0.5570 H   0  0  0  0  0  0  0  0  0  0  0  0
  -11.9578    0.9225   -0.9964 H   0  0  0  0  0  0  0  0  0  0  0  0
   -9.9512    3.1701   -4.0744 H   0  0  0  0  0  0  0  0  0  0  0  0
  1  2  1  0  0  0  0
  1  6  1  0  0  0  0
  1 35  1  0  0  0  0
  1 36  1  0  0  0  0
  2  3  1  0  0  0  0
  2  7  1  0  0  0  0
  2 37  1  1  0  0  0
  3  4  1  0  0  0  0
  4  5  1  0  0  0  0
  4 38  1  0  0  0  0
  4 39  1  0  0  0  0
  5  6  1  0  0  0  0
  5 40  1  0  0  0  0
  5 41  1  0  0  0  0
  6 42  1  1  0  0  0
  6  8  1  0  0  0  0
  7 43  1  0  0  0  0
  7 44  1  0  0  0  0
  7 45  1  0  0  0  0
  8  9  1  0  0  0  0
  8 13  1  0  0  0  0
  9 10  1  0  0  0  0
  9 15  2  0  0  0  0
 10 11  1  0  0  0  0
 10 46  1  0  0  0  0
 10 47  1  0  0  0  0
 11 12  1  0  0  0  0
 11 22  1  6  0  0  0
 11 16  1  0  0  0  0
 12 13  1  0  0  0  0
 12 48  1  0  0  0  0
 13 14  2  0  0  0  0
 14 49  1  0  0  0  0
 16 17  2  0  0  0  0
 17 23  1  0  0  0  0
 17 18  1  0  0  0  0
 18 19  2  0  0  0  0
 18 24  1  0  0  0  0
 19 20  1  0  0  0  0
 19 50  1  0  0  0  0
 20 21  2  0  0  0  0
 20 51  1  0  0  0  0
 21 16  1  0  0  0  0
 21 52  1  0  0  0  0
 22 53  1  0  0  0  0
 22 54  1  0  0  0  0
 22 55  1  0  0  0  0
 24 27  1  0  0  0  0
 24 56  1  0  0  0  0
 26 28  2  0  0  0  0
 27 26  1  0  0  0  0
 27 25  2  0  0  0  0
 28 29  1  0  0  0  0
 28 57  1  0  0  0  0
 29 30  2  0  0  0  0
 29 58  1  0  0  0  0
 30 31  1  0  0  0  0
 30 59  1  0  0  0  0
 31 32  2  0  0  0  0
 31 33  1  0  0  0  0
 32 26  1  0  0  0  0
 32 60  1  0  0  0  0
 33 34  3  0  0  0  0
M  END
>  <DRUGBANK_ID>
DB17096

>  <COMMON_NAME>
UCB7362

$$$$
