
 OpenBabel10282417123D

 15 14  0  0  0  0  0  0  0  0999 V2000
    0.9448   -0.0221   -0.0279 O   0  0  0  0  0  0  0  0  0  0  0  0
    1.0484    2.1793    0.3521 O   0  0  0  0  0  0  0  0  0  0  0  0
   -1.6249    0.7373   -1.2014 N   0  0  0  0  0  0  0  0  0  0  0  0
   -0.6461    2.6404   -2.2169 N   0  0  0  0  0  0  0  0  0  0  0  0
   -1.7778    1.1345   -3.4252 N   0  0  0  0  0  0  0  0  0  0  0  0
   -1.1478    1.1579    0.1226 C   0  0  0  0  0  0  0  0  0  0  0  0
   -1.3355    1.4825   -2.2054 C   0  0  0  0  0  0  0  0  0  0  0  0
    0.3654    1.1743    0.1834 C   0  0  0  0  0  0  0  0  0  0  0  0
    1.9055    0.1588   -0.0533 H   0  0  0  0  0  0  0  0  0  0  0  0
   -0.3311    3.0624   -3.0749 H   0  0  0  0  0  0  0  0  0  0  0  0
   -0.1852    2.9742   -1.3777 H   0  0  0  0  0  0  0  0  0  0  0  0
   -2.3223    0.2841   -3.4928 H   0  0  0  0  0  0  0  0  0  0  0  0
   -1.5374    1.6172   -4.2735 H   0  0  0  0  0  0  0  0  0  0  0  0
   -1.5186    0.4738    0.8919 H   0  0  0  0  0  0  0  0  0  0  0  0
   -1.5322    2.1540    0.3755 H   0  0  0  0  0  0  0  0  0  0  0  0
  1  8  1  0  0  0  0
  1  9  1  0  0  0  0
  2  8  2  0  0  0  0
  3  6  1  0  0  0  0
  3  7  2  0  0  0  0
  4  7  1  0  0  0  0
  4 10  1  0  0  0  0
  4 11  1  0  0  0  0
  5  7  1  0  0  0  0
  5 12  1  0  0  0  0
  5 13  1  0  0  0  0
  6  8  1  0  0  0  0
  6 14  1  0  0  0  0
  6 15  1  0  0  0  0
M  END
>  <DRUGBANK_ID>
DB02751

>  <SECONDARY_ACCESSION_NUMBERS>
EXPT02364

>  <COMMON_NAME>
Glycocyamine

>  <CAS_NUMBER>
352-97-6

>  <UNII>
GO52O1A04E

>  <SYNONYMS>
Amidinoglycine; Betacyamine; Guanidineacetic acid; Guanidoacetic acid; Guanyl glycine; N-(aminoiminomethyl)glycine; N-amidinoglycine

$$$$
