
 OpenBabel10282417163D

 70 73  0  0  1  0  0  0  0  0999 V2000
    8.3797  -12.5312   -2.0014 C   0  0  0  0  0  0  0  0  0  0  0  0
    9.6193  -11.7476   -2.4034 C   0  0  0  0  0  0  0  0  0  0  0  0
    9.4351  -10.2458   -2.3618 C   0  0  0  0  0  0  0  0  0  0  0  0
    9.3247   -9.7820   -0.9381 C   0  0  0  0  0  0  0  0  0  0  0  0
   10.1841   -9.4232   -0.2203 O   0  0  0  0  0  0  0  0  0  0  0  0
    8.0051   -9.8225   -0.7230 O   0  0  0  0  0  0  0  0  0  0  0  0
    7.3041   -9.2216    0.2904 C   0  0  2  0  0  0  0  0  0  0  0  0
    6.6589   -7.6208   -0.6542 C   0  0  0  0  0  0  0  0  0  0  0  0
    5.3750   -7.3067    0.0115 C   0  0  0  0  0  0  0  0  0  0  0  0
    5.6872   -8.6090    0.5172 C   0  0  2  0  0  0  0  0  0  0  0  0
    7.3317   -8.3756    1.4231 C   0  0  2  0  0  0  0  0  0  0  0  0
    6.8478   -7.6334    2.6288 C   0  0  0  0  0  0  0  0  0  0  0  0
    5.8047   -8.3623    3.3840 C   0  0  1  0  0  0  0  0  0  0  0  0
    4.4974   -8.7087    2.4617 C   0  0  1  0  0  0  0  0  0  0  0  0
    4.6064   -9.3879    1.1262 C   0  0  1  0  0  0  0  0  0  0  0  0
    3.3884   -9.5201    0.2106 C   0  0  0  0  0  0  0  0  0  0  0  0
    2.4472  -10.4529    0.9424 C   0  0  1  0  0  0  0  0  0  0  0  0
    2.2031   -9.9256    2.3398 C   0  0  0  0  0  0  0  0  0  0  0  0
    0.9557   -9.8711    2.8368 C   0  0  0  0  0  0  0  0  0  0  0  0
    0.6950   -9.1329    4.1135 C   0  0  0  0  0  0  0  0  0  0  0  0
   -0.2838   -9.3796    4.8005 O   0  0  0  0  0  0  0  0  0  0  0  0
    1.7101   -8.1393    4.6205 C   0  0  0  0  0  0  0  0  0  0  0  0
    2.6732   -7.9768    3.7175 C   0  0  0  0  0  0  0  0  0  0  0  0
    3.3026   -9.2718    3.1997 C   0  0  2  0  0  0  0  0  0  0  0  0
    3.6568  -10.1921    4.4021 C   0  0  0  0  0  0  0  0  0  0  0  0
    1.3013  -10.5075    0.2100 F   0  0  0  0  0  0  0  0  0  0  0  0
    4.1273   -7.4402    2.0223 F   0  0  0  0  0  0  0  0  0  0  0  0
    6.6067   -9.2726    4.1409 O   0  0  0  0  0  0  0  0  0  0  0  0
    8.6748   -7.5623    1.1054 C   0  0  0  0  0  0  0  0  0  0  0  0
    6.7562  -10.8618    1.0274 C   0  0  0  0  0  0  0  0  0  0  0  0
    6.5895  -11.8381    0.2745 O   0  0  0  0  0  0  0  0  0  0  0  0
    6.1367  -11.2592    2.5620 C   0  0  0  0  0  0  0  0  0  0  0  0
    6.8226  -11.5421    3.7491 O   0  0  0  0  0  0  0  0  0  0  0  0
    7.2784  -12.7926    3.8392 C   0  0  0  0  0  0  0  0  0  0  0  0
    7.0162  -13.6791    3.0479 O   0  0  0  0  0  0  0  0  0  0  0  0
    8.2564  -12.8577    4.9612 C   0  0  0  0  0  0  0  0  0  0  0  0
    4.7947  -10.4502    1.1001 H   0  0  0  0  0  0  0  0  0  0  0  0
    5.6302   -9.2090   -0.5087 H   0  0  0  0  0  0  0  0  0  0  0  0
    8.1642  -12.3565   -0.9550 H   0  0  0  0  0  0  0  0  0  0  0  0
    8.5442  -13.6069   -2.0871 H   0  0  0  0  0  0  0  0  0  0  0  0
    7.5045  -12.2529   -2.5978 H   0  0  0  0  0  0  0  0  0  0  0  0
   10.4399  -12.0266   -1.7342 H   0  0  0  0  0  0  0  0  0  0  0  0
    9.8882  -12.0241   -3.4227 H   0  0  0  0  0  0  0  0  0  0  0  0
   10.2810   -9.6975   -2.7677 H   0  0  0  0  0  0  0  0  0  0  0  0
    8.5433   -9.9283   -2.9262 H   0  0  0  0  0  0  0  0  0  0  0  0
    6.5683   -6.6109   -1.1280 H   0  0  0  0  0  0  0  0  0  0  0  0
    7.3963   -6.9081   -0.2433 H   0  0  0  0  0  0  0  0  0  0  0  0
    4.5196   -7.2213   -0.6555 H   0  0  0  0  0  0  0  0  0  0  0  0
    5.3779   -6.5088    0.7530 H   0  0  0  0  0  0  0  0  0  0  0  0
    7.7320   -7.5242    3.2855 H   0  0  0  0  0  0  0  0  0  0  0  0
    6.5345   -6.6071    2.4293 H   0  0  0  0  0  0  0  0  0  0  0  0
    5.4178   -7.7267    4.1721 H   0  0  0  0  0  0  0  0  0  0  0  0
    2.9422   -8.5578   -0.0331 H   0  0  0  0  0  0  0  0  0  0  0  0
    3.6586   -9.9796   -0.7656 H   0  0  0  0  0  0  0  0  0  0  0  0
    2.8601  -11.4722    0.9767 H   0  0  0  0  0  0  0  0  0  0  0  0
    0.1201  -10.3463    2.3466 H   0  0  0  0  0  0  0  0  0  0  0  0
    2.0378   -8.5614    5.5718 H   0  0  0  0  0  0  0  0  0  0  0  0
    2.4311   -7.2837    2.8958 H   0  0  0  0  0  0  0  0  0  0  0  0
    4.0919  -11.1618    4.1633 H   0  0  0  0  0  0  0  0  0  0  0  0
    4.3134   -9.6635    5.1020 H   0  0  0  0  0  0  0  0  0  0  0  0
    2.7644  -10.4746    4.9639 H   0  0  0  0  0  0  0  0  0  0  0  0
    7.3250   -9.6913    3.6138 H   0  0  0  0  0  0  0  0  0  0  0  0
    9.5133   -7.9758    1.6699 H   0  0  0  0  0  0  0  0  0  0  0  0
    9.0043   -7.5719    0.0543 H   0  0  0  0  0  0  0  0  0  0  0  0
    8.5997   -6.4920    1.3362 H   0  0  0  0  0  0  0  0  0  0  0  0
    5.5118  -10.4793    2.8984 H   0  0  0  0  0  0  0  0  0  0  0  0
    5.2754  -11.9655    2.4601 H   0  0  0  0  0  0  0  0  0  0  0  0
    9.0657  -12.1440    4.7688 H   0  0  0  0  0  0  0  0  0  0  0  0
    7.7856  -12.6312    5.9220 H   0  0  0  0  0  0  0  0  0  0  0  0
    8.6576  -13.8686    4.9715 H   0  0  0  0  0  0  0  0  0  0  0  0
  1  2  1  0  0  0  0
  1 39  1  0  0  0  0
  1 40  1  0  0  0  0
  1 41  1  0  0  0  0
  2  3  1  0  0  0  0
  2 42  1  0  0  0  0
  2 43  1  0  0  0  0
  3  4  1  0  0  0  0
  3 44  1  0  0  0  0
  3 45  1  0  0  0  0
  4  5  2  0  0  0  0
  4  6  1  0  0  0  0
  7  6  1  6  0  0  0
  7  8  1  0  0  0  0
  7 11  1  0  0  0  0
  7 30  1  0  0  0  0
  8  9  1  0  0  0  0
  8 46  1  0  0  0  0
  8 47  1  0  0  0  0
  9 48  1  0  0  0  0
  9 49  1  0  0  0  0
 10  9  1  0  0  0  0
 10 11  1  0  0  0  0
 10 15  1  0  0  0  0
 10 38  1  1  0  0  0
 11 12  1  0  0  0  0
 11 29  1  1  0  0  0
 12 13  1  0  0  0  0
 12 50  1  0  0  0  0
 12 51  1  0  0  0  0
 13 14  1  0  0  0  0
 13 28  1  0  0  0  0
 13 52  1  1  0  0  0
 14 15  1  0  0  0  0
 14 24  1  0  0  0  0
 14 27  1  6  0  0  0
 15 16  1  0  0  0  0
 15 37  1  1  0  0  0
 16 17  1  0  0  0  0
 16 53  1  0  0  0  0
 16 54  1  0  0  0  0
 17 18  1  0  0  0  0
 17 26  1  0  0  0  0
 17 55  1  1  0  0  0
 18 19  2  0  0  0  0
 18 24  1  0  0  0  0
 19 20  1  0  0  0  0
 19 56  1  0  0  0  0
 20 21  2  0  0  0  0
 20 22  1  0  0  0  0
 22 23  2  0  0  0  0
 22 57  1  0  0  0  0
 23 24  1  0  0  0  0
 23 58  1  0  0  0  0
 24 25  1  1  0  0  0
 25 59  1  0  0  0  0
 25 60  1  0  0  0  0
 25 61  1  0  0  0  0
 28 62  1  0  0  0  0
 29 63  1  0  0  0  0
 29 64  1  0  0  0  0
 29 65  1  0  0  0  0
 30 31  2  0  0  0  0
 30 32  1  0  0  0  0
 32 33  1  0  0  0  0
 32 66  1  0  0  0  0
 32 67  1  0  0  0  0
 33 34  1  0  0  0  0
 34 35  2  0  0  0  0
 34 36  1  0  0  0  0
 36 68  1  0  0  0  0
 36 69  1  0  0  0  0
 36 70  1  0  0  0  0
M  END
>  <DRUGBANK_ID>
DB06781

>  <COMMON_NAME>
Difluprednate

>  <CAS_NUMBER>
23674-86-4

>  <UNII>
S8A06QG2QE

>  <SYNONYMS>
DFBA; Difluoroprednisolone butyrate acetate; Difluprednate

$$$$
