
 OpenBabel10282417123D

 17 16  0  0  0  0  0  0  0  0999 V2000
    0.9365   -0.0206   -0.1067 C   0  0  0  0  0  0  0  0  0  0  0  0
    0.4009   -0.0968   -1.5227 C   0  0  0  0  0  0  0  0  0  0  0  0
    0.4840   -1.2329    0.7023 C   0  0  0  0  0  0  0  0  0  0  0  0
    0.8011    1.0591   -2.4587 C   0  0  0  0  0  0  0  0  0  0  0  0
    0.3070    0.9311   -3.6954 O   0  0  0  0  0  0  0  0  0  0  0  0
    0.9734   -1.1700    2.4659 S   0  0  0  0  0  0  0  0  0  0  0  0
    2.7829   -1.2055    2.3535 C   0  0  0  0  0  0  0  0  0  0  0  0
    1.5028    1.9944   -2.1202 O   0  0  0  0  0  0  0  0  0  0  0  0
   -0.3023   -1.0100   -1.9391 O   0  0  0  0  0  0  0  0  0  0  0  0
    0.5635    0.9017    0.3525 H   0  0  0  0  0  0  0  0  0  0  0  0
    2.0285    0.0156   -0.1608 H   0  0  0  0  0  0  0  0  0  0  0  0
   -0.6122   -1.2806    0.6972 H   0  0  0  0  0  0  0  0  0  0  0  0
    0.8363   -2.1690    0.2546 H   0  0  0  0  0  0  0  0  0  0  0  0
    0.6139    1.7031   -4.2120 H   0  0  0  0  0  0  0  0  0  0  0  0
    3.1390   -2.1158    1.8642 H   0  0  0  0  0  0  0  0  0  0  0  0
    3.1643   -0.3240    1.8336 H   0  0  0  0  0  0  0  0  0  0  0  0
    3.1878   -1.1883    3.3709 H   0  0  0  0  0  0  0  0  0  0  0  0
  1 10  1  0  0  0  0
  1 11  1  0  0  0  0
  2  1  1  0  0  0  0
  3  1  1  0  0  0  0
  3  6  1  0  0  0  0
  3 12  1  0  0  0  0
  3 13  1  0  0  0  0
  4  2  1  0  0  0  0
  4  5  1  0  0  0  0
  5 14  1  0  0  0  0
  7  6  1  0  0  0  0
  7 15  1  0  0  0  0
  7 16  1  0  0  0  0
  7 17  1  0  0  0  0
  8  4  2  0  0  0  0
  9  2  2  0  0  0  0
M  END
>  <DRUGBANK_ID>
DB02238

>  <SECONDARY_ACCESSION_NUMBERS>
EXPT01977

>  <COMMON_NAME>
4-methylthio-2-oxobutanoic acid

>  <CAS_NUMBER>
583-92-6

>  <UNII>
286060413U

>  <SYNONYMS>
2-Keto-4-methylthiobutyric acid; 2-Oxo-4-thiomethylbutyric acid; 4-Methylmercapto-2-oxobutyrate; 4-Methylthio-2-ketobutyric acid; alpha-Keto-gamma-methiolbutyrate; alpha-Ketomethionine; gamma-Methiol-keto-butyric acid; S-Methyl-alpha-ketobutyric acid

$$$$
