
 OpenBabel10282417123D

 36 37  0  0  1  0  0  0  0  0999 V2000
   -4.2154    2.8010    3.4702 C   0  0  0  0  0  0  0  0  0  0  0  0
   -3.2922    1.8091    3.2108 C   0  0  0  0  0  0  0  0  0  0  0  0
   -5.2426    3.0362    2.5543 C   0  0  0  0  0  0  0  0  0  0  0  0
   -3.3542    1.1321    1.9977 C   0  0  0  0  0  0  0  0  0  0  0  0
   -3.5136   -2.6510   -3.4014 C   0  0  0  0  0  0  0  0  0  0  0  0
   -5.4283    2.1764    1.4489 C   0  0  0  0  0  0  0  0  0  0  0  0
   -4.4618    1.2126    1.1463 C   0  0  0  0  0  0  0  0  0  0  0  0
   -3.1565   -2.2285   -1.9740 C   0  0  2  0  0  0  0  0  0  0  0  0
   -3.3380   -3.4179   -1.0296 C   0  0  1  0  0  0  0  0  0  0  0  0
   -2.9388   -2.9757    0.3611 C   0  0  1  0  0  0  0  0  0  0  0  0
   -3.7771   -1.7873    0.8160 C   0  0  2  0  0  0  0  0  0  0  0  0
   -3.6854   -0.6333   -0.2330 C   0  0  2  0  0  0  0  0  0  0  0  0
   -6.6740    2.3139    0.6718 N   0  0  0  0  0  0  0  0  0  0  0  0
   -3.3349   -1.5577   -4.2951 O   0  0  0  0  0  0  0  0  0  0  0  0
   -4.7029   -3.8638   -1.0014 O   0  0  0  0  0  0  0  0  0  0  0  0
   -3.0739   -4.0489    1.2944 O   0  0  0  0  0  0  0  0  0  0  0  0
   -3.3237   -1.4891    2.1411 O   0  0  0  0  0  0  0  0  0  0  0  0
   -7.4310    3.2422    0.9736 O   0  0  0  0  0  0  0  0  0  0  0  0
   -6.9308    1.4838   -0.2189 O   0  0  0  0  0  0  0  0  0  0  0  0
   -4.6300    0.4062    0.0568 O   0  0  0  0  0  0  0  0  0  0  0  0
   -4.0127   -1.1468   -1.5513 O   0  0  0  0  0  0  0  0  0  0  0  0
   -2.1224   -1.8584   -1.9650 H   0  0  0  0  0  0  0  0  0  0  0  0
   -2.7243   -4.2715   -1.3322 H   0  0  0  0  0  0  0  0  0  0  0  0
   -1.8781   -2.6932    0.3713 H   0  0  0  0  0  0  0  0  0  0  0  0
   -4.8322   -2.0573    0.9350 H   0  0  0  0  0  0  0  0  0  0  0  0
   -2.6888   -0.1801   -0.3006 H   0  0  0  0  0  0  0  0  0  0  0  0
   -4.1217    3.3956    4.3742 H   0  0  0  0  0  0  0  0  0  0  0  0
   -2.5024    1.5687    3.9194 H   0  0  0  0  0  0  0  0  0  0  0  0
   -5.9022    3.8824    2.7254 H   0  0  0  0  0  0  0  0  0  0  0  0
   -2.5092    0.4960    1.7817 H   0  0  0  0  0  0  0  0  0  0  0  0
   -2.8579   -3.4658   -3.7279 H   0  0  0  0  0  0  0  0  0  0  0  0
   -4.5522   -2.9860   -3.4808 H   0  0  0  0  0  0  0  0  0  0  0  0
   -3.9450   -0.8610   -3.9865 H   0  0  0  0  0  0  0  0  0  0  0  0
   -5.2867   -3.0820   -0.9472 H   0  0  0  0  0  0  0  0  0  0  0  0
   -4.0312   -4.2224    1.3821 H   0  0  0  0  0  0  0  0  0  0  0  0
   -2.3499   -1.5183    2.1436 H   0  0  0  0  0  0  0  0  0  0  0  0
  1 27  1  0  0  0  0
  2  1  2  0  0  0  0
  2 28  1  0  0  0  0
  3  1  1  0  0  0  0
  3 29  1  0  0  0  0
  4  2  1  0  0  0  0
  4 30  1  0  0  0  0
  5 31  1  0  0  0  0
  5 32  1  0  0  0  0
  6  3  2  0  0  0  0
  7  4  2  0  0  0  0
  7  6  1  0  0  0  0
  8  5  1  0  0  0  0
  8 22  1  1  0  0  0
  9  8  1  0  0  0  0
  9 15  1  0  0  0  0
  9 23  1  6  0  0  0
 10  9  1  0  0  0  0
 10 16  1  0  0  0  0
 10 24  1  6  0  0  0
 11 10  1  0  0  0  0
 11 17  1  0  0  0  0
 11 25  1  1  0  0  0
 12 11  1  0  0  0  0
 12 26  1  6  0  0  0
 12 20  1  0  0  0  0
 13  6  1  0  0  0  0
 14  5  1  0  0  0  0
 14 33  1  0  0  0  0
 15 34  1  0  0  0  0
 16 35  1  0  0  0  0
 17 36  1  0  0  0  0
 18 13  2  0  0  0  0
 19 13  2  0  0  0  0
 20  7  1  0  0  0  0
 21  8  1  0  0  0  0
 21 12  1  0  0  0  0
M  END
>  <DRUGBANK_ID>
DB01920

>  <SECONDARY_ACCESSION_NUMBERS>
EXPT00031

>  <COMMON_NAME>
1-O-[O-Nitrophenyl]-Beta-D-Galactopyranose

>  <UNII>
8RFX6AT9WP

$$$$
