
 OpenBabel10282417203D

 89 94  0  0  1  0  0  0  0  0999 V2000
   -4.4906   -0.6750   -1.5344 C   0  0  0  0  0  0  0  0  0  0  0  0
   -3.0741   -1.1150   -1.8392 C   0  0  1  0  0  0  0  0  0  0  0  0
   -2.6574   -2.3035   -0.9519 C   0  0  1  0  0  0  0  0  0  0  0  0
   -1.5057   -3.2227   -1.4599 C   0  0  2  0  0  0  0  0  0  0  0  0
   -1.3613   -3.1700   -3.0380 C   0  0  0  0  0  0  0  0  0  0  0  0
   -1.6445   -1.7220   -3.6788 C   0  0  1  0  0  0  0  0  0  0  0  0
   -2.9349   -1.2930   -3.2405 O   0  0  0  0  0  0  0  0  0  0  0  0
   -0.6216   -0.6229   -3.6526 O   0  0  0  0  0  0  0  0  0  0  0  0
   -0.2921   -0.1188   -2.3569 C   0  0  1  0  0  0  0  0  0  0  0  0
    0.2781   -1.2398   -1.6057 C   0  0  0  0  0  0  0  0  0  0  0  0
    1.5258   -1.9168   -2.0439 C   0  0  0  0  0  0  0  0  0  0  0  0
    2.5447   -0.9415   -1.6256 C   0  0  1  0  0  0  0  0  0  0  0  0
    2.1133    0.4575   -2.2476 C   0  0  1  0  0  0  0  0  0  0  0  0
    0.6814    0.9375   -1.9873 C   0  0  0  0  0  0  0  0  0  0  0  0
    3.0060    1.5501   -1.7457 C   0  0  0  0  0  0  0  0  0  0  0  0
    3.0818    1.5352   -0.2298 C   0  0  0  0  0  0  0  0  0  0  0  0
    3.5054    0.1517    0.3278 C   0  0  2  0  0  0  0  0  0  0  0  0
    2.5684   -0.9462   -0.0623 C   0  0  2  0  0  0  0  0  0  0  0  0
    2.8900   -2.3132    0.5945 C   0  0  0  0  0  0  0  0  0  0  0  0
    3.0651   -2.1970    2.1106 C   0  0  0  0  0  0  0  0  0  0  0  0
    4.1579   -1.1421    2.4602 C   0  0  1  0  0  0  0  0  0  0  0  0
    3.7603    0.2126    1.8073 C   0  0  2  0  0  0  0  0  0  0  0  0
    2.6415    0.7292    2.7239 C   0  0  0  0  0  0  0  0  0  0  0  0
    3.1332    0.3818    4.1454 C   0  0  1  0  0  0  0  0  0  0  0  0
    4.1237   -0.8519    4.0203 C   0  0  2  0  0  0  0  0  0  0  0  0
    5.4230   -0.6958    4.7937 C   0  0  0  0  0  0  0  0  0  0  0  0
    5.5359   -0.3759    6.0859 C   0  0  0  0  0  0  0  0  0  0  0  0
    6.9397   -0.0224    6.3284 C   0  0  0  0  0  0  0  0  0  0  0  0
    7.3818    0.4033    7.3715 O   0  0  0  0  0  0  0  0  0  0  0  0
    7.6585   -0.2108    5.1989 O   0  0  0  0  0  0  0  0  0  0  0  0
    6.7779   -0.6426    4.1820 C   0  0  0  0  0  0  0  0  0  0  0  0
    3.6335    1.5768    4.8352 O   0  0  0  0  0  0  0  0  0  0  0  0
    4.8050    2.1443    4.4783 C   0  0  0  0  0  0  0  0  0  0  0  0
    5.6116    1.7273    3.6380 O   0  0  0  0  0  0  0  0  0  0  0  0
    5.2891    3.2723    5.2745 C   0  0  0  0  0  0  0  0  0  0  0  0
    4.7615    1.1964    1.7444 O   0  0  0  0  0  0  0  0  0  0  0  0
    5.4686   -1.7316    1.9183 C   0  0  0  0  0  0  0  0  0  0  0  0
    3.8329   -1.4412   -2.2799 C   0  0  0  0  0  0  0  0  0  0  0  0
   -1.2087   -4.5149   -0.9614 O   0  0  0  0  0  0  0  0  0  0  0  0
   -2.3646   -5.1176   -0.4905 C   0  0  0  0  0  0  0  0  0  0  0  0
   -2.3791   -1.8187    0.3840 O   0  0  0  0  0  0  0  0  0  0  0  0
   -4.7481    0.1844   -2.1628 H   0  0  0  0  0  0  0  0  0  0  0  0
   -5.1942   -1.4813   -1.7294 H   0  0  0  0  0  0  0  0  0  0  0  0
   -4.5511   -0.3618   -0.4857 H   0  0  0  0  0  0  0  0  0  0  0  0
   -2.6061   -0.2056   -1.5034 H   0  0  0  0  0  0  0  0  0  0  0  0
   -3.5409   -2.9216   -0.8730 H   0  0  0  0  0  0  0  0  0  0  0  0
   -0.6739   -2.8836   -0.8542 H   0  0  0  0  0  0  0  0  0  0  0  0
   -0.3688   -3.5349   -3.3536 H   0  0  0  0  0  0  0  0  0  0  0  0
   -2.0769   -3.8989   -3.4283 H   0  0  0  0  0  0  0  0  0  0  0  0
   -1.7311   -1.9163   -4.7560 H   0  0  0  0  0  0  0  0  0  0  0  0
   -1.1723    0.3410   -1.9702 H   0  0  0  0  0  0  0  0  0  0  0  0
   -0.2481   -1.9427   -2.0948 H   0  0  0  0  0  0  0  0  0  0  0  0
    0.0711   -1.2075   -0.5379 H   0  0  0  0  0  0  0  0  0  0  0  0
    1.5266   -2.0909   -3.1287 H   0  0  0  0  0  0  0  0  0  0  0  0
    1.6181   -2.9207   -1.6030 H   0  0  0  0  0  0  0  0  0  0  0  0
    2.1696    0.3664   -3.3375 H   0  0  0  0  0  0  0  0  0  0  0  0
    0.4210    1.8809   -2.4676 H   0  0  0  0  0  0  0  0  0  0  0  0
    0.5239    1.1015   -0.9001 H   0  0  0  0  0  0  0  0  0  0  0  0
    3.9946    1.4077   -2.1802 H   0  0  0  0  0  0  0  0  0  0  0  0
    2.6263    2.5192   -2.0842 H   0  0  0  0  0  0  0  0  0  0  0  0
    3.8029    2.3113    0.0369 H   0  0  0  0  0  0  0  0  0  0  0  0
    2.1325    1.8407    0.2283 H   0  0  0  0  0  0  0  0  0  0  0  0
    4.4736   -0.0730   -0.1352 H   0  0  0  0  0  0  0  0  0  0  0  0
    1.6048   -0.6602    0.3733 H   0  0  0  0  0  0  0  0  0  0  0  0
    2.0985   -3.0475    0.4132 H   0  0  0  0  0  0  0  0  0  0  0  0
    3.7891   -2.7466    0.1531 H   0  0  0  0  0  0  0  0  0  0  0  0
    2.0961   -1.9565    2.5653 H   0  0  0  0  0  0  0  0  0  0  0  0
    3.3432   -3.1791    2.5186 H   0  0  0  0  0  0  0  0  0  0  0  0
    2.4608    1.8040    2.6316 H   0  0  0  0  0  0  0  0  0  0  0  0
    1.6930    0.2137    2.5211 H   0  0  0  0  0  0  0  0  0  0  0  0
    2.2542    0.0593    4.7297 H   0  0  0  0  0  0  0  0  0  0  0  0
    3.6209   -1.7166    4.4904 H   0  0  0  0  0  0  0  0  0  0  0  0
    4.7623   -0.2170    6.8155 H   0  0  0  0  0  0  0  0  0  0  0  0
    6.8776    0.0711    3.3646 H   0  0  0  0  0  0  0  0  0  0  0  0
    7.1064   -1.6251    3.8469 H   0  0  0  0  0  0  0  0  0  0  0  0
    4.5750    4.0872    5.2853 H   0  0  0  0  0  0  0  0  0  0  0  0
    5.6011    2.9091    6.2525 H   0  0  0  0  0  0  0  0  0  0  0  0
    6.1949    3.6229    4.7532 H   0  0  0  0  0  0  0  0  0  0  0  0
    5.6430    0.8150    1.6389 H   0  0  0  0  0  0  0  0  0  0  0  0
    6.2945   -1.0346    1.9466 H   0  0  0  0  0  0  0  0  0  0  0  0
    5.7282   -2.6478    2.4606 H   0  0  0  0  0  0  0  0  0  0  0  0
    5.4445   -1.9710    0.8570 H   0  0  0  0  0  0  0  0  0  0  0  0
    4.6720   -0.7772   -2.0912 H   0  0  0  0  0  0  0  0  0  0  0  0
    4.0911   -2.4497   -1.9425 H   0  0  0  0  0  0  0  0  0  0  0  0
    3.6916   -1.5009   -3.3653 H   0  0  0  0  0  0  0  0  0  0  0  0
   -2.8811   -4.4578    0.2082 H   0  0  0  0  0  0  0  0  0  0  0  0
   -2.9420   -5.3172   -1.3883 H   0  0  0  0  0  0  0  0  0  0  0  0
   -2.0753   -6.0109    0.0477 H   0  0  0  0  0  0  0  0  0  0  0  0
   -1.7230   -1.0968    0.3542 H   0  0  0  0  0  0  0  0  0  0  0  0
  1 42  1  0  0  0  0
  1 43  1  0  0  0  0
  1 44  1  0  0  0  0
  2  1  1  0  0  0  0
  2  3  1  0  0  0  0
  2  7  1  0  0  0  0
  2 45  1  1  0  0  0
  3  4  1  0  0  0  0
  3 41  1  0  0  0  0
  3 46  1  1  0  0  0
  4  5  1  0  0  0  0
  4 47  1  1  0  0  0
  4 39  1  0  0  0  0
  5  6  1  0  0  0  0
  5 48  1  0  0  0  0
  5 49  1  0  0  0  0
  6  7  1  0  0  0  0
  6  8  1  0  0  0  0
  6 50  1  6  0  0  0
  9 10  1  0  0  0  0
  9 14  1  0  0  0  0
  9 51  1  1  0  0  0
  9  8  1  0  0  0  0
 10 11  1  0  0  0  0
 10 52  1  0  0  0  0
 10 53  1  0  0  0  0
 11 12  1  0  0  0  0
 11 54  1  0  0  0  0
 11 55  1  0  0  0  0
 12 13  1  0  0  0  0
 12 18  1  0  0  0  0
 12 38  1  6  0  0  0
 13 14  1  0  0  0  0
 13 15  1  0  0  0  0
 13 56  1  6  0  0  0
 14 57  1  0  0  0  0
 14 58  1  0  0  0  0
 15 16  1  0  0  0  0
 15 59  1  0  0  0  0
 15 60  1  0  0  0  0
 16 61  1  0  0  0  0
 16 62  1  0  0  0  0
 17 16  1  0  0  0  0
 17 18  1  0  0  0  0
 17 22  1  0  0  0  0
 17 63  1  6  0  0  0
 18 19  1  0  0  0  0
 18 64  1  1  0  0  0
 19 20  1  0  0  0  0
 19 65  1  0  0  0  0
 19 66  1  0  0  0  0
 20 21  1  0  0  0  0
 20 67  1  0  0  0  0
 20 68  1  0  0  0  0
 21 22  1  0  0  0  0
 21 25  1  0  0  0  0
 21 37  1  6  0  0  0
 22 23  1  0  0  0  0
 22 36  1  1  0  0  0
 23 24  1  0  0  0  0
 23 69  1  0  0  0  0
 23 70  1  0  0  0  0
 24 25  1  0  0  0  0
 24 32  1  0  0  0  0
 24 71  1  1  0  0  0
 25 72  1  1  0  0  0
 25 26  1  0  0  0  0
 26 27  2  0  0  0  0
 26 31  1  0  0  0  0
 27 28  1  0  0  0  0
 27 73  1  0  0  0  0
 28 29  2  0  0  0  0
 28 30  1  0  0  0  0
 30 31  1  0  0  0  0
 31 74  1  0  0  0  0
 31 75  1  0  0  0  0
 32 33  1  0  0  0  0
 33 34  2  0  0  0  0
 33 35  1  0  0  0  0
 35 76  1  0  0  0  0
 35 77  1  0  0  0  0
 35 78  1  0  0  0  0
 36 79  1  0  0  0  0
 37 80  1  0  0  0  0
 37 81  1  0  0  0  0
 37 82  1  0  0  0  0
 38 83  1  0  0  0  0
 38 84  1  0  0  0  0
 38 85  1  0  0  0  0
 39 40  1  0  0  0  0
 40 86  1  0  0  0  0
 40 87  1  0  0  0  0
 40 88  1  0  0  0  0
 41 89  1  0  0  0  0
M  END
>  <DRUGBANK_ID>
DB12843

>  <COMMON_NAME>
Oleandrin

>  <CAS_NUMBER>
465-16-7

>  <UNII>
II95UDU7I4

>  <SYNONYMS>
Anvirzel; Oleandrina

$$$$
