
 OpenBabel10282417183D

 24 24  0  0  0  0  0  0  0  0999 V2000
    0.7535   -0.0742    0.1398 C   0  0  0  0  0  0  0  0  0  0  0  0
    0.4936   -1.2150   -0.7257 O   0  0  0  0  0  0  0  0  0  0  0  0
    1.0703   -1.1253   -2.3543 P   0  0  0  0  0  0  0  0  0  0  0  0
   -0.2648    0.3893   -2.6381 S   0  0  0  0  0  0  0  0  0  0  0  0
    2.5996   -1.1809   -1.7341 O   0  0  0  0  0  0  0  0  0  0  0  0
    2.8858   -1.9959   -0.5767 C   0  0  0  0  0  0  0  0  0  0  0  0
    1.6470   -1.0356   -3.9829 O   0  0  0  0  0  0  0  0  0  0  0  0
    1.9101    0.1800   -4.6320 C   0  0  0  0  0  0  0  0  0  0  0  0
    1.3450    0.3149   -5.9103 C   0  0  0  0  0  0  0  0  0  0  0  0
    1.3185    1.5588   -6.5606 C   0  0  0  0  0  0  0  0  0  0  0  0
    1.8253    2.6968   -5.9142 C   0  0  0  0  0  0  0  0  0  0  0  0
    2.4028    2.5664   -4.6604 C   0  0  0  0  0  0  0  0  0  0  0  0
    2.5098    1.3177   -4.0419 C   0  0  0  0  0  0  0  0  0  0  0  0
    3.3866    1.3261   -2.5616 Cl  0  0  0  0  0  0  0  0  0  0  0  0
    1.7976    4.2724   -6.6214 Cl  0  0  0  0  0  0  0  0  0  0  0  0
    0.6369    1.6485   -8.1452 Cl  0  0  0  0  0  0  0  0  0  0  0  0
    0.5800   -0.3689    1.1757 H   0  0  0  0  0  0  0  0  0  0  0  0
    0.1015    0.7774   -0.0679 H   0  0  0  0  0  0  0  0  0  0  0  0
    1.7795    0.2931    0.0359 H   0  0  0  0  0  0  0  0  0  0  0  0
    2.8641   -1.3750    0.3264 H   0  0  0  0  0  0  0  0  0  0  0  0
    2.1708   -2.8185   -0.4417 H   0  0  0  0  0  0  0  0  0  0  0  0
    3.8949   -2.4075   -0.6156 H   0  0  0  0  0  0  0  0  0  0  0  0
    0.8608   -0.5405   -6.3859 H   0  0  0  0  0  0  0  0  0  0  0  0
    2.7683    3.4550   -4.1387 H   0  0  0  0  0  0  0  0  0  0  0  0
  1  2  1  0  0  0  0
  1 17  1  0  0  0  0
  1 18  1  0  0  0  0
  1 19  1  0  0  0  0
  2  3  1  0  0  0  0
  3  4  2  0  0  0  0
  3  5  1  0  0  0  0
  3  7  1  0  0  0  0
  5  6  1  0  0  0  0
  6 20  1  0  0  0  0
  6 21  1  0  0  0  0
  6 22  1  0  0  0  0
  7  8  1  0  0  0  0
  8  9  2  0  0  0  0
  8 13  1  0  0  0  0
  9 10  1  0  0  0  0
  9 23  1  0  0  0  0
 10 11  2  0  0  0  0
 10 16  1  0  0  0  0
 11 12  1  0  0  0  0
 11 15  1  0  0  0  0
 12 13  2  0  0  0  0
 12 24  1  0  0  0  0
 13 14  1  0  0  0  0
M  END
>  <DRUGBANK_ID>
DB11456

>  <COMMON_NAME>
Ronnel

>  <CAS_NUMBER>
299-84-3

>  <UNII>
89RAG7SB3B

>  <SYNONYMS>
Fenchlorphos; Fenclofos; Fenclofosum; Ronnel

$$$$
