
 OpenBabel10282417183D

 30 31  0  0  0  0  0  0  0  0999 V2000
    1.0253   -0.1469    0.1163 N   0  0  0  0  0  0  0  0  0  0  0  0
   -0.7980   -1.5488   -0.8011 N   0  0  0  0  0  0  0  0  0  0  0  0
   -1.1636   -3.8272   -0.0285 N   0  0  0  0  0  0  0  0  0  0  0  0
   -1.3408   -0.7087   -1.7308 N   0  0  0  0  0  0  0  0  0  0  0  0
   -2.4874   -2.6831   -1.6949 N   0  0  0  0  0  0  0  0  0  0  0  0
    0.2780   -1.3451    0.1058 C   0  0  0  0  0  0  0  0  0  0  0  0
    0.3503    1.1681    0.0670 C   0  0  0  0  0  0  0  0  0  0  0  0
    2.5083   -0.1005    0.0449 C   0  0  0  0  0  0  0  0  0  0  0  0
    0.5381   -2.3420    0.9673 C   0  0  0  0  0  0  0  0  0  0  0  0
   -1.5042   -2.7688   -0.8225 C   0  0  0  0  0  0  0  0  0  0  0  0
   -0.1939   -3.6216    0.8127 C   0  0  0  0  0  0  0  0  0  0  0  0
    0.6799    1.9832    1.3118 C   0  0  0  0  0  0  0  0  0  0  0  0
    3.2023   -1.4548   -0.0617 C   0  0  0  0  0  0  0  0  0  0  0  0
    0.2532   -4.7470    1.7107 C   0  0  0  0  0  0  0  0  0  0  0  0
   -2.3546   -1.4309   -2.2021 C   0  0  0  0  0  0  0  0  0  0  0  0
    0.6341    1.7161   -0.8389 H   0  0  0  0  0  0  0  0  0  0  0  0
   -0.7391    1.0512    0.0479 H   0  0  0  0  0  0  0  0  0  0  0  0
    2.8040    0.4995   -0.8248 H   0  0  0  0  0  0  0  0  0  0  0  0
    2.8961    0.4035    0.9363 H   0  0  0  0  0  0  0  0  0  0  0  0
    1.2785   -2.2676    1.7489 H   0  0  0  0  0  0  0  0  0  0  0  0
    1.7420    2.2414    1.3558 H   0  0  0  0  0  0  0  0  0  0  0  0
    0.1129    2.9187    1.3209 H   0  0  0  0  0  0  0  0  0  0  0  0
    0.4314    1.4208    2.2185 H   0  0  0  0  0  0  0  0  0  0  0  0
    2.8216   -2.0348   -0.9083 H   0  0  0  0  0  0  0  0  0  0  0  0
    4.2823   -1.3366   -0.1792 H   0  0  0  0  0  0  0  0  0  0  0  0
    3.0795   -2.0428    0.8506 H   0  0  0  0  0  0  0  0  0  0  0  0
   -0.5558   -4.9929    2.4017 H   0  0  0  0  0  0  0  0  0  0  0  0
    0.5088   -5.6241    1.1105 H   0  0  0  0  0  0  0  0  0  0  0  0
    1.1358   -4.4620    2.2932 H   0  0  0  0  0  0  0  0  0  0  0  0
   -3.0268   -1.0273   -2.9489 H   0  0  0  0  0  0  0  0  0  0  0  0
  1  6  1  0  0  0  0
  1  7  1  0  0  0  0
  1  8  1  0  0  0  0
  2  4  1  0  0  0  0
  2  6  1  0  0  0  0
  2 10  1  0  0  0  0
  3 10  1  0  0  0  0
  3 11  2  0  0  0  0
  4 15  2  0  0  0  0
  5 10  2  0  0  0  0
  5 15  1  0  0  0  0
  6  9  2  0  0  0  0
  7 12  1  0  0  0  0
  7 16  1  0  0  0  0
  7 17  1  0  0  0  0
  8 13  1  0  0  0  0
  8 18  1  0  0  0  0
  8 19  1  0  0  0  0
  9 11  1  0  0  0  0
  9 20  1  0  0  0  0
 11 14  1  0  0  0  0
 12 21  1  0  0  0  0
 12 22  1  0  0  0  0
 12 23  1  0  0  0  0
 13 24  1  0  0  0  0
 13 25  1  0  0  0  0
 13 26  1  0  0  0  0
 14 27  1  0  0  0  0
 14 28  1  0  0  0  0
 14 29  1  0  0  0  0
 15 30  1  0  0  0  0
M  END
>  <DRUGBANK_ID>
DB09283

>  <COMMON_NAME>
Trapidil

>  <CAS_NUMBER>
15421-84-8

>  <UNII>
EYG5Y6355E

>  <SYNONYMS>
Trapidil

$$$$
