
 OpenBabel10282417223D

106112  0  0  0  0  0  0  0  0999 V2000
   -1.0601    0.4908    0.0619 N   0  0  0  0  0  0  0  0  0  0  0  0
   -0.7877   -0.8799   -0.3005 C   0  0  0  0  0  0  0  0  0  0  0  0
    0.6070   -1.1191    0.2158 C   0  0  0  0  0  0  0  0  0  0  0  0
    1.2979    0.1845   -0.1303 C   0  0  0  0  0  0  0  0  0  0  0  0
    0.1880    1.2648   -0.0358 C   0  0  1  0  0  0  0  0  0  0  0  0
   -2.2572    1.0116    0.5071 C   0  0  0  0  0  0  0  0  0  0  0  0
   -2.3439    2.2045    0.8282 O   0  0  0  0  0  0  0  0  0  0  0  0
   -3.5026    0.0677    0.6531 C   0  0  1  0  0  0  0  0  0  0  0  0
   -3.8399   -0.5449   -0.6568 N   0  0  0  0  0  0  0  0  0  0  0  0
   -3.3859   -0.9458    1.8075 C   0  0  0  0  0  0  0  0  0  0  0  0
   -3.0001   -0.3406    3.1407 C   0  0  0  0  0  0  0  0  0  0  0  0
   -4.6737   -1.7736    1.9813 C   0  0  0  0  0  0  0  0  0  0  0  0
   -3.8334   -1.8677   -1.0439 C   0  0  0  0  0  0  0  0  0  0  0  0
   -4.2674   -2.2347   -2.1278 O   0  0  0  0  0  0  0  0  0  0  0  0
   -3.3277   -2.7057   -0.1125 O   0  0  0  0  0  0  0  0  0  0  0  0
   -3.5652   -4.1157   -0.1473 C   0  0  0  0  0  0  0  0  0  0  0  0
    0.1873    2.1136   -1.2789 C   0  0  0  0  0  0  0  0  0  0  0  0
   -0.7013    3.1442   -1.4814 N   0  0  0  0  0  0  0  0  0  0  0  0
    1.0053    2.0031   -2.3121 N   0  0  0  0  0  0  0  0  0  0  0  0
    0.6385    2.9759   -3.1956 C   0  0  0  0  0  0  0  0  0  0  0  0
   -0.4130    3.7108   -2.6944 C   0  0  0  0  0  0  0  0  0  0  0  0
    1.3225    3.2272   -4.4430 C   0  0  0  0  0  0  0  0  0  0  0  0
    1.9157    4.4559   -4.6382 C   0  0  0  0  0  0  0  0  0  0  0  0
    1.4274    2.2703   -5.4596 C   0  0  0  0  0  0  0  0  0  0  0  0
    2.0979    2.5503   -6.6774 C   0  0  0  0  0  0  0  0  0  0  0  0
    2.6591    3.8099   -6.9365 C   0  0  0  0  0  0  0  0  0  0  0  0
    2.5480    4.7141   -5.8484 C   0  0  0  0  0  0  0  0  0  0  0  0
    3.2861    4.2286   -8.2012 C   0  0  0  0  0  0  0  0  0  0  0  0
    3.7356    5.5457   -8.4018 C   0  0  0  0  0  0  0  0  0  0  0  0
    3.6636    6.2602   -7.1647 C   0  0  0  0  0  0  0  0  0  0  0  0
    3.0897    5.9372   -5.9588 C   0  0  0  0  0  0  0  0  0  0  0  0
    4.4398    6.2117   -9.7717 C   0  0  0  0  0  0  0  0  0  0  0  0
    4.0728    7.4241  -10.6933 C   0  0  0  0  0  0  0  0  0  0  0  0
    5.5872    6.7488   -9.4780 C   0  0  0  0  0  0  0  0  0  0  0  0
    5.0847    7.8715   -8.8462 C   0  0  0  0  0  0  0  0  0  0  0  0
    5.0675    9.1323   -9.3381 C   0  0  0  0  0  0  0  0  0  0  0  0
    4.6087    9.1218  -10.6726 C   0  0  0  0  0  0  0  0  0  0  0  0
    5.2940   10.2888   -8.5260 N   0  0  0  0  0  0  0  0  0  0  0  0
    5.6354   11.3555   -9.2602 C   0  0  0  0  0  0  0  0  0  0  0  0
    5.1066   10.7579  -10.4569 N   0  0  0  0  0  0  0  0  0  0  0  0
    6.9946   12.3418   -8.4175 C   0  0  2  0  0  0  0  0  0  0  0  0
    6.4501   13.7033   -7.9209 C   0  0  0  0  0  0  0  0  0  0  0  0
    8.3462   12.8301   -8.9899 N   0  0  0  0  0  0  0  0  0  0  0  0
    8.7631   14.1839   -8.4513 C   0  0  0  0  0  0  0  0  0  0  0  0
    7.5998   14.6916   -7.6222 C   0  0  0  0  0  0  0  0  0  0  0  0
    9.3217   12.1404   -9.7072 C   0  0  0  0  0  0  0  0  0  0  0  0
   10.2993   12.7305  -10.1867 O   0  0  0  0  0  0  0  0  0  0  0  0
    9.1096   10.6372  -10.0273 C   0  0  1  0  0  0  0  0  0  0  0  0
    9.1703    9.7786   -8.7383 N   0  0  0  0  0  0  0  0  0  0  0  0
    7.8837   10.5447  -10.8861 C   0  0  0  0  0  0  0  0  0  0  0  0
    7.5295   11.5652  -11.9710 C   0  0  0  0  0  0  0  0  0  0  0  0
    7.4893    9.1689  -11.3179 C   0  0  0  0  0  0  0  0  0  0  0  0
    8.4151    9.0819   -7.8189 C   0  0  0  0  0  0  0  0  0  0  0  0
    8.9373    8.6039   -6.7887 O   0  0  0  0  0  0  0  0  0  0  0  0
    7.1035    8.9816   -7.9301 O   0  0  0  0  0  0  0  0  0  0  0  0
    6.2245    8.4036   -6.8396 C   0  0  0  0  0  0  0  0  0  0  0  0
   -0.8617   -0.9588   -1.3888 H   0  0  0  0  0  0  0  0  0  0  0  0
   -1.4408   -1.6047    0.1396 H   0  0  0  0  0  0  0  0  0  0  0  0
    0.5921   -1.2682    1.3030 H   0  0  0  0  0  0  0  0  0  0  0  0
    1.0628   -1.9968   -0.2478 H   0  0  0  0  0  0  0  0  0  0  0  0
    2.1434    0.3915    0.5309 H   0  0  0  0  0  0  0  0  0  0  0  0
    1.7010    0.0798   -1.1437 H   0  0  0  0  0  0  0  0  0  0  0  0
    0.3169    1.8872    0.8587 H   0  0  0  0  0  0  0  0  0  0  0  0
   -4.3495    0.7347    0.8905 H   0  0  0  0  0  0  0  0  0  0  0  0
   -4.1408    0.0932   -1.3828 H   0  0  0  0  0  0  0  0  0  0  0  0
   -2.5555   -1.6214    1.6172 H   0  0  0  0  0  0  0  0  0  0  0  0
   -3.8130    0.2682    3.5358 H   0  0  0  0  0  0  0  0  0  0  0  0
   -2.7873   -1.1581    3.8396 H   0  0  0  0  0  0  0  0  0  0  0  0
   -2.0908    0.2606    3.0601 H   0  0  0  0  0  0  0  0  0  0  0  0
   -5.1094   -2.1605    1.0563 H   0  0  0  0  0  0  0  0  0  0  0  0
   -4.4522   -2.6497    2.5988 H   0  0  0  0  0  0  0  0  0  0  0  0
   -5.4754   -1.1801    2.4160 H   0  0  0  0  0  0  0  0  0  0  0  0
   -4.6068   -4.3495   -0.3824 H   0  0  0  0  0  0  0  0  0  0  0  0
   -2.8623   -4.5687   -0.8416 H   0  0  0  0  0  0  0  0  0  0  0  0
   -3.3623   -4.5119    0.8592 H   0  0  0  0  0  0  0  0  0  0  0  0
   -1.4436    3.4032   -0.8399 H   0  0  0  0  0  0  0  0  0  0  0  0
   -0.9649    4.5519   -3.0885 H   0  0  0  0  0  0  0  0  0  0  0  0
    1.8847    5.2103   -3.8512 H   0  0  0  0  0  0  0  0  0  0  0  0
    0.9689    1.2958   -5.3192 H   0  0  0  0  0  0  0  0  0  0  0  0
    2.1587    1.7742   -7.4335 H   0  0  0  0  0  0  0  0  0  0  0  0
    3.3737    3.4793   -8.9843 H   0  0  0  0  0  0  0  0  0  0  0  0
    4.0550    7.2319   -6.9882 H   0  0  0  0  0  0  0  0  0  0  0  0
    3.0822    6.6970   -5.1804 H   0  0  0  0  0  0  0  0  0  0  0  0
    4.2388    6.8350  -11.6719 H   0  0  0  0  0  0  0  0  0  0  0  0
    6.3301    6.8935  -10.2844 H   0  0  0  0  0  0  0  0  0  0  0  0
    4.0162    7.8423   -8.5311 H   0  0  0  0  0  0  0  0  0  0  0  0
    5.8969   10.2176   -7.7255 H   0  0  0  0  0  0  0  0  0  0  0  0
    7.3336   11.8227   -7.4782 H   0  0  0  0  0  0  0  0  0  0  0  0
    5.8903   14.0970   -8.7618 H   0  0  0  0  0  0  0  0  0  0  0  0
    5.8137   13.6101   -7.0388 H   0  0  0  0  0  0  0  0  0  0  0  0
    9.0015   14.8695   -9.2778 H   0  0  0  0  0  0  0  0  0  0  0  0
    9.6826   14.1675   -7.8275 H   0  0  0  0  0  0  0  0  0  0  0  0
    7.3221   15.7220   -7.8987 H   0  0  0  0  0  0  0  0  0  0  0  0
    7.8635   14.7560   -6.5530 H   0  0  0  0  0  0  0  0  0  0  0  0
    9.9412   10.3001  -10.6572 H   0  0  0  0  0  0  0  0  0  0  0  0
   10.1001    9.8376   -8.3528 H   0  0  0  0  0  0  0  0  0  0  0  0
    7.2605   10.8217  -10.1072 H   0  0  0  0  0  0  0  0  0  0  0  0
    8.0623   11.3228  -12.8842 H   0  0  0  0  0  0  0  0  0  0  0  0
    6.4533   11.5281  -12.2086 H   0  0  0  0  0  0  0  0  0  0  0  0
    7.7058   12.6026  -11.6736 H   0  0  0  0  0  0  0  0  0  0  0  0
    7.4461    8.5211  -10.4484 H   0  0  0  0  0  0  0  0  0  0  0  0
    6.5164    9.2148  -11.8047 H   0  0  0  0  0  0  0  0  0  0  0  0
    8.1500    8.7296  -12.0484 H   0  0  0  0  0  0  0  0  0  0  0  0
    6.1832    7.3110   -6.9186 H   0  0  0  0  0  0  0  0  0  0  0  0
    6.0967    9.0225   -5.9692 H   0  0  0  0  0  0  0  0  0  0  0  0
    5.1558    8.6841   -7.0374 H   0  0  0  0  0  0  0  0  0  0  0  0
  1  2  1  0  0  0  0
  1  5  1  0  0  0  0
  1  6  1  0  0  0  0
  2  3  1  0  0  0  0
  2 57  1  0  0  0  0
  2 58  1  0  0  0  0
  3  4  1  0  0  0  0
  3 59  1  0  0  0  0
  3 60  1  0  0  0  0
  4  5  1  0  0  0  0
  4 61  1  0  0  0  0
  4 62  1  0  0  0  0
  5 63  1  1  0  0  0
  5 17  1  0  0  0  0
  6  7  2  0  0  0  0
  6  8  1  0  0  0  0
  8  9  1  0  0  0  0
  8 10  1  0  0  0  0
  8 64  1  1  0  0  0
  9 13  1  0  0  0  0
  9 65  1  0  0  0  0
 10 11  1  0  0  0  0
 10 12  1  0  0  0  0
 10 66  1  0  0  0  0
 11 67  1  0  0  0  0
 11 68  1  0  0  0  0
 11 69  1  0  0  0  0
 12 70  1  0  0  0  0
 12 71  1  0  0  0  0
 12 72  1  0  0  0  0
 13 14  2  0  0  0  0
 13 15  1  0  0  0  0
 15 16  1  0  0  0  0
 16 73  1  0  0  0  0
 16 74  1  0  0  0  0
 16 75  1  0  0  0  0
 17 19  2  0  0  0  0
 18 21  1  0  0  0  0
 18 17  1  0  0  0  0
 18 76  1  0  0  0  0
 19 20  1  0  0  0  0
 20 21  2  0  0  0  0
 20 22  1  0  0  0  0
 21 77  1  0  0  0  0
 22 24  1  0  0  0  0
 23 27  1  0  0  0  0
 23 22  2  0  0  0  0
 23 78  1  0  0  0  0
 24 25  2  0  0  0  0
 24 79  1  0  0  0  0
 25 26  1  0  0  0  0
 25 80  1  0  0  0  0
 26 27  2  0  0  0  0
 26 28  1  0  0  0  0
 27 31  1  0  0  0  0
 28 29  2  0  0  0  0
 28 81  1  0  0  0  0
 29 30  1  0  0  0  0
 29 32  1  0  0  0  0
 30 31  2  0  0  0  0
 30 82  1  0  0  0  0
 31 83  1  0  0  0  0
 32 34  1  0  0  0  0
 33 37  1  0  0  0  0
 33 32  2  0  0  0  0
 33 84  1  0  0  0  0
 34 35  2  0  0  0  0
 34 85  1  0  0  0  0
 35 36  1  0  0  0  0
 35 86  1  0  0  0  0
 36 37  2  0  0  0  0
 36 38  1  0  0  0  0
 37 40  1  0  0  0  0
 38 39  1  0  0  0  0
 38 87  1  0  0  0  0
 39 40  2  0  0  0  0
 41 39  1  0  0  0  0
 41 43  1  0  0  0  0
 41 88  1  1  0  0  0
 42 45  1  0  0  0  0
 42 41  1  0  0  0  0
 42 89  1  0  0  0  0
 42 90  1  0  0  0  0
 43 44  1  0  0  0  0
 43 46  1  0  0  0  0
 44 45  1  0  0  0  0
 44 91  1  0  0  0  0
 44 92  1  0  0  0  0
 45 93  1  0  0  0  0
 45 94  1  0  0  0  0
 46 47  2  0  0  0  0
 46 48  1  0  0  0  0
 48 49  1  0  0  0  0
 48 50  1  0  0  0  0
 48 95  1  6  0  0  0
 49 53  1  0  0  0  0
 49 96  1  0  0  0  0
 50 51  1  0  0  0  0
 50 52  1  0  0  0  0
 50 97  1  0  0  0  0
 51 98  1  0  0  0  0
 51 99  1  0  0  0  0
 51100  1  0  0  0  0
 52101  1  0  0  0  0
 52102  1  0  0  0  0
 52103  1  0  0  0  0
 53 54  2  0  0  0  0
 53 55  1  0  0  0  0
 55 56  1  0  0  0  0
 56104  1  0  0  0  0
 56105  1  0  0  0  0
 56106  1  0  0  0  0
M  END
>  <DRUGBANK_ID>
DB15652

>  <COMMON_NAME>
Ravidasvir

>  <CAS_NUMBER>
1242087-93-9

>  <UNII>
AL3G001BI8

>  <SYNONYMS>
Ravidasvir

$$$$
