
 OpenBabel10282417143D

 85 88  0  0  1  0  0  0  0  0999 V2000
    1.1181    0.0168   -0.0462 C   0  0  0  0  0  0  0  0  0  0  0  0
    0.7169   -0.1143    1.3199 N   0  0  0  0  0  0  0  0  0  0  0  0
   -0.2455    0.8715    1.7996 C   0  0  0  0  0  0  0  0  0  0  0  0
    0.9604   -1.3118    1.9193 C   0  0  0  0  0  0  0  0  0  0  0  0
    0.0556   -2.0814    2.4067 N   0  0  0  0  0  0  0  0  0  0  0  0
    0.8529   -3.2454    2.8489 C   0  0  2  0  0  0  0  0  0  0  0  0
    1.1053   -3.0654    4.2482 C   0  0  1  0  0  0  0  0  0  0  0  0
    0.7701   -4.4097    4.8007 O   0  0  0  0  0  0  0  0  0  0  0  0
    2.4221   -1.9484    4.4143 C   0  0  2  0  0  0  0  0  0  0  0  0
    2.4483   -0.0742    4.6475 O   0  0  0  0  0  0  0  0  0  0  0  0
    1.0386    0.7939    5.8337 C   0  0  2  0  0  0  0  0  0  0  0  0
    0.9201   -0.5363    7.2622 O   0  0  0  0  0  0  0  0  0  0  0  0
    1.9283   -1.5925    8.0979 C   0  0  2  0  0  0  0  0  0  0  0  0
    3.1397   -2.3002    7.3276 C   0  0  0  0  0  0  0  0  0  0  0  0
    4.0279   -2.9473    8.1684 O   0  0  0  0  0  0  0  0  0  0  0  0
    0.6732   -2.2256    8.2751 C   0  0  1  0  0  0  0  0  0  0  0  0
   -0.2237   -1.4322    9.1323 O   0  0  0  0  0  0  0  0  0  0  0  0
   -0.7215   -0.2233    8.3085 C   0  0  2  0  0  0  0  0  0  0  0  0
   -1.6877   -0.8593    7.0062 O   0  0  0  0  0  0  0  0  0  0  0  0
   -0.8719   -1.8147    5.4083 C   0  0  2  0  0  0  0  0  0  0  0  0
   -0.3807   -3.6096    6.3340 C   0  0  0  0  0  0  0  0  0  0  0  0
   -0.9689   -3.5722    7.9964 O   0  0  0  0  0  0  0  0  0  0  0  0
    0.9826   -0.8480    5.3415 C   0  0  1  0  0  0  0  0  0  0  0  0
    0.6526    0.6105    4.1181 O   0  0  0  0  0  0  0  0  0  0  0  0
    2.3248    0.2359    6.8634 C   0  0  1  0  0  0  0  0  0  0  0  0
    3.2660    1.2225    6.9559 O   0  0  0  0  0  0  0  0  0  0  0  0
    0.8381    0.9674    8.1478 C   0  0  1  0  0  0  0  0  0  0  0  0
    0.3047    2.2856    7.7938 N   0  0  0  0  0  0  0  0  0  0  0  0
    0.8971    3.2451    6.9632 C   0  0  0  0  0  0  0  0  0  0  0  0
    0.0120    4.2583    6.3409 C   0  0  0  0  0  0  0  0  0  0  0  0
    2.0740    3.2592    6.6009 O   0  0  0  0  0  0  0  0  0  0  0  0
   -0.1959   -1.8008    6.9294 C   0  0  1  0  0  0  0  0  0  0  0  0
   -1.9733   -2.5959    6.7079 O   0  0  0  0  0  0  0  0  0  0  0  0
   -0.5602   -0.0131    5.7829 C   0  0  1  0  0  0  0  0  0  0  0  0
   -1.9185    0.3925    5.5308 N   0  0  0  0  0  0  0  0  0  0  0  0
   -1.9644    1.6121    5.9482 C   0  0  0  0  0  0  0  0  0  0  0  0
   -3.0382    1.8954    6.8616 C   0  0  0  0  0  0  0  0  0  0  0  0
   -1.1098    2.3448    5.5099 O   0  0  0  0  0  0  0  0  0  0  0  0
    3.3620   -2.8225    3.7790 C   0  0  1  0  0  0  0  0  0  0  0  0
    3.7442   -4.0889    4.6880 C   0  0  0  0  0  0  0  0  0  0  0  0
    2.7310   -4.9538    5.0929 O   0  0  0  0  0  0  0  0  0  0  0  0
    2.3335   -3.0513    2.6058 C   0  0  2  0  0  0  0  0  0  0  0  0
    2.2572   -1.8132    1.8677 O   0  0  0  0  0  0  0  0  0  0  0  0
    0.7455    0.9416   -0.4872 H   0  0  0  0  0  0  0  0  0  0  0  0
    0.7310   -0.8190   -0.6391 H   0  0  0  0  0  0  0  0  0  0  0  0
    2.2053    0.0184   -0.0823 H   0  0  0  0  0  0  0  0  0  0  0  0
   -1.1970    0.4706    2.1712 H   0  0  0  0  0  0  0  0  0  0  0  0
    0.2215    1.4787    2.5557 H   0  0  0  0  0  0  0  0  0  0  0  0
   -0.4403    1.6860    1.1030 H   0  0  0  0  0  0  0  0  0  0  0  0
    0.1907   -4.1227    2.9444 H   0  0  0  0  0  0  0  0  0  0  0  0
    0.2542   -2.5049    4.2953 H   0  0  0  0  0  0  0  0  0  0  0  0
    1.1777   -5.2001    5.2807 H   0  0  0  0  0  0  0  0  0  0  0  0
    2.8567   -2.1440    5.3380 H   0  0  0  0  0  0  0  0  0  0  0  0
    1.3760    1.7613    5.8392 H   0  0  0  0  0  0  0  0  0  0  0  0
    2.2035   -1.1696    9.0688 H   0  0  0  0  0  0  0  0  0  0  0  0
    2.7801   -3.0891    6.7140 H   0  0  0  0  0  0  0  0  0  0  0  0
    3.7823   -1.6063    6.7060 H   0  0  0  0  0  0  0  0  0  0  0  0
    4.2220   -2.2208    8.7716 H   0  0  0  0  0  0  0  0  0  0  0  0
    0.9159   -3.3521    8.4207 H   0  0  0  0  0  0  0  0  0  0  0  0
   -1.5673    0.2910    8.7574 H   0  0  0  0  0  0  0  0  0  0  0  0
   -1.6281   -1.7520    4.5419 H   0  0  0  0  0  0  0  0  0  0  0  0
   -0.9710   -4.1178    5.6129 H   0  0  0  0  0  0  0  0  0  0  0  0
    0.8639   -3.6133    6.5841 H   0  0  0  0  0  0  0  0  0  0  0  0
   -1.1410   -2.5383    8.2316 H   0  0  0  0  0  0  0  0  0  0  0  0
    1.8298   -1.2563    5.8478 H   0  0  0  0  0  0  0  0  0  0  0  0
    0.0716    1.4453    4.5443 H   0  0  0  0  0  0  0  0  0  0  0  0
    2.9426   -0.3585    7.4279 H   0  0  0  0  0  0  0  0  0  0  0  0
    2.7832    1.8256    7.5660 H   0  0  0  0  0  0  0  0  0  0  0  0
    1.0812    0.7965    9.2087 H   0  0  0  0  0  0  0  0  0  0  0  0
   -0.7003    2.2935    7.8840 H   0  0  0  0  0  0  0  0  0  0  0  0
    0.5248    5.1688    6.5893 H   0  0  0  0  0  0  0  0  0  0  0  0
   -0.0470    4.1743    5.2363 H   0  0  0  0  0  0  0  0  0  0  0  0
   -0.9851    4.1961    6.7675 H   0  0  0  0  0  0  0  0  0  0  0  0
    0.5918   -2.2522    6.1213 H   0  0  0  0  0  0  0  0  0  0  0  0
   -2.0069   -3.4075    7.2409 H   0  0  0  0  0  0  0  0  0  0  0  0
   -0.6448   -0.3588    4.4568 H   0  0  0  0  0  0  0  0  0  0  0  0
   -2.4578   -0.2978    6.0949 H   0  0  0  0  0  0  0  0  0  0  0  0
   -2.6420    2.5259    7.6502 H   0  0  0  0  0  0  0  0  0  0  0  0
   -3.6525    2.3639    6.1130 H   0  0  0  0  0  0  0  0  0  0  0  0
   -3.4760    0.9763    7.2725 H   0  0  0  0  0  0  0  0  0  0  0  0
    4.2086   -2.1618    3.7459 H   0  0  0  0  0  0  0  0  0  0  0  0
    4.4031   -4.7126    4.1388 H   0  0  0  0  0  0  0  0  0  0  0  0
    4.1665   -3.8760    5.6772 H   0  0  0  0  0  0  0  0  0  0  0  0
    2.1879   -4.2758    5.5364 H   0  0  0  0  0  0  0  0  0  0  0  0
    2.6571   -3.9843    2.1895 H   0  0  0  0  0  0  0  0  0  0  0  0
  1  2  1  0  0  0  0
  1 44  1  0  0  0  0
  1 45  1  0  0  0  0
  1 46  1  0  0  0  0
  2  3  1  0  0  0  0
  2  4  1  0  0  0  0
  3 47  1  0  0  0  0
  3 48  1  0  0  0  0
  3 49  1  0  0  0  0
  4  5  2  0  0  0  0
  4 43  1  0  0  0  0
  6  5  1  0  0  0  0
  6  7  1  0  0  0  0
  6 42  1  0  0  0  0
  6 50  1  6  0  0  0
  7  8  1  0  0  0  0
  7  9  1  0  0  0  0
  7 51  1  1  0  0  0
  8 52  1  0  0  0  0
  9 39  1  0  0  0  0
  9 53  1  1  0  0  0
  9 10  1  0  0  0  0
 11 10  1  0  0  0  0
 11 12  1  0  0  0  0
 11 34  1  0  0  0  0
 11 54  1  1  0  0  0
 12 13  1  0  0  0  0
 13 16  1  0  0  0  0
 13 55  1  1  0  0  0
 13 14  1  0  0  0  0
 14 15  1  0  0  0  0
 14 56  1  0  0  0  0
 14 57  1  0  0  0  0
 15 58  1  0  0  0  0
 16 17  1  0  0  0  0
 16 32  1  0  0  0  0
 16 59  1  1  0  0  0
 18 17  1  0  0  0  0
 18 19  1  0  0  0  0
 18 27  1  0  0  0  0
 18 60  1  1  0  0  0
 19 20  1  0  0  0  0
 20 23  1  0  0  0  0
 20 61  1  6  0  0  0
 20 21  1  0  0  0  0
 21 22  1  0  0  0  0
 21 62  1  0  0  0  0
 21 63  1  0  0  0  0
 22 64  1  0  0  0  0
 23 24  1  0  0  0  0
 23 25  1  0  0  0  0
 23 65  1  6  0  0  0
 24 66  1  0  0  0  0
 25 27  1  0  0  0  0
 25 67  1  1  0  0  0
 25 26  1  0  0  0  0
 26 68  1  0  0  0  0
 27 69  1  1  0  0  0
 27 28  1  0  0  0  0
 28 29  1  0  0  0  0
 28 70  1  0  0  0  0
 29 30  1  0  0  0  0
 29 31  2  0  0  0  0
 30 71  1  0  0  0  0
 30 72  1  0  0  0  0
 30 73  1  0  0  0  0
 32 34  1  0  0  0  0
 32 74  1  6  0  0  0
 32 33  1  0  0  0  0
 33 75  1  0  0  0  0
 34 76  1  6  0  0  0
 34 35  1  0  0  0  0
 35 36  1  0  0  0  0
 35 77  1  0  0  0  0
 36 37  1  0  0  0  0
 36 38  2  0  0  0  0
 37 78  1  0  0  0  0
 37 79  1  0  0  0  0
 37 80  1  0  0  0  0
 39 42  1  0  0  0  0
 39 81  1  6  0  0  0
 39 40  1  0  0  0  0
 40 41  1  0  0  0  0
 40 82  1  0  0  0  0
 40 83  1  0  0  0  0
 41 84  1  0  0  0  0
 42 43  1  0  0  0  0
 42 85  1  6  0  0  0
M  END
>  <DRUGBANK_ID>
DB04628

>  <COMMON_NAME>
Allosamidin

>  <CAS_NUMBER>
103782-08-7

>  <UNII>
5UDJ46528K

$$$$
