
 OpenBabel10282417203D

 26 27  0  0  0  0  0  0  0  0999 V2000
   -2.7836    1.5763   -0.0272 C   0  0  0  0  0  0  0  0  0  0  0  0
   -1.7194    0.5240    0.0113 C   0  0  0  0  0  0  0  0  0  0  0  0
   -1.9718   -0.8455    0.0129 C   0  0  0  0  0  0  0  0  0  0  0  0
   -0.9026   -1.7658    0.0364 C   0  0  0  0  0  0  0  0  0  0  0  0
    0.4524   -1.3451    0.0298 C   0  0  0  0  0  0  0  0  0  0  0  0
    0.6676    0.0474   -0.0110 C   0  0  0  0  0  0  0  0  0  0  0  0
   -0.3984    0.9504    0.0107 C   0  0  0  0  0  0  0  0  0  0  0  0
    2.1781    0.8510   -0.1968 Cl  0  0  0  0  0  0  0  0  0  0  0  0
    1.4575   -2.3542    0.1885 N   0  0  0  0  0  0  0  0  0  0  0  0
    2.8007   -2.1384    0.0517 C   0  0  0  0  0  0  0  0  0  0  0  0
    3.5343   -2.5078   -0.9600 N   0  0  0  0  0  0  0  0  0  0  0  0
    4.9059   -2.0165   -0.5928 C   0  0  0  0  0  0  0  0  0  0  0  0
    4.7072   -1.0544    0.5789 C   0  0  0  0  0  0  0  0  0  0  0  0
    3.4511   -1.5503    1.0989 N   0  0  0  0  0  0  0  0  0  0  0  0
   -2.6855    2.2360    0.8427 H   0  0  0  0  0  0  0  0  0  0  0  0
   -2.6620    2.1815   -0.9335 H   0  0  0  0  0  0  0  0  0  0  0  0
   -3.7886    1.1505   -0.0296 H   0  0  0  0  0  0  0  0  0  0  0  0
   -2.9980   -1.2096    0.0046 H   0  0  0  0  0  0  0  0  0  0  0  0
   -1.1522   -2.8269    0.0525 H   0  0  0  0  0  0  0  0  0  0  0  0
   -0.1868    2.0184    0.0051 H   0  0  0  0  0  0  0  0  0  0  0  0
    1.1816   -3.1803   -0.3342 H   0  0  0  0  0  0  0  0  0  0  0  0
    5.3903   -1.5225   -1.4422 H   0  0  0  0  0  0  0  0  0  0  0  0
    5.5175   -2.8697   -0.2833 H   0  0  0  0  0  0  0  0  0  0  0  0
    5.5144   -1.0741    1.3131 H   0  0  0  0  0  0  0  0  0  0  0  0
    4.6200   -0.0282    0.2056 H   0  0  0  0  0  0  0  0  0  0  0  0
    2.8976   -0.9345    1.6760 H   0  0  0  0  0  0  0  0  0  0  0  0
  1  2  1  0  0  0  0
  1 15  1  0  0  0  0
  1 16  1  0  0  0  0
  1 17  1  0  0  0  0
  2  3  2  0  0  0  0
  2  7  1  0  0  0  0
  3  4  1  0  0  0  0
  3 18  1  0  0  0  0
  4  5  2  0  0  0  0
  4 19  1  0  0  0  0
  5  6  1  0  0  0  0
  5  9  1  0  0  0  0
  6  7  2  0  0  0  0
  6  8  1  0  0  0  0
  7 20  1  0  0  0  0
  9 10  1  0  0  0  0
  9 21  1  0  0  0  0
 10 11  2  0  0  0  0
 10 14  1  0  0  0  0
 11 12  1  0  0  0  0
 12 13  1  0  0  0  0
 12 22  1  0  0  0  0
 12 23  1  0  0  0  0
 13 14  1  0  0  0  0
 13 24  1  0  0  0  0
 13 25  1  0  0  0  0
 14 26  1  0  0  0  0
M  END
>  <DRUGBANK_ID>
DB13429

>  <COMMON_NAME>
Tolonidine

>  <CAS_NUMBER>
4201-22-3

>  <UNII>
I4O795Q03O

>  <SYNONYMS>
Tolonidine

$$$$
