
 OpenBabel10282417143D

 58 59  0  0  0  0  0  0  0  0999 V2000
    1.0418    0.0409    0.0778 O   0  0  0  0  0  0  0  0  0  0  0  0
   -6.6125    5.8658   -4.4734 N   0  0  0  0  0  0  0  0  0  0  0  0
   -2.5884    1.1138   -2.6961 N   0  0  0  0  0  0  0  0  0  0  0  0
   -1.8152   -0.7834   -4.6093 N   0  0  0  0  0  0  0  0  0  0  0  0
   -5.3191    3.2197   -3.1961 C   0  0  0  0  0  0  0  0  0  0  0  0
   -5.8838    4.4331   -2.4622 C   0  0  0  0  0  0  0  0  0  0  0  0
   -3.8928    3.4612   -3.6961 C   0  0  0  0  0  0  0  0  0  0  0  0
   -5.8209    5.7627   -3.2350 C   0  0  0  0  0  0  0  0  0  0  0  0
   -2.8840    3.5006   -2.5834 C   0  0  0  0  0  0  0  0  0  0  0  0
   -2.9543    2.2069   -1.8246 C   0  0  0  0  0  0  0  0  0  0  0  0
   -6.6113    7.2322   -5.0161 C   0  0  0  0  0  0  0  0  0  0  0  0
   -6.3807    4.8893   -5.5463 C   0  0  0  0  0  0  0  0  0  0  0  0
   -1.4236    0.3830   -2.5393 C   0  0  0  0  0  0  0  0  0  0  0  0
   -5.2621    7.7674   -5.4941 C   0  0  0  0  0  0  0  0  0  0  0  0
   -4.9875    4.8399   -6.1732 C   0  0  0  0  0  0  0  0  0  0  0  0
   -1.0768   -0.6187   -3.4757 C   0  0  0  0  0  0  0  0  0  0  0  0
    0.0311   -1.4343   -3.1848 C   0  0  0  0  0  0  0  0  0  0  0  0
   -0.6454    0.5685   -1.3918 C   0  0  0  0  0  0  0  0  0  0  0  0
    0.3542   -2.4768   -4.0871 C   0  0  0  0  0  0  0  0  0  0  0  0
    0.7811   -1.2192   -2.0006 C   0  0  0  0  0  0  0  0  0  0  0  0
    0.4459   -0.2057   -1.1217 C   0  0  0  0  0  0  0  0  0  0  0  0
   -0.4203   -2.6424   -5.2375 C   0  0  0  0  0  0  0  0  0  0  0  0
    1.5062   -3.4047   -3.8311 C   0  0  0  0  0  0  0  0  0  0  0  0
   -1.4692   -1.7768   -5.4568 C   0  0  0  0  0  0  0  0  0  0  0  0
    2.4576    0.0620    0.0251 C   0  0  0  0  0  0  0  0  0  0  0  0
   -3.0407    0.9865   -3.6036 H   0  0  0  0  0  0  0  0  0  0  0  0
   -5.9475    2.8848   -4.0120 H   0  0  0  0  0  0  0  0  0  0  0  0
   -5.3996    2.3484   -2.5446 H   0  0  0  0  0  0  0  0  0  0  0  0
   -6.9091    4.2285   -2.1373 H   0  0  0  0  0  0  0  0  0  0  0  0
   -5.3086    4.5610   -1.5325 H   0  0  0  0  0  0  0  0  0  0  0  0
   -3.7566    4.4294   -4.1433 H   0  0  0  0  0  0  0  0  0  0  0  0
   -3.6341    2.7365   -4.4763 H   0  0  0  0  0  0  0  0  0  0  0  0
   -6.1769    6.5296   -2.5304 H   0  0  0  0  0  0  0  0  0  0  0  0
   -4.7722    6.0264   -3.4009 H   0  0  0  0  0  0  0  0  0  0  0  0
   -3.0966    4.3471   -1.9201 H   0  0  0  0  0  0  0  0  0  0  0  0
   -1.8852    3.6837   -3.0009 H   0  0  0  0  0  0  0  0  0  0  0  0
   -3.9415    1.9975   -1.4159 H   0  0  0  0  0  0  0  0  0  0  0  0
   -2.3539    2.3485   -0.9328 H   0  0  0  0  0  0  0  0  0  0  0  0
   -7.3202    7.2640   -5.8527 H   0  0  0  0  0  0  0  0  0  0  0  0
   -7.0200    7.9152   -4.2639 H   0  0  0  0  0  0  0  0  0  0  0  0
   -6.7140    3.9050   -5.2303 H   0  0  0  0  0  0  0  0  0  0  0  0
   -7.0933    5.0706   -6.3579 H   0  0  0  0  0  0  0  0  0  0  0  0
   -4.9148    7.2622   -6.3951 H   0  0  0  0  0  0  0  0  0  0  0  0
   -5.3410    8.8174   -5.7744 H   0  0  0  0  0  0  0  0  0  0  0  0
   -4.4845    7.6726   -4.7308 H   0  0  0  0  0  0  0  0  0  0  0  0
   -4.2384    5.3652   -5.5789 H   0  0  0  0  0  0  0  0  0  0  0  0
   -4.6430    3.8150   -6.3352 H   0  0  0  0  0  0  0  0  0  0  0  0
   -4.9707    5.3475   -7.1370 H   0  0  0  0  0  0  0  0  0  0  0  0
   -0.8814    1.3201   -0.6517 H   0  0  0  0  0  0  0  0  0  0  0  0
    1.6022   -1.8708   -1.7485 H   0  0  0  0  0  0  0  0  0  0  0  0
   -0.2073   -3.4327   -5.9507 H   0  0  0  0  0  0  0  0  0  0  0  0
    2.4400   -2.8348   -3.7760 H   0  0  0  0  0  0  0  0  0  0  0  0
    1.3528   -3.9474   -2.8918 H   0  0  0  0  0  0  0  0  0  0  0  0
    1.6157   -4.1451   -4.6280 H   0  0  0  0  0  0  0  0  0  0  0  0
   -2.0839   -1.8632   -6.3507 H   0  0  0  0  0  0  0  0  0  0  0  0
    2.8133    0.2980    1.0312 H   0  0  0  0  0  0  0  0  0  0  0  0
    2.8603   -0.9146   -0.2505 H   0  0  0  0  0  0  0  0  0  0  0  0
    2.8118    0.8426   -0.6567 H   0  0  0  0  0  0  0  0  0  0  0  0
  1 21  1  0  0  0  0
  1 25  1  0  0  0  0
  2  8  1  0  0  0  0
  2 11  1  0  0  0  0
  2 12  1  0  0  0  0
  3 10  1  0  0  0  0
  3 13  1  0  0  0  0
  3 26  1  0  0  0  0
  4 16  2  0  0  0  0
  4 24  1  0  0  0  0
  5  6  1  0  0  0  0
  5  7  1  0  0  0  0
  5 27  1  0  0  0  0
  5 28  1  0  0  0  0
  6  8  1  0  0  0  0
  6 29  1  0  0  0  0
  6 30  1  0  0  0  0
  7  9  1  0  0  0  0
  7 31  1  0  0  0  0
  7 32  1  0  0  0  0
  8 33  1  0  0  0  0
  8 34  1  0  0  0  0
  9 10  1  0  0  0  0
  9 35  1  0  0  0  0
  9 36  1  0  0  0  0
 10 37  1  0  0  0  0
 10 38  1  0  0  0  0
 11 14  1  0  0  0  0
 11 39  1  0  0  0  0
 11 40  1  0  0  0  0
 12 15  1  0  0  0  0
 12 41  1  0  0  0  0
 12 42  1  0  0  0  0
 13 16  1  0  0  0  0
 13 18  2  0  0  0  0
 14 43  1  0  0  0  0
 14 44  1  0  0  0  0
 14 45  1  0  0  0  0
 15 46  1  0  0  0  0
 15 47  1  0  0  0  0
 15 48  1  0  0  0  0
 16 17  1  0  0  0  0
 17 19  2  0  0  0  0
 17 20  1  0  0  0  0
 18 21  1  0  0  0  0
 18 49  1  0  0  0  0
 19 22  1  0  0  0  0
 19 23  1  0  0  0  0
 20 21  2  0  0  0  0
 20 50  1  0  0  0  0
 22 24  2  0  0  0  0
 22 51  1  0  0  0  0
 23 52  1  0  0  0  0
 23 53  1  0  0  0  0
 23 54  1  0  0  0  0
 24 55  1  0  0  0  0
 25 56  1  0  0  0  0
 25 57  1  0  0  0  0
 25 58  1  0  0  0  0
M  END
>  <DRUGBANK_ID>
DB04909

>  <COMMON_NAME>
Sitamaquine

>  <CAS_NUMBER>
57695-04-2

>  <UNII>
5AIJ4TGC6B

>  <SYNONYMS>
Sitamaquine

$$$$
