
 OpenBabel10282417123D

 45 47  0  0  0  0  0  0  0  0999 V2000
    0.0328    1.7679    0.4299 S   0  0  0  0  0  0  0  0  0  0  0  0
    4.4971   -3.2356   -0.5340 O   0  0  0  0  0  0  0  0  0  0  0  0
    0.0269   -1.2740    0.6473 N   0  0  0  0  0  0  0  0  0  0  0  0
   -3.0253   -2.6481    2.7050 N   0  0  0  0  0  0  0  0  0  0  0  0
    0.1173   -2.0430    1.9409 C   0  0  0  0  0  0  0  0  0  0  0  0
   -0.7233   -1.5845    3.1500 C   0  0  0  0  0  0  0  0  0  0  0  0
    1.2801   -0.7190    0.3099 C   0  0  0  0  0  0  0  0  0  0  0  0
   -1.1315   -0.7201    0.0603 C   0  0  0  0  0  0  0  0  0  0  0  0
   -2.2319   -1.4110    2.9571 C   0  0  0  0  0  0  0  0  0  0  0  0
    1.3969    0.6615    0.0773 C   0  0  0  0  0  0  0  0  0  0  0  0
   -1.3097    0.6724   -0.0151 C   0  0  0  0  0  0  0  0  0  0  0  0
    2.3576   -1.5784    0.0617 C   0  0  0  0  0  0  0  0  0  0  0  0
   -2.1168   -1.4910   -0.5830 C   0  0  0  0  0  0  0  0  0  0  0  0
    3.5358   -1.0749   -0.4749 C   0  0  0  0  0  0  0  0  0  0  0  0
    2.5746    1.1626   -0.4568 C   0  0  0  0  0  0  0  0  0  0  0  0
   -2.5195    1.2193   -0.4766 C   0  0  0  0  0  0  0  0  0  0  0  0
    3.6339    0.2973   -0.7452 C   0  0  0  0  0  0  0  0  0  0  0  0
   -3.3805   -0.9734   -0.8805 C   0  0  0  0  0  0  0  0  0  0  0  0
   -4.3498   -2.2382    2.2227 C   0  0  0  0  0  0  0  0  0  0  0  0
   -2.4272   -3.5070    1.6945 C   0  0  0  0  0  0  0  0  0  0  0  0
   -3.5858    0.3925   -0.8239 C   0  0  0  0  0  0  0  0  0  0  0  0
    4.6345   -2.0255   -0.7789 C   0  0  0  0  0  0  0  0  0  0  0  0
    5.8983   -1.4904   -1.3776 C   0  0  0  0  0  0  0  0  0  0  0  0
    0.0046   -3.1069    1.7252 H   0  0  0  0  0  0  0  0  0  0  0  0
    1.1512   -2.0356    2.3291 H   0  0  0  0  0  0  0  0  0  0  0  0
   -0.5814   -2.3033    3.9724 H   0  0  0  0  0  0  0  0  0  0  0  0
   -0.3024   -0.6412    3.5263 H   0  0  0  0  0  0  0  0  0  0  0  0
   -2.6407   -0.9328    3.8579 H   0  0  0  0  0  0  0  0  0  0  0  0
   -2.3866   -0.6566    2.1825 H   0  0  0  0  0  0  0  0  0  0  0  0
    2.2440   -2.6501    0.2267 H   0  0  0  0  0  0  0  0  0  0  0  0
   -1.9621   -2.5503   -0.7803 H   0  0  0  0  0  0  0  0  0  0  0  0
    2.6575    2.2211   -0.6829 H   0  0  0  0  0  0  0  0  0  0  0  0
   -2.6403    2.2948   -0.5545 H   0  0  0  0  0  0  0  0  0  0  0  0
    4.5237    0.7226   -1.1942 H   0  0  0  0  0  0  0  0  0  0  0  0
   -4.2060   -1.6515   -1.0925 H   0  0  0  0  0  0  0  0  0  0  0  0
   -4.2953   -1.5053    1.4157 H   0  0  0  0  0  0  0  0  0  0  0  0
   -4.9091   -3.0980    1.8389 H   0  0  0  0  0  0  0  0  0  0  0  0
   -4.9296   -1.7891    3.0297 H   0  0  0  0  0  0  0  0  0  0  0  0
   -1.9383   -2.8531    1.0259 H   0  0  0  0  0  0  0  0  0  0  0  0
   -1.6337   -4.1703    2.0406 H   0  0  0  0  0  0  0  0  0  0  0  0
   -3.1112   -4.0849    1.0663 H   0  0  0  0  0  0  0  0  0  0  0  0
   -4.5567    0.8063   -1.0803 H   0  0  0  0  0  0  0  0  0  0  0  0
    5.6860   -1.0366   -2.3497 H   0  0  0  0  0  0  0  0  0  0  0  0
    6.3483   -0.7628   -0.6967 H   0  0  0  0  0  0  0  0  0  0  0  0
    6.6083   -2.3078   -1.5261 H   0  0  0  0  0  0  0  0  0  0  0  0
  1 10  1  0  0  0  0
  1 11  1  0  0  0  0
  2 22  2  0  0  0  0
  3  5  1  0  0  0  0
  3  7  1  0  0  0  0
  3  8  1  0  0  0  0
  4  9  1  0  0  0  0
  4 19  1  0  0  0  0
  4 20  1  0  0  0  0
  5  6  1  0  0  0  0
  5 24  1  0  0  0  0
  5 25  1  0  0  0  0
  6  9  1  0  0  0  0
  6 26  1  0  0  0  0
  6 27  1  0  0  0  0
  7 10  2  0  0  0  0
  7 12  1  0  0  0  0
  8 11  1  0  0  0  0
  8 13  2  0  0  0  0
  9 28  1  0  0  0  0
  9 29  1  0  0  0  0
 10 15  1  0  0  0  0
 11 16  2  0  0  0  0
 12 14  2  0  0  0  0
 12 30  1  0  0  0  0
 13 18  1  0  0  0  0
 13 31  1  0  0  0  0
 14 17  1  0  0  0  0
 14 22  1  0  0  0  0
 15 17  2  0  0  0  0
 15 32  1  0  0  0  0
 16 21  1  0  0  0  0
 16 33  1  0  0  0  0
 17 34  1  0  0  0  0
 18 21  2  0  0  0  0
 18 35  1  0  0  0  0
 19 36  1  0  0  0  0
 19 37  1  0  0  0  0
 19 38  1  0  0  0  0
 20 39  1  0  0  0  0
 20 40  1  0  0  0  0
 20 41  1  0  0  0  0
 21 42  1  0  0  0  0
 22 23  1  0  0  0  0
 23 43  1  0  0  0  0
 23 44  1  0  0  0  0
 23 45  1  0  0  0  0
M  END
>  <DRUGBANK_ID>
DB01614

>  <COMMON_NAME>
Acepromazine

>  <CAS_NUMBER>
61-00-7

>  <UNII>
54EJ303F0R

>  <SYNONYMS>
1-[10-(3-dimethylamino-propyl)-10H-phenothiazin-2-yl]-ethanone; 10-(3-dimethylaminopropyl)phenothiazin-3-yl methyl ketone; 10-(3-dimethylaminopropyl)phenothiazine-3-ethylone; Acepromazina; Acepromazine; Acepromazinum; Acetazine; Acetopromazine; Acetylpromazine

$$$$
