
 OpenBabel10282417183D

 73 79  0  0  0  0  0  0  0  0999 V2000
   -0.6473    1.0702   -1.9265 C   0  0  0  0  0  0  0  0  0  0  0  0
   -0.3389    1.7980   -0.7684 C   0  0  0  0  0  0  0  0  0  0  0  0
    0.4421    1.1711    0.1330 C   0  0  0  0  0  0  0  0  0  0  0  0
    0.2741   -0.1792    0.0780 C   0  0  0  0  0  0  0  0  0  0  0  0
    0.2826   -1.0025   -1.0706 C   0  0  0  0  0  0  0  0  0  0  0  0
   -0.2184   -0.2795   -2.1386 C   0  0  0  0  0  0  0  0  0  0  0  0
    0.8866   -2.2900   -1.3153 O   0  0  0  0  0  0  0  0  0  0  0  0
    2.1440   -3.1836   -0.6928 C   0  0  0  0  0  0  0  0  0  0  0  0
    3.7443   -2.4969   -0.0674 C   0  0  0  0  0  0  0  0  0  0  0  0
    3.8679   -1.0683    0.4023 N   0  0  0  0  0  0  0  0  0  0  0  0
    3.7029   -0.3470    1.7183 C   0  0  0  0  0  0  0  0  0  0  0  0
    2.8575   -0.9222    2.8737 C   0  0  0  0  0  0  0  0  0  0  0  0
    1.5304   -1.2006    2.5119 O   0  0  0  0  0  0  0  0  0  0  0  0
    1.6357   -1.8930    1.2787 C   0  0  0  0  0  0  0  0  0  0  0  0
    2.5455   -0.8856   -0.0054 C   0  0  0  0  0  0  0  0  0  0  0  0
   -1.1389    2.8694   -0.1212 C   0  0  1  0  0  0  0  0  0  0  0  0
   -2.4794    2.1460    0.1373 C   0  0  0  0  0  0  0  0  0  0  0  0
   -3.1248    3.0301    1.1488 C   0  0  0  0  0  0  0  0  0  0  0  0
   -2.6526    2.5973    2.5456 C   0  0  2  0  0  0  0  0  0  0  0  0
   -3.0726    1.2592    2.8498 O   0  0  0  0  0  0  0  0  0  0  0  0
   -4.1855    1.3846    3.8022 O   0  0  0  0  0  0  0  0  0  0  0  0
   -4.4395    2.7787    3.8853 C   0  0  3  0  0  0  0  0  0  0  0  0
   -3.2185    3.4448    3.5241 O   0  0  0  0  0  0  0  0  0  0  0  0
   -4.8518    3.1898    5.3260 C   0  0  3  0  0  0  0  0  0  0  0  0
   -4.9650    4.7250    5.3487 C   0  0  0  0  0  0  0  0  0  0  0  0
   -6.0394    5.1843    4.3421 C   0  0  3  0  0  0  0  0  0  0  0  0
   -5.6748    4.7173    2.9231 C   0  0  0  0  0  0  0  0  0  0  0  0
   -5.6058    3.1779    2.9261 C   0  0  3  0  0  0  0  0  0  0  0  0
   -6.9169    2.5068    3.3344 C   0  0  0  0  0  0  0  0  0  0  0  0
   -7.3030    3.0023    4.7181 C   0  0  3  0  0  0  0  0  0  0  0  0
   -6.2097    2.5509    5.6990 C   0  0  0  0  0  0  0  0  0  0  0  0
   -7.4061    4.5455    4.6677 C   0  0  0  0  0  0  0  0  0  0  0  0
   -1.1028    2.6475    2.5414 C   0  0  0  0  0  0  0  0  0  0  0  0
   -0.5586    3.4431    1.2927 C   0  0  0  0  0  0  0  0  0  0  0  0
   -1.3348    1.5247   -2.6337 H   0  0  0  0  0  0  0  0  0  0  0  0
    0.8288    1.5914    1.0562 H   0  0  0  0  0  0  0  0  0  0  0  0
    0.5408   -0.3448    1.0963 H   0  0  0  0  0  0  0  0  0  0  0  0
   -0.3131   -0.7392   -3.1080 H   0  0  0  0  0  0  0  0  0  0  0  0
    1.6902   -3.8355    0.0711 H   0  0  0  0  0  0  0  0  0  0  0  0
    2.4194   -3.9008   -1.4739 H   0  0  0  0  0  0  0  0  0  0  0  0
    4.2594   -3.1647    0.6248 H   0  0  0  0  0  0  0  0  0  0  0  0
    4.3311   -2.4815   -1.0000 H   0  0  0  0  0  0  0  0  0  0  0  0
    3.2341    0.6506    1.5047 H   0  0  0  0  0  0  0  0  0  0  0  0
    4.6736   -0.0576    2.0987 H   0  0  0  0  0  0  0  0  0  0  0  0
    3.2923   -1.8585    3.2058 H   0  0  0  0  0  0  0  0  0  0  0  0
    2.7640   -0.2159    3.6984 H   0  0  0  0  0  0  0  0  0  0  0  0
    0.6053   -2.2200    1.0063 H   0  0  0  0  0  0  0  0  0  0  0  0
    2.1143   -2.8315    1.5694 H   0  0  0  0  0  0  0  0  0  0  0  0
    2.4092    0.1869   -0.1581 H   0  0  0  0  0  0  0  0  0  0  0  0
    2.5406   -1.1475   -1.0914 H   0  0  0  0  0  0  0  0  0  0  0  0
   -1.2417    3.6944   -0.8297 H   0  0  0  0  0  0  0  0  0  0  0  0
   -3.1020    2.0097   -0.7540 H   0  0  0  0  0  0  0  0  0  0  0  0
   -2.3460    1.1123    0.5197 H   0  0  0  0  0  0  0  0  0  0  0  0
   -4.1706    3.1096    0.9385 H   0  0  0  0  0  0  0  0  0  0  0  0
   -2.8290    4.0661    0.9516 H   0  0  0  0  0  0  0  0  0  0  0  0
   -4.0979    2.8635    6.0529 H   0  0  0  0  0  0  0  0  0  0  0  0
   -5.1923    5.0983    6.3538 H   0  0  0  0  0  0  0  0  0  0  0  0
   -3.9906    5.1579    5.0838 H   0  0  0  0  0  0  0  0  0  0  0  0
   -6.1060    6.2777    4.3626 H   0  0  0  0  0  0  0  0  0  0  0  0
   -6.4103    5.0963    2.2045 H   0  0  0  0  0  0  0  0  0  0  0  0
   -4.7113    5.1402    2.6075 H   0  0  0  0  0  0  0  0  0  0  0  0
   -5.4880    2.7893    1.9267 H   0  0  0  0  0  0  0  0  0  0  0  0
   -7.7217    2.7198    2.6188 H   0  0  0  0  0  0  0  0  0  0  0  0
   -6.7737    1.4174    3.3010 H   0  0  0  0  0  0  0  0  0  0  0  0
   -8.2682    2.5663    4.9963 H   0  0  0  0  0  0  0  0  0  0  0  0
   -6.5136    2.8074    6.7203 H   0  0  0  0  0  0  0  0  0  0  0  0
   -6.1079    1.4571    5.6741 H   0  0  0  0  0  0  0  0  0  0  0  0
   -7.8094    4.9361    5.6057 H   0  0  0  0  0  0  0  0  0  0  0  0
   -8.1162    4.8346    3.8790 H   0  0  0  0  0  0  0  0  0  0  0  0
   -0.7041    3.0632    3.4764 H   0  0  0  0  0  0  0  0  0  0  0  0
   -0.7236    1.6171    2.5132 H   0  0  0  0  0  0  0  0  0  0  0  0
   -0.8386    4.4968    1.4169 H   0  0  0  0  0  0  0  0  0  0  0  0
    0.5392    3.4868    1.2954 H   0  0  0  0  0  0  0  0  0  0  0  0
  1  2  2  0  0  0  0
  1  6  1  0  0  0  0
  1 35  1  0  0  0  0
  2  3  1  0  0  0  0
  3  4  2  0  0  0  0
  3 36  1  0  0  0  0
  4  5  1  0  0  0  0
  4 37  1  0  0  0  0
  5  6  2  0  0  0  0
  5  7  1  0  0  0  0
  6 38  1  0  0  0  0
  7  8  1  0  0  0  0
  8  9  1  0  0  0  0
  8 39  1  0  0  0  0
  8 40  1  0  0  0  0
  9 10  1  0  0  0  0
  9 41  1  0  0  0  0
  9 42  1  0  0  0  0
 10 11  1  0  0  0  0
 10 15  1  0  0  0  0
 11 12  1  0  0  0  0
 11 43  1  0  0  0  0
 11 44  1  0  0  0  0
 12 13  1  0  0  0  0
 12 45  1  0  0  0  0
 12 46  1  0  0  0  0
 13 14  1  0  0  0  0
 14 15  1  0  0  0  0
 14 47  1  0  0  0  0
 14 48  1  0  0  0  0
 15 49  1  0  0  0  0
 15 50  1  0  0  0  0
 16 17  1  0  0  0  0
 16 34  1  0  0  0  0
 16 51  1  6  0  0  0
 16  2  1  0  0  0  0
 17 18  1  0  0  0  0
 17 52  1  0  0  0  0
 17 53  1  0  0  0  0
 18 19  1  0  0  0  0
 18 54  1  0  0  0  0
 18 55  1  0  0  0  0
 19 20  1  1  0  0  0
 19 23  1  0  0  0  0
 19 33  1  0  0  0  0
 20 21  1  0  0  0  0
 21 22  1  0  0  0  0
 22 23  1  0  0  0  0
 22 24  1  0  0  0  0
 22 28  1  0  0  0  0
 24 31  1  0  0  0  0
 24 25  1  0  0  0  0
 24 56  1  0  0  0  0
 25 26  1  0  0  0  0
 25 57  1  0  0  0  0
 25 58  1  0  0  0  0
 26 32  1  0  0  0  0
 26 27  1  0  0  0  0
 26 59  1  0  0  0  0
 27 28  1  0  0  0  0
 27 60  1  0  0  0  0
 27 61  1  0  0  0  0
 28 29  1  0  0  0  0
 28 62  1  0  0  0  0
 29 30  1  0  0  0  0
 29 63  1  0  0  0  0
 29 64  1  0  0  0  0
 30 31  1  0  0  0  0
 30 32  1  0  0  0  0
 30 65  1  0  0  0  0
 31 66  1  0  0  0  0
 31 67  1  0  0  0  0
 32 68  1  0  0  0  0
 32 69  1  0  0  0  0
 33 34  1  0  0  0  0
 33 70  1  0  0  0  0
 33 71  1  0  0  0  0
 34 72  1  0  0  0  0
 34 73  1  0  0  0  0
M  END
>  <DRUGBANK_ID>
DB11809

>  <COMMON_NAME>
Artefenomel

>  <CAS_NUMBER>
1029939-86-3

>  <UNII>
RIK029813G

>  <SYNONYMS>
Artefenomel

$$$$
