
 OpenBabel10282417183D

 77 81  0  0  0  0  0  0  0  0999 V2000
    0.7041    0.0622    0.0754 C   0  0  0  0  0  0  0  0  0  0  0  0
    0.3998   -0.8421    1.3602 C   0  0  0  0  0  0  0  0  0  0  0  0
    0.4613   -0.6959   -1.2801 C   0  0  0  0  0  0  0  0  0  0  0  0
   -0.1083    1.3648    0.0890 N   0  0  0  0  0  0  0  0  0  0  0  0
    0.0167    3.4476    0.5209 C   0  0  0  0  0  0  0  0  0  0  0  0
    0.0033    2.1766    1.3205 C   0  0  0  0  0  0  0  0  0  0  0  0
    0.4736    2.5329   -0.6425 C   0  0  0  0  0  0  0  0  0  0  0  0
    4.7215    1.7356    2.0367 C   0  0  0  0  0  0  0  0  0  0  0  0
    4.3478    1.9416    0.7388 C   0  0  0  0  0  0  0  0  0  0  0  0
    3.2161    2.9741    0.6627 C   0  0  3  0  0  0  0  0  0  0  0  0
    2.7140    3.6189    1.9663 C   0  0  0  0  0  0  0  0  0  0  0  0
    3.2389    3.2894    3.1593 C   0  0  0  0  0  0  0  0  0  0  0  0
    4.1540    2.3099    3.1362 N   0  0  0  0  0  0  0  0  0  0  0  0
    3.3882    4.0101   -0.4480 C   0  0  0  0  0  0  0  0  0  0  0  0
    3.2194    3.6861   -1.8074 C   0  0  0  0  0  0  0  0  0  0  0  0
    3.4582    4.5594   -2.8428 C   0  0  0  0  0  0  0  0  0  0  0  0
    3.6179    5.8884   -2.5374 C   0  0  0  0  0  0  0  0  0  0  0  0
    3.5813    6.2852   -1.1944 C   0  0  0  0  0  0  0  0  0  0  0  0
    3.6229    5.3535   -0.1620 C   0  0  0  0  0  0  0  0  0  0  0  0
    4.6542    1.2340   -0.6605 C   0  0  0  0  0  0  0  0  0  0  0  0
    5.8165    0.6488   -1.0540 O   0  0  0  0  0  0  0  0  0  0  0  0
    6.7024    0.0376   -0.1389 C   0  0  0  0  0  0  0  0  0  0  0  0
    7.4996    1.3422    0.3655 C   0  0  0  0  0  0  0  0  0  0  0  0
    3.7887    1.1348   -1.5168 O   0  0  0  0  0  0  0  0  0  0  0  0
    5.7585   -1.0680    0.6247 C   0  0  0  0  0  0  0  0  0  0  0  0
    5.8098    0.9217    2.5615 C   0  0  0  0  0  0  0  0  0  0  0  0
    2.9629    3.8426    4.3794 N   0  0  0  0  0  0  0  0  0  0  0  0
    1.6859    4.6651    1.9352 C   0  0  0  0  0  0  0  0  0  0  0  0
    0.7108    4.6263    0.9929 O   0  0  0  0  0  0  0  0  0  0  0  0
    0.9614   -1.9873   -1.5445 C   0  0  0  0  0  0  0  0  0  0  0  0
    0.4438   -2.7813   -2.5752 C   0  0  0  0  0  0  0  0  0  0  0  0
   -0.4195   -2.2224   -3.5042 C   0  0  0  0  0  0  0  0  0  0  0  0
   -0.7769   -0.8876   -3.3810 C   0  0  0  0  0  0  0  0  0  0  0  0
   -0.3285   -0.1363   -2.2941 C   0  0  0  0  0  0  0  0  0  0  0  0
    3.3208    7.6890   -0.8896 N   0  3  0  0  0  0  0  0  0  0  0  0
    1.8521    5.6781    2.6326 O   0  0  0  0  0  0  0  0  0  0  0  0
    3.1317    7.9895    0.3147 O   0  5  0  0  0  0  0  0  0  0  0  0
    3.2494    8.4772   -1.8230 O   0  0  0  0  0  0  0  0  0  0  0  0
    0.4575   -2.2441    1.4023 C   0  0  0  0  0  0  0  0  0  0  0  0
    0.3102   -2.9880    2.5863 C   0  0  0  0  0  0  0  0  0  0  0  0
    0.0777   -2.3626    3.7961 C   0  0  0  0  0  0  0  0  0  0  0  0
    0.0035   -0.9980    3.8162 C   0  0  0  0  0  0  0  0  0  0  0  0
    0.1330   -0.2931    2.6269 C   0  0  0  0  0  0  0  0  0  0  0  0
    1.7923    0.2443    0.1030 H   0  0  0  0  0  0  0  0  0  0  0  0
   -1.0188    3.7557    0.3250 H   0  0  0  0  0  0  0  0  0  0  0  0
   -0.8984    2.1422    1.9354 H   0  0  0  0  0  0  0  0  0  0  0  0
    0.9013    2.0279    1.9229 H   0  0  0  0  0  0  0  0  0  0  0  0
    1.5020    2.3928   -0.8732 H   0  0  0  0  0  0  0  0  0  0  0  0
    0.0577    2.8288   -1.6073 H   0  0  0  0  0  0  0  0  0  0  0  0
    2.4351    2.2549    0.5195 H   0  0  0  0  0  0  0  0  0  0  0  0
    4.4721    1.9774    4.0409 H   0  0  0  0  0  0  0  0  0  0  0  0
    2.8425    2.7319   -2.1523 H   0  0  0  0  0  0  0  0  0  0  0  0
    3.4208    4.1786   -3.8589 H   0  0  0  0  0  0  0  0  0  0  0  0
    3.6980    6.5985   -3.3472 H   0  0  0  0  0  0  0  0  0  0  0  0
    3.7177    5.7054    0.8654 H   0  0  0  0  0  0  0  0  0  0  0  0
    7.4596   -0.5761   -0.6355 H   0  0  0  0  0  0  0  0  0  0  0  0
    6.8482    2.1910    0.6459 H   0  0  0  0  0  0  0  0  0  0  0  0
    8.1768    1.1667    1.2056 H   0  0  0  0  0  0  0  0  0  0  0  0
    8.0488    1.8262   -0.4515 H   0  0  0  0  0  0  0  0  0  0  0  0
    5.3995   -1.8588   -0.0445 H   0  0  0  0  0  0  0  0  0  0  0  0
    6.2349   -1.5312    1.4980 H   0  0  0  0  0  0  0  0  0  0  0  0
    4.7785   -0.6793    0.9680 H   0  0  0  0  0  0  0  0  0  0  0  0
    6.6265    1.5150    2.9663 H   0  0  0  0  0  0  0  0  0  0  0  0
    5.5388    0.0381    3.1286 H   0  0  0  0  0  0  0  0  0  0  0  0
    6.1942    0.5589    1.6893 H   0  0  0  0  0  0  0  0  0  0  0  0
    2.6462    4.8134    4.2809 H   0  0  0  0  0  0  0  0  0  0  0  0
    3.7558    3.7966    5.0154 H   0  0  0  0  0  0  0  0  0  0  0  0
    1.7160   -2.4436   -0.9089 H   0  0  0  0  0  0  0  0  0  0  0  0
    0.7033   -3.8362   -2.6366 H   0  0  0  0  0  0  0  0  0  0  0  0
   -0.7880   -2.8118   -4.3370 H   0  0  0  0  0  0  0  0  0  0  0  0
   -1.4413   -0.4257   -4.1040 H   0  0  0  0  0  0  0  0  0  0  0  0
   -0.6387    0.8995   -2.2547 H   0  0  0  0  0  0  0  0  0  0  0  0
    0.5695   -2.8737    0.5371 H   0  0  0  0  0  0  0  0  0  0  0  0
    0.3704   -4.0701    2.5377 H   0  0  0  0  0  0  0  0  0  0  0  0
   -0.0769   -2.9206    4.7081 H   0  0  0  0  0  0  0  0  0  0  0  0
   -0.1724   -0.4326    4.7261 H   0  0  0  0  0  0  0  0  0  0  0  0
   -0.0525    0.7338    2.8347 H   0  0  0  0  0  0  0  0  0  0  0  0
  1  4  1  0  0  0  0
  1  3  1  0  0  0  0
  1  2  1  0  0  0  0
  1 44  1  0  0  0  0
  2 39  2  0  0  0  0
  2 43  1  0  0  0  0
  3 30  2  0  0  0  0
  4  7  1  0  0  0  0
  5  6  1  0  0  0  0
  5 45  1  0  0  0  0
  6  4  1  0  0  0  0
  6 46  1  0  0  0  0
  6 47  1  0  0  0  0
  7  5  1  0  0  0  0
  7 48  1  0  0  0  0
  7 49  1  0  0  0  0
  8  9  2  0  0  0  0
  8 26  1  0  0  0  0
  9 10  1  0  0  0  0
  9 20  1  0  0  0  0
 10 11  1  0  0  0  0
 10 14  1  0  0  0  0
 10 50  1  0  0  0  0
 11 12  2  0  0  0  0
 11 28  1  0  0  0  0
 12 13  1  0  0  0  0
 12 27  1  0  0  0  0
 13  8  1  0  0  0  0
 13 51  1  0  0  0  0
 14 15  2  0  0  0  0
 15 16  1  0  0  0  0
 15 52  1  0  0  0  0
 16 17  2  0  0  0  0
 16 53  1  0  0  0  0
 17 18  1  0  0  0  0
 17 54  1  0  0  0  0
 18 19  2  0  0  0  0
 18 35  1  0  0  0  0
 19 14  1  0  0  0  0
 19 55  1  0  0  0  0
 20 21  1  0  0  0  0
 20 24  2  0  0  0  0
 21 22  1  0  0  0  0
 22 23  1  0  0  0  0
 22 25  1  0  0  0  0
 22 56  1  0  0  0  0
 23 57  1  0  0  0  0
 23 58  1  0  0  0  0
 23 59  1  0  0  0  0
 25 60  1  0  0  0  0
 25 61  1  0  0  0  0
 25 62  1  0  0  0  0
 26 63  1  0  0  0  0
 26 64  1  0  0  0  0
 26 65  1  0  0  0  0
 27 66  1  0  0  0  0
 27 67  1  0  0  0  0
 28 29  1  0  0  0  0
 28 36  2  0  0  0  0
 29  5  1  0  0  0  0
 30 31  1  0  0  0  0
 30 68  1  0  0  0  0
 31 32  2  0  0  0  0
 31 69  1  0  0  0  0
 32 33  1  0  0  0  0
 32 70  1  0  0  0  0
 33 34  2  0  0  0  0
 33 71  1  0  0  0  0
 34  3  1  0  0  0  0
 34 72  1  0  0  0  0
 35 37  1  0  0  0  0
 35 38  2  0  0  0  0
 39 40  1  0  0  0  0
 39 73  1  0  0  0  0
 40 41  2  0  0  0  0
 40 74  1  0  0  0  0
 41 42  1  0  0  0  0
 41 75  1  0  0  0  0
 42 43  2  0  0  0  0
 42 76  1  0  0  0  0
 43 77  1  0  0  0  0
M  CHG  2  35   1  37  -1
M  END
>  <DRUGBANK_ID>
DB09230

>  <COMMON_NAME>
Azelnidipine

>  <CAS_NUMBER>
123524-52-7

>  <UNII>
PV23P19YUG

>  <SYNONYMS>
Azelnidipine

$$$$
