
 OpenBabel10282417213D

 15 14  0  0  0  0  0  0  0  0999 V2000
    0.9100    0.1161    0.0364 O   0  0  0  0  0  0  0  0  0  0  0  0
    0.4211   -0.5030    1.2303 C   0  0  0  0  0  0  0  0  0  0  0  0
    0.9507   -1.9184    1.4781 C   0  0  0  0  0  0  0  0  0  0  0  0
    0.4445   -2.8864    0.4217 N   0  3  0  0  0  0  0  0  0  0  0  0
   -0.3258   -2.4591   -0.4522 O   0  5  0  0  0  0  0  0  0  0  0  0
    2.4795   -1.9742    1.5123 C   0  0  0  0  0  0  0  0  0  0  0  0
    0.2107   -2.5787    3.1791 Br  0  0  0  0  0  0  0  0  0  0  0  0
    3.0556   -1.1077    2.5019 O   0  0  0  0  0  0  0  0  0  0  0  0
    0.8445   -4.0568    0.4756 O   0  0  0  0  0  0  0  0  0  0  0  0
    1.8787    0.0792   -0.0205 H   0  0  0  0  0  0  0  0  0  0  0  0
    0.7031    0.1618    2.0553 H   0  0  0  0  0  0  0  0  0  0  0  0
   -0.6740   -0.4788    1.1922 H   0  0  0  0  0  0  0  0  0  0  0  0
    2.8549   -2.9803    1.7274 H   0  0  0  0  0  0  0  0  0  0  0  0
    2.9066   -1.6844    0.5456 H   0  0  0  0  0  0  0  0  0  0  0  0
    2.7702   -0.1871    2.3726 H   0  0  0  0  0  0  0  0  0  0  0  0
  1  2  1  0  0  0  0
  1 10  1  0  0  0  0
  2  3  1  0  0  0  0
  2 11  1  0  0  0  0
  2 12  1  0  0  0  0
  3  6  1  0  0  0  0
  3  7  1  0  0  0  0
  3  4  1  0  0  0  0
  4  5  1  0  0  0  0
  4  9  2  0  0  0  0
  6  8  1  0  0  0  0
  6 13  1  0  0  0  0
  6 14  1  0  0  0  0
  8 15  1  0  0  0  0
M  CHG  2   4   1   5  -1
M  END
>  <DRUGBANK_ID>
DB13960

>  <COMMON_NAME>
Bronopol

>  <CAS_NUMBER>
52-51-7

>  <UNII>
6PU1E16C9W

>  <SYNONYMS>
2-Bromo-2-nitropropane-1,3-diol; 2-Nitro-2-bromo-1,3-propanediol; beta-Bromo-beta-nitrotrimethyleneglycol; Bronopol; Bronopolu; Bronopolum

$$$$
