
 OpenBabel10282417133D

 78 81  0  0  0  0  0  0  0  0999 V2000
   -1.3407  -13.2495   -3.3548 C   0  0  0  0  0  0  0  0  0  0  0  0
   -0.9466  -13.3128   -5.7683 C   0  0  0  0  0  0  0  0  0  0  0  0
   -2.2719  -12.2853   -3.5815 C   0  0  0  0  0  0  0  0  0  0  0  0
   -1.8707  -12.3107   -5.9753 C   0  0  0  0  0  0  0  0  0  0  0  0
   -1.4287   -6.4862    1.8161 C   0  0  0  0  0  0  0  0  0  0  0  0
   -6.7369  -11.8266   -1.7156 C   0  0  0  0  0  0  0  0  0  0  0  0
   -6.0296   -5.5297   -2.0675 C   0  0  0  0  0  0  0  0  0  0  0  0
   -0.7241  -13.7965   -4.4583 C   0  0  0  0  0  0  0  0  0  0  0  0
   -2.5108  -11.7953   -4.8776 C   0  0  0  0  0  0  0  0  0  0  0  0
   -2.3807   -6.0613    0.7078 C   0  0  2  0  0  0  0  0  0  0  0  0
   -5.6673  -10.9862   -2.4542 C   0  0  3  0  0  0  0  0  0  0  0  0
   -7.1348   -5.8293   -2.9358 C   0  0  2  0  0  0  0  0  0  0  0  0
   -2.5685   -4.5471    0.8060 C   0  0  2  0  0  0  0  0  0  0  0  0
   -4.7962  -10.2149   -1.4413 C   0  0  3  0  0  0  0  0  0  0  0  0
   -8.2248   -6.5234   -2.0364 C   0  0  2  0  0  0  0  0  0  0  0  0
   -3.5224   -4.0151   -0.2141 C   0  0  1  0  0  0  0  0  0  0  0  0
   -4.8382   -4.6302    0.0838 C   0  0  2  0  0  0  0  0  0  0  0  0
   -3.1380   -9.5095   -3.1121 C   0  0  3  0  0  0  0  0  0  0  0  0
   -7.0620   -8.4718   -2.6317 C   0  0  2  0  0  0  0  0  0  0  0  0
   -4.0907   -8.9771   -2.0818 C   0  0  3  0  0  0  0  0  0  0  0  0
   -7.5584   -7.7374   -1.4043 C   0  0  1  0  0  0  0  0  0  0  0  0
   -4.0517  -10.3434   -4.0764 C   0  0  3  0  0  0  0  0  0  0  0  0
   -5.9853   -7.8680   -3.4806 C   0  0  1  0  0  0  0  0  0  0  0  0
   -4.6302   -6.3269   -0.0077 C   0  0  1  0  0  0  0  0  0  0  0  0
    0.0737  -14.9949   -4.2835 N   0  0  0  0  0  0  0  0  0  0  0  0
   -1.1310   -7.8726    1.6977 O   0  0  0  0  0  0  0  0  0  0  0  0
   -7.5848  -11.0156   -0.8591 O   0  0  0  0  0  0  0  0  0  0  0  0
   -6.7349   -5.2961   -0.8708 O   0  0  0  0  0  0  0  0  0  0  0  0
   -1.3414   -3.8605    0.6647 O   0  0  0  0  0  0  0  0  0  0  0  0
   -5.4095  -10.0316   -0.1820 O   0  0  0  0  0  0  0  0  0  0  0  0
   -9.3400   -6.8626   -2.8400 O   0  0  0  0  0  0  0  0  0  0  0  0
   -3.7109   -2.5986   -0.0361 O   0  0  0  0  0  0  0  0  0  0  0  0
   -5.6973   -3.5536   -0.5652 O   0  0  0  0  0  0  0  0  0  0  0  0
   -2.3945   -8.4415   -3.7141 O   0  0  0  0  0  0  0  0  0  0  0  0
   -8.0414   -8.9612   -3.5439 O   0  0  0  0  0  0  0  0  0  0  0  0
    0.5466  -15.5285   -5.2591 O   0  0  0  0  0  0  0  0  0  0  0  0
    0.1759  -15.4268   -3.0926 O   0  0  0  0  0  0  0  0  0  0  0  0
   -3.3458  -10.7838   -5.1980 O   0  0  0  0  0  0  0  0  0  0  0  0
   -4.7995  -11.4552   -3.4572 O   0  0  0  0  0  0  0  0  0  0  0  0
   -6.4963   -6.5859   -3.9505 O   0  0  0  0  0  0  0  0  0  0  0  0
   -3.6379   -6.7391    0.9612 O   0  0  0  0  0  0  0  0  0  0  0  0
   -4.7429   -7.8667   -2.7573 O   0  0  0  0  0  0  0  0  0  0  0  0
   -6.2908   -7.5493    0.3272 S   0  0  0  0  0  0  0  0  0  0  0  0
   -1.9626   -6.3680   -0.2681 H   0  0  0  0  0  0  0  0  0  0  0  0
   -6.3150  -10.4590   -3.1375 H   0  0  0  0  0  0  0  0  0  0  0  0
   -7.4900   -4.8637   -3.2924 H   0  0  0  0  0  0  0  0  0  0  0  0
   -3.0195   -4.3248    1.7817 H   0  0  0  0  0  0  0  0  0  0  0  0
   -3.9892  -10.8893   -1.1375 H   0  0  0  0  0  0  0  0  0  0  0  0
   -8.6459   -5.9345   -1.2106 H   0  0  0  0  0  0  0  0  0  0  0  0
   -3.2160   -4.1872   -1.2606 H   0  0  0  0  0  0  0  0  0  0  0  0
   -5.2247   -4.5176    1.0913 H   0  0  0  0  0  0  0  0  0  0  0  0
   -2.3840  -10.0832   -2.5694 H   0  0  0  0  0  0  0  0  0  0  0  0
   -6.6802   -9.2593   -2.0803 H   0  0  0  0  0  0  0  0  0  0  0  0
   -3.4724   -8.5300   -1.2917 H   0  0  0  0  0  0  0  0  0  0  0  0
   -8.3126   -8.4001   -0.9561 H   0  0  0  0  0  0  0  0  0  0  0  0
   -4.7596   -9.6798   -4.5383 H   0  0  0  0  0  0  0  0  0  0  0  0
   -5.8313   -8.3220   -4.4525 H   0  0  0  0  0  0  0  0  0  0  0  0
   -4.1114   -6.6798   -0.8957 H   0  0  0  0  0  0  0  0  0  0  0  0
   -1.1671  -13.5655   -2.3277 H   0  0  0  0  0  0  0  0  0  0  0  0
   -0.4266  -13.7088   -6.6271 H   0  0  0  0  0  0  0  0  0  0  0  0
   -2.8055  -11.9728   -2.6939 H   0  0  0  0  0  0  0  0  0  0  0  0
   -2.1252  -11.9387   -6.9655 H   0  0  0  0  0  0  0  0  0  0  0  0
   -0.4940   -5.9210    1.7791 H   0  0  0  0  0  0  0  0  0  0  0  0
   -1.9171   -6.3219    2.7815 H   0  0  0  0  0  0  0  0  0  0  0  0
   -7.4253  -12.2639   -2.4378 H   0  0  0  0  0  0  0  0  0  0  0  0
   -6.2812  -12.5975   -1.0998 H   0  0  0  0  0  0  0  0  0  0  0  0
   -5.2623   -6.2518   -2.0199 H   0  0  0  0  0  0  0  0  0  0  0  0
   -5.3368   -4.7932   -2.4742 H   0  0  0  0  0  0  0  0  0  0  0  0
   -1.9883   -8.3328    1.7554 H   0  0  0  0  0  0  0  0  0  0  0  0
   -7.0460  -10.7730   -0.0731 H   0  0  0  0  0  0  0  0  0  0  0  0
   -6.7557   -6.0186   -0.2024 H   0  0  0  0  0  0  0  0  0  0  0  0
   -1.1480   -3.8081   -0.2879 H   0  0  0  0  0  0  0  0  0  0  0  0
   -5.9206   -9.2023   -0.1878 H   0  0  0  0  0  0  0  0  0  0  0  0
   -9.0261   -6.7762   -3.7606 H   0  0  0  0  0  0  0  0  0  0  0  0
   -4.6721   -2.5198    0.2021 H   0  0  0  0  0  0  0  0  0  0  0  0
   -5.7245   -3.5199   -1.5421 H   0  0  0  0  0  0  0  0  0  0  0  0
   -3.0273   -7.7769   -4.0365 H   0  0  0  0  0  0  0  0  0  0  0  0
   -8.8896   -9.0584   -3.0782 H   0  0  0  0  0  0  0  0  0  0  0  0
  1 59  1  0  0  0  0
  2 60  1  0  0  0  0
  3  1  1  0  0  0  0
  3 61  1  0  0  0  0
  4  2  2  0  0  0  0
  4 62  1  0  0  0  0
  5 63  1  0  0  0  0
  5 64  1  0  0  0  0
  6 65  1  0  0  0  0
  6 66  1  0  0  0  0
  7 67  1  0  0  0  0
  7 68  1  0  0  0  0
  8  1  2  0  0  0  0
  8  2  1  0  0  0  0
  9  3  2  0  0  0  0
  9  4  1  0  0  0  0
 10  5  1  0  0  0  0
 10 41  1  0  0  0  0
 10 44  1  6  0  0  0
 11  6  1  0  0  0  0
 12 40  1  0  0  0  0
 12 46  1  6  0  0  0
 12  7  1  0  0  0  0
 13 10  1  0  0  0  0
 13 16  1  0  0  0  0
 13 29  1  0  0  0  0
 13 47  1  1  0  0  0
 14 11  1  0  0  0  0
 15 12  1  0  0  0  0
 15 21  1  0  0  0  0
 15 49  1  1  0  0  0
 15 31  1  0  0  0  0
 16 17  1  0  0  0  0
 16 32  1  0  0  0  0
 16 50  1  6  0  0  0
 17 24  1  0  0  0  0
 17 33  1  0  0  0  0
 17 51  1  1  0  0  0
 19 23  1  0  0  0  0
 19 53  1  1  0  0  0
 19 35  1  0  0  0  0
 20 14  1  0  0  0  0
 20 18  1  0  0  0  0
 21 19  1  0  0  0  0
 21 43  1  0  0  0  0
 21 55  1  1  0  0  0
 22 18  1  0  0  0  0
 23 40  1  0  0  0  0
 23 57  1  6  0  0  0
 23 42  1  0  0  0  0
 24 41  1  0  0  0  0
 24 58  1  6  0  0  0
 24 43  1  0  0  0  0
 25  8  1  0  0  0  0
 26  5  1  0  0  0  0
 26 69  1  0  0  0  0
 27  6  1  0  0  0  0
 27 70  1  0  0  0  0
 28  7  1  0  0  0  0
 28 71  1  0  0  0  0
 29 72  1  0  0  0  0
 30 14  1  0  0  0  0
 30 73  1  0  0  0  0
 31 74  1  0  0  0  0
 32 75  1  0  0  0  0
 33 76  1  0  0  0  0
 34 18  1  0  0  0  0
 34 77  1  0  0  0  0
 35 78  1  0  0  0  0
 36 25  2  0  0  0  0
 37 25  2  0  0  0  0
 38  9  1  0  0  0  0
 38 22  1  0  0  0  0
 39 11  1  0  0  0  0
 39 22  1  0  0  0  0
 42 20  1  0  0  0  0
 45 11  1  0  0  0  0
 48 14  1  0  0  0  0
 52 18  1  0  0  0  0
 54 20  1  0  0  0  0
 56 22  1  0  0  0  0
M  END
>  <DRUGBANK_ID>
DB03990

>  <SECONDARY_ACCESSION_NUMBERS>
EXPT02001

>  <COMMON_NAME>
4'-nitrophenyl-3i-thiolaminaritrioside

$$$$
