
 OpenBabel10282417183D

 67 71  0  0  0  0  0  0  0  0999 V2000
   -1.5803    0.0173    0.1189 N   0  0  0  0  0  0  0  0  0  0  0  0
   -0.9099   -1.2638   -0.2447 C   0  0  0  0  0  0  0  0  0  0  0  0
    0.5972   -1.3001    0.1512 C   0  0  0  0  0  0  0  0  0  0  0  0
    1.2669   -0.0847   -0.3420 N   0  0  0  0  0  0  0  0  0  0  0  0
    0.5558    1.0947    0.0723 C   0  0  0  0  0  0  0  0  0  0  0  0
   -0.8722    1.1725   -0.3550 C   0  0  0  0  0  0  0  0  0  0  0  0
    2.5400   -0.1257   -0.9613 C   0  0  0  0  0  0  0  0  0  0  0  0
    3.3520    1.1816   -1.3621 C   0  0  0  0  0  0  0  0  0  0  0  0
    4.2811    1.0417   -2.1664 O   0  0  0  0  0  0  0  0  0  0  0  0
    3.0427   -1.2162   -1.2498 O   0  0  0  0  0  0  0  0  0  0  0  0
    1.3687    4.7257    1.5022 C   0  0  0  0  0  0  0  0  0  0  0  0
    2.0305    4.1967    0.3747 C   0  0  0  0  0  0  0  0  0  0  0  0
    2.7132    2.9568    0.4612 C   0  0  0  0  0  0  0  0  0  0  0  0
    2.7049    2.2224    1.6747 C   0  0  0  0  0  0  0  0  0  0  0  0
    1.9759    2.7940    2.7030 C   0  0  0  0  0  0  0  0  0  0  0  0
    1.3657    3.9983    2.6520 N   0  0  0  0  0  0  0  0  0  0  0  0
    2.1743    4.6361   -0.9361 N   0  0  0  0  0  0  0  0  0  0  0  0
    3.0296    2.5420   -0.8820 C   0  0  0  0  0  0  0  0  0  0  0  0
    2.7917    3.6443   -1.6879 C   0  0  0  0  0  0  0  0  0  0  0  0
    1.6836    5.9179   -1.4840 C   0  0  0  0  0  0  0  0  0  0  0  0
    0.2478    6.0455   -1.3795 O   0  0  0  0  0  0  0  0  0  0  0  0
   -0.6046    4.8332   -2.2721 P   0  0  0  0  0  0  0  0  0  0  0  0
   -1.4655    5.9882   -3.0267 O   0  0  0  0  0  0  0  0  0  0  0  0
    0.5562    4.4978   -3.1990 O   0  0  0  0  0  0  0  0  0  0  0  0
   -1.4570    3.6210   -3.1647 O   0  0  0  0  0  0  0  0  0  0  0  0
    0.7511    5.9951    1.5447 N   0  0  0  0  0  0  0  0  0  0  0  0
   -0.4221    6.3109    0.9376 N   0  0  0  0  0  0  0  0  0  0  0  0
   -0.4392    7.6488    1.0715 C   0  0  0  0  0  0  0  0  0  0  0  0
    0.5259    8.1475    1.9064 N   0  0  0  0  0  0  0  0  0  0  0  0
    1.2061    7.0755    2.2455 C   0  0  0  0  0  0  0  0  0  0  0  0
   -1.4091    8.5244    0.3687 C   0  0  0  0  0  0  0  0  0  0  0  0
    3.1824    0.9372    1.6531 O   0  0  0  0  0  0  0  0  0  0  0  0
    2.8664    0.0782    2.7489 C   0  0  0  0  0  0  0  0  0  0  0  0
   -2.6906    0.0853    0.9587 C   0  0  0  0  0  0  0  0  0  0  0  0
   -3.2351    1.4253    1.3741 C   0  0  0  0  0  0  0  0  0  0  0  0
   -3.5779    2.4240    0.4479 C   0  0  0  0  0  0  0  0  0  0  0  0
   -3.9161    3.7107    0.8879 C   0  0  0  0  0  0  0  0  0  0  0  0
   -4.0561    3.9677    2.2503 C   0  0  0  0  0  0  0  0  0  0  0  0
   -3.8647    2.9383    3.1704 C   0  0  0  0  0  0  0  0  0  0  0  0
   -3.4079    1.6864    2.7397 C   0  0  0  0  0  0  0  0  0  0  0  0
   -3.2205   -0.9236    1.4271 O   0  0  0  0  0  0  0  0  0  0  0  0
   -1.4411   -2.1181    0.1754 H   0  0  0  0  0  0  0  0  0  0  0  0
   -0.9514   -1.3147   -1.3390 H   0  0  0  0  0  0  0  0  0  0  0  0
    0.6838   -1.2900    1.2472 H   0  0  0  0  0  0  0  0  0  0  0  0
    1.0975   -2.2075   -0.2003 H   0  0  0  0  0  0  0  0  0  0  0  0
    0.5732    1.1210    1.1658 H   0  0  0  0  0  0  0  0  0  0  0  0
    0.9438    1.9611   -0.4012 H   0  0  0  0  0  0  0  0  0  0  0  0
   -0.9187    1.1893   -1.4447 H   0  0  0  0  0  0  0  0  0  0  0  0
   -1.2395    2.1211    0.0335 H   0  0  0  0  0  0  0  0  0  0  0  0
    1.7682    2.2456    3.6157 H   0  0  0  0  0  0  0  0  0  0  0  0
    2.8871    3.7434   -2.7687 H   0  0  0  0  0  0  0  0  0  0  0  0
    2.1678    6.7065   -0.9042 H   0  0  0  0  0  0  0  0  0  0  0  0
    2.0192    6.0336   -2.5223 H   0  0  0  0  0  0  0  0  0  0  0  0
   -2.3022    6.2078   -2.5906 H   0  0  0  0  0  0  0  0  0  0  0  0
   -1.1887    2.7340   -2.8818 H   0  0  0  0  0  0  0  0  0  0  0  0
    2.0524    7.0170    2.9127 H   0  0  0  0  0  0  0  0  0  0  0  0
   -1.2091    8.5628   -0.7091 H   0  0  0  0  0  0  0  0  0  0  0  0
   -2.4295    8.1580    0.5108 H   0  0  0  0  0  0  0  0  0  0  0  0
   -1.3613    9.5514    0.7467 H   0  0  0  0  0  0  0  0  0  0  0  0
    3.3891    0.4260    3.6403 H   0  0  0  0  0  0  0  0  0  0  0  0
    1.7874   -0.0011    2.9352 H   0  0  0  0  0  0  0  0  0  0  0  0
    3.2202   -0.9314    2.5093 H   0  0  0  0  0  0  0  0  0  0  0  0
   -3.5616    2.2148   -0.6179 H   0  0  0  0  0  0  0  0  0  0  0  0
   -4.0887    4.5135    0.1749 H   0  0  0  0  0  0  0  0  0  0  0  0
   -4.3348    4.9622    2.5953 H   0  0  0  0  0  0  0  0  0  0  0  0
   -4.0671    3.1144    4.2250 H   0  0  0  0  0  0  0  0  0  0  0  0
   -3.1901    0.9159    3.4754 H   0  0  0  0  0  0  0  0  0  0  0  0
  1  2  1  0  0  0  0
  1  6  1  0  0  0  0
  1 34  1  0  0  0  0
  2  3  1  0  0  0  0
  2 42  1  0  0  0  0
  2 43  1  0  0  0  0
  3  4  1  0  0  0  0
  3 44  1  0  0  0  0
  3 45  1  0  0  0  0
  4  5  1  0  0  0  0
  4  7  1  0  0  0  0
  5  6  1  0  0  0  0
  5 46  1  0  0  0  0
  5 47  1  0  0  0  0
  6 48  1  0  0  0  0
  6 49  1  0  0  0  0
  7  8  1  0  0  0  0
  7 10  2  0  0  0  0
  8  9  2  0  0  0  0
  8 18  1  0  0  0  0
 11 12  1  0  0  0  0
 11 16  2  0  0  0  0
 11 26  1  0  0  0  0
 12 13  2  0  0  0  0
 12 17  1  0  0  0  0
 13 14  1  0  0  0  0
 13 18  1  0  0  0  0
 14 15  2  0  0  0  0
 14 32  1  0  0  0  0
 15 16  1  0  0  0  0
 15 50  1  0  0  0  0
 17 19  1  0  0  0  0
 17 20  1  0  0  0  0
 18 19  2  0  0  0  0
 19 51  1  0  0  0  0
 20 21  1  0  0  0  0
 20 52  1  0  0  0  0
 20 53  1  0  0  0  0
 21 22  1  0  0  0  0
 22 23  1  0  0  0  0
 22 24  2  0  0  0  0
 22 25  1  0  0  0  0
 23 54  1  0  0  0  0
 25 55  1  0  0  0  0
 26 27  1  0  0  0  0
 26 30  1  0  0  0  0
 27 28  2  0  0  0  0
 28 29  1  0  0  0  0
 28 31  1  0  0  0  0
 29 30  2  0  0  0  0
 30 56  1  0  0  0  0
 31 57  1  0  0  0  0
 31 58  1  0  0  0  0
 31 59  1  0  0  0  0
 32 33  1  0  0  0  0
 33 60  1  0  0  0  0
 33 61  1  0  0  0  0
 33 62  1  0  0  0  0
 34 35  1  0  0  0  0
 34 41  2  0  0  0  0
 35 36  1  0  0  0  0
 35 40  2  0  0  0  0
 36 37  2  0  0  0  0
 36 63  1  0  0  0  0
 37 38  1  0  0  0  0
 37 64  1  0  0  0  0
 38 39  2  0  0  0  0
 38 65  1  0  0  0  0
 39 40  1  0  0  0  0
 39 66  1  0  0  0  0
 40 67  1  0  0  0  0
M  END
>  <DRUGBANK_ID>
DB11796

>  <COMMON_NAME>
Fostemsavir

>  <CAS_NUMBER>
864953-29-7

>  <UNII>
97IQ273H4L

>  <SYNONYMS>
Fostemsavir

$$$$
