
 OpenBabel10282417243D

 53 58  0  0  0  0  0  0  0  0999 V2000
    0.6505   -1.2324    0.2662 C   0  0  0  0  0  0  0  0  0  0  0  0
   -0.8149   -1.2146   -0.2203 C   0  0  0  0  0  0  0  0  0  0  0  0
   -1.4615    0.0510    0.1180 N   0  0  0  0  0  0  0  0  0  0  0  0
   -0.7149    1.2576   -0.2561 C   0  0  0  0  0  0  0  0  0  0  0  0
    0.7493    1.1651    0.2463 C   0  0  0  0  0  0  0  0  0  0  0  0
    1.4439   -0.0679   -0.1904 N   0  0  0  0  0  0  0  0  0  0  0  0
   -2.5646    0.1334    0.9343 C   0  0  0  0  0  0  0  0  0  0  0  0
   -2.6129   -0.4729    2.1955 C   0  0  0  0  0  0  0  0  0  0  0  0
   -3.7360   -0.3422    3.0098 C   0  0  0  0  0  0  0  0  0  0  0  0
   -4.8433    0.3746    2.5462 C   0  0  0  0  0  0  0  0  0  0  0  0
   -4.7937    1.0394    1.3316 C   0  0  0  0  0  0  0  0  0  0  0  0
   -3.6834    0.8698    0.5154 C   0  0  0  0  0  0  0  0  0  0  0  0
   -6.0456    0.4279    3.3346 C   0  0  0  0  0  0  0  0  0  0  0  0
   -5.9473    0.8930    4.7461 C   0  0  0  0  0  0  0  0  0  0  0  0
   -6.8691    0.8667    5.5871 N   0  0  0  0  0  0  0  0  0  0  0  0
   -8.1157    0.6236    5.0598 C   0  0  0  0  0  0  0  0  0  0  0  0
   -9.2662    1.1826    5.4805 C   0  0  0  0  0  0  0  0  0  0  0  0
  -10.2343    0.4705    4.7253 C   0  0  0  0  0  0  0  0  0  0  0  0
   -9.6722   -0.1807    3.6751 N   0  0  0  0  0  0  0  0  0  0  0  0
   -8.3402    0.0877    3.8093 N   0  0  0  0  0  0  0  0  0  0  0  0
   -7.2618   -0.0240    2.9364 C   0  0  0  0  0  0  0  0  0  0  0  0
   -9.0236    2.3138    6.3774 C   0  0  0  0  0  0  0  0  0  0  0  0
   -8.1716    3.3428    5.7009 C   0  0  0  0  0  0  0  0  0  0  0  0
   -8.7374    4.5406    5.8291 C   0  0  0  0  0  0  0  0  0  0  0  0
   -9.1470    4.7335    7.0778 N   0  0  0  0  0  0  0  0  0  0  0  0
   -8.8815    3.7219    8.0101 C   0  0  0  0  0  0  0  0  0  0  0  0
   -7.7100    3.7475    8.7700 C   0  0  0  0  0  0  0  0  0  0  0  0
   -7.3537    2.8468    9.7782 C   0  0  0  0  0  0  0  0  0  0  0  0
   -8.1836    1.7795   10.0073 C   0  0  0  0  0  0  0  0  0  0  0  0
   -9.1288    1.5149    8.9962 C   0  0  0  0  0  0  0  0  0  0  0  0
   -9.2068    2.4212    7.7960 C   0  0  0  0  0  0  0  0  0  0  0  0
    0.6757   -1.2634    1.3617 H   0  0  0  0  0  0  0  0  0  0  0  0
    1.1362   -2.1460   -0.0926 H   0  0  0  0  0  0  0  0  0  0  0  0
   -1.3612   -2.0832    0.1622 H   0  0  0  0  0  0  0  0  0  0  0  0
   -0.8218   -1.2914   -1.3153 H   0  0  0  0  0  0  0  0  0  0  0  0
   -0.7084    1.3188   -1.3505 H   0  0  0  0  0  0  0  0  0  0  0  0
   -1.1751    2.1764    0.1250 H   0  0  0  0  0  0  0  0  0  0  0  0
    0.7762    1.2110    1.3423 H   0  0  0  0  0  0  0  0  0  0  0  0
    1.3143    2.0293   -0.1202 H   0  0  0  0  0  0  0  0  0  0  0  0
    1.4596   -0.0749   -1.2111 H   0  0  0  0  0  0  0  0  0  0  0  0
   -1.7684   -1.0442    2.5682 H   0  0  0  0  0  0  0  0  0  0  0  0
   -3.7434   -0.8032    3.9977 H   0  0  0  0  0  0  0  0  0  0  0  0
   -5.6161    1.6781    1.0189 H   0  0  0  0  0  0  0  0  0  0  0  0
   -3.7164    1.2834   -0.4877 H   0  0  0  0  0  0  0  0  0  0  0  0
   -4.9622    1.2667    5.0874 H   0  0  0  0  0  0  0  0  0  0  0  0
  -11.3133    0.3832    4.8053 H   0  0  0  0  0  0  0  0  0  0  0  0
   -7.4567   -0.4548    1.9636 H   0  0  0  0  0  0  0  0  0  0  0  0
   -7.1625    3.6042    6.2179 H   0  0  0  0  0  0  0  0  0  0  0  0
   -8.6039    5.3389    5.1034 H   0  0  0  0  0  0  0  0  0  0  0  0
   -6.8900    4.3541    8.3932 H   0  0  0  0  0  0  0  0  0  0  0  0
   -6.4573    3.0573   10.3533 H   0  0  0  0  0  0  0  0  0  0  0  0
   -8.0327    1.1794   10.9071 H   0  0  0  0  0  0  0  0  0  0  0  0
   -9.8346    0.7090    9.2109 H   0  0  0  0  0  0  0  0  0  0  0  0
  1  2  1  0  0  0  0
  1  6  1  0  0  0  0
  1 32  1  0  0  0  0
  1 33  1  0  0  0  0
  2  3  1  0  0  0  0
  2 34  1  0  0  0  0
  2 35  1  0  0  0  0
  3  4  1  0  0  0  0
  3  7  1  0  0  0  0
  4  5  1  0  0  0  0
  4 36  1  0  0  0  0
  4 37  1  0  0  0  0
  5  6  1  0  0  0  0
  5 38  1  0  0  0  0
  5 39  1  0  0  0  0
  6 40  1  0  0  0  0
  7  8  2  0  0  0  0
  7 12  1  0  0  0  0
  8  9  1  0  0  0  0
  8 41  1  0  0  0  0
  9 10  2  0  0  0  0
  9 42  1  0  0  0  0
 10 11  1  0  0  0  0
 10 13  1  0  0  0  0
 11 12  2  0  0  0  0
 11 43  1  0  0  0  0
 12 44  1  0  0  0  0
 13 14  1  0  0  0  0
 13 21  2  0  0  0  0
 14 15  2  0  0  0  0
 14 45  1  0  0  0  0
 15 16  1  0  0  0  0
 16 17  2  0  0  0  0
 16 20  1  0  0  0  0
 17 18  1  0  0  0  0
 17 22  1  0  0  0  0
 18 19  2  0  0  0  0
 18 46  1  0  0  0  0
 19 20  1  0  0  0  0
 20 21  1  0  0  0  0
 21 47  1  0  0  0  0
 22 23  2  0  0  0  0
 22 31  1  0  0  0  0
 23 24  1  0  0  0  0
 23 48  1  0  0  0  0
 24 25  2  0  0  0  0
 24 49  1  0  0  0  0
 25 26  1  0  0  0  0
 26 27  2  0  0  0  0
 26 31  1  0  0  0  0
 27 28  1  0  0  0  0
 27 50  1  0  0  0  0
 28 29  2  0  0  0  0
 28 51  1  0  0  0  0
 29 30  1  0  0  0  0
 29 52  1  0  0  0  0
 30 31  2  0  0  0  0
 30 53  1  0  0  0  0
M  END
>  <DRUGBANK_ID>
DB18051

>  <COMMON_NAME>
LDN-193189

>  <CAS_NUMBER>
1062368-24-4

>  <UNII>
W69H5YQU9O

>  <SYNONYMS>
4-(6-(4-(piperazin-1-yl)phenyl_pyrazolo[1,5-a]pyrimidin-3-yl)quinoline; Quinoline, 4-(6-(4-(1-piperazinyl)phenyl)pyrazolo(1,5-a)pyrimidin-3-yl)-

$$$$
