
 OpenBabel10282417153D

 69 73  0  0  1  0  0  0  0  0999 V2000
   -3.6449    1.1687   -1.4551 C   0  0  0  0  0  0  0  0  0  0  0  0
   -2.4653    0.3079   -1.7670 C   0  0  1  0  0  0  0  0  0  0  0  0
   -2.9303   -1.1540   -1.6612 C   0  0  2  0  0  0  0  0  0  0  0  0
   -1.9495   -2.1116   -2.2596 C   0  0  2  0  0  0  0  0  0  0  0  0
   -1.0683   -1.6847   -3.4336 C   0  0  0  0  0  0  0  0  0  0  0  0
   -0.5764   -0.2498   -3.1179 C   0  0  1  0  0  0  0  0  0  0  0  0
   -1.7070    0.6175   -2.9275 O   0  0  0  0  0  0  0  0  0  0  0  0
    0.4835   -0.2278   -2.1077 O   0  0  0  0  0  0  0  0  0  0  0  0
    0.2898   -0.6220   -0.7407 C   0  0  1  0  0  0  0  0  0  0  0  0
    0.2067   -2.1094   -0.4063 C   0  0  0  0  0  0  0  0  0  0  0  0
    1.4149   -2.8691   -0.8554 C   0  0  1  0  0  0  0  0  0  0  0  0
    2.1932   -2.6174    0.4189 C   0  0  0  0  0  0  0  0  0  0  0  0
    2.2706   -1.0969    0.7359 C   0  0  0  0  0  0  0  0  0  0  0  0
    1.3906   -0.1319    0.1534 C   0  0  0  0  0  0  0  0  0  0  0  0
    1.3990    1.2229    0.5228 C   0  0  0  0  0  0  0  0  0  0  0  0
    2.3351    1.6460    1.4508 C   0  0  0  0  0  0  0  0  0  0  0  0
    3.1993    0.7044    2.0276 C   0  0  0  0  0  0  0  0  0  0  0  0
    3.1449   -0.6582    1.7010 C   0  0  0  0  0  0  0  0  0  0  0  0
    3.9325   -1.5690    2.3380 O   0  0  0  0  0  0  0  0  0  0  0  0
    4.2161    1.1480    2.9897 C   0  0  0  0  0  0  0  0  0  0  0  0
    4.9966    0.3875    3.5115 O   0  0  0  0  0  0  0  0  0  0  0  0
    4.3008    2.5759    3.3127 C   0  0  0  0  0  0  0  0  0  0  0  0
    5.3031    2.9410    4.2085 C   0  0  0  0  0  0  0  0  0  0  0  0
    5.4444    4.2685    4.5626 C   0  0  0  0  0  0  0  0  0  0  0  0
    4.5888    5.2268    4.0223 C   0  0  0  0  0  0  0  0  0  0  0  0
    3.5791    4.8728    3.1200 C   0  0  0  0  0  0  0  0  0  0  0  0
    3.4381    3.5239    2.7635 C   0  0  0  0  0  0  0  0  0  0  0  0
    2.3955    3.0771    1.8122 C   0  0  0  0  0  0  0  0  0  0  0  0
    1.5884    3.8356    1.3050 O   0  0  0  0  0  0  0  0  0  0  0  0
    2.7169    5.7742    2.5626 O   0  0  0  0  0  0  0  0  0  0  0  0
    2.8539    7.1399    2.9194 C   0  0  0  0  0  0  0  0  0  0  0  0
    0.4429    2.0550   -0.0108 O   0  0  0  0  0  0  0  0  0  0  0  0
    1.0447   -4.3439   -1.2437 C   0  0  0  0  0  0  0  0  0  0  0  0
    0.4375   -4.6702   -2.6590 C   0  0  0  0  0  0  0  0  0  0  0  0
    1.3229   -4.4230   -3.7308 O   0  0  0  0  0  0  0  0  0  0  0  0
    2.1575   -2.3436   -1.9443 O   0  0  0  0  0  0  0  0  0  0  0  0
   -2.3095   -3.4912   -1.8080 N   0  0  0  0  0  0  0  0  0  0  0  0
   -4.1540   -1.5278   -2.2557 O   0  0  0  0  0  0  0  0  0  0  0  0
   -3.3543    2.2173   -1.4459 H   0  0  0  0  0  0  0  0  0  0  0  0
   -3.9855    0.8889   -0.4456 H   0  0  0  0  0  0  0  0  0  0  0  0
   -4.4352    0.9869   -2.1759 H   0  0  0  0  0  0  0  0  0  0  0  0
   -1.8274    0.6365   -0.9595 H   0  0  0  0  0  0  0  0  0  0  0  0
   -3.0096   -1.3726   -0.5783 H   0  0  0  0  0  0  0  0  0  0  0  0
   -1.2645   -1.7594   -1.5871 H   0  0  0  0  0  0  0  0  0  0  0  0
   -0.1522   -2.2664   -3.5218 H   0  0  0  0  0  0  0  0  0  0  0  0
   -1.6041   -1.7660   -4.3783 H   0  0  0  0  0  0  0  0  0  0  0  0
   -0.0647    0.1160   -4.0208 H   0  0  0  0  0  0  0  0  0  0  0  0
   -0.5687   -0.1714   -0.2746 H   0  0  0  0  0  0  0  0  0  0  0  0
   -0.5136   -2.8022   -0.7377 H   0  0  0  0  0  0  0  0  0  0  0  0
   -0.1550   -2.1748    0.6410 H   0  0  0  0  0  0  0  0  0  0  0  0
    1.6782   -3.1004    1.2699 H   0  0  0  0  0  0  0  0  0  0  0  0
    3.1836   -3.0404    0.2935 H   0  0  0  0  0  0  0  0  0  0  0  0
    3.8145   -2.4641    1.9935 H   0  0  0  0  0  0  0  0  0  0  0  0
    5.9694    2.1878    4.6258 H   0  0  0  0  0  0  0  0  0  0  0  0
    6.2235    4.5538    5.2613 H   0  0  0  0  0  0  0  0  0  0  0  0
    4.7385    6.2549    4.3296 H   0  0  0  0  0  0  0  0  0  0  0  0
    2.6858    7.2789    3.9919 H   0  0  0  0  0  0  0  0  0  0  0  0
    3.8323    7.5242    2.6145 H   0  0  0  0  0  0  0  0  0  0  0  0
    2.0884    7.7080    2.3836 H   0  0  0  0  0  0  0  0  0  0  0  0
    0.6069    2.9850    0.2836 H   0  0  0  0  0  0  0  0  0  0  0  0
    1.9728   -4.9123   -1.2055 H   0  0  0  0  0  0  0  0  0  0  0  0
    0.3713   -4.7520   -0.4756 H   0  0  0  0  0  0  0  0  0  0  0  0
    0.1259   -5.7215   -2.6830 H   0  0  0  0  0  0  0  0  0  0  0  0
   -0.4624   -4.1584   -2.9708 H   0  0  0  0  0  0  0  0  0  0  0  0
    1.4181   -3.4577   -3.8038 H   0  0  0  0  0  0  0  0  0  0  0  0
    1.5901   -1.7877   -2.5050 H   0  0  0  0  0  0  0  0  0  0  0  0
   -2.6296   -3.4477   -0.8274 H   0  0  0  0  0  0  0  0  0  0  0  0
   -1.4892   -4.0691   -1.6262 H   0  0  0  0  0  0  0  0  0  0  0  0
   -4.0962   -2.5121   -2.2678 H   0  0  0  0  0  0  0  0  0  0  0  0
  1 39  1  0  0  0  0
  1 40  1  0  0  0  0
  1 41  1  0  0  0  0
  2  7  1  0  0  0  0
  2 42  1  1  0  0  0
  2  1  1  0  0  0  0
  3  2  1  0  0  0  0
  3  4  1  0  0  0  0
  3 43  1  1  0  0  0
  3 38  1  0  0  0  0
  4  5  1  0  0  0  0
  4 44  1  1  0  0  0
  4 37  1  0  0  0  0
  5 45  1  0  0  0  0
  5 46  1  0  0  0  0
  6  5  1  0  0  0  0
  6  7  1  0  0  0  0
  6  8  1  0  0  0  0
  6 47  1  6  0  0  0
  9 10  1  0  0  0  0
  9 14  1  0  0  0  0
  9 48  1  1  0  0  0
  9  8  1  0  0  0  0
 10 49  1  0  0  0  0
 10 50  1  0  0  0  0
 11 10  1  0  0  0  0
 11 12  1  0  0  0  0
 11 33  1  0  0  0  0
 11 36  1  6  0  0  0
 12 13  1  0  0  0  0
 12 51  1  0  0  0  0
 12 52  1  0  0  0  0
 13 14  2  0  0  0  0
 13 18  1  0  0  0  0
 14 15  1  0  0  0  0
 15 16  2  0  0  0  0
 15 32  1  0  0  0  0
 16 17  1  0  0  0  0
 16 28  1  0  0  0  0
 17 18  2  0  0  0  0
 17 20  1  0  0  0  0
 18 19  1  0  0  0  0
 19 53  1  0  0  0  0
 20 21  2  0  0  0  0
 20 22  1  0  0  0  0
 22 23  2  0  0  0  0
 22 27  1  0  0  0  0
 23 24  1  0  0  0  0
 23 54  1  0  0  0  0
 24 25  2  0  0  0  0
 24 55  1  0  0  0  0
 25 26  1  0  0  0  0
 25 56  1  0  0  0  0
 26 27  2  0  0  0  0
 26 30  1  0  0  0  0
 27 28  1  0  0  0  0
 28 29  2  0  0  0  0
 30 31  1  0  0  0  0
 31 57  1  0  0  0  0
 31 58  1  0  0  0  0
 31 59  1  0  0  0  0
 32 60  1  0  0  0  0
 33 34  1  0  0  0  0
 33 61  1  0  0  0  0
 33 62  1  0  0  0  0
 34 35  1  0  0  0  0
 34 63  1  0  0  0  0
 34 64  1  0  0  0  0
 35 65  1  0  0  0  0
 36 66  1  0  0  0  0
 37 67  1  0  0  0  0
 37 68  1  0  0  0  0
 38 69  1  0  0  0  0
M  END
>  <DRUGBANK_ID>
DB05706

>  <COMMON_NAME>
13-deoxydoxorubicin

>  <CAS_NUMBER>
628290-43-7

>  <UNII>
1S9VO1DQG5

$$$$
