
 OpenBabel10282417203D

 13 13  0  0  0  0  0  0  0  0999 V2000
   -3.2883   -0.0408    0.0014 O   0  0  0  0  0  0  0  0  0  0  0  0
   -1.9260    0.0010   -0.0021 C   0  0  0  0  0  0  0  0  0  0  0  0
   -1.2394    1.2124   -0.0044 C   0  0  0  0  0  0  0  0  0  0  0  0
    0.1574    1.2078   -0.0040 C   0  0  0  0  0  0  0  0  0  0  0  0
    0.8485   -0.0046   -0.0034 C   0  0  0  0  0  0  0  0  0  0  0  0
    2.5692   -0.0049   -0.0006 Cl  0  0  0  0  0  0  0  0  0  0  0  0
    0.1550   -1.2144   -0.0044 C   0  0  0  0  0  0  0  0  0  0  0  0
   -1.2407   -1.2100   -0.0031 C   0  0  0  0  0  0  0  0  0  0  0  0
   -3.6297    0.8686    0.0081 H   0  0  0  0  0  0  0  0  0  0  0  0
   -1.7681    2.1602   -0.0063 H   0  0  0  0  0  0  0  0  0  0  0  0
    0.7004    2.1491   -0.0041 H   0  0  0  0  0  0  0  0  0  0  0  0
    0.6916   -2.1590   -0.0059 H   0  0  0  0  0  0  0  0  0  0  0  0
   -1.7912   -2.1469   -0.0024 H   0  0  0  0  0  0  0  0  0  0  0  0
  1  2  1  0  0  0  0
  1  9  1  0  0  0  0
  2  3  2  0  0  0  0
  2  8  1  0  0  0  0
  3  4  1  0  0  0  0
  3 10  1  0  0  0  0
  4  5  2  0  0  0  0
  4 11  1  0  0  0  0
  5  6  1  0  0  0  0
  5  7  1  0  0  0  0
  7  8  2  0  0  0  0
  7 12  1  0  0  0  0
  8 13  1  0  0  0  0
M  END
>  <DRUGBANK_ID>
DB13154

>  <COMMON_NAME>
Parachlorophenol

>  <CAS_NUMBER>
106-48-9

>  <UNII>
3DLC36A01X

>  <SYNONYMS>
4-Chlorophenol; 4-chlorphenol; p-Chlorophenol; Parachlorophenol

$$$$
