
 OpenBabel10282417133D

 19 19  0  0  0  0  0  0  0  0999 V2000
    2.4651   -0.0069   -0.0141 C   0  0  0  0  0  0  0  0  0  0  0  0
    0.9624   -0.0005   -0.0061 C   0  0  0  0  0  0  0  0  0  0  0  0
    0.2583    1.2105   -0.0032 C   0  0  0  0  0  0  0  0  0  0  0  0
   -1.1380    1.2214   -0.0028 C   0  0  0  0  0  0  0  0  0  0  0  0
   -1.8372    0.0126   -0.0054 C   0  0  0  0  0  0  0  0  0  0  0  0
   -1.1523   -1.2054   -0.0068 C   0  0  0  0  0  0  0  0  0  0  0  0
    0.2468   -1.2074   -0.0043 C   0  0  0  0  0  0  0  0  0  0  0  0
   -3.6144    0.0185   -0.0118 S   0  0  0  0  0  0  0  0  0  0  0  0
   -3.9912   -0.7876   -1.3617 O   0  0  0  0  0  0  0  0  0  0  0  0
   -4.0591   -0.7627    1.1221 O   0  0  0  0  0  0  0  0  0  0  0  0
   -4.0521    1.3799   -0.2268 O   0  0  0  0  0  0  0  0  0  0  0  0
    2.8525   -0.5296    0.8662 H   0  0  0  0  0  0  0  0  0  0  0  0
    2.8364   -0.4980   -0.9193 H   0  0  0  0  0  0  0  0  0  0  0  0
    2.8687    1.0116    0.0001 H   0  0  0  0  0  0  0  0  0  0  0  0
    0.7957    2.1568    0.0046 H   0  0  0  0  0  0  0  0  0  0  0  0
   -1.6635    2.1735    0.0078 H   0  0  0  0  0  0  0  0  0  0  0  0
   -1.6956   -2.1484    0.0051 H   0  0  0  0  0  0  0  0  0  0  0  0
    0.7800   -2.1566    0.0054 H   0  0  0  0  0  0  0  0  0  0  0  0
   -3.8277   -0.2141   -2.1380 H   0  0  0  0  0  0  0  0  0  0  0  0
  1  2  1  0  0  0  0
  1 12  1  0  0  0  0
  1 13  1  0  0  0  0
  1 14  1  0  0  0  0
  2  3  2  0  0  0  0
  2  7  1  0  0  0  0
  3  4  1  0  0  0  0
  3 15  1  0  0  0  0
  4  5  2  0  0  0  0
  4 16  1  0  0  0  0
  5  6  1  0  0  0  0
  5  8  1  0  0  0  0
  6  7  2  0  0  0  0
  6 17  1  0  0  0  0
  7 18  1  0  0  0  0
  8  9  1  0  0  0  0
  8 10  2  0  0  0  0
  8 11  2  0  0  0  0
  9 19  1  0  0  0  0
M  END
>  <DRUGBANK_ID>
DB03120

>  <SECONDARY_ACCESSION_NUMBERS>
EXPT03125

>  <COMMON_NAME>
p-Toluenesulfonic acid

>  <CAS_NUMBER>
104-15-4

>  <UNII>
QGV5ZG5741

>  <SYNONYMS>
4-toluenesulfonic acid; p-methylbenzenesulfonic acid; p-methylphenylsulfonic acid; p-toluenesulfonic acid; p-toluenesulphonic acid; p-tolylsulfonic acid; para-toluene sulfonate; toluene-4-sulfonic acid; Tosic acid; Tosylic acid

$$$$
