
 OpenBabel10282417123D

 23 22  0  0  1  0  0  0  0  0999 V2000
    1.3843    2.3769   -1.2226 C   0  0  0  0  0  0  0  0  0  0  0  0
    0.9675    3.0252   -2.5454 C   0  0  0  0  0  0  0  0  0  0  0  0
    0.6833    2.9923   -0.0153 C   0  0  0  0  0  0  0  0  0  0  0  0
   -0.4808    2.7567   -2.9526 C   0  0  0  0  0  0  0  0  0  0  0  0
    1.0288    2.2754    1.2905 C   0  0  2  0  0  0  0  0  0  0  0  0
    0.1977    0.9717    1.3265 C   0  0  0  0  0  0  0  0  0  0  0  0
    0.5685    3.1036    2.4250 N   0  0  0  0  0  0  0  0  0  0  0  0
   -1.4122    3.4057   -2.1017 O   0  0  0  0  0  0  0  0  0  0  0  0
    0.5917   -0.1706    1.4101 O   0  0  0  0  0  0  0  0  0  0  0  0
   -1.1347    1.2735    1.2260 O   0  0  0  0  0  0  0  0  0  0  0  0
    2.1046    2.0817    1.3659 H   0  0  0  0  0  0  0  0  0  0  0  0
    2.4657    2.5075   -1.0921 H   0  0  0  0  0  0  0  0  0  0  0  0
    1.2006    1.2970   -1.2758 H   0  0  0  0  0  0  0  0  0  0  0  0
    1.1431    4.1052   -2.4814 H   0  0  0  0  0  0  0  0  0  0  0  0
    1.6221    2.6321   -3.3328 H   0  0  0  0  0  0  0  0  0  0  0  0
    0.8715    4.0705    0.0241 H   0  0  0  0  0  0  0  0  0  0  0  0
   -0.3893    2.9052   -0.1321 H   0  0  0  0  0  0  0  0  0  0  0  0
   -0.6554    3.1556   -3.9546 H   0  0  0  0  0  0  0  0  0  0  0  0
   -0.6947    1.6829   -2.9700 H   0  0  0  0  0  0  0  0  0  0  0  0
    0.8376    4.0732    2.2716 H   0  0  0  0  0  0  0  0  0  0  0  0
   -0.4561    3.0979    2.3798 H   0  0  0  0  0  0  0  0  0  0  0  0
   -1.6513    2.7789   -1.3975 H   0  0  0  0  0  0  0  0  0  0  0  0
   -1.6430    0.4412    1.2191 H   0  0  0  0  0  0  0  0  0  0  0  0
  1 12  1  0  0  0  0
  1 13  1  0  0  0  0
  2  1  1  0  0  0  0
  2 14  1  0  0  0  0
  2 15  1  0  0  0  0
  3  1  1  0  0  0  0
  3 16  1  0  0  0  0
  3 17  1  0  0  0  0
  4  2  1  0  0  0  0
  4 18  1  0  0  0  0
  4 19  1  0  0  0  0
  5  7  1  0  0  0  0
  5 11  1  1  0  0  0
  5  6  1  0  0  0  0
  5  3  1  0  0  0  0
  7 20  1  0  0  0  0
  7 21  1  0  0  0  0
  8  4  1  0  0  0  0
  8 22  1  0  0  0  0
  9  6  2  0  0  0  0
 10  6  1  0  0  0  0
 10 23  1  0  0  0  0
M  END
>  <DRUGBANK_ID>
DB02233

>  <SECONDARY_ACCESSION_NUMBERS>
EXPT01147

>  <COMMON_NAME>
6-hydroxy-D-norleucine

$$$$
