MLN
 OpenBabel10282417123D

 58 58  0  0  0  0  0  0  0  0999 V2000
    4.2835    2.5411    0.2252 O   0  0  0  0  0  0  0  0  0  0  0  0
    4.2733    1.0990    1.1807 P   0  0  0  0  0  0  0  0  0  0  0  0
    3.5454    1.8319    2.2928 O   0  0  0  0  0  0  0  0  0  0  0  0
    3.2355    0.3978    0.1010 O   0  0  0  0  0  0  0  0  0  0  0  0
    4.2631   -0.3431    2.1363 O   0  0  0  0  0  0  0  0  0  0  0  0
    2.6363    1.2105   -0.9117 C   0  0  2  0  0  0  0  0  0  0  0  0
    1.6957    2.2402   -0.2742 C   0  0  0  0  0  0  0  0  0  0  0  0
    1.8633    0.4755   -1.9972 C   0  0  0  0  0  0  0  0  0  0  0  0
    1.4502    1.4639   -3.1061 C   0  0  0  0  0  0  0  0  0  0  0  0
    2.6457    2.1505   -3.7761 C   0  0  0  0  0  0  0  0  0  0  0  0
    3.5853    1.1207   -4.3798 C   0  0  0  0  0  0  0  0  0  0  0  0
    1.7962    3.4459   -0.5012 O   0  0  0  0  0  0  0  0  0  0  0  0
    0.7849    1.7771    0.6132 N   0  0  0  0  0  0  0  0  0  0  0  0
    0.6129    0.3829    1.0266 C   0  0  1  0  0  0  0  0  0  0  0  0
    0.7419    0.2850    2.5462 C   0  0  0  0  0  0  0  0  0  0  0  0
   -0.2969    1.0698    3.3556 C   0  0  0  0  0  0  0  0  0  0  0  0
   -1.6985    0.5452    3.1207 C   0  0  0  0  0  0  0  0  0  0  0  0
   -0.0196    0.9745    4.8472 C   0  0  0  0  0  0  0  0  0  0  0  0
   -0.6552   -0.0881    0.3277 C   0  0  0  0  0  0  0  0  0  0  0  0
   -0.6698   -1.3568   -0.2203 N   0  0  0  0  0  0  0  0  0  0  0  0
   -1.6056    0.7050    0.2361 O   0  0  0  0  0  0  0  0  0  0  0  0
   -1.8402   -1.9194   -0.7806 C   0  0  0  0  0  0  0  0  0  0  0  0
   -2.9211   -1.1200   -1.1853 C   0  0  0  0  0  0  0  0  0  0  0  0
   -4.1106   -1.6633   -1.6443 C   0  0  0  0  0  0  0  0  0  0  0  0
   -4.2146   -3.0430   -1.7448 C   0  0  0  0  0  0  0  0  0  0  0  0
   -3.1253   -3.8668   -1.4143 C   0  0  0  0  0  0  0  0  0  0  0  0
   -1.9465   -3.3040   -0.9017 C   0  0  0  0  0  0  0  0  0  0  0  0
   -5.4922   -3.6280   -2.1540 N   0  3  0  0  0  0  0  0  0  0  0  0
   -5.5610   -4.8621   -2.2197 O   0  5  0  0  0  0  0  0  0  0  0  0
   -6.4321   -2.8551   -2.3933 O   0  0  0  0  0  0  0  0  0  0  0  0
    3.4575    1.6941   -1.4350 H   0  0  0  0  0  0  0  0  0  0  0  0
    1.3843   -0.2642    0.6284 H   0  0  0  0  0  0  0  0  0  0  0  0
    3.5499    3.1688    0.4102 H   0  0  0  0  0  0  0  0  0  0  0  0
    3.8938   -0.0455    2.9930 H   0  0  0  0  0  0  0  0  0  0  0  0
    2.4629   -0.3528   -2.3825 H   0  0  0  0  0  0  0  0  0  0  0  0
    0.9608    0.0113   -1.6152 H   0  0  0  0  0  0  0  0  0  0  0  0
    0.8593    0.9299   -3.8561 H   0  0  0  0  0  0  0  0  0  0  0  0
    0.7844    2.2365   -2.6977 H   0  0  0  0  0  0  0  0  0  0  0  0
    2.2878    2.8363   -4.5499 H   0  0  0  0  0  0  0  0  0  0  0  0
    3.1953    2.7839   -3.0692 H   0  0  0  0  0  0  0  0  0  0  0  0
    3.0510    0.5242   -5.1246 H   0  0  0  0  0  0  0  0  0  0  0  0
    4.4400    1.6062   -4.8532 H   0  0  0  0  0  0  0  0  0  0  0  0
    3.9855    0.4379   -3.6233 H   0  0  0  0  0  0  0  0  0  0  0  0
    0.1042    2.4617    0.9307 H   0  0  0  0  0  0  0  0  0  0  0  0
    0.7786   -0.7670    2.8457 H   0  0  0  0  0  0  0  0  0  0  0  0
    1.7163    0.6877    2.8330 H   0  0  0  0  0  0  0  0  0  0  0  0
   -0.2519    2.1299    3.0741 H   0  0  0  0  0  0  0  0  0  0  0  0
   -1.7121   -0.5500    3.1134 H   0  0  0  0  0  0  0  0  0  0  0  0
   -2.4217    0.9217    3.8424 H   0  0  0  0  0  0  0  0  0  0  0  0
   -2.0737    0.9298    2.1875 H   0  0  0  0  0  0  0  0  0  0  0  0
    0.9419    1.4228    5.1100 H   0  0  0  0  0  0  0  0  0  0  0  0
   -0.8049    1.5081    5.3934 H   0  0  0  0  0  0  0  0  0  0  0  0
   -0.0277   -0.0708    5.1706 H   0  0  0  0  0  0  0  0  0  0  0  0
    0.2015   -1.8693   -0.3461 H   0  0  0  0  0  0  0  0  0  0  0  0
   -2.8856   -0.0364   -1.1702 H   0  0  0  0  0  0  0  0  0  0  0  0
   -4.9211   -0.9862   -1.9040 H   0  0  0  0  0  0  0  0  0  0  0  0
   -3.1922   -4.9458   -1.5284 H   0  0  0  0  0  0  0  0  0  0  0  0
   -1.1630   -3.9631   -0.5332 H   0  0  0  0  0  0  0  0  0  0  0  0
  1  2  1  0  0  0  0
  1 33  1  0  0  0  0
  2  3  2  0  0  0  0
  2  4  1  0  0  0  0
  2  5  1  0  0  0  0
  5 34  1  0  0  0  0
  6  8  1  0  0  0  0
  6 31  1  6  0  0  0
  6  7  1  0  0  0  0
  6  4  1  0  0  0  0
  7 12  2  0  0  0  0
  7 13  1  0  0  0  0
  8  9  1  0  0  0  0
  8 35  1  0  0  0  0
  8 36  1  0  0  0  0
  9 10  1  0  0  0  0
  9 37  1  0  0  0  0
  9 38  1  0  0  0  0
 10 11  1  0  0  0  0
 10 39  1  0  0  0  0
 10 40  1  0  0  0  0
 11 41  1  0  0  0  0
 11 42  1  0  0  0  0
 11 43  1  0  0  0  0
 13 44  1  0  0  0  0
 14 13  1  0  0  0  0
 14 15  1  0  0  0  0
 14 19  1  0  0  0  0
 14 32  1  6  0  0  0
 15 16  1  0  0  0  0
 15 45  1  0  0  0  0
 15 46  1  0  0  0  0
 16 17  1  0  0  0  0
 16 18  1  0  0  0  0
 16 47  1  0  0  0  0
 17 48  1  0  0  0  0
 17 49  1  0  0  0  0
 17 50  1  0  0  0  0
 18 51  1  0  0  0  0
 18 52  1  0  0  0  0
 18 53  1  0  0  0  0
 19 20  1  0  0  0  0
 19 21  2  0  0  0  0
 20 22  1  0  0  0  0
 20 54  1  0  0  0  0
 22 23  2  0  0  0  0
 22 27  1  0  0  0  0
 23 24  1  0  0  0  0
 23 55  1  0  0  0  0
 24 25  2  0  0  0  0
 24 56  1  0  0  0  0
 25 26  1  0  0  0  0
 25 28  1  0  0  0  0
 26 27  2  0  0  0  0
 26 57  1  0  0  0  0
 27 58  1  0  0  0  0
 28 29  1  0  0  0  0
 28 30  2  0  0  0  0
M  CHG  2  28   1  29  -1
M  END
>  <DRUGBANK_ID>
DB02276

>  <SECONDARY_ACCESSION_NUMBERS>
EXPT02185

>  <COMMON_NAME>
(S)-2-(Phosphonoxy)Caproyl-L-Leucyl-P-Nitroanilide

$$$$
