578
 OpenBabel10282417163D

 58 59  0  0  0  0  0  0  0  0999 V2000
    0.9869   -0.2365   -0.9353 C   0  0  0  0  0  0  0  0  0  0  0  0
    0.6189    1.0834   -0.5817 C   0  0  0  0  0  0  0  0  0  0  0  0
   -0.6782    1.3375   -0.1714 C   0  0  0  0  0  0  0  0  0  0  0  0
   -1.6076    0.2968   -0.1897 C   0  0  0  0  0  0  0  0  0  0  0  0
   -1.2122   -1.0296   -0.4130 C   0  0  0  0  0  0  0  0  0  0  0  0
    0.1152   -1.3297   -0.6682 C   0  0  0  0  0  0  0  0  0  0  0  0
    0.5834   -2.7712   -0.3609 C   0  0  0  0  0  0  0  0  0  0  0  0
    0.3316   -3.3759    1.2259 O   0  0  0  0  0  0  0  0  0  0  0  0
    0.8927   -3.6137    2.5832 C   0  0  0  0  0  0  0  0  0  0  0  0
    0.5327   -4.6118    3.2116 O   0  0  0  0  0  0  0  0  0  0  0  0
    1.8083   -2.7788    3.3658 N   0  0  0  0  0  0  0  0  0  0  0  0
    2.0731   -1.2808    3.9181 C   0  0  1  0  0  0  0  0  0  0  0  0
    3.6707   -1.3174    4.3864 C   0  0  0  0  0  0  0  0  0  0  0  0
    3.9606   -0.8007    5.7820 C   0  0  0  0  0  0  0  0  0  0  0  0
    4.6179   -0.5848    3.5172 C   0  0  0  0  0  0  0  0  0  0  0  0
    1.4088    0.4049    4.1755 P   0  0  2  0  0  0  0  0  0  0  0  0
    2.6493    1.1795    3.7930 O   0  0  0  0  0  0  0  0  0  0  0  0
    0.7809    1.9984    4.4188 O   0  0  0  0  0  0  0  0  0  0  0  0
    0.3323    0.2784    2.9625 O   0  0  0  0  0  0  0  0  0  0  0  0
    0.2481   -1.0131    2.4117 C   0  0  2  0  0  0  0  0  0  0  0  0
   -0.5509   -1.9146    3.6671 C   0  0  0  0  0  0  0  0  0  0  0  0
   -1.5177   -2.6946    3.5033 O   0  0  0  0  0  0  0  0  0  0  0  0
   -0.0623   -1.8585    4.9385 O   0  0  0  0  0  0  0  0  0  0  0  0
    1.8444   -1.2013    1.5236 C   0  0  0  0  0  0  0  0  0  0  0  0
    2.5886   -0.0463    1.3045 C   0  0  0  0  0  0  0  0  0  0  0  0
    2.6494   -2.4060    1.0971 C   0  0  0  0  0  0  0  0  0  0  0  0
    3.9679   -2.5090    0.7011 C   0  0  0  0  0  0  0  0  0  0  0  0
    4.5820   -1.3299    0.4492 C   0  0  0  0  0  0  0  0  0  0  0  0
    3.9142   -0.1062    0.7529 C   0  0  0  0  0  0  0  0  0  0  0  0
    4.7292    1.1572    0.7178 C   0  0  0  0  0  0  0  0  0  0  0  0
    5.9579    1.0934    1.5163 N   0  0  0  0  0  0  0  0  0  0  0  0
    1.8438   -1.5693    4.9481 H   0  0  0  0  0  0  0  0  0  0  0  0
   -0.5683   -1.0310    1.7186 H   0  0  0  0  0  0  0  0  0  0  0  0
    2.0491   -0.4065   -1.1319 H   0  0  0  0  0  0  0  0  0  0  0  0
    1.3756    1.8677   -0.4623 H   0  0  0  0  0  0  0  0  0  0  0  0
   -0.9529    2.3197    0.2088 H   0  0  0  0  0  0  0  0  0  0  0  0
   -2.6331    0.4911    0.0981 H   0  0  0  0  0  0  0  0  0  0  0  0
   -1.8835   -1.8471   -0.1669 H   0  0  0  0  0  0  0  0  0  0  0  0
    0.0732   -3.4939   -1.0014 H   0  0  0  0  0  0  0  0  0  0  0  0
    1.6236   -2.9010   -0.6950 H   0  0  0  0  0  0  0  0  0  0  0  0
    2.7355   -2.9302    2.9929 H   0  0  0  0  0  0  0  0  0  0  0  0
    4.0187   -2.3550    4.3400 H   0  0  0  0  0  0  0  0  0  0  0  0
    3.5224   -1.4659    6.5215 H   0  0  0  0  0  0  0  0  0  0  0  0
    5.0478   -0.7804    5.9308 H   0  0  0  0  0  0  0  0  0  0  0  0
    3.5958    0.2189    5.9246 H   0  0  0  0  0  0  0  0  0  0  0  0
    4.3871    0.4600    3.3974 H   0  0  0  0  0  0  0  0  0  0  0  0
    5.6727   -0.6418    3.7649 H   0  0  0  0  0  0  0  0  0  0  0  0
    4.5332   -1.1138    2.6135 H   0  0  0  0  0  0  0  0  0  0  0  0
    0.7408    2.2173    5.3650 H   0  0  0  0  0  0  0  0  0  0  0  0
    0.1804   -2.8027    5.1736 H   0  0  0  0  0  0  0  0  0  0  0  0
    2.1759    0.9213    1.5872 H   0  0  0  0  0  0  0  0  0  0  0  0
    2.3495   -3.4621    1.1237 H   0  0  0  0  0  0  0  0  0  0  0  0
    4.4638   -3.4828    0.7543 H   0  0  0  0  0  0  0  0  0  0  0  0
    5.6475   -1.3575    0.2556 H   0  0  0  0  0  0  0  0  0  0  0  0
    5.0018    1.3003   -0.3244 H   0  0  0  0  0  0  0  0  0  0  0  0
    4.1163    1.9936    1.0625 H   0  0  0  0  0  0  0  0  0  0  0  0
    6.4732    1.9558    1.3887 H   0  0  0  0  0  0  0  0  0  0  0  0
    5.7108    1.1525    2.5025 H   0  0  0  0  0  0  0  0  0  0  0  0
  1  6  1  0  0  0  0
  1  2  2  0  0  0  0
  1 34  1  0  0  0  0
  2  3  1  0  0  0  0
  2 35  1  0  0  0  0
  3  4  2  0  0  0  0
  3 36  1  0  0  0  0
  4  5  1  0  0  0  0
  4 37  1  0  0  0  0
  5  6  2  0  0  0  0
  5 38  1  0  0  0  0
  6  7  1  0  0  0  0
  7  8  1  0  0  0  0
  7 39  1  0  0  0  0
  7 40  1  0  0  0  0
  8  9  1  0  0  0  0
  9 11  1  0  0  0  0
  9 10  2  0  0  0  0
 11 41  1  0  0  0  0
 12 11  1  0  0  0  0
 12 13  1  0  0  0  0
 12 16  1  0  0  0  0
 12 32  1  1  0  0  0
 13 15  1  0  0  0  0
 13 14  1  0  0  0  0
 13 42  1  0  0  0  0
 14 43  1  0  0  0  0
 14 44  1  0  0  0  0
 14 45  1  0  0  0  0
 15 46  1  0  0  0  0
 15 47  1  0  0  0  0
 15 48  1  0  0  0  0
 16 17  2  6  0  0  0
 16 19  1  0  0  0  0
 16 18  1  0  0  0  0
 18 49  1  0  0  0  0
 20 19  1  0  0  0  0
 20 24  1  0  0  0  0
 20 21  1  0  0  0  0
 20 33  1  6  0  0  0
 21 22  2  0  0  0  0
 21 23  1  0  0  0  0
 23 50  1  0  0  0  0
 24 25  2  0  0  0  0
 24 26  1  0  0  0  0
 25 29  1  0  0  0  0
 25 51  1  0  0  0  0
 26 27  2  0  0  0  0
 26 52  1  0  0  0  0
 27 28  1  0  0  0  0
 27 53  1  0  0  0  0
 28 29  2  0  0  0  0
 28 54  1  0  0  0  0
 29 30  1  0  0  0  0
 30 31  1  0  0  0  0
 30 55  1  0  0  0  0
 30 56  1  0  0  0  0
 31 57  1  0  0  0  0
 31 58  1  0  0  0  0
M  END
>  <DRUGBANK_ID>
DB07157

>  <COMMON_NAME>
(5R,6S,8S)-8-[3-(AMINOMETHYL)PHENYL]-6-HYDROXY-5-ISOPROPYL-3-OXO-1-PHENYL-2,7-DIOXA-4-AZA-6-PHOSPHANONAN-9-OIC ACID 6-OXIDE

$$$$
