
 OpenBabel10282417243D

 51 55  0  0  0  0  0  0  0  0999 V2000
   -2.1271   -0.0248   -0.0574 C   0  0  0  0  0  0  0  0  0  0  0  0
   -0.6867   -0.0622   -0.0022 N   0  0  0  0  0  0  0  0  0  0  0  0
   -0.0158    1.1108    0.0186 N   0  0  0  0  0  0  0  0  0  0  0  0
    1.2601    0.7465   -0.0532 C   0  0  0  0  0  0  0  0  0  0  0  0
    1.4017   -0.6435   -0.1340 C   0  0  0  0  0  0  0  0  0  0  0  0
    0.1296   -1.1704   -0.0233 C   0  0  0  0  0  0  0  0  0  0  0  0
   -0.3152   -2.5638    0.0555 C   0  0  0  0  0  0  0  0  0  0  0  0
   -1.1331   -3.0798   -0.9683 C   0  0  0  0  0  0  0  0  0  0  0  0
   -1.5321   -2.2847   -1.9718 F   0  0  0  0  0  0  0  0  0  0  0  0
   -1.5266   -4.4040   -0.9705 C   0  0  0  0  0  0  0  0  0  0  0  0
   -2.5436   -5.0793   -2.1767 Cl  0  0  0  0  0  0  0  0  0  0  0  0
   -1.0590   -5.2402    0.0155 C   0  0  0  0  0  0  0  0  0  0  0  0
   -0.2743   -4.7771    1.0517 C   0  0  0  0  0  0  0  0  0  0  0  0
    0.2997   -5.6465    1.9217 O   0  0  0  0  0  0  0  0  0  0  0  0
   -0.1783   -6.9069    2.4155 C   0  0  0  0  0  0  0  0  0  0  0  0
   -0.3244   -8.2836    1.8162 C   0  0  0  0  0  0  0  0  0  0  0  0
   -1.5526   -7.4621    2.0199 C   0  0  0  0  0  0  0  0  0  0  0  0
    0.1055   -3.4253    1.0881 C   0  0  0  0  0  0  0  0  0  0  0  0
    0.9616   -2.9410    2.1873 C   0  0  0  0  0  0  0  0  0  0  0  0
    1.6108   -2.5665    3.0191 N   0  0  0  0  0  0  0  0  0  0  0  0
    2.6266   -1.3766   -0.1625 C   0  0  0  0  0  0  0  0  0  0  0  0
    2.9067   -2.3253   -1.1590 C   0  0  0  0  0  0  0  0  0  0  0  0
    4.0398   -3.1025   -1.0014 C   0  0  0  0  0  0  0  0  0  0  0  0
    4.6154   -2.9531    0.2564 C   0  0  0  0  0  0  0  0  0  0  0  0
    4.8182   -1.7393    0.7692 C   0  0  0  0  0  0  0  0  0  0  0  0
    3.6019   -1.0578    0.8040 C   0  0  0  0  0  0  0  0  0  0  0  0
    5.9760   -1.8138    1.9159 C   0  0  0  0  0  0  0  0  0  0  0  0
    7.1336   -3.3082    2.3970 C   0  0  0  0  0  0  0  0  0  0  0  0
    8.3585   -2.6664    2.6189 N   0  0  0  0  0  0  0  0  0  0  0  0
    5.1554   -1.6328    2.8830 N   0  0  0  0  0  0  0  0  0  0  0  0
    5.0104   -3.0181    2.9389 N   0  0  0  0  0  0  0  0  0  0  0  0
    5.1141   -3.7809    1.3323 C   0  0  0  0  0  0  0  0  0  0  0  0
    5.9692   -4.4373    0.6958 O   0  0  0  0  0  0  0  0  0  0  0  0
   -2.5017    0.5704    0.7763 H   0  0  0  0  0  0  0  0  0  0  0  0
   -2.4025    0.4177   -1.0169 H   0  0  0  0  0  0  0  0  0  0  0  0
   -2.5367   -1.0325    0.0128 H   0  0  0  0  0  0  0  0  0  0  0  0
    2.0601    1.4774   -0.0472 H   0  0  0  0  0  0  0  0  0  0  0  0
   -1.2580   -6.2870   -0.0832 H   0  0  0  0  0  0  0  0  0  0  0  0
    0.4445   -7.1300    3.2766 H   0  0  0  0  0  0  0  0  0  0  0  0
    0.0035   -8.6182    0.8421 H   0  0  0  0  0  0  0  0  0  0  0  0
   -0.2038   -9.1096    2.5266 H   0  0  0  0  0  0  0  0  0  0  0  0
   -2.2860   -7.6608    2.7894 H   0  0  0  0  0  0  0  0  0  0  0  0
   -2.1265   -7.3086    1.1119 H   0  0  0  0  0  0  0  0  0  0  0  0
    2.2258   -2.4812   -1.9931 H   0  0  0  0  0  0  0  0  0  0  0  0
    4.3635   -3.7857   -1.7898 H   0  0  0  0  0  0  0  0  0  0  0  0
    3.3855   -0.3618    1.6187 H   0  0  0  0  0  0  0  0  0  0  0  0
    6.7932   -4.0111    3.2629 H   0  0  0  0  0  0  0  0  0  0  0  0
    7.3859   -4.2015    1.8069 H   0  0  0  0  0  0  0  0  0  0  0  0
    9.0207   -3.4372    2.5431 H   0  0  0  0  0  0  0  0  0  0  0  0
    8.3831   -2.1773    1.7292 H   0  0  0  0  0  0  0  0  0  0  0  0
    5.7760   -2.9481    3.7085 H   0  0  0  0  0  0  0  0  0  0  0  0
  1  2  1  0  0  0  0
  1 34  1  0  0  0  0
  1 35  1  0  0  0  0
  1 36  1  0  0  0  0
  2  3  1  0  0  0  0
  2  6  1  0  0  0  0
  3  4  2  0  0  0  0
  4  5  1  0  0  0  0
  4 37  1  0  0  0  0
  5  6  2  0  0  0  0
  5 21  1  0  0  0  0
  6  7  1  0  0  0  0
  7  8  2  0  0  0  0
  7 18  1  0  0  0  0
  8  9  1  0  0  0  0
  8 10  1  0  0  0  0
 10 11  1  0  0  0  0
 10 12  2  0  0  0  0
 12 13  1  0  0  0  0
 12 38  1  0  0  0  0
 13 14  1  0  0  0  0
 13 18  2  0  0  0  0
 14 15  1  0  0  0  0
 15 16  1  0  0  0  0
 15 17  1  0  0  0  0
 15 39  1  0  0  0  0
 16 17  1  0  0  0  0
 16 40  1  0  0  0  0
 16 41  1  0  0  0  0
 17 42  1  0  0  0  0
 17 43  1  0  0  0  0
 18 19  1  0  0  0  0
 19 20  3  0  0  0  0
 21 22  2  0  0  0  0
 21 26  1  0  0  0  0
 22 23  1  0  0  0  0
 22 44  1  0  0  0  0
 23 24  2  0  0  0  0
 23 45  1  0  0  0  0
 24 25  1  0  0  0  0
 24 32  1  0  0  0  0
 25 26  2  0  0  0  0
 25 27  1  0  0  0  0
 26 46  1  0  0  0  0
 27 28  1  0  0  0  0
 27 30  2  0  0  0  0
 28 29  1  0  0  0  0
 28 47  1  0  0  0  0
 28 48  1  0  0  0  0
 29 49  1  0  0  0  0
 29 50  1  0  0  0  0
 30 31  1  0  0  0  0
 31 32  1  0  0  0  0
 31 51  1  0  0  0  0
 32 33  2  0  0  0  0
M  END
>  <DRUGBANK_ID>
DB18016

>  <COMMON_NAME>
MRTX-1719

>  <CAS_NUMBER>
2630904-44-6

>  <UNII>
AY4A8WD6JS

$$$$
