
 OpenBabel10282417183D

 30 31  0  0  0  0  0  0  0  0999 V2000
    0.5702    2.2514    0.0238 C   0  0  0  0  0  0  0  0  0  0  0  0
   -6.5568    2.9093    0.0216 C   0  0  0  0  0  0  0  0  0  0  0  0
   -5.9692    2.1739    1.0435 C   0  0  0  0  0  0  0  0  0  0  0  0
   -1.8326   -1.3649   -0.0096 C   0  0  0  0  0  0  0  0  0  0  0  0
   -5.7706    3.4140   -1.0201 C   0  0  0  0  0  0  0  0  0  0  0  0
   -0.4499   -1.4348    0.0095 C   0  0  0  0  0  0  0  0  0  0  0  0
   -4.5915    1.9983    1.0529 C   0  0  0  0  0  0  0  0  0  0  0  0
   -2.4457   -0.1202   -0.0204 C   0  0  0  0  0  0  0  0  0  0  0  0
   -0.2956    1.0143    0.0181 C   0  0  0  0  0  0  0  0  0  0  0  0
   -4.3878    3.1564   -1.0674 C   0  0  0  0  0  0  0  0  0  0  0  0
    0.3113   -0.2607    0.0091 C   0  0  0  0  0  0  0  0  0  0  0  0
   -1.7071    1.0800    0.0094 C   0  0  0  0  0  0  0  0  0  0  0  0
   -3.7782    2.5224    0.0329 C   0  0  0  0  0  0  0  0  0  0  0  0
   -3.6803    3.4785   -2.3421 C   0  0  0  0  0  0  0  0  0  0  0  0
    2.0327   -0.4459    0.0038 Cl  0  0  0  0  0  0  0  0  0  0  0  0
   -2.3837    2.3195    0.1472 N   0  0  0  0  0  0  0  0  0  0  0  0
   -4.2029    3.9695   -3.3349 O   0  0  0  0  0  0  0  0  0  0  0  0
   -2.3861    3.1122   -2.3662 O   0  0  0  0  0  0  0  0  0  0  0  0
    1.1993    2.2728    0.9192 H   0  0  0  0  0  0  0  0  0  0  0  0
    1.2033    2.2738   -0.8704 H   0  0  0  0  0  0  0  0  0  0  0  0
    0.0084    3.1875    0.0210 H   0  0  0  0  0  0  0  0  0  0  0  0
   -7.6326    3.0651    0.0237 H   0  0  0  0  0  0  0  0  0  0  0  0
   -6.5687    1.7509    1.8446 H   0  0  0  0  0  0  0  0  0  0  0  0
   -2.4421   -2.2639   -0.0091 H   0  0  0  0  0  0  0  0  0  0  0  0
   -6.2492    3.9954   -1.8067 H   0  0  0  0  0  0  0  0  0  0  0  0
    0.0306   -2.4086    0.0219 H   0  0  0  0  0  0  0  0  0  0  0  0
   -4.1283    1.4329    1.8595 H   0  0  0  0  0  0  0  0  0  0  0  0
   -3.5312   -0.1029   -0.0558 H   0  0  0  0  0  0  0  0  0  0  0  0
   -1.8781    3.0898   -0.2820 H   0  0  0  0  0  0  0  0  0  0  0  0
   -2.0826    3.2373   -3.2901 H   0  0  0  0  0  0  0  0  0  0  0  0
  1 19  1  0  0  0  0
  1 20  1  0  0  0  0
  1 21  1  0  0  0  0
  2 22  1  0  0  0  0
  3  2  2  0  0  0  0
  3 23  1  0  0  0  0
  4 24  1  0  0  0  0
  5  2  1  0  0  0  0
  5 25  1  0  0  0  0
  6  4  2  0  0  0  0
  6 26  1  0  0  0  0
  7  3  1  0  0  0  0
  7 27  1  0  0  0  0
  8  4  1  0  0  0  0
  8 28  1  0  0  0  0
  9  1  1  0  0  0  0
 10  5  2  0  0  0  0
 11  6  1  0  0  0  0
 11  9  2  0  0  0  0
 12  8  2  0  0  0  0
 12  9  1  0  0  0  0
 13  7  2  0  0  0  0
 13 10  1  0  0  0  0
 14 10  1  0  0  0  0
 15 11  1  0  0  0  0
 16 12  1  0  0  0  0
 16 13  1  0  0  0  0
 16 29  1  0  0  0  0
 17 14  2  0  0  0  0
 18 14  1  0  0  0  0
 18 30  1  0  0  0  0
M  END
>  <DRUGBANK_ID>
DB09216

>  <COMMON_NAME>
Tolfenamic acid

>  <CAS_NUMBER>
13710-19-5

>  <UNII>
3G943U18KM

>  <SYNONYMS>
Acide tolfenamique; ácido tolfenámico; Acidum tolfenamicum; Tolfenamic acid

$$$$
