157
 OpenBabel10282417103D

 73 77  0  0  1  0  0  0  0  0999 V2000
    0.9740   -0.0724    0.0638 P   0  0  1  0  0  0  0  0  0  0  0  0
    2.5821   -0.7250    2.3144 P   0  0  2  0  0  0  0  0  0  0  0  0
   -1.3419    1.1752    1.5242 O   0  0  0  0  0  0  0  0  0  0  0  0
    4.9383   -1.3744    0.7328 O   0  0  0  0  0  0  0  0  0  0  0  0
   -1.2698    2.8305    3.8382 O   0  0  0  0  0  0  0  0  0  0  0  0
   -0.5779    0.3482    4.8005 O   0  0  0  0  0  0  0  0  0  0  0  0
    6.6817   -0.0824   -1.2416 O   0  0  0  0  0  0  0  0  0  0  0  0
    5.3789   -1.8930   -2.7122 O   0  0  0  0  0  0  0  0  0  0  0  0
    0.8283    1.5109   -0.2425 O   0  0  0  0  0  0  0  0  0  0  0  0
    3.0117    0.9229    2.1220 O   0  0  0  0  0  0  0  0  0  0  0  0
    0.9740   -0.4077    1.7610 O   0  0  0  0  0  0  0  0  0  0  0  0
   -0.7560   -0.0724    0.0638 O   0  0  0  0  0  0  0  0  0  0  0  0
    2.0090   -0.8236    3.8516 O   0  0  0  0  0  0  0  0  0  0  0  0
    2.5223   -0.0724    0.0638 O   0  0  0  0  0  0  0  0  0  0  0  0
    4.0214   -1.0090    2.8097 O   0  0  0  0  0  0  0  0  0  0  0  0
   -0.9328   -2.2783   -1.0410 O   0  0  0  0  0  0  0  0  0  0  0  0
   -0.7681   -1.5512    2.1481 N   0  0  0  0  0  0  0  0  0  0  0  0
    3.5794   -3.6818   -0.6505 N   0  0  0  0  0  0  0  0  0  0  0  0
   -0.8187   -3.7889    2.3882 N   0  0  0  0  0  0  0  0  0  0  0  0
    1.2468   -2.0451    0.7008 N   0  0  0  0  0  0  0  0  0  0  0  0
    2.8943   -3.3198    1.6632 N   0  0  0  0  0  0  0  0  0  0  0  0
    2.0367   -5.2160   -0.3427 N   0  0  0  0  0  0  0  0  0  0  0  0
   -1.8155   -4.1196   -0.1106 N   0  0  0  0  0  0  0  0  0  0  0  0
   -0.1617    2.2505    3.1702 C   0  0  1  0  0  0  0  0  0  0  0  0
   -0.1943    0.7570    3.5121 C   0  0  2  0  0  0  0  0  0  0  0  0
   -0.4314    2.3092    1.6839 C   0  0  1  0  0  0  0  0  0  0  0  0
   -1.1090    0.0573    2.4996 C   0  0  1  0  0  0  0  0  0  0  0  0
    5.2547    0.0041   -1.0908 C   0  0  1  0  0  0  0  0  0  0  0  0
    4.6823   -1.3555   -1.5993 C   0  0  2  0  0  0  0  0  0  0  0  0
    4.9989    0.1056    0.4132 C   0  0  1  0  0  0  0  0  0  0  0  0
    4.8186   -2.3573   -0.4812 C   0  0  1  0  0  0  0  0  0  0  0  0
    0.8119    2.4417    0.7843 C   0  0  0  0  0  0  0  0  0  0  0  0
    3.9090    1.2545    0.9325 C   0  0  0  0  0  0  0  0  0  0  0  0
    0.3624   -2.2923    1.6635 C   0  0  0  0  0  0  0  0  0  0  0  0
    1.8446   -3.3762   -1.1276 C   0  0  0  0  0  0  0  0  0  0  0  0
   -1.5393   -2.6391    2.4087 C   0  0  0  0  0  0  0  0  0  0  0  0
    3.9480   -5.0360    0.4687 C   0  0  0  0  0  0  0  0  0  0  0  0
    0.5588   -3.5145    2.1083 C   0  0  0  0  0  0  0  0  0  0  0  0
    0.5247   -4.1212   -0.4007 C   0  0  0  0  0  0  0  0  0  0  0  0
    0.8179   -5.5958    1.0168 C   0  0  0  0  0  0  0  0  0  0  0  0
    2.8180   -5.9879    1.2069 C   0  0  0  0  0  0  0  0  0  0  0  0
    1.9468   -4.0946    1.2168 C   0  0  0  0  0  0  0  0  0  0  0  0
   -0.7858   -3.4295   -0.6423 C   0  0  0  0  0  0  0  0  0  0  0  0
    2.5166   -2.4244    0.9018 C   0  0  0  0  0  0  0  0  0  0  0  0
   -2.0448    2.3887    3.4453 H   0  0  0  0  0  0  0  0  0  0  0  0
   -1.4597    0.7297    4.9313 H   0  0  0  0  0  0  0  0  0  0  0  0
    6.9703   -0.7675   -0.6079 H   0  0  0  0  0  0  0  0  0  0  0  0
    6.2409   -2.1814   -2.3553 H   0  0  0  0  0  0  0  0  0  0  0  0
   -1.2044   -0.9373   -0.0162 H   0  0  0  0  0  0  0  0  0  0  0  0
    1.1661   -1.2945    3.9745 H   0  0  0  0  0  0  0  0  0  0  0  0
    1.4109   -6.0148   -0.5108 H   0  0  0  0  0  0  0  0  0  0  0  0
    2.8784   -5.4045   -0.8946 H   0  0  0  0  0  0  0  0  0  0  0  0
   -1.5326   -4.6676    0.6956 H   0  0  0  0  0  0  0  0  0  0  0  0
   -2.6359   -3.5614    0.0693 H   0  0  0  0  0  0  0  0  0  0  0  0
    0.7858    2.7414    3.4439 H   0  0  0  0  0  0  0  0  0  0  0  0
    0.8542    0.6170    3.4558 H   0  0  0  0  0  0  0  0  0  0  0  0
   -1.0138    3.1935    1.4043 H   0  0  0  0  0  0  0  0  0  0  0  0
   -2.1305   -0.0939    2.8388 H   0  0  0  0  0  0  0  0  0  0  0  0
    4.8664    0.8511   -1.6670 H   0  0  0  0  0  0  0  0  0  0  0  0
    3.6314   -1.2216   -1.8549 H   0  0  0  0  0  0  0  0  0  0  0  0
    5.8695    0.5051    0.9544 H   0  0  0  0  0  0  0  0  0  0  0  0
    5.7458   -2.9201   -0.3393 H   0  0  0  0  0  0  0  0  0  0  0  0
    1.7441    2.4371    1.3301 H   0  0  0  0  0  0  0  0  0  0  0  0
    0.8703    3.4301    0.2945 H   0  0  0  0  0  0  0  0  0  0  0  0
    3.3010    1.6032    0.0602 H   0  0  0  0  0  0  0  0  0  0  0  0
    4.3106    2.2736    1.0402 H   0  0  0  0  0  0  0  0  0  0  0  0
    1.8026   -2.3624   -1.5699 H   0  0  0  0  0  0  0  0  0  0  0  0
   -2.6099   -2.5105    2.4085 H   0  0  0  0  0  0  0  0  0  0  0  0
    4.9802   -5.1927    0.1784 H   0  0  0  0  0  0  0  0  0  0  0  0
    0.7234   -5.4408    2.1493 H   0  0  0  0  0  0  0  0  0  0  0  0
    0.0039   -6.3013    0.8951 H   0  0  0  0  0  0  0  0  0  0  0  0
    3.1072   -7.0132    1.3046 H   0  0  0  0  0  0  0  0  0  0  0  0
    3.1778   -1.7982    0.3933 H   0  0  0  0  0  0  0  0  0  0  0  0
  1 12  1  0  0  0  0
  1 14  2  6  0  0  0
  1 11  1  0  0  0  0
  1  9  1  0  0  0  0
  2 10  1  0  0  0  0
  2 11  1  0  0  0  0
  2 13  1  0  0  0  0
  2 15  2  6  0  0  0
  3 26  1  0  0  0  0
  3 27  1  0  0  0  0
  4 30  1  0  0  0  0
  4 31  1  0  0  0  0
  5 45  1  0  0  0  0
  6 46  1  0  0  0  0
  7 47  1  0  0  0  0
  8 48  1  0  0  0  0
  9 32  1  0  0  0  0
 10 33  1  0  0  0  0
 12 49  1  0  0  0  0
 13 50  1  0  0  0  0
 16 43  2  0  0  0  0
 17 34  1  0  0  0  0
 17 36  1  0  0  0  0
 18 35  1  0  0  0  0
 18 37  1  0  0  0  0
 19 36  2  0  0  0  0
 19 38  1  0  0  0  0
 20 34  2  0  0  0  0
 20 44  1  0  0  0  0
 21 42  1  0  0  0  0
 21 44  2  0  0  0  0
 22 42  1  0  0  0  0
 22 51  1  0  0  0  0
 22 52  1  0  0  0  0
 23 43  1  0  0  0  0
 23 53  1  0  0  0  0
 23 54  1  0  0  0  0
 24  5  1  0  0  0  0
 24 25  1  0  0  0  0
 24 26  1  0  0  0  0
 24 55  1  1  0  0  0
 25  6  1  0  0  0  0
 25 27  1  0  0  0  0
 25 56  1  6  0  0  0
 26 32  1  0  0  0  0
 26 57  1  6  0  0  0
 27 58  1  1  0  0  0
 27 17  1  0  0  0  0
 28  7  1  0  0  0  0
 28 29  1  0  0  0  0
 28 30  1  0  0  0  0
 28 59  1  6  0  0  0
 29  8  1  0  0  0  0
 29 31  1  0  0  0  0
 29 60  1  6  0  0  0
 30 33  1  0  0  0  0
 30 61  1  1  0  0  0
 31 62  1  6  0  0  0
 31 18  1  0  0  0  0
 32 63  1  0  0  0  0
 32 64  1  0  0  0  0
 33 65  1  0  0  0  0
 33 66  1  0  0  0  0
 34 38  1  0  0  0  0
 35 39  2  0  0  0  0
 35 67  1  0  0  0  0
 36 68  1  0  0  0  0
 37 41  2  0  0  0  0
 37 69  1  0  0  0  0
 38 42  2  0  0  0  0
 39 40  1  0  0  0  0
 39 43  1  0  0  0  0
 40 41  1  0  0  0  0
 40 70  1  0  0  0  0
 40 71  1  0  0  0  0
 41 72  1  0  0  0  0
 44 73  1  0  0  0  0
M  END
>  <DRUGBANK_ID>
DB00157

>  <SECONDARY_ACCESSION_NUMBERS>
NUTR00041; DB01907; EXPT02287; DB03527

>  <COMMON_NAME>
NADH

>  <CAS_NUMBER>
58-68-4

>  <UNII>
4J24DQ0916

>  <SYNONYMS>
1,4-dihydronicotinamide adenine dinucleotide; DPNH; NAD reduced form; Nicotinamide adenine dinucleotide (reduced); Nicotinamide-adenine dinucleotide, reduced; Reduced nicotinamide adenine diphosphate; Reduced nicotinamide-adenine dinucleotide

$$$$
