
 OpenBabel10282417193D

 17 16  0  0  1  0  0  0  0  0999 V2000
    3.0772    3.7945    2.6298 Se  0  0  0  0  0  0  0  0  0  0  0  0
   -0.4191    4.3540    2.4333 O   0  0  0  0  0  0  0  0  0  0  0  0
    0.7043    4.7060    0.4207 O   0  0  0  0  0  0  0  0  0  0  0  0
    0.4139    1.8020    0.1247 N   0  0  0  0  0  0  0  0  0  0  0  0
    0.9039    2.4747    1.3365 C   0  0  1  0  0  0  0  0  0  0  0  0
    2.4239    2.4747    1.3365 C   0  0  0  0  0  0  0  0  0  0  0  0
    2.4239    5.5745    2.1334 C   0  0  0  0  0  0  0  0  0  0  0  0
    0.3972    3.9075    1.3606 C   0  0  0  0  0  0  0  0  0  0  0  0
   -0.6607    3.7257    3.1728 H   0  0  0  0  0  0  0  0  0  0  0  0
   -0.4314    2.2664   -0.2073 H   0  0  0  0  0  0  0  0  0  0  0  0
    0.2046    0.8267    0.3378 H   0  0  0  0  0  0  0  0  0  0  0  0
    0.5472    1.9556    2.2015 H   0  0  0  0  0  0  0  0  0  0  0  0
    2.7806    2.7258    0.3594 H   0  0  0  0  0  0  0  0  0  0  0  0
    2.7806    1.5029    1.6074 H   0  0  0  0  0  0  0  0  0  0  0  0
    2.7806    6.2951    2.8395 H   0  0  0  0  0  0  0  0  0  0  0  0
    2.7806    5.8257    1.1564 H   0  0  0  0  0  0  0  0  0  0  0  0
    1.3539    5.5745    2.1334 H   0  0  0  0  0  0  0  0  0  0  0  0
  1  6  1  0  0  0  0
  1  7  1  0  0  0  0
  2  8  1  0  0  0  0
  2  9  1  0  0  0  0
  3  8  2  0  0  0  0
  4 10  1  0  0  0  0
  4 11  1  0  0  0  0
  5  8  1  0  0  0  0
  5 12  1  1  0  0  0
  5  6  1  0  0  0  0
  5  4  1  0  0  0  0
  6 13  1  0  0  0  0
  6 14  1  0  0  0  0
  7 15  1  0  0  0  0
  7 16  1  0  0  0  0
  7 17  1  0  0  0  0
M  END
>  <DRUGBANK_ID>
DB12697

>  <COMMON_NAME>
Methylselenocysteine

>  <CAS_NUMBER>
26046-90-2

>  <UNII>
TWK220499Z

>  <SYNONYMS>
SE-METHYL-SELENO-L-CYSTEINE

$$$$
