1608
 OpenBabel10282417123D

 49 52  0  0  0  0  0  0  0  0999 V2000
   -0.1035   -1.9723    0.0812 S   0  0  0  0  0  0  0  0  0  0  0  0
    5.7750    5.4629   -0.6040 O   0  0  0  0  0  0  0  0  0  0  0  0
    2.8568    3.7096    0.2985 N   0  0  0  0  0  0  0  0  0  0  0  0
    0.0689    1.2137   -0.0612 N   0  0  0  0  0  0  0  0  0  0  0  0
    6.2153    1.1195    0.1569 N   0  0  0  0  0  0  0  0  0  0  0  0
    4.2207    3.2574    0.1719 C   0  0  0  0  0  0  0  0  0  0  0  0
    2.8222    5.1305    0.1063 C   0  0  0  0  0  0  0  0  0  0  0  0
    4.8312    4.8809   -1.5040 C   0  0  0  0  0  0  0  0  0  0  0  0
    4.7892    3.3996   -1.2609 C   0  0  0  0  0  0  0  0  0  0  0  0
    3.4329    5.4559   -1.2707 C   0  0  0  0  0  0  0  0  0  0  0  0
    2.1832    3.1383    1.4804 C   0  0  0  0  0  0  0  0  0  0  0  0
    0.6850    3.3111    1.3328 C   0  0  0  0  0  0  0  0  0  0  0  0
    0.1268    2.7240    0.0149 C   0  0  0  0  0  0  0  0  0  0  0  0
    1.2687    0.4263   -0.1915 C   0  0  0  0  0  0  0  0  0  0  0  0
   -1.2402    0.6276   -0.0010 C   0  0  0  0  0  0  0  0  0  0  0  0
    1.3117   -0.9544   -0.0232 C   0  0  0  0  0  0  0  0  0  0  0  0
   -1.3955   -0.7763    0.0150 C   0  0  0  0  0  0  0  0  0  0  0  0
    2.5392    0.9223   -0.5204 C   0  0  0  0  0  0  0  0  0  0  0  0
   -2.4489    1.3637    0.0061 C   0  0  0  0  0  0  0  0  0  0  0  0
    2.5211   -1.6941    0.0134 C   0  0  0  0  0  0  0  0  0  0  0  0
   -2.6512   -1.3899    0.0053 C   0  0  0  0  0  0  0  0  0  0  0  0
    3.8007    0.2158   -0.3066 C   0  0  0  0  0  0  0  0  0  0  0  0
   -3.7064    0.7419    0.0059 C   0  0  0  0  0  0  0  0  0  0  0  0
    3.7569   -1.1087   -0.0351 C   0  0  0  0  0  0  0  0  0  0  0  0
   -3.8050   -0.6368    0.0005 C   0  0  0  0  0  0  0  0  0  0  0  0
    5.1854    0.7134   -0.1485 C   0  0  0  0  0  0  0  0  0  0  0  0
    5.5546    5.1887    0.3029 H   0  0  0  0  0  0  0  0  0  0  0  0
    4.0822    2.2648    0.4668 H   0  0  0  0  0  0  0  0  0  0  0  0
    4.9011    3.5814    0.9564 H   0  0  0  0  0  0  0  0  0  0  0  0
    1.7924    5.4880    0.1115 H   0  0  0  0  0  0  0  0  0  0  0  0
    3.3749    5.5904    0.9281 H   0  0  0  0  0  0  0  0  0  0  0  0
    5.1866    5.0818   -2.5194 H   0  0  0  0  0  0  0  0  0  0  0  0
    4.1938    2.8776   -2.0324 H   0  0  0  0  0  0  0  0  0  0  0  0
    5.8039    2.9964   -1.3736 H   0  0  0  0  0  0  0  0  0  0  0  0
    3.4788    6.5384   -1.3571 H   0  0  0  0  0  0  0  0  0  0  0  0
    2.7729    5.0526   -2.0535 H   0  0  0  0  0  0  0  0  0  0  0  0
    2.6056    3.5251    2.4101 H   0  0  0  0  0  0  0  0  0  0  0  0
    2.3239    2.0529    1.5950 H   0  0  0  0  0  0  0  0  0  0  0  0
    0.4752    4.3883    1.3665 H   0  0  0  0  0  0  0  0  0  0  0  0
    0.1626    2.8833    2.1949 H   0  0  0  0  0  0  0  0  0  0  0  0
    0.6045    3.1284   -0.8845 H   0  0  0  0  0  0  0  0  0  0  0  0
   -0.8539    3.2044   -0.0484 H   0  0  0  0  0  0  0  0  0  0  0  0
    2.4937    1.9301   -0.9015 H   0  0  0  0  0  0  0  0  0  0  0  0
   -2.5029    2.4457   -0.0017 H   0  0  0  0  0  0  0  0  0  0  0  0
    2.5038   -2.7713    0.0888 H   0  0  0  0  0  0  0  0  0  0  0  0
   -2.7142   -2.4757    0.0037 H   0  0  0  0  0  0  0  0  0  0  0  0
   -4.6080    1.3480    0.0017 H   0  0  0  0  0  0  0  0  0  0  0  0
    4.6852   -1.6547    0.0926 H   0  0  0  0  0  0  0  0  0  0  0  0
   -4.7643   -1.1381   -0.0031 H   0  0  0  0  0  0  0  0  0  0  0  0
  1 16  1  0  0  0  0
  1 17  1  0  0  0  0
  2  8  1  0  0  0  0
  2 27  1  0  0  0  0
  3  6  1  0  0  0  0
  3  7  1  0  0  0  0
  3 11  1  0  0  0  0
  4 13  1  0  0  0  0
  4 14  1  0  0  0  0
  4 15  1  0  0  0  0
  5 26  3  0  0  0  0
  6  9  1  0  0  0  0
  6 28  1  0  0  0  0
  6 29  1  0  0  0  0
  7 10  1  0  0  0  0
  7 30  1  0  0  0  0
  7 31  1  0  0  0  0
  8  9  1  0  0  0  0
  8 10  1  0  0  0  0
  8 32  1  0  0  0  0
  9 33  1  0  0  0  0
  9 34  1  0  0  0  0
 10 35  1  0  0  0  0
 10 36  1  0  0  0  0
 11 12  1  0  0  0  0
 11 37  1  0  0  0  0
 11 38  1  0  0  0  0
 12 13  1  0  0  0  0
 12 39  1  0  0  0  0
 12 40  1  0  0  0  0
 13 41  1  0  0  0  0
 13 42  1  0  0  0  0
 14 16  2  0  0  0  0
 14 18  1  0  0  0  0
 15 17  1  0  0  0  0
 15 19  2  0  0  0  0
 16 20  1  0  0  0  0
 17 21  2  0  0  0  0
 18 22  2  0  0  0  0
 18 43  1  0  0  0  0
 19 23  1  0  0  0  0
 19 44  1  0  0  0  0
 20 24  2  0  0  0  0
 20 45  1  0  0  0  0
 21 25  1  0  0  0  0
 21 46  1  0  0  0  0
 22 24  1  0  0  0  0
 22 26  1  0  0  0  0
 23 25  2  0  0  0  0
 23 47  1  0  0  0  0
 24 48  1  0  0  0  0
 25 49  1  0  0  0  0
M  END
>  <DRUGBANK_ID>
DB01608

>  <COMMON_NAME>
Periciazine

>  <CAS_NUMBER>
2622-26-6

>  <UNII>
3405M6FD73

>  <SYNONYMS>
10-(3-(4-Hydroxypiperidino)propyl)phenothiazine-2-carbonitrile; 2-Cyano-10-(3-(4-hydroxy-1-piperidyl)propyl)phenothiazine; 2-Cyano-10-(3-(4-hydroxypiperidino)propyl)phenothiazine; Cyano-3 ((hydroxy-4 piperidyl-1)-3 propyl)-10 phenothiazine; Periciazina; PÃ©riciazine; Periciazine; Periciazinum; Pericyazine; Piperocyanomazine; Propericiazine

$$$$
