
 OpenBabel10282417133D

 17 16  0  0  1  0  0  0  0  0999 V2000
    0.7568   -1.6819    1.8222 N   0  0  0  0  0  0  0  0  0  0  0  0
    0.3438   -1.3098    0.4508 C   0  0  2  0  0  0  0  0  0  0  0  0
    1.0804   -0.0442   -0.0058 C   0  0  0  0  0  0  0  0  0  0  0  0
    2.4788   -0.5231   -0.3202 C   0  0  0  0  0  0  0  0  0  0  0  0
    2.9033   -0.4283   -1.6018 N   0  0  0  0  0  0  0  0  0  0  0  0
    3.1787   -1.1005    0.5089 O   0  0  0  0  0  0  0  0  0  0  0  0
   -1.1773   -1.1768    0.4008 C   0  0  0  0  0  0  0  0  0  0  0  0
   -1.7843   -2.0445   -0.4445 O   0  0  0  0  0  0  0  0  0  0  0  0
   -1.8157   -0.3711    1.0715 O   0  0  0  0  0  0  0  0  0  0  0  0
    0.5068   -0.9130    2.4504 H   0  0  0  0  0  0  0  0  0  0  0  0
    1.7885   -1.6913    1.8343 H   0  0  0  0  0  0  0  0  0  0  0  0
    0.6293   -2.1364   -0.2116 H   0  0  0  0  0  0  0  0  0  0  0  0
    0.6127    0.4264   -0.8791 H   0  0  0  0  0  0  0  0  0  0  0  0
    1.1252    0.7205    0.7814 H   0  0  0  0  0  0  0  0  0  0  0  0
    3.8124   -0.8354   -1.7888 H   0  0  0  0  0  0  0  0  0  0  0  0
    2.4805    0.1603   -2.3043 H   0  0  0  0  0  0  0  0  0  0  0  0
   -1.1922   -2.7044   -0.8547 H   0  0  0  0  0  0  0  0  0  0  0  0
  1 10  1  0  0  0  0
  1 11  1  0  0  0  0
  2  7  1  0  0  0  0
  2 12  1  6  0  0  0
  2  3  1  0  0  0  0
  2  1  1  0  0  0  0
  3  4  1  0  0  0  0
  3 13  1  0  0  0  0
  3 14  1  0  0  0  0
  4  5  1  0  0  0  0
  4  6  2  0  0  0  0
  5 15  1  0  0  0  0
  5 16  1  0  0  0  0
  7  8  1  0  0  0  0
  7  9  2  0  0  0  0
  8 17  1  0  0  0  0
M  END
>  <DRUGBANK_ID>
DB03943

>  <SECONDARY_ACCESSION_NUMBERS>
EXPT01274

>  <COMMON_NAME>
D-Asparagine

>  <CAS_NUMBER>
2058-58-4

>  <UNII>
T6QV1010K6

$$$$
