
 OpenBabel10282417243D

 69 72  0  0  1  0  0  0  0  0999 V2000
   -3.5701    0.6249    2.0975 O   0  0  0  0  0  0  0  0  0  0  0  0
   -2.4069    0.3108    2.7290 C   0  0  0  0  0  0  0  0  0  0  0  0
   -2.2037    0.8092    3.8269 O   0  0  0  0  0  0  0  0  0  0  0  0
   -1.3119   -0.4275    1.8907 C   0  0  0  0  0  0  0  0  0  0  0  0
   -1.6949   -1.2394    0.6198 C   0  0  2  0  0  0  0  0  0  0  0  0
   -1.1264   -0.8172   -0.7629 C   0  0  0  0  0  0  0  0  0  0  0  0
   -1.4370    0.5942   -1.2624 C   0  0  0  0  0  0  0  0  0  0  0  0
   -0.8503    1.6322   -0.3840 N   0  0  0  0  0  0  0  0  0  0  0  0
   -1.8760    2.1184    0.5300 C   0  0  0  0  0  0  0  0  0  0  0  0
   -3.0593    2.9053    0.0141 C   0  0  0  0  0  0  0  0  0  0  0  0
   -2.5130    4.0982   -0.7102 C   0  0  0  0  0  0  0  0  0  0  0  0
   -1.4790    3.6314   -1.7314 C   0  0  0  0  0  0  0  0  0  0  0  0
   -2.1141    2.8606   -2.6578 F   0  0  0  0  0  0  0  0  0  0  0  0
   -0.9677    4.6924   -2.3871 F   0  0  0  0  0  0  0  0  0  0  0  0
   -0.3486    2.8122   -1.0850 C   0  0  0  0  0  0  0  0  0  0  0  0
   -3.1295   -1.4461    0.5274 N   0  0  0  0  0  0  0  0  0  0  0  0
   -3.8921   -2.5412    0.8782 C   0  0  0  0  0  0  0  0  0  0  0  0
   -5.1025   -2.4437    0.8380 O   0  0  0  0  0  0  0  0  0  0  0  0
   -3.1800   -3.7633    1.2774 C   0  0  0  0  0  0  0  0  0  0  0  0
   -2.0931   -3.8941    2.1753 C   0  0  0  0  0  0  0  0  0  0  0  0
   -1.7176   -5.2148    2.1402 C   0  0  0  0  0  0  0  0  0  0  0  0
   -0.6219   -5.8784    2.8298 C   0  0  0  0  0  0  0  0  0  0  0  0
   -0.5911   -5.8092    4.2310 C   0  0  0  0  0  0  0  0  0  0  0  0
    0.3359   -6.5536    4.9559 C   0  0  0  0  0  0  0  0  0  0  0  0
    1.2126   -7.4028    4.2899 C   0  0  0  0  0  0  0  0  0  0  0  0
    1.2018   -7.4603    2.8986 C   0  0  0  0  0  0  0  0  0  0  0  0
    0.3563   -6.6231    2.1512 C   0  0  0  0  0  0  0  0  0  0  0  0
    0.5900   -6.5447    0.6622 C   0  0  0  0  0  0  0  0  0  0  0  0
    1.8574   -6.1461    0.3603 F   0  0  0  0  0  0  0  0  0  0  0  0
    0.4421   -7.7613    0.0677 F   0  0  0  0  0  0  0  0  0  0  0  0
   -0.2147   -5.6861   -0.0190 F   0  0  0  0  0  0  0  0  0  0  0  0
   -2.6448   -5.8255    1.3222 N   0  0  0  0  0  0  0  0  0  0  0  0
   -3.5250   -4.9615    0.7823 N   0  0  0  0  0  0  0  0  0  0  0  0
   -2.7232   -7.2293    0.9688 C   0  0  0  0  0  0  0  0  0  0  0  0
   -2.5141   -7.5116   -0.5203 C   0  0  0  0  0  0  0  0  0  0  0  0
   -3.0808   -8.9064   -0.7381 C   0  0  0  0  0  0  0  0  0  0  0  0
   -3.9979   -9.1837    0.4514 C   0  0  0  0  0  0  0  0  0  0  0  0
   -4.0736   -7.8813    1.2410 C   0  0  0  0  0  0  0  0  0  0  0  0
   -3.8485    1.5071    2.4394 H   0  0  0  0  0  0  0  0  0  0  0  0
   -0.5121    0.2761    1.6259 H   0  0  0  0  0  0  0  0  0  0  0  0
   -0.8067   -1.0854    2.6010 H   0  0  0  0  0  0  0  0  0  0  0  0
   -1.2101   -2.2096    0.7391 H   0  0  0  0  0  0  0  0  0  0  0  0
   -0.0408   -0.9764   -0.7861 H   0  0  0  0  0  0  0  0  0  0  0  0
   -1.5345   -1.5159   -1.5142 H   0  0  0  0  0  0  0  0  0  0  0  0
   -1.0653    0.6897   -2.2873 H   0  0  0  0  0  0  0  0  0  0  0  0
   -2.5288    0.6674   -1.3402 H   0  0  0  0  0  0  0  0  0  0  0  0
   -2.3363    1.2051    0.7519 H   0  0  0  0  0  0  0  0  0  0  0  0
   -1.4431    2.5610    1.4370 H   0  0  0  0  0  0  0  0  0  0  0  0
   -3.6698    2.2741   -0.6454 H   0  0  0  0  0  0  0  0  0  0  0  0
   -3.7292    3.1902    0.8348 H   0  0  0  0  0  0  0  0  0  0  0  0
   -3.3376    4.6249   -1.1916 H   0  0  0  0  0  0  0  0  0  0  0  0
   -2.0575    4.7679    0.0284 H   0  0  0  0  0  0  0  0  0  0  0  0
    0.1790    3.4317   -0.3424 H   0  0  0  0  0  0  0  0  0  0  0  0
    0.4160    2.5112   -1.8061 H   0  0  0  0  0  0  0  0  0  0  0  0
   -3.7142   -0.6240    0.4090 H   0  0  0  0  0  0  0  0  0  0  0  0
   -1.5907   -3.1193    2.7335 H   0  0  0  0  0  0  0  0  0  0  0  0
   -1.3028   -5.1826    4.7674 H   0  0  0  0  0  0  0  0  0  0  0  0
    0.3487   -6.4950    6.0410 H   0  0  0  0  0  0  0  0  0  0  0  0
    1.9233   -8.0035    4.8508 H   0  0  0  0  0  0  0  0  0  0  0  0
    1.8671   -8.1542    2.3856 H   0  0  0  0  0  0  0  0  0  0  0  0
   -1.9740   -7.7723    1.5552 H   0  0  0  0  0  0  0  0  0  0  0  0
   -3.0442   -6.7837   -1.1435 H   0  0  0  0  0  0  0  0  0  0  0  0
   -1.4742   -7.4742   -0.8380 H   0  0  0  0  0  0  0  0  0  0  0  0
   -3.6175   -8.9527   -1.6902 H   0  0  0  0  0  0  0  0  0  0  0  0
   -2.2764   -9.6509   -0.7790 H   0  0  0  0  0  0  0  0  0  0  0  0
   -4.9877   -9.5182    0.1300 H   0  0  0  0  0  0  0  0  0  0  0  0
   -3.5631   -9.9772    1.0712 H   0  0  0  0  0  0  0  0  0  0  0  0
   -4.2443   -8.0538    2.3084 H   0  0  0  0  0  0  0  0  0  0  0  0
   -4.8960   -7.2633    0.8639 H   0  0  0  0  0  0  0  0  0  0  0  0
  1  2  1  0  0  0  0
  1 39  1  0  0  0  0
  2  3  2  0  0  0  0
  2  4  1  0  0  0  0
  4 40  1  0  0  0  0
  4 41  1  0  0  0  0
  5 16  1  0  0  0  0
  5 42  1  1  0  0  0
  5  6  1  0  0  0  0
  5  4  1  0  0  0  0
  6  7  1  0  0  0  0
  6 43  1  0  0  0  0
  6 44  1  0  0  0  0
  7  8  1  0  0  0  0
  7 45  1  0  0  0  0
  7 46  1  0  0  0  0
  8  9  1  0  0  0  0
  8 15  1  0  0  0  0
  9 10  1  0  0  0  0
  9 47  1  0  0  0  0
  9 48  1  0  0  0  0
 10 11  1  0  0  0  0
 10 49  1  0  0  0  0
 10 50  1  0  0  0  0
 11 12  1  0  0  0  0
 11 51  1  0  0  0  0
 11 52  1  0  0  0  0
 12 13  1  0  0  0  0
 12 14  1  0  0  0  0
 12 15  1  0  0  0  0
 15 53  1  0  0  0  0
 15 54  1  0  0  0  0
 16 17  1  0  0  0  0
 16 55  1  0  0  0  0
 17 18  2  0  0  0  0
 17 19  1  0  0  0  0
 19 20  1  0  0  0  0
 19 33  2  0  0  0  0
 20 21  2  0  0  0  0
 20 56  1  0  0  0  0
 21 22  1  0  0  0  0
 21 32  1  0  0  0  0
 22 23  2  0  0  0  0
 22 27  1  0  0  0  0
 23 24  1  0  0  0  0
 23 57  1  0  0  0  0
 24 25  2  0  0  0  0
 24 58  1  0  0  0  0
 25 26  1  0  0  0  0
 25 59  1  0  0  0  0
 26 27  2  0  0  0  0
 26 60  1  0  0  0  0
 27 28  1  0  0  0  0
 28 29  1  0  0  0  0
 28 30  1  0  0  0  0
 28 31  1  0  0  0  0
 32 33  1  0  0  0  0
 32 34  1  0  0  0  0
 34 35  1  0  0  0  0
 34 38  1  0  0  0  0
 34 61  1  0  0  0  0
 35 36  1  0  0  0  0
 35 62  1  0  0  0  0
 35 63  1  0  0  0  0
 36 37  1  0  0  0  0
 36 64  1  0  0  0  0
 36 65  1  0  0  0  0
 37 38  1  0  0  0  0
 37 66  1  0  0  0  0
 37 67  1  0  0  0  0
 38 68  1  0  0  0  0
 38 69  1  0  0  0  0
M  END
>  <DRUGBANK_ID>
DB18003

>  <COMMON_NAME>
APT-101

>  <CAS_NUMBER>
2100848-01-7

>  <UNII>
23Q58CY54R

>  <SYNONYMS>
(S)-3-(1-Cyclopentyl-5-(2-(trifluoromethyl)phenyl)-1H-pyrazole-3-carboxamido)-5-(3,3-difluoropiperidin-1-yl)pentanoic acid

$$$$
