208
 OpenBabel10282417163D

 54 57  0  0  0  0  0  0  0  0999 V2000
    2.9043    0.7037    1.6553 C   0  0  0  0  0  0  0  0  0  0  0  0
    2.3640    2.0937    1.3868 C   0  0  0  0  0  0  0  0  0  0  0  0
    2.7580    2.7014    0.1521 O   0  0  0  0  0  0  0  0  0  0  0  0
    2.2285    2.1149   -1.0499 C   0  0  2  0  0  0  0  0  0  0  0  0
    0.6644    2.1330   -1.0904 C   0  0  0  0  0  0  0  0  0  0  0  0
    0.1170    3.1174   -0.3231 O   0  0  0  0  0  0  0  0  0  0  0  0
   -0.0450    1.3983   -1.7323 O   0  0  0  0  0  0  0  0  0  0  0  0
    2.8315    0.7123   -1.2709 C   0  0  0  0  0  0  0  0  0  0  0  0
    2.5328   -0.0586   -2.5016 C   0  0  0  0  0  0  0  0  0  0  0  0
    2.6770   -1.4581   -2.5153 C   0  0  0  0  0  0  0  0  0  0  0  0
    1.9717    0.6016   -3.5656 C   0  0  0  0  0  0  0  0  0  0  0  0
    1.5321   -0.1417   -4.6355 C   0  0  0  0  0  0  0  0  0  0  0  0
    0.9181    0.3096   -5.7913 C   0  0  0  0  0  0  0  0  0  0  0  0
    0.8625   -0.7800   -6.5975 C   0  0  0  0  0  0  0  0  0  0  0  0
    1.6865   -1.5330   -4.6807 C   0  0  0  0  0  0  0  0  0  0  0  0
    2.2735   -2.2251   -3.6132 C   0  0  0  0  0  0  0  0  0  0  0  0
    1.1557   -1.9313   -5.9005 N   0  0  0  0  0  0  0  0  0  0  0  0
    1.0925   -3.3245   -6.4169 C   0  0  0  0  0  0  0  0  0  0  0  0
   -0.3086   -3.7787   -6.8411 C   0  0  0  0  0  0  0  0  0  0  0  0
   -1.0366   -3.2306   -7.8761 C   0  0  0  0  0  0  0  0  0  0  0  0
   -0.7692   -2.1311   -8.8097 C   0  0  0  0  0  0  0  0  0  0  0  0
   -2.2235   -3.8786   -7.9981 O   0  0  0  0  0  0  0  0  0  0  0  0
   -1.0636   -4.8773   -6.3448 N   0  0  0  0  0  0  0  0  0  0  0  0
   -2.1909   -4.8962   -7.0726 C   0  0  0  0  0  0  0  0  0  0  0  0
   -3.4417   -5.7314   -7.0735 C   0  0  0  0  0  0  0  0  0  0  0  0
   -3.9448   -6.3738   -8.2333 C   0  0  0  0  0  0  0  0  0  0  0  0
   -3.1154   -6.3247   -9.7541 Cl  0  0  0  0  0  0  0  0  0  0  0  0
   -5.1758   -7.0805   -8.2369 C   0  0  0  0  0  0  0  0  0  0  0  0
   -6.0090   -7.0592   -7.1258 C   0  0  0  0  0  0  0  0  0  0  0  0
   -5.5555   -6.4227   -5.9766 C   0  0  0  0  0  0  0  0  0  0  0  0
   -4.2696   -5.8227   -5.9332 C   0  0  0  0  0  0  0  0  0  0  0  0
    2.5703    2.7737   -1.8622 H   0  0  0  0  0  0  0  0  0  0  0  0
    2.3447   -0.0616    1.1232 H   0  0  0  0  0  0  0  0  0  0  0  0
    2.7336    0.4109    2.6883 H   0  0  0  0  0  0  0  0  0  0  0  0
    3.9608    0.6239    1.3843 H   0  0  0  0  0  0  0  0  0  0  0  0
    1.2767    2.0736    1.4679 H   0  0  0  0  0  0  0  0  0  0  0  0
    2.7276    2.7644    2.1689 H   0  0  0  0  0  0  0  0  0  0  0  0
    0.7905    3.6312    0.1619 H   0  0  0  0  0  0  0  0  0  0  0  0
    3.9149    0.7129   -1.0940 H   0  0  0  0  0  0  0  0  0  0  0  0
    2.3439    0.0575   -0.5737 H   0  0  0  0  0  0  0  0  0  0  0  0
    3.0585   -1.9680   -1.6300 H   0  0  0  0  0  0  0  0  0  0  0  0
    1.7650    1.6638   -3.5702 H   0  0  0  0  0  0  0  0  0  0  0  0
    0.6706    1.3318   -6.0435 H   0  0  0  0  0  0  0  0  0  0  0  0
    0.6074   -0.7111   -7.6231 H   0  0  0  0  0  0  0  0  0  0  0  0
    2.3967   -3.3021   -3.6044 H   0  0  0  0  0  0  0  0  0  0  0  0
    1.7638   -3.3171   -7.2918 H   0  0  0  0  0  0  0  0  0  0  0  0
    1.5583   -3.9917   -5.6841 H   0  0  0  0  0  0  0  0  0  0  0  0
   -1.0305   -2.3475   -9.8395 H   0  0  0  0  0  0  0  0  0  0  0  0
   -1.2911   -1.2254   -8.4748 H   0  0  0  0  0  0  0  0  0  0  0  0
    0.3105   -1.9645   -8.8548 H   0  0  0  0  0  0  0  0  0  0  0  0
   -5.5001   -7.6377   -9.1163 H   0  0  0  0  0  0  0  0  0  0  0  0
   -6.9920   -7.5322   -7.1565 H   0  0  0  0  0  0  0  0  0  0  0  0
   -6.2114   -6.3923   -5.1062 H   0  0  0  0  0  0  0  0  0  0  0  0
   -3.9474   -5.3942   -4.9875 H   0  0  0  0  0  0  0  0  0  0  0  0
  1  2  1  0  0  0  0
  1 33  1  0  0  0  0
  1 34  1  0  0  0  0
  1 35  1  0  0  0  0
  2  3  1  0  0  0  0
  2 36  1  0  0  0  0
  2 37  1  0  0  0  0
  4  8  1  0  0  0  0
  4 32  1  6  0  0  0
  4  5  1  0  0  0  0
  4  3  1  0  0  0  0
  5  6  1  0  0  0  0
  5  7  2  0  0  0  0
  6 38  1  0  0  0  0
  8  9  1  0  0  0  0
  8 39  1  0  0  0  0
  8 40  1  0  0  0  0
  9 10  1  0  0  0  0
  9 11  2  0  0  0  0
 10 16  2  0  0  0  0
 10 41  1  0  0  0  0
 11 12  1  0  0  0  0
 11 42  1  0  0  0  0
 12 13  1  0  0  0  0
 12 15  2  0  0  0  0
 13 14  2  0  0  0  0
 13 43  1  0  0  0  0
 14 17  1  0  0  0  0
 14 44  1  0  0  0  0
 15 16  1  0  0  0  0
 15 17  1  0  0  0  0
 16 45  1  0  0  0  0
 17 18  1  0  0  0  0
 18 19  1  0  0  0  0
 18 46  1  0  0  0  0
 18 47  1  0  0  0  0
 19 20  2  0  0  0  0
 19 23  1  0  0  0  0
 20 21  1  0  0  0  0
 20 22  1  0  0  0  0
 21 48  1  0  0  0  0
 21 49  1  0  0  0  0
 21 50  1  0  0  0  0
 22 24  1  0  0  0  0
 23 24  2  0  0  0  0
 24 25  1  0  0  0  0
 25 26  2  0  0  0  0
 25 31  1  0  0  0  0
 26 27  1  0  0  0  0
 26 28  1  0  0  0  0
 28 29  2  0  0  0  0
 28 51  1  0  0  0  0
 29 30  1  0  0  0  0
 29 52  1  0  0  0  0
 30 31  2  0  0  0  0
 30 53  1  0  0  0  0
 31 54  1  0  0  0  0
M  END
>  <DRUGBANK_ID>
DB06908

>  <COMMON_NAME>
(2S)-3-(1-{[2-(2-CHLOROPHENYL)-5-METHYL-1,3-OXAZOL-4-YL]METHYL}-1H-INDOL-5-YL)-2-ETHOXYPROPANOIC ACID

$$$$
