
 OpenBabel10282417183D

 69 72  0  0  0  0  0  0  0  0999 V2000
    0.8449    0.8108    0.0759 C   0  0  0  0  0  0  0  0  0  0  0  0
    0.7942    0.6760   -1.4037 C   0  0  0  0  0  0  0  0  0  0  0  0
    1.6823   -0.1131   -2.2233 O   0  0  0  0  0  0  0  0  0  0  0  0
    2.6653   -1.0129   -2.1837 C   0  0  0  0  0  0  0  0  0  0  0  0
    3.0996   -1.6547   -3.3672 C   0  0  0  0  0  0  0  0  0  0  0  0
    4.3900   -2.1151   -3.5082 C   0  0  0  0  0  0  0  0  0  0  0  0
    5.2346   -1.8766   -2.4203 C   0  0  0  0  0  0  0  0  0  0  0  0
    4.6165   -1.4077   -1.2485 C   0  0  0  0  0  0  0  0  0  0  0  0
    3.2827   -1.3406   -1.0571 C   0  0  0  0  0  0  0  0  0  0  0  0
    2.7038   -1.4036    0.1979 N   0  0  0  0  0  0  0  0  0  0  0  0
    1.3898   -1.7117    0.5294 C   0  0  0  0  0  0  0  0  0  0  0  0
    1.0987   -1.4614    1.7127 O   0  0  0  0  0  0  0  0  0  0  0  0
    0.1971   -1.9498   -0.5944 C   0  0  0  0  0  0  0  0  0  0  0  0
    0.3288   -2.2048   -1.9292 C   0  0  0  0  0  0  0  0  0  0  0  0
   -0.3999   -1.6689   -3.2455 C   0  0  0  0  0  0  0  0  0  0  0  0
    0.1745   -0.7022   -4.3103 N   0  0  0  0  0  0  0  0  0  0  0  0
   -0.5896   -0.8784   -5.5481 C   0  0  0  0  0  0  0  0  0  0  0  0
    0.1105    0.7635   -4.1039 C   0  0  0  0  0  0  0  0  0  0  0  0
    6.6279   -2.1032   -2.5504 C   0  0  0  0  0  0  0  0  0  0  0  0
    7.0649   -2.5679   -3.8087 C   0  0  0  0  0  0  0  0  0  0  0  0
    6.1345   -2.8000   -4.8233 C   0  0  0  0  0  0  0  0  0  0  0  0
    4.8100   -2.6049   -4.6861 N   0  0  0  0  0  0  0  0  0  0  0  0
    8.4275   -2.7969   -4.0912 C   0  0  0  0  0  0  0  0  0  0  0  0
    9.5759   -2.9632   -4.3096 N   0  0  0  0  0  0  0  0  0  0  0  0
    7.5384   -1.9955   -1.4383 N   0  0  0  0  0  0  0  0  0  0  0  0
    7.2683   -1.5422   -0.1149 C   0  0  0  0  0  0  0  0  0  0  0  0
    6.4164   -2.2872    0.7269 C   0  0  0  0  0  0  0  0  0  0  0  0
    5.7802   -1.6869    1.8358 C   0  0  0  0  0  0  0  0  0  0  0  0
    6.0192   -0.3361    2.1611 C   0  0  0  0  0  0  0  0  0  0  0  0
    6.8880    0.3959    1.3200 C   0  0  0  0  0  0  0  0  0  0  0  0
    7.5375   -0.2172    0.2341 C   0  0  0  0  0  0  0  0  0  0  0  0
    7.1376    2.1158    1.3085 Cl  0  0  0  0  0  0  0  0  0  0  0  0
    5.3325    0.0889    3.2765 O   0  0  0  0  0  0  0  0  0  0  0  0
    5.7173    1.3348    3.8909 C   0  0  0  0  0  0  0  0  0  0  0  0
    7.1932    1.4475    4.2636 C   0  0  0  0  0  0  0  0  0  0  0  0
    7.7960    2.7066    4.3290 C   0  0  0  0  0  0  0  0  0  0  0  0
    9.1840    2.7832    4.4243 C   0  0  0  0  0  0  0  0  0  0  0  0
    9.9295    1.6117    4.4765 C   0  0  0  0  0  0  0  0  0  0  0  0
    9.2574    0.4050    4.4279 C   0  0  0  0  0  0  0  0  0  0  0  0
    7.9166    0.3000    4.3440 N   0  0  0  0  0  0  0  0  0  0  0  0
    0.1191    0.1386    0.5357 H   0  0  0  0  0  0  0  0  0  0  0  0
    0.4808    1.7401    0.4904 H   0  0  0  0  0  0  0  0  0  0  0  0
    1.8812    0.7018    0.3509 H   0  0  0  0  0  0  0  0  0  0  0  0
   -0.2433    0.4125   -1.6781 H   0  0  0  0  0  0  0  0  0  0  0  0
    0.9628    1.6884   -1.7414 H   0  0  0  0  0  0  0  0  0  0  0  0
    2.4179   -1.8026   -4.1991 H   0  0  0  0  0  0  0  0  0  0  0  0
    5.1571   -0.9684   -0.4543 H   0  0  0  0  0  0  0  0  0  0  0  0
    3.2668   -1.0283    0.9658 H   0  0  0  0  0  0  0  0  0  0  0  0
   -0.7291   -1.4536   -0.2895 H   0  0  0  0  0  0  0  0  0  0  0  0
    1.2176   -2.7460   -2.2067 H   0  0  0  0  0  0  0  0  0  0  0  0
   -0.3796   -2.6097   -3.8096 H   0  0  0  0  0  0  0  0  0  0  0  0
   -1.4286   -1.3767   -3.0424 H   0  0  0  0  0  0  0  0  0  0  0  0
   -1.6421   -0.6520   -5.3535 H   0  0  0  0  0  0  0  0  0  0  0  0
   -0.2383   -0.2016   -6.3412 H   0  0  0  0  0  0  0  0  0  0  0  0
   -0.4782   -1.8932   -5.9240 H   0  0  0  0  0  0  0  0  0  0  0  0
   -0.8387    1.0800   -3.6637 H   0  0  0  0  0  0  0  0  0  0  0  0
    0.9526    1.1699   -3.5640 H   0  0  0  0  0  0  0  0  0  0  0  0
    0.2977    1.3678   -5.0032 H   0  0  0  0  0  0  0  0  0  0  0  0
    6.4324   -3.1456   -5.8131 H   0  0  0  0  0  0  0  0  0  0  0  0
    8.5175   -1.8907   -1.6906 H   0  0  0  0  0  0  0  0  0  0  0  0
    6.0437   -3.2466    0.3623 H   0  0  0  0  0  0  0  0  0  0  0  0
    4.9987   -2.2512    2.3513 H   0  0  0  0  0  0  0  0  0  0  0  0
    8.1309    0.4201   -0.4166 H   0  0  0  0  0  0  0  0  0  0  0  0
    5.3842    2.1389    3.2245 H   0  0  0  0  0  0  0  0  0  0  0  0
    5.1313    1.4713    4.8075 H   0  0  0  0  0  0  0  0  0  0  0  0
    7.2127    3.6124    4.1900 H   0  0  0  0  0  0  0  0  0  0  0  0
    9.6826    3.7485    4.4181 H   0  0  0  0  0  0  0  0  0  0  0  0
   11.0099    1.6346    4.5523 H   0  0  0  0  0  0  0  0  0  0  0  0
    9.7918   -0.5399    4.4448 H   0  0  0  0  0  0  0  0  0  0  0  0
  1  2  1  0  0  0  0
  1 41  1  0  0  0  0
  1 42  1  0  0  0  0
  1 43  1  0  0  0  0
  2  3  1  0  0  0  0
  2 44  1  0  0  0  0
  2 45  1  0  0  0  0
  3  4  1  0  0  0  0
  4  5  1  0  0  0  0
  4  9  2  0  0  0  0
  5  6  2  0  0  0  0
  5 46  1  0  0  0  0
  6  7  1  0  0  0  0
  6 22  1  0  0  0  0
  7  8  2  0  0  0  0
  7 19  1  0  0  0  0
  8  9  1  0  0  0  0
  8 47  1  0  0  0  0
  9 10  1  0  0  0  0
 10 11  1  0  0  0  0
 10 48  1  0  0  0  0
 11 12  2  0  0  0  0
 11 13  1  0  0  0  0
 13 14  2  0  0  0  0
 13 49  1  0  0  0  0
 14 15  1  0  0  0  0
 14 50  1  0  0  0  0
 15 16  1  0  0  0  0
 15 51  1  0  0  0  0
 15 52  1  0  0  0  0
 16 17  1  0  0  0  0
 16 18  1  0  0  0  0
 17 53  1  0  0  0  0
 17 54  1  0  0  0  0
 17 55  1  0  0  0  0
 18 56  1  0  0  0  0
 18 57  1  0  0  0  0
 18 58  1  0  0  0  0
 19 20  2  0  0  0  0
 19 25  1  0  0  0  0
 20 21  1  0  0  0  0
 20 23  1  0  0  0  0
 21 22  2  0  0  0  0
 21 59  1  0  0  0  0
 23 24  3  0  0  0  0
 25 26  1  0  0  0  0
 25 60  1  0  0  0  0
 26 27  2  0  0  0  0
 26 31  1  0  0  0  0
 27 28  1  0  0  0  0
 27 61  1  0  0  0  0
 28 29  2  0  0  0  0
 28 62  1  0  0  0  0
 29 30  1  0  0  0  0
 29 33  1  0  0  0  0
 30 31  2  0  0  0  0
 30 32  1  0  0  0  0
 31 63  1  0  0  0  0
 33 34  1  0  0  0  0
 34 35  1  0  0  0  0
 34 64  1  0  0  0  0
 34 65  1  0  0  0  0
 35 36  2  0  0  0  0
 35 40  1  0  0  0  0
 36 37  1  0  0  0  0
 36 66  1  0  0  0  0
 37 38  2  0  0  0  0
 37 67  1  0  0  0  0
 38 39  1  0  0  0  0
 38 68  1  0  0  0  0
 39 40  2  0  0  0  0
 39 69  1  0  0  0  0
M  END
>  <DRUGBANK_ID>
DB11828

>  <COMMON_NAME>
Neratinib

>  <CAS_NUMBER>
698387-09-6

>  <UNII>
JJH94R3PWB

>  <SYNONYMS>
Neratinib

$$$$
