RRT
 OpenBabel10282417123D

 32 32  0  0  0  0  0  0  0  0999 V2000
    0.7850   -0.1518    0.0556 S   0  0  0  0  0  0  0  0  0  0  0  0
    0.2584    0.9483   -1.3190 C   0  0  0  0  0  0  0  0  0  0  0  0
    0.9230    2.3371   -1.2514 C   0  0  1  0  0  0  0  0  0  0  0  0
    2.4585    2.3587   -1.2979 C   0  0  0  0  0  0  0  0  0  0  0  0
    3.0102    1.7888   -2.5735 C   0  0  0  0  0  0  0  0  0  0  0  0
    3.6219    2.6315   -3.5003 C   0  0  0  0  0  0  0  0  0  0  0  0
    2.8879    0.4248   -2.8776 C   0  0  0  0  0  0  0  0  0  0  0  0
    4.0717    2.1142   -4.7128 C   0  0  0  0  0  0  0  0  0  0  0  0
    3.3158   -0.0877   -4.0909 C   0  0  0  0  0  0  0  0  0  0  0  0
    3.8979    0.7630   -5.0160 C   0  0  0  0  0  0  0  0  0  0  0  0
   -0.4505    4.3334   -2.0374 C   0  0  0  0  0  0  0  0  0  0  0  0
   -0.7809    5.0431   -2.9851 O   0  0  0  0  0  0  0  0  0  0  0  0
    0.3601    3.2515   -2.2531 N   0  0  0  0  0  0  0  0  0  0  0  0
   -0.8315    4.6625   -0.6156 C   0  0  0  0  0  0  0  0  0  0  0  0
   -1.6685    3.5875    0.0142 C   0  0  0  0  0  0  0  0  0  0  0  0
   -1.1720    3.0619    1.1576 O   0  0  0  0  0  0  0  0  0  0  0  0
   -2.7104    3.1616   -0.4745 O   0  0  0  0  0  0  0  0  0  0  0  0
    0.6955    2.7485   -0.2734 H   0  0  0  0  0  0  0  0  0  0  0  0
    2.1179   -0.0865   -0.1246 H   0  0  0  0  0  0  0  0  0  0  0  0
    0.4317    0.4767   -2.2911 H   0  0  0  0  0  0  0  0  0  0  0  0
   -0.8295    1.0349   -1.2565 H   0  0  0  0  0  0  0  0  0  0  0  0
    2.7956    3.3981   -1.1672 H   0  0  0  0  0  0  0  0  0  0  0  0
    2.8855    1.8249   -0.4428 H   0  0  0  0  0  0  0  0  0  0  0  0
    3.7416    3.6924   -3.2896 H   0  0  0  0  0  0  0  0  0  0  0  0
    2.4207   -0.2814   -2.2036 H   0  0  0  0  0  0  0  0  0  0  0  0
    4.5603    2.7695   -5.4265 H   0  0  0  0  0  0  0  0  0  0  0  0
    3.1883   -1.1470   -4.2958 H   0  0  0  0  0  0  0  0  0  0  0  0
    4.2205    0.3671   -5.9727 H   0  0  0  0  0  0  0  0  0  0  0  0
    0.5748    3.0850   -3.2346 H   0  0  0  0  0  0  0  0  0  0  0  0
    0.0802    4.8713   -0.0448 H   0  0  0  0  0  0  0  0  0  0  0  0
   -1.4200    5.5860   -0.6077 H   0  0  0  0  0  0  0  0  0  0  0  0
   -0.3084    3.3915    1.4712 H   0  0  0  0  0  0  0  0  0  0  0  0
  1  2  1  0  0  0  0
  1 19  1  0  0  0  0
  2  3  1  0  0  0  0
  2 20  1  0  0  0  0
  2 21  1  0  0  0  0
  3  4  1  0  0  0  0
  3 13  1  0  0  0  0
  3 18  1  1  0  0  0
  4  5  1  0  0  0  0
  4 22  1  0  0  0  0
  4 23  1  0  0  0  0
  5  6  2  0  0  0  0
  5  7  1  0  0  0  0
  6  8  1  0  0  0  0
  6 24  1  0  0  0  0
  7  9  2  0  0  0  0
  7 25  1  0  0  0  0
  8 10  2  0  0  0  0
  8 26  1  0  0  0  0
  9 10  1  0  0  0  0
  9 27  1  0  0  0  0
 10 28  1  0  0  0  0
 11 12  2  0  0  0  0
 11 13  1  0  0  0  0
 11 14  1  0  0  0  0
 13 29  1  0  0  0  0
 14 15  1  0  0  0  0
 14 30  1  0  0  0  0
 14 31  1  0  0  0  0
 15 16  1  0  0  0  0
 15 17  2  0  0  0  0
 16 32  1  0  0  0  0
M  END
>  <DRUGBANK_ID>
DB01935

>  <SECONDARY_ACCESSION_NUMBERS>
EXPT02817

>  <COMMON_NAME>
3-{[(1r)-1-Benzyl-2-Sulfanylethyl]Amino}-3-Oxopropanoic Acid

$$$$
