
 OpenBabel10282417143D

 80 82  0  0  1  0  0  0  0  0999 V2000
   -0.9526   -1.2745   -5.3835 C   0  0  0  0  0  0  0  0  0  0  0  0
   -1.4612   -0.0322   -4.6990 C   0  0  0  0  0  0  0  0  0  0  0  0
   -2.9887   -0.1067   -4.5660 C   0  0  0  0  0  0  0  0  0  0  0  0
   -0.6976    0.0854   -3.3573 C   0  0  0  0  0  0  0  0  0  0  0  0
    0.7238    0.6650   -3.5383 C   0  0  1  0  0  0  0  0  0  0  0  0
    1.0655    1.8494   -4.4792 C   0  0  0  0  0  0  0  0  0  0  0  0
    0.6672    3.2806   -4.0489 C   0  0  2  0  0  0  0  0  0  0  0  0
    1.1727    3.5798   -2.7488 O   0  0  0  0  0  0  0  0  0  0  0  0
   -0.8340    3.5931   -4.1495 C   0  0  2  0  0  0  0  0  0  0  0  0
   -1.6098    2.6673   -3.2003 C   0  0  0  0  0  0  0  0  0  0  0  0
   -2.7139    2.8394   -2.2197 C   0  0  0  0  0  0  0  0  0  0  0  0
   -3.5070    1.7628   -1.7301 C   0  0  0  0  0  0  0  0  0  0  0  0
   -4.5096    2.0038   -0.8026 C   0  0  0  0  0  0  0  0  0  0  0  0
   -4.6543    3.2951   -0.3125 C   0  0  0  0  0  0  0  0  0  0  0  0
   -3.7709    4.3077   -0.6900 C   0  0  0  0  0  0  0  0  0  0  0  0
   -2.8181    4.0832   -1.6532 C   0  0  0  0  0  0  0  0  0  0  0  0
   -1.1413    3.5266   -5.5817 N   0  0  0  0  0  0  0  0  0  0  0  0
   -1.8914    4.4374   -6.2873 C   0  0  0  0  0  0  0  0  0  0  0  0
   -2.0025    4.3127   -7.5066 O   0  0  0  0  0  0  0  0  0  0  0  0
   -2.7295    5.4260   -5.4547 C   0  0  0  0  0  0  0  0  0  0  0  0
   -3.5532    5.0346   -4.3574 O   0  0  0  0  0  0  0  0  0  0  0  0
   -4.7198    4.3001   -4.4419 C   0  0  0  0  0  0  0  0  0  0  0  0
   -4.9093    3.1125   -5.1901 C   0  0  0  0  0  0  0  0  0  0  0  0
   -3.9294    2.5970   -6.1506 C   0  0  0  0  0  0  0  0  0  0  0  0
   -6.0396    2.3102   -5.0601 C   0  0  0  0  0  0  0  0  0  0  0  0
   -7.0184    2.6565   -4.1607 C   0  0  0  0  0  0  0  0  0  0  0  0
   -6.8513    3.7957   -3.3766 C   0  0  0  0  0  0  0  0  0  0  0  0
   -5.7338    4.6472   -3.5313 C   0  0  0  0  0  0  0  0  0  0  0  0
   -5.7291    5.9435   -2.7649 C   0  0  0  0  0  0  0  0  0  0  0  0
    1.3811    0.8730   -2.2624 N   0  0  0  0  0  0  0  0  0  0  0  0
    2.2712    0.0534   -1.6058 C   0  0  0  0  0  0  0  0  0  0  0  0
    2.6839    0.3307   -0.5111 O   0  0  0  0  0  0  0  0  0  0  0  0
    2.7019   -1.1858   -2.3034 C   0  0  0  0  0  0  0  0  0  0  0  0
    3.1087   -1.1630   -3.6424 C   0  0  0  0  0  0  0  0  0  0  0  0
    3.4212   -2.3383   -4.3104 C   0  0  0  0  0  0  0  0  0  0  0  0
    3.4717   -3.5383   -3.6106 C   0  0  0  0  0  0  0  0  0  0  0  0
    4.0132   -4.6655   -4.2266 N   0  0  0  0  0  0  0  0  0  0  0  0
    3.2122   -3.5266   -2.2330 C   0  0  0  0  0  0  0  0  0  0  0  0
    2.7437   -2.3758   -1.5915 C   0  0  0  0  0  0  0  0  0  0  0  0
   -1.1530   -2.1274   -4.7322 H   0  0  0  0  0  0  0  0  0  0  0  0
    0.1235   -1.1997   -5.5560 H   0  0  0  0  0  0  0  0  0  0  0  0
   -1.4421   -1.4104   -6.3471 H   0  0  0  0  0  0  0  0  0  0  0  0
   -1.2317    0.8026   -5.3693 H   0  0  0  0  0  0  0  0  0  0  0  0
   -3.3060   -0.8481   -3.8395 H   0  0  0  0  0  0  0  0  0  0  0  0
   -3.4494    0.8306   -4.2462 H   0  0  0  0  0  0  0  0  0  0  0  0
   -3.4462   -0.3262   -5.5355 H   0  0  0  0  0  0  0  0  0  0  0  0
   -1.2216    0.5909   -2.5585 H   0  0  0  0  0  0  0  0  0  0  0  0
   -0.6650   -0.8954   -2.8700 H   0  0  0  0  0  0  0  0  0  0  0  0
    1.1712   -0.1773   -4.0374 H   0  0  0  0  0  0  0  0  0  0  0  0
    2.1635    1.8739   -4.5746 H   0  0  0  0  0  0  0  0  0  0  0  0
    0.7276    1.6270   -5.4979 H   0  0  0  0  0  0  0  0  0  0  0  0
    1.1670    3.9740   -4.7373 H   0  0  0  0  0  0  0  0  0  0  0  0
    0.4362    3.7953   -2.1485 H   0  0  0  0  0  0  0  0  0  0  0  0
   -0.9966    4.6100   -3.8172 H   0  0  0  0  0  0  0  0  0  0  0  0
   -2.0010    1.9327   -3.8528 H   0  0  0  0  0  0  0  0  0  0  0  0
   -0.8618    2.3548   -2.4732 H   0  0  0  0  0  0  0  0  0  0  0  0
   -3.3788    0.7281   -2.0515 H   0  0  0  0  0  0  0  0  0  0  0  0
   -5.1708    1.2045   -0.4730 H   0  0  0  0  0  0  0  0  0  0  0  0
   -5.4717    3.5330    0.3551 H   0  0  0  0  0  0  0  0  0  0  0  0
   -3.8469    5.3111   -0.2972 H   0  0  0  0  0  0  0  0  0  0  0  0
   -2.1826    4.8809   -2.0108 H   0  0  0  0  0  0  0  0  0  0  0  0
   -0.9748    2.6756   -6.1191 H   0  0  0  0  0  0  0  0  0  0  0  0
   -1.9561    6.0836   -5.0296 H   0  0  0  0  0  0  0  0  0  0  0  0
   -3.3139    6.0443   -6.1327 H   0  0  0  0  0  0  0  0  0  0  0  0
   -3.6295    1.5611   -6.1794 H   0  0  0  0  0  0  0  0  0  0  0  0
   -4.0954    2.9563   -7.1606 H   0  0  0  0  0  0  0  0  0  0  0  0
   -3.0890    2.9545   -5.6394 H   0  0  0  0  0  0  0  0  0  0  0  0
   -6.1146    1.4031   -5.6554 H   0  0  0  0  0  0  0  0  0  0  0  0
   -7.9085    2.0423   -4.0922 H   0  0  0  0  0  0  0  0  0  0  0  0
   -7.6121    4.0231   -2.6355 H   0  0  0  0  0  0  0  0  0  0  0  0
   -6.5623    6.5578   -3.1202 H   0  0  0  0  0  0  0  0  0  0  0  0
   -5.8619    5.7823   -1.6907 H   0  0  0  0  0  0  0  0  0  0  0  0
   -4.8122    6.5225   -2.9086 H   0  0  0  0  0  0  0  0  0  0  0  0
    1.2549    1.7664   -1.7924 H   0  0  0  0  0  0  0  0  0  0  0  0
    3.1416   -0.2327   -4.2029 H   0  0  0  0  0  0  0  0  0  0  0  0
    3.6535   -2.2915   -5.3701 H   0  0  0  0  0  0  0  0  0  0  0  0
    3.8298   -5.5481   -3.7641 H   0  0  0  0  0  0  0  0  0  0  0  0
    3.9117   -4.7021   -5.2359 H   0  0  0  0  0  0  0  0  0  0  0  0
    3.3808   -4.4190   -1.6390 H   0  0  0  0  0  0  0  0  0  0  0  0
    2.4430   -2.4030   -0.5473 H   0  0  0  0  0  0  0  0  0  0  0  0
  1  2  1  0  0  0  0
  1 40  1  0  0  0  0
  1 41  1  0  0  0  0
  1 42  1  0  0  0  0
  2  3  1  0  0  0  0
  2  4  1  0  0  0  0
  2 43  1  0  0  0  0
  3 44  1  0  0  0  0
  3 45  1  0  0  0  0
  3 46  1  0  0  0  0
  4  5  1  0  0  0  0
  4 47  1  0  0  0  0
  4 48  1  0  0  0  0
  5  6  1  0  0  0  0
  5 30  1  0  0  0  0
  5 49  1  6  0  0  0
  6 50  1  0  0  0  0
  6 51  1  0  0  0  0
  7 52  1  6  0  0  0
  7  8  1  0  0  0  0
  7  6  1  0  0  0  0
  8 53  1  0  0  0  0
  9 17  1  0  0  0  0
  9 54  1  1  0  0  0
  9 10  1  0  0  0  0
  9  7  1  0  0  0  0
 10 11  1  0  0  0  0
 10 55  1  0  0  0  0
 10 56  1  0  0  0  0
 11 12  2  0  0  0  0
 11 16  1  0  0  0  0
 12 13  1  0  0  0  0
 12 57  1  0  0  0  0
 13 14  2  0  0  0  0
 13 58  1  0  0  0  0
 14 15  1  0  0  0  0
 14 59  1  0  0  0  0
 15 16  2  0  0  0  0
 15 60  1  0  0  0  0
 16 61  1  0  0  0  0
 17 18  1  0  0  0  0
 17 62  1  0  0  0  0
 18 19  2  0  0  0  0
 18 20  1  0  0  0  0
 20 21  1  0  0  0  0
 20 63  1  0  0  0  0
 20 64  1  0  0  0  0
 21 22  1  0  0  0  0
 22 23  2  0  0  0  0
 22 28  1  0  0  0  0
 23 24  1  0  0  0  0
 23 25  1  0  0  0  0
 24 65  1  0  0  0  0
 24 66  1  0  0  0  0
 24 67  1  0  0  0  0
 25 26  2  0  0  0  0
 25 68  1  0  0  0  0
 26 27  1  0  0  0  0
 26 69  1  0  0  0  0
 27 28  2  0  0  0  0
 27 70  1  0  0  0  0
 28 29  1  0  0  0  0
 29 71  1  0  0  0  0
 29 72  1  0  0  0  0
 29 73  1  0  0  0  0
 30 31  1  0  0  0  0
 30 74  1  0  0  0  0
 31 32  2  0  0  0  0
 31 33  1  0  0  0  0
 33 34  2  0  0  0  0
 33 39  1  0  0  0  0
 34 35  1  0  0  0  0
 34 75  1  0  0  0  0
 35 36  2  0  0  0  0
 35 76  1  0  0  0  0
 36 37  1  0  0  0  0
 36 38  1  0  0  0  0
 37 77  1  0  0  0  0
 37 78  1  0  0  0  0
 38 39  2  0  0  0  0
 38 79  1  0  0  0  0
 39 80  1  0  0  0  0
M  END
>  <DRUGBANK_ID>
DB04378

>  <SECONDARY_ACCESSION_NUMBERS>
EXPT02746

>  <COMMON_NAME>
3-Amino-N-{4-[2-(2,6-Dimethyl-Phenoxy)-Acetylamino]-3-Hydroxy-1-Isobutyl-5-Phenyl-Pentyl}-Benzamide

$$$$
