
 OpenBabel10282417183D

 83 88  0  0  0  0  0  0  0  0999 V2000
   -7.8341    9.4936   -0.1296 C   0  0  0  0  0  0  0  0  0  0  0  0
   -8.8106    8.5252   -0.3177 C   0  0  0  0  0  0  0  0  0  0  0  0
   -8.4608    7.1669   -0.2689 C   0  0  0  0  0  0  0  0  0  0  0  0
   -7.1141    6.7979   -0.2665 C   0  0  0  0  0  0  0  0  0  0  0  0
   -6.1442    7.7609   -0.0274 C   0  0  0  0  0  0  0  0  0  0  0  0
   -6.4971    9.1138    0.0414 C   0  0  0  0  0  0  0  0  0  0  0  0
   -9.4913    6.1656   -0.0004 C   0  0  0  0  0  0  0  0  0  0  0  0
  -10.4953    6.0223   -0.9938 C   0  0  0  0  0  0  0  0  0  0  0  0
  -11.6163    5.2445   -0.7657 C   0  0  0  0  0  0  0  0  0  0  0  0
  -11.6838    4.5021    0.4084 C   0  0  0  0  0  0  0  0  0  0  0  0
  -10.6744    4.6004    1.4033 C   0  0  0  0  0  0  0  0  0  0  0  0
   -9.5608    5.4555    1.2520 C   0  0  0  0  0  0  0  0  0  0  0  0
   -5.4227   10.1388    0.2355 C   0  0  0  0  0  0  0  0  0  0  0  0
   -4.7575   10.0145    1.4154 F   0  0  0  0  0  0  0  0  0  0  0  0
   -4.4792   10.0551   -0.7432 F   0  0  0  0  0  0  0  0  0  0  0  0
   -5.8865   11.4190    0.1958 F   0  0  0  0  0  0  0  0  0  0  0  0
   -8.4343    5.6732    2.3711 C   0  0  0  0  0  0  0  0  0  0  0  0
   -8.5449    5.0621    3.6195 N   0  0  0  0  0  0  0  0  0  0  0  0
   -7.4374    6.3197    2.1840 O   0  0  0  0  0  0  0  0  0  0  0  0
   -7.5531    5.0646    4.7014 C   0  0  0  0  0  0  0  0  0  0  0  0
   -6.2907    5.7509    4.9565 C   0  0  0  0  0  0  0  0  0  0  0  0
   -7.4358    4.4069    6.9814 C   0  0  0  0  0  0  0  0  0  0  0  0
   -7.9146    4.2218    5.7091 C   0  0  0  0  0  0  0  0  0  0  0  0
   -6.2947    5.1852    7.1796 C   0  0  0  0  0  0  0  0  0  0  0  0
   -5.3711    5.5574    6.1939 C   0  0  0  0  0  0  0  0  0  0  0  0
   -4.1203    4.5963    7.0192 C   0  0  0  0  0  0  0  0  0  0  0  0
   -4.8295    3.9538    8.0701 C   0  0  0  0  0  0  0  0  0  0  0  0
   -5.4508    5.2874    8.2758 N   0  0  0  0  0  0  0  0  0  0  0  0
   -5.2431    2.4950    8.0293 C   0  0  0  0  0  0  0  0  0  0  0  0
   -5.9167    2.0955    6.8443 N   0  0  0  0  0  0  0  0  0  0  0  0
   -4.8671    1.7330    8.8699 O   0  0  0  0  0  0  0  0  0  0  0  0
   -6.7693    0.9204    6.4902 C   0  0  2  0  0  0  0  0  0  0  0  0
   -5.8822   -0.2637    6.8017 C   0  0  0  0  0  0  0  0  0  0  0  0
   -7.2637    0.8773    4.9925 C   0  0  0  0  0  0  0  0  0  0  0  0
   -7.7498   -0.3076    4.4338 C   0  0  0  0  0  0  0  0  0  0  0  0
   -8.2758   -0.3480    3.1247 C   0  0  0  0  0  0  0  0  0  0  0  0
   -8.5276    0.8147    2.4123 C   0  0  0  0  0  0  0  0  0  0  0  0
   -8.0912    1.9920    2.9508 C   0  0  0  0  0  0  0  0  0  0  0  0
   -7.2747    1.9476    4.0915 C   0  0  0  0  0  0  0  0  0  0  0  0
   -5.1311   -0.7204    5.9288 O   0  0  0  0  0  0  0  0  0  0  0  0
   -5.8300   -0.7198    8.1087 N   0  0  0  0  0  0  0  0  0  0  0  0
   -6.5984   -0.1992    9.2629 C   0  0  0  0  0  0  0  0  0  0  0  0
   -4.6909   -1.5761    8.3458 C   0  0  0  0  0  0  0  0  0  0  0  0
   -7.4679   -1.2421    9.8930 C   0  0  0  0  0  0  0  0  0  0  0  0
   -4.6451    6.7202    8.3066 C   0  0  0  0  0  0  0  0  0  0  0  0
   -6.8948   -2.4555   10.2887 C   0  0  0  0  0  0  0  0  0  0  0  0
   -7.6132   -3.4266   10.9416 C   0  0  0  0  0  0  0  0  0  0  0  0
   -8.9294   -3.1673   11.2653 C   0  0  0  0  0  0  0  0  0  0  0  0
   -9.5121   -1.9387   10.9368 C   0  0  0  0  0  0  0  0  0  0  0  0
   -8.8025   -0.9890   10.2053 C   0  0  0  0  0  0  0  0  0  0  0  0
   -8.1232   10.5407   -0.0716 H   0  0  0  0  0  0  0  0  0  0  0  0
   -9.8489    8.8311   -0.4323 H   0  0  0  0  0  0  0  0  0  0  0  0
   -6.8398    5.7449   -0.2158 H   0  0  0  0  0  0  0  0  0  0  0  0
   -5.1300    7.4370    0.1982 H   0  0  0  0  0  0  0  0  0  0  0  0
  -10.4048    6.5568   -1.9421 H   0  0  0  0  0  0  0  0  0  0  0  0
  -12.4277    5.2341   -1.4928 H   0  0  0  0  0  0  0  0  0  0  0  0
  -12.5416    3.8433    0.5475 H   0  0  0  0  0  0  0  0  0  0  0  0
  -10.8219    3.9979    2.2928 H   0  0  0  0  0  0  0  0  0  0  0  0
   -9.3074    4.4093    3.7370 H   0  0  0  0  0  0  0  0  0  0  0  0
   -6.3701    6.8151    4.6105 H   0  0  0  0  0  0  0  0  0  0  0  0
   -7.7165    3.6987    7.7492 H   0  0  0  0  0  0  0  0  0  0  0  0
   -8.4960    3.3269    5.5314 H   0  0  0  0  0  0  0  0  0  0  0  0
   -3.3657    5.0288    7.8028 H   0  0  0  0  0  0  0  0  0  0  0  0
   -6.0585    2.8366    6.2076 H   0  0  0  0  0  0  0  0  0  0  0  0
   -7.6840    0.9379    7.1047 H   0  0  0  0  0  0  0  0  0  0  0  0
   -7.5954   -1.2450    4.9607 H   0  0  0  0  0  0  0  0  0  0  0  0
   -8.4489   -1.3036    2.6458 H   0  0  0  0  0  0  0  0  0  0  0  0
   -8.9204    0.8234    1.3996 H   0  0  0  0  0  0  0  0  0  0  0  0
   -8.2688    2.9097    2.4033 H   0  0  0  0  0  0  0  0  0  0  0  0
   -6.6166    2.7969    4.2148 H   0  0  0  0  0  0  0  0  0  0  0  0
   -5.9201    0.1504   10.0522 H   0  0  0  0  0  0  0  0  0  0  0  0
   -7.2127    0.6679    8.9970 H   0  0  0  0  0  0  0  0  0  0  0  0
   -4.9093   -2.5306    7.8553 H   0  0  0  0  0  0  0  0  0  0  0  0
   -3.7879   -1.1412    7.9107 H   0  0  0  0  0  0  0  0  0  0  0  0
   -4.4739   -1.6961    9.4038 H   0  0  0  0  0  0  0  0  0  0  0  0
   -4.0602    6.9218    7.3588 H   0  0  0  0  0  0  0  0  0  0  0  0
   -5.4532    7.4454    8.3764 H   0  0  0  0  0  0  0  0  0  0  0  0
   -3.9253    6.6696    9.1170 H   0  0  0  0  0  0  0  0  0  0  0  0
   -5.8618   -2.6942   10.1080 H   0  0  0  0  0  0  0  0  0  0  0  0
   -7.1080   -4.3509   11.1981 H   0  0  0  0  0  0  0  0  0  0  0  0
   -9.4958   -3.9312   11.7811 H   0  0  0  0  0  0  0  0  0  0  0  0
  -10.5211   -1.7203   11.2688 H   0  0  0  0  0  0  0  0  0  0  0  0
   -9.2849   -0.0596    9.9073 H   0  0  0  0  0  0  0  0  0  0  0  0
  1  2  2  0  0  0  0
  1 51  1  0  0  0  0
  2  3  1  0  0  0  0
  2 52  1  0  0  0  0
  3  7  1  0  0  0  0
  3  4  2  0  0  0  0
  4  5  1  0  0  0  0
  4 53  1  0  0  0  0
  5  6  2  0  0  0  0
  5 54  1  0  0  0  0
  6  1  1  0  0  0  0
  6 13  1  0  0  0  0
  7  8  2  0  0  0  0
  8  9  1  0  0  0  0
  8 55  1  0  0  0  0
  9 10  2  0  0  0  0
  9 56  1  0  0  0  0
 10 11  1  0  0  0  0
 10 57  1  0  0  0  0
 11 12  2  0  0  0  0
 11 58  1  0  0  0  0
 12  7  1  0  0  0  0
 12 17  1  0  0  0  0
 13 14  1  0  0  0  0
 13 15  1  0  0  0  0
 13 16  1  0  0  0  0
 17 18  1  0  0  0  0
 17 19  2  0  0  0  0
 18 20  1  0  0  0  0
 18 59  1  0  0  0  0
 20 21  2  0  0  0  0
 21 25  1  0  0  0  0
 21 60  1  0  0  0  0
 22 23  2  0  0  0  0
 22 61  1  0  0  0  0
 23 20  1  0  0  0  0
 23 62  1  0  0  0  0
 24 25  2  0  0  0  0
 24 22  1  0  0  0  0
 25 26  1  0  0  0  0
 26 27  2  0  0  0  0
 26 63  1  0  0  0  0
 27 28  1  0  0  0  0
 27 29  1  0  0  0  0
 28 24  1  0  0  0  0
 28 45  1  0  0  0  0
 29 30  1  0  0  0  0
 29 31  2  0  0  0  0
 30 64  1  0  0  0  0
 32 34  1  0  0  0  0
 32 65  1  1  0  0  0
 32 33  1  0  0  0  0
 32 30  1  0  0  0  0
 33 40  2  0  0  0  0
 33 41  1  0  0  0  0
 34 35  2  0  0  0  0
 35 36  1  0  0  0  0
 35 66  1  0  0  0  0
 36 37  2  0  0  0  0
 36 67  1  0  0  0  0
 37 38  1  0  0  0  0
 37 68  1  0  0  0  0
 38 39  2  0  0  0  0
 38 69  1  0  0  0  0
 39 34  1  0  0  0  0
 39 70  1  0  0  0  0
 41 42  1  0  0  0  0
 41 43  1  0  0  0  0
 42 44  1  0  0  0  0
 42 71  1  0  0  0  0
 42 72  1  0  0  0  0
 43 73  1  0  0  0  0
 43 74  1  0  0  0  0
 43 75  1  0  0  0  0
 44 46  2  0  0  0  0
 45 76  1  0  0  0  0
 45 77  1  0  0  0  0
 45 78  1  0  0  0  0
 46 47  1  0  0  0  0
 46 79  1  0  0  0  0
 47 48  2  0  0  0  0
 47 80  1  0  0  0  0
 48 49  1  0  0  0  0
 48 81  1  0  0  0  0
 49 50  2  0  0  0  0
 49 82  1  0  0  0  0
 50 44  1  0  0  0  0
 50 83  1  0  0  0  0
M  END
>  <DRUGBANK_ID>
DB11399

>  <COMMON_NAME>
Dirlotapide

>  <CAS_NUMBER>
481658-94-0

>  <UNII>
578H0RMP25

>  <SYNONYMS>
Dirlotapide

$$$$
