
 OpenBabel10282417203D

 28 28  0  0  1  0  0  0  0  0999 V2000
    1.9418   -5.2241   -0.1369 C   0  0  0  0  0  0  0  0  0  0  0  0
    1.7862   -4.0776   -0.9912 O   0  0  0  0  0  0  0  0  0  0  0  0
    1.0044   -4.1561   -2.0998 C   0  0  0  0  0  0  0  0  0  0  0  0
    0.7087   -5.2091   -2.6358 O   0  0  0  0  0  0  0  0  0  0  0  0
    0.4493   -2.7576   -2.5744 C   0  0  2  0  0  0  0  0  0  0  0  0
    0.8801   -1.4752   -1.8095 C   0  0  0  0  0  0  0  0  0  0  0  0
    1.1078   -1.6025   -0.3133 C   0  0  0  0  0  0  0  0  0  0  0  0
    2.2388   -0.9948    0.2546 C   0  0  0  0  0  0  0  0  0  0  0  0
    2.6456   -1.3363    1.5468 C   0  0  0  0  0  0  0  0  0  0  0  0
    1.9425   -2.2979    2.2599 C   0  0  0  0  0  0  0  0  0  0  0  0
    0.7864   -2.8623    1.7356 C   0  0  0  0  0  0  0  0  0  0  0  0
    0.3266   -2.4682    0.4827 C   0  0  0  0  0  0  0  0  0  0  0  0
    0.2319   -3.9333    2.3905 O   0  0  0  0  0  0  0  0  0  0  0  0
    2.4537   -2.7425    3.4454 O   0  0  0  0  0  0  0  0  0  0  0  0
   -1.0400   -2.7662   -2.6632 N   0  0  0  0  0  0  0  0  0  0  0  0
    2.1644   -4.8775    0.8802 H   0  0  0  0  0  0  0  0  0  0  0  0
    2.8079   -5.7939   -0.4589 H   0  0  0  0  0  0  0  0  0  0  0  0
    1.0288   -5.8266   -0.0675 H   0  0  0  0  0  0  0  0  0  0  0  0
    0.7965   -2.6488   -3.6108 H   0  0  0  0  0  0  0  0  0  0  0  0
    1.7988   -1.1113   -2.2950 H   0  0  0  0  0  0  0  0  0  0  0  0
    0.1490   -0.6686   -1.9664 H   0  0  0  0  0  0  0  0  0  0  0  0
    2.8572   -0.3154   -0.3301 H   0  0  0  0  0  0  0  0  0  0  0  0
    3.5469   -0.9047    1.9686 H   0  0  0  0  0  0  0  0  0  0  0  0
   -0.5061   -3.0071    0.0472 H   0  0  0  0  0  0  0  0  0  0  0  0
   -0.3540   -4.4072    1.7724 H   0  0  0  0  0  0  0  0  0  0  0  0
    1.8494   -3.4537    3.7338 H   0  0  0  0  0  0  0  0  0  0  0  0
   -1.3579   -3.6272   -3.1073 H   0  0  0  0  0  0  0  0  0  0  0  0
   -1.4614   -2.7189   -1.7399 H   0  0  0  0  0  0  0  0  0  0  0  0
  1  2  1  0  0  0  0
  1 16  1  0  0  0  0
  1 17  1  0  0  0  0
  1 18  1  0  0  0  0
  2  3  1  0  0  0  0
  3  4  2  0  0  0  0
  5 15  1  0  0  0  0
  5 19  1  6  0  0  0
  5  6  1  0  0  0  0
  5  3  1  0  0  0  0
  6  7  1  0  0  0  0
  6 20  1  0  0  0  0
  6 21  1  0  0  0  0
  7  8  2  0  0  0  0
  7 12  1  0  0  0  0
  8  9  1  0  0  0  0
  8 22  1  0  0  0  0
  9 10  2  0  0  0  0
  9 23  1  0  0  0  0
 10 11  1  0  0  0  0
 10 14  1  0  0  0  0
 11 12  2  0  0  0  0
 11 13  1  0  0  0  0
 12 24  1  0  0  0  0
 13 25  1  0  0  0  0
 14 26  1  0  0  0  0
 15 27  1  0  0  0  0
 15 28  1  0  0  0  0
M  END
>  <DRUGBANK_ID>
DB13313

>  <COMMON_NAME>
Melevodopa

>  <CAS_NUMBER>
7101-51-1

>  <UNII>
M30686U4X4

>  <SYNONYMS>
Melevodopa

$$$$
