
 OpenBabel10282417233D

 40 44  0  0  0  0  0  0  0  0999 V2000
    1.6295    0.1735   -0.8715 F   0  0  0  0  0  0  0  0  0  0  0  0
    2.7950    0.3796   -0.1760 C   0  0  0  0  0  0  0  0  0  0  0  0
    2.6966    1.6871    0.2443 F   0  0  0  0  0  0  0  0  0  0  0  0
    2.7117   -0.5703    1.1595 C   0  0  0  0  0  0  0  0  0  0  0  0
    2.4410   -1.9697    1.3061 N   0  0  0  0  0  0  0  0  0  0  0  0
    2.7895   -2.2848    2.6337 C   0  0  0  0  0  0  0  0  0  0  0  0
    3.1152   -1.1863    3.2707 N   0  0  0  0  0  0  0  0  0  0  0  0
    3.0034   -0.1277    2.3891 N   0  0  0  0  0  0  0  0  0  0  0  0
    2.8059   -3.6441    3.0569 C   0  0  0  0  0  0  0  0  0  0  0  0
    2.3659   -4.5982    2.2293 C   0  0  0  0  0  0  0  0  0  0  0  0
    1.9555   -4.1468    0.8640 C   0  0  0  0  0  0  0  0  0  0  0  0
    2.0295   -2.9236    0.3915 N   0  0  0  0  0  0  0  0  0  0  0  0
    1.4661   -5.2376   -0.0264 C   0  0  0  0  0  0  0  0  0  0  0  0
    0.3750   -6.0457    0.3058 C   0  0  0  0  0  0  0  0  0  0  0  0
   -0.1160   -6.8927   -0.6775 C   0  0  0  0  0  0  0  0  0  0  0  0
    0.4258   -7.0058   -1.9097 N   0  0  0  0  0  0  0  0  0  0  0  0
    1.5060   -6.2427   -2.1797 C   0  0  0  0  0  0  0  0  0  0  0  0
    2.0615   -5.3557   -1.2782 C   0  0  0  0  0  0  0  0  0  0  0  0
    4.0571    0.2134   -1.1764 C   0  0  0  0  0  0  0  0  0  0  0  0
    5.0655    1.1103   -1.7538 C   0  0  0  0  0  0  0  0  0  0  0  0
    6.3300    0.5446   -2.0413 C   0  0  0  0  0  0  0  0  0  0  0  0
    6.7010   -0.0758   -0.8683 C   0  0  0  0  0  0  0  0  0  0  0  0
    5.7202   -0.9560   -0.4269 C   0  0  0  0  0  0  0  0  0  0  0  0
    4.5363   -1.0729   -1.1420 C   0  0  0  0  0  0  0  0  0  0  0  0
    5.5816   -1.0822    0.9623 C   0  0  0  0  0  0  0  0  0  0  0  0
    6.2458   -0.2497    1.8438 C   0  0  0  0  0  0  0  0  0  0  0  0
    7.2404    0.5140    1.3237 C   0  0  0  0  0  0  0  0  0  0  0  0
    7.5090    0.5948   -0.0133 N   0  0  0  0  0  0  0  0  0  0  0  0
    3.1762   -3.9042    4.0495 H   0  0  0  0  0  0  0  0  0  0  0  0
    2.3492   -5.6504    2.5104 H   0  0  0  0  0  0  0  0  0  0  0  0
   -0.1240   -5.9956    1.2667 H   0  0  0  0  0  0  0  0  0  0  0  0
   -0.9998   -7.5055   -0.5124 H   0  0  0  0  0  0  0  0  0  0  0  0
    1.9149   -6.3511   -3.1801 H   0  0  0  0  0  0  0  0  0  0  0  0
    2.9202   -4.7539   -1.5499 H   0  0  0  0  0  0  0  0  0  0  0  0
    5.2309    2.1774   -1.5216 H   0  0  0  0  0  0  0  0  0  0  0  0
    6.2945   -0.1590   -2.9043 H   0  0  0  0  0  0  0  0  0  0  0  0
    4.6259   -1.4807   -2.1684 H   0  0  0  0  0  0  0  0  0  0  0  0
    4.8083   -1.6917    1.3535 H   0  0  0  0  0  0  0  0  0  0  0  0
    5.9452   -0.2195    2.8940 H   0  0  0  0  0  0  0  0  0  0  0  0
    7.8680    1.1097    1.9821 H   0  0  0  0  0  0  0  0  0  0  0  0
  1  2  1  0  0  0  0
  2  3  1  0  0  0  0
  2  4  1  0  0  0  0
  2 19  1  0  0  0  0
  4  5  1  0  0  0  0
  4  8  2  0  0  0  0
  6  5  1  0  0  0  0
  6  9  1  0  0  0  0
  7  6  2  0  0  0  0
  8  7  1  0  0  0  0
  9 10  2  0  0  0  0
  9 29  1  0  0  0  0
 10 11  1  0  0  0  0
 10 30  1  0  0  0  0
 11 12  2  0  0  0  0
 11 13  1  0  0  0  0
 12  5  1  0  0  0  0
 13 14  1  0  0  0  0
 13 18  2  0  0  0  0
 14 31  1  0  0  0  0
 15 14  2  0  0  0  0
 15 32  1  0  0  0  0
 16 15  1  0  0  0  0
 17 16  2  0  0  0  0
 17 33  1  0  0  0  0
 18 17  1  0  0  0  0
 18 34  1  0  0  0  0
 19 20  1  0  0  0  0
 19 24  2  0  0  0  0
 20 35  1  0  0  0  0
 21 20  2  0  0  0  0
 21 36  1  0  0  0  0
 22 21  1  0  0  0  0
 22 28  1  0  0  0  0
 23 22  2  0  0  0  0
 23 25  1  0  0  0  0
 24 23  1  0  0  0  0
 24 37  1  0  0  0  0
 25 38  1  0  0  0  0
 26 25  2  0  0  0  0
 26 39  1  0  0  0  0
 27 26  1  0  0  0  0
 27 40  1  0  0  0  0
 28 27  2  0  0  0  0
M  END
>  <DRUGBANK_ID>
DB16883

>  <COMMON_NAME>
JNJ-38877618

>  <CAS_NUMBER>
943540-74-7

>  <UNII>
E0B2IZB5H5

$$$$
