
 OpenBabel10282417203D

 55 56  0  0  1  0  0  0  0  0999 V2000
    0.2493   -5.4634    0.3289 C   0  0  0  0  0  0  0  0  0  0  0  0
   -0.4824   -5.3360    1.5313 O   0  0  0  0  0  0  0  0  0  0  0  0
   -1.6267   -4.5860    1.5372 C   0  0  0  0  0  0  0  0  0  0  0  0
   -2.3289   -4.0764    0.4397 C   0  0  0  0  0  0  0  0  0  0  0  0
   -3.4609   -3.2252    0.6157 C   0  0  0  0  0  0  0  0  0  0  0  0
   -3.9615   -2.9265    1.9075 C   0  0  0  0  0  0  0  0  0  0  0  0
   -3.2940   -3.5708    2.9847 C   0  0  0  0  0  0  0  0  0  0  0  0
   -2.0576   -4.2467    2.8242 C   0  0  0  0  0  0  0  0  0  0  0  0
   -1.0396   -4.3296    3.8085 N   0  0  0  0  0  0  0  0  0  0  0  0
   -0.6786   -3.5356    4.8634 C   0  0  0  0  0  0  0  0  0  0  0  0
    0.1821   -3.8587    5.6006 O   0  0  0  0  0  0  0  0  0  0  0  0
   -1.3332   -2.1668    4.9384 C   0  0  2  0  0  0  0  0  0  0  0  0
   -1.6704   -1.0947    3.3297 C   0  0  0  0  0  0  0  0  0  0  0  0
   -1.3870   -1.6696    2.1104 O   0  0  0  0  0  0  0  0  0  0  0  0
   -0.3976   -1.5843    6.1225 N   0  0  0  0  0  0  0  0  0  0  0  0
   -5.0153   -1.8272    2.1424 C   0  0  0  0  0  0  0  0  0  0  0  0
   -5.5038   -1.2154    3.2867 C   0  0  0  0  0  0  0  0  0  0  0  0
   -4.9432   -1.1715    4.7204 C   0  0  0  0  0  0  0  0  0  0  0  0
   -3.6370   -0.7015    4.7131 C   0  0  0  0  0  0  0  0  0  0  0  0
   -2.5029   -0.3125    5.6790 C   0  0  0  0  0  0  0  0  0  0  0  0
   -2.8173   -0.8477    6.9684 C   0  0  0  0  0  0  0  0  0  0  0  0
   -4.2979   -1.1327    7.1012 C   0  0  0  0  0  0  0  0  0  0  0  0
   -5.3262   -1.2752    6.0156 C   0  0  0  0  0  0  0  0  0  0  0  0
   -4.9183   -1.2009    8.3468 O   0  0  0  0  0  0  0  0  0  0  0  0
   -4.0406   -0.9406    9.4321 C   0  0  0  0  0  0  0  0  0  0  0  0
   -2.0957   -1.4531    8.0280 O   0  0  0  0  0  0  0  0  0  0  0  0
   -0.7643   -1.9553    8.4235 C   0  0  0  0  0  0  0  0  0  0  0  0
   -0.9738    0.1691    5.0693 O   0  0  0  0  0  0  0  0  0  0  0  0
    0.3957   -0.6780    4.1463 C   0  0  0  0  0  0  0  0  0  0  0  0
    0.8940   -6.3414    0.4368 H   0  0  0  0  0  0  0  0  0  0  0  0
    0.8859   -4.5841    0.1996 H   0  0  0  0  0  0  0  0  0  0  0  0
   -0.3827   -5.6323   -0.5432 H   0  0  0  0  0  0  0  0  0  0  0  0
   -1.9939   -4.2780   -0.5731 H   0  0  0  0  0  0  0  0  0  0  0  0
   -3.9074   -2.7967   -0.2854 H   0  0  0  0  0  0  0  0  0  0  0  0
   -3.6597   -3.4202    3.9891 H   0  0  0  0  0  0  0  0  0  0  0  0
   -0.1656   -4.7833    3.5632 H   0  0  0  0  0  0  0  0  0  0  0  0
   -2.2581   -2.5190    5.4503 H   0  0  0  0  0  0  0  0  0  0  0  0
   -2.4671   -0.3159    3.1875 H   0  0  0  0  0  0  0  0  0  0  0  0
   -1.1716   -0.1224    3.2031 H   0  0  0  0  0  0  0  0  0  0  0  0
   -1.0408   -2.5049    2.4197 H   0  0  0  0  0  0  0  0  0  0  0  0
    0.4865   -2.0168    6.3387 H   0  0  0  0  0  0  0  0  0  0  0  0
   -0.3090   -0.5444    6.1512 H   0  0  0  0  0  0  0  0  0  0  0  0
   -5.2973   -1.3328    1.1904 H   0  0  0  0  0  0  0  0  0  0  0  0
   -6.1045   -0.3116    3.1187 H   0  0  0  0  0  0  0  0  0  0  0  0
   -3.4434   -1.3007    3.8334 H   0  0  0  0  0  0  0  0  0  0  0  0
   -6.3706   -1.4762    6.2423 H   0  0  0  0  0  0  0  0  0  0  0  0
   -3.5200   -1.8749    9.6674 H   0  0  0  0  0  0  0  0  0  0  0  0
   -3.3461   -0.1078    9.2390 H   0  0  0  0  0  0  0  0  0  0  0  0
   -4.6143   -0.6488   10.3035 H   0  0  0  0  0  0  0  0  0  0  0  0
   -0.4789   -2.9002    7.9171 H   0  0  0  0  0  0  0  0  0  0  0  0
    0.0172   -1.1870    8.3370 H   0  0  0  0  0  0  0  0  0  0  0  0
   -0.6876   -2.2620    9.4825 H   0  0  0  0  0  0  0  0  0  0  0  0
    0.2263   -1.7365    3.7558 H   0  0  0  0  0  0  0  0  0  0  0  0
    0.5714   -0.1624    3.1935 H   0  0  0  0  0  0  0  0  0  0  0  0
    1.3029   -0.8525    4.7247 H   0  0  0  0  0  0  0  0  0  0  0  0
  1  2  1  0  0  0  0
  1 30  1  0  0  0  0
  1 31  1  0  0  0  0
  1 32  1  0  0  0  0
  2  3  1  0  0  0  0
  3  4  2  0  0  0  0
  3  8  1  0  0  0  0
  4  5  1  0  0  0  0
  4 33  1  0  0  0  0
  5  6  2  0  0  0  0
  5 34  1  0  0  0  0
  6  7  1  0  0  0  0
  6 16  1  0  0  0  0
  7  8  2  0  0  0  0
  7 35  1  0  0  0  0
  8  9  1  0  0  0  0
  9 10  1  0  0  0  0
  9 36  1  0  0  0  0
 10 11  2  0  0  0  0
 12 15  1  0  0  0  0
 12 37  1  1  0  0  0
 12 13  1  0  0  0  0
 12 10  1  0  0  0  0
 13 14  1  0  0  0  0
 13 38  1  0  0  0  0
 13 39  1  0  0  0  0
 14 40  1  0  0  0  0
 15 41  1  0  0  0  0
 15 42  1  0  0  0  0
 16 17  2  0  0  0  0
 16 43  1  0  0  0  0
 17 18  1  0  0  0  0
 17 44  1  0  0  0  0
 18 19  2  0  0  0  0
 18 23  1  0  0  0  0
 19 20  1  0  0  0  0
 19 45  1  0  0  0  0
 20 21  2  0  0  0  0
 20 28  1  0  0  0  0
 21 22  1  0  0  0  0
 21 26  1  0  0  0  0
 22 23  2  0  0  0  0
 22 24  1  0  0  0  0
 23 46  1  0  0  0  0
 24 25  1  0  0  0  0
 25 47  1  0  0  0  0
 25 48  1  0  0  0  0
 25 49  1  0  0  0  0
 26 27  1  0  0  0  0
 27 50  1  0  0  0  0
 27 51  1  0  0  0  0
 27 52  1  0  0  0  0
 28 29  1  0  0  0  0
 29 53  1  0  0  0  0
 29 54  1  0  0  0  0
 29 55  1  0  0  0  0
M  END
>  <DRUGBANK_ID>
DB12882

>  <COMMON_NAME>
Ombrabulin

>  <CAS_NUMBER>
181816-48-8

>  <UNII>
82JB1524Q6

>  <SYNONYMS>
Ombrabulin

$$$$
