
 OpenBabel10282417183D

 32 32  0  0  0  0  0  0  0  0999 V2000
    1.0784   -0.0549   -0.0289 C   0  0  0  0  0  0  0  0  0  0  0  0
   -1.6170   -2.3288    1.1714 C   0  0  0  0  0  0  0  0  0  0  0  0
   -2.1925    0.7044   -1.2878 C   0  0  0  0  0  0  0  0  0  0  0  0
   -0.2254   -0.0549   -0.0289 C   0  0  0  0  0  0  0  0  0  0  0  0
   -1.9296   -1.5623   -0.1098 C   0  0  0  0  0  0  0  0  0  0  0  0
   -6.7968   -0.8407   -1.2590 C   0  0  0  0  0  0  0  0  0  0  0  0
   -5.7503   -1.6691   -0.9514 C   0  0  0  0  0  0  0  0  0  0  0  0
   -6.8527    0.4247   -0.6648 C   0  0  0  0  0  0  0  0  0  0  0  0
   -4.9110   -1.2697    0.0838 C   0  0  0  0  0  0  0  0  0  0  0  0
   -5.7750    0.9462    0.0949 C   0  0  0  0  0  0  0  0  0  0  0  0
   -4.7639    0.0738    0.5011 C   0  0  0  0  0  0  0  0  0  0  0  0
   -5.8035    2.4002    0.3850 C   0  0  0  0  0  0  0  0  0  0  0  0
   -3.6800    0.5308    1.4511 C   0  0  0  0  0  0  0  0  0  0  0  0
   -1.7454   -0.0549   -0.0289 C   0  0  3  0  0  0  0  0  0  0  0  0
   -6.7808    3.1256    0.1953 O   0  0  0  0  0  0  0  0  0  0  0  0
   -4.6319    2.9118    0.7746 O   0  0  0  0  0  0  0  0  0  0  0  0
   -4.0408    0.9840    2.5358 O   0  0  0  0  0  0  0  0  0  0  0  0
   -2.3414    0.4989    1.1532 O   0  0  0  0  0  0  0  0  0  0  0  0
    2.1441   -0.0518   -0.0240 H   0  0  0  0  0  0  0  0  0  0  0  0
   -2.0429   -1.8381    2.0537 H   0  0  0  0  0  0  0  0  0  0  0  0
   -2.0589   -3.3267    1.1141 H   0  0  0  0  0  0  0  0  0  0  0  0
   -0.5395   -2.4323    1.3292 H   0  0  0  0  0  0  0  0  0  0  0  0
   -1.8020    0.2472   -2.2036 H   0  0  0  0  0  0  0  0  0  0  0  0
   -3.2755    0.7569   -1.3985 H   0  0  0  0  0  0  0  0  0  0  0  0
   -1.8482    1.7450   -1.2489 H   0  0  0  0  0  0  0  0  0  0  0  0
   -2.9460   -1.6476   -0.3024 H   0  0  0  0  0  0  0  0  0  0  0  0
   -1.5333   -2.0453   -1.0096 H   0  0  0  0  0  0  0  0  0  0  0  0
   -7.5863   -1.2078   -1.9086 H   0  0  0  0  0  0  0  0  0  0  0  0
   -5.6342   -2.6525   -1.4068 H   0  0  0  0  0  0  0  0  0  0  0  0
   -7.7544    1.0156   -0.8029 H   0  0  0  0  0  0  0  0  0  0  0  0
   -4.3529   -2.0950    0.5153 H   0  0  0  0  0  0  0  0  0  0  0  0
   -4.8006    3.8275    1.0839 H   0  0  0  0  0  0  0  0  0  0  0  0
  1 19  1  0  0  0  0
  2 20  1  0  0  0  0
  2 21  1  0  0  0  0
  2 22  1  0  0  0  0
  3 23  1  0  0  0  0
  3 24  1  0  0  0  0
  3 25  1  0  0  0  0
  4  1  3  0  0  0  0
  5  2  1  0  0  0  0
  5 26  1  0  0  0  0
  5 27  1  0  0  0  0
  6 28  1  0  0  0  0
  7  6  2  0  0  0  0
  7 29  1  0  0  0  0
  8  6  1  0  0  0  0
  8 30  1  0  0  0  0
  9  7  1  0  0  0  0
  9 31  1  0  0  0  0
 10  8  2  0  0  0  0
 11  9  2  0  0  0  0
 11 10  1  0  0  0  0
 12 10  1  0  0  0  0
 13 11  1  0  0  0  0
 14  3  1  0  0  0  0
 14  4  1  0  0  0  0
 14  5  1  0  0  0  0
 15 12  2  0  0  0  0
 16 12  1  0  0  0  0
 16 32  1  0  0  0  0
 17 13  2  0  0  0  0
 18 13  1  0  0  0  0
 18 14  1  0  0  0  0
M  END
>  <DRUGBANK_ID>
DB11449

>  <COMMON_NAME>
Phthalofyne

>  <CAS_NUMBER>
131-67-9

>  <UNII>
TA9XO4D05J

>  <SYNONYMS>
Ftalofino; Ftalofyne; Ftalofynum; Phthalofyne

$$$$
