4NP
 OpenBabel10282417143D

 20 20  0  0  0  0  0  0  0  0999 V2000
    0.9371   -0.0362   -0.0688 P   0  0  0  0  0  0  0  0  0  0  0  0
    0.8823    1.0514   -1.3138 O   0  0  0  0  0  0  0  0  0  0  0  0
    0.9755   -1.4355   -0.6759 O   0  0  0  0  0  0  0  0  0  0  0  0
   -0.7929   -0.0362   -0.0688 O   0  0  0  0  0  0  0  0  0  0  0  0
    2.6671   -0.0362   -0.0688 O   0  0  0  0  0  0  0  0  0  0  0  0
    0.9423    2.4064   -1.1102 C   0  0  0  0  0  0  0  0  0  0  0  0
    1.8171    2.9617   -0.1806 C   0  0  0  0  0  0  0  0  0  0  0  0
    1.9060    4.3491   -0.0333 C   0  0  0  0  0  0  0  0  0  0  0  0
    1.1196    5.1856   -0.8354 C   0  0  0  0  0  0  0  0  0  0  0  0
    0.2741    4.6370   -1.8068 C   0  0  0  0  0  0  0  0  0  0  0  0
    0.1635    3.2428   -1.9204 C   0  0  0  0  0  0  0  0  0  0  0  0
    1.1464    6.6382   -0.6081 N   0  3  0  0  0  0  0  0  0  0  0  0
    0.4135    7.3449   -1.3242 O   0  5  0  0  0  0  0  0  0  0  0  0
    1.8685    7.0693    0.2950 O   0  0  0  0  0  0  0  0  0  0  0  0
   -1.0761    0.2002   -0.9714 H   0  0  0  0  0  0  0  0  0  0  0  0
    2.8852   -0.8067   -0.6356 H   0  0  0  0  0  0  0  0  0  0  0  0
    2.4620    2.3346    0.4270 H   0  0  0  0  0  0  0  0  0  0  0  0
    2.5974    4.7545    0.7016 H   0  0  0  0  0  0  0  0  0  0  0  0
   -0.2996    5.2791   -2.4745 H   0  0  0  0  0  0  0  0  0  0  0  0
   -0.5411    2.8274   -2.6386 H   0  0  0  0  0  0  0  0  0  0  0  0
  1  2  1  0  0  0  0
  1  3  2  0  0  0  0
  1  4  1  0  0  0  0
  1  5  1  0  0  0  0
  2  6  1  0  0  0  0
  4 15  1  0  0  0  0
  5 16  1  0  0  0  0
  6  7  2  0  0  0  0
  6 11  1  0  0  0  0
  7  8  1  0  0  0  0
  7 17  1  0  0  0  0
  8  9  2  0  0  0  0
  8 18  1  0  0  0  0
  9 10  1  0  0  0  0
  9 12  1  0  0  0  0
 10 11  2  0  0  0  0
 10 19  1  0  0  0  0
 11 20  1  0  0  0  0
 12 13  1  0  0  0  0
 12 14  2  0  0  0  0
M  CHG  2  12   1  13  -1
M  END
>  <DRUGBANK_ID>
DB04214

>  <SECONDARY_ACCESSION_NUMBERS>
EXPT00223

>  <COMMON_NAME>
4-Nitrophenyl Phosphate

>  <CAS_NUMBER>
330-13-2

>  <UNII>
59NF9TE3BA

$$$$
