4829
 OpenBabel10282417143D

 49 52  0  0  1  0  0  0  0  0999 V2000
    3.6459    1.5801    1.7047 O   0  0  0  0  0  0  0  0  0  0  0  0
    4.0329   -2.4780   -0.2075 N   0  0  0  0  0  0  0  0  0  0  0  0
    1.5857   -7.4724    2.0695 N   0  0  0  0  0  0  0  0  0  0  0  0
    3.3352    0.2134    3.5166 N   0  0  0  0  0  0  0  0  0  0  0  0
    3.5284   -3.5204    0.7291 C   0  0  1  0  0  0  0  0  0  0  0  0
    2.3127   -2.9788    1.5378 C   0  0  0  0  0  0  0  0  0  0  0  0
    3.1528   -4.8513   -0.0143 C   0  0  0  0  0  0  0  0  0  0  0  0
    2.9751   -0.6291    1.0754 C   0  0  1  0  0  0  0  0  0  0  0  0
    4.2980   -1.2358    0.5502 C   0  0  0  0  0  0  0  0  0  0  0  0
    2.4825   -5.7951    0.9249 C   0  0  0  0  0  0  0  0  0  0  0  0
    1.6083   -3.9478    2.4176 C   0  0  0  0  0  0  0  0  0  0  0  0
    1.7826   -5.2787    2.0342 C   0  0  0  0  0  0  0  0  0  0  0  0
    1.9812   -1.6708    1.5272 C   0  0  0  0  0  0  0  0  0  0  0  0
    1.2362   -6.3273    2.7524 C   0  0  0  0  0  0  0  0  0  0  0  0
    5.2068   -2.9004   -0.9613 C   0  0  0  0  0  0  0  0  0  0  0  0
    3.3153    0.4598    2.1375 C   0  0  0  0  0  0  0  0  0  0  0  0
    2.3484   -7.1610    0.9633 C   0  0  0  0  0  0  0  0  0  0  0  0
    0.8840   -3.7177    3.5976 C   0  0  0  0  0  0  0  0  0  0  0  0
    0.4874   -6.1104    3.9121 C   0  0  0  0  0  0  0  0  0  0  0  0
    0.3365   -4.7799    4.3284 C   0  0  0  0  0  0  0  0  0  0  0  0
    2.9478   -1.0137    4.1942 C   0  0  0  0  0  0  0  0  0  0  0  0
    3.6628    1.3162    4.4194 C   0  0  0  0  0  0  0  0  0  0  0  0
    4.0216   -1.6885    5.0097 C   0  0  0  0  0  0  0  0  0  0  0  0
    5.1266    1.7032    4.3192 C   0  0  0  0  0  0  0  0  0  0  0  0
    4.3260   -3.7553    1.4544 H   0  0  0  0  0  0  0  0  0  0  0  0
    1.3081   -8.4055    2.3375 H   0  0  0  0  0  0  0  0  0  0  0  0
    2.4628   -4.6226   -0.8361 H   0  0  0  0  0  0  0  0  0  0  0  0
    4.0427   -5.3315   -0.4318 H   0  0  0  0  0  0  0  0  0  0  0  0
    2.4891   -0.1022    0.2420 H   0  0  0  0  0  0  0  0  0  0  0  0
    5.0078   -1.4230    1.3693 H   0  0  0  0  0  0  0  0  0  0  0  0
    4.7790   -0.4946   -0.1033 H   0  0  0  0  0  0  0  0  0  0  0  0
    1.1127   -1.2966    2.0606 H   0  0  0  0  0  0  0  0  0  0  0  0
    6.0502   -3.1555   -0.3123 H   0  0  0  0  0  0  0  0  0  0  0  0
    4.9784   -3.7619   -1.5970 H   0  0  0  0  0  0  0  0  0  0  0  0
    5.5200   -2.1099   -1.6522 H   0  0  0  0  0  0  0  0  0  0  0  0
    2.7090   -7.9348    0.3005 H   0  0  0  0  0  0  0  0  0  0  0  0
    0.7434   -2.7127    3.9812 H   0  0  0  0  0  0  0  0  0  0  0  0
    0.0363   -6.9242    4.4685 H   0  0  0  0  0  0  0  0  0  0  0  0
   -0.2258   -4.5642    5.2354 H   0  0  0  0  0  0  0  0  0  0  0  0
    2.0237   -0.8319    4.7559 H   0  0  0  0  0  0  0  0  0  0  0  0
    2.7402   -1.7717    3.4880 H   0  0  0  0  0  0  0  0  0  0  0  0
    3.0062    2.1670    4.2071 H   0  0  0  0  0  0  0  0  0  0  0  0
    3.4494    1.0071    5.4511 H   0  0  0  0  0  0  0  0  0  0  0  0
    4.2899   -1.1121    5.8930 H   0  0  0  0  0  0  0  0  0  0  0  0
    3.6543   -2.6718    5.3275 H   0  0  0  0  0  0  0  0  0  0  0  0
    4.9080   -1.8483    4.3884 H   0  0  0  0  0  0  0  0  0  0  0  0
    5.3654    2.1106    3.3338 H   0  0  0  0  0  0  0  0  0  0  0  0
    5.3726    2.4621    5.0655 H   0  0  0  0  0  0  0  0  0  0  0  0
    5.7681    0.8306    4.4788 H   0  0  0  0  0  0  0  0  0  0  0  0
  1 16  2  0  0  0  0
  2  5  1  0  0  0  0
  2  9  1  0  0  0  0
  2 15  1  0  0  0  0
  3 14  1  0  0  0  0
  3 17  1  0  0  0  0
  3 26  1  0  0  0  0
  4 16  1  0  0  0  0
  4 21  1  0  0  0  0
  4 22  1  0  0  0  0
  5  6  1  0  0  0  0
  5  7  1  0  0  0  0
  5 25  1  1  0  0  0
  6 11  1  0  0  0  0
  6 13  2  0  0  0  0
  7 10  1  0  0  0  0
  7 27  1  0  0  0  0
  7 28  1  0  0  0  0
  8  9  1  0  0  0  0
  8 13  1  0  0  0  0
  8 29  1  6  0  0  0
  8 16  1  0  0  0  0
  9 30  1  0  0  0  0
  9 31  1  0  0  0  0
 10 12  1  0  0  0  0
 10 17  2  0  0  0  0
 11 12  2  0  0  0  0
 11 18  1  0  0  0  0
 12 14  1  0  0  0  0
 13 32  1  0  0  0  0
 14 19  2  0  0  0  0
 15 33  1  0  0  0  0
 15 34  1  0  0  0  0
 15 35  1  0  0  0  0
 17 36  1  0  0  0  0
 18 20  2  0  0  0  0
 18 37  1  0  0  0  0
 19 20  1  0  0  0  0
 19 38  1  0  0  0  0
 20 39  1  0  0  0  0
 21 23  1  0  0  0  0
 21 40  1  0  0  0  0
 21 41  1  0  0  0  0
 22 24  1  0  0  0  0
 22 42  1  0  0  0  0
 22 43  1  0  0  0  0
 23 44  1  0  0  0  0
 23 45  1  0  0  0  0
 23 46  1  0  0  0  0
 24 47  1  0  0  0  0
 24 48  1  0  0  0  0
 24 49  1  0  0  0  0
M  END
>  <DRUGBANK_ID>
DB04829

>  <COMMON_NAME>
Lysergic acid diethylamide

>  <CAS_NUMBER>
50-37-3

>  <UNII>
8NA5SWF92O

>  <SYNONYMS>
(+)-LSD; D-lysergic acid diethylamide; Diethylamid kyseliny lysergove; LSD; LSD 25; Lysergic acid diethylamide; Lysergide; Lysergidum; Lysergsäurediäthylamid; Lysergsäurediethylamid; N,N-diethyl-(+)-lysergamide; N,N-diethyl-D-lysergamide; N,N-diethyllysergamide

$$$$
