750
 OpenBabel10282417113D

 36 36  0  0  1  0  0  0  0  0999 V2000
    1.0383    0.2020   -0.2163 O   0  0  0  0  0  0  0  0  0  0  0  0
    2.6057   -0.2503    2.4172 N   0  0  0  0  0  0  0  0  0  0  0  0
    3.0922    0.7773   -0.9604 N   0  0  0  0  0  0  0  0  0  0  0  0
    2.8908   -0.7637    1.0550 C   0  0  3  0  0  0  0  0  0  0  0  0
    3.4476   -0.9441    3.4175 C   0  0  0  0  0  0  0  0  0  0  0  0
    4.9678   -0.8049    3.2085 C   0  0  0  0  0  0  0  0  0  0  0  0
    2.2665    0.0842   -0.0828 C   0  0  0  0  0  0  0  0  0  0  0  0
    2.4880   -2.2450    0.9684 C   0  0  0  0  0  0  0  0  0  0  0  0
    4.5059    0.7588   -1.0881 C   0  0  0  0  0  0  0  0  0  0  0  0
    5.2805   -0.4164   -1.0294 C   0  0  0  0  0  0  0  0  0  0  0  0
    5.3988    0.6513    3.2538 C   0  0  0  0  0  0  0  0  0  0  0  0
    5.1669    1.9764   -1.2940 C   0  0  0  0  0  0  0  0  0  0  0  0
    6.6772   -0.3463   -0.9749 C   0  0  0  0  0  0  0  0  0  0  0  0
    4.6924   -1.7888   -1.0368 C   0  0  0  0  0  0  0  0  0  0  0  0
    6.5691    2.0310   -1.2837 C   0  0  0  0  0  0  0  0  0  0  0  0
    7.3214    0.8738   -1.0969 C   0  0  0  0  0  0  0  0  0  0  0  0
    2.8218    0.7466    2.4359 H   0  0  0  0  0  0  0  0  0  0  0  0
    2.5855    1.4418   -1.5365 H   0  0  0  0  0  0  0  0  0  0  0  0
    3.9551   -0.6252    0.9557 H   0  0  0  0  0  0  0  0  0  0  0  0
    3.1870   -0.5566    4.4069 H   0  0  0  0  0  0  0  0  0  0  0  0
    3.1879   -2.0076    3.4629 H   0  0  0  0  0  0  0  0  0  0  0  0
    5.4925   -1.3706    3.9864 H   0  0  0  0  0  0  0  0  0  0  0  0
    5.2998   -1.2587    2.2666 H   0  0  0  0  0  0  0  0  0  0  0  0
    2.5908   -2.6942   -0.0195 H   0  0  0  0  0  0  0  0  0  0  0  0
    3.1176   -2.8637    1.6181 H   0  0  0  0  0  0  0  0  0  0  0  0
    1.4413   -2.3875    1.2389 H   0  0  0  0  0  0  0  0  0  0  0  0
    5.1382    1.0838    4.2240 H   0  0  0  0  0  0  0  0  0  0  0  0
    6.4775    0.7412    3.1058 H   0  0  0  0  0  0  0  0  0  0  0  0
    4.9108    1.2433    2.4730 H   0  0  0  0  0  0  0  0  0  0  0  0
    4.6139    2.9071   -1.4009 H   0  0  0  0  0  0  0  0  0  0  0  0
    7.2556   -1.2585   -0.8420 H   0  0  0  0  0  0  0  0  0  0  0  0
    5.1078   -2.4483   -1.7951 H   0  0  0  0  0  0  0  0  0  0  0  0
    4.8611   -2.2481   -0.0558 H   0  0  0  0  0  0  0  0  0  0  0  0
    3.6359   -1.7130   -1.2854 H   0  0  0  0  0  0  0  0  0  0  0  0
    7.0822    2.9830   -1.3951 H   0  0  0  0  0  0  0  0  0  0  0  0
    8.4066    0.9102   -1.0651 H   0  0  0  0  0  0  0  0  0  0  0  0
  1  7  2  0  0  0  0
  2  4  1  0  0  0  0
  2  5  1  0  0  0  0
  2 17  1  0  0  0  0
  3  7  1  0  0  0  0
  3  9  1  0  0  0  0
  3 18  1  0  0  0  0
  4  7  1  0  0  0  0
  4  8  1  0  0  0  0
  4 19  1  0  0  0  0
  5  6  1  0  0  0  0
  5 20  1  0  0  0  0
  5 21  1  0  0  0  0
  6 11  1  0  0  0  0
  6 22  1  0  0  0  0
  6 23  1  0  0  0  0
  8 24  1  0  0  0  0
  8 25  1  0  0  0  0
  8 26  1  0  0  0  0
  9 10  1  0  0  0  0
  9 12  2  0  0  0  0
 10 13  2  0  0  0  0
 10 14  1  0  0  0  0
 11 27  1  0  0  0  0
 11 28  1  0  0  0  0
 11 29  1  0  0  0  0
 12 15  1  0  0  0  0
 12 30  1  0  0  0  0
 13 16  1  0  0  0  0
 13 31  1  0  0  0  0
 14 32  1  0  0  0  0
 14 33  1  0  0  0  0
 14 34  1  0  0  0  0
 15 16  2  0  0  0  0
 15 35  1  0  0  0  0
 16 36  1  0  0  0  0
M  END
>  <DRUGBANK_ID>
DB00750

>  <SECONDARY_ACCESSION_NUMBERS>
APRD00180

>  <COMMON_NAME>
Prilocaine

>  <CAS_NUMBER>
721-50-6

>  <UNII>
046O35D44R

>  <SYNONYMS>
2-(Propylamino)-o-propionotoluidide; 2-Methyl-alpha-propylaminopropionanilide; alpha-n-Propylamino-2-methylpropionanilide; N-(2-Methylphenyl)-2-(propylamino)propanamide; o-Methyl-2-propylaminopropionanilide; o-Methyl-alpha-propylaminopropionanilide; Prilocain; Prilocaina; Priloca√Øne; Prilocaine; Prilocaine base; Prilocainum; Propitocaine

$$$$
