
 OpenBabel10282417173D

 40 41  0  0  1  0  0  0  0  0999 V2000
    1.4733   -0.3016    0.0525 C   0  0  0  0  0  0  0  0  0  0  0  0
    0.9848    0.9888    0.1658 C   0  0  0  0  0  0  0  0  0  0  0  0
   -0.3781    1.1881    0.3469 C   0  0  0  0  0  0  0  0  0  0  0  0
   -1.3109    0.1519    0.1247 C   0  0  0  0  0  0  0  0  0  0  0  0
   -0.7911   -1.1505    0.0628 C   0  0  0  0  0  0  0  0  0  0  0  0
    0.5880   -1.3753    0.0553 C   0  0  0  0  0  0  0  0  0  0  0  0
   -2.7571    1.8637   -1.1324 C   0  0  0  0  0  0  0  0  0  0  0  0
   -3.8506    0.0313    0.7264 C   0  0  0  0  0  0  0  0  0  0  0  0
   -3.7735   -0.6501   -0.6194 C   0  0  2  0  0  0  0  0  0  0  0  0
   -2.7958    0.5377   -0.2755 C   0  0  2  0  0  0  0  0  0  0  0  0
   -4.9039   -0.7879   -1.5959 C   0  0  0  0  0  0  0  0  0  0  0  0
   -1.7355    2.1084   -1.7570 O   0  0  0  0  0  0  0  0  0  0  0  0
   -3.7385    2.8675   -1.1163 N   0  0  0  0  0  0  0  0  0  0  0  0
   -5.1004    2.5702   -0.9271 C   0  0  0  0  0  0  0  0  0  0  0  0
   -3.4523    4.1228   -1.7936 C   0  0  0  0  0  0  0  0  0  0  0  0
   -2.7325    5.0118   -0.8061 C   0  0  0  0  0  0  0  0  0  0  0  0
   -5.9444    3.4075   -0.0246 C   0  0  0  0  0  0  0  0  0  0  0  0
   -5.8913    0.2292   -1.6928 N   0  0  0  0  0  0  0  0  0  0  0  0
    2.5415   -0.4648   -0.0358 H   0  0  0  0  0  0  0  0  0  0  0  0
    1.6363    1.8517    0.0564 H   0  0  0  0  0  0  0  0  0  0  0  0
   -0.7252    2.2126    0.4720 H   0  0  0  0  0  0  0  0  0  0  0  0
   -1.4421   -2.0119   -0.0331 H   0  0  0  0  0  0  0  0  0  0  0  0
    0.9658   -2.3902   -0.0155 H   0  0  0  0  0  0  0  0  0  0  0  0
   -3.5096   -0.5442    1.5896 H   0  0  0  0  0  0  0  0  0  0  0  0
   -4.7334    0.5746    1.0257 H   0  0  0  0  0  0  0  0  0  0  0  0
   -3.3371   -1.6444   -0.6035 H   0  0  0  0  0  0  0  0  0  0  0  0
   -4.4834   -0.9709   -2.5890 H   0  0  0  0  0  0  0  0  0  0  0  0
   -5.4656   -1.6869   -1.3224 H   0  0  0  0  0  0  0  0  0  0  0  0
   -5.5490    2.4946   -1.9231 H   0  0  0  0  0  0  0  0  0  0  0  0
   -5.0763    1.6520   -0.4036 H   0  0  0  0  0  0  0  0  0  0  0  0
   -2.8592    3.9546   -2.7005 H   0  0  0  0  0  0  0  0  0  0  0  0
   -4.3916    4.5893   -2.1166 H   0  0  0  0  0  0  0  0  0  0  0  0
   -1.7716    4.5707   -0.5214 H   0  0  0  0  0  0  0  0  0  0  0  0
   -2.5616    6.0030   -1.2249 H   0  0  0  0  0  0  0  0  0  0  0  0
   -3.3278    5.1047    0.1095 H   0  0  0  0  0  0  0  0  0  0  0  0
   -6.0655    4.4143   -0.4138 H   0  0  0  0  0  0  0  0  0  0  0  0
   -6.9255    2.9205    0.0427 H   0  0  0  0  0  0  0  0  0  0  0  0
   -5.5033    3.4259    0.9742 H   0  0  0  0  0  0  0  0  0  0  0  0
   -6.2975    0.4501   -2.5912 H   0  0  0  0  0  0  0  0  0  0  0  0
   -6.4706    0.3917   -0.8794 H   0  0  0  0  0  0  0  0  0  0  0  0
  1  2  2  0  0  0  0
  1 19  1  0  0  0  0
  2  3  1  0  0  0  0
  2 20  1  0  0  0  0
  3  4  2  0  0  0  0
  3 21  1  0  0  0  0
  4  5  1  0  0  0  0
  5  6  2  0  0  0  0
  5 22  1  0  0  0  0
  6  1  1  0  0  0  0
  6 23  1  0  0  0  0
  7 12  2  0  0  0  0
  7 13  1  0  0  0  0
  8 10  1  0  0  0  0
  8  9  1  0  0  0  0
  8 24  1  0  0  0  0
  8 25  1  0  0  0  0
  9 26  1  1  0  0  0
  9 11  1  0  0  0  0
 10  9  1  0  0  0  0
 10  4  1  0  0  0  0
 10  7  1  6  0  0  0
 11 18  1  0  0  0  0
 11 27  1  0  0  0  0
 11 28  1  0  0  0  0
 13 14  1  0  0  0  0
 13 15  1  0  0  0  0
 14 17  1  0  0  0  0
 14 29  1  0  0  0  0
 14 30  1  0  0  0  0
 15 16  1  0  0  0  0
 15 31  1  0  0  0  0
 15 32  1  0  0  0  0
 16 33  1  0  0  0  0
 16 34  1  0  0  0  0
 16 35  1  0  0  0  0
 17 36  1  0  0  0  0
 17 37  1  0  0  0  0
 17 38  1  0  0  0  0
 18 39  1  0  0  0  0
 18 40  1  0  0  0  0
M  END
>  <DRUGBANK_ID>
DB08918

>  <COMMON_NAME>
Levomilnacipran

>  <CAS_NUMBER>
96847-54-0

>  <UNII>
UGM0326TXX

>  <SYNONYMS>
(1S,2R)-milnacipran; CYCLOPROPANECARBOXAMIDE, 2-(AMINOMETHYL)-N,N-DIETHYL-1-PHENYL-, (1S,2R)-; Levomilnacipran; MILNACIPRAN, (1S,2R)-

$$$$
