
 OpenBabel10282417133D

 33 34  0  0  0  0  0  0  0  0999 V2000
    1.8142    0.2086   -0.4522 C   0  0  0  0  0  0  0  0  0  0  0  0
    1.0891    1.2714   -0.0650 N   0  0  0  0  0  0  0  0  0  0  0  0
   -0.0474    0.8316    0.7241 C   0  0  2  0  0  0  0  0  0  0  0  0
    0.1763   -0.7029    0.7150 C   0  0  2  0  0  0  0  0  0  0  0  0
    1.4674   -0.9525    0.0014 N   0  0  0  0  0  0  0  0  0  0  0  0
   -1.3967    1.1891    0.1105 C   0  0  0  0  0  0  0  0  0  0  0  0
   -0.9776   -1.3866   -0.0212 C   0  0  1  0  0  0  0  0  0  0  0  0
   -1.7504   -0.1044   -1.0686 S   0  0  0  0  0  0  0  0  0  0  0  0
   -2.7002   -4.1275   -3.4535 C   0  0  0  0  0  0  0  0  0  0  0  0
   -3.1055   -3.0392   -2.5044 C   0  0  0  0  0  0  0  0  0  0  0  0
   -2.9689   -3.4490   -1.0359 C   0  0  0  0  0  0  0  0  0  0  0  0
   -1.5307   -3.7591   -0.6113 C   0  0  0  0  0  0  0  0  0  0  0  0
   -0.5768   -2.5976   -0.8665 C   0  0  0  0  0  0  0  0  0  0  0  0
   -3.4442   -4.7039   -4.2405 O   0  0  0  0  0  0  0  0  0  0  0  0
   -1.3958   -4.4438   -3.3884 O   0  0  0  0  0  0  0  0  0  0  0  0
    2.8803    0.3939   -1.2289 N   0  0  0  0  0  0  0  0  0  0  0  0
    0.2650   -1.1046    1.7319 H   0  0  0  0  0  0  0  0  0  0  0  0
    0.0269    1.2429    1.7349 H   0  0  0  0  0  0  0  0  0  0  0  0
    1.1418    2.1828   -0.4870 H   0  0  0  0  0  0  0  0  0  0  0  0
   -1.4111    2.1596   -0.3883 H   0  0  0  0  0  0  0  0  0  0  0  0
   -2.1925    1.1557    0.8618 H   0  0  0  0  0  0  0  0  0  0  0  0
   -1.7266   -1.6573    0.7333 H   0  0  0  0  0  0  0  0  0  0  0  0
   -4.1498   -2.7716   -2.6991 H   0  0  0  0  0  0  0  0  0  0  0  0
   -2.5289   -2.1485   -2.7627 H   0  0  0  0  0  0  0  0  0  0  0  0
   -3.5926   -4.3246   -0.8297 H   0  0  0  0  0  0  0  0  0  0  0  0
   -3.3732   -2.6468   -0.4047 H   0  0  0  0  0  0  0  0  0  0  0  0
   -1.1578   -4.6492   -1.1247 H   0  0  0  0  0  0  0  0  0  0  0  0
   -1.5004   -4.0198    0.4533 H   0  0  0  0  0  0  0  0  0  0  0  0
   -0.5312   -2.3432   -1.9334 H   0  0  0  0  0  0  0  0  0  0  0  0
    0.4279   -2.9586   -0.6269 H   0  0  0  0  0  0  0  0  0  0  0  0
   -1.2696   -5.2329   -3.9511 H   0  0  0  0  0  0  0  0  0  0  0  0
    3.3487   -0.4451   -1.5494 H   0  0  0  0  0  0  0  0  0  0  0  0
    3.1067    1.2680   -1.6690 H   0  0  0  0  0  0  0  0  0  0  0  0
  1  2  1  0  0  0  0
  1  5  2  0  0  0  0
  1 16  1  0  0  0  0
  2  3  1  0  0  0  0
  2 19  1  0  0  0  0
  3  4  1  0  0  0  0
  3  6  1  0  0  0  0
  3 18  1  1  0  0  0
  4  5  1  0  0  0  0
  4  7  1  0  0  0  0
  4 17  1  1  0  0  0
  6  8  1  0  0  0  0
  6 20  1  0  0  0  0
  6 21  1  0  0  0  0
  7  8  1  0  0  0  0
  7 22  1  1  0  0  0
  7 13  1  0  0  0  0
  9 10  1  0  0  0  0
  9 14  2  0  0  0  0
  9 15  1  0  0  0  0
 10 11  1  0  0  0  0
 10 23  1  0  0  0  0
 10 24  1  0  0  0  0
 11 12  1  0  0  0  0
 11 25  1  0  0  0  0
 11 26  1  0  0  0  0
 12 13  1  0  0  0  0
 12 27  1  0  0  0  0
 12 28  1  0  0  0  0
 13 29  1  0  0  0  0
 13 30  1  0  0  0  0
 15 31  1  0  0  0  0
 16 32  1  0  0  0  0
 16 33  1  0  0  0  0
M  END
>  <DRUGBANK_ID>
DB03353

>  <SECONDARY_ACCESSION_NUMBERS>
EXPT01870

>  <COMMON_NAME>
2-Iminobiotin

>  <CAS_NUMBER>
13395-35-2

>  <UNII>
HXH71NRQ5C

>  <SYNONYMS>
Guanidinobiotin; Hexahydro-2-imino-1h-thieno(3,4-d)imidazole-4-pentanoic acid

$$$$
