
 OpenBabel10282417223D

 28 29  0  0  1  0  0  0  0  0999 V2000
    0.3973    2.3302    0.2641 O   0  0  0  0  0  0  0  0  0  0  0  0
    1.4564    2.2812   -0.6879 C   0  0  0  0  0  0  0  0  0  0  0  0
    1.0203    1.4655   -1.9133 C   0  0  1  0  0  0  0  0  0  0  0  0
   -0.1008    2.0913   -2.5785 O   0  0  0  0  0  0  0  0  0  0  0  0
    0.3534    2.7681   -3.7646 C   0  0  2  0  0  0  0  0  0  0  0  0
    1.8748    2.5798   -3.8251 C   0  0  1  0  0  0  0  0  0  0  0  0
    2.5136    3.6483   -3.2759 F   0  0  0  0  0  0  0  0  0  0  0  0
    2.1146    1.3621   -2.9632 C   0  0  2  0  0  0  0  0  0  0  0  0
    1.9661    0.1758   -3.7516 O   0  0  0  0  0  0  0  0  0  0  0  0
   -0.0908    4.1744   -3.8362 N   0  0  0  0  0  0  0  0  0  0  0  0
    0.3331    4.9366   -4.9248 C   0  0  0  0  0  0  0  0  0  0  0  0
    0.2198    6.2722   -4.9676 C   0  0  0  0  0  0  0  0  0  0  0  0
    1.0799    7.4107   -6.4321 I   0  0  0  0  0  0  0  0  0  0  0  0
   -0.5248    6.9304   -3.8648 C   0  0  0  0  0  0  0  0  0  0  0  0
   -0.6094    8.1497   -3.7343 O   0  0  0  0  0  0  0  0  0  0  0  0
   -1.1325    6.0820   -2.9847 N   0  0  0  0  0  0  0  0  0  0  0  0
   -0.8055    4.7628   -2.7953 C   0  0  0  0  0  0  0  0  0  0  0  0
   -1.1422    4.2266   -1.7439 O   0  0  0  0  0  0  0  0  0  0  0  0
   -0.3637    2.7320   -0.2067 H   0  0  0  0  0  0  0  0  0  0  0  0
    1.7256    3.3113   -0.9372 H   0  0  0  0  0  0  0  0  0  0  0  0
    2.3172    1.8060   -0.2031 H   0  0  0  0  0  0  0  0  0  0  0  0
    0.6688    0.4832   -1.5792 H   0  0  0  0  0  0  0  0  0  0  0  0
   -0.1225    2.2378   -4.6000 H   0  0  0  0  0  0  0  0  0  0  0  0
    2.2275    2.4632   -4.8545 H   0  0  0  0  0  0  0  0  0  0  0  0
    3.1160    1.3478   -2.5227 H   0  0  0  0  0  0  0  0  0  0  0  0
    1.0294    0.0746   -4.0007 H   0  0  0  0  0  0  0  0  0  0  0  0
    0.8358    4.4033   -5.7283 H   0  0  0  0  0  0  0  0  0  0  0  0
   -1.6301    6.5149   -2.2217 H   0  0  0  0  0  0  0  0  0  0  0  0
  1  2  1  0  0  0  0
  1 19  1  0  0  0  0
  2 20  1  0  0  0  0
  2 21  1  0  0  0  0
  3  4  1  0  0  0  0
  3 22  1  1  0  0  0
  3  2  1  0  0  0  0
  5  4  1  0  0  0  0
  5 10  1  0  0  0  0
  5 23  1  6  0  0  0
  6  5  1  0  0  0  0
  6  7  1  0  0  0  0
  6  8  1  0  0  0  0
  6 24  1  6  0  0  0
  8  3  1  0  0  0  0
  8  9  1  0  0  0  0
  8 25  1  1  0  0  0
  9 26  1  0  0  0  0
 10 11  1  0  0  0  0
 10 17  1  0  0  0  0
 11 12  2  0  0  0  0
 11 27  1  0  0  0  0
 12 13  1  0  0  0  0
 12 14  1  0  0  0  0
 14 15  2  0  0  0  0
 14 16  1  0  0  0  0
 16 17  1  0  0  0  0
 16 28  1  0  0  0  0
 17 18  2  0  0  0  0
M  END
>  <DRUGBANK_ID>
DB15427

>  <COMMON_NAME>
Fialuridine

>  <CAS_NUMBER>
69123-98-4

>  <UNII>
53T7IN77LC

>  <SYNONYMS>
Fialuridine

$$$$
