
 OpenBabel10282417243D

153160  0  0  0  0  0  0  0  0999 V2000
    1.0429    0.0533    0.0729 Mn  0  1  0  0  0  0  0  0  0  0  0  0
  -17.9635   -1.1465   -2.8107 C   0  0  0  0  0  0  0  0  0  0  0  0
  -18.2736   -2.4072   -2.0202 C   0  0  0  0  0  0  0  0  0  0  0  0
  -17.3536   -3.5289   -2.4739 C   0  0  0  0  0  0  0  0  0  0  0  0
  -15.9075   -3.1252   -2.2370 C   0  0  0  0  0  0  0  0  0  0  0  0
  -15.7056   -2.8779   -0.8533 O   0  0  0  0  0  0  0  0  0  0  0  0
  -16.5651   -1.8300   -0.4295 C   0  0  0  0  0  0  0  0  0  0  0  0
  -16.2550   -0.5693   -1.2200 C   0  0  0  0  0  0  0  0  0  0  0  0
  -16.4640   -0.8253   -2.6524 N   0  3  0  0  0  0  0  0  0  0  0  0
  -17.7235   -0.5605   -3.2587 C   0  0  0  0  0  0  0  0  0  0  0  0
  -17.9973   -1.0812   -4.5341 C   0  0  0  0  0  0  0  0  0  0  0  0
  -17.0317   -1.5585   -5.2630 C   0  0  0  0  0  0  0  0  0  0  0  0
  -15.7157   -1.5447   -4.7822 C   0  0  0  0  0  0  0  0  0  0  0  0
  -15.4758   -1.3100   -3.4064 C   0  0  0  0  0  0  0  0  0  0  0  0
  -14.1144   -1.6055   -2.7985 C   0  0  0  0  0  0  0  0  0  0  0  0
   -6.2060    5.7040    5.2861 C   0  0  0  0  0  0  0  0  0  0  0  0
   -6.3824    6.5717    4.0926 C   0  0  0  0  0  0  0  0  0  0  0  0
   -7.5329    6.2106    3.5495 C   0  0  0  0  0  0  0  0  0  0  0  0
   -8.0659    5.2218    4.2853 C   0  0  0  0  0  0  0  0  0  0  0  0
   -7.2731    4.9239    5.3274 N   0  0  0  0  0  0  0  0  0  0  0  0
   -9.3149    4.7561    4.0140 C   0  0  0  0  0  0  0  0  0  0  0  0
  -10.1178    5.3555    2.8710 C   0  0  0  0  0  0  0  0  0  0  0  0
  -11.3693    5.9662    3.1626 C   0  0  0  0  0  0  0  0  0  0  0  0
  -12.2430    6.2837    2.1098 C   0  0  0  0  0  0  0  0  0  0  0  0
  -11.8124    6.2775    0.8825 C   0  0  0  0  0  0  0  0  0  0  0  0
  -10.4742    5.9645    0.6092 C   0  0  0  0  0  0  0  0  0  0  0  0
   -9.6790    5.3568    1.6111 N   0  3  0  0  0  0  0  0  0  0  0  0
   -8.3907    4.7374    1.2684 C   0  0  0  0  0  0  0  0  0  0  0  0
   -8.6171    3.6208    0.2622 C   0  0  0  0  0  0  0  0  0  0  0  0
   -9.2127    4.1546   -0.9112 O   0  0  0  0  0  0  0  0  0  0  0  0
  -10.4572    4.7529   -0.5801 C   0  0  0  0  0  0  0  0  0  0  0  0
  -11.3781    3.7055    0.0241 C   0  0  0  0  0  0  0  0  0  0  0  0
  -10.7406    3.1341    1.2801 C   0  0  0  0  0  0  0  0  0  0  0  0
  -10.5142    4.2507    2.2863 C   0  0  0  0  0  0  0  0  0  0  0  0
   -9.9077    3.6365    4.8539 C   0  0  0  0  0  0  0  0  0  0  0  0
   -9.3511    3.0338    5.8481 C   0  0  0  0  0  0  0  0  0  0  0  0
  -10.1399    2.1426    6.3297 C   0  0  0  0  0  0  0  0  0  0  0  0
  -11.2692    2.1126    5.6537 C   0  0  0  0  0  0  0  0  0  0  0  0
  -11.1594    3.0538    4.7070 N   0  5  0  0  0  0  0  0  0  0  0  0
  -12.3967    1.1083    5.8285 C   0  0  0  0  0  0  0  0  0  0  0  0
  -13.2097    1.0942    7.1127 C   0  0  0  0  0  0  0  0  0  0  0  0
  -13.2690   -0.0535    7.9515 C   0  0  0  0  0  0  0  0  0  0  0  0
  -14.2664   -0.1358    8.9369 C   0  0  0  0  0  0  0  0  0  0  0  0
  -14.9470    0.9231    9.2640 C   0  0  0  0  0  0  0  0  0  0  0  0
  -14.6795    2.1499    8.6419 C   0  0  0  0  0  0  0  0  0  0  0  0
  -13.9058    2.1792    7.4562 N   0  3  0  0  0  0  0  0  0  0  0  0
  -13.8702    3.3858    6.6173 C   0  0  0  0  0  0  0  0  0  0  0  0
  -15.2755    3.7114    6.1381 C   0  0  0  0  0  0  0  0  0  0  0  0
  -16.1170    3.9388    7.2591 O   0  0  0  0  0  0  0  0  0  0  0  0
  -16.1514    2.7732    8.0694 C   0  0  0  0  0  0  0  0  0  0  0  0
  -16.6926    1.6076    7.2577 C   0  0  0  0  0  0  0  0  0  0  0  0
  -15.7918    1.3642    6.0578 C   0  0  0  0  0  0  0  0  0  0  0  0
  -14.3865    1.0386    6.5371 C   0  0  0  0  0  0  0  0  0  0  0  0
  -12.6781    0.2221    4.8355 C   0  0  0  0  0  0  0  0  0  0  0  0
  -13.6504   -0.7025    4.8909 C   0  0  0  0  0  0  0  0  0  0  0  0
  -13.6429   -1.3950    3.7642 C   0  0  0  0  0  0  0  0  0  0  0  0
  -12.5452   -0.8225    2.9422 C   0  0  0  0  0  0  0  0  0  0  0  0
  -12.0215    0.1525    3.6662 N   0  0  0  0  0  0  0  0  0  0  0  0
  -12.1134   -1.2664    1.5541 C   0  0  0  0  0  0  0  0  0  0  0  0
  -12.5452   -0.8225    2.9422 C   0  0  0  0  0  0  0  0  0  0  0  0
  -13.6218   -1.4723    3.6078 C   0  0  0  0  0  0  0  0  0  0  0  0
  -14.1687   -0.8910    4.7634 C   0  0  0  0  0  0  0  0  0  0  0  0
  -13.5349    0.0680    5.3718 C   0  0  0  0  0  0  0  0  0  0  0  0
  -12.3008    0.5157    4.8820 C   0  0  0  0  0  0  0  0  0  0  0  0
  -11.8955    0.1569    3.5734 N   0  3  0  0  0  0  0  0  0  0  0  0
  -10.7769    0.8525    2.9209 C   0  0  0  0  0  0  0  0  0  0  0  0
  -11.0998    2.3332    2.8043 C   0  0  0  0  0  0  0  0  0  0  0  0
  -11.3040    2.8767    4.1002 O   0  0  0  0  0  0  0  0  0  0  0  0
  -12.3846    2.2048    4.7304 C   0  0  0  0  0  0  0  0  0  0  0  0
  -13.6457    2.3844    3.9012 C   0  0  0  0  0  0  0  0  0  0  0  0
  -13.4272    1.8027    2.5141 C   0  0  0  0  0  0  0  0  0  0  0  0
  -13.1043    0.3220    2.6307 C   0  0  0  0  0  0  0  0  0  0  0  0
  -12.9953   -1.2177    0.5194 C   0  0  0  0  0  0  0  0  0  0  0  0
  -14.2212   -0.8217    0.5622 C   0  0  0  0  0  0  0  0  0  0  0  0
  -14.7590   -0.9037   -0.6007 C   0  0  0  0  0  0  0  0  0  0  0  0
  -13.8958   -1.3759   -1.4755 C   0  0  0  0  0  0  0  0  0  0  0  0
  -12.7589   -1.5844   -0.7988 N   0  5  0  0  0  0  0  0  0  0  0  0
  -16.9455   -0.8623   -2.6439 H   0  0  0  0  0  0  0  0  0  0  0  0
  -18.6112   -0.3569   -2.4913 H   0  0  0  0  0  0  0  0  0  0  0  0
  -18.1156   -1.3329   -3.8533 H   0  0  0  0  0  0  0  0  0  0  0  0
  -18.1215   -2.2209   -0.9776 H   0  0  0  0  0  0  0  0  0  0  0  0
  -19.2916   -2.6914   -2.1869 H   0  0  0  0  0  0  0  0  0  0  0  0
  -17.5719   -4.4163   -1.9174 H   0  0  0  0  0  0  0  0  0  0  0  0
  -17.5057   -3.7152   -3.5165 H   0  0  0  0  0  0  0  0  0  0  0  0
  -15.2598   -3.9148   -2.5564 H   0  0  0  0  0  0  0  0  0  0  0  0
  -15.6892   -2.2377   -2.7935 H   0  0  0  0  0  0  0  0  0  0  0  0
  -17.5831   -2.1142   -0.5962 H   0  0  0  0  0  0  0  0  0  0  0  0
  -16.4130   -1.6437    0.6131 H   0  0  0  0  0  0  0  0  0  0  0  0
  -16.9027    0.2203   -0.9006 H   0  0  0  0  0  0  0  0  0  0  0  0
  -15.2370   -0.2851   -1.0532 H   0  0  0  0  0  0  0  0  0  0  0  0
  -18.4553    0.0297   -2.7479 H   0  0  0  0  0  0  0  0  0  0  0  0
  -19.0005   -1.0851   -4.9061 H   0  0  0  0  0  0  0  0  0  0  0  0
  -17.2426   -1.9624   -6.2312 H   0  0  0  0  0  0  0  0  0  0  0  0
  -14.8968   -1.7105   -5.4506 H   0  0  0  0  0  0  0  0  0  0  0  0
   -5.7155    7.3324    3.7442 H   0  0  0  0  0  0  0  0  0  0  0  0
   -7.9673    6.6361    2.6691 H   0  0  0  0  0  0  0  0  0  0  0  0
  -11.6422    6.1817    4.1745 H   0  0  0  0  0  0  0  0  0  0  0  0
  -13.2631    6.5309    2.3174 H   0  0  0  0  0  0  0  0  0  0  0  0
  -12.4810    6.5116    0.0806 H   0  0  0  0  0  0  0  0  0  0  0  0
  -10.0556    6.1835   -0.3509 H   0  0  0  0  0  0  0  0  0  0  0  0
   -7.7424    5.4748    0.8430 H   0  0  0  0  0  0  0  0  0  0  0  0
   -7.9419    4.3353    2.1525 H   0  0  0  0  0  0  0  0  0  0  0  0
   -7.6793    3.1700    0.0127 H   0  0  0  0  0  0  0  0  0  0  0  0
   -9.2654    2.8835    0.6875 H   0  0  0  0  0  0  0  0  0  0  0  0
  -10.2978    5.5389    0.1282 H   0  0  0  0  0  0  0  0  0  0  0  0
  -10.9060    5.1551   -1.4642 H   0  0  0  0  0  0  0  0  0  0  0  0
  -12.3159    4.1563    0.2736 H   0  0  0  0  0  0  0  0  0  0  0  0
  -11.5375    2.9194   -0.6842 H   0  0  0  0  0  0  0  0  0  0  0  0
  -11.3889    2.3968    1.7054 H   0  0  0  0  0  0  0  0  0  0  0  0
   -9.8028    2.6833    1.0307 H   0  0  0  0  0  0  0  0  0  0  0  0
  -11.4520    4.7016    2.5357 H   0  0  0  0  0  0  0  0  0  0  0  0
  -10.0654    3.8486    3.1704 H   0  0  0  0  0  0  0  0  0  0  0  0
   -9.8659    4.9881    1.8609 H   0  0  0  0  0  0  0  0  0  0  0  0
   -8.3703    3.2462    6.2195 H   0  0  0  0  0  0  0  0  0  0  0  0
   -9.9114    1.5125    7.1637 H   0  0  0  0  0  0  0  0  0  0  0  0
  -12.5605   -0.8464    7.8327 H   0  0  0  0  0  0  0  0  0  0  0  0
  -14.4664   -1.0701    9.4186 H   0  0  0  0  0  0  0  0  0  0  0  0
  -15.7122    0.8575   10.0090 H   0  0  0  0  0  0  0  0  0  0  0  0
  -15.0576    3.0592    9.0604 H   0  0  0  0  0  0  0  0  0  0  0  0
  -13.4892    4.2064    7.1887 H   0  0  0  0  0  0  0  0  0  0  0  0
  -13.2361    3.2145    5.7727 H   0  0  0  0  0  0  0  0  0  0  0  0
  -15.2496    4.5897    5.5275 H   0  0  0  0  0  0  0  0  0  0  0  0
  -15.6565    2.8908    5.5667 H   0  0  0  0  0  0  0  0  0  0  0  0
  -15.1621    2.5441    8.4067 H   0  0  0  0  0  0  0  0  0  0  0  0
  -16.7855    2.9446    8.9140 H   0  0  0  0  0  0  0  0  0  0  0  0
  -16.7185    0.7293    7.8683 H   0  0  0  0  0  0  0  0  0  0  0  0
  -17.6818    1.8368    6.9204 H   0  0  0  0  0  0  0  0  0  0  0  0
  -16.1728    0.5436    5.4865 H   0  0  0  0  0  0  0  0  0  0  0  0
  -15.7659    2.2425    5.4472 H   0  0  0  0  0  0  0  0  0  0  0  0
  -14.4124    0.1603    7.1477 H   0  0  0  0  0  0  0  0  0  0  0  0
  -13.7524    0.8673    5.6924 H   0  0  0  0  0  0  0  0  0  0  0  0
  -14.0055    1.8592    7.1084 H   0  0  0  0  0  0  0  0  0  0  0  0
  -14.3206   -0.8539    5.7111 H   0  0  0  0  0  0  0  0  0  0  0  0
  -14.2936   -2.2019    3.4990 H   0  0  0  0  0  0  0  0  0  0  0  0
  -14.0111   -2.3952    3.2315 H   0  0  0  0  0  0  0  0  0  0  0  0
  -15.1071   -1.2372    5.1435 H   0  0  0  0  0  0  0  0  0  0  0  0
  -13.9564    0.5157    6.2475 H   0  0  0  0  0  0  0  0  0  0  0  0
  -11.6683    1.1251    5.4931 H   0  0  0  0  0  0  0  0  0  0  0  0
   -9.8891    0.7260    3.5047 H   0  0  0  0  0  0  0  0  0  0  0  0
  -10.6231    0.4430    1.9445 H   0  0  0  0  0  0  0  0  0  0  0  0
  -10.2856    2.8395    2.3294 H   0  0  0  0  0  0  0  0  0  0  0  0
  -11.9876    2.4597    2.2206 H   0  0  0  0  0  0  0  0  0  0  0  0
  -12.1572    1.1624    4.8126 H   0  0  0  0  0  0  0  0  0  0  0  0
  -12.5384    2.6143    5.7069 H   0  0  0  0  0  0  0  0  0  0  0  0
  -14.4600    1.8781    4.3761 H   0  0  0  0  0  0  0  0  0  0  0  0
  -13.8731    3.4268    3.8191 H   0  0  0  0  0  0  0  0  0  0  0  0
  -14.3150    1.9292    1.9304 H   0  0  0  0  0  0  0  0  0  0  0  0
  -12.6130    2.3090    2.0392 H   0  0  0  0  0  0  0  0  0  0  0  0
  -13.9185   -0.1843    3.1056 H   0  0  0  0  0  0  0  0  0  0  0  0
  -12.9505   -0.0875    1.6542 H   0  0  0  0  0  0  0  0  0  0  0  0
  -12.2165    0.1955    3.2144 H   0  0  0  0  0  0  0  0  0  0  0  0
  -14.7201   -0.4739    1.4426 H   0  0  0  0  0  0  0  0  0  0  0  0
  -15.7674   -0.6270   -0.8272 H   0  0  0  0  0  0  0  0  0  0  0  0
  2  3  1  0  0  0  0
  2 78  1  0  0  0  0
  2 79  1  0  0  0  0
  2 80  1  0  0  0  0
  3  4  1  0  0  0  0
  3 81  1  0  0  0  0
  3 82  1  0  0  0  0
  4  5  1  0  0  0  0
  4 83  1  0  0  0  0
  4 84  1  0  0  0  0
  5  6  1  0  0  0  0
  5 85  1  0  0  0  0
  5 86  1  0  0  0  0
  6  7  1  0  0  0  0
  7  8  1  0  0  0  0
  7 87  1  0  0  0  0
  7 88  1  0  0  0  0
  8  9  1  0  0  0  0
  8 89  1  0  0  0  0
  8 90  1  0  0  0  0
  9 10  2  0  0  0  0
  9 14  1  0  0  0  0
 10 11  1  0  0  0  0
 10 91  1  0  0  0  0
 11 12  2  0  0  0  0
 11 92  1  0  0  0  0
 12 13  1  0  0  0  0
 12 93  1  0  0  0  0
 13 14  2  0  0  0  0
 13 94  1  0  0  0  0
 14 15  1  0  0  0  0
 15 16  1  0  0  0  0
 15 76  2  0  0  0  0
 16 17  1  0  0  0  0
 16 20  2  0  0  0  0
 17 18  2  0  0  0  0
 17 95  1  0  0  0  0
 18 19  1  0  0  0  0
 18 96  1  0  0  0  0
 19 20  1  0  0  0  0
 19 21  2  0  0  0  0
 21 22  1  0  0  0  0
 21 35  1  0  0  0  0
 22 23  2  0  0  0  0
 22 27  1  0  0  0  0
 23 24  1  0  0  0  0
 23 97  1  0  0  0  0
 24 25  2  0  0  0  0
 24 98  1  0  0  0  0
 25 26  1  0  0  0  0
 25 99  1  0  0  0  0
 26 27  2  0  0  0  0
 26100  1  0  0  0  0
 27 28  1  0  0  0  0
 28 29  1  0  0  0  0
 28101  1  0  0  0  0
 28102  1  0  0  0  0
 29 30  1  0  0  0  0
 29103  1  0  0  0  0
 29104  1  0  0  0  0
 30 31  1  0  0  0  0
 31 32  1  0  0  0  0
 31105  1  0  0  0  0
 31106  1  0  0  0  0
 32 33  1  0  0  0  0
 32107  1  0  0  0  0
 32108  1  0  0  0  0
 33 34  1  0  0  0  0
 33109  1  0  0  0  0
 33110  1  0  0  0  0
 34111  1  0  0  0  0
 34112  1  0  0  0  0
 34113  1  0  0  0  0
 35 36  2  0  0  0  0
 35 39  1  0  0  0  0
 36 37  1  0  0  0  0
 36114  1  0  0  0  0
 37 38  2  0  0  0  0
 37115  1  0  0  0  0
 38 39  1  0  0  0  0
 38 40  1  0  0  0  0
 40 41  1  0  0  0  0
 40 54  2  0  0  0  0
 41 42  2  0  0  0  0
 41 46  1  0  0  0  0
 42 43  1  0  0  0  0
 42116  1  0  0  0  0
 43 44  2  0  0  0  0
 43117  1  0  0  0  0
 44 45  1  0  0  0  0
 44118  1  0  0  0  0
 45 46  2  0  0  0  0
 45119  1  0  0  0  0
 46 47  1  0  0  0  0
 47 48  1  0  0  0  0
 47120  1  0  0  0  0
 47121  1  0  0  0  0
 48 49  1  0  0  0  0
 48122  1  0  0  0  0
 48123  1  0  0  0  0
 49 50  1  0  0  0  0
 50 51  1  0  0  0  0
 50124  1  0  0  0  0
 50125  1  0  0  0  0
 51 52  1  0  0  0  0
 51126  1  0  0  0  0
 51127  1  0  0  0  0
 52 53  1  0  0  0  0
 52128  1  0  0  0  0
 52129  1  0  0  0  0
 53130  1  0  0  0  0
 53131  1  0  0  0  0
 53132  1  0  0  0  0
 54 55  1  0  0  0  0
 54 58  1  0  0  0  0
 55 56  2  0  0  0  0
 55133  1  0  0  0  0
 56 57  1  0  0  0  0
 56134  1  0  0  0  0
 57 58  2  0  0  0  0
 57 59  1  0  0  0  0
 59 60  1  0  0  0  0
 59 73  2  0  0  0  0
 60 61  2  0  0  0  0
 60 65  1  0  0  0  0
 61 62  1  0  0  0  0
 61135  1  0  0  0  0
 62 63  2  0  0  0  0
 62136  1  0  0  0  0
 63 64  1  0  0  0  0
 63137  1  0  0  0  0
 64 65  2  0  0  0  0
 64138  1  0  0  0  0
 65 66  1  0  0  0  0
 66 67  1  0  0  0  0
 66139  1  0  0  0  0
 66140  1  0  0  0  0
 67 68  1  0  0  0  0
 67141  1  0  0  0  0
 67142  1  0  0  0  0
 68 69  1  0  0  0  0
 69 70  1  0  0  0  0
 69143  1  0  0  0  0
 69144  1  0  0  0  0
 70 71  1  0  0  0  0
 70145  1  0  0  0  0
 70146  1  0  0  0  0
 71 72  1  0  0  0  0
 71147  1  0  0  0  0
 71148  1  0  0  0  0
 72149  1  0  0  0  0
 72150  1  0  0  0  0
 72151  1  0  0  0  0
 73 74  1  0  0  0  0
 73 77  1  0  0  0  0
 74 75  2  0  0  0  0
 74152  1  0  0  0  0
 75 76  1  0  0  0  0
 75153  1  0  0  0  0
 76 77  1  0  0  0  0
M  CHG  7   1   3   9   1  27   1  39  -1  46   1  65   1  77  -1
M  END
>  <DRUGBANK_ID>
DB17516

>  <COMMON_NAME>
BMX-001 free base

>  <CAS_NUMBER>
1379866-50-8

>  <UNII>
J06K64323R

>  <SYNONYMS>
Manganese(5+), ((2,2',2'',2'''-(21h,23h-porphine-5,10,15,20-tetrayl-.kappa.n21,.kappa.n22,.kappa.n23,.kappa.n24)tetrakis(1-(2-butoxyethyl)pyridiniumato))(2-))-, (sp-4-1)-

$$$$
