
 OpenBabel10282417133D

 29 29  0  0  0  0  0  0  0  0999 V2000
    1.4193   -0.1978    0.0121 C   0  0  0  0  0  0  0  0  0  0  0  0
    0.5952   -1.3336    0.0178 C   0  0  0  0  0  0  0  0  0  0  0  0
    0.8698    1.0869    0.0333 C   0  0  0  0  0  0  0  0  0  0  0  0
   -0.8040   -1.1780    0.0366 C   0  0  0  0  0  0  0  0  0  0  0  0
   -0.5029    1.2119    0.2370 C   0  0  0  0  0  0  0  0  0  0  0  0
   -1.3388    0.1057    0.1279 C   0  0  0  0  0  0  0  0  0  0  0  0
    1.7115    2.3035   -0.2738 C   0  0  0  0  0  0  0  0  0  0  0  0
    1.3460    2.9990   -1.6024 C   0  0  0  0  0  0  0  0  0  0  0  0
   -0.0644    3.5544   -1.7148 C   0  0  0  0  0  0  0  0  0  0  0  0
   -0.1611    4.8975   -1.6675 O   0  0  0  0  0  0  0  0  0  0  0  0
   -1.0706    2.8740   -1.8766 O   0  0  0  0  0  0  0  0  0  0  0  0
    1.0921   -2.6044   -0.0390 O   0  0  0  0  0  0  0  0  0  0  0  0
   -1.7636   -2.1598   -0.0076 O   0  0  0  0  0  0  0  0  0  0  0  0
    2.4915   -2.7969   -0.0578 C   0  0  0  0  0  0  0  0  0  0  0  0
   -1.3103   -3.5026    0.0876 C   0  0  0  0  0  0  0  0  0  0  0  0
    2.4983   -0.2977   -0.0295 H   0  0  0  0  0  0  0  0  0  0  0  0
   -0.9598    2.1881    0.3759 H   0  0  0  0  0  0  0  0  0  0  0  0
   -2.4143    0.2638    0.0820 H   0  0  0  0  0  0  0  0  0  0  0  0
    1.6703    3.0026    0.5674 H   0  0  0  0  0  0  0  0  0  0  0  0
    2.7632    1.9871   -0.3549 H   0  0  0  0  0  0  0  0  0  0  0  0
    2.0600    3.8117   -1.7819 H   0  0  0  0  0  0  0  0  0  0  0  0
    1.4747    2.3033   -2.4416 H   0  0  0  0  0  0  0  0  0  0  0  0
    0.6781    5.3858   -1.7197 H   0  0  0  0  0  0  0  0  0  0  0  0
    2.9338   -2.3457   -0.9504 H   0  0  0  0  0  0  0  0  0  0  0  0
    2.9476   -2.4173    0.8609 H   0  0  0  0  0  0  0  0  0  0  0  0
    2.6675   -3.8750   -0.1032 H   0  0  0  0  0  0  0  0  0  0  0  0
   -0.7511   -3.7821   -0.8116 H   0  0  0  0  0  0  0  0  0  0  0  0
   -0.7318   -3.6576    1.0059 H   0  0  0  0  0  0  0  0  0  0  0  0
   -2.1762   -4.1657    0.1429 H   0  0  0  0  0  0  0  0  0  0  0  0
  1 16  1  0  0  0  0
  2  1  1  0  0  0  0
  2 12  1  0  0  0  0
  3  1  2  0  0  0  0
  3  7  1  0  0  0  0
  4  2  2  0  0  0  0
  4 13  1  0  0  0  0
  5  3  1  0  0  0  0
  5 17  1  0  0  0  0
  6  4  1  0  0  0  0
  6  5  2  0  0  0  0
  6 18  1  0  0  0  0
  7  8  1  0  0  0  0
  7 19  1  0  0  0  0
  7 20  1  0  0  0  0
  8  9  1  0  0  0  0
  8 21  1  0  0  0  0
  8 22  1  0  0  0  0
  9 10  1  0  0  0  0
  9 11  2  0  0  0  0
 10 23  1  0  0  0  0
 12 14  1  0  0  0  0
 13 15  1  0  0  0  0
 14 24  1  0  0  0  0
 14 25  1  0  0  0  0
 14 26  1  0  0  0  0
 15 27  1  0  0  0  0
 15 28  1  0  0  0  0
 15 29  1  0  0  0  0
M  END
>  <DRUGBANK_ID>
DB04208

>  <SECONDARY_ACCESSION_NUMBERS>
EXPT02225

>  <COMMON_NAME>
3-(3,4-dimethoxyphenyl)propanoic acid

>  <CAS_NUMBER>
2107-70-2

>  <UNII>
6XO32ZSP1D

>  <SYNONYMS>
3-(3,4-dimethoxyphenyl)propionic acid; 3,4-dimethoxy-α-β-dihydrocinnamic acid

$$$$
