
 OpenBabel10282417123D

 53 52  0  0  0  0  0  0  0  0999 V2000
    0.9419    0.0017    0.0400 C   0  0  0  0  0  0  0  0  0  0  0  0
    0.4896    0.1584   -1.4194 C   0  0  0  0  0  0  0  0  0  0  0  0
    1.0020   -0.9605   -2.3371 C   0  0  0  0  0  0  0  0  0  0  0  0
    0.4550   -2.3469   -2.0066 C   0  0  0  0  0  0  0  0  0  0  0  0
   -1.0743   -2.3115   -1.8924 C   0  0  0  0  0  0  0  0  0  0  0  0
   -1.1339   -3.2340   -4.1891 C   0  0  0  0  0  0  0  0  0  0  0  0
   -1.6143   -4.5697   -3.6098 C   0  0  0  0  0  0  0  0  0  0  0  0
   -3.1440   -4.5707   -3.5874 C   0  0  0  0  0  0  0  0  0  0  0  0
   -3.6643   -4.3647   -5.0132 C   0  0  0  0  0  0  0  0  0  0  0  0
   -3.1487   -5.4917   -5.9131 C   0  0  0  0  0  0  0  0  0  0  0  0
   -3.6427   -6.8410   -5.3839 C   0  0  0  0  0  0  0  0  0  0  0  0
    0.4194   -1.2434    0.7545 C   0  0  0  0  0  0  0  0  0  0  0  0
   -5.1708   -6.9058   -5.4124 C   0  0  0  0  0  0  0  0  0  0  0  0
    0.9324   -1.4688    2.1453 C   0  0  0  0  0  0  0  0  0  0  0  0
   -5.7152   -6.7015   -6.8215 C   0  0  0  0  0  0  0  0  0  0  0  0
   -1.6246   -2.0931   -3.2947 C   0  0  0  0  0  0  0  0  0  0  0  0
   -5.5158   -9.2736   -7.3216 O   0  0  0  0  0  0  0  0  0  0  0  0
   -5.6094   -7.6549   -9.2678 O   0  0  0  0  0  0  0  0  0  0  0  0
   -5.1889   -7.9935   -7.9322 S   0  0  0  0  0  0  0  0  0  0  0  0
   -3.6027   -7.9562   -7.9904 F   0  0  0  0  0  0  0  0  0  0  0  0
    0.6139    0.8842    0.5969 H   0  0  0  0  0  0  0  0  0  0  0  0
    2.0371   -0.0061    0.0473 H   0  0  0  0  0  0  0  0  0  0  0  0
   -0.6019    0.2579   -1.4707 H   0  0  0  0  0  0  0  0  0  0  0  0
    0.8619    1.1131   -1.8116 H   0  0  0  0  0  0  0  0  0  0  0  0
    0.7304   -0.7131   -3.3723 H   0  0  0  0  0  0  0  0  0  0  0  0
    2.0944   -0.9891   -2.3251 H   0  0  0  0  0  0  0  0  0  0  0  0
    0.8202   -3.0609   -2.7415 H   0  0  0  0  0  0  0  0  0  0  0  0
    0.9266   -2.8324   -1.1662 H   0  0  0  0  0  0  0  0  0  0  0  0
   -1.4470   -3.2253   -1.4169 H   0  0  0  0  0  0  0  0  0  0  0  0
   -1.4729   -1.5327   -1.2392 H   0  0  0  0  0  0  0  0  0  0  0  0
   -1.4550   -3.0621   -5.2162 H   0  0  0  0  0  0  0  0  0  0  0  0
   -0.0501   -3.2548   -4.3098 H   0  0  0  0  0  0  0  0  0  0  0  0
   -1.1963   -5.3953   -4.1907 H   0  0  0  0  0  0  0  0  0  0  0  0
   -1.2297   -4.7708   -2.6050 H   0  0  0  0  0  0  0  0  0  0  0  0
   -3.5092   -5.4960   -3.1360 H   0  0  0  0  0  0  0  0  0  0  0  0
   -3.5512   -3.7990   -2.9279 H   0  0  0  0  0  0  0  0  0  0  0  0
   -4.7544   -4.3024   -5.0052 H   0  0  0  0  0  0  0  0  0  0  0  0
   -3.3657   -3.3967   -5.4273 H   0  0  0  0  0  0  0  0  0  0  0  0
   -3.4537   -5.3090   -6.9459 H   0  0  0  0  0  0  0  0  0  0  0  0
   -2.0555   -5.5011   -5.9774 H   0  0  0  0  0  0  0  0  0  0  0  0
   -3.1932   -7.6542   -5.9520 H   0  0  0  0  0  0  0  0  0  0  0  0
   -3.2856   -7.0346   -4.3672 H   0  0  0  0  0  0  0  0  0  0  0  0
   -0.6711   -1.3121    0.7137 H   0  0  0  0  0  0  0  0  0  0  0  0
    0.8282   -2.1260    0.3085 H   0  0  0  0  0  0  0  0  0  0  0  0
   -5.5033   -7.8617   -4.9987 H   0  0  0  0  0  0  0  0  0  0  0  0
   -5.5990   -6.1462   -4.7459 H   0  0  0  0  0  0  0  0  0  0  0  0
    0.5880   -0.6946    2.8230 H   0  0  0  0  0  0  0  0  0  0  0  0
    0.5740   -2.4505    2.4820 H   0  0  0  0  0  0  0  0  0  0  0  0
    2.0258   -1.5150    2.1204 H   0  0  0  0  0  0  0  0  0  0  0  0
   -6.8073   -6.7023   -6.8083 H   0  0  0  0  0  0  0  0  0  0  0  0
   -5.4129   -5.7443   -7.2583 H   0  0  0  0  0  0  0  0  0  0  0  0
   -2.7157   -2.0178   -3.2622 H   0  0  0  0  0  0  0  0  0  0  0  0
   -1.3084   -1.1289   -3.7005 H   0  0  0  0  0  0  0  0  0  0  0  0
  1 21  1  0  0  0  0
  1 22  1  0  0  0  0
  2  1  1  0  0  0  0
  2 23  1  0  0  0  0
  2 24  1  0  0  0  0
  3  2  1  0  0  0  0
  3 25  1  0  0  0  0
  3 26  1  0  0  0  0
  4  3  1  0  0  0  0
  4 27  1  0  0  0  0
  4 28  1  0  0  0  0
  5  4  1  0  0  0  0
  5 29  1  0  0  0  0
  5 30  1  0  0  0  0
  6 16  1  0  0  0  0
  6 31  1  0  0  0  0
  6 32  1  0  0  0  0
  7  6  1  0  0  0  0
  7 33  1  0  0  0  0
  7 34  1  0  0  0  0
  8  7  1  0  0  0  0
  8 35  1  0  0  0  0
  8 36  1  0  0  0  0
  9  8  1  0  0  0  0
  9 37  1  0  0  0  0
  9 38  1  0  0  0  0
 10  9  1  0  0  0  0
 10 39  1  0  0  0  0
 10 40  1  0  0  0  0
 11 10  1  0  0  0  0
 11 41  1  0  0  0  0
 11 42  1  0  0  0  0
 12  1  1  0  0  0  0
 12 43  1  0  0  0  0
 12 44  1  0  0  0  0
 13 11  1  0  0  0  0
 13 45  1  0  0  0  0
 13 46  1  0  0  0  0
 14 12  1  0  0  0  0
 14 47  1  0  0  0  0
 14 48  1  0  0  0  0
 14 49  1  0  0  0  0
 15 13  1  0  0  0  0
 15 50  1  0  0  0  0
 15 51  1  0  0  0  0
 16  5  1  0  0  0  0
 16 52  1  0  0  0  0
 16 53  1  0  0  0  0
 19 15  1  0  0  0  0
 19 17  2  0  0  0  0
 19 18  2  0  0  0  0
 19 20  1  0  0  0  0
M  END
>  <DRUGBANK_ID>
DB02035

>  <SECONDARY_ACCESSION_NUMBERS>
EXPT01783

>  <COMMON_NAME>
Hexadecanesulfonyl fluoride

>  <CAS_NUMBER>
86855-26-7

>  <UNII>
ANCAJYD3FV

>  <SYNONYMS>
1-Hexadecanesulfonyl fluoride; Hexadecane-1-sulfonyl fluoride

$$$$
