SMG
 OpenBabel10282417143D

 31 30  0  0  0  0  0  0  0  0999 V2000
    0.6836    1.2871    0.2381 O   0  0  0  0  0  0  0  0  0  0  0  0
    0.5339    2.0518   -1.8026 O   0  0  0  0  0  0  0  0  0  0  0  0
   -0.0281    1.6001   -0.8373 C   0  0  0  0  0  0  0  0  0  0  0  0
   -1.4479    1.2146   -0.6418 C   0  0  0  0  0  0  0  0  0  0  0  0
   -1.8037   -0.2450   -0.8426 C   0  0  0  0  0  0  0  0  0  0  0  0
   -1.8330   -2.2832    0.3904 O   0  0  0  0  0  0  0  0  0  0  0  0
   -1.0905   -1.4473   -0.1538 C   0  0  0  0  0  0  0  0  0  0  0  0
    0.2332   -1.7885   -0.1179 N   0  0  0  0  0  0  0  0  0  0  0  0
    3.7319   -0.3952    0.1295 O   0  0  0  0  0  0  0  0  0  0  0  0
    2.0376   -0.1370    1.5297 O   0  0  0  0  0  0  0  0  0  0  0  0
    2.5690   -0.6648    0.3993 C   0  0  0  0  0  0  0  0  0  0  0  0
    1.4982   -1.2314   -0.6440 C   0  0  1  0  0  0  0  0  0  0  0  0
    2.2218   -2.0441   -1.7372 C   0  0  0  0  0  0  0  0  0  0  0  0
    1.3601   -2.6884   -2.8310 C   0  0  0  0  0  0  0  0  0  0  0  0
    0.8590   -1.6176   -4.2471 S   0  0  0  0  0  0  0  0  0  0  0  0
   -0.4502   -0.7187   -3.4586 C   0  0  0  0  0  0  0  0  0  0  0  0
    1.1842   -0.3812   -1.2161 H   0  0  0  0  0  0  0  0  0  0  0  0
    1.5790    1.3417   -0.1527 H   0  0  0  0  0  0  0  0  0  0  0  0
   -1.7336    1.5229    0.3644 H   0  0  0  0  0  0  0  0  0  0  0  0
   -1.9950    1.8401   -1.3574 H   0  0  0  0  0  0  0  0  0  0  0  0
   -2.8621   -0.3520   -0.5509 H   0  0  0  0  0  0  0  0  0  0  0  0
   -1.9623   -0.3827   -1.8998 H   0  0  0  0  0  0  0  0  0  0  0  0
    0.3497   -2.6007    0.4838 H   0  0  0  0  0  0  0  0  0  0  0  0
    2.4955    0.7181    1.7251 H   0  0  0  0  0  0  0  0  0  0  0  0
    2.9400   -1.3667   -2.2256 H   0  0  0  0  0  0  0  0  0  0  0  0
    2.8325   -2.8186   -1.2587 H   0  0  0  0  0  0  0  0  0  0  0  0
    1.9730   -3.4439   -3.3272 H   0  0  0  0  0  0  0  0  0  0  0  0
    0.5019   -3.2160   -2.4006 H   0  0  0  0  0  0  0  0  0  0  0  0
   -1.0620   -1.4855   -2.9812 H   0  0  0  0  0  0  0  0  0  0  0  0
    0.0122   -0.0614   -2.7355 H   0  0  0  0  0  0  0  0  0  0  0  0
   -1.1025   -0.0714   -4.0548 H   0  0  0  0  0  0  0  0  0  0  0  0
  1  3  1  0  0  0  0
  1 18  1  0  0  0  0
  2  3  2  0  0  0  0
  3  4  1  0  0  0  0
  4  5  1  0  0  0  0
  4 19  1  0  0  0  0
  4 20  1  0  0  0  0
  5  7  1  0  0  0  0
  5 21  1  0  0  0  0
  5 22  1  0  0  0  0
  6  7  2  0  0  0  0
  7  8  1  0  0  0  0
  8 23  1  0  0  0  0
  9 11  2  0  0  0  0
 10 11  1  0  0  0  0
 10 24  1  0  0  0  0
 11 12  1  0  0  0  0
 12  8  1  0  0  0  0
 12 13  1  0  0  0  0
 12 17  1  6  0  0  0
 13 14  1  0  0  0  0
 13 25  1  0  0  0  0
 13 26  1  0  0  0  0
 14 15  1  0  0  0  0
 14 27  1  0  0  0  0
 14 28  1  0  0  0  0
 15 16  1  0  0  0  0
 16 29  1  0  0  0  0
 16 30  1  0  0  0  0
 16 31  1  0  0  0  0
M  END
>  <DRUGBANK_ID>
DB04511

>  <SECONDARY_ACCESSION_NUMBERS>
EXPT02922

>  <COMMON_NAME>
N-Succinyl Methionine

$$$$
