
 OpenBabel10282417183D

 22 20  0  0  0  0  0  0  0  0999 V2000
    0.8677   -0.1080    0.1361 N   0  3  0  0  0  0  0  0  0  0  0  0
    0.3219   -2.6377    1.7380 O   0  0  0  0  0  0  0  0  0  0  0  0
    0.3592   -1.4537   -0.3910 C   0  0  0  0  0  0  0  0  0  0  0  0
    0.8246   -2.6731    0.4130 C   0  0  0  0  0  0  0  0  0  0  0  0
    2.9823    3.1462   -0.5908 Cl  0  5  0  0  0  0  0  0  0  0  0  0
    0.3817    0.3081    1.5130 C   0  0  0  0  0  0  0  0  0  0  0  0
    0.2708    0.9613   -0.8183 C   0  0  0  0  0  0  0  0  0  0  0  0
    2.4054   -0.1444    0.1615 C   0  0  0  0  0  0  0  0  0  0  0  0
    1.0146   -2.2327    2.3055 H   0  0  0  0  0  0  0  0  0  0  0  0
   -0.7341   -1.3993   -0.3998 H   0  0  0  0  0  0  0  0  0  0  0  0
    0.7210   -1.5354   -1.4247 H   0  0  0  0  0  0  0  0  0  0  0  0
    0.4362   -3.5794   -0.0630 H   0  0  0  0  0  0  0  0  0  0  0  0
    1.9121   -2.7888    0.4287 H   0  0  0  0  0  0  0  0  0  0  0  0
    0.6550    1.3571    1.6789 H   0  0  0  0  0  0  0  0  0  0  0  0
   -0.7036    0.1878    1.5513 H   0  0  0  0  0  0  0  0  0  0  0  0
    0.8802   -0.2848    2.2779 H   0  0  0  0  0  0  0  0  0  0  0  0
    0.4031    1.9645   -0.4138 H   0  0  0  0  0  0  0  0  0  0  0  0
    0.6790    0.8382   -1.8234 H   0  0  0  0  0  0  0  0  0  0  0  0
   -0.8150    0.7840   -0.8472 H   0  0  0  0  0  0  0  0  0  0  0  0
    2.7051   -0.9863    0.7963 H   0  0  0  0  0  0  0  0  0  0  0  0
    2.7887   -0.3147   -0.8483 H   0  0  0  0  0  0  0  0  0  0  0  0
    2.8161    0.7241    0.6662 H   0  0  0  0  0  0  0  0  0  0  0  0
  1  6  1  0  0  0  0
  1  7  1  0  0  0  0
  1  8  1  0  0  0  0
  2  4  1  0  0  0  0
  2  9  1  0  0  0  0
  3  1  1  0  0  0  0
  3 10  1  0  0  0  0
  3 11  1  0  0  0  0
  4  3  1  0  0  0  0
  4 12  1  0  0  0  0
  4 13  1  0  0  0  0
  6 14  1  0  0  0  0
  6 15  1  0  0  0  0
  6 16  1  0  0  0  0
  7 17  1  0  0  0  0
  7 18  1  0  0  0  0
  7 19  1  0  0  0  0
  8 20  1  0  0  0  0
  8 21  1  0  0  0  0
  8 22  1  0  0  0  0
M  ISO  1   8  11
M  CHG  2   1   1   5  -1
M  END
>  <DRUGBANK_ID>
DB09277

>  <COMMON_NAME>
Choline C 11

>  <CAS_NUMBER>
87591-54-6

>  <UNII>
381E0BTR5Q

>  <SYNONYMS>
11C-choline; 11C-choline chloride

$$$$
