
 OpenBabel10282417183D

 65 69  0  0  1  0  0  0  0  0999 V2000
    2.0687   13.9134   -0.8102 C   0  0  0  0  0  0  0  0  0  0  0  0
    1.7193   13.1788    0.4535 C   0  0  0  0  0  0  0  0  0  0  0  0
    0.6233   12.4255    0.3309 N   0  0  0  0  0  0  0  0  0  0  0  0
   -0.0002   12.1738    1.4938 C   0  0  0  0  0  0  0  0  0  0  0  0
   -1.2499   11.4995    1.6106 C   0  0  0  0  0  0  0  0  0  0  0  0
   -1.6858   11.4516    2.9112 C   0  0  0  0  0  0  0  0  0  0  0  0
   -0.6469   12.2973    3.9542 S   0  0  0  0  0  0  0  0  0  0  0  0
    0.5458   12.4989    2.7283 C   0  0  0  0  0  0  0  0  0  0  0  0
    1.8575   12.9888    2.8012 C   0  0  0  0  0  0  0  0  0  0  0  0
    2.3830   13.4348    1.6133 N   0  0  0  0  0  0  0  0  0  0  0  0
    2.5672   13.1442    4.0127 N   0  0  0  0  0  0  0  0  0  0  0  0
    2.2719   12.6809    5.2579 C   0  0  0  0  0  0  0  0  0  0  0  0
    1.9449   11.3499    5.6231 C   0  0  0  0  0  0  0  0  0  0  0  0
    2.0158   11.3263    6.9829 C   0  0  0  0  0  0  0  0  0  0  0  0
    1.8800   12.6119    7.3624 N   0  0  0  0  0  0  0  0  0  0  0  0
    2.2567   13.4539    6.3646 N   0  0  0  0  0  0  0  0  0  0  0  0
    1.7173   10.0165    7.5770 C   0  0  0  0  0  0  0  0  0  0  0  0
    0.8265    9.5276    6.4849 N   0  0  0  0  0  0  0  0  0  0  0  0
    1.5000   10.0163    5.0756 C   0  0  0  0  0  0  0  0  0  0  0  0
   -0.5393    9.8547    6.6905 C   0  0  0  0  0  0  0  0  0  0  0  0
   -0.9341   10.8349    7.2815 O   0  0  0  0  0  0  0  0  0  0  0  0
   -1.5187    8.9891    6.2785 N   0  0  0  0  0  0  0  0  0  0  0  0
   -1.5260    7.6221    5.7297 C   0  0  2  0  0  0  0  0  0  0  0  0
   -0.7487    6.7038    6.6712 C   0  0  0  0  0  0  0  0  0  0  0  0
   -1.2780    5.3295    6.7313 N   0  0  0  0  0  0  0  0  0  0  0  0
   -0.3659    4.5472    7.5615 C   0  0  0  0  0  0  0  0  0  0  0  0
   -2.6295    5.3020    7.3002 C   0  0  0  0  0  0  0  0  0  0  0  0
   -1.0435    7.5287    4.3016 C   0  0  0  0  0  0  0  0  0  0  0  0
   -0.8144    6.3654    3.5651 C   0  0  0  0  0  0  0  0  0  0  0  0
   -0.3104    6.4419    2.2521 C   0  0  0  0  0  0  0  0  0  0  0  0
   -0.0141    7.6640    1.6739 C   0  0  0  0  0  0  0  0  0  0  0  0
   -0.1381    8.7812    2.4448 C   0  0  0  0  0  0  0  0  0  0  0  0
   -0.7237    8.7139    3.6874 C   0  0  0  0  0  0  0  0  0  0  0  0
    2.9871    9.1283    7.5750 C   0  0  0  0  0  0  0  0  0  0  0  0
    1.2400   10.1196    9.0254 C   0  0  0  0  0  0  0  0  0  0  0  0
    2.1366   13.2103   -1.6482 H   0  0  0  0  0  0  0  0  0  0  0  0
    2.9989   14.4756   -0.7310 H   0  0  0  0  0  0  0  0  0  0  0  0
    1.2556   14.6147   -1.0462 H   0  0  0  0  0  0  0  0  0  0  0  0
   -1.7387   10.9734    0.8014 H   0  0  0  0  0  0  0  0  0  0  0  0
   -2.5038   10.8715    3.3170 H   0  0  0  0  0  0  0  0  0  0  0  0
    3.1899   13.9437    3.9532 H   0  0  0  0  0  0  0  0  0  0  0  0
    1.4999   12.9762    8.2328 H   0  0  0  0  0  0  0  0  0  0  0  0
    2.5571   10.0058    4.6752 H   0  0  0  0  0  0  0  0  0  0  0  0
    1.8582    8.9711    5.0081 H   0  0  0  0  0  0  0  0  0  0  0  0
   -2.4385    9.3608    6.4933 H   0  0  0  0  0  0  0  0  0  0  0  0
   -2.5953    7.3746    5.6962 H   0  0  0  0  0  0  0  0  0  0  0  0
    0.2942    6.6888    6.3249 H   0  0  0  0  0  0  0  0  0  0  0  0
   -0.7293    7.1303    7.6837 H   0  0  0  0  0  0  0  0  0  0  0  0
   -0.3021    4.9532    8.5775 H   0  0  0  0  0  0  0  0  0  0  0  0
   -0.6927    3.5064    7.6103 H   0  0  0  0  0  0  0  0  0  0  0  0
    0.6402    4.5528    7.1261 H   0  0  0  0  0  0  0  0  0  0  0  0
   -2.6644    5.7667    8.2915 H   0  0  0  0  0  0  0  0  0  0  0  0
   -3.3598    5.8140    6.6649 H   0  0  0  0  0  0  0  0  0  0  0  0
   -2.9910    4.2726    7.3718 H   0  0  0  0  0  0  0  0  0  0  0  0
   -0.9823    5.3863    4.0047 H   0  0  0  0  0  0  0  0  0  0  0  0
   -0.0877    5.5456    1.6868 H   0  0  0  0  0  0  0  0  0  0  0  0
    0.3613    7.7862    0.6658 H   0  0  0  0  0  0  0  0  0  0  0  0
    0.2533    9.7122    2.0841 H   0  0  0  0  0  0  0  0  0  0  0  0
   -0.8640    9.6171    4.2503 H   0  0  0  0  0  0  0  0  0  0  0  0
    3.8130    9.6344    8.0822 H   0  0  0  0  0  0  0  0  0  0  0  0
    2.7948    8.1679    8.0666 H   0  0  0  0  0  0  0  0  0  0  0  0
    3.3501    8.8791    6.5708 H   0  0  0  0  0  0  0  0  0  0  0  0
    2.0166   10.6335    9.6084 H   0  0  0  0  0  0  0  0  0  0  0  0
    0.3330   10.7093    9.1699 H   0  0  0  0  0  0  0  0  0  0  0  0
    1.0836    9.1376    9.4819 H   0  0  0  0  0  0  0  0  0  0  0  0
  1  2  1  0  0  0  0
  1 36  1  0  0  0  0
  1 37  1  0  0  0  0
  1 38  1  0  0  0  0
  2  3  1  0  0  0  0
  2 10  2  0  0  0  0
  3  4  2  0  0  0  0
  4  5  1  0  0  0  0
  4  8  1  0  0  0  0
  5  6  2  0  0  0  0
  5 39  1  0  0  0  0
  6  7  1  0  0  0  0
  6 40  1  0  0  0  0
  7  8  1  0  0  0  0
  8  9  2  0  0  0  0
  9 10  1  0  0  0  0
  9 11  1  0  0  0  0
 11 12  1  0  0  0  0
 11 41  1  0  0  0  0
 12 13  1  0  0  0  0
 12 16  2  0  0  0  0
 13 14  2  0  0  0  0
 13 19  1  0  0  0  0
 14 15  1  0  0  0  0
 14 17  1  0  0  0  0
 15 16  1  0  0  0  0
 15 42  1  0  0  0  0
 17 18  1  0  0  0  0
 17 34  1  0  0  0  0
 17 35  1  0  0  0  0
 18 19  1  0  0  0  0
 18 20  1  0  0  0  0
 19 43  1  0  0  0  0
 19 44  1  0  0  0  0
 20 21  2  0  0  0  0
 20 22  1  0  0  0  0
 22 45  1  0  0  0  0
 23 28  1  0  0  0  0
 23 46  1  1  0  0  0
 23 24  1  0  0  0  0
 23 22  1  0  0  0  0
 24 25  1  0  0  0  0
 24 47  1  0  0  0  0
 24 48  1  0  0  0  0
 25 26  1  0  0  0  0
 25 27  1  0  0  0  0
 26 49  1  0  0  0  0
 26 50  1  0  0  0  0
 26 51  1  0  0  0  0
 27 52  1  0  0  0  0
 27 53  1  0  0  0  0
 27 54  1  0  0  0  0
 28 29  2  0  0  0  0
 28 33  1  0  0  0  0
 29 30  1  0  0  0  0
 29 55  1  0  0  0  0
 30 31  2  0  0  0  0
 30 56  1  0  0  0  0
 31 32  1  0  0  0  0
 31 57  1  0  0  0  0
 32 33  2  0  0  0  0
 32 58  1  0  0  0  0
 33 59  1  0  0  0  0
 34 60  1  0  0  0  0
 34 61  1  0  0  0  0
 34 62  1  0  0  0  0
 35 63  1  0  0  0  0
 35 64  1  0  0  0  0
 35 65  1  0  0  0  0
M  END
>  <DRUGBANK_ID>
DB11775

>  <COMMON_NAME>
PF-03758309

>  <CAS_NUMBER>
898044-15-0

>  <UNII>
PK459EA5I2

$$$$
