AI1
 OpenBabel10282417133D

 51 53  0  0  0  0  0  0  0  0999 V2000
   -0.0754    1.6882   -0.0803 C   0  0  2  0  0  0  0  0  0  0  0  0
    0.1878    2.1745   -1.4734 O   0  0  0  0  0  0  0  0  0  0  0  0
    0.9466    0.6279    0.4689 C   0  0  2  0  0  0  0  0  0  0  0  0
    2.2881    1.0566    0.2148 O   0  0  0  0  0  0  0  0  0  0  0  0
    0.6752   -0.7499   -0.1370 C   0  0  1  0  0  0  0  0  0  0  0  0
    1.4863   -1.8381    0.2890 O   0  0  0  0  0  0  0  0  0  0  0  0
   -0.9326   -1.0637   -0.0421 C   0  0  1  0  0  0  0  0  0  0  0  0
   -1.2021   -1.4813    1.2875 O   0  0  0  0  0  0  0  0  0  0  0  0
   -1.9039    0.1958   -0.3961 C   0  0  2  0  0  0  0  0  0  0  0  0
   -1.4520    1.3508    0.3031 O   0  0  0  0  0  0  0  0  0  0  0  0
   -3.3958   -0.1327   -0.4396 C   0  0  0  0  0  0  0  0  0  0  0  0
   -4.1444    1.0136   -0.8657 O   0  0  0  0  0  0  0  0  0  0  0  0
    0.0595    1.4436   -2.6203 C   0  0  0  0  0  0  0  0  0  0  0  0
   -0.3153    0.1259   -2.6236 C   0  0  0  0  0  0  0  0  0  0  0  0
   -0.5572   -0.8324   -3.5410 C   0  0  0  0  0  0  0  0  0  0  0  0
   -0.1410   -0.4079   -4.7194 C   0  0  0  0  0  0  0  0  0  0  0  0
   -0.0566    0.9725   -4.9578 C   0  0  0  0  0  0  0  0  0  0  0  0
    0.1736    1.9021   -3.8969 C   0  0  0  0  0  0  0  0  0  0  0  0
   -0.3935    1.4417   -6.3009 C   0  0  0  0  0  0  0  0  0  0  0  0
   -0.2201    2.6502   -6.5652 O   0  0  0  0  0  0  0  0  0  0  0  0
   -0.9508    0.6146   -7.2389 N   0  0  0  0  0  0  0  0  0  0  0  0
   -1.4507   -0.7625   -7.1642 C   0  0  0  0  0  0  0  0  0  0  0  0
   -2.8852   -0.9895   -7.4663 C   0  0  0  0  0  0  0  0  0  0  0  0
   -3.6680    0.0178   -8.0016 C   0  0  0  0  0  0  0  0  0  0  0  0
   -4.9752   -0.2588   -8.3448 C   0  0  0  0  0  0  0  0  0  0  0  0
   -5.5047   -1.5323   -8.1267 C   0  0  0  0  0  0  0  0  0  0  0  0
   -4.7472   -2.5281   -7.5153 C   0  0  0  0  0  0  0  0  0  0  0  0
   -3.4482   -2.2420   -7.1366 C   0  0  0  0  0  0  0  0  0  0  0  0
    0.1212    2.5875    0.5173 H   0  0  0  0  0  0  0  0  0  0  0  0
    0.8410    0.5111    1.5526 H   0  0  0  0  0  0  0  0  0  0  0  0
    1.1221   -0.6654   -1.1336 H   0  0  0  0  0  0  0  0  0  0  0  0
   -1.1710   -1.9135   -0.7048 H   0  0  0  0  0  0  0  0  0  0  0  0
   -1.9177    0.6028   -1.4016 H   0  0  0  0  0  0  0  0  0  0  0  0
    2.3659    1.2296   -0.7431 H   0  0  0  0  0  0  0  0  0  0  0  0
    1.1756   -2.1382    1.1515 H   0  0  0  0  0  0  0  0  0  0  0  0
   -1.1988   -0.6692    1.8235 H   0  0  0  0  0  0  0  0  0  0  0  0
   -3.5578   -0.8921   -1.2221 H   0  0  0  0  0  0  0  0  0  0  0  0
   -3.7855   -0.4816    0.5076 H   0  0  0  0  0  0  0  0  0  0  0  0
   -3.7876    1.7851   -0.3882 H   0  0  0  0  0  0  0  0  0  0  0  0
   -0.4553   -0.3426   -1.7413 H   0  0  0  0  0  0  0  0  0  0  0  0
   -0.8805   -1.8291   -3.2539 H   0  0  0  0  0  0  0  0  0  0  0  0
    0.0326   -1.1951   -5.4263 H   0  0  0  0  0  0  0  0  0  0  0  0
    0.4257    2.9361   -4.1032 H   0  0  0  0  0  0  0  0  0  0  0  0
   -1.0793    1.0890   -8.1205 H   0  0  0  0  0  0  0  0  0  0  0  0
   -0.7854   -1.3979   -7.7585 H   0  0  0  0  0  0  0  0  0  0  0  0
   -1.5085   -1.1364   -6.1611 H   0  0  0  0  0  0  0  0  0  0  0  0
   -3.2649    1.0157   -8.1394 H   0  0  0  0  0  0  0  0  0  0  0  0
   -5.5641    0.5258   -8.8040 H   0  0  0  0  0  0  0  0  0  0  0  0
   -6.5237   -1.7418   -8.4283 H   0  0  0  0  0  0  0  0  0  0  0  0
   -5.1572   -3.5206   -7.3523 H   0  0  0  0  0  0  0  0  0  0  0  0
   -2.8801   -2.9887   -6.5771 H   0  0  0  0  0  0  0  0  0  0  0  0
  1  3  1  0  0  0  0
  1 10  1  0  0  0  0
  1 29  1  1  0  0  0
  1  2  1  0  0  0  0
  2 13  1  0  0  0  0
  3  4  1  0  0  0  0
  3  5  1  0  0  0  0
  3 30  1  1  0  0  0
  4 34  1  0  0  0  0
  5  6  1  0  0  0  0
  5  7  1  0  0  0  0
  5 31  1  6  0  0  0
  6 35  1  0  0  0  0
  7  8  1  0  0  0  0
  7  9  1  0  0  0  0
  7 32  1  6  0  0  0
  8 36  1  0  0  0  0
  9 10  1  0  0  0  0
  9 11  1  0  0  0  0
  9 33  1  6  0  0  0
 11 12  1  0  0  0  0
 11 37  1  0  0  0  0
 11 38  1  0  0  0  0
 12 39  1  0  0  0  0
 13 14  2  0  0  0  0
 13 18  1  0  0  0  0
 14 15  1  0  0  0  0
 14 40  1  0  0  0  0
 15 16  2  0  0  0  0
 15 41  1  0  0  0  0
 16 17  1  0  0  0  0
 16 42  1  0  0  0  0
 17 18  2  0  0  0  0
 17 19  1  0  0  0  0
 18 43  1  0  0  0  0
 19 20  2  0  0  0  0
 19 21  1  0  0  0  0
 21 22  1  0  0  0  0
 21 44  1  0  0  0  0
 22 23  1  0  0  0  0
 22 45  1  0  0  0  0
 22 46  1  0  0  0  0
 23 24  2  0  0  0  0
 23 28  1  0  0  0  0
 24 25  1  0  0  0  0
 24 47  1  0  0  0  0
 25 26  2  0  0  0  0
 25 48  1  0  0  0  0
 26 27  1  0  0  0  0
 26 49  1  0  0  0  0
 27 28  2  0  0  0  0
 27 50  1  0  0  0  0
 28 51  1  0  0  0  0
M  END
>  <DRUGBANK_ID>
DB03446

>  <SECONDARY_ACCESSION_NUMBERS>
EXPT00470

>  <COMMON_NAME>
N-Benzyl-3-(alpha-D-galactopyranosyloxy)benzamide

>  <SYNONYMS>
BAPG; N-Benzyl-3-(Î±-D-galactopyranosyloxy)benzamide

$$$$
