
 OpenBabel10282417123D

 15 15  0  0  0  0  0  0  0  0999 V2000
    1.1152   -0.1345   -0.0960 O   0  5  0  0  0  0  0  0  0  0  0  0
    2.3661   -0.0583   -0.0065 C   0  0  0  0  0  0  0  0  0  0  0  0
    3.1294    0.8737    0.3541 O   0  0  0  0  0  0  0  0  0  0  0  0
    3.0839   -1.3106   -0.2999 C   0  0  0  0  0  0  0  0  0  0  0  0
    4.1042   -1.7136    0.3551 N   0  3  0  0  0  0  0  0  0  0  0  0
    4.6681   -2.9780   -0.1008 C   0  0  0  0  0  0  0  0  0  0  0  0
    3.7721   -3.3544   -1.2717 C   0  0  0  0  0  0  0  0  0  0  0  0
    2.7409   -2.2432   -1.3991 C   0  0  0  0  0  0  0  0  0  0  0  0
    4.4335   -1.1074    1.1150 H   0  0  0  0  0  0  0  0  0  0  0  0
    4.6170   -3.7068    0.7133 H   0  0  0  0  0  0  0  0  0  0  0  0
    5.7062   -2.8129   -0.4011 H   0  0  0  0  0  0  0  0  0  0  0  0
    4.3514   -3.4603   -2.1962 H   0  0  0  0  0  0  0  0  0  0  0  0
    3.2794   -4.3182   -1.1008 H   0  0  0  0  0  0  0  0  0  0  0  0
    2.8269   -1.7164   -2.3548 H   0  0  0  0  0  0  0  0  0  0  0  0
    1.7193   -2.6110   -1.2768 H   0  0  0  0  0  0  0  0  0  0  0  0
  1  2  1  0  0  0  0
  2  3  2  0  0  0  0
  2  4  1  0  0  0  0
  4  5  2  0  0  0  0
  4  8  1  0  0  0  0
  5  6  1  0  0  0  0
  5  9  1  0  0  0  0
  6  7  1  0  0  0  0
  6 10  1  0  0  0  0
  6 11  1  0  0  0  0
  7  8  1  0  0  0  0
  7 12  1  0  0  0  0
  7 13  1  0  0  0  0
  8 14  1  0  0  0  0
  8 15  1  0  0  0  0
M  CHG  2   1  -1   5   1
M  END
>  <DRUGBANK_ID>
DB02838

>  <SECONDARY_ACCESSION_NUMBERS>
EXPT00141

>  <COMMON_NAME>
3,4-Dihydro-2h-Pyrrolium-5-Carboxylate

>  <UNII>
497H5RPL8F

$$$$
