
 OpenBabel10282417183D

 46 48  0  0  0  0  0  0  0  0999 V2000
    0.8139    1.2524    0.0294 C   0  0  3  0  0  0  0  0  0  0  0  0
    1.3010    2.0545   -1.1749 C   0  0  0  0  0  0  0  0  0  0  0  0
    0.8069    3.4755   -1.1458 C   0  0  0  0  0  0  0  0  0  0  0  0
    1.1231    4.2692   -0.0433 C   0  0  0  0  0  0  0  0  0  0  0  0
    0.0578    4.0243   -2.1909 C   0  0  0  0  0  0  0  0  0  0  0  0
    0.7259    5.5938    0.0081 C   0  0  0  0  0  0  0  0  0  0  0  0
   -0.2914    5.3790   -2.1596 C   0  0  0  0  0  0  0  0  0  0  0  0
    0.0205    6.1653   -1.0451 C   0  0  0  0  0  0  0  0  0  0  0  0
   -0.4256    7.4572   -1.0685 O   0  0  0  0  0  0  0  0  0  0  0  0
   -0.3874    8.2130    0.1527 C   0  0  0  0  0  0  0  0  0  0  0  0
   -1.7359    8.1656    0.9207 C   0  0  0  0  0  0  0  0  0  0  0  0
   -2.1026    6.7171    1.3235 C   0  0  0  0  0  0  0  0  0  0  0  0
   -3.3569    6.6323    2.1876 C   0  0  0  0  0  0  0  0  0  0  0  0
   -3.2381    7.5029    3.4320 C   0  0  0  0  0  0  0  0  0  0  0  0
   -2.8967    8.9447    3.0675 C   0  0  0  0  0  0  0  0  0  0  0  0
   -1.6291    9.0177    2.2106 C   0  0  0  0  0  0  0  0  0  0  0  0
   -2.8179    8.7454   -0.0112 C   0  0  0  0  0  0  0  0  0  0  0  0
    1.3557   -0.1527   -0.0149 C   0  0  0  0  0  0  0  0  0  0  0  0
    0.3611   -1.0800   -0.0439 N   0  0  0  0  0  0  0  0  0  0  0  0
   -0.9280   -0.6636    0.0014 C   0  0  0  0  0  0  0  0  0  0  0  0
   -1.0029    1.0717    0.0533 S   0  0  0  0  0  0  0  0  0  0  0  0
   -1.9049   -1.3832    0.0128 O   0  0  0  0  0  0  0  0  0  0  0  0
    2.5458   -0.4404   -0.0109 O   0  0  0  0  0  0  0  0  0  0  0  0
    1.1268    1.6948    0.9811 H   0  0  0  0  0  0  0  0  0  0  0  0
    2.3999    2.0990   -1.1709 H   0  0  0  0  0  0  0  0  0  0  0  0
    1.0362    1.5634   -2.1200 H   0  0  0  0  0  0  0  0  0  0  0  0
    1.6758    3.8702    0.8022 H   0  0  0  0  0  0  0  0  0  0  0  0
   -0.2620    3.4073   -3.0284 H   0  0  0  0  0  0  0  0  0  0  0  0
    0.9947    6.1340    0.9043 H   0  0  0  0  0  0  0  0  0  0  0  0
   -0.8133    5.8160   -3.0081 H   0  0  0  0  0  0  0  0  0  0  0  0
   -0.1749    9.2469   -0.1446 H   0  0  0  0  0  0  0  0  0  0  0  0
    0.4517    7.9542    0.8021 H   0  0  0  0  0  0  0  0  0  0  0  0
   -2.2612    6.0969    0.4356 H   0  0  0  0  0  0  0  0  0  0  0  0
   -1.2719    6.2724    1.8878 H   0  0  0  0  0  0  0  0  0  0  0  0
   -4.2278    6.9462    1.6026 H   0  0  0  0  0  0  0  0  0  0  0  0
   -3.5345    5.5898    2.4724 H   0  0  0  0  0  0  0  0  0  0  0  0
   -4.1809    7.4725    3.9885 H   0  0  0  0  0  0  0  0  0  0  0  0
   -2.4611    7.0980    4.0923 H   0  0  0  0  0  0  0  0  0  0  0  0
   -3.7398    9.3911    2.5282 H   0  0  0  0  0  0  0  0  0  0  0  0
   -2.7674    9.5393    3.9779 H   0  0  0  0  0  0  0  0  0  0  0  0
   -0.7816    8.6659    2.8160 H   0  0  0  0  0  0  0  0  0  0  0  0
   -1.4194   10.0645    1.9605 H   0  0  0  0  0  0  0  0  0  0  0  0
   -3.8090    8.7614    0.4473 H   0  0  0  0  0  0  0  0  0  0  0  0
   -2.5735    9.7772   -0.2862 H   0  0  0  0  0  0  0  0  0  0  0  0
   -2.9026    8.1572   -0.9302 H   0  0  0  0  0  0  0  0  0  0  0  0
    0.5713   -2.0637   -0.0588 H   0  0  0  0  0  0  0  0  0  0  0  0
  1  2  1  0  0  0  0
  1 18  1  0  0  0  0
  1 21  1  0  0  0  0
  1 24  1  0  0  0  0
  2  3  1  0  0  0  0
  2 25  1  0  0  0  0
  2 26  1  0  0  0  0
  3  4  2  0  0  0  0
  3  5  1  0  0  0  0
  4  6  1  0  0  0  0
  4 27  1  0  0  0  0
  5  7  2  0  0  0  0
  5 28  1  0  0  0  0
  6  8  2  0  0  0  0
  6 29  1  0  0  0  0
  7  8  1  0  0  0  0
  7 30  1  0  0  0  0
  8  9  1  0  0  0  0
  9 10  1  0  0  0  0
 10 11  1  0  0  0  0
 10 31  1  0  0  0  0
 10 32  1  0  0  0  0
 11 12  1  0  0  0  0
 11 16  1  0  0  0  0
 11 17  1  0  0  0  0
 12 13  1  0  0  0  0
 12 33  1  0  0  0  0
 12 34  1  0  0  0  0
 13 14  1  0  0  0  0
 13 35  1  0  0  0  0
 13 36  1  0  0  0  0
 14 15  1  0  0  0  0
 14 37  1  0  0  0  0
 14 38  1  0  0  0  0
 15 16  1  0  0  0  0
 15 39  1  0  0  0  0
 15 40  1  0  0  0  0
 16 41  1  0  0  0  0
 16 42  1  0  0  0  0
 17 43  1  0  0  0  0
 17 44  1  0  0  0  0
 17 45  1  0  0  0  0
 18 19  1  0  0  0  0
 18 23  2  0  0  0  0
 19 20  1  0  0  0  0
 19 46  1  0  0  0  0
 20 21  1  0  0  0  0
 20 22  2  0  0  0  0
M  END
>  <DRUGBANK_ID>
DB09201

>  <COMMON_NAME>
Ciglitazone

>  <CAS_NUMBER>
74772-77-3

>  <UNII>
U8QXS1WU8G

>  <SYNONYMS>
ciglitazona; Ciglitazone

$$$$
