1428
 OpenBabel10282417113D

 29 30  0  0  0  0  0  0  0  0999 V2000
    2.2765    0.0383    0.0181 O   0  0  0  0  0  0  0  0  0  0  0  0
   -1.8325   -2.4329   -0.1937 O   0  0  0  0  0  0  0  0  0  0  0  0
   -3.9565    1.1556   -0.1463 O   0  0  0  0  0  0  0  0  0  0  0  0
   -1.9054   -0.0247   -0.0347 C   0  0  0  0  0  0  0  0  0  0  0  0
   -3.3958    0.0586   -0.0724 C   0  0  0  0  0  0  0  0  0  0  0  0
   -4.2519   -1.1440   -0.0184 C   0  0  0  0  0  0  0  0  0  0  0  0
   -1.1954   -1.2332   -0.0602 C   0  0  0  0  0  0  0  0  0  0  0  0
   -1.1771    1.1763    0.0050 C   0  0  0  0  0  0  0  0  0  0  0  0
    0.9120   -0.0570    0.0197 C   0  0  0  0  0  0  0  0  0  0  0  0
    0.1959   -1.2514   -0.0010 C   0  0  0  0  0  0  0  0  0  0  0  0
    0.2223    1.1566    0.0225 C   0  0  0  0  0  0  0  0  0  0  0  0
   -4.1750   -2.0172    1.0744 C   0  0  0  0  0  0  0  0  0  0  0  0
   -5.1377   -1.4021   -1.0673 C   0  0  0  0  0  0  0  0  0  0  0  0
   -4.9389   -3.1818    1.0882 C   0  0  0  0  0  0  0  0  0  0  0  0
   -5.9654   -2.5238   -1.0032 C   0  0  0  0  0  0  0  0  0  0  0  0
   -5.8433   -3.4271    0.0560 C   0  0  0  0  0  0  0  0  0  0  0  0
    2.9893   -1.1940   -0.0225 C   0  0  0  0  0  0  0  0  0  0  0  0
   -1.2415   -3.1775   -0.0038 H   0  0  0  0  0  0  0  0  0  0  0  0
   -1.6927    2.1365    0.0053 H   0  0  0  0  0  0  0  0  0  0  0  0
    0.6991   -2.2101   -0.0014 H   0  0  0  0  0  0  0  0  0  0  0  0
    0.7761    2.0934    0.0311 H   0  0  0  0  0  0  0  0  0  0  0  0
   -3.4637   -1.8300    1.8740 H   0  0  0  0  0  0  0  0  0  0  0  0
   -5.1744   -0.7431   -1.9314 H   0  0  0  0  0  0  0  0  0  0  0  0
   -4.8256   -3.8931    1.9013 H   0  0  0  0  0  0  0  0  0  0  0  0
   -6.7068   -2.6958   -1.7788 H   0  0  0  0  0  0  0  0  0  0  0  0
   -6.4543   -4.3257    0.0758 H   0  0  0  0  0  0  0  0  0  0  0  0
    2.7824   -1.7918    0.8722 H   0  0  0  0  0  0  0  0  0  0  0  0
    2.7555   -1.7578   -0.9333 H   0  0  0  0  0  0  0  0  0  0  0  0
    4.0583   -0.9689   -0.0349 H   0  0  0  0  0  0  0  0  0  0  0  0
  1  9  1  0  0  0  0
  1 17  1  0  0  0  0
  2  7  1  0  0  0  0
  2 18  1  0  0  0  0
  3  5  2  0  0  0  0
  4  5  1  0  0  0  0
  4  7  2  0  0  0  0
  4  8  1  0  0  0  0
  5  6  1  0  0  0  0
  6 12  2  0  0  0  0
  6 13  1  0  0  0  0
  7 10  1  0  0  0  0
  8 11  2  0  0  0  0
  8 19  1  0  0  0  0
  9 10  2  0  0  0  0
  9 11  1  0  0  0  0
 10 20  1  0  0  0  0
 11 21  1  0  0  0  0
 12 14  1  0  0  0  0
 12 22  1  0  0  0  0
 13 15  2  0  0  0  0
 13 23  1  0  0  0  0
 14 16  2  0  0  0  0
 14 24  1  0  0  0  0
 15 16  1  0  0  0  0
 15 25  1  0  0  0  0
 16 26  1  0  0  0  0
 17 27  1  0  0  0  0
 17 28  1  0  0  0  0
 17 29  1  0  0  0  0
M  END
>  <DRUGBANK_ID>
DB01428

>  <COMMON_NAME>
Oxybenzone

>  <CAS_NUMBER>
131-57-7

>  <UNII>
95OOS7VE0Y

>  <SYNONYMS>
2-Benzoyl-5-methoxyphenol; 2-Hydroxy-4-methoxybenzophenone; 4-Methoxy-2-hydroxybenzophenone; Benzophenone-3; Oxibenzona; Oxybenzone; Oxybenzonum

$$$$
