
 OpenBabel10282417193D

 70 74  0  0  0  0  0  0  0  0999 V2000
    1.4759    2.2661   -2.8141 C   0  0  0  0  0  0  0  0  0  0  0  0
    1.5281    2.9825   -1.6032 C   0  0  0  0  0  0  0  0  0  0  0  0
    1.3634    4.3769   -1.6662 C   0  0  0  0  0  0  0  0  0  0  0  0
    1.3619    5.0446   -2.8904 C   0  0  0  0  0  0  0  0  0  0  0  0
    1.4061    4.3226   -4.0774 C   0  0  0  0  0  0  0  0  0  0  0  0
    1.4185    2.9315   -4.0401 C   0  0  0  0  0  0  0  0  0  0  0  0
   -1.0762   -2.3388    2.1659 N   0  0  0  0  0  0  0  0  0  0  0  0
   -0.3444   -2.3071    0.8673 C   0  0  1  0  0  0  0  0  0  0  0  0
   -0.5348   -3.1957    3.2261 C   0  0  2  0  0  0  0  0  0  0  0  0
   -0.9955   -0.9762    2.3160 C   0  0  0  0  0  0  0  0  0  0  0  0
   -0.4553   -0.7923    0.8825 C   0  0  1  0  0  0  0  0  0  0  0  0
    1.2986   -3.0138    1.2257 S   0  0  0  0  0  0  0  0  0  0  0  0
    0.5293   -4.0678    2.5155 C   0  0  0  0  0  0  0  0  0  0  0  0
   -1.6206   -3.9159    4.1009 C   0  0  0  0  0  0  0  0  0  0  0  0
    1.6078   -4.6124    3.4471 C   0  0  0  0  0  0  0  0  0  0  0  0
   -0.0989   -5.1683    1.7076 C   0  0  0  0  0  0  0  0  0  0  0  0
   -1.7468   -3.7325    5.3051 O   0  0  0  0  0  0  0  0  0  0  0  0
   -2.3658   -4.8200    3.4231 O   0  0  0  0  0  0  0  0  0  0  0  0
    0.7868    0.0395    0.6637 N   0  0  0  0  0  0  0  0  0  0  0  0
    0.6207    1.1805   -0.0942 C   0  0  0  0  0  0  0  0  0  0  0  0
    1.7571    2.2195   -0.2861 C   0  0  2  0  0  0  0  0  0  0  0  0
   -0.4866    1.3959   -0.6022 O   0  0  0  0  0  0  0  0  0  0  0  0
    1.7419    3.1146    0.8916 N   0  0  0  0  0  0  0  0  0  0  0  0
   -1.1772   -0.2881    3.2941 O   0  0  0  0  0  0  0  0  0  0  0  0
   -0.9102   -2.8037    0.0693 H   0  0  0  0  0  0  0  0  0  0  0  0
   -2.5686   -7.9598    2.2499 N   0  0  0  0  0  0  0  0  0  0  0  0
   -2.2882   -8.9110    1.1266 C   0  0  1  0  0  0  0  0  0  0  0  0
   -1.5599   -7.8522    3.3444 C   0  0  2  0  0  0  0  0  0  0  0  0
   -2.9976   -7.0056    1.3670 C   0  0  0  0  0  0  0  0  0  0  0  0
   -2.9277   -7.9034    0.1843 C   0  0  0  0  0  0  0  0  0  0  0  0
   -0.5144   -9.0499    1.1893 S   0  0  0  0  0  0  0  0  0  0  0  0
   -0.3950   -8.8450    3.0349 C   0  0  0  0  0  0  0  0  0  0  0  0
   -1.9806   -7.5705    4.8079 C   0  0  0  0  0  0  0  0  0  0  0  0
    1.0239   -8.3336    3.3531 C   0  0  0  0  0  0  0  0  0  0  0  0
   -0.6449  -10.1868    3.7049 C   0  0  0  0  0  0  0  0  0  0  0  0
   -1.4119   -8.1237    5.7476 O   0  0  0  0  0  0  0  0  0  0  0  0
   -2.8215   -6.5411    5.0855 O   0  0  0  0  0  0  0  0  0  0  0  0
   -3.3117   -5.8261    1.4152 O   0  0  0  0  0  0  0  0  0  0  0  0
   -2.8046   -9.8629    1.2450 H   0  0  0  0  0  0  0  0  0  0  0  0
   -0.1127  -10.3888    0.8108 O   0  0  0  0  0  0  0  0  0  0  0  0
    0.0826   -7.9142    0.5162 O   0  0  0  0  0  0  0  0  0  0  0  0
   -3.3513   -5.5969    4.1361 C   0  0  0  0  0  0  0  0  0  0  0  0
    1.4460    1.1775   -2.8123 H   0  0  0  0  0  0  0  0  0  0  0  0
    1.2232    4.9763   -0.7716 H   0  0  0  0  0  0  0  0  0  0  0  0
    1.3345    6.1307   -2.9083 H   0  0  0  0  0  0  0  0  0  0  0  0
    1.4042    4.8445   -5.0295 H   0  0  0  0  0  0  0  0  0  0  0  0
    1.3990    2.3623   -4.9654 H   0  0  0  0  0  0  0  0  0  0  0  0
   -0.0027   -2.5542    3.9429 H   0  0  0  0  0  0  0  0  0  0  0  0
   -1.2631   -0.4850    0.2093 H   0  0  0  0  0  0  0  0  0  0  0  0
    1.1787   -5.2356    4.2405 H   0  0  0  0  0  0  0  0  0  0  0  0
    2.3295   -5.2371    2.9044 H   0  0  0  0  0  0  0  0  0  0  0  0
    2.1627   -3.8000    3.9245 H   0  0  0  0  0  0  0  0  0  0  0  0
    0.6122   -5.8292    1.2230 H   0  0  0  0  0  0  0  0  0  0  0  0
   -0.5676   -5.7235    2.4572 H   0  0  0  0  0  0  0  0  0  0  0  0
   -0.9190   -4.9094    1.0337 H   0  0  0  0  0  0  0  0  0  0  0  0
    1.6715   -0.2056    1.1048 H   0  0  0  0  0  0  0  0  0  0  0  0
    2.7473    1.7470   -0.3380 H   0  0  0  0  0  0  0  0  0  0  0  0
    2.3520    3.9099    0.7003 H   0  0  0  0  0  0  0  0  0  0  0  0
    0.7958    3.5031    0.9427 H   0  0  0  0  0  0  0  0  0  0  0  0
   -1.0479   -6.9405    3.2528 H   0  0  0  0  0  0  0  0  0  0  0  0
   -3.9297   -8.1380   -0.1839 H   0  0  0  0  0  0  0  0  0  0  0  0
   -2.3208   -7.4552   -0.6070 H   0  0  0  0  0  0  0  0  0  0  0  0
    1.1674   -8.1588    4.4230 H   0  0  0  0  0  0  0  0  0  0  0  0
    1.7855   -9.0503    3.0193 H   0  0  0  0  0  0  0  0  0  0  0  0
    1.2543   -7.3994    2.8341 H   0  0  0  0  0  0  0  0  0  0  0  0
    0.0639  -10.9450    3.3629 H   0  0  0  0  0  0  0  0  0  0  0  0
   -0.5348  -10.1063    4.7884 H   0  0  0  0  0  0  0  0  0  0  0  0
   -1.6578  -10.5379    3.4892 H   0  0  0  0  0  0  0  0  0  0  0  0
   -4.0701   -4.9213    4.6106 H   0  0  0  0  0  0  0  0  0  0  0  0
   -3.9825   -6.1836    3.4651 H   0  0  0  0  0  0  0  0  0  0  0  0
  1  2  2  0  0  0  0
  1 43  1  0  0  0  0
  3  2  1  0  0  0  0
  3 44  1  0  0  0  0
  4  3  2  0  0  0  0
  4 45  1  0  0  0  0
  5  6  2  0  0  0  0
  5  4  1  0  0  0  0
  5 46  1  0  0  0  0
  6  1  1  0  0  0  0
  6 47  1  0  0  0  0
  8  7  1  0  0  0  0
  8 11  1  0  0  0  0
  8 12  1  0  0  0  0
  8 25  1  6  0  0  0
  9  7  1  0  0  0  0
  9 48  1  1  0  0  0
  9 14  1  0  0  0  0
 10  7  1  0  0  0  0
 10 24  2  0  0  0  0
 11 10  1  0  0  0  0
 11 19  1  0  0  0  0
 11 49  1  6  0  0  0
 13  9  1  0  0  0  0
 13 12  1  0  0  0  0
 15 13  1  0  0  0  0
 15 50  1  0  0  0  0
 15 51  1  0  0  0  0
 15 52  1  0  0  0  0
 16 13  1  0  0  0  0
 16 53  1  0  0  0  0
 16 54  1  0  0  0  0
 16 55  1  0  0  0  0
 17 14  2  0  0  0  0
 18 14  1  0  0  0  0
 18 42  1  0  0  0  0
 19 56  1  0  0  0  0
 20 19  1  0  0  0  0
 21 23  1  0  0  0  0
 21 57  1  6  0  0  0
 21 20  1  0  0  0  0
 21  2  1  0  0  0  0
 22 20  2  0  0  0  0
 23 58  1  0  0  0  0
 23 59  1  0  0  0  0
 27 26  1  0  0  0  0
 27 30  1  0  0  0  0
 27 31  1  0  0  0  0
 27 39  1  1  0  0  0
 28 26  1  0  0  0  0
 28 33  1  0  0  0  0
 28 60  1  6  0  0  0
 29 26  1  0  0  0  0
 29 38  2  0  0  0  0
 30 29  1  0  0  0  0
 30 61  1  0  0  0  0
 30 62  1  0  0  0  0
 31 40  2  0  0  0  0
 31 41  2  0  0  0  0
 32 28  1  0  0  0  0
 32 31  1  0  0  0  0
 34 32  1  0  0  0  0
 34 63  1  0  0  0  0
 34 64  1  0  0  0  0
 34 65  1  0  0  0  0
 35 32  1  0  0  0  0
 35 66  1  0  0  0  0
 35 67  1  0  0  0  0
 35 68  1  0  0  0  0
 36 33  2  0  0  0  0
 37 33  1  0  0  0  0
 37 42  1  0  0  0  0
 42 69  1  0  0  0  0
 42 70  1  0  0  0  0
M  END
>  <DRUGBANK_ID>
DB12127

>  <COMMON_NAME>
Sultamicillin

>  <CAS_NUMBER>
76497-13-7

>  <UNII>
65DT0ML581

>  <SYNONYMS>
Sultamicilina; Sultamicillin; Sultamicillinum

$$$$
