ENM
 OpenBabel10282417163D

 68 72  0  0  0  0  0  0  0  0999 V2000
   -2.4601    0.4329   -0.8245 C   0  0  0  0  0  0  0  0  0  0  0  0
   -2.9518   -0.5412    0.0403 C   0  0  0  0  0  0  0  0  0  0  0  0
   -3.2689   -0.2562    1.3200 F   0  0  0  0  0  0  0  0  0  0  0  0
   -3.2618   -1.7339   -0.4984 C   0  0  0  0  0  0  0  0  0  0  0  0
   -3.1509   -1.8544   -1.8908 C   0  0  0  0  0  0  0  0  0  0  0  0
   -3.2250   -3.0749   -2.4096 F   0  0  0  0  0  0  0  0  0  0  0  0
   -2.9621   -0.7891   -2.7859 C   0  0  0  0  0  0  0  0  0  0  0  0
   -2.7160    0.4457   -2.2727 C   0  0  0  0  0  0  0  0  0  0  0  0
   -2.8547    1.6375   -3.2988 C   0  0  0  0  0  0  0  0  0  0  0  0
   -1.5937    1.7554   -3.9129 O   0  0  0  0  0  0  0  0  0  0  0  0
   -0.7044    1.9912   -2.8340 C   0  0  0  0  0  0  0  0  0  0  0  0
   -1.2605    3.1268   -1.9714 C   0  0  0  0  0  0  0  0  0  0  0  0
   -2.7888    2.9443   -0.9829 C   0  0  2  0  0  0  0  0  0  0  0  0
   -1.9123    3.6531    0.3438 C   0  0  0  0  0  0  0  0  0  0  0  0
   -1.6682    5.1485    0.0579 C   0  0  0  0  0  0  0  0  0  0  0  0
   -3.0639    5.7474   -0.1829 C   0  0  2  0  0  0  0  0  0  0  0  0
   -3.1391    7.1854   -0.3209 C   0  0  1  0  0  0  0  0  0  0  0  0
   -2.4441    7.6521    1.5170 C   0  0  0  0  0  0  0  0  0  0  0  0
   -2.6026    7.7091   -1.7789 C   0  0  0  0  0  0  0  0  0  0  0  0
   -1.2897    7.9075   -1.3283 C   0  0  0  0  0  0  0  0  0  0  0  0
   -2.0793    8.9854   -0.1913 C   0  0  0  0  0  0  0  0  0  0  0  0
   -1.2631    9.6460    0.3751 O   0  0  0  0  0  0  0  0  0  0  0  0
   -3.9919    8.4892    0.4200 C   0  0  0  0  0  0  0  0  0  0  0  0
   -4.4889    7.9640   -0.7756 C   0  0  2  0  0  0  0  0  0  0  0  0
   -5.3222    7.1357   -1.6862 C   0  0  0  0  0  0  0  0  0  0  0  0
   -5.3894    5.7307   -1.2241 C   0  0  0  0  0  0  0  0  0  0  0  0
   -3.8726    5.2748   -1.3187 C   0  0  1  0  0  0  0  0  0  0  0  0
   -3.9230    3.8705   -1.0864 C   0  0  2  0  0  0  0  0  0  0  0  0
   -4.6599    3.5168    0.3192 C   0  0  0  0  0  0  0  0  0  0  0  0
   -4.7022    2.0439    0.4207 C   0  0  0  0  0  0  0  0  0  0  0  0
   -4.4492    1.8526   -1.0189 C   0  0  2  0  0  0  0  0  0  0  0  0
   -4.9168    0.5118   -1.3738 O   0  0  0  0  0  0  0  0  0  0  0  0
   -3.5879    5.5404    0.7575 H   0  0  0  0  0  0  0  0  0  0  0  0
   -4.7354    9.0011   -1.0612 H   0  0  0  0  0  0  0  0  0  0  0  0
   -3.3704    5.4370   -2.2803 H   0  0  0  0  0  0  0  0  0  0  0  0
   -4.4039    3.6296   -2.0538 H   0  0  0  0  0  0  0  0  0  0  0  0
   -5.2857    2.3085   -1.6048 H   0  0  0  0  0  0  0  0  0  0  0  0
   -2.1824    1.2700   -0.2128 H   0  0  0  0  0  0  0  0  0  0  0  0
   -3.5406   -2.5219    0.1795 H   0  0  0  0  0  0  0  0  0  0  0  0
   -3.0350   -0.8803   -3.8598 H   0  0  0  0  0  0  0  0  0  0  0  0
   -3.7272    1.5961   -3.9711 H   0  0  0  0  0  0  0  0  0  0  0  0
   -3.0613    2.6734   -3.0172 H   0  0  0  0  0  0  0  0  0  0  0  0
   -0.5696    1.1140   -2.1908 H   0  0  0  0  0  0  0  0  0  0  0  0
    0.3028    2.1423   -3.2305 H   0  0  0  0  0  0  0  0  0  0  0  0
   -0.3765    3.2183   -1.3004 H   0  0  0  0  0  0  0  0  0  0  0  0
   -1.1946    4.0905   -2.5039 H   0  0  0  0  0  0  0  0  0  0  0  0
   -2.1893    3.6135    1.3947 H   0  0  0  0  0  0  0  0  0  0  0  0
   -0.9519    3.1297    0.3938 H   0  0  0  0  0  0  0  0  0  0  0  0
   -1.2337    5.7858    0.8315 H   0  0  0  0  0  0  0  0  0  0  0  0
   -0.7899    5.1911   -0.5993 H   0  0  0  0  0  0  0  0  0  0  0  0
   -1.3909    7.4822    1.6896 H   0  0  0  0  0  0  0  0  0  0  0  0
   -2.5429    8.7836    1.7700 H   0  0  0  0  0  0  0  0  0  0  0  0
   -3.0938    7.3777    2.3802 H   0  0  0  0  0  0  0  0  0  0  0  0
   -2.9385    8.7240   -2.1132 H   0  0  0  0  0  0  0  0  0  0  0  0
   -2.7700    7.1215   -2.6769 H   0  0  0  0  0  0  0  0  0  0  0  0
   -0.6714    8.2952   -2.1362 H   0  0  0  0  0  0  0  0  0  0  0  0
   -0.8975    6.8959   -1.1759 H   0  0  0  0  0  0  0  0  0  0  0  0
   -4.6283    9.0855    1.0421 H   0  0  0  0  0  0  0  0  0  0  0  0
   -4.3589    7.4929    1.0598 H   0  0  0  0  0  0  0  0  0  0  0  0
   -6.2848    7.6342   -1.8526 H   0  0  0  0  0  0  0  0  0  0  0  0
   -4.8765    7.1055   -2.6941 H   0  0  0  0  0  0  0  0  0  0  0  0
   -6.3204    5.6896   -1.8200 H   0  0  0  0  0  0  0  0  0  0  0  0
   -5.7424    4.7376   -1.5325 H   0  0  0  0  0  0  0  0  0  0  0  0
   -5.6113    4.0037    0.4482 H   0  0  0  0  0  0  0  0  0  0  0  0
   -4.0542    3.7688    1.1854 H   0  0  0  0  0  0  0  0  0  0  0  0
   -5.4798    1.5257    0.9745 H   0  0  0  0  0  0  0  0  0  0  0  0
   -3.8007    1.7601    0.9601 H   0  0  0  0  0  0  0  0  0  0  0  0
   -5.8445    0.3909   -1.6831 H   0  0  0  0  0  0  0  0  0  0  0  0
  1  8  1  0  0  0  0
  1  2  2  0  0  0  0
  1 38  1  0  0  0  0
  2  4  1  0  0  0  0
  2  3  1  0  0  0  0
  4  5  2  0  0  0  0
  4 39  1  0  0  0  0
  5  7  1  0  0  0  0
  5  6  1  0  0  0  0
  7  8  2  0  0  0  0
  7 40  1  0  0  0  0
  8  9  1  0  0  0  0
  9 10  1  0  0  0  0
  9 41  1  0  0  0  0
  9 42  1  0  0  0  0
 10 11  1  0  0  0  0
 11 12  1  0  0  0  0
 11 43  1  0  0  0  0
 11 44  1  0  0  0  0
 12 45  1  0  0  0  0
 12 46  1  0  0  0  0
 13 31  1  0  0  0  0
 13 28  1  0  0  0  0
 13 14  1  0  0  0  0
 13 12  1  1  0  0  0
 14 15  1  0  0  0  0
 14 47  1  0  0  0  0
 14 48  1  0  0  0  0
 15 16  1  0  0  0  0
 15 49  1  0  0  0  0
 15 50  1  0  0  0  0
 16 27  1  0  0  0  0
 16 17  1  0  0  0  0
 16 33  1  6  0  0  0
 17 24  1  0  0  0  0
 17 19  1  0  0  0  0
 17 18  1  1  0  0  0
 18 51  1  0  0  0  0
 18 52  1  0  0  0  0
 18 53  1  0  0  0  0
 19 20  1  0  0  0  0
 19 54  1  0  0  0  0
 19 55  1  0  0  0  0
 20 21  1  0  0  0  0
 20 56  1  0  0  0  0
 20 57  1  0  0  0  0
 21 23  1  0  0  0  0
 21 22  2  0  0  0  0
 23 24  1  0  0  0  0
 23 58  1  0  0  0  0
 23 59  1  0  0  0  0
 24 25  1  0  0  0  0
 24 34  1  6  0  0  0
 25 26  1  0  0  0  0
 25 60  1  0  0  0  0
 25 61  1  0  0  0  0
 26 27  1  0  0  0  0
 26 62  1  0  0  0  0
 26 63  1  0  0  0  0
 27 28  1  0  0  0  0
 27 35  1  1  0  0  0
 28 29  1  0  0  0  0
 28 36  1  6  0  0  0
 29 30  1  0  0  0  0
 29 64  1  0  0  0  0
 29 65  1  0  0  0  0
 30 31  1  0  0  0  0
 30 66  1  0  0  0  0
 30 67  1  0  0  0  0
 31 37  1  6  0  0  0
 31 32  1  0  0  0  0
 32 68  1  0  0  0  0
M  END
>  <DRUGBANK_ID>
DB07717

>  <COMMON_NAME>
(5S,8R,9S,10S,13R,14S,17S)-13-{2-[(3,5-DIFLUOROBENZYL)OXY]ETHYL}-17-HYDROXY-10-METHYLHEXADECAHYDRO-3H-CYCLOPENTA[A]PHENANTHREN-3-ONE

$$$$
