
 OpenBabel10282417193D

 52 54  0  0  0  0  0  0  0  0999 V2000
    1.1003    0.2549    0.0345 C   0  0  0  0  0  0  0  0  0  0  0  0
    0.5625    0.3296    1.3980 N   0  0  0  0  0  0  0  0  0  0  0  0
   -0.8752    0.5056    1.5897 C   0  0  0  0  0  0  0  0  0  0  0  0
    0.9865   -0.8410    2.1407 C   0  0  0  0  0  0  0  0  0  0  0  0
    0.4675   -2.1172    1.5256 C   0  0  0  0  0  0  0  0  0  0  0  0
   -0.4803   -2.4455    0.4878 C   0  0  0  0  0  0  0  0  0  0  0  0
   -1.3153   -1.7523   -0.4113 C   0  0  0  0  0  0  0  0  0  0  0  0
   -2.1358   -2.4256   -1.2977 C   0  0  0  0  0  0  0  0  0  0  0  0
   -2.0811   -3.8071   -1.3722 C   0  0  0  0  0  0  0  0  0  0  0  0
   -1.2361   -4.5465   -0.5396 C   0  0  0  0  0  0  0  0  0  0  0  0
   -0.4763   -3.8225    0.3708 C   0  0  0  0  0  0  0  0  0  0  0  0
    0.3960   -4.3500    1.2448 O   0  0  0  0  0  0  0  0  0  0  0  0
    0.9684   -3.3268    1.9176 C   0  0  0  0  0  0  0  0  0  0  0  0
    1.9631   -3.5593    2.8815 C   0  0  0  0  0  0  0  0  0  0  0  0
    2.5118   -2.6918    3.5914 O   0  0  0  0  0  0  0  0  0  0  0  0
    2.3733   -4.7956    3.0987 N   0  0  0  0  0  0  0  0  0  0  0  0
    2.0888   -6.1409    2.5948 C   0  0  0  0  0  0  0  0  0  0  0  0
    3.3101   -6.8185    1.9277 C   0  0  0  0  0  0  0  0  0  0  0  0
    4.3973   -7.3863    2.7194 O   0  0  0  0  0  0  0  0  0  0  0  0
    4.9944   -6.6022    3.6594 C   0  0  0  0  0  0  0  0  0  0  0  0
    4.2367   -5.9907    4.6220 C   0  0  0  0  0  0  0  0  0  0  0  0
    4.6925   -4.9333    5.4020 C   0  0  0  0  0  0  0  0  0  0  0  0
    6.0404   -4.7727    5.5887 C   0  0  0  0  0  0  0  0  0  0  0  0
    6.8587   -5.7108    4.9204 C   0  0  0  0  0  0  0  0  0  0  0  0
    6.3549   -6.5516    3.8865 C   0  0  0  0  0  0  0  0  0  0  0  0
    6.6243   -3.7789    6.5454 C   0  0  0  0  0  0  0  0  0  0  0  0
    7.8207   -3.8848    6.8230 O   0  0  0  0  0  0  0  0  0  0  0  0
    5.9203   -2.7495    7.1156 N   0  0  0  0  0  0  0  0  0  0  0  0
    4.5575   -2.4581    7.0310 O   0  0  0  0  0  0  0  0  0  0  0  0
    0.7468    1.0751   -0.5877 H   0  0  0  0  0  0  0  0  0  0  0  0
    0.8926   -0.6658   -0.5160 H   0  0  0  0  0  0  0  0  0  0  0  0
    2.1976    0.2814    0.0599 H   0  0  0  0  0  0  0  0  0  0  0  0
   -1.4685   -0.4076    1.5139 H   0  0  0  0  0  0  0  0  0  0  0  0
   -1.0991    0.8092    2.6164 H   0  0  0  0  0  0  0  0  0  0  0  0
   -1.2903    1.2327    0.8927 H   0  0  0  0  0  0  0  0  0  0  0  0
    2.0866   -0.8411    2.1660 H   0  0  0  0  0  0  0  0  0  0  0  0
    0.6771   -0.7700    3.1950 H   0  0  0  0  0  0  0  0  0  0  0  0
   -1.3336   -0.6724   -0.4737 H   0  0  0  0  0  0  0  0  0  0  0  0
   -2.7872   -1.8345   -1.9326 H   0  0  0  0  0  0  0  0  0  0  0  0
   -2.6944   -4.3098   -2.1103 H   0  0  0  0  0  0  0  0  0  0  0  0
   -1.1635   -5.6236   -0.6019 H   0  0  0  0  0  0  0  0  0  0  0  0
    2.9921   -4.6371    3.8620 H   0  0  0  0  0  0  0  0  0  0  0  0
    1.6935   -6.7259    3.4311 H   0  0  0  0  0  0  0  0  0  0  0  0
    1.2880   -6.1127    1.8637 H   0  0  0  0  0  0  0  0  0  0  0  0
    2.8858   -7.6789    1.3907 H   0  0  0  0  0  0  0  0  0  0  0  0
    3.7304   -6.1589    1.1590 H   0  0  0  0  0  0  0  0  0  0  0  0
    3.1995   -6.2664    4.7281 H   0  0  0  0  0  0  0  0  0  0  0  0
    3.9217   -4.3478    5.8787 H   0  0  0  0  0  0  0  0  0  0  0  0
    7.8926   -5.8305    5.2384 H   0  0  0  0  0  0  0  0  0  0  0  0
    7.0275   -7.2043    3.3364 H   0  0  0  0  0  0  0  0  0  0  0  0
    6.4461   -2.1420    7.7401 H   0  0  0  0  0  0  0  0  0  0  0  0
    4.3366   -2.5423    6.0876 H   0  0  0  0  0  0  0  0  0  0  0  0
  1  2  1  0  0  0  0
  1 30  1  0  0  0  0
  1 31  1  0  0  0  0
  1 32  1  0  0  0  0
  2  3  1  0  0  0  0
  2  4  1  0  0  0  0
  3 33  1  0  0  0  0
  3 34  1  0  0  0  0
  3 35  1  0  0  0  0
  4  5  1  0  0  0  0
  4 36  1  0  0  0  0
  4 37  1  0  0  0  0
  5  6  1  0  0  0  0
  5 13  2  0  0  0  0
  6  7  2  0  0  0  0
  6 11  1  0  0  0  0
  7  8  1  0  0  0  0
  7 38  1  0  0  0  0
  8  9  2  0  0  0  0
  8 39  1  0  0  0  0
  9 10  1  0  0  0  0
  9 40  1  0  0  0  0
 10 11  2  0  0  0  0
 10 41  1  0  0  0  0
 11 12  1  0  0  0  0
 12 13  1  0  0  0  0
 13 14  1  0  0  0  0
 14 15  2  0  0  0  0
 14 16  1  0  0  0  0
 16 17  1  0  0  0  0
 16 42  1  0  0  0  0
 17 18  1  0  0  0  0
 17 43  1  0  0  0  0
 17 44  1  0  0  0  0
 18 19  1  0  0  0  0
 18 45  1  0  0  0  0
 18 46  1  0  0  0  0
 19 20  1  0  0  0  0
 20 21  2  0  0  0  0
 20 25  1  0  0  0  0
 21 22  1  0  0  0  0
 21 47  1  0  0  0  0
 22 23  2  0  0  0  0
 22 48  1  0  0  0  0
 23 24  1  0  0  0  0
 23 26  1  0  0  0  0
 24 25  2  0  0  0  0
 24 49  1  0  0  0  0
 25 50  1  0  0  0  0
 26 27  2  0  0  0  0
 26 28  1  0  0  0  0
 28 29  1  0  0  0  0
 28 51  1  0  0  0  0
 29 52  1  0  0  0  0
M  END
>  <DRUGBANK_ID>
DB12565

>  <SECONDARY_ACCESSION_NUMBERS>
DB05921

>  <COMMON_NAME>
Abexinostat

>  <CAS_NUMBER>
783355-60-2

>  <UNII>
IYO470654U

>  <SYNONYMS>
Abexinostat

$$$$
