
 OpenBabel10282417233D

 32 33  0  0  0  0  0  0  0  0999 V2000
    1.6281   -1.0657   -0.0498 N   0  0  0  0  0  0  0  0  0  0  0  0
    2.6193    0.0173    0.0500 C   0  0  3  0  0  0  0  0  0  0  0  0
    1.7634    1.3252    0.0076 C   0  0  0  0  0  0  0  0  0  0  0  0
    0.3242    0.8879    0.0507 C   0  0  0  0  0  0  0  0  0  0  0  0
   -0.8080    1.6370    0.0905 C   0  0  0  0  0  0  0  0  0  0  0  0
   -2.1086    0.8429    0.0897 C   0  0  0  0  0  0  0  0  0  0  0  0
   -1.8215   -0.5180   -0.3543 C   0  0  0  0  0  0  0  0  0  0  0  0
   -0.7371   -1.2999    0.1629 C   0  0  0  0  0  0  0  0  0  0  0  0
    0.3643   -0.5740    0.0873 C   0  0  0  0  0  0  0  0  0  0  0  0
    3.6650    0.0266    1.5533 S   0  0  0  0  0  0  0  0  0  0  0  0
    4.3802   -1.2251    1.6804 O   0  0  0  0  0  0  0  0  0  0  0  0
    4.3495    1.2945    1.6611 O   0  0  0  0  0  0  0  0  0  0  0  0
    2.5099    0.0145    2.6905 O   0  0  0  0  0  0  0  0  0  0  0  0
   -2.4825   -0.9851   -1.2823 O   0  0  0  0  0  0  0  0  0  0  0  0
    2.0535   -2.4615   -0.0286 C   0  0  0  0  0  0  0  0  0  0  0  0
   -3.3516    1.1745    0.2763 N   0  0  0  0  0  0  0  0  0  0  0  0
   -4.4808    0.2413    0.1661 N   0  0  0  0  0  0  0  0  0  0  0  0
   -4.7933   -1.1278    0.1534 C   0  0  0  0  0  0  0  0  0  0  0  0
   -5.9566   -1.4969   -0.0407 O   0  0  0  0  0  0  0  0  0  0  0  0
   -3.8803   -2.1046    0.4114 N   0  0  0  0  0  0  0  0  0  0  0  0
    3.2950   -0.0230   -0.8110 H   0  0  0  0  0  0  0  0  0  0  0  0
    1.9499    1.9809    0.8613 H   0  0  0  0  0  0  0  0  0  0  0  0
    1.9631    1.8662   -0.9231 H   0  0  0  0  0  0  0  0  0  0  0  0
   -0.7984    2.7238    0.0507 H   0  0  0  0  0  0  0  0  0  0  0  0
   -0.7809   -2.3707    0.0831 H   0  0  0  0  0  0  0  0  0  0  0  0
    2.9330   -0.0277    3.5730 H   0  0  0  0  0  0  0  0  0  0  0  0
    2.6848   -2.6861   -0.8943 H   0  0  0  0  0  0  0  0  0  0  0  0
    2.6028   -2.7032    0.8834 H   0  0  0  0  0  0  0  0  0  0  0  0
    1.2136   -3.1663   -0.0639 H   0  0  0  0  0  0  0  0  0  0  0  0
   -5.3419    0.7690    0.0235 H   0  0  0  0  0  0  0  0  0  0  0  0
   -3.0277   -1.9828   -0.0851 H   0  0  0  0  0  0  0  0  0  0  0  0
   -4.1462   -3.0466    0.1236 H   0  0  0  0  0  0  0  0  0  0  0  0
  1  2  1  0  0  0  0
  1  9  1  0  0  0  0
  1 15  1  0  0  0  0
  2  3  1  0  0  0  0
  2 10  1  0  0  0  0
  2 21  1  0  0  0  0
  3  4  1  0  0  0  0
  3 22  1  0  0  0  0
  3 23  1  0  0  0  0
  4  5  2  0  0  0  0
  4  9  1  0  0  0  0
  5  6  1  0  0  0  0
  5 24  1  0  0  0  0
  6  7  1  0  0  0  0
  6 16  2  0  0  0  0
  7  8  1  0  0  0  0
  7 14  2  0  0  0  0
  8  9  2  0  0  0  0
  8 25  1  0  0  0  0
 10 11  2  0  0  0  0
 10 12  2  0  0  0  0
 10 13  1  0  0  0  0
 13 26  1  0  0  0  0
 15 27  1  0  0  0  0
 15 28  1  0  0  0  0
 15 29  1  0  0  0  0
 16 17  1  0  0  0  0
 17 18  1  0  0  0  0
 17 30  1  0  0  0  0
 18 19  2  0  0  0  0
 18 20  1  0  0  0  0
 20 31  1  0  0  0  0
 20 32  1  0  0  0  0
M  END
>  <DRUGBANK_ID>
DB15969

>  <COMMON_NAME>
Carbazochrome sulfonic acid

>  <CAS_NUMBER>
70063-04-6

>  <UNII>
BMQ12812QR

$$$$
