
 OpenBabel10282417133D

 31 31  0  0  0  0  0  0  0  0999 V2000
   -0.0448    2.0339    0.3536 O   0  0  0  0  0  0  0  0  0  0  0  0
    0.0746   -2.1316    0.3197 O   0  0  0  0  0  0  0  0  0  0  0  0
   -2.4074   -0.7476   -0.2762 O   0  0  0  0  0  0  0  0  0  0  0  0
    2.4710   -0.6066   -0.2924 O   0  0  0  0  0  0  0  0  0  0  0  0
   -2.4638    3.4649   -0.0526 O   0  0  0  0  0  0  0  0  0  0  0  0
    4.2160    3.4859   -0.0162 O   0  0  0  0  0  0  0  0  0  0  0  0
    3.0362    2.7488   -1.7766 O   0  0  0  0  0  0  0  0  0  0  0  0
    2.2547    2.2647    0.3101 N   0  0  0  0  0  0  0  0  0  0  0  0
    0.0391   -0.7979   -0.2052 C   0  0  1  0  0  0  0  0  0  0  0  0
   -1.2489   -0.0903    0.2394 C   0  0  1  0  0  0  0  0  0  0  0  0
    1.2841   -0.0097    0.2397 C   0  0  2  0  0  0  0  0  0  0  0  0
   -1.2176    1.3844   -0.1825 C   0  0  1  0  0  0  0  0  0  0  0  0
    1.1528    1.4707   -0.1852 C   0  0  1  0  0  0  0  0  0  0  0  0
   -2.4697    2.0964    0.3422 C   0  0  0  0  0  0  0  0  0  0  0  0
    3.1571    2.8251   -0.5567 C   0  0  0  0  0  0  0  0  0  0  0  0
    4.4575    3.5879    1.3919 C   0  0  0  0  0  0  0  0  0  0  0  0
    0.1175   -2.0823    1.2908 H   0  0  0  0  0  0  0  0  0  0  0  0
   -2.3442   -0.8010   -1.2461 H   0  0  0  0  0  0  0  0  0  0  0  0
    2.4196   -0.5800   -1.2653 H   0  0  0  0  0  0  0  0  0  0  0  0
   -1.6301    3.8403    0.2865 H   0  0  0  0  0  0  0  0  0  0  0  0
    2.4161    2.2781    1.3017 H   0  0  0  0  0  0  0  0  0  0  0  0
    0.0408   -0.9198   -1.2948 H   0  0  0  0  0  0  0  0  0  0  0  0
   -1.3175   -0.1559    1.3324 H   0  0  0  0  0  0  0  0  0  0  0  0
    1.3675   -0.0754    1.3321 H   0  0  0  0  0  0  0  0  0  0  0  0
   -1.2042    1.4827   -1.2773 H   0  0  0  0  0  0  0  0  0  0  0  0
    1.1228    1.5345   -1.2793 H   0  0  0  0  0  0  0  0  0  0  0  0
   -3.3801    1.6370   -0.0559 H   0  0  0  0  0  0  0  0  0  0  0  0
   -2.5091    2.0625    1.4354 H   0  0  0  0  0  0  0  0  0  0  0  0
    3.6273    4.0985    1.8862 H   0  0  0  0  0  0  0  0  0  0  0  0
    4.6323    2.5962    1.8167 H   0  0  0  0  0  0  0  0  0  0  0  0
    5.3629    4.1872    1.5348 H   0  0  0  0  0  0  0  0  0  0  0  0
  1 12  1  0  0  0  0
  1 13  1  0  0  0  0
  2 17  1  0  0  0  0
  3 18  1  0  0  0  0
  4 19  1  0  0  0  0
  5 14  1  0  0  0  0
  5 20  1  0  0  0  0
  6 15  1  0  0  0  0
  6 16  1  0  0  0  0
  7 15  2  0  0  0  0
  8 15  1  0  0  0  0
  8 21  1  0  0  0  0
  9  2  1  0  0  0  0
  9 10  1  0  0  0  0
  9 11  1  0  0  0  0
  9 22  1  6  0  0  0
 10  3  1  0  0  0  0
 10 12  1  0  0  0  0
 10 23  1  1  0  0  0
 11  4  1  0  0  0  0
 11 13  1  0  0  0  0
 11 24  1  1  0  0  0
 12 14  1  0  0  0  0
 12 25  1  6  0  0  0
 13  8  1  0  0  0  0
 13 26  1  6  0  0  0
 14 27  1  0  0  0  0
 14 28  1  0  0  0  0
 16 29  1  0  0  0  0
 16 30  1  0  0  0  0
 16 31  1  0  0  0  0
M  END
>  <DRUGBANK_ID>
DB03657

>  <SECONDARY_ACCESSION_NUMBERS>
EXPT01010

>  <COMMON_NAME>
1-deoxy-1-methoxycarbamido-beta-D-glucopyranose

>  <CAS_NUMBER>
188679-87-0

>  <SYNONYMS>
N-(Methoxycarbonyl)-Î²-D-glucopyranosylamine

$$$$
