PGJ
 OpenBabel10282417173D

 49 52  0  0  0  0  0  0  0  0999 V2000
   -0.3634   -1.2165    0.0516 C   0  0  0  0  0  0  0  0  0  0  0  0
    0.9174   -0.6910    0.1344 N   0  0  0  0  0  0  0  0  0  0  0  0
    0.8764    0.6943    0.0402 O   0  0  0  0  0  0  0  0  0  0  0  0
   -0.4505    1.0411   -0.0164 C   0  0  0  0  0  0  0  0  0  0  0  0
   -1.2807   -0.2169   -0.0142 C   0  0  0  0  0  0  0  0  0  0  0  0
    2.2434   -1.2708    0.0580 C   0  0  0  0  0  0  0  0  0  0  0  0
    2.9476   -0.9306   -1.1345 O   0  0  0  0  0  0  0  0  0  0  0  0
    2.2996   -1.3497   -2.3321 C   0  0  0  0  0  0  0  0  0  0  0  0
    2.1257   -2.8569   -2.4063 C   0  0  0  0  0  0  0  0  0  0  0  0
   -0.5609   -2.6938    0.0730 C   0  0  0  0  0  0  0  0  0  0  0  0
    0.0125   -3.4592    1.0818 C   0  0  0  0  0  0  0  0  0  0  0  0
   -0.1005   -4.8282    0.9784 C   0  0  0  0  0  0  0  0  0  0  0  0
   -0.7162   -5.4330   -0.0445 N   0  0  0  0  0  0  0  0  0  0  0  0
   -1.2618   -4.6180   -0.9677 C   0  0  0  0  0  0  0  0  0  0  0  0
   -1.1959   -3.2675   -0.9729 N   0  0  0  0  0  0  0  0  0  0  0  0
   -1.9653   -5.2155   -2.0064 O   0  0  0  0  0  0  0  0  0  0  0  0
   -3.0900   -5.9456   -1.6627 C   0  0  0  0  0  0  0  0  0  0  0  0
   -3.6586   -5.9647   -0.3811 C   0  0  0  0  0  0  0  0  0  0  0  0
   -4.8147   -6.7028   -0.1203 C   0  0  0  0  0  0  0  0  0  0  0  0
   -5.4296   -7.4188   -1.1424 C   0  0  0  0  0  0  0  0  0  0  0  0
   -4.8878   -7.3977   -2.4269 C   0  0  0  0  0  0  0  0  0  0  0  0
   -3.7264   -6.6673   -2.6815 C   0  0  0  0  0  0  0  0  0  0  0  0
   -3.2593   -6.6863   -3.9679 O   0  0  0  0  0  0  0  0  0  0  0  0
   -2.7652   -0.2061   -0.0168 C   0  0  0  0  0  0  0  0  0  0  0  0
   -3.4883   -0.7954    1.0364 C   0  0  0  0  0  0  0  0  0  0  0  0
   -4.8949   -0.8087    1.0455 C   0  0  0  0  0  0  0  0  0  0  0  0
   -5.6009   -0.2145    0.0101 C   0  0  0  0  0  0  0  0  0  0  0  0
   -4.9228    0.4172   -1.0216 C   0  0  0  0  0  0  0  0  0  0  0  0
   -3.5132    0.4321   -1.0291 C   0  0  0  0  0  0  0  0  0  0  0  0
   -6.9415   -0.2498    0.0103 F   0  0  0  0  0  0  0  0  0  0  0  0
   -0.8643    2.1949   -0.0362 O   0  0  0  0  0  0  0  0  0  0  0  0
    2.8405   -0.9013    0.8991 H   0  0  0  0  0  0  0  0  0  0  0  0
    2.2427   -2.3562    0.1756 H   0  0  0  0  0  0  0  0  0  0  0  0
    1.3418   -0.8301   -2.4310 H   0  0  0  0  0  0  0  0  0  0  0  0
    2.9229   -1.0205   -3.1708 H   0  0  0  0  0  0  0  0  0  0  0  0
    1.5471   -3.2436   -1.5685 H   0  0  0  0  0  0  0  0  0  0  0  0
    1.6011   -3.1445   -3.3194 H   0  0  0  0  0  0  0  0  0  0  0  0
    3.0958   -3.3599   -2.3596 H   0  0  0  0  0  0  0  0  0  0  0  0
    0.5668   -3.0213    1.9018 H   0  0  0  0  0  0  0  0  0  0  0  0
    0.3122   -5.4945    1.7330 H   0  0  0  0  0  0  0  0  0  0  0  0
   -3.2238   -5.4112    0.4447 H   0  0  0  0  0  0  0  0  0  0  0  0
   -5.2338   -6.7099    0.8825 H   0  0  0  0  0  0  0  0  0  0  0  0
   -6.3329   -7.9874   -0.9388 H   0  0  0  0  0  0  0  0  0  0  0  0
   -5.3744   -7.9456   -3.2292 H   0  0  0  0  0  0  0  0  0  0  0  0
   -2.4635   -6.1278   -3.9987 H   0  0  0  0  0  0  0  0  0  0  0  0
   -2.9694   -1.2422    1.8797 H   0  0  0  0  0  0  0  0  0  0  0  0
   -5.4462   -1.2825    1.8525 H   0  0  0  0  0  0  0  0  0  0  0  0
   -5.4974    0.8875   -1.8159 H   0  0  0  0  0  0  0  0  0  0  0  0
   -3.0183    0.9492   -1.8492 H   0  0  0  0  0  0  0  0  0  0  0  0
  1  2  1  0  0  0  0
  1  5  2  0  0  0  0
  1 10  1  0  0  0  0
  2  3  1  0  0  0  0
  2  6  1  0  0  0  0
  3  4  1  0  0  0  0
  4  5  1  0  0  0  0
  4 31  2  0  0  0  0
  5 24  1  0  0  0  0
  6  7  1  0  0  0  0
  6 32  1  0  0  0  0
  6 33  1  0  0  0  0
  7  8  1  0  0  0  0
  8  9  1  0  0  0  0
  8 34  1  0  0  0  0
  8 35  1  0  0  0  0
  9 36  1  0  0  0  0
  9 37  1  0  0  0  0
  9 38  1  0  0  0  0
 10 11  2  0  0  0  0
 10 15  1  0  0  0  0
 11 12  1  0  0  0  0
 11 39  1  0  0  0  0
 12 13  2  0  0  0  0
 12 40  1  0  0  0  0
 13 14  1  0  0  0  0
 14 15  2  0  0  0  0
 14 16  1  0  0  0  0
 16 17  1  0  0  0  0
 17 18  2  0  0  0  0
 17 22  1  0  0  0  0
 18 19  1  0  0  0  0
 18 41  1  0  0  0  0
 19 20  2  0  0  0  0
 19 42  1  0  0  0  0
 20 21  1  0  0  0  0
 20 43  1  0  0  0  0
 21 22  2  0  0  0  0
 21 44  1  0  0  0  0
 22 23  1  0  0  0  0
 23 45  1  0  0  0  0
 24 25  2  0  0  0  0
 24 29  1  0  0  0  0
 25 26  1  0  0  0  0
 25 46  1  0  0  0  0
 26 27  2  0  0  0  0
 26 47  1  0  0  0  0
 27 28  1  0  0  0  0
 27 30  1  0  0  0  0
 28 29  2  0  0  0  0
 28 48  1  0  0  0  0
 29 49  1  0  0  0  0
M  END
>  <DRUGBANK_ID>
DB08395

>  <COMMON_NAME>
2-(ETHOXYMETHYL)-4-(4-FLUOROPHENYL)-3-[2-(2-HYDROXYPHENOXY)PYRIMIDIN-4-YL]ISOXAZOL-5(2H)-ONE

$$$$
