
 OpenBabel10282417133D

 47 47  0  0  0  0  0  0  0  0999 V2000
   -6.2723    7.5360   -7.5028 N   0  0  0  0  0  0  0  0  0  0  0  0
   -6.1846    6.2257   -7.1637 C   0  0  0  0  0  0  0  0  0  0  0  0
   -5.5184    5.7300   -6.0486 C   0  0  0  0  0  0  0  0  0  0  0  0
   -4.9309    6.7110   -5.2034 C   0  0  0  0  0  0  0  0  0  0  0  0
   -5.0129    8.0838   -5.5173 C   0  0  0  0  0  0  0  0  0  0  0  0
   -5.6925    8.4478   -6.6790 C   0  0  0  0  0  0  0  0  0  0  0  0
   -5.8293    9.8843   -7.1002 C   0  0  0  0  0  0  0  0  0  0  0  0
   -4.5130    9.1004   -4.7429 O   0  0  0  0  0  0  0  0  0  0  0  0
   -4.4985    6.3182   -3.8437 C   0  0  0  0  0  0  0  0  0  0  0  0
   -4.2655    5.0988   -3.5400 N   0  0  0  0  0  0  0  0  0  0  0  0
   -3.6639    4.7018   -2.2961 C   0  0  0  0  0  0  0  0  0  0  0  0
   -2.1809    5.0255   -2.4753 C   0  0  0  0  0  0  0  0  0  0  0  0
   -1.9126    6.5412   -2.4043 C   0  0  0  0  0  0  0  0  0  0  0  0
   -2.5967    7.2502   -1.2165 C   0  0  0  0  0  0  0  0  0  0  0  0
   -1.9603    6.9101    0.1388 C   0  0  2  0  0  0  0  0  0  0  0  0
   -1.7155    5.4819    0.3912 N   0  0  0  0  0  0  0  0  0  0  0  0
   -2.8282    7.4064    1.2968 C   0  0  0  0  0  0  0  0  0  0  0  0
   -2.4784    8.1655    2.1736 O   0  0  0  0  0  0  0  0  0  0  0  0
   -4.0492    6.8124    1.3289 O   0  0  0  0  0  0  0  0  0  0  0  0
   -5.7639    4.2772   -5.6449 C   0  0  0  0  0  0  0  0  0  0  0  0
   -7.1284    3.9416   -5.3550 O   0  0  0  0  0  0  0  0  0  0  0  0
   -7.9039    4.8936   -4.1363 P   0  0  0  0  0  0  0  0  0  0  0  0
   -7.2785    3.9816   -2.9501 O   0  0  0  0  0  0  0  0  0  0  0  0
   -7.1631    6.1878   -4.3010 O   0  0  0  0  0  0  0  0  0  0  0  0
   -8.6795    5.8456   -2.9177 O   0  0  0  0  0  0  0  0  0  0  0  0
   -6.7732    5.5648   -7.7948 H   0  0  0  0  0  0  0  0  0  0  0  0
   -5.3590   10.0108   -8.0795 H   0  0  0  0  0  0  0  0  0  0  0  0
   -6.8854   10.1641   -7.1750 H   0  0  0  0  0  0  0  0  0  0  0  0
   -5.3500   10.5855   -6.4101 H   0  0  0  0  0  0  0  0  0  0  0  0
   -4.0622    8.7805   -3.9507 H   0  0  0  0  0  0  0  0  0  0  0  0
   -4.3695    7.1259   -3.1168 H   0  0  0  0  0  0  0  0  0  0  0  0
   -4.1518    5.1357   -1.4162 H   0  0  0  0  0  0  0  0  0  0  0  0
   -3.7882    3.6191   -2.1679 H   0  0  0  0  0  0  0  0  0  0  0  0
   -1.5695    4.4683   -1.7681 H   0  0  0  0  0  0  0  0  0  0  0  0
   -1.8461    4.6429   -3.4484 H   0  0  0  0  0  0  0  0  0  0  0  0
   -0.8383    6.7375   -2.3915 H   0  0  0  0  0  0  0  0  0  0  0  0
   -2.2431    6.9984   -3.3457 H   0  0  0  0  0  0  0  0  0  0  0  0
   -2.5435    8.3355   -1.3840 H   0  0  0  0  0  0  0  0  0  0  0  0
   -3.6775    7.0666   -1.1820 H   0  0  0  0  0  0  0  0  0  0  0  0
   -0.9987    7.4277    0.1814 H   0  0  0  0  0  0  0  0  0  0  0  0
   -0.8690    5.1895   -0.0902 H   0  0  0  0  0  0  0  0  0  0  0  0
   -2.4939    4.9404    0.0155 H   0  0  0  0  0  0  0  0  0  0  0  0
   -4.4177    7.0754    2.1969 H   0  0  0  0  0  0  0  0  0  0  0  0
   -5.4082    3.6417   -6.4603 H   0  0  0  0  0  0  0  0  0  0  0  0
   -5.2222    3.8889   -4.7982 H   0  0  0  0  0  0  0  0  0  0  0  0
   -7.8541    3.2246   -2.7411 H   0  0  0  0  0  0  0  0  0  0  0  0
   -7.9320    6.1410   -2.3637 H   0  0  0  0  0  0  0  0  0  0  0  0
  1  2  1  0  0  0  0
  2  3  2  0  0  0  0
  2 26  1  0  0  0  0
  3  4  1  0  0  0  0
  3 20  1  0  0  0  0
  4  5  2  0  0  0  0
  4  9  1  0  0  0  0
  5  6  1  0  0  0  0
  5  8  1  0  0  0  0
  6  1  2  0  0  0  0
  6  7  1  0  0  0  0
  7 27  1  0  0  0  0
  7 28  1  0  0  0  0
  7 29  1  0  0  0  0
  8 30  1  0  0  0  0
  9 10  2  0  0  0  0
  9 31  1  0  0  0  0
 10 11  1  0  0  0  0
 11 12  1  0  0  0  0
 11 32  1  0  0  0  0
 11 33  1  0  0  0  0
 12 13  1  0  0  0  0
 12 34  1  0  0  0  0
 12 35  1  0  0  0  0
 13 14  1  0  0  0  0
 13 36  1  0  0  0  0
 13 37  1  0  0  0  0
 14 38  1  0  0  0  0
 14 39  1  0  0  0  0
 15 17  1  0  0  0  0
 15 40  1  1  0  0  0
 15 16  1  0  0  0  0
 15 14  1  0  0  0  0
 16 41  1  0  0  0  0
 16 42  1  0  0  0  0
 17 18  2  0  0  0  0
 17 19  1  0  0  0  0
 19 43  1  0  0  0  0
 20 21  1  0  0  0  0
 20 44  1  0  0  0  0
 20 45  1  0  0  0  0
 21 22  1  0  0  0  0
 22 23  1  0  0  0  0
 22 24  2  0  0  0  0
 22 25  1  0  0  0  0
 23 46  1  0  0  0  0
 25 47  1  0  0  0  0
M  END
>  <DRUGBANK_ID>
DB04083

>  <SECONDARY_ACCESSION_NUMBERS>
EXPT02040

>  <COMMON_NAME>
N(6)-(pyridoxal phosphate)-L-lysine

>  <CAS_NUMBER>
2440-59-7

>  <UNII>
QM00M3504A

>  <SYNONYMS>
(S)-2-amino-6-[(3-hydroxy-2-methyl-5-phosphonooxymethyl-4-pyridine)methyleneamino]hexanoic acid; N6-((3-Hydroxy-2-methyl-5-((phosphonooxy)methyl)-4-pyridinyl)methylene)-L-lysine

$$$$
