
 OpenBabel10282417193D

 44 47  0  0  0  0  0  0  0  0999 V2000
    1.6584    1.2626   -0.0159 C   0  0  0  0  0  0  0  0  0  0  0  0
    0.2567    1.2842   -0.0275 C   0  0  0  0  0  0  0  0  0  0  0  0
   -0.4765    0.0980   -0.0297 C   0  0  0  0  0  0  0  0  0  0  0  0
    0.1777   -1.1154   -0.0371 C   0  0  0  0  0  0  0  0  0  0  0  0
    1.5683   -1.1323   -0.0230 C   0  0  0  0  0  0  0  0  0  0  0  0
    2.3484    0.0493    0.0023 C   0  0  0  0  0  0  0  0  0  0  0  0
    3.8797    0.0722    0.0905 C   0  0  0  0  0  0  0  0  0  0  0  0
    4.4011   -0.6333    1.3337 C   0  0  0  0  0  0  0  0  0  0  0  0
    4.2340   -2.0200    1.3751 C   0  0  0  0  0  0  0  0  0  0  0  0
    4.3168   -2.6533    2.5937 C   0  0  0  0  0  0  0  0  0  0  0  0
    4.8769   -1.8997    3.6676 C   0  0  0  0  0  0  0  0  0  0  0  0
    5.2496   -2.6092    4.7990 C   0  0  0  0  0  0  0  0  0  0  0  0
    6.1317   -2.0838    5.6990 C   0  0  0  0  0  0  0  0  0  0  0  0
    6.3420   -0.7235    5.7196 C   0  0  0  0  0  0  0  0  0  0  0  0
    5.8412    0.1489    4.7136 C   0  0  0  0  0  0  0  0  0  0  0  0
    5.1938   -0.4730    3.5702 C   0  0  0  0  0  0  0  0  0  0  0  0
    4.8736    0.1346    2.3904 N   0  0  0  0  0  0  0  0  0  0  0  0
    6.3503    1.6124    5.0066 C   0  0  0  0  0  0  0  0  0  0  0  0
    7.8912    1.4812    5.0307 C   0  0  0  0  0  0  0  0  0  0  0  0
    8.3531    0.5803    6.1967 C   0  0  0  0  0  0  0  0  0  0  0  0
    7.1868   -0.1706    6.8285 C   0  0  0  0  0  0  0  0  0  0  0  0
    3.8774   -4.1306    2.6964 C   0  0  0  0  0  0  0  0  0  0  0  0
    4.0487   -4.9025    3.6023 O   0  0  0  0  0  0  0  0  0  0  0  0
    3.1614   -4.5854    1.6337 O   0  0  0  0  0  0  0  0  0  0  0  0
    4.0384   -2.7713    0.2442 O   0  0  0  0  0  0  0  0  0  0  0  0
   -2.1926    0.1174   -0.0094 Cl  0  0  0  0  0  0  0  0  0  0  0  0
    2.2063    2.2025    0.0047 H   0  0  0  0  0  0  0  0  0  0  0  0
   -0.2597    2.2377   -0.0211 H   0  0  0  0  0  0  0  0  0  0  0  0
   -0.3607   -2.0607   -0.0322 H   0  0  0  0  0  0  0  0  0  0  0  0
    1.9597   -2.1392    0.0135 H   0  0  0  0  0  0  0  0  0  0  0  0
    4.3062   -0.3839   -0.8146 H   0  0  0  0  0  0  0  0  0  0  0  0
    4.2623    1.0994    0.0862 H   0  0  0  0  0  0  0  0  0  0  0  0
    4.9671   -3.6359    4.9818 H   0  0  0  0  0  0  0  0  0  0  0  0
    6.6432   -2.7511    6.3840 H   0  0  0  0  0  0  0  0  0  0  0  0
    6.0560    2.4678    4.3887 H   0  0  0  0  0  0  0  0  0  0  0  0
    6.0105    1.9243    6.0187 H   0  0  0  0  0  0  0  0  0  0  0  0
    8.4623    2.4185    5.0371 H   0  0  0  0  0  0  0  0  0  0  0  0
    8.1464    1.0010    4.0785 H   0  0  0  0  0  0  0  0  0  0  0  0
    8.8570    1.1554    6.9807 H   0  0  0  0  0  0  0  0  0  0  0  0
    9.0855   -0.1338    5.7983 H   0  0  0  0  0  0  0  0  0  0  0  0
    6.5469    0.4818    7.4346 H   0  0  0  0  0  0  0  0  0  0  0  0
    7.5328   -0.9591    7.5033 H   0  0  0  0  0  0  0  0  0  0  0  0
    3.0135   -5.5380    1.8123 H   0  0  0  0  0  0  0  0  0  0  0  0
    3.7937   -2.2507   -0.5340 H   0  0  0  0  0  0  0  0  0  0  0  0
  1  2  2  0  0  0  0
  1  6  1  0  0  0  0
  1 27  1  0  0  0  0
  2  3  1  0  0  0  0
  2 28  1  0  0  0  0
  3  4  2  0  0  0  0
  3 26  1  0  0  0  0
  4  5  1  0  0  0  0
  4 29  1  0  0  0  0
  5  6  2  0  0  0  0
  5 30  1  0  0  0  0
  6  7  1  0  0  0  0
  7  8  1  0  0  0  0
  7 31  1  0  0  0  0
  7 32  1  0  0  0  0
  8  9  2  0  0  0  0
  8 17  1  0  0  0  0
  9 10  1  0  0  0  0
  9 25  1  0  0  0  0
 10 11  2  0  0  0  0
 10 22  1  0  0  0  0
 11 12  1  0  0  0  0
 11 16  1  0  0  0  0
 12 13  2  0  0  0  0
 12 33  1  0  0  0  0
 13 14  1  0  0  0  0
 13 34  1  0  0  0  0
 14 15  2  0  0  0  0
 14 21  1  0  0  0  0
 15 16  1  0  0  0  0
 15 18  1  0  0  0  0
 16 17  2  0  0  0  0
 18 19  1  0  0  0  0
 18 35  1  0  0  0  0
 18 36  1  0  0  0  0
 19 20  1  0  0  0  0
 19 37  1  0  0  0  0
 19 38  1  0  0  0  0
 20 21  1  0  0  0  0
 20 39  1  0  0  0  0
 20 40  1  0  0  0  0
 21 41  1  0  0  0  0
 21 42  1  0  0  0  0
 22 23  2  0  0  0  0
 22 24  1  0  0  0  0
 24 43  1  0  0  0  0
 25 44  1  0  0  0  0
M  END
>  <DRUGBANK_ID>
DB12211

>  <COMMON_NAME>
PSI-697

>  <CAS_NUMBER>
851546-61-7

>  <UNII>
LH1XC916ME

$$$$
