
 OpenBabel10282417213D

 37 34  0  0  0  0  0  0  0  0999 V2000
    3.3370    3.5280    3.4292 S   0  0  0  0  0  0  0  0  0  0  0  0
    3.4230    4.9186   -0.2716 S   0  0  0  0  0  0  0  0  0  0  0  0
    0.4287   -1.7673   -1.2308 Mg  0  2  0  0  0  0  0  0  0  0  0  0
   -0.5715    4.0310    2.7757 O   0  5  0  0  0  0  0  0  0  0  0  0
    1.1967    4.7958    1.5383 O   0  0  0  0  0  0  0  0  0  0  0  0
   -1.0156    4.5672   -0.9776 O   0  5  0  0  0  0  0  0  0  0  0  0
    0.4121    4.6845   -2.7609 O   0  0  0  0  0  0  0  0  0  0  0  0
   -0.3207   -0.5707    0.0229 O   0  0  0  0  0  0  0  0  0  0  0  0
    1.4237   -0.4390   -2.0017 O   0  0  0  0  0  0  0  0  0  0  0  0
    0.3034    1.3708    1.0912 N   0  0  0  0  0  0  0  0  0  0  0  0
    0.8722    1.7247   -1.5406 N   0  0  0  0  0  0  0  0  0  0  0  0
    1.0846    2.4034    2.0716 C   0  0  1  0  0  0  0  0  0  0  0  0
    0.9616    3.2446   -0.9906 C   0  0  1  0  0  0  0  0  0  0  0  0
    2.6718    2.3725    2.1979 C   0  0  0  0  0  0  0  0  0  0  0  0
    2.4287    3.5390   -0.8844 C   0  0  0  0  0  0  0  0  0  0  0  0
    0.5131    3.9249    2.0960 C   0  0  0  0  0  0  0  0  0  0  0  0
    0.0490    4.3240   -1.6021 C   0  0  0  0  0  0  0  0  0  0  0  0
    0.2222    0.0301    0.9766 C   0  0  0  0  0  0  0  0  0  0  0  0
    1.7442    0.6509   -1.4634 C   0  0  0  0  0  0  0  0  0  0  0  0
    1.0329   -0.7997    1.8866 C   0  0  0  0  0  0  0  0  0  0  0  0
    2.8991    0.5201   -0.4699 C   0  0  0  0  0  0  0  0  0  0  0  0
   -0.3317    1.8195    0.4236 H   0  0  0  0  0  0  0  0  0  0  0  0
   -0.0241    1.5927   -1.9972 H   0  0  0  0  0  0  0  0  0  0  0  0
    2.9063    4.6239    2.7478 H   0  0  0  0  0  0  0  0  0  0  0  0
    2.5965    5.2812    0.7432 H   0  0  0  0  0  0  0  0  0  0  0  0
    0.7599    2.0001    3.0225 H   0  0  0  0  0  0  0  0  0  0  0  0
    0.4611    3.2198   -0.0445 H   0  0  0  0  0  0  0  0  0  0  0  0
    3.3183    2.6020    1.3530 H   0  0  0  0  0  0  0  0  0  0  0  0
    3.0244    1.3719    2.4567 H   0  0  0  0  0  0  0  0  0  0  0  0
    2.8898    3.2405   -1.8149 H   0  0  0  0  0  0  0  0  0  0  0  0
    2.6933    2.7570   -0.2121 H   0  0  0  0  0  0  0  0  0  0  0  0
    2.0475   -0.4300    1.9693 H   0  0  0  0  0  0  0  0  0  0  0  0
    0.5233   -0.8042    2.8385 H   0  0  0  0  0  0  0  0  0  0  0  0
    1.1057   -1.7993    1.4378 H   0  0  0  0  0  0  0  0  0  0  0  0
    3.8170    1.0597   -0.6782 H   0  0  0  0  0  0  0  0  0  0  0  0
    2.5322    0.8241    0.4881 H   0  0  0  0  0  0  0  0  0  0  0  0
    3.1489   -0.5382   -0.2865 H   0  0  0  0  0  0  0  0  0  0  0  0
  1 14  1  0  0  0  0
  1 24  1  0  0  0  0
  2 15  1  0  0  0  0
  2 25  1  0  0  0  0
  4 16  1  0  0  0  0
  5 16  2  0  0  0  0
  6 17  1  0  0  0  0
  7 17  2  0  0  0  0
  8 18  2  0  0  0  0
  9 19  2  0  0  0  0
 10 18  1  0  0  0  0
 10 22  1  0  0  0  0
 11 19  1  0  0  0  0
 11 23  1  0  0  0  0
 12 16  1  0  0  0  0
 12 26  1  1  0  0  0
 12 14  1  0  0  0  0
 12 10  1  0  0  0  0
 13 17  1  0  0  0  0
 13 27  1  1  0  0  0
 13 15  1  0  0  0  0
 13 11  1  0  0  0  0
 14 28  1  0  0  0  0
 14 29  1  0  0  0  0
 15 30  1  0  0  0  0
 15 31  1  0  0  0  0
 18 20  1  0  0  0  0
 19 21  1  0  0  0  0
 20 32  1  0  0  0  0
 20 33  1  0  0  0  0
 20 34  1  0  0  0  0
 21 35  1  0  0  0  0
 21 36  1  0  0  0  0
 21 37  1  0  0  0  0
M  CHG  3   3   2   4  -1   6  -1
M  END
>  <DRUGBANK_ID>
DB14080

>  <COMMON_NAME>
Acetylcysteine magnesium

>  <CAS_NUMBER>
36330-79-7

>  <UNII>
038D8XOK12

>  <SYNONYMS>
Magnesium acetylcysteinate; Magnesium acetylcysteine

$$$$
