
 OpenBabel10282417143D

 40 42  0  0  0  0  0  0  0  0999 V2000
    0.0023   -0.6985   -0.0063 C   0  0  0  0  0  0  0  0  0  0  0  0
   -0.0650    0.7119   -0.0342 C   0  0  0  0  0  0  0  0  0  0  0  0
    1.1521    1.3902   -0.0231 C   0  0  0  0  0  0  0  0  0  0  0  0
    2.3879    0.7221   -0.0031 C   0  0  0  0  0  0  0  0  0  0  0  0
    2.4313   -0.6654    0.0096 C   0  0  0  0  0  0  0  0  0  0  0  0
    1.2382   -1.3773    0.0080 C   0  0  0  0  0  0  0  0  0  0  0  0
   -1.2471    1.3834   -0.0690 N   0  0  0  0  0  0  0  0  0  0  0  0
   -1.1950   -1.4150   -0.0020 C   0  0  0  0  0  0  0  0  0  0  0  0
   -2.4244   -0.7471   -0.0072 C   0  0  0  0  0  0  0  0  0  0  0  0
   -2.4082    0.6586   -0.0311 C   0  0  0  0  0  0  0  0  0  0  0  0
   -3.6849   -1.5101   -0.1105 C   0  0  0  0  0  0  0  0  0  0  0  0
   -3.6673   -2.8504    0.0119 O   0  0  0  0  0  0  0  0  0  0  0  0
   -4.7272   -0.9559   -0.4137 O   0  0  0  0  0  0  0  0  0  0  0  0
   -4.4997    1.3812    1.0803 N   0  0  0  0  0  0  0  0  0  0  0  0
   -3.6727    1.4721    0.0744 C   0  0  0  0  0  0  0  0  0  0  0  0
   -4.0456    2.3219   -0.9203 N   0  0  0  0  0  0  0  0  0  0  0  0
   -5.3756    2.5852   -0.7590 C   0  0  0  0  0  0  0  0  0  0  0  0
   -5.6817    2.2293    0.6954 C   0  0  1  0  0  0  0  0  0  0  0  0
   -6.1393    3.0151   -1.6074 O   0  0  0  0  0  0  0  0  0  0  0  0
   -7.0416    1.5097    0.9212 C   0  0  0  0  0  0  0  0  0  0  0  0
   -5.6231    3.5277    1.5110 C   0  0  0  0  0  0  0  0  0  0  0  0
   -7.1057    0.0862    0.3814 C   0  0  0  0  0  0  0  0  0  0  0  0
   -7.4176    1.4371    2.4088 C   0  0  0  0  0  0  0  0  0  0  0  0
    1.1471    2.4775   -0.0280 H   0  0  0  0  0  0  0  0  0  0  0  0
    3.3152    1.2911   -0.0007 H   0  0  0  0  0  0  0  0  0  0  0  0
    3.3854   -1.1889    0.0221 H   0  0  0  0  0  0  0  0  0  0  0  0
    1.2832   -2.4658    0.0176 H   0  0  0  0  0  0  0  0  0  0  0  0
   -1.1361   -2.4965   -0.0089 H   0  0  0  0  0  0  0  0  0  0  0  0
   -2.8365   -3.3459    0.0572 H   0  0  0  0  0  0  0  0  0  0  0  0
   -3.5682    2.5117   -1.7873 H   0  0  0  0  0  0  0  0  0  0  0  0
   -7.8254    2.0802    0.4044 H   0  0  0  0  0  0  0  0  0  0  0  0
   -6.4528    4.1904    1.2355 H   0  0  0  0  0  0  0  0  0  0  0  0
   -5.6836    3.3224    2.5838 H   0  0  0  0  0  0  0  0  0  0  0  0
   -4.6866    4.0713    1.3637 H   0  0  0  0  0  0  0  0  0  0  0  0
   -6.4489   -0.5606    0.9711 H   0  0  0  0  0  0  0  0  0  0  0  0
   -8.1081   -0.3415    0.4837 H   0  0  0  0  0  0  0  0  0  0  0  0
   -6.8424    0.0493   -0.6791 H   0  0  0  0  0  0  0  0  0  0  0  0
   -7.5390    2.4302    2.8478 H   0  0  0  0  0  0  0  0  0  0  0  0
   -8.3731    0.9239    2.5498 H   0  0  0  0  0  0  0  0  0  0  0  0
   -6.6491    0.8977    2.9745 H   0  0  0  0  0  0  0  0  0  0  0  0
  1  2  1  0  0  0  0
  1  6  2  0  0  0  0
  2  3  2  0  0  0  0
  2  7  1  0  0  0  0
  3  4  1  0  0  0  0
  3 24  1  0  0  0  0
  4  5  2  0  0  0  0
  4 25  1  0  0  0  0
  5  6  1  0  0  0  0
  5 26  1  0  0  0  0
  6 27  1  0  0  0  0
  8  1  1  0  0  0  0
  8 28  1  0  0  0  0
  9  8  2  0  0  0  0
  9 11  1  0  0  0  0
 10  7  2  0  0  0  0
 10  9  1  0  0  0  0
 11 12  1  0  0  0  0
 11 13  2  0  0  0  0
 12 29  1  0  0  0  0
 15 10  1  0  0  0  0
 15 14  2  0  0  0  0
 15 16  1  0  0  0  0
 16 30  1  0  0  0  0
 17 16  1  0  0  0  0
 17 19  2  0  0  0  0
 18 14  1  0  0  0  0
 18 17  1  0  0  0  0
 18 21  1  1  0  0  0
 18 20  1  0  0  0  0
 20 23  1  0  0  0  0
 20 31  1  0  0  0  0
 21 32  1  0  0  0  0
 21 33  1  0  0  0  0
 21 34  1  0  0  0  0
 22 20  1  0  0  0  0
 22 35  1  0  0  0  0
 22 36  1  0  0  0  0
 22 37  1  0  0  0  0
 23 38  1  0  0  0  0
 23 39  1  0  0  0  0
 23 40  1  0  0  0  0
M  END
>  <DRUGBANK_ID>
DB04582

>  <COMMON_NAME>
Imazaquin

>  <UNII>
8LZY7C31XA

>  <SYNONYMS>
(R)-imazaquin

$$$$
