
 OpenBabel10282417183D

182184  0  0  0  0  0  0  0  0999 V2000
    8.1992   37.9416  -10.7948 C   0  0  0  0  0  0  0  0  0  0  0  0
    7.4757   36.6694  -11.1684 C   0  0  0  0  0  0  0  0  0  0  0  0
    5.9489   36.8358  -11.1670 C   0  0  3  0  0  0  0  0  0  0  0  0
    5.4567   37.8958  -12.1326 C   0  0  0  0  0  0  0  0  0  0  0  0
    5.2834   35.4914  -11.5011 C   0  0  0  0  0  0  0  0  0  0  0  0
    5.6691   34.4393  -10.4740 C   0  0  0  0  0  0  0  0  0  0  0  0
    5.2480   34.9280   -9.0961 C   0  0  0  0  0  0  0  0  0  0  0  0
    3.7308   35.1227   -9.0010 C   0  0  0  0  0  0  0  0  0  0  0  0
    2.9133   33.9825   -9.5988 C   0  0  0  0  0  0  0  0  0  0  0  0
    3.1114   32.8335   -8.7636 C   0  0  0  0  0  0  0  0  0  0  0  0
    2.1354   32.6493   -7.8738 C   0  0  0  0  0  0  0  0  0  0  0  0
    2.5169   31.9261   -6.7415 C   0  0  0  0  0  0  0  0  0  0  0  0
    2.2571   32.5479   -5.2655 C   0  0  0  0  0  0  0  0  0  0  0  0
    1.5894   32.0903   -4.3343 O   0  0  0  0  0  0  0  0  0  0  0  0
    3.1153   33.4094   -4.7057 N   0  0  0  0  0  0  0  0  0  0  0  0
    4.3392   33.7053   -5.3591 C   0  0  1  0  0  0  0  0  0  0  0  0
    5.3966   34.0956   -4.3677 C   0  0  0  0  0  0  0  0  0  0  0  0
    6.3892   34.9299   -5.1088 C   0  0  0  0  0  0  0  0  0  0  0  0
    6.4611   36.2021   -4.7343 O   0  0  0  0  0  0  0  0  0  0  0  0
    7.1130   34.5186   -6.0632 O   0  0  0  0  0  0  0  0  0  0  0  0
    5.0220   32.5326   -6.1041 C   0  0  0  0  0  0  0  0  0  0  0  0
    5.7838   32.7008   -7.0624 O   0  0  0  0  0  0  0  0  0  0  0  0
    3.6266   30.4482   -5.1351 C   0  0  1  0  0  0  0  0  0  0  0  0
    2.0339   29.6116   -5.6271 C   0  0  2  0  0  0  0  0  0  0  0  0
    1.2653   29.6890   -7.1861 C   0  0  0  0  0  0  0  0  0  0  0  0
    0.0766   30.3620   -7.2535 O   0  0  0  0  0  0  0  0  0  0  0  0
    1.8345   29.4282   -8.2450 O   0  0  0  0  0  0  0  0  0  0  0  0
    4.6315   29.8011   -4.3648 C   0  0  0  0  0  0  0  0  0  0  0  0
    4.8333   30.3543   -3.2817 O   0  0  0  0  0  0  0  0  0  0  0  0
    5.3313   28.8230   -5.0300 N   0  0  0  0  0  0  0  0  0  0  0  0
    4.9933   28.2342   -6.3762 C   0  0  1  0  0  0  0  0  0  0  0  0
    6.2520   28.2736   -7.2546 C   0  0  0  0  0  0  0  0  0  0  0  0
    7.4810   27.5238   -6.7817 C   0  0  0  0  0  0  0  0  0  0  0  0
    7.7461   26.4044   -7.4943 O   0  0  0  0  0  0  0  0  0  0  0  0
    8.0570   27.7544   -5.7262 O   0  0  0  0  0  0  0  0  0  0  0  0
    4.0932   26.8973   -6.4894 C   0  0  0  0  0  0  0  0  0  0  0  0
    2.9175   26.8927   -6.8449 O   0  0  0  0  0  0  0  0  0  0  0  0
    4.6174   25.7030   -6.1319 N   0  0  0  0  0  0  0  0  0  0  0  0
    5.8870   25.6738   -5.5765 C   0  0  0  0  0  0  0  0  0  0  0  0
    5.8685   25.4409   -4.1829 C   0  0  0  0  0  0  0  0  0  0  0  0
    6.4880   24.4318   -3.8559 O   0  0  0  0  0  0  0  0  0  0  0  0
    5.3606   26.4791   -3.4158 N   0  0  0  0  0  0  0  0  0  0  0  0
    4.1006   27.3278   -3.1446 C   0  0  1  0  0  0  0  0  0  0  0  0
    2.6327   26.8595   -2.9165 C   0  0  0  0  0  0  0  0  0  0  0  0
    1.9860   26.7182   -1.5411 C   0  0  0  0  0  0  0  0  0  0  0  0
    1.3879   27.6038   -0.9516 O   0  0  0  0  0  0  0  0  0  0  0  0
    4.7945   28.3410   -2.1250 C   0  0  0  0  0  0  0  0  0  0  0  0
    5.9672   28.7022   -2.3550 O   0  0  0  0  0  0  0  0  0  0  0  0
    4.1888   27.6726    0.1122 C   0  0  0  0  0  0  0  0  0  0  0  0
    5.2256   27.0841    1.0706 C   0  0  0  0  0  0  0  0  0  0  0  0
    4.8777   26.7742    2.2099 O   0  0  0  0  0  0  0  0  0  0  0  0
    6.4193   26.6118    0.6152 N   0  0  0  0  0  0  0  0  0  0  0  0
    6.7147   26.3225   -0.7560 C   0  0  2  0  0  0  0  0  0  0  0  0
    5.9566   24.9612   -1.3701 C   0  0  2  0  0  0  0  0  0  0  0  0
    4.5240   24.7866   -1.9757 C   0  0  0  0  0  0  0  0  0  0  0  0
    5.7611   23.8001   -0.5501 N   0  0  0  0  0  0  0  0  0  0  0  0
    8.2184   26.3668   -1.1923 C   0  0  0  0  0  0  0  0  0  0  0  0
    8.7333   27.2739   -1.8459 O   0  0  0  0  0  0  0  0  0  0  0  0
    8.9824   25.3014   -0.8850 N   0  0  0  0  0  0  0  0  0  0  0  0
    8.5151   24.1556   -0.1405 C   0  0  1  0  0  0  0  0  0  0  0  0
    8.4805   22.8515   -0.9861 C   0  0  0  0  0  0  0  0  0  0  0  0
    9.8857   22.3919   -1.2744 C   0  0  0  0  0  0  0  0  0  0  0  0
    7.7381   21.6895   -0.3056 C   0  0  0  0  0  0  0  0  0  0  0  0
    9.0332   24.0499    1.2720 C   0  0  0  0  0  0  0  0  0  0  0  0
    8.2393   23.9045    2.2074 O   0  0  0  0  0  0  0  0  0  0  0  0
   10.3754   23.8984    1.4136 N   0  0  0  0  0  0  0  0  0  0  0  0
   11.4527   24.4284    0.6254 C   0  0  0  0  0  0  0  0  0  0  0  0
   12.4553   23.3072    0.5404 C   0  0  0  0  0  0  0  0  0  0  0  0
   12.3142   22.6461    1.8915 C   0  0  0  0  0  0  0  0  0  0  0  0
   10.8470   22.8742    2.2966 C   0  0  1  0  0  0  0  0  0  0  0  0
   10.7284   23.3491    3.7450 C   0  0  0  0  0  0  0  0  0  0  0  0
   11.2261   24.3998    4.1478 O   0  0  0  0  0  0  0  0  0  0  0  0
   10.0441   22.5371    4.6073 N   0  0  0  0  0  0  0  0  0  0  0  0
    9.7164   21.1222    4.3651 C   0  0  2  0  0  0  0  0  0  0  0  0
    5.9738   26.6540   -2.6611 H   0  0  0  0  0  0  0  0  0  0  0  0
    0.8255   29.7884   -4.6453 C   0  0  0  0  0  0  0  0  0  0  0  0
   10.2156   22.0044    2.0845 H   0  0  0  0  0  0  0  0  0  0  0  0
    9.1135   20.4299    5.6043 C   0  0  1  0  0  0  0  0  0  0  0  0
   10.9640   20.3375    3.9197 C   0  0  0  0  0  0  0  0  0  0  0  0
   10.1560   20.6196    6.7156 C   0  0  0  0  0  0  0  0  0  0  0  0
    7.7750   20.9266    5.9171 N   0  0  0  0  0  0  0  0  0  0  0  0
    7.4559   20.8139    7.2619 C   0  0  0  0  0  0  0  0  0  0  0  0
    9.8018   21.4569    7.7375 N   0  0  0  0  0  0  0  0  0  0  0  0
    8.3956   21.7184    8.0794 C   0  0  2  0  0  0  0  0  0  0  0  0
   10.8669   22.0995    8.4812 C   0  0  0  0  0  0  0  0  0  0  0  0
    8.1981   21.5741    9.5798 C   0  0  0  0  0  0  0  0  0  0  0  0
   10.6296   22.0247    9.9699 C   0  0  0  0  0  0  0  0  0  0  0  0
    9.2097   22.4618   10.3073 C   0  0  0  0  0  0  0  0  0  0  0  0
    6.4714   20.2162    7.6678 O   0  0  0  0  0  0  0  0  0  0  0  0
   11.2886   20.1478    6.6434 O   0  0  0  0  0  0  0  0  0  0  0  0
    9.0089   19.3499    5.4492 H   0  0  0  0  0  0  0  0  0  0  0  0
    8.1616   22.7464    7.7690 H   0  0  0  0  0  0  0  0  0  0  0  0
    4.7853   31.2077   -5.8768 N   0  0  0  0  0  0  0  0  0  0  0  0
    4.3509   28.6839   -0.8954 N   0  0  0  0  0  0  0  0  0  0  0  0
    2.2260   25.5381   -0.9297 O   0  0  0  0  0  0  0  0  0  0  0  0
    7.9749   38.7439  -11.4982 H   0  0  0  0  0  0  0  0  0  0  0  0
    9.2778   37.7711  -10.8098 H   0  0  0  0  0  0  0  0  0  0  0  0
    7.9083   38.2586   -9.7879 H   0  0  0  0  0  0  0  0  0  0  0  0
    7.7991   36.3103  -12.1513 H   0  0  0  0  0  0  0  0  0  0  0  0
    7.7939   35.9153  -10.4388 H   0  0  0  0  0  0  0  0  0  0  0  0
    5.6367   37.1909  -10.1774 H   0  0  0  0  0  0  0  0  0  0  0  0
    5.7293   37.6301  -13.1551 H   0  0  0  0  0  0  0  0  0  0  0  0
    4.3684   37.9948  -12.0630 H   0  0  0  0  0  0  0  0  0  0  0  0
    5.8795   38.8722  -11.8868 H   0  0  0  0  0  0  0  0  0  0  0  0
    4.1929   35.6154  -11.5224 H   0  0  0  0  0  0  0  0  0  0  0  0
    5.5585   35.1457  -12.5009 H   0  0  0  0  0  0  0  0  0  0  0  0
    5.2143   33.4739  -10.7172 H   0  0  0  0  0  0  0  0  0  0  0  0
    6.7392   34.2177  -10.4851 H   0  0  0  0  0  0  0  0  0  0  0  0
    5.6417   34.2183   -8.3940 H   0  0  0  0  0  0  0  0  0  0  0  0
    5.7480   35.8489   -8.7783 H   0  0  0  0  0  0  0  0  0  0  0  0
    3.4719   35.3186   -7.9510 H   0  0  0  0  0  0  0  0  0  0  0  0
    3.4199   36.0144   -9.5437 H   0  0  0  0  0  0  0  0  0  0  0  0
    1.8501   34.2172   -9.5609 H   0  0  0  0  0  0  0  0  0  0  0  0
    3.1664   33.6545  -10.6001 H   0  0  0  0  0  0  0  0  0  0  0  0
    4.1047   32.3480   -8.7638 H   0  0  0  0  0  0  0  0  0  0  0  0
    1.1714   33.0927   -7.7984 H   0  0  0  0  0  0  0  0  0  0  0  0
    2.6508   30.8899   -6.9169 H   0  0  0  0  0  0  0  0  0  0  0  0
    3.5183   31.7840   -7.0730 H   0  0  0  0  0  0  0  0  0  0  0  0
    3.0367   33.3153   -3.6902 H   0  0  0  0  0  0  0  0  0  0  0  0
    4.0259   34.5191   -6.0201 H   0  0  0  0  0  0  0  0  0  0  0  0
    4.9817   34.6249   -3.5037 H   0  0  0  0  0  0  0  0  0  0  0  0
    5.8794   33.1939   -3.9691 H   0  0  0  0  0  0  0  0  0  0  0  0
    5.9467   36.3951   -3.9293 H   0  0  0  0  0  0  0  0  0  0  0  0
    3.4007   31.1575   -4.3677 H   0  0  0  0  0  0  0  0  0  0  0  0
    2.2792   28.5649   -5.5465 H   0  0  0  0  0  0  0  0  0  0  0  0
   -0.4288   30.5783   -6.4520 H   0  0  0  0  0  0  0  0  0  0  0  0
    6.0713   28.4292   -4.4352 H   0  0  0  0  0  0  0  0  0  0  0  0
    4.3018   28.9325   -6.8553 H   0  0  0  0  0  0  0  0  0  0  0  0
    5.9884   27.9616   -8.2623 H   0  0  0  0  0  0  0  0  0  0  0  0
    6.6029   29.3073   -7.2835 H   0  0  0  0  0  0  0  0  0  0  0  0
    7.1154   26.1743   -8.2039 H   0  0  0  0  0  0  0  0  0  0  0  0
    4.0283   24.8801   -6.0423 H   0  0  0  0  0  0  0  0  0  0  0  0
    6.5987   25.0148   -6.0600 H   0  0  0  0  0  0  0  0  0  0  0  0
    6.2418   26.6605   -5.4528 H   0  0  0  0  0  0  0  0  0  0  0  0
    3.9237   27.6661   -4.1418 H   0  0  0  0  0  0  0  0  0  0  0  0
    2.0294   27.6692   -3.3462 H   0  0  0  0  0  0  0  0  0  0  0  0
    2.4019   25.9930   -3.5413 H   0  0  0  0  0  0  0  0  0  0  0  0
    3.2620   27.8818    0.6431 H   0  0  0  0  0  0  0  0  0  0  0  0
    4.0314   26.7915   -0.4537 H   0  0  0  0  0  0  0  0  0  0  0  0
    6.9878   26.1373    1.3026 H   0  0  0  0  0  0  0  0  0  0  0  0
    6.4758   27.2612   -1.1850 H   0  0  0  0  0  0  0  0  0  0  0  0
    6.7486   24.6843   -2.0399 H   0  0  0  0  0  0  0  0  0  0  0  0
    4.0893   25.7064   -1.7539 H   0  0  0  0  0  0  0  0  0  0  0  0
    4.3197   24.5930   -3.0420 H   0  0  0  0  0  0  0  0  0  0  0  0
    3.8411   24.0391   -1.5686 H   0  0  0  0  0  0  0  0  0  0  0  0
    5.4534   23.0575   -1.1948 H   0  0  0  0  0  0  0  0  0  0  0  0
    5.0577   23.9865    0.1467 H   0  0  0  0  0  0  0  0  0  0  0  0
    9.8805   25.3443   -1.3399 H   0  0  0  0  0  0  0  0  0  0  0  0
    7.5272   24.4095    0.1588 H   0  0  0  0  0  0  0  0  0  0  0  0
    8.0144   23.0342   -1.9644 H   0  0  0  0  0  0  0  0  0  0  0  0
   10.3145   22.0992   -0.3224 H   0  0  0  0  0  0  0  0  0  0  0  0
    9.9356   21.5074   -1.9063 H   0  0  0  0  0  0  0  0  0  0  0  0
   10.4664   23.1873   -1.7485 H   0  0  0  0  0  0  0  0  0  0  0  0
    6.6656   21.8306   -0.2066 H   0  0  0  0  0  0  0  0  0  0  0  0
    7.8470   20.7707   -0.8875 H   0  0  0  0  0  0  0  0  0  0  0  0
    8.1118   21.5189    0.7047 H   0  0  0  0  0  0  0  0  0  0  0  0
   11.8277   25.2800    1.1928 H   0  0  0  0  0  0  0  0  0  0  0  0
   11.1885   24.7620   -0.3603 H   0  0  0  0  0  0  0  0  0  0  0  0
   12.2131   22.5820   -0.2436 H   0  0  0  0  0  0  0  0  0  0  0  0
   13.4563   23.6677    0.3185 H   0  0  0  0  0  0  0  0  0  0  0  0
   12.5885   21.5921    1.7971 H   0  0  0  0  0  0  0  0  0  0  0  0
   12.9988   23.1053    2.6061 H   0  0  0  0  0  0  0  0  0  0  0  0
    9.9752   22.9295    5.5420 H   0  0  0  0  0  0  0  0  0  0  0  0
    8.9662   21.1101    3.5636 H   0  0  0  0  0  0  0  0  0  0  0  0
   -0.0134   29.1537   -4.9455 H   0  0  0  0  0  0  0  0  0  0  0  0
    1.0908   29.5945   -3.6093 H   0  0  0  0  0  0  0  0  0  0  0  0
    0.3042   30.7515   -4.6913 H   0  0  0  0  0  0  0  0  0  0  0  0
   10.7399   19.2844    3.7590 H   0  0  0  0  0  0  0  0  0  0  0  0
   11.3748   20.6790    2.9886 H   0  0  0  0  0  0  0  0  0  0  0  0
   11.8113   20.4558    4.5976 H   0  0  0  0  0  0  0  0  0  0  0  0
    7.0341   20.6185    5.2982 H   0  0  0  0  0  0  0  0  0  0  0  0
   10.9331   23.1341    8.1258 H   0  0  0  0  0  0  0  0  0  0  0  0
   11.8317   21.6323    8.2557 H   0  0  0  0  0  0  0  0  0  0  0  0
    8.3475   20.5264    9.8722 H   0  0  0  0  0  0  0  0  0  0  0  0
    7.1764   21.8467    9.8632 H   0  0  0  0  0  0  0  0  0  0  0  0
   11.3681   22.6497   10.4793 H   0  0  0  0  0  0  0  0  0  0  0  0
   10.7833   20.9901   10.3014 H   0  0  0  0  0  0  0  0  0  0  0  0
    9.0549   22.4054   11.3864 H   0  0  0  0  0  0  0  0  0  0  0  0
    9.0698   23.5059    9.9985 H   0  0  0  0  0  0  0  0  0  0  0  0
    5.3637   30.7302   -6.5623 H   0  0  0  0  0  0  0  0  0  0  0  0
    4.8938   29.4774   -0.5618 H   0  0  0  0  0  0  0  0  0  0  0  0
    2.3432   25.6537    0.0415 H   0  0  0  0  0  0  0  0  0  0  0  0
  1  2  1  0  0  0  0
  1 96  1  0  0  0  0
  1 97  1  0  0  0  0
  1 98  1  0  0  0  0
  2  3  1  0  0  0  0
  2 99  1  0  0  0  0
  2100  1  0  0  0  0
  3  4  1  0  0  0  0
  3  5  1  0  0  0  0
  3101  1  0  0  0  0
  4102  1  0  0  0  0
  4103  1  0  0  0  0
  4104  1  0  0  0  0
  5  6  1  0  0  0  0
  5105  1  0  0  0  0
  5106  1  0  0  0  0
  6  7  1  0  0  0  0
  6107  1  0  0  0  0
  6108  1  0  0  0  0
  7  8  1  0  0  0  0
  7109  1  0  0  0  0
  7110  1  0  0  0  0
  8  9  1  0  0  0  0
  8111  1  0  0  0  0
  8112  1  0  0  0  0
  9 10  1  0  0  0  0
  9113  1  0  0  0  0
  9114  1  0  0  0  0
 10 11  2  0  0  0  0
 10115  1  0  0  0  0
 11 12  1  0  0  0  0
 11116  1  0  0  0  0
 12 13  1  0  0  0  0
 12117  1  0  0  0  0
 12118  1  0  0  0  0
 13 14  2  0  0  0  0
 13 15  1  0  0  0  0
 15119  1  0  0  0  0
 16 17  1  0  0  0  0
 16120  1  6  0  0  0
 16 21  1  0  0  0  0
 16 15  1  0  0  0  0
 17 18  1  0  0  0  0
 17121  1  0  0  0  0
 17122  1  0  0  0  0
 18 19  1  0  0  0  0
 18 20  2  0  0  0  0
 19123  1  0  0  0  0
 21 22  2  0  0  0  0
 21 93  1  0  0  0  0
 23 28  1  0  0  0  0
 23124  1  1  0  0  0
 24 76  1  0  0  0  0
 24125  1  1  0  0  0
 24 25  1  0  0  0  0
 24 23  1  0  0  0  0
 25 26  1  0  0  0  0
 25 27  2  0  0  0  0
 26126  1  0  0  0  0
 28 29  2  0  0  0  0
 28 30  1  0  0  0  0
 30 31  1  0  0  0  0
 30127  1  0  0  0  0
 31 32  1  0  0  0  0
 31 36  1  0  0  0  0
 31128  1  6  0  0  0
 32 33  1  0  0  0  0
 32129  1  0  0  0  0
 32130  1  0  0  0  0
 33 34  1  0  0  0  0
 33 35  2  0  0  0  0
 34131  1  0  0  0  0
 36 37  2  0  0  0  0
 36 38  1  0  0  0  0
 38 39  1  0  0  0  0
 38132  1  0  0  0  0
 39 40  1  0  0  0  0
 39133  1  0  0  0  0
 39134  1  0  0  0  0
 40 41  2  0  0  0  0
 40 42  1  0  0  0  0
 42 43  1  0  0  0  0
 42 75  1  0  0  0  0
 43 44  1  0  0  0  0
 43 47  1  0  0  0  0
 43135  1  6  0  0  0
 44 45  1  0  0  0  0
 44136  1  0  0  0  0
 44137  1  0  0  0  0
 45 46  2  0  0  0  0
 45 95  1  0  0  0  0
 47 48  2  0  0  0  0
 47 94  1  0  0  0  0
 49 50  1  0  0  0  0
 49138  1  0  0  0  0
 49139  1  0  0  0  0
 50 51  2  0  0  0  0
 50 52  1  0  0  0  0
 52140  1  0  0  0  0
 53 57  1  0  0  0  0
 53141  1  6  0  0  0
 53 54  1  0  0  0  0
 53 52  1  0  0  0  0
 54142  1  6  0  0  0
 54 56  1  0  0  0  0
 54 55  1  0  0  0  0
 55143  1  0  0  0  0
 55144  1  0  0  0  0
 55145  1  0  0  0  0
 56146  1  0  0  0  0
 56147  1  0  0  0  0
 57 58  2  0  0  0  0
 57 59  1  0  0  0  0
 59 60  1  0  0  0  0
 59148  1  0  0  0  0
 60 61  1  0  0  0  0
 60 64  1  0  0  0  0
 60149  1  1  0  0  0
 61 62  1  0  0  0  0
 61 63  1  0  0  0  0
 61150  1  0  0  0  0
 62151  1  0  0  0  0
 62152  1  0  0  0  0
 62153  1  0  0  0  0
 63154  1  0  0  0  0
 63155  1  0  0  0  0
 63156  1  0  0  0  0
 64 65  2  0  0  0  0
 64 66  1  0  0  0  0
 66 67  1  0  0  0  0
 66 70  1  0  0  0  0
 67 68  1  0  0  0  0
 67157  1  0  0  0  0
 67158  1  0  0  0  0
 68 69  1  0  0  0  0
 68159  1  0  0  0  0
 68160  1  0  0  0  0
 69 70  1  0  0  0  0
 69161  1  0  0  0  0
 69162  1  0  0  0  0
 70 77  1  6  0  0  0
 70 71  1  0  0  0  0
 71 72  2  0  0  0  0
 71 73  1  0  0  0  0
 73163  1  0  0  0  0
 74 79  1  0  0  0  0
 74164  1  6  0  0  0
 74 78  1  0  0  0  0
 74 73  1  0  0  0  0
 76165  1  0  0  0  0
 76166  1  0  0  0  0
 76167  1  0  0  0  0
 78 80  1  0  0  0  0
 78 81  1  0  0  0  0
 78 91  1  6  0  0  0
 79168  1  0  0  0  0
 79169  1  0  0  0  0
 79170  1  0  0  0  0
 80 83  1  0  0  0  0
 80 90  2  0  0  0  0
 81 82  1  0  0  0  0
 81171  1  0  0  0  0
 82 84  1  0  0  0  0
 82 89  2  0  0  0  0
 83 84  1  0  0  0  0
 83 85  1  0  0  0  0
 84 86  1  0  0  0  0
 84 92  1  6  0  0  0
 85 87  1  0  0  0  0
 85172  1  0  0  0  0
 85173  1  0  0  0  0
 86 88  1  0  0  0  0
 86174  1  0  0  0  0
 86175  1  0  0  0  0
 87176  1  0  0  0  0
 87177  1  0  0  0  0
 88 87  1  0  0  0  0
 88178  1  0  0  0  0
 88179  1  0  0  0  0
 93 23  1  0  0  0  0
 93180  1  0  0  0  0
 94 49  1  0  0  0  0
 94181  1  0  0  0  0
 95182  1  0  0  0  0
M  END
>  <DRUGBANK_ID>
DB11499

>  <COMMON_NAME>
Amphomycin

>  <CAS_NUMBER>
1402-82-0

>  <UNII>
4P63B997RT

>  <SYNONYMS>
Amfomycine; Amfomycinum; Amphomycin; Anfomicina

$$$$
