
 OpenBabel10282417133D

 36 38  0  0  0  0  0  0  0  0999 V2000
    1.6833    0.5502    0.1556 O   0  0  0  0  0  0  0  0  0  0  0  0
   -1.9161    0.8525    0.0356 O   0  0  0  0  0  0  0  0  0  0  0  0
   -0.7424   -1.4995    0.6730 O   0  0  0  0  0  0  0  0  0  0  0  0
    1.4275   -1.7822   -2.6366 O   0  0  0  0  0  0  0  0  0  0  0  0
    1.1317    3.0966   -1.1776 N   0  0  0  0  0  0  0  0  0  0  0  0
    0.8553    4.3874   -1.4693 N   0  0  0  0  0  0  0  0  0  0  0  0
   -0.4489    3.9424    1.8007 N   0  0  0  0  0  0  0  0  0  0  0  0
   -0.9054    6.2328    1.0792 N   0  3  0  0  0  0  0  0  0  0  0  0
   -0.3442    7.1664   -1.0839 N   0  0  0  0  0  0  0  0  0  0  0  0
    0.4648    1.2605    0.3991 C   0  0  2  0  0  0  0  0  0  0  0  0
   -0.6106    0.6131   -0.4745 C   0  0  1  0  0  0  0  0  0  0  0  0
   -0.1901   -0.8403   -0.4758 C   0  0  1  0  0  0  0  0  0  0  0  0
    1.3442   -0.7511   -0.4046 C   0  0  1  0  0  0  0  0  0  0  0  0
    0.6228    2.6849    0.0266 C   0  0  0  0  0  0  0  0  0  0  0  0
    2.0590   -0.8692   -1.7564 C   0  0  0  0  0  0  0  0  0  0  0  0
    0.1363    3.8218    0.5935 C   0  0  0  0  0  0  0  0  0  0  0  0
    0.2175    4.8633   -0.3786 C   0  0  0  0  0  0  0  0  0  0  0  0
   -0.3452    6.1444   -0.1575 C   0  0  0  0  0  0  0  0  0  0  0  0
   -0.9242    5.1984    1.9617 C   0  0  0  0  0  0  0  0  0  0  0  0
   -1.5302    7.5024    1.4790 C   0  0  0  0  0  0  0  0  0  0  0  0
    0.2234    1.1702    1.4657 H   0  0  0  0  0  0  0  0  0  0  0  0
   -2.0372    0.2621    0.8036 H   0  0  0  0  0  0  0  0  0  0  0  0
   -0.3620   -1.1280    1.4858 H   0  0  0  0  0  0  0  0  0  0  0  0
    1.3916   -2.6568   -2.2083 H   0  0  0  0  0  0  0  0  0  0  0  0
    1.5905    2.5280   -1.8839 H   0  0  0  0  0  0  0  0  0  0  0  0
    0.0726    6.9482   -1.9899 H   0  0  0  0  0  0  0  0  0  0  0  0
   -0.7512    8.0804   -0.9732 H   0  0  0  0  0  0  0  0  0  0  0  0
   -0.5700    0.9944   -1.5026 H   0  0  0  0  0  0  0  0  0  0  0  0
   -0.5677   -1.3743   -1.3516 H   0  0  0  0  0  0  0  0  0  0  0  0
    1.7360   -1.5201    0.2726 H   0  0  0  0  0  0  0  0  0  0  0  0
    2.1082    0.1043   -2.2559 H   0  0  0  0  0  0  0  0  0  0  0  0
    3.0977   -1.1876   -1.6060 H   0  0  0  0  0  0  0  0  0  0  0  0
   -1.3855    5.3818    2.9317 H   0  0  0  0  0  0  0  0  0  0  0  0
   -0.7669    8.2841    1.4292 H   0  0  0  0  0  0  0  0  0  0  0  0
   -2.3515    7.7083    0.7864 H   0  0  0  0  0  0  0  0  0  0  0  0
   -1.9203    7.4402    2.4972 H   0  0  0  0  0  0  0  0  0  0  0  0
  1 10  1  0  0  0  0
  1 13  1  0  0  0  0
  2 22  1  0  0  0  0
  3 23  1  0  0  0  0
  4 15  1  0  0  0  0
  4 24  1  0  0  0  0
  5  6  1  0  0  0  0
  5 14  1  0  0  0  0
  5 25  1  0  0  0  0
  6 17  2  0  0  0  0
  7 16  1  0  0  0  0
  7 19  2  0  0  0  0
  8 18  2  0  0  0  0
  8 19  1  0  0  0  0
  8 20  1  0  0  0  0
  9 18  1  0  0  0  0
  9 26  1  0  0  0  0
  9 27  1  0  0  0  0
 10 11  1  0  0  0  0
 10 21  1  1  0  0  0
 10 14  1  0  0  0  0
 11  2  1  0  0  0  0
 11 12  1  0  0  0  0
 11 28  1  6  0  0  0
 12  3  1  0  0  0  0
 12 13  1  0  0  0  0
 12 29  1  6  0  0  0
 13 30  1  1  0  0  0
 13 15  1  0  0  0  0
 14 16  2  0  0  0  0
 15 31  1  0  0  0  0
 15 32  1  0  0  0  0
 16 17  1  0  0  0  0
 17 18  1  0  0  0  0
 19 33  1  0  0  0  0
 20 34  1  0  0  0  0
 20 35  1  0  0  0  0
 20 36  1  0  0  0  0
M  CHG  1   8   1
M  END
>  <DRUGBANK_ID>
DB03986

>  <SECONDARY_ACCESSION_NUMBERS>
EXPT01451

>  <COMMON_NAME>
6-methyl-formycin A

>  <SYNONYMS>
2-(7-amino-6-methyl-3H-pyrazolo[4,3-d]pyrimidin-3-yl)-5-hydroxymethyl-tetrahydro-furan-3,4-diol

$$$$
