
 OpenBabel10282417213D

 53 57  0  0  0  0  0  0  0  0999 V2000
    1.1673    0.1291    0.0983 O   0  0  0  0  0  0  0  0  0  0  0  0
    2.3969    0.1174    0.0174 C   0  0  0  0  0  0  0  0  0  0  0  0
    3.1683    0.5921    1.0651 N   0  0  0  0  0  0  0  0  0  0  0  0
    4.5388    0.6840    1.0897 C   0  0  0  0  0  0  0  0  0  0  0  0
    5.2739    1.0442    0.0488 N   0  0  0  0  0  0  0  0  0  0  0  0
    6.5442    0.8713    0.4477 N   0  0  0  0  0  0  0  0  0  0  0  0
    6.5182    0.5034    1.7989 C   0  0  0  0  0  0  0  0  0  0  0  0
    7.7807    0.2881    2.4318 C   0  0  0  0  0  0  0  0  0  0  0  0
    8.9246    0.4752    1.7428 C   0  0  0  0  0  0  0  0  0  0  0  0
    8.9195    0.8618    0.3502 C   0  0  0  0  0  0  0  0  0  0  0  0
    7.7441    1.0363   -0.2788 C   0  0  0  0  0  0  0  0  0  0  0  0
    7.8201    1.5434   -1.6520 C   0  0  0  0  0  0  0  0  0  0  0  0
    8.3707    0.8196   -2.7192 C   0  0  0  0  0  0  0  0  0  0  0  0
    8.3646    1.3439   -4.0276 C   0  0  0  0  0  0  0  0  0  0  0  0
    7.8586    2.6279   -4.2831 C   0  0  0  0  0  0  0  0  0  0  0  0
    7.4542    3.0534   -5.7388 C   0  0  0  0  0  0  0  0  0  0  0  0
    6.0133    3.0438   -6.2489 N   0  0  0  0  0  0  0  0  0  0  0  0
    5.0467    3.9699   -5.6109 C   0  0  0  0  0  0  0  0  0  0  0  0
    4.8355    3.5683   -4.1923 C   0  0  0  0  0  0  0  0  0  0  0  0
    4.4061    1.8779   -3.9464 S   0  0  0  0  0  0  0  0  0  0  0  0
    4.8982    1.4673   -2.6644 O   0  0  0  0  0  0  0  0  0  0  0  0
    2.9869    1.7691   -4.2633 O   0  0  0  0  0  0  0  0  0  0  0  0
    5.3103    0.9341   -5.1510 C   0  0  0  0  0  0  0  0  0  0  0  0
    5.3990    1.7161   -6.4290 C   0  0  0  0  0  0  0  0  0  0  0  0
    7.6285    3.4320   -3.1356 C   0  0  0  0  0  0  0  0  0  0  0  0
    7.4466    2.8587   -1.8718 C   0  0  0  0  0  0  0  0  0  0  0  0
    5.2656    0.4493    2.2264 N   0  0  0  0  0  0  0  0  0  0  0  0
    3.0679   -0.5648   -1.1371 C   0  0  0  0  0  0  0  0  0  0  0  0
    2.3950   -0.9012   -2.4437 C   0  0  0  0  0  0  0  0  0  0  0  0
    2.7454   -2.0005   -1.4842 C   0  0  0  0  0  0  0  0  0  0  0  0
    2.6784    0.8197    1.9156 H   0  0  0  0  0  0  0  0  0  0  0  0
    7.8073   -0.0209    3.4691 H   0  0  0  0  0  0  0  0  0  0  0  0
    9.8995    0.3535    2.2047 H   0  0  0  0  0  0  0  0  0  0  0  0
    9.8639    1.0456   -0.1560 H   0  0  0  0  0  0  0  0  0  0  0  0
    8.7462   -0.1871   -2.5529 H   0  0  0  0  0  0  0  0  0  0  0  0
    8.6513    0.6877   -4.8480 H   0  0  0  0  0  0  0  0  0  0  0  0
    7.8589    4.0561   -5.9112 H   0  0  0  0  0  0  0  0  0  0  0  0
    8.0045    2.4012   -6.4329 H   0  0  0  0  0  0  0  0  0  0  0  0
    4.0698    4.0124   -6.1113 H   0  0  0  0  0  0  0  0  0  0  0  0
    5.4565    4.9872   -5.6604 H   0  0  0  0  0  0  0  0  0  0  0  0
    4.3923    4.2510   -3.4679 H   0  0  0  0  0  0  0  0  0  0  0  0
    5.8225    3.6265   -3.8886 H   0  0  0  0  0  0  0  0  0  0  0  0
    6.2976    0.6959   -4.7839 H   0  0  0  0  0  0  0  0  0  0  0  0
    4.8339   -0.0422   -5.2582 H   0  0  0  0  0  0  0  0  0  0  0  0
    4.3776    1.8217   -6.8265 H   0  0  0  0  0  0  0  0  0  0  0  0
    5.9474    1.1504   -7.1885 H   0  0  0  0  0  0  0  0  0  0  0  0
    7.2908    4.4685   -3.2056 H   0  0  0  0  0  0  0  0  0  0  0  0
    6.9320    3.4206   -1.0881 H   0  0  0  0  0  0  0  0  0  0  0  0
    4.1008   -0.2954   -1.2742 H   0  0  0  0  0  0  0  0  0  0  0  0
    1.3563   -0.6437   -2.5990 H   0  0  0  0  0  0  0  0  0  0  0  0
    3.0039   -0.7943   -3.3362 H   0  0  0  0  0  0  0  0  0  0  0  0
    3.5771   -2.6489   -1.7381 H   0  0  0  0  0  0  0  0  0  0  0  0
    1.9352   -2.4988   -0.9677 H   0  0  0  0  0  0  0  0  0  0  0  0
  1  2  2  0  0  0  0
  2  3  1  0  0  0  0
  2 28  1  0  0  0  0
  3  4  1  0  0  0  0
  3 31  1  0  0  0  0
  4  5  2  0  0  0  0
  4 27  1  0  0  0  0
  5  6  1  0  0  0  0
  6  7  1  0  0  0  0
  6 11  1  0  0  0  0
  7  8  1  0  0  0  0
  7 27  2  0  0  0  0
  8  9  2  0  0  0  0
  8 32  1  0  0  0  0
  9 10  1  0  0  0  0
  9 33  1  0  0  0  0
 10 11  2  0  0  0  0
 10 34  1  0  0  0  0
 11 12  1  0  0  0  0
 12 13  2  0  0  0  0
 12 26  1  0  0  0  0
 13 14  1  0  0  0  0
 13 35  1  0  0  0  0
 14 15  2  0  0  0  0
 14 36  1  0  0  0  0
 15 16  1  0  0  0  0
 15 25  1  0  0  0  0
 16 17  1  0  0  0  0
 16 37  1  0  0  0  0
 16 38  1  0  0  0  0
 17 18  1  0  0  0  0
 17 24  1  0  0  0  0
 18 19  1  0  0  0  0
 18 39  1  0  0  0  0
 18 40  1  0  0  0  0
 19 20  1  0  0  0  0
 19 41  1  0  0  0  0
 19 42  1  0  0  0  0
 20 21  2  0  0  0  0
 20 22  2  0  0  0  0
 20 23  1  0  0  0  0
 23 24  1  0  0  0  0
 23 43  1  0  0  0  0
 23 44  1  0  0  0  0
 24 45  1  0  0  0  0
 24 46  1  0  0  0  0
 25 26  2  0  0  0  0
 25 47  1  0  0  0  0
 26 48  1  0  0  0  0
 28 29  1  0  0  0  0
 28 30  1  0  0  0  0
 28 49  1  0  0  0  0
 29 30  1  0  0  0  0
 29 50  1  0  0  0  0
 29 51  1  0  0  0  0
 30 52  1  0  0  0  0
 30 53  1  0  0  0  0
M  END
>  <DRUGBANK_ID>
DB14845

>  <COMMON_NAME>
Filgotinib

>  <CAS_NUMBER>
1206161-97-8

>  <UNII>
3XVL385Q0M

>  <SYNONYMS>
Filgotinib

$$$$
