
 OpenBabel10282417203D

 52 52  0  0  1  0  0  0  0  0999 V2000
   -1.9141   -5.9249   -0.6065 C   0  0  0  0  0  0  0  0  0  0  0  0
   -0.8273   -5.8286    0.4722 C   0  0  1  0  0  0  0  0  0  0  0  0
   -0.1385   -7.0575    1.1557 C   0  0  0  0  0  0  0  0  0  0  0  0
    1.0339   -7.2388    1.2665 O   0  0  0  0  0  0  0  0  0  0  0  0
   -1.0340   -7.8331    1.8399 O   0  0  0  0  0  0  0  0  0  0  0  0
    0.0138   -4.5932    0.2788 N   0  0  0  0  0  0  0  0  0  0  0  0
    0.2272   -3.3069    0.7574 C   0  0  0  0  0  0  0  0  0  0  0  0
    1.0920   -2.6533    0.1643 O   0  0  0  0  0  0  0  0  0  0  0  0
   -0.5162   -2.6739    1.9946 C   0  0  2  0  0  0  0  0  0  0  0  0
   -1.4347   -1.3430    1.6983 C   0  0  0  0  0  0  0  0  0  0  0  0
   -2.9101   -1.2474    2.2517 C   0  0  0  0  0  0  0  0  0  0  0  0
   -3.0358   -1.1098    3.8259 C   0  0  0  0  0  0  0  0  0  0  0  0
   -4.0722   -1.1917    4.4703 O   0  0  0  0  0  0  0  0  0  0  0  0
   -1.8339   -1.2112    4.4460 O   0  0  0  0  0  0  0  0  0  0  0  0
    0.1578   -2.6830    3.3213 N   0  0  0  0  0  0  0  0  0  0  0  0
   -0.0656   -3.3803    4.4934 C   0  0  0  0  0  0  0  0  0  0  0  0
    0.6504   -3.0755    5.4570 O   0  0  0  0  0  0  0  0  0  0  0  0
   -1.1489   -4.4772    4.7519 C   0  0  0  0  0  0  0  0  0  0  0  0
   -2.6428   -4.0860    4.7895 C   0  0  0  0  0  0  0  0  0  0  0  0
   -3.1098   -3.7221    3.3933 C   0  0  0  0  0  0  0  0  0  0  0  0
   -2.9303   -4.6639    2.2254 C   0  0  0  0  0  0  0  0  0  0  0  0
   -4.0586   -5.6528    2.0404 C   0  0  2  0  0  0  0  0  0  0  0  0
   -4.4761   -5.8033    3.4603 C   0  0  0  0  0  0  0  0  0  0  0  0
   -5.4092   -6.8745    3.8143 C   0  0  0  0  0  0  0  0  0  0  0  0
   -4.4733   -8.3008    3.3009 S   0  0  0  0  0  0  0  0  0  0  0  0
   -3.9171   -7.4118    1.5466 S   0  0  0  0  0  0  0  0  0  0  0  0
   -1.5408   -6.3286   -1.5384 H   0  0  0  0  0  0  0  0  0  0  0  0
   -2.3858   -4.9423   -0.7696 H   0  0  0  0  0  0  0  0  0  0  0  0
   -2.7592   -6.5610   -0.3650 H   0  0  0  0  0  0  0  0  0  0  0  0
   -1.4218   -5.6673    1.2984 H   0  0  0  0  0  0  0  0  0  0  0  0
   -0.5771   -8.5373    2.3459 H   0  0  0  0  0  0  0  0  0  0  0  0
    0.6462   -4.7521   -0.4880 H   0  0  0  0  0  0  0  0  0  0  0  0
   -1.1356   -3.5017    2.1116 H   0  0  0  0  0  0  0  0  0  0  0  0
   -0.9460   -0.4387    2.0724 H   0  0  0  0  0  0  0  0  0  0  0  0
   -1.5313   -1.2480    0.6085 H   0  0  0  0  0  0  0  0  0  0  0  0
   -3.5625   -0.4803    1.8275 H   0  0  0  0  0  0  0  0  0  0  0  0
   -3.4034   -2.1280    1.8145 H   0  0  0  0  0  0  0  0  0  0  0  0
   -1.8879   -1.6944    5.3046 H   0  0  0  0  0  0  0  0  0  0  0  0
    0.8688   -1.9655    3.4490 H   0  0  0  0  0  0  0  0  0  0  0  0
   -0.9470   -5.3378    4.1065 H   0  0  0  0  0  0  0  0  0  0  0  0
   -0.9656   -4.8819    5.7549 H   0  0  0  0  0  0  0  0  0  0  0  0
   -3.2653   -4.8392    5.2706 H   0  0  0  0  0  0  0  0  0  0  0  0
   -2.8528   -3.2566    5.4624 H   0  0  0  0  0  0  0  0  0  0  0  0
   -4.0850   -3.2443    3.3072 H   0  0  0  0  0  0  0  0  0  0  0  0
   -2.3516   -3.0151    3.2304 H   0  0  0  0  0  0  0  0  0  0  0  0
   -2.7558   -4.1023    1.2867 H   0  0  0  0  0  0  0  0  0  0  0  0
   -2.0256   -5.1118    2.5973 H   0  0  0  0  0  0  0  0  0  0  0  0
   -4.7575   -5.1648    1.3593 H   0  0  0  0  0  0  0  0  0  0  0  0
   -3.5393   -6.0350    3.9932 H   0  0  0  0  0  0  0  0  0  0  0  0
   -4.9469   -4.8780    3.7916 H   0  0  0  0  0  0  0  0  0  0  0  0
   -5.5454   -6.7803    4.8925 H   0  0  0  0  0  0  0  0  0  0  0  0
   -6.3161   -6.6944    3.2451 H   0  0  0  0  0  0  0  0  0  0  0  0
  1 27  1  0  0  0  0
  1 28  1  0  0  0  0
  1 29  1  0  0  0  0
  2  1  1  0  0  0  0
  2  3  1  0  0  0  0
  2  6  1  0  0  0  0
  2 30  1  1  0  0  0
  3  4  2  0  0  0  0
  3  5  1  0  0  0  0
  5 31  1  0  0  0  0
  6  7  1  0  0  0  0
  6 32  1  0  0  0  0
  7  8  2  0  0  0  0
  9 15  1  0  0  0  0
  9 33  1  1  0  0  0
  9 10  1  0  0  0  0
  9  7  1  0  0  0  0
 10 11  1  0  0  0  0
 10 34  1  0  0  0  0
 10 35  1  0  0  0  0
 11 12  1  0  0  0  0
 11 36  1  0  0  0  0
 11 37  1  0  0  0  0
 12 13  2  0  0  0  0
 12 14  1  0  0  0  0
 14 38  1  0  0  0  0
 15 16  1  0  0  0  0
 15 39  1  0  0  0  0
 16 17  2  0  0  0  0
 16 18  1  0  0  0  0
 18 19  1  0  0  0  0
 18 40  1  0  0  0  0
 18 41  1  0  0  0  0
 19 20  1  0  0  0  0
 19 42  1  0  0  0  0
 19 43  1  0  0  0  0
 20 21  1  0  0  0  0
 20 44  1  0  0  0  0
 20 45  1  0  0  0  0
 21 46  1  0  0  0  0
 21 47  1  0  0  0  0
 22 21  1  0  0  0  0
 22 23  1  0  0  0  0
 22 26  1  0  0  0  0
 22 48  1  6  0  0  0
 23 24  1  0  0  0  0
 23 49  1  0  0  0  0
 23 50  1  0  0  0  0
 24 25  1  0  0  0  0
 24 51  1  0  0  0  0
 24 52  1  0  0  0  0
 25 26  1  0  0  0  0
M  END
>  <DRUGBANK_ID>
DB12795

>  <COMMON_NAME>
CMX-2043

>  <CAS_NUMBER>
910627-26-8

>  <UNII>
83V80O4XY1

$$$$
