
 OpenBabel10282417153D

 64 67  0  0  1  0  0  0  0  0999 V2000
   -1.1138   -0.5729    1.7028 Cl  0  0  0  0  0  0  0  0  0  0  0  0
    0.0984    3.5171   -0.1554 O   0  0  0  0  0  0  0  0  0  0  0  0
   -2.9012   -3.0883   -2.1980 O   0  0  0  0  0  0  0  0  0  0  0  0
   -1.9207    2.4588    0.0460 N   0  0  0  0  0  0  0  0  0  0  0  0
    2.5523   -2.4299   -0.0983 N   0  0  0  0  0  0  0  0  0  0  0  0
   -4.2766   -1.7107   -3.2946 N   0  0  0  0  0  0  0  0  0  0  0  0
   -3.3554    0.0628   -0.5977 C   0  0  1  0  0  0  0  0  0  0  0  0
   -3.8303    1.1131   -1.5757 C   0  0  0  0  0  0  0  0  0  0  0  0
   -2.9413    2.2412   -2.0726 C   0  0  0  0  0  0  0  0  0  0  0  0
   -3.5309    0.7320    0.7472 C   0  0  0  0  0  0  0  0  0  0  0  0
   -2.6444    3.2153   -0.9785 C   0  0  0  0  0  0  0  0  0  0  0  0
   -3.9076   -1.4001   -0.7857 C   0  0  0  0  0  0  0  0  0  0  0  0
   -2.7656    1.8941    1.0310 C   0  0  0  0  0  0  0  0  0  0  0  0
    3.4546   -2.8890    0.9463 C   0  0  0  0  0  0  0  0  0  0  0  0
    2.2952   -3.4903   -1.0663 C   0  0  0  0  0  0  0  0  0  0  0  0
    4.3892   -3.7784    0.1352 C   0  0  0  0  0  0  0  0  0  0  0  0
    3.4436   -4.4812   -0.8395 C   0  0  0  0  0  0  0  0  0  0  0  0
   -4.3535    0.2068    1.7512 C   0  0  0  0  0  0  0  0  0  0  0  0
    1.8600   -1.2524   -0.1019 C   0  0  0  0  0  0  0  0  0  0  0  0
   -0.5139    2.4716    0.0890 C   0  0  0  0  0  0  0  0  0  0  0  0
   -2.9149    2.5673    2.2395 C   0  0  0  0  0  0  0  0  0  0  0  0
   -3.6353   -2.1194   -2.1384 C   0  0  0  0  0  0  0  0  0  0  0  0
    0.3023    1.1711    0.1627 C   0  0  0  0  0  0  0  0  0  0  0  0
   -4.4559    0.8579    2.9806 C   0  0  0  0  0  0  0  0  0  0  0  0
   -3.7648    2.0482    3.2115 C   0  0  0  0  0  0  0  0  0  0  0  0
    0.4810   -1.2665   -0.1409 C   0  0  0  0  0  0  0  0  0  0  0  0
    2.4633    0.0074   -0.0003 C   0  0  0  0  0  0  0  0  0  0  0  0
   -0.2183   -0.1209    0.2636 C   0  0  0  0  0  0  0  0  0  0  0  0
    1.6990    1.2081    0.0184 C   0  0  0  0  0  0  0  0  0  0  0  0
   -5.1477   -0.5647   -3.4677 C   0  0  0  0  0  0  0  0  0  0  0  0
   -4.4993    0.5217   -4.3727 C   0  0  0  0  0  0  0  0  0  0  0  0
   -6.5614   -0.8151   -3.8918 C   0  0  0  0  0  0  0  0  0  0  0  0
   -3.9622   -2.2090   -4.1205 H   0  0  0  0  0  0  0  0  0  0  0  0
   -2.3046   -0.0625   -0.8479 H   0  0  0  0  0  0  0  0  0  0  0  0
   -4.8632    1.4463   -1.4015 H   0  0  0  0  0  0  0  0  0  0  0  0
   -3.7105    0.5136   -2.4220 H   0  0  0  0  0  0  0  0  0  0  0  0
   -2.0139    1.8023   -2.4673 H   0  0  0  0  0  0  0  0  0  0  0  0
   -3.4304    2.7403   -2.9184 H   0  0  0  0  0  0  0  0  0  0  0  0
   -2.0601    4.0438   -1.3889 H   0  0  0  0  0  0  0  0  0  0  0  0
   -3.5928    3.6181   -0.5946 H   0  0  0  0  0  0  0  0  0  0  0  0
   -3.3893   -2.0322   -0.0431 H   0  0  0  0  0  0  0  0  0  0  0  0
   -4.9723   -1.5052   -0.5541 H   0  0  0  0  0  0  0  0  0  0  0  0
    2.9185   -3.4974    1.6908 H   0  0  0  0  0  0  0  0  0  0  0  0
    3.9853   -2.0895    1.4691 H   0  0  0  0  0  0  0  0  0  0  0  0
    2.3252   -3.0821   -2.0806 H   0  0  0  0  0  0  0  0  0  0  0  0
    1.3303   -3.9887   -0.9106 H   0  0  0  0  0  0  0  0  0  0  0  0
    5.0925   -3.1475   -0.4217 H   0  0  0  0  0  0  0  0  0  0  0  0
    4.9626   -4.4808    0.7455 H   0  0  0  0  0  0  0  0  0  0  0  0
    3.9410   -4.7427   -1.7784 H   0  0  0  0  0  0  0  0  0  0  0  0
    3.0602   -5.4080   -0.3970 H   0  0  0  0  0  0  0  0  0  0  0  0
   -4.8777   -0.7356    1.6191 H   0  0  0  0  0  0  0  0  0  0  0  0
   -2.3892    3.5020    2.4124 H   0  0  0  0  0  0  0  0  0  0  0  0
   -5.0645    0.4243    3.7696 H   0  0  0  0  0  0  0  0  0  0  0  0
   -3.8737    2.5631    4.1608 H   0  0  0  0  0  0  0  0  0  0  0  0
   -0.0355   -2.2253   -0.1214 H   0  0  0  0  0  0  0  0  0  0  0  0
    3.5491    0.0675    0.0289 H   0  0  0  0  0  0  0  0  0  0  0  0
    2.2250    2.1614   -0.0179 H   0  0  0  0  0  0  0  0  0  0  0  0
   -5.3633   -0.2335   -2.4536 H   0  0  0  0  0  0  0  0  0  0  0  0
   -4.5594    0.2808   -5.4303 H   0  0  0  0  0  0  0  0  0  0  0  0
   -4.9859    1.4900   -4.1906 H   0  0  0  0  0  0  0  0  0  0  0  0
   -3.4187    0.6642   -4.2060 H   0  0  0  0  0  0  0  0  0  0  0  0
   -7.0176   -1.5708   -3.2488 H   0  0  0  0  0  0  0  0  0  0  0  0
   -7.1141    0.1246   -3.7450 H   0  0  0  0  0  0  0  0  0  0  0  0
   -6.6057   -1.1051   -4.9366 H   0  0  0  0  0  0  0  0  0  0  0  0
  1 28  1  0  0  0  0
  2 20  2  0  0  0  0
  3 22  2  0  0  0  0
  4 11  1  0  0  0  0
  4 13  1  0  0  0  0
  4 20  1  0  0  0  0
  5 14  1  0  0  0  0
  5 15  1  0  0  0  0
  5 19  1  0  0  0  0
  6 22  1  0  0  0  0
  6 30  1  0  0  0  0
  6 33  1  0  0  0  0
  7  8  1  0  0  0  0
  7 10  1  0  0  0  0
  7 12  1  0  0  0  0
  7 34  1  6  0  0  0
  8  9  1  0  0  0  0
  8 35  1  0  0  0  0
  8 36  1  0  0  0  0
  9 11  1  0  0  0  0
  9 37  1  0  0  0  0
  9 38  1  0  0  0  0
 10 13  1  0  0  0  0
 10 18  2  0  0  0  0
 11 39  1  0  0  0  0
 11 40  1  0  0  0  0
 12 22  1  0  0  0  0
 12 41  1  0  0  0  0
 12 42  1  0  0  0  0
 13 21  2  0  0  0  0
 14 16  1  0  0  0  0
 14 43  1  0  0  0  0
 14 44  1  0  0  0  0
 15 17  1  0  0  0  0
 15 45  1  0  0  0  0
 15 46  1  0  0  0  0
 16 17  1  0  0  0  0
 16 47  1  0  0  0  0
 16 48  1  0  0  0  0
 17 49  1  0  0  0  0
 17 50  1  0  0  0  0
 18 24  1  0  0  0  0
 18 51  1  0  0  0  0
 19 26  2  0  0  0  0
 19 27  1  0  0  0  0
 20 23  1  0  0  0  0
 21 25  1  0  0  0  0
 21 52  1  0  0  0  0
 23 28  2  0  0  0  0
 23 29  1  0  0  0  0
 24 25  2  0  0  0  0
 24 53  1  0  0  0  0
 25 54  1  0  0  0  0
 26 28  1  0  0  0  0
 26 55  1  0  0  0  0
 27 29  2  0  0  0  0
 27 56  1  0  0  0  0
 29 57  1  0  0  0  0
 30 31  1  0  0  0  0
 30 32  1  0  0  0  0
 30 58  1  0  0  0  0
 31 59  1  0  0  0  0
 31 60  1  0  0  0  0
 31 61  1  0  0  0  0
 32 62  1  0  0  0  0
 32 63  1  0  0  0  0
 32 64  1  0  0  0  0
M  END
>  <DRUGBANK_ID>
DB05838

>  <COMMON_NAME>
OPC-51803

>  <UNII>
1IGV6WTK9I

$$$$
