
 OpenBabel10282417193D

 54 59  0  0  1  0  0  0  0  0999 V2000
    0.7600   -0.1579    0.2840 C   0  0  0  0  0  0  0  0  0  0  0  0
    0.4231   -1.6514   -0.0133 C   0  0  0  0  0  0  0  0  0  0  0  0
    1.2577   -2.7468    0.6584 C   0  0  2  0  0  0  0  0  0  0  0  0
    2.4305   -3.6795   -0.1898 C   0  0  0  0  0  0  0  0  0  0  0  0
    2.9680   -3.6195   -1.6051 C   0  0  0  0  0  0  0  0  0  0  0  0
    3.4223   -2.4225   -1.9541 C   0  0  0  0  0  0  0  0  0  0  0  0
    3.5792   -1.6121   -0.8560 N   0  0  0  0  0  0  0  0  0  0  0  0
    3.7728   -2.0894    0.4517 C   0  0  0  0  0  0  0  0  0  0  0  0
    3.9074   -1.3282    1.4197 O   0  0  0  0  0  0  0  0  0  0  0  0
    3.4537   -3.6235    0.6642 C   0  0  0  0  0  0  0  0  0  0  0  0
    3.0134   -4.3258    1.9624 C   0  0  0  0  0  0  0  0  0  0  0  0
    1.5599   -4.6989    2.0087 O   0  0  0  0  0  0  0  0  0  0  0  0
    0.5937   -3.8585    1.4557 C   0  0  0  0  0  0  0  0  0  0  0  0
   -0.5869   -3.9500    1.6821 O   0  0  0  0  0  0  0  0  0  0  0  0
    3.3990   -0.2633   -1.2723 C   0  0  0  0  0  0  0  0  0  0  0  0
    3.6204   -0.3029   -2.7185 C   0  0  0  0  0  0  0  0  0  0  0  0
    3.7662   -1.6164   -3.1553 C   0  0  0  0  0  0  0  0  0  0  0  0
    3.9666   -1.9413   -4.4338 N   0  0  0  0  0  0  0  0  0  0  0  0
    4.0439   -0.8825   -5.2933 C   0  0  0  0  0  0  0  0  0  0  0  0
    4.3749   -1.0984   -6.6167 C   0  0  0  0  0  0  0  0  0  0  0  0
    4.4266   -0.0398   -7.5247 C   0  0  0  0  0  0  0  0  0  0  0  0
    4.1647    1.2918   -7.1545 C   0  0  0  0  0  0  0  0  0  0  0  0
    3.8586    1.5676   -5.8146 C   0  0  0  0  0  0  0  0  0  0  0  0
    3.7888    0.4817   -4.9043 C   0  0  0  0  0  0  0  0  0  0  0  0
    3.4918    0.7584   -3.5665 C   0  0  0  0  0  0  0  0  0  0  0  0
    3.0511    2.1526   -3.1449 C   0  0  2  0  0  0  0  0  0  0  0  0
    4.0708    3.1007   -3.7998 C   0  0  0  0  0  0  0  0  0  0  0  0
    3.6148    2.9752   -5.2684 C   0  0  0  0  0  0  0  0  0  0  0  0
    2.7412    2.5191   -1.7749 N   0  0  0  0  0  0  0  0  0  0  0  0
    4.2290    2.3383   -8.2278 C   0  0  0  0  0  0  0  0  0  0  0  0
    4.7417   -0.3158   -8.8005 F   0  0  0  0  0  0  0  0  0  0  0  0
    1.5743   -2.0838    1.9800 O   0  0  0  0  0  0  0  0  0  0  0  0
    0.2415    0.2948    1.1328 H   0  0  0  0  0  0  0  0  0  0  0  0
    0.4637    0.4293   -0.5970 H   0  0  0  0  0  0  0  0  0  0  0  0
    1.8127    0.0395    0.5055 H   0  0  0  0  0  0  0  0  0  0  0  0
   -0.6246   -1.7486    0.2802 H   0  0  0  0  0  0  0  0  0  0  0  0
    0.4901   -1.8144   -1.0878 H   0  0  0  0  0  0  0  0  0  0  0  0
    3.2605   -4.4775   -2.2189 H   0  0  0  0  0  0  0  0  0  0  0  0
    3.2465   -3.8012    2.8894 H   0  0  0  0  0  0  0  0  0  0  0  0
    3.5113   -5.3014    1.9935 H   0  0  0  0  0  0  0  0  0  0  0  0
    2.3412   -0.0153   -1.2792 H   0  0  0  0  0  0  0  0  0  0  0  0
    4.0296    0.3876   -0.6879 H   0  0  0  0  0  0  0  0  0  0  0  0
    4.6038   -2.1030   -6.9614 H   0  0  0  0  0  0  0  0  0  0  0  0
    2.0532    2.2696   -3.5950 H   0  0  0  0  0  0  0  0  0  0  0  0
    3.9885    4.1245   -3.4175 H   0  0  0  0  0  0  0  0  0  0  0  0
    5.0963    2.7629   -3.5585 H   0  0  0  0  0  0  0  0  0  0  0  0
    3.6335    3.7659   -6.0173 H   0  0  0  0  0  0  0  0  0  0  0  0
    2.5470    3.1246   -5.1220 H   0  0  0  0  0  0  0  0  0  0  0  0
    3.1887    1.9553   -1.0763 H   0  0  0  0  0  0  0  0  0  0  0  0
    1.7343    2.4293   -1.6204 H   0  0  0  0  0  0  0  0  0  0  0  0
    5.2370    2.3892   -8.6493 H   0  0  0  0  0  0  0  0  0  0  0  0
    3.5101    2.1030   -9.0189 H   0  0  0  0  0  0  0  0  0  0  0  0
    3.9813    3.3376   -7.8734 H   0  0  0  0  0  0  0  0  0  0  0  0
    2.5166   -1.9721    2.1991 H   0  0  0  0  0  0  0  0  0  0  0  0
  1  2  1  0  0  0  0
  1 33  1  0  0  0  0
  1 34  1  0  0  0  0
  1 35  1  0  0  0  0
  2 36  1  0  0  0  0
  2 37  1  0  0  0  0
  3  2  1  0  0  0  0
  3  4  1  0  0  0  0
  3 13  1  0  0  0  0
  3 32  1  1  0  0  0
  4  5  1  0  0  0  0
  4 10  2  0  0  0  0
  5  6  2  0  0  0  0
  5 38  1  0  0  0  0
  6  7  1  0  0  0  0
  6 17  1  0  0  0  0
  7  8  1  0  0  0  0
  7 15  1  0  0  0  0
  8  9  2  0  0  0  0
  8 10  1  0  0  0  0
 10 11  1  0  0  0  0
 11 12  1  0  0  0  0
 11 39  1  0  0  0  0
 11 40  1  0  0  0  0
 12 13  1  0  0  0  0
 13 14  2  0  0  0  0
 15 16  1  0  0  0  0
 15 41  1  0  0  0  0
 15 42  1  0  0  0  0
 16 17  2  0  0  0  0
 16 25  1  0  0  0  0
 17 18  1  0  0  0  0
 18 19  2  0  0  0  0
 19 20  1  0  0  0  0
 19 24  1  0  0  0  0
 20 21  2  0  0  0  0
 20 43  1  0  0  0  0
 21 22  1  0  0  0  0
 21 31  1  0  0  0  0
 22 23  2  0  0  0  0
 22 30  1  0  0  0  0
 23 24  1  0  0  0  0
 23 28  1  0  0  0  0
 24 25  2  0  0  0  0
 25 26  1  0  0  0  0
 26 27  1  0  0  0  0
 26 44  1  6  0  0  0
 26 29  1  0  0  0  0
 27 28  1  0  0  0  0
 27 45  1  0  0  0  0
 27 46  1  0  0  0  0
 28 47  1  0  0  0  0
 28 48  1  0  0  0  0
 29 49  1  0  0  0  0
 29 50  1  0  0  0  0
 30 51  1  0  0  0  0
 30 52  1  0  0  0  0
 30 53  1  0  0  0  0
 32 54  1  0  0  0  0
M  END
>  <DRUGBANK_ID>
DB12185

>  <COMMON_NAME>
Exatecan

>  <CAS_NUMBER>
171335-80-1

>  <UNII>
OC71PP0F89

>  <SYNONYMS>
Exatecan

$$$$
