
 OpenBabel10282417243D

 66 70  0  0  0  0  0  0  0  0999 V2000
    0.8587   -0.4131   -0.7414 C   0  0  0  0  0  0  0  0  0  0  0  0
    0.1519   -1.3394    0.6115 C   0  0  0  0  0  0  0  0  0  0  0  0
    1.0791   -2.1220    1.5505 C   0  0  0  0  0  0  0  0  0  0  0  0
   -1.1088   -0.9443    1.4248 N   0  0  0  0  0  0  0  0  0  0  0  0
   -1.6880   -0.6077    2.8530 C   0  0  0  0  0  0  0  0  0  0  0  0
   -1.4413    0.6622    3.2093 N   0  0  0  0  0  0  0  0  0  0  0  0
   -0.8011    0.9248    2.1002 C   0  0  0  0  0  0  0  0  0  0  0  0
   -1.6389    0.2403    0.9980 C   0  0  0  0  0  0  0  0  0  0  0  0
   -3.0857   -0.0905    0.7137 C   0  0  0  0  0  0  0  0  0  0  0  0
   -3.6013   -1.3248    0.6305 N   0  0  0  0  0  0  0  0  0  0  0  0
   -4.9728   -1.1759    0.6915 C   0  0  0  0  0  0  0  0  0  0  0  0
   -5.3092    0.1310    0.9552 C   0  0  0  0  0  0  0  0  0  0  0  0
   -4.0920    0.7857    0.9366 N   0  0  0  0  0  0  0  0  0  0  0  0
   -6.5241    0.9217    1.1631 C   0  0  0  0  0  0  0  0  0  0  0  0
   -6.4750    2.0998    1.2741 O   0  0  0  0  0  0  0  0  0  0  0  0
   -7.7814    0.2991    1.1228 N   0  0  0  0  0  0  0  0  0  0  0  0
   -8.0803   -1.0612    1.1500 C   0  0  0  0  0  0  0  0  0  0  0  0
   -7.4579   -1.8896    2.0753 C   0  0  0  0  0  0  0  0  0  0  0  0
   -7.5583   -3.2668    1.9345 C   0  0  0  0  0  0  0  0  0  0  0  0
   -8.3960   -3.8655    0.9808 C   0  0  0  0  0  0  0  0  0  0  0  0
   -9.1403   -3.0133    0.1631 C   0  0  0  0  0  0  0  0  0  0  0  0
   -8.9544   -1.6156    0.2140 C   0  0  0  0  0  0  0  0  0  0  0  0
   -8.4284   -5.2438    0.9515 N   0  0  0  0  0  0  0  0  0  0  0  0
   -8.8931   -5.8621    2.2040 C   0  0  0  0  0  0  0  0  0  0  0  0
   -8.1787   -7.2034    2.4100 C   0  0  0  0  0  0  0  0  0  0  0  0
   -8.4583   -8.1197    1.2856 N   0  0  0  0  0  0  0  0  0  0  0  0
   -7.8580   -9.4228    1.5388 C   0  0  0  0  0  0  0  0  0  0  0  0
   -7.9292   -7.4942    0.0466 C   0  0  0  0  0  0  0  0  0  0  0  0
   -8.5857   -6.0994   -0.2381 C   0  0  0  0  0  0  0  0  0  0  0  0
    0.7238    0.8512    2.4136 C   0  0  0  0  0  0  0  0  0  0  0  0
    1.5004    1.1439    1.3414 C   0  0  0  0  0  0  0  0  0  0  0  0
    2.8511    0.8514    1.2165 C   0  0  0  0  0  0  0  0  0  0  0  0
    3.5390    0.5563    2.3616 C   0  0  0  0  0  0  0  0  0  0  0  0
    4.8715    0.4444    2.2989 F   0  0  0  0  0  0  0  0  0  0  0  0
    2.8435    0.4236    3.5634 C   0  0  0  0  0  0  0  0  0  0  0  0
    1.4198    0.4471    3.5772 C   0  0  0  0  0  0  0  0  0  0  0  0
    0.9125    0.6867   -0.8132 H   0  0  0  0  0  0  0  0  0  0  0  0
    0.3262   -0.5102   -1.6969 H   0  0  0  0  0  0  0  0  0  0  0  0
    1.9170   -0.6889   -0.8942 H   0  0  0  0  0  0  0  0  0  0  0  0
   -0.2448   -2.1244   -0.0499 H   0  0  0  0  0  0  0  0  0  0  0  0
    0.8981   -1.8340    2.5874 H   0  0  0  0  0  0  0  0  0  0  0  0
    0.8012   -3.1820    1.5430 H   0  0  0  0  0  0  0  0  0  0  0  0
    2.1495   -2.0384    1.3493 H   0  0  0  0  0  0  0  0  0  0  0  0
   -2.7754   -0.7502    3.0444 H   0  0  0  0  0  0  0  0  0  0  0  0
   -5.6244   -2.0389    0.5536 H   0  0  0  0  0  0  0  0  0  0  0  0
   -3.9262    1.7413    1.1716 H   0  0  0  0  0  0  0  0  0  0  0  0
   -8.5261    0.9649    0.9510 H   0  0  0  0  0  0  0  0  0  0  0  0
   -6.7779   -1.4923    2.8239 H   0  0  0  0  0  0  0  0  0  0  0  0
   -6.9111   -3.8918    2.5474 H   0  0  0  0  0  0  0  0  0  0  0  0
   -9.8883   -3.4202   -0.5107 H   0  0  0  0  0  0  0  0  0  0  0  0
   -9.4295   -0.9892   -0.5377 H   0  0  0  0  0  0  0  0  0  0  0  0
   -9.9796   -6.0027    2.1600 H   0  0  0  0  0  0  0  0  0  0  0  0
   -8.6869   -5.2360    3.0789 H   0  0  0  0  0  0  0  0  0  0  0  0
   -8.5224   -7.6333    3.3561 H   0  0  0  0  0  0  0  0  0  0  0  0
   -7.0961   -7.0280    2.4983 H   0  0  0  0  0  0  0  0  0  0  0  0
   -8.0878  -10.1153    0.7232 H   0  0  0  0  0  0  0  0  0  0  0  0
   -6.7713   -9.3654    1.6592 H   0  0  0  0  0  0  0  0  0  0  0  0
   -8.2829   -9.8600    2.4506 H   0  0  0  0  0  0  0  0  0  0  0  0
   -6.8410   -7.3609    0.1378 H   0  0  0  0  0  0  0  0  0  0  0  0
   -8.1017   -8.1596   -0.8075 H   0  0  0  0  0  0  0  0  0  0  0  0
   -9.6460   -6.2449   -0.4778 H   0  0  0  0  0  0  0  0  0  0  0  0
   -8.0912   -5.6623   -1.1142 H   0  0  0  0  0  0  0  0  0  0  0  0
    0.8611    1.5078    0.5727 H   0  0  0  0  0  0  0  0  0  0  0  0
    3.3350    0.8755    0.2465 H   0  0  0  0  0  0  0  0  0  0  0  0
    3.4230    0.3210    4.4758 H   0  0  0  0  0  0  0  0  0  0  0  0
    0.9056    0.1296    4.4872 H   0  0  0  0  0  0  0  0  0  0  0  0
  1  2  1  0  0  0  0
  1 37  1  0  0  0  0
  1 38  1  0  0  0  0
  1 39  1  0  0  0  0
  2  3  1  0  0  0  0
  2  4  1  0  0  0  0
  2 40  1  0  0  0  0
  3 41  1  0  0  0  0
  3 42  1  0  0  0  0
  3 43  1  0  0  0  0
  4  5  1  0  0  0  0
  4  8  1  0  0  0  0
  5  6  2  0  0  0  0
  5 44  1  0  0  0  0
  6  7  1  0  0  0  0
  7  8  2  0  0  0  0
  7 30  1  0  0  0  0
  8  9  1  0  0  0  0
  9 10  2  0  0  0  0
  9 13  1  0  0  0  0
 10 11  1  0  0  0  0
 11 12  2  0  0  0  0
 11 45  1  0  0  0  0
 12 13  1  0  0  0  0
 12 14  1  0  0  0  0
 13 46  1  0  0  0  0
 14 15  2  0  0  0  0
 14 16  1  0  0  0  0
 16 17  1  0  0  0  0
 16 47  1  0  0  0  0
 17 18  2  0  0  0  0
 17 22  1  0  0  0  0
 18 19  1  0  0  0  0
 18 48  1  0  0  0  0
 19 20  2  0  0  0  0
 19 49  1  0  0  0  0
 20 21  1  0  0  0  0
 20 23  1  0  0  0  0
 21 22  2  0  0  0  0
 21 50  1  0  0  0  0
 22 51  1  0  0  0  0
 23 24  1  0  0  0  0
 23 29  1  0  0  0  0
 24 25  1  0  0  0  0
 24 52  1  0  0  0  0
 24 53  1  0  0  0  0
 25 26  1  0  0  0  0
 25 54  1  0  0  0  0
 25 55  1  0  0  0  0
 26 27  1  0  0  0  0
 26 28  1  0  0  0  0
 27 56  1  0  0  0  0
 27 57  1  0  0  0  0
 27 58  1  0  0  0  0
 28 29  1  0  0  0  0
 28 59  1  0  0  0  0
 28 60  1  0  0  0  0
 29 61  1  0  0  0  0
 29 62  1  0  0  0  0
 30 31  2  0  0  0  0
 30 36  1  0  0  0  0
 31 32  1  0  0  0  0
 31 63  1  0  0  0  0
 32 33  2  0  0  0  0
 32 64  1  0  0  0  0
 33 34  1  0  0  0  0
 33 35  1  0  0  0  0
 35 36  2  0  0  0  0
 35 65  1  0  0  0  0
 36 66  1  0  0  0  0
M  END
>  <DRUGBANK_ID>
DB18083

>  <COMMON_NAME>
INS018_055

>  <SYNONYMS>
5’-(4-fluorophenyl)-3’-isopropyl-N-(4-(4-methylpiperazin-1-yl)phenyl)-1H,3’H-[2,4’-biimidazole]-4-carboxamide

$$$$
