BJI
 OpenBabel10282417123D

 32 32  0  0  0  0  0  0  0  0999 V2000
    1.0073   -2.0558    1.2044 C   0  0  0  0  0  0  0  0  0  0  0  0
    0.5007   -1.3439   -0.0393 C   0  0  2  0  0  0  0  0  0  0  0  0
    0.9907    0.0420   -0.0445 N   0  0  0  0  0  0  0  0  0  0  0  0
    2.1556   -0.4108   -0.8182 C   0  0  0  0  0  0  0  0  0  0  0  0
    3.4329    0.4131   -0.8213 C   0  0  0  0  0  0  0  0  0  0  0  0
    2.0948   -1.4913   -1.4847 O   0  0  0  0  0  0  0  0  0  0  0  0
   -2.6713    0.9256    2.9742 C   0  0  0  0  0  0  0  0  0  0  0  0
   -3.4422    1.3720    4.0801 O   0  0  0  0  0  0  0  0  0  0  0  0
   -2.8558    1.4344    1.8243 O   0  0  0  0  0  0  0  0  0  0  0  0
   -1.0993   -1.3439   -0.0393 B   0  0  0  0  0  0  0  0  0  0  0  0
   -1.8493   -1.9976   -1.1619 O   0  0  0  0  0  0  0  0  0  0  0  0
    0.4258   -1.9565    3.5607 C   0  0  0  0  0  0  0  0  0  0  0  0
    0.1852   -1.4789    2.3453 C   0  0  0  0  0  0  0  0  0  0  0  0
   -0.2653   -1.4888    4.6663 C   0  0  0  0  0  0  0  0  0  0  0  0
   -0.8630   -0.6177    2.1270 C   0  0  0  0  0  0  0  0  0  0  0  0
   -1.4045   -0.7136    4.3445 C   0  0  0  0  0  0  0  0  0  0  0  0
   -1.6255   -0.1606    3.1658 C   0  0  0  0  0  0  0  0  0  0  0  0
   -1.8493   -0.6902    1.0833 O   0  0  0  0  0  0  0  0  0  0  0  0
    0.8573   -1.8515   -0.9111 H   0  0  0  0  0  0  0  0  0  0  0  0
    2.0487   -1.9416    1.4219 H   0  0  0  0  0  0  0  0  0  0  0  0
    0.7787   -3.0948    1.0899 H   0  0  0  0  0  0  0  0  0  0  0  0
    1.0395    0.9092    0.4904 H   0  0  0  0  0  0  0  0  0  0  0  0
    4.2379   -0.1755   -0.4335 H   0  0  0  0  0  0  0  0  0  0  0  0
    3.6610    0.7138   -1.8225 H   0  0  0  0  0  0  0  0  0  0  0  0
    3.2989    1.2810   -0.2100 H   0  0  0  0  0  0  0  0  0  0  0  0
   -3.2971    0.9716    4.9849 H   0  0  0  0  0  0  0  0  0  0  0  0
   -1.1995   -2.3800   -1.8188 H   0  0  0  0  0  0  0  0  0  0  0  0
    1.1675   -2.7170    3.6885 H   0  0  0  0  0  0  0  0  0  0  0  0
    0.0350   -1.6950    5.6723 H   0  0  0  0  0  0  0  0  0  0  0  0
   -1.0857   -0.3003    1.1298 H   0  0  0  0  0  0  0  0  0  0  0  0
   -2.1378   -0.5651    5.1094 H   0  0  0  0  0  0  0  0  0  0  0  0
   -2.8325   -0.7821    0.9253 H   0  0  0  0  0  0  0  0  0  0  0  0
  1 13  1  0  0  0  0
  1 20  1  0  0  0  0
  1 21  1  0  0  0  0
  2 10  1  0  0  0  0
  2 19  1  6  0  0  0
  2  3  1  0  0  0  0
  2  1  1  0  0  0  0
  3  4  1  0  0  0  0
  3 22  1  0  0  0  0
  4  5  1  0  0  0  0
  4  6  2  0  0  0  0
  5 23  1  0  0  0  0
  5 24  1  0  0  0  0
  5 25  1  0  0  0  0
  7  8  1  0  0  0  0
  7  9  2  0  0  0  0
  7 17  1  0  0  0  0
  8 26  1  0  0  0  0
 10 11  1  0  0  0  0
 10 18  1  0  0  0  0
 11 27  1  0  0  0  0
 12 13  2  0  0  0  0
 12 14  1  0  0  0  0
 12 28  1  0  0  0  0
 13 15  1  0  0  0  0
 14 16  2  0  0  0  0
 14 29  1  0  0  0  0
 15 17  2  0  0  0  0
 15 30  1  0  0  0  0
 16 17  1  0  0  0  0
 16 31  1  0  0  0  0
 18 32  1  0  0  0  0
M  END
>  <DRUGBANK_ID>
DB02614

>  <SECONDARY_ACCESSION_NUMBERS>
EXPT00712

>  <COMMON_NAME>
1(R)-1-Acetamido-2-(3-Carboxyphenyl)Ethyl Boronic Acid

$$$$
