
 OpenBabel10282417113D

 83 87  0  0  0  0  0  0  0  0999 V2000
   -0.7234   -2.3482   -3.4668 C   0  0  2  0  0  0  0  0  0  0  0  0
   -0.6173   -1.2436   -2.2943 C   0  0  2  0  0  0  0  0  0  0  0  0
   -1.0588    0.3257   -3.0048 C   0  0  2  0  0  0  0  0  0  0  0  0
    1.7377    2.3886   -6.9240 N   0  0  0  0  0  0  0  0  0  0  0  0
   -0.4581    0.3010   -4.3041 C   0  0  1  0  0  0  0  0  0  0  0  0
    0.4336   -3.1780   -5.1143 C   0  0  2  0  0  0  0  0  0  0  0  0
    1.4541   -0.9385   -2.9697 C   0  0  1  0  0  0  0  0  0  0  0  0
    0.7425   -2.7973   -3.6664 C   0  0  1  0  0  0  0  0  0  0  0  0
    2.9756    2.3235   -6.0906 C   0  0  2  0  0  0  0  0  0  0  0  0
    0.9585    2.6484   -5.8502 C   0  0  1  0  0  0  0  0  0  0  0  0
    0.9042    0.2205   -3.7196 C   0  0  0  0  0  0  0  0  0  0  0  0
    0.7525   -2.1396   -1.4220 C   0  0  0  0  0  0  0  0  0  0  0  0
   -0.4141   -3.6537   -2.0417 C   0  0  0  0  0  0  0  0  0  0  0  0
   -2.3578   -2.1441   -3.7621 C   0  0  0  0  0  0  0  0  0  0  0  0
   -0.8452   -0.6795   -5.1473 O   0  0  0  0  0  0  0  0  0  0  0  0
    1.3857    0.9039   -5.9282 C   0  0  0  0  0  0  0  0  0  0  0  0
    3.6892    1.0895   -6.1748 C   0  0  0  0  0  0  0  0  0  0  0  0
    0.0308   -1.5208   -5.7120 C   0  0  0  0  0  0  0  0  0  0  0  0
   -2.5216    0.4502   -3.3664 C   0  0  1  0  0  0  0  0  0  0  0  0
    2.8459    0.3856   -5.3075 C   0  0  2  0  0  0  0  0  0  0  0  0
    1.2956    0.0237   -1.2527 C   0  0  0  0  0  0  0  0  0  0  0  0
    0.9654   -3.5169   -1.4447 C   0  0  0  0  0  0  0  0  0  0  0  0
    2.0912    4.1167   -6.3135 C   0  0  0  0  0  0  0  0  0  0  0  0
    3.4861    3.3379   -6.8682 C   0  0  0  0  0  0  0  0  0  0  0  0
    3.5112   -1.2472   -5.7066 S   0  0  0  0  0  0  0  0  0  0  0  0
   -3.0541   -0.7888   -4.0653 C   0  0  0  0  0  0  0  0  0  0  0  0
    1.9985   -1.9605   -1.3857 O   0  0  0  0  0  0  0  0  0  0  0  0
   -0.7814   -2.2528   -6.4440 O   0  0  0  0  0  0  0  0  0  0  0  0
    1.6780   -0.4578    0.0434 C   0  0  0  0  0  0  0  0  0  0  0  0
    1.9605   -1.9349   -5.1426 C   0  0  0  0  0  0  0  0  0  0  0  0
   -0.5954   -4.0071   -4.2785 O   0  0  0  0  0  0  0  0  0  0  0  0
   -0.5339    1.7847   -2.5046 C   0  0  0  0  0  0  0  0  0  0  0  0
    1.1492    1.8875   -8.1230 C   0  0  0  0  0  0  0  0  0  0  0  0
    3.3497   -1.1263   -2.8545 C   0  0  0  0  0  0  0  0  0  0  0  0
    1.2171   -2.4996   -6.8623 C   0  0  0  0  0  0  0  0  0  0  0  0
   -3.1900    0.6995   -2.0580 C   0  0  0  0  0  0  0  0  0  0  0  0
   -1.2795   -1.1960   -1.4231 H   0  0  0  0  0  0  0  0  0  0  0  0
   -0.7576    1.1179   -4.9647 H   0  0  0  0  0  0  0  0  0  0  0  0
    1.0371   -4.1707   -5.1741 H   0  0  0  0  0  0  0  0  0  0  0  0
    1.3465   -3.6444   -3.4705 H   0  0  0  0  0  0  0  0  0  0  0  0
    2.8602    2.6827   -4.9906 H   0  0  0  0  0  0  0  0  0  0  0  0
   -0.1402    2.7269   -6.0116 H   0  0  0  0  0  0  0  0  0  0  0  0
    1.3803   -0.3398   -4.3930 H   0  0  0  0  0  0  0  0  0  0  0  0
    1.3436    1.2222   -3.7064 H   0  0  0  0  0  0  0  0  0  0  0  0
   -0.3643   -4.6296   -2.4956 H   0  0  0  0  0  0  0  0  0  0  0  0
   -1.1268   -3.6197   -1.2308 H   0  0  0  0  0  0  0  0  0  0  0  0
   -2.8994   -2.5905   -2.9226 H   0  0  0  0  0  0  0  0  0  0  0  0
   -2.5674   -2.6744   -4.6797 H   0  0  0  0  0  0  0  0  0  0  0  0
    0.9075    0.4231   -6.7971 H   0  0  0  0  0  0  0  0  0  0  0  0
    0.7800    0.1295   -5.7219 H   0  0  0  0  0  0  0  0  0  0  0  0
    3.4700    0.6065   -7.1207 H   0  0  0  0  0  0  0  0  0  0  0  0
    4.6360    1.0927   -5.6669 H   0  0  0  0  0  0  0  0  0  0  0  0
   -2.6732    1.3165   -4.0518 H   0  0  0  0  0  0  0  0  0  0  0  0
    3.0315    0.6909   -4.2351 H   0  0  0  0  0  0  0  0  0  0  0  0
    0.2624    0.3810   -1.1019 H   0  0  0  0  0  0  0  0  0  0  0  0
    1.9166   -3.5825   -2.0932 H   0  0  0  0  0  0  0  0  0  0  0  0
    1.5319   -3.6772   -0.5220 H   0  0  0  0  0  0  0  0  0  0  0  0
    2.7232    4.7958   -6.9490 H   0  0  0  0  0  0  0  0  0  0  0  0
    1.4032    4.5381   -7.1012 H   0  0  0  0  0  0  0  0  0  0  0  0
    4.4812    3.4611   -6.4451 H   0  0  0  0  0  0  0  0  0  0  0  0
    3.5352    2.9195   -7.8961 H   0  0  0  0  0  0  0  0  0  0  0  0
   -4.1235   -0.8817   -3.8689 H   0  0  0  0  0  0  0  0  0  0  0  0
   -3.0191   -0.6366   -5.1599 H   0  0  0  0  0  0  0  0  0  0  0  0
    0.8866   -1.0474    0.6059 H   0  0  0  0  0  0  0  0  0  0  0  0
    2.5268   -1.2222    0.1530 H   0  0  0  0  0  0  0  0  0  0  0  0
    2.2636   -2.0175   -4.1244 H   0  0  0  0  0  0  0  0  0  0  0  0
    2.3944   -3.0645   -4.9738 H   0  0  0  0  0  0  0  0  0  0  0  0
   -1.4844   -3.9535   -3.8514 H   0  0  0  0  0  0  0  0  0  0  0  0
   -0.9452    2.0484   -1.5495 H   0  0  0  0  0  0  0  0  0  0  0  0
    0.5419    1.8910   -2.3092 H   0  0  0  0  0  0  0  0  0  0  0  0
   -0.6465    2.5570   -3.2872 H   0  0  0  0  0  0  0  0  0  0  0  0
    1.4529    0.8533   -8.2735 H   0  0  0  0  0  0  0  0  0  0  0  0
    0.0351    1.9484   -8.1157 H   0  0  0  0  0  0  0  0  0  0  0  0
    1.5663    2.4850   -8.8940 H   0  0  0  0  0  0  0  0  0  0  0  0
    4.1049   -0.7791   -3.5708 H   0  0  0  0  0  0  0  0  0  0  0  0
    3.7731   -0.6901   -1.9636 H   0  0  0  0  0  0  0  0  0  0  0  0
    3.5616   -2.2288   -2.8261 H   0  0  0  0  0  0  0  0  0  0  0  0
    1.7535   -1.4424   -6.8600 H   0  0  0  0  0  0  0  0  0  0  0  0
    2.0970   -2.8946   -7.4339 H   0  0  0  0  0  0  0  0  0  0  0  0
    0.6370   -1.7523   -7.5411 H   0  0  0  0  0  0  0  0  0  0  0  0
   -2.8841   -0.0668   -1.3483 H   0  0  0  0  0  0  0  0  0  0  0  0
   -2.8805    1.6689   -1.6646 H   0  0  0  0  0  0  0  0  0  0  0  0
   -4.2614    0.6739   -2.1783 H   0  0  0  0  0  0  0  0  0  0  0  0
  1  6  1  0  0  0  0
  1 13  1  6  0  0  0
  1 14  1  0  0  0  0
  2  1  1  0  0  0  0
  2 12  1  0  0  0  0
  2 37  1  1  0  0  0
  3  2  1  0  0  0  0
  3  5  1  0  0  0  0
  3 19  1  0  0  0  0
  3 32  1  6  0  0  0
  5 11  1  0  0  0  0
  5 38  1  6  0  0  0
  5 15  1  0  0  0  0
  6  8  1  0  0  0  0
  6 39  1  6  0  0  0
  6 35  1  0  0  0  0
  7 11  1  0  0  0  0
  7 34  1  0  0  0  0
  7 21  1  1  0  0  0
  8  7  1  0  0  0  0
  8 40  1  1  0  0  0
  8 31  1  0  0  0  0
  9  4  1  0  0  0  0
  9 17  1  0  0  0  0
  9 41  1  6  0  0  0
 10 16  1  0  0  0  0
 10  4  1  0  0  0  0
 10 42  1  6  0  0  0
 11 43  1  0  0  0  0
 11 44  1  0  0  0  0
 13 45  1  0  0  0  0
 13 46  1  0  0  0  0
 14 47  1  0  0  0  0
 14 48  1  0  0  0  0
 16 20  1  0  0  0  0
 16 49  1  0  0  0  0
 16 50  1  0  0  0  0
 17 20  1  0  0  0  0
 17 51  1  0  0  0  0
 17 52  1  0  0  0  0
 18 15  1  0  0  0  0
 19 26  1  0  0  0  0
 19 53  1  6  0  0  0
 19 36  1  0  0  0  0
 20 54  1  1  0  0  0
 20 25  1  0  0  0  0
 21 55  1  0  0  0  0
 22 13  1  0  0  0  0
 22 12  1  0  0  0  0
 22 56  1  0  0  0  0
 22 57  1  0  0  0  0
 23 10  1  0  0  0  0
 23 24  1  0  0  0  0
 23 58  1  0  0  0  0
 23 59  1  0  0  0  0
 24  9  1  0  0  0  0
 24 60  1  0  0  0  0
 24 61  1  0  0  0  0
 25 30  1  0  0  0  0
 26 14  1  0  0  0  0
 26 62  1  0  0  0  0
 26 63  1  0  0  0  0
 27 12  2  0  0  0  0
 28 18  2  0  0  0  0
 29 21  2  0  0  0  0
 29 64  1  0  0  0  0
 29 65  1  0  0  0  0
 30 18  1  0  0  0  0
 30 66  1  0  0  0  0
 30 67  1  0  0  0  0
 31 68  1  0  0  0  0
 32 69  1  0  0  0  0
 32 70  1  0  0  0  0
 32 71  1  0  0  0  0
 33  4  1  0  0  0  0
 33 72  1  0  0  0  0
 33 73  1  0  0  0  0
 33 74  1  0  0  0  0
 34 75  1  0  0  0  0
 34 76  1  0  0  0  0
 34 77  1  0  0  0  0
 35 78  1  0  0  0  0
 35 79  1  0  0  0  0
 35 80  1  0  0  0  0
 36 81  1  0  0  0  0
 36 82  1  0  0  0  0
 36 83  1  0  0  0  0
M  END
>  <DRUGBANK_ID>
DB01256

>  <COMMON_NAME>
Retapamulin

>  <CAS_NUMBER>
224452-66-8

>  <UNII>
4MG6O8991R

>  <SYNONYMS>
Retapamulin; Retapamulina

$$$$
