
 OpenBabel10282417143D

 37 38  0  0  0  0  0  0  0  0999 V2000
    0.5341    1.3601    0.4017 C   0  0  2  0  0  0  0  0  0  0  0  0
    0.7625    2.7458    0.0074 N   0  0  0  0  0  0  0  0  0  0  0  0
    1.7202    0.5610    0.2599 O   0  0  0  0  0  0  0  0  0  0  0  0
   -0.5864    0.7396   -0.4346 C   0  0  1  0  0  0  0  0  0  0  0  0
    1.1943    2.9957   -1.2881 C   0  0  0  0  0  0  0  0  0  0  0  0
    0.0898    3.7150    0.7262 C   0  0  0  0  0  0  0  0  0  0  0  0
    1.3572   -0.6637   -0.3978 C   0  0  1  0  0  0  0  0  0  0  0  0
   -0.1698   -0.6932   -0.4938 C   0  0  1  0  0  0  0  0  0  0  0  0
    1.0022    4.2582   -1.7568 N   0  0  0  0  0  0  0  0  0  0  0  0
    1.6530    2.1538   -2.0532 O   0  0  0  0  0  0  0  0  0  0  0  0
   -0.6973   -1.4984    0.5755 O   0  0  0  0  0  0  0  0  0  0  0  0
    0.0909    5.1199   -1.2379 C   0  0  0  0  0  0  0  0  0  0  0  0
   -0.3052   -3.2325   -1.5021 O   0  0  0  0  0  0  0  0  0  0  0  0
    1.3880   -4.0067   -3.1968 O   0  0  0  0  0  0  0  0  0  0  0  0
    1.2219   -4.8808   -1.1165 O   0  0  0  0  0  0  0  0  0  0  0  0
    1.2796   -3.3125   -1.8445 P   0  0  0  0  0  0  0  0  0  0  0  0
    1.3373   -1.7441   -2.5724 O   0  0  0  0  0  0  0  0  0  0  0  0
    2.0557   -0.8343   -1.7510 C   0  0  0  0  0  0  0  0  0  0  0  0
   -0.3654    6.0615   -1.8858 O   0  0  0  0  0  0  0  0  0  0  0  0
   -0.3186    4.8547    0.1572 C   0  0  0  0  0  0  0  0  0  0  0  0
   -1.2333    5.8347    0.8028 C   0  0  0  0  0  0  0  0  0  0  0  0
   -1.8898    0.9295    0.1030 O   0  0  0  0  0  0  0  0  0  0  0  0
    0.2574    1.3176    1.4637 H   0  0  0  0  0  0  0  0  0  0  0  0
   -0.5957    1.1242   -1.4611 H   0  0  0  0  0  0  0  0  0  0  0  0
   -0.1812    3.4685    1.7496 H   0  0  0  0  0  0  0  0  0  0  0  0
    1.7037   -1.4810    0.2521 H   0  0  0  0  0  0  0  0  0  0  0  0
   -0.5721   -1.0900   -1.4243 H   0  0  0  0  0  0  0  0  0  0  0  0
    1.2380    4.3862   -2.7293 H   0  0  0  0  0  0  0  0  0  0  0  0
   -0.4581   -1.0937    1.4296 H   0  0  0  0  0  0  0  0  0  0  0  0
   -0.4995   -2.9947   -0.5685 H   0  0  0  0  0  0  0  0  0  0  0  0
    0.7394   -5.4050   -1.7905 H   0  0  0  0  0  0  0  0  0  0  0  0
    2.1640    0.0873   -2.3069 H   0  0  0  0  0  0  0  0  0  0  0  0
    3.0764   -1.2116   -1.6054 H   0  0  0  0  0  0  0  0  0  0  0  0
   -0.7749    6.8262    0.8251 H   0  0  0  0  0  0  0  0  0  0  0  0
   -2.1739    5.8933    0.2430 H   0  0  0  0  0  0  0  0  0  0  0  0
   -1.4797    5.5428    1.8283 H   0  0  0  0  0  0  0  0  0  0  0  0
   -2.0074    0.3261    0.8565 H   0  0  0  0  0  0  0  0  0  0  0  0
  1  3  1  0  0  0  0
  1  4  1  0  0  0  0
  1 23  1  1  0  0  0
  1  2  1  0  0  0  0
  2  5  1  0  0  0  0
  2  6  1  0  0  0  0
  3  7  1  0  0  0  0
  4  8  1  0  0  0  0
  4 22  1  0  0  0  0
  4 24  1  6  0  0  0
  5  9  1  0  0  0  0
  5 10  2  0  0  0  0
  6 20  2  0  0  0  0
  6 25  1  0  0  0  0
  7  8  1  0  0  0  0
  7 26  1  1  0  0  0
  7 18  1  0  0  0  0
  8 11  1  0  0  0  0
  8 27  1  6  0  0  0
  9 12  1  0  0  0  0
  9 28  1  0  0  0  0
 11 29  1  0  0  0  0
 12 19  2  0  0  0  0
 13 16  1  0  0  0  0
 13 30  1  0  0  0  0
 15 31  1  0  0  0  0
 16 17  1  0  0  0  0
 16 14  2  0  0  0  0
 16 15  1  0  0  0  0
 18 17  1  0  0  0  0
 18 32  1  0  0  0  0
 18 33  1  0  0  0  0
 20 12  1  0  0  0  0
 20 21  1  0  0  0  0
 21 34  1  0  0  0  0
 21 35  1  0  0  0  0
 21 36  1  0  0  0  0
 22 37  1  0  0  0  0
M  END
>  <DRUGBANK_ID>
DB04243

>  <SECONDARY_ACCESSION_NUMBERS>
EXPT00254

>  <COMMON_NAME>
TMP

>  <SYNONYMS>
5-methyl-5'-uridylic acid; 5-methyluridine 5'-monophosphate; 5-methyluridine 5'-phosphate; ribo-TMP; ribosylthymidine 5'-monophosphate; ribosylthymidine 5'-phosphate; ribosylthymine 5'-monophosphate; ribosylthymine 5'-phosphate; ribothymidine 5'-phosphate; rTMP

$$$$
