
 OpenBabel10282417203D

449470  0  0  1  0  0  0  0  0999 V2000
    2.0338   -0.3140    0.7454 C   0  0  3  0  0  0  0  0  0  0  0  0
    1.4763    1.7364   -0.4133 C   0  0  0  0  0  0  0  0  0  0  0  0
    2.0726   -1.3822   -1.1795 O   0  0  0  0  0  0  0  0  0  0  0  0
    2.1352    1.8702   -2.3683 N   0  0  0  0  0  0  0  0  0  0  0  0
    1.9439    2.7143   -3.0937 C   0  0  0  0  0  0  0  0  0  0  0  0
    2.6201    4.2398   -1.7482 C   0  0  0  0  0  0  0  0  0  0  0  0
    4.3327    1.3638   -2.4817 C   0  0  0  0  0  0  0  0  0  0  0  0
    4.8103    2.5626   -1.1197 C   0  0  0  0  0  0  0  0  0  0  0  0
    3.7525    2.7574    0.9870 C   0  0  0  0  0  0  0  0  0  0  0  0
    5.0641    0.9050    1.2459 C   0  0  0  0  0  0  0  0  0  0  0  0
    4.1014    4.7985   -1.9004 C   0  0  0  0  0  0  0  0  0  0  0  0
    4.3484    4.5320   -3.2467 C   0  0  0  0  0  0  0  0  0  0  0  0
   -0.7339    2.9334    4.9650 C   0  0  0  0  0  0  0  0  0  0  0  0
    0.7799    1.0783    3.3595 C   0  0  0  0  0  0  0  0  0  0  0  0
   -0.4975    1.0049    4.1094 C   0  0  0  0  0  0  0  0  0  0  0  0
   -0.5495   -0.1003    4.5356 C   0  0  0  0  0  0  0  0  0  0  0  0
   -0.4501   -1.8982    3.4460 C   0  0  0  0  0  0  0  0  0  0  0  0
    0.3844   -2.0500    2.6684 C   0  0  0  0  0  0  0  0  0  0  0  0
    1.2842   -0.3550    2.0713 C   0  0  0  0  0  0  0  0  0  0  0  0
   -0.1206    4.1095    4.2600 C   0  0  0  0  0  0  0  0  0  0  0  0
    1.0725    3.2708    2.6533 C   0  0  0  0  0  0  0  0  0  0  0  0
    1.1466    4.2944    1.2995 C   0  0  0  0  0  0  0  0  0  0  0  0
    1.0998    5.7526    1.3622 C   0  0  0  0  0  0  0  0  0  0  0  0
    0.5904    6.4684    2.3273 C   0  0  0  0  0  0  0  0  0  0  0  0
   -0.2203    5.3940    3.9424 C   0  0  0  0  0  0  0  0  0  0  0  0
    0.8969    7.9780    2.2022 Cl  0  0  0  0  0  0  0  0  0  0  0  0
   -0.1017   -3.1520    5.7898 Cl  0  0  0  0  0  0  0  0  0  0  0  0
   -0.5441    3.0702    6.3017 C   0  0  0  0  0  0  0  0  0  0  0  0
   -0.4854    2.2666    7.4744 C   0  0  0  0  0  0  0  0  0  0  0  0
    0.3994    0.8454    7.9613 C   0  0  0  0  0  0  0  0  0  0  0  0
    0.1621   -0.4030    8.3858 C   0  0  0  0  0  0  0  0  0  0  0  0
   -1.0397   -0.3741    8.9757 C   0  0  0  0  0  0  0  0  0  0  0  0
   -1.9968    1.0011    8.7249 C   0  0  0  0  0  0  0  0  0  0  0  0
   -1.7734    2.2749    7.8296 C   0  0  0  0  0  0  0  0  0  0  0  0
   -1.4367   -2.2808    9.2145 Cl  0  0  0  0  0  0  0  0  0  0  0  0
    4.8876    3.2099    0.2681 C   0  0  0  0  0  0  0  0  0  0  0  0
    2.6724    3.6416    0.4699 O   0  0  0  0  0  0  0  0  0  0  0  0
   -2.6627    3.8411    0.4004 C   0  0  0  0  0  0  0  0  0  0  0  0
   -1.4776    4.4252    3.5958 H   0  0  0  0  0  0  0  0  0  0  0  0
    0.7235    4.0994    5.8675 H   0  0  0  0  0  0  0  0  0  0  0  0
    3.0145   -0.7984    5.7808 C   0  0  0  0  0  0  0  0  0  0  0  0
    2.9721    3.0626    3.1843 H   0  0  0  0  0  0  0  0  0  0  0  0
    1.1391    0.0499    5.7738 O   0  0  0  0  0  0  0  0  0  0  0  0
    0.0457    1.6230    5.4406 O   0  0  0  0  0  0  0  0  0  0  0  0
    1.0809    3.1234    4.5718 C   0  0  2  0  0  0  0  0  0  0  0  0
    2.4835    2.4936    3.5903 C   0  0  1  0  0  0  0  0  0  0  0  0
    4.1839    1.3848    4.5706 O   0  0  0  0  0  0  0  0  0  0  0  0
    2.5842    0.3773    5.8572 C   0  0  2  0  0  0  0  0  0  0  0  0
    2.4461    1.3615    6.7920 C   0  0  0  0  0  0  0  0  0  0  0  0
    2.3815    2.8407    6.5774 C   0  0  0  0  0  0  0  0  0  0  0  0
    1.5861    3.8563    5.6244 C   0  0  1  0  0  0  0  0  0  0  0  0
    1.9165    5.7786    6.2406 C   0  0  0  0  0  0  0  0  0  0  0  0
    1.9848    5.1113    5.0665 C   0  0  2  0  0  0  0  0  0  0  0  0
    1.2943    6.1940    4.5143 C   0  0  0  0  0  0  0  0  0  0  0  0
    1.2708    5.3386    3.3260 C   0  0  0  0  0  0  0  0  0  0  0  0
   -0.2950    4.0786    2.7312 C   0  0  1  0  0  0  0  0  0  0  0  0
   -1.6413    3.2731    0.9935 C   0  0  2  0  0  0  0  0  0  0  0  0
    0.6080    2.8267    0.9977 C   0  0  2  0  0  0  0  0  0  0  0  0
    1.8012    1.6457    2.3232 O   0  0  0  0  0  0  0  0  0  0  0  0
   -0.0043    0.8597    0.0826 C   0  0  3  0  0  0  0  0  0  0  0  0
   -0.5066   -1.5923    0.1137 C   0  0  0  0  0  0  0  0  0  0  0  0
    0.1851    0.6973    1.5122 O   0  0  0  0  0  0  0  0  0  0  0  0
    0.2698   -3.2928    1.2046 N   0  0  0  0  0  0  0  0  0  0  0  0
   -0.0541   -4.6778    1.0390 C   0  0  0  0  0  0  0  0  0  0  0  0
    1.2931   -5.2004   -0.7621 C   0  0  0  0  0  0  0  0  0  0  0  0
    2.2315   -2.4305    0.8135 C   0  0  0  0  0  0  0  0  0  0  0  0
    3.1075   -3.3002   -1.1727 C   0  0  0  0  0  0  0  0  0  0  0  0
    3.0574   -2.6951   -2.3332 C   0  0  0  0  0  0  0  0  0  0  0  0
    3.6692   -0.7662   -2.2395 C   0  0  0  0  0  0  0  0  0  0  0  0
    2.7960   -5.4440   -0.7599 C   0  0  0  0  0  0  0  0  0  0  0  0
    3.4201   -5.5937    0.7056 C   0  0  0  0  0  0  0  0  0  0  0  0
    0.9690    5.6956   -2.0646 C   0  0  0  0  0  0  0  0  0  0  0  0
    0.5540    2.9984   -1.5108 C   0  0  0  0  0  0  0  0  0  0  0  0
    0.1076    3.8592   -2.8195 C   0  0  0  0  0  0  0  0  0  0  0  0
    0.6163    2.9788   -4.7573 C   0  0  0  0  0  0  0  0  0  0  0  0
   -0.4120    1.1722   -4.2435 C   0  0  0  0  0  0  0  0  0  0  0  0
   -1.0204   -0.0759   -3.3485 C   0  0  0  0  0  0  0  0  0  0  0  0
   -0.8168    1.0853   -1.7217 C   0  0  0  0  0  0  0  0  0  0  0  0
    2.1917    5.7363   -0.6372 C   0  0  0  0  0  0  0  0  0  0  0  0
    1.6412    4.6952   -0.2504 C   0  0  0  0  0  0  0  0  0  0  0  0
    2.7413    4.5527    1.6343 C   0  0  0  0  0  0  0  0  0  0  0  0
    3.5387    4.7531    2.5890 C   0  0  0  0  0  0  0  0  0  0  0  0
    3.4386    5.6925    1.7218 C   0  0  0  0  0  0  0  0  0  0  0  0
    3.0012    6.2310    0.3540 C   0  0  0  0  0  0  0  0  0  0  0  0
    3.4722    6.7935    2.9027 Cl  0  0  0  0  0  0  0  0  0  0  0  0
   -0.9637    0.0794   -4.9327 Cl  0  0  0  0  0  0  0  0  0  0  0  0
    1.1329    6.5902   -3.1366 C   0  0  0  0  0  0  0  0  0  0  0  0
    0.1640    6.2453   -4.4221 C   0  0  0  0  0  0  0  0  0  0  0  0
   -1.5164    6.0315   -4.8594 C   0  0  0  0  0  0  0  0  0  0  0  0
   -1.9960    5.0483   -5.8439 C   0  0  0  0  0  0  0  0  0  0  0  0
   -1.0225    4.9752   -6.7131 C   0  0  0  0  0  0  0  0  0  0  0  0
    0.1809    5.6808   -6.5062 C   0  0  0  0  0  0  0  0  0  0  0  0
    0.9186    5.9380   -5.4057 C   0  0  0  0  0  0  0  0  0  0  0  0
   -1.6400    4.4030   -8.1254 Cl  0  0  0  0  0  0  0  0  0  0  0  0
    1.2102   -1.2895   -0.0615 C   0  0  3  0  0  0  0  0  0  0  0  0
    0.8483   -1.7951    1.2075 C   0  0  0  0  0  0  0  0  0  0  0  0
    1.3888    0.8363    0.7531 O   0  0  0  0  0  0  0  0  0  0  0  0
    1.8891   -1.6527    3.2233 N   0  0  0  0  0  0  0  0  0  0  0  0
    1.0773   -2.4991    4.1512 C   0  0  0  0  0  0  0  0  0  0  0  0
    1.7577   -4.1737    3.0968 C   0  0  0  0  0  0  0  0  0  0  0  0
    4.1433   -0.9951    3.2143 C   0  0  0  0  0  0  0  0  0  0  0  0
    4.6361   -2.7244    1.8312 C   0  0  0  0  0  0  0  0  0  0  0  0
    4.4967   -3.2651    0.4680 C   0  0  0  0  0  0  0  0  0  0  0  0
    4.9608   -1.9954   -1.2067 C   0  0  0  0  0  0  0  0  0  0  0  0
    3.8082   -4.2718    3.5313 C   0  0  0  0  0  0  0  0  0  0  0  0
    4.2392   -3.3710    4.5123 C   0  0  0  0  0  0  0  0  0  0  0  0
    0.5837    1.3974   -5.6211 C   0  0  0  0  0  0  0  0  0  0  0  0
    0.3639    0.2982   -2.9070 C   0  0  0  0  0  0  0  0  0  0  0  0
    0.9795   -0.2457   -4.5397 C   0  0  0  0  0  0  0  0  0  0  0  0
    1.1100   -1.5296   -4.7527 C   0  0  0  0  0  0  0  0  0  0  0  0
    1.3335   -2.6126   -4.1923 C   0  0  0  0  0  0  0  0  0  0  0  0
    1.2017   -2.2559   -3.0502 C   0  0  0  0  0  0  0  0  0  0  0  0
    0.9400   -1.1210   -2.4058 C   0  0  0  0  0  0  0  0  0  0  0  0
   -1.0623    2.5717   -4.7665 C   0  0  0  0  0  0  0  0  0  0  0  0
   -0.8265    2.2600   -2.8369 C   0  0  0  0  0  0  0  0  0  0  0  0
   -1.0345    3.5635   -1.4873 C   0  0  0  0  0  0  0  0  0  0  0  0
   -0.9689    4.8089   -1.7631 C   0  0  0  0  0  0  0  0  0  0  0  0
   -0.9636    5.5268   -2.7392 C   0  0  0  0  0  0  0  0  0  0  0  0
   -1.0056    4.3863   -4.0264 C   0  0  0  0  0  0  0  0  0  0  0  0
   -0.7938    7.2639   -2.2017 Cl  0  0  0  0  0  0  0  0  0  0  0  0
    1.6252   -4.1608   -4.3593 Cl  0  0  0  0  0  0  0  0  0  0  0  0
   -0.1676    1.5884   -6.5906 C   0  0  0  0  0  0  0  0  0  0  0  0
   -0.0269    0.0601   -6.7658 C   0  0  0  0  0  0  0  0  0  0  0  0
   -1.0031   -1.3161   -6.3647 C   0  0  0  0  0  0  0  0  0  0  0  0
   -0.5464   -2.5893   -6.4962 C   0  0  0  0  0  0  0  0  0  0  0  0
    0.3332   -2.5457   -7.5792 C   0  0  0  0  0  0  0  0  0  0  0  0
    0.7806   -1.3077   -8.2120 C   0  0  0  0  0  0  0  0  0  0  0  0
    0.9005   -0.1538   -7.5830 C   0  0  0  0  0  0  0  0  0  0  0  0
    0.4071   -3.7997   -8.9085 Cl  0  0  0  0  0  0  0  0  0  0  0  0
    0.0765   -0.4603    0.5487 C   0  0  3  0  0  0  0  0  0  0  0  0
    0.5279    0.8420   -1.3688 C   0  0  0  0  0  0  0  0  0  0  0  0
   -0.8336   -1.5974   -1.2573 O   0  0  0  0  0  0  0  0  0  0  0  0
    1.7935    0.5924   -3.2601 N   0  0  0  0  0  0  0  0  0  0  0  0
    0.6583    1.9689   -3.1552 C   0  0  0  0  0  0  0  0  0  0  0  0
    1.4930    4.1490   -2.9474 C   0  0  0  0  0  0  0  0  0  0  0  0
    3.0091    0.6859   -3.1800 C   0  0  0  0  0  0  0  0  0  0  0  0
    3.3185    2.1977   -1.6175 C   0  0  0  0  0  0  0  0  0  0  0  0
    2.9208    2.5066   -0.4566 C   0  0  0  0  0  0  0  0  0  0  0  0
    3.1772    1.1714    0.3095 C   0  0  0  0  0  0  0  0  0  0  0  0
    2.6976    4.2417   -3.3770 C   0  0  0  0  0  0  0  0  0  0  0  0
    2.8774    3.9157   -4.7632 C   0  0  0  0  0  0  0  0  0  0  0  0
   -2.5208    2.5648    3.7661 C   0  0  0  0  0  0  0  0  0  0  0  0
   -1.8224    1.2001    2.6198 C   0  0  0  0  0  0  0  0  0  0  0  0
   -2.5795    1.2053    3.5812 C   0  0  0  0  0  0  0  0  0  0  0  0
   -2.6444    0.1043    4.2881 C   0  0  0  0  0  0  0  0  0  0  0  0
   -2.7256   -0.8976    3.4725 C   0  0  0  0  0  0  0  0  0  0  0  0
   -2.3851   -1.7091    2.6407 C   0  0  0  0  0  0  0  0  0  0  0  0
   -1.5180   -0.1058    2.3925 C   0  0  0  0  0  0  0  0  0  0  0  0
   -2.2526    3.4445    2.8004 C   0  0  0  0  0  0  0  0  0  0  0  0
   -1.2463    2.7777    2.3163 C   0  0  0  0  0  0  0  0  0  0  0  0
   -0.4424    4.1045    0.8405 C   0  0  0  0  0  0  0  0  0  0  0  0
   -0.5137    5.2537    0.4033 C   0  0  0  0  0  0  0  0  0  0  0  0
   -1.3270    5.9255    1.0414 C   0  0  0  0  0  0  0  0  0  0  0  0
   -2.0333    5.1778    2.1579 C   0  0  0  0  0  0  0  0  0  0  0  0
   -0.7619    7.3521    0.3404 Cl  0  0  0  0  0  0  0  0  0  0  0  0
   -2.7035   -2.8130    4.3318 Cl  0  0  0  0  0  0  0  0  0  0  0  0
   -2.6095    3.1275    4.9234 C   0  0  0  0  0  0  0  0  0  0  0  0
   -2.4615    1.7400    5.7301 C   0  0  0  0  0  0  0  0  0  0  0  0
   -1.4616    0.6278    6.4067 C   0  0  0  0  0  0  0  0  0  0  0  0
   -1.8030   -0.6520    6.8732 C   0  0  0  0  0  0  0  0  0  0  0  0
   -3.1209   -0.5026    7.3274 C   0  0  0  0  0  0  0  0  0  0  0  0
   -3.9168    0.7931    7.1960 C   0  0  0  0  0  0  0  0  0  0  0  0
   -3.6738    1.6748    6.2078 C   0  0  0  0  0  0  0  0  0  0  0  0
   -3.8317   -1.3470    8.7635 Cl  0  0  0  0  0  0  0  0  0  0  0  0
   -1.2937   -0.1247   -0.3437 C   0  0  3  0  0  0  0  0  0  0  0  0
   -1.1468   -1.3333    1.5650 C   0  0  0  0  0  0  0  0  0  0  0  0
   -1.3405    1.7694    0.5523 O   0  0  0  0  0  0  0  0  0  0  0  0
    0.1866   -0.5059    3.2053 N   0  0  0  0  0  0  0  0  0  0  0  0
   -0.3738   -1.7074    4.9150 C   0  0  0  0  0  0  0  0  0  0  0  0
    0.1257   -3.7748    3.9394 C   0  0  0  0  0  0  0  0  0  0  0  0
    2.3056   -0.2668    3.3881 C   0  0  0  0  0  0  0  0  0  0  0  0
    3.2252   -2.3883    2.9364 C   0  0  0  0  0  0  0  0  0  0  0  0
    2.4034   -3.7869    1.3689 C   0  0  0  0  0  0  0  0  0  0  0  0
    3.4231   -2.1882   -0.0883 C   0  0  0  0  0  0  0  0  0  0  0  0
    2.0838   -3.7843    4.7574 C   0  0  0  0  0  0  0  0  0  0  0  0
    2.7072   -2.7363    5.5877 C   0  0  0  0  0  0  0  0  0  0  0  0
   -2.8132    1.2330   -4.5620 C   0  0  0  0  0  0  0  0  0  0  0  0
   -2.4660    0.6514   -2.8083 C   0  0  0  0  0  0  0  0  0  0  0  0
   -2.6961   -0.1981   -3.8921 C   0  0  0  0  0  0  0  0  0  0  0  0
   -1.7710   -1.9094   -3.9547 C   0  0  0  0  0  0  0  0  0  0  0  0
   -1.0175   -2.9528   -3.6360 C   0  0  0  0  0  0  0  0  0  0  0  0
   -1.1807   -2.3108   -2.6690 C   0  0  0  0  0  0  0  0  0  0  0  0
   -1.8401   -0.5662   -1.8650 C   0  0  0  0  0  0  0  0  0  0  0  0
   -2.8745    2.3736   -3.6648 C   0  0  0  0  0  0  0  0  0  0  0  0
   -2.5557    2.0250   -2.5210 C   0  0  0  0  0  0  0  0  0  0  0  0
   -2.6079    2.7076   -1.3246 C   0  0  0  0  0  0  0  0  0  0  0  0
   -2.8747    4.3520   -1.4026 C   0  0  0  0  0  0  0  0  0  0  0  0
   -2.9726    4.6069   -2.6224 C   0  0  0  0  0  0  0  0  0  0  0  0
   -2.9474    3.6390   -3.6271 C   0  0  0  0  0  0  0  0  0  0  0  0
   -3.0938    6.6025   -2.8685 Cl  0  0  0  0  0  0  0  0  0  0  0  0
   -0.6750   -4.4735   -3.4510 Cl  0  0  0  0  0  0  0  0  0  0  0  0
   -2.7267    1.2314   -5.8939 C   0  0  0  0  0  0  0  0  0  0  0  0
   -2.7054    0.0178   -6.9225 C   0  0  0  0  0  0  0  0  0  0  0  0
   -3.3774   -1.4425   -6.3498 C   0  0  0  0  0  0  0  0  0  0  0  0
   -3.0025   -2.8157   -6.6079 C   0  0  0  0  0  0  0  0  0  0  0  0
   -2.2642   -3.0680   -7.8021 C   0  0  0  0  0  0  0  0  0  0  0  0
   -1.6702   -1.6934   -8.5534 C   0  0  0  0  0  0  0  0  0  0  0  0
   -1.7991   -0.1495   -8.0697 C   0  0  0  0  0  0  0  0  0  0  0  0
   -1.4845   -4.9507   -7.5314 Cl  0  0  0  0  0  0  0  0  0  0  0  0
    0.0426   -0.5480   -1.0301 C   0  0  3  0  0  0  0  0  0  0  0  0
   -1.0433    0.4095    1.0086 C   0  0  0  0  0  0  0  0  0  0  0  0
    1.8414    0.1416   -1.7068 O   0  0  0  0  0  0  0  0  0  0  0  0
    0.5216    1.8849    2.0718 N   0  0  0  0  0  0  0  0  0  0  0  0
    0.2053    2.4924    3.5229 C   0  0  0  0  0  0  0  0  0  0  0  0
    1.5519    1.4652    4.7697 C   0  0  0  0  0  0  0  0  0  0  0  0
    3.0419    1.9516    2.1183 C   0  0  0  0  0  0  0  0  0  0  0  0
    3.6545    1.0444    2.9573 C   0  0  0  0  0  0  0  0  0  0  0  0
    3.2636   -0.7917    1.8872 C   0  0  0  0  0  0  0  0  0  0  0  0
    4.2967   -1.0346    1.3352 C   0  0  0  0  0  0  0  0  0  0  0  0
    2.8100    1.9014    5.0896 C   0  0  0  0  0  0  0  0  0  0  0  0
    3.7811    3.0892    4.8129 C   0  0  0  0  0  0  0  0  0  0  0  0
   -2.9396   -3.1707   -2.0749 C   0  0  0  0  0  0  0  0  0  0  0  0
   -2.1364   -2.6679   -0.6164 C   0  0  0  0  0  0  0  0  0  0  0  0
   -2.1030   -3.6791   -1.1490 C   0  0  0  0  0  0  0  0  0  0  0  0
   -1.1927   -4.5232   -0.8682 C   0  0  0  0  0  0  0  0  0  0  0  0
   -0.0230   -4.2391   -0.5096 C   0  0  0  0  0  0  0  0  0  0  0  0
    0.8142   -3.3986   -0.6739 C   0  0  0  0  0  0  0  0  0  0  0  0
   -0.2492   -2.8895   -0.6957 C   0  0  0  0  0  0  0  0  0  0  0  0
   -3.4002   -1.8732   -2.3436 C   0  0  0  0  0  0  0  0  0  0  0  0
   -3.3229   -1.3935   -1.1478 C   0  0  0  0  0  0  0  0  0  0  0  0
   -3.4638    0.2454   -0.9946 C   0  0  0  0  0  0  0  0  0  0  0  0
   -4.1784    1.1014   -1.7910 C   0  0  0  0  0  0  0  0  0  0  0  0
   -4.4817    0.4148   -2.8785 C   0  0  0  0  0  0  0  0  0  0  0  0
   -4.1909   -0.9945   -2.9114 C   0  0  0  0  0  0  0  0  0  0  0  0
   -5.3085    1.4134   -3.8522 Cl  0  0  0  0  0  0  0  0  0  0  0  0
    0.9529   -6.2194    0.7917 Cl  0  0  0  0  0  0  0  0  0  0  0  0
   -3.2783   -4.2023   -2.6996 C   0  0  0  0  0  0  0  0  0  0  0  0
   -2.7911   -5.5305   -2.3978 C   0  0  0  0  0  0  0  0  0  0  0  0
   -2.6285   -6.0544   -1.0772 C   0  0  0  0  0  0  0  0  0  0  0  0
   -1.7871   -7.1355   -0.8254 C   0  0  0  0  0  0  0  0  0  0  0  0
   -1.4433   -7.9256   -1.8812 C   0  0  0  0  0  0  0  0  0  0  0  0
   -1.8603   -7.5615   -3.1562 C   0  0  0  0  0  0  0  0  0  0  0  0
   -2.3738   -6.3073   -3.4366 C   0  0  0  0  0  0  0  0  0  0  0  0
   -0.5500   -9.3671   -1.5872 Cl  0  0  0  0  0  0  0  0  0  0  0  0
    2.7303   -0.0694    0.9160 H   0  0  0  0  0  0  0  0  0  0  0  0
   -0.1974    2.1144   -0.4873 H   0  0  0  0  0  0  0  0  0  0  0  0
    1.4007    2.4164   -0.2865 H   0  0  0  0  0  0  0  0  0  0  0  0
    2.2717   -1.2698   -1.9952 H   0  0  0  0  0  0  0  0  0  0  0  0
    1.8189    2.9997   -3.8964 H   0  0  0  0  0  0  0  0  0  0  0  0
    0.2427    2.9211   -3.6206 H   0  0  0  0  0  0  0  0  0  0  0  0
    2.2025    5.4258   -2.9545 H   0  0  0  0  0  0  0  0  0  0  0  0
    1.7683    4.0497   -1.5030 H   0  0  0  0  0  0  0  0  0  0  0  0
    4.2885    0.8536   -1.6656 H   0  0  0  0  0  0  0  0  0  0  0  0
    3.9724    1.7801   -3.2992 H   0  0  0  0  0  0  0  0  0  0  0  0
    5.6223    2.8679   -1.2599 H   0  0  0  0  0  0  0  0  0  0  0  0
    3.7541    3.4381   -1.0432 H   0  0  0  0  0  0  0  0  0  0  0  0
    4.0655    3.6809    1.3962 H   0  0  0  0  0  0  0  0  0  0  0  0
    2.4235    2.1981    0.9532 H   0  0  0  0  0  0  0  0  0  0  0  0
    5.7466    1.4460    1.0597 H   0  0  0  0  0  0  0  0  0  0  0  0
    4.4020    1.1864    1.7674 H   0  0  0  0  0  0  0  0  0  0  0  0
    4.2829    0.2734    0.6563 H   0  0  0  0  0  0  0  0  0  0  0  0
    3.9373    5.1363   -0.9935 H   0  0  0  0  0  0  0  0  0  0  0  0
    4.3344    3.9400   -1.9060 H   0  0  0  0  0  0  0  0  0  0  0  0
    3.6436    5.3958   -3.6327 H   0  0  0  0  0  0  0  0  0  0  0  0
    5.1601    4.1055   -3.0735 H   0  0  0  0  0  0  0  0  0  0  0  0
    3.7563    3.0243   -3.6738 H   0  0  0  0  0  0  0  0  0  0  0  0
   -0.4414   -0.2817    5.5055 H   0  0  0  0  0  0  0  0  0  0  0  0
    1.0528   -2.6176    2.3827 H   0  0  0  0  0  0  0  0  0  0  0  0
    1.5307    3.4921   -0.2963 H   0  0  0  0  0  0  0  0  0  0  0  0
    1.0376    6.2154    0.5187 H   0  0  0  0  0  0  0  0  0  0  0  0
   -0.9861    5.7011    4.1998 H   0  0  0  0  0  0  0  0  0  0  0  0
   -0.7160    4.0085    6.1346 H   0  0  0  0  0  0  0  0  0  0  0  0
    1.0594    0.2859    7.2674 H   0  0  0  0  0  0  0  0  0  0  0  0
    0.6223   -1.2672    7.8354 H   0  0  0  0  0  0  0  0  0  0  0  0
   -3.0715    0.7093    8.9566 H   0  0  0  0  0  0  0  0  0  0  0  0
   -2.5276    3.0278    7.0170 H   0  0  0  0  0  0  0  0  0  0  0  0
    4.1544    1.7805   -0.4034 H   0  0  0  0  0  0  0  0  0  0  0  0
    5.1940    2.7590    1.2816 H   0  0  0  0  0  0  0  0  0  0  0  0
    4.9025    4.0036   -0.2018 H   0  0  0  0  0  0  0  0  0  0  0  0
   -2.4938    2.8611    0.3497 H   0  0  0  0  0  0  0  0  0  0  0  0
   -2.7007    3.8466    1.2916 H   0  0  0  0  0  0  0  0  0  0  0  0
   -1.8356    4.1933   -0.0073 H   0  0  0  0  0  0  0  0  0  0  0  0
    2.8253   -1.0560    4.7623 H   0  0  0  0  0  0  0  0  0  0  0  0
    3.9845   -0.6489    5.5017 H   0  0  0  0  0  0  0  0  0  0  0  0
    2.1047   -1.1752    6.3366 H   0  0  0  0  0  0  0  0  0  0  0  0
    3.1221    0.7310    7.0630 H   0  0  0  0  0  0  0  0  0  0  0  0
    1.4889    1.5458    6.7473 H   0  0  0  0  0  0  0  0  0  0  0  0
    3.4804    2.8279    6.3697 H   0  0  0  0  0  0  0  0  0  0  0  0
    2.1510    3.3094    7.3331 H   0  0  0  0  0  0  0  0  0  0  0  0
    2.5851    5.2015    6.7902 H   0  0  0  0  0  0  0  0  0  0  0  0
    2.2513    6.7298    5.9334 H   0  0  0  0  0  0  0  0  0  0  0  0
    0.8846    5.7593    6.5975 H   0  0  0  0  0  0  0  0  0  0  0  0
    2.8148    5.0396    4.4950 H   0  0  0  0  0  0  0  0  0  0  0  0
    0.0799    6.4233    4.9923 H   0  0  0  0  0  0  0  0  0  0  0  0
    1.3069    6.9139    3.8389 H   0  0  0  0  0  0  0  0  0  0  0  0
   -0.2447    5.4274    2.5614 H   0  0  0  0  0  0  0  0  0  0  0  0
    1.6754    4.9377    2.6830 H   0  0  0  0  0  0  0  0  0  0  0  0
   -2.4491    2.1471    1.4637 H   0  0  0  0  0  0  0  0  0  0  0  0
    0.3541    2.2075    0.5162 H   0  0  0  0  0  0  0  0  0  0  0  0
    1.7189    0.6617   -0.4624 H   0  0  0  0  0  0  0  0  0  0  0  0
   -1.5346   -1.5318    0.0815 H   0  0  0  0  0  0  0  0  0  0  0  0
    0.6878   -1.9634   -1.1059 H   0  0  0  0  0  0  0  0  0  0  0  0
   -0.0421    0.5304    2.3645 H   0  0  0  0  0  0  0  0  0  0  0  0
    0.5769   -4.6734    1.7128 H   0  0  0  0  0  0  0  0  0  0  0  0
   -0.9604   -3.9983    1.0508 H   0  0  0  0  0  0  0  0  0  0  0  0
    0.5149   -5.8084   -0.9317 H   0  0  0  0  0  0  0  0  0  0  0  0
    0.9211   -4.5221   -1.8849 H   0  0  0  0  0  0  0  0  0  0  0  0
    2.2645   -2.3787    1.7348 H   0  0  0  0  0  0  0  0  0  0  0  0
    3.0325   -2.5706    1.3904 H   0  0  0  0  0  0  0  0  0  0  0  0
    4.2682   -3.4400   -1.0748 H   0  0  0  0  0  0  0  0  0  0  0  0
    2.3711   -3.8623   -1.0724 H   0  0  0  0  0  0  0  0  0  0  0  0
    3.1842   -2.4190   -3.2177 H   0  0  0  0  0  0  0  0  0  0  0  0
    2.2830   -2.6543   -1.7439 H   0  0  0  0  0  0  0  0  0  0  0  0
    4.5524   -0.4163   -1.9011 H   0  0  0  0  0  0  0  0  0  0  0  0
    2.9494   -0.7931   -2.8605 H   0  0  0  0  0  0  0  0  0  0  0  0
    3.3719   -0.1918   -1.4192 H   0  0  0  0  0  0  0  0  0  0  0  0
    2.9769   -4.9088   -1.7408 H   0  0  0  0  0  0  0  0  0  0  0  0
    3.5866   -4.7590   -0.6471 H   0  0  0  0  0  0  0  0  0  0  0  0
    3.0159   -6.4499    0.6678 H   0  0  0  0  0  0  0  0  0  0  0  0
    4.3893   -5.2082    0.7578 H   0  0  0  0  0  0  0  0  0  0  0  0
    2.9012   -5.2944    1.7238 H   0  0  0  0  0  0  0  0  0  0  0  0
    0.1885    3.6649   -5.1087 H   0  0  0  0  0  0  0  0  0  0  0  0
   -0.5743   -0.9068   -2.8985 H   0  0  0  0  0  0  0  0  0  0  0  0
    2.2612    3.1908    1.8427 H   0  0  0  0  0  0  0  0  0  0  0  0
    2.7845    4.2986    3.1045 H   0  0  0  0  0  0  0  0  0  0  0  0
    2.2370    6.9226    0.1197 H   0  0  0  0  0  0  0  0  0  0  0  0
    1.3132    6.9419   -2.1557 H   0  0  0  0  0  0  0  0  0  0  0  0
   -2.1669    5.4635   -4.0592 H   0  0  0  0  0  0  0  0  0  0  0  0
   -2.7015    4.1497   -5.7214 H   0  0  0  0  0  0  0  0  0  0  0  0
    0.5616    6.1673   -7.3249 H   0  0  0  0  0  0  0  0  0  0  0  0
    1.8810    6.2523   -5.1686 H   0  0  0  0  0  0  0  0  0  0  0  0
    2.7642   -0.4328   -0.3698 H   0  0  0  0  0  0  0  0  0  0  0  0
   -0.7975   -2.6394    0.8675 H   0  0  0  0  0  0  0  0  0  0  0  0
    1.2693   -1.6901    0.2428 H   0  0  0  0  0  0  0  0  0  0  0  0
    1.2525    1.1826    1.5799 H   0  0  0  0  0  0  0  0  0  0  0  0
    1.3966   -1.4817    4.2732 H   0  0  0  0  0  0  0  0  0  0  0  0
   -0.7431   -2.8954    4.1842 H   0  0  0  0  0  0  0  0  0  0  0  0
    1.2358   -4.8225    3.6313 H   0  0  0  0  0  0  0  0  0  0  0  0
    1.1503   -3.8424    2.4844 H   0  0  0  0  0  0  0  0  0  0  0  0
    4.2606   -0.0064    2.3082 H   0  0  0  0  0  0  0  0  0  0  0  0
    4.0972   -0.4324    3.9701 H   0  0  0  0  0  0  0  0  0  0  0  0
    5.5201   -2.3676    1.9148 H   0  0  0  0  0  0  0  0  0  0  0  0
    3.4258   -3.5286    2.2291 H   0  0  0  0  0  0  0  0  0  0  0  0
    3.8296   -3.9435    0.6083 H   0  0  0  0  0  0  0  0  0  0  0  0
    2.9081   -3.4949    0.1350 H   0  0  0  0  0  0  0  0  0  0  0  0
    5.6545   -1.7274   -0.7014 H   0  0  0  0  0  0  0  0  0  0  0  0
    4.1825   -1.9969   -1.7278 H   0  0  0  0  0  0  0  0  0  0  0  0
    4.3756   -0.6589   -0.5979 H   0  0  0  0  0  0  0  0  0  0  0  0
    3.8269   -4.6427    2.6165 H   0  0  0  0  0  0  0  0  0  0  0  0
    4.4204   -3.6277    3.0748 H   0  0  0  0  0  0  0  0  0  0  0  0
    3.7143   -3.9432    5.2695 H   0  0  0  0  0  0  0  0  0  0  0  0
    5.0547   -2.8312    4.3606 H   0  0  0  0  0  0  0  0  0  0  0  0
    3.8596   -2.0028    4.3720 H   0  0  0  0  0  0  0  0  0  0  0  0
    0.2928   -1.6773   -5.2322 H   0  0  0  0  0  0  0  0  0  0  0  0
    1.2476   -3.1248   -2.4153 H   0  0  0  0  0  0  0  0  0  0  0  0
   -0.7395    3.2149   -0.5951 H   0  0  0  0  0  0  0  0  0  0  0  0
   -0.5519    5.2568   -1.1467 H   0  0  0  0  0  0  0  0  0  0  0  0
   -0.6312    4.5688   -4.8310 H   0  0  0  0  0  0  0  0  0  0  0  0
   -0.8009    2.4327   -6.3922 H   0  0  0  0  0  0  0  0  0  0  0  0
   -2.1314   -0.9239   -5.4635 H   0  0  0  0  0  0  0  0  0  0  0  0
   -1.1741   -3.4252   -6.0321 H   0  0  0  0  0  0  0  0  0  0  0  0
    0.6840   -1.2013   -9.3227 H   0  0  0  0  0  0  0  0  0  0  0  0
    0.9528    0.7952   -7.9958 H   0  0  0  0  0  0  0  0  0  0  0  0
    1.6173   -0.3338   -0.4199 H   0  0  0  0  0  0  0  0  0  0  0  0
   -1.0966    1.2078   -0.6061 H   0  0  0  0  0  0  0  0  0  0  0  0
    0.4661    1.6533   -1.3380 H   0  0  0  0  0  0  0  0  0  0  0  0
   -0.1132   -1.6703   -1.8501 H   0  0  0  0  0  0  0  0  0  0  0  0
    1.2650    1.6114   -4.1162 H   0  0  0  0  0  0  0  0  0  0  0  0
   -0.8674    3.0634   -3.5834 H   0  0  0  0  0  0  0  0  0  0  0  0
    0.9389    4.8524   -3.4971 H   0  0  0  0  0  0  0  0  0  0  0  0
    0.6214    4.3831   -1.4426 H   0  0  0  0  0  0  0  0  0  0  0  0
    3.0216    0.9759   -1.6798 H   0  0  0  0  0  0  0  0  0  0  0  0
    2.6579    1.1462   -3.9931 H   0  0  0  0  0  0  0  0  0  0  0  0
    4.3662    2.8079   -2.5191 H   0  0  0  0  0  0  0  0  0  0  0  0
    2.4676    2.7774   -1.3917 H   0  0  0  0  0  0  0  0  0  0  0  0
    3.6164    4.1115   -0.1367 H   0  0  0  0  0  0  0  0  0  0  0  0
    1.7540    2.9422    0.6257 H   0  0  0  0  0  0  0  0  0  0  0  0
    4.6614    0.7526   -0.3202 H   0  0  0  0  0  0  0  0  0  0  0  0
    2.8545    0.9889    1.2344 H   0  0  0  0  0  0  0  0  0  0  0  0
    2.9040    0.8189   -0.3043 H   0  0  0  0  0  0  0  0  0  0  0  0
    2.8803    5.5197   -2.1490 H   0  0  0  0  0  0  0  0  0  0  0  0
    3.1475    3.3826   -2.7195 H   0  0  0  0  0  0  0  0  0  0  0  0
    2.1715    4.6790   -4.4837 H   0  0  0  0  0  0  0  0  0  0  0  0
    4.1635    3.6189   -4.6437 H   0  0  0  0  0  0  0  0  0  0  0  0
    2.5614    2.8148   -4.8869 H   0  0  0  0  0  0  0  0  0  0  0  0
   -2.0439   -0.2346    5.0528 H   0  0  0  0  0  0  0  0  0  0  0  0
   -1.4960   -2.7419    2.2775 H   0  0  0  0  0  0  0  0  0  0  0  0
    0.3425    3.5556   -0.1384 H   0  0  0  0  0  0  0  0  0  0  0  0
    0.3283    5.5413   -0.3655 H   0  0  0  0  0  0  0  0  0  0  0  0
   -1.7077    5.7935    2.9418 H   0  0  0  0  0  0  0  0  0  0  0  0
   -1.9513    4.1751    5.1450 H   0  0  0  0  0  0  0  0  0  0  0  0
   -0.1275    0.8020    6.4719 H   0  0  0  0  0  0  0  0  0  0  0  0
   -0.9818   -1.4523    7.1889 H   0  0  0  0  0  0  0  0  0  0  0  0
   -4.3975    1.2524    8.1256 H   0  0  0  0  0  0  0  0  0  0  0  0
   -4.0781    2.6518    6.1768 H   0  0  0  0  0  0  0  0  0  0  0  0
    0.6471    0.0682   -0.3301 H   0  0  0  0  0  0  0  0  0  0  0  0
   -2.0654   -1.0221    1.1464 H   0  0  0  0  0  0  0  0  0  0  0  0
   -0.5055   -1.8566    1.5929 H   0  0  0  0  0  0  0  0  0  0  0  0
   -0.4988    1.6880    1.4325 H   0  0  0  0  0  0  0  0  0  0  0  0
    0.4778   -1.3325    5.2649 H   0  0  0  0  0  0  0  0  0  0  0  0
   -1.3514   -1.4366    4.4776 H   0  0  0  0  0  0  0  0  0  0  0  0
   -0.0758   -4.4783    4.4990 H   0  0  0  0  0  0  0  0  0  0  0  0
   -0.3591   -3.7353    2.8656 H   0  0  0  0  0  0  0  0  0  0  0  0
    2.5375    0.3016    2.5260 H   0  0  0  0  0  0  0  0  0  0  0  0
    2.6617    0.0070    4.1181 H   0  0  0  0  0  0  0  0  0  0  0  0
    4.5740   -2.2625    3.1662 H   0  0  0  0  0  0  0  0  0  0  0  0
    2.3882   -2.8852    2.9440 H   0  0  0  0  0  0  0  0  0  0  0  0
    2.2718   -4.4729    0.7763 H   0  0  0  0  0  0  0  0  0  0  0  0
    1.5277   -3.5324    0.8400 H   0  0  0  0  0  0  0  0  0  0  0  0
    4.4505   -1.7482    0.0839 H   0  0  0  0  0  0  0  0  0  0  0  0
    3.2822   -1.5886   -0.7602 H   0  0  0  0  0  0  0  0  0  0  0  0
    2.8172   -1.5374   -0.0648 H   0  0  0  0  0  0  0  0  0  0  0  0
    2.5797   -4.8957    4.0603 H   0  0  0  0  0  0  0  0  0  0  0  0
    2.6282   -2.8522    4.2411 H   0  0  0  0  0  0  0  0  0  0  0  0
    2.0713   -3.0829    6.1720 H   0  0  0  0  0  0  0  0  0  0  0  0
    4.0355   -2.1641    5.6730 H   0  0  0  0  0  0  0  0  0  0  0  0
    2.0959   -2.0477    5.2923 H   0  0  0  0  0  0  0  0  0  0  0  0
   -1.1580   -2.0405   -4.7408 H   0  0  0  0  0  0  0  0  0  0  0  0
   -0.2580   -2.9860   -2.2152 H   0  0  0  0  0  0  0  0  0  0  0  0
   -1.7900    2.3705   -0.7216 H   0  0  0  0  0  0  0  0  0  0  0  0
   -2.0111    5.4000   -0.7398 H   0  0  0  0  0  0  0  0  0  0  0  0
   -2.3316    3.6566   -4.4720 H   0  0  0  0  0  0  0  0  0  0  0  0
   -2.3068    2.1067   -6.2686 H   0  0  0  0  0  0  0  0  0  0  0  0
   -3.6341   -1.3447   -5.2692 H   0  0  0  0  0  0  0  0  0  0  0  0
   -2.8772   -3.5322   -5.7531 H   0  0  0  0  0  0  0  0  0  0  0  0
   -0.7951   -1.9504   -9.2208 H   0  0  0  0  0  0  0  0  0  0  0  0
   -0.8894    0.7487   -8.2079 H   0  0  0  0  0  0  0  0  0  0  0  0
    1.5976   -0.1109   -1.5842 H   0  0  0  0  0  0  0  0  0  0  0  0
   -2.1395    0.5312    0.9329 H   0  0  0  0  0  0  0  0  0  0  0  0
   -0.1554   -0.5489    1.8746 H   0  0  0  0  0  0  0  0  0  0  0  0
    1.8006    1.2101   -1.7188 H   0  0  0  0  0  0  0  0  0  0  0  0
    1.3641    3.9312    3.6678 H   0  0  0  0  0  0  0  0  0  0  0  0
   -0.6313    2.2594    3.4664 H   0  0  0  0  0  0  0  0  0  0  0  0
    1.3043    1.8966    5.5290 H   0  0  0  0  0  0  0  0  0  0  0  0
    1.2976    0.1097    4.3994 H   0  0  0  0  0  0  0  0  0  0  0  0
    4.2413    1.7254    0.7700 H   0  0  0  0  0  0  0  0  0  0  0  0
    3.9476    2.7065    2.5074 H   0  0  0  0  0  0  0  0  0  0  0  0
    4.8210    0.9188    3.0565 H   0  0  0  0  0  0  0  0  0  0  0  0
    2.3269    1.0908    3.4625 H   0  0  0  0  0  0  0  0  0  0  0  0
    3.0069   -1.0879    2.6004 H   0  0  0  0  0  0  0  0  0  0  0  0
    2.4423   -1.1963    1.9281 H   0  0  0  0  0  0  0  0  0  0  0  0
    5.1419   -0.8463    1.1808 H   0  0  0  0  0  0  0  0  0  0  0  0
    3.6987   -1.5944    1.1675 H   0  0  0  0  0  0  0  0  0  0  0  0
    3.6488   -0.8211    0.7073 H   0  0  0  0  0  0  0  0  0  0  0  0
    3.2731    0.7359    4.9120 H   0  0  0  0  0  0  0  0  0  0  0  0
    2.9338    1.4576    4.3293 H   0  0  0  0  0  0  0  0  0  0  0  0
    2.8671    3.2622    4.9819 H   0  0  0  0  0  0  0  0  0  0  0  0
    4.5355    2.8985    4.1941 H   0  0  0  0  0  0  0  0  0  0  0  0
    3.2029    3.7217    4.3350 H   0  0  0  0  0  0  0  0  0  0  0  0
   -0.7996   -5.3092   -1.2914 H   0  0  0  0  0  0  0  0  0  0  0  0
    1.5688   -2.8597   -0.5207 H   0  0  0  0  0  0  0  0  0  0  0  0
   -2.5320    0.8218   -0.9784 H   0  0  0  0  0  0  0  0  0  0  0  0
   -4.0014    2.3465   -2.0118 H   0  0  0  0  0  0  0  0  0  0  0  0
   -4.6478   -1.4798   -3.6046 H   0  0  0  0  0  0  0  0  0  0  0  0
   -4.0362   -3.8645   -3.2852 H   0  0  0  0  0  0  0  0  0  0  0  0
   -2.9124   -5.4097   -0.2225 H   0  0  0  0  0  0  0  0  0  0  0  0
   -1.4401   -7.3716    0.1667 H   0  0  0  0  0  0  0  0  0  0  0  0
   -1.8183   -8.2817   -3.9492 H   0  0  0  0  0  0  0  0  0  0  0  0
   -2.4317   -5.9079   -4.4462 H   0  0  0  0  0  0  0  0  0  0  0  0
  1  2  1  0  0  0  0
  1  3  1  0  0  0  0
  1 19  1  0  0  0  0
  1235  1  0  0  0  0
  2  4  1  0  0  0  0
  2236  1  0  0  0  0
  2237  1  0  0  0  0
  3238  1  0  0  0  0
  4  5  1  0  0  0  0
  4  7  1  0  0  0  0
  5  6  1  0  0  0  0
  5239  1  0  0  0  0
  5240  1  0  0  0  0
  6 11  1  0  0  0  0
  6241  1  0  0  0  0
  6242  1  0  0  0  0
  7  8  1  0  0  0  0
  7243  1  0  0  0  0
  7244  1  0  0  0  0
  8  9  1  0  0  0  0
  8245  1  0  0  0  0
  8246  1  0  0  0  0
  9 10  1  0  0  0  0
  9247  1  0  0  0  0
  9248  1  0  0  0  0
 10249  1  0  0  0  0
 10250  1  0  0  0  0
 10251  1  0  0  0  0
 11 12  1  0  0  0  0
 11252  1  0  0  0  0
 11253  1  0  0  0  0
 12254  1  0  0  0  0
 12255  1  0  0  0  0
 12256  1  0  0  0  0
 13 15  1  0  0  0  0
 13 28  2  0  0  0  0
 14 15  2  0  0  0  0
 14 21  1  0  0  0  0
 15 16  1  0  0  0  0
 16 17  2  0  0  0  0
 16257  1  0  0  0  0
 17 27  1  0  0  0  0
 17 18  1  0  0  0  0
 18 19  2  0  0  0  0
 18258  1  0  0  0  0
 19 14  1  0  0  0  0
 20 13  1  0  0  0  0
 20 21  1  0  0  0  0
 20 25  2  0  0  0  0
 21 22  2  0  0  0  0
 22 23  1  0  0  0  0
 22259  1  0  0  0  0
 23 24  2  0  0  0  0
 23260  1  0  0  0  0
 24 25  1  0  0  0  0
 24 26  1  0  0  0  0
 25261  1  0  0  0  0
 28 29  1  0  0  0  0
 28262  1  0  0  0  0
 29 30  2  0  0  0  0
 30 31  1  0  0  0  0
 30263  1  0  0  0  0
 31 32  2  0  0  0  0
 31264  1  0  0  0  0
 32 33  1  0  0  0  0
 32 35  1  0  0  0  0
 33 34  2  0  0  0  0
 33265  1  0  0  0  0
 34 29  1  0  0  0  0
 34266  1  0  0  0  0
 36267  1  0  0  0  0
 36268  1  0  0  0  0
 36269  1  0  0  0  0
 37 36  1  0  0  0  0
 38270  1  0  0  0  0
 38271  1  0  0  0  0
 38272  1  0  0  0  0
 41273  1  0  0  0  0
 41274  1  0  0  0  0
 41275  1  0  0  0  0
 44 43  1  0  0  0  0
 45 44  1  1  0  0  0
 45 56  1  0  0  0  0
 45 51  1  0  0  0  0
 45 46  1  0  0  0  0
 46 42  1  6  0  0  0
 46 47  1  0  0  0  0
 47 48  1  0  0  0  0
 48 41  1  1  0  0  0
 48 43  1  0  0  0  0
 48 49  1  0  0  0  0
 49276  1  0  0  0  0
 49277  1  0  0  0  0
 50 49  1  0  0  0  0
 50278  1  0  0  0  0
 50279  1  0  0  0  0
 51 40  1  1  0  0  0
 51 50  1  0  0  0  0
 52280  1  0  0  0  0
 52281  1  0  0  0  0
 52282  1  0  0  0  0
 53 51  1  0  0  0  0
 53 52  1  0  0  0  0
 53283  1  6  0  0  0
 54 53  1  0  0  0  0
 54284  1  0  0  0  0
 54285  1  0  0  0  0
 55 54  1  0  0  0  0
 55286  1  0  0  0  0
 55287  1  0  0  0  0
 56 39  1  1  0  0  0
 56 55  1  0  0  0  0
 57 38  1  0  0  0  0
 57 56  1  0  0  0  0
 57288  1  1  0  0  0
 58 57  1  0  0  0  0
 58289  1  6  0  0  0
 58 37  1  0  0  0  0
 59 46  1  0  0  0  0
 59 58  1  0  0  0  0
 60 61  1  0  0  0  0
 60 62  1  0  0  0  0
 60 78  1  0  0  0  0
 60290  1  0  0  0  0
 61 63  1  0  0  0  0
 61291  1  0  0  0  0
 61292  1  0  0  0  0
 62293  1  0  0  0  0
 63 64  1  0  0  0  0
 63 66  1  0  0  0  0
 64 65  1  0  0  0  0
 64294  1  0  0  0  0
 64295  1  0  0  0  0
 65 70  1  0  0  0  0
 65296  1  0  0  0  0
 65297  1  0  0  0  0
 66 67  1  0  0  0  0
 66298  1  0  0  0  0
 66299  1  0  0  0  0
 67 68  1  0  0  0  0
 67300  1  0  0  0  0
 67301  1  0  0  0  0
 68 69  1  0  0  0  0
 68302  1  0  0  0  0
 68303  1  0  0  0  0
 69304  1  0  0  0  0
 69305  1  0  0  0  0
 69306  1  0  0  0  0
 70 71  1  0  0  0  0
 70307  1  0  0  0  0
 70308  1  0  0  0  0
 71309  1  0  0  0  0
 71310  1  0  0  0  0
 71311  1  0  0  0  0
 72 74  1  0  0  0  0
 72 87  2  0  0  0  0
 73 74  2  0  0  0  0
 73 80  1  0  0  0  0
 74 75  1  0  0  0  0
 75 76  2  0  0  0  0
 75312  1  0  0  0  0
 76 86  1  0  0  0  0
 76 77  1  0  0  0  0
 77 78  2  0  0  0  0
 77313  1  0  0  0  0
 78 73  1  0  0  0  0
 79 72  1  0  0  0  0
 79 80  1  0  0  0  0
 79 84  2  0  0  0  0
 80 81  2  0  0  0  0
 81 82  1  0  0  0  0
 81314  1  0  0  0  0
 82 83  2  0  0  0  0
 82315  1  0  0  0  0
 83 84  1  0  0  0  0
 83 85  1  0  0  0  0
 84316  1  0  0  0  0
 87 88  1  0  0  0  0
 87317  1  0  0  0  0
 88 89  2  0  0  0  0
 89 90  1  0  0  0  0
 89318  1  0  0  0  0
 90 91  2  0  0  0  0
 90319  1  0  0  0  0
 91 92  1  0  0  0  0
 91 94  1  0  0  0  0
 92 93  2  0  0  0  0
 92320  1  0  0  0  0
 93 88  1  0  0  0  0
 93321  1  0  0  0  0
 95 96  1  0  0  0  0
 95 97  1  0  0  0  0
 95113  1  0  0  0  0
 95322  1  0  0  0  0
 96 98  1  0  0  0  0
 96323  1  0  0  0  0
 96324  1  0  0  0  0
 97325  1  0  0  0  0
 98 99  1  0  0  0  0
 98101  1  0  0  0  0
 99100  1  0  0  0  0
 99326  1  0  0  0  0
 99327  1  0  0  0  0
100105  1  0  0  0  0
100328  1  0  0  0  0
100329  1  0  0  0  0
101102  1  0  0  0  0
101330  1  0  0  0  0
101331  1  0  0  0  0
102103  1  0  0  0  0
102332  1  0  0  0  0
102333  1  0  0  0  0
103104  1  0  0  0  0
103334  1  0  0  0  0
103335  1  0  0  0  0
104336  1  0  0  0  0
104337  1  0  0  0  0
104338  1  0  0  0  0
105106  1  0  0  0  0
105339  1  0  0  0  0
105340  1  0  0  0  0
106341  1  0  0  0  0
106342  1  0  0  0  0
106343  1  0  0  0  0
107109  1  0  0  0  0
107122  2  0  0  0  0
108109  2  0  0  0  0
108115  1  0  0  0  0
109110  1  0  0  0  0
110111  2  0  0  0  0
110344  1  0  0  0  0
111121  1  0  0  0  0
111112  1  0  0  0  0
112113  2  0  0  0  0
112345  1  0  0  0  0
113108  1  0  0  0  0
114107  1  0  0  0  0
114115  1  0  0  0  0
114119  2  0  0  0  0
115116  2  0  0  0  0
116117  1  0  0  0  0
116346  1  0  0  0  0
117118  2  0  0  0  0
117347  1  0  0  0  0
118119  1  0  0  0  0
118120  1  0  0  0  0
119348  1  0  0  0  0
122123  1  0  0  0  0
122349  1  0  0  0  0
123124  2  0  0  0  0
124125  1  0  0  0  0
124350  1  0  0  0  0
125126  2  0  0  0  0
125351  1  0  0  0  0
126127  1  0  0  0  0
126129  1  0  0  0  0
127128  2  0  0  0  0
127352  1  0  0  0  0
128123  1  0  0  0  0
128353  1  0  0  0  0
130131  1  0  0  0  0
130132  1  0  0  0  0
130148  1  0  0  0  0
130354  1  0  0  0  0
131133  1  0  0  0  0
131355  1  0  0  0  0
131356  1  0  0  0  0
132357  1  0  0  0  0
133134  1  0  0  0  0
133136  1  0  0  0  0
134135  1  0  0  0  0
134358  1  0  0  0  0
134359  1  0  0  0  0
135140  1  0  0  0  0
135360  1  0  0  0  0
135361  1  0  0  0  0
136137  1  0  0  0  0
136362  1  0  0  0  0
136363  1  0  0  0  0
137138  1  0  0  0  0
137364  1  0  0  0  0
137365  1  0  0  0  0
138139  1  0  0  0  0
138366  1  0  0  0  0
138367  1  0  0  0  0
139368  1  0  0  0  0
139369  1  0  0  0  0
139370  1  0  0  0  0
140141  1  0  0  0  0
140371  1  0  0  0  0
140372  1  0  0  0  0
141373  1  0  0  0  0
141374  1  0  0  0  0
141375  1  0  0  0  0
142144  1  0  0  0  0
142157  2  0  0  0  0
143144  2  0  0  0  0
143150  1  0  0  0  0
144145  1  0  0  0  0
145146  2  0  0  0  0
145376  1  0  0  0  0
146156  1  0  0  0  0
146147  1  0  0  0  0
147148  2  0  0  0  0
147377  1  0  0  0  0
148143  1  0  0  0  0
149142  1  0  0  0  0
149150  1  0  0  0  0
149154  2  0  0  0  0
150151  2  0  0  0  0
151152  1  0  0  0  0
151378  1  0  0  0  0
152153  2  0  0  0  0
152379  1  0  0  0  0
153154  1  0  0  0  0
153155  1  0  0  0  0
154380  1  0  0  0  0
157158  1  0  0  0  0
157381  1  0  0  0  0
158159  2  0  0  0  0
159160  1  0  0  0  0
159382  1  0  0  0  0
160161  2  0  0  0  0
160383  1  0  0  0  0
161162  1  0  0  0  0
161164  1  0  0  0  0
162163  2  0  0  0  0
162384  1  0  0  0  0
163158  1  0  0  0  0
163385  1  0  0  0  0
165166  1  0  0  0  0
165167  1  0  0  0  0
165183  1  0  0  0  0
165386  1  0  0  0  0
166168  1  0  0  0  0
166387  1  0  0  0  0
166388  1  0  0  0  0
167389  1  0  0  0  0
168169  1  0  0  0  0
168171  1  0  0  0  0
169170  1  0  0  0  0
169390  1  0  0  0  0
169391  1  0  0  0  0
170175  1  0  0  0  0
170392  1  0  0  0  0
170393  1  0  0  0  0
171172  1  0  0  0  0
171394  1  0  0  0  0
171395  1  0  0  0  0
172173  1  0  0  0  0
172396  1  0  0  0  0
172397  1  0  0  0  0
173174  1  0  0  0  0
173398  1  0  0  0  0
173399  1  0  0  0  0
174400  1  0  0  0  0
174401  1  0  0  0  0
174402  1  0  0  0  0
175176  1  0  0  0  0
175403  1  0  0  0  0
175404  1  0  0  0  0
176405  1  0  0  0  0
176406  1  0  0  0  0
176407  1  0  0  0  0
177179  1  0  0  0  0
177192  2  0  0  0  0
178179  2  0  0  0  0
178185  1  0  0  0  0
179180  1  0  0  0  0
180181  2  0  0  0  0
180408  1  0  0  0  0
181191  1  0  0  0  0
181182  1  0  0  0  0
182183  2  0  0  0  0
182409  1  0  0  0  0
183178  1  0  0  0  0
184177  1  0  0  0  0
184185  1  0  0  0  0
184189  2  0  0  0  0
185186  2  0  0  0  0
186187  1  0  0  0  0
186410  1  0  0  0  0
187188  2  0  0  0  0
187411  1  0  0  0  0
188189  1  0  0  0  0
188190  1  0  0  0  0
189412  1  0  0  0  0
192193  1  0  0  0  0
192413  1  0  0  0  0
193194  2  0  0  0  0
194195  1  0  0  0  0
194414  1  0  0  0  0
195196  2  0  0  0  0
195415  1  0  0  0  0
196197  1  0  0  0  0
196199  1  0  0  0  0
197198  2  0  0  0  0
197416  1  0  0  0  0
198193  1  0  0  0  0
198417  1  0  0  0  0
200201  1  0  0  0  0
200202  1  0  0  0  0
200218  1  0  0  0  0
200418  1  0  0  0  0
201203  1  0  0  0  0
201419  1  0  0  0  0
201420  1  0  0  0  0
202421  1  0  0  0  0
203204  1  0  0  0  0
203206  1  0  0  0  0
204205  1  0  0  0  0
204422  1  0  0  0  0
204423  1  0  0  0  0
205210  1  0  0  0  0
205424  1  0  0  0  0
205425  1  0  0  0  0
206207  1  0  0  0  0
206426  1  0  0  0  0
206427  1  0  0  0  0
207208  1  0  0  0  0
207428  1  0  0  0  0
207429  1  0  0  0  0
208209  1  0  0  0  0
208430  1  0  0  0  0
208431  1  0  0  0  0
209432  1  0  0  0  0
209433  1  0  0  0  0
209434  1  0  0  0  0
210211  1  0  0  0  0
210435  1  0  0  0  0
210436  1  0  0  0  0
211437  1  0  0  0  0
211438  1  0  0  0  0
211439  1  0  0  0  0
212214  1  0  0  0  0
212227  2  0  0  0  0
213214  2  0  0  0  0
213220  1  0  0  0  0
214215  1  0  0  0  0
215216  2  0  0  0  0
215440  1  0  0  0  0
216226  1  0  0  0  0
216217  1  0  0  0  0
217218  2  0  0  0  0
217441  1  0  0  0  0
218213  1  0  0  0  0
219212  1  0  0  0  0
219220  1  0  0  0  0
219224  2  0  0  0  0
220221  2  0  0  0  0
221222  1  0  0  0  0
221442  1  0  0  0  0
222223  2  0  0  0  0
222443  1  0  0  0  0
223224  1  0  0  0  0
223225  1  0  0  0  0
224444  1  0  0  0  0
227228  1  0  0  0  0
227445  1  0  0  0  0
228229  2  0  0  0  0
229230  1  0  0  0  0
229446  1  0  0  0  0
230231  2  0  0  0  0
230447  1  0  0  0  0
231232  1  0  0  0  0
231234  1  0  0  0  0
232233  2  0  0  0  0
232448  1  0  0  0  0
233228  1  0  0  0  0
233449  1  0  0  0  0
M  END
>  <DRUGBANK_ID>
DB13085

>  <COMMON_NAME>
Lumefantrine co-artemether

>  <CAS_NUMBER>
141204-94-6

>  <UNII>
5T2U51A0MW

>  <SYNONYMS>
Artemether/lumefantrine; Lumefantrine co-artemether

$$$$
