
 OpenBabel10282417143D

 42 45  0  0  1  0  0  0  0  0999 V2000
   -0.3048   -1.0236    0.0352 N   0  0  0  0  0  0  0  0  0  0  0  0
    0.9436    0.8159    0.0539 N   0  0  0  0  0  0  0  0  0  0  0  0
   -0.6696   -2.4495    0.0037 C   0  0  3  0  0  0  0  0  0  0  0  0
   -0.2105   -3.0884   -1.3006 C   0  0  0  0  0  0  0  0  0  0  0  0
   -0.2416   -3.2106    1.2627 C   0  0  0  0  0  0  0  0  0  0  0  0
    1.1622   -3.2374   -1.5789 C   0  0  0  0  0  0  0  0  0  0  0  0
   -1.1425   -3.6487   -2.1816 C   0  0  0  0  0  0  0  0  0  0  0  0
    0.6721   -4.4312   -3.6014 C   0  0  0  0  0  0  0  0  0  0  0  0
   -0.5941   -2.7259    2.5310 C   0  0  0  0  0  0  0  0  0  0  0  0
    0.4093   -4.4613    1.1974 C   0  0  0  0  0  0  0  0  0  0  0  0
    1.6006   -3.9016   -2.7100 C   0  0  0  0  0  0  0  0  0  0  0  0
   -0.6982   -4.3372   -3.3077 C   0  0  0  0  0  0  0  0  0  0  0  0
   -1.1780    0.0355   -0.0007 C   0  0  0  0  0  0  0  0  0  0  0  0
    0.9577   -0.5017    0.0939 C   0  0  0  0  0  0  0  0  0  0  0  0
    1.1224   -4.9947   -4.8655 C   0  0  0  0  0  0  0  0  0  0  0  0
   -0.3145   -3.4710    3.6790 C   0  0  0  0  0  0  0  0  0  0  0  0
    0.6739   -5.2095    2.3391 C   0  0  0  0  0  0  0  0  0  0  0  0
   -0.3770    1.1569    0.0050 C   0  0  0  0  0  0  0  0  0  0  0  0
    0.3107   -4.7132    3.5815 C   0  0  0  0  0  0  0  0  0  0  0  0
    1.9831   -6.0972   -4.9166 C   0  0  0  0  0  0  0  0  0  0  0  0
    0.7085   -4.3905   -6.0615 C   0  0  0  0  0  0  0  0  0  0  0  0
    2.4031   -6.5978   -6.1474 C   0  0  0  0  0  0  0  0  0  0  0  0
    1.1004   -4.9098   -7.2888 C   0  0  0  0  0  0  0  0  0  0  0  0
    1.9556   -6.0077   -7.3299 C   0  0  0  0  0  0  0  0  0  0  0  0
   -1.7708   -2.4667    0.0140 H   0  0  0  0  0  0  0  0  0  0  0  0
    1.9195   -2.8940   -0.8816 H   0  0  0  0  0  0  0  0  0  0  0  0
   -2.2122   -3.5726   -1.9986 H   0  0  0  0  0  0  0  0  0  0  0  0
   -1.1044   -1.7700    2.6379 H   0  0  0  0  0  0  0  0  0  0  0  0
    0.7157   -4.9046    0.2533 H   0  0  0  0  0  0  0  0  0  0  0  0
    2.6692   -3.9892   -2.8909 H   0  0  0  0  0  0  0  0  0  0  0  0
   -1.4257   -4.8029   -3.9702 H   0  0  0  0  0  0  0  0  0  0  0  0
   -2.2501   -0.0827   -0.0275 H   0  0  0  0  0  0  0  0  0  0  0  0
    1.8488   -1.1004    0.1601 H   0  0  0  0  0  0  0  0  0  0  0  0
   -0.6024   -3.0880    4.6539 H   0  0  0  0  0  0  0  0  0  0  0  0
    1.1447   -6.1843    2.2422 H   0  0  0  0  0  0  0  0  0  0  0  0
   -0.6802    2.1948   -0.0172 H   0  0  0  0  0  0  0  0  0  0  0  0
    0.5098   -5.3001    4.4727 H   0  0  0  0  0  0  0  0  0  0  0  0
    2.3274   -6.5686   -3.9984 H   0  0  0  0  0  0  0  0  0  0  0  0
    0.0855   -3.4978   -6.0297 H   0  0  0  0  0  0  0  0  0  0  0  0
    3.0737   -7.4512   -6.1825 H   0  0  0  0  0  0  0  0  0  0  0  0
    0.7387   -4.4528   -8.2047 H   0  0  0  0  0  0  0  0  0  0  0  0
    2.2791   -6.4010   -8.2887 H   0  0  0  0  0  0  0  0  0  0  0  0
  1  3  1  0  0  0  0
  1 13  1  0  0  0  0
  1 14  1  0  0  0  0
  2 14  2  0  0  0  0
  2 18  1  0  0  0  0
  3  4  1  0  0  0  0
  3  5  1  0  0  0  0
  3 25  1  0  0  0  0
  4  6  2  0  0  0  0
  4  7  1  0  0  0  0
  5  9  2  0  0  0  0
  5 10  1  0  0  0  0
  6 11  1  0  0  0  0
  6 26  1  0  0  0  0
  7 12  2  0  0  0  0
  7 27  1  0  0  0  0
  8 11  2  0  0  0  0
  8 12  1  0  0  0  0
  8 15  1  0  0  0  0
  9 16  1  0  0  0  0
  9 28  1  0  0  0  0
 10 17  2  0  0  0  0
 10 29  1  0  0  0  0
 11 30  1  0  0  0  0
 12 31  1  0  0  0  0
 13 18  2  0  0  0  0
 13 32  1  0  0  0  0
 14 33  1  0  0  0  0
 15 20  2  0  0  0  0
 15 21  1  0  0  0  0
 16 19  2  0  0  0  0
 16 34  1  0  0  0  0
 17 19  1  0  0  0  0
 17 35  1  0  0  0  0
 18 36  1  0  0  0  0
 19 37  1  0  0  0  0
 20 22  1  0  0  0  0
 20 38  1  0  0  0  0
 21 23  2  0  0  0  0
 21 39  1  0  0  0  0
 22 24  2  0  0  0  0
 22 40  1  0  0  0  0
 23 24  1  0  0  0  0
 23 41  1  0  0  0  0
 24 42  1  0  0  0  0
M  END
>  <DRUGBANK_ID>
DB04794

>  <COMMON_NAME>
Bifonazole

>  <CAS_NUMBER>
60628-96-8

>  <UNII>
QYJ305Z91O

>  <SYNONYMS>
(+-)-1-(p,alpha-Diphenylbenzyl)imidazole; 1-((4-Biphenylyl)phenylmethyl)-1H-imidazole; 1-(alpha-(4-Biphenylyl)benzyl)imidazole; 1-(p,alpha-Diphenylbenzyl)imidazole; 1-[biphenyl-4-yl(phenyl)methyl]imidazole; Bifonazol; Bifonazole; Bifonazolum

$$$$
