
 OpenBabel10282417193D

 50 52  0  0  1  0  0  0  0  0999 V2000
    1.0660   -0.0751   -0.0034 H   0  0  0  0  0  0  0  0  0  0  0  0
    2.1360   -0.0751   -0.0034 C   0  0  0  0  0  0  0  0  0  0  0  0
    2.4926    0.9300   -0.0896 H   0  0  0  0  0  0  0  0  0  0  0  0
    2.4926   -0.5029    0.9102 H   0  0  0  0  0  0  0  0  0  0  0  0
    2.6093   -0.8412   -1.1013 O   0  0  0  0  0  0  0  0  0  0  0  0
    4.0054   -0.9897   -1.3141 C   0  0  0  0  0  0  0  0  0  0  0  0
    4.8437   -1.2800   -0.2536 C   0  0  0  0  0  0  0  0  0  0  0  0
    6.2094   -1.4374   -0.4539 C   0  0  0  0  0  0  0  0  0  0  0  0
    6.7327   -1.2819   -1.7207 C   0  0  0  0  0  0  0  0  0  0  0  0
    5.8968   -0.9867   -2.7868 C   0  0  0  0  0  0  0  0  0  0  0  0
    4.5352   -0.8414   -2.5923 C   0  0  0  0  0  0  0  0  0  0  0  0
    3.6840   -0.5431   -3.6891 O   0  0  0  0  0  0  0  0  0  0  0  0
    2.2868   -0.3950   -3.4837 C   0  0  0  0  0  0  0  0  0  0  0  0
    1.8865   -1.3039   -3.0856 H   0  0  0  0  0  0  0  0  0  0  0  0
    2.1103    0.4044   -2.7947 H   0  0  0  0  0  0  0  0  0  0  0  0
    1.8107   -0.1739   -4.4161 H   0  0  0  0  0  0  0  0  0  0  0  0
    8.2085   -1.4178   -1.9845 C   0  0  2  0  0  0  0  0  0  0  0  0
    8.4817   -2.0374   -3.3353 C   0  0  0  0  0  0  0  0  0  0  0  0
    8.8814   -3.4890   -3.1988 C   0  0  0  0  0  0  0  0  0  0  0  0
    8.3560   -4.4094   -3.9003 O   0  0  0  0  0  0  0  0  0  0  0  0
    9.9291   -3.7606   -2.1887 C   0  0  2  0  0  0  0  0  0  0  0  0
    9.7380   -3.0477   -0.9045 C   0  0  0  0  0  0  0  0  0  0  0  0
    8.8741   -2.0208   -0.8479 N   0  0  3  0  0  0  0  0  0  0  0  0
    8.5328   -1.4705    0.4831 C   0  0  0  0  0  0  0  0  0  0  0  0
    7.0587   -1.7776    0.7429 C   0  0  0  0  0  0  0  0  0  0  0  0
   11.2701   -3.3430   -2.7699 C   0  0  0  0  0  0  0  0  0  0  0  0
   11.0691   -2.9051   -4.2115 C   0  0  0  0  0  0  0  0  0  0  0  0
   10.1000   -1.7349   -4.2551 C   0  0  0  0  0  0  0  0  0  0  0  0
   12.4034   -2.4803   -4.8027 C   0  0  0  0  0  0  0  0  0  0  0  0
    4.4368   -1.3843    0.7305 H   0  0  0  0  0  0  0  0  0  0  0  0
    6.3084   -0.8705   -3.7676 H   0  0  0  0  0  0  0  0  0  0  0  0
    8.6559   -0.4497   -2.0712 H   0  0  0  0  0  0  0  0  0  0  0  0
    9.2878   -1.5054   -3.7959 H   0  0  0  0  0  0  0  0  0  0  0  0
    7.5973   -1.9735   -3.9341 H   0  0  0  0  0  0  0  0  0  0  0  0
    9.8784   -4.8065   -1.9686 H   0  0  0  0  0  0  0  0  0  0  0  0
    9.2987   -3.7857   -0.2664 H   0  0  0  0  0  0  0  0  0  0  0  0
   10.6947   -2.6679   -0.6123 H   0  0  0  0  0  0  0  0  0  0  0  0
    9.1483   -1.9083    1.2411 H   0  0  0  0  0  0  0  0  0  0  0  0
    8.6929   -0.4125    0.4930 H   0  0  0  0  0  0  0  0  0  0  0  0
    6.9614   -2.8250    0.9392 H   0  0  0  0  0  0  0  0  0  0  0  0
    6.7254   -1.2027    1.5815 H   0  0  0  0  0  0  0  0  0  0  0  0
   11.6687   -2.5284   -2.2020 H   0  0  0  0  0  0  0  0  0  0  0  0
   11.9523   -4.1667   -2.7391 H   0  0  0  0  0  0  0  0  0  0  0  0
   10.6705   -3.7197   -4.7794 H   0  0  0  0  0  0  0  0  0  0  0  0
   10.4986   -0.9204   -3.6872 H   0  0  0  0  0  0  0  0  0  0  0  0
    9.9585   -1.4267   -5.2699 H   0  0  0  0  0  0  0  0  0  0  0  0
    9.1607   -2.0340   -3.8389 H   0  0  0  0  0  0  0  0  0  0  0  0
   13.0856   -3.3040   -4.7720 H   0  0  0  0  0  0  0  0  0  0  0  0
   12.2619   -2.1720   -5.8175 H   0  0  0  0  0  0  0  0  0  0  0  0
   12.8020   -1.6657   -4.2348 H   0  0  0  0  0  0  0  0  0  0  0  0
  1  2  1  0  0  0  0
  2  3  1  0  0  0  0
  2  4  1  0  0  0  0
  2  5  1  0  0  0  0
  5  6  1  0  0  0  0
  6  7  2  0  0  0  0
  6 11  1  0  0  0  0
  7  8  1  0  0  0  0
  7 30  1  0  0  0  0
  8  9  2  0  0  0  0
  8 25  1  0  0  0  0
  9 10  1  0  0  0  0
  9 17  1  0  0  0  0
 10 11  2  0  0  0  0
 10 31  1  0  0  0  0
 11 12  1  0  0  0  0
 12 13  1  0  0  0  0
 13 14  1  0  0  0  0
 13 15  1  0  0  0  0
 13 16  1  0  0  0  0
 17 18  1  0  0  0  0
 17 23  1  0  0  0  0
 17 32  1  6  0  0  0
 18 19  1  0  0  0  0
 18 33  1  0  0  0  0
 18 34  1  0  0  0  0
 19 20  2  0  0  0  0
 19 21  1  0  0  0  0
 21 22  1  0  0  0  0
 21 35  1  1  0  0  0
 21 26  1  0  0  0  0
 22 23  1  0  0  0  0
 22 36  1  0  0  0  0
 22 37  1  0  0  0  0
 23 24  1  0  0  0  0
 24 25  1  0  0  0  0
 24 38  1  0  0  0  0
 24 39  1  0  0  0  0
 25 40  1  0  0  0  0
 25 41  1  0  0  0  0
 26 27  1  0  0  0  0
 26 42  1  0  0  0  0
 26 43  1  0  0  0  0
 27 28  1  0  0  0  0
 27 29  1  0  0  0  0
 27 44  1  0  0  0  0
 28 45  1  0  0  0  0
 28 46  1  0  0  0  0
 28 47  1  0  0  0  0
 29 48  1  0  0  0  0
 29 49  1  0  0  0  0
 29 50  1  0  0  0  0
M  ISO  6   1   2   3   2   4   2  14   2  15   2  16   2
M  END
>  <DRUGBANK_ID>
DB12161

>  <COMMON_NAME>
Deutetrabenazine

>  <CAS_NUMBER>
1392826-25-3

>  <UNII>
P341G6W9NB

>  <SYNONYMS>
D6 tetrabenazine; D6-tetrabenazine; Deutetrabenazine; Tetrabenazine D6; Tetrabenazine-D6

$$$$
