
 OpenBabel10282417223D

 35 36  0  0  1  0  0  0  0  0999 V2000
    1.0330   -1.1955   -0.0383 C   0  0  0  0  0  0  0  0  0  0  0  0
    0.1468    0.0383    0.0084 C   0  0  0  0  0  0  0  0  0  0  0  0
    0.9297    1.3277    0.0032 C   0  0  0  0  0  0  0  0  0  0  0  0
   -1.1474    0.0808    0.7859 C   0  0  2  0  0  0  0  0  0  0  0  0
   -1.6389   -0.9448    1.7256 C   0  0  0  0  0  0  0  0  0  0  0  0
   -2.2562   -0.6653    2.8930 C   0  0  0  0  0  0  0  0  0  0  0  0
   -2.8374   -1.9039    3.9461 Cl  0  0  0  0  0  0  0  0  0  0  0  0
   -2.5245    0.9651    3.4319 Cl  0  0  0  0  0  0  0  0  0  0  0  0
   -1.1966   -0.0814   -0.7142 C   0  0  1  0  0  0  0  0  0  0  0  0
   -2.0297    0.9186   -1.4588 C   0  0  0  0  0  0  0  0  0  0  0  0
   -3.0836    0.5391   -1.9640 O   0  0  0  0  0  0  0  0  0  0  0  0
   -1.5480    2.1936   -1.5598 O   0  0  0  0  0  0  0  0  0  0  0  0
   -2.2820    3.0651   -2.4679 C   0  0  0  0  0  0  0  0  0  0  0  0
   -1.7000    3.0068   -3.8633 C   0  0  0  0  0  0  0  0  0  0  0  0
   -1.3301    4.1632   -4.5613 C   0  0  0  0  0  0  0  0  0  0  0  0
   -1.4973    5.3710   -4.0015 F   0  0  0  0  0  0  0  0  0  0  0  0
   -0.7697    4.0877   -5.8466 C   0  0  0  0  0  0  0  0  0  0  0  0
   -0.4028    5.2057   -6.4870 F   0  0  0  0  0  0  0  0  0  0  0  0
   -0.5709    2.8668   -6.4761 C   0  0  0  0  0  0  0  0  0  0  0  0
   -0.9529    1.7236   -5.8083 C   0  0  0  0  0  0  0  0  0  0  0  0
   -0.7679    0.5239   -6.3738 F   0  0  0  0  0  0  0  0  0  0  0  0
   -1.5147    1.7929   -4.5398 C   0  0  0  0  0  0  0  0  0  0  0  0
   -1.8453    0.6221   -3.9943 F   0  0  0  0  0  0  0  0  0  0  0  0
    0.5348   -2.0994    0.3244 H   0  0  0  0  0  0  0  0  0  0  0  0
    1.3567   -1.3864   -1.0688 H   0  0  0  0  0  0  0  0  0  0  0  0
    1.9371   -1.0598    0.5668 H   0  0  0  0  0  0  0  0  0  0  0  0
    1.1894    1.6197   -1.0164 H   0  0  0  0  0  0  0  0  0  0  0  0
    0.3699    2.1450    0.4696 H   0  0  0  0  0  0  0  0  0  0  0  0
    1.8555    1.2213    0.5808 H   0  0  0  0  0  0  0  0  0  0  0  0
   -1.4035    1.0792    1.1274 H   0  0  0  0  0  0  0  0  0  0  0  0
   -1.5207   -1.9970    1.4626 H   0  0  0  0  0  0  0  0  0  0  0  0
   -1.3506   -1.0693   -1.1451 H   0  0  0  0  0  0  0  0  0  0  0  0
   -3.3614    2.8514   -2.4829 H   0  0  0  0  0  0  0  0  0  0  0  0
   -2.2060    4.0876   -2.0679 H   0  0  0  0  0  0  0  0  0  0  0  0
   -0.1282    2.7948   -7.4612 H   0  0  0  0  0  0  0  0  0  0  0  0
  1  2  1  0  0  0  0
  1 24  1  0  0  0  0
  1 25  1  0  0  0  0
  1 26  1  0  0  0  0
  2  3  1  0  0  0  0
  3 27  1  0  0  0  0
  3 28  1  0  0  0  0
  3 29  1  0  0  0  0
  4  2  1  0  0  0  0
  4  5  1  0  0  0  0
  4  9  1  0  0  0  0
  4 30  1  1  0  0  0
  5  6  2  0  0  0  0
  5 31  1  0  0  0  0
  6  7  1  0  0  0  0
  6  8  1  0  0  0  0
  9  2  1  0  0  0  0
  9 10  1  0  0  0  0
  9 32  1  6  0  0  0
 10 11  2  0  0  0  0
 10 12  1  0  0  0  0
 12 13  1  0  0  0  0
 13 14  1  0  0  0  0
 13 33  1  0  0  0  0
 13 34  1  0  0  0  0
 14 15  2  0  0  0  0
 14 22  1  0  0  0  0
 15 16  1  0  0  0  0
 15 17  1  0  0  0  0
 17 18  1  0  0  0  0
 17 19  2  0  0  0  0
 19 20  1  0  0  0  0
 19 35  1  0  0  0  0
 20 21  1  0  0  0  0
 20 22  2  0  0  0  0
 22 23  1  0  0  0  0
M  END
>  <DRUGBANK_ID>
DB15117

>  <COMMON_NAME>
Transfluthrin

>  <CAS_NUMBER>
118712-89-3

>  <UNII>
QWL3SKA6EG

>  <SYNONYMS>
Transfluthrin

$$$$
