
 OpenBabel10282417183D

 86 86  0  0  0  0  0  0  0  0999 V2000
    4.6709  -13.9266    1.8644 N   0  0  0  0  0  0  0  0  0  0  0  0
    4.7625  -13.1141    3.0709 C   0  0  0  0  0  0  0  0  0  0  0  0
    4.6772  -14.1030    4.1949 C   0  0  0  0  0  0  0  0  0  0  0  0
    3.8507  -15.2737    3.6499 C   0  0  0  0  0  0  0  0  0  0  0  0
    3.9566  -15.1907    2.1283 C   0  0  1  0  0  0  0  0  0  0  0  0
    2.5406  -15.2654    1.4469 C   0  0  0  0  0  0  0  0  0  0  0  0
    2.1902  -16.2756    0.8265 O   0  0  0  0  0  0  0  0  0  0  0  0
    1.5874  -14.2792    1.6083 N   0  0  0  0  0  0  0  0  0  0  0  0
    1.7133  -13.0157    2.3043 C   0  0  2  0  0  0  0  0  0  0  0  0
    1.4405  -12.9912    3.8667 C   0  0  0  0  0  0  0  0  0  0  0  0
    1.0224  -11.8411    1.6513 C   0  0  0  0  0  0  0  0  0  0  0  0
    0.5168  -12.1238    4.3561 N   0  0  0  0  0  0  0  0  0  0  0  0
    1.9600  -13.6613    4.7275 O   0  0  0  0  0  0  0  0  0  0  0  0
    5.3151  -13.7432    0.6558 C   0  0  0  0  0  0  0  0  0  0  0  0
    5.2988  -14.6227   -0.2124 O   0  0  0  0  0  0  0  0  0  0  0  0
    6.0933  -12.4256    0.3826 C   0  0  1  0  0  0  0  0  0  0  0  0
    5.1593  -11.2775    0.4185 N   0  0  0  0  0  0  0  0  0  0  0  0
    5.2228  -10.3124    1.3881 C   0  0  0  0  0  0  0  0  0  0  0  0
    7.3690  -12.2788    1.2534 C   0  0  0  0  0  0  0  0  0  0  0  0
    8.2760  -13.4936    1.2370 C   0  0  0  0  0  0  0  0  0  0  0  0
    8.1807  -11.0123    0.9359 C   0  0  0  0  0  0  0  0  0  0  0  0
    4.2817   -9.1378    1.3425 C   0  0  3  0  0  0  0  0  0  0  0  0
    6.0469  -10.3362    2.2958 O   0  0  0  0  0  0  0  0  0  0  0  0
    3.6361   -9.0436    2.7568 C   0  0  1  0  0  0  0  0  0  0  0  0
    4.6264   -8.8154    3.9269 C   0  0  0  0  0  0  0  0  0  0  0  0
    4.9851   -7.8948    1.0067 N   0  0  0  0  0  0  0  0  0  0  0  0
    4.5592   -7.1148   -0.0412 C   0  0  0  0  0  0  0  0  0  0  0  0
    2.5848   -7.9312    2.8018 C   0  0  0  0  0  0  0  0  0  0  0  0
    1.4967   -8.0953    1.7560 C   0  0  0  0  0  0  0  0  0  0  0  0
    5.2103   -5.7184   -0.1741 C   0  0  2  0  0  0  0  0  0  0  0  0
    3.7428   -7.5322   -0.8643 O   0  0  0  0  0  0  0  0  0  0  0  0
    4.1898   -4.7733   -0.8651 C   0  0  0  0  0  0  0  0  0  0  0  0
    6.4824   -5.8755   -0.9011 N   0  0  0  0  0  0  0  0  0  0  0  0
    4.6148   -4.2065   -2.2201 C   0  0  0  0  0  0  0  0  0  0  0  0
    4.8136   -5.2359   -3.3281 C   0  0  0  0  0  0  0  0  0  0  0  0
    3.5795   -5.9546   -3.5920 N   0  0  0  0  0  0  0  0  0  0  0  0
    3.2067   -6.1728   -4.8683 C   0  0  0  0  0  0  0  0  0  0  0  0
    2.1345   -6.9583   -5.0226 N   0  0  0  0  0  0  0  0  0  0  0  0
    3.8157   -5.6260   -5.8588 N   0  0  0  0  0  0  0  0  0  0  0  0
    3.9754  -12.3696    3.1537 H   0  0  0  0  0  0  0  0  0  0  0  0
    5.6336  -12.5019    3.1590 H   0  0  0  0  0  0  0  0  0  0  0  0
    5.6936  -14.4356    4.4186 H   0  0  0  0  0  0  0  0  0  0  0  0
    4.2858  -13.6230    5.0961 H   0  0  0  0  0  0  0  0  0  0  0  0
    4.2091  -16.2084    4.0862 H   0  0  0  0  0  0  0  0  0  0  0  0
    2.7970  -15.2917    3.9061 H   0  0  0  0  0  0  0  0  0  0  0  0
    4.5534  -16.0391    1.7667 H   0  0  0  0  0  0  0  0  0  0  0  0
    0.7408  -14.4577    1.0825 H   0  0  0  0  0  0  0  0  0  0  0  0
    2.7166  -12.7369    2.0685 H   0  0  0  0  0  0  0  0  0  0  0  0
    1.3243  -10.9544    2.2154 H   0  0  0  0  0  0  0  0  0  0  0  0
    1.3475  -11.6817    0.6216 H   0  0  0  0  0  0  0  0  0  0  0  0
   -0.0602  -11.9367    1.6997 H   0  0  0  0  0  0  0  0  0  0  0  0
    0.3998  -12.1752    5.3613 H   0  0  0  0  0  0  0  0  0  0  0  0
   -0.0260  -11.4733    3.8224 H   0  0  0  0  0  0  0  0  0  0  0  0
    6.4158  -12.4814   -0.6671 H   0  0  0  0  0  0  0  0  0  0  0  0
    4.4263  -11.2570   -0.2847 H   0  0  0  0  0  0  0  0  0  0  0  0
    7.1160  -12.2164    2.3044 H   0  0  0  0  0  0  0  0  0  0  0  0
    8.7629  -13.5941    0.2682 H   0  0  0  0  0  0  0  0  0  0  0  0
    9.0388  -13.3675    2.0144 H   0  0  0  0  0  0  0  0  0  0  0  0
    7.7309  -14.4115    1.4758 H   0  0  0  0  0  0  0  0  0  0  0  0
    7.5969  -10.0930    0.8324 H   0  0  0  0  0  0  0  0  0  0  0  0
    8.8736  -10.8243    1.7633 H   0  0  0  0  0  0  0  0  0  0  0  0
    8.7125  -11.1110   -0.0056 H   0  0  0  0  0  0  0  0  0  0  0  0
    3.5311   -9.3605    0.5790 H   0  0  0  0  0  0  0  0  0  0  0  0
    3.1505  -10.0060    2.9588 H   0  0  0  0  0  0  0  0  0  0  0  0
    5.2282   -7.9152    3.7740 H   0  0  0  0  0  0  0  0  0  0  0  0
    4.0953   -8.7321    4.8774 H   0  0  0  0  0  0  0  0  0  0  0  0
    5.3116   -9.6495    4.0976 H   0  0  0  0  0  0  0  0  0  0  0  0
    5.7317   -7.5790    1.6177 H   0  0  0  0  0  0  0  0  0  0  0  0
    2.1254   -7.9170    3.7961 H   0  0  0  0  0  0  0  0  0  0  0  0
    3.0757   -6.9604    2.6667 H   0  0  0  0  0  0  0  0  0  0  0  0
    0.9466   -9.0212    1.9110 H   0  0  0  0  0  0  0  0  0  0  0  0
    0.7875   -7.2699    1.8125 H   0  0  0  0  0  0  0  0  0  0  0  0
    1.8898   -8.1115    0.7389 H   0  0  0  0  0  0  0  0  0  0  0  0
    5.4398   -5.3079    0.8169 H   0  0  0  0  0  0  0  0  0  0  0  0
    3.2084   -5.2518   -0.9853 H   0  0  0  0  0  0  0  0  0  0  0  0
    3.9842   -3.9269   -0.1948 H   0  0  0  0  0  0  0  0  0  0  0  0
    7.1793   -6.3629   -0.3456 H   0  0  0  0  0  0  0  0  0  0  0  0
    6.3116   -6.5280   -1.6676 H   0  0  0  0  0  0  0  0  0  0  0  0
    3.8467   -3.4958   -2.5540 H   0  0  0  0  0  0  0  0  0  0  0  0
    5.5313   -3.6193   -2.0901 H   0  0  0  0  0  0  0  0  0  0  0  0
    5.1749   -4.6837   -4.2016 H   0  0  0  0  0  0  0  0  0  0  0  0
    5.5947   -5.9734   -3.1702 H   0  0  0  0  0  0  0  0  0  0  0  0
    3.2860   -6.6009   -2.8628 H   0  0  0  0  0  0  0  0  0  0  0  0
    1.7147   -7.0562   -5.9341 H   0  0  0  0  0  0  0  0  0  0  0  0
    1.6296   -7.3324   -4.2345 H   0  0  0  0  0  0  0  0  0  0  0  0
    3.3685   -5.8730   -6.7345 H   0  0  0  0  0  0  0  0  0  0  0  0
  1  2  1  0  0  0  0
  1  5  1  0  0  0  0
  1 14  1  0  0  0  0
  2  3  1  0  0  0  0
  2 40  1  0  0  0  0
  2 41  1  0  0  0  0
  3  4  1  0  0  0  0
  3 42  1  0  0  0  0
  3 43  1  0  0  0  0
  4  5  1  0  0  0  0
  4 44  1  0  0  0  0
  4 45  1  0  0  0  0
  5 46  1  6  0  0  0
  5  6  1  0  0  0  0
  6  7  2  0  0  0  0
  6  8  1  0  0  0  0
  8 47  1  0  0  0  0
  9 11  1  0  0  0  0
  9 48  1  6  0  0  0
  9 10  1  0  0  0  0
  9  8  1  0  0  0  0
 10 12  1  0  0  0  0
 10 13  2  0  0  0  0
 11 49  1  0  0  0  0
 11 50  1  0  0  0  0
 11 51  1  0  0  0  0
 12 52  1  0  0  0  0
 12 53  1  0  0  0  0
 14 15  2  0  0  0  0
 14 16  1  0  0  0  0
 16 17  1  0  0  0  0
 16 19  1  0  0  0  0
 16 54  1  6  0  0  0
 17 18  1  0  0  0  0
 17 55  1  0  0  0  0
 18 22  1  0  0  0  0
 18 23  2  0  0  0  0
 19 20  1  0  0  0  0
 19 21  1  0  0  0  0
 19 56  1  0  0  0  0
 20 57  1  0  0  0  0
 20 58  1  0  0  0  0
 20 59  1  0  0  0  0
 21 60  1  0  0  0  0
 21 61  1  0  0  0  0
 21 62  1  0  0  0  0
 22 24  1  0  0  0  0
 22 26  1  0  0  0  0
 22 63  1  0  0  0  0
 24 25  1  0  0  0  0
 24 28  1  0  0  0  0
 24 64  1  1  0  0  0
 25 65  1  0  0  0  0
 25 66  1  0  0  0  0
 25 67  1  0  0  0  0
 26 27  1  0  0  0  0
 26 68  1  0  0  0  0
 27 31  2  0  0  0  0
 28 29  1  0  0  0  0
 28 69  1  0  0  0  0
 28 70  1  0  0  0  0
 29 71  1  0  0  0  0
 29 72  1  0  0  0  0
 29 73  1  0  0  0  0
 30 33  1  0  0  0  0
 30 74  1  1  0  0  0
 30 32  1  0  0  0  0
 30 27  1  0  0  0  0
 32 34  1  0  0  0  0
 32 75  1  0  0  0  0
 32 76  1  0  0  0  0
 33 77  1  0  0  0  0
 33 78  1  0  0  0  0
 34 35  1  0  0  0  0
 34 79  1  0  0  0  0
 34 80  1  0  0  0  0
 35 36  1  0  0  0  0
 35 81  1  0  0  0  0
 35 82  1  0  0  0  0
 36 37  1  0  0  0  0
 36 83  1  0  0  0  0
 37 38  1  0  0  0  0
 37 39  2  0  0  0  0
 38 84  1  0  0  0  0
 38 85  1  0  0  0  0
 39 86  1  0  0  0  0
M  END
>  <DRUGBANK_ID>
DB11879

>  <COMMON_NAME>
Dusquetide

>  <CAS_NUMBER>
931395-42-5

>  <UNII>
IKX7W49NLN

>  <SYNONYMS>
ARG-ILE-VAL-PRO-ALA-NH2; Dusquetide; L-ALANINAMIDE, L-ARGINYL-L-ISOLEUCYL-L-VALYL-L-PROLYL-; L-ARGINYL-L-ISOLEUCYL-L-VALYL-L-PROLYL-L-ALANINAMIDE; L-arginyl-L-isoleucyl-L-valyl-L-prolyl-L-alanine-amide

$$$$
