FOS
 OpenBabel10282417123D

 28 28  0  0  0  0  0  0  0  0999 V2000
    1.3700   -0.2187    0.0346 C   0  0  0  0  0  0  0  0  0  0  0  0
    0.4777   -1.2998    0.0256 C   0  0  0  0  0  0  0  0  0  0  0  0
   -0.8976   -1.0816   -0.0044 C   0  0  0  0  0  0  0  0  0  0  0  0
   -1.3930    0.2201    0.0016 C   0  0  0  0  0  0  0  0  0  0  0  0
   -0.5142    1.3027    0.0347 C   0  0  0  0  0  0  0  0  0  0  0  0
    0.8635    1.0864    0.0051 C   0  0  0  0  0  0  0  0  0  0  0  0
    2.8564   -0.4753    0.0785 C   0  0  0  0  0  0  0  0  0  0  0  0
    3.5529    0.1006   -1.0364 O   0  0  0  0  0  0  0  0  0  0  0  0
    3.2729   -0.4426   -2.2432 C   0  0  0  0  0  0  0  0  0  0  0  0
    2.4985   -1.3731   -2.4542 O   0  0  0  0  0  0  0  0  0  0  0  0
    3.8939    0.1747   -3.2873 N   0  0  0  0  0  0  0  0  0  0  0  0
    4.9923    1.1393   -3.1871 C   0  0  0  0  0  0  0  0  0  0  0  0
    6.6035    0.5264   -3.8013 P   0  0  0  0  0  0  0  0  0  0  0  0
    6.5513   -0.6324   -2.8077 O   0  0  0  0  0  0  0  0  0  0  0  0
    5.9458    0.0676   -5.2311 O   0  0  0  0  0  0  0  0  0  0  0  0
    8.1267   -0.0529   -4.3820 O   0  0  0  0  0  0  0  0  0  0  0  0
    0.8563   -2.3199    0.0104 H   0  0  0  0  0  0  0  0  0  0  0  0
   -1.5775   -1.9286   -0.0293 H   0  0  0  0  0  0  0  0  0  0  0  0
   -2.4653    0.3908   -0.0299 H   0  0  0  0  0  0  0  0  0  0  0  0
   -0.9044    2.3152    0.0855 H   0  0  0  0  0  0  0  0  0  0  0  0
    1.5406    1.9358   -0.0467 H   0  0  0  0  0  0  0  0  0  0  0  0
    3.2474   -0.0037    0.9893 H   0  0  0  0  0  0  0  0  0  0  0  0
    3.0900   -1.5441    0.1688 H   0  0  0  0  0  0  0  0  0  0  0  0
    3.7174   -0.3344   -4.1413 H   0  0  0  0  0  0  0  0  0  0  0  0
    4.6985    2.0114   -3.7799 H   0  0  0  0  0  0  0  0  0  0  0  0
    5.1221    1.4707   -2.1525 H   0  0  0  0  0  0  0  0  0  0  0  0
    5.0221    0.3157   -5.3993 H   0  0  0  0  0  0  0  0  0  0  0  0
    8.7696   -0.0523   -3.6502 H   0  0  0  0  0  0  0  0  0  0  0  0
  1  2  2  0  0  0  0
  1  6  1  0  0  0  0
  1  7  1  0  0  0  0
  2  3  1  0  0  0  0
  2 17  1  0  0  0  0
  3  4  2  0  0  0  0
  3 18  1  0  0  0  0
  4  5  1  0  0  0  0
  4 19  1  0  0  0  0
  5  6  2  0  0  0  0
  5 20  1  0  0  0  0
  6 21  1  0  0  0  0
  7  8  1  0  0  0  0
  7 22  1  0  0  0  0
  7 23  1  0  0  0  0
  8  9  1  0  0  0  0
  9 10  2  0  0  0  0
  9 11  1  0  0  0  0
 11 12  1  0  0  0  0
 11 24  1  0  0  0  0
 12 13  1  0  0  0  0
 12 25  1  0  0  0  0
 12 26  1  0  0  0  0
 13 14  2  0  0  0  0
 13 15  1  0  0  0  0
 13 16  1  0  0  0  0
 15 27  1  0  0  0  0
 16 28  1  0  0  0  0
M  END
>  <DRUGBANK_ID>
DB02642

>  <SECONDARY_ACCESSION_NUMBERS>
EXPT01473

>  <COMMON_NAME>
[[N-(Benzyloxycarbonyl)Amino]Methyl]Phosphate

$$$$
