
 OpenBabel10282417123D

 80 81  0  0  0  0  0  0  0  0999 V2000
   -4.9890  -18.5257    4.9512 C   0  0  0  0  0  0  0  0  0  0  0  0
   -7.2619  -15.7344    6.0464 C   0  0  0  0  0  0  0  0  0  0  0  0
   -4.4041  -18.4800    6.1538 C   0  0  0  0  0  0  0  0  0  0  0  0
   -6.5224  -17.5091    5.2011 C   0  0  0  0  0  0  0  0  0  0  0  0
   -7.8306  -13.8817    6.1593 N   0  0  0  0  0  0  0  0  0  0  0  0
   -6.7579  -17.0975    6.9966 C   0  0  0  0  0  0  0  0  0  0  0  0
   -5.3046  -18.2618    7.2934 C   0  0  0  0  0  0  0  0  0  0  0  0
   -8.3673  -11.9714    5.8446 C   0  0  0  0  0  0  0  0  0  0  0  0
   -2.6218  -11.5013    3.8256 C   0  0  0  0  0  0  0  0  0  0  0  0
   -3.3483  -12.5622    3.7863 C   0  0  0  0  0  0  0  0  0  0  0  0
   -2.4515  -10.7593    5.1738 C   0  0  2  0  0  0  0  0  0  0  0  0
   -2.2214  -12.5080    6.8149 C   0  0  0  0  0  0  0  0  0  0  0  0
   -7.8828  -10.0979    6.3527 C   0  0  0  0  0  0  0  0  0  0  0  0
   -3.4417  -13.7055    2.8101 C   0  0  1  0  0  0  0  0  0  0  0  0
   -2.8649  -11.3724    6.3978 O   0  0  0  0  0  0  0  0  0  0  0  0
   -4.3145  -18.4757    3.4354 C   0  0  0  0  0  0  0  0  0  0  0  0
   -2.5493  -14.9120    3.0490 C   0  0  2  0  0  0  0  0  0  0  0  0
   -2.9591  -15.3291    4.3654 C   0  0  2  0  0  0  0  0  0  0  0  0
   -5.7720   -9.2750    5.5222 C   0  0  0  0  0  0  0  0  0  0  0  0
   -6.8203  -18.7952    4.9797 O   0  0  0  0  0  0  0  0  0  0  0  0
   -7.1438   -9.7043    5.3118 C   0  0  0  0  0  0  0  0  0  0  0  0
   -9.5020  -11.4080    5.4129 O   0  0  0  0  0  0  0  0  0  0  0  0
   -4.8635  -18.5517    8.4088 O   0  0  0  0  0  0  0  0  0  0  0  0
   -3.2343   -9.5254    5.0180 C   0  0  2  0  0  0  0  0  0  0  0  0
   -4.8587  -15.8464    4.2846 C   0  0  0  0  0  0  0  0  0  0  0  0
   -3.6514  -17.4308    6.4076 O   0  0  0  0  0  0  0  0  0  0  0  0
   -2.6462  -13.0854    7.8183 O   0  0  0  0  0  0  0  0  0  0  0  0
   -4.7721   -9.8439    4.8279 C   0  0  0  0  0  0  0  0  0  0  0  0
   -5.0290  -17.1210    3.0426 C   0  0  2  0  0  0  0  0  0  0  0  0
   -1.3414  -13.1034    5.8939 N   0  0  0  0  0  0  0  0  0  0  0  0
   -1.1656  -14.7320    3.2895 O   0  0  0  0  0  0  0  0  0  0  0  0
   -2.8430  -14.7082    5.7073 O   0  0  0  0  0  0  0  0  0  0  0  0
   -2.2502  -11.2939    2.4477 C   0  0  0  0  0  0  0  0  0  0  0  0
   -2.7099   -8.7994    3.7260 O   0  0  0  0  0  0  0  0  0  0  0  0
   -7.7692   -8.4208    7.2808 C   0  0  0  0  0  0  0  0  0  0  0  0
   -4.9109  -14.0021    2.6582 C   0  0  0  0  0  0  0  0  0  0  0  0
   -6.4769  -17.3805    2.8752 C   0  0  0  0  0  0  0  0  0  0  0  0
   -4.0684  -14.0900    5.8973 C   0  0  0  0  0  0  0  0  0  0  0  0
   -1.3192   -8.9748    3.5791 C   0  0  0  0  0  0  0  0  0  0  0  0
   -3.2777  -17.1869    5.1965 C   0  0  0  0  0  0  0  0  0  0  0  0
   -8.5431  -13.2880    6.9316 H   0  0  0  0  0  0  0  0  0  0  0  0
   -6.5260  -18.5196    6.8341 H   0  0  0  0  0  0  0  0  0  0  0  0
   -3.7002  -12.4322    4.7763 H   0  0  0  0  0  0  0  0  0  0  0  0
   -1.4203  -10.5287    5.3552 H   0  0  0  0  0  0  0  0  0  0  0  0
   -3.0761  -13.3719    1.8817 H   0  0  0  0  0  0  0  0  0  0  0  0
   -3.1719  -18.4543    3.3922 H   0  0  0  0  0  0  0  0  0  0  0  0
   -4.3402  -19.2050    2.6308 H   0  0  0  0  0  0  0  0  0  0  0  0
   -2.7180  -15.7674    2.3616 H   0  0  0  0  0  0  0  0  0  0  0  0
   -2.0015  -15.9938    4.7562 H   0  0  0  0  0  0  0  0  0  0  0  0
   -5.4453   -8.5469    6.2740 H   0  0  0  0  0  0  0  0  0  0  0  0
   -7.3980  -10.2746    4.4553 H   0  0  0  0  0  0  0  0  0  0  0  0
   -3.1046   -8.7699    5.8099 H   0  0  0  0  0  0  0  0  0  0  0  0
   -5.5911  -15.0458    4.3142 H   0  0  0  0  0  0  0  0  0  0  0  0
   -5.2082  -16.2164    5.2607 H   0  0  0  0  0  0  0  0  0  0  0  0
   -4.3056   -9.0337    4.3799 H   0  0  0  0  0  0  0  0  0  0  0  0
   -4.5370  -16.6997    2.1822 H   0  0  0  0  0  0  0  0  0  0  0  0
   -1.3942  -12.8432    4.9131 H   0  0  0  0  0  0  0  0  0  0  0  0
   -1.3882  -14.1433    5.9685 H   0  0  0  0  0  0  0  0  0  0  0  0
   -1.1289  -14.2900    4.1573 H   0  0  0  0  0  0  0  0  0  0  0  0
   -1.4656  -11.9953    2.1864 H   0  0  0  0  0  0  0  0  0  0  0  0
   -3.1530  -11.3299    1.8374 H   0  0  0  0  0  0  0  0  0  0  0  0
   -1.9566  -10.3259    2.2059 H   0  0  0  0  0  0  0  0  0  0  0  0
   -6.9918   -8.6135    8.0221 H   0  0  0  0  0  0  0  0  0  0  0  0
   -7.2467   -7.4123    6.8101 H   0  0  0  0  0  0  0  0  0  0  0  0
   -8.5850   -7.8466    7.8121 H   0  0  0  0  0  0  0  0  0  0  0  0
   -5.2749  -13.9043    1.6713 H   0  0  0  0  0  0  0  0  0  0  0  0
   -5.1768  -15.0336    2.6685 H   0  0  0  0  0  0  0  0  0  0  0  0
   -5.5157  -13.4659    3.4037 H   0  0  0  0  0  0  0  0  0  0  0  0
   -6.7456  -17.2080    1.8769 H   0  0  0  0  0  0  0  0  0  0  0  0
   -6.7005  -18.4245    3.0965 H   0  0  0  0  0  0  0  0  0  0  0  0
   -6.9936  -16.6912    3.5457 H   0  0  0  0  0  0  0  0  0  0  0  0
   -3.7873  -13.9033    4.9297 H   0  0  0  0  0  0  0  0  0  0  0  0
   -5.0223  -13.9858    5.4126 H   0  0  0  0  0  0  0  0  0  0  0  0
   -4.0831  -13.1567    6.3779 H   0  0  0  0  0  0  0  0  0  0  0  0
   -0.8126   -8.6193    4.4426 H   0  0  0  0  0  0  0  0  0  0  0  0
   -1.0058  -10.0190    3.6174 H   0  0  0  0  0  0  0  0  0  0  0  0
   -1.0234   -8.6170    2.6005 H   0  0  0  0  0  0  0  0  0  0  0  0
   -2.4859  -17.4824    4.5560 H   0  0  0  0  0  0  0  0  0  0  0  0
   -3.6162  -16.9624    4.1711 H   0  0  0  0  0  0  0  0  0  0  0  0
   -3.5873  -16.2714    5.6328 H   0  0  0  0  0  0  0  0  0  0  0  0
  2  4  1  0  0  0  0
  3  1  2  0  0  0  0
  4  1  1  0  0  0  0
  5  2  1  0  0  0  0
  5 41  1  0  0  0  0
  6  2  2  0  0  0  0
  6 42  1  0  0  0  0
  7  3  1  0  0  0  0
  7  6  1  0  0  0  0
  8  5  1  0  0  0  0
  9 10  2  0  0  0  0
 10 14  1  0  0  0  0
 10 43  1  0  0  0  0
 11  9  1  0  0  0  0
 11 24  1  0  0  0  0
 11 44  1  1  0  0  0
 11 15  1  0  0  0  0
 12 15  1  0  0  0  0
 13  8  1  0  0  0  0
 14 17  1  0  0  0  0
 14 45  1  6  0  0  0
 14 36  1  0  0  0  0
 16  1  1  0  0  0  0
 16 46  1  0  0  0  0
 16 47  1  0  0  0  0
 17 18  1  0  0  0  0
 17 31  1  0  0  0  0
 17 48  1  6  0  0  0
 18 25  1  0  0  0  0
 18 32  1  0  0  0  0
 18 49  1  1  0  0  0
 19 21  1  0  0  0  0
 19 50  1  0  0  0  0
 20  4  2  0  0  0  0
 21 13  2  0  0  0  0
 21 51  1  0  0  0  0
 22  8  2  0  0  0  0
 23  7  2  0  0  0  0
 24 28  1  0  0  0  0
 24 52  1  1  0  0  0
 24 34  1  0  0  0  0
 25 29  1  0  0  0  0
 25 53  1  0  0  0  0
 25 54  1  0  0  0  0
 26  3  1  0  0  0  0
 26 40  1  0  0  0  0
 27 12  2  0  0  0  0
 28 19  2  0  0  0  0
 28 55  1  0  0  0  0
 29 16  1  0  0  0  0
 29 56  1  6  0  0  0
 29 37  1  0  0  0  0
 30 12  1  0  0  0  0
 30 57  1  0  0  0  0
 30 58  1  0  0  0  0
 31 59  1  0  0  0  0
 33  9  1  0  0  0  0
 33 60  1  0  0  0  0
 33 61  1  0  0  0  0
 33 62  1  0  0  0  0
 35 13  1  0  0  0  0
 35 63  1  0  0  0  0
 35 64  1  0  0  0  0
 35 65  1  0  0  0  0
 36 66  1  0  0  0  0
 36 67  1  0  0  0  0
 36 68  1  0  0  0  0
 37 69  1  0  0  0  0
 37 70  1  0  0  0  0
 37 71  1  0  0  0  0
 38 32  1  0  0  0  0
 38 72  1  0  0  0  0
 38 73  1  0  0  0  0
 38 74  1  0  0  0  0
 39 34  1  0  0  0  0
 39 75  1  0  0  0  0
 39 76  1  0  0  0  0
 39 77  1  0  0  0  0
 40 78  1  0  0  0  0
 40 79  1  0  0  0  0
 40 80  1  0  0  0  0
M  END
>  <DRUGBANK_ID>
DB02424

>  <SECONDARY_ACCESSION_NUMBERS>
EXPT01571

>  <COMMON_NAME>
Geldanamycin

>  <CAS_NUMBER>
30562-34-6

>  <UNII>
Z3K3VJ16KU

$$$$
