818
 OpenBabel10282417113D

 31 31  0  0  0  0  0  0  0  0999 V2000
    2.2733    0.0327    0.0195 O   0  0  0  0  0  0  0  0  0  0  0  0
    0.8634   -2.6103    0.0460 C   0  0  0  0  0  0  0  0  0  0  0  0
    0.9896    2.5200    0.0493 C   0  0  0  0  0  0  0  0  0  0  0  0
    0.1971   -1.2448    0.0132 C   0  0  0  0  0  0  0  0  0  0  0  0
    0.2306    1.2031    0.0161 C   0  0  0  0  0  0  0  0  0  0  0  0
    0.9069   -0.0307    0.0146 C   0  0  0  0  0  0  0  0  0  0  0  0
   -1.2127   -1.1859   -0.0043 C   0  0  0  0  0  0  0  0  0  0  0  0
   -1.1745    1.2116   -0.0021 C   0  0  0  0  0  0  0  0  0  0  0  0
    0.4896   -3.3700    1.3215 C   0  0  0  0  0  0  0  0  0  0  0  0
    0.5175   -3.4203   -1.2056 C   0  0  0  0  0  0  0  0  0  0  0  0
    0.6911    3.3490   -1.2006 C   0  0  0  0  0  0  0  0  0  0  0  0
    0.6611    3.2953    1.3268 C   0  0  0  0  0  0  0  0  0  0  0  0
   -1.8938    0.0256   -0.0156 C   0  0  0  0  0  0  0  0  0  0  0  0
    2.6670   -0.8475   -0.0417 H   0  0  0  0  0  0  0  0  0  0  0  0
    1.9516   -2.5166    0.0583 H   0  0  0  0  0  0  0  0  0  0  0  0
    2.0707    2.3385    0.0585 H   0  0  0  0  0  0  0  0  0  0  0  0
   -1.8042   -2.0995   -0.0046 H   0  0  0  0  0  0  0  0  0  0  0  0
   -1.7211    2.1513   -0.0019 H   0  0  0  0  0  0  0  0  0  0  0  0
   -0.5831   -3.5826    1.3748 H   0  0  0  0  0  0  0  0  0  0  0  0
    1.0205   -4.3261    1.3682 H   0  0  0  0  0  0  0  0  0  0  0  0
    0.7594   -2.7898    2.2116 H   0  0  0  0  0  0  0  0  0  0  0  0
    0.8058   -2.8756   -2.1119 H   0  0  0  0  0  0  0  0  0  0  0  0
    1.0493   -4.3770   -1.2025 H   0  0  0  0  0  0  0  0  0  0  0  0
   -0.5538   -3.6363   -1.2729 H   0  0  0  0  0  0  0  0  0  0  0  0
   -0.3674    3.6210   -1.2684 H   0  0  0  0  0  0  0  0  0  0  0  0
    1.2735    4.2754   -1.1969 H   0  0  0  0  0  0  0  0  0  0  0  0
    0.9489    2.7893   -2.1072 H   0  0  0  0  0  0  0  0  0  0  0  0
    0.8976    2.6975    2.2148 H   0  0  0  0  0  0  0  0  0  0  0  0
    1.2423    4.2211    1.3770 H   0  0  0  0  0  0  0  0  0  0  0  0
   -0.3992    3.5638    1.3814 H   0  0  0  0  0  0  0  0  0  0  0  0
   -2.9794    0.0466   -0.0283 H   0  0  0  0  0  0  0  0  0  0  0  0
  1  6  1  0  0  0  0
  1 14  1  0  0  0  0
  2  4  1  0  0  0  0
  2  9  1  0  0  0  0
  2 10  1  0  0  0  0
  2 15  1  0  0  0  0
  3  5  1  0  0  0  0
  3 11  1  0  0  0  0
  3 12  1  0  0  0  0
  3 16  1  0  0  0  0
  4  6  2  0  0  0  0
  4  7  1  0  0  0  0
  5  6  1  0  0  0  0
  5  8  2  0  0  0  0
  7 13  2  0  0  0  0
  7 17  1  0  0  0  0
  8 13  1  0  0  0  0
  8 18  1  0  0  0  0
  9 19  1  0  0  0  0
  9 20  1  0  0  0  0
  9 21  1  0  0  0  0
 10 22  1  0  0  0  0
 10 23  1  0  0  0  0
 10 24  1  0  0  0  0
 11 25  1  0  0  0  0
 11 26  1  0  0  0  0
 11 27  1  0  0  0  0
 12 28  1  0  0  0  0
 12 29  1  0  0  0  0
 12 30  1  0  0  0  0
 13 31  1  0  0  0  0
M  END
>  <DRUGBANK_ID>
DB00818

>  <SECONDARY_ACCESSION_NUMBERS>
APRD01201; EXPT02558; DB05893

>  <COMMON_NAME>
Propofol

>  <CAS_NUMBER>
2078-54-8

>  <UNII>
YI7VU623SF

>  <SYNONYMS>
2,6-bis(1-methylethyl)phenol; 2,6-Diisopropylphenol; Propofol; Propofolum

$$$$
