
 OpenBabel10282417183D

 55 59  0  0  0  0  0  0  0  0999 V2000
   -1.8493   -0.7759    1.2949 C   0  0  0  0  0  0  0  0  0  0  0  0
   -1.1490   -1.7810    0.3879 C   0  0  0  0  0  0  0  0  0  0  0  0
   -2.6756   -0.0121    0.2623 C   0  0  0  0  0  0  0  0  0  0  0  0
   -0.6562   -0.9078   -0.7875 C   0  0  1  0  0  0  0  0  0  0  0  0
   -1.6281    0.3540   -0.7795 C   0  0  2  0  0  0  0  0  0  0  0  0
    0.6263   -0.2484   -0.5186 C   0  0  0  0  0  0  0  0  0  0  0  0
    0.4723    1.0036   -0.0404 N   0  0  0  0  0  0  0  0  0  0  0  0
   -0.8324    1.5685   -0.2599 C   0  0  0  0  0  0  0  0  0  0  0  0
    1.8731   -0.3817   -0.9265 N   0  0  0  0  0  0  0  0  0  0  0  0
    2.4808    0.8564   -0.6840 N   0  0  0  0  0  0  0  0  0  0  0  0
    1.6543    1.6194    0.0263 C   0  0  0  0  0  0  0  0  0  0  0  0
   -0.6370   -1.4713   -1.7253 H   0  0  0  0  0  0  0  0  0  0  0  0
   -2.0614    0.5926   -1.7564 H   0  0  0  0  0  0  0  0  0  0  0  0
    1.8591    2.8919    0.7904 C   0  0  0  0  0  0  0  0  0  0  0  0
    2.3597    2.7359    2.2664 C   0  0  0  0  0  0  0  0  0  0  0  0
    3.7592    2.3218    2.4959 N   0  0  0  0  0  0  0  0  0  0  0  0
    4.3130    1.4898    1.4060 C   0  0  0  0  0  0  0  0  0  0  0  0
    3.9872    1.5814    3.7774 C   0  0  0  0  0  0  0  0  0  0  0  0
    3.7748    0.0391    1.4209 C   0  0  0  0  0  0  0  0  0  0  0  0
    3.5050    0.0889    3.8291 C   0  0  0  0  0  0  0  0  0  0  0  0
    4.0873   -0.5916    2.6819 N   0  0  0  0  0  0  0  0  0  0  0  0
    4.6910   -1.8114    2.6274 C   0  0  0  0  0  0  0  0  0  0  0  0
    5.9188   -1.8981    1.9593 C   0  0  0  0  0  0  0  0  0  0  0  0
    4.1702   -2.9607    3.2095 C   0  0  0  0  0  0  0  0  0  0  0  0
    6.6956   -3.0527    1.9902 C   0  0  0  0  0  0  0  0  0  0  0  0
    4.9278   -4.1336    3.2468 C   0  0  0  0  0  0  0  0  0  0  0  0
    6.1907   -4.1756    2.6512 C   0  0  0  0  0  0  0  0  0  0  0  0
    8.0820   -3.0305    1.4148 C   0  0  0  0  0  0  0  0  0  0  0  0
    9.0283   -3.2551    2.3694 F   0  0  0  0  0  0  0  0  0  0  0  0
    8.2781   -3.9793    0.4599 F   0  0  0  0  0  0  0  0  0  0  0  0
    8.4219   -1.8428    0.8362 F   0  0  0  0  0  0  0  0  0  0  0  0
   -1.0973   -0.1340    1.7760 H   0  0  0  0  0  0  0  0  0  0  0  0
   -2.4479   -1.2150    2.0911 H   0  0  0  0  0  0  0  0  0  0  0  0
   -0.3691   -2.3491    0.9030 H   0  0  0  0  0  0  0  0  0  0  0  0
   -1.9023   -2.4976    0.0290 H   0  0  0  0  0  0  0  0  0  0  0  0
   -3.4121   -0.6739   -0.2065 H   0  0  0  0  0  0  0  0  0  0  0  0
   -3.1954    0.8541    0.6766 H   0  0  0  0  0  0  0  0  0  0  0  0
   -0.7040    2.3573   -1.0075 H   0  0  0  0  0  0  0  0  0  0  0  0
   -1.1729    1.9941    0.6873 H   0  0  0  0  0  0  0  0  0  0  0  0
    2.5216    3.5528    0.2281 H   0  0  0  0  0  0  0  0  0  0  0  0
    0.8906    3.4082    0.8462 H   0  0  0  0  0  0  0  0  0  0  0  0
    2.2863    3.7446    2.7042 H   0  0  0  0  0  0  0  0  0  0  0  0
    1.6493    2.1302    2.8450 H   0  0  0  0  0  0  0  0  0  0  0  0
    4.1697    1.9919    0.4458 H   0  0  0  0  0  0  0  0  0  0  0  0
    5.4036    1.4717    1.5017 H   0  0  0  0  0  0  0  0  0  0  0  0
    5.0796    1.5550    3.9082 H   0  0  0  0  0  0  0  0  0  0  0  0
    3.5973    2.1435    4.6310 H   0  0  0  0  0  0  0  0  0  0  0  0
    2.6863   -0.0042    1.4241 H   0  0  0  0  0  0  0  0  0  0  0  0
    4.1349   -0.5125    0.5466 H   0  0  0  0  0  0  0  0  0  0  0  0
    2.4094    0.0494    3.7752 H   0  0  0  0  0  0  0  0  0  0  0  0
    3.8165   -0.3773    4.7683 H   0  0  0  0  0  0  0  0  0  0  0  0
    6.3023   -1.0098    1.4564 H   0  0  0  0  0  0  0  0  0  0  0  0
    3.1623   -2.9552    3.6151 H   0  0  0  0  0  0  0  0  0  0  0  0
    4.5450   -5.0052    3.7699 H   0  0  0  0  0  0  0  0  0  0  0  0
    6.7893   -5.0808    2.7163 H   0  0  0  0  0  0  0  0  0  0  0  0
  1  2  1  0  0  0  0
  1  3  1  0  0  0  0
  1 32  1  0  0  0  0
  1 33  1  0  0  0  0
  2  4  1  0  0  0  0
  2 34  1  0  0  0  0
  2 35  1  0  0  0  0
  3  5  1  0  0  0  0
  3 36  1  0  0  0  0
  3 37  1  0  0  0  0
  4  6  1  0  0  0  0
  4  5  1  0  0  0  0
  4 12  1  6  0  0  0
  5  8  1  0  0  0  0
  5 13  1  6  0  0  0
  6  9  2  0  0  0  0
  6  7  1  0  0  0  0
  7  8  1  0  0  0  0
  7 11  1  0  0  0  0
  8 38  1  0  0  0  0
  8 39  1  0  0  0  0
  9 10  1  0  0  0  0
 10 11  2  0  0  0  0
 11 14  1  0  0  0  0
 14 15  1  0  0  0  0
 14 40  1  0  0  0  0
 14 41  1  0  0  0  0
 15 16  1  0  0  0  0
 15 42  1  0  0  0  0
 15 43  1  0  0  0  0
 16 17  1  0  0  0  0
 16 18  1  0  0  0  0
 17 19  1  0  0  0  0
 17 44  1  0  0  0  0
 17 45  1  0  0  0  0
 18 20  1  0  0  0  0
 18 46  1  0  0  0  0
 18 47  1  0  0  0  0
 19 21  1  0  0  0  0
 19 48  1  0  0  0  0
 19 49  1  0  0  0  0
 20 21  1  0  0  0  0
 20 50  1  0  0  0  0
 20 51  1  0  0  0  0
 21 22  1  0  0  0  0
 22 23  1  0  0  0  0
 22 24  2  0  0  0  0
 23 25  2  0  0  0  0
 23 52  1  0  0  0  0
 24 26  1  0  0  0  0
 24 53  1  0  0  0  0
 25 27  1  0  0  0  0
 25 28  1  0  0  0  0
 26 27  2  0  0  0  0
 26 54  1  0  0  0  0
 27 55  1  0  0  0  0
 28 29  1  0  0  0  0
 28 30  1  0  0  0  0
 28 31  1  0  0  0  0
M  END
>  <DRUGBANK_ID>
DB09195

>  <COMMON_NAME>
Lorpiprazole

>  <CAS_NUMBER>
108785-69-9

>  <UNII>
0M14O7T47Q

>  <SYNONYMS>
Lorpiprazole

$$$$
