
 OpenBabel10282417183D

 32 32  0  0  0  0  0  0  0  0999 V2000
   -1.5981   -0.3591    0.1936 C   0  0  0  0  0  0  0  0  0  0  0  0
   -0.6550   -1.4167    0.0440 C   0  0  0  0  0  0  0  0  0  0  0  0
    0.7763   -1.1924    0.0522 C   0  0  0  0  0  0  0  0  0  0  0  0
    1.2349    0.2158    0.0619 C   0  0  0  0  0  0  0  0  0  0  0  0
    0.3662    1.3973    0.0700 C   0  0  0  0  0  0  0  0  0  0  0  0
   -1.0770    1.0048    0.1360 C   0  0  0  0  0  0  0  0  0  0  0  0
    0.8058    2.8707    0.0313 N   0  0  0  0  0  0  0  0  0  0  0  0
   -2.8785    2.5641   -0.1844 I   0  0  0  0  0  0  0  0  0  0  0  0
    3.6180    0.1591   -0.1466 I   0  0  0  0  0  0  0  0  0  0  0  0
    2.1143    3.3823    0.0494 C   0  0  0  0  0  0  0  0  0  0  0  0
   -3.1058   -0.6628    0.4376 C   0  0  0  0  0  0  0  0  0  0  0  0
    1.8772   -2.1395    0.1270 N   0  0  0  0  0  0  0  0  0  0  0  0
    2.4142    4.8705   -0.0585 C   0  0  0  0  0  0  0  0  0  0  0  0
    3.1276    2.7583    0.1788 O   0  0  0  0  0  0  0  0  0  0  0  0
   -1.7734   -3.2374   -1.0678 I   0  0  0  0  0  0  0  0  0  0  0  0
   -3.4663   -1.8803    0.8959 O   0  0  0  0  0  0  0  0  0  0  0  0
   -4.0273    0.1238    0.3503 O   0  0  0  0  0  0  0  0  0  0  0  0
    2.0606   -3.4855    0.2745 C   0  0  0  0  0  0  0  0  0  0  0  0
    3.1599   -4.0267    0.2963 O   0  0  0  0  0  0  0  0  0  0  0  0
    0.8210   -4.2312    0.3018 C   0  0  0  0  0  0  0  0  0  0  0  0
   -0.2201    3.8789    0.0413 C   0  0  0  0  0  0  0  0  0  0  0  0
    2.8068   -1.7159    0.1256 H   0  0  0  0  0  0  0  0  0  0  0  0
    3.0386    5.1100    0.8102 H   0  0  0  0  0  0  0  0  0  0  0  0
    3.0043    5.0155   -0.9682 H   0  0  0  0  0  0  0  0  0  0  0  0
    1.6276    5.6083   -0.0733 H   0  0  0  0  0  0  0  0  0  0  0  0
   -2.8939   -2.6335    0.6765 H   0  0  0  0  0  0  0  0  0  0  0  0
    0.2089   -3.7945    1.0972 H   0  0  0  0  0  0  0  0  0  0  0  0
    0.5383   -4.0333   -0.7264 H   0  0  0  0  0  0  0  0  0  0  0  0
    0.8600   -5.3071    0.3916 H   0  0  0  0  0  0  0  0  0  0  0  0
   -0.7338    3.8154   -0.9177 H   0  0  0  0  0  0  0  0  0  0  0  0
   -0.7843    3.7802    0.9714 H   0  0  0  0  0  0  0  0  0  0  0  0
    0.0563    4.9228    0.0640 H   0  0  0  0  0  0  0  0  0  0  0  0
  1  2  2  0  0  0  0
  1 11  1  0  0  0  0
  2 15  1  0  0  0  0
  3 12  1  0  0  0  0
  3  2  1  0  0  0  0
  4  3  2  0  0  0  0
  4  9  1  0  0  0  0
  5  7  1  0  0  0  0
  5  6  2  0  0  0  0
  5  4  1  0  0  0  0
  6  8  1  0  0  0  0
  6  1  1  0  0  0  0
  7 10  1  0  0  0  0
  7 21  1  0  0  0  0
 10 13  1  0  0  0  0
 10 14  2  0  0  0  0
 11 16  1  0  0  0  0
 11 17  2  0  0  0  0
 12 18  1  0  0  0  0
 12 22  1  0  0  0  0
 13 23  1  0  0  0  0
 13 24  1  0  0  0  0
 13 25  1  0  0  0  0
 16 26  1  0  0  0  0
 18 19  2  0  0  0  0
 18 20  1  0  0  0  0
 20 27  1  0  0  0  0
 20 28  1  0  0  0  0
 20 29  1  0  0  0  0
 21 30  1  0  0  0  0
 21 31  1  0  0  0  0
 21 32  1  0  0  0  0
M  END
>  <DRUGBANK_ID>
DB09346

>  <COMMON_NAME>
Metrizoic acid

>  <CAS_NUMBER>
1949-45-7

>  <UNII>
CM1N99QR1M

>  <SYNONYMS>
Metrizoic acid

$$$$
