
 OpenBabel10282417123D

 21 21  0  0  0  0  0  0  0  0999 V2000
   -0.8646   -0.1689   -1.9482 O   0  0  0  0  0  0  0  0  0  0  0  0
    0.3440   -1.7668    0.9015 O   0  0  0  0  0  0  0  0  0  0  0  0
    2.5825    0.0704   -1.5937 O   0  0  0  0  0  0  0  0  0  0  0  0
    3.3897   -0.8963   -4.1553 O   0  0  0  0  0  0  0  0  0  0  0  0
    1.5985   -3.1267   -2.0193 N   0  0  0  0  0  0  0  0  0  0  0  0
    3.0523   -2.0556   -3.4530 N   0  0  0  0  0  0  0  0  0  0  0  0
    0.2849   -0.6159   -1.2104 C   0  0  1  0  0  0  0  0  0  0  0  0
   -0.0466   -1.9094   -0.4756 C   0  0  1  0  0  0  0  0  0  0  0  0
    1.4760   -0.6599   -2.1445 C   0  0  2  0  0  0  0  0  0  0  0  0
    0.5402   -3.2088   -1.0233 C   0  0  0  0  0  0  0  0  0  0  0  0
    2.0198   -2.0217   -2.5387 C   0  0  0  0  0  0  0  0  0  0  0  0
    3.3958   -2.9407   -3.8166 H   0  0  0  0  0  0  0  0  0  0  0  0
   -0.9646   -0.7429   -2.7268 H   0  0  0  0  0  0  0  0  0  0  0  0
    1.3125   -1.8155    0.9509 H   0  0  0  0  0  0  0  0  0  0  0  0
    2.7144   -0.2536   -0.6838 H   0  0  0  0  0  0  0  0  0  0  0  0
    3.2541   -0.1593   -3.5201 H   0  0  0  0  0  0  0  0  0  0  0  0
    0.4655    0.1680   -0.4628 H   0  0  0  0  0  0  0  0  0  0  0  0
   -1.1381   -2.0223   -0.4486 H   0  0  0  0  0  0  0  0  0  0  0  0
    1.2066   -0.1556   -3.0804 H   0  0  0  0  0  0  0  0  0  0  0  0
    0.9376   -3.7962   -0.1849 H   0  0  0  0  0  0  0  0  0  0  0  0
   -0.2732   -3.8102   -1.4457 H   0  0  0  0  0  0  0  0  0  0  0  0
  1 13  1  0  0  0  0
  2 14  1  0  0  0  0
  3 15  1  0  0  0  0
  4  6  1  0  0  0  0
  4 16  1  0  0  0  0
  5 10  1  0  0  0  0
  5 11  2  0  0  0  0
  6 11  1  0  0  0  0
  6 12  1  0  0  0  0
  7  8  1  0  0  0  0
  7  9  1  0  0  0  0
  7 17  1  1  0  0  0
  7  1  1  0  0  0  0
  8  2  1  0  0  0  0
  8 10  1  0  0  0  0
  8 18  1  6  0  0  0
  9 11  1  0  0  0  0
  9 19  1  6  0  0  0
  9  3  1  0  0  0  0
 10 20  1  0  0  0  0
 10 21  1  0  0  0  0
M  END
>  <DRUGBANK_ID>
DB01921

>  <SECONDARY_ACCESSION_NUMBERS>
EXPT02054

>  <COMMON_NAME>
Xylose-derived lactam oxime

$$$$
