
 OpenBabel10282417153D

 19 18  0  0  0  0  0  0  0  0999 V2000
    0.9866    0.0848    0.0822 C   0  0  0  0  0  0  0  0  0  0  0  0
    0.4844   -1.1928   -0.5964 C   0  0  0  0  0  0  0  0  0  0  0  0
    0.4854    0.2267    1.5126 C   0  0  0  0  0  0  0  0  0  0  0  0
    0.3817   -2.6552    1.5502 O   0  0  0  0  0  0  0  0  0  0  0  0
    0.5498   -3.8412   -0.6085 O   0  0  0  0  0  0  0  0  0  0  0  0
    2.5244   -2.5820    0.3625 O   0  0  0  0  0  0  0  0  0  0  0  0
    0.4325    2.7798    1.5269 O   0  0  0  0  0  0  0  0  0  0  0  0
    0.5111    1.6004    3.7232 O   0  0  0  0  0  0  0  0  0  0  0  0
    2.5412    1.6798    2.2055 O   0  0  0  0  0  0  0  0  0  0  0  0
    1.1123   -2.7199    0.1111 S   0  0  0  0  0  0  0  0  0  0  0  0
    1.1145    1.6158    2.4101 S   0  0  0  0  0  0  0  0  0  0  0  0
    0.6521    0.9472   -0.5086 H   0  0  0  0  0  0  0  0  0  0  0  0
    2.0821    0.1067    0.0609 H   0  0  0  0  0  0  0  0  0  0  0  0
   -0.6084   -1.2476   -0.6038 H   0  0  0  0  0  0  0  0  0  0  0  0
    0.8256   -1.1991   -1.6384 H   0  0  0  0  0  0  0  0  0  0  0  0
   -0.6071    0.2237    1.5671 H   0  0  0  0  0  0  0  0  0  0  0  0
    0.8700   -0.5822    2.1224 H   0  0  0  0  0  0  0  0  0  0  0  0
    1.0558   -2.4969    2.2493 H   0  0  0  0  0  0  0  0  0  0  0  0
    0.9906    2.9782    0.7471 H   0  0  0  0  0  0  0  0  0  0  0  0
  1 12  1  0  0  0  0
  1 13  1  0  0  0  0
  2  1  1  0  0  0  0
  2 14  1  0  0  0  0
  2 15  1  0  0  0  0
  3  1  1  0  0  0  0
  3 16  1  0  0  0  0
  3 17  1  0  0  0  0
  4 18  1  0  0  0  0
  7 19  1  0  0  0  0
 10  2  1  0  0  0  0
 10  4  1  0  0  0  0
 10  5  2  0  0  0  0
 10  6  2  0  0  0  0
 11  3  1  0  0  0  0
 11  7  1  0  0  0  0
 11  8  2  0  0  0  0
 11  9  2  0  0  0  0
M  END
>  <DRUGBANK_ID>
DB06405

>  <COMMON_NAME>
Eprodisate

>  <CAS_NUMBER>
21668-77-9

>  <UNII>
6QFP76V7S7

>  <SYNONYMS>
1,3-propanedisulfonic acid; Eprodisate; Propane-1,3-disulfonate; Propane-1,3-disulfonic acid; Propane-1,3-disulphonate

$$$$
