
 OpenBabel10282417153D

 51 53  0  0  1  0  0  0  0  0999 V2000
    1.4010   -0.0783   -0.0303 C   0  0  0  0  0  0  0  0  0  0  0  0
   -4.4483   -4.8513    0.5052 C   0  0  0  0  0  0  0  0  0  0  0  0
   -3.0437   -4.9054    0.3354 C   0  0  0  0  0  0  0  0  0  0  0  0
   -2.8443   -0.9260   -1.0512 C   0  0  0  0  0  0  0  0  0  0  0  0
   -3.0710    0.5061   -0.6324 C   0  0  0  0  0  0  0  0  0  0  0  0
   -4.2072   -5.6252    2.7698 C   0  0  0  0  0  0  0  0  0  0  0  0
    2.5060   -2.7545    0.6243 C   0  0  0  0  0  0  0  0  0  0  0  0
   -4.2310   -0.8818    1.3123 C   0  0  0  0  0  0  0  0  0  0  0  0
   -3.0829   -2.7333    2.9417 C   0  0  0  0  0  0  0  0  0  0  0  0
   -5.0334   -5.2013    1.7303 C   0  0  0  0  0  0  0  0  0  0  0  0
   -4.1610   -2.2589    1.9625 C   0  0  1  0  0  0  0  0  0  0  0  0
   -2.8395   -5.8920    2.5107 C   0  0  0  0  0  0  0  0  0  0  0  0
    2.6476   -4.1259    0.5438 C   0  0  0  0  0  0  0  0  0  0  0  0
   -2.2123   -5.4670    1.3086 C   0  0  0  0  0  0  0  0  0  0  0  0
    1.2722   -2.2247    0.8936 C   0  0  0  0  0  0  0  0  0  0  0  0
    1.5634   -4.9912    0.7490 C   0  0  0  0  0  0  0  0  0  0  0  0
    0.1527   -3.0414    1.0428 C   0  0  0  0  0  0  0  0  0  0  0  0
    0.2577   -4.4941    1.0019 C   0  0  0  0  0  0  0  0  0  0  0  0
   -3.0788   -0.5714    0.4286 C   0  0  0  0  0  0  0  0  0  0  0  0
   -2.0779   -6.2895    3.5428 F   0  0  0  0  0  0  0  0  0  0  0  0
    3.8672   -4.6040    0.2702 F   0  0  0  0  0  0  0  0  0  0  0  0
    1.7798   -6.3175    0.6626 F   0  0  0  0  0  0  0  0  0  0  0  0
   -7.0991   -4.8403    2.0483 I   0  0  0  0  0  0  0  0  0  0  0  0
   -0.8012   -5.4806    1.1316 N   0  0  0  0  0  0  0  0  0  0  0  0
   -1.0973   -2.3738    0.8444 N   0  0  0  0  0  0  0  0  0  0  0  0
   -3.1612   -2.1248    4.2001 O   0  0  0  0  0  0  0  0  0  0  0  0
   -5.3646   -2.4015    2.6807 O   0  0  0  0  0  0  0  0  0  0  0  0
   -1.8870   -0.5092    2.7773 O   0  0  0  0  0  0  0  0  0  0  0  0
   -0.8184    0.4401    0.8040 O   0  0  0  0  0  0  0  0  0  0  0  0
    1.1862   -0.8893    1.1319 O   0  0  0  0  0  0  0  0  0  0  0  0
   -1.5224   -0.6453    1.3594 S   0  0  0  0  0  0  0  0  0  0  0  0
   -4.0983   -2.8292    1.0543 H   0  0  0  0  0  0  0  0  0  0  0  0
    1.0825    0.9491    0.1927 H   0  0  0  0  0  0  0  0  0  0  0  0
    0.8173   -0.4232   -0.8987 H   0  0  0  0  0  0  0  0  0  0  0  0
    2.4608    0.0038   -0.2118 H   0  0  0  0  0  0  0  0  0  0  0  0
   -5.0292   -4.2618   -0.2117 H   0  0  0  0  0  0  0  0  0  0  0  0
   -2.5929   -4.3654   -0.4979 H   0  0  0  0  0  0  0  0  0  0  0  0
   -3.5887   -1.3606   -1.7051 H   0  0  0  0  0  0  0  0  0  0  0  0
   -1.8355   -1.2073   -1.3718 H   0  0  0  0  0  0  0  0  0  0  0  0
   -2.2339    1.1997   -0.6698 H   0  0  0  0  0  0  0  0  0  0  0  0
   -3.9980    0.9974   -0.8822 H   0  0  0  0  0  0  0  0  0  0  0  0
   -4.5421   -5.5519    3.8096 H   0  0  0  0  0  0  0  0  0  0  0  0
    3.3354   -2.0753    0.4876 H   0  0  0  0  0  0  0  0  0  0  0  0
   -4.3346   -0.1522    2.1153 H   0  0  0  0  0  0  0  0  0  0  0  0
   -5.1655   -0.8440    0.7327 H   0  0  0  0  0  0  0  0  0  0  0  0
   -2.7977   -3.7594    3.0561 H   0  0  0  0  0  0  0  0  0  0  0  0
   -2.1550   -2.4679    2.5654 H   0  0  0  0  0  0  0  0  0  0  0  0
   -0.4391   -6.4325    1.2809 H   0  0  0  0  0  0  0  0  0  0  0  0
   -1.7848   -3.0878    1.0607 H   0  0  0  0  0  0  0  0  0  0  0  0
   -2.8060   -1.2261    3.9986 H   0  0  0  0  0  0  0  0  0  0  0  0
   -5.0916   -2.4143    3.6239 H   0  0  0  0  0  0  0  0  0  0  0  0
  1 33  1  0  0  0  0
  1 34  1  0  0  0  0
  1 35  1  0  0  0  0
  2 36  1  0  0  0  0
  3  2  2  0  0  0  0
  3 37  1  0  0  0  0
  4 38  1  0  0  0  0
  4 39  1  0  0  0  0
  5  4  1  0  0  0  0
  5 40  1  0  0  0  0
  5 41  1  0  0  0  0
  6 42  1  0  0  0  0
  7 43  1  0  0  0  0
  8 44  1  0  0  0  0
  8 45  1  0  0  0  0
  9 46  1  0  0  0  0
  9 47  1  0  0  0  0
 10  2  1  0  0  0  0
 10  6  2  0  0  0  0
 11  8  1  0  0  0  0
 11  9  1  0  0  0  0
 11 27  1  0  0  0  0
 11 32  1  6  0  0  0
 12  6  1  0  0  0  0
 13  7  2  0  0  0  0
 14  3  1  0  0  0  0
 14 12  2  0  0  0  0
 15  7  1  0  0  0  0
 16 13  1  0  0  0  0
 17 15  2  0  0  0  0
 18 16  2  0  0  0  0
 18 17  1  0  0  0  0
 19  4  1  0  0  0  0
 19  5  1  0  0  0  0
 19  8  1  0  0  0  0
 20 12  1  0  0  0  0
 21 13  1  0  0  0  0
 22 16  1  0  0  0  0
 23 10  1  0  0  0  0
 24 14  1  0  0  0  0
 24 18  1  0  0  0  0
 24 48  1  0  0  0  0
 25 17  1  0  0  0  0
 25 49  1  0  0  0  0
 26  9  1  0  0  0  0
 26 50  1  0  0  0  0
 27 51  1  0  0  0  0
 30  1  1  0  0  0  0
 30 15  1  0  0  0  0
 31 19  1  0  0  0  0
 31 25  1  0  0  0  0
 31 28  2  0  0  0  0
 31 29  2  0  0  0  0
M  END
>  <DRUGBANK_ID>
DB06309

>  <COMMON_NAME>
Refametinib

>  <CAS_NUMBER>
923032-37-5

>  <UNII>
JPX07AFM0N

>  <SYNONYMS>
Refametinib

$$$$
