
 OpenBabel10282417143D

 46 48  0  0  0  0  0  0  0  0999 V2000
   -1.2140    0.0545    0.8359 C   0  0  3  0  0  0  0  0  0  0  0  0
   -1.2058   -0.1422   -0.6362 C   0  0  3  0  0  0  0  0  0  0  0  0
    0.1416    0.0114    0.1766 C   0  0  0  0  0  0  0  0  0  0  0  0
   -1.8617    0.8790   -1.5422 C   0  0  0  0  0  0  0  0  0  0  0  0
    1.0307   -1.2129    0.0921 C   0  0  0  0  0  0  0  0  0  0  0  0
    0.9383    1.2670    0.5402 C   0  0  0  0  0  0  0  0  0  0  0  0
   -2.4743    0.4151   -2.6947 O   0  0  0  0  0  0  0  0  0  0  0  0
   -1.8482    2.0638   -1.2834 O   0  0  0  0  0  0  0  0  0  0  0  0
   -1.6829   -0.9639    1.7788 C   0  0  0  0  0  0  0  0  0  0  0  0
   -2.2849   -0.6727    2.9465 C   0  0  0  0  0  0  0  0  0  0  0  0
   -2.8596   -1.9050    4.0025 Cl  0  0  0  0  0  0  0  0  0  0  0  0
   -2.4844   -0.9738   -3.1380 C   0  0  0  0  0  0  0  0  0  0  0  0
   -1.0982   -1.5215   -3.3932 C   0  0  0  0  0  0  0  0  0  0  0  0
   -0.0456   -0.6244   -3.5766 C   0  0  0  0  0  0  0  0  0  0  0  0
   -0.8055   -2.8817   -3.3272 C   0  0  0  0  0  0  0  0  0  0  0  0
    0.5298   -3.2959   -3.2466 C   0  0  0  0  0  0  0  0  0  0  0  0
    1.2900   -1.0014   -3.4746 C   0  0  0  0  0  0  0  0  0  0  0  0
    2.3282   -0.0829   -3.4908 O   0  0  0  0  0  0  0  0  0  0  0  0
    2.0519    1.2671   -3.3593 C   0  0  0  0  0  0  0  0  0  0  0  0
    1.1953    1.7775   -2.4028 C   0  0  0  0  0  0  0  0  0  0  0  0
    2.6673    2.1914   -4.1703 C   0  0  0  0  0  0  0  0  0  0  0  0
    2.4642    3.5718   -3.9540 C   0  0  0  0  0  0  0  0  0  0  0  0
    1.6300    4.0500   -2.9404 C   0  0  0  0  0  0  0  0  0  0  0  0
    0.9814    3.1370   -2.1515 C   0  0  0  0  0  0  0  0  0  0  0  0
    1.5776   -2.3598   -3.3117 C   0  0  0  0  0  0  0  0  0  0  0  0
   -2.5415    0.9641    3.4661 Cl  0  0  0  0  0  0  0  0  0  0  0  0
   -1.5082    1.0566    1.1349 H   0  0  0  0  0  0  0  0  0  0  0  0
   -1.4065   -1.1560   -0.9471 H   0  0  0  0  0  0  0  0  0  0  0  0
    0.5315   -2.1308    0.4069 H   0  0  0  0  0  0  0  0  0  0  0  0
    1.3663   -1.3640   -0.9310 H   0  0  0  0  0  0  0  0  0  0  0  0
    1.9453   -1.0930    0.6788 H   0  0  0  0  0  0  0  0  0  0  0  0
    1.5531    1.6915   -0.2375 H   0  0  0  0  0  0  0  0  0  0  0  0
    0.3090    2.0815    0.9055 H   0  0  0  0  0  0  0  0  0  0  0  0
    1.7159    1.0343    1.2704 H   0  0  0  0  0  0  0  0  0  0  0  0
   -1.5510   -2.0139    1.5143 H   0  0  0  0  0  0  0  0  0  0  0  0
   -3.0140   -1.5449   -2.3686 H   0  0  0  0  0  0  0  0  0  0  0  0
   -3.0667   -1.0355   -4.0636 H   0  0  0  0  0  0  0  0  0  0  0  0
   -0.3019    0.4220   -3.6928 H   0  0  0  0  0  0  0  0  0  0  0  0
   -1.6055   -3.6182   -3.3030 H   0  0  0  0  0  0  0  0  0  0  0  0
    0.7521   -4.3508   -3.0945 H   0  0  0  0  0  0  0  0  0  0  0  0
    0.6639    1.0613   -1.8156 H   0  0  0  0  0  0  0  0  0  0  0  0
    3.2747    1.8409   -4.9936 H   0  0  0  0  0  0  0  0  0  0  0  0
    2.9706    4.2901   -4.5860 H   0  0  0  0  0  0  0  0  0  0  0  0
    1.4672    5.1101   -2.7705 H   0  0  0  0  0  0  0  0  0  0  0  0
    0.3394    3.4554   -1.3289 H   0  0  0  0  0  0  0  0  0  0  0  0
    2.6053   -2.7019   -3.2118 H   0  0  0  0  0  0  0  0  0  0  0  0
  1  2  1  0  0  0  0
  1  3  1  0  0  0  0
  1  9  1  0  0  0  0
  1 27  1  0  0  0  0
  2  4  1  0  0  0  0
  2  3  1  0  0  0  0
  2 28  1  0  0  0  0
  3  5  1  0  0  0  0
  3  6  1  0  0  0  0
  4  7  1  0  0  0  0
  4  8  2  0  0  0  0
  5 29  1  0  0  0  0
  5 30  1  0  0  0  0
  5 31  1  0  0  0  0
  6 32  1  0  0  0  0
  6 33  1  0  0  0  0
  6 34  1  0  0  0  0
  9 10  2  0  0  0  0
  9 35  1  0  0  0  0
 10 11  1  0  0  0  0
 10 26  1  0  0  0  0
 12  7  1  0  0  0  0
 12 13  1  0  0  0  0
 12 36  1  0  0  0  0
 12 37  1  0  0  0  0
 13 15  1  0  0  0  0
 14 13  2  0  0  0  0
 14 17  1  0  0  0  0
 14 38  1  0  0  0  0
 15 16  2  0  0  0  0
 15 39  1  0  0  0  0
 16 25  1  0  0  0  0
 16 40  1  0  0  0  0
 17 18  1  0  0  0  0
 18 19  1  0  0  0  0
 19 21  1  0  0  0  0
 20 19  2  0  0  0  0
 20 24  1  0  0  0  0
 20 41  1  0  0  0  0
 21 22  2  0  0  0  0
 21 42  1  0  0  0  0
 22 23  1  0  0  0  0
 22 43  1  0  0  0  0
 23 24  2  0  0  0  0
 23 44  1  0  0  0  0
 24 45  1  0  0  0  0
 25 17  2  0  0  0  0
 25 46  1  0  0  0  0
M  END
>  <DRUGBANK_ID>
DB04930

>  <COMMON_NAME>
Permethrin

>  <CAS_NUMBER>
52645-53-1

>  <UNII>
509F88P9SZ

>  <SYNONYMS>
(3-Phenoxyphenyl)methyl (Â±)-cis,trans-3-(2,2-dichloroethenyl)-2,2-dimethylcyclopropanecarboxylate; 3-(2,2-Dichloroethenyl)-2,2-dimethylcyclopropane carboxylic acid, (3-phenoxyphenyl) methyl ester; Permethrin

$$$$
