
 OpenBabel10282417203D

 48 51  0  0  1  0  0  0  0  0999 V2000
    1.3544   -0.5152   -0.2619 C   0  0  0  0  0  0  0  0  0  0  0  0
    0.2375    0.7561   -1.1148 C   0  0  2  0  0  0  0  0  0  0  0  0
   -0.0720    0.2624   -2.4577 C   0  0  0  0  0  0  0  0  0  0  0  0
    1.1757   -0.1880   -3.1182 C   0  0  0  0  0  0  0  0  0  0  0  0
    2.0520    1.0230   -3.2179 C   0  0  2  0  0  0  0  0  0  0  0  0
    3.3419    0.6539   -3.9822 C   0  0  0  0  0  0  0  0  0  0  0  0
    3.3724   -0.4023   -4.9214 C   0  0  0  0  0  0  0  0  0  0  0  0
    4.5465   -0.8091   -5.5628 C   0  0  0  0  0  0  0  0  0  0  0  0
    5.7350   -0.1352   -5.3282 C   0  0  0  0  0  0  0  0  0  0  0  0
    5.7161    0.9565   -4.4512 C   0  0  0  0  0  0  0  0  0  0  0  0
    4.5275    1.3642   -3.7793 C   0  0  0  0  0  0  0  0  0  0  0  0
    4.5709    2.5280   -2.8108 C   0  0  0  0  0  0  0  0  0  0  0  0
    3.1705    2.9533   -2.1635 C   0  0  0  0  0  0  0  0  0  0  0  0
    2.2941    1.6413   -1.7294 C   0  0  1  0  0  0  0  0  0  0  0  0
    1.1209    1.4147   -0.2376 C   0  0  2  0  0  0  0  0  0  0  0  0
   -0.5211    0.3586    0.4389 C   0  0  0  0  0  0  0  0  0  0  0  0
   -1.8679    0.8802   -0.1434 C   0  0  2  0  0  0  0  0  0  0  0  0
   -0.9411    1.9289   -0.4786 C   0  0  1  0  0  0  0  0  0  0  0  0
   -0.7169    2.6174    0.8892 O   0  0  0  0  0  0  0  0  0  0  0  0
   -2.8926    1.1812    0.7685 O   0  0  0  0  0  0  0  0  0  0  0  0
    6.8256   -0.6232   -5.9985 O   0  0  0  0  0  0  0  0  0  0  0  0
    8.0593    0.0538   -5.7842 C   0  0  0  0  0  0  0  0  0  0  0  0
    1.0680   -1.5275   -0.5258 H   0  0  0  0  0  0  0  0  0  0  0  0
    1.3130   -0.4461    0.8677 H   0  0  0  0  0  0  0  0  0  0  0  0
    2.4314   -0.3673   -0.3916 H   0  0  0  0  0  0  0  0  0  0  0  0
   -0.7422   -0.6024   -2.3809 H   0  0  0  0  0  0  0  0  0  0  0  0
   -0.5913    1.0324   -3.0391 H   0  0  0  0  0  0  0  0  0  0  0  0
    1.7199   -0.9534   -2.5573 H   0  0  0  0  0  0  0  0  0  0  0  0
    0.8954   -0.6312   -4.0707 H   0  0  0  0  0  0  0  0  0  0  0  0
    1.5451    1.7715   -3.8573 H   0  0  0  0  0  0  0  0  0  0  0  0
    2.4800   -0.9669   -5.1699 H   0  0  0  0  0  0  0  0  0  0  0  0
    4.5139   -1.6628   -6.2371 H   0  0  0  0  0  0  0  0  0  0  0  0
    6.6344    1.5038   -4.2610 H   0  0  0  0  0  0  0  0  0  0  0  0
    5.0373    3.3738   -3.3458 H   0  0  0  0  0  0  0  0  0  0  0  0
    5.2642    2.2544   -2.0068 H   0  0  0  0  0  0  0  0  0  0  0  0
    2.6749    3.5280   -2.9711 H   0  0  0  0  0  0  0  0  0  0  0  0
    3.3757    3.6591   -1.3575 H   0  0  0  0  0  0  0  0  0  0  0  0
    3.1216    1.0597   -1.3260 H   0  0  0  0  0  0  0  0  0  0  0  0
    1.1362    2.4203    0.1477 H   0  0  0  0  0  0  0  0  0  0  0  0
   -0.6638    0.1255    1.5045 H   0  0  0  0  0  0  0  0  0  0  0  0
   -0.6108   -0.7135    0.0858 H   0  0  0  0  0  0  0  0  0  0  0  0
   -2.2803    0.3095   -0.9870 H   0  0  0  0  0  0  0  0  0  0  0  0
   -1.2081    2.7363   -1.1531 H   0  0  0  0  0  0  0  0  0  0  0  0
   -0.1911    2.0498    1.5077 H   0  0  0  0  0  0  0  0  0  0  0  0
   -2.5077    1.7263    1.4760 H   0  0  0  0  0  0  0  0  0  0  0  0
    7.9970    1.0944   -6.1189 H   0  0  0  0  0  0  0  0  0  0  0  0
    8.3621   -0.0062   -4.7336 H   0  0  0  0  0  0  0  0  0  0  0  0
    8.8353   -0.4386   -6.3799 H   0  0  0  0  0  0  0  0  0  0  0  0
  1 23  1  0  0  0  0
  1 24  1  0  0  0  0
  1 25  1  0  0  0  0
  2  1  1  1  0  0  0
  2  3  1  0  0  0  0
  2 15  1  0  0  0  0
  2 18  1  0  0  0  0
  3  4  1  0  0  0  0
  3 26  1  0  0  0  0
  3 27  1  0  0  0  0
  4 28  1  0  0  0  0
  4 29  1  0  0  0  0
  5  4  1  0  0  0  0
  5  6  1  0  0  0  0
  5 14  1  0  0  0  0
  5 30  1  6  0  0  0
  6  7  2  0  0  0  0
  6 11  1  0  0  0  0
  7  8  1  0  0  0  0
  7 31  1  0  0  0  0
  8  9  2  0  0  0  0
  8 32  1  0  0  0  0
  9 10  1  0  0  0  0
  9 21  1  0  0  0  0
 10 11  2  0  0  0  0
 10 33  1  0  0  0  0
 11 12  1  0  0  0  0
 12 13  1  0  0  0  0
 12 34  1  0  0  0  0
 12 35  1  0  0  0  0
 13 36  1  0  0  0  0
 13 37  1  0  0  0  0
 14 13  1  0  0  0  0
 14 15  1  0  0  0  0
 14 38  1  1  0  0  0
 15 16  1  0  0  0  0
 15 39  1  6  0  0  0
 16 17  1  0  0  0  0
 16 40  1  0  0  0  0
 16 41  1  0  0  0  0
 17 18  1  0  0  0  0
 17 20  1  0  0  0  0
 17 42  1  6  0  0  0
 18 19  1  0  0  0  0
 18 43  1  6  0  0  0
 19 44  1  0  0  0  0
 20 45  1  0  0  0  0
 21 22  1  0  0  0  0
 22 46  1  0  0  0  0
 22 47  1  0  0  0  0
 22 48  1  0  0  0  0
M  END
>  <DRUGBANK_ID>
DB13386

>  <COMMON_NAME>
Epimestrol

>  <CAS_NUMBER>
7004-98-0

>  <UNII>
7IVE3SDZ38

>  <SYNONYMS>
Epimestrol

$$$$
