QND
 OpenBabel10282417123D

 20 21  0  0  0  0  0  0  0  0999 V2000
   -1.1896    1.3825    0.0000 N   0  0  0  0  0  0  0  0  0  0  0  0
   -2.3520    0.6786    0.0030 C   0  0  0  0  0  0  0  0  0  0  0  0
   -2.4029   -0.7090   -0.0032 C   0  0  0  0  0  0  0  0  0  0  0  0
   -1.2039   -1.4143   -0.0076 C   0  0  0  0  0  0  0  0  0  0  0  0
    1.2464   -1.3939    0.0048 C   0  0  0  0  0  0  0  0  0  0  0  0
    2.4405   -0.6767    0.0084 C   0  0  0  0  0  0  0  0  0  0  0  0
    2.4044    0.7127   -0.0028 C   0  0  0  0  0  0  0  0  0  0  0  0
    1.1741    1.3796   -0.0089 C   0  0  0  0  0  0  0  0  0  0  0  0
    0.0111   -0.7192   -0.0024 C   0  0  0  0  0  0  0  0  0  0  0  0
   -0.0333    0.6932   -0.0035 C   0  0  0  0  0  0  0  0  0  0  0  0
   -3.6431    1.4350    0.0115 C   0  0  0  0  0  0  0  0  0  0  0  0
   -4.7540    0.9274    0.0106 O   0  0  0  0  0  0  0  0  0  0  0  0
   -3.4955    2.7749    0.0208 O   0  0  0  0  0  0  0  0  0  0  0  0
   -3.3529   -1.2336   -0.0040 H   0  0  0  0  0  0  0  0  0  0  0  0
   -1.2237   -2.5014   -0.0152 H   0  0  0  0  0  0  0  0  0  0  0  0
    1.2851   -2.4812    0.0102 H   0  0  0  0  0  0  0  0  0  0  0  0
    3.3941   -1.1991    0.0191 H   0  0  0  0  0  0  0  0  0  0  0  0
    3.3297    1.2835   -0.0056 H   0  0  0  0  0  0  0  0  0  0  0  0
    1.1583    2.4671   -0.0176 H   0  0  0  0  0  0  0  0  0  0  0  0
   -4.4048    3.1366    0.0241 H   0  0  0  0  0  0  0  0  0  0  0  0
  1  2  2  0  0  0  0
  1 10  1  0  0  0  0
  2  3  1  0  0  0  0
  2 11  1  0  0  0  0
  3  4  2  0  0  0  0
  3 14  1  0  0  0  0
  4  9  1  0  0  0  0
  4 15  1  0  0  0  0
  5  6  2  0  0  0  0
  5  9  1  0  0  0  0
  5 16  1  0  0  0  0
  6  7  1  0  0  0  0
  6 17  1  0  0  0  0
  7  8  2  0  0  0  0
  7 18  1  0  0  0  0
  8 10  1  0  0  0  0
  8 19  1  0  0  0  0
  9 10  2  0  0  0  0
 11 12  2  0  0  0  0
 11 13  1  0  0  0  0
 13 20  1  0  0  0  0
M  END
>  <DRUGBANK_ID>
DB02428

>  <SECONDARY_ACCESSION_NUMBERS>
EXPT02730; DB08452

>  <COMMON_NAME>
Quinaldic Acid

>  <CAS_NUMBER>
93-10-7

>  <UNII>
P90NWT719R

$$$$
