
 OpenBabel10282417183D

 26 26  0  0  1  0  0  0  0  0999 V2000
    1.1123   -1.0225   -2.2479 C   0  0  0  0  0  0  0  0  0  0  0  0
    0.5676    0.1556   -1.4265 C   0  0  2  0  0  0  0  0  0  0  0  0
    0.9671   -0.0554    0.0627 C   0  0  0  0  0  0  0  0  0  0  0  0
    0.2513   -1.1261    0.8716 C   0  0  0  0  0  0  0  0  0  0  0  0
    0.6364   -1.3222    2.2059 C   0  0  0  0  0  0  0  0  0  0  0  0
   -0.1411   -2.1107    3.0565 C   0  0  0  0  0  0  0  0  0  0  0  0
   -1.3377   -2.6624    2.6062 C   0  0  0  0  0  0  0  0  0  0  0  0
   -1.6963   -2.5289    1.2719 C   0  0  0  0  0  0  0  0  0  0  0  0
   -0.8555   -1.8457    0.4029 C   0  0  0  0  0  0  0  0  0  0  0  0
   -0.8589    0.4988   -1.5723 N   0  0  0  0  0  0  0  0  0  0  0  0
   -1.4239    0.3580   -2.8978 C   0  0  0  0  0  0  0  0  0  0  0  0
    2.1699   -1.1873   -2.0080 H   0  0  0  0  0  0  0  0  0  0  0  0
    1.0607   -0.8229   -3.3213 H   0  0  0  0  0  0  0  0  0  0  0  0
    0.5871   -1.9597   -2.0463 H   0  0  0  0  0  0  0  0  0  0  0  0
    1.1113    1.0449   -1.7704 H   0  0  0  0  0  0  0  0  0  0  0  0
    2.0486   -0.2454    0.1122 H   0  0  0  0  0  0  0  0  0  0  0  0
    0.8056    0.8999    0.5841 H   0  0  0  0  0  0  0  0  0  0  0  0
    1.5291   -0.8383    2.5955 H   0  0  0  0  0  0  0  0  0  0  0  0
    0.1676   -2.2615    4.0876 H   0  0  0  0  0  0  0  0  0  0  0  0
   -1.9864   -3.2075    3.2829 H   0  0  0  0  0  0  0  0  0  0  0  0
   -2.6313   -2.9377    0.9010 H   0  0  0  0  0  0  0  0  0  0  0  0
   -1.1313   -1.8614   -0.6470 H   0  0  0  0  0  0  0  0  0  0  0  0
   -1.4424    0.0237   -0.8893 H   0  0  0  0  0  0  0  0  0  0  0  0
   -1.1821   -0.5952   -3.3752 H   0  0  0  0  0  0  0  0  0  0  0  0
   -2.5172    0.3977   -2.8294 H   0  0  0  0  0  0  0  0  0  0  0  0
   -1.1016    1.1863   -3.5317 H   0  0  0  0  0  0  0  0  0  0  0  0
  1 12  1  0  0  0  0
  1 13  1  0  0  0  0
  1 14  1  0  0  0  0
  2 10  1  0  0  0  0
  2 15  1  6  0  0  0
  2  3  1  0  0  0  0
  2  1  1  0  0  0  0
  3  4  1  0  0  0  0
  3 16  1  0  0  0  0
  3 17  1  0  0  0  0
  4  5  2  0  0  0  0
  4  9  1  0  0  0  0
  5  6  1  0  0  0  0
  5 18  1  0  0  0  0
  6  7  2  0  0  0  0
  6 19  1  0  0  0  0
  7  8  1  0  0  0  0
  7 20  1  0  0  0  0
  8  9  2  0  0  0  0
  8 21  1  0  0  0  0
  9 22  1  0  0  0  0
 10 11  1  0  0  0  0
 10 23  1  0  0  0  0
 11 24  1  0  0  0  0
 11 25  1  0  0  0  0
 11 26  1  0  0  0  0
M  END
>  <DRUGBANK_ID>
DB09571

>  <COMMON_NAME>
Levmetamfetamine

>  <CAS_NUMBER>
33817-09-3

>  <UNII>
Y24T9BT2Q2

>  <SYNONYMS>
Levmetamfetamine; Levomethamphetamine

$$$$
