
 OpenBabel10282417213D

 55 58  0  0  1  0  0  0  0  0999 V2000
    0.8434    3.3587    2.1621 C   0  0  0  0  0  0  0  0  0  0  0  0
    0.6087    2.1521    1.4333 O   0  0  0  0  0  0  0  0  0  0  0  0
    1.0874    2.2394    0.0848 C   0  0  2  0  0  0  0  0  0  0  0  0
    0.5130    1.0842   -0.7324 C   0  0  0  0  0  0  0  0  0  0  0  0
    0.6510   -0.4076   -0.3863 C   0  0  0  0  0  0  0  0  0  0  0  0
    1.1121   -0.6954   -1.7361 O   0  0  0  0  0  0  0  0  0  0  0  0
    1.3050    0.7167   -2.0005 C   0  0  0  0  0  0  0  0  0  0  0  0
    2.6165    2.2971    0.0419 C   0  0  0  0  0  0  0  0  0  0  0  0
    3.3228    3.4856   -0.2441 C   0  0  0  0  0  0  0  0  0  0  0  0
    2.4044    4.9521   -0.4549 Cl  0  0  0  0  0  0  0  0  0  0  0  0
    4.7437    3.4629   -0.3063 C   0  0  0  0  0  0  0  0  0  0  0  0
    5.4494    2.2612   -0.0623 C   0  0  0  0  0  0  0  0  0  0  0  0
    6.9481    2.2213    0.0230 C   0  0  0  0  0  0  0  0  0  0  0  0
    7.5836    3.4812   -0.5060 C   0  0  0  0  0  0  0  0  0  0  0  0
    6.8988    4.6537   -0.0614 N   0  0  0  0  0  0  0  0  0  0  0  0
    7.4813    5.4205    1.0952 C   0  0  0  0  0  0  0  0  0  0  0  0
    7.3232    6.8875    0.9183 C   0  0  0  0  0  0  0  0  0  0  0  0
    6.1622    7.5773    0.9440 C   0  0  0  0  0  0  0  0  0  0  0  0
    4.9032    7.1274    1.2858 O   0  0  0  0  0  0  0  0  0  0  0  0
    4.7109    5.8993    1.9735 C   0  0  0  0  0  0  0  0  0  0  0  0
    6.1498    8.9596    0.4932 C   0  0  0  0  0  0  0  0  0  0  0  0
    7.2901    9.6351    0.2775 C   0  0  0  0  0  0  0  0  0  0  0  0
    7.3441   11.0698   -0.1413 C   0  0  0  0  0  0  0  0  0  0  0  0
    8.4868    8.9892    0.4530 N   0  0  0  0  0  0  0  0  0  0  0  0
    8.6042    7.6564    0.7613 C   0  0  0  0  0  0  0  0  0  0  0  0
    9.7010    7.1449    0.9366 O   0  0  0  0  0  0  0  0  0  0  0  0
    5.5686    4.7156   -0.5482 C   0  0  0  0  0  0  0  0  0  0  0  0
    5.0929    5.6829   -1.0947 O   0  0  0  0  0  0  0  0  0  0  0  0
    4.7473    1.0891    0.1600 C   0  0  0  0  0  0  0  0  0  0  0  0
    5.5097   -0.4579    0.2762 Cl  0  0  0  0  0  0  0  0  0  0  0  0
    3.3717    1.1263    0.2409 C   0  0  0  0  0  0  0  0  0  0  0  0
    0.3706    4.2153    1.6697 H   0  0  0  0  0  0  0  0  0  0  0  0
    1.9184    3.5302    2.2673 H   0  0  0  0  0  0  0  0  0  0  0  0
    0.4294    3.2599    3.1674 H   0  0  0  0  0  0  0  0  0  0  0  0
    0.6435    3.1320   -0.3700 H   0  0  0  0  0  0  0  0  0  0  0  0
   -0.5450    1.2912   -0.9576 H   0  0  0  0  0  0  0  0  0  0  0  0
    1.3645   -0.7239    0.3754 H   0  0  0  0  0  0  0  0  0  0  0  0
   -0.2715   -0.9365   -0.1396 H   0  0  0  0  0  0  0  0  0  0  0  0
    0.8856    1.0737   -2.9436 H   0  0  0  0  0  0  0  0  0  0  0  0
    2.3752    0.9457   -2.0409 H   0  0  0  0  0  0  0  0  0  0  0  0
    7.3251    1.3914   -0.5799 H   0  0  0  0  0  0  0  0  0  0  0  0
    7.2196    2.0583    1.0731 H   0  0  0  0  0  0  0  0  0  0  0  0
    7.4728    3.4890   -1.5969 H   0  0  0  0  0  0  0  0  0  0  0  0
    8.6458    3.5382   -0.2708 H   0  0  0  0  0  0  0  0  0  0  0  0
    7.0685    5.1125    2.0650 H   0  0  0  0  0  0  0  0  0  0  0  0
    8.5326    5.1317    1.2029 H   0  0  0  0  0  0  0  0  0  0  0  0
    5.2272    5.0598    1.5521 H   0  0  0  0  0  0  0  0  0  0  0  0
    5.0499    5.9304    3.0055 H   0  0  0  0  0  0  0  0  0  0  0  0
    3.6709    5.5858    1.8967 H   0  0  0  0  0  0  0  0  0  0  0  0
    5.1838    9.4162    0.3014 H   0  0  0  0  0  0  0  0  0  0  0  0
    7.8475   11.6646    0.6285 H   0  0  0  0  0  0  0  0  0  0  0  0
    7.8946   11.1844   -1.0813 H   0  0  0  0  0  0  0  0  0  0  0  0
    6.3423   11.4866   -0.2845 H   0  0  0  0  0  0  0  0  0  0  0  0
    9.3612    9.4884    0.3389 H   0  0  0  0  0  0  0  0  0  0  0  0
    2.9169    0.1619    0.3718 H   0  0  0  0  0  0  0  0  0  0  0  0
  1  2  1  0  0  0  0
  1 32  1  0  0  0  0
  1 33  1  0  0  0  0
  1 34  1  0  0  0  0
  3  8  1  0  0  0  0
  3 35  1  6  0  0  0
  3  4  1  0  0  0  0
  3  2  1  0  0  0  0
  4  5  1  0  0  0  0
  4  7  1  0  0  0  0
  4 36  1  0  0  0  0
  5  6  1  0  0  0  0
  5 37  1  0  0  0  0
  5 38  1  0  0  0  0
  6  7  1  0  0  0  0
  7 39  1  0  0  0  0
  7 40  1  0  0  0  0
  8  9  2  0  0  0  0
  8 31  1  0  0  0  0
  9 10  1  0  0  0  0
  9 11  1  0  0  0  0
 11 12  2  0  0  0  0
 11 27  1  0  0  0  0
 12 13  1  0  0  0  0
 12 29  1  0  0  0  0
 13 14  1  0  0  0  0
 13 41  1  0  0  0  0
 13 42  1  0  0  0  0
 14 15  1  0  0  0  0
 14 43  1  0  0  0  0
 14 44  1  0  0  0  0
 15 16  1  0  0  0  0
 15 27  1  0  0  0  0
 16 17  1  0  0  0  0
 16 45  1  0  0  0  0
 16 46  1  0  0  0  0
 17 18  2  0  0  0  0
 17 25  1  0  0  0  0
 18 19  1  0  0  0  0
 18 21  1  0  0  0  0
 19 20  1  0  0  0  0
 20 47  1  0  0  0  0
 20 48  1  0  0  0  0
 20 49  1  0  0  0  0
 21 22  2  0  0  0  0
 21 50  1  0  0  0  0
 22 23  1  0  0  0  0
 22 24  1  0  0  0  0
 23 51  1  0  0  0  0
 23 52  1  0  0  0  0
 23 53  1  0  0  0  0
 24 25  1  0  0  0  0
 24 54  1  0  0  0  0
 25 26  2  0  0  0  0
 27 28  2  0  0  0  0
 29 30  1  0  0  0  0
 29 31  2  0  0  0  0
 31 55  1  0  0  0  0
M  END
>  <DRUGBANK_ID>
DB14799

>  <COMMON_NAME>
PF-06821497

>  <CAS_NUMBER>
1844849-10-0

>  <UNII>
S4L4MM20B6

$$$$
