
 OpenBabel10282417203D

 34 36  0  0  0  0  0  0  0  0999 V2000
   -2.2580    1.1610    0.2890 C   0  0  0  0  0  0  0  0  0  0  0  0
   -0.8470    1.7220    0.4610 C   0  0  0  0  0  0  0  0  0  0  0  0
    0.0240    0.7760    1.2820 O   0  0  0  0  0  0  0  0  0  0  0  0
   -0.4511    2.8310   -0.0171 O   0  0  0  0  0  0  0  0  0  0  0  0
   -2.3530    0.3470   -0.9930 N   0  3  3  0  0  0  0  0  0  0  0  0
    1.5422   -0.0893    3.1829 C   0  0  0  0  0  0  0  0  0  0  0  0
    2.1800   -0.3700    0.8430 N   0  3  3  0  0  0  0  0  0  0  0  0
    2.4413    0.4078    2.0627 C   0  0  0  0  0  0  0  0  0  0  0  0
    0.8730    0.2950   -0.9890 O   0  0  0  0  0  0  0  0  0  0  0  0
    2.1920    0.4320   -1.2280 C   0  0  0  0  0  0  0  0  0  0  0  0
    2.9410    0.0490   -0.1870 C   0  0  0  0  0  0  0  0  0  0  0  0
    0.0650   -1.5830    0.3730 O   0  0  0  0  0  0  0  0  0  0  0  0
    0.7430   -0.2190    0.3790 Fe  0  6  0  0  0  0  0  0  0  0  0  0
   -1.4470   -1.4660    0.5460 C   0  0  0  0  0  0  0  0  0  0  0  0
   -2.1180   -1.1400   -0.7790 C   0  0  0  0  0  0  0  0  0  0  0  0
   -2.0616   -1.6201    1.6477 O   0  0  0  0  0  0  0  0  0  0  0  0
    2.6708    0.8749   -2.3188 O   0  0  0  0  0  0  0  0  0  0  0  0
    2.4721   -1.7759    1.1576 C   0  0  0  0  0  0  0  0  0  0  0  0
    2.1776   -2.6390   -0.0584 C   0  0  0  0  0  0  0  0  0  0  0  0
    3.2134   -3.4097   -0.6497 O   0  5  0  0  0  0  0  0  0  0  0  0
    1.0044   -2.6709   -0.5459 O   0  0  0  0  0  0  0  0  0  0  0  0
    0.9154   -0.0486   -0.0219 Na  0  3  0  0  0  0  0  0  0  0  0  0
   -2.9507    1.9747    0.2354 H   0  0  0  0  0  0  0  0  0  0  0  0
   -2.4918    0.5332    1.1233 H   0  0  0  0  0  0  0  0  0  0  0  0
    1.7324    0.4768    4.0708 H   0  0  0  0  0  0  0  0  0  0  0  0
    0.5179    0.0288    2.8972 H   0  0  0  0  0  0  0  0  0  0  0  0
    3.4656    0.2897    2.3485 H   0  0  0  0  0  0  0  0  0  0  0  0
    2.2400    1.4420    1.8762 H   0  0  0  0  0  0  0  0  0  0  0  0
    3.5587   -0.7664   -0.5007 H   0  0  0  0  0  0  0  0  0  0  0  0
    3.5369    0.8771    0.1356 H   0  0  0  0  0  0  0  0  0  0  0  0
   -3.0787   -1.6111   -0.7684 H   0  0  0  0  0  0  0  0  0  0  0  0
   -1.4961   -1.5016   -1.5711 H   0  0  0  0  0  0  0  0  0  0  0  0
    3.5037   -1.8749    1.4239 H   0  0  0  0  0  0  0  0  0  0  0  0
    1.8605   -2.0927    1.9764 H   0  0  0  0  0  0  0  0  0  0  0  0
  1 23  1  0  0  0  0
  1 24  1  0  0  0  0
  2  1  1  0  0  0  0
  2  4  2  0  0  0  0
  3  2  1  0  0  0  0
  3 13  1  0  0  0  0
  5 13  1  0  0  0  0
  5  1  1  0  0  0  0
  6  5  1  0  0  0  0
  6 25  1  0  0  0  0
  6 26  1  0  0  0  0
  7 13  1  0  0  0  0
  7 18  1  0  0  0  0
  8  6  1  0  0  0  0
  8  7  1  0  0  0  0
  8 27  1  0  0  0  0
  8 28  1  0  0  0  0
 10  9  1  0  0  0  0
 10 17  2  0  0  0  0
 11 10  1  0  0  0  0
 11  7  1  0  0  0  0
 11 29  1  0  0  0  0
 11 30  1  0  0  0  0
 13  9  1  0  0  0  0
 13 12  1  0  0  0  0
 14 12  1  0  0  0  0
 14 16  2  0  0  0  0
 15 14  1  0  0  0  0
 15  5  1  0  0  0  0
 15 31  1  0  0  0  0
 15 32  1  0  0  0  0
 18 33  1  0  0  0  0
 18 34  1  0  0  0  0
 19 18  1  0  0  0  0
 19 21  2  0  0  0  0
 20 19  1  0  0  0  0
M  CHG  5   5   1   7   1  13  -2  20  -1  22   1
M  END
>  <DRUGBANK_ID>
DB13381

>  <COMMON_NAME>
Sodium feredetate

>  <CAS_NUMBER>
15708-41-5

>  <UNII>
403J23EMFA

>  <SYNONYMS>
Feredato de sodio; Ferédétate de sodium; Ferric sodium EDTA; Ferric sodium ethylenediaminetetraacetate; Ferrostrane; Ferrostrene; Monosodium ferric EDTA; Natrii feredetas; Sodium feredetate; Sodium ferric EDTA; Sodium iron EDTA; Sodium ironedetate

$$$$
