
 OpenBabel10282417203D

120119  0  0  1  0  0  0  0  0999 V2000
   -4.9453    5.1702    2.5168 C   0  0  0  0  0  0  0  0  0  0  0  0
   -4.8339    5.6668    1.0266 C   0  0  2  0  0  0  0  0  0  0  0  0
   -4.0259    6.9770    0.6922 C   0  0  0  0  0  0  0  0  0  0  0  0
   -4.7865    8.3812    0.5197 C   0  0  0  0  0  0  0  0  0  0  0  0
   -6.1686    8.2961   -0.1139 C   0  0  2  0  0  0  0  0  0  0  0  0
   -7.0019    7.0507    0.4240 C   0  0  1  0  0  0  0  0  0  0  0  0
   -6.2000    5.7275    0.3116 C   0  0  0  0  0  0  0  0  0  0  0  0
   -7.6309    7.1254    1.7671 O   0  0  0  0  0  0  0  0  0  0  0  0
   -6.7336    7.2115    2.7430 C   0  0  0  0  0  0  0  0  0  0  0  0
   -5.6185    7.4290    2.4716 O   0  0  0  0  0  0  0  0  0  0  0  0
   -6.9909    7.2482    4.1981 C   0  0  0  0  0  0  0  0  0  0  0  0
   -7.4481    8.6381    4.6266 N   0  3  0  0  0  0  0  0  0  0  0  0
   -8.7561    8.7619    3.8621 C   0  0  0  0  0  0  0  0  0  0  0  0
   -7.6748    8.6539    6.1032 C   0  0  0  0  0  0  0  0  0  0  0  0
   -6.4948    9.8068    4.2610 C   0  0  0  0  0  0  0  0  0  0  0  0
   -5.1639    9.8543    5.0973 C   0  0  0  0  0  0  0  0  0  0  0  0
   -4.1599    8.7103    4.9312 C   0  0  0  0  0  0  0  0  0  0  0  0
   -3.8509    8.7076    3.4760 C   0  0  0  0  0  0  0  0  0  0  0  0
   -3.1517    9.8866    2.8762 C   0  0  0  0  0  0  0  0  0  0  0  0
   -1.8461    9.8848    3.5562 C   0  0  0  0  0  0  0  0  0  0  0  0
   -1.2003    8.5779    3.1588 C   0  0  0  0  0  0  0  0  0  0  0  0
   -1.0343    8.4839    1.6389 C   0  0  0  0  0  0  0  0  0  0  0  0
   -0.1313    9.5922    1.1849 C   0  0  0  0  0  0  0  0  0  0  0  0
    1.1453    9.5578    1.9430 C   0  0  0  0  0  0  0  0  0  0  0  0
    1.8905    8.2850    1.6153 N   0  3  0  0  0  0  0  0  0  0  0  0
    2.2341    8.1146    0.1538 C   0  0  0  0  0  0  0  0  0  0  0  0
    3.1681    8.5896    2.1765 C   0  0  0  0  0  0  0  0  0  0  0  0
    1.3937    6.8601    2.2793 C   0  0  0  0  0  0  0  0  0  0  0  0
    1.0810    6.7899    3.7939 C   0  0  0  0  0  0  0  0  0  0  0  0
    0.0126    6.4136    4.2641 O   0  0  0  0  0  0  0  0  0  0  0  0
    2.0225    7.3018    4.6216 O   0  0  0  0  0  0  0  0  0  0  0  0
    3.4177    7.0130    4.3943 C   0  0  2  0  0  0  0  0  0  0  0  0
    3.8105    5.6810    4.9499 C   0  0  0  0  0  0  0  0  0  0  0  0
    3.8491    5.7458    6.4556 C   0  0  1  0  0  0  0  0  0  0  0  0
    4.5453    6.9920    7.0269 C   0  0  0  0  0  0  0  0  0  0  0  0
    4.1373    8.3128    6.3923 C   0  0  0  0  0  0  0  0  0  0  0  0
    4.2361    8.2598    4.8694 C   0  0  1  0  0  0  0  0  0  0  0  0
    5.6805    8.4126    4.2675 C   0  0  0  0  0  0  0  0  0  0  0  0
    6.6354    7.3208    4.6786 C   0  0  0  0  0  0  0  0  0  0  0  0
    5.8356    8.4380    2.7451 C   0  0  0  0  0  0  0  0  0  0  0  0
    2.4184    5.6966    6.9632 C   0  0  0  0  0  0  0  0  0  0  0  0
   -5.9396    8.3970   -1.6513 C   0  0  0  0  0  0  0  0  0  0  0  0
   -4.4688    8.2485   -2.0930 C   0  0  0  0  0  0  0  0  0  0  0  0
   -6.7692    7.3807   -2.4103 C   0  0  0  0  0  0  0  0  0  0  0  0
    1.3784    1.0047   -1.9011 Cl  0  5  0  0  0  0  0  0  0  0  0  0
    0.4935   -0.8116    1.9226 Cl  0  5  0  0  0  0  0  0  0  0  0  0
   -5.9658    4.8049    2.7101 H   0  0  0  0  0  0  0  0  0  0  0  0
   -4.2090    4.4165    2.7724 H   0  0  0  0  0  0  0  0  0  0  0  0
   -4.7298    5.8898    3.3137 H   0  0  0  0  0  0  0  0  0  0  0  0
   -4.2810    4.8417    0.5607 H   0  0  0  0  0  0  0  0  0  0  0  0
   -3.1935    7.0456    1.3820 H   0  0  0  0  0  0  0  0  0  0  0  0
   -3.4913    6.7639   -0.2338 H   0  0  0  0  0  0  0  0  0  0  0  0
   -5.0366    8.9697    1.3846 H   0  0  0  0  0  0  0  0  0  0  0  0
   -4.1220    9.1581    0.1294 H   0  0  0  0  0  0  0  0  0  0  0  0
   -6.7287    9.2027    0.1919 H   0  0  0  0  0  0  0  0  0  0  0  0
   -7.9076    7.0030   -0.1808 H   0  0  0  0  0  0  0  0  0  0  0  0
   -5.9267    5.5167   -0.7160 H   0  0  0  0  0  0  0  0  0  0  0  0
   -6.8507    4.9052    0.6142 H   0  0  0  0  0  0  0  0  0  0  0  0
   -7.6522    6.4462    4.5094 H   0  0  0  0  0  0  0  0  0  0  0  0
   -6.0706    7.0301    4.7359 H   0  0  0  0  0  0  0  0  0  0  0  0
   -9.3236    7.8454    4.0659 H   0  0  0  0  0  0  0  0  0  0  0  0
   -9.2690    9.6621    4.1654 H   0  0  0  0  0  0  0  0  0  0  0  0
   -8.5417    8.8405    2.7931 H   0  0  0  0  0  0  0  0  0  0  0  0
   -6.7151    8.5803    6.6207 H   0  0  0  0  0  0  0  0  0  0  0  0
   -8.1700    9.5973    6.3343 H   0  0  0  0  0  0  0  0  0  0  0  0
   -8.2785    7.7877    6.3616 H   0  0  0  0  0  0  0  0  0  0  0  0
   -6.3717    9.8228    3.1675 H   0  0  0  0  0  0  0  0  0  0  0  0
   -7.0493   10.7308    4.4583 H   0  0  0  0  0  0  0  0  0  0  0  0
   -4.6478   10.7767    4.7993 H   0  0  0  0  0  0  0  0  0  0  0  0
   -5.3563    9.9847    6.1551 H   0  0  0  0  0  0  0  0  0  0  0  0
   -3.2567    8.8041    5.5311 H   0  0  0  0  0  0  0  0  0  0  0  0
   -4.5214    7.7341    5.2432 H   0  0  0  0  0  0  0  0  0  0  0  0
   -3.5176    7.7191    3.1557 H   0  0  0  0  0  0  0  0  0  0  0  0
   -4.7833    8.9221    3.0600 H   0  0  0  0  0  0  0  0  0  0  0  0
   -3.0600    9.7968    1.7945 H   0  0  0  0  0  0  0  0  0  0  0  0
   -3.7288   10.8011    2.9711 H   0  0  0  0  0  0  0  0  0  0  0  0
   -1.2659   10.7561    3.2779 H   0  0  0  0  0  0  0  0  0  0  0  0
   -1.9548    9.9324    4.6383 H   0  0  0  0  0  0  0  0  0  0  0  0
   -0.2947    8.6028    3.7440 H   0  0  0  0  0  0  0  0  0  0  0  0
   -1.7088    7.6752    3.5119 H   0  0  0  0  0  0  0  0  0  0  0  0
   -0.7657    7.4886    1.3165 H   0  0  0  0  0  0  0  0  0  0  0  0
   -1.9389    8.5737    1.0537 H   0  0  0  0  0  0  0  0  0  0  0  0
    0.0478    9.5341    0.1153 H   0  0  0  0  0  0  0  0  0  0  0  0
   -0.6016   10.5617    1.3502 H   0  0  0  0  0  0  0  0  0  0  0  0
    1.7644   10.4203    1.6566 H   0  0  0  0  0  0  0  0  0  0  0  0
    1.0664    9.6582    3.0373 H   0  0  0  0  0  0  0  0  0  0  0  0
    2.8233    8.9966   -0.1371 H   0  0  0  0  0  0  0  0  0  0  0  0
    2.8516    7.2174    0.0549 H   0  0  0  0  0  0  0  0  0  0  0  0
    1.3241    8.0340   -0.4217 H   0  0  0  0  0  0  0  0  0  0  0  0
    2.9131    8.7729    3.1894 H   0  0  0  0  0  0  0  0  0  0  0  0
    3.7596    7.7284    1.9155 H   0  0  0  0  0  0  0  0  0  0  0  0
    3.5901    9.5196    1.8129 H   0  0  0  0  0  0  0  0  0  0  0  0
    0.5643    6.5065    1.6879 H   0  0  0  0  0  0  0  0  0  0  0  0
    2.1557    6.1141    2.0560 H   0  0  0  0  0  0  0  0  0  0  0  0
    3.5496    6.7712    3.3628 H   0  0  0  0  0  0  0  0  0  0  0  0
    4.7578    5.3763    4.5102 H   0  0  0  0  0  0  0  0  0  0  0  0
    3.1263    4.9063    4.5759 H   0  0  0  0  0  0  0  0  0  0  0  0
    4.3966    4.8587    6.7870 H   0  0  0  0  0  0  0  0  0  0  0  0
    5.6112    6.8425    6.9281 H   0  0  0  0  0  0  0  0  0  0  0  0
    4.3941    7.0605    8.1046 H   0  0  0  0  0  0  0  0  0  0  0  0
    4.7226    9.1596    6.7679 H   0  0  0  0  0  0  0  0  0  0  0  0
    3.0955    8.5421    6.6745 H   0  0  0  0  0  0  0  0  0  0  0  0
    3.7310    9.2141    4.6324 H   0  0  0  0  0  0  0  0  0  0  0  0
    6.0585    9.3785    4.6226 H   0  0  0  0  0  0  0  0  0  0  0  0
    6.2694    6.3466    4.3768 H   0  0  0  0  0  0  0  0  0  0  0  0
    7.5989    7.4146    4.1834 H   0  0  0  0  0  0  0  0  0  0  0  0
    6.8412    7.3690    5.7349 H   0  0  0  0  0  0  0  0  0  0  0  0
    5.4003    9.3353    2.3096 H   0  0  0  0  0  0  0  0  0  0  0  0
    6.8732    8.4690    2.4140 H   0  0  0  0  0  0  0  0  0  0  0  0
    5.4693    7.5033    2.3111 H   0  0  0  0  0  0  0  0  0  0  0  0
    2.4135    5.6663    8.0486 H   0  0  0  0  0  0  0  0  0  0  0  0
    1.8458    6.5853    6.6905 H   0  0  0  0  0  0  0  0  0  0  0  0
    1.8994    4.8300    6.5447 H   0  0  0  0  0  0  0  0  0  0  0  0
   -6.2539    9.4054   -1.9555 H   0  0  0  0  0  0  0  0  0  0  0  0
   -4.1377    7.2348   -1.8789 H   0  0  0  0  0  0  0  0  0  0  0  0
   -4.3167    8.3825   -3.1578 H   0  0  0  0  0  0  0  0  0  0  0  0
   -3.7862    8.9666   -1.6240 H   0  0  0  0  0  0  0  0  0  0  0  0
   -7.8312    7.4946   -2.1873 H   0  0  0  0  0  0  0  0  0  0  0  0
   -6.5938    7.4487   -3.4789 H   0  0  0  0  0  0  0  0  0  0  0  0
   -6.4875    6.3631   -2.1658 H   0  0  0  0  0  0  0  0  0  0  0  0
  1 47  1  0  0  0  0
  1 48  1  0  0  0  0
  1 49  1  0  0  0  0
  2  3  1  0  0  0  0
  2  7  1  0  0  0  0
  2 50  1  6  0  0  0
  2  1  1  0  0  0  0
  3  4  1  0  0  0  0
  3 51  1  0  0  0  0
  3 52  1  0  0  0  0
  4  5  1  0  0  0  0
  4 53  1  0  0  0  0
  4 54  1  0  0  0  0
  5  6  1  0  0  0  0
  5 55  1  1  0  0  0
  5 42  1  0  0  0  0
  6  7  1  0  0  0  0
  6  8  1  0  0  0  0
  6 56  1  6  0  0  0
  7 57  1  0  0  0  0
  7 58  1  0  0  0  0
  8  9  1  0  0  0  0
  9 10  2  0  0  0  0
  9 11  1  0  0  0  0
 11 12  1  0  0  0  0
 11 59  1  0  0  0  0
 11 60  1  0  0  0  0
 12 13  1  0  0  0  0
 12 14  1  0  0  0  0
 12 15  1  0  0  0  0
 13 61  1  0  0  0  0
 13 62  1  0  0  0  0
 13 63  1  0  0  0  0
 14 64  1  0  0  0  0
 14 65  1  0  0  0  0
 14 66  1  0  0  0  0
 15 16  1  0  0  0  0
 15 67  1  0  0  0  0
 15 68  1  0  0  0  0
 16 17  1  0  0  0  0
 16 69  1  0  0  0  0
 16 70  1  0  0  0  0
 17 18  1  0  0  0  0
 17 71  1  0  0  0  0
 17 72  1  0  0  0  0
 18 19  1  0  0  0  0
 18 73  1  0  0  0  0
 18 74  1  0  0  0  0
 19 20  1  0  0  0  0
 19 75  1  0  0  0  0
 19 76  1  0  0  0  0
 20 21  1  0  0  0  0
 20 77  1  0  0  0  0
 20 78  1  0  0  0  0
 21 22  1  0  0  0  0
 21 79  1  0  0  0  0
 21 80  1  0  0  0  0
 22 23  1  0  0  0  0
 22 81  1  0  0  0  0
 22 82  1  0  0  0  0
 23 24  1  0  0  0  0
 23 83  1  0  0  0  0
 23 84  1  0  0  0  0
 24 25  1  0  0  0  0
 24 85  1  0  0  0  0
 24 86  1  0  0  0  0
 25 26  1  0  0  0  0
 25 27  1  0  0  0  0
 25 28  1  0  0  0  0
 26 87  1  0  0  0  0
 26 88  1  0  0  0  0
 26 89  1  0  0  0  0
 27 90  1  0  0  0  0
 27 91  1  0  0  0  0
 27 92  1  0  0  0  0
 28 29  1  0  0  0  0
 28 93  1  0  0  0  0
 28 94  1  0  0  0  0
 29 30  2  0  0  0  0
 29 31  1  0  0  0  0
 32 33  1  0  0  0  0
 32 37  1  0  0  0  0
 32 95  1  6  0  0  0
 32 31  1  0  0  0  0
 33 34  1  0  0  0  0
 33 96  1  0  0  0  0
 33 97  1  0  0  0  0
 34 35  1  0  0  0  0
 34 98  1  1  0  0  0
 34 41  1  0  0  0  0
 35 36  1  0  0  0  0
 35 99  1  0  0  0  0
 35100  1  0  0  0  0
 36 37  1  0  0  0  0
 36101  1  0  0  0  0
 36102  1  0  0  0  0
 37103  1  6  0  0  0
 37 38  1  0  0  0  0
 38 39  1  0  0  0  0
 38 40  1  0  0  0  0
 38104  1  0  0  0  0
 39105  1  0  0  0  0
 39106  1  0  0  0  0
 39107  1  0  0  0  0
 40108  1  0  0  0  0
 40109  1  0  0  0  0
 40110  1  0  0  0  0
 41111  1  0  0  0  0
 41112  1  0  0  0  0
 41113  1  0  0  0  0
 42 43  1  0  0  0  0
 42 44  1  0  0  0  0
 42114  1  0  0  0  0
 43115  1  0  0  0  0
 43116  1  0  0  0  0
 43117  1  0  0  0  0
 44118  1  0  0  0  0
 44119  1  0  0  0  0
 44120  1  0  0  0  0
M  CHG  4  12   1  25   1  45  -1  46  -1
M  END
>  <DRUGBANK_ID>
DB13705

>  <COMMON_NAME>
Decamethoxine

>  <CAS_NUMBER>
38146-42-8

>  <UNII>
81I73K1HKN

>  <SYNONYMS>
Decamethoxin

$$$$
