E1P
 OpenBabel10282417123D

 28 28  0  0  0  0  0  0  0  0999 V2000
    0.7681    1.1961   -0.2093 C   0  0  0  0  0  0  0  0  0  0  0  0
   -0.6969    1.2733    0.2392 C   0  0  0  0  0  0  0  0  0  0  0  0
   -1.4892    0.0338   -0.1873 C   0  0  0  0  0  0  0  0  0  0  0  0
   -0.7676   -1.2457    0.2226 C   0  0  0  0  0  0  0  0  0  0  0  0
    0.6739   -1.2378   -0.2718 C   0  0  0  0  0  0  0  0  0  0  0  0
    1.3791   -0.0613    0.2328 N   0  0  0  0  0  0  0  0  0  0  0  0
    2.5042   -0.0562    1.0897 C   0  0  0  0  0  0  0  0  0  0  0  0
    3.0148    0.9862    1.4960 O   0  0  0  0  0  0  0  0  0  0  0  0
    3.1341   -1.4310    1.5365 C   0  0  0  0  0  0  0  0  0  0  0  0
    2.7573   -2.5149    1.1152 O   0  0  0  0  0  0  0  0  0  0  0  0
    4.1415   -1.3012    2.4332 O   0  0  0  0  0  0  0  0  0  0  0  0
    4.7317   -2.5542    2.8548 C   0  0  0  0  0  0  0  0  0  0  0  0
    3.7653   -3.3918    3.6867 C   0  0  0  0  0  0  0  0  0  0  0  0
    0.8075    1.2042   -1.3071 H   0  0  0  0  0  0  0  0  0  0  0  0
    1.3227    2.0709    0.1416 H   0  0  0  0  0  0  0  0  0  0  0  0
   -1.1741    2.1679   -0.1770 H   0  0  0  0  0  0  0  0  0  0  0  0
   -0.7356    1.3598    1.3315 H   0  0  0  0  0  0  0  0  0  0  0  0
   -2.4893    0.0530    0.2602 H   0  0  0  0  0  0  0  0  0  0  0  0
   -1.6259    0.0395   -1.2759 H   0  0  0  0  0  0  0  0  0  0  0  0
   -0.7815   -1.3359    1.3161 H   0  0  0  0  0  0  0  0  0  0  0  0
   -1.2893   -2.1177   -0.1852 H   0  0  0  0  0  0  0  0  0  0  0  0
    1.1210   -2.1825   -0.0061 H   0  0  0  0  0  0  0  0  0  0  0  0
    0.7072   -1.1865   -1.3662 H   0  0  0  0  0  0  0  0  0  0  0  0
    5.0953   -3.1158    1.9836 H   0  0  0  0  0  0  0  0  0  0  0  0
    5.6117   -2.3206    3.4654 H   0  0  0  0  0  0  0  0  0  0  0  0
    2.8677   -3.6672    3.1259 H   0  0  0  0  0  0  0  0  0  0  0  0
    4.2329   -4.3228    4.0195 H   0  0  0  0  0  0  0  0  0  0  0  0
    3.4248   -2.8249    4.5574 H   0  0  0  0  0  0  0  0  0  0  0  0
  1  2  1  0  0  0  0
  1  6  1  0  0  0  0
  1 14  1  0  0  0  0
  1 15  1  0  0  0  0
  2  3  1  0  0  0  0
  2 16  1  0  0  0  0
  2 17  1  0  0  0  0
  3  4  1  0  0  0  0
  3 18  1  0  0  0  0
  3 19  1  0  0  0  0
  4  5  1  0  0  0  0
  4 20  1  0  0  0  0
  4 21  1  0  0  0  0
  5  6  1  0  0  0  0
  5 22  1  0  0  0  0
  5 23  1  0  0  0  0
  6  7  1  0  0  0  0
  7  8  2  0  0  0  0
  7  9  1  0  0  0  0
  9 10  2  0  0  0  0
  9 11  1  0  0  0  0
 11 12  1  0  0  0  0
 12 13  1  0  0  0  0
 12 24  1  0  0  0  0
 12 25  1  0  0  0  0
 13 26  1  0  0  0  0
 13 27  1  0  0  0  0
 13 28  1  0  0  0  0
M  END
>  <DRUGBANK_ID>
DB02419

>  <SECONDARY_ACCESSION_NUMBERS>
EXPT01313

>  <COMMON_NAME>
Ethyl Oxo(Piperidin-1-Yl)Acetate

>  <CAS_NUMBER>
53074-96-7

>  <UNII>
D7IIF4X1TU

$$$$
