
 OpenBabel10282417193D

 25 27  0  0  0  0  0  0  0  0999 V2000
    1.3440   -0.2250    0.0360 C   0  0  0  0  0  0  0  0  0  0  0  0
    0.5020   -1.2510   -0.0040 C   0  0  0  0  0  0  0  0  0  0  0  0
    0.8920    1.0800   -0.0700 C   0  0  0  0  0  0  0  0  0  0  0  0
   -8.3193    0.6807   -1.0969 C   0  0  0  0  0  0  0  0  0  0  0  0
   -7.3217    1.5345   -0.8992 C   0  0  0  0  0  0  0  0  0  0  0  0
   -0.8560   -1.0420    0.0030 C   0  0  0  0  0  0  0  0  0  0  0  0
   -0.5090    1.2150    0.0750 C   0  0  0  0  0  0  0  0  0  0  0  0
   -8.0957   -0.6851   -1.1530 C   0  0  0  0  0  0  0  0  0  0  0  0
   -6.0623    1.0795   -0.5913 C   0  0  0  0  0  0  0  0  0  0  0  0
   -1.3730    0.2230   -0.0410 C   0  0  0  0  0  0  0  0  0  0  0  0
   -6.8140   -1.0753   -0.6978 C   0  0  0  0  0  0  0  0  0  0  0  0
   -5.7838   -0.2590   -0.5705 C   0  0  0  0  0  0  0  0  0  0  0  0
   -3.2994    1.7703   -0.2482 C   0  0  0  0  0  0  0  0  0  0  0  0
   -2.8131    0.4658   -0.2084 N   0  0  0  0  0  0  0  0  0  0  0  0
   -2.4981    2.7508   -0.1398 O   0  0  0  0  0  0  0  0  0  0  0  0
   -3.9542   -0.9304   -0.3628 Se  0  0  0  0  0  0  0  0  0  0  0  0
    2.3915   -0.4099    0.1523 H   0  0  0  0  0  0  0  0  0  0  0  0
    0.8845   -2.2496   -0.0420 H   0  0  0  0  0  0  0  0  0  0  0  0
    1.5432    1.9107   -0.2456 H   0  0  0  0  0  0  0  0  0  0  0  0
   -9.3148    1.0548   -1.2150 H   0  0  0  0  0  0  0  0  0  0  0  0
   -7.5002    2.5864   -0.9805 H   0  0  0  0  0  0  0  0  0  0  0  0
   -1.5185   -1.8813    0.0435 H   0  0  0  0  0  0  0  0  0  0  0  0
   -0.8953    2.1885    0.2939 H   0  0  0  0  0  0  0  0  0  0  0  0
   -8.8258   -1.3819   -1.5084 H   0  0  0  0  0  0  0  0  0  0  0  0
   -5.2885    1.7827   -0.3644 H   0  0  0  0  0  0  0  0  0  0  0  0
  1 17  1  0  0  0  0
  2  1  2  0  0  0  0
  2 18  1  0  0  0  0
  3  1  1  0  0  0  0
  3 19  1  0  0  0  0
  4 20  1  0  0  0  0
  5  4  2  0  0  0  0
  5 21  1  0  0  0  0
  6  2  1  0  0  0  0
  6 22  1  0  0  0  0
  7  3  2  0  0  0  0
  7 23  1  0  0  0  0
  8  4  1  0  0  0  0
  8 24  1  0  0  0  0
  9  5  1  0  0  0  0
  9 25  1  0  0  0  0
 10  6  2  0  0  0  0
 10  7  1  0  0  0  0
 11  8  2  0  0  0  0
 12  9  2  0  0  0  0
 12 11  1  0  0  0  0
 13 11  1  0  0  0  0
 14 10  1  0  0  0  0
 14 13  1  0  0  0  0
 15 13  2  0  0  0  0
 16 12  1  0  0  0  0
 16 14  1  0  0  0  0
M  END
>  <DRUGBANK_ID>
DB12610

>  <SECONDARY_ACCESSION_NUMBERS>
DB05994

>  <COMMON_NAME>
Ebselen

>  <CAS_NUMBER>
60940-34-3

>  <UNII>
40X2P7DPGH

>  <SYNONYMS>
Ebselen; ebseleno

$$$$
