TC8
 OpenBabel10282417173D

 31 33  0  0  0  0  0  0  0  0999 V2000
    1.0130    0.2044    0.1725 C   0  0  0  0  0  0  0  0  0  0  0  0
    0.4068    0.1007    1.8770 S   0  0  0  0  0  0  0  0  0  0  0  0
    0.9181   -1.4561    2.5697 C   0  0  0  0  0  0  0  0  0  0  0  0
    1.7813   -1.4102    3.5414 N   0  0  0  0  0  0  0  0  0  0  0  0
    2.0823   -2.6040    4.2332 C   0  0  0  0  0  0  0  0  0  0  0  0
    3.0274   -2.6108    5.2602 C   0  0  0  0  0  0  0  0  0  0  0  0
    3.4956   -3.8244    5.7905 C   0  0  0  0  0  0  0  0  0  0  0  0
    2.9642   -5.0380    5.3601 C   0  0  0  0  0  0  0  0  0  0  0  0
    1.8674   -5.0276    4.5177 C   0  0  0  0  0  0  0  0  0  0  0  0
    1.4829   -3.8212    3.9218 C   0  0  0  0  0  0  0  0  0  0  0  0
    0.4920   -3.8383    2.8590 C   0  0  0  0  0  0  0  0  0  0  0  0
   -0.0042   -4.9268    2.5327 O   0  0  0  0  0  0  0  0  0  0  0  0
    0.2412   -2.6278    2.2284 N   0  0  0  0  0  0  0  0  0  0  0  0
   -0.6789   -2.7068    1.1712 C   0  0  0  0  0  0  0  0  0  0  0  0
   -0.2393   -2.5547   -0.1327 C   0  0  0  0  0  0  0  0  0  0  0  0
    1.0727   -2.4132   -0.3845 F   0  0  0  0  0  0  0  0  0  0  0  0
   -1.1355   -2.5394   -1.1832 C   0  0  0  0  0  0  0  0  0  0  0  0
   -2.4076   -3.0516   -0.9677 C   0  0  0  0  0  0  0  0  0  0  0  0
   -2.8483   -3.3111    0.3318 C   0  0  0  0  0  0  0  0  0  0  0  0
   -2.0000   -3.0712    1.4022 C   0  0  0  0  0  0  0  0  0  0  0  0
   -2.4549   -3.2152    2.6558 F   0  0  0  0  0  0  0  0  0  0  0  0
    0.8106    1.2055   -0.2212 H   0  0  0  0  0  0  0  0  0  0  0  0
    0.4644   -0.4067   -0.5378 H   0  0  0  0  0  0  0  0  0  0  0  0
    2.0796   -0.0097    0.0828 H   0  0  0  0  0  0  0  0  0  0  0  0
    3.4345   -1.6735    5.6292 H   0  0  0  0  0  0  0  0  0  0  0  0
    4.2853   -3.8262    6.5371 H   0  0  0  0  0  0  0  0  0  0  0  0
    3.3962   -5.9850    5.6725 H   0  0  0  0  0  0  0  0  0  0  0  0
    1.3425   -5.9521    4.2843 H   0  0  0  0  0  0  0  0  0  0  0  0
   -0.8271   -2.1584   -2.1507 H   0  0  0  0  0  0  0  0  0  0  0  0
   -3.0373   -3.2796   -1.8209 H   0  0  0  0  0  0  0  0  0  0  0  0
   -3.8458   -3.6908    0.5193 H   0  0  0  0  0  0  0  0  0  0  0  0
  1  2  1  0  0  0  0
  1 22  1  0  0  0  0
  1 23  1  0  0  0  0
  1 24  1  0  0  0  0
  2  3  1  0  0  0  0
  3  4  2  0  0  0  0
  3 13  1  0  0  0  0
  4  5  1  0  0  0  0
  5  6  2  0  0  0  0
  5 10  1  0  0  0  0
  6  7  1  0  0  0  0
  6 25  1  0  0  0  0
  7  8  2  0  0  0  0
  7 26  1  0  0  0  0
  8  9  1  0  0  0  0
  8 27  1  0  0  0  0
  9 10  2  0  0  0  0
  9 28  1  0  0  0  0
 10 11  1  0  0  0  0
 11 12  2  0  0  0  0
 11 13  1  0  0  0  0
 13 14  1  0  0  0  0
 14 15  2  0  0  0  0
 14 20  1  0  0  0  0
 15 16  1  0  0  0  0
 15 17  1  0  0  0  0
 17 18  2  0  0  0  0
 17 29  1  0  0  0  0
 18 19  1  0  0  0  0
 18 30  1  0  0  0  0
 19 20  2  0  0  0  0
 19 31  1  0  0  0  0
 20 21  1  0  0  0  0
M  END
>  <DRUGBANK_ID>
DB08602

>  <COMMON_NAME>
3-(2,6-difluorophenyl)-2-(methylthio)quinazolin-4(3H)-one

$$$$
