LIM
 OpenBabel10282417133D

 46 45  0  0  0  0  0  0  0  0999 V2000
    1.0877   -0.1092    0.0573 C   0  0  0  0  0  0  0  0  0  0  0  0
    0.3751    1.2026   -0.0292 C   0  0  0  0  0  0  0  0  0  0  0  0
   -0.4770    1.2157   -1.2529 C   0  0  0  0  0  0  0  0  0  0  0  0
   -1.9695    1.4432   -1.0948 C   0  0  0  0  0  0  0  0  0  0  0  0
   -2.4067    2.6947   -1.8525 C   0  0  0  0  0  0  0  0  0  0  0  0
   -2.1171    2.5838   -3.3532 C   0  0  0  0  0  0  0  0  0  0  0  0
   -2.8157    1.3592   -3.9541 C   0  0  0  0  0  0  0  0  0  0  0  0
   -4.3333    1.5091   -3.8235 C   0  0  0  0  0  0  0  0  0  0  0  0
   -4.7954    2.7679   -4.5645 C   0  0  0  0  0  0  0  0  0  0  0  0
   -4.4249    2.6656   -6.0477 C   0  0  0  0  0  0  0  0  0  0  0  0
   -5.1077    1.4443   -6.6705 C   0  0  0  0  0  0  0  0  0  0  0  0
   -6.6302    1.5717   -6.5456 C   0  0  0  0  0  0  0  0  0  0  0  0
   -7.1327    2.8160   -7.2867 C   0  0  0  0  0  0  0  0  0  0  0  0
   -6.7662    2.7631   -8.7704 C   0  0  0  0  0  0  0  0  0  0  0  0
   -7.3927    1.5433   -9.4263 C   0  0  0  0  0  0  0  0  0  0  0  0
    0.4910   -1.1818    0.1252 O   0  0  0  0  0  0  0  0  0  0  0  0
    0.0594    1.0446   -2.3498 O   0  0  0  0  0  0  0  0  0  0  0  0
    2.4329   -0.0364    0.0738 O   0  0  0  0  0  0  0  0  0  0  0  0
   -0.2315    1.3326    0.8703 H   0  0  0  0  0  0  0  0  0  0  0  0
    1.0632    2.0515   -0.0883 H   0  0  0  0  0  0  0  0  0  0  0  0
   -2.4897    0.5423   -1.4390 H   0  0  0  0  0  0  0  0  0  0  0  0
   -2.2410    1.5427   -0.0405 H   0  0  0  0  0  0  0  0  0  0  0  0
   -3.4789    2.8607   -1.6842 H   0  0  0  0  0  0  0  0  0  0  0  0
   -1.9119    3.5829   -1.4491 H   0  0  0  0  0  0  0  0  0  0  0  0
   -2.4135    3.5104   -3.8538 H   0  0  0  0  0  0  0  0  0  0  0  0
   -1.0469    2.5398   -3.5582 H   0  0  0  0  0  0  0  0  0  0  0  0
   -2.5052    1.2346   -4.9964 H   0  0  0  0  0  0  0  0  0  0  0  0
   -2.4962    0.4242   -3.4864 H   0  0  0  0  0  0  0  0  0  0  0  0
   -4.8267    0.6073   -4.1993 H   0  0  0  0  0  0  0  0  0  0  0  0
   -4.6515    1.5563   -2.7785 H   0  0  0  0  0  0  0  0  0  0  0  0
   -5.8689    2.9109   -4.4162 H   0  0  0  0  0  0  0  0  0  0  0  0
   -4.3655    3.6782   -4.1384 H   0  0  0  0  0  0  0  0  0  0  0  0
   -4.6934    3.5930   -6.5607 H   0  0  0  0  0  0  0  0  0  0  0  0
   -3.3429    2.5998   -6.1986 H   0  0  0  0  0  0  0  0  0  0  0  0
   -4.7875    1.3320   -7.7097 H   0  0  0  0  0  0  0  0  0  0  0  0
   -4.7779    0.5105   -6.2040 H   0  0  0  0  0  0  0  0  0  0  0  0
   -7.1082    0.6618   -6.9162 H   0  0  0  0  0  0  0  0  0  0  0  0
   -6.9476    1.6164   -5.4986 H   0  0  0  0  0  0  0  0  0  0  0  0
   -8.2161    2.9040   -7.1634 H   0  0  0  0  0  0  0  0  0  0  0  0
   -6.7200    3.7301   -6.8421 H   0  0  0  0  0  0  0  0  0  0  0  0
   -7.1035    3.6775   -9.2656 H   0  0  0  0  0  0  0  0  0  0  0  0
   -5.6789    2.7396   -8.9105 H   0  0  0  0  0  0  0  0  0  0  0  0
   -8.4805    1.5835   -9.3186 H   0  0  0  0  0  0  0  0  0  0  0  0
   -7.1340    1.4963  -10.4842 H   0  0  0  0  0  0  0  0  0  0  0  0
   -7.0449    0.6081   -8.9753 H   0  0  0  0  0  0  0  0  0  0  0  0
    2.8138    0.8514   -0.0657 H   0  0  0  0  0  0  0  0  0  0  0  0
  1  2  1  0  0  0  0
  1 16  2  0  0  0  0
  1 18  1  0  0  0  0
  2  3  1  0  0  0  0
  2 19  1  0  0  0  0
  2 20  1  0  0  0  0
  3  4  1  0  0  0  0
  3 17  2  0  0  0  0
  4  5  1  0  0  0  0
  4 21  1  0  0  0  0
  4 22  1  0  0  0  0
  5  6  1  0  0  0  0
  5 23  1  0  0  0  0
  5 24  1  0  0  0  0
  6  7  1  0  0  0  0
  6 25  1  0  0  0  0
  6 26  1  0  0  0  0
  7  8  1  0  0  0  0
  7 27  1  0  0  0  0
  7 28  1  0  0  0  0
  8  9  1  0  0  0  0
  8 29  1  0  0  0  0
  8 30  1  0  0  0  0
  9 10  1  0  0  0  0
  9 31  1  0  0  0  0
  9 32  1  0  0  0  0
 10 11  1  0  0  0  0
 10 33  1  0  0  0  0
 10 34  1  0  0  0  0
 11 12  1  0  0  0  0
 11 35  1  0  0  0  0
 11 36  1  0  0  0  0
 12 13  1  0  0  0  0
 12 37  1  0  0  0  0
 12 38  1  0  0  0  0
 13 14  1  0  0  0  0
 13 39  1  0  0  0  0
 13 40  1  0  0  0  0
 14 15  1  0  0  0  0
 14 41  1  0  0  0  0
 14 42  1  0  0  0  0
 15 43  1  0  0  0  0
 15 44  1  0  0  0  0
 15 45  1  0  0  0  0
 18 46  1  0  0  0  0
M  END
>  <DRUGBANK_ID>
DB04039

>  <SECONDARY_ACCESSION_NUMBERS>
EXPT02034

>  <COMMON_NAME>
3-Oxo-Pentadecanoic Acid

$$$$
