1254
 OpenBabel10282417113D

 59 62  0  0  0  0  0  0  0  0999 V2000
    1.6451   -0.3299    1.7342 Cl  0  0  0  0  0  0  0  0  0  0  0  0
    4.0925    1.8288    0.7886 S   0  0  0  0  0  0  0  0  0  0  0  0
    3.7463    0.2176    7.1150 O   0  0  0  0  0  0  0  0  0  0  0  0
    1.6851    3.8752    0.1728 O   0  0  0  0  0  0  0  0  0  0  0  0
    6.6181    0.9044    8.1334 N   0  0  0  0  0  0  0  0  0  0  0  0
    6.5609    0.7052    5.2560 N   0  0  0  0  0  0  0  0  0  0  0  0
    8.1467    1.0291    3.5898 N   0  0  0  0  0  0  0  0  0  0  0  0
    7.7421    0.2380    1.3719 N   0  0  0  0  0  0  0  0  0  0  0  0
    5.5610   -0.5305    0.7689 N   0  0  0  0  0  0  0  0  0  0  0  0
    3.8984   -0.1389   -0.8477 N   0  0  0  0  0  0  0  0  0  0  0  0
    0.2439    2.1537    0.1038 N   0  0  0  0  0  0  0  0  0  0  0  0
    7.1695    1.9894    7.3091 C   0  0  0  0  0  0  0  0  0  0  0  0
    6.8790   -0.3951    7.4698 C   0  0  0  0  0  0  0  0  0  0  0  0
    6.6000    2.0251    5.8869 C   0  0  0  0  0  0  0  0  0  0  0  0
    6.4654   -0.5593    5.9830 C   0  0  0  0  0  0  0  0  0  0  0  0
    5.2776    1.1699    8.7103 C   0  0  0  0  0  0  0  0  0  0  0  0
    6.9268    0.6188    3.9354 C   0  0  0  0  0  0  0  0  0  0  0  0
    4.0234    1.3936    7.8334 C   0  0  0  0  0  0  0  0  0  0  0  0
    6.0496    0.0778    3.0266 C   0  0  0  0  0  0  0  0  0  0  0  0
    6.4805   -0.0615    1.7274 C   0  0  0  0  0  0  0  0  0  0  0  0
    8.5174    0.8071    2.3224 C   0  0  0  0  0  0  0  0  0  0  0  0
    9.8952    1.2605    1.9558 C   0  0  0  0  0  0  0  0  0  0  0  0
    4.5860    0.2513    0.2095 C   0  0  0  0  0  0  0  0  0  0  0  0
    2.6840    1.7663   -0.2037 C   0  0  0  0  0  0  0  0  0  0  0  0
   -0.2634    0.8186    0.1465 C   0  0  0  0  0  0  0  0  0  0  0  0
    2.8422    0.7280   -1.1016 C   0  0  0  0  0  0  0  0  0  0  0  0
   -1.6413    0.5551   -0.0024 C   0  0  0  0  0  0  0  0  0  0  0  0
    1.5523    2.6426    0.0344 C   0  0  0  0  0  0  0  0  0  0  0  0
    0.5496   -0.3030    0.3709 C   0  0  0  0  0  0  0  0  0  0  0  0
   -2.0758   -0.7925   -0.0546 C   0  0  0  0  0  0  0  0  0  0  0  0
   -2.6964    1.6286   -0.0487 C   0  0  0  0  0  0  0  0  0  0  0  0
    0.1789   -1.5845   -0.0099 C   0  0  0  0  0  0  0  0  0  0  0  0
   -1.1666   -1.8481   -0.1249 C   0  0  0  0  0  0  0  0  0  0  0  0
    4.5942    0.1378    6.6745 H   0  0  0  0  0  0  0  0  0  0  0  0
    5.9968   -1.1726    0.1188 H   0  0  0  0  0  0  0  0  0  0  0  0
   -0.4337    2.9087    0.1210 H   0  0  0  0  0  0  0  0  0  0  0  0
    7.0372    2.9554    7.8133 H   0  0  0  0  0  0  0  0  0  0  0  0
    8.2595    1.8578    7.2364 H   0  0  0  0  0  0  0  0  0  0  0  0
    7.9732   -0.5312    7.4819 H   0  0  0  0  0  0  0  0  0  0  0  0
    6.4927   -1.2226    8.0735 H   0  0  0  0  0  0  0  0  0  0  0  0
    5.5797    2.4054    5.9067 H   0  0  0  0  0  0  0  0  0  0  0  0
    7.1348    2.7806    5.2970 H   0  0  0  0  0  0  0  0  0  0  0  0
    5.4541   -0.9572    5.8572 H   0  0  0  0  0  0  0  0  0  0  0  0
    7.0262   -1.3817    5.5180 H   0  0  0  0  0  0  0  0  0  0  0  0
    5.0580    0.3373    9.3888 H   0  0  0  0  0  0  0  0  0  0  0  0
    5.3641    2.0618    9.3426 H   0  0  0  0  0  0  0  0  0  0  0  0
    3.1247    1.6166    8.4064 H   0  0  0  0  0  0  0  0  0  0  0  0
    4.1438    2.2103    7.1231 H   0  0  0  0  0  0  0  0  0  0  0  0
    5.0535   -0.2228    3.3242 H   0  0  0  0  0  0  0  0  0  0  0  0
   10.4903    0.4132    1.6078 H   0  0  0  0  0  0  0  0  0  0  0  0
    9.8376    2.0200    1.1723 H   0  0  0  0  0  0  0  0  0  0  0  0
   10.4043    1.7036    2.8208 H   0  0  0  0  0  0  0  0  0  0  0  0
    2.1219    0.4627   -1.8663 H   0  0  0  0  0  0  0  0  0  0  0  0
   -3.1363   -1.0375   -0.0345 H   0  0  0  0  0  0  0  0  0  0  0  0
   -2.6299    2.2713    0.8346 H   0  0  0  0  0  0  0  0  0  0  0  0
   -2.5972    2.2307   -0.9561 H   0  0  0  0  0  0  0  0  0  0  0  0
   -3.7059    1.1968   -0.0509 H   0  0  0  0  0  0  0  0  0  0  0  0
    0.9113   -2.3860    0.0067 H   0  0  0  0  0  0  0  0  0  0  0  0
   -1.4967   -2.8823   -0.1543 H   0  0  0  0  0  0  0  0  0  0  0  0
  1 29  1  0  0  0  0
  2 23  1  0  0  0  0
  2 24  1  0  0  0  0
  3 18  1  0  0  0  0
  3 34  1  0  0  0  0
  4 28  2  0  0  0  0
  5 12  1  0  0  0  0
  5 13  1  0  0  0  0
  5 16  1  0  0  0  0
  6 14  1  0  0  0  0
  6 15  1  0  0  0  0
  6 17  1  0  0  0  0
  7 17  2  0  0  0  0
  7 21  1  0  0  0  0
  8 20  1  0  0  0  0
  8 21  2  0  0  0  0
  9 20  1  0  0  0  0
  9 23  1  0  0  0  0
  9 35  1  0  0  0  0
 10 23  2  0  0  0  0
 10 26  1  0  0  0  0
 11 25  1  0  0  0  0
 11 28  1  0  0  0  0
 11 36  1  0  0  0  0
 12 14  1  0  0  0  0
 12 37  1  0  0  0  0
 12 38  1  0  0  0  0
 13 15  1  0  0  0  0
 13 39  1  0  0  0  0
 13 40  1  0  0  0  0
 14 41  1  0  0  0  0
 14 42  1  0  0  0  0
 15 43  1  0  0  0  0
 15 44  1  0  0  0  0
 16 18  1  0  0  0  0
 16 45  1  0  0  0  0
 16 46  1  0  0  0  0
 17 19  1  0  0  0  0
 18 47  1  0  0  0  0
 18 48  1  0  0  0  0
 19 20  2  0  0  0  0
 19 49  1  0  0  0  0
 21 22  1  0  0  0  0
 22 50  1  0  0  0  0
 22 51  1  0  0  0  0
 22 52  1  0  0  0  0
 24 26  2  0  0  0  0
 24 28  1  0  0  0  0
 25 27  2  0  0  0  0
 25 29  1  0  0  0  0
 26 53  1  0  0  0  0
 27 30  1  0  0  0  0
 27 31  1  0  0  0  0
 29 32  2  0  0  0  0
 30 33  2  0  0  0  0
 30 54  1  0  0  0  0
 31 55  1  0  0  0  0
 31 56  1  0  0  0  0
 31 57  1  0  0  0  0
 32 33  1  0  0  0  0
 32 58  1  0  0  0  0
 33 59  1  0  0  0  0
M  END
>  <DRUGBANK_ID>
DB01254

>  <COMMON_NAME>
Dasatinib

>  <CAS_NUMBER>
302962-49-8

>  <UNII>
X78UG0A0RN

>  <SYNONYMS>
Anh. dasatinib; Anhydrous dasatinib; BMS dasatinib; Dasatinib; Dasatinib (anh.); dasatinib (anhydrous); Dasatinib anhydrous; Dasatinibum; N-(2-CHLORO-6-methylphenyl)-2-({6-[4-(2-hydroxyethyl)piperazin-1-yl]-2-methylpyrimidin-4-yl}amino)-1,3-thiazole-5-carboxamide

$$$$
