
 OpenBabel10282417233D

 60 63  0  0  1  0  0  0  0  0999 V2000
    1.0237   -0.3837    2.5677 C   0  0  0  0  0  0  0  0  0  0  0  0
    0.0783   -0.5029    1.3635 C   0  0  1  0  0  0  0  0  0  0  0  0
   -0.2793   -1.9816    1.3169 C   0  0  0  0  0  0  0  0  0  0  0  0
   -1.2671   -2.2793    0.2175 C   0  0  0  0  0  0  0  0  0  0  0  0
   -2.4145   -1.4014    0.3562 N   0  0  0  0  0  0  0  0  0  0  0  0
   -3.6598   -1.9138    0.6652 C   0  0  0  0  0  0  0  0  0  0  0  0
   -4.6839   -1.6447   -0.1676 N   0  0  0  0  0  0  0  0  0  0  0  0
   -5.8677   -2.2239    0.1188 C   0  0  0  0  0  0  0  0  0  0  0  0
   -6.1514   -2.9987    1.1795 N   0  0  0  0  0  0  0  0  0  0  0  0
   -5.1341   -3.2231    2.0197 C   0  0  0  0  0  0  0  0  0  0  0  0
   -5.3886   -4.0024    3.1319 N   0  0  0  0  0  0  0  0  0  0  0  0
   -3.8645   -2.7158    1.7843 C   0  0  0  0  0  0  0  0  0  0  0  0
   -2.8777   -2.9602    2.6625 F   0  0  0  0  0  0  0  0  0  0  0  0
   -2.1792    0.0329    0.2221 C   0  0  0  0  0  0  0  0  0  0  0  0
   -1.1684    0.4995    1.3021 C   0  0  2  0  0  0  0  0  0  0  0  0
   -0.6158    1.8640    1.0612 N   0  0  0  0  0  0  0  0  0  0  0  0
   -1.3870    3.1043    0.9347 C   0  0  0  0  0  0  0  0  0  0  0  0
   -0.4066    4.2011    0.4125 C   0  0  0  0  0  0  0  0  0  0  0  0
    0.9116    4.3044    1.2374 C   0  0  0  0  0  0  0  0  0  0  0  0
    1.4770    2.9213    1.5756 C   0  0  1  0  0  0  0  0  0  0  0  0
    2.6128    2.9525    2.4937 N   0  0  0  0  0  0  0  0  0  0  0  0
    2.5034    3.4179    3.7841 C   0  0  0  0  0  0  0  0  0  0  0  0
    1.7565    2.8123    4.7969 C   0  0  0  0  0  0  0  0  0  0  0  0
    1.4880    3.4491    6.0004 C   0  0  0  0  0  0  0  0  0  0  0  0
    0.3634    2.7669    7.1101 Cl  0  0  0  0  0  0  0  0  0  0  0  0
    2.1196    4.6410    6.2848 C   0  0  0  0  0  0  0  0  0  0  0  0
    3.0155    5.1804    5.3524 C   0  0  0  0  0  0  0  0  0  0  0  0
    3.7800    6.4286    5.6446 C   0  0  0  0  0  0  0  0  0  0  0  0
    5.1238    6.2277    5.5865 F   0  0  0  0  0  0  0  0  0  0  0  0
    3.5032    7.4205    4.7563 F   0  0  0  0  0  0  0  0  0  0  0  0
    3.5229    6.9373    6.8783 F   0  0  0  0  0  0  0  0  0  0  0  0
    3.1995    4.5635    4.1095 C   0  0  0  0  0  0  0  0  0  0  0  0
    0.2675    2.1740    2.0883 C   0  0  0  0  0  0  0  0  0  0  0  0
   -0.1383    2.0039    3.2365 O   0  0  0  0  0  0  0  0  0  0  0  0
    2.2221   -0.1445    2.4342 O   0  0  0  0  0  0  0  0  0  0  0  0
    0.4893   -0.5803    3.8081 N   0  0  0  0  0  0  0  0  0  0  0  0
    0.6989   -0.2722    0.4826 H   0  0  0  0  0  0  0  0  0  0  0  0
    0.6395   -2.5633    1.1625 H   0  0  0  0  0  0  0  0  0  0  0  0
   -0.6812   -2.2996    2.2841 H   0  0  0  0  0  0  0  0  0  0  0  0
   -0.7917   -2.0882   -0.7527 H   0  0  0  0  0  0  0  0  0  0  0  0
   -1.5314   -3.3414    0.2377 H   0  0  0  0  0  0  0  0  0  0  0  0
   -6.6799   -2.0522   -0.5814 H   0  0  0  0  0  0  0  0  0  0  0  0
   -4.6641   -4.1537    3.8187 H   0  0  0  0  0  0  0  0  0  0  0  0
   -6.3309   -4.3295    3.2833 H   0  0  0  0  0  0  0  0  0  0  0  0
   -3.1060    0.6136    0.3046 H   0  0  0  0  0  0  0  0  0  0  0  0
   -1.7645    0.2351   -0.7725 H   0  0  0  0  0  0  0  0  0  0  0  0
   -1.6815    0.4888    2.2736 H   0  0  0  0  0  0  0  0  0  0  0  0
   -1.7423    3.4214    1.9313 H   0  0  0  0  0  0  0  0  0  0  0  0
   -2.2578    2.9925    0.2887 H   0  0  0  0  0  0  0  0  0  0  0  0
   -0.8919    5.1831    0.4022 H   0  0  0  0  0  0  0  0  0  0  0  0
   -0.1422    3.9485   -0.6207 H   0  0  0  0  0  0  0  0  0  0  0  0
    1.6576    4.9003    0.6981 H   0  0  0  0  0  0  0  0  0  0  0  0
    0.6941    4.8390    2.1701 H   0  0  0  0  0  0  0  0  0  0  0  0
    1.8165    2.4381    0.6451 H   0  0  0  0  0  0  0  0  0  0  0  0
    3.4570    2.4562    2.2232 H   0  0  0  0  0  0  0  0  0  0  0  0
    1.3184    1.8379    4.6560 H   0  0  0  0  0  0  0  0  0  0  0  0
    1.9389    5.1344    7.2351 H   0  0  0  0  0  0  0  0  0  0  0  0
    3.8575    5.0044    3.3622 H   0  0  0  0  0  0  0  0  0  0  0  0
   -0.4847   -0.3410    3.9480 H   0  0  0  0  0  0  0  0  0  0  0  0
    1.0863   -0.2525    4.5593 H   0  0  0  0  0  0  0  0  0  0  0  0
  1 35  2  0  0  0  0
  1 36  1  0  0  0  0
  2  3  1  0  0  0  0
  2 15  1  0  0  0  0
  2 37  1  6  0  0  0
  2  1  1  0  0  0  0
  3  4  1  0  0  0  0
  3 38  1  0  0  0  0
  3 39  1  0  0  0  0
  4  5  1  0  0  0  0
  4 40  1  0  0  0  0
  4 41  1  0  0  0  0
  5  6  1  0  0  0  0
  6  7  2  0  0  0  0
  6 12  1  0  0  0  0
  7  8  1  0  0  0  0
  8  9  2  0  0  0  0
  8 42  1  0  0  0  0
 10  9  1  0  0  0  0
 10 11  1  0  0  0  0
 11 43  1  0  0  0  0
 11 44  1  0  0  0  0
 12 10  2  0  0  0  0
 12 13  1  0  0  0  0
 14  5  1  0  0  0  0
 14 45  1  0  0  0  0
 14 46  1  0  0  0  0
 15 14  1  0  0  0  0
 15 47  1  1  0  0  0
 15 16  1  0  0  0  0
 16 17  1  0  0  0  0
 16 33  1  0  0  0  0
 17 18  1  0  0  0  0
 17 48  1  0  0  0  0
 17 49  1  0  0  0  0
 18 19  1  0  0  0  0
 18 50  1  0  0  0  0
 18 51  1  0  0  0  0
 19 52  1  0  0  0  0
 19 53  1  0  0  0  0
 20 19  1  0  0  0  0
 20 54  1  6  0  0  0
 20 21  1  0  0  0  0
 21 22  1  0  0  0  0
 21 55  1  0  0  0  0
 22 23  1  0  0  0  0
 22 32  2  0  0  0  0
 23 24  2  0  0  0  0
 23 56  1  0  0  0  0
 24 25  1  0  0  0  0
 24 26  1  0  0  0  0
 26 57  1  0  0  0  0
 27 26  2  0  0  0  0
 27 28  1  0  0  0  0
 28 29  1  0  0  0  0
 28 30  1  0  0  0  0
 28 31  1  0  0  0  0
 32 27  1  0  0  0  0
 32 58  1  0  0  0  0
 33 20  1  0  0  0  0
 33 34  2  0  0  0  0
 36 59  1  0  0  0  0
 36 60  1  0  0  0  0
M  END
>  <DRUGBANK_ID>
DB16657

>  <COMMON_NAME>
Vecabrutinib

>  <CAS_NUMBER>
1510829-06-7

>  <UNII>
PQ7O0OB5GU

$$$$
