
 OpenBabel10282417133D

 91 96  0  0  0  0  0  0  0  0999 V2000
    1.9822    2.3314    0.4849 P   0  0  1  0  0  0  0  0  0  0  0  0
    1.8941    1.8047   -2.4873 P   0  0  2  0  0  0  0  0  0  0  0  0
    6.0945    1.7992    0.5745 O   0  0  0  0  0  0  0  0  0  0  0  0
    7.3566   -0.4916    2.8345 O   0  0  0  0  0  0  0  0  0  0  0  0
    4.9693   -0.8723    2.0615 O   0  0  0  0  0  0  0  0  0  0  0  0
    2.9517    2.9892    1.5722 O   0  0  0  0  0  0  0  0  0  0  0  0
    2.7145    1.9829   -0.9676 O   0  0  0  0  0  0  0  0  0  0  0  0
    5.9211   -1.2419   -0.8067 O   0  0  0  0  0  0  0  0  0  0  0  0
    2.5937   -2.5210    0.5302 O   0  0  0  0  0  0  0  0  0  0  0  0
    1.0775    0.5183   -1.6679 O   0  0  0  0  0  0  0  0  0  0  0  0
    1.8482    0.9785    1.3837 O   0  0  0  0  0  0  0  0  0  0  0  0
    4.0129   -0.1994   -1.7994 O   0  0  0  0  0  0  0  0  0  0  0  0
    0.7234    3.1230    0.3898 O   0  0  0  0  0  0  0  0  0  0  0  0
    2.5890    0.6185   -3.3660 O   0  0  0  0  0  0  0  0  0  0  0  0
    2.6249    2.9559   -3.2207 O   0  0  0  0  0  0  0  0  0  0  0  0
    0.7576   -6.6467    1.1810 O   0  0  0  0  0  0  0  0  0  0  0  0
    2.4377   -4.6290   -2.4878 O   0  0  0  0  0  0  0  0  0  0  0  0
    8.2670    2.2387    1.4996 N   0  0  0  0  0  0  0  0  0  0  0  0
   10.2823    2.7526    0.6809 N   0  0  0  0  0  0  0  0  0  0  0  0
    7.6947    4.5590    2.3833 N   0  0  0  0  0  0  0  0  0  0  0  0
    4.8902   -4.0838    1.3165 N   0  0  0  0  0  0  0  0  0  0  0  0
    9.1505    6.1796    1.2099 N   0  0  0  0  0  0  0  0  0  0  0  0
   10.7742    5.4039   -0.3709 N   0  0  0  0  0  0  0  0  0  0  0  0
    2.8320   -5.4608    2.7214 N   0  0  0  0  0  0  0  0  0  0  0  0
    7.1595   -3.1026    5.6293 N   0  0  0  0  0  0  0  0  0  0  0  0
    3.7672   -4.6737   -0.6657 N   0  0  0  0  0  0  0  0  0  0  0  0
    1.6599   -5.6958   -0.6845 N   0  0  0  0  0  0  0  0  0  0  0  0
    6.6114    0.7079    2.6511 C   0  0  2  0  0  0  0  0  0  0  0  0
    5.1332    0.4892    2.3879 C   0  0  1  0  0  0  0  0  0  0  0  0
    7.1492    1.3141    1.3776 C   0  0  1  0  0  0  0  0  0  0  0  0
    4.8551    1.4373    1.2063 C   0  0  1  0  0  0  0  0  0  0  0  0
    4.3177    2.7612    1.6837 C   0  0  0  0  0  0  0  0  0  0  0  0
    8.4290    3.6003    1.7562 C   0  0  0  0  0  0  0  0  0  0  0  0
    9.4688    1.7857    0.9825 C   0  0  0  0  0  0  0  0  0  0  0  0
    9.5928    3.8725    1.0405 C   0  0  0  0  0  0  0  0  0  0  0  0
    5.0018   -2.3257   -0.4966 C   0  0  2  0  0  0  0  0  0  0  0  0
    3.5752   -1.7475   -0.1572 C   0  0  1  0  0  0  0  0  0  0  0  0
    5.7344   -3.1688    0.5727 C   0  0  0  0  0  0  0  0  0  0  0  0
    2.9929   -1.1396   -1.4259 C   0  0  1  0  0  0  0  0  0  0  0  0
    9.8535    5.1873    0.6507 C   0  0  0  0  0  0  0  0  0  0  0  0
    4.9285   -4.1431    2.7325 C   0  0  0  0  0  0  0  0  0  0  0  0
    1.7029   -0.4997   -0.9760 C   0  0  0  0  0  0  0  0  0  0  0  0
    3.8636   -4.7203    0.6294 C   0  0  0  0  0  0  0  0  0  0  0  0
    8.1971    5.8164    2.1029 C   0  0  0  0  0  0  0  0  0  0  0  0
    3.9309   -4.8705    3.3843 C   0  0  0  0  0  0  0  0  0  0  0  0
    5.9456   -3.5709    3.5535 C   0  0  0  0  0  0  0  0  0  0  0  0
    2.7823   -5.3839    1.4242 C   0  0  0  0  0  0  0  0  0  0  0  0
    6.0719   -3.6886    4.9812 C   0  0  0  0  0  0  0  0  0  0  0  0
    5.0656   -4.4780    5.5665 C   0  0  0  0  0  0  0  0  0  0  0  0
    4.0268   -5.0388    4.7621 C   0  0  0  0  0  0  0  0  0  0  0  0
    1.6402   -5.9654    0.6459 C   0  0  0  0  0  0  0  0  0  0  0  0
    4.9167   -4.8918    6.9993 C   0  0  0  0  0  0  0  0  0  0  0  0
    2.6273   -4.9912   -1.3367 C   0  0  0  0  0  0  0  0  0  0  0  0
    7.4901   -3.0376    7.0432 C   0  0  0  0  0  0  0  0  0  0  0  0
    8.0789   -2.2086    4.9168 C   0  0  0  0  0  0  0  0  0  0  0  0
   10.5845    6.2057   -0.9533 H   0  0  0  0  0  0  0  0  0  0  0  0
   10.9850    4.5252   -0.8477 H   0  0  0  0  0  0  0  0  0  0  0  0
    0.8882   -6.0039   -1.2530 H   0  0  0  0  0  0  0  0  0  0  0  0
    6.9683   -1.1842    2.2767 H   0  0  0  0  0  0  0  0  0  0  0  0
    5.3658   -0.9136    1.1752 H   0  0  0  0  0  0  0  0  0  0  0  0
    5.4904   -0.7499   -1.5530 H   0  0  0  0  0  0  0  0  0  0  0  0
    2.1802   -1.9414    1.2045 H   0  0  0  0  0  0  0  0  0  0  0  0
    1.0031    0.4985    1.4558 H   0  0  0  0  0  0  0  0  0  0  0  0
    3.7250    0.3031   -2.5886 H   0  0  0  0  0  0  0  0  0  0  0  0
    1.9097    0.0123   -3.7278 H   0  0  0  0  0  0  0  0  0  0  0  0
    6.7270    1.3433    3.5218 H   0  0  0  0  0  0  0  0  0  0  0  0
    4.4537    0.6414    3.2303 H   0  0  0  0  0  0  0  0  0  0  0  0
    7.5317    0.4814    0.7615 H   0  0  0  0  0  0  0  0  0  0  0  0
    4.2519    0.9745    0.4364 H   0  0  0  0  0  0  0  0  0  0  0  0
    4.7363    3.5701    1.0958 H   0  0  0  0  0  0  0  0  0  0  0  0
    4.6288    2.8967    2.7274 H   0  0  0  0  0  0  0  0  0  0  0  0
    9.6410    0.7509    0.7198 H   0  0  0  0  0  0  0  0  0  0  0  0
    4.9218   -2.8882   -1.4285 H   0  0  0  0  0  0  0  0  0  0  0  0
    3.6886   -0.8808    0.4757 H   0  0  0  0  0  0  0  0  0  0  0  0
    6.5765   -3.6917    0.1108 H   0  0  0  0  0  0  0  0  0  0  0  0
    6.2657   -2.4953    1.2261 H   0  0  0  0  0  0  0  0  0  0  0  0
    2.8194   -1.8578   -2.2218 H   0  0  0  0  0  0  0  0  0  0  0  0
    2.0779    0.0304   -0.1633 H   0  0  0  0  0  0  0  0  0  0  0  0
    0.9410   -1.1496   -0.5296 H   0  0  0  0  0  0  0  0  0  0  0  0
    7.7800    6.6728    2.6397 H   0  0  0  0  0  0  0  0  0  0  0  0
    6.7279   -3.0280    3.0506 H   0  0  0  0  0  0  0  0  0  0  0  0
    3.2730   -5.6643    5.2417 H   0  0  0  0  0  0  0  0  0  0  0  0
    3.9631   -4.5300    7.3925 H   0  0  0  0  0  0  0  0  0  0  0  0
    5.0024   -5.9791    7.0745 H   0  0  0  0  0  0  0  0  0  0  0  0
    5.6285   -4.5446    7.7105 H   0  0  0  0  0  0  0  0  0  0  0  0
    8.5050   -3.4287    7.1668 H   0  0  0  0  0  0  0  0  0  0  0  0
    7.4458   -1.9992    7.3918 H   0  0  0  0  0  0  0  0  0  0  0  0
    6.9237   -3.5772    7.7660 H   0  0  0  0  0  0  0  0  0  0  0  0
    8.5503   -2.6856    4.0530 H   0  0  0  0  0  0  0  0  0  0  0  0
    7.5432   -1.2958    4.6937 H   0  0  0  0  0  0  0  0  0  0  0  0
    8.9068   -1.8687    5.5547 H   0  0  0  0  0  0  0  0  0  0  0  0
  1 11  1  0  0  0  0
  1 13  2  6  0  0  0
  1  7  1  0  0  0  0
  1  6  1  0  0  0  0
  2 14  1  0  0  0  0
  2 15  2  6  0  0  0
  2 10  1  0  0  0  0
  2  7  1  0  0  0  0
  3 30  1  0  0  0  0
  3 31  1  0  0  0  0
  4 59  1  0  0  0  0
  5 60  1  0  0  0  0
  6 32  1  0  0  0  0
  8 61  1  0  0  0  0
  9 62  1  0  0  0  0
 10 42  1  0  0  0  0
 11 63  1  0  0  0  0
 12 64  1  0  0  0  0
 14 65  1  0  0  0  0
 16 51  2  0  0  0  0
 17 53  2  0  0  0  0
 18 33  1  0  0  0  0
 18 34  1  0  0  0  0
 19 34  2  0  0  0  0
 19 35  1  0  0  0  0
 20 33  2  0  0  0  0
 20 44  1  0  0  0  0
 21 38  1  0  0  0  0
 21 41  1  0  0  0  0
 21 43  1  0  0  0  0
 22 40  1  0  0  0  0
 22 44  2  0  0  0  0
 23 40  1  0  0  0  0
 23 56  1  0  0  0  0
 23 57  1  0  0  0  0
 24 45  1  0  0  0  0
 24 47  2  0  0  0  0
 25 48  1  0  0  0  0
 25 54  1  0  0  0  0
 25 55  1  0  0  0  0
 26 43  2  0  0  0  0
 26 53  1  0  0  0  0
 27 51  1  0  0  0  0
 27 53  1  0  0  0  0
 27 58  1  0  0  0  0
 28  4  1  0  0  0  0
 28 29  1  0  0  0  0
 28 30  1  0  0  0  0
 28 66  1  1  0  0  0
 29  5  1  0  0  0  0
 29 31  1  0  0  0  0
 29 67  1  1  0  0  0
 30 68  1  6  0  0  0
 30 18  1  0  0  0  0
 31 32  1  0  0  0  0
 31 69  1  6  0  0  0
 32 70  1  0  0  0  0
 32 71  1  0  0  0  0
 33 35  1  0  0  0  0
 34 72  1  0  0  0  0
 35 40  2  0  0  0  0
 36  8  1  0  0  0  0
 36 37  1  0  0  0  0
 36 38  1  0  0  0  0
 36 73  1  6  0  0  0
 37  9  1  0  0  0  0
 37 39  1  0  0  0  0
 37 74  1  1  0  0  0
 38 75  1  0  0  0  0
 38 76  1  0  0  0  0
 39 12  1  0  0  0  0
 39 42  1  0  0  0  0
 39 77  1  6  0  0  0
 41 45  2  0  0  0  0
 41 46  1  0  0  0  0
 42 78  1  0  0  0  0
 42 79  1  0  0  0  0
 43 47  1  0  0  0  0
 44 80  1  0  0  0  0
 45 50  1  0  0  0  0
 46 48  2  0  0  0  0
 46 81  1  0  0  0  0
 47 51  1  0  0  0  0
 48 49  1  0  0  0  0
 49 50  2  0  0  0  0
 49 52  1  0  0  0  0
 50 82  1  0  0  0  0
 52 83  1  0  0  0  0
 52 84  1  0  0  0  0
 52 85  1  0  0  0  0
 54 86  1  0  0  0  0
 54 87  1  0  0  0  0
 54 88  1  0  0  0  0
 55 89  1  0  0  0  0
 55 90  1  0  0  0  0
 55 91  1  0  0  0  0
M  END
>  <DRUGBANK_ID>
DB03482

>  <SECONDARY_ACCESSION_NUMBERS>
EXPT02776

>  <COMMON_NAME>
8-demethyl-8-dimethylamino-flavin-adenine-dinucleotide

$$$$
