
 OpenBabel10282417143D

 16 16  0  0  0  0  0  0  0  0999 V2000
    1.2109   -1.1554    0.0181 C   0  0  0  0  0  0  0  0  0  0  0  0
    1.1951    0.2354    0.0116 C   0  0  0  0  0  0  0  0  0  0  0  0
    0.0003    0.9376    0.0053 C   0  0  0  0  0  0  0  0  0  0  0  0
   -1.1967    0.2284   -0.0021 C   0  0  0  0  0  0  0  0  0  0  0  0
   -1.2173   -1.1725    0.0045 C   0  0  0  0  0  0  0  0  0  0  0  0
    0.0048   -1.8617    0.0159 C   0  0  0  0  0  0  0  0  0  0  0  0
    2.3554    0.9059    0.0071 F   0  0  0  0  0  0  0  0  0  0  0  0
   -2.3461    0.9158   -0.0264 F   0  0  0  0  0  0  0  0  0  0  0  0
   -2.5221   -1.9174   -0.0437 C   0  0  0  0  0  0  0  0  0  0  0  0
   -3.3133   -1.6622    1.1066 O   0  0  0  0  0  0  0  0  0  0  0  0
    2.1614   -1.6805    0.0195 H   0  0  0  0  0  0  0  0  0  0  0  0
   -0.0037    2.0210    0.0001 H   0  0  0  0  0  0  0  0  0  0  0  0
    0.0283   -2.9495    0.0122 H   0  0  0  0  0  0  0  0  0  0  0  0
   -3.0861   -1.6364   -0.9389 H   0  0  0  0  0  0  0  0  0  0  0  0
   -2.3531   -2.9986   -0.0879 H   0  0  0  0  0  0  0  0  0  0  0  0
   -2.7441   -1.7757    1.8853 H   0  0  0  0  0  0  0  0  0  0  0  0
  1  2  2  0  0  0  0
  1 11  1  0  0  0  0
  2  3  1  0  0  0  0
  2  7  1  0  0  0  0
  3  4  2  0  0  0  0
  3 12  1  0  0  0  0
  4  5  1  0  0  0  0
  4  8  1  0  0  0  0
  5  6  2  0  0  0  0
  5  9  1  0  0  0  0
  6  1  1  0  0  0  0
  6 13  1  0  0  0  0
  9 10  1  0  0  0  0
  9 14  1  0  0  0  0
  9 15  1  0  0  0  0
 10 16  1  0  0  0  0
M  END
>  <DRUGBANK_ID>
DB04448

>  <SECONDARY_ACCESSION_NUMBERS>
EXPT00093

>  <COMMON_NAME>
2,4-Difluorobenzyl Alcohol 2,4-Difluoro-1-(Hydroxymethyl)Benzene

>  <UNII>
SVX5XQB2MB

$$$$
