OLU
 OpenBabel10282417173D

 22 24  0  0  0  0  0  0  0  0999 V2000
   -2.2613    0.3739   -0.0166 O   0  0  0  0  0  0  0  0  0  0  0  0
   -1.0684    0.0851   -0.0051 C   0  0  0  0  0  0  0  0  0  0  0  0
   -0.6022   -1.2081    0.0180 N   0  0  0  0  0  0  0  0  0  0  0  0
    0.6878   -1.2703    0.0701 C   0  0  0  0  0  0  0  0  0  0  0  0
    1.5651    0.2409    0.0518 S   0  0  0  0  0  0  0  0  0  0  0  0
    0.0028    1.1540    0.0114 C   0  0  0  0  0  0  0  0  0  0  0  0
    1.4367   -2.5049    0.1243 C   0  0  0  0  0  0  0  0  0  0  0  0
    2.4691   -2.8618    1.4478 S   0  0  0  0  0  0  0  0  0  0  0  0
    2.7978   -4.4184    0.7791 C   0  0  0  0  0  0  0  0  0  0  0  0
    3.6180   -5.4493    1.2726 C   0  0  0  0  0  0  0  0  0  0  0  0
    2.0931   -4.5507   -0.4201 C   0  0  0  0  0  0  0  0  0  0  0  0
    1.3134   -3.4589   -0.7764 N   0  0  0  0  0  0  0  0  0  0  0  0
    2.2228   -5.7531   -1.1502 C   0  0  0  0  0  0  0  0  0  0  0  0
    3.0429   -6.7851   -0.6735 C   0  0  0  0  0  0  0  0  0  0  0  0
    3.7273   -6.6213    0.5226 C   0  0  0  0  0  0  0  0  0  0  0  0
    4.5426   -7.6000    1.0163 O   0  0  0  0  0  0  0  0  0  0  0  0
   -0.1010    1.7671    0.9105 H   0  0  0  0  0  0  0  0  0  0  0  0
   -0.0750    1.7730   -0.8865 H   0  0  0  0  0  0  0  0  0  0  0  0
    4.1579   -5.3440    2.2083 H   0  0  0  0  0  0  0  0  0  0  0  0
    1.6805   -5.8666   -2.0842 H   0  0  0  0  0  0  0  0  0  0  0  0
    3.1270   -7.7005   -1.2525 H   0  0  0  0  0  0  0  0  0  0  0  0
    4.5512   -8.3554    0.4049 H   0  0  0  0  0  0  0  0  0  0  0  0
  1  2  2  0  0  0  0
  2  3  1  0  0  0  0
  2  6  1  0  0  0  0
  3  4  2  0  0  0  0
  4  5  1  0  0  0  0
  4  7  1  0  0  0  0
  5  6  1  0  0  0  0
  6 17  1  0  0  0  0
  6 18  1  0  0  0  0
  7  8  1  0  0  0  0
  7 12  2  0  0  0  0
  8  9  1  0  0  0  0
  9 10  1  0  0  0  0
  9 11  2  0  0  0  0
 10 15  2  0  0  0  0
 10 19  1  0  0  0  0
 11 12  1  0  0  0  0
 11 13  1  0  0  0  0
 13 14  2  0  0  0  0
 13 20  1  0  0  0  0
 14 15  1  0  0  0  0
 14 21  1  0  0  0  0
 15 16  1  0  0  0  0
 16 22  1  0  0  0  0
M  END
>  <DRUGBANK_ID>
DB08326

>  <COMMON_NAME>
2-(6-HYDROXY-1,3-BENZOTHIAZOL-2-YL)-1,3-THIAZOL-4(5H)-ONE

>  <UNII>
8T3Z7X2Y9G

$$$$
