
 OpenBabel10282417213D

 35 35  0  0  0  0  0  0  0  0999 V2000
    1.8929    0.3836   -1.0012 O   0  0  0  0  0  0  0  0  0  0  0  0
    0.7079    0.6698   -0.0319 C   0  0  0  0  0  0  0  0  0  0  0  0
    0.4776    2.0708   -0.0138 C   0  0  1  0  0  0  0  0  0  0  0  0
    0.9904    2.4203    0.8823 H   0  0  0  0  0  0  0  0  0  0  0  0
    1.1203    2.6127   -1.3441 C   0  0  1  0  0  0  0  0  0  0  0  0
    0.8011    2.0523   -2.2395 H   0  0  0  0  0  0  0  0  0  0  0  0
    0.6009    3.9217   -1.4827 O   0  0  0  0  0  0  0  0  0  0  0  0
    2.7004    2.6316   -1.4062 C   0  0  0  0  0  0  0  0  0  0  0  0
    3.2365    3.1716   -0.2103 O   0  0  0  0  0  0  0  0  0  0  0  0
   -0.9649    2.1126    0.1175 O   0  0  0  0  0  0  0  0  0  0  0  0
   -1.5500    0.8628    0.4128 C   0  0  0  0  0  0  0  0  0  0  0  0
   -2.6508    0.5252    0.3153 O   0  0  0  0  0  0  0  0  0  0  0  0
   -0.4081   -0.0835    0.5003 C   0  0  0  0  0  0  0  0  0  0  0  0
   -0.8200   -1.4760    0.5763 O   0  0  0  0  0  0  0  0  0  0  0  0
    1.7630   -1.2596    0.5194 C   0  0  0  0  0  0  0  0  0  0  0  0
    0.7927   -1.4287   -1.1754 C   0  0  0  0  0  0  0  0  0  0  0  0
    1.0163   -2.4872   -1.9461 C   0  0  0  0  0  0  0  0  0  0  0  0
    0.1666   -2.6527   -3.0997 C   0  0  0  0  0  0  0  0  0  0  0  0
   -0.8582   -1.7859   -3.5948 C   0  0  0  0  0  0  0  0  0  0  0  0
   -1.0757   -0.6118   -3.0818 N   0  0  0  0  0  0  0  0  0  0  0  0
   -0.3050   -0.4672   -1.9794 C   0  0  0  0  0  0  0  0  0  0  0  0
    1.3099   -1.2156    1.6888 O   0  0  0  0  0  0  0  0  0  0  0  0
    3.0638   -0.4688    0.6450 N   0  0  0  0  0  0  0  0  0  0  0  0
    2.4960   -0.4306   -0.9688 H   0  0  0  0  0  0  0  0  0  0  0  0
   -0.3607    3.7851   -1.3514 H   0  0  0  0  0  0  0  0  0  0  0  0
    3.2318    1.6822   -1.5432 H   0  0  0  0  0  0  0  0  0  0  0  0
    3.0562    3.1819   -2.2766 H   0  0  0  0  0  0  0  0  0  0  0  0
    2.8014    4.0385   -0.1310 H   0  0  0  0  0  0  0  0  0  0  0  0
   -0.1375   -2.1887    0.5524 H   0  0  0  0  0  0  0  0  0  0  0  0
    1.8062   -3.1395   -1.6422 H   0  0  0  0  0  0  0  0  0  0  0  0
    0.2918   -3.5528   -3.6674 H   0  0  0  0  0  0  0  0  0  0  0  0
   -1.5219   -2.0203   -4.4227 H   0  0  0  0  0  0  0  0  0  0  0  0
   -0.6457    0.5586   -1.7308 H   0  0  0  0  0  0  0  0  0  0  0  0
    3.2783    0.3583    0.0657 H   0  0  0  0  0  0  0  0  0  0  0  0
    3.1606    0.0273    1.5587 H   0  0  0  0  0  0  0  0  0  0  0  0
  1  2  1  0  0  0  0
  1 24  1  0  0  0  0
  2  3  1  0  0  0  0
  2 13  2  0  0  0  0
  3  4  1  1  0  0  0
  3  5  1  0  0  0  0
  3 10  1  0  0  0  0
  5  6  1  6  0  0  0
  5  7  1  0  0  0  0
  5  8  1  0  0  0  0
  7 25  1  0  0  0  0
  8  9  1  0  0  0  0
  8 26  1  0  0  0  0
  8 27  1  0  0  0  0
  9 28  1  0  0  0  0
 10 11  1  0  0  0  0
 11 12  2  0  0  0  0
 11 13  1  0  0  0  0
 13 14  1  0  0  0  0
 14 29  1  0  0  0  0
 15 16  1  0  0  0  0
 15 22  2  0  0  0  0
 15 23  1  0  0  0  0
 16 17  1  0  0  0  0
 16 21  2  0  0  0  0
 17 18  2  0  0  0  0
 17 30  1  0  0  0  0
 18 19  1  0  0  0  0
 18 31  1  0  0  0  0
 19 20  2  0  0  0  0
 19 32  1  0  0  0  0
 20 21  1  0  0  0  0
 21 33  1  0  0  0  0
 23 34  1  0  0  0  0
 23 35  1  0  0  0  0
M  END
>  <DRUGBANK_ID>
DB14486

>  <SECONDARY_ACCESSION_NUMBERS>
DBSALT002426

>  <COMMON_NAME>
Niacinamide ascorbate

>  <CAS_NUMBER>
1987-71-9

>  <UNII>
JTL8B7TVW7

>  <SYNONYMS>
Ascorbic acid nicotinamide complex; Niacinamide ascorbate; Nicotinamide-ascorbic acid complex

$$$$
