CT6
 OpenBabel10282417163D

 39 42  0  0  0  0  0  0  0  0999 V2000
   -1.5567   -0.0191   -0.0136 Br  0  0  0  0  0  0  0  0  0  0  0  0
    0.3346   -0.0258   -0.0066 C   0  0  0  0  0  0  0  0  0  0  0  0
    1.0226   -1.2449   -0.0042 C   0  0  0  0  0  0  0  0  0  0  0  0
    2.4296   -1.2813    0.0113 C   0  0  0  0  0  0  0  0  0  0  0  0
    3.1122   -0.0504    0.0321 C   0  0  0  0  0  0  0  0  0  0  0  0
    2.4183    1.1679    0.0128 C   0  0  0  0  0  0  0  0  0  0  0  0
    1.0257    1.1812   -0.0054 C   0  0  0  0  0  0  0  0  0  0  0  0
    3.1631   -2.5663   -0.0138 C   0  0  0  0  0  0  0  0  0  0  0  0
    3.0006   -3.4605   -1.0845 C   0  0  0  0  0  0  0  0  0  0  0  0
    3.6816   -4.6859   -1.1466 C   0  0  0  0  0  0  0  0  0  0  0  0
    4.5597   -4.9544    0.0281 N   0  3  0  0  0  0  0  0  0  0  0  0
    5.3353   -5.9867    0.3491 N   0  0  0  0  0  0  0  0  0  0  0  0
    5.9843   -5.7292    1.5575 C   0  0  0  0  0  0  0  0  0  0  0  0
    4.6576   -3.9721    1.0444 C   0  0  0  0  0  0  0  0  0  0  0  0
    5.5758   -4.4453    2.0504 C   0  0  0  0  0  0  0  0  0  0  0  0
    3.9844   -2.7851    1.0363 N   0  0  0  0  0  0  0  0  0  0  0  0
    3.5998   -5.4773   -2.2717 N   0  0  0  0  0  0  0  0  0  0  0  0
    4.1736   -6.7884   -2.4632 C   0  0  0  0  0  0  0  0  0  0  0  0
    3.1913   -7.9191   -2.3187 C   0  0  0  0  0  0  0  0  0  0  0  0
    1.8392   -7.7327   -2.0195 C   0  0  0  0  0  0  0  0  0  0  0  0
    1.0264   -8.8454   -1.8862 C   0  0  0  0  0  0  0  0  0  0  0  0
    1.4914  -10.1089   -1.8858 N   0  0  0  0  0  0  0  0  0  0  0  0
    2.8051  -10.2793   -2.1248 C   0  0  0  0  0  0  0  0  0  0  0  0
    3.6660   -9.2356   -2.4207 C   0  0  0  0  0  0  0  0  0  0  0  0
    0.4506   -2.1698   -0.0010 H   0  0  0  0  0  0  0  0  0  0  0  0
    4.2005   -0.0248    0.0527 H   0  0  0  0  0  0  0  0  0  0  0  0
    2.9639    2.1101    0.0124 H   0  0  0  0  0  0  0  0  0  0  0  0
    0.4931    2.1303   -0.0137 H   0  0  0  0  0  0  0  0  0  0  0  0
    2.3365   -3.1753   -1.8997 H   0  0  0  0  0  0  0  0  0  0  0  0
    5.4460   -6.8634   -0.1542 H   0  0  0  0  0  0  0  0  0  0  0  0
    6.6569   -6.4805    1.9376 H   0  0  0  0  0  0  0  0  0  0  0  0
    5.8841   -3.9580    2.9607 H   0  0  0  0  0  0  0  0  0  0  0  0
    2.8526   -5.2587   -2.9265 H   0  0  0  0  0  0  0  0  0  0  0  0
    4.6797   -6.8256   -3.4323 H   0  0  0  0  0  0  0  0  0  0  0  0
    4.9589   -6.9872   -1.7531 H   0  0  0  0  0  0  0  0  0  0  0  0
    1.4024   -6.7514   -1.8810 H   0  0  0  0  0  0  0  0  0  0  0  0
   -0.0482   -8.7424   -1.7633 H   0  0  0  0  0  0  0  0  0  0  0  0
    3.1618  -11.3033   -2.0496 H   0  0  0  0  0  0  0  0  0  0  0  0
    4.6946   -9.4577   -2.6911 H   0  0  0  0  0  0  0  0  0  0  0  0
  1  2  1  0  0  0  0
  2  3  1  0  0  0  0
  2  7  2  0  0  0  0
  3  4  2  0  0  0  0
  3 25  1  0  0  0  0
  4  5  1  0  0  0  0
  4  8  1  0  0  0  0
  5  6  2  0  0  0  0
  5 26  1  0  0  0  0
  6  7  1  0  0  0  0
  6 27  1  0  0  0  0
  7 28  1  0  0  0  0
  8  9  1  0  0  0  0
  8 16  2  0  0  0  0
  9 10  2  0  0  0  0
  9 29  1  0  0  0  0
 10 11  1  0  0  0  0
 10 17  1  0  0  0  0
 11 12  1  0  0  0  0
 11 14  2  0  0  0  0
 12 13  1  0  0  0  0
 12 30  1  0  0  0  0
 13 15  2  0  0  0  0
 13 31  1  0  0  0  0
 14 15  1  0  0  0  0
 14 16  1  0  0  0  0
 15 32  1  0  0  0  0
 17 18  1  0  0  0  0
 17 33  1  0  0  0  0
 18 19  1  0  0  0  0
 18 34  1  0  0  0  0
 18 35  1  0  0  0  0
 19 20  2  0  0  0  0
 19 24  1  0  0  0  0
 20 21  1  0  0  0  0
 20 36  1  0  0  0  0
 21 22  2  0  0  0  0
 21 37  1  0  0  0  0
 22 23  1  0  0  0  0
 23 24  2  0  0  0  0
 23 38  1  0  0  0  0
 24 39  1  0  0  0  0
M  CHG  1  11   1
M  END
>  <DRUGBANK_ID>
DB07595

>  <COMMON_NAME>
(5Z)-5-(3-BROMOCYCLOHEXA-2,5-DIEN-1-YLIDENE)-N-(PYRIDIN-4-YLMETHYL)-1,5-DIHYDROPYRAZOLO[1,5-A]PYRIMIDIN-7-AMINE

$$$$
