
 OpenBabel10282417133D

 22 21  0  0  0  0  0  0  0  0999 V2000
    0.9314   -0.0707    0.1477 C   0  0  0  0  0  0  0  0  0  0  0  0
    0.1777    0.8824    0.2529 O   0  0  0  0  0  0  0  0  0  0  0  0
    5.3323    0.5038   -0.9846 C   0  0  0  0  0  0  0  0  0  0  0  0
    6.2809    0.9430   -1.6172 O   0  0  0  0  0  0  0  0  0  0  0  0
    3.0705    1.2561   -0.0345 N   0  0  0  0  0  0  0  0  0  0  0  0
    2.8665    1.4518   -2.5500 C   0  0  0  0  0  0  0  0  0  0  0  0
    2.1433    0.6982   -3.1682 O   0  0  0  0  0  0  0  0  0  0  0  0
    2.4541   -0.0867    0.0568 C   0  0  0  0  0  0  0  0  0  0  0  0
    2.5872    2.0636   -1.1826 C   0  0  0  0  0  0  0  0  0  0  0  0
    4.8467   -0.7236   -1.2692 O   0  0  0  0  0  0  0  0  0  0  0  0
    4.5542    1.2369    0.1083 C   0  0  0  0  0  0  0  0  0  0  0  0
    0.4200   -1.3200    0.0598 O   0  0  0  0  0  0  0  0  0  0  0  0
    4.1210    1.7173   -2.9691 O   0  0  0  0  0  0  0  0  0  0  0  0
    2.8230   -0.5984    0.9548 H   0  0  0  0  0  0  0  0  0  0  0  0
    2.6848   -0.6890   -0.8224 H   0  0  0  0  0  0  0  0  0  0  0  0
    1.5063    2.2167   -1.1287 H   0  0  0  0  0  0  0  0  0  0  0  0
    3.0008    3.0774   -1.1377 H   0  0  0  0  0  0  0  0  0  0  0  0
    5.2601   -1.0157   -2.1055 H   0  0  0  0  0  0  0  0  0  0  0  0
    4.9139    2.2737    0.1433 H   0  0  0  0  0  0  0  0  0  0  0  0
    4.8429    0.7876    1.0663 H   0  0  0  0  0  0  0  0  0  0  0  0
   -0.5484   -1.1697    0.0491 H   0  0  0  0  0  0  0  0  0  0  0  0
    4.3937    1.0012   -3.5781 H   0  0  0  0  0  0  0  0  0  0  0  0
  2  1  2  0  0  0  0
  4  3  2  0  0  0  0
  5  8  1  0  0  0  0
  5 11  1  0  0  0  0
  6  9  1  0  0  0  0
  7  6  2  0  0  0  0
  8  1  1  0  0  0  0
  8 14  1  0  0  0  0
  8 15  1  0  0  0  0
  9  5  1  0  0  0  0
  9 16  1  0  0  0  0
  9 17  1  0  0  0  0
 10  3  1  0  0  0  0
 10 18  1  0  0  0  0
 11  3  1  0  0  0  0
 11 19  1  0  0  0  0
 11 20  1  0  0  0  0
 12  1  1  0  0  0  0
 12 21  1  0  0  0  0
 13  6  1  0  0  0  0
 13 22  1  0  0  0  0
M  END
>  <DRUGBANK_ID>
DB03040

>  <SECONDARY_ACCESSION_NUMBERS>
EXPT02390

>  <COMMON_NAME>
Nitrilotriacetic acid

>  <CAS_NUMBER>
139-13-9

>  <UNII>
KA90006V9D

>  <SYNONYMS>
nitrilo-2,2',2''-triacetic acid; Nitrilotriacetate; Triglycine; Triglycollamic acid; α,α',α''-trimethylaminetricarboxylic acid

$$$$
