
 OpenBabel10282417183D

 50 51  0  0  0  0  0  0  0  0999 V2000
    1.1482   -0.1975   -0.0393 C   0  0  0  0  0  0  0  0  0  0  0  0
    0.6007    0.3444    1.2179 C   0  0  0  0  0  0  0  0  0  0  0  0
   -0.1114    1.3000    1.0372 O   0  0  0  0  0  0  0  0  0  0  0  0
    1.0844   -0.4087    2.7523 S   0  0  0  0  0  0  0  0  0  0  0  0
    0.2947    0.4380    4.2169 C   0  0  0  0  0  0  0  0  0  0  0  0
    0.5422    1.9507    4.4113 C   0  0  3  0  0  0  0  0  0  0  0  0
    0.1899    2.8266    3.1753 C   0  0  0  0  0  0  0  0  0  0  0  0
   -1.2809    2.8340    2.6700 C   0  0  0  0  0  0  0  0  0  0  0  0
   -2.0551    1.6423    2.4321 C   0  0  0  0  0  0  0  0  0  0  0  0
   -3.4413    1.6200    2.3868 C   0  0  0  0  0  0  0  0  0  0  0  0
   -4.1089    2.8144    2.5630 C   0  0  0  0  0  0  0  0  0  0  0  0
   -3.3839    4.0103    2.6777 C   0  0  0  0  0  0  0  0  0  0  0  0
   -1.9791    4.0343    2.6732 C   0  0  0  0  0  0  0  0  0  0  0  0
    0.0284    2.5777    5.7555 C   0  0  0  0  0  0  0  0  0  0  0  0
    0.8236    3.1053    6.5395 O   0  0  0  0  0  0  0  0  0  0  0  0
   -1.2957    2.6187    6.1079 N   0  0  0  0  0  0  0  0  0  0  0  0
   -2.3788    2.2180    5.2678 C   0  0  0  0  0  0  0  0  0  0  0  0
   -3.3309    1.0558    5.3336 C   0  0  0  0  0  0  0  0  0  0  0  0
   -4.4924    1.0868    4.9421 O   0  0  0  0  0  0  0  0  0  0  0  0
   -2.7183   -0.0124    5.8969 O   0  0  0  0  0  0  0  0  0  0  0  0
   -3.6758   -0.9315    6.3986 C   0  0  0  0  0  0  0  0  0  0  0  0
   -4.4511   -0.3073    7.5458 C   0  0  0  0  0  0  0  0  0  0  0  0
   -5.1756   -1.1306    8.3950 C   0  0  0  0  0  0  0  0  0  0  0  0
   -5.8275   -0.5735    9.4975 C   0  0  0  0  0  0  0  0  0  0  0  0
   -5.7831    0.8012    9.7543 C   0  0  0  0  0  0  0  0  0  0  0  0
   -5.0900    1.6367    8.9128 C   0  0  0  0  0  0  0  0  0  0  0  0
   -4.4652    1.0823    7.8193 C   0  0  0  0  0  0  0  0  0  0  0  0
    0.7837    0.4758   -0.8351 H   0  0  0  0  0  0  0  0  0  0  0  0
    0.7311   -1.1818   -0.2246 H   0  0  0  0  0  0  0  0  0  0  0  0
    2.2297   -0.1251   -0.0186 H   0  0  0  0  0  0  0  0  0  0  0  0
   -0.7556    0.1541    4.2483 H   0  0  0  0  0  0  0  0  0  0  0  0
    0.6706   -0.0707    5.1207 H   0  0  0  0  0  0  0  0  0  0  0  0
    1.6378    2.0236    4.5331 H   0  0  0  0  0  0  0  0  0  0  0  0
    0.5021    3.8574    3.3862 H   0  0  0  0  0  0  0  0  0  0  0  0
    0.8967    2.5575    2.3865 H   0  0  0  0  0  0  0  0  0  0  0  0
   -1.6201    0.6486    2.4938 H   0  0  0  0  0  0  0  0  0  0  0  0
   -3.9562    0.6603    2.4800 H   0  0  0  0  0  0  0  0  0  0  0  0
   -5.1770    2.7855    2.7641 H   0  0  0  0  0  0  0  0  0  0  0  0
   -3.9187    4.9163    2.9421 H   0  0  0  0  0  0  0  0  0  0  0  0
   -1.4510    4.9682    2.8389 H   0  0  0  0  0  0  0  0  0  0  0  0
   -1.5178    3.2609    6.8595 H   0  0  0  0  0  0  0  0  0  0  0  0
   -2.9109    3.1097    4.9578 H   0  0  0  0  0  0  0  0  0  0  0  0
   -1.8021    1.7870    4.5036 H   0  0  0  0  0  0  0  0  0  0  0  0
   -4.3125   -1.3155    5.5882 H   0  0  0  0  0  0  0  0  0  0  0  0
   -3.0912   -1.7765    6.7777 H   0  0  0  0  0  0  0  0  0  0  0  0
   -5.2209   -2.2018    8.2151 H   0  0  0  0  0  0  0  0  0  0  0  0
   -6.3635   -1.2212   10.1805 H   0  0  0  0  0  0  0  0  0  0  0  0
   -6.2899    1.2322   10.6075 H   0  0  0  0  0  0  0  0  0  0  0  0
   -5.0059    2.7073    9.0733 H   0  0  0  0  0  0  0  0  0  0  0  0
   -4.0082    1.8388    7.2028 H   0  0  0  0  0  0  0  0  0  0  0  0
  1  2  1  0  0  0  0
  1 28  1  0  0  0  0
  1 29  1  0  0  0  0
  1 30  1  0  0  0  0
  2  3  2  0  0  0  0
  2  4  1  0  0  0  0
  4  5  1  0  0  0  0
  5  6  1  0  0  0  0
  5 31  1  0  0  0  0
  5 32  1  0  0  0  0
  6  7  1  0  0  0  0
  6 14  1  0  0  0  0
  6 33  1  0  0  0  0
  7  8  1  0  0  0  0
  7 34  1  0  0  0  0
  7 35  1  0  0  0  0
  8  9  2  0  0  0  0
  8 13  1  0  0  0  0
  9 10  1  0  0  0  0
  9 36  1  0  0  0  0
 10 11  2  0  0  0  0
 10 37  1  0  0  0  0
 11 12  1  0  0  0  0
 11 38  1  0  0  0  0
 12 13  2  0  0  0  0
 12 39  1  0  0  0  0
 13 40  1  0  0  0  0
 14 15  2  0  0  0  0
 14 16  1  0  0  0  0
 16 17  1  0  0  0  0
 16 41  1  0  0  0  0
 17 18  1  0  0  0  0
 17 42  1  0  0  0  0
 17 43  1  0  0  0  0
 18 19  2  0  0  0  0
 18 20  1  0  0  0  0
 20 21  1  0  0  0  0
 21 22  1  0  0  0  0
 21 44  1  0  0  0  0
 21 45  1  0  0  0  0
 22 23  2  0  0  0  0
 22 27  1  0  0  0  0
 23 24  1  0  0  0  0
 23 46  1  0  0  0  0
 24 25  2  0  0  0  0
 24 47  1  0  0  0  0
 25 26  1  0  0  0  0
 25 48  1  0  0  0  0
 26 27  2  0  0  0  0
 26 49  1  0  0  0  0
 27 50  1  0  0  0  0
M  END
>  <DRUGBANK_ID>
DB11696

>  <COMMON_NAME>
Racecadotril

>  <CAS_NUMBER>
81110-73-8

>  <UNII>
76K53XP4TO

>  <SYNONYMS>
Racecadotril; Racecadotrilo

$$$$
