
 OpenBabel10282417153D

 74 77  0  0  0  0  0  0  0  0999 V2000
    1.0137   -0.1227    0.0647 C   0  0  0  0  0  0  0  0  0  0  0  0
    0.6579    0.8933   -0.9846 C   0  0  0  0  0  0  0  0  0  0  0  0
    1.1648    0.4199   -2.2373 O   0  0  0  0  0  0  0  0  0  0  0  0
    2.4605    0.5479   -2.5674 C   0  0  0  0  0  0  0  0  0  0  0  0
    3.3483    0.9096   -1.7916 O   0  0  0  0  0  0  0  0  0  0  0  0
    2.7222    0.2572   -3.9015 N   0  0  0  0  0  0  0  0  0  0  0  0
    1.8798    0.0159   -4.9872 C   0  0  0  0  0  0  0  0  0  0  0  0
    2.3669   -0.2702   -6.1452 N   0  0  0  0  0  0  0  0  0  0  0  0
    0.4155    0.1389   -4.8494 C   0  0  0  0  0  0  0  0  0  0  0  0
   -0.1036    1.2962   -4.2780 C   0  0  0  0  0  0  0  0  0  0  0  0
   -1.4625    1.4090   -4.0589 C   0  0  0  0  0  0  0  0  0  0  0  0
   -2.3381    0.4297   -4.5194 C   0  0  0  0  0  0  0  0  0  0  0  0
   -1.8297   -0.6607   -5.2290 C   0  0  0  0  0  0  0  0  0  0  0  0
   -0.4465   -0.8389   -5.3493 C   0  0  0  0  0  0  0  0  0  0  0  0
   -3.6879    0.4263   -4.2847 O   0  0  0  0  0  0  0  0  0  0  0  0
   -4.1822    1.4242   -3.3781 C   0  0  0  0  0  0  0  0  0  0  0  0
   -3.5833    1.3510   -1.9837 C   0  0  0  0  0  0  0  0  0  0  0  0
   -3.3074    2.5376   -1.2785 C   0  0  0  0  0  0  0  0  0  0  0  0
   -2.7751    2.4930    0.0106 C   0  0  0  0  0  0  0  0  0  0  0  0
   -2.5594    1.2611    0.6291 C   0  0  0  0  0  0  0  0  0  0  0  0
   -2.9000    0.0660   -0.0372 C   0  0  0  0  0  0  0  0  0  0  0  0
   -3.3242    0.1126   -1.3755 C   0  0  0  0  0  0  0  0  0  0  0  0
   -3.1250   -1.1927    0.7762 C   0  0  0  0  0  0  0  0  0  0  0  0
   -4.4703   -1.7244    0.7480 O   0  0  0  0  0  0  0  0  0  0  0  0
   -5.4972   -0.9374    1.1915 C   0  0  0  0  0  0  0  0  0  0  0  0
   -5.6356    0.4052    0.8985 C   0  0  0  0  0  0  0  0  0  0  0  0
   -6.7124    1.1582    1.3035 C   0  0  0  0  0  0  0  0  0  0  0  0
   -7.7852    0.5689    1.9508 C   0  0  0  0  0  0  0  0  0  0  0  0
   -7.7031   -0.8159    2.1849 C   0  0  0  0  0  0  0  0  0  0  0  0
   -6.5482   -1.5478    1.8603 C   0  0  0  0  0  0  0  0  0  0  0  0
   -8.9725    1.4176    2.4253 C   0  0  0  0  0  0  0  0  0  0  0  0
  -10.2830    0.8830    1.8072 C   0  0  0  0  0  0  0  0  0  0  0  0
   -9.0553    1.2508    3.9600 C   0  0  0  0  0  0  0  0  0  0  0  0
   -8.8552    2.9081    2.0181 C   0  0  0  0  0  0  0  0  0  0  0  0
   -8.8186    3.2458    0.6445 C   0  0  0  0  0  0  0  0  0  0  0  0
   -8.6506    4.5588    0.2188 C   0  0  0  0  0  0  0  0  0  0  0  0
   -8.6004    5.5672    1.1681 C   0  0  0  0  0  0  0  0  0  0  0  0
   -8.6883    5.2773    2.5228 C   0  0  0  0  0  0  0  0  0  0  0  0
   -8.7451    3.9512    2.9495 C   0  0  0  0  0  0  0  0  0  0  0  0
   -8.4369    6.8707    0.8091 O   0  0  0  0  0  0  0  0  0  0  0  0
    0.6462   -1.1066   -0.2464 H   0  0  0  0  0  0  0  0  0  0  0  0
    0.5949    0.1343    1.0379 H   0  0  0  0  0  0  0  0  0  0  0  0
    2.0999   -0.2007    0.1475 H   0  0  0  0  0  0  0  0  0  0  0  0
   -0.4269    0.9450   -1.1000 H   0  0  0  0  0  0  0  0  0  0  0  0
    0.9983    1.9104   -0.7584 H   0  0  0  0  0  0  0  0  0  0  0  0
    3.7112    0.2720   -4.0922 H   0  0  0  0  0  0  0  0  0  0  0  0
    3.3846   -0.2789   -6.1692 H   0  0  0  0  0  0  0  0  0  0  0  0
    0.5467    2.0731   -3.8878 H   0  0  0  0  0  0  0  0  0  0  0  0
   -1.7784    2.2651   -3.4793 H   0  0  0  0  0  0  0  0  0  0  0  0
   -2.5101   -1.3803   -5.6757 H   0  0  0  0  0  0  0  0  0  0  0  0
   -0.0485   -1.7314   -5.8246 H   0  0  0  0  0  0  0  0  0  0  0  0
   -4.0369    2.4164   -3.8251 H   0  0  0  0  0  0  0  0  0  0  0  0
   -5.2666    1.2832   -3.2916 H   0  0  0  0  0  0  0  0  0  0  0  0
   -3.4988    3.5050   -1.7384 H   0  0  0  0  0  0  0  0  0  0  0  0
   -2.6068    3.4148    0.5618 H   0  0  0  0  0  0  0  0  0  0  0  0
   -2.2566    1.2376    1.6738 H   0  0  0  0  0  0  0  0  0  0  0  0
   -3.5585   -0.8116   -1.9032 H   0  0  0  0  0  0  0  0  0  0  0  0
   -2.4692   -1.9739    0.3767 H   0  0  0  0  0  0  0  0  0  0  0  0
   -2.8430   -1.0404    1.8243 H   0  0  0  0  0  0  0  0  0  0  0  0
   -4.9529    0.9726    0.3094 H   0  0  0  0  0  0  0  0  0  0  0  0
   -6.6578    2.2111    1.0474 H   0  0  0  0  0  0  0  0  0  0  0  0
   -8.5387   -1.3442    2.6355 H   0  0  0  0  0  0  0  0  0  0  0  0
   -6.4832   -2.5957    2.1341 H   0  0  0  0  0  0  0  0  0  0  0  0
  -10.4719   -0.1600    2.0775 H   0  0  0  0  0  0  0  0  0  0  0  0
  -11.1399    1.4760    2.1471 H   0  0  0  0  0  0  0  0  0  0  0  0
  -10.2686    0.9243    0.7113 H   0  0  0  0  0  0  0  0  0  0  0  0
   -8.1291    1.5847    4.4467 H   0  0  0  0  0  0  0  0  0  0  0  0
   -9.8893    1.8251    4.3768 H   0  0  0  0  0  0  0  0  0  0  0  0
   -9.2088    0.2077    4.2565 H   0  0  0  0  0  0  0  0  0  0  0  0
   -8.8297    2.4557   -0.1065 H   0  0  0  0  0  0  0  0  0  0  0  0
   -8.5656    4.7576   -0.8436 H   0  0  0  0  0  0  0  0  0  0  0  0
   -8.7028    6.0809    3.2524 H   0  0  0  0  0  0  0  0  0  0  0  0
   -8.6953    3.7655    4.0190 H   0  0  0  0  0  0  0  0  0  0  0  0
   -8.2632    6.9032   -0.1454 H   0  0  0  0  0  0  0  0  0  0  0  0
  1  2  1  0  0  0  0
  1 41  1  0  0  0  0
  1 42  1  0  0  0  0
  1 43  1  0  0  0  0
  2  3  1  0  0  0  0
  2 44  1  0  0  0  0
  2 45  1  0  0  0  0
  3  4  1  0  0  0  0
  4  5  2  0  0  0  0
  4  6  1  0  0  0  0
  6  7  1  0  0  0  0
  6 46  1  0  0  0  0
  7  8  2  0  0  0  0
  7  9  1  0  0  0  0
  8 47  1  0  0  0  0
  9 10  2  0  0  0  0
  9 14  1  0  0  0  0
 10 11  1  0  0  0  0
 10 48  1  0  0  0  0
 11 12  2  0  0  0  0
 11 49  1  0  0  0  0
 12 13  1  0  0  0  0
 12 15  1  0  0  0  0
 13 14  2  0  0  0  0
 13 50  1  0  0  0  0
 14 51  1  0  0  0  0
 15 16  1  0  0  0  0
 16 17  1  0  0  0  0
 16 52  1  0  0  0  0
 16 53  1  0  0  0  0
 17 18  2  0  0  0  0
 17 22  1  0  0  0  0
 18 19  1  0  0  0  0
 18 54  1  0  0  0  0
 19 20  2  0  0  0  0
 19 55  1  0  0  0  0
 20 21  1  0  0  0  0
 20 56  1  0  0  0  0
 21 22  2  0  0  0  0
 21 23  1  0  0  0  0
 22 57  1  0  0  0  0
 23 24  1  0  0  0  0
 23 58  1  0  0  0  0
 23 59  1  0  0  0  0
 24 25  1  0  0  0  0
 25 26  2  0  0  0  0
 25 30  1  0  0  0  0
 26 27  1  0  0  0  0
 26 60  1  0  0  0  0
 27 28  2  0  0  0  0
 27 61  1  0  0  0  0
 28 29  1  0  0  0  0
 28 31  1  0  0  0  0
 29 30  2  0  0  0  0
 29 62  1  0  0  0  0
 30 63  1  0  0  0  0
 31 32  1  0  0  0  0
 31 33  1  0  0  0  0
 31 34  1  0  0  0  0
 32 64  1  0  0  0  0
 32 65  1  0  0  0  0
 32 66  1  0  0  0  0
 33 67  1  0  0  0  0
 33 68  1  0  0  0  0
 33 69  1  0  0  0  0
 34 35  2  0  0  0  0
 34 39  1  0  0  0  0
 35 36  1  0  0  0  0
 35 70  1  0  0  0  0
 36 37  2  0  0  0  0
 36 71  1  0  0  0  0
 37 38  1  0  0  0  0
 37 40  1  0  0  0  0
 38 39  2  0  0  0  0
 38 72  1  0  0  0  0
 39 73  1  0  0  0  0
 40 74  1  0  0  0  0
M  END
>  <DRUGBANK_ID>
DB06248

>  <COMMON_NAME>
Amelubant

>  <CAS_NUMBER>
346735-24-8

>  <UNII>
E0018IF0K4

>  <SYNONYMS>
Amelubant; Carbamic acid, N-[[4-[[3-[[4-[1-(4-hydroxyphenyl)-1-methylethyl]phenoxy]methyl]phenyl]methoxy]phenyl]iminomethyl]-, ethyl ester

$$$$
