
 OpenBabel10282417203D

 83 88  0  0  0  0  0  0  0  0999 V2000
   -0.0522   -0.5790   -0.5842 C   0  0  1  0  0  0  0  0  0  0  0  0
    1.3579   -0.6406   -0.7779 C   0  0  0  0  0  0  0  0  0  0  0  0
   -0.8446    0.5662   -0.7687 O   0  0  0  0  0  0  0  0  0  0  0  0
    1.7328    0.6272   -0.0674 C   0  0  1  0  0  0  0  0  0  0  0  0
   -0.5518    1.7616   -0.1902 C   0  0  1  0  0  0  0  0  0  0  0  0
    0.8817    1.8162   -0.6282 C   0  0  1  0  0  0  0  0  0  0  0  0
    1.8136    0.5908    1.4099 O   0  0  0  0  0  0  0  0  0  0  0  0
   -1.5275    2.7723   -0.7470 C   0  0  0  0  0  0  0  0  0  0  0  0
    1.4415    3.0179   -0.2178 O   0  0  0  0  0  0  0  0  0  0  0  0
    0.7148    0.4416    2.3280 C   0  0  0  0  0  0  0  0  0  0  0  0
   -3.8152   -2.8067   -1.7442 C   0  0  2  0  0  0  0  0  0  0  0  0
   -3.9846   -3.3746    0.1540 C   0  0  2  0  0  0  0  0  0  0  0  0
   -4.1750   -1.7955   -2.7425 C   0  0  1  0  0  0  0  0  0  0  0  0
   -3.1877   -1.1322   -1.7632 C   0  0  0  0  0  0  0  0  0  0  0  0
   -3.8301   -3.8355   -3.1412 C   0  0  0  0  0  0  0  0  0  0  0  0
   -4.9705   -2.7135    0.8302 C   0  0  2  0  0  0  0  0  0  0  0  0
   -3.0248   -3.4459    1.9838 C   0  0  0  0  0  0  0  0  0  0  0  0
   -2.2684   -2.1801   -3.4144 C   0  0  0  0  0  0  0  0  0  0  0  0
   -5.4798   -1.3232   -1.3370 C   0  0  0  0  0  0  0  0  0  0  0  0
   -5.1379   -1.5175   -3.7347 O   0  0  0  0  0  0  0  0  0  0  0  0
   -1.9924   -0.7269   -2.5154 C   0  0  0  0  0  0  0  0  0  0  0  0
   -4.1774   -3.5492   -4.3092 O   0  0  0  0  0  0  0  0  0  0  0  0
   -3.6555   -1.9944    1.0373 C   0  0  2  0  0  0  0  0  0  0  0  0
   -5.9814   -2.0721    0.0239 C   0  0  0  0  0  0  0  0  0  0  0  0
   -1.9702   -4.3928    1.9731 C   0  0  0  0  0  0  0  0  0  0  0  0
   -1.2415   -2.0527   -2.3336 C   0  0  2  0  0  0  0  0  0  0  0  0
   -2.1507   -3.3884    0.7797 C   0  0  2  0  0  0  0  0  0  0  0  0
   -3.2955   -0.6019    0.7917 C   0  0  0  0  0  0  0  0  0  0  0  0
   -4.0908   -1.4506    2.4355 O   0  0  0  0  0  0  0  0  0  0  0  0
   -0.5732   -1.7501   -1.2133 O   0  0  0  0  0  0  0  0  0  0  0  0
   -0.9273   -2.6332    0.9946 C   0  0  2  0  0  0  0  0  0  0  0  0
   -2.2951   -4.7566   -0.2152 C   0  0  0  0  0  0  0  0  0  0  0  0
   -1.8669   -1.0108    0.8959 C   0  0  0  0  0  0  0  0  0  0  0  0
    0.2879   -3.6641    0.7531 C   0  0  0  0  0  0  0  0  0  0  0  0
    0.4122   -4.9181   -0.0869 C   0  0  0  0  0  0  0  0  0  0  0  0
    1.5030   -3.3649    1.1932 C   0  0  0  0  0  0  0  0  0  0  0  0
    1.7922   -5.2139   -0.1539 O   0  0  0  0  0  0  0  0  0  0  0  0
    2.4405   -4.2491    0.5304 C   0  0  0  0  0  0  0  0  0  0  0  0
    3.6423   -4.0784    0.5435 O   0  0  0  0  0  0  0  0  0  0  0  0
   -4.3833   -4.3419   -0.1204 H   0  0  0  0  0  0  0  0  0  0  0  0
   -5.2638   -3.6138    1.4287 H   0  0  0  0  0  0  0  0  0  0  0  0
   -0.1882   -2.3006    0.3613 H   0  0  0  0  0  0  0  0  0  0  0  0
   -0.0006   -0.6726    0.5095 H   0  0  0  0  0  0  0  0  0  0  0  0
    1.8197   -1.5466   -0.3741 H   0  0  0  0  0  0  0  0  0  0  0  0
    1.3367   -0.7547   -1.8566 H   0  0  0  0  0  0  0  0  0  0  0  0
    2.7526    0.7184   -0.4190 H   0  0  0  0  0  0  0  0  0  0  0  0
   -0.8362    1.7917    0.8509 H   0  0  0  0  0  0  0  0  0  0  0  0
    0.8513    1.6940   -1.7308 H   0  0  0  0  0  0  0  0  0  0  0  0
   -2.4472    2.7946   -0.1351 H   0  0  0  0  0  0  0  0  0  0  0  0
   -1.0722    3.7551   -0.6886 H   0  0  0  0  0  0  0  0  0  0  0  0
   -1.8540    2.5092   -1.7557 H   0  0  0  0  0  0  0  0  0  0  0  0
    1.3706    2.9494    0.7500 H   0  0  0  0  0  0  0  0  0  0  0  0
   -0.0840    1.1520    2.1838 H   0  0  0  0  0  0  0  0  0  0  0  0
    0.3389   -0.5835    2.3857 H   0  0  0  0  0  0  0  0  0  0  0  0
    0.9786    0.6583    3.3661 H   0  0  0  0  0  0  0  0  0  0  0  0
   -3.7717   -0.1532   -1.7683 H   0  0  0  0  0  0  0  0  0  0  0  0
   -2.8185   -1.5668   -0.9224 H   0  0  0  0  0  0  0  0  0  0  0  0
   -3.0921   -4.6369   -3.1506 H   0  0  0  0  0  0  0  0  0  0  0  0
   -3.3940   -3.2224    3.0286 H   0  0  0  0  0  0  0  0  0  0  0  0
   -2.2951   -2.4237    2.3912 H   0  0  0  0  0  0  0  0  0  0  0  0
   -1.8917   -3.1609   -3.8231 H   0  0  0  0  0  0  0  0  0  0  0  0
   -1.3222   -1.6321   -3.9825 H   0  0  0  0  0  0  0  0  0  0  0  0
   -6.3957   -0.9268   -1.7741 H   0  0  0  0  0  0  0  0  0  0  0  0
   -5.2920   -0.3298   -0.8894 H   0  0  0  0  0  0  0  0  0  0  0  0
   -5.9340   -2.0366   -3.5243 H   0  0  0  0  0  0  0  0  0  0  0  0
   -2.2757   -0.2813   -3.5230 H   0  0  0  0  0  0  0  0  0  0  0  0
   -1.3743    0.1102   -2.3625 H   0  0  0  0  0  0  0  0  0  0  0  0
   -6.9066   -2.6626   -0.0194 H   0  0  0  0  0  0  0  0  0  0  0  0
   -6.2395   -1.3339    0.8057 H   0  0  0  0  0  0  0  0  0  0  0  0
   -2.5598   -5.1779    2.4287 H   0  0  0  0  0  0  0  0  0  0  0  0
   -0.9708   -4.4071    2.4216 H   0  0  0  0  0  0  0  0  0  0  0  0
   -1.5362   -3.0705   -1.9576 H   0  0  0  0  0  0  0  0  0  0  0  0
   -3.9786   -0.7007    0.0079 H   0  0  0  0  0  0  0  0  0  0  0  0
   -3.2872    0.3743    0.2371 H   0  0  0  0  0  0  0  0  0  0  0  0
   -4.0061   -0.4760    2.4842 H   0  0  0  0  0  0  0  0  0  0  0  0
   -1.5629   -5.5114   -0.3703 H   0  0  0  0  0  0  0  0  0  0  0  0
   -3.0464   -5.4295    0.2472 H   0  0  0  0  0  0  0  0  0  0  0  0
   -2.5848   -4.5296   -1.2152 H   0  0  0  0  0  0  0  0  0  0  0  0
   -1.5225   -0.1896    1.4776 H   0  0  0  0  0  0  0  0  0  0  0  0
   -1.8610   -0.7515   -0.1089 H   0  0  0  0  0  0  0  0  0  0  0  0
    0.0568   -4.8661   -1.1333 H   0  0  0  0  0  0  0  0  0  0  0  0
   -0.0350   -5.7696    0.4441 H   0  0  0  0  0  0  0  0  0  0  0  0
    1.7214   -2.4179    1.6426 H   0  0  0  0  0  0  0  0  0  0  0  0
  1  2  1  0  0  0  0
  1  3  1  0  0  0  0
  1 30  1  0  0  0  0
  1 43  1  1  0  0  0
  2  4  1  0  0  0  0
  2 44  1  0  0  0  0
  2 45  1  0  0  0  0
  3  5  1  0  0  0  0
  4  6  1  0  0  0  0
  4  7  1  0  0  0  0
  4 46  1  6  0  0  0
  5  6  1  0  0  0  0
  5 47  1  1  0  0  0
  5  8  1  0  0  0  0
  6  9  1  0  0  0  0
  6 48  1  6  0  0  0
  7 10  1  0  0  0  0
  8 49  1  0  0  0  0
  8 50  1  0  0  0  0
  8 51  1  0  0  0  0
  9 52  1  0  0  0  0
 10 53  1  0  0  0  0
 10 54  1  0  0  0  0
 10 55  1  0  0  0  0
 11 12  1  0  0  0  0
 11 13  1  0  0  0  0
 11 14  1  0  0  0  0
 11 15  1  1  0  0  0
 12 16  1  0  0  0  0
 12 17  1  0  0  0  0
 12 40  1  6  0  0  0
 13 18  1  0  0  0  0
 13 19  1  0  0  0  0
 13 20  1  1  0  0  0
 14 21  1  0  0  0  0
 14 56  1  0  0  0  0
 14 57  1  0  0  0  0
 15 22  2  0  0  0  0
 15 58  1  0  0  0  0
 16 23  1  0  0  0  0
 16 24  1  0  0  0  0
 16 41  1  6  0  0  0
 17 25  1  0  0  0  0
 17 59  1  0  0  0  0
 17 60  1  0  0  0  0
 18 26  1  0  0  0  0
 18 61  1  0  0  0  0
 18 62  1  0  0  0  0
 19 24  1  0  0  0  0
 19 63  1  0  0  0  0
 19 64  1  0  0  0  0
 20 65  1  0  0  0  0
 21 26  1  0  0  0  0
 21 66  1  0  0  0  0
 21 67  1  0  0  0  0
 23 27  1  0  0  0  0
 23 28  1  0  0  0  0
 23 29  1  6  0  0  0
 24 68  1  0  0  0  0
 24 69  1  0  0  0  0
 25 27  1  0  0  0  0
 25 70  1  0  0  0  0
 25 71  1  0  0  0  0
 26 72  1  1  0  0  0
 26 30  1  0  0  0  0
 27 31  1  0  0  0  0
 27 32  1  6  0  0  0
 28 33  1  0  0  0  0
 28 73  1  0  0  0  0
 28 74  1  0  0  0  0
 29 75  1  0  0  0  0
 31 33  1  0  0  0  0
 31 34  1  0  0  0  0
 31 42  1  1  0  0  0
 32 76  1  0  0  0  0
 32 77  1  0  0  0  0
 32 78  1  0  0  0  0
 33 79  1  0  0  0  0
 33 80  1  0  0  0  0
 34 35  1  0  0  0  0
 34 36  2  0  0  0  0
 35 37  1  0  0  0  0
 35 81  1  0  0  0  0
 35 82  1  0  0  0  0
 36 38  1  0  0  0  0
 36 83  1  0  0  0  0
 37 38  1  0  0  0  0
 38 39  2  0  0  0  0
M  END
>  <DRUGBANK_ID>
DB13240

>  <COMMON_NAME>
Cymarin

>  <CAS_NUMBER>
508-77-0

>  <UNII>
UK3LS8435E

>  <SYNONYMS>
Cymarine

$$$$
