
 OpenBabel10282417133D

119121  0  0  1  0  0  0  0  0999 V2000
   -0.6601   -8.2028    4.0182 S   0  0  0  0  0  0  0  0  0  0  0  0
    2.6352   -4.3825   -1.8573 P   0  0  3  0  0  0  0  0  0  0  0  0
    1.2994   -7.0566   -2.9127 P   0  0  3  0  0  0  0  0  0  0  0  0
    0.9942   -7.0849   -5.3030 P   0  0  0  0  0  0  0  0  0  0  0  0
    2.0252   -5.5594   -2.8793 O   0  0  0  0  0  0  0  0  0  0  0  0
    4.2573   -4.9834   -1.8313 O   0  0  0  0  0  0  0  0  0  0  0  0
    2.8332   -8.0940   -2.5865 O   0  0  0  0  0  0  0  0  0  0  0  0
    1.5366   -8.4013   -4.3203 O   0  0  0  0  0  0  0  0  0  0  0  0
    3.2414   -2.8894   -1.4055 O   0  0  0  0  0  0  0  0  0  0  0  0
   -0.3442   -6.9070   -2.6712 O   0  0  0  0  0  0  0  0  0  0  0  0
    2.3975   -6.7563   -6.0393 O   0  0  0  0  0  0  0  0  0  0  0  0
    0.2140   -8.2196   -6.1501 O   0  0  0  0  0  0  0  0  0  0  0  0
    2.0867   -3.1403    0.4504 O   0  0  0  0  0  0  0  0  0  0  0  0
    2.5771   -8.4897   -7.3269 O   0  0  0  0  0  0  0  0  0  0  0  0
    4.9418   -7.7947   -5.4761 O   0  0  0  0  0  0  0  0  0  0  0  0
    1.1835   -3.8447   -1.8806 O   0  0  0  0  0  0  0  0  0  0  0  0
    0.7996   -8.3874   -2.2996 O   0  0  0  0  0  0  0  0  0  0  0  0
    0.5088   -5.9067   -6.1826 O   0  0  0  0  0  0  0  0  0  0  0  0
   -1.3720  -10.5946    3.4799 O   0  0  0  0  0  0  0  0  0  0  0  0
    1.4461   -4.3443    2.6666 O   0  0  0  0  0  0  0  0  0  0  0  0
    2.9395  -10.4625    0.8126 O   0  0  0  0  0  0  0  0  0  0  0  0
    2.6629   -6.1052    1.5931 N   0  0  0  0  0  0  0  0  0  0  0  0
    2.5375   -9.0181    2.6748 N   0  0  0  0  0  0  0  0  0  0  0  0
    7.3742  -14.1796   -5.8638 N   0  0  0  0  0  0  0  0  0  0  0  0
    5.5089   -9.9881   -5.9455 N   0  0  0  0  0  0  0  0  0  0  0  0
    6.9070  -11.3151   -4.8595 N   0  0  0  0  0  0  0  0  0  0  0  0
    5.7696  -13.6470   -7.5140 N   0  0  0  0  0  0  0  0  0  0  0  0
    4.6991  -11.4796   -7.6678 N   0  0  0  0  0  0  0  0  0  0  0  0
    4.8731   -4.0886    0.9466 C   0  0  0  0  0  0  0  0  0  0  0  0
    3.2169   -3.4913    1.2844 C   0  0  2  0  0  0  0  0  0  0  0  0
    0.4925   -6.9517    3.4416 C   0  0  0  0  0  0  0  0  0  0  0  0
    5.3845   -5.0749   -0.3648 C   0  0  0  0  0  0  0  0  0  0  0  0
    2.1346   -7.6546    3.3980 C   0  0  0  0  0  0  0  0  0  0  0  0
    3.5693   -7.3580    0.4941 C   0  0  0  0  0  0  0  0  0  0  0  0
    1.2932   -6.8005   -0.6139 C   0  0  0  0  0  0  0  0  0  0  0  0
    1.3085   -7.9901    0.1071 C   0  0  0  0  0  0  0  0  0  0  0  0
    1.5451   -5.4945   -0.2568 C   0  0  0  0  0  0  0  0  0  0  0  0
    0.3539   -7.4956    0.9917 C   0  0  0  0  0  0  0  0  0  0  0  0
    3.3017   -5.5591   -0.4404 C   0  0  0  0  0  0  0  0  0  0  0  0
   -0.9745   -7.8191    0.6833 C   0  0  0  0  0  0  0  0  0  0  0  0
    4.4803   -6.5203   -2.0354 C   0  0  0  0  0  0  0  0  0  0  0  0
   -0.7755   -9.2594    0.3599 C   0  0  0  0  0  0  0  0  0  0  0  0
    4.4160   -4.9789   -3.5928 C   0  0  0  0  0  0  0  0  0  0  0  0
    4.2116   -8.0977   -3.3420 C   0  0  0  0  0  0  0  0  0  0  0  0
   -0.1667   -9.9992    1.5632 C   0  0  0  0  0  0  0  0  0  0  0  0
    4.2867   -8.5371    0.8074 C   0  0  0  0  0  0  0  0  0  0  0  0
    5.8179   -3.0411    0.5113 C   0  0  0  0  0  0  0  0  0  0  0  0
    5.1031   -4.8964    2.2396 C   0  0  0  0  0  0  0  0  0  0  0  0
    4.3787   -3.0995   -3.3180 C   0  0  0  0  0  0  0  0  0  0  0  0
    4.6905   -8.8821   -6.3389 C   0  0  1  0  0  0  0  0  0  0  0  0
    3.8170   -7.8166   -4.6562 C   0  0  2  0  0  0  0  0  0  0  0  0
    3.1773   -9.2137   -6.2682 C   0  0  1  0  0  0  0  0  0  0  0  0
    2.8221   -8.9003   -4.8361 C   0  0  2  0  0  0  0  0  0  0  0  0
   -0.7381   -9.6784    2.9618 C   0  0  0  0  0  0  0  0  0  0  0  0
    2.4285   -4.6439    1.9683 C   0  0  0  0  0  0  0  0  0  0  0  0
    3.2690   -9.4545    1.4658 C   0  0  0  0  0  0  0  0  0  0  0  0
    6.5001  -13.2819   -6.4308 C   0  0  0  0  0  0  0  0  0  0  0  0
    5.4544  -11.1767   -6.6025 C   0  0  0  0  0  0  0  0  0  0  0  0
    6.3409  -11.9856   -5.9276 C   0  0  0  0  0  0  0  0  0  0  0  0
    6.3770  -10.1120   -4.8996 C   0  0  0  0  0  0  0  0  0  0  0  0
    4.9216  -12.7456   -8.0608 C   0  0  0  0  0  0  0  0  0  0  0  0
    3.9638   -2.7180   -0.7518 H   0  0  0  0  0  0  0  0  0  0  0  0
   -0.6642   -7.3589   -1.8163 H   0  0  0  0  0  0  0  0  0  0  0  0
    2.8193   -5.8787   -5.8750 H   0  0  0  0  0  0  0  0  0  0  0  0
   -0.1318   -8.9359   -5.5776 H   0  0  0  0  0  0  0  0  0  0  0  0
    2.2581   -2.7599   -0.4278 H   0  0  0  0  0  0  0  0  0  0  0  0
    2.7198   -7.5297   -7.1389 H   0  0  0  0  0  0  0  0  0  0  0  0
    1.7833   -6.4143    1.8926 H   0  0  0  0  0  0  0  0  0  0  0  0
    1.8400   -9.6803    2.9544 H   0  0  0  0  0  0  0  0  0  0  0  0
    7.9109  -13.8924   -5.0572 H   0  0  0  0  0  0  0  0  0  0  0  0
    7.4614  -15.1007   -6.2577 H   0  0  0  0  0  0  0  0  0  0  0  0
    3.2540   -2.4980    1.7163 H   0  0  0  0  0  0  0  0  0  0  0  0
   -0.1310   -6.4859    2.6401 H   0  0  0  0  0  0  0  0  0  0  0  0
    0.5125   -5.9313    3.8526 H   0  0  0  0  0  0  0  0  0  0  0  0
    6.3794   -5.5780   -0.5031 H   0  0  0  0  0  0  0  0  0  0  0  0
    5.2298   -6.1078    0.0618 H   0  0  0  0  0  0  0  0  0  0  0  0
    2.9540   -7.0331    3.1042 H   0  0  0  0  0  0  0  0  0  0  0  0
    2.3989   -7.6577    4.4366 H   0  0  0  0  0  0  0  0  0  0  0  0
    3.6809   -7.1428   -0.5401 H   0  0  0  0  0  0  0  0  0  0  0  0
    3.0889   -7.9182   -0.3368 H   0  0  0  0  0  0  0  0  0  0  0  0
    2.0707   -6.9291   -1.2603 H   0  0  0  0  0  0  0  0  0  0  0  0
    0.3525   -6.6281   -0.9977 H   0  0  0  0  0  0  0  0  0  0  0  0
    1.9937   -8.0515    0.8733 H   0  0  0  0  0  0  0  0  0  0  0  0
    1.5948   -8.8968   -0.4500 H   0  0  0  0  0  0  0  0  0  0  0  0
    0.7905   -5.1447   -0.9432 H   0  0  0  0  0  0  0  0  0  0  0  0
    0.9663   -4.8864    0.4380 H   0  0  0  0  0  0  0  0  0  0  0  0
    0.3442   -6.4154    1.1066 H   0  0  0  0  0  0  0  0  0  0  0  0
    0.7007   -8.0018    1.8365 H   0  0  0  0  0  0  0  0  0  0  0  0
    3.5600   -4.4991   -0.3111 H   0  0  0  0  0  0  0  0  0  0  0  0
    3.7944   -5.5641    0.4609 H   0  0  0  0  0  0  0  0  0  0  0  0
   -1.2498   -6.9905    0.0332 H   0  0  0  0  0  0  0  0  0  0  0  0
   -1.4717   -7.6555    1.6141 H   0  0  0  0  0  0  0  0  0  0  0  0
    5.6244   -6.1707   -2.1115 H   0  0  0  0  0  0  0  0  0  0  0  0
    3.5644   -6.5820   -2.4527 H   0  0  0  0  0  0  0  0  0  0  0  0
   -0.1082   -9.4684   -0.4939 H   0  0  0  0  0  0  0  0  0  0  0  0
   -1.7418   -9.5676    0.0726 H   0  0  0  0  0  0  0  0  0  0  0  0
    5.1360   -4.9953   -4.3750 H   0  0  0  0  0  0  0  0  0  0  0  0
    3.4037   -4.9037   -4.0313 H   0  0  0  0  0  0  0  0  0  0  0  0
    4.8376   -7.1657   -3.5667 H   0  0  0  0  0  0  0  0  0  0  0  0
    5.0844   -8.4681   -2.7859 H   0  0  0  0  0  0  0  0  0  0  0  0
    0.9088   -9.9736    1.5283 H   0  0  0  0  0  0  0  0  0  0  0  0
   -0.2378  -11.0692    1.3659 H   0  0  0  0  0  0  0  0  0  0  0  0
    5.0428   -8.0358    1.3387 H   0  0  0  0  0  0  0  0  0  0  0  0
    4.5811   -8.8431   -0.2737 H   0  0  0  0  0  0  0  0  0  0  0  0
    5.5845   -2.1711    1.0892 H   0  0  0  0  0  0  0  0  0  0  0  0
    6.8180   -3.4804    0.5377 H   0  0  0  0  0  0  0  0  0  0  0  0
    5.7161   -2.8209   -0.5608 H   0  0  0  0  0  0  0  0  0  0  0  0
    4.8016   -4.2769    3.0817 H   0  0  0  0  0  0  0  0  0  0  0  0
    4.4487   -5.7619    2.3604 H   0  0  0  0  0  0  0  0  0  0  0  0
    6.0378   -5.4277    2.2342 H   0  0  0  0  0  0  0  0  0  0  0  0
    5.1491   -2.7170   -2.6183 H   0  0  0  0  0  0  0  0  0  0  0  0
    4.1666   -2.4213   -4.1533 H   0  0  0  0  0  0  0  0  0  0  0  0
    3.3960   -2.6182   -3.0564 H   0  0  0  0  0  0  0  0  0  0  0  0
    5.0070   -8.4884   -7.2991 H   0  0  0  0  0  0  0  0  0  0  0  0
    3.4254   -6.8090   -4.5073 H   0  0  0  0  0  0  0  0  0  0  0  0
    2.8916  -10.2370   -6.4194 H   0  0  0  0  0  0  0  0  0  0  0  0
    3.1070   -9.7339   -4.1690 H   0  0  0  0  0  0  0  0  0  0  0  0
    6.6008   -9.3176   -4.1970 H   0  0  0  0  0  0  0  0  0  0  0  0
    4.3562  -13.0802   -8.9270 H   0  0  0  0  0  0  0  0  0  0  0  0
  1 31  1  0  0  0  0
  1 54  1  0  0  0  0
  2  5  1  0  0  0  0
  2  6  1  0  0  0  0
  2  9  1  0  0  0  0
  2 16  2  0  0  0  0
  3  5  1  0  0  0  0
  3  7  1  0  0  0  0
  3 10  1  0  0  0  0
  3 17  2  0  0  0  0
  4  8  1  0  0  0  0
  4 11  1  0  0  0  0
  4 12  1  0  0  0  0
  4 18  2  0  0  0  0
  6 32  1  0  0  0  0
  7 44  1  0  0  0  0
  9 62  1  0  0  0  0
 10 63  1  0  0  0  0
 11 64  1  0  0  0  0
 12 65  1  0  0  0  0
 13 66  1  0  0  0  0
 14 67  1  0  0  0  0
 15 50  1  0  0  0  0
 15 51  1  0  0  0  0
 19 54  2  0  0  0  0
 20 55  2  0  0  0  0
 21 56  2  0  0  0  0
 22 34  1  0  0  0  0
 22 55  1  0  0  0  0
 22 68  1  0  0  0  0
 23 33  1  0  0  0  0
 23 56  1  0  0  0  0
 23 69  1  0  0  0  0
 24 57  1  0  0  0  0
 24 70  1  0  0  0  0
 24 71  1  0  0  0  0
 25 58  1  0  0  0  0
 25 60  1  0  0  0  0
 26 59  1  0  0  0  0
 26 60  2  0  0  0  0
 27 57  1  0  0  0  0
 27 61  2  0  0  0  0
 28 58  2  0  0  0  0
 28 61  1  0  0  0  0
 29 32  1  0  0  0  0
 29 47  1  0  0  0  0
 29 48  1  0  0  0  0
 30 55  1  0  0  0  0
 30 72  1  1  0  0  0
 30 29  1  0  0  0  0
 30 13  1  0  0  0  0
 31 33  1  0  0  0  0
 31 73  1  0  0  0  0
 31 74  1  0  0  0  0
 32 75  1  0  0  0  0
 32 76  1  0  0  0  0
 33 77  1  0  0  0  0
 33 78  1  0  0  0  0
 34 46  1  0  0  0  0
 34 79  1  0  0  0  0
 34 80  1  0  0  0  0
 35 36  1  0  0  0  0
 35 37  1  0  0  0  0
 35 81  1  0  0  0  0
 35 82  1  0  0  0  0
 36 38  1  0  0  0  0
 36 83  1  0  0  0  0
 36 84  1  0  0  0  0
 37 39  1  0  0  0  0
 37 85  1  0  0  0  0
 37 86  1  0  0  0  0
 38 40  1  0  0  0  0
 38 87  1  0  0  0  0
 38 88  1  0  0  0  0
 39 41  1  0  0  0  0
 39 89  1  0  0  0  0
 39 90  1  0  0  0  0
 40 42  1  0  0  0  0
 40 91  1  0  0  0  0
 40 92  1  0  0  0  0
 41 43  1  0  0  0  0
 41 93  1  0  0  0  0
 41 94  1  0  0  0  0
 42 45  1  0  0  0  0
 42 95  1  0  0  0  0
 42 96  1  0  0  0  0
 43 49  1  0  0  0  0
 43 97  1  0  0  0  0
 43 98  1  0  0  0  0
 44 99  1  0  0  0  0
 44100  1  0  0  0  0
 45 54  1  0  0  0  0
 45101  1  0  0  0  0
 45102  1  0  0  0  0
 46 56  1  0  0  0  0
 46103  1  0  0  0  0
 46104  1  0  0  0  0
 47105  1  0  0  0  0
 47106  1  0  0  0  0
 47107  1  0  0  0  0
 48108  1  0  0  0  0
 48109  1  0  0  0  0
 48110  1  0  0  0  0
 49111  1  0  0  0  0
 49112  1  0  0  0  0
 49113  1  0  0  0  0
 50 25  1  0  0  0  0
 50 52  1  0  0  0  0
 50114  1  6  0  0  0
 51 53  1  0  0  0  0
 51115  1  6  0  0  0
 51 44  1  0  0  0  0
 52 14  1  0  0  0  0
 52 53  1  0  0  0  0
 52116  1  6  0  0  0
 53  8  1  0  0  0  0
 53117  1  1  0  0  0
 57 59  2  0  0  0  0
 58 59  1  0  0  0  0
 60118  1  0  0  0  0
 61119  1  0  0  0  0
M  END
>  <DRUGBANK_ID>
DB03264

>  <SECONDARY_ACCESSION_NUMBERS>
EXPT01131

>  <COMMON_NAME>
Dodecyl-Coa

$$$$
