
 OpenBabel10282417103D

 60 63  0  0  1  0  0  0  0  0999 V2000
    2.0311    1.9312   -0.4689 C   0  0  0  0  0  0  0  0  0  0  0  0
    8.4068   -1.7336    1.2591 C   0  0  0  0  0  0  0  0  0  0  0  0
    8.7948   -3.8163   -0.5193 C   0  0  0  0  0  0  0  0  0  0  0  0
    2.3768   -0.7820    3.0872 C   0  0  0  0  0  0  0  0  0  0  0  0
    6.1499   -4.5902   -0.7721 C   0  0  0  0  0  0  0  0  0  0  0  0
   -0.2777   -2.6217    1.0184 C   0  0  0  0  0  0  0  0  0  0  0  0
    2.8212   -3.6986    1.5797 C   0  0  0  0  0  0  0  0  0  0  0  0
    4.2718   -2.7553   -0.3094 C   0  0  0  0  0  0  0  0  0  0  0  0
    0.4619   -2.1603    2.2655 C   0  0  0  0  0  0  0  0  0  0  0  0
    3.9491   -4.5883    0.7201 C   0  0  0  0  0  0  0  0  0  0  0  0
    4.9796   -2.8822    1.5973 C   0  0  0  0  0  0  0  0  0  0  0  0
    3.5165    0.1394   -0.0820 C   0  0  0  0  0  0  0  0  0  0  0  0
   -0.0877   -0.0500    0.6684 C   0  0  0  0  0  0  0  0  0  0  0  0
    2.2745    0.6020    0.1483 C   0  0  0  0  0  0  0  0  0  0  0  0
    7.1558   -1.9398    1.9486 C   0  0  0  0  0  0  0  0  0  0  0  0
    8.5164   -4.4988    0.9895 C   0  0  0  0  0  0  0  0  0  0  0  0
   -0.9187   -1.3294    0.5621 C   0  0  0  0  0  0  0  0  0  0  0  0
    4.0139   -1.0549    0.6046 C   0  0  2  0  0  0  0  0  0  0  0  0
    2.5835   -2.1658    1.0039 C   0  0  1  0  0  0  0  0  0  0  0  0
    5.3198   -1.9062   -0.1217 C   0  0  1  0  0  0  0  0  0  0  0  0
    1.2373   -0.1740    0.8932 C   0  0  0  0  0  0  0  0  0  0  0  0
    1.6722   -1.3163    1.8280 C   0  0  1  0  0  0  0  0  0  0  0  0
    5.6105   -3.6409    0.3071 C   0  0  2  0  0  0  0  0  0  0  0  0
    6.4171   -3.2764    1.5066 C   0  0  2  0  0  0  0  0  0  0  0  0
    6.7593   -1.0673    2.7695 O   0  0  0  0  0  0  0  0  0  0  0  0
    9.4474   -5.0611    1.5690 O   0  0  0  0  0  0  0  0  0  0  0  0
   -2.0246   -1.3157    0.0311 O   0  0  0  0  0  0  0  0  0  0  0  0
    7.2613   -4.4090    1.6657 O   0  0  0  0  0  0  0  0  0  0  0  0
    4.4279   -0.5386    1.4696 H   0  0  0  0  0  0  0  0  0  0  0  0
    2.0711   -2.3496    0.0421 H   0  0  0  0  0  0  0  0  0  0  0  0
    5.8565   -1.5021   -0.9719 H   0  0  0  0  0  0  0  0  0  0  0  0
    2.9900    2.4104   -0.7265 H   0  0  0  0  0  0  0  0  0  0  0  0
    1.5363    2.5926    0.2389 H   0  0  0  0  0  0  0  0  0  0  0  0
    1.4710    1.8103   -1.3961 H   0  0  0  0  0  0  0  0  0  0  0  0
    8.5145   -1.0101    0.4625 H   0  0  0  0  0  0  0  0  0  0  0  0
    9.2813   -2.2417    1.6745 H   0  0  0  0  0  0  0  0  0  0  0  0
    8.0258   -2.4210    0.5716 H   0  0  0  0  0  0  0  0  0  0  0  0
    9.6558   -3.1258   -0.4743 H   0  0  0  0  0  0  0  0  0  0  0  0
    8.9475   -4.5223   -1.3322 H   0  0  0  0  0  0  0  0  0  0  0  0
    8.0050   -3.1548   -0.9297 H   0  0  0  0  0  0  0  0  0  0  0  0
    2.7715   -1.5930    3.7084 H   0  0  0  0  0  0  0  0  0  0  0  0
    3.2179   -0.1214    2.8721 H   0  0  0  0  0  0  0  0  0  0  0  0
    1.6921   -0.1942    3.6961 H   0  0  0  0  0  0  0  0  0  0  0  0
    5.4349   -5.3783   -1.0145 H   0  0  0  0  0  0  0  0  0  0  0  0
    6.3684   -4.0307   -1.6800 H   0  0  0  0  0  0  0  0  0  0  0  0
    6.9822   -5.1754   -0.4317 H   0  0  0  0  0  0  0  0  0  0  0  0
   -0.9606   -3.4357    1.2718 H   0  0  0  0  0  0  0  0  0  0  0  0
    0.3108   -3.0229    0.1802 H   0  0  0  0  0  0  0  0  0  0  0  0
    2.4100   -4.4528    2.2790 H   0  0  0  0  0  0  0  0  0  0  0  0
    3.0330   -3.2429    2.5493 H   0  0  0  0  0  0  0  0  0  0  0  0
    4.4264   -3.4394   -1.1813 H   0  0  0  0  0  0  0  0  0  0  0  0
    3.5566   -2.1418   -0.9165 H   0  0  0  0  0  0  0  0  0  0  0  0
    0.6980   -2.9917    2.9359 H   0  0  0  0  0  0  0  0  0  0  0  0
   -0.1856   -1.5018    2.8602 H   0  0  0  0  0  0  0  0  0  0  0  0
    4.1638   -5.5798    1.1180 H   0  0  0  0  0  0  0  0  0  0  0  0
    3.3943   -4.7832   -0.2221 H   0  0  0  0  0  0  0  0  0  0  0  0
    4.6516   -3.5484    2.4146 H   0  0  0  0  0  0  0  0  0  0  0  0
    4.8319   -1.9838    2.2178 H   0  0  0  0  0  0  0  0  0  0  0  0
    4.2747    0.6826   -0.6422 H   0  0  0  0  0  0  0  0  0  0  0  0
   -0.5643    0.8734    0.3869 H   0  0  0  0  0  0  0  0  0  0  0  0
  1 32  1  0  0  0  0
  1 33  1  0  0  0  0
  1 34  1  0  0  0  0
  2 35  1  0  0  0  0
  2 36  1  0  0  0  0
  2 37  1  0  0  0  0
  3 38  1  0  0  0  0
  3 39  1  0  0  0  0
  3 40  1  0  0  0  0
  4 41  1  0  0  0  0
  4 42  1  0  0  0  0
  4 43  1  0  0  0  0
  5 44  1  0  0  0  0
  5 45  1  0  0  0  0
  5 46  1  0  0  0  0
  6 47  1  0  0  0  0
  6 48  1  0  0  0  0
  7 49  1  0  0  0  0
  7 50  1  0  0  0  0
  8 51  1  0  0  0  0
  8 52  1  0  0  0  0
  9  6  1  0  0  0  0
  9 53  1  0  0  0  0
  9 54  1  0  0  0  0
 10  7  1  0  0  0  0
 10 55  1  0  0  0  0
 10 56  1  0  0  0  0
 11  8  1  0  0  0  0
 11 57  1  0  0  0  0
 11 58  1  0  0  0  0
 12 59  1  0  0  0  0
 13 60  1  0  0  0  0
 14 12  2  0  0  0  0
 14  1  1  0  0  0  0
 15  2  1  0  0  0  0
 16  3  1  0  0  0  0
 17  6  1  0  0  0  0
 17 13  1  0  0  0  0
 18 12  1  0  0  0  0
 18 29  1  6  0  0  0
 19  7  1  0  0  0  0
 19 18  1  0  0  0  0
 19 30  1  1  0  0  0
 20  8  1  0  0  0  0
 20 18  1  0  0  0  0
 20 31  1  6  0  0  0
 21 13  2  0  0  0  0
 21 14  1  0  0  0  0
 22  9  1  0  0  0  0
 22 19  1  0  0  0  0
 22 21  1  0  0  0  0
 22  4  1  6  0  0  0
 23 10  1  0  0  0  0
 23 20  1  0  0  0  0
 23  5  1  6  0  0  0
 24 11  1  0  0  0  0
 24 23  1  0  0  0  0
 24 28  1  1  0  0  0
 24 15  1  0  0  0  0
 25 15  2  0  0  0  0
 26 16  2  0  0  0  0
 27 17  2  0  0  0  0
 28 16  1  0  0  0  0
M  END
>  <DRUGBANK_ID>
DB00351

>  <SECONDARY_ACCESSION_NUMBERS>
APRD01092

>  <COMMON_NAME>
Megestrol acetate

>  <CAS_NUMBER>
595-33-5

>  <UNII>
TJ2M0FR8ES

>  <SYNONYMS>
17-Acetoxy-6-methylpregna-4,6-diene-3,20-dione; 17-Hydroxy-6-methylpregna-4,6-diene-3,20-dione 17-acetate; 17alpha-Acetoxy-6-dehydro-6-methylprogesterone; 17alpha-Hydroxy-6-methylpregna-4,6-diene-3,20-dione acetate; 17α-Acetoxy-6-dehydro-6-methylprogesterone; 17α-Hydroxy-6-methylpregna-4,6-diene-3,20-dione acetate; 6-Dehydro-6-methyl-17alpha-acetoxyprogesterone; 6-Dehydro-6-methyl-17α-acetoxyprogesterone; 6-Methyl-17alpha-acetoxypregna-4,6-diene-3,20-dione; 6-Methyl-17alpha-hydroxy-delta(sup 6)-progesterone acetate; 6-Methyl-17α-acetoxypregna-4,6-diene-3,20-dione; 6-Methyl-17α-hydroxy-delta(sup 6)-progesterone acetate; 6-Methyl-6-dehydro-17alpha-acetoxyprogesterone; 6-Methyl-6-dehydro-17α-acetoxyprogesterone; 6-Methyl-delta(sup 4,6)-pregnadien-17alpha-ol-3,20-dione acetate; 6-Methyl-delta(sup 4,6)-pregnadien-17α-ol-3,20-dione acetate; 6-Methyl-delta(sup 6)-dehydro-17alpha-acetoxyprogesterone; 6-Methyl-delta(sup 6)-dehydro-17α-acetoxyprogesterone; Megestrol acetate; MGA

$$$$
