
 OpenBabel10282417133D

 39 40  0  0  0  0  0  0  0  0999 V2000
    1.0074    0.0952   -0.0297 P   0  0  1  0  0  0  0  0  0  0  0  0
    3.3807    0.4480    1.6109 P   0  0  0  0  0  0  0  0  0  0  0  0
   -1.3469   -1.2920   -1.2873 O   0  0  0  0  0  0  0  0  0  0  0  0
   -1.2433   -3.0248   -3.4574 O   0  0  0  0  0  0  0  0  0  0  0  0
    1.0951   -1.4552    0.5869 O   0  0  0  0  0  0  0  0  0  0  0  0
    1.6879    1.7032   -2.2730 O   0  0  0  0  0  0  0  0  0  0  0  0
    1.3967   -0.4374   -1.5274 O   0  0  0  0  0  0  0  0  0  0  0  0
   -0.5409    0.0952   -0.0297 O   0  0  0  0  0  0  0  0  0  0  0  0
   -0.1403    4.9504    0.0718 O   0  0  0  0  0  0  0  0  0  0  0  0
    3.2521    2.0021    1.1094 O   0  0  0  0  0  0  0  0  0  0  0  0
    1.8793    0.2440    2.2157 O   0  0  0  0  0  0  0  0  0  0  0  0
    3.8969    0.7549    3.0381 O   0  0  0  0  0  0  0  0  0  0  0  0
   -0.6714    1.4340   -1.9555 N   0  0  0  0  0  0  0  0  0  0  0  0
    0.6867    3.0005   -0.7658 N   0  0  0  0  0  0  0  0  0  0  0  0
    2.7874    0.0952   -0.0297 N   0  0  0  0  0  0  0  0  0  0  0  0
   -0.1212   -2.3435   -2.8642 C   0  0  2  0  0  0  0  0  0  0  0  0
   -0.3760   -2.3807   -1.3597 C   0  0  1  0  0  0  0  0  0  0  0  0
   -0.2338   -0.8853   -3.3655 C   0  0  0  0  0  0  0  0  0  0  0  0
   -1.0947   -0.1792   -2.3459 C   0  0  1  0  0  0  0  0  0  0  0  0
    0.8884   -2.4887   -0.3857 C   0  0  0  0  0  0  0  0  0  0  0  0
    0.6144    2.0483   -1.7780 C   0  0  0  0  0  0  0  0  0  0  0  0
   -1.7484    2.2678   -1.6465 C   0  0  0  0  0  0  0  0  0  0  0  0
   -1.6154    3.4542   -1.0289 C   0  0  0  0  0  0  0  0  0  0  0  0
   -0.3126    3.8646   -0.5028 C   0  0  0  0  0  0  0  0  0  0  0  0
    1.6082    3.2970   -0.4526 H   0  0  0  0  0  0  0  0  0  0  0  0
    3.0574   -0.8481   -0.2632 H   0  0  0  0  0  0  0  0  0  0  0  0
   -2.0309   -2.6400   -3.0164 H   0  0  0  0  0  0  0  0  0  0  0  0
    2.0271    0.2097   -1.9269 H   0  0  0  0  0  0  0  0  0  0  0  0
    4.1348    2.4160    1.1381 H   0  0  0  0  0  0  0  0  0  0  0  0
    1.5842   -0.6979    2.1932 H   0  0  0  0  0  0  0  0  0  0  0  0
    0.8001   -2.8478   -3.1627 H   0  0  0  0  0  0  0  0  0  0  0  0
   -0.9202   -3.3022   -1.0927 H   0  0  0  0  0  0  0  0  0  0  0  0
    0.7429   -0.4280   -3.5091 H   0  0  0  0  0  0  0  0  0  0  0  0
   -0.7329   -0.7868   -4.3268 H   0  0  0  0  0  0  0  0  0  0  0  0
   -2.1282   -0.0622   -2.6708 H   0  0  0  0  0  0  0  0  0  0  0  0
    1.8246   -2.5939   -0.9561 H   0  0  0  0  0  0  0  0  0  0  0  0
    0.8730   -3.4282    0.1874 H   0  0  0  0  0  0  0  0  0  0  0  0
   -2.7159    1.9248   -1.9767 H   0  0  0  0  0  0  0  0  0  0  0  0
   -2.4360    4.1314   -0.8470 H   0  0  0  0  0  0  0  0  0  0  0  0
  1  8  2  1  0  0  0
  1 15  1  0  0  0  0
  1  7  1  0  0  0  0
  1  5  1  0  0  0  0
  2 10  1  0  0  0  0
  2 11  1  0  0  0  0
  2 12  2  0  0  0  0
  2 15  1  0  0  0  0
  3 17  1  0  0  0  0
  3 19  1  0  0  0  0
  4 27  1  0  0  0  0
  5 20  1  0  0  0  0
  6 21  2  0  0  0  0
  7 28  1  0  0  0  0
  9 24  2  0  0  0  0
 10 29  1  0  0  0  0
 11 30  1  0  0  0  0
 13 21  1  0  0  0  0
 13 22  1  0  0  0  0
 14 21  1  0  0  0  0
 14 24  1  0  0  0  0
 14 25  1  0  0  0  0
 15 26  1  0  0  0  0
 16  4  1  0  0  0  0
 16 17  1  0  0  0  0
 16 18  1  0  0  0  0
 16 31  1  6  0  0  0
 17 20  1  0  0  0  0
 17 32  1  1  0  0  0
 18 19  1  0  0  0  0
 18 33  1  0  0  0  0
 18 34  1  0  0  0  0
 19 35  1  6  0  0  0
 19 13  1  0  0  0  0
 20 36  1  0  0  0  0
 20 37  1  0  0  0  0
 22 23  2  0  0  0  0
 22 38  1  0  0  0  0
 23 24  1  0  0  0  0
 23 39  1  0  0  0  0
M  END
>  <DRUGBANK_ID>
DB03641

>  <SECONDARY_ACCESSION_NUMBERS>
EXPT01298

>  <COMMON_NAME>
2'-deoxyuridine 5'-alpha,beta-imido-diphosphate

>  <SYNONYMS>
2'-Deoxy-5'-O-[(R)-hydroxy(phosphonoamino)phosphoryl]uridine

$$$$
