
 OpenBabel10282417173D

 37 38  0  0  0  0  0  0  0  0999 V2000
    1.0666   -0.0545   -0.0509 O   0  0  0  0  0  0  0  0  0  0  0  0
    1.0666   -2.4387    0.5109 O   0  0  0  0  0  0  0  0  0  0  0  0
    1.0666   -0.7600    2.2947 O   0  0  0  0  0  0  0  0  0  0  0  0
   -2.7921    2.1682    0.7452 O   0  0  0  0  0  0  0  0  0  0  0  0
   -1.5234    0.2428    1.3174 N   0  0  0  0  0  0  0  0  0  0  0  0
   -1.0334   -1.0844    0.9182 C   0  0  1  0  0  0  0  0  0  0  0  0
   -1.5401   -1.4131   -0.4766 C   0  0  0  0  0  0  0  0  0  0  0  0
   -1.0334   -2.7854   -0.8894 C   0  0  0  0  0  0  0  0  0  0  0  0
    0.1125   -2.9588   -1.7030 C   0  0  0  0  0  0  0  0  0  0  0  0
    0.4966   -4.2913   -2.0641 C   0  0  0  0  0  0  0  0  0  0  0  0
   -1.7820   -3.8579   -0.4741 C   0  0  0  0  0  0  0  0  0  0  0  0
    0.9040   -1.8821   -2.2012 C   0  0  0  0  0  0  0  0  0  0  0  0
   -0.2675   -5.3754   -1.5612 C   0  0  0  0  0  0  0  0  0  0  0  0
   -1.3962   -5.1733   -0.8170 C   0  0  0  0  0  0  0  0  0  0  0  0
    1.6044   -4.4798   -2.8983 C   0  0  0  0  0  0  0  0  0  0  0  0
   -2.3685    1.0208    0.4001 C   0  0  0  0  0  0  0  0  0  0  0  0
    1.9705   -2.1166   -3.0077 C   0  0  0  0  0  0  0  0  0  0  0  0
    2.3587   -3.4172   -3.3673 C   0  0  0  0  0  0  0  0  0  0  0  0
   -2.7357    0.4529   -0.9611 C   0  0  0  0  0  0  0  0  0  0  0  0
    0.5666   -1.0844    0.9182 B   0  5  0  0  0  0  0  0  0  0  0  0
   -1.2770    0.6239    2.2309 H   0  0  0  0  0  0  0  0  0  0  0  0
    2.0666   -0.0545   -0.0509 H   0  0  0  0  0  0  0  0  0  0  0  0
    0.7333   -2.6549   -0.4068 H   0  0  0  0  0  0  0  0  0  0  0  0
    2.0666   -0.7600    2.2947 H   0  0  0  0  0  0  0  0  0  0  0  0
   -1.3900   -1.8191    1.6096 H   0  0  0  0  0  0  0  0  0  0  0  0
   -2.6101   -1.4131   -0.4766 H   0  0  0  0  0  0  0  0  0  0  0  0
   -1.1834   -0.6784   -1.1680 H   0  0  0  0  0  0  0  0  0  0  0  0
   -2.6624   -3.6972    0.1124 H   0  0  0  0  0  0  0  0  0  0  0  0
    0.6538   -0.8762   -1.9359 H   0  0  0  0  0  0  0  0  0  0  0  0
    0.0475   -6.3765   -1.7696 H   0  0  0  0  0  0  0  0  0  0  0  0
   -1.9848   -6.0071   -0.4956 H   0  0  0  0  0  0  0  0  0  0  0  0
    1.8769   -5.4748   -3.1822 H   0  0  0  0  0  0  0  0  0  0  0  0
    2.5321   -1.2856   -3.3804 H   0  0  0  0  0  0  0  0  0  0  0  0
    3.2148   -3.5830   -3.9875 H   0  0  0  0  0  0  0  0  0  0  0  0
   -1.8441    0.2699   -1.5236 H   0  0  0  0  0  0  0  0  0  0  0  0
   -3.2707   -0.4648   -0.8323 H   0  0  0  0  0  0  0  0  0  0  0  0
   -3.3509    1.1537   -1.4858 H   0  0  0  0  0  0  0  0  0  0  0  0
  1 20  1  0  0  0  0
  1 22  1  0  0  0  0
  2 20  1  0  0  0  0
  2 23  1  0  0  0  0
  3 20  1  0  0  0  0
  3 24  1  0  0  0  0
  4 16  2  0  0  0  0
  5 16  1  0  0  0  0
  5 21  1  0  0  0  0
  6  5  1  0  0  0  0
  6  7  1  0  0  0  0
  6 20  1  0  0  0  0
  6 25  1  1  0  0  0
  7  8  1  0  0  0  0
  7 26  1  0  0  0  0
  7 27  1  0  0  0  0
  8  9  1  0  0  0  0
  8 11  2  0  0  0  0
  9 10  1  0  0  0  0
  9 12  2  0  0  0  0
 10 13  1  0  0  0  0
 10 15  2  0  0  0  0
 11 14  1  0  0  0  0
 11 28  1  0  0  0  0
 12 17  1  0  0  0  0
 12 29  1  0  0  0  0
 13 14  2  0  0  0  0
 13 30  1  0  0  0  0
 14 31  1  0  0  0  0
 15 18  1  0  0  0  0
 15 32  1  0  0  0  0
 16 19  1  0  0  0  0
 17 18  2  0  0  0  0
 17 33  1  0  0  0  0
 18 34  1  0  0  0  0
 19 35  1  0  0  0  0
 19 36  1  0  0  0  0
 19 37  1  0  0  0  0
M  CHG  1  20  -1
M  END
>  <DRUGBANK_ID>
DB08565

>  <COMMON_NAME>
L-1-naphthyl-2-acetamido-ethane boronic acid

$$$$
