
 OpenBabel10282417133D

 28 29  0  0  0  0  0  0  0  0999 V2000
    0.8551    0.0463    0.0035 O   0  0  0  0  0  0  0  0  0  0  0  0
    0.4008    1.0119   -0.8012 C   0  0  0  0  0  0  0  0  0  0  0  0
    1.1858    1.7186   -1.4010 O   0  0  0  0  0  0  0  0  0  0  0  0
   -1.1734    1.0493   -0.9344 C   0  0  0  0  0  0  0  0  0  0  0  0
   -1.8781    0.3434   -0.2201 O   0  0  0  0  0  0  0  0  0  0  0  0
   -1.7636    1.8371   -1.9312 N   0  0  0  0  0  0  0  0  0  0  0  0
   -1.0753    2.3573   -3.0116 C   0  0  0  0  0  0  0  0  0  0  0  0
   -0.1278    1.7569   -3.8157 C   0  0  0  0  0  0  0  0  0  0  0  0
    0.2817    0.3444   -3.8315 C   0  0  0  0  0  0  0  0  0  0  0  0
   -0.4788   -0.5405   -3.1457 O   0  0  0  0  0  0  0  0  0  0  0  0
    1.2778   -0.0616   -4.4278 O   0  0  0  0  0  0  0  0  0  0  0  0
    0.5351    2.7683   -4.5869 C   0  0  0  0  0  0  0  0  0  0  0  0
   -0.0195    4.0299   -4.5095 C   0  0  0  0  0  0  0  0  0  0  0  0
    0.5540    5.2304   -5.2563 C   0  0  0  0  0  0  0  0  0  0  0  0
    1.5348    4.8149   -6.3037 N   0  0  0  0  0  0  0  0  0  0  0  0
    2.4690    3.8014   -5.7822 C   0  0  0  0  0  0  0  0  0  0  0  0
    1.7412    2.5129   -5.4199 C   0  0  0  0  0  0  0  0  0  0  0  0
   -1.3604    4.0055   -3.4338 S   0  0  0  0  0  0  0  0  0  0  0  0
    1.8289    0.0901   -0.1157 H   0  0  0  0  0  0  0  0  0  0  0  0
   -2.7749    1.9335   -1.8996 H   0  0  0  0  0  0  0  0  0  0  0  0
   -1.3338   -0.2027   -2.8283 H   0  0  0  0  0  0  0  0  0  0  0  0
    1.0812    5.9102   -4.5750 H   0  0  0  0  0  0  0  0  0  0  0  0
   -0.2249    5.8131   -5.7603 H   0  0  0  0  0  0  0  0  0  0  0  0
    1.0183    4.3924   -7.0757 H   0  0  0  0  0  0  0  0  0  0  0  0
    3.2268    3.5466   -6.5319 H   0  0  0  0  0  0  0  0  0  0  0  0
    3.0082    4.1965   -4.9115 H   0  0  0  0  0  0  0  0  0  0  0  0
    1.4065    1.9878   -6.3209 H   0  0  0  0  0  0  0  0  0  0  0  0
    2.4432    1.8850   -4.8668 H   0  0  0  0  0  0  0  0  0  0  0  0
  1  2  1  0  0  0  0
  1 19  1  0  0  0  0
  2  3  2  0  0  0  0
  2  4  1  0  0  0  0
  4  5  2  0  0  0  0
  4  6  1  0  0  0  0
  6  7  1  0  0  0  0
  6 20  1  0  0  0  0
  7  8  2  0  0  0  0
  7 18  1  0  0  0  0
  8  9  1  0  0  0  0
  8 12  1  0  0  0  0
  9 10  1  0  0  0  0
  9 11  2  0  0  0  0
 10 21  1  0  0  0  0
 12 13  2  0  0  0  0
 12 17  1  0  0  0  0
 13 14  1  0  0  0  0
 13 18  1  0  0  0  0
 14 15  1  0  0  0  0
 14 22  1  0  0  0  0
 14 23  1  0  0  0  0
 15 16  1  0  0  0  0
 15 24  1  0  0  0  0
 16 17  1  0  0  0  0
 16 25  1  0  0  0  0
 16 26  1  0  0  0  0
 17 27  1  0  0  0  0
 17 28  1  0  0  0  0
M  END
>  <DRUGBANK_ID>
DB03670

>  <SECONDARY_ACCESSION_NUMBERS>
EXPT02452

>  <COMMON_NAME>
2-(Oxalyl-Amino)-4,5,6,7-Tetrahydro-Thieno[2,3-C]Pyridine-3-Carboxylic Acid

$$$$
