
 OpenBabel10282417143D

 52 53  0  0  0  0  0  0  0  0999 V2000
    0.9990   -0.1739   -0.0461 O   0  0  0  0  0  0  0  0  0  0  0  0
   -1.2788    0.6118    1.6520 O   0  0  0  0  0  0  0  0  0  0  0  0
    0.2001    5.1344   -2.6487 O   0  0  0  0  0  0  0  0  0  0  0  0
    2.5653   -0.9908   -7.4475 O   0  0  0  0  0  0  0  0  0  0  0  0
    1.8529    3.7154   -3.1886 N   0  0  0  0  0  0  0  0  0  0  0  0
    4.8775    1.2347   -7.6062 N   0  0  0  0  0  0  0  0  0  0  0  0
    0.1413    3.1008   -1.4312 C   0  0  0  0  0  0  0  0  0  0  0  0
    0.3352    1.0198   -0.1491 C   0  0  0  0  0  0  0  0  0  0  0  0
   -0.7148    1.3943    0.6758 C   0  0  0  0  0  0  0  0  0  0  0  0
    0.6099    1.8058   -1.2516 C   0  0  0  0  0  0  0  0  0  0  0  0
    0.7227    4.0190   -2.4632 C   0  0  0  0  0  0  0  0  0  0  0  0
   -0.8946    3.5015   -0.5884 C   0  0  0  0  0  0  0  0  0  0  0  0
   -1.3197    2.6504    0.4564 C   0  0  0  0  0  0  0  0  0  0  0  0
    2.5895    1.5188   -4.1513 C   0  0  0  0  0  0  0  0  0  0  0  0
    2.7661    2.5936   -3.0990 C   0  0  0  0  0  0  0  0  0  0  0  0
    2.5498   -0.5145   -6.1406 C   0  0  0  0  0  0  0  0  0  0  0  0
    3.7332    0.7724   -4.4658 C   0  0  0  0  0  0  0  0  0  0  0  0
    1.3839    1.1668   -4.7889 C   0  0  0  0  0  0  0  0  0  0  0  0
    3.7121   -0.2650   -5.4096 C   0  0  0  0  0  0  0  0  0  0  0  0
    1.3550    0.1317   -5.7552 C   0  0  0  0  0  0  0  0  0  0  0  0
    2.4263   -0.0695   -0.0074 C   0  0  0  0  0  0  0  0  0  0  0  0
   -0.7794   -0.7260    1.7401 C   0  0  0  0  0  0  0  0  0  0  0  0
    3.8278   -1.0703   -8.1681 C   0  0  0  0  0  0  0  0  0  0  0  0
    4.5850    0.2427   -8.6509 C   0  0  0  0  0  0  0  0  0  0  0  0
    5.8796    2.2463   -7.8915 C   0  0  0  0  0  0  0  0  0  0  0  0
    3.6671    1.9910   -7.2970 C   0  0  0  0  0  0  0  0  0  0  0  0
    2.1434    4.4667   -3.8040 H   0  0  0  0  0  0  0  0  0  0  0  0
    1.1297    1.2786   -2.0265 H   0  0  0  0  0  0  0  0  0  0  0  0
   -1.4113    4.4449   -0.7677 H   0  0  0  0  0  0  0  0  0  0  0  0
   -2.1363    2.9735    1.0993 H   0  0  0  0  0  0  0  0  0  0  0  0
    3.7861    2.9925   -3.0757 H   0  0  0  0  0  0  0  0  0  0  0  0
    2.7195    2.1206   -2.1273 H   0  0  0  0  0  0  0  0  0  0  0  0
    4.7036    1.1399   -4.1310 H   0  0  0  0  0  0  0  0  0  0  0  0
    0.4762    1.7487   -4.6223 H   0  0  0  0  0  0  0  0  0  0  0  0
    4.6794   -0.6201   -5.7511 H   0  0  0  0  0  0  0  0  0  0  0  0
    0.4465   -0.0229   -6.3381 H   0  0  0  0  0  0  0  0  0  0  0  0
    2.8186   -1.0697    0.2022 H   0  0  0  0  0  0  0  0  0  0  0  0
    2.8450    0.2355   -0.9701 H   0  0  0  0  0  0  0  0  0  0  0  0
    2.7662    0.6011    0.7902 H   0  0  0  0  0  0  0  0  0  0  0  0
   -0.8847   -1.2694    0.7902 H   0  0  0  0  0  0  0  0  0  0  0  0
    0.2591   -0.7182    2.0910 H   0  0  0  0  0  0  0  0  0  0  0  0
   -1.3594   -1.2779    2.4811 H   0  0  0  0  0  0  0  0  0  0  0  0
    4.5041   -1.7384   -7.6257 H   0  0  0  0  0  0  0  0  0  0  0  0
    3.5825   -1.6075   -9.0970 H   0  0  0  0  0  0  0  0  0  0  0  0
    5.5302   -0.1037   -9.0993 H   0  0  0  0  0  0  0  0  0  0  0  0
    4.0273    0.7244   -9.4634 H   0  0  0  0  0  0  0  0  0  0  0  0
    5.4893    2.9894   -8.5942 H   0  0  0  0  0  0  0  0  0  0  0  0
    6.1009    2.7674   -6.9476 H   0  0  0  0  0  0  0  0  0  0  0  0
    6.8241    1.8473   -8.2616 H   0  0  0  0  0  0  0  0  0  0  0  0
    3.3212    2.6788   -8.0622 H   0  0  0  0  0  0  0  0  0  0  0  0
    2.8258    1.3382   -7.2273 H   0  0  0  0  0  0  0  0  0  0  0  0
    3.8050    2.5182   -6.3508 H   0  0  0  0  0  0  0  0  0  0  0  0
  1  8  1  0  0  0  0
  1 21  1  0  0  0  0
  2  9  1  0  0  0  0
  2 22  1  0  0  0  0
  3 11  2  0  0  0  0
  4 16  1  0  0  0  0
  4 23  1  0  0  0  0
  5 11  1  0  0  0  0
  5 15  1  0  0  0  0
  5 27  1  0  0  0  0
  6 24  1  0  0  0  0
  6 25  1  0  0  0  0
  6 26  1  0  0  0  0
  7 10  1  0  0  0  0
  7 11  1  0  0  0  0
  7 12  2  0  0  0  0
  8  9  1  0  0  0  0
  8 10  2  0  0  0  0
  9 13  2  0  0  0  0
 10 28  1  0  0  0  0
 12 13  1  0  0  0  0
 12 29  1  0  0  0  0
 13 30  1  0  0  0  0
 14 15  1  0  0  0  0
 14 17  2  0  0  0  0
 14 18  1  0  0  0  0
 15 31  1  0  0  0  0
 15 32  1  0  0  0  0
 16 19  2  0  0  0  0
 16 20  1  0  0  0  0
 17 19  1  0  0  0  0
 17 33  1  0  0  0  0
 18 20  2  0  0  0  0
 18 34  1  0  0  0  0
 19 35  1  0  0  0  0
 20 36  1  0  0  0  0
 21 37  1  0  0  0  0
 21 38  1  0  0  0  0
 21 39  1  0  0  0  0
 22 40  1  0  0  0  0
 22 41  1  0  0  0  0
 22 42  1  0  0  0  0
 23 24  1  0  0  0  0
 23 43  1  0  0  0  0
 23 44  1  0  0  0  0
 24 45  1  0  0  0  0
 24 46  1  0  0  0  0
 25 47  1  0  0  0  0
 25 48  1  0  0  0  0
 25 49  1  0  0  0  0
 26 50  1  0  0  0  0
 26 51  1  0  0  0  0
 26 52  1  0  0  0  0
M  END
>  <DRUGBANK_ID>
DB04924

>  <COMMON_NAME>
Itopride

>  <CAS_NUMBER>
122898-67-3

>  <UNII>
81BMQ80QRL

>  <SYNONYMS>
Itopride; N-(p-(2-(Dimethylamino)ethoxy)benzyl)veratramide

$$$$
