
 OpenBabel10282417223D

158166  0  0  1  0  0  0  0  0999 V2000
    0.5771    0.5118    0.0382 C   0  0  0  0  0  0  0  0  0  0  0  0
    1.7884    1.1299    0.0161 N   0  0  0  0  0  0  0  0  0  0  0  0
    2.8545    0.2905   -0.0196 C   0  0  0  0  0  0  0  0  0  0  0  0
    2.6781   -1.0922   -0.0066 C   0  0  0  0  0  0  0  0  0  0  0  0
    1.4618   -1.6935    0.0071 N   0  0  0  0  0  0  0  0  0  0  0  0
    0.3968   -0.8633    0.0120 C   0  0  0  0  0  0  0  0  0  0  0  0
   -0.8580   -1.4870    0.0166 N   0  0  0  0  0  0  0  0  0  0  0  0
   -1.9072   -0.7347    0.0434 C   0  0  0  0  0  0  0  0  0  0  0  0
   -1.8287    0.6253    0.0867 N   0  0  0  0  0  0  0  0  0  0  0  0
   -0.6407    1.3217    0.1553 C   0  0  0  0  0  0  0  0  0  0  0  0
   -0.6152    2.5360    0.3211 O   0  0  0  0  0  0  0  0  0  0  0  0
   -3.1418   -1.2757    0.0495 N   0  0  0  0  0  0  0  0  0  0  0  0
    4.2464    0.8819   -0.0341 C   0  0  0  0  0  0  0  0  0  0  0  0
    4.4440    1.7193   -1.2013 N   0  0  0  0  0  0  0  0  0  0  0  0
    4.8422    3.0313   -1.1083 C   0  0  0  0  0  0  0  0  0  0  0  0
    5.7890    3.4916   -0.2010 C   0  0  0  0  0  0  0  0  0  0  0  0
    6.1752    4.8457   -0.1474 C   0  0  0  0  0  0  0  0  0  0  0  0
    5.6034    5.7910   -0.9895 C   0  0  0  0  0  0  0  0  0  0  0  0
    4.7140    5.3101   -1.9247 C   0  0  0  0  0  0  0  0  0  0  0  0
    4.2706    3.9748   -1.9347 C   0  0  0  0  0  0  0  0  0  0  0  0
    5.9359    7.2502   -0.8577 C   0  0  0  0  0  0  0  0  0  0  0  0
    5.2468    8.1735   -1.6297 N   0  0  0  0  0  0  0  0  0  0  0  0
    5.5228    9.6273   -1.5813 C   0  0  1  0  0  0  0  0  0  0  0  0
    6.1352   10.1819   -2.9000 C   0  0  0  0  0  0  0  0  0  0  0  0
    5.2074   10.0218   -4.0765 C   0  0  0  0  0  0  0  0  0  0  0  0
    4.9467    8.7213   -4.5013 C   0  0  0  0  0  0  0  0  0  0  0  0
    3.8812    8.4768   -5.3176 C   0  0  0  0  0  0  0  0  0  0  0  0
    3.0976    9.5298   -5.7685 C   0  0  0  0  0  0  0  0  0  0  0  0
    3.3664   10.8495   -5.3994 C   0  0  0  0  0  0  0  0  0  0  0  0
    4.4704   11.1016   -4.5911 C   0  0  0  0  0  0  0  0  0  0  0  0
    2.0930    9.2990   -6.6740 O   0  0  0  0  0  0  0  0  0  0  0  0
    2.0047    8.0094   -7.2036 C   0  0  0  0  0  0  0  0  0  0  0  0
    1.0563    7.1614   -6.4983 C   0  0  0  0  0  0  0  0  0  0  0  0
    0.9021    5.8448   -7.1979 C   0  0  0  0  0  0  0  0  0  0  0  0
    0.6503    5.8749   -8.6517 C   0  0  0  0  0  0  0  0  0  0  0  0
    1.9285    6.4324   -9.2576 C   0  0  0  0  0  0  0  0  0  0  0  0
    2.6066    7.6152   -8.3654 C   0  0  0  0  0  0  0  0  0  0  0  0
    3.5695    8.4458   -9.1302 C   0  0  0  0  0  0  0  0  0  0  0  0
    3.8222    9.7627   -8.9543 C   0  0  0  0  0  0  0  0  0  0  0  0
    3.2022   10.4741  -10.1091 C   0  0  0  0  0  0  0  0  0  0  0  0
    1.6184   10.2120  -10.3955 C   0  0  0  0  0  0  0  0  0  0  0  0
    1.9574    9.6867  -11.8191 C   0  0  0  0  0  0  0  0  0  0  0  0
    3.2427   10.1072  -12.1761 C   0  0  0  0  0  0  0  0  0  0  0  0
    3.8114   10.8916  -11.1911 N   0  3  0  0  0  0  0  0  0  0  0  0
    4.2867   12.1966  -11.8191 C   0  0  0  0  0  0  0  0  0  0  0  0
    3.3550   13.3977  -11.6593 C   0  0  0  0  0  0  0  0  0  0  0  0
    3.4122   14.0182  -10.2690 C   0  0  0  0  0  0  0  0  0  0  0  0
    4.8151   14.3639   -9.8011 C   0  0  0  0  0  0  0  0  0  0  0  0
    5.5781   15.7255  -10.6741 S   0  0  0  0  0  0  0  0  0  0  0  0
    4.6280   16.8308  -10.7346 O   0  0  0  0  0  0  0  0  0  0  0  0
    6.9242   15.8780  -10.2287 O   0  0  0  0  0  0  0  0  0  0  0  0
    5.6537   15.1063  -12.1659 O   0  0  0  0  0  0  0  0  0  0  0  0
    4.1180    9.5048  -13.0732 C   0  0  0  0  0  0  0  0  0  0  0  0
    3.6841    8.3696  -13.6989 C   0  0  0  0  0  0  0  0  0  0  0  0
    2.4411    7.8330  -13.3450 C   0  0  0  0  0  0  0  0  0  0  0  0
    1.5515    8.4889  -12.4440 C   0  0  0  0  0  0  0  0  0  0  0  0
    2.0755    6.1551  -13.9764 S   0  0  0  0  0  0  0  0  0  0  0  0
    2.0405    5.3823  -12.7388 O   0  5  0  0  0  0  0  0  0  0  0  0
    0.8032    6.3893  -14.6414 O   0  0  0  0  0  0  0  0  0  0  0  0
    3.2188    5.8919  -14.8454 O   0  0  0  0  0  0  0  0  0  0  0  0
    0.7088    9.1802   -9.7433 C   0  0  0  0  0  0  0  0  0  0  0  0
    1.3029   11.4704   -9.5553 C   0  0  0  0  0  0  0  0  0  0  0  0
    0.5407    7.4773   -5.2823 C   0  0  0  0  0  0  0  0  0  0  0  0
   -0.3534    6.6571   -4.4379 C   0  0  0  0  0  0  0  0  0  0  0  0
    0.1056    5.9550   -3.3722 C   0  0  0  0  0  0  0  0  0  0  0  0
    1.1086    4.7012   -3.7351 C   0  0  0  0  0  0  0  0  0  0  0  0
    0.3416    3.5768   -3.0738 C   0  0  0  0  0  0  0  0  0  0  0  0
   -0.7144    4.1468   -2.3522 C   0  0  0  0  0  0  0  0  0  0  0  0
   -0.6733    5.5551   -2.2620 N   0  0  0  0  0  0  0  0  0  0  0  0
   -0.5911    5.8960   -0.7928 C   0  0  0  0  0  0  0  0  0  0  0  0
    0.7474    6.3225   -0.1638 C   0  0  0  0  0  0  0  0  0  0  0  0
    1.2555    7.6825   -0.6417 C   0  0  0  0  0  0  0  0  0  0  0  0
    0.2202    8.7928   -0.5291 C   0  0  0  0  0  0  0  0  0  0  0  0
   -0.2388    9.2073    1.1520 S   0  0  0  0  0  0  0  0  0  0  0  0
    1.2265    9.6577    1.6660 O   0  0  0  0  0  0  0  0  0  0  0  0
   -1.0865   10.3787    1.1109 O   0  0  0  0  0  0  0  0  0  0  0  0
   -0.6175    8.0262    1.8863 O   0  0  0  0  0  0  0  0  0  0  0  0
   -1.8632    3.4562   -2.0503 C   0  0  0  0  0  0  0  0  0  0  0  0
   -1.9778    2.1627   -2.5089 C   0  0  0  0  0  0  0  0  0  0  0  0
   -0.9452    1.5653   -3.2396 C   0  0  0  0  0  0  0  0  0  0  0  0
    0.2559    2.2359   -3.4799 C   0  0  0  0  0  0  0  0  0  0  0  0
   -1.2598   -0.0244   -3.9638 S   0  0  0  0  0  0  0  0  0  0  0  0
   -1.2613    0.2752   -5.5535 O   0  0  0  0  0  0  0  0  0  0  0  0
   -0.1616   -0.8779   -3.6436 O   0  0  0  0  0  0  0  0  0  0  0  0
   -2.6443   -0.3594   -3.6235 O   0  0  0  0  0  0  0  0  0  0  0  0
    1.4757    4.1311   -5.1205 C   0  0  0  0  0  0  0  0  0  0  0  0
    2.3064    5.5167   -3.3447 C   0  0  0  0  0  0  0  0  0  0  0  0
    4.2572   10.4015   -1.1774 C   0  0  0  0  0  0  0  0  0  0  0  0
    4.1610   11.1753   -0.2383 O   0  0  0  0  0  0  0  0  0  0  0  0
    3.1966   10.2195   -1.9976 O   0  0  0  0  0  0  0  0  0  0  0  0
    6.7898    7.5951   -0.0488 O   0  0  0  0  0  0  0  0  0  0  0  0
    3.5230   -1.7728   -0.0058 H   0  0  0  0  0  0  0  0  0  0  0  0
   -2.6686    1.1808    0.1117 H   0  0  0  0  0  0  0  0  0  0  0  0
   -4.0000   -0.7522   -0.0239 H   0  0  0  0  0  0  0  0  0  0  0  0
   -3.1994   -2.2851   -0.0279 H   0  0  0  0  0  0  0  0  0  0  0  0
    4.3788    1.4361    0.9013 H   0  0  0  0  0  0  0  0  0  0  0  0
    5.0001    0.0885   -0.0562 H   0  0  0  0  0  0  0  0  0  0  0  0
    4.1848    1.3454   -2.1072 H   0  0  0  0  0  0  0  0  0  0  0  0
    6.2739    2.7850    0.4617 H   0  0  0  0  0  0  0  0  0  0  0  0
    6.9487    5.1456    0.5502 H   0  0  0  0  0  0  0  0  0  0  0  0
    4.3802    5.9936   -2.6732 H   0  0  0  0  0  0  0  0  0  0  0  0
    3.4513    3.6500   -2.5706 H   0  0  0  0  0  0  0  0  0  0  0  0
    4.4635    7.9008   -2.2063 H   0  0  0  0  0  0  0  0  0  0  0  0
    6.2597    9.8067   -0.7937 H   0  0  0  0  0  0  0  0  0  0  0  0
    6.3908   11.2412   -2.7867 H   0  0  0  0  0  0  0  0  0  0  0  0
    7.0635    9.6477   -3.1383 H   0  0  0  0  0  0  0  0  0  0  0  0
    5.5091    7.8683   -4.1367 H   0  0  0  0  0  0  0  0  0  0  0  0
    3.6664    7.4470   -5.5758 H   0  0  0  0  0  0  0  0  0  0  0  0
    2.7290   11.6671   -5.7297 H   0  0  0  0  0  0  0  0  0  0  0  0
    4.7166   12.1240   -4.3132 H   0  0  0  0  0  0  0  0  0  0  0  0
    1.8550    5.3008   -7.1495 H   0  0  0  0  0  0  0  0  0  0  0  0
    0.0558    5.3043   -6.8174 H   0  0  0  0  0  0  0  0  0  0  0  0
    0.4727    4.8513   -9.0079 H   0  0  0  0  0  0  0  0  0  0  0  0
   -0.2723    6.4434   -8.8195 H   0  0  0  0  0  0  0  0  0  0  0  0
    2.6690    5.6667   -9.4831 H   0  0  0  0  0  0  0  0  0  0  0  0
    1.5760    6.7125  -10.2614 H   0  0  0  0  0  0  0  0  0  0  0  0
    3.6140    8.0787  -10.1574 H   0  0  0  0  0  0  0  0  0  0  0  0
    3.6571   10.2813   -8.0204 H   0  0  0  0  0  0  0  0  0  0  0  0
    5.3191   12.3727  -11.5137 H   0  0  0  0  0  0  0  0  0  0  0  0
    4.3581   12.0465  -12.9094 H   0  0  0  0  0  0  0  0  0  0  0  0
    3.6403   14.1709  -12.3849 H   0  0  0  0  0  0  0  0  0  0  0  0
    2.3279   13.1649  -11.9650 H   0  0  0  0  0  0  0  0  0  0  0  0
    2.7504   14.8911  -10.2264 H   0  0  0  0  0  0  0  0  0  0  0  0
    3.0257   13.3130   -9.5388 H   0  0  0  0  0  0  0  0  0  0  0  0
    4.7632   14.6593   -8.7491 H   0  0  0  0  0  0  0  0  0  0  0  0
    5.4870   13.5019   -9.8368 H   0  0  0  0  0  0  0  0  0  0  0  0
    5.9019   15.8303  -12.7873 H   0  0  0  0  0  0  0  0  0  0  0  0
    5.1585    9.8086  -13.1606 H   0  0  0  0  0  0  0  0  0  0  0  0
    4.3382    7.8624  -14.4012 H   0  0  0  0  0  0  0  0  0  0  0  0
    0.6447    7.9491  -12.1675 H   0  0  0  0  0  0  0  0  0  0  0  0
    1.3314    8.3559   -9.8565 H   0  0  0  0  0  0  0  0  0  0  0  0
    0.4865    9.3079   -8.6806 H   0  0  0  0  0  0  0  0  0  0  0  0
   -0.1824    8.7533  -10.2183 H   0  0  0  0  0  0  0  0  0  0  0  0
    2.0528   11.5672   -8.7452 H   0  0  0  0  0  0  0  0  0  0  0  0
    1.3443   12.3650  -10.1501 H   0  0  0  0  0  0  0  0  0  0  0  0
    0.4431   11.4428   -8.8750 H   0  0  0  0  0  0  0  0  0  0  0  0
    0.8682    8.3886   -4.7738 H   0  0  0  0  0  0  0  0  0  0  0  0
   -0.7895    5.9374   -5.1296 H   0  0  0  0  0  0  0  0  0  0  0  0
   -1.3568    6.6511   -0.5886 H   0  0  0  0  0  0  0  0  0  0  0  0
   -0.9334    5.0549   -0.1689 H   0  0  0  0  0  0  0  0  0  0  0  0
    0.6122    6.3829    0.9261 H   0  0  0  0  0  0  0  0  0  0  0  0
    1.5155    5.5464   -0.2510 H   0  0  0  0  0  0  0  0  0  0  0  0
    2.1777    7.9442   -0.1085 H   0  0  0  0  0  0  0  0  0  0  0  0
    1.5373    7.6212   -1.6924 H   0  0  0  0  0  0  0  0  0  0  0  0
    0.6012    9.7043   -0.9972 H   0  0  0  0  0  0  0  0  0  0  0  0
   -0.6966    8.5381   -1.0657 H   0  0  0  0  0  0  0  0  0  0  0  0
    1.7841    8.8830    1.8913 H   0  0  0  0  0  0  0  0  0  0  0  0
   -2.6570    3.9617   -1.5161 H   0  0  0  0  0  0  0  0  0  0  0  0
   -2.8742    1.6130   -2.2572 H   0  0  0  0  0  0  0  0  0  0  0  0
    1.0231    1.7580   -4.0848 H   0  0  0  0  0  0  0  0  0  0  0  0
   -2.0650    0.7714   -5.8090 H   0  0  0  0  0  0  0  0  0  0  0  0
    0.5615    4.0830   -5.6926 H   0  0  0  0  0  0  0  0  0  0  0  0
    2.3116    4.6891   -5.5503 H   0  0  0  0  0  0  0  0  0  0  0  0
    1.8638    3.1151   -5.2408 H   0  0  0  0  0  0  0  0  0  0  0  0
    2.0653    6.0958   -4.2410 H   0  0  0  0  0  0  0  0  0  0  0  0
    2.0935    5.7924   -2.3146 H   0  0  0  0  0  0  0  0  0  0  0  0
    2.8977    6.4405   -3.4905 H   0  0  0  0  0  0  0  0  0  0  0  0
    2.5454   10.9068   -1.7364 H   0  0  0  0  0  0  0  0  0  0  0  0
  1  6  1  0  0  0  0
  1 10  1  0  0  0  0
  2  1  2  0  0  0  0
  3  2  1  0  0  0  0
  3 13  1  0  0  0  0
  4  3  2  0  0  0  0
  4 92  1  0  0  0  0
  5  4  1  0  0  0  0
  6  5  2  0  0  0  0
  6  7  1  0  0  0  0
  8  7  2  0  0  0  0
  8 12  1  0  0  0  0
  9  8  1  0  0  0  0
  9 93  1  0  0  0  0
 10  9  1  0  0  0  0
 10 11  2  0  0  0  0
 12 94  1  0  0  0  0
 12 95  1  0  0  0  0
 13 14  1  0  0  0  0
 13 96  1  0  0  0  0
 13 97  1  0  0  0  0
 14 15  1  0  0  0  0
 14 98  1  0  0  0  0
 15 20  1  0  0  0  0
 16 15  2  0  0  0  0
 16 99  1  0  0  0  0
 17 16  1  0  0  0  0
 17100  1  0  0  0  0
 18 17  2  0  0  0  0
 18 21  1  0  0  0  0
 19 18  1  0  0  0  0
 19101  1  0  0  0  0
 20 19  2  0  0  0  0
 20102  1  0  0  0  0
 21 22  1  0  0  0  0
 21 91  2  0  0  0  0
 22 23  1  0  0  0  0
 22103  1  0  0  0  0
 23 24  1  0  0  0  0
 23 88  1  0  0  0  0
 23104  1  1  0  0  0
 24 25  1  0  0  0  0
 24105  1  0  0  0  0
 24106  1  0  0  0  0
 25 30  1  0  0  0  0
 26 25  2  0  0  0  0
 26107  1  0  0  0  0
 27 26  1  0  0  0  0
 27108  1  0  0  0  0
 28 27  2  0  0  0  0
 28 31  1  0  0  0  0
 29 28  1  0  0  0  0
 29109  1  0  0  0  0
 30 29  2  0  0  0  0
 30110  1  0  0  0  0
 31 32  1  0  0  0  0
 32 37  2  0  0  0  0
 33 32  1  0  0  0  0
 33 63  2  0  0  0  0
 34 33  1  0  0  0  0
 34111  1  0  0  0  0
 34112  1  0  0  0  0
 35 34  1  0  0  0  0
 35113  1  0  0  0  0
 35114  1  0  0  0  0
 36 35  1  0  0  0  0
 36115  1  0  0  0  0
 36116  1  0  0  0  0
 37 36  1  0  0  0  0
 37 38  1  0  0  0  0
 38 39  2  0  0  0  0
 38117  1  0  0  0  0
 39 40  1  0  0  0  0
 39118  1  0  0  0  0
 41 40  1  0  0  0  0
 41 42  1  0  0  0  0
 41 61  1  0  0  0  0
 41 62  1  0  0  0  0
 42 43  2  0  0  0  0
 42 56  1  0  0  0  0
 43 44  1  0  0  0  0
 43 53  1  0  0  0  0
 44 40  2  0  0  0  0
 44 45  1  0  0  0  0
 45 46  1  0  0  0  0
 45119  1  0  0  0  0
 45120  1  0  0  0  0
 46 47  1  0  0  0  0
 46121  1  0  0  0  0
 46122  1  0  0  0  0
 47 48  1  0  0  0  0
 47123  1  0  0  0  0
 47124  1  0  0  0  0
 48 49  1  0  0  0  0
 48125  1  0  0  0  0
 48126  1  0  0  0  0
 49 50  2  0  0  0  0
 49 51  2  0  0  0  0
 49 52  1  0  0  0  0
 52127  1  0  0  0  0
 53128  1  0  0  0  0
 54 53  2  0  0  0  0
 54129  1  0  0  0  0
 55 54  1  0  0  0  0
 55 57  1  0  0  0  0
 56 55  2  0  0  0  0
 56130  1  0  0  0  0
 57 58  1  0  0  0  0
 57 59  2  0  0  0  0
 57 60  2  0  0  0  0
 61131  1  0  0  0  0
 61132  1  0  0  0  0
 61133  1  0  0  0  0
 62134  1  0  0  0  0
 62135  1  0  0  0  0
 62136  1  0  0  0  0
 63 64  1  0  0  0  0
 63137  1  0  0  0  0
 64 65  2  0  0  0  0
 64138  1  0  0  0  0
 65 69  1  0  0  0  0
 66 65  1  0  0  0  0
 66 67  1  0  0  0  0
 66 86  1  0  0  0  0
 66 87  1  0  0  0  0
 67 68  2  0  0  0  0
 67 81  1  0  0  0  0
 68 78  1  0  0  0  0
 69 68  1  0  0  0  0
 69 70  1  0  0  0  0
 70 71  1  0  0  0  0
 70139  1  0  0  0  0
 70140  1  0  0  0  0
 71 72  1  0  0  0  0
 71141  1  0  0  0  0
 71142  1  0  0  0  0
 72 73  1  0  0  0  0
 72143  1  0  0  0  0
 72144  1  0  0  0  0
 73 74  1  0  0  0  0
 73145  1  0  0  0  0
 73146  1  0  0  0  0
 74 75  1  0  0  0  0
 74 76  2  0  0  0  0
 74 77  2  0  0  0  0
 75147  1  0  0  0  0
 78 79  2  0  0  0  0
 78148  1  0  0  0  0
 79 80  1  0  0  0  0
 79149  1  0  0  0  0
 80 81  2  0  0  0  0
 80 82  1  0  0  0  0
 81150  1  0  0  0  0
 82 83  1  0  0  0  0
 82 84  2  0  0  0  0
 82 85  2  0  0  0  0
 83151  1  0  0  0  0
 86152  1  0  0  0  0
 86153  1  0  0  0  0
 86154  1  0  0  0  0
 87155  1  0  0  0  0
 87156  1  0  0  0  0
 87157  1  0  0  0  0
 88 89  2  0  0  0  0
 88 90  1  0  0  0  0
 90158  1  0  0  0  0
M  CHG  2  44   1  58  -1
M  END
>  <DRUGBANK_ID>
DB15413

>  <COMMON_NAME>
Pafolacianine

>  <CAS_NUMBER>
1628423-76-6

>  <UNII>
F7BD3Z4X8L

$$$$
