
 OpenBabel10282417193D

 50 56  0  0  1  0  0  0  0  0999 V2000
   -1.2264    0.1467    2.0583 C   0  0  0  0  0  0  0  0  0  0  0  0
   -0.9223   -1.0170    1.1153 C   0  0  0  0  0  0  0  0  0  0  0  0
   -1.3398   -0.6654   -0.3366 C   0  0  0  0  0  0  0  0  0  0  0  0
    0.4987   -1.2810    1.1400 C   0  0  1  0  0  0  0  0  0  0  0  0
    1.3467   -0.0904    1.1278 C   0  0  1  0  0  0  0  0  0  0  0  0
    0.9326   -0.9877   -0.0727 O   0  0  0  0  0  0  0  0  0  0  0  0
    1.9564    0.9236    0.4090 C   0  0  1  0  0  0  0  0  0  0  0  0
    3.1379   -0.1385    0.4824 C   0  0  1  0  0  0  0  0  0  0  0  0
    2.3819    0.3640   -0.7987 O   0  0  0  0  0  0  0  0  0  0  0  0
    4.4855    0.4393    0.0408 C   0  0  1  0  0  0  0  0  0  0  0  0
    5.6221    1.3873    0.6668 C   0  0  0  0  0  0  0  0  0  0  0  0
    6.4277    1.4214   -0.6637 C   0  0  0  0  0  0  0  0  0  0  0  0
    7.1934    0.1827   -0.6844 C   0  0  0  0  0  0  0  0  0  0  0  0
    6.8028   -1.0943   -0.5871 C   0  0  0  0  0  0  0  0  0  0  0  0
    5.3306   -1.2448   -0.4186 C   0  0  2  0  0  0  0  0  0  0  0  0
    5.2417   -2.9012    0.2235 C   0  0  0  0  0  0  0  0  0  0  0  0
    3.7944   -3.2097    0.1599 C   0  0  1  0  0  0  0  0  0  0  0  0
    2.7285   -1.9998    0.8176 C   0  0  1  0  0  0  0  0  0  0  0  0
    1.2309   -2.3762    1.6749 C   0  0  2  0  0  0  0  0  0  0  0  0
    0.9874   -1.8536    3.0811 O   0  0  0  0  0  0  0  0  0  0  0  0
    3.5315   -2.9383    1.4883 O   0  0  0  0  0  0  0  0  0  0  0  0
    7.6820   -1.8903   -1.5327 C   0  0  0  0  0  0  0  0  0  0  0  0
    8.7891   -1.0045   -1.5405 O   0  0  0  0  0  0  0  0  0  0  0  0
    8.1086    0.0795   -1.7932 C   0  0  0  0  0  0  0  0  0  0  0  0
    7.8334    0.4746   -2.9752 O   0  0  0  0  0  0  0  0  0  0  0  0
    3.8024    2.1612   -0.5865 C   0  0  0  0  0  0  0  0  0  0  0  0
   -0.8267    1.1060    1.6863 H   0  0  0  0  0  0  0  0  0  0  0  0
   -0.7692    0.0188    3.0484 H   0  0  0  0  0  0  0  0  0  0  0  0
   -2.2976    0.2200    2.1682 H   0  0  0  0  0  0  0  0  0  0  0  0
   -1.3621   -1.9609    1.3994 H   0  0  0  0  0  0  0  0  0  0  0  0
   -0.9046    0.2937   -0.6790 H   0  0  0  0  0  0  0  0  0  0  0  0
   -0.9686   -1.4281   -1.0456 H   0  0  0  0  0  0  0  0  0  0  0  0
   -2.4132   -0.6287   -0.3955 H   0  0  0  0  0  0  0  0  0  0  0  0
    1.2521    0.2073    2.1917 H   0  0  0  0  0  0  0  0  0  0  0  0
    1.7001    1.9482    0.6167 H   0  0  0  0  0  0  0  0  0  0  0  0
    5.9630    2.4802    0.5212 H   0  0  0  0  0  0  0  0  0  0  0  0
    4.9848    2.0842    1.2833 H   0  0  0  0  0  0  0  0  0  0  0  0
    6.3158    1.3250   -1.7656 H   0  0  0  0  0  0  0  0  0  0  0  0
    5.5807    1.8042   -1.2210 H   0  0  0  0  0  0  0  0  0  0  0  0
    4.9263   -1.5203   -1.4043 H   0  0  0  0  0  0  0  0  0  0  0  0
    5.8701   -3.7349   -0.2123 H   0  0  0  0  0  0  0  0  0  0  0  0
    5.5273   -3.0940    1.2934 H   0  0  0  0  0  0  0  0  0  0  0  0
    3.5567   -4.2313   -0.2206 H   0  0  0  0  0  0  0  0  0  0  0  0
    1.7634   -3.0689    2.3124 H   0  0  0  0  0  0  0  0  0  0  0  0
    0.0089   -1.8912    3.1760 H   0  0  0  0  0  0  0  0  0  0  0  0
    8.2764   -2.7978   -1.6152 H   0  0  0  0  0  0  0  0  0  0  0  0
    7.0963   -1.9276   -2.4729 H   0  0  0  0  0  0  0  0  0  0  0  0
    3.0256    2.2652   -1.3716 H   0  0  0  0  0  0  0  0  0  0  0  0
    3.3359    2.6837    0.2948 H   0  0  0  0  0  0  0  0  0  0  0  0
    4.4716    3.0291   -0.7847 H   0  0  0  0  0  0  0  0  0  0  0  0
  1  2  1  0  0  0  0
  1 27  1  0  0  0  0
  1 28  1  0  0  0  0
  1 29  1  0  0  0  0
  2  3  1  0  0  0  0
  2 30  1  0  0  0  0
  3 31  1  0  0  0  0
  3 32  1  0  0  0  0
  3 33  1  0  0  0  0
  4  5  1  0  0  0  0
  4  6  1  0  0  0  0
  4 19  1  0  0  0  0
  4  2  1  6  0  0  0
  5  6  1  0  0  0  0
  5  7  1  0  0  0  0
  5 34  1  1  0  0  0
  7  8  1  0  0  0  0
  7  9  1  0  0  0  0
  7 35  1  1  0  0  0
  8  9  1  6  0  0  0
  8 10  1  0  0  0  0
  8 18  1  0  0  0  0
 10 11  1  0  0  0  0
 10 15  1  0  0  0  0
 10 26  1  6  0  0  0
 11 12  1  0  0  0  0
 11 36  1  0  0  0  0
 11 37  1  0  0  0  0
 12 13  1  0  0  0  0
 12 38  1  0  0  0  0
 12 39  1  0  0  0  0
 13 14  2  0  0  0  0
 13 24  1  0  0  0  0
 14 22  1  0  0  0  0
 15 14  1  0  0  0  0
 15 16  1  0  0  0  0
 15 40  1  1  0  0  0
 16 17  1  0  0  0  0
 16 41  1  0  0  0  0
 16 42  1  0  0  0  0
 17 18  1  0  0  0  0
 17 21  1  0  0  0  0
 17 43  1  1  0  0  0
 18 19  1  0  0  0  0
 18 21  1  6  0  0  0
 19 44  1  1  0  0  0
 19 20  1  0  0  0  0
 20 45  1  0  0  0  0
 22 23  1  0  0  0  0
 22 46  1  0  0  0  0
 22 47  1  0  0  0  0
 23 24  1  0  0  0  0
 24 25  2  0  0  0  0
 26 48  1  0  0  0  0
 26 49  1  0  0  0  0
 26 50  1  0  0  0  0
M  END
>  <DRUGBANK_ID>
DB12025

>  <COMMON_NAME>
Triptolide

>  <CAS_NUMBER>
38748-32-2

>  <UNII>
19ALD1S53J

$$$$
