OPA
 OpenBabel10282417133D

 27 28  0  0  0  0  0  0  0  0999 V2000
   -1.9487    1.0356    0.2858 O   0  0  0  0  0  0  0  0  0  0  0  0
   -0.6767    1.6389   -0.0725 C   0  0  0  0  0  0  0  0  0  0  0  0
    0.4227    0.5926   -0.0179 C   0  0  0  0  0  0  0  0  0  0  0  0
    0.1926   -0.7626    0.0303 C   0  0  0  0  0  0  0  0  0  0  0  0
   -1.2214   -1.2598    0.0799 C   0  0  0  0  0  0  0  0  0  0  0  0
   -2.1982   -0.1969   -0.3981 C   0  0  0  0  0  0  0  0  0  0  0  0
    2.0950    0.9018   -0.0486 S   0  0  0  0  0  0  0  0  0  0  0  0
    2.5362   -0.7757    0.0262 C   0  0  0  0  0  0  0  0  0  0  0  0
    1.3956   -1.5914    0.0728 C   0  0  0  0  0  0  0  0  0  0  0  0
    1.2479   -3.0643    0.1599 C   0  0  0  0  0  0  0  0  0  0  0  0
    2.3424   -3.8475    0.1689 O   0  0  0  0  0  0  0  0  0  0  0  0
    0.1531   -3.6194    0.2226 O   0  0  0  0  0  0  0  0  0  0  0  0
    3.8958   -1.1233    0.0357 N   0  0  0  0  0  0  0  0  0  0  0  0
    5.0113   -0.2983   -0.0068 C   0  0  0  0  0  0  0  0  0  0  0  0
    6.3401   -1.1146    0.0237 C   0  0  0  0  0  0  0  0  0  0  0  0
    7.4381   -0.3430   -0.0172 O   0  0  0  0  0  0  0  0  0  0  0  0
    6.3324   -2.3331    0.0777 O   0  0  0  0  0  0  0  0  0  0  0  0
    5.1105    0.9169   -0.0633 O   0  0  0  0  0  0  0  0  0  0  0  0
   -0.7905    2.0700   -1.0736 H   0  0  0  0  0  0  0  0  0  0  0  0
   -0.5193    2.4532    0.6418 H   0  0  0  0  0  0  0  0  0  0  0  0
   -1.4378   -1.5233    1.1224 H   0  0  0  0  0  0  0  0  0  0  0  0
   -1.3542   -2.1330   -0.5597 H   0  0  0  0  0  0  0  0  0  0  0  0
   -3.2155   -0.5379   -0.1728 H   0  0  0  0  0  0  0  0  0  0  0  0
   -2.1316   -0.0467   -1.4827 H   0  0  0  0  0  0  0  0  0  0  0  0
    3.1943   -3.4146    0.1412 H   0  0  0  0  0  0  0  0  0  0  0  0
    4.1821   -2.0873    0.0792 H   0  0  0  0  0  0  0  0  0  0  0  0
    7.1935    0.6100   -0.0577 H   0  0  0  0  0  0  0  0  0  0  0  0
  1  2  1  0  0  0  0
  1  6  1  0  0  0  0
  2  3  1  0  0  0  0
  2 19  1  0  0  0  0
  2 20  1  0  0  0  0
  3  4  2  0  0  0  0
  3  7  1  0  0  0  0
  4  5  1  0  0  0  0
  4  9  1  0  0  0  0
  5  6  1  0  0  0  0
  5 21  1  0  0  0  0
  5 22  1  0  0  0  0
  6 23  1  0  0  0  0
  6 24  1  0  0  0  0
  7  8  1  0  0  0  0
  8  9  2  0  0  0  0
  8 13  1  0  0  0  0
  9 10  1  0  0  0  0
 10 11  1  0  0  0  0
 10 12  2  0  0  0  0
 11 25  1  0  0  0  0
 13 14  1  0  0  0  0
 13 26  1  0  0  0  0
 14 15  1  0  0  0  0
 14 18  2  0  0  0  0
 15 16  1  0  0  0  0
 15 17  2  0  0  0  0
 16 27  1  0  0  0  0
M  END
>  <DRUGBANK_ID>
DB03102

>  <SECONDARY_ACCESSION_NUMBERS>
EXPT02439

>  <COMMON_NAME>
2-(Oxalyl-Amino)-4,7-Dihydro-5h-Thieno[2,3-C]Pyran-3-Carboxylic Acid

$$$$
