
 OpenBabel10282417213D

 25 24  0  0  0  0  0  0  0  0999 V2000
    0.9532   -0.1124    0.0725 C   0  0  0  0  0  0  0  0  0  0  0  0
    0.4810   -1.5619   -0.3279 C   0  0  0  0  0  0  0  0  0  0  0  0
    0.5311    0.3221    1.4873 C   0  0  0  0  0  0  0  0  0  0  0  0
    0.5365    0.8703   -1.0577 C   0  0  0  0  0  0  0  0  0  0  0  0
    2.9453   -0.3013    0.0484 Br  0  0  0  0  0  0  0  0  0  0  0  0
   -0.3092   -2.2767    0.5702 N   0  0  0  0  0  0  0  0  0  0  0  0
    0.8101   -2.0187   -1.4246 O   0  0  0  0  0  0  0  0  0  0  0  0
    1.0305    1.6657    2.0097 C   0  0  0  0  0  0  0  0  0  0  0  0
    1.0252    2.3174   -0.9854 C   0  0  0  0  0  0  0  0  0  0  0  0
   -0.7802   -3.5427    0.3096 C   0  0  0  0  0  0  0  0  0  0  0  0
   -1.5550   -4.0818    1.2927 N   0  0  0  0  0  0  0  0  0  0  0  0
   -0.5895   -4.2139   -0.6887 O   0  0  0  0  0  0  0  0  0  0  0  0
   -0.5652    0.3439    1.5207 H   0  0  0  0  0  0  0  0  0  0  0  0
    0.8542   -0.4363    2.2108 H   0  0  0  0  0  0  0  0  0  0  0  0
    0.8592    0.4790   -2.0316 H   0  0  0  0  0  0  0  0  0  0  0  0
   -0.5607    0.8906   -1.0975 H   0  0  0  0  0  0  0  0  0  0  0  0
   -0.5657   -1.8841    1.4567 H   0  0  0  0  0  0  0  0  0  0  0  0
    0.5095    2.5017    1.5532 H   0  0  0  0  0  0  0  0  0  0  0  0
    0.7983    1.7738    3.0712 H   0  0  0  0  0  0  0  0  0  0  0  0
    2.1072    1.7969    1.8744 H   0  0  0  0  0  0  0  0  0  0  0  0
    2.1029    2.3879   -0.8159 H   0  0  0  0  0  0  0  0  0  0  0  0
    0.7864    2.8590   -1.9046 H   0  0  0  0  0  0  0  0  0  0  0  0
    0.5056    2.8894   -0.2225 H   0  0  0  0  0  0  0  0  0  0  0  0
   -1.8928   -5.0173    1.0857 H   0  0  0  0  0  0  0  0  0  0  0  0
   -1.8077   -3.6815    2.1794 H   0  0  0  0  0  0  0  0  0  0  0  0
  1  2  1  0  0  0  0
  1  3  1  0  0  0  0
  1  4  1  0  0  0  0
  1  5  1  0  0  0  0
  2  6  1  0  0  0  0
  2  7  2  0  0  0  0
  3  8  1  0  0  0  0
  3 13  1  0  0  0  0
  3 14  1  0  0  0  0
  4  9  1  0  0  0  0
  4 15  1  0  0  0  0
  4 16  1  0  0  0  0
  6 10  1  0  0  0  0
  6 17  1  0  0  0  0
  8 18  1  0  0  0  0
  8 19  1  0  0  0  0
  8 20  1  0  0  0  0
  9 21  1  0  0  0  0
  9 22  1  0  0  0  0
  9 23  1  0  0  0  0
 10 11  1  0  0  0  0
 10 12  2  0  0  0  0
 11 24  1  0  0  0  0
 11 25  1  0  0  0  0
M  END
>  <DRUGBANK_ID>
DB13817

>  <COMMON_NAME>
Carbromal

>  <CAS_NUMBER>
77-65-6

>  <UNII>
0Y299JY9V3

>  <SYNONYMS>
Carbromal; Carbromalum

$$$$
