
 OpenBabel10282417123D

 26 26  0  0  1  0  0  0  0  0999 V2000
    3.4503   -0.1955   -2.0704 C   0  0  0  0  0  0  0  0  0  0  0  0
    2.2705   -0.1987   -2.8645 O   0  0  0  0  0  0  0  0  0  0  0  0
    1.1096    0.3746   -2.2258 C   0  0  1  0  0  0  0  0  0  0  0  0
    1.4504    1.7384   -1.5846 C   0  0  2  0  0  0  0  0  0  0  0  0
    2.2330    1.5857   -0.3858 O   0  0  0  0  0  0  0  0  0  0  0  0
    0.2309    2.5885   -1.2559 C   0  0  1  0  0  0  0  0  0  0  0  0
    0.6553    3.9063   -0.8750 O   0  0  0  0  0  0  0  0  0  0  0  0
   -0.7037    2.6370   -2.4710 C   0  0  2  0  0  0  0  0  0  0  0  0
   -1.9054    3.3167   -2.1564 O   0  0  0  0  0  0  0  0  0  0  0  0
   -1.0635    1.3414   -2.9164 O   0  0  0  0  0  0  0  0  0  0  0  0
    0.0548    0.5603   -3.3350 C   0  0  2  0  0  0  0  0  0  0  0  0
   -0.4981   -0.7871   -3.8114 C   0  0  0  0  0  0  0  0  0  0  0  0
   -1.2355   -0.6914   -4.9488 O   0  0  0  0  0  0  0  0  0  0  0  0
   -0.3431   -1.8610   -3.2406 O   0  0  0  0  0  0  0  0  0  0  0  0
    3.2674   -0.6523   -1.0933 H   0  0  0  0  0  0  0  0  0  0  0  0
    3.8244    0.8272   -1.9657 H   0  0  0  0  0  0  0  0  0  0  0  0
    4.2286   -0.7537   -2.5917 H   0  0  0  0  0  0  0  0  0  0  0  0
    0.7503   -0.3186   -1.4531 H   0  0  0  0  0  0  0  0  0  0  0  0
    2.0929    2.2926   -2.2807 H   0  0  0  0  0  0  0  0  0  0  0  0
    1.7074    1.1106    0.2814 H   0  0  0  0  0  0  0  0  0  0  0  0
   -0.2866    2.1739   -0.3830 H   0  0  0  0  0  0  0  0  0  0  0  0
    1.2631    4.2460   -1.5566 H   0  0  0  0  0  0  0  0  0  0  0  0
   -0.2313    3.1929   -3.2892 H   0  0  0  0  0  0  0  0  0  0  0  0
   -2.2539    2.8935   -1.3537 H   0  0  0  0  0  0  0  0  0  0  0  0
    0.5245    1.0356   -4.2074 H   0  0  0  0  0  0  0  0  0  0  0  0
   -1.3527    0.2257   -5.2651 H   0  0  0  0  0  0  0  0  0  0  0  0
  1  2  1  0  0  0  0
  1 15  1  0  0  0  0
  1 16  1  0  0  0  0
  1 17  1  0  0  0  0
  3  4  1  0  0  0  0
  3 11  1  0  0  0  0
  3 18  1  1  0  0  0
  3  2  1  0  0  0  0
  4  5  1  0  0  0  0
  4  6  1  0  0  0  0
  4 19  1  6  0  0  0
  5 20  1  0  0  0  0
  6  7  1  0  0  0  0
  6  8  1  0  0  0  0
  6 21  1  1  0  0  0
  7 22  1  0  0  0  0
  8  9  1  0  0  0  0
  8 10  1  0  0  0  0
  8 23  1  6  0  0  0
  9 24  1  0  0  0  0
 10 11  1  0  0  0  0
 11 25  1  6  0  0  0
 11 12  1  0  0  0  0
 12 13  1  0  0  0  0
 12 14  2  0  0  0  0
 13 26  1  0  0  0  0
M  END
>  <DRUGBANK_ID>
DB02722

>  <SECONDARY_ACCESSION_NUMBERS>
EXPT01567

>  <COMMON_NAME>
4-O-methyl-beta-D-glucuronic acid

$$$$
