
 OpenBabel10282417183D

 50 52  0  0  0  0  0  0  0  0999 V2000
    2.3927    0.0015   -0.0575 F   0  0  0  0  0  0  0  0  0  0  0  0
   -3.5874    0.2647   -1.4542 O   0  0  0  0  0  0  0  0  0  0  0  0
   -3.7434    3.9077   -1.2519 O   0  0  0  0  0  0  0  0  0  0  0  0
   -2.5871   -0.1400    1.2419 O   0  0  0  0  0  0  0  0  0  0  0  0
   -1.8463    2.4415   -5.4686 O   0  0  0  0  0  0  0  0  0  0  0  0
   -6.2230    0.2132   -0.3578 N   0  0  0  0  0  0  0  0  0  0  0  0
   -3.0082    2.6608   -1.3094 C   0  0  1  0  0  0  0  0  0  0  0  0
   -4.2454    1.5308   -1.4107 C   0  0  2  0  0  0  0  0  0  0  0  0
   -2.0947    2.6054   -2.6124 C   0  0  0  0  0  0  0  0  0  0  0  0
   -1.8205    2.6212   -0.1248 C   0  0  0  0  0  0  0  0  0  0  0  0
   -1.0081    1.3081    0.0285 C   0  0  0  0  0  0  0  0  0  0  0  0
   -5.5056    1.5377   -0.4272 C   0  0  0  0  0  0  0  0  0  0  0  0
   -2.2801    3.8194   -3.5072 C   0  0  0  0  0  0  0  0  0  0  0  0
   -2.2019    1.2958   -3.4003 C   0  0  0  0  0  0  0  0  0  0  0  0
   -1.5875    0.0611    0.3438 C   0  0  0  0  0  0  0  0  0  0  0  0
    0.3736    1.2574   -0.0888 C   0  0  0  0  0  0  0  0  0  0  0  0
   -4.3340   -0.9303   -1.4640 C   0  0  0  0  0  0  0  0  0  0  0  0
    1.0708    0.0199   -0.0829 C   0  0  0  0  0  0  0  0  0  0  0  0
   -5.3241   -0.9760   -0.3164 C   0  0  0  0  0  0  0  0  0  0  0  0
   -0.9642   -1.1690    0.0777 C   0  0  0  0  0  0  0  0  0  0  0  0
   -1.4655    1.3016   -4.7097 C   0  0  0  0  0  0  0  0  0  0  0  0
   -1.5093    3.6575   -4.8053 C   0  0  0  0  0  0  0  0  0  0  0  0
    0.3783   -1.1997   -0.0814 C   0  0  0  0  0  0  0  0  0  0  0  0
   -3.4586    0.9169    1.4423 C   0  0  0  0  0  0  0  0  0  0  0  0
   -4.7388    1.7028   -2.3810 H   0  0  0  0  0  0  0  0  0  0  0  0
   -3.2595    4.6029   -0.7819 H   0  0  0  0  0  0  0  0  0  0  0  0
   -6.7246    0.1310   -1.2410 H   0  0  0  0  0  0  0  0  0  0  0  0
   -1.0339    2.6494   -2.3175 H   0  0  0  0  0  0  0  0  0  0  0  0
   -2.1987    2.9737    0.8454 H   0  0  0  0  0  0  0  0  0  0  0  0
   -1.1097    3.4448   -0.3331 H   0  0  0  0  0  0  0  0  0  0  0  0
   -5.3377    1.8866    0.5971 H   0  0  0  0  0  0  0  0  0  0  0  0
   -6.2131    2.3300   -0.7135 H   0  0  0  0  0  0  0  0  0  0  0  0
   -3.3454    3.9348   -3.7245 H   0  0  0  0  0  0  0  0  0  0  0  0
   -1.9339    4.7206   -2.9832 H   0  0  0  0  0  0  0  0  0  0  0  0
   -1.8178    0.4564   -2.8113 H   0  0  0  0  0  0  0  0  0  0  0  0
   -3.2486    1.1233   -3.6600 H   0  0  0  0  0  0  0  0  0  0  0  0
    0.9728    2.1675   -0.1256 H   0  0  0  0  0  0  0  0  0  0  0  0
   -3.6000   -1.7412   -1.3694 H   0  0  0  0  0  0  0  0  0  0  0  0
   -4.8322   -1.0681   -2.4260 H   0  0  0  0  0  0  0  0  0  0  0  0
   -4.8063   -1.1301    0.6370 H   0  0  0  0  0  0  0  0  0  0  0  0
   -5.9083   -1.9003   -0.3856 H   0  0  0  0  0  0  0  0  0  0  0  0
   -1.5535   -2.0890    0.1755 H   0  0  0  0  0  0  0  0  0  0  0  0
   -0.3825    1.2734   -4.5560 H   0  0  0  0  0  0  0  0  0  0  0  0
   -1.7551    0.4005   -5.2619 H   0  0  0  0  0  0  0  0  0  0  0  0
   -1.7684    4.4836   -5.4702 H   0  0  0  0  0  0  0  0  0  0  0  0
   -0.4279    3.6832   -4.6281 H   0  0  0  0  0  0  0  0  0  0  0  0
    0.9099   -2.1500   -0.0870 H   0  0  0  0  0  0  0  0  0  0  0  0
   -3.3763    1.4950    2.3493 H   0  0  0  0  0  0  0  0  0  0  0  0
   -3.4520    1.6043    0.6356 H   0  0  0  0  0  0  0  0  0  0  0  0
   -4.4287    0.4763    1.4124 H   0  0  0  0  0  0  0  0  0  0  0  0
  1 18  1  0  0  0  0
  2  8  1  0  0  0  0
  2 17  1  0  0  0  0
  3 26  1  0  0  0  0
  4 15  1  0  0  0  0
  4 24  1  0  0  0  0
  5 21  1  0  0  0  0
  5 22  1  0  0  0  0
  6 12  1  0  0  0  0
  6 19  1  0  0  0  0
  6 27  1  0  0  0  0
  7  9  1  0  0  0  0
  7 10  1  0  0  0  0
  7  8  1  0  0  0  0
  7  3  1  1  0  0  0
  8 12  1  0  0  0  0
  8 25  1  6  0  0  0
  9 13  1  0  0  0  0
  9 14  1  0  0  0  0
  9 28  1  0  0  0  0
 10 11  1  0  0  0  0
 10 29  1  0  0  0  0
 10 30  1  0  0  0  0
 11 15  2  0  0  0  0
 11 16  1  0  0  0  0
 12 31  1  0  0  0  0
 12 32  1  0  0  0  0
 13 22  1  0  0  0  0
 13 33  1  0  0  0  0
 13 34  1  0  0  0  0
 14 21  1  0  0  0  0
 14 35  1  0  0  0  0
 14 36  1  0  0  0  0
 15 20  1  0  0  0  0
 16 18  2  0  0  0  0
 16 37  1  0  0  0  0
 17 19  1  0  0  0  0
 17 38  1  0  0  0  0
 17 39  1  0  0  0  0
 18 23  1  0  0  0  0
 19 40  1  0  0  0  0
 19 41  1  0  0  0  0
 20 23  2  0  0  0  0
 20 42  1  0  0  0  0
 21 43  1  0  0  0  0
 21 44  1  0  0  0  0
 22 45  1  0  0  0  0
 22 46  1  0  0  0  0
 23 47  1  0  0  0  0
 24 48  1  0  0  0  0
 24 49  1  0  0  0  0
 24 50  1  0  0  0  0
M  END
>  <DRUGBANK_ID>
DB09184

>  <COMMON_NAME>
Edivoxetine

>  <CAS_NUMBER>
1194508-25-2

>  <UNII>
3W9N3F4JOO

>  <SYNONYMS>
Edivoxetine

$$$$
