
 OpenBabel10282417133D

 45 46  0  0  1  0  0  0  0  0999 V2000
   -0.5154   -9.1104    3.2107 C   0  0  0  0  0  0  0  0  0  0  0  0
    1.6882   -2.5874    4.2545 C   0  0  0  0  0  0  0  0  0  0  0  0
   -0.0395   -8.3630    4.4798 C   0  0  2  0  0  0  0  0  0  0  0  0
    1.1771   -3.6845    3.3040 C   0  0  2  0  0  0  0  0  0  0  0  0
   -1.1768   -7.5768    5.1495 C   0  0  2  0  0  0  0  0  0  0  0  0
   -0.6288   -6.7394    6.3210 C   0  0  1  0  0  0  0  0  0  0  0  0
    1.7249   -5.7187    1.8950 C   0  0  2  0  0  0  0  0  0  0  0  0
    1.1101   -4.9905    0.6914 C   0  0  2  0  0  0  0  0  0  0  0  0
    0.5657   -5.8846    5.8822 C   0  0  2  0  0  0  0  0  0  0  0  0
    2.2348   -4.7630    2.9876 C   0  0  2  0  0  0  0  0  0  0  0  0
    0.1170   -3.9255    1.1887 C   0  0  2  0  0  0  0  0  0  0  0  0
    1.6089   -6.7198    5.1252 C   0  0  1  0  0  0  0  0  0  0  0  0
    0.3116   -8.8309    2.0786 O   0  0  0  0  0  0  0  0  0  0  0  0
    0.7498   -2.3716    5.3083 O   0  0  0  0  0  0  0  0  0  0  0  0
   -2.1999   -8.4722    5.5886 O   0  0  0  0  0  0  0  0  0  0  0  0
   -1.6719   -5.9044    6.8464 O   0  0  0  0  0  0  0  0  0  0  0  0
    2.7567   -6.6131    1.4650 O   0  0  0  0  0  0  0  0  0  0  0  0
    0.4597   -5.9283   -0.1780 O   0  0  0  0  0  0  0  0  0  0  0  0
    1.1302   -5.1889    6.9904 O   0  0  0  0  0  0  0  0  0  0  0  0
   -0.4061   -3.1488    0.1281 O   0  0  0  0  0  0  0  0  0  0  0  0
    0.7540   -3.0319    2.0925 O   0  0  0  0  0  0  0  0  0  0  0  0
    1.0428   -7.5125    4.1006 O   0  0  0  0  0  0  0  0  0  0  0  0
    2.9796   -5.6782    4.4449 S   0  0  0  0  0  0  0  0  0  0  0  0
    0.3281   -9.1187    5.1862 H   0  0  0  0  0  0  0  0  0  0  0  0
    0.2658   -4.1287    3.7000 H   0  0  0  0  0  0  0  0  0  0  0  0
   -1.6451   -6.8973    4.4244 H   0  0  0  0  0  0  0  0  0  0  0  0
   -0.3347   -7.3867    7.1538 H   0  0  0  0  0  0  0  0  0  0  0  0
    0.9215   -6.3331    2.2920 H   0  0  0  0  0  0  0  0  0  0  0  0
    1.9021   -4.5222    0.0967 H   0  0  0  0  0  0  0  0  0  0  0  0
    0.1441   -5.1234    5.2383 H   0  0  0  0  0  0  0  0  0  0  0  0
    3.0997   -4.2379    2.5595 H   0  0  0  0  0  0  0  0  0  0  0  0
   -0.7462   -4.4032    1.6722 H   0  0  0  0  0  0  0  0  0  0  0  0
    2.1012   -7.3953    5.8359 H   0  0  0  0  0  0  0  0  0  0  0  0
   -1.5432   -8.8576    2.9328 H   0  0  0  0  0  0  0  0  0  0  0  0
   -0.4814  -10.1915    3.3792 H   0  0  0  0  0  0  0  0  0  0  0  0
    2.6401   -2.8454    4.7245 H   0  0  0  0  0  0  0  0  0  0  0  0
    1.8213   -1.6323    3.7354 H   0  0  0  0  0  0  0  0  0  0  0  0
    1.2127   -8.6486    2.4200 H   0  0  0  0  0  0  0  0  0  0  0  0
   -0.0857   -2.0716    4.9097 H   0  0  0  0  0  0  0  0  0  0  0  0
   -1.9414   -8.8542    6.4474 H   0  0  0  0  0  0  0  0  0  0  0  0
   -1.8558   -5.1893    6.2097 H   0  0  0  0  0  0  0  0  0  0  0  0
    3.4597   -6.0920    1.0352 H   0  0  0  0  0  0  0  0  0  0  0  0
   -0.0202   -6.5838    0.3656 H   0  0  0  0  0  0  0  0  0  0  0  0
    1.5772   -5.8229    7.5817 H   0  0  0  0  0  0  0  0  0  0  0  0
    0.3598   -2.8605   -0.4006 H   0  0  0  0  0  0  0  0  0  0  0  0
  1 34  1  0  0  0  0
  1 35  1  0  0  0  0
  2 36  1  0  0  0  0
  2 37  1  0  0  0  0
  3 24  1  1  0  0  0
  3  1  1  0  0  0  0
  4 25  1  1  0  0  0
  4  2  1  0  0  0  0
  5  3  1  0  0  0  0
  5 15  1  0  0  0  0
  5 26  1  6  0  0  0
  6  5  1  0  0  0  0
  6 16  1  0  0  0  0
  6 27  1  1  0  0  0
  7 17  1  0  0  0  0
  7 28  1  1  0  0  0
  8  7  1  0  0  0  0
  8 18  1  0  0  0  0
  8 29  1  6  0  0  0
  9  6  1  0  0  0  0
  9 19  1  0  0  0  0
  9 30  1  6  0  0  0
 10  4  1  0  0  0  0
 10  7  1  0  0  0  0
 10 31  1  6  0  0  0
 10 23  1  0  0  0  0
 11  8  1  0  0  0  0
 11 20  1  0  0  0  0
 11 32  1  1  0  0  0
 12  9  1  0  0  0  0
 12 23  1  0  0  0  0
 12 33  1  1  0  0  0
 13  1  1  0  0  0  0
 13 38  1  0  0  0  0
 14  2  1  0  0  0  0
 14 39  1  0  0  0  0
 15 40  1  0  0  0  0
 16 41  1  0  0  0  0
 17 42  1  0  0  0  0
 18 43  1  0  0  0  0
 19 44  1  0  0  0  0
 20 45  1  0  0  0  0
 21  4  1  0  0  0  0
 21 11  1  0  0  0  0
 22  3  1  0  0  0  0
 22 12  1  0  0  0  0
M  END
>  <DRUGBANK_ID>
DB03263

>  <SECONDARY_ACCESSION_NUMBERS>
EXPT03022

>  <COMMON_NAME>
Thiocellobiose

$$$$
