581
 OpenBabel10282417103D

 45 46  0  0  1  0  0  0  0  0999 V2000
    2.9133   -0.3664    1.1676 O   0  0  0  0  0  0  0  0  0  0  0  0
    5.8987    0.6211   -0.1687 O   0  0  0  0  0  0  0  0  0  0  0  0
    2.5994   -1.0412   -1.0561 O   0  0  0  0  0  0  0  0  0  0  0  0
    5.2481   -2.7588    0.9932 O   0  0  0  0  0  0  0  0  0  0  0  0
    7.3892   -0.9658    0.6508 O   0  0  0  0  0  0  0  0  0  0  0  0
    2.1857    2.3812    0.3208 O   0  0  0  0  0  0  0  0  0  0  0  0
    2.7793    2.8991   -2.4570 O   0  0  0  0  0  0  0  0  0  0  0  0
    4.1357    0.5395   -2.9631 O   0  0  0  0  0  0  0  0  0  0  0  0
    6.3916    2.7606    1.7005 O   0  0  0  0  0  0  0  0  0  0  0  0
    6.6607   -2.7065   -1.6939 O   0  0  0  0  0  0  0  0  0  0  0  0
    2.1351   -3.2120   -2.7004 O   0  0  0  0  0  0  0  0  0  0  0  0
    4.3503   -0.4567    1.2977 C   0  0  1  0  0  0  0  0  0  0  0  0
    5.0088   -1.4991    0.3737 C   0  0  1  0  0  0  0  0  0  0  0  0
    5.0914    0.8563    1.0175 C   0  0  1  0  0  0  0  0  0  0  0  0
    6.2475   -0.7792   -0.1784 C   0  0  1  0  0  0  0  0  0  0  0  0
    2.2926   -0.0430   -0.0999 C   0  0  2  0  0  0  0  0  0  0  0  0
    2.6138    1.3799   -0.5998 C   0  0  1  0  0  0  0  0  0  0  0  0
    2.1930    1.6576   -2.0331 C   0  0  2  0  0  0  0  0  0  0  0  0
    2.6980    0.5234   -2.9316 C   0  0  2  0  0  0  0  0  0  0  0  0
    2.1571   -0.8086   -2.3971 C   0  0  1  0  0  0  0  0  0  0  0  0
    5.9193    1.4781    2.1371 C   0  0  0  0  0  0  0  0  0  0  0  0
    6.6398   -1.2815   -1.5972 C   0  0  0  0  0  0  0  0  0  0  0  0
    2.6506   -1.9931   -3.2366 C   0  0  0  0  0  0  0  0  0  0  0  0
    5.8336   -2.6708    1.7670 H   0  0  0  0  0  0  0  0  0  0  0  0
    7.0940   -1.1755    1.5505 H   0  0  0  0  0  0  0  0  0  0  0  0
    1.2149    2.3993    0.3402 H   0  0  0  0  0  0  0  0  0  0  0  0
    3.7512    2.8052   -2.3844 H   0  0  0  0  0  0  0  0  0  0  0  0
    4.4786    0.3133   -2.0824 H   0  0  0  0  0  0  0  0  0  0  0  0
    6.7209    2.6516    0.7874 H   0  0  0  0  0  0  0  0  0  0  0  0
    7.1977   -3.0374   -0.9520 H   0  0  0  0  0  0  0  0  0  0  0  0
    2.5280   -3.3001   -1.8099 H   0  0  0  0  0  0  0  0  0  0  0  0
    4.5159   -0.7436    2.3427 H   0  0  0  0  0  0  0  0  0  0  0  0
    4.3924   -1.7557   -0.4753 H   0  0  0  0  0  0  0  0  0  0  0  0
    4.4125    1.6817    0.8528 H   0  0  0  0  0  0  0  0  0  0  0  0
    1.2156   -0.0970    0.1010 H   0  0  0  0  0  0  0  0  0  0  0  0
    3.6815    1.4932   -0.6944 H   0  0  0  0  0  0  0  0  0  0  0  0
    1.1094    1.7715   -2.0945 H   0  0  0  0  0  0  0  0  0  0  0  0
    2.3832    0.6950   -3.9628 H   0  0  0  0  0  0  0  0  0  0  0  0
    1.0618   -0.8032   -2.3842 H   0  0  0  0  0  0  0  0  0  0  0  0
    5.2864    1.6541    3.0131 H   0  0  0  0  0  0  0  0  0  0  0  0
    6.7878    0.8871    2.4144 H   0  0  0  0  0  0  0  0  0  0  0  0
    5.9577   -0.9363   -2.3728 H   0  0  0  0  0  0  0  0  0  0  0  0
    7.6335   -0.9182   -1.8754 H   0  0  0  0  0  0  0  0  0  0  0  0
    2.3040   -1.9015   -4.2689 H   0  0  0  0  0  0  0  0  0  0  0  0
    3.7430   -2.0745   -3.2356 H   0  0  0  0  0  0  0  0  0  0  0  0
  2 14  1  0  0  0  0
  2 15  1  0  0  0  0
  3 16  1  0  0  0  0
  3 20  1  0  0  0  0
  4 24  1  0  0  0  0
  5 25  1  0  0  0  0
  6 26  1  0  0  0  0
  7 27  1  0  0  0  0
  8 28  1  0  0  0  0
  9 21  1  0  0  0  0
  9 29  1  0  0  0  0
 10 22  1  0  0  0  0
 10 30  1  0  0  0  0
 11 23  1  0  0  0  0
 11 31  1  0  0  0  0
 12  1  1  0  0  0  0
 12 13  1  0  0  0  0
 12 14  1  0  0  0  0
 12 32  1  1  0  0  0
 13  4  1  0  0  0  0
 13 15  1  0  0  0  0
 13 33  1  6  0  0  0
 14 21  1  0  0  0  0
 14 34  1  6  0  0  0
 15 22  1  0  0  0  0
 15  5  1  1  0  0  0
 16 17  1  0  0  0  0
 16 35  1  1  0  0  0
 16  1  1  0  0  0  0
 17  6  1  0  0  0  0
 17 18  1  0  0  0  0
 17 36  1  6  0  0  0
 18  7  1  0  0  0  0
 18 19  1  0  0  0  0
 18 37  1  6  0  0  0
 19  8  1  0  0  0  0
 19 20  1  0  0  0  0
 19 38  1  6  0  0  0
 20 23  1  0  0  0  0
 20 39  1  6  0  0  0
 21 40  1  0  0  0  0
 21 41  1  0  0  0  0
 22 42  1  0  0  0  0
 22 43  1  0  0  0  0
 23 44  1  0  0  0  0
 23 45  1  0  0  0  0
M  END
>  <DRUGBANK_ID>
DB00581

>  <SECONDARY_ACCESSION_NUMBERS>
APRD01063

>  <COMMON_NAME>
Lactulose

>  <CAS_NUMBER>
4618-18-2

>  <UNII>
9XH2P2N8EP

>  <SYNONYMS>
4-O-beta-D-Galactopyranosyl-D-fructofuranose; 4-O-beta-D-Galactopyranosyl-D-fructose; Lactulosa; Lactulose; Lactulosum

$$$$
