
 OpenBabel10282417183D

 67 71  0  0  0  0  0  0  0  0999 V2000
    0.9309    1.4530   -2.2409 C   0  0  0  0  0  0  0  0  0  0  0  0
    2.2688    2.7354   -3.3636 C   0  0  0  0  0  0  0  0  0  0  0  0
    6.1615    3.8762   -5.4289 C   0  0  0  0  0  0  0  0  0  0  0  0
    4.9042    4.7354   -4.9637 C   0  0  0  0  0  0  0  0  0  0  0  0
    3.6770    4.0062   -3.6860 O   0  0  0  0  0  0  0  0  0  0  0  0
    6.2644    1.1517   -7.2731 O   0  0  0  0  0  0  0  0  0  0  0  0
    7.2281    2.1048   -6.7813 C   0  0  0  0  0  0  0  0  0  0  0  0
    6.5536    3.4659   -6.6694 C   0  0  0  0  0  0  0  0  0  0  0  0
    5.1055    1.0739   -6.4275 C   0  0  0  0  0  0  0  0  0  0  0  0
    5.3001    1.0400   -2.5743 C   0  0  0  0  0  0  0  0  0  0  0  0
    5.2017    1.4686   -3.9022 C   0  0  0  0  0  0  0  0  0  0  0  0
    5.4535    0.6557   -5.0189 C   0  0  0  0  0  0  0  0  0  0  0  0
    6.0869   -0.5482   -4.7985 C   0  0  0  0  0  0  0  0  0  0  0  0
    6.4453   -0.8947   -3.5025 C   0  0  0  0  0  0  0  0  0  0  0  0
    5.9706   -0.1607   -2.4060 C   0  0  0  0  0  0  0  0  0  0  0  0
    3.4327    1.9641   -1.3107 N   0  0  0  0  0  0  0  0  0  0  0  0
    4.7553    1.7974   -1.4202 C   0  0  0  0  0  0  0  0  0  0  0  0
    5.5297    2.2881   -0.4141 C   0  0  0  0  0  0  0  0  0  0  0  0
    4.9571    3.2617    0.3697 C   0  0  0  0  0  0  0  0  0  0  0  0
    3.6666    3.4877    0.4786 N   0  0  0  0  0  0  0  0  0  0  0  0
    2.9375    2.7487   -0.3015 C   0  0  0  0  0  0  0  0  0  0  0  0
    0.1679    1.7715   -1.1701 C   0  0  0  0  0  0  0  0  0  0  0  0
    0.9596    1.4625   -0.0178 C   0  0  0  0  0  0  0  0  0  0  0  0
    1.5678    0.2250    0.2740 C   0  0  0  0  0  0  0  0  0  0  0  0
    1.0418   -0.7756   -0.4217 C   0  0  0  0  0  0  0  0  0  0  0  0
    0.6163   -0.2678   -1.7855 C   0  0  0  0  0  0  0  0  0  0  0  0
    1.6572    2.6669    0.2157 N   0  0  0  0  0  0  0  0  0  0  0  0
   -0.7203   -1.3185   -1.0500 O   0  0  0  0  0  0  0  0  0  0  0  0
   -2.2635   -2.1745   -0.6167 C   0  0  0  0  0  0  0  0  0  0  0  0
   -3.1600   -1.8264    0.7909 C   0  0  0  0  0  0  0  0  0  0  0  0
   -2.9594   -0.4387    0.9380 N   0  0  0  0  0  0  0  0  0  0  0  0
   -2.9788    0.3753    2.1034 C   0  0  0  0  0  0  0  0  0  0  0  0
   -3.5910    1.6421    1.5065 C   0  0  0  0  0  0  0  0  0  0  0  0
   -3.0987    1.7178    0.0790 C   0  0  0  0  0  0  0  0  0  0  0  0
   -2.8524    0.3024   -0.2861 C   0  0  0  0  0  0  0  0  0  0  0  0
    2.6872    2.1922   -4.1968 H   0  0  0  0  0  0  0  0  0  0  0  0
    1.6355    3.5442   -3.7869 H   0  0  0  0  0  0  0  0  0  0  0  0
    6.7968    3.5710   -4.6001 H   0  0  0  0  0  0  0  0  0  0  0  0
    5.6259    5.6600   -4.5826 H   0  0  0  0  0  0  0  0  0  0  0  0
    4.6717    5.3342   -5.9690 H   0  0  0  0  0  0  0  0  0  0  0  0
    7.5807    1.7584   -5.8053 H   0  0  0  0  0  0  0  0  0  0  0  0
    8.0897    2.0825   -7.4530 H   0  0  0  0  0  0  0  0  0  0  0  0
    6.1478    3.8306   -7.6154 H   0  0  0  0  0  0  0  0  0  0  0  0
    4.4050    0.3474   -6.8563 H   0  0  0  0  0  0  0  0  0  0  0  0
    4.5741    2.0305   -6.4547 H   0  0  0  0  0  0  0  0  0  0  0  0
    4.9249    2.4820   -4.0895 H   0  0  0  0  0  0  0  0  0  0  0  0
    6.3187   -1.1874   -5.6448 H   0  0  0  0  0  0  0  0  0  0  0  0
    7.0649   -1.7676   -3.3436 H   0  0  0  0  0  0  0  0  0  0  0  0
    6.1032   -0.5455   -1.4032 H   0  0  0  0  0  0  0  0  0  0  0  0
    6.5485    1.9908   -0.2719 H   0  0  0  0  0  0  0  0  0  0  0  0
    5.5280    3.9847    0.9196 H   0  0  0  0  0  0  0  0  0  0  0  0
   -0.4916    2.2202   -0.3916 H   0  0  0  0  0  0  0  0  0  0  0  0
    2.6440    0.1513    0.0815 H   0  0  0  0  0  0  0  0  0  0  0  0
    1.1203   -1.7970    0.0079 H   0  0  0  0  0  0  0  0  0  0  0  0
    1.0745    3.4430   -0.1076 H   0  0  0  0  0  0  0  0  0  0  0  0
   -2.9421   -1.9563   -1.4365 H   0  0  0  0  0  0  0  0  0  0  0  0
   -2.3516   -3.3277   -0.5781 H   0  0  0  0  0  0  0  0  0  0  0  0
   -4.2678   -2.0312    0.6731 H   0  0  0  0  0  0  0  0  0  0  0  0
   -2.9445   -2.4562    1.6832 H   0  0  0  0  0  0  0  0  0  0  0  0
   -1.9534    0.5543    2.4541 H   0  0  0  0  0  0  0  0  0  0  0  0
   -3.5650    0.0059    2.9502 H   0  0  0  0  0  0  0  0  0  0  0  0
   -4.6789    1.5577    1.4725 H   0  0  0  0  0  0  0  0  0  0  0  0
   -3.3065    2.5316    2.0667 H   0  0  0  0  0  0  0  0  0  0  0  0
   -3.7413    2.1776   -0.6659 H   0  0  0  0  0  0  0  0  0  0  0  0
   -2.2216    2.3450    0.0609 H   0  0  0  0  0  0  0  0  0  0  0  0
   -3.5402   -0.0541   -1.0593 H   0  0  0  0  0  0  0  0  0  0  0  0
   -1.8712    0.2171   -0.7044 H   0  0  0  0  0  0  0  0  0  0  0  0
  1  2  1  0  0  0  0
  1 22  2  0  0  0  0
  1 26  1  0  0  0  0
  2  5  1  0  0  0  0
  2 36  1  0  0  0  0
  2 37  1  0  0  0  0
  3  4  1  0  0  0  0
  3  8  2  0  0  0  0
  3 38  1  0  0  0  0
  4  5  1  0  0  0  0
  4 39  1  0  0  0  0
  4 40  1  0  0  0  0
  6  7  1  0  0  0  0
  6  9  1  0  0  0  0
  7  8  1  0  0  0  0
  7 41  1  0  0  0  0
  7 42  1  0  0  0  0
  8 43  1  0  0  0  0
  9 12  1  0  0  0  0
  9 44  1  0  0  0  0
  9 45  1  0  0  0  0
 10 11  2  0  0  0  0
 10 17  1  0  0  0  0
 10 15  1  0  0  0  0
 11 12  1  0  0  0  0
 11 46  1  0  0  0  0
 12 13  2  0  0  0  0
 13 14  1  0  0  0  0
 13 47  1  0  0  0  0
 14 15  2  0  0  0  0
 14 48  1  0  0  0  0
 15 49  1  0  0  0  0
 16 21  1  0  0  0  0
 16 17  2  0  0  0  0
 17 18  1  0  0  0  0
 18 19  2  0  0  0  0
 18 50  1  0  0  0  0
 19 20  1  0  0  0  0
 19 51  1  0  0  0  0
 20 21  2  0  0  0  0
 21 27  1  0  0  0  0
 22 23  1  0  0  0  0
 22 52  1  0  0  0  0
 23 24  2  0  0  0  0
 23 27  1  0  0  0  0
 24 25  1  0  0  0  0
 24 53  1  0  0  0  0
 25 26  2  0  0  0  0
 25 54  1  0  0  0  0
 26 28  1  0  0  0  0
 27 55  1  0  0  0  0
 28 29  1  0  0  0  0
 29 30  1  0  0  0  0
 29 56  1  0  0  0  0
 29 57  1  0  0  0  0
 30 31  1  0  0  0  0
 30 58  1  0  0  0  0
 30 59  1  0  0  0  0
 31 32  1  0  0  0  0
 31 35  1  0  0  0  0
 32 33  1  0  0  0  0
 32 60  1  0  0  0  0
 32 61  1  0  0  0  0
 33 34  1  0  0  0  0
 33 62  1  0  0  0  0
 33 63  1  0  0  0  0
 34 35  1  0  0  0  0
 34 64  1  0  0  0  0
 34 65  1  0  0  0  0
 35 66  1  0  0  0  0
 35 67  1  0  0  0  0
M  END
>  <DRUGBANK_ID>
DB11697

>  <COMMON_NAME>
Pacritinib

>  <CAS_NUMBER>
937272-79-2

>  <UNII>
G22N65IL3O

>  <SYNONYMS>
Pacritinib; Pacritinibum

$$$$
