
 OpenBabel10282417153D

 73 76  0  0  1  0  0  0  0  0999 V2000
    5.7597    0.1122    0.2643 C   0  0  0  0  0  0  0  0  0  0  0  0
    4.5717   -0.5489    0.9146 C   0  0  0  0  0  0  0  0  0  0  0  0
    4.0930   -1.5087    0.3575 O   0  0  0  0  0  0  0  0  0  0  0  0
    3.9569   -0.0303    2.0449 N   0  0  0  0  0  0  0  0  0  0  0  0
    4.0583    1.1816    3.0091 C   0  0  3  0  0  0  0  0  0  0  0  0
    2.9309    2.2232    2.7392 C   0  0  0  0  0  0  0  0  0  0  0  0
    3.1683    2.8541    1.3854 C   0  0  0  0  0  0  0  0  0  0  0  0
    4.4483    3.5578    1.2003 N   0  0  0  0  0  0  0  0  0  0  0  0
    5.5320    2.7372    1.6826 C   0  0  0  0  0  0  0  0  0  0  0  0
    5.3979    1.9584    2.9459 C   0  0  0  0  0  0  0  0  0  0  0  0
    4.7009    3.8717   -0.2388 C   0  0  0  0  0  0  0  0  0  0  0  0
    4.5394    2.8569   -1.4352 C   0  0  0  0  0  0  0  0  0  0  0  0
    3.1261    2.2396   -1.6235 C   0  0  2  0  0  0  0  0  0  0  0  0
    3.0794    0.6381   -1.6804 C   0  0  0  0  0  0  0  0  0  0  0  0
    2.1944   -0.0562   -2.6244 N   0  0  0  0  0  0  0  0  0  0  0  0
    2.8736   -0.4028   -3.8950 C   0  0  0  0  0  0  0  0  0  0  0  0
    0.7713    0.1130   -2.3984 C   0  0  0  0  0  0  0  0  0  0  0  0
    0.3321    0.5635   -1.3373 O   0  0  0  0  0  0  0  0  0  0  0  0
   -0.2109   -0.0366   -3.5466 C   0  0  0  0  0  0  0  0  0  0  0  0
   -0.0589   -1.1124   -4.4024 C   0  0  0  0  0  0  0  0  0  0  0  0
   -0.8570   -1.2530   -5.5353 C   0  0  0  0  0  0  0  0  0  0  0  0
   -1.8215   -0.3005   -5.8522 C   0  0  0  0  0  0  0  0  0  0  0  0
   -2.0122    0.7885   -5.0088 C   0  0  0  0  0  0  0  0  0  0  0  0
   -1.2391    0.9003   -3.8352 C   0  0  0  0  0  0  0  0  0  0  0  0
    2.3518    3.1500   -2.5409 C   0  0  0  0  0  0  0  0  0  0  0  0
    1.5727    2.6086   -3.5114 C   0  0  0  0  0  0  0  0  0  0  0  0
    0.6564    3.2714   -4.2723 C   0  0  0  0  0  0  0  0  0  0  0  0
    0.5188    4.6149   -4.1104 C   0  0  0  0  0  0  0  0  0  0  0  0
    1.3829    5.2663   -3.2375 C   0  0  0  0  0  0  0  0  0  0  0  0
    2.3157    4.5381   -2.4847 C   0  0  0  0  0  0  0  0  0  0  0  0
    1.4140    6.9782   -3.1053 Cl  0  0  0  0  0  0  0  0  0  0  0  0
   -0.6086    5.3659   -5.1546 Cl  0  0  0  0  0  0  0  0  0  0  0  0
    3.9227    0.6399    4.4410 C   0  0  0  0  0  0  0  0  0  0  0  0
    2.7411    0.0527    4.9083 C   0  0  0  0  0  0  0  0  0  0  0  0
    2.6919   -0.4651    6.2055 C   0  0  0  0  0  0  0  0  0  0  0  0
    3.8137   -0.4198    7.0377 C   0  0  0  0  0  0  0  0  0  0  0  0
    4.9885    0.1499    6.5903 C   0  0  0  0  0  0  0  0  0  0  0  0
    5.0207    0.7021    5.3273 C   0  0  0  0  0  0  0  0  0  0  0  0
    6.1728   -0.3318   -0.6387 H   0  0  0  0  0  0  0  0  0  0  0  0
    6.5574    0.3589    0.9610 H   0  0  0  0  0  0  0  0  0  0  0  0
    5.3072    0.9641   -0.2003 H   0  0  0  0  0  0  0  0  0  0  0  0
    3.1124   -0.5777    2.1911 H   0  0  0  0  0  0  0  0  0  0  0  0
    1.9403    1.7462    2.7149 H   0  0  0  0  0  0  0  0  0  0  0  0
    2.8944    3.0088    3.5029 H   0  0  0  0  0  0  0  0  0  0  0  0
    3.1702    1.9572    0.7775 H   0  0  0  0  0  0  0  0  0  0  0  0
    2.3303    3.4929    1.0876 H   0  0  0  0  0  0  0  0  0  0  0  0
    6.5563    3.0399    1.4459 H   0  0  0  0  0  0  0  0  0  0  0  0
    5.3712    1.9436    1.0502 H   0  0  0  0  0  0  0  0  0  0  0  0
    5.5146    2.6720    3.7691 H   0  0  0  0  0  0  0  0  0  0  0  0
    6.2097    1.2173    2.9901 H   0  0  0  0  0  0  0  0  0  0  0  0
    4.0592    4.7255   -0.4158 H   0  0  0  0  0  0  0  0  0  0  0  0
    5.7171    4.2824   -0.3301 H   0  0  0  0  0  0  0  0  0  0  0  0
    4.7736    3.4142   -2.3553 H   0  0  0  0  0  0  0  0  0  0  0  0
    5.3549    2.1335   -1.4927 H   0  0  0  0  0  0  0  0  0  0  0  0
    2.5030    2.3937   -0.7536 H   0  0  0  0  0  0  0  0  0  0  0  0
    4.0880    0.2383   -1.8291 H   0  0  0  0  0  0  0  0  0  0  0  0
    2.7610    0.2754   -0.6960 H   0  0  0  0  0  0  0  0  0  0  0  0
    2.5814   -1.3829   -4.2553 H   0  0  0  0  0  0  0  0  0  0  0  0
    2.6801    0.3379   -4.6744 H   0  0  0  0  0  0  0  0  0  0  0  0
    3.9600   -0.4301   -3.7534 H   0  0  0  0  0  0  0  0  0  0  0  0
    0.6768   -1.8693   -4.1763 H   0  0  0  0  0  0  0  0  0  0  0  0
   -0.7222   -2.1313   -6.1566 H   0  0  0  0  0  0  0  0  0  0  0  0
   -2.4329   -0.4262   -6.7429 H   0  0  0  0  0  0  0  0  0  0  0  0
   -2.7496    1.5482   -5.2748 H   0  0  0  0  0  0  0  0  0  0  0  0
   -1.3998    1.7867   -3.2180 H   0  0  0  0  0  0  0  0  0  0  0  0
    1.6721    1.5972   -3.7615 H   0  0  0  0  0  0  0  0  0  0  0  0
    0.1103    2.6862   -4.9970 H   0  0  0  0  0  0  0  0  0  0  0  0
    3.0541    5.0978   -1.9308 H   0  0  0  0  0  0  0  0  0  0  0  0
    1.8535   -0.0110    4.2813 H   0  0  0  0  0  0  0  0  0  0  0  0
    1.7777   -0.9243    6.5688 H   0  0  0  0  0  0  0  0  0  0  0  0
    3.7797   -0.8256    8.0414 H   0  0  0  0  0  0  0  0  0  0  0  0
    5.8914    0.1748    7.1916 H   0  0  0  0  0  0  0  0  0  0  0  0
    5.9569    1.1889    5.0743 H   0  0  0  0  0  0  0  0  0  0  0  0
  1  2  1  0  0  0  0
  1 39  1  0  0  0  0
  1 40  1  0  0  0  0
  1 41  1  0  0  0  0
  2  3  2  0  0  0  0
  2  4  1  0  0  0  0
  4  5  1  0  0  0  0
  4 42  1  0  0  0  0
  5  6  1  0  0  0  0
  5 10  1  0  0  0  0
  5 33  1  0  0  0  0
  6  7  1  0  0  0  0
  6 43  1  0  0  0  0
  6 44  1  0  0  0  0
  7  8  1  0  0  0  0
  7 45  1  0  0  0  0
  7 46  1  0  0  0  0
  8  9  1  0  0  0  0
  8 11  1  0  0  0  0
  9 10  1  0  0  0  0
  9 47  1  0  0  0  0
  9 48  1  0  0  0  0
 10 49  1  0  0  0  0
 10 50  1  0  0  0  0
 11 12  1  0  0  0  0
 11 51  1  0  0  0  0
 11 52  1  0  0  0  0
 12 53  1  0  0  0  0
 12 54  1  0  0  0  0
 13 25  1  0  0  0  0
 13 55  1  1  0  0  0
 13 14  1  0  0  0  0
 13 12  1  0  0  0  0
 14 15  1  0  0  0  0
 14 56  1  0  0  0  0
 14 57  1  0  0  0  0
 15 16  1  0  0  0  0
 15 17  1  0  0  0  0
 16 58  1  0  0  0  0
 16 59  1  0  0  0  0
 16 60  1  0  0  0  0
 17 18  2  0  0  0  0
 17 19  1  0  0  0  0
 19 20  2  0  0  0  0
 19 24  1  0  0  0  0
 20 21  1  0  0  0  0
 20 61  1  0  0  0  0
 21 22  2  0  0  0  0
 21 62  1  0  0  0  0
 22 23  1  0  0  0  0
 22 63  1  0  0  0  0
 23 24  2  0  0  0  0
 23 64  1  0  0  0  0
 24 65  1  0  0  0  0
 25 26  2  0  0  0  0
 25 30  1  0  0  0  0
 26 27  1  0  0  0  0
 26 66  1  0  0  0  0
 27 28  2  0  0  0  0
 27 67  1  0  0  0  0
 28 29  1  0  0  0  0
 28 32  1  0  0  0  0
 29 30  2  0  0  0  0
 29 31  1  0  0  0  0
 30 68  1  0  0  0  0
 33 34  2  0  0  0  0
 33 38  1  0  0  0  0
 34 35  1  0  0  0  0
 34 69  1  0  0  0  0
 35 36  2  0  0  0  0
 35 70  1  0  0  0  0
 36 37  1  0  0  0  0
 36 71  1  0  0  0  0
 37 38  2  0  0  0  0
 37 72  1  0  0  0  0
 38 73  1  0  0  0  0
M  END
>  <DRUGBANK_ID>
DB06660

>  <COMMON_NAME>
Saredutant

>  <CAS_NUMBER>
142001-63-6

>  <UNII>
720U2QK8I5

>  <SYNONYMS>
Saredutant

$$$$
