
 OpenBabel10282417223D

 44 46  0  0  0  0  0  0  0  0999 V2000
    2.3359   -0.2615   -0.7254 F   0  0  0  0  0  0  0  0  0  0  0  0
    1.0377   -0.5848   -0.1538 C   0  0  0  0  0  0  0  0  0  0  0  0
    1.1100   -1.9438   -0.7139 C   0  0  0  0  0  0  0  0  0  0  0  0
   -0.2758   -2.4271   -1.1405 C   0  0  0  0  0  0  0  0  0  0  0  0
   -1.8419   -1.4207   -1.2203 C   0  0  0  0  0  0  0  0  0  0  0  0
   -2.0110    0.2508   -0.2959 C   0  0  0  0  0  0  0  0  0  0  0  0
   -3.0820    1.0457   -0.1857 F   0  0  0  0  0  0  0  0  0  0  0  0
   -0.3688    0.7585    0.3722 C   0  0  0  0  0  0  0  0  0  0  0  0
   -0.1591    2.5848    0.3324 C   0  0  0  0  0  0  0  0  0  0  0  0
   -1.1331    3.3010    0.0958 O   0  0  0  0  0  0  0  0  0  0  0  0
    1.2765    3.2743    0.2162 N   0  0  0  0  0  0  0  0  0  0  0  0
    2.7211    2.8631    0.1392 C   0  0  0  0  0  0  0  0  0  0  0  0
    3.6835    3.5584   -0.1397 O   0  0  0  0  0  0  0  0  0  0  0  0
    2.9193    1.5803    0.5451 N   0  0  0  0  0  0  0  0  0  0  0  0
    1.6772    1.0951    0.5588 C   0  0  0  0  0  0  0  0  0  0  0  0
    0.9080    1.1300   -1.1717 C   0  0  0  0  0  0  0  0  0  0  0  0
    0.7476    2.1810   -2.0009 F   0  0  0  0  0  0  0  0  0  0  0  0
   -0.3523   -0.0847   -1.2792 C   0  0  0  0  0  0  0  0  0  0  0  0
   -0.7615   -1.0981    0.4162 C   0  0  0  0  0  0  0  0  0  0  0  0
   -2.3584   -1.5212    0.7968 O   0  0  0  0  0  0  0  0  0  0  0  0
   -2.6417   -2.7986    1.1820 C   0  0  0  0  0  0  0  0  0  0  0  0
   -2.6670   -2.7348    2.5425 C   0  0  0  0  0  0  0  0  0  0  0  0
   -2.5570   -1.2291    3.4044 Cl  0  0  0  0  0  0  0  0  0  0  0  0
   -2.6704   -3.9062    3.1996 C   0  0  0  0  0  0  0  0  0  0  0  0
   -2.7974   -5.1240    2.5112 C   0  0  0  0  0  0  0  0  0  0  0  0
   -2.8772   -5.1917    1.1157 C   0  0  0  0  0  0  0  0  0  0  0  0
   -2.8211   -4.0034    0.4127 C   0  0  0  0  0  0  0  0  0  0  0  0
   -2.9078   -6.3405    3.3595 C   0  0  0  0  0  0  0  0  0  0  0  0
   -1.8046   -6.5022    4.1327 F   0  0  0  0  0  0  0  0  0  0  0  0
   -3.9688   -6.2541    4.2026 F   0  0  0  0  0  0  0  0  0  0  0  0
   -3.0632   -7.4791    2.6432 F   0  0  0  0  0  0  0  0  0  0  0  0
    0.0120   -1.1512    1.8001 C   0  0  0  0  0  0  0  0  0  0  0  0
    1.3211   -0.1212    1.8556 C   0  0  0  0  0  0  0  0  0  0  0  0
    2.0854   -2.2924   -0.3054 H   0  0  0  0  0  0  0  0  0  0  0  0
   -0.2534   -3.2697   -0.3333 H   0  0  0  0  0  0  0  0  0  0  0  0
   -2.4805   -2.2641   -1.0177 H   0  0  0  0  0  0  0  0  0  0  0  0
    1.2162    4.2548   -0.0150 H   0  0  0  0  0  0  0  0  0  0  0  0
    3.5458    0.9404    0.0375 H   0  0  0  0  0  0  0  0  0  0  0  0
   -1.1712    0.3251   -2.0342 H   0  0  0  0  0  0  0  0  0  0  0  0
   -2.5986   -3.8271    4.2694 H   0  0  0  0  0  0  0  0  0  0  0  0
   -2.9703   -6.1622    0.6193 H   0  0  0  0  0  0  0  0  0  0  0  0
   -2.8626   -4.1090   -0.6848 H   0  0  0  0  0  0  0  0  0  0  0  0
    0.0063   -2.2457    2.0207 H   0  0  0  0  0  0  0  0  0  0  0  0
    2.1616   -0.8949    1.8947 H   0  0  0  0  0  0  0  0  0  0  0  0
  1  2  1  0  0  0  0
  2  3  2  0  0  0  0
  2  8  1  0  0  0  0
  3  4  1  0  0  0  0
  3 34  1  0  0  0  0
  4  5  2  0  0  0  0
  4 35  1  0  0  0  0
  5  6  1  0  0  0  0
  5 36  1  0  0  0  0
  6  7  1  0  0  0  0
  6  8  2  0  0  0  0
  8  9  1  0  0  0  0
  9 10  2  0  0  0  0
  9 11  1  0  0  0  0
 11 12  1  0  0  0  0
 11 37  1  0  0  0  0
 12 13  2  0  0  0  0
 12 14  1  0  0  0  0
 14 15  1  0  0  0  0
 14 38  1  0  0  0  0
 15 16  2  0  0  0  0
 15 33  1  0  0  0  0
 16 17  1  0  0  0  0
 16 18  1  0  0  0  0
 18 19  2  0  0  0  0
 18 39  1  0  0  0  0
 19 20  1  0  0  0  0
 19 32  1  0  0  0  0
 20 21  1  0  0  0  0
 21 22  2  0  0  0  0
 21 27  1  0  0  0  0
 22 23  1  0  0  0  0
 22 24  1  0  0  0  0
 24 25  2  0  0  0  0
 24 40  1  0  0  0  0
 25 26  1  0  0  0  0
 25 28  1  0  0  0  0
 26 27  2  0  0  0  0
 26 41  1  0  0  0  0
 27 42  1  0  0  0  0
 28 29  1  0  0  0  0
 28 30  1  0  0  0  0
 28 31  1  0  0  0  0
 32 33  2  0  0  0  0
 32 43  1  0  0  0  0
 33 44  1  0  0  0  0
M  END
>  <DRUGBANK_ID>
DB15006

>  <COMMON_NAME>
Flufenoxuron

>  <CAS_NUMBER>
101463-69-8

>  <UNII>
OD068OSS0N

>  <SYNONYMS>
CASCADE

$$$$
