GLE
 OpenBabel10282417163D

 58 57  0  0  0  0  0  0  0  0999 V2000
    0.6941   -1.5007   -1.8160 C   0  0  0  0  0  0  0  0  0  0  0  0
    0.4400   -1.9049   -3.1504 O   0  0  0  0  0  0  0  0  0  0  0  0
    0.1873   -0.1633   -1.3334 C   0  0  2  0  0  0  0  0  0  0  0  0
    0.9390    0.0302   -0.0074 O   0  0  0  0  0  0  0  0  0  0  0  0
   -1.3758   -0.2473   -1.4863 C   0  0  0  0  0  0  0  0  0  0  0  0
   -2.2676    0.8002   -1.0687 O   0  0  0  0  0  0  0  0  0  0  0  0
   -2.1547    1.0750    0.3212 C   0  0  0  0  0  0  0  0  0  0  0  0
   -2.3998   -0.0117    1.3644 C   0  0  0  0  0  0  0  0  0  0  0  0
   -1.6497   -1.1168    1.1037 F   0  0  0  0  0  0  0  0  0  0  0  0
   -2.0413    0.3692    2.6160 F   0  0  0  0  0  0  0  0  0  0  0  0
   -3.6886   -0.3808    1.4198 F   0  0  0  0  0  0  0  0  0  0  0  0
    0.9672    1.6433    0.6172 P   0  0  1  0  0  0  0  0  0  0  0  0
    0.3219    2.1580   -0.6597 O   0  0  0  0  0  0  0  0  0  0  0  0
    0.0403    1.1937    1.8504 O   0  0  0  0  0  0  0  0  0  0  0  0
    0.5776    4.3160    0.3805 C   0  0  0  0  0  0  0  0  0  0  0  0
    0.9954    3.2563    1.2418 O   0  0  0  0  0  0  0  0  0  0  0  0
    1.4187   -2.8588   -3.6039 C   0  0  0  0  0  0  0  0  0  0  0  0
    2.8508   -2.2800   -3.7209 C   0  0  0  0  0  0  0  0  0  0  0  0
    3.5718   -1.8867   -2.4153 C   0  0  0  0  0  0  0  0  0  0  0  0
    3.4350   -3.0064   -1.3663 C   0  0  0  0  0  0  0  0  0  0  0  0
    4.3768   -4.1321   -1.7546 C   0  0  0  0  0  0  0  0  0  0  0  0
    5.8057   -3.5888   -1.8066 C   0  0  0  0  0  0  0  0  0  0  0  0
    6.1970   -2.9905   -0.4476 C   0  0  0  0  0  0  0  0  0  0  0  0
    6.2094   -4.0825    0.6244 C   0  0  0  0  0  0  0  0  0  0  0  0
    7.1567   -5.2181    0.2354 C   0  0  0  0  0  0  0  0  0  0  0  0
    8.5723   -4.6916    0.0584 C   0  0  0  0  0  0  0  0  0  0  0  0
    0.5810    0.5732   -2.0506 H   0  0  0  0  0  0  0  0  0  0  0  0
    1.7056   -1.2362   -1.7845 H   0  0  0  0  0  0  0  0  0  0  0  0
    0.5550   -2.3085   -1.0945 H   0  0  0  0  0  0  0  0  0  0  0  0
   -1.5726   -0.3386   -2.5636 H   0  0  0  0  0  0  0  0  0  0  0  0
   -1.7400   -1.1750   -1.0462 H   0  0  0  0  0  0  0  0  0  0  0  0
   -1.1263    1.1580    0.3505 H   0  0  0  0  0  0  0  0  0  0  0  0
   -2.4599    2.0916    0.5944 H   0  0  0  0  0  0  0  0  0  0  0  0
    0.3087    0.3117    2.2274 H   0  0  0  0  0  0  0  0  0  0  0  0
    1.2476    4.3756   -0.4849 H   0  0  0  0  0  0  0  0  0  0  0  0
   -0.4574    4.1586    0.0537 H   0  0  0  0  0  0  0  0  0  0  0  0
    0.6139    5.2657    0.9142 H   0  0  0  0  0  0  0  0  0  0  0  0
    1.3782   -3.7587   -2.9768 H   0  0  0  0  0  0  0  0  0  0  0  0
    1.1083   -3.1984   -4.5988 H   0  0  0  0  0  0  0  0  0  0  0  0
    3.4728   -3.0380   -4.2138 H   0  0  0  0  0  0  0  0  0  0  0  0
    2.8393   -1.4080   -4.3797 H   0  0  0  0  0  0  0  0  0  0  0  0
    4.5978   -1.6277   -2.6612 H   0  0  0  0  0  0  0  0  0  0  0  0
    3.3144   -0.9063   -1.9975 H   0  0  0  0  0  0  0  0  0  0  0  0
    3.6201   -2.6207   -0.3572 H   0  0  0  0  0  0  0  0  0  0  0  0
    2.4279   -3.4191   -1.2706 H   0  0  0  0  0  0  0  0  0  0  0  0
    4.2760   -4.9627   -1.0486 H   0  0  0  0  0  0  0  0  0  0  0  0
    4.0912   -4.5516   -2.7245 H   0  0  0  0  0  0  0  0  0  0  0  0
    6.4825   -4.3738   -2.1429 H   0  0  0  0  0  0  0  0  0  0  0  0
    5.9419   -2.8364   -2.5854 H   0  0  0  0  0  0  0  0  0  0  0  0
    7.1646   -2.4902   -0.5306 H   0  0  0  0  0  0  0  0  0  0  0  0
    5.5285   -2.1802   -0.1346 H   0  0  0  0  0  0  0  0  0  0  0  0
    6.5014   -3.6506    1.5863 H   0  0  0  0  0  0  0  0  0  0  0  0
    5.2003   -4.4849    0.7805 H   0  0  0  0  0  0  0  0  0  0  0  0
    7.1294   -5.9986    0.9990 H   0  0  0  0  0  0  0  0  0  0  0  0
    6.8283   -5.7093   -0.6884 H   0  0  0  0  0  0  0  0  0  0  0  0
    8.9170   -4.2387    0.9923 H   0  0  0  0  0  0  0  0  0  0  0  0
    9.2506   -5.4954   -0.2281 H   0  0  0  0  0  0  0  0  0  0  0  0
    8.6381   -3.9306   -0.7268 H   0  0  0  0  0  0  0  0  0  0  0  0
  1  2  1  0  0  0  0
  1 28  1  0  0  0  0
  1 29  1  0  0  0  0
  2 17  1  0  0  0  0
  3  5  1  0  0  0  0
  3 27  1  6  0  0  0
  3  4  1  0  0  0  0
  3  1  1  0  0  0  0
  5  6  1  0  0  0  0
  5 30  1  0  0  0  0
  5 31  1  0  0  0  0
  6  7  1  0  0  0  0
  7  8  1  0  0  0  0
  7 32  1  0  0  0  0
  7 33  1  0  0  0  0
  8  9  1  0  0  0  0
  8 10  1  0  0  0  0
  8 11  1  0  0  0  0
 12  4  1  0  0  0  0
 12 13  2  6  0  0  0
 12 14  1  0  0  0  0
 12 16  1  0  0  0  0
 14 34  1  0  0  0  0
 15 16  1  0  0  0  0
 15 35  1  0  0  0  0
 15 36  1  0  0  0  0
 15 37  1  0  0  0  0
 17 18  1  0  0  0  0
 17 38  1  0  0  0  0
 17 39  1  0  0  0  0
 18 19  1  0  0  0  0
 18 40  1  0  0  0  0
 18 41  1  0  0  0  0
 19 20  1  0  0  0  0
 19 42  1  0  0  0  0
 19 43  1  0  0  0  0
 20 21  1  0  0  0  0
 20 44  1  0  0  0  0
 20 45  1  0  0  0  0
 21 22  1  0  0  0  0
 21 46  1  0  0  0  0
 21 47  1  0  0  0  0
 22 23  1  0  0  0  0
 22 48  1  0  0  0  0
 22 49  1  0  0  0  0
 23 24  1  0  0  0  0
 23 50  1  0  0  0  0
 23 51  1  0  0  0  0
 24 25  1  0  0  0  0
 24 52  1  0  0  0  0
 24 53  1  0  0  0  0
 25 26  1  0  0  0  0
 25 54  1  0  0  0  0
 25 55  1  0  0  0  0
 26 56  1  0  0  0  0
 26 57  1  0  0  0  0
 26 58  1  0  0  0  0
M  END
>  <DRUGBANK_ID>
DB07836

>  <COMMON_NAME>
1-DECYL-3-TRIFLUORO ETHYL-SN-GLYCERO-2-PHOSPHOMETHANOL

$$$$
