
 OpenBabel10282417123D

 23 24  0  0  0  0  0  0  0  0999 V2000
    0.8091    0.0463    0.2852 N   0  0  0  0  0  0  0  0  0  0  0  0
    0.1464   -1.1117    0.5617 C   0  0  0  0  0  0  0  0  0  0  0  0
   -0.8410   -1.5432   -0.1538 N   0  0  0  0  0  0  0  0  0  0  0  0
   -1.4839   -2.7044    0.2356 C   0  0  0  0  0  0  0  0  0  0  0  0
   -1.2019   -3.3771    1.3837 C   0  0  0  0  0  0  0  0  0  0  0  0
   -1.8522   -4.5200    1.8365 N   0  0  0  0  0  0  0  0  0  0  0  0
   -2.8290   -4.9775    1.1070 C   0  0  0  0  0  0  0  0  0  0  0  0
   -3.5856   -6.2320    1.5481 C   0  0  0  0  0  0  0  0  0  0  0  0
   -2.7715   -7.3826    1.6563 O   0  0  0  0  0  0  0  0  0  0  0  0
   -3.3047   -4.3480   -0.1955 C   0  0  0  0  0  0  0  0  0  0  0  0
   -2.4836   -3.2204   -0.5719 N   0  0  0  0  0  0  0  0  0  0  0  0
   -0.0809   -2.8272    2.2021 C   0  0  0  0  0  0  0  0  0  0  0  0
    0.2505   -3.2848    3.2969 O   0  0  0  0  0  0  0  0  0  0  0  0
    0.5756   -1.7582    1.6726 N   0  0  0  0  0  0  0  0  0  0  0  0
    0.4055    0.5663   -0.4870 H   0  0  0  0  0  0  0  0  0  0  0  0
    1.8118   -0.0540    0.1592 H   0  0  0  0  0  0  0  0  0  0  0  0
   -4.0566   -6.0412    2.5175 H   0  0  0  0  0  0  0  0  0  0  0  0
   -4.3813   -6.4520    0.8292 H   0  0  0  0  0  0  0  0  0  0  0  0
   -2.2762   -7.4803    0.8261 H   0  0  0  0  0  0  0  0  0  0  0  0
   -4.3460   -4.0393   -0.0597 H   0  0  0  0  0  0  0  0  0  0  0  0
   -3.2609   -5.1172   -0.9733 H   0  0  0  0  0  0  0  0  0  0  0  0
   -2.7075   -2.6737   -1.3936 H   0  0  0  0  0  0  0  0  0  0  0  0
    1.2807   -1.3411    2.2566 H   0  0  0  0  0  0  0  0  0  0  0  0
  1  2  1  0  0  0  0
  1 15  1  0  0  0  0
  1 16  1  0  0  0  0
  2  3  2  0  0  0  0
  2 14  1  0  0  0  0
  3  4  1  0  0  0  0
  4  5  2  0  0  0  0
  4 11  1  0  0  0  0
  5  6  1  0  0  0  0
  5 12  1  0  0  0  0
  6  7  2  0  0  0  0
  7  8  1  0  0  0  0
  7 10  1  0  0  0  0
  8  9  1  0  0  0  0
  8 17  1  0  0  0  0
  8 18  1  0  0  0  0
  9 19  1  0  0  0  0
 10 11  1  0  0  0  0
 10 20  1  0  0  0  0
 10 21  1  0  0  0  0
 11 22  1  0  0  0  0
 12 13  2  0  0  0  0
 12 14  1  0  0  0  0
 14 23  1  0  0  0  0
M  END
>  <DRUGBANK_ID>
DB02119

>  <SECONDARY_ACCESSION_NUMBERS>
EXPT01746

>  <COMMON_NAME>
6-Hydroxymethyl-7,8-Dihydropterin

>  <CAS_NUMBER>
3672-03-5

>  <UNII>
B46L5LR2XM

$$$$
