
 OpenBabel10282417173D

 26 26  0  0  0  0  0  0  0  0999 V2000
    1.4342   -0.2045    0.1275 C   0  0  1  0  0  0  0  0  0  0  0  0
    2.4910   -0.3700   -0.9679 C   0  0  0  0  0  0  0  0  0  0  0  0
    0.7824    1.1638    0.0069 C   0  0  0  0  0  0  0  0  0  0  0  0
    0.4109   -1.3269   -0.0696 C   0  0  0  0  0  0  0  0  0  0  0  0
    1.9705   -0.3534    1.5731 C   0  0  0  0  0  0  0  0  0  0  0  0
    3.5872    0.6752   -0.9364 C   0  0  0  0  0  0  0  0  0  0  0  0
   -0.5410    1.3605   -0.0301 C   0  0  0  0  0  0  0  0  0  0  0  0
   -0.9160   -1.1134   -0.0635 C   0  0  0  0  0  0  0  0  0  0  0  0
    1.6130   -1.1632    2.4165 O   0  0  0  0  0  0  0  0  0  0  0  0
    2.8648    0.5988    1.9196 O   0  0  0  0  0  0  0  0  0  0  0  0
    5.0008    0.1873   -0.6723 C   0  0  0  0  0  0  0  0  0  0  0  0
    3.4451    1.8818   -1.1211 O   0  0  0  0  0  0  0  0  0  0  0  0
   -1.5245    0.2464    0.1167 C   0  0  1  0  0  0  0  0  0  0  0  0
    5.8711    1.2054   -0.5698 O   0  0  0  0  0  0  0  0  0  0  0  0
    5.2738   -0.9962   -0.5800 O   0  0  0  0  0  0  0  0  0  0  0  0
   -2.0254    0.3230    1.4406 O   0  0  0  0  0  0  0  0  0  0  0  0
   -2.3429    0.3845   -0.5934 H   0  0  0  0  0  0  0  0  0  0  0  0
    2.9303   -1.3736   -0.9262 H   0  0  0  0  0  0  0  0  0  0  0  0
    2.0177   -0.3016   -1.9589 H   0  0  0  0  0  0  0  0  0  0  0  0
    1.4211    2.0405   -0.0536 H   0  0  0  0  0  0  0  0  0  0  0  0
    0.7859   -2.3455   -0.1719 H   0  0  0  0  0  0  0  0  0  0  0  0
   -0.9204    2.3710   -0.1450 H   0  0  0  0  0  0  0  0  0  0  0  0
   -1.5982   -1.9516   -0.1729 H   0  0  0  0  0  0  0  0  0  0  0  0
    2.9888    0.4602    2.8863 H   0  0  0  0  0  0  0  0  0  0  0  0
    5.4080    2.0687   -0.6842 H   0  0  0  0  0  0  0  0  0  0  0  0
   -1.2604    0.1844    2.0290 H   0  0  0  0  0  0  0  0  0  0  0  0
  1  2  1  0  0  0  0
  1  3  1  0  0  0  0
  1  4  1  0  0  0  0
  1  5  1  1  0  0  0
  2  6  1  0  0  0  0
  2 18  1  0  0  0  0
  2 19  1  0  0  0  0
  3  7  2  0  0  0  0
  3 20  1  0  0  0  0
  4  8  2  0  0  0  0
  4 21  1  0  0  0  0
  5  9  2  0  0  0  0
  5 10  1  0  0  0  0
  6 11  1  0  0  0  0
  6 12  2  0  0  0  0
  7 13  1  0  0  0  0
  7 22  1  0  0  0  0
  8 13  1  0  0  0  0
  8 23  1  0  0  0  0
 10 24  1  0  0  0  0
 11 14  1  0  0  0  0
 11 15  2  0  0  0  0
 13 16  1  0  0  0  0
 13 17  1  6  0  0  0
 14 25  1  0  0  0  0
 16 26  1  0  0  0  0
M  END
>  <DRUGBANK_ID>
DB08427

>  <COMMON_NAME>
Prephenic acid

>  <CAS_NUMBER>
126-49-8

>  <UNII>
Z66B98Z97I

>  <SYNONYMS>
(1s,4s)-prephenic acid; cis-1-Carboxy-4-hydroxy-alpha-oxo-2,5-cyclohexadiene-1-propanoic acid; cis-prephenic acid

$$$$
