
 OpenBabel10282417233D

 46 47  0  0  0  0  0  0  0  0999 V2000
    1.3566   -0.1944   -0.0413 C   0  0  0  0  0  0  0  0  0  0  0  0
    2.7896   -0.6234    0.1794 C   0  0  0  0  0  0  0  0  0  0  0  0
    3.7723    0.0697    0.3061 O   0  0  0  0  0  0  0  0  0  0  0  0
    3.1361   -1.9129    0.3429 N   0  0  0  0  0  0  0  0  0  0  0  0
    2.4678   -3.1697    0.4230 C   0  0  0  0  0  0  0  0  0  0  0  0
    2.7758   -3.9926   -0.8272 C   0  0  2  0  0  0  0  0  0  0  0  0
    2.0988   -5.3486   -0.7957 C   0  0  0  0  0  0  0  0  0  0  0  0
    2.9080   -6.1609   -1.7830 C   0  0  0  0  0  0  0  0  0  0  0  0
    4.2730   -5.4800   -1.8729 C   0  0  0  0  0  0  0  0  0  0  0  0
    4.2161   -4.2673   -1.0417 N   0  0  0  0  0  0  0  0  0  0  0  0
    5.0047   -4.4124    0.1956 C   0  0  0  0  0  0  0  0  0  0  0  0
    4.5072   -5.4726    1.1732 C   0  0  0  0  0  0  0  0  0  0  0  0
    0.3688   -1.1876   -0.2150 C   0  0  0  0  0  0  0  0  0  0  0  0
   -0.9943   -0.9860   -0.0597 C   0  0  0  0  0  0  0  0  0  0  0  0
   -1.4427    0.3130    0.0436 C   0  0  0  0  0  0  0  0  0  0  0  0
   -0.4929    1.3540    0.0302 C   0  0  0  0  0  0  0  0  0  0  0  0
    0.9089    1.1282   -0.0399 C   0  0  0  0  0  0  0  0  0  0  0  0
    1.6075    2.3017   -0.1803 O   0  0  0  0  0  0  0  0  0  0  0  0
    3.0054    2.2668   -0.4415 C   0  0  0  0  0  0  0  0  0  0  0  0
   -2.0939   -2.3827    0.0548 S   0  0  0  0  0  0  0  0  0  0  0  0
   -2.7455   -2.3498    1.3447 O   0  0  0  0  0  0  0  0  0  0  0  0
   -2.8143   -2.4917   -1.1874 O   0  0  0  0  0  0  0  0  0  0  0  0
   -1.0915   -3.7561    0.1397 N   0  0  0  0  0  0  0  0  0  0  0  0
    4.1503   -1.9269    0.3634 H   0  0  0  0  0  0  0  0  0  0  0  0
    2.7997   -3.5868    1.3651 H   0  0  0  0  0  0  0  0  0  0  0  0
    1.4117   -3.1113    0.6205 H   0  0  0  0  0  0  0  0  0  0  0  0
    2.4120   -3.4502   -1.7176 H   0  0  0  0  0  0  0  0  0  0  0  0
    2.1407   -5.8094    0.1926 H   0  0  0  0  0  0  0  0  0  0  0  0
    1.0376   -5.2970   -1.0514 H   0  0  0  0  0  0  0  0  0  0  0  0
    2.9976   -7.1986   -1.4493 H   0  0  0  0  0  0  0  0  0  0  0  0
    2.4102   -6.1476   -2.7576 H   0  0  0  0  0  0  0  0  0  0  0  0
    5.0781   -6.1527   -1.5573 H   0  0  0  0  0  0  0  0  0  0  0  0
    4.4886   -5.2184   -2.9160 H   0  0  0  0  0  0  0  0  0  0  0  0
    6.0508   -4.5956   -0.0676 H   0  0  0  0  0  0  0  0  0  0  0  0
    5.0609   -3.4647    0.7365 H   0  0  0  0  0  0  0  0  0  0  0  0
    4.4848   -6.4570    0.7064 H   0  0  0  0  0  0  0  0  0  0  0  0
    5.1287   -5.4895    2.0662 H   0  0  0  0  0  0  0  0  0  0  0  0
    3.5025   -5.2857    1.5520 H   0  0  0  0  0  0  0  0  0  0  0  0
    0.6275   -2.1552   -0.6030 H   0  0  0  0  0  0  0  0  0  0  0  0
   -2.5074    0.5309    0.0594 H   0  0  0  0  0  0  0  0  0  0  0  0
   -0.8513    2.3813    0.0749 H   0  0  0  0  0  0  0  0  0  0  0  0
    3.5221    2.1048    0.5089 H   0  0  0  0  0  0  0  0  0  0  0  0
    3.2629    1.5599   -1.2435 H   0  0  0  0  0  0  0  0  0  0  0  0
    3.3682    3.2382   -0.7814 H   0  0  0  0  0  0  0  0  0  0  0  0
   -0.6305   -3.8218    1.0483 H   0  0  0  0  0  0  0  0  0  0  0  0
   -1.6830   -4.5848    0.0050 H   0  0  0  0  0  0  0  0  0  0  0  0
  1  2  1  0  0  0  0
  1 13  2  0  0  0  0
  1 17  1  0  0  0  0
  2  3  2  0  0  0  0
  2  4  1  0  0  0  0
  4  5  1  0  0  0  0
  4 24  1  0  0  0  0
  5 25  1  0  0  0  0
  5 26  1  0  0  0  0
  6  5  1  0  0  0  0
  6  7  1  0  0  0  0
  6 10  1  0  0  0  0
  6 27  1  6  0  0  0
  7  8  1  0  0  0  0
  7 28  1  0  0  0  0
  7 29  1  0  0  0  0
  8 30  1  0  0  0  0
  8 31  1  0  0  0  0
  9  8  1  0  0  0  0
  9 32  1  0  0  0  0
  9 33  1  0  0  0  0
 10  9  1  0  0  0  0
 10 11  1  0  0  0  0
 11 12  1  0  0  0  0
 11 34  1  0  0  0  0
 11 35  1  0  0  0  0
 12 36  1  0  0  0  0
 12 37  1  0  0  0  0
 12 38  1  0  0  0  0
 13 14  1  0  0  0  0
 13 39  1  0  0  0  0
 14 15  2  0  0  0  0
 14 20  1  0  0  0  0
 15 40  1  0  0  0  0
 16 15  1  0  0  0  0
 16 41  1  0  0  0  0
 17 16  2  0  0  0  0
 17 18  1  0  0  0  0
 18 19  1  0  0  0  0
 19 42  1  0  0  0  0
 19 43  1  0  0  0  0
 19 44  1  0  0  0  0
 20 21  2  0  0  0  0
 20 22  2  0  0  0  0
 20 23  1  0  0  0  0
 23 45  1  0  0  0  0
 23 46  1  0  0  0  0
M  END
>  <DRUGBANK_ID>
DB16021

>  <COMMON_NAME>
Levosulpiride

>  <CAS_NUMBER>
23672-07-3

>  <UNII>
JTG7R315LK

>  <SYNONYMS>
Levosulpirida; Levosulpiride; Levosulpiridum; S-(-)-Sulpiride

$$$$
