
 OpenBabel10282417153D

 49 52  0  0  0  0  0  0  0  0999 V2000
   -4.2049    1.6045   -0.0234 C   0  0  0  0  0  0  0  0  0  0  0  0
   -4.9004    0.4409    0.2664 C   0  0  0  0  0  0  0  0  0  0  0  0
   -4.1953   -0.7717    0.3078 C   0  0  0  0  0  0  0  0  0  0  0  0
   -2.8410    1.5783   -0.2575 C   0  0  0  0  0  0  0  0  0  0  0  0
   -2.1110    0.3893   -0.1906 C   0  0  0  0  0  0  0  0  0  0  0  0
   -2.7999   -0.8109    0.0685 C   0  0  0  0  0  0  0  0  0  0  0  0
   -2.0639   -2.1320    0.1457 C   0  0  0  0  0  0  0  0  0  0  0  0
   -0.6235   -2.0935   -0.3832 C   0  0  0  0  0  0  0  0  0  0  0  0
   -0.6242    0.4080   -0.4939 C   0  0  2  0  0  0  0  0  0  0  0  0
    0.1002   -0.8332    0.0965 C   0  0  2  0  0  0  0  0  0  0  0  0
    1.5773    1.7323   -0.4137 C   0  0  0  0  0  0  0  0  0  0  0  0
    0.0844    1.7206   -0.0745 C   0  0  0  0  0  0  0  0  0  0  0  0
    2.2817    0.4991    0.1490 C   0  0  1  0  0  0  0  0  0  0  0  0
    1.5628   -0.7717   -0.3566 C   0  0  1  0  0  0  0  0  0  0  0  0
    2.5331   -1.8900    0.0196 C   0  0  0  0  0  0  0  0  0  0  0  0
    3.9298   -1.2406   -0.1243 C   0  0  0  0  0  0  0  0  0  0  0  0
    3.6773    0.2445   -0.4450 C   0  0  2  0  0  0  0  0  0  0  0  0
    4.6879    1.1040    0.0426 O   0  0  0  0  0  0  0  0  0  0  0  0
    2.3469    0.6099    1.6936 C   0  0  0  0  0  0  0  0  0  0  0  0
    0.0453   -0.8142    1.1928 H   0  0  0  0  0  0  0  0  0  0  0  0
   -0.5562    0.3481   -1.5914 H   0  0  0  0  0  0  0  0  0  0  0  0
    1.5438   -0.7510   -1.4595 H   0  0  0  0  0  0  0  0  0  0  0  0
   -6.2515    0.4208    0.5244 O   0  0  0  0  0  0  0  0  0  0  0  0
   -7.1840    1.7640    0.4300 S   0  0  0  0  0  0  0  0  0  0  0  0
   -6.5690    2.8176    1.6027 N   0  0  0  0  0  0  0  0  0  0  0  0
   -7.0017    2.4254   -0.8404 O   0  0  0  0  0  0  0  0  0  0  0  0
   -8.5122    1.4428    0.9085 O   0  0  0  0  0  0  0  0  0  0  0  0
   -4.6792    2.5762   -0.0870 H   0  0  0  0  0  0  0  0  0  0  0  0
   -4.7261   -1.6983    0.5225 H   0  0  0  0  0  0  0  0  0  0  0  0
   -2.3762    2.5276   -0.4996 H   0  0  0  0  0  0  0  0  0  0  0  0
   -2.6147   -2.8940   -0.4186 H   0  0  0  0  0  0  0  0  0  0  0  0
   -2.0428   -2.4473    1.1965 H   0  0  0  0  0  0  0  0  0  0  0  0
   -0.6354   -2.1158   -1.4806 H   0  0  0  0  0  0  0  0  0  0  0  0
   -0.0943   -2.9949   -0.0536 H   0  0  0  0  0  0  0  0  0  0  0  0
    2.0314    2.6521   -0.0273 H   0  0  0  0  0  0  0  0  0  0  0  0
    1.6841    1.7665   -1.5056 H   0  0  0  0  0  0  0  0  0  0  0  0
   -0.0671    1.8918    0.9983 H   0  0  0  0  0  0  0  0  0  0  0  0
   -0.3535    2.5831   -0.5864 H   0  0  0  0  0  0  0  0  0  0  0  0
    2.4275   -2.7587   -0.6378 H   0  0  0  0  0  0  0  0  0  0  0  0
    2.3731   -2.2319    1.0481 H   0  0  0  0  0  0  0  0  0  0  0  0
    4.5052   -1.7108   -0.9285 H   0  0  0  0  0  0  0  0  0  0  0  0
    4.5109   -1.3635    0.7965 H   0  0  0  0  0  0  0  0  0  0  0  0
    3.6534    0.3740   -1.5348 H   0  0  0  0  0  0  0  0  0  0  0  0
    4.7735    0.9869    1.0024 H   0  0  0  0  0  0  0  0  0  0  0  0
    2.8837    1.5162    1.9943 H   0  0  0  0  0  0  0  0  0  0  0  0
    1.3575    0.6601    2.1547 H   0  0  0  0  0  0  0  0  0  0  0  0
    2.8630   -0.2385    2.1526 H   0  0  0  0  0  0  0  0  0  0  0  0
   -7.0505    3.7148    1.5374 H   0  0  0  0  0  0  0  0  0  0  0  0
   -6.6458    2.4049    2.5304 H   0  0  0  0  0  0  0  0  0  0  0  0
  1  2  2  0  0  0  0
  1 28  1  0  0  0  0
  2  3  1  0  0  0  0
  2 23  1  0  0  0  0
  3  6  2  0  0  0  0
  3 29  1  0  0  0  0
  4  1  1  0  0  0  0
  4 30  1  0  0  0  0
  5  9  1  0  0  0  0
  5  4  2  0  0  0  0
  5  6  1  0  0  0  0
  6  7  1  0  0  0  0
  7  8  1  0  0  0  0
  7 31  1  0  0  0  0
  7 32  1  0  0  0  0
  8 10  1  0  0  0  0
  8 33  1  0  0  0  0
  8 34  1  0  0  0  0
  9 10  1  0  0  0  0
  9 21  1  6  0  0  0
  9 12  1  0  0  0  0
 10 20  1  1  0  0  0
 10 14  1  0  0  0  0
 11 12  1  0  0  0  0
 11 35  1  0  0  0  0
 11 36  1  0  0  0  0
 12 37  1  0  0  0  0
 12 38  1  0  0  0  0
 13 14  1  0  0  0  0
 13 19  1  1  0  0  0
 13 11  1  0  0  0  0
 14 15  1  0  0  0  0
 14 22  1  6  0  0  0
 15 16  1  0  0  0  0
 15 39  1  0  0  0  0
 15 40  1  0  0  0  0
 16 17  1  0  0  0  0
 16 41  1  0  0  0  0
 16 42  1  0  0  0  0
 17 13  1  0  0  0  0
 17 18  1  0  0  0  0
 17 43  1  6  0  0  0
 18 44  1  0  0  0  0
 19 45  1  0  0  0  0
 19 46  1  0  0  0  0
 19 47  1  0  0  0  0
 23 24  1  0  0  0  0
 24 25  1  0  0  0  0
 24 26  2  0  0  0  0
 24 27  2  0  0  0  0
 25 48  1  0  0  0  0
 25 49  1  0  0  0  0
M  END
>  <DRUGBANK_ID>
DB06597

>  <COMMON_NAME>
Estradiol sulfamate

>  <CAS_NUMBER>
172377-52-5

>  <UNII>
WO55ODW08Z

>  <SYNONYMS>
Estradiol 3-sulfamate; Estradiol-3-O-Sulfamate

$$$$
