555
 OpenBabel10282417163D

 33 35  0  0  0  0  0  0  0  0999 V2000
    2.4676   -0.7208   -0.0236 C   0  0  0  0  0  0  0  0  0  0  0  0
    2.4712    0.6606    0.0024 C   0  0  0  0  0  0  0  0  0  0  0  0
    1.2610    1.3407    0.0471 C   0  0  0  0  0  0  0  0  0  0  0  0
    0.0101    0.6782    0.0124 C   0  0  0  0  0  0  0  0  0  0  0  0
   -0.0007   -0.7512    0.0113 C   0  0  0  0  0  0  0  0  0  0  0  0
    1.2545   -1.4136    0.0011 C   0  0  0  0  0  0  0  0  0  0  0  0
   -1.2584   -1.4194    0.0149 C   0  0  0  0  0  0  0  0  0  0  0  0
   -2.4523   -0.6892   -0.0018 C   0  0  0  0  0  0  0  0  0  0  0  0
   -2.4296    0.7018   -0.0184 C   0  0  0  0  0  0  0  0  0  0  0  0
   -1.2159    1.4065   -0.0171 C   0  0  0  0  0  0  0  0  0  0  0  0
   -1.2609    2.8869   -0.0624 C   0  0  0  0  0  0  0  0  0  0  0  0
   -0.6746    3.6027   -1.1251 C   0  0  0  0  0  0  0  0  0  0  0  0
   -0.6660    5.0010   -1.1418 C   0  0  0  0  0  0  0  0  0  0  0  0
   -1.2782    5.6948   -0.1058 C   0  0  0  0  0  0  0  0  0  0  0  0
   -1.8766    5.0152    0.9474 C   0  0  0  0  0  0  0  0  0  0  0  0
   -1.8661    3.6184    0.9712 C   0  0  0  0  0  0  0  0  0  0  0  0
   -1.3161    7.0571   -0.0797 O   0  0  0  0  0  0  0  0  0  0  0  0
   -1.3806   -2.9037    0.0388 C   0  0  0  0  0  0  0  0  0  0  0  0
   -2.5365   -3.4985    0.0351 N   0  0  0  0  0  0  0  0  0  0  0  0
   -2.3475   -4.8851    0.0659 O   0  0  0  0  0  0  0  0  0  0  0  0
    3.4079   -1.2633   -0.0547 H   0  0  0  0  0  0  0  0  0  0  0  0
    3.4041    1.2170   -0.0093 H   0  0  0  0  0  0  0  0  0  0  0  0
    1.3147    2.4265    0.1078 H   0  0  0  0  0  0  0  0  0  0  0  0
    1.3203   -2.4982    0.0024 H   0  0  0  0  0  0  0  0  0  0  0  0
   -3.4143   -1.1980   -0.0099 H   0  0  0  0  0  0  0  0  0  0  0  0
   -3.3766    1.2384   -0.0435 H   0  0  0  0  0  0  0  0  0  0  0  0
   -0.1880    3.0637   -1.9371 H   0  0  0  0  0  0  0  0  0  0  0  0
   -0.1742    5.5183   -1.9594 H   0  0  0  0  0  0  0  0  0  0  0  0
   -2.3444    5.5708    1.7548 H   0  0  0  0  0  0  0  0  0  0  0  0
   -2.3207    3.1026    1.8143 H   0  0  0  0  0  0  0  0  0  0  0  0
   -0.9001    7.3990   -0.8876 H   0  0  0  0  0  0  0  0  0  0  0  0
   -0.4640   -3.5130    0.0637 H   0  0  0  0  0  0  0  0  0  0  0  0
   -3.2646   -5.2195    0.0633 H   0  0  0  0  0  0  0  0  0  0  0  0
  1  6  2  0  0  0  0
  1  2  1  0  0  0  0
  1 21  1  0  0  0  0
  2  3  2  0  0  0  0
  2 22  1  0  0  0  0
  3  4  1  0  0  0  0
  3 23  1  0  0  0  0
  4  5  1  0  0  0  0
  4 10  2  0  0  0  0
  5  6  1  0  0  0  0
  5  7  2  0  0  0  0
  6 24  1  0  0  0  0
  7 18  1  0  0  0  0
  7  8  1  0  0  0  0
  8  9  2  0  0  0  0
  8 25  1  0  0  0  0
  9 10  1  0  0  0  0
  9 26  1  0  0  0  0
 10 11  1  0  0  0  0
 11 16  2  0  0  0  0
 11 12  1  0  0  0  0
 12 13  2  0  0  0  0
 12 27  1  0  0  0  0
 13 14  1  0  0  0  0
 13 28  1  0  0  0  0
 14 15  2  0  0  0  0
 14 17  1  0  0  0  0
 15 16  1  0  0  0  0
 15 29  1  0  0  0  0
 16 30  1  0  0  0  0
 17 31  1  0  0  0  0
 18 19  2  0  0  0  0
 18 32  1  0  0  0  0
 19 20  1  0  0  0  0
 20 33  1  0  0  0  0
M  END
>  <DRUGBANK_ID>
DB07150

>  <COMMON_NAME>
4-(4-HYDROXYPHENYL)-1-NAPHTHALDEHYDE OXIME

>  <UNII>
KA345Z0JXL

$$$$
