
 OpenBabel10282417113D

 57 60  0  0  0  0  0  0  0  0999 V2000
    1.5775    0.2476   -0.9432 C   0  0  0  0  0  0  0  0  0  0  0  0
    1.8228    0.7632   -2.1902 C   0  0  0  0  0  0  0  0  0  0  0  0
    3.1740   -1.3064   -2.4047 C   0  0  0  0  0  0  0  0  0  0  0  0
    2.4870   -1.9540   -1.4313 C   0  0  0  0  0  0  0  0  0  0  0  0
    2.0270   -3.3871   -1.3979 C   0  0  0  0  0  0  0  0  0  0  0  0
    2.2664   -3.9621   -0.0233 C   0  0  0  0  0  0  0  0  0  0  0  0
    1.4831   -1.6414    3.6302 C   0  0  0  0  0  0  0  0  0  0  0  0
    3.6184   -3.4675    2.8248 C   0  0  0  0  0  0  0  0  0  0  0  0
    3.2260    0.2275   -2.1760 C   0  0  0  0  0  0  0  0  0  0  0  0
    4.0943    0.9622   -1.7201 O   0  0  0  0  0  0  0  0  0  0  0  0
    2.4553   -4.6914    4.3924 C   0  0  2  0  0  0  0  0  0  0  0  0
    2.7658   -5.3639    5.6820 O   0  0  0  0  0  0  0  0  0  0  0  0
    3.7155   -3.9064    4.2842 C   0  0  2  0  0  0  0  0  0  0  0  0
    3.3509   -2.9838    5.5379 C   0  0  0  0  0  0  0  0  0  0  0  0
    2.2169   -1.0358   -0.2595 C   0  0  2  0  0  0  0  0  0  0  0  0
    3.7509   -0.7950    0.2550 C   0  0  0  0  0  0  0  0  0  0  0  0
    1.3475   -3.3175    3.6690 C   0  0  1  0  0  0  0  0  0  0  0  0
   -0.2877   -3.2593    3.5986 C   0  0  0  0  0  0  0  0  0  0  0  0
    2.0788   -3.7213    2.3756 C   0  0  2  0  0  0  0  0  0  0  0  0
    2.1076   -4.7978    2.2089 H   0  0  0  0  0  0  0  0  0  0  0  0
    1.6153   -1.7079    1.0486 C   0  0  1  0  0  0  0  0  0  0  0  0
    2.8165   -1.7399    1.7480 F   0  0  0  0  0  0  0  0  0  0  0  0
    0.9930   -0.9296    2.2256 C   0  0  1  0  0  0  0  0  0  0  0  0
   -0.3774   -0.6001    2.1712 O   0  0  0  0  0  0  0  0  0  0  0  0
    1.7860   -6.0634    4.0509 C   0  0  0  0  0  0  0  0  0  0  0  0
    2.3185   -7.2225    4.1465 O   0  0  0  0  0  0  0  0  0  0  0  0
    1.4571   -3.2240    1.0515 C   0  0  1  0  0  0  0  0  0  0  0  0
    0.4070   -3.5385    0.9360 H   0  0  0  0  0  0  0  0  0  0  0  0
    0.3281   -5.9123    3.9838 C   0  0  0  0  0  0  0  0  0  0  0  0
   -0.2093   -5.8263    2.6794 O   0  0  0  0  0  0  0  0  0  0  0  0
    1.3240    1.0184   -0.2306 H   0  0  0  0  0  0  0  0  0  0  0  0
    2.0134    0.7063   -3.2769 H   0  0  0  0  0  0  0  0  0  0  0  0
    3.2918   -1.7236   -3.3839 H   0  0  0  0  0  0  0  0  0  0  0  0
    2.6016   -3.9848   -2.1102 H   0  0  0  0  0  0  0  0  0  0  0  0
    0.9600   -3.4977   -1.6336 H   0  0  0  0  0  0  0  0  0  0  0  0
    3.3330   -3.8878    0.2050 H   0  0  0  0  0  0  0  0  0  0  0  0
    2.0398   -5.0405    0.0107 H   0  0  0  0  0  0  0  0  0  0  0  0
    0.9046   -1.2002    4.4501 H   0  0  0  0  0  0  0  0  0  0  0  0
    2.5052   -1.2669    3.7628 H   0  0  0  0  0  0  0  0  0  0  0  0
    4.2533   -4.0698    2.1639 H   0  0  0  0  0  0  0  0  0  0  0  0
    4.0539   -2.4639    2.8116 H   0  0  0  0  0  0  0  0  0  0  0  0
    3.1745   -6.2631    5.4824 H   0  0  0  0  0  0  0  0  0  0  0  0
    4.7414   -4.2623    4.4499 H   0  0  0  0  0  0  0  0  0  0  0  0
    2.5077   -3.4133    6.1278 H   0  0  0  0  0  0  0  0  0  0  0  0
    4.1468   -2.9294    6.2726 H   0  0  0  0  0  0  0  0  0  0  0  0
    2.9515   -2.0028    5.3584 H   0  0  0  0  0  0  0  0  0  0  0  0
    4.5375   -0.4211   -0.3710 H   0  0  0  0  0  0  0  0  0  0  0  0
    3.7624   -0.1765    1.1621 H   0  0  0  0  0  0  0  0  0  0  0  0
    4.1998   -1.7914    0.4371 H   0  0  0  0  0  0  0  0  0  0  0  0
   -0.6036   -3.0279    2.5866 H   0  0  0  0  0  0  0  0  0  0  0  0
   -0.9653   -4.0846    3.8055 H   0  0  0  0  0  0  0  0  0  0  0  0
   -0.6952   -2.5066    4.2879 H   0  0  0  0  0  0  0  0  0  0  0  0
    1.4969    0.0462    2.2343 H   0  0  0  0  0  0  0  0  0  0  0  0
   -0.9342   -1.3845    2.1032 H   0  0  0  0  0  0  0  0  0  0  0  0
   -0.3752   -5.9208    4.8301 H   0  0  0  0  0  0  0  0  0  0  0  0
    0.4675   -4.9288    4.3530 H   0  0  0  0  0  0  0  0  0  0  0  0
    0.4839   -5.5665    2.0472 H   0  0  0  0  0  0  0  0  0  0  0  0
  1  2  2  0  0  0  0
  1 15  1  0  0  0  0
  1 31  1  0  0  0  0
  2  9  1  0  0  0  0
  2 32  1  0  0  0  0
  3  4  2  0  0  0  0
  3 33  1  0  0  0  0
  4  5  1  0  0  0  0
  5  6  1  0  0  0  0
  5 34  1  0  0  0  0
  5 35  1  0  0  0  0
  6 27  1  0  0  0  0
  6 36  1  0  0  0  0
  6 37  1  0  0  0  0
  7 23  1  0  0  0  0
  7 17  1  0  0  0  0
  7 38  1  0  0  0  0
  7 39  1  0  0  0  0
  8 13  1  0  0  0  0
  8 40  1  0  0  0  0
  8 41  1  0  0  0  0
  9  3  1  0  0  0  0
  9 10  2  0  0  0  0
 11 17  1  0  0  0  0
 11 13  1  0  0  0  0
 11 12  1  1  0  0  0
 11 25  1  0  0  0  0
 12 42  1  0  0  0  0
 13 43  1  1  0  0  0
 13 14  1  0  0  0  0
 14 44  1  0  0  0  0
 14 45  1  0  0  0  0
 14 46  1  0  0  0  0
 15  4  1  0  0  0  0
 15 16  1  6  0  0  0
 16 47  1  0  0  0  0
 16 48  1  0  0  0  0
 16 49  1  0  0  0  0
 17 19  1  0  0  0  0
 17 18  1  6  0  0  0
 18 50  1  0  0  0  0
 18 51  1  0  0  0  0
 18 52  1  0  0  0  0
 19  8  1  0  0  0  0
 19 20  1  1  0  0  0
 21 15  1  0  0  0  0
 21 27  1  0  0  0  0
 21 22  1  1  0  0  0
 23 21  1  0  0  0  0
 23 24  1  0  0  0  0
 23 53  1  6  0  0  0
 24 54  1  0  0  0  0
 25 29  1  0  0  0  0
 25 26  2  0  0  0  0
 27 19  1  0  0  0  0
 27 28  1  6  0  0  0
 29 30  1  0  0  0  0
 29 55  1  0  0  0  0
 29 56  1  0  0  0  0
 30 57  1  0  0  0  0
M  END
>  <DRUGBANK_ID>
DB01234

>  <SECONDARY_ACCESSION_NUMBERS>
APRD00674

>  <COMMON_NAME>
Dexamethasone

>  <CAS_NUMBER>
50-02-2

>  <UNII>
7S5I7G3JQL

>  <SYNONYMS>
1-Dehydro-16alpha-methyl-9alpha-fluorohydrocortisone; 1-Dehydro-16α-methyl-9α-fluorohydrocortisone; 16alpha-Methyl-9alpha-fluoro-1-dehydrocortisol; 16α-Methyl-9α-fluoro-1-dehydrocortisol; 9alpha-Fluoro-16alpha-methylprednisolone; 9α-Fluoro-16α-methylprednisolone; Dexametasona; Dexaméthasone; Dexamethasone; Dexamethasonum

$$$$
