
 OpenBabel10282417183D

 31 29  0  0  0  0  0  0  0  0999 V2000
    0.3533    0.2261   -0.2117 C   0  0  0  0  0  0  0  0  0  0  0  0
    0.4952    0.3483   -6.1722 C   0  0  0  0  0  0  0  0  0  0  0  0
    2.9799   -1.3639   -5.7023 C   0  0  0  0  0  0  0  0  0  0  0  0
    0.4428   -2.6288   -6.6794 C   0  0  0  0  0  0  0  0  0  0  0  0
    0.5158    1.3135   -2.9986 C   0  0  0  0  0  0  0  0  0  0  0  0
    2.9010   -0.5372   -2.5472 C   0  0  0  0  0  0  0  0  0  0  0  0
    0.2448   -0.8112   -1.1927 O   0  0  0  0  0  0  0  0  0  0  0  0
    0.6076   -1.4642   -3.9266 O   0  0  0  0  0  0  0  0  0  0  0  0
    1.0973   -1.3179   -5.5494 Si  0  0  0  0  0  0  0  0  0  0  0  0
    1.0369   -0.4630   -2.6291 Si  0  0  0  0  0  0  0  0  0  0  0  0
    2.8896   -0.8644    0.9357 O   0  0  0  0  0  0  0  0  0  0  0  0
    3.6102    1.2818    0.0683 O   0  0  0  0  0  0  0  0  0  0  0  0
    4.0099    0.1097    0.8646 Si  0  0  0  0  0  0  0  0  0  0  0  0
    0.0832   -0.1413    0.7789 H   0  0  0  0  0  0  0  0  0  0  0  0
   -0.2612    1.1037   -0.4475 H   0  0  0  0  0  0  0  0  0  0  0  0
    1.3724    0.5919   -0.1762 H   0  0  0  0  0  0  0  0  0  0  0  0
    0.9874    1.1601   -5.6446 H   0  0  0  0  0  0  0  0  0  0  0  0
    0.7362    0.4981   -7.2221 H   0  0  0  0  0  0  0  0  0  0  0  0
   -0.5842    0.4383   -6.0151 H   0  0  0  0  0  0  0  0  0  0  0  0
    3.3822   -2.2705   -5.2375 H   0  0  0  0  0  0  0  0  0  0  0  0
    3.2936   -1.3162   -6.7443 H   0  0  0  0  0  0  0  0  0  0  0  0
    3.4477   -0.4957   -5.2446 H   0  0  0  0  0  0  0  0  0  0  0  0
    0.8106   -3.6174   -6.3954 H   0  0  0  0  0  0  0  0  0  0  0  0
   -0.6484   -2.6361   -6.6844 H   0  0  0  0  0  0  0  0  0  0  0  0
    0.7917   -2.4137   -7.6945 H   0  0  0  0  0  0  0  0  0  0  0  0
    0.7953    1.9796   -2.1817 H   0  0  0  0  0  0  0  0  0  0  0  0
    1.0041    1.7212   -3.8721 H   0  0  0  0  0  0  0  0  0  0  0  0
   -0.5716    1.3351   -3.1235 H   0  0  0  0  0  0  0  0  0  0  0  0
    3.2927   -1.5426   -2.3625 H   0  0  0  0  0  0  0  0  0  0  0  0
    3.3312   -0.1748   -3.4695 H   0  0  0  0  0  0  0  0  0  0  0  0
    3.3232    0.1659   -1.8549 H   0  0  0  0  0  0  0  0  0  0  0  0
  1 14  1  0  0  0  0
  1 15  1  0  0  0  0
  1 16  1  0  0  0  0
  2 17  1  0  0  0  0
  2 18  1  0  0  0  0
  2 19  1  0  0  0  0
  3 20  1  0  0  0  0
  3 21  1  0  0  0  0
  3 22  1  0  0  0  0
  4 23  1  0  0  0  0
  4 24  1  0  0  0  0
  4 25  1  0  0  0  0
  5 26  1  0  0  0  0
  5 27  1  0  0  0  0
  5 28  1  0  0  0  0
  6 29  1  0  0  0  0
  6 30  1  0  0  0  0
  6 31  1  0  0  0  0
  7  1  1  0  0  0  0
  9  2  1  0  0  0  0
  9  3  1  0  0  0  0
  9  4  1  0  0  0  0
  9  8  1  0  0  0  0
 10  5  1  0  0  0  0
 10  6  1  0  0  0  0
 10  7  1  0  0  0  0
 10  8  1  0  0  0  0
 13 11  2  0  0  0  0
 13 12  2  0  0  0  0
M  END
>  <DRUGBANK_ID>
DB09512

>  <COMMON_NAME>
Simethicone

>  <CAS_NUMBER>
8050-81-5

>  <SYNONYMS>
Simeticona; Simeticone; Sim√©ticone; Simeticonum

$$$$
