
 OpenBabel10282417143D

 64 67  0  0  1  0  0  0  0  0999 V2000
    2.4360   -0.6925   -0.0207 C   0  0  0  0  0  0  0  0  0  0  0  0
    2.4404    0.7005   -0.0093 C   0  0  0  0  0  0  0  0  0  0  0  0
   -6.9995    8.2659    2.4875 C   0  0  0  0  0  0  0  0  0  0  0  0
   -5.8788    7.9084    3.4615 C   0  0  0  0  0  0  0  0  0  0  0  0
   -6.0963   -0.7146    3.7180 C   0  0  0  0  0  0  0  0  0  0  0  0
   -6.0939    0.0647    2.5771 C   0  0  0  0  0  0  0  0  0  0  0  0
    1.2291   -1.3912    0.0096 C   0  0  0  0  0  0  0  0  0  0  0  0
    1.2394    1.4043    0.0243 C   0  0  0  0  0  0  0  0  0  0  0  0
   -6.5088   -0.1666    4.9322 C   0  0  0  0  0  0  0  0  0  0  0  0
   -7.6945    7.0190    2.0052 C   0  0  0  0  0  0  0  0  0  0  0  0
   -1.2079   -1.3870    0.0265 C   0  0  0  0  0  0  0  0  0  0  0  0
   -2.3993   -0.6758    0.0047 C   0  0  0  0  0  0  0  0  0  0  0  0
   -4.9474    6.8258    2.8977 C   0  0  0  0  0  0  0  0  0  0  0  0
   -6.9188    1.9346    3.8528 C   0  0  0  0  0  0  0  0  0  0  0  0
   -6.4129    2.2707    1.4350 C   0  0  0  0  0  0  0  0  0  0  0  0
   -1.1749    1.4294    0.0018 C   0  0  0  0  0  0  0  0  0  0  0  0
   -6.4592    1.4035    2.6476 C   0  0  0  0  0  0  0  0  0  0  0  0
    0.0123   -0.7001    0.0245 C   0  0  0  0  0  0  0  0  0  0  0  0
    0.0230    0.7200    0.0230 C   0  0  0  0  0  0  0  0  0  0  0  0
   -6.9963    1.1454    4.9935 C   0  0  0  0  0  0  0  0  0  0  0  0
   -2.3662    0.7253   -0.0133 C   0  0  0  0  0  0  0  0  0  0  0  0
   -5.2562    3.2976    1.4058 C   0  0  1  0  0  0  0  0  0  0  0  0
   -6.7239    5.9966    1.4014 C   0  0  2  0  0  0  0  0  0  0  0  0
   -7.6947    1.6951    6.1975 C   0  0  0  0  0  0  0  0  0  0  0  0
   -5.2035    4.3480    2.5922 C   0  0  0  0  0  0  0  0  0  0  0  0
   -7.6673    4.8802    1.0208 C   0  0  0  0  0  0  0  0  0  0  0  0
   -7.9022    0.9939    7.2675 N   0  0  0  0  0  0  0  0  0  0  0  0
   -8.2184    2.9502    6.2096 N   0  0  0  0  0  0  0  0  0  0  0  0
   -3.9812    2.4918    1.3059 N   0  0  0  0  0  0  0  0  0  0  0  0
   -5.6864    5.6523    2.3802 N   0  0  0  0  0  0  0  0  0  0  0  0
   -4.7524    4.0434    3.7015 O   0  0  0  0  0  0  0  0  0  0  0  0
   -7.7400    4.3774   -0.0893 O   0  0  0  0  0  0  0  0  0  0  0  0
   -8.3370    4.3936    2.0999 O   0  0  0  0  0  0  0  0  0  0  0  0
   -3.7598    2.5723   -1.2379 O   0  0  0  0  0  0  0  0  0  0  0  0
   -4.8739    0.5774   -0.2092 O   0  0  0  0  0  0  0  0  0  0  0  0
   -3.8688    1.6056   -0.1608 S   0  0  0  0  0  0  0  0  0  0  0  0
   -5.2819    3.9053    0.4947 H   0  0  0  0  0  0  0  0  0  0  0  0
   -6.2226    6.3894    0.5104 H   0  0  0  0  0  0  0  0  0  0  0  0
    3.3754   -1.2369   -0.0535 H   0  0  0  0  0  0  0  0  0  0  0  0
    3.3803    1.2439   -0.0308 H   0  0  0  0  0  0  0  0  0  0  0  0
   -7.7383    8.9097    2.9779 H   0  0  0  0  0  0  0  0  0  0  0  0
   -6.6051    8.8107    1.6243 H   0  0  0  0  0  0  0  0  0  0  0  0
   -5.3181    8.8219    3.6938 H   0  0  0  0  0  0  0  0  0  0  0  0
   -6.3144    7.5497    4.4015 H   0  0  0  0  0  0  0  0  0  0  0  0
   -5.8002   -1.7561    3.6444 H   0  0  0  0  0  0  0  0  0  0  0  0
   -5.8032   -0.3873    1.6355 H   0  0  0  0  0  0  0  0  0  0  0  0
    1.2473   -2.4785    0.0100 H   0  0  0  0  0  0  0  0  0  0  0  0
    1.2593    2.4912    0.0437 H   0  0  0  0  0  0  0  0  0  0  0  0
   -6.4562   -0.8031    5.8054 H   0  0  0  0  0  0  0  0  0  0  0  0
   -8.2155    6.5805    2.8705 H   0  0  0  0  0  0  0  0  0  0  0  0
   -8.4681    7.2603    1.2677 H   0  0  0  0  0  0  0  0  0  0  0  0
   -1.2439   -2.4741    0.0243 H   0  0  0  0  0  0  0  0  0  0  0  0
   -3.3406   -1.2230   -0.0265 H   0  0  0  0  0  0  0  0  0  0  0  0
   -4.4128    7.2597    2.0384 H   0  0  0  0  0  0  0  0  0  0  0  0
   -4.1791    6.5473    3.6271 H   0  0  0  0  0  0  0  0  0  0  0  0
   -7.2102    2.9772    3.8884 H   0  0  0  0  0  0  0  0  0  0  0  0
   -7.4091    2.6355    1.3201 H   0  0  0  0  0  0  0  0  0  0  0  0
   -6.4286    1.6768    0.5280 H   0  0  0  0  0  0  0  0  0  0  0  0
   -1.1946    2.5165   -0.0302 H   0  0  0  0  0  0  0  0  0  0  0  0
   -7.5287    0.0505    7.1755 H   0  0  0  0  0  0  0  0  0  0  0  0
   -8.0929    3.6421    5.4882 H   0  0  0  0  0  0  0  0  0  0  0  0
   -8.6858    3.2415    7.0573 H   0  0  0  0  0  0  0  0  0  0  0  0
   -3.8594    1.9161    2.1469 H   0  0  0  0  0  0  0  0  0  0  0  0
   -8.8275    3.5793    1.8598 H   0  0  0  0  0  0  0  0  0  0  0  0
  1 39  1  0  0  0  0
  2  1  2  0  0  0  0
  2 40  1  0  0  0  0
  3 41  1  0  0  0  0
  3 42  1  0  0  0  0
  4  3  1  0  0  0  0
  4 43  1  0  0  0  0
  4 44  1  0  0  0  0
  5 45  1  0  0  0  0
  6  5  2  0  0  0  0
  6 46  1  0  0  0  0
  7  1  1  0  0  0  0
  7 47  1  0  0  0  0
  8  2  1  0  0  0  0
  8 48  1  0  0  0  0
  9  5  1  0  0  0  0
  9 49  1  0  0  0  0
 10  3  1  0  0  0  0
 10 50  1  0  0  0  0
 10 51  1  0  0  0  0
 11 52  1  0  0  0  0
 12 11  2  0  0  0  0
 12 53  1  0  0  0  0
 13  4  1  0  0  0  0
 13 54  1  0  0  0  0
 13 55  1  0  0  0  0
 14 56  1  0  0  0  0
 15 57  1  0  0  0  0
 15 58  1  0  0  0  0
 16 59  1  0  0  0  0
 17  6  1  0  0  0  0
 17 14  2  0  0  0  0
 17 15  1  0  0  0  0
 18  7  2  0  0  0  0
 18 11  1  0  0  0  0
 19  8  2  0  0  0  0
 19 16  1  0  0  0  0
 19 18  1  0  0  0  0
 20  9  2  0  0  0  0
 20 14  1  0  0  0  0
 21 12  1  0  0  0  0
 21 16  2  0  0  0  0
 22 15  1  0  0  0  0
 22 29  1  0  0  0  0
 22 37  1  6  0  0  0
 23 10  1  0  0  0  0
 23 26  1  0  0  0  0
 23 38  1  6  0  0  0
 24 20  1  0  0  0  0
 25 22  1  0  0  0  0
 27 24  2  0  0  0  0
 27 60  1  0  0  0  0
 28 24  1  0  0  0  0
 28 61  1  0  0  0  0
 28 62  1  0  0  0  0
 29 63  1  0  0  0  0
 30 13  1  0  0  0  0
 30 23  1  0  0  0  0
 30 25  1  0  0  0  0
 31 25  2  0  0  0  0
 32 26  2  0  0  0  0
 33 26  1  0  0  0  0
 33 64  1  0  0  0  0
 36 21  1  0  0  0  0
 36 29  1  0  0  0  0
 36 34  2  0  0  0  0
 36 35  2  0  0  0  0
M  END
>  <DRUGBANK_ID>
DB04238

>  <SECONDARY_ACCESSION_NUMBERS>
EXPT01409

>  <COMMON_NAME>
N-Alpha-(2-Naphthylsulfonyl)-N-(3-Amidino-L-Phenylalaninyl)-D-Pipecolinic Acid

$$$$
