
 OpenBabel10282417133D

110116  0  0  0  0  0  0  0  0999 V2000
   -5.9547   -2.5727   -4.1751 O   0  0  0  0  0  0  0  0  0  0  0  0
   -7.0919   -0.8469   -5.3866 O   0  0  0  0  0  0  0  0  0  0  0  0
   -5.3911    0.2785    3.3950 O   0  0  0  0  0  0  0  0  0  0  0  0
   -3.8695    0.1888    0.4923 O   0  0  0  0  0  0  0  0  0  0  0  0
   -6.5092    2.5934    7.6883 O   0  0  0  0  0  0  0  0  0  0  0  0
   -6.4009    5.7575   -0.6153 O   0  0  0  0  0  0  0  0  0  0  0  0
   -5.1575    4.1690    3.4439 O   0  0  0  0  0  0  0  0  0  0  0  0
   -9.2969    6.9493    7.6998 O   0  0  0  0  0  0  0  0  0  0  0  0
  -11.8639    3.4051    5.5652 O   0  0  0  0  0  0  0  0  0  0  0  0
  -11.4408    6.3288    5.8826 O   0  0  0  0  0  0  0  0  0  0  0  0
   -5.9413    1.1104    0.7688 N   0  0  0  0  0  0  0  0  0  0  0  0
   -6.9497    1.6232    5.6794 N   0  0  0  0  0  0  0  0  0  0  0  0
   -5.6142    4.5565    1.2387 N   0  0  0  0  0  0  0  0  0  0  0  0
   -5.5317    0.3816   -1.9218 C   0  0  1  0  0  0  0  0  0  0  0  0
   -6.0782   -1.3987   -3.3937 C   0  0  3  0  0  0  0  0  0  0  0  0
   -6.1667   -0.2979   -4.4692 C   0  0  3  0  0  0  0  0  0  0  0  0
   -5.1439   -1.0598   -2.2534 C   0  0  0  0  0  0  0  0  0  0  0  0
   -5.2923    1.3924   -3.0087 C   0  0  0  0  0  0  0  0  0  0  0  0
   -6.3420    1.1728   -4.0655 C   0  0  0  0  0  0  0  0  0  0  0  0
   -6.9478    0.4737   -1.3599 C   0  0  0  0  0  0  0  0  0  0  0  0
   -6.8619    0.1508    0.0972 C   0  0  0  0  0  0  0  0  0  0  0  0
   -6.8177   -2.2674   -5.3045 C   0  0  0  0  0  0  0  0  0  0  0  0
   -6.5531    1.7801    1.8155 C   0  0  0  0  0  0  0  0  0  0  0  0
   -6.1456    1.4670    3.2834 C   0  0  1  0  0  0  0  0  0  0  0  0
   -4.5675    1.1673    0.7691 C   0  0  0  0  0  0  0  0  0  0  0  0
   -7.3654    1.3572    4.2069 C   0  0  2  0  0  0  0  0  0  0  0  0
   -3.8944    2.4808    1.1994 C   0  0  0  0  0  0  0  0  0  0  0  0
   -8.2518    2.4346    3.6929 C   0  0  0  0  0  0  0  0  0  0  0  0
   -4.3589    3.9032    0.7156 C   0  0  0  0  0  0  0  0  0  0  0  0
   -9.1106    2.4480    2.4005 C   0  0  0  0  0  0  0  0  0  0  0  0
   -7.2173    2.5839    6.6795 C   0  0  0  0  0  0  0  0  0  0  0  0
   -6.4148    5.4453    0.6008 C   0  0  0  0  0  0  0  0  0  0  0  0
   -5.9197    4.6316    2.5702 C   0  0  0  0  0  0  0  0  0  0  0  0
   -9.7668    1.3909    1.8486 C   0  0  0  0  0  0  0  0  0  0  0  0
   -9.2581    3.5234    1.5489 C   0  0  0  0  0  0  0  0  0  0  0  0
   -7.3873    6.0136    1.5926 C   0  0  0  0  0  0  0  0  0  0  0  0
   -7.2020    5.3994    2.8259 C   0  0  0  0  0  0  0  0  0  0  0  0
   -8.3616    3.5690    6.6669 C   0  0  0  0  0  0  0  0  0  0  0  0
  -10.4526    1.5176    0.5866 C   0  0  0  0  0  0  0  0  0  0  0  0
   -9.9767    3.7657    0.3862 C   0  0  0  0  0  0  0  0  0  0  0  0
  -10.5991    2.7084   -0.1338 C   0  0  0  0  0  0  0  0  0  0  0  0
   -8.6347    6.5651    1.3021 C   0  0  0  0  0  0  0  0  0  0  0  0
   -8.3795    5.2512    3.7159 C   0  0  0  0  0  0  0  0  0  0  0  0
   -9.6339    3.0992    6.3453 C   0  0  0  0  0  0  0  0  0  0  0  0
   -8.2689    4.9147    7.0622 C   0  0  0  0  0  0  0  0  0  0  0  0
   -9.7115    6.3956    2.2051 C   0  0  0  0  0  0  0  0  0  0  0  0
   -9.6452    5.6863    3.3736 C   0  0  0  0  0  0  0  0  0  0  0  0
   -9.4253    5.7530    7.0128 C   0  0  0  0  0  0  0  0  0  0  0  0
  -10.7203    3.9470    6.0786 C   0  0  0  0  0  0  0  0  0  0  0  0
  -10.6126    5.3225    6.3475 C   0  0  0  0  0  0  0  0  0  0  0  0
  -12.7308    6.1530    5.2743 C   0  0  0  0  0  0  0  0  0  0  0  0
  -10.5230    7.6318    7.9933 C   0  0  0  0  0  0  0  0  0  0  0  0
  -11.7895    2.2363    4.7237 C   0  0  0  0  0  0  0  0  0  0  0  0
  -12.8073    6.0628    3.7510 C   0  0  0  0  0  0  0  0  0  0  0  0
  -12.9168    4.7858    3.2171 C   0  0  0  0  0  0  0  0  0  0  0  0
  -12.6636    7.0977    2.8279 C   0  0  0  0  0  0  0  0  0  0  0  0
  -12.7233    4.4654    1.8868 C   0  0  0  0  0  0  0  0  0  0  0  0
  -12.6797    6.8133    1.4318 C   0  0  0  0  0  0  0  0  0  0  0  0
  -12.6783    5.4867    0.9625 C   0  0  0  0  0  0  0  0  0  0  0  0
   -4.4633    0.5759    3.4216 H   0  0  0  0  0  0  0  0  0  0  0  0
   -6.1233    1.0850    5.9413 H   0  0  0  0  0  0  0  0  0  0  0  0
   -4.8076    0.7333   -1.2398 H   0  0  0  0  0  0  0  0  0  0  0  0
   -7.0061   -1.6181   -2.8678 H   0  0  0  0  0  0  0  0  0  0  0  0
   -5.2142   -0.2638   -5.0037 H   0  0  0  0  0  0  0  0  0  0  0  0
   -4.0631   -1.1609   -2.4186 H   0  0  0  0  0  0  0  0  0  0  0  0
   -5.3444   -1.7080   -1.3835 H   0  0  0  0  0  0  0  0  0  0  0  0
   -5.2950    2.4058   -2.5858 H   0  0  0  0  0  0  0  0  0  0  0  0
   -4.2800    1.2199   -3.3963 H   0  0  0  0  0  0  0  0  0  0  0  0
   -7.3421    1.4712   -3.7175 H   0  0  0  0  0  0  0  0  0  0  0  0
   -6.1252    1.8443   -4.9013 H   0  0  0  0  0  0  0  0  0  0  0  0
   -7.3757    1.4774   -1.4969 H   0  0  0  0  0  0  0  0  0  0  0  0
   -7.6892   -0.1889   -1.8285 H   0  0  0  0  0  0  0  0  0  0  0  0
   -7.9129    0.2749    0.4006 H   0  0  0  0  0  0  0  0  0  0  0  0
   -6.6132   -0.8722    0.3675 H   0  0  0  0  0  0  0  0  0  0  0  0
   -7.7880   -2.7737   -5.2369 H   0  0  0  0  0  0  0  0  0  0  0  0
   -6.2955   -2.6126   -6.1976 H   0  0  0  0  0  0  0  0  0  0  0  0
   -6.8036    2.7624    1.4228 H   0  0  0  0  0  0  0  0  0  0  0  0
   -7.4992    1.3171    1.7614 H   0  0  0  0  0  0  0  0  0  0  0  0
   -5.5430    2.2360    3.7423 H   0  0  0  0  0  0  0  0  0  0  0  0
   -7.8808    0.3992    4.1539 H   0  0  0  0  0  0  0  0  0  0  0  0
   -3.7687    2.4201    2.2814 H   0  0  0  0  0  0  0  0  0  0  0  0
   -2.8691    2.3651    0.8066 H   0  0  0  0  0  0  0  0  0  0  0  0
   -8.9798    2.4503    4.4451 H   0  0  0  0  0  0  0  0  0  0  0  0
   -7.5291    3.2448    3.8857 H   0  0  0  0  0  0  0  0  0  0  0  0
   -3.5786    4.5753    1.1009 H   0  0  0  0  0  0  0  0  0  0  0  0
   -4.3008    3.9702   -0.3798 H   0  0  0  0  0  0  0  0  0  0  0  0
   -9.6374    0.4337    2.3323 H   0  0  0  0  0  0  0  0  0  0  0  0
   -8.7655    4.3808    1.7899 H   0  0  0  0  0  0  0  0  0  0  0  0
  -10.8767    0.6369    0.1419 H   0  0  0  0  0  0  0  0  0  0  0  0
  -10.1064    4.7760    0.0010 H   0  0  0  0  0  0  0  0  0  0  0  0
  -11.1866    2.8856   -1.0263 H   0  0  0  0  0  0  0  0  0  0  0  0
   -8.9349    6.6751    0.2618 H   0  0  0  0  0  0  0  0  0  0  0  0
   -8.6854    4.3893    4.3048 H   0  0  0  0  0  0  0  0  0  0  0  0
   -9.7387    2.0426    6.1333 H   0  0  0  0  0  0  0  0  0  0  0  0
   -7.3185    5.3272    7.4091 H   0  0  0  0  0  0  0  0  0  0  0  0
  -10.6501    6.2249    1.7300 H   0  0  0  0  0  0  0  0  0  0  0  0
  -10.4894    4.9658    3.5720 H   0  0  0  0  0  0  0  0  0  0  0  0
  -13.2472    5.3110    5.7438 H   0  0  0  0  0  0  0  0  0  0  0  0
  -13.3316    7.0289    5.5410 H   0  0  0  0  0  0  0  0  0  0  0  0
  -10.8236    8.2035    7.1116 H   0  0  0  0  0  0  0  0  0  0  0  0
  -11.3242    6.9572    8.3281 H   0  0  0  0  0  0  0  0  0  0  0  0
  -10.3676    8.3570    8.7986 H   0  0  0  0  0  0  0  0  0  0  0  0
  -11.0670    2.3508    3.9198 H   0  0  0  0  0  0  0  0  0  0  0  0
  -11.6214    1.3270    5.2944 H   0  0  0  0  0  0  0  0  0  0  0  0
  -12.7524    2.1093    4.2126 H   0  0  0  0  0  0  0  0  0  0  0  0
  -12.9735    3.9866    3.9089 H   0  0  0  0  0  0  0  0  0  0  0  0
  -12.3629    8.0886    3.1655 H   0  0  0  0  0  0  0  0  0  0  0  0
  -12.4212    3.4431    1.6637 H   0  0  0  0  0  0  0  0  0  0  0  0
  -12.3810    7.5876    0.7241 H   0  0  0  0  0  0  0  0  0  0  0  0
  -12.3913    5.2623   -0.0641 H   0  0  0  0  0  0  0  0  0  0  0  0
  1 15  1  0  0  0  0
  1 22  1  0  0  0  0
  2 16  1  0  0  0  0
  2 22  1  0  0  0  0
  3 60  1  0  0  0  0
  4 25  2  0  0  0  0
  5 31  2  0  0  0  0
  6 32  2  0  0  0  0
  7 33  2  0  0  0  0
  8 48  1  0  0  0  0
  8 52  1  0  0  0  0
  9 49  1  0  0  0  0
  9 53  1  0  0  0  0
 10 50  1  0  0  0  0
 10 51  1  0  0  0  0
 11 21  1  0  0  0  0
 11 23  1  0  0  0  0
 11 25  1  0  0  0  0
 12 31  1  0  0  0  0
 12 61  1  0  0  0  0
 13 29  1  0  0  0  0
 13 32  1  0  0  0  0
 13 33  1  0  0  0  0
 14 17  1  0  0  0  0
 14 18  1  0  0  0  0
 14 62  1  1  0  0  0
 14 20  1  0  0  0  0
 15 16  1  0  0  0  0
 15 17  1  0  0  0  0
 15 63  1  0  0  0  0
 16 19  1  0  0  0  0
 16 64  1  0  0  0  0
 17 65  1  0  0  0  0
 17 66  1  0  0  0  0
 18 19  1  0  0  0  0
 18 67  1  0  0  0  0
 18 68  1  0  0  0  0
 19 69  1  0  0  0  0
 19 70  1  0  0  0  0
 20 21  1  0  0  0  0
 20 71  1  0  0  0  0
 20 72  1  0  0  0  0
 21 73  1  0  0  0  0
 21 74  1  0  0  0  0
 22 75  1  0  0  0  0
 22 76  1  0  0  0  0
 23 77  1  0  0  0  0
 23 78  1  0  0  0  0
 24 26  1  0  0  0  0
 24 79  1  1  0  0  0
 24 23  1  0  0  0  0
 24  3  1  0  0  0  0
 25 27  1  0  0  0  0
 26 12  1  0  0  0  0
 26 28  1  0  0  0  0
 26 80  1  6  0  0  0
 27 29  1  0  0  0  0
 27 81  1  0  0  0  0
 27 82  1  0  0  0  0
 28 30  1  0  0  0  0
 28 83  1  0  0  0  0
 28 84  1  0  0  0  0
 29 85  1  0  0  0  0
 29 86  1  0  0  0  0
 30 34  2  0  0  0  0
 30 35  1  0  0  0  0
 31 38  1  0  0  0  0
 32 36  1  0  0  0  0
 33 37  1  0  0  0  0
 34 39  1  0  0  0  0
 34 87  1  0  0  0  0
 35 40  2  0  0  0  0
 35 88  1  0  0  0  0
 36 37  1  0  0  0  0
 36 42  2  0  0  0  0
 37 43  2  0  0  0  0
 38 44  2  0  0  0  0
 38 45  1  0  0  0  0
 39 41  2  0  0  0  0
 39 89  1  0  0  0  0
 40 41  1  0  0  0  0
 40 90  1  0  0  0  0
 41 91  1  0  0  0  0
 42 46  1  0  0  0  0
 42 92  1  0  0  0  0
 43 47  1  0  0  0  0
 43 93  1  0  0  0  0
 44 49  1  0  0  0  0
 44 94  1  0  0  0  0
 45 48  2  0  0  0  0
 45 95  1  0  0  0  0
 46 47  2  0  0  0  0
 46 96  1  0  0  0  0
 47 97  1  0  0  0  0
 48 50  1  0  0  0  0
 49 50  2  0  0  0  0
 51 54  1  0  0  0  0
 51 98  1  0  0  0  0
 51 99  1  0  0  0  0
 52100  1  0  0  0  0
 52101  1  0  0  0  0
 52102  1  0  0  0  0
 53103  1  0  0  0  0
 53104  1  0  0  0  0
 53105  1  0  0  0  0
 54 55  2  0  0  0  0
 54 56  1  0  0  0  0
 55 57  1  0  0  0  0
 55106  1  0  0  0  0
 56 58  2  0  0  0  0
 56107  1  0  0  0  0
 57 59  2  0  0  0  0
 57108  1  0  0  0  0
 58 59  1  0  0  0  0
 58109  1  0  0  0  0
 59110  1  0  0  0  0
M  END
>  <DRUGBANK_ID>
DB03063

>  <SECONDARY_ACCESSION_NUMBERS>
EXPT01332

>  <COMMON_NAME>
N-[(2S,3S)-4-[2-[(5S)-3a,4,5,6,7,7a-Hexahydro-1,3-benzodioxol-5-yl]ethyl-[3-(1,3-dioxoisoindol-2-yl)propanoyl]amino]-3-hydroxy-1-phenylbutan-2-yl]-3,5-dimethoxy-4-phenylmethoxybenzamide

$$$$
