
 OpenBabel10282417133D

 27 27  0  0  0  0  0  0  0  0999 V2000
    1.3099   -0.2416    0.0979 C   0  0  0  0  0  0  0  0  0  0  0  0
    0.4386   -1.3284    0.0177 C   0  0  0  0  0  0  0  0  0  0  0  0
    0.7561    1.0489    0.1541 C   0  0  0  0  0  0  0  0  0  0  0  0
   -0.9406   -1.1219   -0.0245 C   0  0  0  0  0  0  0  0  0  0  0  0
   -0.6159    1.2596    0.0925 C   0  0  0  0  0  0  0  0  0  0  0  0
   -1.4660    0.1701   -0.0065 C   0  0  0  0  0  0  0  0  0  0  0  0
    2.7994   -0.4892    0.1578 C   0  0  0  0  0  0  0  0  0  0  0  0
    3.5629    0.0660   -1.0528 C   0  0  0  0  0  0  0  0  0  0  0  0
    3.5389    1.5976   -1.1691 C   0  0  0  0  0  0  0  0  0  0  0  0
    3.9803    2.3083    0.1170 C   0  0  0  0  0  0  0  0  0  0  0  0
    6.2168    3.1256    0.4150 O   0  0  0  0  0  0  0  0  0  0  0  0
    5.4341    2.0314    0.4070 C   0  0  0  0  0  0  0  0  0  0  0  0
    5.8870    0.9134    0.6240 O   0  0  0  0  0  0  0  0  0  0  0  0
    0.8300   -2.3430   -0.0023 H   0  0  0  0  0  0  0  0  0  0  0  0
    1.3684    1.9368    0.2397 H   0  0  0  0  0  0  0  0  0  0  0  0
   -1.6082   -1.9765   -0.0613 H   0  0  0  0  0  0  0  0  0  0  0  0
   -1.0050    2.2731    0.1372 H   0  0  0  0  0  0  0  0  0  0  0  0
   -2.5377    0.3298   -0.0569 H   0  0  0  0  0  0  0  0  0  0  0  0
    3.1853   -0.0965    1.1052 H   0  0  0  0  0  0  0  0  0  0  0  0
    2.9974   -1.5683    0.2133 H   0  0  0  0  0  0  0  0  0  0  0  0
    4.6045   -0.2703   -0.9960 H   0  0  0  0  0  0  0  0  0  0  0  0
    3.1696   -0.3767   -1.9757 H   0  0  0  0  0  0  0  0  0  0  0  0
    4.1690    1.9157   -2.0060 H   0  0  0  0  0  0  0  0  0  0  0  0
    2.5329    1.9164   -1.4639 H   0  0  0  0  0  0  0  0  0  0  0  0
    3.7880    3.3827    0.0298 H   0  0  0  0  0  0  0  0  0  0  0  0
    3.4149    1.9963    1.0025 H   0  0  0  0  0  0  0  0  0  0  0  0
    5.7453    3.9653    0.2688 H   0  0  0  0  0  0  0  0  0  0  0  0
  1  7  1  0  0  0  0
  2  1  1  0  0  0  0
  2 14  1  0  0  0  0
  3  1  2  0  0  0  0
  3 15  1  0  0  0  0
  4  2  2  0  0  0  0
  4 16  1  0  0  0  0
  5  3  1  0  0  0  0
  5 17  1  0  0  0  0
  6  4  1  0  0  0  0
  6  5  2  0  0  0  0
  6 18  1  0  0  0  0
  7 19  1  0  0  0  0
  7 20  1  0  0  0  0
  8  7  1  0  0  0  0
  8 21  1  0  0  0  0
  8 22  1  0  0  0  0
  9  8  1  0  0  0  0
  9 23  1  0  0  0  0
  9 24  1  0  0  0  0
 10  9  1  0  0  0  0
 10 25  1  0  0  0  0
 10 26  1  0  0  0  0
 11 12  1  0  0  0  0
 11 27  1  0  0  0  0
 12 10  1  0  0  0  0
 12 13  2  0  0  0  0
M  END
>  <DRUGBANK_ID>
DB04051

>  <SECONDARY_ACCESSION_NUMBERS>
EXPT00258

>  <COMMON_NAME>
5-phenylpentanoic acid

>  <CAS_NUMBER>
2270-20-4

>  <UNII>
XYJ5U8LCQ8

>  <SYNONYMS>
5-Phenylvaleric acid; Benzenepentanoic-acid; Phenylpentanoic acid; Phenylvaleric acid; Î´-phenylvaleric acid

$$$$
