
 OpenBabel10282417193D

 76 80  0  0  1  0  0  0  0  0999 V2000
    1.4026   -0.2797   -0.2327 C   0  0  0  0  0  0  0  0  0  0  0  0
    0.7384   -1.1574    0.8399 C   0  0  0  0  0  0  0  0  0  0  0  0
    1.3451   -0.8558    2.2201 C   0  0  0  0  0  0  0  0  0  0  0  0
   -0.7195   -1.2282    0.6758 N   0  0  0  0  0  0  0  0  0  0  0  0
   -1.4575   -2.4454    0.4284 C   0  0  0  0  0  0  0  0  0  0  0  0
   -1.1348   -3.5611    1.1506 C   0  0  0  0  0  0  0  0  0  0  0  0
   -1.9318   -4.6988    1.0131 C   0  0  0  0  0  0  0  0  0  0  0  0
   -3.1152   -4.7070    0.2578 C   0  0  0  0  0  0  0  0  0  0  0  0
   -3.5334   -3.5738   -0.3705 C   0  0  0  0  0  0  0  0  0  0  0  0
   -2.6320   -2.5403   -0.3886 C   0  0  0  0  0  0  0  0  0  0  0  0
   -1.4908   -0.1175    0.7393 C   0  0  0  0  0  0  0  0  0  0  0  0
   -2.0536    0.2611    1.7605 O   0  0  0  0  0  0  0  0  0  0  0  0
   -2.2005    0.1002   -0.5154 C   0  0  0  0  0  0  0  0  0  0  0  0
   -1.6225    0.2260   -2.1908 N   0  0  0  0  0  0  0  0  0  0  0  0
   -0.2101    1.0268   -3.0651 C   0  0  0  0  0  0  0  0  0  0  0  0
    1.0386    0.7308   -3.7746 C   0  0  0  0  0  0  0  0  0  0  0  0
    2.1588    1.8007   -4.3206 C   0  0  0  0  0  0  0  0  0  0  0  0
    2.0879    3.1743   -4.2364 C   0  0  0  0  0  0  0  0  0  0  0  0
    0.8459    3.4809   -3.8275 C   0  0  0  0  0  0  0  0  0  0  0  0
   -0.1779    2.4570   -3.3564 C   0  0  0  0  0  0  0  0  0  0  0  0
   -1.1965    3.0889   -2.7756 N   0  0  0  0  0  0  0  0  0  0  0  0
   -1.2766    2.6579   -1.5160 C   0  0  0  0  0  0  0  0  0  0  0  0
   -0.3401    2.1056   -0.9199 O   0  0  0  0  0  0  0  0  0  0  0  0
   -2.6685    2.3075   -1.2975 C   0  0  2  0  0  0  0  0  0  0  0  0
   -2.8408    1.0533   -2.3259 C   0  0  0  0  0  0  0  0  0  0  0  0
   -3.9453    0.5612   -2.6321 O   0  0  0  0  0  0  0  0  0  0  0  0
   -3.6863    3.2573   -1.2259 N   0  0  0  0  0  0  0  0  0  0  0  0
   -3.8328    4.1256   -0.2093 C   0  0  0  0  0  0  0  0  0  0  0  0
   -4.6361    5.0518   -0.4037 O   0  0  0  0  0  0  0  0  0  0  0  0
   -3.1694    4.1297    0.9816 N   0  0  0  0  0  0  0  0  0  0  0  0
   -2.1805    3.4100    1.6956 C   0  0  0  0  0  0  0  0  0  0  0  0
   -0.8879    3.2728    1.2438 C   0  0  0  0  0  0  0  0  0  0  0  0
   -0.0907    2.2797    1.7868 C   0  0  0  0  0  0  0  0  0  0  0  0
   -0.4239    1.6835    2.9755 C   0  0  0  0  0  0  0  0  0  0  0  0
   -1.5570    2.0548    3.6410 C   0  0  0  0  0  0  0  0  0  0  0  0
   -2.4862    2.8551    2.9536 C   0  0  0  0  0  0  0  0  0  0  0  0
   -1.8417    1.2879    4.8838 C   0  0  0  0  0  0  0  0  0  0  0  0
   -2.7193    1.5326    5.6478 O   0  0  0  0  0  0  0  0  0  0  0  0
   -0.8737    0.3495    5.1376 O   0  0  0  0  0  0  0  0  0  0  0  0
   -1.7196    4.2682   -3.2138 C   0  0  0  0  0  0  0  0  0  0  0  0
   -1.9617    5.1833   -2.2065 C   0  0  0  0  0  0  0  0  0  0  0  0
   -2.8448    6.1876   -2.4368 C   0  0  0  0  0  0  0  0  0  0  0  0
   -3.2761    6.3924   -3.7320 C   0  0  0  0  0  0  0  0  0  0  0  0
   -2.7985    5.6107   -4.7930 C   0  0  0  0  0  0  0  0  0  0  0  0
   -2.0724    4.4687   -4.5352 C   0  0  0  0  0  0  0  0  0  0  0  0
    1.3281    0.8001   -0.1558 H   0  0  0  0  0  0  0  0  0  0  0  0
    0.9851   -0.5338   -1.2044 H   0  0  0  0  0  0  0  0  0  0  0  0
    2.4798   -0.4315   -0.2188 H   0  0  0  0  0  0  0  0  0  0  0  0
    1.0692   -2.1635    0.6063 H   0  0  0  0  0  0  0  0  0  0  0  0
    1.4091    0.1979    2.4800 H   0  0  0  0  0  0  0  0  0  0  0  0
    0.8454   -1.4027    3.0266 H   0  0  0  0  0  0  0  0  0  0  0  0
    2.4097   -1.1003    2.2253 H   0  0  0  0  0  0  0  0  0  0  0  0
   -0.3024   -3.5401    1.8416 H   0  0  0  0  0  0  0  0  0  0  0  0
   -1.6347   -5.5978    1.5312 H   0  0  0  0  0  0  0  0  0  0  0  0
   -3.7047   -5.6020    0.1275 H   0  0  0  0  0  0  0  0  0  0  0  0
   -4.4793   -3.4689   -0.9003 H   0  0  0  0  0  0  0  0  0  0  0  0
   -2.9708   -1.8373   -1.1444 H   0  0  0  0  0  0  0  0  0  0  0  0
   -3.0909   -0.5488   -0.2319 H   0  0  0  0  0  0  0  0  0  0  0  0
   -3.1401    0.7022   -0.2234 H   0  0  0  0  0  0  0  0  0  0  0  0
    1.3532   -0.2404   -4.1551 H   0  0  0  0  0  0  0  0  0  0  0  0
    3.0658    1.5004   -4.8705 H   0  0  0  0  0  0  0  0  0  0  0  0
    2.8233    3.9484   -4.5072 H   0  0  0  0  0  0  0  0  0  0  0  0
    0.6287    4.5527   -3.7437 H   0  0  0  0  0  0  0  0  0  0  0  0
   -2.5360    2.1311   -0.2485 H   0  0  0  0  0  0  0  0  0  0  0  0
   -4.0872    3.5047   -2.1215 H   0  0  0  0  0  0  0  0  0  0  0  0
   -3.5015    4.9108    1.5268 H   0  0  0  0  0  0  0  0  0  0  0  0
   -0.5659    3.7194    0.3186 H   0  0  0  0  0  0  0  0  0  0  0  0
    0.4740    1.6715    1.1030 H   0  0  0  0  0  0  0  0  0  0  0  0
   -0.1929    0.6285    3.1207 H   0  0  0  0  0  0  0  0  0  0  0  0
   -3.5082    2.8732    3.3051 H   0  0  0  0  0  0  0  0  0  0  0  0
   -0.9739    0.0738    6.0659 H   0  0  0  0  0  0  0  0  0  0  0  0
   -1.6212    4.9848   -1.1949 H   0  0  0  0  0  0  0  0  0  0  0  0
   -3.2290    6.7320   -1.5835 H   0  0  0  0  0  0  0  0  0  0  0  0
   -3.9940    7.1814   -3.9004 H   0  0  0  0  0  0  0  0  0  0  0  0
   -3.0258    5.8846   -5.8134 H   0  0  0  0  0  0  0  0  0  0  0  0
   -1.8280    3.7512   -5.3182 H   0  0  0  0  0  0  0  0  0  0  0  0
  1  2  1  0  0  0  0
  1 46  1  0  0  0  0
  1 47  1  0  0  0  0
  1 48  1  0  0  0  0
  2  3  1  0  0  0  0
  2  4  1  0  0  0  0
  2 49  1  0  0  0  0
  3 50  1  0  0  0  0
  3 51  1  0  0  0  0
  3 52  1  0  0  0  0
  4  5  1  0  0  0  0
  4 11  1  0  0  0  0
  5  6  2  0  0  0  0
  5 10  1  0  0  0  0
  6  7  1  0  0  0  0
  6 53  1  0  0  0  0
  7  8  2  0  0  0  0
  7 54  1  0  0  0  0
  8  9  1  0  0  0  0
  8 55  1  0  0  0  0
  9 10  2  0  0  0  0
  9 56  1  0  0  0  0
 10 57  1  0  0  0  0
 11 12  2  0  0  0  0
 11 13  1  0  0  0  0
 13 14  1  0  0  0  0
 13 58  1  0  0  0  0
 13 59  1  0  0  0  0
 14 15  1  0  0  0  0
 14 25  1  0  0  0  0
 15 16  2  0  0  0  0
 15 20  1  0  0  0  0
 16 17  1  0  0  0  0
 16 60  1  0  0  0  0
 17 18  2  0  0  0  0
 17 61  1  0  0  0  0
 18 19  1  0  0  0  0
 18 62  1  0  0  0  0
 19 20  2  0  0  0  0
 19 63  1  0  0  0  0
 20 21  1  0  0  0  0
 21 22  1  0  0  0  0
 21 40  1  0  0  0  0
 22 23  2  0  0  0  0
 22 24  1  0  0  0  0
 24 25  1  0  0  0  0
 24 27  1  0  0  0  0
 24 64  1  1  0  0  0
 25 26  2  0  0  0  0
 27 28  1  0  0  0  0
 27 65  1  0  0  0  0
 28 29  2  0  0  0  0
 28 30  1  0  0  0  0
 30 31  1  0  0  0  0
 30 66  1  0  0  0  0
 31 32  2  0  0  0  0
 31 36  1  0  0  0  0
 32 33  1  0  0  0  0
 32 67  1  0  0  0  0
 33 34  2  0  0  0  0
 33 68  1  0  0  0  0
 34 35  1  0  0  0  0
 34 69  1  0  0  0  0
 35 36  2  0  0  0  0
 35 37  1  0  0  0  0
 36 70  1  0  0  0  0
 37 38  2  0  0  0  0
 37 39  1  0  0  0  0
 39 71  1  0  0  0  0
 40 41  2  0  0  0  0
 40 45  1  0  0  0  0
 41 42  1  0  0  0  0
 41 72  1  0  0  0  0
 42 43  2  0  0  0  0
 42 73  1  0  0  0  0
 43 44  1  0  0  0  0
 43 74  1  0  0  0  0
 44 45  2  0  0  0  0
 44 75  1  0  0  0  0
 45 76  1  0  0  0  0
M  END
>  <DRUGBANK_ID>
DB12309

>  <COMMON_NAME>
GI-181771X

>  <CAS_NUMBER>
305366-98-7

>  <UNII>
6YF0SHR37T

$$$$
