300
 OpenBabel10282417133D

 24 24  0  0  0  0  0  0  0  0999 V2000
    1.3215   -0.1313    0.0097 C   0  0  0  0  0  0  0  0  0  0  0  0
    0.5194   -1.2719    0.0282 C   0  0  0  0  0  0  0  0  0  0  0  0
   -0.8627   -1.1457   -0.0749 C   0  0  0  0  0  0  0  0  0  0  0  0
   -1.4434    0.1179   -0.1841 C   0  0  0  0  0  0  0  0  0  0  0  0
   -0.6634    1.2814   -0.0854 C   0  0  0  0  0  0  0  0  0  0  0  0
    0.7369    1.1500   -0.0744 C   0  0  0  0  0  0  0  0  0  0  0  0
    1.6802    2.2792   -0.2508 C   0  0  0  0  0  0  0  0  0  0  0  0
   -1.3004    2.5067   -0.0400 O   0  0  0  0  0  0  0  0  0  0  0  0
   -2.7736    0.3424   -0.4067 O   0  0  0  0  0  0  0  0  0  0  0  0
   -3.6645   -0.7575   -0.4299 C   0  0  0  0  0  0  0  0  0  0  0  0
   -2.5204    2.8590    0.9657 P   0  0  0  0  0  0  0  0  0  0  0  0
   -2.8415    1.5867    1.8866 O   0  0  0  0  0  0  0  0  0  0  0  0
   -2.4104    4.1192    1.7580 O   0  0  0  0  0  0  0  0  0  0  0  0
   -3.8835    2.9216    0.1138 O   0  0  0  0  0  0  0  0  0  0  0  0
    1.3313    3.4507   -0.3707 O   0  0  0  0  0  0  0  0  0  0  0  0
    2.4025   -0.2637    0.0457 H   0  0  0  0  0  0  0  0  0  0  0  0
    0.9669   -2.2633    0.0744 H   0  0  0  0  0  0  0  0  0  0  0  0
   -1.4639   -2.0484   -0.0785 H   0  0  0  0  0  0  0  0  0  0  0  0
    2.7505    2.0131   -0.3206 H   0  0  0  0  0  0  0  0  0  0  0  0
   -3.4760   -1.4001   -1.2918 H   0  0  0  0  0  0  0  0  0  0  0  0
   -3.6106   -1.3055    0.5149 H   0  0  0  0  0  0  0  0  0  0  0  0
   -4.6706   -0.3371   -0.5130 H   0  0  0  0  0  0  0  0  0  0  0  0
   -3.1442    0.8679    1.3028 H   0  0  0  0  0  0  0  0  0  0  0  0
   -4.4263    3.6572    0.4652 H   0  0  0  0  0  0  0  0  0  0  0  0
  1  2  2  0  0  0  0
  1  6  1  0  0  0  0
  1 16  1  0  0  0  0
  2  3  1  0  0  0  0
  2 17  1  0  0  0  0
  3  4  2  0  0  0  0
  3 18  1  0  0  0  0
  4  5  1  0  0  0  0
  4  9  1  0  0  0  0
  5  6  2  0  0  0  0
  5  8  1  0  0  0  0
  6  7  1  0  0  0  0
  7 15  2  0  0  0  0
  7 19  1  0  0  0  0
  8 11  1  0  0  0  0
  9 10  1  0  0  0  0
 10 20  1  0  0  0  0
 10 21  1  0  0  0  0
 10 22  1  0  0  0  0
 11 12  1  0  0  0  0
 11 13  2  0  0  0  0
 11 14  1  0  0  0  0
 12 23  1  0  0  0  0
 14 24  1  0  0  0  0
M  END
>  <DRUGBANK_ID>
DB03306

>  <SECONDARY_ACCESSION_NUMBERS>
EXPT00147

>  <COMMON_NAME>
RU78300

$$$$
