PFD
 OpenBabel10282417173D

 48 50  0  0  0  0  0  0  0  0999 V2000
    2.1825   -0.0497   -0.0157 F   0  0  0  0  0  0  0  0  0  0  0  0
    0.8444   -0.0230   -0.0099 C   0  0  0  0  0  0  0  0  0  0  0  0
    0.1917    1.1994    0.0095 C   0  0  0  0  0  0  0  0  0  0  0  0
   -1.1985    1.2249    0.0736 C   0  0  0  0  0  0  0  0  0  0  0  0
    0.1311   -1.2178   -0.0082 C   0  0  0  0  0  0  0  0  0  0  0  0
   -1.2645   -1.1927    0.0154 C   0  0  0  0  0  0  0  0  0  0  0  0
   -1.9370    0.0288    0.0753 C   0  0  0  0  0  0  0  0  0  0  0  0
   -3.3133   -0.0603    0.1984 O   0  0  0  0  0  0  0  0  0  0  0  0
   -4.0444    1.0831    0.0256 C   0  0  0  0  0  0  0  0  0  0  0  0
   -3.8736    1.8487   -1.1081 C   0  0  0  0  0  0  0  0  0  0  0  0
   -4.4734    3.0806   -1.1744 C   0  0  0  0  0  0  0  0  0  0  0  0
   -4.9608    1.4802    0.9973 C   0  0  0  0  0  0  0  0  0  0  0  0
   -5.6165    2.7178    0.8704 C   0  0  0  0  0  0  0  0  0  0  0  0
   -5.2827    3.5783   -0.1873 C   0  0  0  0  0  0  0  0  0  0  0  0
   -5.6472    4.8932   -0.1580 O   0  0  0  0  0  0  0  0  0  0  0  0
   -5.8070    5.7597   -1.3158 C   0  0  0  0  0  0  0  0  0  0  0  0
   -6.8376    6.9149   -0.9957 C   0  0  0  0  0  0  0  0  0  0  0  0
   -8.3724    6.6457   -1.0531 C   0  0  0  0  0  0  0  0  0  0  0  0
   -8.9810    5.7771   -0.0870 O   0  0  0  0  0  0  0  0  0  0  0  0
   -8.4304    4.4751   -0.0316 C   0  0  0  0  0  0  0  0  0  0  0  0
   -8.5427    3.6739   -1.3125 C   0  0  0  0  0  0  0  0  0  0  0  0
   -6.1223    5.2846   -2.7802 C   0  0  0  0  0  0  0  0  0  0  0  0
   -7.2003    5.2913   -3.3424 O   0  0  0  0  0  0  0  0  0  0  0  0
   -5.0823    4.9013   -3.5615 N   0  0  0  0  0  0  0  0  0  0  0  0
   -3.8201    5.3474   -3.4017 C   0  0  0  0  0  0  0  0  0  0  0  0
   -2.9407    5.0603   -4.2219 O   0  0  0  0  0  0  0  0  0  0  0  0
   -3.5499    6.0516   -2.2675 N   0  0  0  0  0  0  0  0  0  0  0  0
   -4.4140    6.3764   -1.2477 C   0  0  0  0  0  0  0  0  0  0  0  0
   -4.0047    7.0396   -0.2977 O   0  0  0  0  0  0  0  0  0  0  0  0
    0.7588    2.1244   -0.0006 H   0  0  0  0  0  0  0  0  0  0  0  0
   -1.6762    2.1983    0.1288 H   0  0  0  0  0  0  0  0  0  0  0  0
    0.6670   -2.1606   -0.0110 H   0  0  0  0  0  0  0  0  0  0  0  0
   -1.8267   -2.1229    0.0096 H   0  0  0  0  0  0  0  0  0  0  0  0
   -3.1642    1.5953   -1.8893 H   0  0  0  0  0  0  0  0  0  0  0  0
   -4.1723    3.6490   -2.0074 H   0  0  0  0  0  0  0  0  0  0  0  0
   -5.1156    0.8617    1.8780 H   0  0  0  0  0  0  0  0  0  0  0  0
   -6.3627    2.9862    1.6184 H   0  0  0  0  0  0  0  0  0  0  0  0
   -6.6103    7.3710   -0.0235 H   0  0  0  0  0  0  0  0  0  0  0  0
   -6.6558    7.7002   -1.7488 H   0  0  0  0  0  0  0  0  0  0  0  0
   -8.8762    7.6111   -0.9177 H   0  0  0  0  0  0  0  0  0  0  0  0
   -8.6905    6.3454   -2.0509 H   0  0  0  0  0  0  0  0  0  0  0  0
   -7.4395    4.6899    0.2419 H   0  0  0  0  0  0  0  0  0  0  0  0
   -8.7274    3.8933    0.8442 H   0  0  0  0  0  0  0  0  0  0  0  0
   -8.5837    4.3178   -2.1750 H   0  0  0  0  0  0  0  0  0  0  0  0
   -7.7207    2.9631   -1.4620 H   0  0  0  0  0  0  0  0  0  0  0  0
   -9.4915    3.1464   -1.3667 H   0  0  0  0  0  0  0  0  0  0  0  0
   -5.3459    4.4724   -4.4388 H   0  0  0  0  0  0  0  0  0  0  0  0
   -2.5877    6.3050   -2.1048 H   0  0  0  0  0  0  0  0  0  0  0  0
  1  2  1  0  0  0  0
  2  3  2  0  0  0  0
  2  5  1  0  0  0  0
  3  4  1  0  0  0  0
  3 30  1  0  0  0  0
  4  7  2  0  0  0  0
  4 31  1  0  0  0  0
  5  6  2  0  0  0  0
  5 32  1  0  0  0  0
  6  7  1  0  0  0  0
  6 33  1  0  0  0  0
  7  8  1  0  0  0  0
  8  9  1  0  0  0  0
  9 10  2  0  0  0  0
  9 12  1  0  0  0  0
 10 11  1  0  0  0  0
 10 34  1  0  0  0  0
 11 14  2  0  0  0  0
 11 35  1  0  0  0  0
 12 13  2  0  0  0  0
 12 36  1  0  0  0  0
 13 14  1  0  0  0  0
 13 37  1  0  0  0  0
 14 15  1  0  0  0  0
 15 16  1  0  0  0  0
 16 17  1  0  0  0  0
 16 22  1  0  0  0  0
 16 28  1  0  0  0  0
 17 18  1  0  0  0  0
 17 38  1  0  0  0  0
 17 39  1  0  0  0  0
 18 19  1  0  0  0  0
 18 40  1  0  0  0  0
 18 41  1  0  0  0  0
 19 20  1  0  0  0  0
 20 21  1  0  0  0  0
 20 42  1  0  0  0  0
 20 43  1  0  0  0  0
 21 44  1  0  0  0  0
 21 45  1  0  0  0  0
 21 46  1  0  0  0  0
 22 23  2  0  0  0  0
 22 24  1  0  0  0  0
 24 25  1  0  0  0  0
 24 47  1  0  0  0  0
 25 26  2  0  0  0  0
 25 27  1  0  0  0  0
 27 28  1  0  0  0  0
 27 48  1  0  0  0  0
 28 29  2  0  0  0  0
M  END
>  <DRUGBANK_ID>
DB08388

>  <COMMON_NAME>
5-(2-ETHOXYETHYL)-5-[4-(4-FLUOROPHENOXY)PHENOXY]PYRIMIDINE-2,4,6(1H,3H,5H)-TRIONE

$$$$
