
 OpenBabel10282417173D

111119  0  0  0  0  0  0  0  0999 V2000
   -0.0634    0.4780    2.1093 C   0  0  2  0  0  0  0  0  0  0  0  0
   -1.5718    0.1608    3.4065 C   0  0  2  0  0  0  0  0  0  0  0  0
   -2.3232    0.4551    5.6602 C   0  0  0  0  0  0  0  0  0  0  0  0
   -2.7151    1.0553    7.5821 C   0  0  0  0  0  0  0  0  0  0  0  0
   -2.9551    2.4207    9.0996 C   0  0  0  0  0  0  0  0  0  0  0  0
   -3.6897    3.4508    8.1943 C   0  0  1  0  0  0  0  0  0  0  0  0
   -2.6631    3.1956    7.1283 C   0  0  0  0  0  0  0  0  0  0  0  0
   -3.0928    3.7982    5.9219 C   0  0  0  0  0  0  0  0  0  0  0  0
   -2.9120    5.1795    6.1357 C   0  0  1  0  0  0  0  0  0  0  0  0
   -3.9045    5.7357    7.0609 C   0  0  1  0  0  0  0  0  0  0  0  0
   -3.3404    7.4829    6.6851 C   0  0  1  0  0  0  0  0  0  0  0  0
   -4.3246    8.2299    6.1410 C   0  0  1  0  0  0  0  0  0  0  0  0
   -3.4203    6.9642    5.0847 C   0  0  1  0  0  0  0  0  0  0  0  0
   -3.2830    5.6485    4.9130 O   0  0  0  0  0  0  0  0  0  0  0  0
   -3.1629    8.6550    5.0239 O   0  0  0  0  0  0  0  0  0  0  0  0
   -1.4485    8.8238    4.3647 C   0  0  2  0  0  0  0  0  0  0  0  0
   -0.6090    9.4228    6.1124 C   0  0  0  0  0  0  0  0  0  0  0  0
   -3.3801    9.4520    6.8730 O   0  0  0  0  0  0  0  0  0  0  0  0
   -2.0374    9.4085    6.2246 C   0  0  1  0  0  0  0  0  0  0  0  0
   -1.6919    7.6179    5.6637 C   0  0  2  0  0  0  0  0  0  0  0  0
   -1.1981    8.2102    2.4987 C   0  0  0  0  0  0  0  0  0  0  0  0
   -0.0577    7.1819    2.3318 C   0  0  0  0  0  0  0  0  0  0  0  0
    1.0947    7.1042    3.2971 C   0  0  1  0  0  0  0  0  0  0  0  0
    1.7142    8.4090    3.3056 C   0  0  0  0  0  0  0  0  0  0  0  0
    2.1590    6.1408    3.2694 O   0  0  0  0  0  0  0  0  0  0  0  0
    3.1187    6.5701    2.3308 C   0  0  1  0  0  0  0  0  0  0  0  0
    2.8753    6.1371    0.8347 C   0  0  0  0  0  0  0  0  0  0  0  0
    2.9633    8.0808    2.5278 C   0  0  0  0  0  0  0  0  0  0  0  0
    1.4349    6.0557    0.4756 C   0  0  0  0  0  0  0  0  0  0  0  0
    0.7886    4.9585    1.3545 C   0  0  2  0  0  0  0  0  0  0  0  0
    1.4632    3.6543    1.1939 O   0  0  0  0  0  0  0  0  0  0  0  0
   -0.8535    4.9335    1.1213 C   0  0  0  0  0  0  0  0  0  0  0  0
   -1.3510    4.0858    2.2404 C   0  0  2  0  0  0  0  0  0  0  0  0
   -0.6038    3.0555    1.5342 C   0  0  0  0  0  0  0  0  0  0  0  0
    0.7801    2.7377    2.0349 C   0  0  1  0  0  0  0  0  0  0  0  0
    1.1662    1.2588    2.1825 C   0  0  0  0  0  0  0  0  0  0  0  0
   -1.2091    2.5593    0.4318 C   0  0  0  0  0  0  0  0  0  0  0  0
   -2.3902    0.7125    2.7635 H   0  0  0  0  0  0  0  0  0  0  0  0
    0.1419    1.1375    0.9908 H   0  0  0  0  0  0  0  0  0  0  0  0
   -4.0455    1.0959    7.6395 O   0  0  0  0  0  0  0  0  0  0  0  0
   -4.7242    3.0949    8.0277 H   0  0  0  0  0  0  0  0  0  0  0  0
   -3.6580    4.9474    8.3939 O   0  0  0  0  0  0  0  0  0  0  0  0
   -1.9015    5.3962    6.4925 H   0  0  0  0  0  0  0  0  0  0  0  0
   -0.8659    7.6223    4.6496 O   0  0  0  0  0  0  0  0  0  0  0  0
   -4.9721    5.5677    6.8509 H   0  0  0  0  0  0  0  0  0  0  0  0
   -3.4097    7.6910    7.8038 H   0  0  0  0  0  0  0  0  0  0  0  0
   -5.3465    8.0461    6.3634 H   0  0  0  0  0  0  0  0  0  0  0  0
   -3.8973    7.2965    4.1369 H   0  0  0  0  0  0  0  0  0  0  0  0
    4.1002    6.1714    2.6094 H   0  0  0  0  0  0  0  0  0  0  0  0
    0.8962    2.9879    3.0931 H   0  0  0  0  0  0  0  0  0  0  0  0
    3.2508    8.8566    1.4885 C   0  0  0  0  0  0  0  0  0  0  0  0
   -2.0805   10.2516    5.4483 H   0  0  0  0  0  0  0  0  0  0  0  0
    0.5796    6.7195    4.1304 H   0  0  0  0  0  0  0  0  0  0  0  0
   -1.6029   -0.6722    1.5596 C   0  0  2  0  0  0  0  0  0  0  0  0
   -0.3953   -1.3716    0.6028 C   0  0  2  0  0  0  0  0  0  0  0  0
    0.4325   -0.3228    0.5782 O   0  0  0  0  0  0  0  0  0  0  0  0
   -2.0792   -0.3034   -0.1947 O   0  0  0  0  0  0  0  0  0  0  0  0
   -0.0800   -2.8480    0.5370 C   0  0  0  0  0  0  0  0  0  0  0  0
   -1.2031   -3.5200   -0.1442 C   0  0  1  0  0  0  0  0  0  0  0  0
   -1.1041   -3.3114   -1.6471 C   0  0  0  0  0  0  0  0  0  0  0  0
    0.1406   -3.9097   -2.1449 N   0  0  0  0  0  0  0  0  0  0  0  0
   -3.4859   -0.9697   -0.4425 C   0  0  0  0  0  0  0  0  0  0  0  0
   -1.1542   -4.8868    0.2236 O   0  0  0  0  0  0  0  0  0  0  0  0
    0.9156    5.0289    2.4327 H   0  0  0  0  0  0  0  0  0  0  0  0
   -2.0665    2.8774    2.7676 C   0  0  0  0  0  0  0  0  0  0  0  0
   -2.4621   -0.2321    6.8317 H   0  0  0  0  0  0  0  0  0  0  0  0
   -3.2482   -0.3831    6.2260 H   0  0  0  0  0  0  0  0  0  0  0  0
   -3.4084    2.6132   10.2989 H   0  0  0  0  0  0  0  0  0  0  0  0
   -2.1189    2.9851    9.5715 H   0  0  0  0  0  0  0  0  0  0  0  0
   -1.7550    2.9918    7.7204 H   0  0  0  0  0  0  0  0  0  0  0  0
   -2.2967    2.3649    6.5188 H   0  0  0  0  0  0  0  0  0  0  0  0
   -4.1140    3.6405    5.5841 H   0  0  0  0  0  0  0  0  0  0  0  0
   -2.4605    3.4147    5.1766 H   0  0  0  0  0  0  0  0  0  0  0  0
   -0.8316   10.0198    7.0977 H   0  0  0  0  0  0  0  0  0  0  0  0
   -0.1949    8.8505    7.1103 H   0  0  0  0  0  0  0  0  0  0  0  0
   -1.2124    7.0950    6.4598 H   0  0  0  0  0  0  0  0  0  0  0  0
   -1.1163    9.0777    1.8249 H   0  0  0  0  0  0  0  0  0  0  0  0
   -1.6281    7.7757    1.3725 H   0  0  0  0  0  0  0  0  0  0  0  0
    0.0990    7.2373    1.2655 H   0  0  0  0  0  0  0  0  0  0  0  0
   -0.4550    6.2241    2.5582 H   0  0  0  0  0  0  0  0  0  0  0  0
    1.7098    9.4444    3.6156 H   0  0  0  0  0  0  0  0  0  0  0  0
    0.7679    8.8551    2.9810 H   0  0  0  0  0  0  0  0  0  0  0  0
    3.5876    6.7507    0.2738 H   0  0  0  0  0  0  0  0  0  0  0  0
    3.0995    5.1666    0.4345 H   0  0  0  0  0  0  0  0  0  0  0  0
    1.2699    7.1193    0.1934 H   0  0  0  0  0  0  0  0  0  0  0  0
    0.8307    5.7384   -0.3599 H   0  0  0  0  0  0  0  0  0  0  0  0
   -1.3736    5.8819    1.0930 H   0  0  0  0  0  0  0  0  0  0  0  0
   -1.1658    4.6802    0.1213 H   0  0  0  0  0  0  0  0  0  0  0  0
   -1.9698    4.6727    2.9065 H   0  0  0  0  0  0  0  0  0  0  0  0
    1.8466    1.0962    2.9437 H   0  0  0  0  0  0  0  0  0  0  0  0
    1.7053    0.5113    1.5755 H   0  0  0  0  0  0  0  0  0  0  0  0
   -2.1628    2.9241    0.1155 H   0  0  0  0  0  0  0  0  0  0  0  0
   -1.2065    1.5199    0.4943 H   0  0  0  0  0  0  0  0  0  0  0  0
    4.2062    9.3657    1.5091 H   0  0  0  0  0  0  0  0  0  0  0  0
    2.3842    9.3852    1.1296 H   0  0  0  0  0  0  0  0  0  0  0  0
   -2.5686   -0.7797    1.2466 H   0  0  0  0  0  0  0  0  0  0  0  0
    0.3120   -1.6259    1.2954 H   0  0  0  0  0  0  0  0  0  0  0  0
    0.9271   -3.1823    0.1736 H   0  0  0  0  0  0  0  0  0  0  0  0
   -0.0766   -3.1584    1.6127 H   0  0  0  0  0  0  0  0  0  0  0  0
   -2.1114   -3.0988    0.2628 H   0  0  0  0  0  0  0  0  0  0  0  0
   -1.9624   -3.7942   -2.1121 H   0  0  0  0  0  0  0  0  0  0  0  0
   -1.1264   -2.2438   -1.8978 H   0  0  0  0  0  0  0  0  0  0  0  0
    0.1989   -3.7431   -3.1460 H   0  0  0  0  0  0  0  0  0  0  0  0
    0.9365   -3.4062   -1.7439 H   0  0  0  0  0  0  0  0  0  0  0  0
   -3.5312   -1.8463    0.2147 H   0  0  0  0  0  0  0  0  0  0  0  0
   -4.0346   -0.1263   -0.0595 H   0  0  0  0  0  0  0  0  0  0  0  0
   -3.9934   -1.3029   -1.4013 H   0  0  0  0  0  0  0  0  0  0  0  0
   -0.3223   -5.2255   -0.1597 H   0  0  0  0  0  0  0  0  0  0  0  0
   -1.4285    2.0140    2.8217 H   0  0  0  0  0  0  0  0  0  0  0  0
   -2.0547    2.8480    3.8178 H   0  0  0  0  0  0  0  0  0  0  0  0
   -3.0260    2.6546    2.3164 H   0  0  0  0  0  0  0  0  0  0  0  0
  1  2  1  0  0  0  0
  1 36  1  0  0  0  0
  1 56  1  0  0  0  0
  1 39  1  1  0  0  0
  2  3  1  0  0  0  0
  2 54  1  0  0  0  0
  2 38  1  6  0  0  0
  3  4  1  0  0  0  0
  3 66  1  0  0  0  0
  3 67  1  0  0  0  0
  4  5  1  0  0  0  0
  4 40  2  0  0  0  0
  5  6  1  0  0  0  0
  5 68  1  0  0  0  0
  5 69  1  0  0  0  0
  6  7  1  0  0  0  0
  6 42  1  0  0  0  0
  6 41  1  1  0  0  0
  7  8  1  0  0  0  0
  7 70  1  0  0  0  0
  7 71  1  0  0  0  0
  8  9  1  0  0  0  0
  8 72  1  0  0  0  0
  8 73  1  0  0  0  0
  9 10  1  0  0  0  0
  9 14  1  0  0  0  0
  9 43  1  6  0  0  0
 10 11  1  0  0  0  0
 10 45  1  1  0  0  0
 11 12  1  0  0  0  0
 11 15  1  0  0  0  0
 11 46  1  6  0  0  0
 12 13  1  0  0  0  0
 12 18  1  0  0  0  0
 12 47  1  6  0  0  0
 13 14  1  0  0  0  0
 13 20  1  0  0  0  0
 13 48  1  1  0  0  0
 16 15  1  1  0  0  0
 16 17  1  0  0  0  0
 16 21  1  0  0  0  0
 16 44  1  0  0  0  0
 17 19  1  0  0  0  0
 17 74  1  0  0  0  0
 17 75  1  0  0  0  0
 19 18  1  0  0  0  0
 19 52  1  1  0  0  0
 20 19  1  0  0  0  0
 20 44  1  0  0  0  0
 20 76  1  1  0  0  0
 21 22  1  0  0  0  0
 21 77  1  0  0  0  0
 21 78  1  0  0  0  0
 22 23  1  0  0  0  0
 22 79  1  0  0  0  0
 22 80  1  0  0  0  0
 23 24  1  0  0  0  0
 23 25  1  0  0  0  0
 23 53  1  6  0  0  0
 24 81  1  0  0  0  0
 24 82  1  0  0  0  0
 25 26  1  0  0  0  0
 26 27  1  0  0  0  0
 26 28  1  0  0  0  0
 26 49  1  1  0  0  0
 27 29  1  0  0  0  0
 27 83  1  0  0  0  0
 27 84  1  0  0  0  0
 28 24  1  0  0  0  0
 28 51  2  0  0  0  0
 29 30  1  0  0  0  0
 29 85  1  0  0  0  0
 29 86  1  0  0  0  0
 30 31  1  0  0  0  0
 30 32  1  0  0  0  0
 30 64  1  1  0  0  0
 31 35  1  0  0  0  0
 32 33  1  0  0  0  0
 32 87  1  0  0  0  0
 32 88  1  0  0  0  0
 33 34  1  0  0  0  0
 33 89  1  1  0  0  0
 33 65  1  0  0  0  0
 34 35  1  0  0  0  0
 34 37  2  0  0  0  0
 35 50  1  1  0  0  0
 36 35  1  0  0  0  0
 36 90  1  0  0  0  0
 36 91  1  0  0  0  0
 37 92  1  0  0  0  0
 37 93  1  0  0  0  0
 42 10  1  0  0  0  0
 51 94  1  0  0  0  0
 51 95  1  0  0  0  0
 54 55  1  0  0  0  0
 54 96  1  1  0  0  0
 54 57  1  0  0  0  0
 55 56  1  0  0  0  0
 55 97  1  1  0  0  0
 55 58  1  0  0  0  0
 57 62  1  0  0  0  0
 58 59  1  0  0  0  0
 58 98  1  0  0  0  0
 58 99  1  0  0  0  0
 59 60  1  0  0  0  0
 59 63  1  0  0  0  0
 59100  1  1  0  0  0
 60 61  1  0  0  0  0
 60101  1  0  0  0  0
 60102  1  0  0  0  0
 61103  1  0  0  0  0
 61104  1  0  0  0  0
 62105  1  0  0  0  0
 62106  1  0  0  0  0
 62107  1  0  0  0  0
 63108  1  0  0  0  0
 65109  1  0  0  0  0
 65110  1  0  0  0  0
 65111  1  0  0  0  0
M  END
>  <DRUGBANK_ID>
DB08871

>  <SECONDARY_ACCESSION_NUMBERS>
DB04940

>  <COMMON_NAME>
Eribulin

>  <CAS_NUMBER>
253128-41-5

>  <UNII>
LR24G6354G

>  <SYNONYMS>
Eribulin; Eribulina

$$$$
