425
 OpenBabel10282417103D

 44 46  0  0  0  0  0  0  0  0999 V2000
    1.0019    0.0182    0.0056 O   0  0  0  0  0  0  0  0  0  0  0  0
    3.0413   -2.7473   -1.4499 N   0  0  0  0  0  0  0  0  0  0  0  0
    1.8700   -3.1863   -3.3073 N   0  0  0  0  0  0  0  0  0  0  0  0
    2.9861    0.2170    1.1262 N   0  0  0  0  0  0  0  0  0  0  0  0
    2.6184   -1.5250   -1.9445 C   0  0  0  0  0  0  0  0  0  0  0  0
    1.8851   -1.8303   -3.0751 C   0  0  0  0  0  0  0  0  0  0  0  0
    2.5789   -3.7184   -2.3341 C   0  0  0  0  0  0  0  0  0  0  0  0
    2.9666   -0.2055   -1.3488 C   0  0  0  0  0  0  0  0  0  0  0  0
    1.2908   -0.8682   -3.9852 C   0  0  0  0  0  0  0  0  0  0  0  0
    3.7987   -3.0586   -0.3176 C   0  0  0  0  0  0  0  0  0  0  0  0
    4.1155   -4.3383   -0.0398 C   0  0  0  0  0  0  0  0  0  0  0  0
    2.9318   -5.0716   -2.0574 C   0  0  0  0  0  0  0  0  0  0  0  0
    2.2414    0.0146   -0.0287 C   0  0  0  0  0  0  0  0  0  0  0  0
    3.6602   -5.3715   -0.9638 C   0  0  0  0  0  0  0  0  0  0  0  0
   -0.0741   -0.9130   -4.2761 C   0  0  0  0  0  0  0  0  0  0  0  0
    2.0951    0.0737   -4.6402 C   0  0  0  0  0  0  0  0  0  0  0  0
    4.9012   -4.7329    1.1724 C   0  0  0  0  0  0  0  0  0  0  0  0
    0.2309    0.7479   -6.0257 C   0  0  0  0  0  0  0  0  0  0  0  0
   -0.5902   -0.1455   -5.3259 C   0  0  0  0  0  0  0  0  0  0  0  0
    1.5563    0.9136   -5.6164 C   0  0  0  0  0  0  0  0  0  0  0  0
    4.4368    0.2549    1.2272 C   0  0  0  0  0  0  0  0  0  0  0  0
    2.2503    0.4255    2.3649 C   0  0  0  0  0  0  0  0  0  0  0  0
   -0.2900    1.4566   -7.2405 C   0  0  0  0  0  0  0  0  0  0  0  0
    2.6696    0.6234   -1.9997 H   0  0  0  0  0  0  0  0  0  0  0  0
    4.0491   -0.1405   -1.3011 H   0  0  0  0  0  0  0  0  0  0  0  0
    4.1035   -2.2480    0.3223 H   0  0  0  0  0  0  0  0  0  0  0  0
    2.5998   -5.8438   -2.7414 H   0  0  0  0  0  0  0  0  0  0  0  0
    3.9208   -6.4046   -0.7504 H   0  0  0  0  0  0  0  0  0  0  0  0
   -0.7338   -1.5672   -3.7111 H   0  0  0  0  0  0  0  0  0  0  0  0
    3.1570    0.1368   -4.4189 H   0  0  0  0  0  0  0  0  0  0  0  0
    5.8889   -4.2595    1.1620 H   0  0  0  0  0  0  0  0  0  0  0  0
    4.3770   -4.4266    2.0843 H   0  0  0  0  0  0  0  0  0  0  0  0
    5.0552   -5.8155    1.2305 H   0  0  0  0  0  0  0  0  0  0  0  0
   -1.6303   -0.2741   -5.6167 H   0  0  0  0  0  0  0  0  0  0  0  0
    2.1919    1.6599   -6.0860 H   0  0  0  0  0  0  0  0  0  0  0  0
    4.7380    1.2321    1.6102 H   0  0  0  0  0  0  0  0  0  0  0  0
    4.7524   -0.5327    1.9173 H   0  0  0  0  0  0  0  0  0  0  0  0
    4.9525    0.0913    0.2860 H   0  0  0  0  0  0  0  0  0  0  0  0
    1.6159    1.3122    2.2671 H   0  0  0  0  0  0  0  0  0  0  0  0
    1.6163   -0.4447    2.5630 H   0  0  0  0  0  0  0  0  0  0  0  0
    2.9395    0.5662    3.2026 H   0  0  0  0  0  0  0  0  0  0  0  0
   -0.5608    0.7198   -8.0060 H   0  0  0  0  0  0  0  0  0  0  0  0
   -1.1678    2.0589   -6.9933 H   0  0  0  0  0  0  0  0  0  0  0  0
    0.4688    2.1149   -7.6768 H   0  0  0  0  0  0  0  0  0  0  0  0
  1 13  2  0  0  0  0
  2  5  1  0  0  0  0
  2  7  1  0  0  0  0
  2 10  1  0  0  0  0
  3  6  1  0  0  0  0
  3  7  2  0  0  0  0
  4 13  1  0  0  0  0
  4 21  1  0  0  0  0
  4 22  1  0  0  0  0
  5  6  2  0  0  0  0
  5  8  1  0  0  0  0
  6  9  1  0  0  0  0
  7 12  1  0  0  0  0
  8 13  1  0  0  0  0
  8 24  1  0  0  0  0
  8 25  1  0  0  0  0
  9 15  2  0  0  0  0
  9 16  1  0  0  0  0
 10 11  2  0  0  0  0
 10 26  1  0  0  0  0
 11 14  1  0  0  0  0
 11 17  1  0  0  0  0
 12 14  2  0  0  0  0
 12 27  1  0  0  0  0
 14 28  1  0  0  0  0
 15 19  1  0  0  0  0
 15 29  1  0  0  0  0
 16 20  2  0  0  0  0
 16 30  1  0  0  0  0
 17 31  1  0  0  0  0
 17 32  1  0  0  0  0
 17 33  1  0  0  0  0
 18 19  2  0  0  0  0
 18 20  1  0  0  0  0
 18 23  1  0  0  0  0
 19 34  1  0  0  0  0
 20 35  1  0  0  0  0
 21 36  1  0  0  0  0
 21 37  1  0  0  0  0
 21 38  1  0  0  0  0
 22 39  1  0  0  0  0
 22 40  1  0  0  0  0
 22 41  1  0  0  0  0
 23 42  1  0  0  0  0
 23 43  1  0  0  0  0
 23 44  1  0  0  0  0
M  END
>  <DRUGBANK_ID>
DB00425

>  <SECONDARY_ACCESSION_NUMBERS>
APRD00095

>  <COMMON_NAME>
Zolpidem

>  <CAS_NUMBER>
82626-48-0

>  <UNII>
7K383OQI23

>  <SYNONYMS>
N,N,6-Trimethyl-2-(4-methylphenyl)imidazo(1,2-a)pyridine-3-acetamide; Zolpidem; Zolpidemum

$$$$
