
 OpenBabel10282417143D

 64 66  0  0  1  0  0  0  0  0999 V2000
    0.8313    5.2654   -1.4243 C   0  0  0  0  0  0  0  0  0  0  0  0
    0.2669    4.4768   -0.3604 O   0  0  0  0  0  0  0  0  0  0  0  0
    0.8795    4.5135    0.8601 C   0  0  0  0  0  0  0  0  0  0  0  0
    1.6707    5.3690    1.2038 O   0  0  0  0  0  0  0  0  0  0  0  0
    0.4418    3.3394    1.7764 C   0  0  2  0  0  0  0  0  0  0  0  0
    1.0233    1.9281    1.4352 C   0  0  0  0  0  0  0  0  0  0  0  0
    1.8237    1.8756    0.1681 C   0  0  0  0  0  0  0  0  0  0  0  0
    1.2015    2.0936   -1.0648 C   0  0  0  0  0  0  0  0  0  0  0  0
    1.9576    2.4999   -2.1594 C   0  0  0  0  0  0  0  0  0  0  0  0
    3.3344    2.6304   -2.0355 C   0  0  0  0  0  0  0  0  0  0  0  0
    3.9706    2.2672   -0.8442 C   0  0  0  0  0  0  0  0  0  0  0  0
    3.2121    1.8326    0.2431 C   0  0  0  0  0  0  0  0  0  0  0  0
    5.4439    2.4474   -0.7300 C   0  0  0  0  0  0  0  0  0  0  0  0
    6.1028    2.0931    0.4045 N   0  0  0  0  0  0  0  0  0  0  0  0
    6.0861    2.9538   -1.7312 N   0  0  0  0  0  0  0  0  0  0  0  0
   -1.0863    3.2619    1.8449 C   0  0  1  0  0  0  0  0  0  0  0  0
   -1.6182    2.2813    2.8944 C   0  0  0  0  0  0  0  0  0  0  0  0
   -1.7139    4.5679    2.0661 N   0  0  0  0  0  0  0  0  0  0  0  0
   -2.4485    5.3118    1.1614 C   0  0  0  0  0  0  0  0  0  0  0  0
   -2.7626    6.4680    1.4101 O   0  0  0  0  0  0  0  0  0  0  0  0
   -2.8652    4.6789   -0.1147 C   0  0  0  0  0  0  0  0  0  0  0  0
   -3.3966    3.3877   -0.0904 C   0  0  0  0  0  0  0  0  0  0  0  0
   -3.6315    2.7007   -1.2697 C   0  0  0  0  0  0  0  0  0  0  0  0
   -3.4607    3.3356   -2.5019 C   0  0  0  0  0  0  0  0  0  0  0  0
   -3.0655    4.6858   -2.5182 C   0  0  0  0  0  0  0  0  0  0  0  0
   -2.7204    5.3460   -1.3321 C   0  0  0  0  0  0  0  0  0  0  0  0
   -3.7324    2.5905   -3.7304 C   0  0  0  0  0  0  0  0  0  0  0  0
   -5.0015    2.0317   -3.9384 C   0  0  0  0  0  0  0  0  0  0  0  0
   -5.2905    1.3216   -5.0993 C   0  0  0  0  0  0  0  0  0  0  0  0
   -4.3247    1.1975   -6.0926 C   0  0  0  0  0  0  0  0  0  0  0  0
   -3.0709    1.8006   -5.9386 C   0  0  0  0  0  0  0  0  0  0  0  0
   -2.1275    1.8919   -7.1092 C   0  0  0  0  0  0  0  0  0  0  0  0
   -1.8846    3.2948   -7.4410 N   0  0  0  0  0  0  0  0  0  0  0  0
   -2.7555    2.4247   -4.7208 C   0  0  0  0  0  0  0  0  0  0  0  0
    0.5380    4.8004   -2.3755 H   0  0  0  0  0  0  0  0  0  0  0  0
    1.9263    5.2875   -1.3914 H   0  0  0  0  0  0  0  0  0  0  0  0
    0.4082    6.2675   -1.4199 H   0  0  0  0  0  0  0  0  0  0  0  0
    0.7992    3.6090    2.7799 H   0  0  0  0  0  0  0  0  0  0  0  0
    1.6301    1.5952    2.2895 H   0  0  0  0  0  0  0  0  0  0  0  0
    0.2504    1.1557    1.3400 H   0  0  0  0  0  0  0  0  0  0  0  0
    0.1146    2.1593   -1.1264 H   0  0  0  0  0  0  0  0  0  0  0  0
    1.4641    2.8608   -3.0581 H   0  0  0  0  0  0  0  0  0  0  0  0
    3.9062    3.0474   -2.8608 H   0  0  0  0  0  0  0  0  0  0  0  0
    3.6671    1.5389    1.1805 H   0  0  0  0  0  0  0  0  0  0  0  0
    7.0952    2.2380    0.5031 H   0  0  0  0  0  0  0  0  0  0  0  0
    5.6172    1.7822    1.2327 H   0  0  0  0  0  0  0  0  0  0  0  0
    7.0783    3.0275   -1.5154 H   0  0  0  0  0  0  0  0  0  0  0  0
   -1.3695    2.8699    0.8716 H   0  0  0  0  0  0  0  0  0  0  0  0
   -1.2748    2.5474    3.8975 H   0  0  0  0  0  0  0  0  0  0  0  0
   -2.7140    2.2830    2.9062 H   0  0  0  0  0  0  0  0  0  0  0  0
   -1.3141    1.2515    2.6888 H   0  0  0  0  0  0  0  0  0  0  0  0
   -1.4670    5.0892    2.9023 H   0  0  0  0  0  0  0  0  0  0  0  0
   -3.5613    2.8764    0.8511 H   0  0  0  0  0  0  0  0  0  0  0  0
   -3.9501    1.6623   -1.2207 H   0  0  0  0  0  0  0  0  0  0  0  0
   -3.0339    5.2292   -3.4615 H   0  0  0  0  0  0  0  0  0  0  0  0
   -2.3209    6.3574   -1.3679 H   0  0  0  0  0  0  0  0  0  0  0  0
   -5.7776    2.1602   -3.1870 H   0  0  0  0  0  0  0  0  0  0  0  0
   -6.2814    0.9022   -5.2429 H   0  0  0  0  0  0  0  0  0  0  0  0
   -4.5685    0.6592   -7.0046 H   0  0  0  0  0  0  0  0  0  0  0  0
   -1.1860    1.3841   -6.8809 H   0  0  0  0  0  0  0  0  0  0  0  0
   -2.5671    1.4001   -7.9849 H   0  0  0  0  0  0  0  0  0  0  0  0
   -1.3280    3.3558   -8.2890 H   0  0  0  0  0  0  0  0  0  0  0  0
   -2.7803    3.7384   -7.6477 H   0  0  0  0  0  0  0  0  0  0  0  0
   -1.7515    2.8220   -4.5720 H   0  0  0  0  0  0  0  0  0  0  0  0
  1  2  1  0  0  0  0
  1 35  1  0  0  0  0
  1 36  1  0  0  0  0
  1 37  1  0  0  0  0
  2  3  1  0  0  0  0
  3  4  2  0  0  0  0
  5 16  1  0  0  0  0
  5 38  1  1  0  0  0
  5  6  1  0  0  0  0
  5  3  1  0  0  0  0
  6  7  1  0  0  0  0
  6 39  1  0  0  0  0
  6 40  1  0  0  0  0
  7  8  2  0  0  0  0
  7 12  1  0  0  0  0
  8  9  1  0  0  0  0
  8 41  1  0  0  0  0
  9 10  2  0  0  0  0
  9 42  1  0  0  0  0
 10 11  1  0  0  0  0
 10 43  1  0  0  0  0
 11 12  2  0  0  0  0
 11 13  1  0  0  0  0
 12 44  1  0  0  0  0
 13 14  1  0  0  0  0
 13 15  2  0  0  0  0
 14 45  1  0  0  0  0
 14 46  1  0  0  0  0
 15 47  1  0  0  0  0
 16 17  1  0  0  0  0
 16 18  1  0  0  0  0
 16 48  1  6  0  0  0
 17 49  1  0  0  0  0
 17 50  1  0  0  0  0
 17 51  1  0  0  0  0
 18 19  1  0  0  0  0
 18 52  1  0  0  0  0
 19 20  2  0  0  0  0
 19 21  1  0  0  0  0
 21 22  2  0  0  0  0
 21 26  1  0  0  0  0
 22 23  1  0  0  0  0
 22 53  1  0  0  0  0
 23 24  2  0  0  0  0
 23 54  1  0  0  0  0
 24 25  1  0  0  0  0
 24 27  1  0  0  0  0
 25 26  2  0  0  0  0
 25 55  1  0  0  0  0
 26 56  1  0  0  0  0
 27 28  2  0  0  0  0
 27 34  1  0  0  0  0
 28 29  1  0  0  0  0
 28 57  1  0  0  0  0
 29 30  2  0  0  0  0
 29 58  1  0  0  0  0
 30 31  1  0  0  0  0
 30 59  1  0  0  0  0
 31 32  1  0  0  0  0
 31 34  2  0  0  0  0
 32 33  1  0  0  0  0
 32 60  1  0  0  0  0
 32 61  1  0  0  0  0
 33 62  1  0  0  0  0
 33 63  1  0  0  0  0
 34 64  1  0  0  0  0
M  END
>  <DRUGBANK_ID>
DB04424

>  <SECONDARY_ACCESSION_NUMBERS>
EXPT02814

>  <COMMON_NAME>
RPR128515

$$$$
