486
 OpenBabel10282417103D

 63 65  0  0  1  0  0  0  0  0999 V2000
    0.6779   -2.0799   -0.0153 O   0  0  0  0  0  0  0  0  0  0  0  0
   -3.5962    2.3741   -0.7400 O   0  0  0  0  0  0  0  0  0  0  0  0
    0.8810    2.7361   -0.6117 O   0  0  0  0  0  0  0  0  0  0  0  0
   -1.4099   -0.8526    0.1597 C   0  0  2  0  0  0  0  0  0  0  0  0
   -0.8239    0.4237   -0.4763 C   0  0  1  0  0  0  0  0  0  0  0  0
   -0.6935   -2.0753   -0.4691 C   0  0  0  0  0  0  0  0  0  0  0  0
   -2.9406   -0.8950    0.0868 C   0  0  0  0  0  0  0  0  0  0  0  0
   -1.4867    1.6697    0.1082 C   0  0  0  0  0  0  0  0  0  0  0  0
    0.6615    0.3749   -0.2497 C   0  0  0  0  0  0  0  0  0  0  0  0
   -3.5884    0.3839    0.5877 C   0  0  0  0  0  0  0  0  0  0  0  0
    1.3077   -0.8521   -0.0100 C   0  0  0  0  0  0  0  0  0  0  0  0
   -2.9613    1.5600   -0.0951 C   0  0  0  0  0  0  0  0  0  0  0  0
   -1.3739   -3.3794   -0.0110 C   0  0  0  0  0  0  0  0  0  0  0  0
   -0.6861   -2.0927   -2.0100 C   0  0  0  0  0  0  0  0  0  0  0  0
    1.4112    1.5415   -0.2272 C   0  0  0  0  0  0  0  0  0  0  0  0
    4.9164    0.3270    0.6304 C   0  0  0  0  0  0  0  0  0  0  0  0
    3.4085    0.3028    0.3752 C   0  0  0  0  0  0  0  0  0  0  0  0
    2.6708   -0.8817    0.2813 C   0  0  0  0  0  0  0  0  0  0  0  0
    2.7187    1.5075    0.1852 C   0  0  0  0  0  0  0  0  0  0  0  0
    5.6430    0.9648   -0.6106 C   0  0  0  0  0  0  0  0  0  0  0  0
    5.1833    1.0075    1.9914 C   0  0  0  0  0  0  0  0  0  0  0  0
    5.5082   -1.0884    0.8112 C   0  0  0  0  0  0  0  0  0  0  0  0
    5.2939    2.4192   -0.9795 C   0  0  0  0  0  0  0  0  0  0  0  0
    5.5476    3.4155    0.1568 C   0  0  0  0  0  0  0  0  0  0  0  0
    7.0207    3.4131    0.5601 C   0  0  0  0  0  0  0  0  0  0  0  0
    7.8454    3.9612   -0.5932 C   0  0  0  0  0  0  0  0  0  0  0  0
    7.3815    5.3703   -0.9243 C   0  0  0  0  0  0  0  0  0  0  0  0
   -1.1501   -0.8386    1.2334 H   0  0  0  0  0  0  0  0  0  0  0  0
   -1.0008    0.4334   -1.5587 H   0  0  0  0  0  0  0  0  0  0  0  0
    1.4990    3.4690   -0.4644 H   0  0  0  0  0  0  0  0  0  0  0  0
   -3.3106   -1.7101    0.7181 H   0  0  0  0  0  0  0  0  0  0  0  0
   -3.2574   -1.0974   -0.9410 H   0  0  0  0  0  0  0  0  0  0  0  0
   -1.2083    2.5881   -0.4073 H   0  0  0  0  0  0  0  0  0  0  0  0
   -1.2564    1.7855    1.1733 H   0  0  0  0  0  0  0  0  0  0  0  0
   -3.4282    0.5069    1.6639 H   0  0  0  0  0  0  0  0  0  0  0  0
   -4.6603    0.3818    0.3860 H   0  0  0  0  0  0  0  0  0  0  0  0
   -2.4060   -3.4304   -0.3802 H   0  0  0  0  0  0  0  0  0  0  0  0
   -0.8584   -4.2660   -0.3936 H   0  0  0  0  0  0  0  0  0  0  0  0
   -1.3968   -3.4618    1.0806 H   0  0  0  0  0  0  0  0  0  0  0  0
   -0.1044   -1.2705   -2.4378 H   0  0  0  0  0  0  0  0  0  0  0  0
   -0.2027   -3.0009   -2.3863 H   0  0  0  0  0  0  0  0  0  0  0  0
   -1.7018   -2.0431   -2.4104 H   0  0  0  0  0  0  0  0  0  0  0  0
    3.1337   -1.8485    0.4502 H   0  0  0  0  0  0  0  0  0  0  0  0
    3.1947    2.4661    0.3127 H   0  0  0  0  0  0  0  0  0  0  0  0
    6.7307    0.8864   -0.4799 H   0  0  0  0  0  0  0  0  0  0  0  0
    5.4399    0.3539   -1.5038 H   0  0  0  0  0  0  0  0  0  0  0  0
    4.7979    0.4051    2.8186 H   0  0  0  0  0  0  0  0  0  0  0  0
    6.2538    1.1585    2.1594 H   0  0  0  0  0  0  0  0  0  0  0  0
    4.6612    1.9468    2.1429 H   0  0  0  0  0  0  0  0  0  0  0  0
    5.0442   -1.5849    1.6726 H   0  0  0  0  0  0  0  0  0  0  0  0
    5.3518   -1.7153   -0.0717 H   0  0  0  0  0  0  0  0  0  0  0  0
    6.5851   -1.0449    1.0077 H   0  0  0  0  0  0  0  0  0  0  0  0
    5.8576    2.7128   -1.8709 H   0  0  0  0  0  0  0  0  0  0  0  0
    4.2730    2.4999   -1.3585 H   0  0  0  0  0  0  0  0  0  0  0  0
    5.1845    4.4021   -0.1327 H   0  0  0  0  0  0  0  0  0  0  0  0
    4.9289    3.2743    1.0301 H   0  0  0  0  0  0  0  0  0  0  0  0
    7.1665    4.0034    1.4715 H   0  0  0  0  0  0  0  0  0  0  0  0
    7.3820    2.4093    0.8099 H   0  0  0  0  0  0  0  0  0  0  0  0
    8.9054    3.9455   -0.3324 H   0  0  0  0  0  0  0  0  0  0  0  0
    7.7464    3.3165   -1.4738 H   0  0  0  0  0  0  0  0  0  0  0  0
    7.4838    6.0057   -0.0396 H   0  0  0  0  0  0  0  0  0  0  0  0
    7.9472    5.7798   -1.7568 H   0  0  0  0  0  0  0  0  0  0  0  0
    6.3335    5.4109   -1.2374 H   0  0  0  0  0  0  0  0  0  0  0  0
  1  6  1  0  0  0  0
  1 11  1  0  0  0  0
  2 12  2  0  0  0  0
  3 15  1  0  0  0  0
  3 30  1  0  0  0  0
  4  5  1  0  0  0  0
  4  6  1  0  0  0  0
  4  7  1  0  0  0  0
  4 28  1  1  0  0  0
  5  8  1  0  0  0  0
  5  9  1  0  0  0  0
  5 29  1  6  0  0  0
  6 13  1  0  0  0  0
  6 14  1  0  0  0  0
  7 10  1  0  0  0  0
  7 31  1  0  0  0  0
  7 32  1  0  0  0  0
  8 12  1  0  0  0  0
  8 33  1  0  0  0  0
  8 34  1  0  0  0  0
  9 11  1  0  0  0  0
  9 15  2  0  0  0  0
 10 12  1  0  0  0  0
 10 35  1  0  0  0  0
 10 36  1  0  0  0  0
 11 18  2  0  0  0  0
 13 37  1  0  0  0  0
 13 38  1  0  0  0  0
 13 39  1  0  0  0  0
 14 40  1  0  0  0  0
 14 41  1  0  0  0  0
 14 42  1  0  0  0  0
 15 19  1  0  0  0  0
 16 17  1  0  0  0  0
 16 20  1  0  0  0  0
 16 21  1  0  0  0  0
 16 22  1  0  0  0  0
 17 18  1  0  0  0  0
 17 19  2  0  0  0  0
 18 43  1  0  0  0  0
 19 44  1  0  0  0  0
 20 23  1  0  0  0  0
 20 45  1  0  0  0  0
 20 46  1  0  0  0  0
 21 47  1  0  0  0  0
 21 48  1  0  0  0  0
 21 49  1  0  0  0  0
 22 50  1  0  0  0  0
 22 51  1  0  0  0  0
 22 52  1  0  0  0  0
 23 24  1  0  0  0  0
 23 53  1  0  0  0  0
 23 54  1  0  0  0  0
 24 25  1  0  0  0  0
 24 55  1  0  0  0  0
 24 56  1  0  0  0  0
 25 26  1  0  0  0  0
 25 57  1  0  0  0  0
 25 58  1  0  0  0  0
 26 27  1  0  0  0  0
 26 59  1  0  0  0  0
 26 60  1  0  0  0  0
 27 61  1  0  0  0  0
 27 62  1  0  0  0  0
 27 63  1  0  0  0  0
M  END
>  <DRUGBANK_ID>
DB00486

>  <SECONDARY_ACCESSION_NUMBERS>
APRD01127

>  <COMMON_NAME>
Nabilone

>  <CAS_NUMBER>
51022-71-0

>  <UNII>
2N4O9L084N

>  <SYNONYMS>
Nabilon; Nabilona; Nabilone; Nabilonum

$$$$
