
 OpenBabel10282417183D

 73 75  0  0  1  0  0  0  0  0999 V2000
    1.1176    1.1725    2.3511 C   0  0  0  0  0  0  0  0  0  0  0  0
    0.5735   -0.0391    1.6185 C   0  0  2  0  0  0  0  0  0  0  0  0
    0.8321   -0.0336    0.1041 C   0  0  1  0  0  0  0  0  0  0  0  0
   -0.0141    0.9224   -0.7618 C   0  0  0  0  0  0  0  0  0  0  0  0
    0.6604    1.6865   -1.4836 O   0  0  0  0  0  0  0  0  0  0  0  0
   -1.3870    0.8716   -0.8841 N   0  0  0  0  0  0  0  0  0  0  0  0
   -2.4091    0.3579    0.0217 C   0  0  0  0  0  0  0  0  0  0  0  0
   -3.4657   -0.2667   -0.8201 C   0  0  0  0  0  0  0  0  0  0  0  0
   -3.4995    0.6549   -2.0110 C   0  0  0  0  0  0  0  0  0  0  0  0
   -2.0619    1.3017   -2.1276 C   0  0  1  0  0  0  0  0  0  0  0  0
   -2.2853    2.8302   -2.3978 C   0  0  0  0  0  0  0  0  0  0  0  0
   -3.2291    3.1496   -3.1242 O   0  0  0  0  0  0  0  0  0  0  0  0
   -1.4930    3.7728   -1.7616 N   0  0  0  0  0  0  0  0  0  0  0  0
   -0.1270    4.1282   -2.1278 C   0  0  0  0  0  0  0  0  0  0  0  0
    0.4037    4.6486   -0.8008 C   0  0  0  0  0  0  0  0  0  0  0  0
   -0.7588    5.5171   -0.3125 C   0  0  0  0  0  0  0  0  0  0  0  0
   -2.0559    4.8237   -0.8278 C   0  0  2  0  0  0  0  0  0  0  0  0
   -2.7445    4.0205    0.3865 C   0  0  0  0  0  0  0  0  0  0  0  0
   -3.2268    4.7004    1.6848 C   0  0  0  0  0  0  0  0  0  0  0  0
   -4.2848    5.5174    1.5074 C   0  0  0  0  0  0  0  0  0  0  0  0
   -4.6143    6.6310    2.3752 C   0  0  0  0  0  0  0  0  0  0  0  0
   -4.3235    6.6488    3.6719 C   0  0  0  0  0  0  0  0  0  0  0  0
   -3.5285    5.5857    4.0026 C   0  0  0  0  0  0  0  0  0  0  0  0
   -2.8719    4.7214    3.0136 C   0  0  0  0  0  0  0  0  0  0  0  0
   -2.8724    5.9072   -1.7264 C   0  0  0  0  0  0  0  0  0  0  0  0
   -3.0937    5.7459   -2.9746 O   0  0  0  0  0  0  0  0  0  0  0  0
   -3.2983    7.1359   -1.3357 N   0  0  0  0  0  0  0  0  0  0  0  0
   -3.6183    7.5233    0.0000 C   0  0  1  0  0  0  0  0  0  0  0  0
   -2.7831    8.6958    0.6234 C   0  0  1  0  0  0  0  0  0  0  0  0
   -3.5411    9.9359    0.3471 C   0  0  0  0  0  0  0  0  0  0  0  0
   -2.3925    8.6272    2.0108 O   0  0  0  0  0  0  0  0  0  0  0  0
   -5.4262    7.3711    0.0328 C   0  0  0  0  0  0  0  0  0  0  0  0
   -6.1338    6.3532    0.0771 O   0  0  0  0  0  0  0  0  0  0  0  0
   -6.2273    8.4288    0.2432 N   0  0  0  0  0  0  0  0  0  0  0  0
    2.3050    0.2808   -0.0936 N   0  0  0  0  0  0  0  0  0  0  0  0
   -0.7801    0.0080    2.0094 O   0  0  0  0  0  0  0  0  0  0  0  0
    2.1894    1.3046    2.2396 H   0  0  0  0  0  0  0  0  0  0  0  0
    0.8836    1.0624    3.4141 H   0  0  0  0  0  0  0  0  0  0  0  0
    0.5989    2.0799    2.0115 H   0  0  0  0  0  0  0  0  0  0  0  0
    0.9796   -0.9726    2.0217 H   0  0  0  0  0  0  0  0  0  0  0  0
    0.6771   -1.0220   -0.3483 H   0  0  0  0  0  0  0  0  0  0  0  0
   -2.8181    1.2148    0.5728 H   0  0  0  0  0  0  0  0  0  0  0  0
   -2.1226   -0.4430    0.6776 H   0  0  0  0  0  0  0  0  0  0  0  0
   -3.1365   -1.2777   -1.0809 H   0  0  0  0  0  0  0  0  0  0  0  0
   -4.4070   -0.3429   -0.2630 H   0  0  0  0  0  0  0  0  0  0  0  0
   -3.8017    0.0918   -2.8981 H   0  0  0  0  0  0  0  0  0  0  0  0
   -4.2721    1.4083   -1.8137 H   0  0  0  0  0  0  0  0  0  0  0  0
   -1.5367    0.8566   -2.9831 H   0  0  0  0  0  0  0  0  0  0  0  0
   -0.1476    4.9423   -2.8618 H   0  0  0  0  0  0  0  0  0  0  0  0
    0.4407    3.3448   -2.6244 H   0  0  0  0  0  0  0  0  0  0  0  0
    0.5628    3.8396   -0.0753 H   0  0  0  0  0  0  0  0  0  0  0  0
    1.3372    5.2107   -0.8848 H   0  0  0  0  0  0  0  0  0  0  0  0
   -0.7431    5.6141    0.7762 H   0  0  0  0  0  0  0  0  0  0  0  0
   -0.6418    6.5225   -0.7298 H   0  0  0  0  0  0  0  0  0  0  0  0
   -3.6140    3.5212   -0.0821 H   0  0  0  0  0  0  0  0  0  0  0  0
   -2.0674    3.2125    0.6753 H   0  0  0  0  0  0  0  0  0  0  0  0
   -4.5534    5.4102    0.4596 H   0  0  0  0  0  0  0  0  0  0  0  0
   -4.9918    7.6061    2.0702 H   0  0  0  0  0  0  0  0  0  0  0  0
   -4.7419    7.4532    4.2778 H   0  0  0  0  0  0  0  0  0  0  0  0
   -3.4181    5.4197    5.0589 H   0  0  0  0  0  0  0  0  0  0  0  0
   -2.0924    4.0680    3.3665 H   0  0  0  0  0  0  0  0  0  0  0  0
   -3.8975    7.5593   -2.0296 H   0  0  0  0  0  0  0  0  0  0  0  0
   -3.0326    6.7811    0.5194 H   0  0  0  0  0  0  0  0  0  0  0  0
   -1.7979    8.7073    0.1405 H   0  0  0  0  0  0  0  0  0  0  0  0
   -4.4116    9.9427    1.0000 H   0  0  0  0  0  0  0  0  0  0  0  0
   -2.9760   10.8326    0.5720 H   0  0  0  0  0  0  0  0  0  0  0  0
   -3.8255    9.9006   -0.7075 H   0  0  0  0  0  0  0  0  0  0  0  0
   -3.1276    8.7441    2.6345 H   0  0  0  0  0  0  0  0  0  0  0  0
   -5.9216    9.3673    0.1874 H   0  0  0  0  0  0  0  0  0  0  0  0
   -6.9270    8.1756    0.9463 H   0  0  0  0  0  0  0  0  0  0  0  0
    2.4882    0.3795   -1.0969 H   0  0  0  0  0  0  0  0  0  0  0  0
    2.4545    1.2444    0.2243 H   0  0  0  0  0  0  0  0  0  0  0  0
   -1.0827    0.8912    1.7222 H   0  0  0  0  0  0  0  0  0  0  0  0
  1 37  1  0  0  0  0
  1 38  1  0  0  0  0
  1 39  1  0  0  0  0
  2 36  1  0  0  0  0
  2 40  1  1  0  0  0
  2  3  1  0  0  0  0
  2  1  1  0  0  0  0
  3  4  1  0  0  0  0
  3 35  1  0  0  0  0
  3 41  1  6  0  0  0
  4  5  2  0  0  0  0
  4  6  1  0  0  0  0
  6  7  1  0  0  0  0
  6 10  1  0  0  0  0
  7  8  1  0  0  0  0
  7 42  1  0  0  0  0
  7 43  1  0  0  0  0
  8  9  1  0  0  0  0
  8 44  1  0  0  0  0
  8 45  1  0  0  0  0
  9 10  1  0  0  0  0
  9 46  1  0  0  0  0
  9 47  1  0  0  0  0
 10 48  1  6  0  0  0
 10 11  1  0  0  0  0
 11 12  2  0  0  0  0
 11 13  1  0  0  0  0
 13 14  1  0  0  0  0
 13 17  1  0  0  0  0
 14 15  1  0  0  0  0
 14 49  1  0  0  0  0
 14 50  1  0  0  0  0
 15 16  1  0  0  0  0
 15 51  1  0  0  0  0
 15 52  1  0  0  0  0
 16 17  1  0  0  0  0
 16 53  1  0  0  0  0
 16 54  1  0  0  0  0
 17 18  1  0  0  0  0
 17 25  1  6  0  0  0
 18 19  1  0  0  0  0
 18 55  1  0  0  0  0
 18 56  1  0  0  0  0
 19 20  2  0  0  0  0
 19 24  1  0  0  0  0
 20 21  1  0  0  0  0
 20 57  1  0  0  0  0
 21 22  2  0  0  0  0
 21 58  1  0  0  0  0
 22 23  1  0  0  0  0
 22 59  1  0  0  0  0
 23 24  2  0  0  0  0
 23 60  1  0  0  0  0
 24 61  1  0  0  0  0
 25 26  2  0  0  0  0
 25 27  1  0  0  0  0
 27 62  1  0  0  0  0
 28 27  1  0  0  0  0
 28 29  1  0  0  0  0
 28 32  1  0  0  0  0
 28 63  1  1  0  0  0
 29 30  1  0  0  0  0
 29 31  1  0  0  0  0
 29 64  1  6  0  0  0
 30 65  1  0  0  0  0
 30 66  1  0  0  0  0
 30 67  1  0  0  0  0
 31 68  1  0  0  0  0
 32 33  2  0  0  0  0
 32 34  1  0  0  0  0
 34 69  1  0  0  0  0
 34 70  1  0  0  0  0
 35 71  1  0  0  0  0
 35 72  1  0  0  0  0
 36 73  1  0  0  0  0
M  END
>  <DRUGBANK_ID>
DB11784

>  <COMMON_NAME>
NRX-1074

>  <CAS_NUMBER>
1421866-48-9

>  <UNII>
TTT1F11FZB

$$$$
