
 OpenBabel10282417223D

 25 25  0  0  0  0  0  0  0  0999 V2000
   -1.3733   -0.1513   -0.0403 C   0  0  0  0  0  0  0  0  0  0  0  0
   -0.5430   -1.2860   -0.0089 C   0  0  0  0  0  0  0  0  0  0  0  0
   -0.7573    1.1229    0.0171 C   0  0  0  0  0  0  0  0  0  0  0  0
   -2.8883   -0.2111   -0.1961 C   0  0  0  0  0  0  0  0  0  0  0  0
    0.8464   -1.1532    0.0434 C   0  0  0  0  0  0  0  0  0  0  0  0
   -1.1077   -2.9189   -0.1020 Cl  0  0  0  0  0  0  0  0  0  0  0  0
    0.6373    1.2356   -0.0182 C   0  0  0  0  0  0  0  0  0  0  0  0
   -3.2908   -0.7791   -1.5638 C   0  0  0  0  0  0  0  0  0  0  0  0
   -3.5735   -0.9486    0.9560 C   0  0  0  0  0  0  0  0  0  0  0  0
    1.4461    0.1056   -0.0255 C   0  0  0  0  0  0  0  0  0  0  0  0
    1.2421    2.4611   -0.0810 O   0  0  0  0  0  0  0  0  0  0  0  0
    2.9340    0.1997   -0.1809 C   0  0  0  0  0  0  0  0  0  0  0  0
   -1.3676    2.0204    0.0559 H   0  0  0  0  0  0  0  0  0  0  0  0
   -3.2798    0.8162   -0.1710 H   0  0  0  0  0  0  0  0  0  0  0  0
    1.4632   -2.0450    0.0905 H   0  0  0  0  0  0  0  0  0  0  0  0
   -2.9666   -1.8123   -1.7075 H   0  0  0  0  0  0  0  0  0  0  0  0
   -4.3783   -0.7669   -1.6876 H   0  0  0  0  0  0  0  0  0  0  0  0
   -2.8514   -0.1883   -2.3760 H   0  0  0  0  0  0  0  0  0  0  0  0
   -3.3239   -0.4833    1.9156 H   0  0  0  0  0  0  0  0  0  0  0  0
   -4.6614   -0.9282    0.8377 H   0  0  0  0  0  0  0  0  0  0  0  0
   -3.2874   -1.9993    1.0219 H   0  0  0  0  0  0  0  0  0  0  0  0
    0.5711    3.1535   -0.1647 H   0  0  0  0  0  0  0  0  0  0  0  0
    3.1712    0.6583   -1.1468 H   0  0  0  0  0  0  0  0  0  0  0  0
    3.3716    0.7881    0.6287 H   0  0  0  0  0  0  0  0  0  0  0  0
    3.3958   -0.7932   -0.1697 H   0  0  0  0  0  0  0  0  0  0  0  0
  1  2  2  0  0  0  0
  1  3  1  0  0  0  0
  1  4  1  0  0  0  0
  2  5  1  0  0  0  0
  2  6  1  0  0  0  0
  3  7  2  0  0  0  0
  3 13  1  0  0  0  0
  4  8  1  0  0  0  0
  4  9  1  0  0  0  0
  4 14  1  0  0  0  0
  5 10  2  0  0  0  0
  5 15  1  0  0  0  0
  7 11  1  0  0  0  0
  7 10  1  0  0  0  0
  8 16  1  0  0  0  0
  8 17  1  0  0  0  0
  8 18  1  0  0  0  0
  9 19  1  0  0  0  0
  9 20  1  0  0  0  0
  9 21  1  0  0  0  0
 10 12  1  0  0  0  0
 11 22  1  0  0  0  0
 12 23  1  0  0  0  0
 12 24  1  0  0  0  0
 12 25  1  0  0  0  0
M  END
>  <DRUGBANK_ID>
DB15886

>  <COMMON_NAME>
Carvasept

>  <CAS_NUMBER>
5665-94-1

>  <UNII>
5EL163606Q

>  <SYNONYMS>
Carvasept; Chlorcarvacrol; Chlorocarvacrol; MCIT

$$$$
