
 OpenBabel10282417203D

 52 54  0  0  0  0  0  0  0  0999 V2000
    1.4315    0.1571    0.5756 C   0  0  0  0  0  0  0  0  0  0  0  0
    1.6019   -1.3998    0.1737 O   0  0  0  0  0  0  0  0  0  0  0  0
    1.1508   -2.0804   -1.3047 C   0  0  0  0  0  0  0  0  0  0  0  0
    2.4621   -1.7514   -2.0595 C   0  0  0  0  0  0  0  0  0  0  0  0
    2.5508   -1.8863   -3.6034 C   0  0  0  0  0  0  0  0  0  0  0  0
    1.2683   -2.2786   -4.6417 C   0  0  0  0  0  0  0  0  0  0  0  0
   -0.3655   -2.5786   -4.0491 C   0  0  0  0  0  0  0  0  0  0  0  0
   -0.6108   -2.4389   -2.2239 C   0  0  0  0  0  0  0  0  0  0  0  0
   -1.9732   -2.2863   -2.0259 O   0  0  0  0  0  0  0  0  0  0  0  0
   -2.3790   -1.5585   -0.8855 C   0  0  0  0  0  0  0  0  0  0  0  0
   -1.7841   -2.2536    0.2908 C   0  0  0  0  0  0  0  0  0  0  0  0
   -0.3797   -2.1074    0.1440 N   0  0  0  0  0  0  0  0  0  0  0  0
   -0.1157   -0.6341   -1.0410 C   0  0  0  0  0  0  0  0  0  0  0  0
    0.4005   -1.0136   -2.7843 C   0  0  0  0  0  0  0  0  0  0  0  0
    0.9636   -3.0269   -2.8225 O   0  0  0  0  0  0  0  0  0  0  0  0
    0.1745   -4.2499   -1.7054 C   0  0  0  0  0  0  0  0  0  0  0  0
    0.3417   -3.7437   -0.2024 C   0  0  0  0  0  0  0  0  0  0  0  0
   -1.0955   -3.5763   -4.6672 O   0  0  0  0  0  0  0  0  0  0  0  0
   -0.3955   -4.1598   -5.7690 C   0  0  0  0  0  0  0  0  0  0  0  0
    3.9461   -1.9468   -4.0025 C   0  0  0  0  0  0  0  0  0  0  0  0
    4.2449   -2.3817   -5.1029 O   0  0  0  0  0  0  0  0  0  0  0  0
    4.9906   -1.5081   -3.0312 C   0  0  0  0  0  0  0  0  0  0  0  0
    5.1812   -2.1521   -1.7870 C   0  0  0  0  0  0  0  0  0  0  0  0
    6.1918   -1.7466   -0.9259 C   0  0  0  0  0  0  0  0  0  0  0  0
    7.0529   -0.7419   -1.3390 C   0  0  0  0  0  0  0  0  0  0  0  0
    6.8818   -0.1281   -2.5825 C   0  0  0  0  0  0  0  0  0  0  0  0
    5.7802   -0.4264   -3.3799 C   0  0  0  0  0  0  0  0  0  0  0  0
    8.3088   -0.2111   -0.2947 Cl  0  0  0  0  0  0  0  0  0  0  0  0
    0.7351    0.2500    1.4264 H   0  0  0  0  0  0  0  0  0  0  0  0
    1.0204    0.9692   -0.1256 H   0  0  0  0  0  0  0  0  0  0  0  0
    2.4644    0.4364    0.5482 H   0  0  0  0  0  0  0  0  0  0  0  0
    3.1407   -1.1309   -1.4957 H   0  0  0  0  0  0  0  0  0  0  0  0
    1.6706   -2.7807   -5.5247 H   0  0  0  0  0  0  0  0  0  0  0  0
   -2.1443   -0.4980   -0.9932 H   0  0  0  0  0  0  0  0  0  0  0  0
   -3.4486   -1.4795   -0.8234 H   0  0  0  0  0  0  0  0  0  0  0  0
   -1.9205   -1.7487    1.2353 H   0  0  0  0  0  0  0  0  0  0  0  0
   -2.0442   -3.3143    0.3120 H   0  0  0  0  0  0  0  0  0  0  0  0
    0.9255   -0.1991   -1.1803 H   0  0  0  0  0  0  0  0  0  0  0  0
   -0.6214    0.2306   -0.6447 H   0  0  0  0  0  0  0  0  0  0  0  0
   -0.6997   -0.7170   -2.9894 H   0  0  0  0  0  0  0  0  0  0  0  0
    0.8424   -0.3258   -3.5017 H   0  0  0  0  0  0  0  0  0  0  0  0
    0.5112   -5.1858   -2.1283 H   0  0  0  0  0  0  0  0  0  0  0  0
   -0.9522   -4.3216   -1.7993 H   0  0  0  0  0  0  0  0  0  0  0  0
    1.4582   -3.7398   -0.0827 H   0  0  0  0  0  0  0  0  0  0  0  0
    0.0102   -4.4704    0.5393 H   0  0  0  0  0  0  0  0  0  0  0  0
   -0.0857   -3.3992   -6.4972 H   0  0  0  0  0  0  0  0  0  0  0  0
    0.4723   -4.7831   -5.4820 H   0  0  0  0  0  0  0  0  0  0  0  0
   -1.1270   -4.8042   -6.2452 H   0  0  0  0  0  0  0  0  0  0  0  0
    4.4882   -2.9189   -1.4363 H   0  0  0  0  0  0  0  0  0  0  0  0
    6.3194   -2.2510    0.0268 H   0  0  0  0  0  0  0  0  0  0  0  0
    7.6334    0.5578   -2.9544 H   0  0  0  0  0  0  0  0  0  0  0  0
    5.5525    0.1547   -4.2688 H   0  0  0  0  0  0  0  0  0  0  0  0
  1  2  1  0  0  0  0
  1 29  1  0  0  0  0
  1 30  1  0  0  0  0
  1 31  1  0  0  0  0
  2  3  1  0  0  0  0
  3  4  2  0  0  0  0
  3  8  1  0  0  0  0
  4  5  1  0  0  0  0
  4 32  1  0  0  0  0
  5  6  2  0  0  0  0
  5 20  1  0  0  0  0
  6  7  1  0  0  0  0
  6 33  1  0  0  0  0
  7  8  2  0  0  0  0
  7 18  1  0  0  0  0
  8  9  1  0  0  0  0
  9 10  1  0  0  0  0
 10 11  1  0  0  0  0
 10 34  1  0  0  0  0
 10 35  1  0  0  0  0
 11 12  1  0  0  0  0
 11 36  1  0  0  0  0
 11 37  1  0  0  0  0
 12 13  1  0  0  0  0
 12 17  1  0  0  0  0
 13 14  1  0  0  0  0
 13 38  1  0  0  0  0
 13 39  1  0  0  0  0
 14 15  1  0  0  0  0
 14 40  1  0  0  0  0
 14 41  1  0  0  0  0
 15 16  1  0  0  0  0
 16 17  1  0  0  0  0
 16 42  1  0  0  0  0
 16 43  1  0  0  0  0
 17 44  1  0  0  0  0
 17 45  1  0  0  0  0
 18 19  1  0  0  0  0
 19 46  1  0  0  0  0
 19 47  1  0  0  0  0
 19 48  1  0  0  0  0
 20 21  2  0  0  0  0
 20 22  1  0  0  0  0
 22 23  2  0  0  0  0
 22 27  1  0  0  0  0
 23 24  1  0  0  0  0
 23 49  1  0  0  0  0
 24 25  2  0  0  0  0
 24 50  1  0  0  0  0
 25 26  1  0  0  0  0
 25 28  1  0  0  0  0
 26 27  2  0  0  0  0
 26 51  1  0  0  0  0
 27 52  1  0  0  0  0
M  END
>  <DRUGBANK_ID>
DB13558

>  <COMMON_NAME>
Morclofone

>  <CAS_NUMBER>
31848-01-8

>  <UNII>
VY62TIB872

>  <SYNONYMS>
Morclofone

$$$$
