
 OpenBabel10282417143D

 75 78  0  0  0  0  0  0  0  0999 V2000
    0.1694    0.0480   -0.5185 C   0  0  0  0  0  0  0  0  0  0  0  0
    0.3922    1.5005   -0.1455 C   0  0  0  0  0  0  0  0  0  0  0  0
    1.0667    2.1625   -1.3528 C   0  0  1  0  0  0  0  0  0  0  0  0
    0.5299    1.4671   -2.6227 C   0  0  0  0  0  0  0  0  0  0  0  0
   -0.9588    1.2891   -2.2573 C   0  0  0  0  0  0  0  0  0  0  0  0
   -1.7876    2.3713   -2.3305 C   0  0  0  0  0  0  0  0  0  0  0  0
   -1.2102   -0.0950   -1.5528 C   0  0  2  0  0  0  0  0  0  0  0  0
   -3.7205   -1.4285   -1.8967 C   0  0  0  0  0  0  0  0  0  0  0  0
   -5.1971   -1.4521   -2.1020 C   0  0  0  0  0  0  0  0  0  0  0  0
   -5.8410   -0.3354   -1.3200 C   0  0  1  0  0  0  0  0  0  0  0  0
   -5.7617    0.8360   -0.5590 C   0  0  1  0  0  0  0  0  0  0  0  0
   -7.2248   -0.3897   -0.0345 C   0  0  0  0  0  0  0  0  0  0  0  0
   -8.1281   -0.9377   -1.2147 C   0  0  0  0  0  0  0  0  0  0  0  0
   -7.4731    0.1101   -1.9438 C   0  0  2  0  0  0  0  0  0  0  0  0
   -5.0949   -0.7029    0.3760 C   0  0  0  0  0  0  0  0  0  0  0  0
   -1.5955   -0.8646   -0.2690 C   0  0  0  0  0  0  0  0  0  0  0  0
   -6.2439    1.8292   -0.5755 H   0  0  0  0  0  0  0  0  0  0  0  0
   -7.8800    1.0273   -1.4510 H   0  0  0  0  0  0  0  0  0  0  0  0
    0.7418    3.5472   -1.3349 O   0  0  0  0  0  0  0  0  0  0  0  0
   -2.9840   -0.0241   -1.7453 C   0  0  1  0  0  0  0  0  0  0  0  0
   -3.0085    0.3504   -2.7600 H   0  0  0  0  0  0  0  0  0  0  0  0
   -7.4923   -0.7087   -4.4081 C   0  0  0  0  0  0  0  0  0  0  0  0
   -3.8804    1.1724   -0.9514 C   0  0  1  0  0  0  0  0  0  0  0  0
   -3.4350    1.3947    0.0164 H   0  0  0  0  0  0  0  0  0  0  0  0
   -3.2581    2.5084   -1.8403 C   0  0  1  0  0  0  0  0  0  0  0  0
   -3.4981    3.7457   -1.2022 O   0  0  0  0  0  0  0  0  0  0  0  0
   -6.3267    2.3404   -3.2117 C   0  0  0  0  0  0  0  0  0  0  0  0
   -5.3266    1.2282   -3.5150 C   0  0  0  0  0  0  0  0  0  0  0  0
   -4.5734    0.9021   -4.7849 C   0  0  0  0  0  0  0  0  0  0  0  0
   -3.7666    2.1149   -5.1043 C   0  0  0  0  0  0  0  0  0  0  0  0
   -3.6907   -0.4030   -4.8432 C   0  0  0  0  0  0  0  0  0  0  0  0
   -7.5764    1.8587   -3.8927 C   0  0  0  0  0  0  0  0  0  0  0  0
   -7.9475    0.3763   -3.4215 C   0  0  2  0  0  0  0  0  0  0  0  0
    0.6298   -0.7598   -1.1572 H   0  0  0  0  0  0  0  0  0  0  0  0
    1.2683   -0.1185   -0.3454 H   0  0  0  0  0  0  0  0  0  0  0  0
   -0.5950    1.9099    0.1099 H   0  0  0  0  0  0  0  0  0  0  0  0
    0.9585    1.6657    0.7796 H   0  0  0  0  0  0  0  0  0  0  0  0
    2.1551    2.0671   -1.2960 H   0  0  0  0  0  0  0  0  0  0  0  0
    0.7529    1.9907   -3.5555 H   0  0  0  0  0  0  0  0  0  0  0  0
    1.0008    0.4754   -2.7529 H   0  0  0  0  0  0  0  0  0  0  0  0
   -1.3822    3.2487   -2.8649 H   0  0  0  0  0  0  0  0  0  0  0  0
   -3.6962   -1.9626   -0.9570 H   0  0  0  0  0  0  0  0  0  0  0  0
   -3.2383   -2.0954   -2.6187 H   0  0  0  0  0  0  0  0  0  0  0  0
   -5.6164   -2.4095   -1.7583 H   0  0  0  0  0  0  0  0  0  0  0  0
   -5.4560   -1.5034   -3.1390 H   0  0  0  0  0  0  0  0  0  0  0  0
   -7.8212   -0.2301    0.8758 H   0  0  0  0  0  0  0  0  0  0  0  0
   -6.9057   -1.4347    0.2256 H   0  0  0  0  0  0  0  0  0  0  0  0
   -9.2143   -0.8637   -1.1562 H   0  0  0  0  0  0  0  0  0  0  0  0
   -7.8590   -1.9209   -1.6450 H   0  0  0  0  0  0  0  0  0  0  0  0
   -4.0467   -0.4511    0.4453 H   0  0  0  0  0  0  0  0  0  0  0  0
   -5.5041   -0.0538    1.2145 H   0  0  0  0  0  0  0  0  0  0  0  0
   -5.1767   -1.7346    0.6972 H   0  0  0  0  0  0  0  0  0  0  0  0
   -2.1089   -0.1860    0.4054 H   0  0  0  0  0  0  0  0  0  0  0  0
   -2.0795   -1.7771   -0.5598 H   0  0  0  0  0  0  0  0  0  0  0  0
   -0.8489   -1.4172    0.3044 H   0  0  0  0  0  0  0  0  0  0  0  0
   -0.2142    3.5976   -1.1385 H   0  0  0  0  0  0  0  0  0  0  0  0
   -7.7564   -1.7024   -4.0460 H   0  0  0  0  0  0  0  0  0  0  0  0
   -7.8502   -0.5075   -5.4140 H   0  0  0  0  0  0  0  0  0  0  0  0
   -6.4265   -0.7796   -4.5766 H   0  0  0  0  0  0  0  0  0  0  0  0
   -3.7345    2.7020   -2.7955 H   0  0  0  0  0  0  0  0  0  0  0  0
   -4.3888    4.0024   -1.5161 H   0  0  0  0  0  0  0  0  0  0  0  0
   -5.9429    3.3499   -3.3660 H   0  0  0  0  0  0  0  0  0  0  0  0
   -6.6462    2.4559   -2.1709 H   0  0  0  0  0  0  0  0  0  0  0  0
   -4.6851    1.1789   -2.7151 H   0  0  0  0  0  0  0  0  0  0  0  0
   -5.8252    0.3337   -3.3446 H   0  0  0  0  0  0  0  0  0  0  0  0
   -5.3415    0.7538   -5.5376 H   0  0  0  0  0  0  0  0  0  0  0  0
   -2.8446    2.1034   -4.5302 H   0  0  0  0  0  0  0  0  0  0  0  0
   -3.5021    2.1250   -6.1493 H   0  0  0  0  0  0  0  0  0  0  0  0
   -4.3432    3.0126   -4.8592 H   0  0  0  0  0  0  0  0  0  0  0  0
   -4.2411   -1.3232   -4.6271 H   0  0  0  0  0  0  0  0  0  0  0  0
   -3.2924   -0.5046   -5.8470 H   0  0  0  0  0  0  0  0  0  0  0  0
   -2.7695   -0.4785   -4.2541 H   0  0  0  0  0  0  0  0  0  0  0  0
   -7.3647    1.8963   -4.9600 H   0  0  0  0  0  0  0  0  0  0  0  0
   -8.3840    2.5623   -3.6585 H   0  0  0  0  0  0  0  0  0  0  0  0
   -9.0467    0.3497   -3.4395 H   0  0  0  0  0  0  0  0  0  0  0  0
  1  7  1  0  0  0  0
  1 34  1  0  0  0  0
  1 35  1  0  0  0  0
  2  1  1  0  0  0  0
  2 36  1  0  0  0  0
  2 37  1  0  0  0  0
  3  4  1  0  0  0  0
  3  2  1  0  0  0  0
  3 19  1  0  0  0  0
  3 38  1  1  0  0  0
  4  5  1  0  0  0  0
  4 39  1  0  0  0  0
  4 40  1  0  0  0  0
  5  7  1  0  0  0  0
  6 25  1  0  0  0  0
  6  5  2  0  0  0  0
  6 41  1  0  0  0  0
  7 20  1  0  0  0  0
  7 16  1  1  0  0  0
  8 20  1  0  0  0  0
  8  9  1  0  0  0  0
  8 42  1  0  0  0  0
  8 43  1  0  0  0  0
  9 10  1  0  0  0  0
  9 44  1  0  0  0  0
  9 45  1  0  0  0  0
 10 15  1  1  0  0  0
 11 10  1  0  0  0  0
 11 17  1  6  0  0  0
 12 11  1  0  0  0  0
 12 46  1  0  0  0  0
 12 47  1  0  0  0  0
 13 14  1  0  0  0  0
 13 12  1  0  0  0  0
 13 48  1  0  0  0  0
 13 49  1  0  0  0  0
 14 10  1  0  0  0  0
 14 18  1  1  0  0  0
 14 33  1  0  0  0  0
 15 50  1  0  0  0  0
 15 51  1  0  0  0  0
 15 52  1  0  0  0  0
 16 53  1  0  0  0  0
 16 54  1  0  0  0  0
 16 55  1  0  0  0  0
 19 56  1  0  0  0  0
 20 21  1  6  0  0  0
 22 57  1  0  0  0  0
 22 58  1  0  0  0  0
 22 59  1  0  0  0  0
 23 11  1  0  0  0  0
 23 20  1  0  0  0  0
 23 24  1  1  0  0  0
 25 23  1  0  0  0  0
 25 60  1  6  0  0  0
 25 26  1  0  0  0  0
 26 61  1  0  0  0  0
 27 62  1  0  0  0  0
 27 63  1  0  0  0  0
 28 27  1  0  0  0  0
 28 64  1  0  0  0  0
 28 65  1  0  0  0  0
 29 28  1  0  0  0  0
 29 66  1  0  0  0  0
 30 29  1  0  0  0  0
 30 67  1  0  0  0  0
 30 68  1  0  0  0  0
 30 69  1  0  0  0  0
 31 29  1  0  0  0  0
 31 70  1  0  0  0  0
 31 71  1  0  0  0  0
 31 72  1  0  0  0  0
 32 27  1  0  0  0  0
 32 73  1  0  0  0  0
 32 74  1  0  0  0  0
 33 75  1  1  0  0  0
 33 32  1  0  0  0  0
 33 22  1  0  0  0  0
M  END
>  <DRUGBANK_ID>
DB04706

>  <COMMON_NAME>
7beta-hydroxycholesterol

>  <CAS_NUMBER>
566-27-8

>  <UNII>
N9616291J4

>  <SYNONYMS>
(3β,7β)-cholest-5-ene-3,7-diol; 7β-hydroxycholesterol

$$$$
