RT3
 OpenBabel10282417173D

 49 51  0  0  0  0  0  0  0  0999 V2000
    1.1043    0.2402    0.0705 O   0  0  0  0  0  0  0  0  0  0  0  0
    2.5190    0.0300   -0.1332 S   0  0  0  0  0  0  0  0  0  0  0  0
    3.0768   -1.2298   -0.5573 O   0  0  0  0  0  0  0  0  0  0  0  0
    3.0886    1.2455   -1.1233 N   0  0  0  0  0  0  0  0  0  0  0  0
    3.3429    0.4947    1.4079 C   0  0  0  0  0  0  0  0  0  0  0  0
    3.5411   -0.8949    2.5105 C   0  0  0  0  0  0  0  0  0  0  0  0
    3.2710   -0.7002    4.2965 C   0  0  0  0  0  0  0  0  0  0  0  0
    3.7227   -2.2492    5.0959 Cl  0  0  0  0  0  0  0  0  0  0  0  0
    2.9217    2.1264    2.0151 C   0  0  0  0  0  0  0  0  0  0  0  0
    2.7022    2.4125    3.8267 C   0  0  0  0  0  0  0  0  0  0  0  0
    3.0257    1.0251    5.0125 C   0  0  0  0  0  0  0  0  0  0  0  0
    3.7187    1.4675    6.2272 N   0  0  0  0  0  0  0  0  0  0  0  0
    4.0499    2.8297    6.4558 C   0  0  0  0  0  0  0  0  0  0  0  0
    3.6321    3.8090    5.8378 O   0  0  0  0  0  0  0  0  0  0  0  0
    4.9511    3.0775    7.6447 C   0  0  0  0  0  0  0  0  0  0  0  0
    6.3296    4.2474    7.4184 S   0  0  0  0  0  0  0  0  0  0  0  0
    7.6893    3.4537    6.5854 C   0  0  0  0  0  0  0  0  0  0  0  0
    8.7363    4.0671    6.4076 O   0  0  0  0  0  0  0  0  0  0  0  0
    7.5197    2.1418    6.2011 N   0  0  0  0  0  0  0  0  0  0  0  0
    8.6203    1.1643    6.2194 C   0  0  0  0  0  0  0  0  0  0  0  0
    6.6866    1.8473    5.1187 C   0  0  0  0  0  0  0  0  0  0  0  0
    6.0344    2.8062    4.3784 C   0  0  0  0  0  0  0  0  0  0  0  0
    6.4564    0.5276    4.8676 C   0  0  0  0  0  0  0  0  0  0  0  0
    7.0109   -0.6451    5.6672 C   0  0  0  0  0  0  0  0  0  0  0  0
    8.0394   -0.1729    6.6611 C   0  0  0  0  0  0  0  0  0  0  0  0
    5.3428    0.2403    4.0931 C   0  0  0  0  0  0  0  0  0  0  0  0
    4.3048    1.0559    3.3536 C   0  0  0  0  0  0  0  0  0  0  0  0
    2.2374    0.6036    3.1915 C   0  0  0  0  0  0  0  0  0  0  0  0
    4.9890    2.4492    3.4812 C   0  0  0  0  0  0  0  0  0  0  0  0
    2.6646    2.1429   -0.8926 H   0  0  0  0  0  0  0  0  0  0  0  0
    4.1050    1.2546   -1.1422 H   0  0  0  0  0  0  0  0  0  0  0  0
    3.6043   -1.8891    2.0554 H   0  0  0  0  0  0  0  0  0  0  0  0
    2.5770    2.8645    1.2933 H   0  0  0  0  0  0  0  0  0  0  0  0
    2.4963    3.4462    4.0906 H   0  0  0  0  0  0  0  0  0  0  0  0
    4.4031    0.8019    6.5781 H   0  0  0  0  0  0  0  0  0  0  0  0
    4.2379    3.5877    8.3090 H   0  0  0  0  0  0  0  0  0  0  0  0
    5.2616    2.1548    8.1253 H   0  0  0  0  0  0  0  0  0  0  0  0
    9.3985    1.5033    6.8926 H   0  0  0  0  0  0  0  0  0  0  0  0
    9.0389    1.0701    5.2008 H   0  0  0  0  0  0  0  0  0  0  0  0
    6.0954    3.8615    4.6665 H   0  0  0  0  0  0  0  0  0  0  0  0
    6.2666   -1.2539    6.2251 H   0  0  0  0  0  0  0  0  0  0  0  0
    7.4151   -1.3198    4.9070 H   0  0  0  0  0  0  0  0  0  0  0  0
    7.5409   -0.0355    7.6308 H   0  0  0  0  0  0  0  0  0  0  0  0
    8.7960   -0.9510    6.7561 H   0  0  0  0  0  0  0  0  0  0  0  0
    5.0348   -0.4926    4.8205 H   0  0  0  0  0  0  0  0  0  0  0  0
    1.7765   -0.1605    2.5019 H   0  0  0  0  0  0  0  0  0  0  0  0
    1.5895    0.2492    4.0818 H   0  0  0  0  0  0  0  0  0  0  0  0
    1.4032    1.3639    2.9565 H   0  0  0  0  0  0  0  0  0  0  0  0
    4.4984    3.4203    3.2915 H   0  0  0  0  0  0  0  0  0  0  0  0
  2  5  1  0  0  0  0
  2  1  2  0  0  0  0
  2  3  2  0  0  0  0
  4  2  1  0  0  0  0
  4 30  1  0  0  0  0
  4 31  1  0  0  0  0
  5  6  2  0  0  0  0
  6  7  1  0  0  0  0
  6 32  1  0  0  0  0
  7  8  1  0  0  0  0
  9 10  2  0  0  0  0
  9  5  1  0  0  0  0
  9 33  1  0  0  0  0
 10 11  1  0  0  0  0
 10 34  1  0  0  0  0
 11 12  1  0  0  0  0
 11  7  2  0  0  0  0
 12 35  1  0  0  0  0
 13 15  1  0  0  0  0
 13 12  1  0  0  0  0
 14 13  2  0  0  0  0
 15 16  1  0  0  0  0
 15 36  1  0  0  0  0
 15 37  1  0  0  0  0
 16 17  1  0  0  0  0
 17 19  1  0  0  0  0
 17 18  2  0  0  0  0
 19 21  1  0  0  0  0
 20 25  1  0  0  0  0
 20 19  1  0  0  0  0
 20 38  1  0  0  0  0
 20 39  1  0  0  0  0
 21 23  2  0  0  0  0
 21 22  1  0  0  0  0
 22 29  2  0  0  0  0
 22 40  1  0  0  0  0
 23 26  1  0  0  0  0
 24 23  1  0  0  0  0
 24 41  1  0  0  0  0
 24 42  1  0  0  0  0
 25 24  1  0  0  0  0
 25 43  1  0  0  0  0
 25 44  1  0  0  0  0
 26 27  2  0  0  0  0
 26 45  1  0  0  0  0
 27 28  1  0  0  0  0
 28 46  1  0  0  0  0
 28 47  1  0  0  0  0
 28 48  1  0  0  0  0
 29 27  1  0  0  0  0
 29 49  1  0  0  0  0
M  END
>  <DRUGBANK_ID>
DB08494

>  <COMMON_NAME>
S-{2-[(2-chloro-4-sulfamoylphenyl)amino]-2-oxoethyl} 6-methyl-3,4-dihydroquinoline-1(2H)-carbothioate

$$$$
