
 OpenBabel10282417163D

 35 37  0  0  0  0  0  0  0  0999 V2000
   -2.0624    0.0403    0.0056 Cl  0  0  0  0  0  0  0  0  0  0  0  0
    4.5273    3.5192    0.9961 S   0  0  0  0  0  0  0  0  0  0  0  0
    6.7210    6.5004    5.9510 F   0  0  0  0  0  0  0  0  0  0  0  0
    8.2630    2.4433    1.4608 O   0  0  0  0  0  0  0  0  0  0  0  0
    4.7011    1.8316   -0.8723 N   0  3  0  0  0  0  0  0  0  0  0  0
    2.4680    2.3712   -0.2063 N   0  0  0  0  0  0  0  0  0  0  0  0
    6.8542    0.8861   -0.6152 N   0  0  0  0  0  0  0  0  0  0  0  0
    5.9983    2.6189    0.8430 C   0  0  0  0  0  0  0  0  0  0  0  0
    3.7901    2.4859   -0.1493 C   0  0  0  0  0  0  0  0  0  0  0  0
    5.9056    1.7390   -0.2190 C   0  0  0  0  0  0  0  0  0  0  0  0
    7.1544    2.9131    1.6731 C   0  0  0  0  0  0  0  0  0  0  0  0
    7.0122    3.8651    2.8083 C   0  0  0  0  0  0  0  0  0  0  0  0
    1.7713    1.1976   -0.1321 C   0  0  0  0  0  0  0  0  0  0  0  0
    6.0941    3.6221    3.8428 C   0  0  0  0  0  0  0  0  0  0  0  0
    7.8031    5.0194    2.8181 C   0  0  0  0  0  0  0  0  0  0  0  0
    0.3722    1.2175   -0.0711 C   0  0  0  0  0  0  0  0  0  0  0  0
    2.4232   -0.0396   -0.0443 C   0  0  0  0  0  0  0  0  0  0  0  0
    5.9810    4.5311    4.8938 C   0  0  0  0  0  0  0  0  0  0  0  0
    7.6996    5.9120    3.8862 C   0  0  0  0  0  0  0  0  0  0  0  0
   -0.3432    0.0155   -0.0230 C   0  0  0  0  0  0  0  0  0  0  0  0
    1.7090   -1.2347   -0.0039 C   0  0  0  0  0  0  0  0  0  0  0  0
    6.7984    5.6557    4.9161 C   0  0  0  0  0  0  0  0  0  0  0  0
    0.3205   -1.2085   -0.0145 C   0  0  0  0  0  0  0  0  0  0  0  0
    4.4721    1.4325   -1.7767 H   0  0  0  0  0  0  0  0  0  0  0  0
    1.9923    3.2374    0.0265 H   0  0  0  0  0  0  0  0  0  0  0  0
    7.7228    0.7801   -0.0773 H   0  0  0  0  0  0  0  0  0  0  0  0
    6.7945    0.2129   -1.3740 H   0  0  0  0  0  0  0  0  0  0  0  0
    5.4625    2.7377    3.8436 H   0  0  0  0  0  0  0  0  0  0  0  0
    8.4970    5.2265    2.0059 H   0  0  0  0  0  0  0  0  0  0  0  0
   -0.1815    2.1540   -0.0675 H   0  0  0  0  0  0  0  0  0  0  0  0
    3.5036   -0.1133    0.0138 H   0  0  0  0  0  0  0  0  0  0  0  0
    5.2769    4.3650    5.7042 H   0  0  0  0  0  0  0  0  0  0  0  0
    8.3240    6.7996    3.9318 H   0  0  0  0  0  0  0  0  0  0  0  0
    2.2412   -2.1830    0.0307 H   0  0  0  0  0  0  0  0  0  0  0  0
   -0.2347   -2.1443   -0.0100 H   0  0  0  0  0  0  0  0  0  0  0  0
  1 20  1  0  0  0  0
  2  8  1  0  0  0  0
  2  9  1  0  0  0  0
  3 22  1  0  0  0  0
  4 11  2  0  0  0  0
  5  9  2  0  0  0  0
  5 10  1  0  0  0  0
  5 24  1  0  0  0  0
  6  9  1  0  0  0  0
  6 13  1  0  0  0  0
  6 25  1  0  0  0  0
  7 10  1  0  0  0  0
  7 26  1  0  0  0  0
  7 27  1  0  0  0  0
  8 10  2  0  0  0  0
  8 11  1  0  0  0  0
 11 12  1  0  0  0  0
 12 14  2  0  0  0  0
 12 15  1  0  0  0  0
 13 16  2  0  0  0  0
 13 17  1  0  0  0  0
 14 18  1  0  0  0  0
 14 28  1  0  0  0  0
 15 19  2  0  0  0  0
 15 29  1  0  0  0  0
 16 20  1  0  0  0  0
 16 30  1  0  0  0  0
 17 21  2  0  0  0  0
 17 31  1  0  0  0  0
 18 22  2  0  0  0  0
 18 32  1  0  0  0  0
 19 22  1  0  0  0  0
 19 33  1  0  0  0  0
 20 23  2  0  0  0  0
 21 23  1  0  0  0  0
 21 34  1  0  0  0  0
 23 35  1  0  0  0  0
M  CHG  1   5   1
M  END
>  <DRUGBANK_ID>
DB07489

>  <COMMON_NAME>
4-Amino-2-[(3-chlorophenyl)amino]-5-(4-fluorobenzoyl)-1,3-thiazol-3-ium

$$$$
