
 OpenBabel10282417203D

 41 41  0  0  1  0  0  0  0  0999 V2000
    1.0247   -0.0866   -0.1893 C   0  0  0  0  0  0  0  0  0  0  0  0
    0.7010   -0.0806    1.2853 C   0  0  0  0  0  0  0  0  0  0  0  0
    1.3334    1.1474    1.9256 C   0  0  0  0  0  0  0  0  0  0  0  0
   -0.7337   -0.1508    1.4374 N   0  0  0  0  0  0  0  0  0  0  0  0
   -1.0813   -0.2765    2.8425 C   0  0  0  0  0  0  0  0  0  0  0  0
   -1.1931    1.0607    3.6564 C   0  0  1  0  0  0  0  0  0  0  0  0
   -1.7645    2.2967    2.8889 C   0  0  0  0  0  0  0  0  0  0  0  0
   -3.2023    2.4688    2.8066 O   0  0  0  0  0  0  0  0  0  0  0  0
   -3.9017    1.4376    2.2529 C   0  0  0  0  0  0  0  0  0  0  0  0
   -3.8459    0.1736    2.7951 C   0  0  0  0  0  0  0  0  0  0  0  0
   -4.2270   -0.9541    2.0883 C   0  0  0  0  0  0  0  0  0  0  0  0
   -5.1019   -0.8037    1.0460 C   0  0  0  0  0  0  0  0  0  0  0  0
   -5.5089    0.4990    0.7284 C   0  0  0  0  0  0  0  0  0  0  0  0
   -4.8318    1.6208    1.2497 C   0  0  0  0  0  0  0  0  0  0  0  0
   -5.6756   -2.0373    0.4148 C   0  0  0  0  0  0  0  0  0  0  0  0
   -7.1262   -2.2246    0.8107 C   0  0  0  0  0  0  0  0  0  0  0  0
   -8.0411   -2.1658    0.0173 O   0  0  0  0  0  0  0  0  0  0  0  0
   -7.3515   -2.4660    2.1435 N   0  0  0  0  0  0  0  0  0  0  0  0
   -1.7558    0.8691    4.9604 O   0  0  0  0  0  0  0  0  0  0  0  0
    0.6301    0.8088   -0.6819 H   0  0  0  0  0  0  0  0  0  0  0  0
    0.6117   -0.9706   -0.6839 H   0  0  0  0  0  0  0  0  0  0  0  0
    2.1112   -0.0996   -0.2992 H   0  0  0  0  0  0  0  0  0  0  0  0
    1.1094   -0.9878    1.7432 H   0  0  0  0  0  0  0  0  0  0  0  0
    0.8413    2.0711    1.6002 H   0  0  0  0  0  0  0  0  0  0  0  0
    1.3189    1.0856    3.0099 H   0  0  0  0  0  0  0  0  0  0  0  0
    2.3935    1.2114    1.6932 H   0  0  0  0  0  0  0  0  0  0  0  0
   -1.2472    0.5878    0.9532 H   0  0  0  0  0  0  0  0  0  0  0  0
   -1.9525   -0.9082    2.8213 H   0  0  0  0  0  0  0  0  0  0  0  0
   -0.4445   -0.9859    3.3824 H   0  0  0  0  0  0  0  0  0  0  0  0
   -0.1832    1.3327    3.9315 H   0  0  0  0  0  0  0  0  0  0  0  0
   -1.3896    3.1876    3.4173 H   0  0  0  0  0  0  0  0  0  0  0  0
   -1.3335    2.4042    1.8837 H   0  0  0  0  0  0  0  0  0  0  0  0
   -3.3818    0.0000    3.7477 H   0  0  0  0  0  0  0  0  0  0  0  0
   -3.8451   -1.9294    2.3857 H   0  0  0  0  0  0  0  0  0  0  0  0
   -6.3747    0.6409    0.0888 H   0  0  0  0  0  0  0  0  0  0  0  0
   -5.0836    2.6177    0.9035 H   0  0  0  0  0  0  0  0  0  0  0  0
   -5.5937   -1.9565   -0.6730 H   0  0  0  0  0  0  0  0  0  0  0  0
   -5.1131   -2.9406    0.6962 H   0  0  0  0  0  0  0  0  0  0  0  0
   -6.6311   -2.3930    2.8477 H   0  0  0  0  0  0  0  0  0  0  0  0
   -8.3165   -2.4823    2.4449 H   0  0  0  0  0  0  0  0  0  0  0  0
   -2.6192    1.3165    4.9902 H   0  0  0  0  0  0  0  0  0  0  0  0
  1  2  1  0  0  0  0
  1 20  1  0  0  0  0
  1 21  1  0  0  0  0
  1 22  1  0  0  0  0
  2  3  1  0  0  0  0
  2  4  1  0  0  0  0
  2 23  1  0  0  0  0
  3 24  1  0  0  0  0
  3 25  1  0  0  0  0
  3 26  1  0  0  0  0
  4  5  1  0  0  0  0
  4 27  1  0  0  0  0
  5  6  1  0  0  0  0
  5 28  1  0  0  0  0
  5 29  1  0  0  0  0
  6  7  1  0  0  0  0
  6 19  1  0  0  0  0
  6 30  1  1  0  0  0
  7  8  1  0  0  0  0
  7 31  1  0  0  0  0
  7 32  1  0  0  0  0
  8  9  1  0  0  0  0
  9 10  2  0  0  0  0
  9 14  1  0  0  0  0
 10 11  1  0  0  0  0
 10 33  1  0  0  0  0
 11 12  2  0  0  0  0
 11 34  1  0  0  0  0
 12 13  1  0  0  0  0
 12 15  1  0  0  0  0
 13 14  2  0  0  0  0
 13 35  1  0  0  0  0
 14 36  1  0  0  0  0
 15 16  1  0  0  0  0
 15 37  1  0  0  0  0
 15 38  1  0  0  0  0
 16 17  2  0  0  0  0
 16 18  1  0  0  0  0
 18 39  1  0  0  0  0
 18 40  1  0  0  0  0
 19 41  1  0  0  0  0
M  END
>  <DRUGBANK_ID>
DB13443

>  <COMMON_NAME>
Esatenolol

>  <CAS_NUMBER>
93379-54-5

>  <UNII>
DPF757BOSR

>  <SYNONYMS>
(-)-Atenolol; (S)-4-(2-Hydroxy-3-((1-methylethyl)amino)propoxy)benzeneacetamide; 2-(p-((2S)-2-hydroxy-3-(isopropylamino)propoxy)phenyl)acetamide; Esatenolol; S-(-)-4-(2-Hydroxy-3-isopropylaminopropoxy)phenylacetamide; S-atenolol

$$$$
