
 OpenBabel10282417203D

 27 28  0  0  0  0  0  0  0  0999 V2000
    1.0366   -0.0271   -0.0736 C   0  0  0  0  0  0  0  0  0  0  0  0
    0.5142    0.4776   -1.3852 C   0  0  0  0  0  0  0  0  0  0  0  0
   -0.1254   -0.2232   -2.1610 O   0  0  0  0  0  0  0  0  0  0  0  0
    0.8409    1.7846   -1.5917 O   0  0  0  0  0  0  0  0  0  0  0  0
    0.3697    2.3704   -2.8330 C   0  0  3  0  0  0  0  0  0  0  0  0
    0.9181    3.8215   -2.9680 C   0  0  0  0  0  0  0  0  0  0  0  0
   -0.1643    4.8381   -3.0915 N   0  0  3  0  0  0  0  0  0  0  0  0
   -1.0204    4.7553   -1.8872 C   0  0  0  0  0  0  0  0  0  0  0  0
   -1.6345    3.3580   -1.7188 C   0  0  0  0  0  0  0  0  0  0  0  0
   -1.1743    2.4551   -2.8734 C   0  0  3  0  0  0  0  0  0  0  0  0
   -1.5924    3.1164   -4.1936 C   0  0  0  0  0  0  0  0  0  0  0  0
   -0.9881    4.5237   -4.2798 C   0  0  0  0  0  0  0  0  0  0  0  0
    0.6918   -1.0583    0.0637 H   0  0  0  0  0  0  0  0  0  0  0  0
    0.6485    0.5680    0.7566 H   0  0  0  0  0  0  0  0  0  0  0  0
    2.1286   -0.0317   -0.0762 H   0  0  0  0  0  0  0  0  0  0  0  0
    0.7538    1.7725   -3.6701 H   0  0  0  0  0  0  0  0  0  0  0  0
    1.5655    4.0835   -2.1219 H   0  0  0  0  0  0  0  0  0  0  0  0
    1.5553    3.8917   -3.8598 H   0  0  0  0  0  0  0  0  0  0  0  0
   -0.4329    5.0163   -0.9985 H   0  0  0  0  0  0  0  0  0  0  0  0
   -1.8186    5.5063   -1.9432 H   0  0  0  0  0  0  0  0  0  0  0  0
   -1.3343    2.9305   -0.7551 H   0  0  0  0  0  0  0  0  0  0  0  0
   -2.7282    3.4246   -1.7148 H   0  0  0  0  0  0  0  0  0  0  0  0
   -1.6479    1.4753   -2.7846 H   0  0  0  0  0  0  0  0  0  0  0  0
   -1.2587    2.5096   -5.0436 H   0  0  0  0  0  0  0  0  0  0  0  0
   -2.6861    3.1761   -4.2458 H   0  0  0  0  0  0  0  0  0  0  0  0
   -1.7897    5.2662   -4.3870 H   0  0  0  0  0  0  0  0  0  0  0  0
   -0.3832    4.6161   -5.1905 H   0  0  0  0  0  0  0  0  0  0  0  0
  1  2  1  0  0  0  0
  1 13  1  0  0  0  0
  1 14  1  0  0  0  0
  1 15  1  0  0  0  0
  2  3  2  0  0  0  0
  2  4  1  0  0  0  0
  4  5  1  0  0  0  0
  5  6  1  0  0  0  0
  5 10  1  0  0  0  0
  5 16  1  0  0  0  0
  6  7  1  0  0  0  0
  6 17  1  0  0  0  0
  6 18  1  0  0  0  0
  7  8  1  0  0  0  0
  7 12  1  0  0  0  0
  8  9  1  0  0  0  0
  8 19  1  0  0  0  0
  8 20  1  0  0  0  0
  9 10  1  0  0  0  0
  9 21  1  0  0  0  0
  9 22  1  0  0  0  0
 10 11  1  0  0  0  0
 10 23  1  0  0  0  0
 11 12  1  0  0  0  0
 11 24  1  0  0  0  0
 11 25  1  0  0  0  0
 12 26  1  0  0  0  0
 12 27  1  0  0  0  0
M  END
>  <DRUGBANK_ID>
DB13262

>  <COMMON_NAME>
Aceclidine

>  <CAS_NUMBER>
827-61-2

>  <UNII>
0578K3ELIO

>  <SYNONYMS>
Aceclidina; Aceclidine; Aceclidinum

$$$$
