
 OpenBabel10282417183D

 41 43  0  0  1  0  0  0  0  0999 V2000
    0.9380    2.2284    2.2896 C   0  0  0  0  0  0  0  0  0  0  0  0
    0.0730    3.0283    1.1613 C   0  0  2  0  0  0  0  0  0  0  0  0
    0.2386    4.5371    1.4369 C   0  0  2  0  0  0  0  0  0  0  0  0
    1.0995    5.2780    0.4587 C   0  0  0  0  0  0  0  0  0  0  0  0
    2.2160    5.7235    0.6168 O   0  0  0  0  0  0  0  0  0  0  0  0
    0.4067    5.1398   -0.7245 N   0  0  0  0  0  0  0  0  0  0  0  0
   -0.1004    3.6922   -0.6934 C   0  0  1  0  0  0  0  0  0  0  0  0
    1.2614    2.7548   -0.5134 C   0  0  0  0  0  0  0  0  0  0  0  0
    2.4037    2.6245   -0.7876 O   0  0  0  0  0  0  0  0  0  0  0  0
    0.4510    1.9502    0.2262 O   0  0  0  0  0  0  0  0  0  0  0  0
   -1.1005    3.3213   -2.0229 C   0  0  2  0  0  0  0  0  0  0  0  0
   -0.5540    2.5059   -3.3569 C   0  0  1  0  0  0  0  0  0  0  0  0
    0.8312    2.0079   -3.0525 C   0  0  0  0  0  0  0  0  0  0  0  0
    0.6121    0.8362   -2.0618 C   0  0  0  0  0  0  0  0  0  0  0  0
    0.1104   -0.4202   -2.6660 C   0  0  0  0  0  0  0  0  0  0  0  0
   -1.0057   -0.0286   -3.5804 C   0  0  0  0  0  0  0  0  0  0  0  0
   -1.3366    1.2557   -3.8658 C   0  0  0  0  0  0  0  0  0  0  0  0
   -1.7464    4.5410   -2.4980 O   0  0  0  0  0  0  0  0  0  0  0  0
    0.4946    5.0347    2.8540 C   0  0  0  0  0  0  0  0  0  0  0  0
   -0.8101    5.2235    3.6124 C   0  0  0  0  0  0  0  0  0  0  0  0
   -1.6773    3.6965    3.8878 Cl  0  0  0  0  0  0  0  0  0  0  0  0
    1.2306    2.7086    3.2181 H   0  0  0  0  0  0  0  0  0  0  0  0
    1.8854    1.7686    1.9306 H   0  0  0  0  0  0  0  0  0  0  0  0
    0.3173    1.3893    2.6245 H   0  0  0  0  0  0  0  0  0  0  0  0
   -0.7898    4.8904    1.2240 H   0  0  0  0  0  0  0  0  0  0  0  0
    0.8337    5.5672   -1.5390 H   0  0  0  0  0  0  0  0  0  0  0  0
   -1.9274    2.7244   -1.6259 H   0  0  0  0  0  0  0  0  0  0  0  0
   -0.5057    3.1807   -4.2301 H   0  0  0  0  0  0  0  0  0  0  0  0
    1.3261    2.9269   -2.7237 H   0  0  0  0  0  0  0  0  0  0  0  0
    1.4443    1.6993   -3.9003 H   0  0  0  0  0  0  0  0  0  0  0  0
    1.4777    0.5889   -1.4478 H   0  0  0  0  0  0  0  0  0  0  0  0
   -0.2535    1.0640   -1.4208 H   0  0  0  0  0  0  0  0  0  0  0  0
    0.9508   -0.9206   -3.1445 H   0  0  0  0  0  0  0  0  0  0  0  0
   -0.2558   -1.0522   -1.8424 H   0  0  0  0  0  0  0  0  0  0  0  0
   -1.5598   -0.8682   -3.9854 H   0  0  0  0  0  0  0  0  0  0  0  0
   -2.1219    1.4069   -4.6041 H   0  0  0  0  0  0  0  0  0  0  0  0
   -1.3357    4.8469   -3.3292 H   0  0  0  0  0  0  0  0  0  0  0  0
    1.1925    4.4456    3.4401 H   0  0  0  0  0  0  0  0  0  0  0  0
    0.9915    6.0098    2.8046 H   0  0  0  0  0  0  0  0  0  0  0  0
   -0.6048    5.6755    4.5820 H   0  0  0  0  0  0  0  0  0  0  0  0
   -1.4765    5.8818    3.0462 H   0  0  0  0  0  0  0  0  0  0  0  0
  1 22  1  0  0  0  0
  1 23  1  0  0  0  0
  1 24  1  0  0  0  0
  2  1  1  1  0  0  0
  2  3  1  0  0  0  0
  2  7  1  0  0  0  0
  2 10  1  0  0  0  0
  3  4  1  0  0  0  0
  3 25  1  6  0  0  0
  3 19  1  0  0  0  0
  4  5  2  0  0  0  0
  4  6  1  0  0  0  0
  6  7  1  0  0  0  0
  6 26  1  0  0  0  0
  7  8  1  0  0  0  0
  7 11  1  6  0  0  0
  8  9  2  0  0  0  0
  8 10  1  0  0  0  0
 11 18  1  0  0  0  0
 11 27  1  1  0  0  0
 12 13  1  0  0  0  0
 12 17  1  0  0  0  0
 12 11  1  0  0  0  0
 12 28  1  6  0  0  0
 13 14  1  0  0  0  0
 13 29  1  0  0  0  0
 13 30  1  0  0  0  0
 14 15  1  0  0  0  0
 14 31  1  0  0  0  0
 14 32  1  0  0  0  0
 15 16  1  0  0  0  0
 15 33  1  0  0  0  0
 15 34  1  0  0  0  0
 16 17  2  0  0  0  0
 16 35  1  0  0  0  0
 17 36  1  0  0  0  0
 18 37  1  0  0  0  0
 19 20  1  0  0  0  0
 19 38  1  0  0  0  0
 19 39  1  0  0  0  0
 20 21  1  0  0  0  0
 20 40  1  0  0  0  0
 20 41  1  0  0  0  0
M  END
>  <DRUGBANK_ID>
DB11762

>  <COMMON_NAME>
Marizomib

>  <CAS_NUMBER>
437742-34-2

>  <UNII>
703P9YDP7F

>  <SYNONYMS>
Marizomib

$$$$
