
 OpenBabel10282417173D

 22 23  0  0  0  0  0  0  0  0999 V2000
    1.2481   -1.4144    0.0037 C   0  0  0  0  0  0  0  0  0  0  0  0
    2.4586   -0.7095   -0.0253 C   0  0  0  0  0  0  0  0  0  0  0  0
    2.4667    0.6842   -0.0126 C   0  0  0  0  0  0  0  0  0  0  0  0
    1.2521    1.3768    0.0204 C   0  0  0  0  0  0  0  0  0  0  0  0
   -1.2000    1.3847    0.0005 C   0  0  0  0  0  0  0  0  0  0  0  0
   -2.4143    0.6965   -0.0118 C   0  0  0  0  0  0  0  0  0  0  0  0
   -2.4206   -0.6943   -0.0040 C   0  0  0  0  0  0  0  0  0  0  0  0
   -1.2133   -1.3990    0.0134 C   0  0  0  0  0  0  0  0  0  0  0  0
    0.0207   -0.7233    0.0141 C   0  0  0  0  0  0  0  0  0  0  0  0
    0.0241    0.6917    0.0146 C   0  0  0  0  0  0  0  0  0  0  0  0
    3.9755   -1.6259   -0.0931 S   0  0  0  0  0  0  0  0  0  0  0  0
    4.1238   -2.3371    1.1583 O   0  0  0  0  0  0  0  0  0  0  0  0
    4.0247   -2.3160   -1.3621 O   0  0  0  0  0  0  0  0  0  0  0  0
    5.1648   -0.5333   -0.1311 O   0  0  0  0  0  0  0  0  0  0  0  0
    1.2620   -2.5030    0.0069 H   0  0  0  0  0  0  0  0  0  0  0  0
    3.3985    1.2435   -0.0320 H   0  0  0  0  0  0  0  0  0  0  0  0
    1.2671    2.4649    0.0442 H   0  0  0  0  0  0  0  0  0  0  0  0
   -1.2177    2.4726   -0.0126 H   0  0  0  0  0  0  0  0  0  0  0  0
   -3.3525    1.2463   -0.0292 H   0  0  0  0  0  0  0  0  0  0  0  0
   -3.3656   -1.2323   -0.0163 H   0  0  0  0  0  0  0  0  0  0  0  0
   -1.2463   -2.4864    0.0191 H   0  0  0  0  0  0  0  0  0  0  0  0
    6.0171   -1.0165   -0.1715 H   0  0  0  0  0  0  0  0  0  0  0  0
  1  9  1  0  0  0  0
  1 15  1  0  0  0  0
  2  1  2  0  0  0  0
  3  4  2  0  0  0  0
  3  2  1  0  0  0  0
  3 16  1  0  0  0  0
  4 10  1  0  0  0  0
  4 17  1  0  0  0  0
  5 10  2  0  0  0  0
  5 18  1  0  0  0  0
  6  5  1  0  0  0  0
  6 19  1  0  0  0  0
  7  8  1  0  0  0  0
  7  6  2  0  0  0  0
  7 20  1  0  0  0  0
  8  9  2  0  0  0  0
  8 21  1  0  0  0  0
 10  9  1  0  0  0  0
 11  2  1  0  0  0  0
 12 11  2  0  0  0  0
 13 11  2  0  0  0  0
 14 11  1  0  0  0  0
 14 22  1  0  0  0  0
M  END
>  <DRUGBANK_ID>
DB08254

>  <COMMON_NAME>
2-Naphthalenesulfonic acid

>  <CAS_NUMBER>
120-18-3

>  <UNII>
O9S4K2S25E

>  <SYNONYMS>
beta-Naphthalenesulfonic acid; beta-Naphthylsulfonic acid; Naphthalene-2-sulfonic acid; β-naphthalenesulfonic acid; β-naphthylsulfonic acid

$$$$
