
 OpenBabel10282417203D

 31 32  0  0  1  0  0  0  0  0999 V2000
    1.1145    2.4040   -0.1146 C   0  0  0  0  0  0  0  0  0  0  0  0
    0.4491    1.2710    0.6811 C   0  0  2  0  0  0  0  0  0  0  0  0
    0.8940   -0.0003   -0.0279 C   0  0  0  0  0  0  0  0  0  0  0  0
    0.5584   -0.1725   -1.3856 C   0  0  0  0  0  0  0  0  0  0  0  0
    1.0459   -1.2507   -2.1074 C   0  0  0  0  0  0  0  0  0  0  0  0
    1.8616   -2.1808   -1.4711 C   0  0  0  0  0  0  0  0  0  0  0  0
    2.1898   -2.0380   -0.1197 C   0  0  0  0  0  0  0  0  0  0  0  0
    1.7112   -0.9441    0.6046 C   0  0  0  0  0  0  0  0  0  0  0  0
    2.5940   -3.7875   -2.5600 I   0  0  0  0  0  0  0  0  0  0  0  0
   -1.0159    1.3786    0.7843 N   0  0  0  0  0  0  0  0  0  0  0  0
   -1.8696    0.2937    0.7896 C   0  0  0  0  0  0  0  0  0  0  0  0
   -3.1270    0.6570    0.7660 N   0  0  0  0  0  0  0  0  0  0  0  0
   -3.0957    2.0208    0.7950 C   0  0  0  0  0  0  0  0  0  0  0  0
   -1.8043    2.5246    0.8694 C   0  0  0  0  0  0  0  0  0  0  0  0
   -1.4837    3.9469    0.9151 C   0  0  0  0  0  0  0  0  0  0  0  0
   -2.2687    4.8387    0.6379 O   0  0  0  0  0  0  0  0  0  0  0  0
   -0.1852    4.1796    1.2682 O   0  0  0  0  0  0  0  0  0  0  0  0
    0.3568    5.4589    0.8796 C   0  0  0  0  0  0  0  0  0  0  0  0
    1.6824    2.0945   -0.9947 H   0  0  0  0  0  0  0  0  0  0  0  0
    1.8198    2.9344    0.5329 H   0  0  0  0  0  0  0  0  0  0  0  0
    0.3807    3.0852   -0.5438 H   0  0  0  0  0  0  0  0  0  0  0  0
    0.7929    1.2637    1.7261 H   0  0  0  0  0  0  0  0  0  0  0  0
   -0.0605    0.5678   -1.8932 H   0  0  0  0  0  0  0  0  0  0  0  0
    0.7846   -1.3379   -3.1580 H   0  0  0  0  0  0  0  0  0  0  0  0
    2.8247   -2.7664    0.3784 H   0  0  0  0  0  0  0  0  0  0  0  0
    1.9956   -0.8296    1.6492 H   0  0  0  0  0  0  0  0  0  0  0  0
   -1.5327   -0.7387    0.7717 H   0  0  0  0  0  0  0  0  0  0  0  0
   -4.0123    2.5965    0.7689 H   0  0  0  0  0  0  0  0  0  0  0  0
   -0.0133    5.7983   -0.0967 H   0  0  0  0  0  0  0  0  0  0  0  0
    0.1500    6.1928    1.6580 H   0  0  0  0  0  0  0  0  0  0  0  0
    1.4460    5.3557    0.7818 H   0  0  0  0  0  0  0  0  0  0  0  0
  1 19  1  0  0  0  0
  1 20  1  0  0  0  0
  1 21  1  0  0  0  0
  2 10  1  0  0  0  0
  2 22  1  1  0  0  0
  2  3  1  0  0  0  0
  2  1  1  0  0  0  0
  3  4  2  0  0  0  0
  3  8  1  0  0  0  0
  4  5  1  0  0  0  0
  4 23  1  0  0  0  0
  5  6  2  0  0  0  0
  5 24  1  0  0  0  0
  6  7  1  0  0  0  0
  6  9  1  0  0  0  0
  7  8  2  0  0  0  0
  7 25  1  0  0  0  0
  8 26  1  0  0  0  0
 10 11  1  0  0  0  0
 10 14  1  0  0  0  0
 11 12  2  0  0  0  0
 11 27  1  0  0  0  0
 12 13  1  0  0  0  0
 13 14  2  0  0  0  0
 13 28  1  0  0  0  0
 14 15  1  0  0  0  0
 15 16  2  0  0  0  0
 15 17  1  0  0  0  0
 17 18  1  0  0  0  0
 18 29  1  0  0  0  0
 18 30  1  0  0  0  0
 18 31  1  0  0  0  0
M  END
>  <DRUGBANK_ID>
DB13021

>  <COMMON_NAME>
123I-iodometomidate

>  <CAS_NUMBER>
813466-05-6

>  <UNII>
U21CVV13SV

>  <SYNONYMS>
123 I Iodometomidate

$$$$
