
 OpenBabel10282417233D

 66 68  0  0  1  0  0  0  0  0999 V2000
    1.4418    0.9479    0.3569 C   0  0  1  0  0  0  0  0  0  0  0  0
    0.0291    0.0491    0.7381 C   0  0  2  0  0  0  0  0  0  0  0  0
    0.0410   -1.2438   -0.0220 C   0  0  2  0  0  0  0  0  0  0  0  0
   -0.8641   -2.1962    0.5623 O   0  0  0  0  0  0  0  0  0  0  0  0
    1.4827   -1.5012    0.0511 C   0  0  2  0  0  0  0  0  0  0  0  0
    2.2146   -0.2256   -0.1803 O   0  0  0  0  0  0  0  0  0  0  0  0
    1.7841   -2.4998   -1.0531 C   0  0  0  0  0  0  0  0  0  0  0  0
    2.2400   -3.7000   -0.4593 O   0  0  0  0  0  0  0  0  0  0  0  0
   -1.3186    0.2598    0.4609 O   0  0  0  0  0  0  0  0  0  0  0  0
    1.5608    2.3583   -0.4998 O   0  0  0  0  0  0  0  0  0  0  0  0
    0.4717    3.5347   -0.5457 C   0  0  2  0  0  0  0  0  0  0  0  0
    0.8169    4.5770    0.4469 C   0  0  1  0  0  0  0  0  0  0  0  0
    0.3667    4.0042    1.8171 C   0  0  2  0  0  0  0  0  0  0  0  0
   -1.0895    3.4330    2.0318 C   0  0  2  0  0  0  0  0  0  0  0  0
   -1.0564    2.4226    3.0971 O   0  0  0  0  0  0  0  0  0  0  0  0
   -1.5637    2.7735    0.7417 C   0  0  2  0  0  0  0  0  0  0  0  0
   -1.0138    3.3374   -0.4674 O   0  0  0  0  0  0  0  0  0  0  0  0
   -3.0137    1.9335    0.5932 C   0  0  0  0  0  0  0  0  0  0  0  0
   -3.2240    1.0181   -0.5970 O   0  0  0  0  0  0  0  0  0  0  0  0
   -3.1461    1.4788   -1.9621 C   0  0  2  0  0  0  0  0  0  0  0  0
   -3.5215    0.4472   -3.1047 C   0  0  1  0  0  0  0  0  0  0  0  0
   -2.4544   -0.6664   -3.4439 C   0  0  2  0  0  0  0  0  0  0  0  0
   -1.0844   -0.0797   -3.7538 C   0  0  1  0  0  0  0  0  0  0  0  0
   -0.9738    0.7742   -4.8737 O   0  0  0  0  0  0  0  0  0  0  0  0
   -0.9509    0.7518   -2.6096 C   0  0  2  0  0  0  0  0  0  0  0  0
   -1.8441    1.8873   -2.3894 O   0  0  0  0  0  0  0  0  0  0  0  0
    0.4249    1.1958   -2.4673 C   0  0  0  0  0  0  0  0  0  0  0  0
    0.0164    1.3251   -1.1700 O   0  0  0  0  0  0  0  0  0  0  0  0
   -2.7544   -1.4065   -4.6077 O   0  0  0  0  0  0  0  0  0  0  0  0
   -4.7928   -0.1349   -2.8955 O   0  0  0  0  0  0  0  0  0  0  0  0
    0.7672    4.8482    2.8720 O   0  0  0  0  0  0  0  0  0  0  0  0
    2.2225    4.8280    0.2774 O   0  0  0  0  0  0  0  0  0  0  0  0
    0.6067    3.9489   -1.5806 H   0  0  0  0  0  0  0  0  0  0  0  0
    2.2295    1.4617    1.5572 C   0  0  0  0  0  0  0  0  0  0  0  0
    3.5370    1.0062    1.7890 O   0  0  0  0  0  0  0  0  0  0  0  0
    0.0011   -0.0900    1.8102 H   0  0  0  0  0  0  0  0  0  0  0  0
   -0.2620   -1.2223   -1.0704 H   0  0  0  0  0  0  0  0  0  0  0  0
   -1.5053   -1.6772    1.0989 H   0  0  0  0  0  0  0  0  0  0  0  0
    1.6465   -1.8873    1.0678 H   0  0  0  0  0  0  0  0  0  0  0  0
    0.9183   -2.7564   -1.6866 H   0  0  0  0  0  0  0  0  0  0  0  0
    2.5438   -2.0842   -1.7124 H   0  0  0  0  0  0  0  0  0  0  0  0
    2.8159   -3.4324    0.2760 H   0  0  0  0  0  0  0  0  0  0  0  0
   -1.3677    0.7875   -0.3625 H   0  0  0  0  0  0  0  0  0  0  0  0
    0.2774    5.5038    0.2214 H   0  0  0  0  0  0  0  0  0  0  0  0
    0.9569    3.1458    2.0032 H   0  0  0  0  0  0  0  0  0  0  0  0
   -1.7792    4.1814    2.3995 H   0  0  0  0  0  0  0  0  0  0  0  0
   -0.4701    1.6703    2.8879 H   0  0  0  0  0  0  0  0  0  0  0  0
   -0.8639    2.0039    0.9034 H   0  0  0  0  0  0  0  0  0  0  0  0
   -3.0321    1.2045    1.4430 H   0  0  0  0  0  0  0  0  0  0  0  0
   -3.9218    2.5092    0.7843 H   0  0  0  0  0  0  0  0  0  0  0  0
   -3.8315    2.3279   -1.9962 H   0  0  0  0  0  0  0  0  0  0  0  0
   -3.5605    1.0616   -4.0125 H   0  0  0  0  0  0  0  0  0  0  0  0
   -2.3983   -1.3632   -2.5845 H   0  0  0  0  0  0  0  0  0  0  0  0
   -0.2711   -0.8309   -3.7280 H   0  0  0  0  0  0  0  0  0  0  0  0
   -1.1277    1.6890   -4.5464 H   0  0  0  0  0  0  0  0  0  0  0  0
   -1.2090    0.0384   -1.8351 H   0  0  0  0  0  0  0  0  0  0  0  0
    1.2363    0.4569   -2.4510 H   0  0  0  0  0  0  0  0  0  0  0  0
    0.7447    2.1459   -2.9016 H   0  0  0  0  0  0  0  0  0  0  0  0
   -0.6194    2.1343   -1.1715 H   0  0  0  0  0  0  0  0  0  0  0  0
   -2.3945   -0.8506   -5.3302 H   0  0  0  0  0  0  0  0  0  0  0  0
   -4.6908   -0.7354   -2.1365 H   0  0  0  0  0  0  0  0  0  0  0  0
    0.1770    5.6109    2.8421 H   0  0  0  0  0  0  0  0  0  0  0  0
    2.6197    4.0480   -0.1800 H   0  0  0  0  0  0  0  0  0  0  0  0
    2.4483    2.5106    1.3596 H   0  0  0  0  0  0  0  0  0  0  0  0
    1.6078    1.3515    2.4382 H   0  0  0  0  0  0  0  0  0  0  0  0
    3.4633    0.0811    2.0404 H   0  0  0  0  0  0  0  0  0  0  0  0
  1 34  1  0  0  0  0
  1 10  1  6  0  0  0
  2  1  1  0  0  0  0
  2  9  1  0  0  0  0
  2 36  1  1  0  0  0
  3  2  1  0  0  0  0
  3  4  1  0  0  0  0
  3  5  1  0  0  0  0
  3 37  1  6  0  0  0
  4 38  1  0  0  0  0
  5  6  1  0  0  0  0
  5 39  1  1  0  0  0
  5  7  1  0  0  0  0
  6  1  1  0  0  0  0
  7 40  1  0  0  0  0
  7 41  1  0  0  0  0
  8  7  1  0  0  0  0
  8 42  1  0  0  0  0
  9 43  1  0  0  0  0
 11 10  1  0  0  0  0
 11 33  1  6  0  0  0
 12 11  1  0  0  0  0
 12 32  1  0  0  0  0
 12 44  1  6  0  0  0
 13 12  1  0  0  0  0
 13 31  1  0  0  0  0
 13 45  1  1  0  0  0
 14 13  1  0  0  0  0
 14 15  1  0  0  0  0
 14 46  1  1  0  0  0
 15 47  1  0  0  0  0
 16 14  1  0  0  0  0
 16 17  1  0  0  0  0
 16 18  1  0  0  0  0
 16 48  1  1  0  0  0
 17 11  1  0  0  0  0
 18 49  1  0  0  0  0
 18 50  1  0  0  0  0
 19 18  1  0  0  0  0
 20 19  1  0  0  0  0
 20 51  1  6  0  0  0
 21 20  1  0  0  0  0
 21 30  1  0  0  0  0
 21 52  1  6  0  0  0
 22 21  1  0  0  0  0
 22 29  1  0  0  0  0
 22 53  1  1  0  0  0
 23 22  1  0  0  0  0
 23 24  1  0  0  0  0
 23 54  1  6  0  0  0
 24 55  1  0  0  0  0
 25 23  1  0  0  0  0
 25 26  1  0  0  0  0
 25 27  1  0  0  0  0
 25 56  1  1  0  0  0
 26 20  1  0  0  0  0
 27 57  1  0  0  0  0
 27 58  1  0  0  0  0
 28 27  1  0  0  0  0
 28 59  1  0  0  0  0
 29 60  1  0  0  0  0
 30 61  1  0  0  0  0
 31 62  1  0  0  0  0
 32 63  1  0  0  0  0
 34 64  1  0  0  0  0
 34 65  1  0  0  0  0
 35 34  1  0  0  0  0
 35 66  1  0  0  0  0
M  END
>  <DRUGBANK_ID>
DB16839

>  <COMMON_NAME>
Raffinose

>  <CAS_NUMBER>
512-69-6

>  <UNII>
N5O3QU595M

>  <SYNONYMS>
Gossypose; Melitose; Melitriose

$$$$
