
 OpenBabel10282417133D

 34 34  0  0  0  0  0  0  0  0999 V2000
    1.1008    1.4489    0.1971 C   0  0  1  0  0  0  0  0  0  0  0  0
    1.2792   -0.0591    0.4125 C   0  0  2  0  0  0  0  0  0  0  0  0
    2.4656   -0.5531   -0.2338 O   0  0  0  0  0  0  0  0  0  0  0  0
    0.0369   -0.8014   -0.1314 C   0  0  1  0  0  0  0  0  0  0  0  0
    0.0433   -2.1599    0.3296 O   0  0  0  0  0  0  0  0  0  0  0  0
   -1.2677   -0.1010    0.2924 C   0  0  2  0  0  0  0  0  0  0  0  0
   -2.4122   -0.7355   -0.2788 O   0  0  0  0  0  0  0  0  0  0  0  0
   -1.2222    1.3956   -0.0469 C   0  0  2  0  0  0  0  0  0  0  0  0
   -0.1103    2.0115    0.6792 O   0  0  0  0  0  0  0  0  0  0  0  0
   -2.5056    2.1002    0.3770 C   0  0  0  0  0  0  0  0  0  0  0  0
   -2.4706    3.4645   -0.0419 O   0  0  0  0  0  0  0  0  0  0  0  0
    2.2385    2.2886    0.3695 N   0  0  0  0  0  0  0  0  0  0  0  0
    3.0269    2.7562   -0.6303 C   0  0  0  0  0  0  0  0  0  0  0  0
    4.0583    3.3909   -0.3253 O   0  0  0  0  0  0  0  0  0  0  0  0
    2.7313    2.5908   -1.9928 N   0  0  0  0  0  0  0  0  0  0  0  0
    1.8050    1.9045   -2.8227 C   0  0  0  0  0  0  0  0  0  0  0  0
    1.8566    2.1400   -4.2884 C   0  0  0  0  0  0  0  0  0  0  0  0
    0.9595    1.0555   -2.5254 O   0  0  0  0  0  0  0  0  0  0  0  0
    0.9599    1.5884   -0.8134 H   0  0  0  0  0  0  0  0  0  0  0  0
    1.3965   -0.2697    1.4800 H   0  0  0  0  0  0  0  0  0  0  0  0
    2.3003   -0.5504   -1.1961 H   0  0  0  0  0  0  0  0  0  0  0  0
    0.0756   -0.8847   -1.2250 H   0  0  0  0  0  0  0  0  0  0  0  0
    0.0946   -2.1446    1.3007 H   0  0  0  0  0  0  0  0  0  0  0  0
   -1.3619   -0.2028    1.3780 H   0  0  0  0  0  0  0  0  0  0  0  0
   -2.3016   -0.7887   -1.2448 H   0  0  0  0  0  0  0  0  0  0  0  0
   -1.1161    1.5492   -1.1355 H   0  0  0  0  0  0  0  0  0  0  0  0
   -3.3908    1.6359   -0.0674 H   0  0  0  0  0  0  0  0  0  0  0  0
   -2.5922    2.0838    1.4653 H   0  0  0  0  0  0  0  0  0  0  0  0
   -1.6343    3.8285    0.3040 H   0  0  0  0  0  0  0  0  0  0  0  0
    2.5982    2.4149    1.3073 H   0  0  0  0  0  0  0  0  0  0  0  0
    3.4426    3.0999   -2.5049 H   0  0  0  0  0  0  0  0  0  0  0  0
    1.8970    1.1321   -4.7241 H   0  0  0  0  0  0  0  0  0  0  0  0
    0.8984    2.5870   -4.5771 H   0  0  0  0  0  0  0  0  0  0  0  0
    2.6959    2.7272   -4.6396 H   0  0  0  0  0  0  0  0  0  0  0  0
  1  2  1  0  0  0  0
  1  9  1  0  0  0  0
  1 12  1  0  0  0  0
  1 19  1  6  0  0  0
  2  3  1  0  0  0  0
  2  4  1  0  0  0  0
  2 20  1  1  0  0  0
  3 21  1  0  0  0  0
  4  5  1  0  0  0  0
  4  6  1  0  0  0  0
  4 22  1  6  0  0  0
  5 23  1  0  0  0  0
  6  7  1  0  0  0  0
  6  8  1  0  0  0  0
  6 24  1  1  0  0  0
  7 25  1  0  0  0  0
  8  9  1  0  0  0  0
  8 10  1  0  0  0  0
  8 26  1  6  0  0  0
 10 11  1  0  0  0  0
 10 27  1  0  0  0  0
 10 28  1  0  0  0  0
 11 29  1  0  0  0  0
 12 30  1  0  0  0  0
 13 12  1  0  0  0  0
 13 14  2  0  0  0  0
 13 15  1  0  0  0  0
 15 31  1  0  0  0  0
 16 15  1  0  0  0  0
 16 17  1  0  0  0  0
 16 18  2  0  0  0  0
 17 32  1  0  0  0  0
 17 33  1  0  0  0  0
 17 34  1  0  0  0  0
M  END
>  <DRUGBANK_ID>
DB03218

>  <SECONDARY_ACCESSION_NUMBERS>
EXPT00600

>  <COMMON_NAME>
N-acetyl-N'-beta-D-glucopyranosyl urea

$$$$
