
 OpenBabel10282417173D

  8  7  0  0  0  0  0  0  0  0999 V2000
    0.9118   -0.0628   -0.0777 O   0  0  0  0  0  0  0  0  0  0  0  0
    0.3193    0.8566    0.7183 C   0  0  0  0  0  0  0  0  0  0  0  0
    1.0127    1.6201    1.3794 O   0  0  0  0  0  0  0  0  0  0  0  0
   -1.1954    0.8406    0.7045 C   0  0  0  0  0  0  0  0  0  0  0  0
   -1.7885    1.1903   -0.9306 Cl  0  0  0  0  0  0  0  0  0  0  0  0
   -1.7885   -0.7276    1.2846 Cl  0  0  0  0  0  0  0  0  0  0  0  0
    1.8769    0.0675    0.0351 H   0  0  0  0  0  0  0  0  0  0  0  0
   -1.5717    1.6168    1.3765 H   0  0  0  0  0  0  0  0  0  0  0  0
  1  2  1  0  0  0  0
  1  7  1  0  0  0  0
  2  3  2  0  0  0  0
  2  4  1  0  0  0  0
  4  5  1  0  0  0  0
  4  6  1  0  0  0  0
  4  8  1  0  0  0  0
M  END
>  <DRUGBANK_ID>
DB08809

>  <COMMON_NAME>
Dichloroacetic acid

>  <CAS_NUMBER>
79-43-6

>  <UNII>
9LSH52S3LQ

>  <SYNONYMS>
DCA; Dichloracetic acid; Dichloroacetate

$$$$
