
 OpenBabel10282417133D

 20 19  0  0  1  0  0  0  0  0999 V2000
    0.9840    0.0572   -0.1739 N   0  0  0  0  0  0  0  0  0  0  0  0
    0.4337   -1.2407    0.2590 C   0  0  1  0  0  0  0  0  0  0  0  0
    0.9347   -1.5536    1.6940 C   0  0  0  0  0  0  0  0  0  0  0  0
    0.5304   -0.5635    2.8050 C   0  0  0  0  0  0  0  0  0  0  0  0
   -0.9667   -0.4981    3.0483 C   0  0  0  0  0  0  0  0  0  0  0  0
   -1.5070   -1.7897    3.2763 O   0  0  0  0  0  0  0  0  0  0  0  0
   -1.1079   -1.2553   -0.0096 C   0  0  0  0  0  0  0  0  0  0  0  0
   -1.5891   -2.3861   -0.5661 O   0  0  0  0  0  0  0  0  0  0  0  0
   -1.8778   -0.3236    0.2202 O   0  0  0  0  0  0  0  0  0  0  0  0
    0.6066    0.7904    0.4328 H   0  0  0  0  0  0  0  0  0  0  0  0
    1.9932    0.0729   -0.0376 H   0  0  0  0  0  0  0  0  0  0  0  0
    0.8664   -1.9960   -0.4065 H   0  0  0  0  0  0  0  0  0  0  0  0
    0.6528   -2.5738    1.9813 H   0  0  0  0  0  0  0  0  0  0  0  0
    2.0370   -1.5711    1.6778 H   0  0  0  0  0  0  0  0  0  0  0  0
    1.0202   -0.8616    3.7418 H   0  0  0  0  0  0  0  0  0  0  0  0
    0.9055    0.4400    2.5735 H   0  0  0  0  0  0  0  0  0  0  0  0
   -1.2224    0.1381    3.8970 H   0  0  0  0  0  0  0  0  0  0  0  0
   -1.4527   -0.0130    2.2145 H   0  0  0  0  0  0  0  0  0  0  0  0
   -1.3299   -2.3614    2.5120 H   0  0  0  0  0  0  0  0  0  0  0  0
   -0.9327   -2.8921   -1.0769 H   0  0  0  0  0  0  0  0  0  0  0  0
  1 10  1  0  0  0  0
  1 11  1  0  0  0  0
  2  1  1  0  0  0  0
  2  3  1  0  0  0  0
  2  7  1  0  0  0  0
  2 12  1  6  0  0  0
  3  4  1  0  0  0  0
  3 13  1  0  0  0  0
  3 14  1  0  0  0  0
  4  5  1  0  0  0  0
  4 15  1  0  0  0  0
  4 16  1  0  0  0  0
  5  6  1  0  0  0  0
  5 17  1  0  0  0  0
  5 18  1  0  0  0  0
  6 19  1  0  0  0  0
  7  8  1  0  0  0  0
  7  9  2  0  0  0  0
  8 20  1  0  0  0  0
M  END
>  <DRUGBANK_ID>
DB03105

>  <SECONDARY_ACCESSION_NUMBERS>
EXPT01193

>  <COMMON_NAME>
L-Pentahomoserine

>  <CAS_NUMBER>
6152-89-2

>  <UNII>
4U1FH45CS8

>  <SYNONYMS>
(S)-5-Hydroxynorvaline; 5-Hydroxy-2-aminovaleric acid; L-5-Hydroxynorvaline; L-alpha-Amino-delta-hydroxyvaleric acid

$$$$
