LOI
 OpenBabel10282417173D

 40 42  0  0  0  0  0  0  0  0999 V2000
    1.3415   -0.2292    0.0567 C   0  0  0  0  0  0  0  0  0  0  0  0
    0.4136   -1.2715    0.0390 C   0  0  0  0  0  0  0  0  0  0  0  0
   -0.4865    1.3345   -0.0174 C   0  0  0  0  0  0  0  0  0  0  0  0
   -7.1731    2.1314   -0.3220 C   0  0  0  0  0  0  0  0  0  0  0  0
    5.4416    0.8558   -1.1137 C   0  0  0  0  0  0  0  0  0  0  0  0
    0.9094    1.0852   -0.0294 C   0  0  0  0  0  0  0  0  0  0  0  0
   -4.7533    2.1605   -0.3712 C   0  0  0  0  0  0  0  0  0  0  0  0
   -2.8992    0.6758   -0.4445 C   0  0  0  0  0  0  0  0  0  0  0  0
   -7.3716    3.9685   -2.0840 C   0  0  0  0  0  0  0  0  0  0  0  0
   -3.1764   -2.2489    0.2709 C   0  0  0  0  0  0  0  0  0  0  0  0
    3.4654    0.4641   -2.5585 C   0  0  0  0  0  0  0  0  0  0  0  0
   -6.6121    3.0557   -1.1845 C   0  0  0  0  0  0  0  0  0  0  0  0
   -0.9865   -1.0536   -0.0299 C   0  0  0  0  0  0  0  0  0  0  0  0
   -1.4499    0.2976   -0.1040 C   0  0  0  0  0  0  0  0  0  0  0  0
    3.6183    1.8453   -0.4273 C   0  0  0  0  0  0  0  0  0  0  0  0
    5.7594    1.5871   -0.0728 N   0  0  0  0  0  0  0  0  0  0  0  0
   -5.2154    3.1204   -1.1416 N   0  0  0  0  0  0  0  0  0  0  0  0
    4.6137    2.2252    0.3478 N   0  0  0  0  0  0  0  0  0  0  0  0
   -1.7466   -2.2140    0.0802 N   0  0  0  0  0  0  0  0  0  0  0  0
   -3.4123    1.9213   -0.0742 N   0  0  0  0  0  0  0  0  0  0  0  0
    4.1177    1.0290   -1.4096 N   0  0  0  0  0  0  0  0  0  0  0  0
   -3.5783   -0.0940   -1.1386 O   0  0  0  0  0  0  0  0  0  0  0  0
   -5.9370    1.2494    0.4747 S   0  0  0  0  0  0  0  0  0  0  0  0
    2.0064    2.4797   -0.3036 S   0  0  0  0  0  0  0  0  0  0  0  0
    2.3957   -0.4826    0.1228 H   0  0  0  0  0  0  0  0  0  0  0  0
    0.8078   -2.2886    0.0667 H   0  0  0  0  0  0  0  0  0  0  0  0
   -0.8134    2.3681    0.0326 H   0  0  0  0  0  0  0  0  0  0  0  0
   -8.2220    1.9382   -0.1376 H   0  0  0  0  0  0  0  0  0  0  0  0
    6.1155    0.2177   -1.6711 H   0  0  0  0  0  0  0  0  0  0  0  0
   -7.1036    5.0089   -1.8829 H   0  0  0  0  0  0  0  0  0  0  0  0
   -7.1590    3.7448   -3.1345 H   0  0  0  0  0  0  0  0  0  0  0  0
   -8.4541    3.8661   -1.9371 H   0  0  0  0  0  0  0  0  0  0  0  0
   -3.6771   -2.4606   -0.6802 H   0  0  0  0  0  0  0  0  0  0  0  0
   -3.4633   -3.0176    0.9898 H   0  0  0  0  0  0  0  0  0  0  0  0
   -3.5401   -1.3292    0.7252 H   0  0  0  0  0  0  0  0  0  0  0  0
    2.6000   -0.1153   -2.2437 H   0  0  0  0  0  0  0  0  0  0  0  0
    3.1684    1.2737   -3.2267 H   0  0  0  0  0  0  0  0  0  0  0  0
    4.1568   -0.2084   -3.0762 H   0  0  0  0  0  0  0  0  0  0  0  0
   -1.2812   -3.1154    0.0531 H   0  0  0  0  0  0  0  0  0  0  0  0
   -2.8274    2.7080   -0.3138 H   0  0  0  0  0  0  0  0  0  0  0  0
  1  2  2  0  0  0  0
  1  6  1  0  0  0  0
  1 25  1  0  0  0  0
  2 13  1  0  0  0  0
  2 26  1  0  0  0  0
  3  6  2  0  0  0  0
  3 14  1  0  0  0  0
  3 27  1  0  0  0  0
  4 12  2  0  0  0  0
  4 23  1  0  0  0  0
  4 28  1  0  0  0  0
  5 16  2  0  0  0  0
  5 21  1  0  0  0  0
  5 29  1  0  0  0  0
  6 24  1  0  0  0  0
  7 17  2  0  0  0  0
  7 20  1  0  0  0  0
  7 23  1  0  0  0  0
  8 14  1  0  0  0  0
  8 20  1  0  0  0  0
  8 22  2  0  0  0  0
  9 12  1  0  0  0  0
  9 30  1  0  0  0  0
  9 31  1  0  0  0  0
  9 32  1  0  0  0  0
 10 19  1  0  0  0  0
 10 33  1  0  0  0  0
 10 34  1  0  0  0  0
 10 35  1  0  0  0  0
 11 21  1  0  0  0  0
 11 36  1  0  0  0  0
 11 37  1  0  0  0  0
 11 38  1  0  0  0  0
 12 17  1  0  0  0  0
 13 14  2  0  0  0  0
 13 19  1  0  0  0  0
 15 18  2  0  0  0  0
 15 21  1  0  0  0  0
 15 24  1  0  0  0  0
 16 18  1  0  0  0  0
 19 39  1  0  0  0  0
 20 40  1  0  0  0  0
M  END
>  <DRUGBANK_ID>
DB08118

>  <COMMON_NAME>
2-(methylamino)-N-(4-methyl-1,3-thiazol-2-yl)-5-[(4-methyl-4H-1,2,4-triazol-3-yl)sulfanyl]benzamide

$$$$
