952
 OpenBabel10282417113D

 48 50  0  0  0  0  0  0  0  0999 V2000
    0.8787    0.0274    0.0126 S   0  0  0  0  0  0  0  0  0  0  0  0
    0.3287    1.2721   -0.5013 O   0  0  0  0  0  0  0  0  0  0  0  0
    0.4157   -1.2444   -0.4690 O   0  0  0  0  0  0  0  0  0  0  0  0
    0.6677   -0.5695   -4.5162 N   0  0  0  0  0  0  0  0  0  0  0  0
    1.7119    4.9830   -4.1507 N   0  0  0  0  0  0  0  0  0  0  0  0
    0.4367    0.0143    1.6302 N   0  0  0  0  0  0  0  0  0  0  0  0
    0.2828    1.9592   -5.8825 C   0  0  0  0  0  0  0  0  0  0  0  0
   -0.9007    1.1821   -5.2859 C   0  0  0  0  0  0  0  0  0  0  0  0
    1.3130    0.9359   -6.4089 C   0  0  0  0  0  0  0  0  0  0  0  0
   -0.4430    0.3434   -4.1166 C   0  0  0  0  0  0  0  0  0  0  0  0
    1.7985    0.0344   -5.2825 C   0  0  0  0  0  0  0  0  0  0  0  0
    0.9238    3.0188   -4.9364 C   0  0  0  0  0  0  0  0  0  0  0  0
    1.6952    2.8485   -3.7144 C   0  0  0  0  0  0  0  0  0  0  0  0
    0.9965    4.3809   -5.1718 C   0  0  0  0  0  0  0  0  0  0  0  0
    2.2073    4.0485   -3.2726 C   0  0  0  0  0  0  0  0  0  0  0  0
    1.0862   -1.3313   -3.3389 C   0  0  0  0  0  0  0  0  0  0  0  0
    2.0933    1.7652   -2.9183 C   0  0  0  0  0  0  0  0  0  0  0  0
    3.0052    1.6680   -1.8965 C   0  0  0  0  0  0  0  0  0  0  0  0
    3.0492    4.0906   -2.1249 C   0  0  0  0  0  0  0  0  0  0  0  0
    3.3478    0.3141   -1.3108 C   0  0  0  0  0  0  0  0  0  0  0  0
    3.4553    2.8860   -1.4717 C   0  0  0  0  0  0  0  0  0  0  0  0
    2.6963    0.0756    0.0464 C   0  0  0  0  0  0  0  0  0  0  0  0
    0.8424    1.1743    2.4175 C   0  0  0  0  0  0  0  0  0  0  0  0
    1.9053    5.9702   -4.0964 H   0  0  0  0  0  0  0  0  0  0  0  0
   -0.5791   -0.1281    1.6397 H   0  0  0  0  0  0  0  0  0  0  0  0
   -0.1149    2.4892   -6.7617 H   0  0  0  0  0  0  0  0  0  0  0  0
   -1.3329    0.4967   -6.0290 H   0  0  0  0  0  0  0  0  0  0  0  0
   -1.7035    1.8620   -4.9790 H   0  0  0  0  0  0  0  0  0  0  0  0
    0.8906    0.2955   -7.1923 H   0  0  0  0  0  0  0  0  0  0  0  0
    2.1589    1.4750   -6.8557 H   0  0  0  0  0  0  0  0  0  0  0  0
   -1.2746   -0.2406   -3.7070 H   0  0  0  0  0  0  0  0  0  0  0  0
   -0.2373    1.0420   -3.2960 H   0  0  0  0  0  0  0  0  0  0  0  0
    2.5231    0.6618   -4.7633 H   0  0  0  0  0  0  0  0  0  0  0  0
    2.4850   -0.7447   -5.6272 H   0  0  0  0  0  0  0  0  0  0  0  0
    0.6212    4.9698   -5.9997 H   0  0  0  0  0  0  0  0  0  0  0  0
    2.0105   -1.8936   -3.4842 H   0  0  0  0  0  0  0  0  0  0  0  0
    1.2618   -0.6885   -2.4898 H   0  0  0  0  0  0  0  0  0  0  0  0
    0.2944   -1.9816   -2.9687 H   0  0  0  0  0  0  0  0  0  0  0  0
    1.6341    0.8659   -3.1585 H   0  0  0  0  0  0  0  0  0  0  0  0
    3.4134    5.0313   -1.7382 H   0  0  0  0  0  0  0  0  0  0  0  0
    4.4404    0.2447   -1.2351 H   0  0  0  0  0  0  0  0  0  0  0  0
    3.1310   -0.5275   -1.9813 H   0  0  0  0  0  0  0  0  0  0  0  0
    4.1102    2.9089   -0.6086 H   0  0  0  0  0  0  0  0  0  0  0  0
    3.0081    0.8869    0.7015 H   0  0  0  0  0  0  0  0  0  0  0  0
    3.0248   -0.8818    0.4663 H   0  0  0  0  0  0  0  0  0  0  0  0
    0.4623    2.1008    1.9810 H   0  0  0  0  0  0  0  0  0  0  0  0
    0.4359    1.0696    3.4241 H   0  0  0  0  0  0  0  0  0  0  0  0
    1.9300    1.2057    2.4933 H   0  0  0  0  0  0  0  0  0  0  0  0
  1  2  2  0  0  0  0
  1  3  2  0  0  0  0
  1  6  1  0  0  0  0
  1 22  1  0  0  0  0
  4 10  1  0  0  0  0
  4 11  1  0  0  0  0
  4 16  1  0  0  0  0
  5 14  1  0  0  0  0
  5 15  1  0  0  0  0
  5 24  1  0  0  0  0
  6 23  1  0  0  0  0
  6 25  1  0  0  0  0
  7  8  1  0  0  0  0
  7  9  1  0  0  0  0
  7 12  1  0  0  0  0
  7 26  1  0  0  0  0
  8 10  1  0  0  0  0
  8 27  1  0  0  0  0
  8 28  1  0  0  0  0
  9 11  1  0  0  0  0
  9 29  1  0  0  0  0
  9 30  1  0  0  0  0
 10 31  1  0  0  0  0
 10 32  1  0  0  0  0
 11 33  1  0  0  0  0
 11 34  1  0  0  0  0
 12 13  1  0  0  0  0
 12 14  2  0  0  0  0
 13 15  2  0  0  0  0
 13 17  1  0  0  0  0
 14 35  1  0  0  0  0
 15 19  1  0  0  0  0
 16 36  1  0  0  0  0
 16 37  1  0  0  0  0
 16 38  1  0  0  0  0
 17 18  2  0  0  0  0
 17 39  1  0  0  0  0
 18 20  1  0  0  0  0
 18 21  1  0  0  0  0
 19 21  2  0  0  0  0
 19 40  1  0  0  0  0
 20 22  1  0  0  0  0
 20 41  1  0  0  0  0
 20 42  1  0  0  0  0
 21 43  1  0  0  0  0
 22 44  1  0  0  0  0
 22 45  1  0  0  0  0
 23 46  1  0  0  0  0
 23 47  1  0  0  0  0
 23 48  1  0  0  0  0
M  END
>  <DRUGBANK_ID>
DB00952

>  <SECONDARY_ACCESSION_NUMBERS>
APRD00220

>  <COMMON_NAME>
Naratriptan

>  <CAS_NUMBER>
121679-13-8

>  <UNII>
QX3KXL1ZA2

>  <SYNONYMS>
N-methyl-2-(3-(1-methylpiperiden-4-yl)indole-5-yl)ethanesulfonamide; N-methyl-2-[3-(1-methyl-4-piperidyl)-1H-indol-5-yl]-ethanesulfonamide; NaratriptÃ¡n; Naratriptan; Naratriptanum

$$$$
