1619
 OpenBabel10282417123D

 39 42  0  0  1  0  0  0  0  0999 V2000
   -3.5220   -0.1117   -0.0999 N   0  0  0  0  0  0  0  0  0  0  0  0
    0.0309   -1.8648    0.0005 C   0  0  3  0  0  0  0  0  0  0  0  0
   -1.1101   -0.8450    0.0136 C   0  0  0  0  0  0  0  0  0  0  0  0
   -0.6749    0.4241   -0.0086 C   0  0  0  0  0  0  0  0  0  0  0  0
   -2.5496   -1.1998    0.0292 C   0  0  0  0  0  0  0  0  0  0  0  0
    1.2190   -0.9110   -0.0686 C   0  0  0  0  0  0  0  0  0  0  0  0
   -1.5441    1.6061   -0.0179 C   0  0  0  0  0  0  0  0  0  0  0  0
    0.7700    0.4165   -0.0375 C   0  0  0  0  0  0  0  0  0  0  0  0
   -3.0450    1.2757   -0.0242 C   0  0  0  0  0  0  0  0  0  0  0  0
   -0.0085   -2.7947    1.2095 C   0  0  0  0  0  0  0  0  0  0  0  0
    2.5790   -1.1897   -0.1063 C   0  0  0  0  0  0  0  0  0  0  0  0
    1.6558    1.4813   -0.0210 C   0  0  0  0  0  0  0  0  0  0  0  0
   -4.3774   -0.3156   -1.2600 C   0  0  0  0  0  0  0  0  0  0  0  0
   -1.1074   -3.6490    1.4088 C   0  0  0  0  0  0  0  0  0  0  0  0
    1.0019   -2.8095    2.1819 C   0  0  0  0  0  0  0  0  0  0  0  0
    3.4807   -0.1228   -0.0549 C   0  0  0  0  0  0  0  0  0  0  0  0
    3.0224    1.2031   -0.0202 C   0  0  0  0  0  0  0  0  0  0  0  0
   -1.2727   -4.3335    2.6130 C   0  0  0  0  0  0  0  0  0  0  0  0
    0.9099   -3.6135    3.3135 C   0  0  0  0  0  0  0  0  0  0  0  0
   -0.2582   -4.3195    3.5631 C   0  0  0  0  0  0  0  0  0  0  0  0
   -0.0025   -2.4525   -0.9266 H   0  0  0  0  0  0  0  0  0  0  0  0
   -2.7887   -1.6992    0.9731 H   0  0  0  0  0  0  0  0  0  0  0  0
   -2.7039   -1.9454   -0.7635 H   0  0  0  0  0  0  0  0  0  0  0  0
   -1.3168    2.1912   -0.9171 H   0  0  0  0  0  0  0  0  0  0  0  0
   -1.3180    2.2334    0.8526 H   0  0  0  0  0  0  0  0  0  0  0  0
   -3.4730    1.8562   -0.8527 H   0  0  0  0  0  0  0  0  0  0  0  0
   -3.4940    1.7252    0.8714 H   0  0  0  0  0  0  0  0  0  0  0  0
    2.9395   -2.2139   -0.1057 H   0  0  0  0  0  0  0  0  0  0  0  0
    1.3001    2.5053    0.0097 H   0  0  0  0  0  0  0  0  0  0  0  0
   -3.7904   -0.2628   -2.1825 H   0  0  0  0  0  0  0  0  0  0  0  0
   -4.8752   -1.2903   -1.2102 H   0  0  0  0  0  0  0  0  0  0  0  0
   -5.1700    0.4386   -1.2989 H   0  0  0  0  0  0  0  0  0  0  0  0
   -1.8854   -3.7431    0.6548 H   0  0  0  0  0  0  0  0  0  0  0  0
    1.8787   -2.1769    2.1016 H   0  0  0  0  0  0  0  0  0  0  0  0
    4.5491   -0.3214   -0.0250 H   0  0  0  0  0  0  0  0  0  0  0  0
    3.7372    2.0215    0.0136 H   0  0  0  0  0  0  0  0  0  0  0  0
   -2.1970   -4.8694    2.8101 H   0  0  0  0  0  0  0  0  0  0  0  0
    1.7420   -3.6490    4.0095 H   0  0  0  0  0  0  0  0  0  0  0  0
   -0.3750   -4.8563    4.4984 H   0  0  0  0  0  0  0  0  0  0  0  0
  1  5  1  0  0  0  0
  1  9  1  0  0  0  0
  1 13  1  0  0  0  0
  2  3  1  0  0  0  0
  2  6  1  0  0  0  0
  2 10  1  0  0  0  0
  2 21  1  0  0  0  0
  3  4  2  0  0  0  0
  3  5  1  0  0  0  0
  4  7  1  0  0  0  0
  4  8  1  0  0  0  0
  5 22  1  0  0  0  0
  5 23  1  0  0  0  0
  6  8  1  0  0  0  0
  6 11  2  0  0  0  0
  7  9  1  0  0  0  0
  7 24  1  0  0  0  0
  7 25  1  0  0  0  0
  8 12  2  0  0  0  0
  9 26  1  0  0  0  0
  9 27  1  0  0  0  0
 10 14  2  0  0  0  0
 10 15  1  0  0  0  0
 11 16  1  0  0  0  0
 11 28  1  0  0  0  0
 12 17  1  0  0  0  0
 12 29  1  0  0  0  0
 13 30  1  0  0  0  0
 13 31  1  0  0  0  0
 13 32  1  0  0  0  0
 14 18  1  0  0  0  0
 14 33  1  0  0  0  0
 15 19  2  0  0  0  0
 15 34  1  0  0  0  0
 16 17  2  0  0  0  0
 16 35  1  0  0  0  0
 17 36  1  0  0  0  0
 18 20  2  0  0  0  0
 18 37  1  0  0  0  0
 19 20  1  0  0  0  0
 19 38  1  0  0  0  0
 20 39  1  0  0  0  0
M  END
>  <DRUGBANK_ID>
DB01619

>  <COMMON_NAME>
Phenindamine

>  <CAS_NUMBER>
82-88-2

>  <UNII>
772BQ8KSST

>  <SYNONYMS>
Fenindamina; Phenindamine; Phenindaminum; Thephorin

$$$$
