PN5
 OpenBabel10282417173D

 54 53  0  0  0  0  0  0  0  0999 V2000
   -3.9184   -0.2983    4.6764 C   0  0  0  0  0  0  0  0  0  0  0  0
   -2.3941   -0.3241    4.6103 C   0  0  0  0  0  0  0  0  0  0  0  0
   -1.8433   -1.6085    5.1280 N   0  0  0  0  0  0  0  0  0  0  0  0
   -1.5997   -2.7655    4.3613 C   0  0  0  0  0  0  0  0  0  0  0  0
   -1.7381   -3.8495    4.8423 O   0  0  0  0  0  0  0  0  0  0  0  0
   -1.2708   -2.5795    2.8881 C   0  0  0  0  0  0  0  0  0  0  0  0
   -2.3740   -2.3460    1.8865 C   0  0  0  0  0  0  0  0  0  0  0  0
   -3.2243   -1.1561    1.9391 N   0  0  0  0  0  0  0  0  0  0  0  0
   -3.6763   -0.2158    1.0790 C   0  0  0  0  0  0  0  0  0  0  0  0
   -4.3533    0.7257    1.5129 O   0  0  0  0  0  0  0  0  0  0  0  0
   -3.3442   -0.3415   -0.3779 C   0  0  2  0  0  0  0  0  0  0  0  0
   -3.7969    0.8445   -1.0603 O   0  0  0  0  0  0  0  0  0  0  0  0
   -3.9991   -1.6066   -1.0177 C   0  0  0  0  0  0  0  0  0  0  0  0
   -3.5102   -2.9672   -0.5452 C   0  0  0  0  0  0  0  0  0  0  0  0
   -3.5103   -1.6293   -2.4646 C   0  0  0  0  0  0  0  0  0  0  0  0
   -5.5550   -1.6324   -0.7962 C   0  0  0  0  0  0  0  0  0  0  0  0
   -6.0132   -1.5968    0.6272 O   0  0  0  0  0  0  0  0  0  0  0  0
   -6.1214   -2.7441    1.3653 C   0  0  0  0  0  0  0  0  0  0  0  0
   -5.8224   -3.8511    0.9188 O   0  0  0  0  0  0  0  0  0  0  0  0
   -6.6727   -2.6023    2.8153 C   0  0  0  0  0  0  0  0  0  0  0  0
   -6.1692   -3.9303    3.6184 C   0  0  0  0  0  0  0  0  0  0  0  0
   -6.6810   -1.1599    3.4553 C   0  0  0  0  0  0  0  0  0  0  0  0
   -8.1818   -2.7166    2.7922 C   0  0  0  0  0  0  0  0  0  0  0  0
   -4.2610   -2.0697    4.4659 S   0  0  0  0  0  0  0  0  0  0  0  0
   -2.2521   -0.3320   -0.4420 H   0  0  0  0  0  0  0  0  0  0  0  0
   -4.3069    0.4221    3.9275 H   0  0  0  0  0  0  0  0  0  0  0  0
   -4.4207   -0.0599    5.6090 H   0  0  0  0  0  0  0  0  0  0  0  0
   -2.0514   -0.1829    3.5830 H   0  0  0  0  0  0  0  0  0  0  0  0
   -2.0319    0.5242    5.1773 H   0  0  0  0  0  0  0  0  0  0  0  0
   -2.4759   -1.9718    5.8471 H   0  0  0  0  0  0  0  0  0  0  0  0
   -0.5297   -1.8009    2.7760 H   0  0  0  0  0  0  0  0  0  0  0  0
   -0.8382   -3.5433    2.5785 H   0  0  0  0  0  0  0  0  0  0  0  0
   -1.8392   -2.2954    0.9463 H   0  0  0  0  0  0  0  0  0  0  0  0
   -3.0347   -3.2198    1.9758 H   0  0  0  0  0  0  0  0  0  0  0  0
   -3.9047   -1.2127    2.6754 H   0  0  0  0  0  0  0  0  0  0  0  0
   -3.6545    1.5963   -0.4489 H   0  0  0  0  0  0  0  0  0  0  0  0
   -3.8697   -3.0675    0.4505 H   0  0  0  0  0  0  0  0  0  0  0  0
   -3.9528   -3.8350   -1.0379 H   0  0  0  0  0  0  0  0  0  0  0  0
   -2.4275   -3.0902   -0.6181 H   0  0  0  0  0  0  0  0  0  0  0  0
   -2.4059   -1.6320   -2.4542 H   0  0  0  0  0  0  0  0  0  0  0  0
   -3.8209   -2.5516   -2.9617 H   0  0  0  0  0  0  0  0  0  0  0  0
   -3.8385   -0.7655   -3.0364 H   0  0  0  0  0  0  0  0  0  0  0  0
   -6.0028   -0.7608   -1.2840 H   0  0  0  0  0  0  0  0  0  0  0  0
   -5.9819   -2.5235   -1.2723 H   0  0  0  0  0  0  0  0  0  0  0  0
   -6.5588   -4.8572    3.1787 H   0  0  0  0  0  0  0  0  0  0  0  0
   -5.0858   -4.1527    3.5669 H   0  0  0  0  0  0  0  0  0  0  0  0
   -6.4461   -3.9316    4.6825 H   0  0  0  0  0  0  0  0  0  0  0  0
   -7.0438   -0.3921    2.7668 H   0  0  0  0  0  0  0  0  0  0  0  0
   -7.1696   -1.1469    4.4450 H   0  0  0  0  0  0  0  0  0  0  0  0
   -5.7891   -0.6370    3.6651 H   0  0  0  0  0  0  0  0  0  0  0  0
   -8.5157   -3.6381    2.3370 H   0  0  0  0  0  0  0  0  0  0  0  0
   -8.5477   -2.6573    3.8289 H   0  0  0  0  0  0  0  0  0  0  0  0
   -8.5849   -1.8578    2.2429 H   0  0  0  0  0  0  0  0  0  0  0  0
   -5.2182   -2.3505    5.3216 H   0  0  0  0  0  0  0  0  0  0  0  0
  1  2  1  0  0  0  0
  1 24  1  0  0  0  0
  1 26  1  0  0  0  0
  1 27  1  0  0  0  0
  2  3  1  0  0  0  0
  2 28  1  0  0  0  0
  2 29  1  0  0  0  0
  3  4  1  0  0  0  0
  3 30  1  0  0  0  0
  4  5  2  0  0  0  0
  4  6  1  0  0  0  0
  6  7  1  0  0  0  0
  6 31  1  0  0  0  0
  6 32  1  0  0  0  0
  7  8  1  0  0  0  0
  7 33  1  0  0  0  0
  7 34  1  0  0  0  0
  8  9  1  0  0  0  0
  8 35  1  0  0  0  0
  9 10  2  0  0  0  0
 11 12  1  0  0  0  0
 11 25  1  6  0  0  0
 11  9  1  0  0  0  0
 12 36  1  0  0  0  0
 13 15  1  0  0  0  0
 13 14  1  0  0  0  0
 13 16  1  0  0  0  0
 13 11  1  0  0  0  0
 14 37  1  0  0  0  0
 14 38  1  0  0  0  0
 14 39  1  0  0  0  0
 15 40  1  0  0  0  0
 15 41  1  0  0  0  0
 15 42  1  0  0  0  0
 16 17  1  0  0  0  0
 16 43  1  0  0  0  0
 16 44  1  0  0  0  0
 17 18  1  0  0  0  0
 18 19  2  0  0  0  0
 18 20  1  0  0  0  0
 20 22  1  0  0  0  0
 20 23  1  0  0  0  0
 20 21  1  0  0  0  0
 21 45  1  0  0  0  0
 21 46  1  0  0  0  0
 21 47  1  0  0  0  0
 22 48  1  0  0  0  0
 22 49  1  0  0  0  0
 22 50  1  0  0  0  0
 23 51  1  0  0  0  0
 23 52  1  0  0  0  0
 23 53  1  0  0  0  0
 24 54  1  0  0  0  0
M  END
>  <DRUGBANK_ID>
DB08408

>  <COMMON_NAME>
(3R)-3-hydroxy-2,2-dimethyl-4-oxo-4-({3-oxo-3-[(2-sulfanylethyl)amino]propyl}amino)butyl 2,2-dimethylpropanoate

$$$$
