PF2
 OpenBabel10282417173D

 50 53  0  0  0  0  0  0  0  0999 V2000
   10.2209    4.7539   -1.3312 F   0  0  0  0  0  0  0  0  0  0  0  0
    9.7130    3.5942   -0.8708 C   0  0  0  0  0  0  0  0  0  0  0  0
   10.7209    2.6904   -0.8621 F   0  0  0  0  0  0  0  0  0  0  0  0
    8.5869    3.0929   -1.7570 C   0  0  0  0  0  0  0  0  0  0  0  0
    7.5702    2.4581   -0.8070 C   0  0  0  0  0  0  0  0  0  0  0  0
    9.0795    3.7205    0.5089 C   0  0  0  0  0  0  0  0  0  0  0  0
    8.0989    2.6171    0.5273 N   0  0  0  0  0  0  0  0  0  0  0  0
    7.4799    2.1982    1.7001 C   0  0  0  0  0  0  0  0  0  0  0  0
    7.5606    2.9124    2.6917 O   0  0  0  0  0  0  0  0  0  0  0  0
    6.6969    0.8163    1.7688 C   0  0  1  0  0  0  0  0  0  0  0  0
    7.0842   -0.2685    0.8290 N   0  0  0  0  0  0  0  0  0  0  0  0
    7.7379   -1.3635    1.5735 C   0  0  0  0  0  0  0  0  0  0  0  0
    6.7694    0.1032    3.1322 C   0  0  0  0  0  0  0  0  0  0  0  0
    7.9168   -0.9337    3.0355 C   0  0  2  0  0  0  0  0  0  0  0  0
    9.2508   -0.4948    3.5186 N   0  0  0  0  0  0  0  0  0  0  0  0
    9.8368    0.6882    2.8793 C   0  0  0  0  0  0  0  0  0  0  0  0
   10.3527    0.4863    1.4523 C   0  0  0  0  0  0  0  0  0  0  0  0
   11.2575   -0.6348    1.3868 N   0  0  0  0  0  0  0  0  0  0  0  0
   10.9696   -1.8481    2.1401 C   0  0  0  0  0  0  0  0  0  0  0  0
   10.3177   -1.5237    3.5156 C   0  0  0  0  0  0  0  0  0  0  0  0
   12.5104   -0.4045    0.9025 C   0  0  0  0  0  0  0  0  0  0  0  0
   12.9577   -1.2374   -0.0464 N   0  0  0  0  0  0  0  0  0  0  0  0
   14.1536   -0.9564   -0.5887 C   0  0  0  0  0  0  0  0  0  0  0  0
   14.9475    0.0839   -0.1787 C   0  0  0  0  0  0  0  0  0  0  0  0
   14.4159    0.8684    0.8125 C   0  0  0  0  0  0  0  0  0  0  0  0
   13.1973    0.6637    1.3435 N   0  0  0  0  0  0  0  0  0  0  0  0
    5.6623    1.0973    1.5494 H   0  0  0  0  0  0  0  0  0  0  0  0
    7.6399   -1.7772    3.6868 H   0  0  0  0  0  0  0  0  0  0  0  0
    8.1291    3.9124   -2.3182 H   0  0  0  0  0  0  0  0  0  0  0  0
    8.9518    2.3488   -2.4727 H   0  0  0  0  0  0  0  0  0  0  0  0
    6.6170    2.9963   -0.8482 H   0  0  0  0  0  0  0  0  0  0  0  0
    7.3775    1.4216   -1.0605 H   0  0  0  0  0  0  0  0  0  0  0  0
    9.8067    3.6344    1.3226 H   0  0  0  0  0  0  0  0  0  0  0  0
    8.5571    4.6801    0.6042 H   0  0  0  0  0  0  0  0  0  0  0  0
    7.7358    0.0561    0.1266 H   0  0  0  0  0  0  0  0  0  0  0  0
    7.1243   -2.2726    1.5242 H   0  0  0  0  0  0  0  0  0  0  0  0
    8.6535   -1.6342    1.0627 H   0  0  0  0  0  0  0  0  0  0  0  0
    6.8455    0.7547    4.0053 H   0  0  0  0  0  0  0  0  0  0  0  0
    5.8317   -0.4678    3.2503 H   0  0  0  0  0  0  0  0  0  0  0  0
    9.1276    1.4820    2.9423 H   0  0  0  0  0  0  0  0  0  0  0  0
   10.6573    1.0793    3.4923 H   0  0  0  0  0  0  0  0  0  0  0  0
    9.5519    0.2684    0.7525 H   0  0  0  0  0  0  0  0  0  0  0  0
   10.7759    1.4183    1.0713 H   0  0  0  0  0  0  0  0  0  0  0  0
   10.2983   -2.4846    1.5600 H   0  0  0  0  0  0  0  0  0  0  0  0
   11.8687   -2.4524    2.3008 H   0  0  0  0  0  0  0  0  0  0  0  0
   11.1198   -1.1321    4.1612 H   0  0  0  0  0  0  0  0  0  0  0  0
    9.9733   -2.4363    4.0122 H   0  0  0  0  0  0  0  0  0  0  0  0
   14.4599   -1.6232   -1.3874 H   0  0  0  0  0  0  0  0  0  0  0  0
   15.9223    0.2675   -0.6046 H   0  0  0  0  0  0  0  0  0  0  0  0
   14.9681    1.7078    1.2242 H   0  0  0  0  0  0  0  0  0  0  0  0
  2  1  1  0  0  0  0
  2  3  1  0  0  0  0
  4  2  1  0  0  0  0
  4 29  1  0  0  0  0
  4 30  1  0  0  0  0
  5  4  1  0  0  0  0
  5  7  1  0  0  0  0
  5 31  1  0  0  0  0
  5 32  1  0  0  0  0
  6  2  1  0  0  0  0
  6 33  1  0  0  0  0
  6 34  1  0  0  0  0
  7  6  1  0  0  0  0
  8  7  1  0  0  0  0
  9  8  2  0  0  0  0
 10 27  1  6  0  0  0
 10  8  1  0  0  0  0
 11 10  1  0  0  0  0
 11 35  1  0  0  0  0
 12 11  1  0  0  0  0
 12 36  1  0  0  0  0
 12 37  1  0  0  0  0
 13 10  1  0  0  0  0
 13 38  1  0  0  0  0
 13 39  1  0  0  0  0
 14 12  1  0  0  0  0
 14 13  1  0  0  0  0
 14 28  1  1  0  0  0
 14 15  1  0  0  0  0
 16 15  1  0  0  0  0
 16 40  1  0  0  0  0
 16 41  1  0  0  0  0
 17 16  1  0  0  0  0
 17 42  1  0  0  0  0
 17 43  1  0  0  0  0
 18 17  1  0  0  0  0
 18 19  1  0  0  0  0
 19 20  1  0  0  0  0
 19 44  1  0  0  0  0
 19 45  1  0  0  0  0
 20 15  1  0  0  0  0
 20 46  1  0  0  0  0
 20 47  1  0  0  0  0
 21 18  1  0  0  0  0
 22 21  2  0  0  0  0
 23 22  1  0  0  0  0
 23 48  1  0  0  0  0
 24 23  2  0  0  0  0
 24 25  1  0  0  0  0
 24 49  1  0  0  0  0
 25 26  2  0  0  0  0
 25 50  1  0  0  0  0
 26 21  1  0  0  0  0
M  END
>  <DRUGBANK_ID>
DB08382

>  <SECONDARY_ACCESSION_NUMBERS>
DB12502

>  <COMMON_NAME>
Gosogliptin

>  <CAS_NUMBER>
869490-23-3

>  <UNII>
GI718UO477

>  <SYNONYMS>
2-(4-{(3S,5S)-5-[(3,3-difluoropyrrolidin-1-yl)carbonyl]pyrrolidin-3-yl}piperazin-1-yl)pyrimidine; Gosogliptin

$$$$
