TG(22:1(13Z)/22:1(13Z)/22:1(13Z))
 OpenBabel10282417193D

203202  0  0  0  0  0  0  0  0999 V2000
    0.7856    0.1516   -0.3316 C   0  0  0  0  0  0  0  0  0  0  0  0
    0.3169   -1.3532   -0.5300 C   0  0  1  0  0  0  0  0  0  0  0  0
    0.9108   -2.5480    0.3718 C   0  0  0  0  0  0  0  0  0  0  0  0
    0.4368    0.7240    0.9333 O   0  0  0  0  0  0  0  0  0  0  0  0
    0.4865   -2.5863    1.8329 O   0  0  0  0  0  0  0  0  0  0  0  0
   -1.1378   -1.5131   -0.5846 O   0  0  0  0  0  0  0  0  0  0  0  0
    0.6453   -1.5534   -1.5663 H   0  0  0  0  0  0  0  0  0  0  0  0
    1.2816    0.1986    1.8551 C   0  0  0  0  0  0  0  0  0  0  0  0
    2.2261   -0.4748    1.4619 O   0  0  0  0  0  0  0  0  0  0  0  0
    0.9278    0.3394    3.3364 C   0  0  0  0  0  0  0  0  0  0  0  0
    1.0777    1.4897    4.2066 C   0  0  0  0  0  0  0  0  0  0  0  0
    0.2928    2.4300    3.3602 C   0  0  0  0  0  0  0  0  0  0  0  0
   -1.2468    2.1337    3.3933 C   0  0  0  0  0  0  0  0  0  0  0  0
   -1.7567    2.1412    4.8377 C   0  0  0  0  0  0  0  0  0  0  0  0
   -1.2683    3.4532    5.4375 C   0  0  0  0  0  0  0  0  0  0  0  0
   -1.7703    4.5949    4.5458 C   0  0  0  0  0  0  0  0  0  0  0  0
   -3.2990    4.5580    4.5177 C   0  0  0  0  0  0  0  0  0  0  0  0
   -3.8252    4.7251    5.9442 C   0  0  0  0  0  0  0  0  0  0  0  0
   -3.3330    6.0503    6.5111 C   0  0  0  0  0  0  0  0  0  0  0  0
   -3.7782    7.1813    5.6041 C   0  0  0  0  0  0  0  0  0  0  0  0
   -5.2718    7.2489    5.5999 C   0  0  0  0  0  0  0  0  0  0  0  0
   -5.9358    8.2897    6.0918 C   0  0  0  0  0  0  0  0  0  0  0  0
   -5.2429    9.5248    6.5720 C   0  0  0  0  0  0  0  0  0  0  0  0
   -5.6249   10.6933    5.6834 C   0  0  0  0  0  0  0  0  0  0  0  0
   -7.1177   10.9688    5.8133 C   0  0  0  0  0  0  0  0  0  0  0  0
   -7.4735   11.2423    7.2789 C   0  0  0  0  0  0  0  0  0  0  0  0
   -6.7040   12.4641    7.7934 C   0  0  0  0  0  0  0  0  0  0  0  0
   -7.0701   13.7059    6.9750 C   0  0  0  0  0  0  0  0  0  0  0  0
   -8.5709   13.9850    7.0538 C   0  0  0  0  0  0  0  0  0  0  0  0
   -8.9812   14.2268    8.4967 C   0  0  0  0  0  0  0  0  0  0  0  0
   -1.7788   -1.1320    0.5542 C   0  0  0  0  0  0  0  0  0  0  0  0
   -1.2185   -0.7256    1.4927 O   0  0  0  0  0  0  0  0  0  0  0  0
   -3.2778   -1.1549    0.5775 C   0  0  0  0  0  0  0  0  0  0  0  0
   -3.7491    0.0268   -0.2361 C   0  0  0  0  0  0  0  0  0  0  0  0
   -3.2810   -0.1556   -1.6757 C   0  0  0  0  0  0  0  0  0  0  0  0
   -3.7671   -1.5159   -2.1952 C   0  0  0  0  0  0  0  0  0  0  0  0
   -5.2949   -1.5277   -2.1740 C   0  0  0  0  0  0  0  0  0  0  0  0
   -5.8054   -0.3825   -3.0492 C   0  0  0  0  0  0  0  0  0  0  0  0
   -5.2865   -0.5718   -4.4759 C   0  0  0  0  0  0  0  0  0  0  0  0
   -5.7869   -1.9134   -5.0166 C   0  0  0  0  0  0  0  0  0  0  0  0
   -7.3191   -1.9330   -5.0094 C   0  0  0  0  0  0  0  0  0  0  0  0
   -7.8504   -0.8067   -5.8868 C   0  0  0  0  0  0  0  0  0  0  0  0
   -7.2949   -0.9541   -7.2903 C   0  0  0  0  0  0  0  0  0  0  0  0
   -7.7987   -2.2279   -7.8898 C   0  0  0  0  0  0  0  0  0  0  0  0
   -8.6087   -2.2450   -8.9435 C   0  0  0  0  0  0  0  0  0  0  0  0
   -8.9799   -1.0015   -9.6867 C   0  0  0  0  0  0  0  0  0  0  0  0
   -8.4219   -1.0717  -11.0956 C   0  0  0  0  0  0  0  0  0  0  0  0
   -9.0751   -2.2240  -11.8485 C   0  0  0  0  0  0  0  0  0  0  0  0
  -10.5975   -2.0454  -11.8594 C   0  0  0  0  0  0  0  0  0  0  0  0
  -10.9734   -0.7318  -12.5541 C   0  0  0  0  0  0  0  0  0  0  0  0
  -10.4846   -0.7395  -14.0056 C   0  0  0  0  0  0  0  0  0  0  0  0
  -11.0932   -1.9103  -14.7772 C   0  0  0  0  0  0  0  0  0  0  0  0
  -12.6084   -1.7983  -14.7848 C   0  0  0  0  0  0  0  0  0  0  0  0
    1.1146   -2.2065    3.0058 C   0  0  0  0  0  0  0  0  0  0  0  0
    2.3318   -2.0811    3.1643 O   0  0  0  0  0  0  0  0  0  0  0  0
    0.0874   -1.7789    4.2459 C   0  0  0  0  0  0  0  0  0  0  0  0
   -1.4238   -1.4089    3.9540 C   0  0  0  0  0  0  0  0  0  0  0  0
   -1.9747   -2.6242    3.2997 C   0  0  0  0  0  0  0  0  0  0  0  0
   -1.4356   -3.7298    4.1666 C   0  0  0  0  0  0  0  0  0  0  0  0
   -1.8273   -3.3486    5.6202 C   0  0  0  0  0  0  0  0  0  0  0  0
   -3.3462   -3.2247    5.6105 C   0  0  0  0  0  0  0  0  0  0  0  0
   -3.8633   -4.5349    5.0260 C   0  0  0  0  0  0  0  0  0  0  0  0
   -3.3001   -5.6745    5.8804 C   0  0  0  0  0  0  0  0  0  0  0  0
   -3.7721   -5.4783    7.3218 C   0  0  0  0  0  0  0  0  0  0  0  0
   -5.2937   -5.4751    7.3458 C   0  0  0  0  0  0  0  0  0  0  0  0
   -5.8037   -6.7657    6.7349 C   0  0  0  0  0  0  0  0  0  0  0  0
   -5.3619   -7.9159    7.5812 C   0  0  0  0  0  0  0  0  0  0  0  0
   -6.2242   -8.6807    8.2423 C   0  0  0  0  0  0  0  0  0  0  0  0
   -7.7041   -8.5295    8.0913 C   0  0  0  0  0  0  0  0  0  0  0  0
   -8.2752   -9.7832    7.4567 C   0  0  0  0  0  0  0  0  0  0  0  0
   -8.0644  -10.9702    8.3883 C   0  0  0  0  0  0  0  0  0  0  0  0
   -8.7115  -10.6884    9.7490 C   0  0  0  0  0  0  0  0  0  0  0  0
  -10.2179  -10.4580    9.5834 C   0  0  0  0  0  0  0  0  0  0  0  0
  -10.8834  -11.7024    8.9882 C   0  0  0  0  0  0  0  0  0  0  0  0
  -10.6548  -12.9207    9.8826 C   0  0  0  0  0  0  0  0  0  0  0  0
  -11.2479  -12.6751   11.2597 C   0  0  0  0  0  0  0  0  0  0  0  0
    0.4188    0.8455   -1.0954 H   0  0  0  0  0  0  0  0  0  0  0  0
    1.8770    0.2218   -0.4573 H   0  0  0  0  0  0  0  0  0  0  0  0
    0.4782   -3.4712   -0.0657 H   0  0  0  0  0  0  0  0  0  0  0  0
    1.9931   -2.6419    0.2457 H   0  0  0  0  0  0  0  0  0  0  0  0
   -0.1207    0.1546    3.4474 H   0  0  0  0  0  0  0  0  0  0  0  0
    1.5511   -0.2940    3.9535 H   0  0  0  0  0  0  0  0  0  0  0  0
    0.6444    1.2857    5.2102 H   0  0  0  0  0  0  0  0  0  0  0  0
    2.1557    1.5543    4.3483 H   0  0  0  0  0  0  0  0  0  0  0  0
    0.5954    3.4166    3.6603 H   0  0  0  0  0  0  0  0  0  0  0  0
    0.6265    2.3537    2.3319 H   0  0  0  0  0  0  0  0  0  0  0  0
   -1.7323    2.8592    2.7405 H   0  0  0  0  0  0  0  0  0  0  0  0
   -1.6036    1.2314    2.9010 H   0  0  0  0  0  0  0  0  0  0  0  0
   -2.8475    2.0333    4.8641 H   0  0  0  0  0  0  0  0  0  0  0  0
   -1.4135    1.2949    5.4426 H   0  0  0  0  0  0  0  0  0  0  0  0
   -1.5785    3.5414    6.4777 H   0  0  0  0  0  0  0  0  0  0  0  0
   -0.1786    3.4870    5.5068 H   0  0  0  0  0  0  0  0  0  0  0  0
   -1.3564    5.5417    4.8909 H   0  0  0  0  0  0  0  0  0  0  0  0
   -1.3919    4.5489    3.5202 H   0  0  0  0  0  0  0  0  0  0  0  0
   -3.6688    5.3208    3.8295 H   0  0  0  0  0  0  0  0  0  0  0  0
   -3.6993    3.6363    4.0867 H   0  0  0  0  0  0  0  0  0  0  0  0
   -4.9145    4.6640    5.9452 H   0  0  0  0  0  0  0  0  0  0  0  0
   -3.5144    3.9102    6.6026 H   0  0  0  0  0  0  0  0  0  0  0  0
   -3.6933    6.1887    7.5354 H   0  0  0  0  0  0  0  0  0  0  0  0
   -2.2402    6.0824    6.5941 H   0  0  0  0  0  0  0  0  0  0  0  0
   -3.2694    8.0675    5.9646 H   0  0  0  0  0  0  0  0  0  0  0  0
   -3.4249    7.1082    4.5739 H   0  0  0  0  0  0  0  0  0  0  0  0
   -5.8481    6.4048    5.2227 H   0  0  0  0  0  0  0  0  0  0  0  0
   -7.0240    8.2440    6.1022 H   0  0  0  0  0  0  0  0  0  0  0  0
   -5.4653    9.6662    7.6308 H   0  0  0  0  0  0  0  0  0  0  0  0
   -4.1595    9.4863    6.5609 H   0  0  0  0  0  0  0  0  0  0  0  0
   -5.0242   11.5622    5.9750 H   0  0  0  0  0  0  0  0  0  0  0  0
   -5.3562   10.5034    4.6379 H   0  0  0  0  0  0  0  0  0  0  0  0
   -7.3916   11.8006    5.1602 H   0  0  0  0  0  0  0  0  0  0  0  0
   -7.7086   10.1280    5.4404 H   0  0  0  0  0  0  0  0  0  0  0  0
   -8.5545   11.3637    7.3742 H   0  0  0  0  0  0  0  0  0  0  0  0
   -7.2662   10.3827    7.9232 H   0  0  0  0  0  0  0  0  0  0  0  0
   -6.9100   12.6083    8.8568 H   0  0  0  0  0  0  0  0  0  0  0  0
   -5.6207   12.3074    7.7631 H   0  0  0  0  0  0  0  0  0  0  0  0
   -6.5005   14.5672    7.3349 H   0  0  0  0  0  0  0  0  0  0  0  0
   -6.7750   13.5843    5.9258 H   0  0  0  0  0  0  0  0  0  0  0  0
   -8.8198   14.8495    6.4338 H   0  0  0  0  0  0  0  0  0  0  0  0
   -9.1529   13.1528    6.6404 H   0  0  0  0  0  0  0  0  0  0  0  0
   -8.4260   15.0791    8.8989 H   0  0  0  0  0  0  0  0  0  0  0  0
  -10.0512   14.4189    8.5676 H   0  0  0  0  0  0  0  0  0  0  0  0
   -8.7762   13.3611    9.1350 H   0  0  0  0  0  0  0  0  0  0  0  0
   -3.6646   -2.1404    0.3143 H   0  0  0  0  0  0  0  0  0  0  0  0
   -3.6044   -0.9991    1.6116 H   0  0  0  0  0  0  0  0  0  0  0  0
   -4.8390    0.1030   -0.1587 H   0  0  0  0  0  0  0  0  0  0  0  0
   -3.3608    0.9659    0.1730 H   0  0  0  0  0  0  0  0  0  0  0  0
   -3.6087    0.6863   -2.2841 H   0  0  0  0  0  0  0  0  0  0  0  0
   -2.1985   -0.0766   -1.7697 H   0  0  0  0  0  0  0  0  0  0  0  0
   -3.3496   -1.7016   -3.1869 H   0  0  0  0  0  0  0  0  0  0  0  0
   -3.3927   -2.3692   -1.6218 H   0  0  0  0  0  0  0  0  0  0  0  0
   -5.6628   -2.5043   -2.4982 H   0  0  0  0  0  0  0  0  0  0  0  0
   -5.7004   -1.4323   -1.1631 H   0  0  0  0  0  0  0  0  0  0  0  0
   -6.8947   -0.3364   -3.0002 H   0  0  0  0  0  0  0  0  0  0  0  0
   -5.5045    0.5983   -2.6734 H   0  0  0  0  0  0  0  0  0  0  0  0
   -5.5935    0.2743   -5.0956 H   0  0  0  0  0  0  0  0  0  0  0  0
   -4.1948   -0.5355   -4.5346 H   0  0  0  0  0  0  0  0  0  0  0  0
   -5.3666   -2.0872   -6.0099 H   0  0  0  0  0  0  0  0  0  0  0  0
   -5.4092   -2.7633   -4.4436 H   0  0  0  0  0  0  0  0  0  0  0  0
   -7.6773   -2.9072   -5.3482 H   0  0  0  0  0  0  0  0  0  0  0  0
   -7.7328   -1.8345   -4.0029 H   0  0  0  0  0  0  0  0  0  0  0  0
   -8.9459   -0.8022   -5.8877 H   0  0  0  0  0  0  0  0  0  0  0  0
   -7.5665    0.1800   -5.5028 H   0  0  0  0  0  0  0  0  0  0  0  0
   -7.5732   -0.0478   -7.8155 H   0  0  0  0  0  0  0  0  0  0  0  0
   -6.2055   -0.9401   -7.3531 H   0  0  0  0  0  0  0  0  0  0  0  0
   -7.5338   -3.1804   -7.4320 H   0  0  0  0  0  0  0  0  0  0  0  0
   -8.9755   -3.2098   -9.2919 H   0  0  0  0  0  0  0  0  0  0  0  0
  -10.0612   -0.8659   -9.6318 H   0  0  0  0  0  0  0  0  0  0  0  0
   -8.6037   -0.0764   -9.2650 H   0  0  0  0  0  0  0  0  0  0  0  0
   -8.6021   -0.1099  -11.5888 H   0  0  0  0  0  0  0  0  0  0  0  0
   -7.3317   -1.1839  -11.0873 H   0  0  0  0  0  0  0  0  0  0  0  0
   -8.6592   -2.2809  -12.8571 H   0  0  0  0  0  0  0  0  0  0  0  0
   -8.8192   -3.1863  -11.3971 H   0  0  0  0  0  0  0  0  0  0  0  0
  -11.0619   -2.9124  -12.3340 H   0  0  0  0  0  0  0  0  0  0  0  0
  -11.0238   -2.0605  -10.8520 H   0  0  0  0  0  0  0  0  0  0  0  0
  -12.0538   -0.5795  -12.4944 H   0  0  0  0  0  0  0  0  0  0  0  0
  -10.5645    0.1388  -12.0308 H   0  0  0  0  0  0  0  0  0  0  0  0
  -10.7380    0.2096  -14.4862 H   0  0  0  0  0  0  0  0  0  0  0  0
   -9.3906   -0.8010  -14.0500 H   0  0  0  0  0  0  0  0  0  0  0  0
  -10.7039   -1.9232  -15.7980 H   0  0  0  0  0  0  0  0  0  0  0  0
  -10.7975   -2.8716  -14.3405 H   0  0  0  0  0  0  0  0  0  0  0  0
  -12.9051   -0.8549  -15.2520 H   0  0  0  0  0  0  0  0  0  0  0  0
  -13.0552   -2.6322  -15.3251 H   0  0  0  0  0  0  0  0  0  0  0  0
  -13.0293   -1.8194  -13.7742 H   0  0  0  0  0  0  0  0  0  0  0  0
    0.3750   -2.5562    4.9563 H   0  0  0  0  0  0  0  0  0  0  0  0
    0.3164   -1.0181    5.0146 H   0  0  0  0  0  0  0  0  0  0  0  0
   -1.8919   -1.0344    4.8827 H   0  0  0  0  0  0  0  0  0  0  0  0
   -1.7894   -0.5652    3.3767 H   0  0  0  0  0  0  0  0  0  0  0  0
   -3.0564   -2.5253    3.1827 H   0  0  0  0  0  0  0  0  0  0  0  0
   -1.6162   -2.7782    2.2937 H   0  0  0  0  0  0  0  0  0  0  0  0
   -1.7503   -4.6789    3.7632 H   0  0  0  0  0  0  0  0  0  0  0  0
   -0.3617   -3.8894    4.0604 H   0  0  0  0  0  0  0  0  0  0  0  0
   -1.3856   -4.0626    6.3080 H   0  0  0  0  0  0  0  0  0  0  0  0
   -1.4221   -2.4148    6.0410 H   0  0  0  0  0  0  0  0  0  0  0  0
   -3.7066   -2.9912    6.6105 H   0  0  0  0  0  0  0  0  0  0  0  0
   -3.7216   -2.3775    5.0237 H   0  0  0  0  0  0  0  0  0  0  0  0
   -4.9466   -4.5092    4.9558 H   0  0  0  0  0  0  0  0  0  0  0  0
   -3.5836   -4.6891    3.9792 H   0  0  0  0  0  0  0  0  0  0  0  0
   -3.5879   -6.6307    5.4458 H   0  0  0  0  0  0  0  0  0  0  0  0
   -2.2077   -5.7405    5.8651 H   0  0  0  0  0  0  0  0  0  0  0  0
   -3.3532   -6.2598    7.9558 H   0  0  0  0  0  0  0  0  0  0  0  0
   -3.3999   -4.5520    7.7686 H   0  0  0  0  0  0  0  0  0  0  0  0
   -5.6620   -5.3351    8.3662 H   0  0  0  0  0  0  0  0  0  0  0  0
   -5.7143   -4.6343    6.7812 H   0  0  0  0  0  0  0  0  0  0  0  0
   -6.8747   -6.6407    6.6320 H   0  0  0  0  0  0  0  0  0  0  0  0
   -5.4874   -6.9430    5.7052 H   0  0  0  0  0  0  0  0  0  0  0  0
   -4.2983   -8.1184    7.7037 H   0  0  0  0  0  0  0  0  0  0  0  0
   -5.8250   -9.4672    8.8813 H   0  0  0  0  0  0  0  0  0  0  0  0
   -8.1341   -8.2731    9.0607 H   0  0  0  0  0  0  0  0  0  0  0  0
   -8.0277   -7.7066    7.4641 H   0  0  0  0  0  0  0  0  0  0  0  0
   -9.3375   -9.6138    7.2480 H   0  0  0  0  0  0  0  0  0  0  0  0
   -7.8230   -9.9755    6.4769 H   0  0  0  0  0  0  0  0  0  0  0  0
   -8.4629  -11.8737    7.9211 H   0  0  0  0  0  0  0  0  0  0  0  0
   -7.0005  -11.1832    8.5223 H   0  0  0  0  0  0  0  0  0  0  0  0
   -8.4912  -11.5102   10.4335 H   0  0  0  0  0  0  0  0  0  0  0  0
   -8.2633   -9.8255   10.2504 H   0  0  0  0  0  0  0  0  0  0  0  0
  -10.6575  -10.1887   10.5468 H   0  0  0  0  0  0  0  0  0  0  0  0
  -10.4315   -9.5877    8.9541 H   0  0  0  0  0  0  0  0  0  0  0  0
  -11.9534  -11.5210    8.8536 H   0  0  0  0  0  0  0  0  0  0  0  0
  -10.4983  -11.9093    7.9824 H   0  0  0  0  0  0  0  0  0  0  0  0
  -11.1021  -13.8058    9.4241 H   0  0  0  0  0  0  0  0  0  0  0  0
   -9.5867  -13.1500    9.9776 H   0  0  0  0  0  0  0  0  0  0  0  0
  -12.3204  -12.4806   11.1688 H   0  0  0  0  0  0  0  0  0  0  0  0
  -11.0842  -13.5336   11.9102 H   0  0  0  0  0  0  0  0  0  0  0  0
  -10.7916  -11.8138   11.7585 H   0  0  0  0  0  0  0  0  0  0  0  0
  1 77  1  0  0  0  0
  1 78  1  0  0  0  0
  2  1  1  0  0  0  0
  2  6  1  0  0  0  0
  2  7  1  6  0  0  0
  3  2  1  0  0  0  0
  3 79  1  0  0  0  0
  3 80  1  0  0  0  0
  4  1  1  0  0  0  0
  4  8  1  0  0  0  0
  5  3  1  0  0  0  0
  8  9  2  0  0  0  0
  8 10  1  0  0  0  0
 10 11  1  0  0  0  0
 10 81  1  0  0  0  0
 10 82  1  0  0  0  0
 11 12  1  0  0  0  0
 11 83  1  0  0  0  0
 11 84  1  0  0  0  0
 12 13  1  0  0  0  0
 12 85  1  0  0  0  0
 12 86  1  0  0  0  0
 13 14  1  0  0  0  0
 13 87  1  0  0  0  0
 13 88  1  0  0  0  0
 14 15  1  0  0  0  0
 14 89  1  0  0  0  0
 14 90  1  0  0  0  0
 15 16  1  0  0  0  0
 15 91  1  0  0  0  0
 15 92  1  0  0  0  0
 16 17  1  0  0  0  0
 16 93  1  0  0  0  0
 16 94  1  0  0  0  0
 17 18  1  0  0  0  0
 17 95  1  0  0  0  0
 17 96  1  0  0  0  0
 18 19  1  0  0  0  0
 18 97  1  0  0  0  0
 18 98  1  0  0  0  0
 19 20  1  0  0  0  0
 19 99  1  0  0  0  0
 19100  1  0  0  0  0
 20 21  1  0  0  0  0
 20101  1  0  0  0  0
 20102  1  0  0  0  0
 21 22  2  0  0  0  0
 21103  1  0  0  0  0
 22 23  1  0  0  0  0
 22104  1  0  0  0  0
 23 24  1  0  0  0  0
 23105  1  0  0  0  0
 23106  1  0  0  0  0
 24 25  1  0  0  0  0
 24107  1  0  0  0  0
 24108  1  0  0  0  0
 25 26  1  0  0  0  0
 25109  1  0  0  0  0
 25110  1  0  0  0  0
 26 27  1  0  0  0  0
 26111  1  0  0  0  0
 26112  1  0  0  0  0
 27 28  1  0  0  0  0
 27113  1  0  0  0  0
 27114  1  0  0  0  0
 28 29  1  0  0  0  0
 28115  1  0  0  0  0
 28116  1  0  0  0  0
 29 30  1  0  0  0  0
 29117  1  0  0  0  0
 29118  1  0  0  0  0
 30119  1  0  0  0  0
 30120  1  0  0  0  0
 30121  1  0  0  0  0
 31  6  1  0  0  0  0
 31 32  2  0  0  0  0
 31 33  1  0  0  0  0
 33 34  1  0  0  0  0
 33122  1  0  0  0  0
 33123  1  0  0  0  0
 34 35  1  0  0  0  0
 34124  1  0  0  0  0
 34125  1  0  0  0  0
 35 36  1  0  0  0  0
 35126  1  0  0  0  0
 35127  1  0  0  0  0
 36 37  1  0  0  0  0
 36128  1  0  0  0  0
 36129  1  0  0  0  0
 37 38  1  0  0  0  0
 37130  1  0  0  0  0
 37131  1  0  0  0  0
 38 39  1  0  0  0  0
 38132  1  0  0  0  0
 38133  1  0  0  0  0
 39 40  1  0  0  0  0
 39134  1  0  0  0  0
 39135  1  0  0  0  0
 40 41  1  0  0  0  0
 40136  1  0  0  0  0
 40137  1  0  0  0  0
 41 42  1  0  0  0  0
 41138  1  0  0  0  0
 41139  1  0  0  0  0
 42 43  1  0  0  0  0
 42140  1  0  0  0  0
 42141  1  0  0  0  0
 43 44  1  0  0  0  0
 43142  1  0  0  0  0
 43143  1  0  0  0  0
 44 45  2  0  0  0  0
 44144  1  0  0  0  0
 45 46  1  0  0  0  0
 45145  1  0  0  0  0
 46 47  1  0  0  0  0
 46146  1  0  0  0  0
 46147  1  0  0  0  0
 47 48  1  0  0  0  0
 47148  1  0  0  0  0
 47149  1  0  0  0  0
 48 49  1  0  0  0  0
 48150  1  0  0  0  0
 48151  1  0  0  0  0
 49 50  1  0  0  0  0
 49152  1  0  0  0  0
 49153  1  0  0  0  0
 50 51  1  0  0  0  0
 50154  1  0  0  0  0
 50155  1  0  0  0  0
 51 52  1  0  0  0  0
 51156  1  0  0  0  0
 51157  1  0  0  0  0
 52 53  1  0  0  0  0
 52158  1  0  0  0  0
 52159  1  0  0  0  0
 53160  1  0  0  0  0
 53161  1  0  0  0  0
 53162  1  0  0  0  0
 54  5  1  0  0  0  0
 54 55  2  0  0  0  0
 54 56  1  0  0  0  0
 56 57  1  0  0  0  0
 56163  1  0  0  0  0
 56164  1  0  0  0  0
 57 58  1  0  0  0  0
 57165  1  0  0  0  0
 57166  1  0  0  0  0
 58 59  1  0  0  0  0
 58167  1  0  0  0  0
 58168  1  0  0  0  0
 59 60  1  0  0  0  0
 59169  1  0  0  0  0
 59170  1  0  0  0  0
 60 61  1  0  0  0  0
 60171  1  0  0  0  0
 60172  1  0  0  0  0
 61 62  1  0  0  0  0
 61173  1  0  0  0  0
 61174  1  0  0  0  0
 62 63  1  0  0  0  0
 62175  1  0  0  0  0
 62176  1  0  0  0  0
 63 64  1  0  0  0  0
 63177  1  0  0  0  0
 63178  1  0  0  0  0
 64 65  1  0  0  0  0
 64179  1  0  0  0  0
 64180  1  0  0  0  0
 65 66  1  0  0  0  0
 65181  1  0  0  0  0
 65182  1  0  0  0  0
 66 67  1  0  0  0  0
 66183  1  0  0  0  0
 66184  1  0  0  0  0
 67 68  2  0  0  0  0
 67185  1  0  0  0  0
 68 69  1  0  0  0  0
 68186  1  0  0  0  0
 69 70  1  0  0  0  0
 69187  1  0  0  0  0
 69188  1  0  0  0  0
 70 71  1  0  0  0  0
 70189  1  0  0  0  0
 70190  1  0  0  0  0
 71 72  1  0  0  0  0
 71191  1  0  0  0  0
 71192  1  0  0  0  0
 72 73  1  0  0  0  0
 72193  1  0  0  0  0
 72194  1  0  0  0  0
 73 74  1  0  0  0  0
 73195  1  0  0  0  0
 73196  1  0  0  0  0
 74 75  1  0  0  0  0
 74197  1  0  0  0  0
 74198  1  0  0  0  0
 75 76  1  0  0  0  0
 75199  1  0  0  0  0
 75200  1  0  0  0  0
 76201  1  0  0  0  0
 76202  1  0  0  0  0
 76203  1  0  0  0  0
M  END
>  <DRUGBANK_ID>
DB12528

>  <COMMON_NAME>
Glyceryl Trierucate

>  <CAS_NUMBER>
2752-99-0

>  <UNII>
I0IDQ0M20R

$$$$
