
 OpenBabel10282417203D

 50 53  0  0  0  0  0  0  0  0999 V2000
    1.5890   -0.1611    0.0751 C   0  0  0  0  0  0  0  0  0  0  0  0
    0.7965   -1.2902    0.0712 C   0  0  0  0  0  0  0  0  0  0  0  0
    1.0052    1.1083    0.0608 C   0  0  0  0  0  0  0  0  0  0  0  0
   -0.5650   -1.1384   -0.0610 C   0  0  0  0  0  0  0  0  0  0  0  0
   -0.3813    1.2514    0.0130 C   0  0  0  0  0  0  0  0  0  0  0  0
   -3.9144   -3.5834   -0.2287 C   0  0  0  0  0  0  0  0  0  0  0  0
   -5.1408   -2.6989   -2.0938 C   0  0  0  0  0  0  0  0  0  0  0  0
   -5.4717   -0.6695    1.2628 C   0  0  0  0  0  0  0  0  0  0  0  0
   -3.2943   -2.3485   -0.0657 C   0  0  0  0  0  0  0  0  0  0  0  0
   -4.4349   -1.4968   -1.9865 C   0  0  0  0  0  0  0  0  0  0  0  0
   -6.1098   -1.8746    0.9968 C   0  0  0  0  0  0  0  0  0  0  0  0
   -4.3760   -4.9336    2.7770 C   0  0  0  0  0  0  0  0  0  0  0  0
   -5.4761   -4.1115    2.8756 C   0  0  0  0  0  0  0  0  0  0  0  0
   -7.3862    0.4168    0.4126 C   0  0  0  0  0  0  0  0  0  0  0  0
   -7.7671   -4.2983    1.7412 C   0  0  0  0  0  0  0  0  0  0  0  0
   -6.0413   -4.7387   -0.9262 C   0  0  0  0  0  0  0  0  0  0  0  0
   -6.0507   -6.0958    2.1581 C   0  0  0  0  0  0  0  0  0  0  0  0
   -4.9564   -3.7086   -1.1496 C   0  0  0  0  0  0  0  0  0  0  0  0
   -6.0743    0.4769    0.8905 C   0  0  0  0  0  0  0  0  0  0  0  0
   -1.1703    0.1148   -0.1556 C   0  0  0  0  0  0  0  0  0  0  0  0
   -3.4964   -1.3035   -0.9745 C   0  0  0  0  0  0  0  0  0  0  0  0
   -7.3888   -2.0308    0.4846 C   0  0  0  0  0  0  0  0  0  0  0  0
   -8.0419   -0.8356    0.2364 C   0  0  0  0  0  0  0  0  0  0  0  0
   -7.8414   -3.4943    0.3648 C   0  0  3  0  0  0  0  0  0  0  0  0
   -5.2431    1.9750    1.0122 Cl  0  0  0  0  0  0  0  0  0  0  0  0
   -9.7011   -0.7702   -0.2202 Cl  0  0  0  0  0  0  0  0  0  0  0  0
   -4.7518   -6.1759    2.3560 N   0  0  0  0  0  0  0  0  0  0  0  0
   -6.4917   -4.7997    2.2543 N   0  0  0  0  0  0  0  0  0  0  0  0
   -7.3686   -4.1865   -0.8223 O   0  0  0  0  0  0  0  0  0  0  0  0
   -2.8217    0.3317   -0.7578 S   0  0  0  0  0  0  0  0  0  0  0  0
    2.6645   -0.2817    0.0580 H   0  0  0  0  0  0  0  0  0  0  0  0
    1.2005   -2.2970    0.0678 H   0  0  0  0  0  0  0  0  0  0  0  0
    1.6359    1.9903    0.0199 H   0  0  0  0  0  0  0  0  0  0  0  0
   -1.0929   -2.0655   -0.1887 H   0  0  0  0  0  0  0  0  0  0  0  0
   -0.8216    2.2479    0.0097 H   0  0  0  0  0  0  0  0  0  0  0  0
   -3.7721   -4.3233    0.5466 H   0  0  0  0  0  0  0  0  0  0  0  0
   -5.9436   -2.7855   -2.8182 H   0  0  0  0  0  0  0  0  0  0  0  0
   -4.4541   -0.7032    1.6610 H   0  0  0  0  0  0  0  0  0  0  0  0
   -2.7912   -2.1661    0.8893 H   0  0  0  0  0  0  0  0  0  0  0  0
   -4.7380   -0.6569   -2.6052 H   0  0  0  0  0  0  0  0  0  0  0  0
   -5.5548   -2.7652    1.1138 H   0  0  0  0  0  0  0  0  0  0  0  0
   -3.3322   -4.6596    2.8956 H   0  0  0  0  0  0  0  0  0  0  0  0
   -5.5310   -3.0625    3.1325 H   0  0  0  0  0  0  0  0  0  0  0  0
   -7.8867    1.3515    0.2277 H   0  0  0  0  0  0  0  0  0  0  0  0
   -8.1833   -3.6699    2.5393 H   0  0  0  0  0  0  0  0  0  0  0  0
   -8.4122   -5.1813    1.6523 H   0  0  0  0  0  0  0  0  0  0  0  0
   -6.0278   -5.4347   -1.7714 H   0  0  0  0  0  0  0  0  0  0  0  0
   -5.8259   -5.3600   -0.0690 H   0  0  0  0  0  0  0  0  0  0  0  0
   -6.6806   -6.9110    1.8304 H   0  0  0  0  0  0  0  0  0  0  0  0
   -8.9234   -3.4320    0.1719 H   0  0  0  0  0  0  0  0  0  0  0  0
  1 31  1  0  0  0  0
  2  1  2  0  0  0  0
  2 32  1  0  0  0  0
  3  1  1  0  0  0  0
  3 33  1  0  0  0  0
  4  2  1  0  0  0  0
  4 34  1  0  0  0  0
  5  3  2  0  0  0  0
  5 35  1  0  0  0  0
  6 36  1  0  0  0  0
  7 37  1  0  0  0  0
  8 38  1  0  0  0  0
  9  6  1  0  0  0  0
  9 39  1  0  0  0  0
 10  7  2  0  0  0  0
 10 40  1  0  0  0  0
 11  8  2  0  0  0  0
 11 41  1  0  0  0  0
 12 42  1  0  0  0  0
 13 12  2  0  0  0  0
 13 43  1  0  0  0  0
 14 44  1  0  0  0  0
 15 45  1  0  0  0  0
 15 46  1  0  0  0  0
 16 47  1  0  0  0  0
 16 48  1  0  0  0  0
 17 49  1  0  0  0  0
 18  6  2  0  0  0  0
 18  7  1  0  0  0  0
 18 16  1  0  0  0  0
 19  8  1  0  0  0  0
 19 14  2  0  0  0  0
 20  4  2  0  0  0  0
 20  5  1  0  0  0  0
 21  9  2  0  0  0  0
 21 10  1  0  0  0  0
 22 11  1  0  0  0  0
 23 14  1  0  0  0  0
 23 22  2  0  0  0  0
 24 15  1  0  0  0  0
 24 22  1  0  0  0  0
 24 50  1  0  0  0  0
 25 19  1  0  0  0  0
 26 23  1  0  0  0  0
 27 12  1  0  0  0  0
 27 17  2  0  0  0  0
 28 13  1  0  0  0  0
 28 15  1  0  0  0  0
 28 17  1  0  0  0  0
 29 16  1  0  0  0  0
 29 24  1  0  0  0  0
 30 20  1  0  0  0  0
 30 21  1  0  0  0  0
M  END
>  <DRUGBANK_ID>
DB13434

>  <COMMON_NAME>
Fenticonazole

>  <CAS_NUMBER>
72479-26-6

>  <UNII>
QG05NRB077

>  <SYNONYMS>
Fenticonazole

$$$$
