ET0
 OpenBabel10282417163D

 29 30  0  0  0  0  0  0  0  0999 V2000
   -1.5034    1.0699   -0.0666 N   0  0  0  0  0  0  0  0  0  0  0  0
   -0.1953    0.6659   -0.0161 C   0  0  0  0  0  0  0  0  0  0  0  0
   -4.2555   -2.0367    1.2349 C   0  0  0  0  0  0  0  0  0  0  0  0
    1.0464   -1.3968    0.0347 C   0  0  0  0  0  0  0  0  0  0  0  0
   -2.0918   -2.5532   -0.0137 C   0  0  0  0  0  0  0  0  0  0  0  0
    0.9687    1.4304    0.0109 C   0  0  0  0  0  0  0  0  0  0  0  0
    2.2323   -0.6519   -0.0010 C   0  0  0  0  0  0  0  0  0  0  0  0
   -5.3551   -2.4557    0.8995 O   0  0  0  0  0  0  0  0  0  0  0  0
   -4.1136   -0.7598    1.6334 O   0  0  0  0  0  0  0  0  0  0  0  0
   -2.9686   -2.8191    1.2131 C   0  0  0  0  0  0  0  0  0  0  0  0
   -1.5570   -1.1557   -0.0810 C   0  0  0  0  0  0  0  0  0  0  0  0
   -2.3004   -0.0111   -0.2985 C   0  0  0  0  0  0  0  0  0  0  0  0
   -0.1936   -0.7298   -0.0097 C   0  0  0  0  0  0  0  0  0  0  0  0
    2.1834    0.7432   -0.0137 C   0  0  0  0  0  0  0  0  0  0  0  0
    3.3798   -1.4012   -0.0401 O   0  0  0  0  0  0  0  0  0  0  0  0
    4.5973   -0.6680   -0.1013 C   0  0  0  0  0  0  0  0  0  0  0  0
   -1.8183    2.0289   -0.0269 H   0  0  0  0  0  0  0  0  0  0  0  0
    1.0864   -2.4819    0.0361 H   0  0  0  0  0  0  0  0  0  0  0  0
   -2.6416   -2.7709   -0.9371 H   0  0  0  0  0  0  0  0  0  0  0  0
   -1.2518   -3.2603    0.0158 H   0  0  0  0  0  0  0  0  0  0  0  0
    0.9389    2.5144    0.0024 H   0  0  0  0  0  0  0  0  0  0  0  0
   -4.9176   -0.2974    1.3200 H   0  0  0  0  0  0  0  0  0  0  0  0
   -3.2481   -3.8803    1.2185 H   0  0  0  0  0  0  0  0  0  0  0  0
   -2.4241   -2.6374    2.1461 H   0  0  0  0  0  0  0  0  0  0  0  0
   -3.3530    0.1261   -0.4950 H   0  0  0  0  0  0  0  0  0  0  0  0
    3.0852    1.3435   -0.0556 H   0  0  0  0  0  0  0  0  0  0  0  0
    4.6494   -0.0670   -1.0162 H   0  0  0  0  0  0  0  0  0  0  0  0
    4.7195   -0.0425    0.7895 H   0  0  0  0  0  0  0  0  0  0  0  0
    5.4247   -1.3818   -0.1241 H   0  0  0  0  0  0  0  0  0  0  0  0
  1 12  1  0  0  0  0
  1 17  1  0  0  0  0
  2  1  1  0  0  0  0
  2 13  1  0  0  0  0
  3  8  2  0  0  0  0
  3  9  1  0  0  0  0
  4 13  2  0  0  0  0
  4 18  1  0  0  0  0
  5 10  1  0  0  0  0
  5 19  1  0  0  0  0
  5 20  1  0  0  0  0
  6  2  2  0  0  0  0
  6 21  1  0  0  0  0
  7  4  1  0  0  0  0
  9 22  1  0  0  0  0
 10  3  1  0  0  0  0
 10 23  1  0  0  0  0
 10 24  1  0  0  0  0
 11  5  1  0  0  0  0
 11 12  2  0  0  0  0
 12 25  1  0  0  0  0
 13 11  1  0  0  0  0
 14  6  1  0  0  0  0
 14  7  2  0  0  0  0
 14 26  1  0  0  0  0
 15  7  1  0  0  0  0
 16 15  1  0  0  0  0
 16 27  1  0  0  0  0
 16 28  1  0  0  0  0
 16 29  1  0  0  0  0
M  END
>  <DRUGBANK_ID>
DB07723

>  <COMMON_NAME>
3-(5-methoxy-1H-indol-3-yl)propanoic acid

>  <UNII>
CS268A9K9W

$$$$
