EQI
 OpenBabel10282417123D

 40 43  0  0  0  0  0  0  0  0999 V2000
    4.2368   -3.7356   -2.0834 C   0  0  0  0  0  0  0  0  0  0  0  0
    5.1921   -3.2160   -1.0898 C   0  0  0  0  0  0  0  0  0  0  0  0
    4.8502   -2.2024   -0.1085 C   0  0  0  0  0  0  0  0  0  0  0  0
    3.4887   -2.2584    0.0751 C   0  0  0  0  0  0  0  0  0  0  0  0
    2.6946   -2.3942   -1.1183 C   0  0  0  0  0  0  0  0  0  0  0  0
    3.0549   -3.0989   -2.2271 C   0  0  0  0  0  0  0  0  0  0  0  0
    5.4323   -0.6450    0.3963 C   0  0  0  0  0  0  0  0  0  0  0  0
    4.6005    0.0350    1.5468 C   0  0  0  0  0  0  0  0  0  0  0  0
    3.2965   -0.2150    1.2881 C   0  0  0  0  0  0  0  0  0  0  0  0
    3.0665   -1.6956    1.4203 C   0  0  2  0  0  0  0  0  0  0  0  0
    2.5770    0.3194   -0.0500 C   0  0  1  0  0  0  0  0  0  0  0  0
    0.8669    0.0628   -0.1301 C   0  0  2  0  0  0  0  0  0  0  0  0
    0.9058   -0.6362    1.2090 C   0  0  0  0  0  0  0  0  0  0  0  0
    1.6235   -1.8276    1.8499 C   0  0  0  0  0  0  0  0  0  0  0  0
    2.9742    1.7562   -0.3385 C   0  0  0  0  0  0  0  0  0  0  0  0
    1.6978    2.4707   -0.6281 C   0  0  0  0  0  0  0  0  0  0  0  0
    0.5367    1.4635   -0.6231 C   0  0  0  0  0  0  0  0  0  0  0  0
   -0.5032   -0.9879   -0.1142 C   0  0  0  0  0  0  0  0  0  0  0  0
    4.2375   -4.8430   -2.8908 O   0  0  0  0  0  0  0  0  0  0  0  0
   -0.5364    1.7518   -1.1032 O   0  0  0  0  0  0  0  0  0  0  0  0
    3.6693   -2.1808    2.2037 H   0  0  0  0  0  0  0  0  0  0  0  0
    3.0501   -0.1470   -0.9198 H   0  0  0  0  0  0  0  0  0  0  0  0
    5.7738   -4.0613   -0.6884 H   0  0  0  0  0  0  0  0  0  0  0  0
    1.8465   -1.7641   -1.3537 H   0  0  0  0  0  0  0  0  0  0  0  0
    2.3647   -3.2355   -3.0576 H   0  0  0  0  0  0  0  0  0  0  0  0
    6.4724   -0.4996    0.7062 H   0  0  0  0  0  0  0  0  0  0  0  0
    5.2450    0.0886   -0.4124 H   0  0  0  0  0  0  0  0  0  0  0  0
    4.7887    1.0421    1.9244 H   0  0  0  0  0  0  0  0  0  0  0  0
    1.3444   -1.2601    0.4192 H   0  0  0  0  0  0  0  0  0  0  0  0
    1.0573    0.2303    1.8300 H   0  0  0  0  0  0  0  0  0  0  0  0
    1.2301   -2.8108    1.5292 H   0  0  0  0  0  0  0  0  0  0  0  0
    1.4667   -1.7518    2.9206 H   0  0  0  0  0  0  0  0  0  0  0  0
    3.5241    2.2403    0.4751 H   0  0  0  0  0  0  0  0  0  0  0  0
    3.6722    1.8062   -1.1974 H   0  0  0  0  0  0  0  0  0  0  0  0
    1.5431    3.2077    0.1578 H   0  0  0  0  0  0  0  0  0  0  0  0
    1.7961    2.9716   -1.5980 H   0  0  0  0  0  0  0  0  0  0  0  0
   -0.2603   -2.0449   -0.3562 H   0  0  0  0  0  0  0  0  0  0  0  0
   -0.9617   -1.1068    0.9268 H   0  0  0  0  0  0  0  0  0  0  0  0
   -1.3616   -0.6535   -0.6747 H   0  0  0  0  0  0  0  0  0  0  0  0
    4.7807   -5.6007   -2.6426 H   0  0  0  0  0  0  0  0  0  0  0  0
  1  2  2  0  0  0  0
  1  6  1  0  0  0  0
  1 19  1  0  0  0  0
  2  3  1  0  0  0  0
  2 23  1  0  0  0  0
  3  4  2  0  0  0  0
  3  7  1  0  0  0  0
  4  5  1  0  0  0  0
  4 10  1  0  0  0  0
  5  6  2  0  0  0  0
  5 24  1  0  0  0  0
  6 25  1  0  0  0  0
  7  8  1  0  0  0  0
  7 26  1  0  0  0  0
  7 27  1  0  0  0  0
  8  9  2  0  0  0  0
  8 28  1  0  0  0  0
  9 10  1  0  0  0  0
  9 11  1  0  0  0  0
 10 14  1  0  0  0  0
 10 21  1  6  0  0  0
 11 12  1  0  0  0  0
 11 15  1  0  0  0  0
 11 22  1  6  0  0  0
 12 13  1  0  0  0  0
 12 17  1  0  0  0  0
 12 18  1  1  0  0  0
 13 14  1  0  0  0  0
 13 29  1  0  0  0  0
 13 30  1  0  0  0  0
 14 31  1  0  0  0  0
 14 32  1  0  0  0  0
 15 16  1  0  0  0  0
 15 33  1  0  0  0  0
 15 34  1  0  0  0  0
 16 17  1  0  0  0  0
 16 35  1  0  0  0  0
 16 36  1  0  0  0  0
 17 20  2  0  0  0  0
 18 37  1  0  0  0  0
 18 38  1  0  0  0  0
 18 39  1  0  0  0  0
 19 40  1  0  0  0  0
M  END
>  <DRUGBANK_ID>
DB02187

>  <SECONDARY_ACCESSION_NUMBERS>
EXPT01355

>  <COMMON_NAME>
Equilin

>  <CAS_NUMBER>
474-86-2

>  <UNII>
08O86EX0J4

>  <SYNONYMS>
1,3,5,7-Estratetraen-3-ol-17-one; 7-Dehydroestrone; Dihydroequilenin; Equilin

$$$$
