
 OpenBabel10282417233D

 56 60  0  0  0  0  0  0  0  0999 V2000
    2.6054    0.2277    0.0371 C   0  0  0  0  0  0  0  0  0  0  0  0
    1.2033   -0.2648    0.0360 C   0  0  0  0  0  0  0  0  0  0  0  0
    0.8021   -1.4960    0.2221 N   0  0  0  0  0  0  0  0  0  0  0  0
   -0.5745   -1.5068   -0.0499 N   0  0  0  0  0  0  0  0  0  0  0  0
   -1.0568   -0.3192   -0.5623 C   0  0  0  0  0  0  0  0  0  0  0  0
   -2.0784   -0.0695   -1.1718 O   0  0  0  0  0  0  0  0  0  0  0  0
    0.0347    0.6437   -0.2101 C   0  0  0  0  0  0  0  0  0  0  0  0
    0.0344    1.9166    0.0892 N   0  0  0  0  0  0  0  0  0  0  0  0
   -1.1024    2.6945    0.0350 N   0  0  0  0  0  0  0  0  0  0  0  0
   -2.4344    2.2480    0.2282 C   0  0  0  0  0  0  0  0  0  0  0  0
   -2.7460    1.2316    1.1538 C   0  0  0  0  0  0  0  0  0  0  0  0
   -1.7761    0.8660    2.0704 O   0  0  0  0  0  0  0  0  0  0  0  0
   -3.9398    0.4771    1.0647 C   0  0  0  0  0  0  0  0  0  0  0  0
   -4.9012    0.8655    0.1296 C   0  0  0  0  0  0  0  0  0  0  0  0
   -4.6610    1.9559   -0.7178 C   0  0  0  0  0  0  0  0  0  0  0  0
   -3.4303    2.6311   -0.6840 C   0  0  0  0  0  0  0  0  0  0  0  0
   -4.1612   -0.6359    1.9792 C   0  0  0  0  0  0  0  0  0  0  0  0
   -3.9653   -0.6480    3.3389 C   0  0  0  0  0  0  0  0  0  0  0  0
   -4.3429   -1.9055    3.7944 C   0  0  0  0  0  0  0  0  0  0  0  0
   -4.7409   -2.6407    2.6974 C   0  0  0  0  0  0  0  0  0  0  0  0
   -4.6306   -1.8678    1.5505 O   0  0  0  0  0  0  0  0  0  0  0  0
   -5.2785   -3.9800    2.7650 C   0  0  0  0  0  0  0  0  0  0  0  0
   -5.6947   -4.4849    1.5841 O   0  0  0  0  0  0  0  0  0  0  0  0
   -5.3968   -4.6136    3.8080 O   0  0  0  0  0  0  0  0  0  0  0  0
   -1.3226   -2.7033   -0.0420 C   0  0  0  0  0  0  0  0  0  0  0  0
   -2.2860   -2.9181   -1.0366 C   0  0  0  0  0  0  0  0  0  0  0  0
   -3.0857   -4.0541   -1.0386 C   0  0  0  0  0  0  0  0  0  0  0  0
   -2.9668   -4.9996   -0.0208 C   0  0  0  0  0  0  0  0  0  0  0  0
   -3.8406   -6.2267   -0.0925 C   0  0  0  0  0  0  0  0  0  0  0  0
   -3.4979   -7.3021    0.9284 C   0  0  0  0  0  0  0  0  0  0  0  0
   -3.1569   -6.7008    2.2826 C   0  0  0  0  0  0  0  0  0  0  0  0
   -1.9795   -5.7259    2.1975 C   0  0  0  0  0  0  0  0  0  0  0  0
   -2.0723   -4.7595    1.0400 C   0  0  0  0  0  0  0  0  0  0  0  0
   -1.2256   -3.6257    1.0037 C   0  0  0  0  0  0  0  0  0  0  0  0
    2.7983    0.8358   -0.8534 H   0  0  0  0  0  0  0  0  0  0  0  0
    2.7934    0.8264    0.9301 H   0  0  0  0  0  0  0  0  0  0  0  0
    3.2913   -0.6245    0.0245 H   0  0  0  0  0  0  0  0  0  0  0  0
   -1.0048    3.6978   -0.1380 H   0  0  0  0  0  0  0  0  0  0  0  0
   -0.9947    1.4198    1.8707 H   0  0  0  0  0  0  0  0  0  0  0  0
   -5.8382    0.3202    0.0536 H   0  0  0  0  0  0  0  0  0  0  0  0
   -5.4116    2.2341   -1.4550 H   0  0  0  0  0  0  0  0  0  0  0  0
   -3.2251    3.3736   -1.4526 H   0  0  0  0  0  0  0  0  0  0  0  0
   -3.6159    0.1993    3.9069 H   0  0  0  0  0  0  0  0  0  0  0  0
   -4.3765   -2.2563    4.8137 H   0  0  0  0  0  0  0  0  0  0  0  0
   -5.3670   -3.9581    0.8308 H   0  0  0  0  0  0  0  0  0  0  0  0
   -2.4209   -2.2121   -1.8519 H   0  0  0  0  0  0  0  0  0  0  0  0
   -3.7973   -4.1940   -1.8486 H   0  0  0  0  0  0  0  0  0  0  0  0
   -3.7805   -6.6548   -1.0991 H   0  0  0  0  0  0  0  0  0  0  0  0
   -4.8871   -5.9406    0.0362 H   0  0  0  0  0  0  0  0  0  0  0  0
   -2.6551   -7.8989    0.5655 H   0  0  0  0  0  0  0  0  0  0  0  0
   -4.3560   -7.9780    1.0266 H   0  0  0  0  0  0  0  0  0  0  0  0
   -4.0398   -6.1888    2.6582 H   0  0  0  0  0  0  0  0  0  0  0  0
   -2.9466   -7.4897    3.0120 H   0  0  0  0  0  0  0  0  0  0  0  0
   -1.9182   -5.1666    3.1402 H   0  0  0  0  0  0  0  0  0  0  0  0
   -1.0505   -6.2946    2.0840 H   0  0  0  0  0  0  0  0  0  0  0  0
   -0.5506   -3.4219    1.8333 H   0  0  0  0  0  0  0  0  0  0  0  0
  1  2  1  0  0  0  0
  1 35  1  0  0  0  0
  1 36  1  0  0  0  0
  1 37  1  0  0  0  0
  2  3  2  0  0  0  0
  2  7  1  0  0  0  0
  3  4  1  0  0  0  0
  4  5  1  0  0  0  0
  4 25  1  0  0  0  0
  5  6  2  0  0  0  0
  5  7  1  0  0  0  0
  7  8  2  0  0  0  0
  8  9  1  0  0  0  0
  9 10  1  0  0  0  0
  9 38  1  0  0  0  0
 10 11  2  0  0  0  0
 10 16  1  0  0  0  0
 11 12  1  0  0  0  0
 11 13  1  0  0  0  0
 12 39  1  0  0  0  0
 13 14  2  0  0  0  0
 13 17  1  0  0  0  0
 14 15  1  0  0  0  0
 14 40  1  0  0  0  0
 15 16  2  0  0  0  0
 15 41  1  0  0  0  0
 16 42  1  0  0  0  0
 17 18  2  0  0  0  0
 17 21  1  0  0  0  0
 18 19  1  0  0  0  0
 18 43  1  0  0  0  0
 19 20  2  0  0  0  0
 19 44  1  0  0  0  0
 20 21  1  0  0  0  0
 20 22  1  0  0  0  0
 22 23  1  0  0  0  0
 22 24  2  0  0  0  0
 23 45  1  0  0  0  0
 25 26  2  0  0  0  0
 25 34  1  0  0  0  0
 26 27  1  0  0  0  0
 26 46  1  0  0  0  0
 27 28  2  0  0  0  0
 27 47  1  0  0  0  0
 28 29  1  0  0  0  0
 28 33  1  0  0  0  0
 29 30  1  0  0  0  0
 29 48  1  0  0  0  0
 29 49  1  0  0  0  0
 30 31  1  0  0  0  0
 30 50  1  0  0  0  0
 30 51  1  0  0  0  0
 31 32  1  0  0  0  0
 31 52  1  0  0  0  0
 31 53  1  0  0  0  0
 32 33  1  0  0  0  0
 32 54  1  0  0  0  0
 32 55  1  0  0  0  0
 33 34  2  0  0  0  0
 34 56  1  0  0  0  0
M  END
>  <DRUGBANK_ID>
DB16184

>  <COMMON_NAME>
Hetrombopag

>  <CAS_NUMBER>
1257792-41-8

>  <UNII>
9WGT51BDDL

$$$$
