
 OpenBabel10282417223D

 97 98  0  0  0  0  0  0  0  0999 V2000
    0.1490   -1.0955    0.1392 C   0  0  0  0  0  0  0  0  0  0  0  0
    1.3575   -0.4696    0.0247 C   0  0  0  0  0  0  0  0  0  0  0  0
    2.7231   -1.1271    0.0193 C   0  0  0  0  0  0  0  0  0  0  0  0
    1.5042    1.0388   -0.1346 C   0  0  0  0  0  0  0  0  0  0  0  0
    0.2387    1.8319    0.1374 C   0  0  0  0  0  0  0  0  0  0  0  0
   -0.9267    1.1506   -0.5449 C   0  0  0  0  0  0  0  0  0  0  0  0
   -1.1739   -0.2938   -0.0139 C   0  0  0  0  0  0  0  0  0  0  0  0
   -2.1318   -0.9008   -1.0756 C   0  0  0  0  0  0  0  0  0  0  0  0
   -1.8621   -0.1797    1.3667 C   0  0  0  0  0  0  0  0  0  0  0  0
  -13.2792  -22.0702    2.7518 C   0  0  0  0  0  0  0  0  0  0  0  0
  -11.8445  -22.6540    2.7785 C   0  0  0  0  0  0  0  0  0  0  0  0
  -11.3366  -22.7485    1.3253 C   0  0  0  0  0  0  0  0  0  0  0  0
  -11.9845  -24.0887    3.3600 C   0  0  0  0  0  0  0  0  0  0  0  0
  -10.6401  -24.6750    3.7607 C   0  0  2  0  0  0  0  0  0  0  0  0
  -10.8165  -26.0091    4.2356 O   0  0  0  0  0  0  0  0  0  0  0  0
  -10.0102  -23.8126    4.8510 C   0  0  0  0  0  0  0  0  0  0  0  0
  -10.0936  -22.3244    4.5998 C   0  0  0  0  0  0  0  0  0  0  0  0
   -9.2522  -21.5366    5.5763 C   0  0  0  0  0  0  0  0  0  0  0  0
  -10.8571  -21.7923    3.6134 C   0  0  0  0  0  0  0  0  0  0  0  0
  -10.8365  -20.3544    3.3285 C   0  0  0  0  0  0  0  0  0  0  0  0
   -9.7310  -19.6057    3.1431 C   0  0  0  0  0  0  0  0  0  0  0  0
   -9.6753  -18.1568    2.9412 C   0  0  0  0  0  0  0  0  0  0  0  0
  -10.9747  -17.3894    2.8243 C   0  0  0  0  0  0  0  0  0  0  0  0
   -8.4814  -17.5132    2.8691 C   0  0  0  0  0  0  0  0  0  0  0  0
   -8.3656  -16.0792    2.6438 C   0  0  0  0  0  0  0  0  0  0  0  0
   -7.2482  -15.3389    2.5303 C   0  0  0  0  0  0  0  0  0  0  0  0
   -7.2317  -13.8866    2.2790 C   0  0  0  0  0  0  0  0  0  0  0  0
   -8.5297  -13.1235    2.1297 C   0  0  0  0  0  0  0  0  0  0  0  0
   -6.0657  -13.2066    2.1728 C   0  0  0  0  0  0  0  0  0  0  0  0
   -5.9827  -11.7697    1.9240 C   0  0  0  0  0  0  0  0  0  0  0  0
   -4.8222  -11.1044    1.8219 C   0  0  0  0  0  0  0  0  0  0  0  0
   -4.7119   -9.6744    1.5746 C   0  0  0  0  0  0  0  0  0  0  0  0
   -3.5448   -8.9980    1.4692 C   0  0  0  0  0  0  0  0  0  0  0  0
   -2.1990   -9.6818    1.6051 C   0  0  0  0  0  0  0  0  0  0  0  0
   -3.5324   -7.5421    1.2169 C   0  0  0  0  0  0  0  0  0  0  0  0
   -2.3957   -6.8313    1.1079 C   0  0  0  0  0  0  0  0  0  0  0  0
   -2.2440   -5.4092    0.8854 C   0  0  0  0  0  0  0  0  0  0  0  0
   -1.0478   -4.7737    0.8078 C   0  0  0  0  0  0  0  0  0  0  0  0
    0.2939   -5.4541    0.9108 C   0  0  0  0  0  0  0  0  0  0  0  0
   -1.0128   -3.3219    0.6184 C   0  0  0  0  0  0  0  0  0  0  0  0
    0.0710   -2.5511    0.3944 C   0  0  0  0  0  0  0  0  0  0  0  0
    3.2203   -0.9231   -0.9363 H   0  0  0  0  0  0  0  0  0  0  0  0
    3.3453   -0.7204    0.8236 H   0  0  0  0  0  0  0  0  0  0  0  0
    2.7225   -2.2089    0.1387 H   0  0  0  0  0  0  0  0  0  0  0  0
    2.2842    1.4140    0.5405 H   0  0  0  0  0  0  0  0  0  0  0  0
    1.8471    1.2473   -1.1568 H   0  0  0  0  0  0  0  0  0  0  0  0
    0.3504    2.8538   -0.2439 H   0  0  0  0  0  0  0  0  0  0  0  0
    0.0668    1.9197    1.2155 H   0  0  0  0  0  0  0  0  0  0  0  0
   -0.7193    1.1229   -1.6247 H   0  0  0  0  0  0  0  0  0  0  0  0
   -1.8316    1.7594   -0.4252 H   0  0  0  0  0  0  0  0  0  0  0  0
   -2.4920   -1.9059   -0.8718 H   0  0  0  0  0  0  0  0  0  0  0  0
   -3.0352   -0.2896   -1.1745 H   0  0  0  0  0  0  0  0  0  0  0  0
   -1.6419   -0.9517   -2.0555 H   0  0  0  0  0  0  0  0  0  0  0  0
   -2.7960    0.3866    1.2961 H   0  0  0  0  0  0  0  0  0  0  0  0
   -2.1132   -1.1466    1.8073 H   0  0  0  0  0  0  0  0  0  0  0  0
   -1.2183    0.3248    2.0964 H   0  0  0  0  0  0  0  0  0  0  0  0
  -13.3217  -21.0835    2.2801 H   0  0  0  0  0  0  0  0  0  0  0  0
  -13.9550  -22.7169    2.1784 H   0  0  0  0  0  0  0  0  0  0  0  0
  -13.6900  -21.9790    3.7644 H   0  0  0  0  0  0  0  0  0  0  0  0
  -11.9938  -23.3842    0.7199 H   0  0  0  0  0  0  0  0  0  0  0  0
  -11.3057  -21.7639    0.8459 H   0  0  0  0  0  0  0  0  0  0  0  0
  -10.3282  -23.1716    1.2744 H   0  0  0  0  0  0  0  0  0  0  0  0
  -12.6374  -24.0794    4.2458 H   0  0  0  0  0  0  0  0  0  0  0  0
  -12.4865  -24.7577    2.6481 H   0  0  0  0  0  0  0  0  0  0  0  0
   -9.9734  -24.7344    2.8939 H   0  0  0  0  0  0  0  0  0  0  0  0
  -11.3981  -25.9763    5.0143 H   0  0  0  0  0  0  0  0  0  0  0  0
   -8.9593  -24.1112    4.9527 H   0  0  0  0  0  0  0  0  0  0  0  0
  -10.4809  -24.0311    5.8184 H   0  0  0  0  0  0  0  0  0  0  0  0
   -9.5727  -21.7570    6.5991 H   0  0  0  0  0  0  0  0  0  0  0  0
   -8.1986  -21.8097    5.4651 H   0  0  0  0  0  0  0  0  0  0  0  0
   -9.3269  -20.4535    5.4718 H   0  0  0  0  0  0  0  0  0  0  0  0
  -11.8205  -19.9056    3.2924 H   0  0  0  0  0  0  0  0  0  0  0  0
   -8.7633  -20.1062    3.1917 H   0  0  0  0  0  0  0  0  0  0  0  0
  -11.0337  -16.6239    3.6068 H   0  0  0  0  0  0  0  0  0  0  0  0
  -11.0372  -16.9124    1.8405 H   0  0  0  0  0  0  0  0  0  0  0  0
  -11.8798  -17.9855    2.9263 H   0  0  0  0  0  0  0  0  0  0  0  0
   -7.5476  -18.0629    2.9729 H   0  0  0  0  0  0  0  0  0  0  0  0
   -9.3192  -15.5822    2.5496 H   0  0  0  0  0  0  0  0  0  0  0  0
   -6.2819  -15.8331    2.6221 H   0  0  0  0  0  0  0  0  0  0  0  0
   -8.5950  -12.3479    2.9014 H   0  0  0  0  0  0  0  0  0  0  0  0
   -8.5731  -12.6537    1.1402 H   0  0  0  0  0  0  0  0  0  0  0  0
   -9.4400  -13.7104    2.2198 H   0  0  0  0  0  0  0  0  0  0  0  0
   -5.1186  -13.7357    2.2745 H   0  0  0  0  0  0  0  0  0  0  0  0
   -6.9035  -11.2073    1.8157 H   0  0  0  0  0  0  0  0  0  0  0  0
   -3.9180  -11.6867    1.9333 H   0  0  0  0  0  0  0  0  0  0  0  0
   -5.6508   -9.1308    1.4702 H   0  0  0  0  0  0  0  0  0  0  0  0
   -1.6186   -9.5705    0.6832 H   0  0  0  0  0  0  0  0  0  0  0  0
   -1.6405   -9.2638    2.4494 H   0  0  0  0  0  0  0  0  0  0  0  0
   -2.2475  -10.7535    1.7908 H   0  0  0  0  0  0  0  0  0  0  0  0
   -4.4901   -7.0340    1.1230 H   0  0  0  0  0  0  0  0  0  0  0  0
   -1.4679   -7.3719    1.2093 H   0  0  0  0  0  0  0  0  0  0  0  0
   -3.1695   -4.8422    0.7815 H   0  0  0  0  0  0  0  0  0  0  0  0
    0.8575   -5.3261   -0.0194 H   0  0  0  0  0  0  0  0  0  0  0  0
    0.8631   -5.0325    1.7456 H   0  0  0  0  0  0  0  0  0  0  0  0
    0.2475   -6.5269    1.0890 H   0  0  0  0  0  0  0  0  0  0  0  0
   -1.9954   -2.8773    0.6782 H   0  0  0  0  0  0  0  0  0  0  0  0
    1.0239   -3.0631    0.4118 H   0  0  0  0  0  0  0  0  0  0  0  0
  1  2  2  0  0  0  0
  2  3  1  0  0  0  0
  2  4  1  0  0  0  0
  3 42  1  0  0  0  0
  3 43  1  0  0  0  0
  3 44  1  0  0  0  0
  4  5  1  0  0  0  0
  4 45  1  0  0  0  0
  4 46  1  0  0  0  0
  5  6  1  0  0  0  0
  5 47  1  0  0  0  0
  5 48  1  0  0  0  0
  6  7  1  0  0  0  0
  6 49  1  0  0  0  0
  6 50  1  0  0  0  0
  7  1  1  0  0  0  0
  7  8  1  0  0  0  0
  7  9  1  0  0  0  0
  8 51  1  0  0  0  0
  8 52  1  0  0  0  0
  8 53  1  0  0  0  0
  9 54  1  0  0  0  0
  9 55  1  0  0  0  0
  9 56  1  0  0  0  0
 10 11  1  0  0  0  0
 10 57  1  0  0  0  0
 10 58  1  0  0  0  0
 10 59  1  0  0  0  0
 11 12  1  0  0  0  0
 11 13  1  0  0  0  0
 12 60  1  0  0  0  0
 12 61  1  0  0  0  0
 12 62  1  0  0  0  0
 13 14  1  0  0  0  0
 13 63  1  0  0  0  0
 13 64  1  0  0  0  0
 14 15  1  0  0  0  0
 14 16  1  0  0  0  0
 14 65  1  6  0  0  0
 15 66  1  0  0  0  0
 16 17  1  0  0  0  0
 16 67  1  0  0  0  0
 16 68  1  0  0  0  0
 17 18  1  0  0  0  0
 17 19  2  0  0  0  0
 18 69  1  0  0  0  0
 18 70  1  0  0  0  0
 18 71  1  0  0  0  0
 19 11  1  0  0  0  0
 19 20  1  0  0  0  0
 20 21  2  0  0  0  0
 20 72  1  0  0  0  0
 21 22  1  0  0  0  0
 21 73  1  0  0  0  0
 22 23  1  0  0  0  0
 22 24  2  0  0  0  0
 23 74  1  0  0  0  0
 23 75  1  0  0  0  0
 23 76  1  0  0  0  0
 24 25  1  0  0  0  0
 24 77  1  0  0  0  0
 25 26  2  0  0  0  0
 25 78  1  0  0  0  0
 26 27  1  0  0  0  0
 26 79  1  0  0  0  0
 27 28  1  0  0  0  0
 27 29  2  0  0  0  0
 28 80  1  0  0  0  0
 28 81  1  0  0  0  0
 28 82  1  0  0  0  0
 29 30  1  0  0  0  0
 29 83  1  0  0  0  0
 30 31  2  0  0  0  0
 30 84  1  0  0  0  0
 31 32  1  0  0  0  0
 31 85  1  0  0  0  0
 32 33  2  0  0  0  0
 32 86  1  0  0  0  0
 33 34  1  0  0  0  0
 33 35  1  0  0  0  0
 34 87  1  0  0  0  0
 34 88  1  0  0  0  0
 34 89  1  0  0  0  0
 35 36  2  0  0  0  0
 35 90  1  0  0  0  0
 36 37  1  0  0  0  0
 36 91  1  0  0  0  0
 37 38  2  0  0  0  0
 37 92  1  0  0  0  0
 38 39  1  0  0  0  0
 38 40  1  0  0  0  0
 39 93  1  0  0  0  0
 39 94  1  0  0  0  0
 39 95  1  0  0  0  0
 40 41  2  0  0  0  0
 40 96  1  0  0  0  0
 41  1  1  0  0  0  0
 41 97  1  0  0  0  0
M  END
>  <DRUGBANK_ID>
DB15914

>  <COMMON_NAME>
Cryptoxanthin

>  <CAS_NUMBER>
472-70-8

>  <UNII>
6ZIB13GI33

>  <SYNONYMS>
beta-Cryptoxanthin; Cryptoxanthine; Cryptoxanthol; Kryptoxanthin; Neocryptoxanthin

$$$$
