PGX
 OpenBabel10282417133D

 58 59  0  0  0  0  0  0  0  0999 V2000
   -9.2272   -7.6797    8.0586 C   0  0  0  0  0  0  0  0  0  0  0  0
   -9.9617   -6.3761    8.2671 C   0  0  0  0  0  0  0  0  0  0  0  0
   -9.0036   -5.1999    8.4117 C   0  0  0  0  0  0  0  0  0  0  0  0
   -8.0822   -5.0439    7.2101 C   0  0  0  0  0  0  0  0  0  0  0  0
   -8.8693   -4.7160    5.9719 C   0  0  0  0  0  0  0  0  0  0  0  0
   -8.7380   -3.5783    5.2817 C   0  0  0  0  0  0  0  0  0  0  0  0
   -7.7298   -2.5316    5.6328 C   0  0  0  0  0  0  0  0  0  0  0  0
   -6.6546   -2.3613    4.5899 C   0  0  1  0  0  0  0  0  0  0  0  0
   -5.3430   -1.8137    5.1647 C   0  0  2  0  0  0  0  0  0  0  0  0
   -4.4066   -1.9255    4.0022 C   0  0  0  0  0  0  0  0  0  0  0  0
   -4.6685   -3.4235    3.8808 C   0  0  2  0  0  0  0  0  0  0  0  0
   -6.2354   -3.6490    3.8419 C   0  0  2  0  0  0  0  0  0  0  0  0
   -7.0116   -3.8368    2.5117 C   0  0  0  0  0  0  0  0  0  0  0  0
   -7.8249   -2.9040    1.9296 C   0  0  0  0  0  0  0  0  0  0  0  0
   -8.0292   -2.6020    0.4223 C   0  0  2  0  0  0  0  0  0  0  0  0
   -7.0118   -1.6268   -0.3223 C   0  0  0  0  0  0  0  0  0  0  0  0
   -5.7807   -1.2269    0.4910 C   0  0  0  0  0  0  0  0  0  0  0  0
   -5.0158   -2.4790    0.8431 C   0  0  0  0  0  0  0  0  0  0  0  0
   -4.5526   -3.4919   -0.1530 C   0  0  0  0  0  0  0  0  0  0  0  0
   -3.3737   -2.8481   -0.7853 C   0  0  0  0  0  0  0  0  0  0  0  0
   -8.4956   -7.9222    7.0877 O   0  0  0  0  0  0  0  0  0  0  0  0
   -9.4269   -8.6018    9.0111 O   0  0  0  0  0  0  0  0  0  0  0  0
   -4.7825   -2.7527    6.0873 O   0  0  0  0  0  0  0  0  0  0  0  0
   -4.2537   -3.8316    5.2142 O   0  0  0  0  0  0  0  0  0  0  0  0
   -9.3495   -2.0389    0.2587 O   0  0  0  0  0  0  0  0  0  0  0  0
   -9.3116   -0.7043    0.8716 O   0  0  0  0  0  0  0  0  0  0  0  0
   -6.9927   -1.5918    3.8934 H   0  0  0  0  0  0  0  0  0  0  0  0
   -5.4394   -0.8127    5.5890 H   0  0  0  0  0  0  0  0  0  0  0  0
   -4.0613   -3.9630    3.1485 H   0  0  0  0  0  0  0  0  0  0  0  0
   -6.4071   -4.5742    4.4066 H   0  0  0  0  0  0  0  0  0  0  0  0
   -8.0278   -3.5515   -0.1261 H   0  0  0  0  0  0  0  0  0  0  0  0
  -10.6428   -6.2302    7.4212 H   0  0  0  0  0  0  0  0  0  0  0  0
  -10.5984   -6.4257    9.1556 H   0  0  0  0  0  0  0  0  0  0  0  0
   -9.5750   -4.2694    8.5499 H   0  0  0  0  0  0  0  0  0  0  0  0
   -8.3881   -5.3189    9.3107 H   0  0  0  0  0  0  0  0  0  0  0  0
   -7.3507   -4.2883    7.4886 H   0  0  0  0  0  0  0  0  0  0  0  0
   -7.4595   -5.9195    7.0230 H   0  0  0  0  0  0  0  0  0  0  0  0
   -9.5728   -5.4616    5.6019 H   0  0  0  0  0  0  0  0  0  0  0  0
   -9.3345   -3.4400    4.3808 H   0  0  0  0  0  0  0  0  0  0  0  0
   -8.2455   -1.5826    5.7845 H   0  0  0  0  0  0  0  0  0  0  0  0
   -7.2316   -2.7218    6.5784 H   0  0  0  0  0  0  0  0  0  0  0  0
   -4.7165   -1.2794    3.1828 H   0  0  0  0  0  0  0  0  0  0  0  0
   -3.3715   -1.6909    4.2793 H   0  0  0  0  0  0  0  0  0  0  0  0
   -6.5952   -4.6462    1.8997 H   0  0  0  0  0  0  0  0  0  0  0  0
   -8.2295   -2.0988    2.5284 H   0  0  0  0  0  0  0  0  0  0  0  0
   -6.6619   -2.1286   -1.2344 H   0  0  0  0  0  0  0  0  0  0  0  0
   -7.4958   -0.7183   -0.7016 H   0  0  0  0  0  0  0  0  0  0  0  0
   -5.1291   -0.5078   -0.0139 H   0  0  0  0  0  0  0  0  0  0  0  0
   -6.1318   -0.7248    1.4058 H   0  0  0  0  0  0  0  0  0  0  0  0
   -4.2822   -2.3443    1.6220 H   0  0  0  0  0  0  0  0  0  0  0  0
   -5.7560   -3.0794    1.2349 H   0  0  0  0  0  0  0  0  0  0  0  0
   -4.2896   -4.4149    0.3903 H   0  0  0  0  0  0  0  0  0  0  0  0
   -5.3471   -3.7802   -0.8492 H   0  0  0  0  0  0  0  0  0  0  0  0
   -2.6317   -2.6458   -0.0041 H   0  0  0  0  0  0  0  0  0  0  0  0
   -2.9599   -3.4931   -1.5500 H   0  0  0  0  0  0  0  0  0  0  0  0
   -3.6857   -1.8932   -1.2162 H   0  0  0  0  0  0  0  0  0  0  0  0
  -10.0539   -8.3352    9.7078 H   0  0  0  0  0  0  0  0  0  0  0  0
  -10.2545   -0.5034    0.7480 H   0  0  0  0  0  0  0  0  0  0  0  0
  1  2  1  0  0  0  0
  1 21  2  0  0  0  0
  1 22  1  0  0  0  0
  2  3  1  0  0  0  0
  2 32  1  0  0  0  0
  2 33  1  0  0  0  0
  3  4  1  0  0  0  0
  3 34  1  0  0  0  0
  3 35  1  0  0  0  0
  4  5  1  0  0  0  0
  4 36  1  0  0  0  0
  4 37  1  0  0  0  0
  5  6  2  0  0  0  0
  5 38  1  0  0  0  0
  6  7  1  0  0  0  0
  6 39  1  0  0  0  0
  7 40  1  0  0  0  0
  7 41  1  0  0  0  0
  8  7  1  0  0  0  0
  8  9  1  0  0  0  0
  8 12  1  0  0  0  0
  8 27  1  6  0  0  0
  9 10  1  0  0  0  0
  9 23  1  0  0  0  0
  9 28  1  1  0  0  0
 10 11  1  0  0  0  0
 10 42  1  0  0  0  0
 10 43  1  0  0  0  0
 11 12  1  0  0  0  0
 11 24  1  0  0  0  0
 11 29  1  6  0  0  0
 12 30  1  1  0  0  0
 12 13  1  0  0  0  0
 13 14  2  0  0  0  0
 13 44  1  0  0  0  0
 14 45  1  0  0  0  0
 15 25  1  0  0  0  0
 15 31  1  6  0  0  0
 15 16  1  0  0  0  0
 15 14  1  0  0  0  0
 16 17  1  0  0  0  0
 16 46  1  0  0  0  0
 16 47  1  0  0  0  0
 17 18  1  0  0  0  0
 17 48  1  0  0  0  0
 17 49  1  0  0  0  0
 18 19  1  0  0  0  0
 18 50  1  0  0  0  0
 18 51  1  0  0  0  0
 19 20  1  0  0  0  0
 19 52  1  0  0  0  0
 19 53  1  0  0  0  0
 20 54  1  0  0  0  0
 20 55  1  0  0  0  0
 20 56  1  0  0  0  0
 22 57  1  0  0  0  0
 23 24  1  0  0  0  0
 25 26  1  0  0  0  0
 26 58  1  0  0  0  0
M  END
>  <DRUGBANK_ID>
DB03866

>  <SECONDARY_ACCESSION_NUMBERS>
EXPT02577

>  <COMMON_NAME>
Prostaglandin G2

>  <UNII>
AZ87DUD2Y8

$$$$
