
 OpenBabel10282417153D

229242  0  0  0  0  0  0  0  0999 V2000
  -16.3552   10.8715    2.4634 C   0  0  0  0  0  0  0  0  0  0  0  0
  -16.7778   10.7766    3.9667 C   0  0  0  0  0  0  0  0  0  0  0  0
  -15.6000   10.4011    4.2424 C   0  0  0  0  0  0  0  0  0  0  0  0
  -14.5132   11.1926    3.9050 C   0  0  0  0  0  0  0  0  0  0  0  0
  -14.7548   11.5610    2.3633 C   0  0  0  0  0  0  0  0  0  0  0  0
  -14.9626    9.9887    1.0721 C   0  0  0  0  0  0  0  0  0  0  0  0
  -10.5211    3.6958   -2.6792 C   0  0  0  0  0  0  0  0  0  0  0  0
  -10.7297    4.5005   -3.8091 C   0  0  0  0  0  0  0  0  0  0  0  0
  -11.9380    5.9100   -2.9100 C   0  0  0  0  0  0  0  0  0  0  0  0
  -13.2438    6.8568   -1.6225 C   0  0  0  0  0  0  0  0  0  0  0  0
  -13.2235    5.0230   -1.9755 C   0  0  0  0  0  0  0  0  0  0  0  0
  -11.8768    4.1113   -1.4922 C   0  0  0  0  0  0  0  0  0  0  0  0
   -5.9633  -10.2974   -1.7108 C   0  0  1  0  0  0  0  0  0  0  0  0
   -6.1299  -10.3586   -3.2226 C   0  0  2  0  0  0  0  0  0  0  0  0
   -6.0204  -11.7815   -3.7499 C   0  0  1  0  0  0  0  0  0  0  0  0
   -6.6635  -12.7807   -2.8535 C   0  0  2  0  0  0  0  0  0  0  0  0
   -6.6819  -12.6369   -1.4502 O   0  0  0  0  0  0  0  0  0  0  0  0
   -6.9403  -11.2722   -1.0418 C   0  0  3  0  0  0  0  0  0  0  0  0
   -9.9022   -8.3838   -1.2528 C   0  0  0  0  0  0  0  0  0  0  0  0
   -8.0203   -7.4589   -2.5270 C   0  0  0  0  0  0  0  0  0  0  0  0
   -8.0862   -6.2863   -1.8405 C   0  0  0  0  0  0  0  0  0  0  0  0
   -8.8662   -6.3411   -0.7478 C   0  0  0  0  0  0  0  0  0  0  0  0
   -9.7792   -7.3214   -0.3891 C   0  0  0  0  0  0  0  0  0  0  0  0
   -9.1752  -10.6753   -5.2889 C   0  0  0  0  0  0  0  0  0  0  0  0
   -9.0075  -12.0103   -4.7754 C   0  0  0  0  0  0  0  0  0  0  0  0
   -9.0880  -12.0308   -3.3866 C   0  0  0  0  0  0  0  0  0  0  0  0
   -8.7987  -10.8572   -2.5586 C   0  0  0  0  0  0  0  0  0  0  0  0
   -9.0085   -9.6215   -3.0590 C   0  0  0  0  0  0  0  0  0  0  0  0
   -9.3062   -9.3739   -4.3186 C   0  0  0  0  0  0  0  0  0  0  0  0
  -12.1256   -4.5408   -0.3058 O   0  0  0  0  0  0  0  0  0  0  0  0
  -10.9174   -5.0315   -0.7024 C   0  0  0  0  0  0  0  0  0  0  0  0
  -11.3083   -4.3258    1.4043 C   0  0  1  0  0  0  0  0  0  0  0  0
  -11.8182   -5.4408    1.9455 N   0  0  0  0  0  0  0  0  0  0  0  0
  -10.7362   -6.0486    2.0423 C   0  0  0  0  0  0  0  0  0  0  0  0
  -10.4675   -7.0461    0.8945 C   0  0  2  0  0  0  0  0  0  0  0  0
   -9.5745   -5.4098    1.4980 N   0  0  0  0  0  0  0  0  0  0  0  0
   -9.3262   -3.3194    1.4653 C   0  0  0  0  0  0  0  0  0  0  0  0
   -9.6403   -0.9184    1.4041 C   0  0  2  0  0  0  0  0  0  0  0  0
  -10.1638    1.1218    0.7438 N   0  0  0  0  0  0  0  0  0  0  0  0
  -11.1808    2.7601    0.2728 C   0  0  0  0  0  0  0  0  0  0  0  0
  -11.9989    4.8653    0.4646 C   0  0  1  0  0  0  0  0  0  0  0  0
  -13.1096    6.4260    1.7479 N   0  0  0  0  0  0  0  0  0  0  0  0
  -13.7115    7.7940    3.3239 C   0  0  0  0  0  0  0  0  0  0  0  0
  -13.4796    9.1610    5.2041 C   0  0  2  0  0  0  0  0  0  0  0  0
  -12.6636   10.6888    6.0145 N   0  0  0  0  0  0  0  0  0  0  0  0
  -12.1466   -3.9020    3.3396 C   0  0  2  0  0  0  0  0  0  0  0  0
  -10.1467   -5.9714    3.2163 O   0  0  0  0  0  0  0  0  0  0  0  0
   -8.5538   -4.6654    1.2934 O   0  0  0  0  0  0  0  0  0  0  0  0
   -9.5033    0.9233    2.5127 C   0  0  0  0  0  0  0  0  0  0  0  0
  -12.1342    1.9447    0.1380 O   0  0  0  0  0  0  0  0  0  0  0  0
  -14.9897    8.0165    4.1764 O   0  0  0  0  0  0  0  0  0  0  0  0
  -14.0829    3.7380    0.8853 C   0  0  0  0  0  0  0  0  0  0  0  0
  -14.0028    4.1763    2.2432 C   0  0  0  0  0  0  0  0  0  0  0  0
  -13.1701    3.3866    3.1475 C   0  0  0  0  0  0  0  0  0  0  0  0
  -11.8239    3.4752    2.6606 C   0  0  0  0  0  0  0  0  0  0  0  0
  -11.1604    4.7631    2.5134 C   0  0  0  0  0  0  0  0  0  0  0  0
  -11.2054    5.3550    3.7288 C   0  0  0  0  0  0  0  0  0  0  0  0
  -10.6073    4.4007    5.1561 C   0  0  0  0  0  0  0  0  0  0  0  0
   -8.3985    4.3725    4.9573 C   0  0  0  0  0  0  0  0  0  0  0  0
   -7.8185    5.8807    4.6557 C   0  0  0  0  0  0  0  0  0  0  0  0
   -8.0668    6.1809    6.2495 C   0  0  0  0  0  0  0  0  0  0  0  0
  -10.7178    6.1872    6.8132 C   0  0  1  0  0  0  0  0  0  0  0  0
  -11.6723    4.6851    7.1974 C   0  0  1  0  0  0  0  0  0  0  0  0
  -13.0004    4.2786    6.4606 O   0  0  0  0  0  0  0  0  0  0  0  0
  -13.9460    5.3355    6.0644 C   0  0  1  0  0  0  0  0  0  0  0  0
  -13.4270    6.8309    5.0682 C   0  0  2  0  0  0  0  0  0  0  0  0
  -11.8133    7.7384    5.6989 C   0  0  2  0  0  0  0  0  0  0  0  0
  -10.7289    3.5063    7.1698 O   0  0  0  0  0  0  0  0  0  0  0  0
  -11.3548    8.6259    4.6662 O   0  0  0  0  0  0  0  0  0  0  0  0
  -14.1693    7.6257    5.7072 O   0  0  0  0  0  0  0  0  0  0  0  0
  -15.1488    5.2374    5.3195 C   0  0  0  0  0  0  0  0  0  0  0  0
  -14.8243    4.5184    4.2699 O   0  0  0  0  0  0  0  0  0  0  0  0
  -10.2628    6.9717    5.1288 C   0  0  0  0  0  0  0  0  0  0  0  0
  -11.9857    6.0744    5.6443 C   0  0  0  0  0  0  0  0  0  0  0  0
  -12.8330    6.8587    7.1388 C   0  0  0  0  0  0  0  0  0  0  0  0
  -12.4650    8.4000    7.4237 C   0  0  0  0  0  0  0  0  0  0  0  0
  -10.9448    8.9957    7.0192 C   0  0  0  0  0  0  0  0  0  0  0  0
   -9.7999    8.2076    6.1043 C   0  0  0  0  0  0  0  0  0  0  0  0
  -15.7976   -5.5064    2.2003 C   0  0  2  0  0  0  0  0  0  0  0  0
  -14.7797   -4.4736    2.5973 C   0  0  2  0  0  0  0  0  0  0  0  0
  -14.4822   -4.7061    4.0569 C   0  0  1  0  0  0  0  0  0  0  0  0
  -13.9802   -6.0042    4.3045 O   0  0  0  0  0  0  0  0  0  0  0  0
  -14.9408   -7.0118    4.0280 C   0  0  1  0  0  0  0  0  0  0  0  0
  -15.4138   -6.9183    2.5896 C   0  0  1  0  0  0  0  0  0  0  0  0
   -9.6890    3.5460    4.0563 C   0  0  0  0  0  0  0  0  0  0  0  0
   -9.2902    2.7749    2.7207 C   0  0  0  0  0  0  0  0  0  0  0  0
   -9.5392    5.5169    4.5099 O   0  0  0  0  0  0  0  0  0  0  0  0
  -10.5942    1.8130    5.2631 C   0  0  0  0  0  0  0  0  0  0  0  0
  -10.1414    1.1559    3.8127 C   0  0  0  0  0  0  0  0  0  0  0  0
   -9.9215    2.7901    5.7476 C   0  0  0  0  0  0  0  0  0  0  0  0
  -15.1974   -3.0992    2.2791 N   0  0  0  0  0  0  0  0  0  0  0  0
  -14.5590   -2.2186    1.3874 C   0  0  0  0  0  0  0  0  0  0  0  0
  -14.9756   -1.0684    1.2414 O   0  0  0  0  0  0  0  0  0  0  0  0
  -13.5291   -3.7585    4.3383 O   0  0  0  0  0  0  0  0  0  0  0  0
  -12.0582   -2.4997    4.3571 C   0  0  0  0  0  0  0  0  0  0  0  0
  -12.6883   -1.3756    3.8351 C   0  0  0  0  0  0  0  0  0  0  0  0
  -11.5637   -2.3342    5.7009 C   0  0  0  0  0  0  0  0  0  0  0  0
  -11.2578   -1.0553    6.2021 C   0  0  0  0  0  0  0  0  0  0  0  0
  -11.8013    0.0306    5.5680 C   0  0  0  0  0  0  0  0  0  0  0  0
  -12.6507   -0.1514    4.4808 C   0  0  0  0  0  0  0  0  0  0  0  0
  -10.1968   -0.8198    7.5522 Cl  0  0  0  0  0  0  0  0  0  0  0  0
  -11.5285    1.2647    6.0292 O   0  0  0  0  0  0  0  0  0  0  0  0
  -13.2880   -2.6111    0.5929 C   0  0  0  0  0  0  0  0  0  0  0  0
  -16.0352   -5.4281    0.7981 O   0  0  0  0  0  0  0  0  0  0  0  0
  -16.5419   -7.7782    2.4265 O   0  0  0  0  0  0  0  0  0  0  0  0
  -14.2625   -8.3482    4.2651 C   0  0  0  0  0  0  0  0  0  0  0  0
  -13.3299   -8.4976    3.1841 O   0  0  0  0  0  0  0  0  0  0  0  0
   -8.2988    8.7808    6.0497 Cl  0  0  0  0  0  0  0  0  0  0  0  0
   -9.2951    6.1642    7.1219 N   0  0  0  0  0  0  0  0  0  0  0  0
   -7.0292    6.5833    6.7646 O   0  0  0  0  0  0  0  0  0  0  0  0
  -10.3970   -6.0971   -2.4134 N   0  0  0  0  0  0  0  0  0  0  0  0
   -9.9892   -7.5689   -3.9264 C   0  0  2  0  0  0  0  0  0  0  0  0
  -10.6878   -6.8828   -4.9060 C   0  0  0  0  0  0  0  0  0  0  0  0
  -10.2731   -5.6350   -4.6351 O   0  0  0  0  0  0  0  0  0  0  0  0
  -11.6918   -7.3975   -5.3624 O   0  0  0  0  0  0  0  0  0  0  0  0
   -8.6591  -13.1029   -5.5557 O   0  0  0  0  0  0  0  0  0  0  0  0
   -8.3191  -10.8801   -1.2468 O   0  0  0  0  0  0  0  0  0  0  0  0
   -8.9285   -8.5046   -2.2340 C   0  0  0  0  0  0  0  0  0  0  0  0
   -7.3851   -7.4001   -3.7297 O   0  0  0  0  0  0  0  0  0  0  0  0
   -4.6034  -10.6046   -1.3839 O   0  0  0  0  0  0  0  0  0  0  0  0
   -5.2401   -9.5000   -3.8911 O   0  0  0  0  0  0  0  0  0  0  0  0
   -6.2903  -11.9002   -5.1361 O   0  0  0  0  0  0  0  0  0  0  0  0
   -6.9155  -14.1601   -3.3751 C   0  0  0  0  0  0  0  0  0  0  0  0
   -7.8491  -14.9573   -2.6417 O   0  0  0  0  0  0  0  0  0  0  0  0
  -14.0300    8.5084   -0.1105 O   0  0  0  0  0  0  0  0  0  0  0  0
   -9.1641    3.9567   -4.7066 O   0  0  0  0  0  0  0  0  0  0  0  0
  -17.3217   12.2426    3.6027 O   0  0  0  0  0  0  0  0  0  0  0  0
  -13.0664   10.5812    3.8495 C   0  0  2  0  0  0  0  0  0  0  0  0
  -12.3236   11.2833    4.8712 C   0  0  0  0  0  0  0  0  0  0  0  0
  -12.0351   12.4502    4.7742 O   0  0  0  0  0  0  0  0  0  0  0  0
  -13.2986    9.8287    2.6751 N   0  0  0  0  0  0  0  0  0  0  0  0
  -13.5801    9.2542    7.3209 C   0  0  0  0  0  0  0  0  0  0  0  0
  -17.6974   10.1956    4.0302 H   0  0  0  0  0  0  0  0  0  0  0  0
  -15.6305    9.4196    3.9131 H   0  0  0  0  0  0  0  0  0  0  0  0
  -14.0773   12.7316    3.0940 H   0  0  0  0  0  0  0  0  0  0  0  0
   -9.3679    3.8933   -2.5143 H   0  0  0  0  0  0  0  0  0  0  0  0
  -11.8550    4.7453   -4.0829 H   0  0  0  0  0  0  0  0  0  0  0  0
  -13.2894    3.7430   -2.9275 H   0  0  0  0  0  0  0  0  0  0  0  0
   -6.1589   -9.2850   -1.3574 H   0  0  0  0  0  0  0  0  0  0  0  0
   -7.0670   -9.9570   -3.4983 H   0  0  0  0  0  0  0  0  0  0  0  0
   -5.0414  -12.1300   -3.6049 H   0  0  0  0  0  0  0  0  0  0  0  0
   -7.4757  -12.2569   -2.9058 H   0  0  0  0  0  0  0  0  0  0  0  0
   -6.7131  -11.2694    0.0347 H   0  0  0  0  0  0  0  0  0  0  0  0
  -10.6843   -9.1170   -1.1597 H   0  0  0  0  0  0  0  0  0  0  0  0
   -7.8704   -5.2851   -2.2251 H   0  0  0  0  0  0  0  0  0  0  0  0
   -8.8834   -5.3851   -0.3168 H   0  0  0  0  0  0  0  0  0  0  0  0
   -9.3200  -10.7258   -6.3708 H   0  0  0  0  0  0  0  0  0  0  0  0
   -8.8039  -13.0636   -2.8510 H   0  0  0  0  0  0  0  0  0  0  0  0
  -10.6207   -3.6725    2.4387 H   0  0  0  0  0  0  0  0  0  0  0  0
  -12.6370   -5.6716    1.5554 H   0  0  0  0  0  0  0  0  0  0  0  0
  -11.5476   -7.5062    0.8274 H   0  0  0  0  0  0  0  0  0  0  0  0
   -9.5588   -6.8325    2.1651 H   0  0  0  0  0  0  0  0  0  0  0  0
   -8.6980    0.0158    1.2210 H   0  0  0  0  0  0  0  0  0  0  0  0
   -9.7184    2.3514    0.8697 H   0  0  0  0  0  0  0  0  0  0  0  0
  -11.4374    5.1310   -0.7799 H   0  0  0  0  0  0  0  0  0  0  0  0
  -13.7531    5.7807    0.9044 H   0  0  0  0  0  0  0  0  0  0  0  0
  -14.3351   10.0029    5.5389 H   0  0  0  0  0  0  0  0  0  0  0  0
  -12.2059   11.2029    6.9986 H   0  0  0  0  0  0  0  0  0  0  0  0
  -12.2221   -4.8599    3.9967 H   0  0  0  0  0  0  0  0  0  0  0  0
  -14.4198    2.7554    0.8294 H   0  0  0  0  0  0  0  0  0  0  0  0
  -14.6684    4.4142    0.2685 H   0  0  0  0  0  0  0  0  0  0  0  0
  -13.0986    3.5396    0.6402 H   0  0  0  0  0  0  0  0  0  0  0  0
  -15.0156    4.4342    2.4726 H   0  0  0  0  0  0  0  0  0  0  0  0
  -13.4134    4.9939    2.5008 H   0  0  0  0  0  0  0  0  0  0  0  0
  -13.5919    2.4342    3.1779 H   0  0  0  0  0  0  0  0  0  0  0  0
  -13.1005    3.7574    4.1670 H   0  0  0  0  0  0  0  0  0  0  0  0
  -11.7097    3.0081    1.8010 H   0  0  0  0  0  0  0  0  0  0  0  0
  -11.3671    2.8072    3.2862 H   0  0  0  0  0  0  0  0  0  0  0  0
  -11.6174    5.5311    2.0168 H   0  0  0  0  0  0  0  0  0  0  0  0
  -10.2111    4.8847    2.1466 H   0  0  0  0  0  0  0  0  0  0  0  0
  -12.2168    5.4116    3.8021 H   0  0  0  0  0  0  0  0  0  0  0  0
  -10.8100    6.3295    3.6474 H   0  0  0  0  0  0  0  0  0  0  0  0
  -11.3615    3.6299    4.8723 H   0  0  0  0  0  0  0  0  0  0  0  0
  -10.1280    4.6029    6.1059 H   0  0  0  0  0  0  0  0  0  0  0  0
   -8.0279    3.9816    3.8666 H   0  0  0  0  0  0  0  0  0  0  0  0
   -8.0779    3.5623    5.4912 H   0  0  0  0  0  0  0  0  0  0  0  0
   -8.5403    6.4913    3.8208 H   0  0  0  0  0  0  0  0  0  0  0  0
   -6.9207    5.7033    4.1806 H   0  0  0  0  0  0  0  0  0  0  0  0
  -10.5881    5.7422    5.7904 H   0  0  0  0  0  0  0  0  0  0  0  0
  -11.9099    5.2620    8.0572 H   0  0  0  0  0  0  0  0  0  0  0  0
  -14.2855    5.5106    7.1697 H   0  0  0  0  0  0  0  0  0  0  0  0
  -12.9878    6.6266    4.1011 H   0  0  0  0  0  0  0  0  0  0  0  0
  -11.2630    7.3389    7.0094 H   0  0  0  0  0  0  0  0  0  0  0  0
  -10.9906    8.0494    3.9889 H   0  0  0  0  0  0  0  0  0  0  0  0
  -14.3816    8.0820    6.4696 H   0  0  0  0  0  0  0  0  0  0  0  0
  -15.6878    4.6958    6.0064 H   0  0  0  0  0  0  0  0  0  0  0  0
  -15.5537    6.1746    4.9808 H   0  0  0  0  0  0  0  0  0  0  0  0
  -14.1967    5.1155    3.8084 H   0  0  0  0  0  0  0  0  0  0  0  0
  -12.2728    5.1462    5.2367 H   0  0  0  0  0  0  0  0  0  0  0  0
  -13.8740    6.8283    7.0688 H   0  0  0  0  0  0  0  0  0  0  0  0
  -10.9301    9.9762    6.6973 H   0  0  0  0  0  0  0  0  0  0  0  0
  -16.7229   -5.2953    2.7335 H   0  0  0  0  0  0  0  0  0  0  0  0
  -13.8897   -4.6330    2.0259 H   0  0  0  0  0  0  0  0  0  0  0  0
  -15.3731   -4.5438    4.6664 H   0  0  0  0  0  0  0  0  0  0  0  0
  -15.7747   -6.8741    4.7055 H   0  0  0  0  0  0  0  0  0  0  0  0
  -14.6092   -7.2167    1.9135 H   0  0  0  0  0  0  0  0  0  0  0  0
   -8.9498    4.1850    2.5620 H   0  0  0  0  0  0  0  0  0  0  0  0
  -10.9446    0.6280    3.4779 H   0  0  0  0  0  0  0  0  0  0  0  0
  -16.0410   -2.7829    2.7770 H   0  0  0  0  0  0  0  0  0  0  0  0
  -13.1846   -1.4771    2.8981 H   0  0  0  0  0  0  0  0  0  0  0  0
  -11.3629   -3.1764    6.3452 H   0  0  0  0  0  0  0  0  0  0  0  0
  -13.1984    0.6878    4.0838 H   0  0  0  0  0  0  0  0  0  0  0  0
  -12.3584   -2.7527    1.2670 H   0  0  0  0  0  0  0  0  0  0  0  0
  -13.6544   -3.4771   -0.0201 H   0  0  0  0  0  0  0  0  0  0  0  0
  -12.8083   -1.7964    0.0125 H   0  0  0  0  0  0  0  0  0  0  0  0
  -15.2057   -5.6081    0.3179 H   0  0  0  0  0  0  0  0  0  0  0  0
  -17.2647   -7.4432    2.9966 H   0  0  0  0  0  0  0  0  0  0  0  0
  -13.7177   -8.2457    5.2022 H   0  0  0  0  0  0  0  0  0  0  0  0
  -14.8606   -9.2718    4.3278 H   0  0  0  0  0  0  0  0  0  0  0  0
  -13.8558   -8.6404    2.3740 H   0  0  0  0  0  0  0  0  0  0  0  0
   -9.4559    6.8586    7.8256 H   0  0  0  0  0  0  0  0  0  0  0  0
   -9.3390   -6.2957   -3.2159 H   0  0  0  0  0  0  0  0  0  0  0  0
  -10.0327   -8.2893   -5.2686 H   0  0  0  0  0  0  0  0  0  0  0  0
   -9.5441   -5.2877   -4.0537 H   0  0  0  0  0  0  0  0  0  0  0  0
   -8.9188  -14.0620   -5.6245 H   0  0  0  0  0  0  0  0  0  0  0  0
   -7.5298   -6.4765   -3.9617 H   0  0  0  0  0  0  0  0  0  0  0  0
   -4.4101  -11.5150   -1.6660 H   0  0  0  0  0  0  0  0  0  0  0  0
   -4.3582   -9.8290   -3.6726 H   0  0  0  0  0  0  0  0  0  0  0  0
   -7.1775  -11.5745   -5.3602 H   0  0  0  0  0  0  0  0  0  0  0  0
   -7.1869  -14.2044   -4.4285 H   0  0  0  0  0  0  0  0  0  0  0  0
   -5.9303  -14.5314   -3.2360 H   0  0  0  0  0  0  0  0  0  0  0  0
   -7.6488  -14.8644   -1.6917 H   0  0  0  0  0  0  0  0  0  0  0  0
   -8.5586    4.4605   -5.4254 H   0  0  0  0  0  0  0  0  0  0  0  0
  -17.9843   13.2963    4.2479 H   0  0  0  0  0  0  0  0  0  0  0  0
  -12.3090    9.8476    3.4782 H   0  0  0  0  0  0  0  0  0  0  0  0
  -13.7768   10.5199    2.3010 H   0  0  0  0  0  0  0  0  0  0  0  0
  -14.2182    9.3220    2.7639 H   0  0  0  0  0  0  0  0  0  0  0  0
  -13.4687    8.5860    8.4630 H   0  0  0  0  0  0  0  0  0  0  0  0
  -14.5813    9.2660    7.7968 H   0  0  0  0  0  0  0  0  0  0  0  0
  1  2  2  0  0  0  0
  1127  1  0  0  0  0
  2  3  1  0  0  0  0
  2133  1  0  0  0  0
  3  4  2  0  0  0  0
  3134  1  0  0  0  0
  4  5  1  0  0  0  0
  4128  1  0  0  0  0
  5  6  2  0  0  0  0
  5135  1  0  0  0  0
  6  1  1  0  0  0  0
  7  8  2  0  0  0  0
  7136  1  0  0  0  0
  8  9  1  0  0  0  0
  8126  1  0  0  0  0
  9 10  2  0  0  0  0
  9137  1  0  0  0  0
 10 11  1  0  0  0  0
 10125  1  0  0  0  0
 11 12  2  0  0  0  0
 11138  1  0  0  0  0
 12  7  1  0  0  0  0
 13 14  1  0  0  0  0
 13120  1  0  0  0  0
 13 18  1  0  0  0  0
 13139  1  1  0  0  0
 14 15  1  0  0  0  0
 14121  1  0  0  0  0
 14140  1  6  0  0  0
 15 16  1  0  0  0  0
 15122  1  0  0  0  0
 15141  1  1  0  0  0
 16 17  1  0  0  0  0
 16123  1  0  0  0  0
 16142  1  6  0  0  0
 17 18  1  0  0  0  0
 18143  1  0  0  0  0
 19118  2  0  0  0  0
 19144  1  0  0  0  0
 20 21  2  0  0  0  0
 20119  1  0  0  0  0
 21 22  1  0  0  0  0
 21145  1  0  0  0  0
 22 23  2  0  0  0  0
 22146  1  0  0  0  0
 23 19  1  0  0  0  0
 24 25  2  0  0  0  0
 24147  1  0  0  0  0
 25 26  1  0  0  0  0
 25116  1  0  0  0  0
 26 27  2  0  0  0  0
 26148  1  0  0  0  0
 27 28  1  0  0  0  0
 27117  1  0  0  0  0
 28 29  2  0  0  0  0
 28118  1  0  0  0  0
 29 24  1  0  0  0  0
 30 31  2  0  0  0  0
 31111  1  0  0  0  0
 31 32  1  0  0  0  0
 32 46  1  0  0  0  0
 32 33  1  0  0  0  0
 32149  1  6  0  0  0
 33 34  1  0  0  0  0
 33150  1  0  0  0  0
 34 35  1  0  0  0  0
 34 47  2  0  0  0  0
 35 36  1  0  0  0  0
 35 23  1  0  0  0  0
 35151  1  1  0  0  0
 36 37  1  0  0  0  0
 36152  1  0  0  0  0
 37 38  1  0  0  0  0
 37 48  2  0  0  0  0
 38 39  1  0  0  0  0
 38 49  1  0  0  0  0
 38153  1  1  0  0  0
 39 40  1  0  0  0  0
 39154  1  0  0  0  0
 40 41  1  0  0  0  0
 40 50  2  0  0  0  0
 41 42  1  0  0  0  0
 41 12  1  0  0  0  0
 41155  1  1  0  0  0
 42 43  1  0  0  0  0
 42156  1  0  0  0  0
 43 44  1  0  0  0  0
 43 51  2  0  0  0  0
 44 45  1  0  0  0  0
 44132  1  0  0  0  0
 44157  1  6  0  0  0
 45158  1  0  0  0  0
 46 95  1  0  0  0  0
 46159  1  1  0  0  0
 46 94  1  0  0  0  0
 49 86  1  0  0  0  0
 52 53  1  0  0  0  0
 52160  1  0  0  0  0
 52161  1  0  0  0  0
 52162  1  0  0  0  0
 53 54  1  0  0  0  0
 53163  1  0  0  0  0
 53164  1  0  0  0  0
 54 55  1  0  0  0  0
 54165  1  0  0  0  0
 54166  1  0  0  0  0
 55 56  1  0  0  0  0
 55167  1  0  0  0  0
 55168  1  0  0  0  0
 56 57  1  0  0  0  0
 56169  1  0  0  0  0
 56170  1  0  0  0  0
 57 58  1  0  0  0  0
 57171  1  0  0  0  0
 57172  1  0  0  0  0
 58 59  1  0  0  0  0
 58173  1  0  0  0  0
 58174  1  0  0  0  0
 59 60  1  0  0  0  0
 59175  1  0  0  0  0
 59176  1  0  0  0  0
 60 61  1  0  0  0  0
 60177  1  0  0  0  0
 60178  1  0  0  0  0
 61110  2  0  0  0  0
 62109  1  0  0  0  0
 62 63  1  0  0  0  0
 62 67  1  0  0  0  0
 62179  1  6  0  0  0
 63 68  1  0  0  0  0
 63 64  1  0  0  0  0
 63180  1  1  0  0  0
 64 65  1  0  0  0  0
 65 66  1  0  0  0  0
 65181  1  1  0  0  0
 65 71  1  0  0  0  0
 66 67  1  0  0  0  0
 66 70  1  0  0  0  0
 66182  1  6  0  0  0
 67 69  1  0  0  0  0
 67183  1  1  0  0  0
 69184  1  0  0  0  0
 70185  1  0  0  0  0
 71 72  1  0  0  0  0
 71186  1  0  0  0  0
 71187  1  0  0  0  0
 72188  1  0  0  0  0
 73 74  2  0  0  0  0
 73 87  1  0  0  0  0
 74 75  1  0  0  0  0
 74189  1  0  0  0  0
 75 76  2  0  0  0  0
 75190  1  0  0  0  0
 76 77  1  0  0  0  0
 76132  1  0  0  0  0
 77 78  2  0  0  0  0
 77191  1  0  0  0  0
 78 73  1  0  0  0  0
 78108  1  0  0  0  0
 79 80  1  0  0  0  0
 79 84  1  0  0  0  0
 79104  1  0  0  0  0
 79192  1  1  0  0  0
 80 81  1  0  0  0  0
 80 91  1  0  0  0  0
 80193  1  6  0  0  0
 81 82  1  0  0  0  0
 81 94  1  0  0  0  0
 81194  1  1  0  0  0
 82 83  1  0  0  0  0
 83 84  1  0  0  0  0
 83195  1  1  0  0  0
 83106  1  0  0  0  0
 84105  1  0  0  0  0
 84196  1  6  0  0  0
 85 86  2  0  0  0  0
 85 90  1  0  0  0  0
 86197  1  0  0  0  0
 87 85  1  0  0  0  0
 88 89  1  0  0  0  0
 88102  1  0  0  0  0
 89 49  2  0  0  0  0
 89198  1  0  0  0  0
 90 88  2  0  0  0  0
 90 68  1  0  0  0  0
 91 92  1  0  0  0  0
 91199  1  0  0  0  0
 92 93  2  0  0  0  0
 92103  1  0  0  0  0
 95 96  1  0  0  0  0
 95 97  2  0  0  0  0
 96200  1  0  0  0  0
 97 98  1  0  0  0  0
 97201  1  0  0  0  0
 98 99  2  0  0  0  0
 98101  1  0  0  0  0
 99100  1  0  0  0  0
100 96  2  0  0  0  0
100202  1  0  0  0  0
102 99  1  0  0  0  0
103203  1  0  0  0  0
103204  1  0  0  0  0
103205  1  0  0  0  0
104206  1  0  0  0  0
105207  1  0  0  0  0
106107  1  0  0  0  0
106208  1  0  0  0  0
106209  1  0  0  0  0
107210  1  0  0  0  0
109 61  1  0  0  0  0
109211  1  0  0  0  0
111112  1  0  0  0  0
111212  1  0  0  0  0
112 29  1  0  0  0  0
112213  1  6  0  0  0
112113  1  0  0  0  0
113114  1  0  0  0  0
113115  2  0  0  0  0
114214  1  0  0  0  0
116215  1  0  0  0  0
117 18  1  0  0  0  0
118 20  1  0  0  0  0
119216  1  0  0  0  0
120217  1  0  0  0  0
121218  1  0  0  0  0
122219  1  0  0  0  0
123124  1  0  0  0  0
123220  1  0  0  0  0
123221  1  0  0  0  0
124222  1  0  0  0  0
125  6  1  0  0  0  0
126223  1  0  0  0  0
127224  1  0  0  0  0
128129  1  0  0  0  0
128225  1  1  0  0  0
128131  1  0  0  0  0
129 45  1  0  0  0  0
129130  2  0  0  0  0
131226  1  0  0  0  0
131227  1  0  0  0  0
132228  1  0  0  0  0
132229  1  0  0  0  0
M  END
>  <DRUGBANK_ID>
DB06149

>  <COMMON_NAME>
Teicoplanin

>  <CAS_NUMBER>
61036-62-2

>  <UNII>
4U3D3YY81M

>  <SYNONYMS>
Teichomycin A2; Teicoplanin; teicoplanina; téicoplanine; teicoplaninum

$$$$
