387
 OpenBabel10282417103D

 50 52  0  0  1  0  0  0  0  0999 V2000
    0.9808    0.0585   -0.0546 O   0  0  0  0  0  0  0  0  0  0  0  0
   -0.9048   -0.7046    2.9398 N   0  0  0  0  0  0  0  0  0  0  0  0
    1.0347   -2.2402   -0.8379 C   0  0  0  0  0  0  0  0  0  0  0  0
    0.4692   -1.2543    0.2603 C   0  0  3  0  0  0  0  0  0  0  0  0
    0.5862   -3.6955   -0.6135 C   0  0  0  0  0  0  0  0  0  0  0  0
    2.5738   -2.2050   -0.9866 C   0  0  0  0  0  0  0  0  0  0  0  0
    0.9819   -1.6427    1.6855 C   0  0  0  0  0  0  0  0  0  0  0  0
    1.1016   -4.7052   -1.5991 C   0  0  0  0  0  0  0  0  0  0  0  0
    3.0659   -3.2354   -2.0067 C   0  0  0  0  0  0  0  0  0  0  0  0
    2.6045   -4.6485   -1.6694 C   0  0  0  0  0  0  0  0  0  0  0  0
    0.5428   -0.7057    2.8130 C   0  0  0  0  0  0  0  0  0  0  0  0
   -1.0783   -1.2119    0.2041 C   0  0  0  0  0  0  0  0  0  0  0  0
   -1.4458    0.5342    3.4730 C   0  0  0  0  0  0  0  0  0  0  0  0
   -1.4589   -1.8186    3.7056 C   0  0  0  0  0  0  0  0  0  0  0  0
   -1.4721    0.2419    4.9488 C   0  0  0  0  0  0  0  0  0  0  0  0
   -1.9715   -1.1941    4.9907 C   0  0  0  0  0  0  0  0  0  0  0  0
   -1.8488   -2.3653    0.4533 C   0  0  0  0  0  0  0  0  0  0  0  0
   -1.7936   -0.0027    0.1382 C   0  0  0  0  0  0  0  0  0  0  0  0
   -3.2345   -2.3824    0.4768 C   0  0  0  0  0  0  0  0  0  0  0  0
   -3.1811    0.0105    0.3418 C   0  0  0  0  0  0  0  0  0  0  0  0
   -3.9082   -1.1714    0.4602 C   0  0  0  0  0  0  0  0  0  0  0  0
    1.9384    0.0604    0.0993 H   0  0  0  0  0  0  0  0  0  0  0  0
    0.6300   -1.9044   -1.8044 H   0  0  0  0  0  0  0  0  0  0  0  0
    0.8490   -4.0259    0.3977 H   0  0  0  0  0  0  0  0  0  0  0  0
   -0.4829   -3.7836   -0.7624 H   0  0  0  0  0  0  0  0  0  0  0  0
    2.9077   -1.2116   -1.3086 H   0  0  0  0  0  0  0  0  0  0  0  0
    3.0616   -2.4087   -0.0271 H   0  0  0  0  0  0  0  0  0  0  0  0
    0.6772   -2.6601    1.9481 H   0  0  0  0  0  0  0  0  0  0  0  0
    2.0781   -1.6334    1.7002 H   0  0  0  0  0  0  0  0  0  0  0  0
    0.7572   -5.6971   -1.2832 H   0  0  0  0  0  0  0  0  0  0  0  0
    0.6492   -4.5004   -2.5760 H   0  0  0  0  0  0  0  0  0  0  0  0
    4.1585   -3.2152   -2.0512 H   0  0  0  0  0  0  0  0  0  0  0  0
    2.6895   -2.9583   -2.9987 H   0  0  0  0  0  0  0  0  0  0  0  0
    3.0253   -4.9608   -0.7056 H   0  0  0  0  0  0  0  0  0  0  0  0
    2.9451   -5.3580   -2.4275 H   0  0  0  0  0  0  0  0  0  0  0  0
    1.0169   -1.0071    3.7550 H   0  0  0  0  0  0  0  0  0  0  0  0
    0.9224    0.2960    2.5802 H   0  0  0  0  0  0  0  0  0  0  0  0
   -2.4629    0.6882    3.0904 H   0  0  0  0  0  0  0  0  0  0  0  0
   -0.8663    1.4210    3.1966 H   0  0  0  0  0  0  0  0  0  0  0  0
   -0.7351   -2.6200    3.8896 H   0  0  0  0  0  0  0  0  0  0  0  0
   -2.2963   -2.2809    3.1707 H   0  0  0  0  0  0  0  0  0  0  0  0
   -0.4556    0.3008    5.3553 H   0  0  0  0  0  0  0  0  0  0  0  0
   -2.1147    0.9321    5.4960 H   0  0  0  0  0  0  0  0  0  0  0  0
   -1.6147   -1.7302    5.8718 H   0  0  0  0  0  0  0  0  0  0  0  0
   -3.0680   -1.2070    4.9866 H   0  0  0  0  0  0  0  0  0  0  0  0
   -1.3775   -3.2918    0.7721 H   0  0  0  0  0  0  0  0  0  0  0  0
   -1.2597    0.9423    0.0855 H   0  0  0  0  0  0  0  0  0  0  0  0
   -3.7565   -3.3209    0.6194 H   0  0  0  0  0  0  0  0  0  0  0  0
   -3.6908    0.9623    0.4833 H   0  0  0  0  0  0  0  0  0  0  0  0
   -4.9789   -1.1603    0.6148 H   0  0  0  0  0  0  0  0  0  0  0  0
  1  4  1  0  0  0  0
  1 22  1  0  0  0  0
  2 11  1  0  0  0  0
  2 13  1  0  0  0  0
  2 14  1  0  0  0  0
  3  4  1  0  0  0  0
  3  5  1  0  0  0  0
  3  6  1  0  0  0  0
  3 23  1  0  0  0  0
  4  7  1  0  0  0  0
  4 12  1  0  0  0  0
  5  8  1  0  0  0  0
  5 24  1  0  0  0  0
  5 25  1  0  0  0  0
  6  9  1  0  0  0  0
  6 26  1  0  0  0  0
  6 27  1  0  0  0  0
  7 11  1  0  0  0  0
  7 28  1  0  0  0  0
  7 29  1  0  0  0  0
  8 10  1  0  0  0  0
  8 30  1  0  0  0  0
  8 31  1  0  0  0  0
  9 10  1  0  0  0  0
  9 32  1  0  0  0  0
  9 33  1  0  0  0  0
 10 34  1  0  0  0  0
 10 35  1  0  0  0  0
 11 36  1  0  0  0  0
 11 37  1  0  0  0  0
 12 17  2  0  0  0  0
 12 18  1  0  0  0  0
 13 15  1  0  0  0  0
 13 38  1  0  0  0  0
 13 39  1  0  0  0  0
 14 16  1  0  0  0  0
 14 40  1  0  0  0  0
 14 41  1  0  0  0  0
 15 16  1  0  0  0  0
 15 42  1  0  0  0  0
 15 43  1  0  0  0  0
 16 44  1  0  0  0  0
 16 45  1  0  0  0  0
 17 19  1  0  0  0  0
 17 46  1  0  0  0  0
 18 20  2  0  0  0  0
 18 47  1  0  0  0  0
 19 21  2  0  0  0  0
 19 48  1  0  0  0  0
 20 21  1  0  0  0  0
 20 49  1  0  0  0  0
 21 50  1  0  0  0  0
M  END
>  <DRUGBANK_ID>
DB00387

>  <SECONDARY_ACCESSION_NUMBERS>
APRD00383

>  <COMMON_NAME>
Procyclidine

>  <CAS_NUMBER>
77-37-2

>  <UNII>
C6QE1Q1TKR

>  <SYNONYMS>
1-cyclohexyl-1-phenyl-3-pyrrolidin-1-yl-propan-1-ol hydrochloride; 1-Cyclohexyl-1-phenyl-3-pyrrolidino-1-propanol; Prociclidina; Procyclidin; Procyclidine; Procyclidinum; Tricyclamol

$$$$
