1522
 OpenBabel10282417113D

 57 58  0  0  1  0  0  0  0  0999 V2000
    0.2103    0.7539   -4.9784 O   0  0  0  0  0  0  0  0  0  0  0  0
    0.9378    2.6143   -6.0061 O   0  0  0  0  0  0  0  0  0  0  0  0
    0.3820   -1.5872    0.1837 N   0  0  0  0  0  0  0  0  0  0  0  0
    0.5069   -1.4870   -3.7999 C   0  0  0  0  0  0  0  0  0  0  0  0
    0.9766   -1.9205   -2.3349 C   0  0  0  0  0  0  0  0  0  0  0  0
   -0.1391    0.0272   -3.7503 C   0  0  2  0  0  0  0  0  0  0  0  0
   -0.0740   -1.8721   -1.1919 C   0  0  1  0  0  0  0  0  0  0  0  0
   -0.4745   -2.4854   -4.4263 C   0  0  0  0  0  0  0  0  0  0  0  0
    1.8416   -1.5666   -4.6026 C   0  0  0  0  0  0  0  0  0  0  0  0
   -1.6957    0.1886   -3.6589 C   0  0  0  0  0  0  0  0  0  0  0  0
   -1.0806   -3.0537   -1.1912 C   0  0  0  0  0  0  0  0  0  0  0  0
   -1.3026   -2.1005   -5.4801 C   0  0  0  0  0  0  0  0  0  0  0  0
    2.7283   -0.4873   -4.7028 C   0  0  0  0  0  0  0  0  0  0  0  0
   -0.5468   -3.8216   -4.0048 C   0  0  0  0  0  0  0  0  0  0  0  0
    2.2427   -2.7908   -5.1785 C   0  0  0  0  0  0  0  0  0  0  0  0
   -2.4104   -0.4203   -2.4960 C   0  0  0  0  0  0  0  0  0  0  0  0
    1.6821   -0.9428    0.2402 C   0  0  0  0  0  0  0  0  0  0  0  0
    0.3019   -2.7307    1.0758 C   0  0  0  0  0  0  0  0  0  0  0  0
   -2.3968   -2.8763   -5.8269 C   0  0  0  0  0  0  0  0  0  0  0  0
    3.9128   -0.6051   -5.4260 C   0  0  0  0  0  0  0  0  0  0  0  0
   -1.5600   -4.6572   -4.4442 C   0  0  0  0  0  0  0  0  0  0  0  0
    3.4652   -2.9371   -5.8122 C   0  0  0  0  0  0  0  0  0  0  0  0
    0.4208    2.0967   -5.0349 C   0  0  0  0  0  0  0  0  0  0  0  0
   -2.5304   -4.1536   -5.2976 C   0  0  0  0  0  0  0  0  0  0  0  0
    4.2819   -1.8306   -5.9729 C   0  0  0  0  0  0  0  0  0  0  0  0
   -0.0138    2.9121   -3.8473 C   0  0  0  0  0  0  0  0  0  0  0  0
    1.4678   -2.9027   -2.3195 H   0  0  0  0  0  0  0  0  0  0  0  0
    1.7965   -1.2276   -2.1111 H   0  0  0  0  0  0  0  0  0  0  0  0
    0.3539    0.5435   -2.9167 H   0  0  0  0  0  0  0  0  0  0  0  0
   -0.5684   -0.9392   -1.3733 H   0  0  0  0  0  0  0  0  0  0  0  0
   -1.9993    1.2271   -3.7051 H   0  0  0  0  0  0  0  0  0  0  0  0
   -2.1847   -0.1810   -4.5544 H   0  0  0  0  0  0  0  0  0  0  0  0
   -1.8928   -2.8937   -0.4739 H   0  0  0  0  0  0  0  0  0  0  0  0
   -1.6325   -3.2175   -2.1068 H   0  0  0  0  0  0  0  0  0  0  0  0
   -0.5759   -4.0022   -0.9763 H   0  0  0  0  0  0  0  0  0  0  0  0
   -1.1655   -1.1386   -5.9712 H   0  0  0  0  0  0  0  0  0  0  0  0
    2.5134    0.4720   -4.2447 H   0  0  0  0  0  0  0  0  0  0  0  0
    0.1454   -4.2171   -3.2646 H   0  0  0  0  0  0  0  0  0  0  0  0
    1.6099   -3.6714   -5.1543 H   0  0  0  0  0  0  0  0  0  0  0  0
   -2.1445    0.0795   -1.5606 H   0  0  0  0  0  0  0  0  0  0  0  0
   -3.4922   -0.4031   -2.5953 H   0  0  0  0  0  0  0  0  0  0  0  0
   -2.1709   -1.4665   -2.4965 H   0  0  0  0  0  0  0  0  0  0  0  0
    1.9376   -0.6520    1.2601 H   0  0  0  0  0  0  0  0  0  0  0  0
    2.4599   -1.6176   -0.1308 H   0  0  0  0  0  0  0  0  0  0  0  0
    1.6827   -0.0205   -0.3561 H   0  0  0  0  0  0  0  0  0  0  0  0
    0.6063   -2.4694    2.0884 H   0  0  0  0  0  0  0  0  0  0  0  0
   -0.7320   -3.0796    1.1863 H   0  0  0  0  0  0  0  0  0  0  0  0
    0.9151   -3.5500    0.6925 H   0  0  0  0  0  0  0  0  0  0  0  0
   -3.1417   -2.4652   -6.5000 H   0  0  0  0  0  0  0  0  0  0  0  0
    4.5478    0.2663   -5.5532 H   0  0  0  0  0  0  0  0  0  0  0  0
   -1.6055   -5.6730   -4.0683 H   0  0  0  0  0  0  0  0  0  0  0  0
    3.7542   -3.9157   -6.1812 H   0  0  0  0  0  0  0  0  0  0  0  0
   -3.3783   -4.7675   -5.5726 H   0  0  0  0  0  0  0  0  0  0  0  0
    5.2069   -1.9256   -6.5283 H   0  0  0  0  0  0  0  0  0  0  0  0
   -1.0767    2.8047   -3.6592 H   0  0  0  0  0  0  0  0  0  0  0  0
    0.5709    2.6686   -2.9598 H   0  0  0  0  0  0  0  0  0  0  0  0
    0.1186    3.9710   -4.0764 H   0  0  0  0  0  0  0  0  0  0  0  0
  1 23  1  0  0  0  0
  2 23  2  0  0  0  0
  3 17  1  0  0  0  0
  3 18  1  0  0  0  0
  4  5  1  0  0  0  0
  4  8  1  0  0  0  0
  4  9  1  0  0  0  0
  5 27  1  0  0  0  0
  5 28  1  0  0  0  0
  6 10  1  0  0  0  0
  6 29  1  1  0  0  0
  6  4  1  0  0  0  0
  6  1  1  0  0  0  0
  7 11  1  0  0  0  0
  7 30  1  6  0  0  0
  7  5  1  0  0  0  0
  7  3  1  0  0  0  0
  8 12  2  0  0  0  0
  8 14  1  0  0  0  0
  9 13  2  0  0  0  0
  9 15  1  0  0  0  0
 10 16  1  0  0  0  0
 10 31  1  0  0  0  0
 10 32  1  0  0  0  0
 11 33  1  0  0  0  0
 11 34  1  0  0  0  0
 11 35  1  0  0  0  0
 12 19  1  0  0  0  0
 12 36  1  0  0  0  0
 13 20  1  0  0  0  0
 13 37  1  0  0  0  0
 14 21  2  0  0  0  0
 14 38  1  0  0  0  0
 15 22  2  0  0  0  0
 15 39  1  0  0  0  0
 16 40  1  0  0  0  0
 16 41  1  0  0  0  0
 16 42  1  0  0  0  0
 17 43  1  0  0  0  0
 17 44  1  0  0  0  0
 17 45  1  0  0  0  0
 18 46  1  0  0  0  0
 18 47  1  0  0  0  0
 18 48  1  0  0  0  0
 19 24  2  0  0  0  0
 19 49  1  0  0  0  0
 20 25  2  0  0  0  0
 20 50  1  0  0  0  0
 21 24  1  0  0  0  0
 21 51  1  0  0  0  0
 22 25  1  0  0  0  0
 22 52  1  0  0  0  0
 23 26  1  0  0  0  0
 24 53  1  0  0  0  0
 25 54  1  0  0  0  0
 26 55  1  0  0  0  0
 26 56  1  0  0  0  0
 26 57  1  0  0  0  0
M  END
>  <DRUGBANK_ID>
DB01522

>  <COMMON_NAME>
Betacetylmethadol

>  <CAS_NUMBER>
17199-59-6

>  <UNII>
905GLN509G

>  <SYNONYMS>
Betacetylmethadol

$$$$
