
 OpenBabel10282417193D

114120  0  0  1  0  0  0  0  0999 V2000
    0.8272   -1.9906    0.5582 C   0  0  0  0  0  0  0  0  0  0  0  0
    2.0716   -0.3607   -0.1838 C   0  0  0  0  0  0  0  0  0  0  0  0
    3.5595   -0.3604   -0.2187 C   0  0  0  0  0  0  0  0  0  0  0  0
    4.4758   -2.1906   -0.4788 C   0  0  2  0  0  0  0  0  0  0  0  0
    4.6912   -1.9285    1.0564 C   0  0  0  0  0  0  0  0  0  0  0  0
    5.9539   -1.9282    1.1658 O   0  0  0  0  0  0  0  0  0  0  0  0
    3.2958   -0.8072    2.0917 C   0  0  2  0  0  0  0  0  0  0  0  0
    4.4406   -0.7774    2.8926 C   0  0  2  0  0  0  0  0  0  0  0  0
    2.9081    0.4752    3.9169 C   0  0  0  0  0  0  0  0  0  0  0  0
    2.6720    1.9810    3.6555 C   0  0  2  0  0  0  0  0  0  0  0  0
    1.2712    2.7059    2.9162 C   0  0  2  0  0  0  0  0  0  0  0  0
    1.8203    1.0031    1.9875 C   0  0  1  0  0  0  0  0  0  0  0  0
    0.6419    2.4114    0.9468 C   0  0  1  0  0  0  0  0  0  0  0  0
    1.4532    2.0863   -0.7979 C   0  0  1  0  0  0  0  0  0  0  0  0
    3.5004    1.2279   -0.9518 C   0  0  0  0  0  0  0  0  0  0  0  0
    5.2530    1.7188   -1.1206 C   0  0  0  0  0  0  0  0  0  0  0  0
    4.9546    0.2045   -1.8669 C   0  0  0  0  0  0  0  0  0  0  0  0
    0.2901    0.8893   -1.7291 C   0  0  0  0  0  0  0  0  0  0  0  0
    1.6824    0.5262   -1.5954 C   0  0  2  0  0  0  0  0  0  0  0  0
    2.3482   -0.3686   -2.3479 O   0  0  0  0  0  0  0  0  0  0  0  0
    3.0712   -1.2994   -1.7366 C   0  0  0  0  0  0  0  0  0  0  0  0
    4.1300   -1.5821   -2.2614 O   0  0  0  0  0  0  0  0  0  0  0  0
    2.5617   -2.1078    0.0361 C   0  0  1  0  0  0  0  0  0  0  0  0
    1.8573   -0.7928    1.5787 C   0  0  2  0  0  0  0  0  0  0  0  0
    0.4914   -0.5076    1.8883 C   0  0  0  0  0  0  0  0  0  0  0  0
   -0.6700   -1.4042    2.7070 C   0  0  0  0  0  0  0  0  0  0  0  0
   -2.3697   -0.8727    2.4094 C   0  0  0  0  0  0  0  0  0  0  0  0
   -2.8249    0.4044    1.1368 C   0  0  0  0  0  0  0  0  0  0  0  0
   -1.6116    1.1275    0.1510 C   0  0  0  0  0  0  0  0  0  0  0  0
    0.0569    0.4858    0.4658 C   0  0  0  0  0  0  0  0  0  0  0  0
    3.3499    0.7220    1.7414 N   0  0  0  0  0  0  0  0  0  0  0  0
    4.4117    0.8639    3.2037 C   0  0  0  0  0  0  0  0  0  0  0  0
    5.2570    1.6504    2.9156 O   0  0  0  0  0  0  0  0  0  0  0  0
    4.0712   -0.7291    4.6540 C   0  0  0  0  0  0  0  0  0  0  0  0
    3.4112   -2.1068    4.3868 C   0  0  0  0  0  0  0  0  0  0  0  0
    3.1512   -3.3011    5.0254 C   0  0  0  0  0  0  0  0  0  0  0  0
    3.0571   -3.0114    6.3069 C   0  0  0  0  0  0  0  0  0  0  0  0
    3.2321   -1.7135    6.7318 C   0  0  0  0  0  0  0  0  0  0  0  0
    3.5723   -0.6556    5.9091 C   0  0  0  0  0  0  0  0  0  0  0  0
    1.6623   -3.2479   -0.8681 O   0  0  0  0  0  0  0  0  0  0  0  0
   -0.0722    2.7361   -1.5893 O   0  0  0  0  0  0  0  0  0  0  0  0
   -0.3858    1.8800    1.8812 O   0  0  0  0  0  0  0  0  0  0  0  0
   -1.0304    0.7085    2.0729 C   0  0  0  0  0  0  0  0  0  0  0  0
   -1.2146   -0.4663    1.1164 O   0  0  0  0  0  0  0  0  0  0  0  0
   -0.9002    0.9530    3.4383 C   0  0  0  0  0  0  0  0  0  0  0  0
   -1.8275    1.9192    3.5304 C   0  0  0  0  0  0  0  0  0  0  0  0
   -2.0449    2.1574    4.7662 C   0  0  0  0  0  0  0  0  0  0  0  0
   -1.1656    1.6083    5.6999 C   0  0  0  0  0  0  0  0  0  0  0  0
   -0.2438    0.6698    5.5881 C   0  0  0  0  0  0  0  0  0  0  0  0
   -0.0547    0.3438    4.3561 C   0  0  0  0  0  0  0  0  0  0  0  0
    2.0742    3.6183    3.6960 C   0  0  0  0  0  0  0  0  0  0  0  0
    1.7613    2.4032    4.6501 O   0  0  0  0  0  0  0  0  0  0  0  0
   -0.1887    3.8609    2.9720 O   0  0  0  0  0  0  0  0  0  0  0  0
   -1.1191    4.4355    4.1949 C   0  0  0  0  0  0  0  0  0  0  0  0
   -2.2892    4.8990    4.1109 O   0  0  0  0  0  0  0  0  0  0  0  0
   -0.6355    4.0639    5.4415 O   0  0  0  0  0  0  0  0  0  0  0  0
   -1.5533    3.8265    6.7050 C   0  0  0  0  0  0  0  0  0  0  0  0
    5.2853   -0.0277    1.5717 O   0  0  0  0  0  0  0  0  0  0  0  0
    3.2384   -2.8853    2.1218 C   0  0  0  0  0  0  0  0  0  0  0  0
    3.3969   -3.1889   -1.7545 O   0  0  0  0  0  0  0  0  0  0  0  0
    1.8972   -2.6198   -2.5972 C   0  0  0  0  0  0  0  0  0  0  0  0
    1.5118   -2.2280   -3.6916 O   0  0  0  0  0  0  0  0  0  0  0  0
    0.8633   -1.9593   -1.5490 C   0  0  0  0  0  0  0  0  0  0  0  0
    1.4413   -3.2119    0.8322 H   0  0  0  0  0  0  0  0  0  0  0  0
   -0.5099   -2.5627    0.2166 H   0  0  0  0  0  0  0  0  0  0  0  0
   -0.0984   -1.8674    0.9579 H   0  0  0  0  0  0  0  0  0  0  0  0
    4.4015   -3.3557   -0.1676 H   0  0  0  0  0  0  0  0  0  0  0  0
    5.5427   -0.5070    3.3861 H   0  0  0  0  0  0  0  0  0  0  0  0
    2.4374    0.4553    4.9008 H   0  0  0  0  0  0  0  0  0  0  0  0
    2.2371   -0.1703    3.6478 H   0  0  0  0  0  0  0  0  0  0  0  0
    3.7278    2.3838    4.0104 H   0  0  0  0  0  0  0  0  0  0  0  0
    2.0385    2.2544    1.2270 H   0  0  0  0  0  0  0  0  0  0  0  0
   -0.6249    3.0522    0.9685 H   0  0  0  0  0  0  0  0  0  0  0  0
    5.2422    2.1725   -2.1125 H   0  0  0  0  0  0  0  0  0  0  0  0
    5.8505    1.8852   -0.2595 H   0  0  0  0  0  0  0  0  0  0  0  0
    6.4376    0.9855   -1.3480 H   0  0  0  0  0  0  0  0  0  0  0  0
    5.6117    0.6260   -2.7557 H   0  0  0  0  0  0  0  0  0  0  0  0
    5.7478   -0.3686   -0.9195 H   0  0  0  0  0  0  0  0  0  0  0  0
    5.4445   -0.7163   -2.4667 H   0  0  0  0  0  0  0  0  0  0  0  0
   -0.7066    0.3878   -1.2543 H   0  0  0  0  0  0  0  0  0  0  0  0
    0.1767   -0.1105   -1.5887 H   0  0  0  0  0  0  0  0  0  0  0  0
    2.2234    1.5280   -2.1238 H   0  0  0  0  0  0  0  0  0  0  0  0
    3.0385   -2.9480    0.4077 H   0  0  0  0  0  0  0  0  0  0  0  0
    1.7212   -1.5480    2.5072 H   0  0  0  0  0  0  0  0  0  0  0  0
   -0.3290   -2.4375    2.5976 H   0  0  0  0  0  0  0  0  0  0  0  0
   -3.0323   -1.6465    2.4535 H   0  0  0  0  0  0  0  0  0  0  0  0
   -3.6962    0.8955    0.8863 H   0  0  0  0  0  0  0  0  0  0  0  0
   -1.6695    2.1514   -0.1837 H   0  0  0  0  0  0  0  0  0  0  0  0
    0.9602    0.8940    0.2965 H   0  0  0  0  0  0  0  0  0  0  0  0
    3.5423    1.1517    0.8946 H   0  0  0  0  0  0  0  0  0  0  0  0
    3.0224   -1.9712    3.4735 H   0  0  0  0  0  0  0  0  0  0  0  0
    3.0845   -4.3054    4.5943 H   0  0  0  0  0  0  0  0  0  0  0  0
    2.8325   -3.7710    6.9991 H   0  0  0  0  0  0  0  0  0  0  0  0
    3.3038   -1.3723    7.7309 H   0  0  0  0  0  0  0  0  0  0  0  0
    3.2258    0.3061    6.2958 H   0  0  0  0  0  0  0  0  0  0  0  0
    0.2258   -2.6171   -0.8161 H   0  0  0  0  0  0  0  0  0  0  0  0
   -0.5096    3.6449   -1.6036 H   0  0  0  0  0  0  0  0  0  0  0  0
   -2.1804    2.5205    2.6830 H   0  0  0  0  0  0  0  0  0  0  0  0
   -2.6688    3.0157    4.8748 H   0  0  0  0  0  0  0  0  0  0  0  0
   -0.9651    1.9412    6.6651 H   0  0  0  0  0  0  0  0  0  0  0  0
    0.1825    0.3064    6.4803 H   0  0  0  0  0  0  0  0  0  0  0  0
    0.7059   -0.3616    4.1644 H   0  0  0  0  0  0  0  0  0  0  0  0
    1.9613    4.5120    4.2189 H   0  0  0  0  0  0  0  0  0  0  0  0
    2.8233    3.7604    2.8899 H   0  0  0  0  0  0  0  0  0  0  0  0
   -1.7764    4.7825    7.0514 H   0  0  0  0  0  0  0  0  0  0  0  0
   -2.5028    3.1800    6.5973 H   0  0  0  0  0  0  0  0  0  0  0  0
   -0.9655    3.3164    7.5171 H   0  0  0  0  0  0  0  0  0  0  0  0
    4.6208   -0.3144    0.9909 H   0  0  0  0  0  0  0  0  0  0  0  0
    4.1101   -3.5882    1.9079 H   0  0  0  0  0  0  0  0  0  0  0  0
    3.1679   -3.5458    2.9630 H   0  0  0  0  0  0  0  0  0  0  0  0
    2.2561   -3.2817    2.0298 H   0  0  0  0  0  0  0  0  0  0  0  0
    0.5166   -3.3919   -0.3463 H   0  0  0  0  0  0  0  0  0  0  0  0
    0.7968   -1.1068   -0.8152 H   0  0  0  0  0  0  0  0  0  0  0  0
   -0.3398   -1.6313   -1.6342 H   0  0  0  0  0  0  0  0  0  0  0  0
  1 64  1  0  0  0  0
  1 65  1  0  0  0  0
  1 66  1  0  0  0  0
  1  2  1  0  0  0  0
  2  3  2  0  0  0  0
  2 19  1  0  0  0  0
  3  4  1  0  0  0  0
  3 15  1  0  0  0  0
  4  5  1  0  0  0  0
  4 67  1  1  0  0  0
  4 60  1  0  0  0  0
  5  7  1  0  0  0  0
  5  6  2  0  0  0  0
  7  8  1  0  0  0  0
  7 12  1  0  0  0  0
  7 59  1  6  0  0  0
  8  9  1  0  0  0  0
  8 68  1  1  0  0  0
  8 58  1  0  0  0  0
  9 10  1  0  0  0  0
  9 69  1  0  0  0  0
  9 70  1  0  0  0  0
 10 11  1  0  0  0  0
 10 52  1  0  0  0  0
 10 71  1  1  0  0  0
 11 51  1  0  0  0  0
 11 53  1  1  0  0  0
 12 11  1  0  0  0  0
 12 13  1  0  0  0  0
 12 72  1  1  0  0  0
 13 14  1  0  0  0  0
 13 73  1  1  0  0  0
 13 42  1  0  0  0  0
 14 15  1  0  0  0  0
 14 18  1  0  0  0  0
 14 41  1  6  0  0  0
 15 16  1  0  0  0  0
 15 17  1  0  0  0  0
 16 74  1  0  0  0  0
 16 75  1  0  0  0  0
 16 76  1  0  0  0  0
 17 77  1  0  0  0  0
 17 78  1  0  0  0  0
 17 79  1  0  0  0  0
 18 19  1  0  0  0  0
 18 80  1  0  0  0  0
 18 81  1  0  0  0  0
 19 82  1  1  0  0  0
 19 20  1  0  0  0  0
 20 21  1  0  0  0  0
 21 22  2  0  0  0  0
 21 23  1  0  0  0  0
 23 40  1  0  0  0  0
 23 83  1  1  0  0  0
 24 31  1  0  0  0  0
 24 84  1  1  0  0  0
 24 25  1  0  0  0  0
 24 23  1  0  0  0  0
 25 26  2  0  0  0  0
 25 30  1  0  0  0  0
 26 27  1  0  0  0  0
 26 85  1  0  0  0  0
 27 28  2  0  0  0  0
 27 86  1  0  0  0  0
 28 29  1  0  0  0  0
 28 87  1  0  0  0  0
 29 30  2  0  0  0  0
 29 88  1  0  0  0  0
 30 89  1  0  0  0  0
 31 32  1  0  0  0  0
 31 90  1  0  0  0  0
 32 33  2  0  0  0  0
 32 34  1  0  0  0  0
 34 35  2  0  0  0  0
 34 39  1  0  0  0  0
 35 36  1  0  0  0  0
 35 91  1  0  0  0  0
 36 37  2  0  0  0  0
 36 92  1  0  0  0  0
 37 38  1  0  0  0  0
 37 93  1  0  0  0  0
 38 39  2  0  0  0  0
 38 94  1  0  0  0  0
 39 95  1  0  0  0  0
 40 96  1  0  0  0  0
 41 97  1  0  0  0  0
 42 43  1  0  0  0  0
 43 44  2  0  0  0  0
 43 45  1  0  0  0  0
 45 46  2  0  0  0  0
 45 50  1  0  0  0  0
 46 47  1  0  0  0  0
 46 98  1  0  0  0  0
 47 48  2  0  0  0  0
 47 99  1  0  0  0  0
 48 49  1  0  0  0  0
 48100  1  0  0  0  0
 49 50  2  0  0  0  0
 49101  1  0  0  0  0
 50102  1  0  0  0  0
 51 52  1  0  0  0  0
 51103  1  0  0  0  0
 51104  1  0  0  0  0
 53 54  1  0  0  0  0
 54 55  2  0  0  0  0
 54 56  1  0  0  0  0
 56 57  1  0  0  0  0
 57105  1  0  0  0  0
 57106  1  0  0  0  0
 57107  1  0  0  0  0
 58108  1  0  0  0  0
 59109  1  0  0  0  0
 59110  1  0  0  0  0
 59111  1  0  0  0  0
 60 61  1  0  0  0  0
 61 62  2  0  0  0  0
 61 63  1  0  0  0  0
 63112  1  0  0  0  0
 63113  1  0  0  0  0
 63114  1  0  0  0  0
M  END
>  <DRUGBANK_ID>
DB12619

>  <COMMON_NAME>
BMS-188797

>  <CAS_NUMBER>
172481-83-3

>  <UNII>
0HG7S0S581

>  <SYNONYMS>
4-desacetylpaclitaxel 4-methyl carbonate

$$$$
