I40
 OpenBabel10282417173D

 42 45  0  0  0  0  0  0  0  0999 V2000
   -2.3645    1.4602   -0.0370 C   0  0  0  0  0  0  0  0  0  0  0  0
   -3.6763    0.7220    0.1966 C   0  0  0  0  0  0  0  0  0  0  0  0
   -3.6388   -0.6392   -0.4729 C   0  0  0  0  0  0  0  0  0  0  0  0
   -2.5045   -1.4793    0.1151 C   0  0  0  0  0  0  0  0  0  0  0  0
    0.0888   -1.4940    0.0850 C   0  0  0  0  0  0  0  0  0  0  0  0
    2.6797   -1.1959    0.0192 C   0  0  0  0  0  0  0  0  0  0  0  0
    3.8098   -0.4004   -0.0831 C   0  0  0  0  0  0  0  0  0  0  0  0
    3.6442    0.9578   -0.1154 C   0  0  0  0  0  0  0  0  0  0  0  0
    2.3507    1.4704   -0.0457 C   0  0  0  0  0  0  0  0  0  0  0  0
    0.0344    1.3165    0.0457 N   0  0  0  0  0  0  0  0  0  0  0  0
   -1.1188    0.6133    0.0655 C   0  0  0  0  0  0  0  0  0  0  0  0
   -1.1518   -0.7863    0.0712 C   0  0  0  0  0  0  0  0  0  0  0  0
    1.3262   -0.7326    0.0431 C   0  0  0  0  0  0  0  0  0  0  0  0
    1.2041    0.6781    0.0207 C   0  0  0  0  0  0  0  0  0  0  0  0
    0.0225   -2.8879    0.0826 N   0  0  0  0  0  0  0  0  0  0  0  0
    1.2302   -8.8468    2.2336 I   0  0  0  0  0  0  0  0  0  0  0  0
    1.0754   -3.8639    0.0409 C   0  0  0  0  0  0  0  0  0  0  0  0
    1.1788   -4.6286    1.3239 C   0  0  0  0  0  0  0  0  0  0  0  0
    1.1931   -6.0215    1.2446 C   0  0  0  0  0  0  0  0  0  0  0  0
    1.2761   -6.7820    2.4016 C   0  0  0  0  0  0  0  0  0  0  0  0
    1.3724   -6.1616    3.6463 C   0  0  0  0  0  0  0  0  0  0  0  0
    1.4362   -4.7686    3.7297 C   0  0  0  0  0  0  0  0  0  0  0  0
    1.3564   -4.0009    2.5685 C   0  0  0  0  0  0  0  0  0  0  0  0
   -2.3813    1.8911   -1.0466 H   0  0  0  0  0  0  0  0  0  0  0  0
   -2.2972    2.2987    0.6670 H   0  0  0  0  0  0  0  0  0  0  0  0
   -4.5099    1.3153   -0.1980 H   0  0  0  0  0  0  0  0  0  0  0  0
   -3.8534    0.6004    1.2722 H   0  0  0  0  0  0  0  0  0  0  0  0
   -4.5972   -1.1530   -0.3351 H   0  0  0  0  0  0  0  0  0  0  0  0
   -3.4898   -0.5189   -1.5536 H   0  0  0  0  0  0  0  0  0  0  0  0
   -2.7351   -1.7211    1.1616 H   0  0  0  0  0  0  0  0  0  0  0  0
   -2.4947   -2.4161   -0.4502 H   0  0  0  0  0  0  0  0  0  0  0  0
    2.9899   -2.2168    0.0917 H   0  0  0  0  0  0  0  0  0  0  0  0
    4.7862   -0.8731   -0.1260 H   0  0  0  0  0  0  0  0  0  0  0  0
    4.5141    1.5977   -0.1878 H   0  0  0  0  0  0  0  0  0  0  0  0
    2.2297    2.5527   -0.0564 H   0  0  0  0  0  0  0  0  0  0  0  0
   -0.8897   -3.3139    0.1880 H   0  0  0  0  0  0  0  0  0  0  0  0
    0.9215   -4.5122   -0.8274 H   0  0  0  0  0  0  0  0  0  0  0  0
    2.0638   -3.5199   -0.1443 H   0  0  0  0  0  0  0  0  0  0  0  0
    1.1422   -6.4938    0.2665 H   0  0  0  0  0  0  0  0  0  0  0  0
    1.4017   -6.7503    4.5578 H   0  0  0  0  0  0  0  0  0  0  0  0
    1.5384   -4.2828    4.6978 H   0  0  0  0  0  0  0  0  0  0  0  0
    1.4318   -2.9153    2.6381 H   0  0  0  0  0  0  0  0  0  0  0  0
  1  2  1  0  0  0  0
  1 11  1  0  0  0  0
  1 24  1  0  0  0  0
  1 25  1  0  0  0  0
  2  3  1  0  0  0  0
  2 26  1  0  0  0  0
  2 27  1  0  0  0  0
  3  4  1  0  0  0  0
  3 28  1  0  0  0  0
  3 29  1  0  0  0  0
  4 12  1  0  0  0  0
  4 30  1  0  0  0  0
  4 31  1  0  0  0  0
  5 12  2  0  0  0  0
  5 13  1  0  0  0  0
  5 15  1  0  0  0  0
  6  7  2  0  0  0  0
  6 13  1  0  0  0  0
  6 32  1  0  0  0  0
  7  8  1  0  0  0  0
  7 33  1  0  0  0  0
  8  9  2  0  0  0  0
  8 34  1  0  0  0  0
  9 14  1  0  0  0  0
  9 35  1  0  0  0  0
 10 11  2  0  0  0  0
 10 14  1  0  0  0  0
 11 12  1  0  0  0  0
 13 14  2  0  0  0  0
 15 17  1  0  0  0  0
 15 36  1  0  0  0  0
 16 20  1  0  0  0  0
 17 18  1  0  0  0  0
 17 37  1  0  0  0  0
 17 38  1  0  0  0  0
 18 19  2  0  0  0  0
 18 23  1  0  0  0  0
 19 20  1  0  0  0  0
 19 39  1  0  0  0  0
 20 21  2  0  0  0  0
 21 22  1  0  0  0  0
 21 40  1  0  0  0  0
 22 23  2  0  0  0  0
 22 41  1  0  0  0  0
 23 42  1  0  0  0  0
M  END
>  <DRUGBANK_ID>
DB07940

>  <COMMON_NAME>
9-(3-IODOBENZYLAMINO)-1,2,3,4-TETRAHYDROACRIDINE

$$$$
