S06
 OpenBabel10282417173D

 46 49  0  0  0  0  0  0  0  0999 V2000
   -1.1587   -1.3327   -0.1250 C   0  0  0  0  0  0  0  0  0  0  0  0
    0.0500   -0.6630   -0.0341 C   0  0  0  0  0  0  0  0  0  0  0  0
    1.2572   -1.3666   -0.0046 C   0  0  0  0  0  0  0  0  0  0  0  0
    2.4643   -0.6798   -0.0117 C   0  0  0  0  0  0  0  0  0  0  0  0
    2.4680    0.7157   -0.0008 C   0  0  0  0  0  0  0  0  0  0  0  0
    1.2668    1.4242    0.0279 C   0  0  0  0  0  0  0  0  0  0  0  0
    0.0460    0.7549   -0.0026 C   0  0  0  0  0  0  0  0  0  0  0  0
   -1.1704    1.4490   -0.0202 C   0  0  0  0  0  0  0  0  0  0  0  0
   -2.3728    0.7641   -0.1075 C   0  0  0  0  0  0  0  0  0  0  0  0
   -2.3700   -0.6316   -0.2010 C   0  0  0  0  0  0  0  0  0  0  0  0
   -3.6778   -1.3611   -0.2353 C   0  0  2  0  0  0  0  0  0  0  0  0
   -3.8156   -2.0875    1.0630 C   0  0  0  0  0  0  0  0  0  0  0  0
   -3.8352   -2.3459   -1.2905 N   0  0  0  0  0  0  0  0  0  0  0  0
   -3.5290   -3.6337   -0.6642 O   0  0  0  0  0  0  0  0  0  0  0  0
   -3.8386   -3.5668    0.7544 C   0  0  2  0  0  0  0  0  0  0  0  0
   -5.1563   -4.1031    1.0169 O   0  0  0  0  0  0  0  0  0  0  0  0
   -5.5030   -4.2577    2.4098 C   0  0  2  0  0  0  0  0  0  0  0  0
   -5.7033   -2.9241    3.1595 C   0  0  0  0  0  0  0  0  0  0  0  0
   -5.8980   -3.0969    4.5513 O   0  0  0  0  0  0  0  0  0  0  0  0
   -4.5081   -5.1784    3.1390 C   0  0  1  0  0  0  0  0  0  0  0  0
   -4.5770   -6.5021    2.5896 O   0  0  0  0  0  0  0  0  0  0  0  0
   -3.0790   -4.6308    2.9810 C   0  0  2  0  0  0  0  0  0  0  0  0
   -2.8668   -3.4136    3.7047 O   0  0  0  0  0  0  0  0  0  0  0  0
   -2.7611   -4.4243    1.4849 C   0  0  1  0  0  0  0  0  0  0  0  0
   -2.6820   -5.7128    0.8398 O   0  0  0  0  0  0  0  0  0  0  0  0
   -4.4984   -0.6381   -0.3304 H   0  0  0  0  0  0  0  0  0  0  0  0
   -6.4738   -4.7681    2.4022 H   0  0  0  0  0  0  0  0  0  0  0  0
   -4.7667   -5.2620    4.2000 H   0  0  0  0  0  0  0  0  0  0  0  0
   -2.3785   -5.3656    3.3942 H   0  0  0  0  0  0  0  0  0  0  0  0
   -1.7697   -3.9744    1.3781 H   0  0  0  0  0  0  0  0  0  0  0  0
   -1.1634   -2.4222   -0.1290 H   0  0  0  0  0  0  0  0  0  0  0  0
    1.2633   -2.4573   -0.0051 H   0  0  0  0  0  0  0  0  0  0  0  0
    3.4001   -1.2295   -0.0383 H   0  0  0  0  0  0  0  0  0  0  0  0
    3.4094    1.2539   -0.0198 H   0  0  0  0  0  0  0  0  0  0  0  0
    1.2889    2.5121    0.0503 H   0  0  0  0  0  0  0  0  0  0  0  0
   -1.1908    2.5366    0.0189 H   0  0  0  0  0  0  0  0  0  0  0  0
   -3.3111    1.3151   -0.0916 H   0  0  0  0  0  0  0  0  0  0  0  0
   -4.7654   -1.7094    1.4246 H   0  0  0  0  0  0  0  0  0  0  0  0
   -3.0370   -1.8449    1.7953 H   0  0  0  0  0  0  0  0  0  0  0  0
   -3.0751   -2.2329   -1.9641 H   0  0  0  0  0  0  0  0  0  0  0  0
   -4.8200   -2.2988    3.1340 H   0  0  0  0  0  0  0  0  0  0  0  0
   -6.5034   -2.3290    2.7045 H   0  0  0  0  0  0  0  0  0  0  0  0
   -6.8076   -3.4044    4.6854 H   0  0  0  0  0  0  0  0  0  0  0  0
   -5.4841   -6.8379    2.6892 H   0  0  0  0  0  0  0  0  0  0  0  0
   -3.5518   -3.3091    4.3951 H   0  0  0  0  0  0  0  0  0  0  0  0
   -3.6110   -6.0025    0.7178 H   0  0  0  0  0  0  0  0  0  0  0  0
  1 10  2  0  0  0  0
  1  2  1  0  0  0  0
  1 31  1  0  0  0  0
  2  7  1  0  0  0  0
  3  2  2  0  0  0  0
  3  4  1  0  0  0  0
  3 32  1  0  0  0  0
  4  5  2  0  0  0  0
  4 33  1  0  0  0  0
  5  6  1  0  0  0  0
  5 34  1  0  0  0  0
  6 35  1  0  0  0  0
  7  8  1  0  0  0  0
  7  6  2  0  0  0  0
  8 36  1  0  0  0  0
  9  8  2  0  0  0  0
  9 37  1  0  0  0  0
 10  9  1  0  0  0  0
 11 10  1  0  0  0  0
 11 26  1  6  0  0  0
 12 11  1  0  0  0  0
 12 38  1  0  0  0  0
 12 39  1  0  0  0  0
 13 11  1  0  0  0  0
 13 40  1  0  0  0  0
 14 13  1  0  0  0  0
 15 16  1  1  0  0  0
 15 14  1  0  0  0  0
 15 12  1  0  0  0  0
 17 16  1  0  0  0  0
 17 27  1  1  0  0  0
 17 18  1  0  0  0  0
 18 41  1  0  0  0  0
 18 42  1  0  0  0  0
 19 18  1  0  0  0  0
 19 43  1  0  0  0  0
 20 17  1  0  0  0  0
 20 28  1  1  0  0  0
 20 21  1  0  0  0  0
 21 44  1  0  0  0  0
 22 20  1  0  0  0  0
 22 24  1  0  0  0  0
 22 23  1  0  0  0  0
 22 29  1  1  0  0  0
 23 45  1  0  0  0  0
 24 15  1  0  0  0  0
 24 25  1  0  0  0  0
 24 30  1  6  0  0  0
 25 46  1  0  0  0  0
M  END
>  <DRUGBANK_ID>
DB08500

>  <COMMON_NAME>
(3S,5R,7R,8S,9S,10R)-7-(hydroxymethyl)-3-(2-naphthyl)-1,6-dioxa-2-azaspiro[4.5]decane-8,9,10-triol

$$$$
