
 OpenBabel10282417213D

 49 53  0  0  1  0  0  0  0  0999 V2000
   -0.4765   -0.6379   -2.6940 C   0  0  0  0  0  0  0  0  0  0  0  0
   -1.9531   -1.1578   -4.3401 C   0  0  2  0  0  0  0  0  0  0  0  0
   -3.3795   -1.3262   -6.3311 C   0  0  0  0  0  0  0  0  0  0  0  0
   -4.5496   -1.8198   -8.2122 C   0  0  0  0  0  0  0  0  0  0  0  0
   -3.9002   -2.4466   -9.6233 C   0  0  0  0  0  0  0  0  0  0  0  0
   -3.6749   -3.1179   -8.4208 C   0  0  0  0  0  0  0  0  0  0  0  0
   -2.5072   -2.6106   -7.9369 C   0  0  0  0  0  0  0  0  0  0  0  0
   -1.7468   -1.7433   -8.6887 C   0  0  0  0  0  0  0  0  0  0  0  0
   -0.5919   -1.3805   -8.1753 F   0  0  0  0  0  0  0  0  0  0  0  0
   -2.0962   -1.4010   -9.9783 C   0  0  0  0  0  0  0  0  0  0  0  0
   -3.2572   -1.6758  -10.5118 N   0  0  0  0  0  0  0  0  0  0  0  0
   -5.1316   -3.5563   -7.4022 C   0  0  1  0  0  0  0  0  0  0  0  0
   -5.4830   -4.7855   -8.1330 C   0  0  0  0  0  0  0  0  0  0  0  0
   -4.6790   -5.7750   -7.3518 C   0  0  0  0  0  0  0  0  0  0  0  0
   -3.8828   -4.9831   -6.2674 C   0  0  0  0  0  0  0  0  0  0  0  0
   -4.6405   -3.7661   -6.0899 N   0  0  0  0  0  0  0  0  0  0  0  0
   -4.8475   -2.9324   -4.9636 C   0  0  0  0  0  0  0  0  0  0  0  0
   -3.8924   -2.4572   -4.2092 N   0  0  0  0  0  0  0  0  0  0  0  0
   -4.2000   -1.6436   -3.1235 C   0  0  0  0  0  0  0  0  0  0  0  0
   -3.5229   -0.8115   -2.2794 C   0  0  0  0  0  0  0  0  0  0  0  0
   -4.1993   -0.3255   -1.2591 C   0  0  0  0  0  0  0  0  0  0  0  0
   -5.4577   -0.5276   -1.5781 N   0  0  0  0  0  0  0  0  0  0  0  0
   -5.4450   -1.3184   -2.7149 N   0  0  0  0  0  0  0  0  0  0  0  0
   -6.4708   -1.8174   -3.4800 C   0  0  0  0  0  0  0  0  0  0  0  0
   -6.2360   -2.5628   -4.5712 C   0  0  0  0  0  0  0  0  0  0  0  0
   -2.3382   -0.2605   -2.5040 C   0  0  0  0  0  0  0  0  0  0  0  0
   -1.8282    0.6156   -3.2567 O   0  0  0  0  0  0  0  0  0  0  0  0
   -1.8635   -1.5736   -2.4800 N   0  0  0  0  0  0  0  0  0  0  0  0
   -0.3500   -0.6904   -1.1124 H   0  0  0  0  0  0  0  0  0  0  0  0
   -0.1657    0.3984   -1.5998 H   0  0  0  0  0  0  0  0  0  0  0  0
    0.6893   -0.6160   -1.7239 H   0  0  0  0  0  0  0  0  0  0  0  0
   -0.7170   -1.4524   -4.0857 H   0  0  0  0  0  0  0  0  0  0  0  0
   -4.5851   -1.2084   -7.2192 H   0  0  0  0  0  0  0  0  0  0  0  0
   -4.2768   -0.5512   -7.2387 H   0  0  0  0  0  0  0  0  0  0  0  0
   -5.0913   -2.4579   -9.5965 H   0  0  0  0  0  0  0  0  0  0  0  0
   -5.8207   -2.5481   -8.8941 H   0  0  0  0  0  0  0  0  0  0  0  0
   -2.3706   -2.6993   -6.8830 H   0  0  0  0  0  0  0  0  0  0  0  0
   -1.3717   -0.9418  -10.6002 H   0  0  0  0  0  0  0  0  0  0  0  0
   -6.0154   -2.8058   -7.4054 H   0  0  0  0  0  0  0  0  0  0  0  0
   -6.5586   -4.9179   -8.0879 H   0  0  0  0  0  0  0  0  0  0  0  0
   -5.2171   -4.7764   -9.2033 H   0  0  0  0  0  0  0  0  0  0  0  0
   -5.3616   -6.4864   -6.8967 H   0  0  0  0  0  0  0  0  0  0  0  0
   -4.0221   -6.3226   -8.0280 H   0  0  0  0  0  0  0  0  0  0  0  0
   -3.7817   -5.5560   -5.3648 H   0  0  0  0  0  0  0  0  0  0  0  0
   -2.8743   -4.8068   -6.6618 H   0  0  0  0  0  0  0  0  0  0  0  0
   -3.7617    0.2787   -0.4723 H   0  0  0  0  0  0  0  0  0  0  0  0
   -7.4724   -1.6054   -3.1715 H   0  0  0  0  0  0  0  0  0  0  0  0
   -7.0155   -2.9763   -5.1684 H   0  0  0  0  0  0  0  0  0  0  0  0
   -1.5912   -1.4566   -1.1678 H   0  0  0  0  0  0  0  0  0  0  0  0
  1 29  1  0  0  0  0
  1 30  1  0  0  0  0
  1 31  1  0  0  0  0
  2  1  1  0  0  0  0
  2  3  1  0  0  0  0
  2 28  1  0  0  0  0
  2 32  1  6  0  0  0
  3  4  1  0  0  0  0
  3 33  1  0  0  0  0
  3 34  1  0  0  0  0
  4  5  1  0  0  0  0
  4 35  1  0  0  0  0
  4 36  1  0  0  0  0
  5  6  2  0  0  0  0
  5 11  1  0  0  0  0
  6  7  1  0  0  0  0
  7  8  2  0  0  0  0
  7 37  1  0  0  0  0
  8  9  1  0  0  0  0
  8 10  1  0  0  0  0
 10 11  2  0  0  0  0
 10 38  1  0  0  0  0
 12  6  1  0  0  0  0
 12 13  1  0  0  0  0
 12 16  1  0  0  0  0
 12 39  1  6  0  0  0
 13 14  1  0  0  0  0
 13 40  1  0  0  0  0
 13 41  1  0  0  0  0
 14 15  1  0  0  0  0
 14 42  1  0  0  0  0
 14 43  1  0  0  0  0
 15 16  1  0  0  0  0
 15 44  1  0  0  0  0
 15 45  1  0  0  0  0
 16 17  1  0  0  0  0
 17 18  2  0  0  0  0
 17 25  1  0  0  0  0
 18 19  1  0  0  0  0
 19 20  2  0  0  0  0
 19 23  1  0  0  0  0
 20 21  1  0  0  0  0
 20 26  1  0  0  0  0
 21 22  2  0  0  0  0
 21 46  1  0  0  0  0
 22 23  1  0  0  0  0
 23 24  1  0  0  0  0
 24 25  2  0  0  0  0
 24 47  1  0  0  0  0
 25 48  1  0  0  0  0
 26 27  2  0  0  0  0
 26 28  1  0  0  0  0
 28 49  1  0  0  0  0
M  END
>  <DRUGBANK_ID>
DB14896

>  <COMMON_NAME>
Selitrectinib

>  <CAS_NUMBER>
2097002-61-2

>  <UNII>
0J45910S3X

>  <SYNONYMS>
Selitrectinib

$$$$
