CPU
 OpenBabel10282417143D

 43 44  0  0  0  0  0  0  0  0999 V2000
    1.4042   -0.3438    0.0766 C   0  0  0  0  0  0  0  0  0  0  0  0
    0.5113   -1.4116    0.0231 C   0  0  0  0  0  0  0  0  0  0  0  0
   -0.8680   -1.1929    0.0043 C   0  0  0  0  0  0  0  0  0  0  0  0
   -1.3621    0.0886    0.1527 C   0  0  0  0  0  0  0  0  0  0  0  0
   -0.4648    1.1170    0.4068 C   0  0  0  0  0  0  0  0  0  0  0  0
    0.9214    0.9482    0.2121 C   0  0  0  0  0  0  0  0  0  0  0  0
   -0.1022    4.5158   -0.3772 N   0  0  0  0  0  0  0  0  0  0  0  0
    1.8688    2.1059   -0.0171 C   0  0  0  0  0  0  0  0  0  0  0  0
    1.5154    2.8157   -1.2957 C   0  0  0  0  0  0  0  0  0  0  0  0
    0.1086    3.3605   -1.2031 C   0  0  0  0  0  0  0  0  0  0  0  0
   -0.5362    5.7484   -0.6996 C   0  0  0  0  0  0  0  0  0  0  0  0
   -0.6736    6.5793    0.2166 O   0  0  0  0  0  0  0  0  0  0  0  0
   -0.8211    6.1193   -1.9664 N   0  0  0  0  0  0  0  0  0  0  0  0
   -0.8433    5.3608   -3.2272 C   0  0  0  0  0  0  0  0  0  0  0  0
   -1.9789    4.2928   -3.1550 C   0  0  0  0  0  0  0  0  0  0  0  0
   -1.8114    3.1413   -4.1418 C   0  0  0  0  0  0  0  0  0  0  0  0
   -0.4060    2.5478   -4.2080 C   0  0  0  0  0  0  0  0  0  0  0  0
    0.6756    3.6229   -4.4461 C   0  0  0  0  0  0  0  0  0  0  0  0
    0.6003    4.9146   -3.6091 C   0  0  0  0  0  0  0  0  0  0  0  0
    2.4743   -0.5164    0.0087 H   0  0  0  0  0  0  0  0  0  0  0  0
    0.8991   -2.4211   -0.0349 H   0  0  0  0  0  0  0  0  0  0  0  0
   -1.5589   -2.0229   -0.0916 H   0  0  0  0  0  0  0  0  0  0  0  0
   -2.4273    0.2991    0.0766 H   0  0  0  0  0  0  0  0  0  0  0  0
   -0.9005    2.0883    0.6358 H   0  0  0  0  0  0  0  0  0  0  0  0
    0.0128    4.3905    0.6192 H   0  0  0  0  0  0  0  0  0  0  0  0
    1.8439    2.8221    0.8051 H   0  0  0  0  0  0  0  0  0  0  0  0
    2.9035    1.7644   -0.1414 H   0  0  0  0  0  0  0  0  0  0  0  0
    2.2455    3.6092   -1.4982 H   0  0  0  0  0  0  0  0  0  0  0  0
    1.5941    2.1286   -2.1526 H   0  0  0  0  0  0  0  0  0  0  0  0
   -0.1263    3.6174   -2.1763 H   0  0  0  0  0  0  0  0  0  0  0  0
   -0.7032    2.6488   -1.1231 H   0  0  0  0  0  0  0  0  0  0  0  0
   -1.1371    7.0795   -2.0163 H   0  0  0  0  0  0  0  0  0  0  0  0
   -1.1367    6.0586   -4.0177 H   0  0  0  0  0  0  0  0  0  0  0  0
   -2.1066    3.8732   -2.1461 H   0  0  0  0  0  0  0  0  0  0  0  0
   -2.9518    4.7806   -3.2887 H   0  0  0  0  0  0  0  0  0  0  0  0
   -2.5218    2.3443   -3.8835 H   0  0  0  0  0  0  0  0  0  0  0  0
   -2.0743    3.5068   -5.1355 H   0  0  0  0  0  0  0  0  0  0  0  0
   -0.2182    1.9396   -3.3134 H   0  0  0  0  0  0  0  0  0  0  0  0
   -0.3550    1.8049   -5.0120 H   0  0  0  0  0  0  0  0  0  0  0  0
    1.6650    3.1611   -4.3170 H   0  0  0  0  0  0  0  0  0  0  0  0
    0.6054    3.9278   -5.4907 H   0  0  0  0  0  0  0  0  0  0  0  0
    1.1793    5.7250   -4.0636 H   0  0  0  0  0  0  0  0  0  0  0  0
    1.2112    4.8171   -2.7072 H   0  0  0  0  0  0  0  0  0  0  0  0
  1  2  2  0  0  0  0
  1  6  1  0  0  0  0
  1 20  1  0  0  0  0
  2  3  1  0  0  0  0
  2 21  1  0  0  0  0
  3  4  2  0  0  0  0
  3 22  1  0  0  0  0
  4  5  1  0  0  0  0
  4 23  1  0  0  0  0
  5  6  2  0  0  0  0
  5 24  1  0  0  0  0
  6  8  1  0  0  0  0
  7 10  1  0  0  0  0
  7 11  1  0  0  0  0
  7 25  1  0  0  0  0
  8  9  1  0  0  0  0
  8 26  1  0  0  0  0
  8 27  1  0  0  0  0
  9 10  1  0  0  0  0
  9 28  1  0  0  0  0
  9 29  1  0  0  0  0
 10 30  1  0  0  0  0
 10 31  1  0  0  0  0
 11 12  2  0  0  0  0
 11 13  1  0  0  0  0
 13 14  1  0  0  0  0
 13 32  1  0  0  0  0
 14 15  1  0  0  0  0
 14 19  1  0  0  0  0
 14 33  1  0  0  0  0
 15 16  1  0  0  0  0
 15 34  1  0  0  0  0
 15 35  1  0  0  0  0
 16 17  1  0  0  0  0
 16 36  1  0  0  0  0
 16 37  1  0  0  0  0
 17 18  1  0  0  0  0
 17 38  1  0  0  0  0
 17 39  1  0  0  0  0
 18 19  1  0  0  0  0
 18 40  1  0  0  0  0
 18 41  1  0  0  0  0
 19 42  1  0  0  0  0
 19 43  1  0  0  0  0
M  END
>  <DRUGBANK_ID>
DB04213

>  <SECONDARY_ACCESSION_NUMBERS>
EXPT01006

>  <COMMON_NAME>
N-Cyclohexyl-N'-(Propyl)Phenyl Urea

$$$$
