
 OpenBabel10282417183D

 47 49  0  0  0  0  0  0  0  0999 V2000
    0.8591   -0.0460    0.3433 C   0  0  0  0  0  0  0  0  0  0  0  0
    0.4329   -1.2854   -0.2117 O   0  0  0  0  0  0  0  0  0  0  0  0
    0.9680   -1.5788   -1.5131 C   0  0  0  0  0  0  0  0  0  0  0  0
    0.4914   -0.6432   -2.5288 N   0  0  0  0  0  0  0  0  0  0  0  0
    1.0776    0.6021   -2.5036 C   0  0  0  0  0  0  0  0  0  0  0  0
    2.0217    0.8655   -1.7451 O   0  0  0  0  0  0  0  0  0  0  0  0
    0.6596    1.6445   -3.5160 C   0  0  0  0  0  0  0  0  0  0  0  0
   -0.0022    1.0448   -4.7504 C   0  0  0  0  0  0  0  0  0  0  0  0
   -0.2111    1.7346   -5.7573 O   0  0  0  0  0  0  0  0  0  0  0  0
   -0.3469   -0.2911   -4.7127 N   0  0  0  0  0  0  0  0  0  0  0  0
   -0.1163   -1.1631   -3.6590 C   0  0  0  0  0  0  0  0  0  0  0  0
   -0.3720   -2.3730   -3.7594 O   0  0  0  0  0  0  0  0  0  0  0  0
   -0.8785   -0.8318   -5.9517 C   0  0  0  0  0  0  0  0  0  0  0  0
    0.0444   -1.7485   -6.5434 O   0  0  0  0  0  0  0  0  0  0  0  0
    1.2891   -1.1536   -6.8773 C   0  0  0  0  0  0  0  0  0  0  0  0
   -0.2725    2.7106   -2.8706 C   0  0  0  0  0  0  0  0  0  0  0  0
    0.1289    3.4445   -1.7363 C   0  0  0  0  0  0  0  0  0  0  0  0
   -0.5678    4.5911   -1.3442 C   0  0  0  0  0  0  0  0  0  0  0  0
   -1.6836    5.0138   -2.0620 C   0  0  0  0  0  0  0  0  0  0  0  0
   -2.1281    4.2733   -3.1471 C   0  0  0  0  0  0  0  0  0  0  0  0
   -1.4705    3.1008   -3.5022 C   0  0  0  0  0  0  0  0  0  0  0  0
    2.0219    2.2042   -4.0179 C   0  0  0  0  0  0  0  0  0  0  0  0
    2.9836    1.2725   -4.4818 C   0  0  0  0  0  0  0  0  0  0  0  0
    4.2209    1.6826   -4.9430 C   0  0  0  0  0  0  0  0  0  0  0  0
    4.5228    3.0362   -4.9458 C   0  0  0  0  0  0  0  0  0  0  0  0
    3.6035    3.9669   -4.4644 C   0  0  0  0  0  0  0  0  0  0  0  0
    2.3736    3.5530   -3.9693 C   0  0  0  0  0  0  0  0  0  0  0  0
    0.5776    0.0366    1.3916 H   0  0  0  0  0  0  0  0  0  0  0  0
    0.3301    0.7672   -0.1634 H   0  0  0  0  0  0  0  0  0  0  0  0
    1.9491    0.0588    0.2926 H   0  0  0  0  0  0  0  0  0  0  0  0
    2.0676   -1.5834   -1.4903 H   0  0  0  0  0  0  0  0  0  0  0  0
    0.6642   -2.6053   -1.7427 H   0  0  0  0  0  0  0  0  0  0  0  0
   -1.8122   -1.3601   -5.7358 H   0  0  0  0  0  0  0  0  0  0  0  0
   -1.1141   -0.0579   -6.6920 H   0  0  0  0  0  0  0  0  0  0  0  0
    1.1575   -0.3181   -7.5696 H   0  0  0  0  0  0  0  0  0  0  0  0
    1.7935   -0.8144   -5.9742 H   0  0  0  0  0  0  0  0  0  0  0  0
    1.9299   -1.9123   -7.3302 H   0  0  0  0  0  0  0  0  0  0  0  0
    1.0473    3.1951   -1.2042 H   0  0  0  0  0  0  0  0  0  0  0  0
   -0.2018    5.1896   -0.5137 H   0  0  0  0  0  0  0  0  0  0  0  0
   -2.2065    5.9234   -1.7838 H   0  0  0  0  0  0  0  0  0  0  0  0
   -2.9604    4.6192   -3.7549 H   0  0  0  0  0  0  0  0  0  0  0  0
   -1.8944    2.5520   -4.3394 H   0  0  0  0  0  0  0  0  0  0  0  0
    2.7970    0.2017   -4.4306 H   0  0  0  0  0  0  0  0  0  0  0  0
    4.9356    0.9444   -5.2922 H   0  0  0  0  0  0  0  0  0  0  0  0
    5.4865    3.3702   -5.3115 H   0  0  0  0  0  0  0  0  0  0  0  0
    3.8352    5.0268   -4.4756 H   0  0  0  0  0  0  0  0  0  0  0  0
    1.7227    4.3048   -3.5345 H   0  0  0  0  0  0  0  0  0  0  0  0
  1  2  1  0  0  0  0
  1 28  1  0  0  0  0
  1 29  1  0  0  0  0
  1 30  1  0  0  0  0
  2  3  1  0  0  0  0
  3  4  1  0  0  0  0
  3 31  1  0  0  0  0
  3 32  1  0  0  0  0
  4  5  1  0  0  0  0
  4 11  1  0  0  0  0
  5  6  2  0  0  0  0
  5  7  1  0  0  0  0
  7  8  1  0  0  0  0
  7 16  1  0  0  0  0
  7 22  1  0  0  0  0
  8  9  2  0  0  0  0
  8 10  1  0  0  0  0
 10 11  1  0  0  0  0
 10 13  1  0  0  0  0
 11 12  2  0  0  0  0
 13 14  1  0  0  0  0
 13 33  1  0  0  0  0
 13 34  1  0  0  0  0
 14 15  1  0  0  0  0
 15 35  1  0  0  0  0
 15 36  1  0  0  0  0
 15 37  1  0  0  0  0
 16 17  2  0  0  0  0
 16 21  1  0  0  0  0
 17 18  1  0  0  0  0
 17 38  1  0  0  0  0
 18 19  2  0  0  0  0
 18 39  1  0  0  0  0
 19 20  1  0  0  0  0
 19 40  1  0  0  0  0
 20 21  2  0  0  0  0
 20 41  1  0  0  0  0
 21 42  1  0  0  0  0
 22 23  2  0  0  0  0
 22 27  1  0  0  0  0
 23 24  1  0  0  0  0
 23 43  1  0  0  0  0
 24 25  2  0  0  0  0
 24 44  1  0  0  0  0
 25 26  1  0  0  0  0
 25 45  1  0  0  0  0
 26 27  2  0  0  0  0
 26 46  1  0  0  0  0
 27 47  1  0  0  0  0
M  END
>  <DRUGBANK_ID>
DB11654

>  <COMMON_NAME>
T-2000

>  <CAS_NUMBER>
97846-21-4

>  <UNII>
QW2J7VST60

$$$$
