1090
 OpenBabel10282417113D

 49 50  0  0  0  0  0  0  0  0999 V2000
    1.2060    0.0383   -0.1655 N   0  3  0  0  0  0  0  0  0  0  0  0
    7.0281   -1.2018   -0.7989 N   0  3  0  0  0  0  0  0  0  0  0  0
    0.3214   -1.1713    0.1642 C   0  0  0  0  0  0  0  0  0  0  0  0
    0.3123    1.2482    0.1840 C   0  0  0  0  0  0  0  0  0  0  0  0
    7.1290   -1.8908   -2.1840 C   0  0  0  0  0  0  0  0  0  0  0  0
    7.0260   -2.3971    0.2032 C   0  0  0  0  0  0  0  0  0  0  0  0
    2.4635    0.0005    0.6958 C   0  0  0  0  0  0  0  0  0  0  0  0
    5.9149   -0.1623   -0.6044 C   0  0  0  0  0  0  0  0  0  0  0  0
   -1.0492   -0.7400   -0.2820 C   0  0  0  0  0  0  0  0  0  0  0  0
   -1.1190    0.7339    0.0750 C   0  0  0  0  0  0  0  0  0  0  0  0
    6.5600   -3.2948   -2.0244 C   0  0  0  0  0  0  0  0  0  0  0  0
    6.8891   -3.6888   -0.6039 C   0  0  0  0  0  0  0  0  0  0  0  0
    3.2834   -1.2885    0.5277 C   0  0  0  0  0  0  0  0  0  0  0  0
    4.6596   -0.3836   -1.4036 C   0  0  0  0  0  0  0  0  0  0  0  0
    3.9055   -1.5701   -0.8384 C   0  0  0  0  0  0  0  0  0  0  0  0
    1.4805    0.1505   -1.6635 C   0  0  0  0  0  0  0  0  0  0  0  0
    8.2622   -0.3222   -0.5291 C   0  0  0  0  0  0  0  0  0  0  0  0
    0.3538   -1.3202    1.2547 H   0  0  0  0  0  0  0  0  0  0  0  0
    0.7054   -2.0526   -0.3490 H   0  0  0  0  0  0  0  0  0  0  0  0
    0.5213    2.0549   -0.5344 H   0  0  0  0  0  0  0  0  0  0  0  0
    0.5577    1.5989    1.1872 H   0  0  0  0  0  0  0  0  0  0  0  0
    8.1876   -1.9492   -2.4406 H   0  0  0  0  0  0  0  0  0  0  0  0
    6.6074   -1.3095   -2.9472 H   0  0  0  0  0  0  0  0  0  0  0  0
    6.2145   -2.2682    0.9251 H   0  0  0  0  0  0  0  0  0  0  0  0
    7.9796   -2.3996    0.7390 H   0  0  0  0  0  0  0  0  0  0  0  0
    3.0471    0.9036    0.4845 H   0  0  0  0  0  0  0  0  0  0  0  0
    2.1501    0.0683    1.7470 H   0  0  0  0  0  0  0  0  0  0  0  0
    6.2904    0.8294   -0.8916 H   0  0  0  0  0  0  0  0  0  0  0  0
    5.7156   -0.0976    0.4725 H   0  0  0  0  0  0  0  0  0  0  0  0
   -1.1441   -0.8825   -1.3660 H   0  0  0  0  0  0  0  0  0  0  0  0
   -1.8398   -1.3258    0.1902 H   0  0  0  0  0  0  0  0  0  0  0  0
   -1.6823    1.2869   -0.6810 H   0  0  0  0  0  0  0  0  0  0  0  0
   -1.6279    0.8758    1.0352 H   0  0  0  0  0  0  0  0  0  0  0  0
    5.4820   -3.3405   -2.2104 H   0  0  0  0  0  0  0  0  0  0  0  0
    6.9953   -3.9991   -2.7431 H   0  0  0  0  0  0  0  0  0  0  0  0
    6.1229   -4.3531   -0.1823 H   0  0  0  0  0  0  0  0  0  0  0  0
    7.8268   -4.2565   -0.5801 H   0  0  0  0  0  0  0  0  0  0  0  0
    4.0968   -1.2498    1.2628 H   0  0  0  0  0  0  0  0  0  0  0  0
    2.7048   -2.1711    0.8180 H   0  0  0  0  0  0  0  0  0  0  0  0
    4.8538   -0.4757   -2.4756 H   0  0  0  0  0  0  0  0  0  0  0  0
    4.0792    0.5420   -1.3383 H   0  0  0  0  0  0  0  0  0  0  0  0
    4.5838   -2.3987   -0.6820 H   0  0  0  0  0  0  0  0  0  0  0  0
    3.2078   -1.9887   -1.5632 H   0  0  0  0  0  0  0  0  0  0  0  0
    0.5363    0.2361   -2.2100 H   0  0  0  0  0  0  0  0  0  0  0  0
    2.0843    1.0540   -1.8296 H   0  0  0  0  0  0  0  0  0  0  0  0
    1.9705   -0.7247   -2.0241 H   0  0  0  0  0  0  0  0  0  0  0  0
    8.3014    0.4352   -1.3222 H   0  0  0  0  0  0  0  0  0  0  0  0
    8.0955    0.1711    0.4403 H   0  0  0  0  0  0  0  0  0  0  0  0
    9.1598   -0.9288   -0.5086 H   0  0  0  0  0  0  0  0  0  0  0  0
  1  3  1  0  0  0  0
  1  4  1  0  0  0  0
  1  7  1  0  0  0  0
  1 16  1  0  0  0  0
  2  5  1  0  0  0  0
  2  6  1  0  0  0  0
  2  8  1  0  0  0  0
  2 17  1  0  0  0  0
  3  9  1  0  0  0  0
  3 18  1  0  0  0  0
  3 19  1  0  0  0  0
  4 10  1  0  0  0  0
  4 20  1  0  0  0  0
  4 21  1  0  0  0  0
  5 11  1  0  0  0  0
  5 22  1  0  0  0  0
  5 23  1  0  0  0  0
  6 12  1  0  0  0  0
  6 24  1  0  0  0  0
  6 25  1  0  0  0  0
  7 13  1  0  0  0  0
  7 26  1  0  0  0  0
  7 27  1  0  0  0  0
  8 14  1  0  0  0  0
  8 28  1  0  0  0  0
  8 29  1  0  0  0  0
  9 10  1  0  0  0  0
  9 30  1  0  0  0  0
  9 31  1  0  0  0  0
 10 32  1  0  0  0  0
 10 33  1  0  0  0  0
 11 12  1  0  0  0  0
 11 34  1  0  0  0  0
 11 35  1  0  0  0  0
 12 36  1  0  0  0  0
 12 37  1  0  0  0  0
 13 15  1  0  0  0  0
 13 38  1  0  0  0  0
 13 39  1  0  0  0  0
 14 15  1  0  0  0  0
 14 40  1  0  0  0  0
 14 41  1  0  0  0  0
 15 42  1  0  0  0  0
 15 43  1  0  0  0  0
 16 44  1  0  0  0  0
 16 45  1  0  0  0  0
 16 46  1  0  0  0  0
 17 47  1  0  0  0  0
 17 48  1  0  0  0  0
 17 49  1  0  0  0  0
M  CHG  2   1   1   2   1
M  END
>  <DRUGBANK_ID>
DB01090

>  <SECONDARY_ACCESSION_NUMBERS>
APRD00038

>  <COMMON_NAME>
Pentolinium

>  <CAS_NUMBER>
144-44-5

>  <UNII>
ULL76WPU5X

>  <SYNONYMS>
Pentolineum; Pentolonium; Pentolonum

$$$$
