F1I
 OpenBabel10282417163D

 52 53  0  0  0  0  0  0  0  0999 V2000
    0.9357   -0.0848    0.1136 C   0  0  0  0  0  0  0  0  0  0  0  0
   -0.6441    4.8894    4.5221 C   0  0  0  0  0  0  0  0  0  0  0  0
    0.3804    1.2094   -0.0505 O   0  0  0  0  0  0  0  0  0  0  0  0
    0.0829    3.6939    2.6040 C   0  0  0  0  0  0  0  0  0  0  0  0
    1.4045    3.6985    3.0707 C   0  0  0  0  0  0  0  0  0  0  0  0
    0.7497    2.1077    0.9171 C   0  0  0  0  0  0  0  0  0  0  0  0
   -0.2306    2.9779    1.4336 C   0  0  0  0  0  0  0  0  0  0  0  0
   -0.6220    5.2672   -0.4425 C   0  0  0  0  0  0  0  0  0  0  0  0
   -0.3650    6.0069   -1.7534 C   0  0  0  0  0  0  0  0  0  0  0  0
   -1.5080    3.2635    0.6407 C   0  0  0  0  0  0  0  0  0  0  0  0
   -0.5620    3.1644   -1.6257 C   0  0  0  0  0  0  0  0  0  0  0  0
   -0.2906    3.8093   -2.9662 C   0  0  0  0  0  0  0  0  0  0  0  0
    4.1257    7.9877   -5.1733 C   0  0  0  0  0  0  0  0  0  0  0  0
    1.9188    6.8007   -5.8121 C   0  0  0  0  0  0  0  0  0  0  0  0
    2.6819    8.1220   -5.6719 C   0  0  0  0  0  0  0  0  0  0  0  0
    1.8624    6.0503   -4.4990 C   0  0  0  0  0  0  0  0  0  0  0  0
    0.4166    5.1370   -2.7343 C   0  0  0  0  0  0  0  0  0  0  0  0
    2.8837    5.6727   -3.9193 O   0  0  0  0  0  0  0  0  0  0  0  0
    5.1787    7.0255   -6.3080 S   0  0  0  0  0  0  0  0  0  0  0  0
    0.6097    5.8286   -3.9979 N   0  0  0  0  0  0  0  0  0  0  0  0
   -1.3086    3.9863   -0.6637 N   0  0  0  0  0  0  0  0  0  0  0  0
   -0.9404    4.3603    3.2313 O   0  0  0  0  0  0  0  0  0  0  0  0
    2.4103    3.0298    2.3796 C   0  0  0  0  0  0  0  0  0  0  0  0
    2.0845    2.2512    1.2849 C   0  0  0  0  0  0  0  0  0  0  0  0
    0.5571   -0.7088   -0.7003 H   0  0  0  0  0  0  0  0  0  0  0  0
    0.6022   -0.5073    1.0645 H   0  0  0  0  0  0  0  0  0  0  0  0
    2.0266   -0.0833    0.0422 H   0  0  0  0  0  0  0  0  0  0  0  0
   -0.2494    4.1184    5.1955 H   0  0  0  0  0  0  0  0  0  0  0  0
    0.0531    5.7291    4.4354 H   0  0  0  0  0  0  0  0  0  0  0  0
   -1.5694    5.2678    4.9650 H   0  0  0  0  0  0  0  0  0  0  0  0
    1.6985    4.2569    3.9513 H   0  0  0  0  0  0  0  0  0  0  0  0
    0.3454    5.1173    0.0518 H   0  0  0  0  0  0  0  0  0  0  0  0
   -1.2274    5.9056    0.2110 H   0  0  0  0  0  0  0  0  0  0  0  0
    0.2036    6.9200   -1.5395 H   0  0  0  0  0  0  0  0  0  0  0  0
   -1.3154    6.3143   -2.2031 H   0  0  0  0  0  0  0  0  0  0  0  0
   -2.0602    2.3303    0.4704 H   0  0  0  0  0  0  0  0  0  0  0  0
   -2.1965    3.8806    1.2342 H   0  0  0  0  0  0  0  0  0  0  0  0
   -1.0678    2.2054   -1.7840 H   0  0  0  0  0  0  0  0  0  0  0  0
    0.4490    2.9975   -1.2595 H   0  0  0  0  0  0  0  0  0  0  0  0
   -1.2156    3.9280   -3.5356 H   0  0  0  0  0  0  0  0  0  0  0  0
    0.3664    3.1405   -3.5415 H   0  0  0  0  0  0  0  0  0  0  0  0
    4.5704    8.9819   -5.0735 H   0  0  0  0  0  0  0  0  0  0  0  0
    4.1655    7.5488   -4.1732 H   0  0  0  0  0  0  0  0  0  0  0  0
    2.3911    6.1447   -6.5495 H   0  0  0  0  0  0  0  0  0  0  0  0
    0.9091    6.9983   -6.1900 H   0  0  0  0  0  0  0  0  0  0  0  0
    2.6820    8.6427   -6.6386 H   0  0  0  0  0  0  0  0  0  0  0  0
    2.1343    8.7738   -4.9777 H   0  0  0  0  0  0  0  0  0  0  0  0
    1.3999    4.9299   -2.2854 H   0  0  0  0  0  0  0  0  0  0  0  0
    4.4790    5.8787   -6.2643 H   0  0  0  0  0  0  0  0  0  0  0  0
   -0.2102    6.0458   -4.5495 H   0  0  0  0  0  0  0  0  0  0  0  0
    3.4412    3.0922    2.7122 H   0  0  0  0  0  0  0  0  0  0  0  0
    2.8752    1.7869    0.7037 H   0  0  0  0  0  0  0  0  0  0  0  0
  1  3  1  0  0  0  0
  1 25  1  0  0  0  0
  1 26  1  0  0  0  0
  1 27  1  0  0  0  0
  2 22  1  0  0  0  0
  2 28  1  0  0  0  0
  2 29  1  0  0  0  0
  2 30  1  0  0  0  0
  3  6  1  0  0  0  0
  4  5  2  0  0  0  0
  4  7  1  0  0  0  0
  4 22  1  0  0  0  0
  5 23  1  0  0  0  0
  5 31  1  0  0  0  0
  6  7  2  0  0  0  0
  6 24  1  0  0  0  0
  7 10  1  0  0  0  0
  8  9  1  0  0  0  0
  8 21  1  0  0  0  0
  8 32  1  0  0  0  0
  8 33  1  0  0  0  0
  9 17  1  0  0  0  0
  9 34  1  0  0  0  0
  9 35  1  0  0  0  0
 10 21  1  0  0  0  0
 10 36  1  0  0  0  0
 10 37  1  0  0  0  0
 11 12  1  0  0  0  0
 11 21  1  0  0  0  0
 11 38  1  0  0  0  0
 11 39  1  0  0  0  0
 12 17  1  0  0  0  0
 12 40  1  0  0  0  0
 12 41  1  0  0  0  0
 13 15  1  0  0  0  0
 13 19  1  0  0  0  0
 13 42  1  0  0  0  0
 13 43  1  0  0  0  0
 14 15  1  0  0  0  0
 14 16  1  0  0  0  0
 14 44  1  0  0  0  0
 14 45  1  0  0  0  0
 15 46  1  0  0  0  0
 15 47  1  0  0  0  0
 16 18  2  0  0  0  0
 16 20  1  0  0  0  0
 17 20  1  0  0  0  0
 17 48  1  0  0  0  0
 19 49  1  0  0  0  0
 20 50  1  0  0  0  0
 23 24  2  0  0  0  0
 23 51  1  0  0  0  0
 24 52  1  0  0  0  0
M  END
>  <DRUGBANK_ID>
DB07735

>  <COMMON_NAME>
N-[1-(2,6-dimethoxybenzyl)piperidin-4-yl]-4-sulfanylbutanamide

$$$$
