
 OpenBabel10282417143D

 10  9  0  0  0  0  0  0  0  0999 V2000
    0.8729   -0.0626    0.0126 S   0  0  0  0  0  0  0  0  0  0  0  0
    0.3688   -0.5114    1.6090 C   0  0  0  0  0  0  0  0  0  0  0  0
    0.6049    1.3355   -0.2343 O   0  0  0  0  0  0  0  0  0  0  0  0
    0.4775   -1.0979   -0.9172 O   0  0  0  0  0  0  0  0  0  0  0  0
    2.4698   -0.1781    0.2255 O   0  0  0  0  0  0  0  0  0  0  0  0
   -0.4003    0.3068    2.3407 C   0  0  0  0  0  0  0  0  0  0  0  0
    0.6708   -1.4875    1.9614 H   0  0  0  0  0  0  0  0  0  0  0  0
    2.8018    0.6507    0.6278 H   0  0  0  0  0  0  0  0  0  0  0  0
   -0.7503    0.0089    3.3238 H   0  0  0  0  0  0  0  0  0  0  0  0
   -0.7215    1.2788    1.9740 H   0  0  0  0  0  0  0  0  0  0  0  0
  2  1  1  0  0  0  0
  2  7  1  0  0  0  0
  3  1  2  0  0  0  0
  4  1  2  0  0  0  0
  5  1  1  0  0  0  0
  5  8  1  0  0  0  0
  6  2  2  0  0  0  0
  6  9  1  0  0  0  0
  6 10  1  0  0  0  0
M  END
>  <DRUGBANK_ID>
DB04359

>  <SECONDARY_ACCESSION_NUMBERS>
EXPT03236

>  <COMMON_NAME>
Vinylsulfonic acid

>  <CAS_NUMBER>
1184-84-5

>  <UNII>
GJ6489R1WE

>  <SYNONYMS>
Ethylenesulfonic acid; Vinylsulphonic acid

$$$$
