
 OpenBabel10282417203D

 60 60  0  0  0  0  0  0  0  0999 V2000
    1.1024   -0.1136   -0.1611 C   0  0  0  0  0  0  0  0  0  0  0  0
    0.6774   -1.1280    0.8865 C   0  0  0  0  0  0  0  0  0  0  0  0
    1.1892   -0.7085    2.2646 C   0  0  0  0  0  0  0  0  0  0  0  0
    0.6248    0.6575    2.6760 C   0  0  0  0  0  0  0  0  0  0  0  0
   -0.9041    0.6082    2.7296 C   0  0  0  0  0  0  0  0  0  0  0  0
   -1.3338   -0.4679    3.7336 C   0  0  0  0  0  0  0  0  0  0  0  0
   -0.6994   -0.1876    5.1161 C   0  0  0  0  0  0  0  0  0  0  0  0
   -1.1100    1.1808    5.6325 C   0  0  0  0  0  0  0  0  0  0  0  0
   -2.6047    1.1603    5.7072 C   0  0  0  0  0  0  0  0  0  0  0  0
   -3.1802    0.1123    6.6406 C   0  0  0  0  0  0  0  0  0  0  0  0
   -2.9418    0.5775    8.0569 C   0  0  0  0  0  0  0  0  0  0  0  0
   -3.5203    1.9662    8.3695 C   0  0  0  0  0  0  0  0  0  0  0  0
   -5.0604    2.0537    8.3402 N   0  3  0  0  0  0  0  0  0  0  0  0
   -5.6003    1.0032    9.3077 C   0  0  0  0  0  0  0  0  0  0  0  0
   -5.4283    3.4196    8.9194 C   0  0  0  0  0  0  0  0  0  0  0  0
   -5.7994    1.9153    6.9211 C   0  0  0  0  0  0  0  0  0  0  0  0
   -5.4539    2.9116    5.8252 C   0  0  0  0  0  0  0  0  0  0  0  0
   -5.7761    4.2642    5.9926 C   0  0  0  0  0  0  0  0  0  0  0  0
   -5.2026    5.2437    5.1854 C   0  0  0  0  0  0  0  0  0  0  0  0
   -4.2827    4.9143    4.2116 C   0  0  0  0  0  0  0  0  0  0  0  0
   -4.0609    3.5658    3.9344 C   0  0  0  0  0  0  0  0  0  0  0  0
   -4.7939    2.5988    4.6398 C   0  0  0  0  0  0  0  0  0  0  0  0
    0.6912    0.8812    0.0394 H   0  0  0  0  0  0  0  0  0  0  0  0
    0.7502   -0.4068   -1.1501 H   0  0  0  0  0  0  0  0  0  0  0  0
    2.1930   -0.0304   -0.1725 H   0  0  0  0  0  0  0  0  0  0  0  0
   -0.4148   -1.2309    0.8794 H   0  0  0  0  0  0  0  0  0  0  0  0
    1.0652   -2.1197    0.6383 H   0  0  0  0  0  0  0  0  0  0  0  0
    0.9268   -1.4835    2.9960 H   0  0  0  0  0  0  0  0  0  0  0  0
    2.2815   -0.6725    2.2783 H   0  0  0  0  0  0  0  0  0  0  0  0
    1.0460    0.9509    3.6433 H   0  0  0  0  0  0  0  0  0  0  0  0
    0.9523    1.4557    2.0072 H   0  0  0  0  0  0  0  0  0  0  0  0
   -1.2995    1.5971    2.9889 H   0  0  0  0  0  0  0  0  0  0  0  0
   -1.3460    0.4053    1.7491 H   0  0  0  0  0  0  0  0  0  0  0  0
   -2.4285   -0.5325    3.7479 H   0  0  0  0  0  0  0  0  0  0  0  0
   -1.0549   -1.4730    3.4115 H   0  0  0  0  0  0  0  0  0  0  0  0
   -0.9887   -0.9762    5.8110 H   0  0  0  0  0  0  0  0  0  0  0  0
    0.3877   -0.2478    5.1074 H   0  0  0  0  0  0  0  0  0  0  0  0
   -0.6662    1.4325    6.5976 H   0  0  0  0  0  0  0  0  0  0  0  0
   -0.8147    1.9994    4.9635 H   0  0  0  0  0  0  0  0  0  0  0  0
   -2.8977    2.1673    5.9731 H   0  0  0  0  0  0  0  0  0  0  0  0
   -2.9877    0.9826    4.7113 H   0  0  0  0  0  0  0  0  0  0  0  0
   -4.2223   -0.0825    6.4165 H   0  0  0  0  0  0  0  0  0  0  0  0
   -2.7634   -0.8853    6.4917 H   0  0  0  0  0  0  0  0  0  0  0  0
   -3.2808   -0.1864    8.7588 H   0  0  0  0  0  0  0  0  0  0  0  0
   -1.8568    0.6201    8.2167 H   0  0  0  0  0  0  0  0  0  0  0  0
   -3.2066    2.2191    9.3915 H   0  0  0  0  0  0  0  0  0  0  0  0
   -3.1260    2.7779    7.7510 H   0  0  0  0  0  0  0  0  0  0  0  0
   -5.1670    1.2001   10.2961 H   0  0  0  0  0  0  0  0  0  0  0  0
   -6.6863    1.0827    9.3392 H   0  0  0  0  0  0  0  0  0  0  0  0
   -5.3120    0.0084    8.9634 H   0  0  0  0  0  0  0  0  0  0  0  0
   -4.9207    4.1952    8.3428 H   0  0  0  0  0  0  0  0  0  0  0  0
   -6.5159    3.5191    8.8734 H   0  0  0  0  0  0  0  0  0  0  0  0
   -5.0826    3.4806    9.9535 H   0  0  0  0  0  0  0  0  0  0  0  0
   -5.7088    0.8796    6.6006 H   0  0  0  0  0  0  0  0  0  0  0  0
   -6.8653    2.0135    7.1462 H   0  0  0  0  0  0  0  0  0  0  0  0
   -6.4643    4.5616    6.7674 H   0  0  0  0  0  0  0  0  0  0  0  0
   -5.4649    6.2892    5.3572 H   0  0  0  0  0  0  0  0  0  0  0  0
   -3.7762    5.6794    3.6314 H   0  0  0  0  0  0  0  0  0  0  0  0
   -3.3030    3.2880    3.2069 H   0  0  0  0  0  0  0  0  0  0  0  0
   -4.7162    1.5628    4.2965 H   0  0  0  0  0  0  0  0  0  0  0  0
  1  2  1  0  0  0  0
  1 23  1  0  0  0  0
  1 24  1  0  0  0  0
  1 25  1  0  0  0  0
  2  3  1  0  0  0  0
  2 26  1  0  0  0  0
  2 27  1  0  0  0  0
  3  4  1  0  0  0  0
  3 28  1  0  0  0  0
  3 29  1  0  0  0  0
  4  5  1  0  0  0  0
  4 30  1  0  0  0  0
  4 31  1  0  0  0  0
  5  6  1  0  0  0  0
  5 32  1  0  0  0  0
  5 33  1  0  0  0  0
  6  7  1  0  0  0  0
  6 34  1  0  0  0  0
  6 35  1  0  0  0  0
  7  8  1  0  0  0  0
  7 36  1  0  0  0  0
  7 37  1  0  0  0  0
  8  9  1  0  0  0  0
  8 38  1  0  0  0  0
  8 39  1  0  0  0  0
  9 10  1  0  0  0  0
  9 40  1  0  0  0  0
  9 41  1  0  0  0  0
 10 11  1  0  0  0  0
 10 42  1  0  0  0  0
 10 43  1  0  0  0  0
 11 12  1  0  0  0  0
 11 44  1  0  0  0  0
 11 45  1  0  0  0  0
 12 13  1  0  0  0  0
 12 46  1  0  0  0  0
 12 47  1  0  0  0  0
 13 14  1  0  0  0  0
 13 15  1  0  0  0  0
 13 16  1  0  0  0  0
 14 48  1  0  0  0  0
 14 49  1  0  0  0  0
 14 50  1  0  0  0  0
 15 51  1  0  0  0  0
 15 52  1  0  0  0  0
 15 53  1  0  0  0  0
 16 17  1  0  0  0  0
 16 54  1  0  0  0  0
 16 55  1  0  0  0  0
 17 18  2  0  0  0  0
 17 22  1  0  0  0  0
 18 19  1  0  0  0  0
 18 56  1  0  0  0  0
 19 20  2  0  0  0  0
 19 57  1  0  0  0  0
 20 21  1  0  0  0  0
 20 58  1  0  0  0  0
 21 22  2  0  0  0  0
 21 59  1  0  0  0  0
 22 60  1  0  0  0  0
M  CHG  1  13   1
M  END
>  <DRUGBANK_ID>
DB13282

>  <COMMON_NAME>
Benzododecinium

>  <CAS_NUMBER>
10328-35-5

>  <UNII>
N0BN0O8CSL

$$$$
