
 OpenBabel10282417153D

 54 55  0  0  0  0  0  0  0  0999 V2000
    0.3744    1.3195    0.0760 N   0  0  0  0  0  0  0  0  0  0  0  0
   -0.9616    1.0079    0.0097 C   0  0  0  0  0  0  0  0  0  0  0  0
   -1.3262   -0.2896   -0.0254 N   0  0  0  0  0  0  0  0  0  0  0  0
    0.7556    2.7096    0.0218 C   0  0  2  0  0  0  0  0  0  0  0  0
    1.3978    0.3253   -0.0466 C   0  0  0  0  0  0  0  0  0  0  0  0
    0.8804   -0.9939    0.0449 N   0  0  0  0  0  0  0  0  0  0  0  0
   -0.4402   -1.2132   -0.0121 C   0  0  0  0  0  0  0  0  0  0  0  0
    1.5262    2.9421   -1.1686 O   0  0  0  0  0  0  0  0  0  0  0  0
    1.5874    3.1875    1.2049 C   0  0  0  0  0  0  0  0  0  0  0  0
    2.4202    4.2808    0.5834 C   0  0  1  0  0  0  0  0  0  0  0  0
    2.6320    3.8109   -0.8536 C   0  0  1  0  0  0  0  0  0  0  0  0
    1.6960    5.5102    0.6179 O   0  0  0  0  0  0  0  0  0  0  0  0
   -1.8278    1.8855    0.0115 O   0  0  0  0  0  0  0  0  0  0  0  0
   -0.8382   -2.5133   -0.0308 N   0  0  0  0  0  0  0  0  0  0  0  0
    3.9673    3.0720   -1.0450 C   0  0  0  0  0  0  0  0  0  0  0  0
    3.9664    1.7419   -0.5325 O   0  0  0  0  0  0  0  0  0  0  0  0
   -2.1034   -2.9759    0.2109 C   0  0  0  0  0  0  0  0  0  0  0  0
   -2.2041   -4.1290    0.6112 O   0  0  0  0  0  0  0  0  0  0  0  0
   -3.0987   -2.0893   -0.0461 O   0  0  0  0  0  0  0  0  0  0  0  0
   -4.5047   -2.4050   -0.0222 C   0  0  0  0  0  0  0  0  0  0  0  0
   -4.9028   -3.1744   -1.2813 C   0  0  0  0  0  0  0  0  0  0  0  0
   -4.1874   -4.5193   -1.3499 C   0  0  0  0  0  0  0  0  0  0  0  0
   -4.4891   -5.3547   -0.0869 C   0  0  0  0  0  0  0  0  0  0  0  0
   -5.9524   -5.7681   -0.0341 C   0  0  0  0  0  0  0  0  0  0  0  0
   -6.3147   -6.5916   -1.2613 C   0  0  0  0  0  0  0  0  0  0  0  0
   -5.4548   -7.8447   -1.3280 C   0  0  0  0  0  0  0  0  0  0  0  0
   -0.1284    3.3533   -0.0518 H   0  0  0  0  0  0  0  0  0  0  0  0
    1.9175    0.4489   -0.9976 H   0  0  0  0  0  0  0  0  0  0  0  0
    2.0920    0.4520    0.7862 H   0  0  0  0  0  0  0  0  0  0  0  0
    1.5483   -1.7477   -0.0390 H   0  0  0  0  0  0  0  0  0  0  0  0
    2.2389    2.4026    1.5969 H   0  0  0  0  0  0  0  0  0  0  0  0
    0.9563    3.5278    2.0309 H   0  0  0  0  0  0  0  0  0  0  0  0
    3.3595    4.4520    1.1161 H   0  0  0  0  0  0  0  0  0  0  0  0
    2.6013    4.6596   -1.5469 H   0  0  0  0  0  0  0  0  0  0  0  0
    0.8788    5.4198    0.0942 H   0  0  0  0  0  0  0  0  0  0  0  0
   -0.1535   -3.2435    0.0642 H   0  0  0  0  0  0  0  0  0  0  0  0
    4.2046    3.0026   -2.1109 H   0  0  0  0  0  0  0  0  0  0  0  0
    4.7807    3.6215   -0.5602 H   0  0  0  0  0  0  0  0  0  0  0  0
    3.8503    1.7887    0.4278 H   0  0  0  0  0  0  0  0  0  0  0  0
   -4.7827   -2.8992    0.9136 H   0  0  0  0  0  0  0  0  0  0  0  0
   -5.0532   -1.4556   -0.0166 H   0  0  0  0  0  0  0  0  0  0  0  0
   -5.9894   -3.3201   -1.3111 H   0  0  0  0  0  0  0  0  0  0  0  0
   -4.6496   -2.5910   -2.1734 H   0  0  0  0  0  0  0  0  0  0  0  0
   -4.4566   -5.0512   -2.2650 H   0  0  0  0  0  0  0  0  0  0  0  0
   -3.1168   -4.3625   -1.5019 H   0  0  0  0  0  0  0  0  0  0  0  0
   -3.8126   -6.2134   -0.0382 H   0  0  0  0  0  0  0  0  0  0  0  0
   -4.2926   -4.8258    0.8491 H   0  0  0  0  0  0  0  0  0  0  0  0
   -6.1371   -6.3358    0.8845 H   0  0  0  0  0  0  0  0  0  0  0  0
   -6.5935   -4.8809    0.0340 H   0  0  0  0  0  0  0  0  0  0  0  0
   -7.3749   -6.8477   -1.2283 H   0  0  0  0  0  0  0  0  0  0  0  0
   -6.1858   -6.0061   -2.1779 H   0  0  0  0  0  0  0  0  0  0  0  0
   -5.6118   -8.4489   -0.4298 H   0  0  0  0  0  0  0  0  0  0  0  0
   -5.6998   -8.4308   -2.2128 H   0  0  0  0  0  0  0  0  0  0  0  0
   -4.3847   -7.6181   -1.3924 H   0  0  0  0  0  0  0  0  0  0  0  0
  2  1  1  0  0  0  0
  3  2  1  0  0  0  0
  3  7  2  0  0  0  0
  4  1  1  0  0  0  0
  4 27  1  6  0  0  0
  5  1  1  0  0  0  0
  5 28  1  0  0  0  0
  5 29  1  0  0  0  0
  6  5  1  0  0  0  0
  6 30  1  0  0  0  0
  7  6  1  0  0  0  0
  8  4  1  0  0  0  0
  9  4  1  0  0  0  0
  9 31  1  0  0  0  0
  9 32  1  0  0  0  0
 10  9  1  0  0  0  0
 10 12  1  0  0  0  0
 10 33  1  1  0  0  0
 11  8  1  0  0  0  0
 11 10  1  0  0  0  0
 11 34  1  6  0  0  0
 11 15  1  0  0  0  0
 12 35  1  0  0  0  0
 13  2  2  0  0  0  0
 14  7  1  0  0  0  0
 14 17  1  0  0  0  0
 14 36  1  0  0  0  0
 15 37  1  0  0  0  0
 15 38  1  0  0  0  0
 16 15  1  0  0  0  0
 16 39  1  0  0  0  0
 17 18  2  0  0  0  0
 17 19  1  0  0  0  0
 19 20  1  0  0  0  0
 20 21  1  0  0  0  0
 20 40  1  0  0  0  0
 20 41  1  0  0  0  0
 21 22  1  0  0  0  0
 21 42  1  0  0  0  0
 21 43  1  0  0  0  0
 22 23  1  0  0  0  0
 22 44  1  0  0  0  0
 22 45  1  0  0  0  0
 23 24  1  0  0  0  0
 23 46  1  0  0  0  0
 23 47  1  0  0  0  0
 24 25  1  0  0  0  0
 24 48  1  0  0  0  0
 24 49  1  0  0  0  0
 25 26  1  0  0  0  0
 25 50  1  0  0  0  0
 25 51  1  0  0  0  0
 26 52  1  0  0  0  0
 26 53  1  0  0  0  0
 26 54  1  0  0  0  0
M  END
>  <DRUGBANK_ID>
DB05644

>  <COMMON_NAME>
KP-1461

>  <CAS_NUMBER>
815588-85-3

>  <UNII>
3PEN569TJP

$$$$
