
 OpenBabel10282417183D

 61 62  0  0  0  0  0  0  0  0999 V2000
   -2.3213   -1.6318    3.4196 C   0  0  0  0  0  0  0  0  0  0  0  0
   -0.7950   -0.3876   -0.9524 C   0  0  0  0  0  0  0  0  0  0  0  0
   -0.8976   -1.5853    2.8465 C   0  0  0  0  0  0  0  0  0  0  0  0
   -1.3551   -1.3172    0.1935 C   0  0  1  0  0  0  0  0  0  0  0  0
   -0.6711   -0.7856    1.5287 C   0  0  0  0  0  0  0  0  0  0  0  0
   -3.1543   -0.6977    2.8803 N   0  0  0  0  0  0  0  0  0  0  0  0
   -6.1939   -0.4830    5.9863 C   0  0  0  0  0  0  0  0  0  0  0  0
    0.5114   -0.5690   -1.2511 O   0  0  0  0  0  0  0  0  0  0  0  0
   -6.9339   -0.4041    4.6390 C   0  0  2  0  0  0  0  0  0  0  0  0
   -2.6339   -2.4366    4.2829 O   0  0  0  0  0  0  0  0  0  0  0  0
   -1.3495    0.4656   -1.5789 O   0  0  0  0  0  0  0  0  0  0  0  0
   -6.9835   -0.4225    7.0737 O   0  0  0  0  0  0  0  0  0  0  0  0
   -6.7176   -1.6763    3.8051 C   0  0  0  0  0  0  0  0  0  0  0  0
   -6.4582    0.8243    3.8595 C   0  0  0  0  0  0  0  0  0  0  0  0
   -4.6186   -0.6205    2.8957 C   0  0  1  0  0  0  0  0  0  0  0  0
   -4.9829   -0.5618    6.1163 O   0  0  0  0  0  0  0  0  0  0  0  0
   -5.2593   -1.8667    3.4612 C   0  0  0  0  0  0  0  0  0  0  0  0
   -4.9859    0.7157    3.5349 C   0  0  0  0  0  0  0  0  0  0  0  0
   -2.9228   -1.6430    0.2784 C   0  0  0  0  0  0  0  0  0  0  0  0
   -0.4072   -3.0261    2.6537 C   0  0  0  0  0  0  0  0  0  0  0  0
    0.0014   -1.0972    4.0026 C   0  0  0  0  0  0  0  0  0  0  0  0
   -3.6635   -1.9689   -0.8749 O   0  0  0  0  0  0  0  0  0  0  0  0
   -3.2162    1.5768   -0.5770 O   0  0  0  0  0  0  0  0  0  0  0  0
   -3.9314    0.6559   -1.4519 C   0  0  0  0  0  0  0  0  0  0  0  0
   -3.5983   -0.8988   -1.8226 C   0  0  0  0  0  0  0  0  0  0  0  0
   -3.3006    1.3289    0.7835 C   0  0  0  0  0  0  0  0  0  0  0  0
    1.0814   -3.0109    2.9657 C   0  0  0  0  0  0  0  0  0  0  0  0
    1.3593   -1.7297    3.7464 C   0  0  0  0  0  0  0  0  0  0  0  0
   -0.9306   -2.2968   -0.0403 H   0  0  0  0  0  0  0  0  0  0  0  0
   -0.8769    0.2817    1.6992 H   0  0  0  0  0  0  0  0  0  0  0  0
    0.4098   -0.7506    1.3304 H   0  0  0  0  0  0  0  0  0  0  0  0
   -2.6762    0.1638    2.6951 H   0  0  0  0  0  0  0  0  0  0  0  0
    1.0275   -1.1516   -0.6843 H   0  0  0  0  0  0  0  0  0  0  0  0
   -8.0081   -0.2962    4.8147 H   0  0  0  0  0  0  0  0  0  0  0  0
   -7.9364   -0.3462    6.9075 H   0  0  0  0  0  0  0  0  0  0  0  0
   -7.0384   -2.5609    4.3625 H   0  0  0  0  0  0  0  0  0  0  0  0
   -7.3024   -1.6348    2.8764 H   0  0  0  0  0  0  0  0  0  0  0  0
   -7.0256    0.9279    2.9226 H   0  0  0  0  0  0  0  0  0  0  0  0
   -6.6153    1.7445    4.4313 H   0  0  0  0  0  0  0  0  0  0  0  0
   -5.0069   -0.5866    1.8646 H   0  0  0  0  0  0  0  0  0  0  0  0
   -5.1135   -2.7085    2.7702 H   0  0  0  0  0  0  0  0  0  0  0  0
   -4.7593   -2.1373    4.3832 H   0  0  0  0  0  0  0  0  0  0  0  0
   -4.7096    1.5758    2.9172 H   0  0  0  0  0  0  0  0  0  0  0  0
   -4.3665    0.8457    4.4234 H   0  0  0  0  0  0  0  0  0  0  0  0
   -3.1349   -2.3919    1.0531 H   0  0  0  0  0  0  0  0  0  0  0  0
   -3.5557   -0.8453    0.5816 H   0  0  0  0  0  0  0  0  0  0  0  0
   -0.9190   -3.7158    3.3309 H   0  0  0  0  0  0  0  0  0  0  0  0
   -0.5945   -3.4172    1.6519 H   0  0  0  0  0  0  0  0  0  0  0  0
    0.0534   -0.0065    4.0945 H   0  0  0  0  0  0  0  0  0  0  0  0
   -0.3763   -1.4694    4.9655 H   0  0  0  0  0  0  0  0  0  0  0  0
   -3.7695    1.1669   -2.4047 H   0  0  0  0  0  0  0  0  0  0  0  0
   -4.9842    0.7463   -1.1844 H   0  0  0  0  0  0  0  0  0  0  0  0
   -2.6259   -1.0711   -2.2715 H   0  0  0  0  0  0  0  0  0  0  0  0
   -4.2874   -1.1810   -2.6246 H   0  0  0  0  0  0  0  0  0  0  0  0
   -4.3261    1.0877    1.0349 H   0  0  0  0  0  0  0  0  0  0  0  0
   -2.6283    0.5214    0.9232 H   0  0  0  0  0  0  0  0  0  0  0  0
   -2.8479    2.0169    1.5075 H   0  0  0  0  0  0  0  0  0  0  0  0
    1.3477   -3.9036    3.5386 H   0  0  0  0  0  0  0  0  0  0  0  0
    1.6687   -3.0240    2.0414 H   0  0  0  0  0  0  0  0  0  0  0  0
    1.8907   -1.9318    4.6817 H   0  0  0  0  0  0  0  0  0  0  0  0
    1.9852   -1.0537    3.1538 H   0  0  0  0  0  0  0  0  0  0  0  0
  3  1  1  0  0  0  0
  4 19  1  0  0  0  0
  4 29  1  6  0  0  0
  4  5  1  0  0  0  0
  4  2  1  0  0  0  0
  5  3  1  0  0  0  0
  5 30  1  0  0  0  0
  5 31  1  0  0  0  0
  6  1  1  0  0  0  0
  6 32  1  0  0  0  0
  8  2  1  0  0  0  0
  8 33  1  0  0  0  0
  9  7  1  0  0  0  0
  9 14  1  0  0  0  0
  9 13  1  0  0  0  0
  9 34  1  1  0  0  0
 10  1  2  0  0  0  0
 11  2  2  0  0  0  0
 12  7  1  0  0  0  0
 12 35  1  0  0  0  0
 13 17  1  0  0  0  0
 13 36  1  0  0  0  0
 13 37  1  0  0  0  0
 14 18  1  0  0  0  0
 14 38  1  0  0  0  0
 14 39  1  0  0  0  0
 15  6  1  0  0  0  0
 15 40  1  6  0  0  0
 16  7  2  0  0  0  0
 17 15  1  0  0  0  0
 17 41  1  0  0  0  0
 17 42  1  0  0  0  0
 18 15  1  0  0  0  0
 18 43  1  0  0  0  0
 18 44  1  0  0  0  0
 19 45  1  0  0  0  0
 19 46  1  0  0  0  0
 20  3  1  0  0  0  0
 20 47  1  0  0  0  0
 20 48  1  0  0  0  0
 21  3  1  0  0  0  0
 21 49  1  0  0  0  0
 21 50  1  0  0  0  0
 22 19  1  0  0  0  0
 23 24  1  0  0  0  0
 24 25  1  0  0  0  0
 24 51  1  0  0  0  0
 24 52  1  0  0  0  0
 25 22  1  0  0  0  0
 25 53  1  0  0  0  0
 25 54  1  0  0  0  0
 26 23  1  0  0  0  0
 26 55  1  0  0  0  0
 26 56  1  0  0  0  0
 26 57  1  0  0  0  0
 27 20  1  0  0  0  0
 27 28  1  0  0  0  0
 27 58  1  0  0  0  0
 27 59  1  0  0  0  0
 28 21  1  0  0  0  0
 28 60  1  0  0  0  0
 28 61  1  0  0  0  0
M  END
>  <DRUGBANK_ID>
DB11623

>  <COMMON_NAME>
Candoxatrilat

>  <CAS_NUMBER>
123122-54-3

>  <UNII>
7WU8BZ90TH

>  <SYNONYMS>
Candoxatrilat; Candoxatrilate

$$$$
