
 OpenBabel10282417113D

 31 31  0  0  0  0  0  0  0  0999 V2000
    1.0593   -0.0201    0.0780 C   0  0  0  0  0  0  0  0  0  0  0  0
   -0.2445   -0.0201    0.0780 C   0  0  0  0  0  0  0  0  0  0  0  0
    3.0219    0.5764   -1.1883 N   0  0  0  0  0  0  0  0  0  0  0  0
    4.5076    0.4966   -1.3010 C   0  0  1  0  0  0  0  0  0  0  0  0
    5.1560   -0.9256   -1.2460 C   0  0  0  0  0  0  0  0  0  0  0  0
    2.5793   -0.0201    0.0780 C   0  0  0  0  0  0  0  0  0  0  0  0
    4.8448   -1.8987   -2.3681 C   0  0  0  0  0  0  0  0  0  0  0  0
    2.2407   -0.0575   -2.2549 C   0  0  0  0  0  0  0  0  0  0  0  0
    5.1336    1.3350   -2.4344 C   0  0  0  0  0  0  0  0  0  0  0  0
    5.1044   -3.2608   -2.1945 C   0  0  0  0  0  0  0  0  0  0  0  0
    4.2142   -1.5407   -3.5612 C   0  0  0  0  0  0  0  0  0  0  0  0
    3.5743   -2.4410   -4.3880 C   0  0  0  0  0  0  0  0  0  0  0  0
    4.6544   -4.1768   -3.1501 C   0  0  0  0  0  0  0  0  0  0  0  0
    3.8448   -3.7852   -4.2130 C   0  0  0  0  0  0  0  0  0  0  0  0
   -1.3098   -0.0159    0.0756 H   0  0  0  0  0  0  0  0  0  0  0  0
    4.8706    1.0169   -0.3984 H   0  0  0  0  0  0  0  0  0  0  0  0
    6.2440   -0.8176   -1.1530 H   0  0  0  0  0  0  0  0  0  0  0  0
    4.8535   -1.3908   -0.2954 H   0  0  0  0  0  0  0  0  0  0  0  0
    2.9303    0.5707    0.9313 H   0  0  0  0  0  0  0  0  0  0  0  0
    2.8911   -1.0598    0.2177 H   0  0  0  0  0  0  0  0  0  0  0  0
    2.3371   -1.1469   -2.1990 H   0  0  0  0  0  0  0  0  0  0  0  0
    1.1588    0.0967   -2.1978 H   0  0  0  0  0  0  0  0  0  0  0  0
    2.4625    0.3742   -3.2270 H   0  0  0  0  0  0  0  0  0  0  0  0
    4.7628    2.3615   -2.4332 H   0  0  0  0  0  0  0  0  0  0  0  0
    6.2235    1.3553   -2.3146 H   0  0  0  0  0  0  0  0  0  0  0  0
    4.9729    0.9642   -3.4416 H   0  0  0  0  0  0  0  0  0  0  0  0
    5.6400   -3.6055   -1.3166 H   0  0  0  0  0  0  0  0  0  0  0  0
    4.0334   -0.5136   -3.8389 H   0  0  0  0  0  0  0  0  0  0  0  0
    2.8712   -2.0818   -5.1311 H   0  0  0  0  0  0  0  0  0  0  0  0
    4.9098   -5.2289   -3.0444 H   0  0  0  0  0  0  0  0  0  0  0  0
    3.4347   -4.4918   -4.9190 H   0  0  0  0  0  0  0  0  0  0  0  0
  2  1  3  0  0  0  0
  2 15  1  0  0  0  0
  3  6  1  0  0  0  0
  4  3  1  0  0  0  0
  4  9  1  0  0  0  0
  4 16  1  1  0  0  0
  5  4  1  0  0  0  0
  5 17  1  0  0  0  0
  5 18  1  0  0  0  0
  6  1  1  0  0  0  0
  6 19  1  0  0  0  0
  6 20  1  0  0  0  0
  7  5  1  0  0  0  0
  8  3  1  0  0  0  0
  8 21  1  0  0  0  0
  8 22  1  0  0  0  0
  8 23  1  0  0  0  0
  9 24  1  0  0  0  0
  9 25  1  0  0  0  0
  9 26  1  0  0  0  0
 10  7  1  0  0  0  0
 10 27  1  0  0  0  0
 11  7  2  0  0  0  0
 11 28  1  0  0  0  0
 12 11  1  0  0  0  0
 12 29  1  0  0  0  0
 13 10  2  0  0  0  0
 13 30  1  0  0  0  0
 14 13  1  0  0  0  0
 14 12  2  0  0  0  0
 14 31  1  0  0  0  0
M  END
>  <DRUGBANK_ID>
DB01037

>  <SECONDARY_ACCESSION_NUMBERS>
APRD00525

>  <COMMON_NAME>
Selegiline

>  <CAS_NUMBER>
14611-51-9

>  <UNII>
2K1V7GP655

>  <SYNONYMS>
(âˆ’)-selegiline; L-Deprenalin; Selegilina; Selegiline; Selegilinum

$$$$
