1320
 OpenBabel10282417113D

 40 42  0  0  0  0  0  0  0  0999 V2000
    0.9472    0.0775    0.0348 P   0  0  0  0  0  0  0  0  0  0  0  0
   -1.8309    1.2798    2.8361 O   0  0  0  0  0  0  0  0  0  0  0  0
    0.8084    1.1364    1.2718 O   0  0  0  0  0  0  0  0  0  0  0  0
    0.7483   -2.4267    2.4380 O   0  0  0  0  0  0  0  0  0  0  0  0
    0.8538    1.0412   -1.2697 O   0  0  0  0  0  0  0  0  0  0  0  0
   -0.7828    0.0775    0.0348 O   0  0  0  0  0  0  0  0  0  0  0  0
    2.4956    0.0775    0.0348 O   0  0  0  0  0  0  0  0  0  0  0  0
   -1.5054   -2.1905    2.7905 N   0  0  0  0  0  0  0  0  0  0  0  0
   -0.2369   -0.3666    2.7323 N   0  0  0  0  0  0  0  0  0  0  0  0
   -2.4922   -1.1312    2.8832 C   0  0  0  0  0  0  0  0  0  0  0  0
   -1.5224    0.0929    2.8228 C   0  0  0  0  0  0  0  0  0  0  0  0
   -3.4867   -1.2080    1.7131 C   0  0  0  0  0  0  0  0  0  0  0  0
   -3.1988   -1.1453    4.2503 C   0  0  0  0  0  0  0  0  0  0  0  0
   -0.2303   -1.7166    2.6478 C   0  0  0  0  0  0  0  0  0  0  0  0
    0.9059    0.4884    2.5361 C   0  0  0  0  0  0  0  0  0  0  0  0
   -4.3103   -2.3514    1.5986 C   0  0  0  0  0  0  0  0  0  0  0  0
   -2.4537   -1.0465    5.4338 C   0  0  0  0  0  0  0  0  0  0  0  0
   -3.8063   -0.0861    0.9311 C   0  0  0  0  0  0  0  0  0  0  0  0
   -4.6056   -1.1760    4.3690 C   0  0  0  0  0  0  0  0  0  0  0  0
   -5.4751   -2.3172    0.8333 C   0  0  0  0  0  0  0  0  0  0  0  0
   -3.0975   -0.9531    6.6673 C   0  0  0  0  0  0  0  0  0  0  0  0
   -4.9604   -0.0636    0.1513 C   0  0  0  0  0  0  0  0  0  0  0  0
   -5.2468   -1.0626    5.5919 C   0  0  0  0  0  0  0  0  0  0  0  0
   -5.7911   -1.1777    0.1003 C   0  0  0  0  0  0  0  0  0  0  0  0
   -4.4895   -0.9674    6.7450 C   0  0  0  0  0  0  0  0  0  0  0  0
    1.7142    0.9207   -1.7264 H   0  0  0  0  0  0  0  0  0  0  0  0
   -1.0134    0.9986    0.2783 H   0  0  0  0  0  0  0  0  0  0  0  0
   -1.7182   -3.1763    2.7488 H   0  0  0  0  0  0  0  0  0  0  0  0
    1.8356   -0.0878    2.5950 H   0  0  0  0  0  0  0  0  0  0  0  0
    0.9117    1.2553    3.3149 H   0  0  0  0  0  0  0  0  0  0  0  0
   -4.1470   -3.2075    2.2535 H   0  0  0  0  0  0  0  0  0  0  0  0
   -1.3666   -1.0129    5.4091 H   0  0  0  0  0  0  0  0  0  0  0  0
   -3.2093    0.8206    0.9540 H   0  0  0  0  0  0  0  0  0  0  0  0
   -5.2668   -1.2682    3.5136 H   0  0  0  0  0  0  0  0  0  0  0  0
   -6.1707   -3.1514    0.8720 H   0  0  0  0  0  0  0  0  0  0  0  0
   -2.5081   -0.8442    7.5720 H   0  0  0  0  0  0  0  0  0  0  0  0
   -5.2318    0.8489   -0.3739 H   0  0  0  0  0  0  0  0  0  0  0  0
   -6.3323   -1.0275    5.6178 H   0  0  0  0  0  0  0  0  0  0  0  0
   -6.6952   -1.1484   -0.4997 H   0  0  0  0  0  0  0  0  0  0  0  0
   -4.9902   -0.8977    7.7039 H   0  0  0  0  0  0  0  0  0  0  0  0
  1  3  1  0  0  0  0
  1  5  1  0  0  0  0
  1  6  1  0  0  0  0
  1  7  2  0  0  0  0
  2 11  2  0  0  0  0
  3 15  1  0  0  0  0
  4 14  2  0  0  0  0
  5 26  1  0  0  0  0
  6 27  1  0  0  0  0
  8 10  1  0  0  0  0
  8 14  1  0  0  0  0
  8 28  1  0  0  0  0
  9 11  1  0  0  0  0
  9 14  1  0  0  0  0
  9 15  1  0  0  0  0
 10 11  1  0  0  0  0
 10 12  1  0  0  0  0
 10 13  1  0  0  0  0
 12 16  2  0  0  0  0
 12 18  1  0  0  0  0
 13 17  2  0  0  0  0
 13 19  1  0  0  0  0
 15 29  1  0  0  0  0
 15 30  1  0  0  0  0
 16 20  1  0  0  0  0
 16 31  1  0  0  0  0
 17 21  1  0  0  0  0
 17 32  1  0  0  0  0
 18 22  2  0  0  0  0
 18 33  1  0  0  0  0
 19 23  2  0  0  0  0
 19 34  1  0  0  0  0
 20 24  2  0  0  0  0
 20 35  1  0  0  0  0
 21 25  2  0  0  0  0
 21 36  1  0  0  0  0
 22 24  1  0  0  0  0
 22 37  1  0  0  0  0
 23 25  1  0  0  0  0
 23 38  1  0  0  0  0
 24 39  1  0  0  0  0
 25 40  1  0  0  0  0
M  END
>  <DRUGBANK_ID>
DB01320

>  <COMMON_NAME>
Fosphenytoin

>  <CAS_NUMBER>
93390-81-9

>  <UNII>
B4SF212641

>  <SYNONYMS>
(3-Phosphoryloxymethyl)phenytoin; Fosfenitoina; Fosphenytoin; Fosphenytoine; Fosphenytoinum

$$$$
