MRA
 OpenBabel10282417173D

 38 39  0  0  0  0  0  0  0  0999 V2000
   -0.8438    1.4695    0.0222 C   0  0  0  0  0  0  0  0  0  0  0  0
   -1.4462    0.2431   -0.3171 C   0  0  0  0  0  0  0  0  0  0  0  0
   -0.5907   -0.8039   -0.5396 C   0  0  0  0  0  0  0  0  0  0  0  0
    0.7874   -0.5343   -0.0632 C   0  0  0  0  0  0  0  0  0  0  0  0
    1.4243    0.6273   -0.0541 C   0  0  0  0  0  0  0  0  0  0  0  0
    0.5644    1.6484   -0.0419 C   0  0  0  0  0  0  0  0  0  0  0  0
    1.2294    2.8891   -0.1555 C   0  0  0  0  0  0  0  0  0  0  0  0
    1.9038    3.8338   -0.3212 C   0  0  0  0  0  0  0  0  0  0  0  0
   -1.1325   -2.3208   -1.3021 N   0  0  0  0  0  0  0  0  0  0  0  0
   -0.9189   -4.1085   -0.7264 C   0  0  0  0  0  0  0  0  0  0  0  0
   -0.1692   -4.5205    0.8725 C   0  0  0  0  0  0  0  0  0  0  0  0
    0.7399   -5.5315    0.9444 C   0  0  0  0  0  0  0  0  0  0  0  0
    0.6259   -6.3809   -0.1364 C   0  0  0  0  0  0  0  0  0  0  0  0
   -0.0180   -6.0773   -1.4305 C   0  0  0  0  0  0  0  0  0  0  0  0
   -0.7242   -4.9211   -1.7867 C   0  0  0  0  0  0  0  0  0  0  0  0
   -1.0461   -4.5185   -3.0150 F   0  0  0  0  0  0  0  0  0  0  0  0
    0.1433   -7.0009   -2.3808 F   0  0  0  0  0  0  0  0  0  0  0  0
    0.0406   -3.4562    2.3776 C   0  0  0  0  0  0  0  0  0  0  0  0
    0.9121   -3.6492    3.2271 O   0  0  0  0  0  0  0  0  0  0  0  0
   -0.6046   -2.1804    2.5320 N   0  0  0  0  0  0  0  0  0  0  0  0
   -1.5892   -1.7851    1.6717 O   0  0  0  0  0  0  0  0  0  0  0  0
   -1.3481   -2.7096    0.7163 C   0  0  0  0  0  0  0  0  0  0  0  0
    0.5693   -2.7753   -0.0982 C   0  0  0  0  0  0  0  0  0  0  0  0
    1.7364   -2.9487    0.7173 O   0  0  0  0  0  0  0  0  0  0  0  0
   -2.7687    0.0558   -0.2734 F   0  0  0  0  0  0  0  0  0  0  0  0
   -1.4533    2.3199    0.2799 H   0  0  0  0  0  0  0  0  0  0  0  0
    1.6498   -1.1503    0.1460 H   0  0  0  0  0  0  0  0  0  0  0  0
    2.5153    0.5777   -0.1065 H   0  0  0  0  0  0  0  0  0  0  0  0
    2.4778    4.7226   -0.4662 H   0  0  0  0  0  0  0  0  0  0  0  0
   -2.1301   -2.0491   -1.1304 H   0  0  0  0  0  0  0  0  0  0  0  0
    1.5879   -5.5326    1.6474 H   0  0  0  0  0  0  0  0  0  0  0  0
    1.0069   -7.3816    0.0401 H   0  0  0  0  0  0  0  0  0  0  0  0
   -0.3515   -1.4171    3.1475 H   0  0  0  0  0  0  0  0  0  0  0  0
   -1.7816   -3.6358    1.2377 H   0  0  0  0  0  0  0  0  0  0  0  0
   -2.3311   -2.9616    0.1169 H   0  0  0  0  0  0  0  0  0  0  0  0
    0.8819   -3.4933   -0.9306 H   0  0  0  0  0  0  0  0  0  0  0  0
    0.8347   -2.1672   -1.0422 H   0  0  0  0  0  0  0  0  0  0  0  0
    1.5661   -2.3996    1.4950 H   0  0  0  0  0  0  0  0  0  0  0  0
  1  2  2  0  0  0  0
  1  6  1  0  0  0  0
  1 26  1  0  0  0  0
  2 25  1  0  0  0  0
  2  3  1  0  0  0  0
  3  9  1  0  0  0  0
  3  4  2  0  0  0  0
  4  5  1  0  0  0  0
  4 27  1  0  0  0  0
  5  6  2  0  0  0  0
  5 28  1  0  0  0  0
  6  7  1  0  0  0  0
  7  8  3  0  0  0  0
  8 29  1  0  0  0  0
  9 10  1  0  0  0  0
  9 30  1  0  0  0  0
 10 15  2  0  0  0  0
 10 11  1  0  0  0  0
 11 18  1  0  0  0  0
 11 12  2  0  0  0  0
 12 13  1  0  0  0  0
 12 31  1  0  0  0  0
 13 14  2  0  0  0  0
 13 32  1  0  0  0  0
 14 15  1  0  0  0  0
 14 17  1  0  0  0  0
 15 16  1  0  0  0  0
 18 19  2  0  0  0  0
 18 20  1  0  0  0  0
 20 21  1  0  0  0  0
 20 33  1  0  0  0  0
 21 22  1  0  0  0  0
 22 23  1  0  0  0  0
 22 34  1  0  0  0  0
 22 35  1  0  0  0  0
 23 24  1  0  0  0  0
 23 36  1  0  0  0  0
 23 37  1  0  0  0  0
 24 38  1  0  0  0  0
M  END
>  <DRUGBANK_ID>
DB08208

>  <COMMON_NAME>
2-[(4-ETHYNYL-2-FLUOROPHENYL)AMINO]-3,4-DIFLUORO-N-(2-HYDROXYETHOXY)BENZAMIDE

$$$$
