
 OpenBabel10282417183D

 22 20  0  0  0  0  0  0  0  0999 V2000
    0.9134   -0.0272    0.0420 C   0  0  0  0  0  0  0  0  0  0  0  0
    0.1784   -0.7569   -1.0012 N   0  0  0  0  0  0  0  0  0  0  0  0
   -1.2916   -0.7569   -1.0012 C   0  0  0  0  0  0  0  0  0  0  0  0
   -1.7983   -0.1507   -2.2997 C   0  0  3  0  0  0  0  0  0  0  0  0
   -1.2916   -0.9722   -3.4740 C   0  0  0  0  0  0  0  0  0  0  0  0
   -1.9849   -2.9258   -3.3039 Hg  0  3  0  0  0  0  0  0  0  0  0  0
   -3.2183   -0.1507   -2.2997 O   0  0  0  0  0  0  0  0  0  0  0  0
   -3.6916   -1.4845   -2.1836 C   0  0  0  0  0  0  0  0  0  0  0  0
    0.2780    0.6037    0.9438 O   0  0  0  0  0  0  0  0  0  0  0  0
    2.3834   -0.0272    0.0420 N   0  0  0  0  0  0  0  0  0  0  0  0
    1.0938   -0.0082   -0.0336 Cl  0  5  0  0  0  0  0  0  0  0  0  0
    0.6884   -1.2633   -1.7250 H   0  0  0  0  0  0  0  0  0  0  0  0
   -1.6483   -1.7619   -0.9137 H   0  0  0  0  0  0  0  0  0  0  0  0
   -1.6483   -0.1787   -0.1745 H   0  0  0  0  0  0  0  0  0  0  0  0
   -1.4416    0.8543   -2.3872 H   0  0  0  0  0  0  0  0  0  0  0  0
   -1.6483   -0.5454   -4.3881 H   0  0  0  0  0  0  0  0  0  0  0  0
   -0.2216   -0.9722   -3.4740 H   0  0  0  0  0  0  0  0  0  0  0  0
   -3.3349   -2.0627   -3.0102 H   0  0  0  0  0  0  0  0  0  0  0  0
   -3.3349   -1.9112   -1.2695 H   0  0  0  0  0  0  0  0  0  0  0  0
   -4.7616   -1.4845   -2.1836 H   0  0  0  0  0  0  0  0  0  0  0  0
    2.8934   -0.5335   -0.6818 H   0  0  0  0  0  0  0  0  0  0  0  0
    2.8934    0.4792    0.7658 H   0  0  0  0  0  0  0  0  0  0  0  0
  2  1  1  0  0  0  0
  2 12  1  0  0  0  0
  3  2  1  0  0  0  0
  3 13  1  0  0  0  0
  3 14  1  0  0  0  0
  4  3  1  0  0  0  0
  4  5  1  0  0  0  0
  4 15  1  0  0  0  0
  5 16  1  0  0  0  0
  5 17  1  0  0  0  0
  6  5  1  0  0  0  0
  7  4  1  0  0  0  0
  8  7  1  0  0  0  0
  8 18  1  0  0  0  0
  8 19  1  0  0  0  0
  8 20  1  0  0  0  0
  9  1  2  0  0  0  0
 10  1  1  0  0  0  0
 10 21  1  0  0  0  0
 10 22  1  0  0  0  0
M  ISO  1   6 197
M  CHG  2   6   1  11  -1
M  END
>  <DRUGBANK_ID>
DB09406

>  <COMMON_NAME>
Chlormerodrin Hg-197

>  <CAS_NUMBER>
64461-80-9

>  <UNII>
1D6EFC579A

>  <SYNONYMS>
Chlormerodrin (197Hg); Chlormerodrin Hg 197; Chlormerodrin Hg-197; Chlormerodrin, Hg-197

$$$$
