
 OpenBabel10282417163D

 53 55  0  0  0  0  0  0  0  0999 V2000
    3.1230    0.0019   -0.0135 Cl  0  0  0  0  0  0  0  0  0  0  0  0
   -3.1109    0.0447    0.0015 Cl  0  0  0  0  0  0  0  0  0  0  0  0
    3.6919   -5.6448    6.3582 O   0  0  0  0  0  0  0  0  0  0  0  0
    2.8940   -2.8917    5.1878 O   0  0  0  0  0  0  0  0  0  0  0  0
    4.4920   -1.6347    8.3048 N   0  0  0  0  0  0  0  0  0  0  0  0
    0.5636   -6.6614    2.0140 N   0  0  0  0  0  0  0  0  0  0  0  0
    1.3805   -2.4933   -0.0979 N   0  0  0  0  0  0  0  0  0  0  0  0
    0.9931   -4.5757    0.9766 N   0  0  0  0  0  0  0  0  0  0  0  0
   -0.5982   -6.1169    0.1019 N   0  0  0  0  0  0  0  0  0  0  0  0
    3.7542   -3.0975    6.3210 C   0  0  1  0  0  0  0  0  0  0  0  0
    3.5064   -1.8712    7.2328 C   0  0  0  0  0  0  0  0  0  0  0  0
    3.5028   -4.4341    7.0741 C   0  0  0  0  0  0  0  0  0  0  0  0
    4.2041   -0.3623    8.9658 C   0  0  0  0  0  0  0  0  0  0  0  0
    4.5144   -2.6707    9.3326 C   0  0  0  0  0  0  0  0  0  0  0  0
    2.7257   -5.9900    5.4765 C   0  0  0  0  0  0  0  0  0  0  0  0
    1.5555   -5.2696    5.2686 C   0  0  0  0  0  0  0  0  0  0  0  0
    3.0735   -7.0503    4.6520 C   0  0  0  0  0  0  0  0  0  0  0  0
    1.2568   -6.4407    3.1976 C   0  0  0  0  0  0  0  0  0  0  0  0
    0.8709   -5.4351    4.0810 C   0  0  0  0  0  0  0  0  0  0  0  0
    2.3245   -7.2821    3.5131 C   0  0  0  0  0  0  0  0  0  0  0  0
    0.3025   -5.7399    1.0248 C   0  0  0  0  0  0  0  0  0  0  0  0
    0.7576   -3.7586   -0.0484 C   0  0  0  0  0  0  0  0  0  0  0  0
    0.6922   -1.2487    0.0203 C   0  0  0  0  0  0  0  0  0  0  0  0
   -0.1250   -4.0932   -1.0565 C   0  0  0  0  0  0  0  0  0  0  0  0
    1.3946   -0.0287    0.0130 C   0  0  0  0  0  0  0  0  0  0  0  0
   -0.7148   -1.1864    0.0338 C   0  0  0  0  0  0  0  0  0  0  0  0
   -0.7817   -5.2894   -0.9267 C   0  0  0  0  0  0  0  0  0  0  0  0
   -1.3904    0.0324    0.0284 C   0  0  0  0  0  0  0  0  0  0  0  0
    0.7129    1.1963    0.0232 C   0  0  0  0  0  0  0  0  0  0  0  0
   -0.6829    1.2263    0.0257 C   0  0  0  0  0  0  0  0  0  0  0  0
   -0.0530   -7.4606    1.9925 H   0  0  0  0  0  0  0  0  0  0  0  0
    2.2326   -2.4900    0.4625 H   0  0  0  0  0  0  0  0  0  0  0  0
    3.1046   -3.5846    4.5344 H   0  0  0  0  0  0  0  0  0  0  0  0
    4.7721   -3.0764    5.9211 H   0  0  0  0  0  0  0  0  0  0  0  0
    3.4965   -0.9896    6.5708 H   0  0  0  0  0  0  0  0  0  0  0  0
    2.4800   -1.9154    7.6310 H   0  0  0  0  0  0  0  0  0  0  0  0
    2.5615   -4.4406    7.6379 H   0  0  0  0  0  0  0  0  0  0  0  0
    4.2818   -4.5663    7.8050 H   0  0  0  0  0  0  0  0  0  0  0  0
    3.2215   -0.3734    9.4511 H   0  0  0  0  0  0  0  0  0  0  0  0
    4.9658   -0.1708    9.7291 H   0  0  0  0  0  0  0  0  0  0  0  0
    4.2463    0.4715    8.2596 H   0  0  0  0  0  0  0  0  0  0  0  0
    3.5068   -2.9447    9.6677 H   0  0  0  0  0  0  0  0  0  0  0  0
    5.0619   -3.5444    8.9923 H   0  0  0  0  0  0  0  0  0  0  0  0
    5.1055   -2.3677   10.1995 H   0  0  0  0  0  0  0  0  0  0  0  0
    1.2413   -4.4639    5.9247 H   0  0  0  0  0  0  0  0  0  0  0  0
    3.9609   -7.6405    4.8622 H   0  0  0  0  0  0  0  0  0  0  0  0
    0.0828   -4.7294    3.8317 H   0  0  0  0  0  0  0  0  0  0  0  0
    2.6380   -8.0513    2.8141 H   0  0  0  0  0  0  0  0  0  0  0  0
   -0.2864   -3.4383   -1.8960 H   0  0  0  0  0  0  0  0  0  0  0  0
   -1.3138   -2.0909    0.0606 H   0  0  0  0  0  0  0  0  0  0  0  0
   -1.4911   -5.6153   -1.6796 H   0  0  0  0  0  0  0  0  0  0  0  0
    1.2645    2.1330    0.0177 H   0  0  0  0  0  0  0  0  0  0  0  0
   -1.2102    2.1763    0.0238 H   0  0  0  0  0  0  0  0  0  0  0  0
  1 25  1  0  0  0  0
  2 28  1  0  0  0  0
  3 12  1  0  0  0  0
  3 15  1  0  0  0  0
  4 33  1  0  0  0  0
  5 11  1  0  0  0  0
  5 13  1  0  0  0  0
  5 14  1  0  0  0  0
  6 18  1  0  0  0  0
  6 21  1  0  0  0  0
  6 31  1  0  0  0  0
  7 22  1  0  0  0  0
  7 23  1  0  0  0  0
  7 32  1  0  0  0  0
  8 21  1  0  0  0  0
  8 22  2  0  0  0  0
  9 21  2  0  0  0  0
  9 27  1  0  0  0  0
 10  4  1  0  0  0  0
 10 11  1  0  0  0  0
 10 12  1  0  0  0  0
 10 34  1  6  0  0  0
 11 35  1  0  0  0  0
 11 36  1  0  0  0  0
 12 37  1  0  0  0  0
 12 38  1  0  0  0  0
 13 39  1  0  0  0  0
 13 40  1  0  0  0  0
 13 41  1  0  0  0  0
 14 42  1  0  0  0  0
 14 43  1  0  0  0  0
 14 44  1  0  0  0  0
 15 16  2  0  0  0  0
 15 17  1  0  0  0  0
 16 19  1  0  0  0  0
 16 45  1  0  0  0  0
 17 20  2  0  0  0  0
 17 46  1  0  0  0  0
 18 19  2  0  0  0  0
 18 20  1  0  0  0  0
 19 47  1  0  0  0  0
 20 48  1  0  0  0  0
 22 24  1  0  0  0  0
 23 25  2  0  0  0  0
 23 26  1  0  0  0  0
 24 27  2  0  0  0  0
 24 49  1  0  0  0  0
 25 29  1  0  0  0  0
 26 28  2  0  0  0  0
 26 50  1  0  0  0  0
 27 51  1  0  0  0  0
 28 30  1  0  0  0  0
 29 30  2  0  0  0  0
 29 52  1  0  0  0  0
 30 53  1  0  0  0  0
M  END
>  <DRUGBANK_ID>
DB07755

>  <COMMON_NAME>
(2S)-1-[4-({4-[(2,5-Dichlorophenyl)amino]-2-pyrimidinyl}amino)phenoxy]-3-(dimethylamino)-2-propanol

$$$$
