
 OpenBabel10282417123D

 43 45  0  0  1  0  0  0  0  0999 V2000
    0.7388   -3.5499   -0.0213 N   0  0  0  0  0  0  0  0  0  0  0  0
   -0.2472   -3.4754    0.9015 C   0  0  0  0  0  0  0  0  0  0  0  0
    1.9133   -2.7189   -0.0692 C   0  0  1  0  0  0  0  0  0  0  0  0
    0.4109   -4.5004   -0.9434 C   0  0  0  0  0  0  0  0  0  0  0  0
   -1.1164   -4.4556    0.4486 C   0  0  0  0  0  0  0  0  0  0  0  0
   -0.4604   -2.7074    2.0358 C   0  0  0  0  0  0  0  0  0  0  0  0
    2.7045   -2.8082    1.1617 O   0  0  0  0  0  0  0  0  0  0  0  0
    2.7811   -3.1967   -1.2011 C   0  0  1  0  0  0  0  0  0  0  0  0
   -0.7385   -5.0856   -0.6654 N   0  0  0  0  0  0  0  0  0  0  0  0
   -2.2659   -4.7353    1.1462 C   0  0  0  0  0  0  0  0  0  0  0  0
   -1.6382   -2.9995    2.7503 C   0  0  0  0  0  0  0  0  0  0  0  0
    3.9391   -3.5324    0.9392 C   0  0  1  0  0  0  0  0  0  0  0  0
    3.7229   -4.1957   -0.5094 C   0  0  1  0  0  0  0  0  0  0  0  0
    2.2729   -3.4570   -2.4907 O   0  0  0  0  0  0  0  0  0  0  0  0
   -2.5221   -4.0077    2.3020 C   0  0  0  0  0  0  0  0  0  0  0  0
   -1.8888   -2.1982    3.9918 C   0  0  0  0  0  0  0  0  0  0  0  0
    5.2256   -2.5058    1.2685 C   0  0  0  0  0  0  0  0  0  0  0  0
    3.1573   -5.5001   -0.4879 O   0  0  0  0  0  0  0  0  0  0  0  0
   -3.7908   -4.4226    2.9637 C   0  0  0  0  0  0  0  0  0  0  0  0
    5.2013   -1.1161    0.7172 O   0  0  0  0  0  0  0  0  0  0  0  0
    4.7337   -1.0361   -0.9465 P   0  0  0  0  0  0  0  0  0  0  0  0
    6.2049   -0.3187   -1.0818 O   0  0  0  0  0  0  0  0  0  0  0  0
    5.5489   -2.3855   -1.2938 O   0  0  0  0  0  0  0  0  0  0  0  0
    4.3152   -0.9646   -2.4355 O   0  0  0  0  0  0  0  0  0  0  0  0
    1.5978   -1.6684   -0.1584 H   0  0  0  0  0  0  0  0  0  0  0  0
    0.9782   -4.8365   -1.7745 H   0  0  0  0  0  0  0  0  0  0  0  0
    0.2424   -1.9427    2.3655 H   0  0  0  0  0  0  0  0  0  0  0  0
    3.1716   -2.2598   -1.4315 H   0  0  0  0  0  0  0  0  0  0  0  0
   -2.8993   -5.5173    0.7574 H   0  0  0  0  0  0  0  0  0  0  0  0
    4.0069   -4.3442    1.6789 H   0  0  0  0  0  0  0  0  0  0  0  0
    4.6452   -4.4159   -1.0545 H   0  0  0  0  0  0  0  0  0  0  0  0
    2.6303   -4.3012   -2.8133 H   0  0  0  0  0  0  0  0  0  0  0  0
   -1.0717   -2.3529    4.7026 H   0  0  0  0  0  0  0  0  0  0  0  0
   -1.9680   -1.1377    3.7360 H   0  0  0  0  0  0  0  0  0  0  0  0
   -2.8107   -2.4773    4.4965 H   0  0  0  0  0  0  0  0  0  0  0  0
    5.3894   -2.4131    2.3498 H   0  0  0  0  0  0  0  0  0  0  0  0
    6.1602   -2.9784    0.9076 H   0  0  0  0  0  0  0  0  0  0  0  0
    2.3403   -5.5247    0.0341 H   0  0  0  0  0  0  0  0  0  0  0  0
   -4.6114   -4.2761    2.2541 H   0  0  0  0  0  0  0  0  0  0  0  0
   -3.7150   -5.4844    3.2204 H   0  0  0  0  0  0  0  0  0  0  0  0
   -4.0169   -3.8688    3.8661 H   0  0  0  0  0  0  0  0  0  0  0  0
    6.3036    0.4956   -1.5835 H   0  0  0  0  0  0  0  0  0  0  0  0
    5.1596   -2.9276   -0.6537 H   0  0  0  0  0  0  0  0  0  0  0  0
  1  2  1  0  0  0  0
  1  4  1  0  0  0  0
  2  5  2  0  0  0  0
  2  6  1  0  0  0  0
  3  7  1  0  0  0  0
  3  8  1  0  0  0  0
  3 25  1  6  0  0  0
  3  1  1  0  0  0  0
  4  9  2  0  0  0  0
  4 26  1  0  0  0  0
  5 10  1  0  0  0  0
  5  9  1  0  0  0  0
  6 11  2  0  0  0  0
  6 27  1  0  0  0  0
  7 12  1  0  0  0  0
  8 13  1  0  0  0  0
  8 14  1  0  0  0  0
  8 28  1  6  0  0  0
 10 15  2  0  0  0  0
 10 29  1  0  0  0  0
 11 16  1  0  0  0  0
 11 15  1  0  0  0  0
 12 13  1  0  0  0  0
 12 30  1  1  0  0  0
 12 17  1  0  0  0  0
 13 18  1  0  0  0  0
 13 31  1  6  0  0  0
 14 32  1  0  0  0  0
 15 19  1  0  0  0  0
 16 33  1  0  0  0  0
 16 34  1  0  0  0  0
 16 35  1  0  0  0  0
 17 20  1  0  0  0  0
 17 36  1  0  0  0  0
 17 37  1  0  0  0  0
 18 38  1  0  0  0  0
 19 39  1  0  0  0  0
 19 40  1  0  0  0  0
 19 41  1  0  0  0  0
 20 21  1  0  0  0  0
 21 22  1  0  0  0  0
 21 23  1  0  0  0  0
 21 24  2  0  0  0  0
 22 42  1  0  0  0  0
 23 43  1  0  0  0  0
M  END
>  <DRUGBANK_ID>
DB02030

>  <SECONDARY_ACCESSION_NUMBERS>
EXPT02761

>  <COMMON_NAME>
Alpha-Ribazole-5'-Phosphate

>  <UNII>
TT4G266KJN

$$$$
