
 OpenBabel10282417233D

 14 14  0  0  0  0  0  0  0  0999 V2000
    1.4704    0.0088   -0.0033 C   0  0  0  0  0  0  0  0  0  0  0  0
    0.7283    1.1975    0.0024 C   0  0  0  0  0  0  0  0  0  0  0  0
    0.7863   -1.2068   -0.0026 C   0  0  0  0  0  0  0  0  0  0  0  0
    2.9584    0.1246   -0.0101 C   0  0  0  0  0  0  0  0  0  0  0  0
   -0.6535    1.1186    0.0009 C   0  0  0  0  0  0  0  0  0  0  0  0
   -0.5994   -1.1788    0.0057 C   0  0  0  0  0  0  0  0  0  0  0  0
    3.6639   -1.0241   -0.0198 O   0  0  0  0  0  0  0  0  0  0  0  0
    3.5163    1.2124   -0.0080 O   0  0  0  0  0  0  0  0  0  0  0  0
   -1.3308   -0.0470    0.0042 N   0  0  0  0  0  0  0  0  0  0  0  0
    1.2119    2.1706    0.0070 H   0  0  0  0  0  0  0  0  0  0  0  0
    1.2731   -2.1704   -0.0069 H   0  0  0  0  0  0  0  0  0  0  0  0
   -1.2711    2.0132   -0.0031 H   0  0  0  0  0  0  0  0  0  0  0  0
   -1.1762   -2.1001    0.0148 H   0  0  0  0  0  0  0  0  0  0  0  0
    3.1913   -1.8709   -0.0226 H   0  0  0  0  0  0  0  0  0  0  0  0
  1  2  1  0  0  0  0
  1  3  2  0  0  0  0
  1  4  1  0  0  0  0
  2  5  2  0  0  0  0
  2 10  1  0  0  0  0
  3  6  1  0  0  0  0
  3 11  1  0  0  0  0
  4  7  1  0  0  0  0
  4  8  2  0  0  0  0
  5  9  1  0  0  0  0
  5 12  1  0  0  0  0
  6  9  2  0  0  0  0
  6 13  1  0  0  0  0
  7 14  1  0  0  0  0
M  END
>  <DRUGBANK_ID>
DB16884

>  <COMMON_NAME>
Isonicotinic acid

>  <CAS_NUMBER>
55-22-1

>  <UNII>
Y8SYN761TQ

>  <SYNONYMS>
4-Pyridinecarboxylic acid

$$$$
