
 OpenBabel10282417103D

 38 38  0  0  0  0  0  0  0  0999 V2000
    0.5677    0.6329   -0.0875 C   0  0  0  0  0  0  0  0  0  0  0  0
    0.5360   -0.7534   -0.0116 C   0  0  0  0  0  0  0  0  0  0  0  0
   -0.6825   -1.4252   -0.0061 C   0  0  0  0  0  0  0  0  0  0  0  0
   -1.8767   -0.6948   -0.0301 C   0  0  0  0  0  0  0  0  0  0  0  0
   -1.8508    0.7091   -0.0993 C   0  0  0  0  0  0  0  0  0  0  0  0
   -0.6054    1.3487   -0.1886 C   0  0  0  0  0  0  0  0  0  0  0  0
   -3.1353    1.5171   -0.0643 C   0  0  3  0  0  0  0  0  0  0  0  0
   -3.3057    2.4032    1.2309 C   0  0  3  0  0  0  0  0  0  0  0  0
   -3.1949    2.3181   -1.2430 O   0  0  0  0  0  0  0  0  0  0  0  0
   -2.1930    3.3820    1.3768 N   0  0  0  0  0  0  0  0  0  0  0  0
    1.7317   -1.4088    0.0389 O   0  0  0  0  0  0  0  0  0  0  0  0
    1.7416    1.3243   -0.0615 O   0  0  0  0  0  0  0  0  0  0  0  0
   -2.1976    4.1895    2.6018 C   0  0  0  0  0  0  0  0  0  0  0  0
   -2.1238    3.3036    3.8456 C   0  0  0  0  0  0  0  0  0  0  0  0
   -0.9770    5.1121    2.5444 C   0  0  0  0  0  0  0  0  0  0  0  0
   -4.6516    3.1567    1.2312 C   0  0  0  0  0  0  0  0  0  0  0  0
   -5.8532    2.2296    1.2331 C   0  0  0  0  0  0  0  0  0  0  0  0
   -0.7289   -2.5103    0.0229 H   0  0  0  0  0  0  0  0  0  0  0  0
   -2.8267   -1.2257   -0.0093 H   0  0  0  0  0  0  0  0  0  0  0  0
   -0.5296    2.4260   -0.3155 H   0  0  0  0  0  0  0  0  0  0  0  0
   -3.9729    0.8137   -0.1219 H   0  0  0  0  0  0  0  0  0  0  0  0
   -3.2793    1.7033    2.0739 H   0  0  0  0  0  0  0  0  0  0  0  0
   -2.5911    3.0639   -1.0708 H   0  0  0  0  0  0  0  0  0  0  0  0
   -1.3290    2.8404    1.4351 H   0  0  0  0  0  0  0  0  0  0  0  0
    1.5485   -2.3639    0.0070 H   0  0  0  0  0  0  0  0  0  0  0  0
    2.4367    0.6416   -0.0171 H   0  0  0  0  0  0  0  0  0  0  0  0
   -3.0785    4.8355    2.6407 H   0  0  0  0  0  0  0  0  0  0  0  0
   -1.2248    2.6757    3.8289 H   0  0  0  0  0  0  0  0  0  0  0  0
   -2.1016    3.9111    4.7535 H   0  0  0  0  0  0  0  0  0  0  0  0
   -2.9913    2.6416    3.9274 H   0  0  0  0  0  0  0  0  0  0  0  0
   -1.0058    5.7492    1.6527 H   0  0  0  0  0  0  0  0  0  0  0  0
   -0.9550    5.7671    3.4212 H   0  0  0  0  0  0  0  0  0  0  0  0
   -0.0390    4.5450    2.5223 H   0  0  0  0  0  0  0  0  0  0  0  0
   -4.7486    3.7701    2.1331 H   0  0  0  0  0  0  0  0  0  0  0  0
   -4.7057    3.8435    0.3780 H   0  0  0  0  0  0  0  0  0  0  0  0
   -5.8177    1.5651    2.1023 H   0  0  0  0  0  0  0  0  0  0  0  0
   -6.7736    2.8175    1.2897 H   0  0  0  0  0  0  0  0  0  0  0  0
   -5.9027    1.6229    0.3271 H   0  0  0  0  0  0  0  0  0  0  0  0
  1  2  2  0  0  0  0
  1  6  1  0  0  0  0
  1 12  1  0  0  0  0
  2  3  1  0  0  0  0
  2 11  1  0  0  0  0
  3  4  2  0  0  0  0
  3 18  1  0  0  0  0
  4  5  1  0  0  0  0
  4 19  1  0  0  0  0
  5  6  2  0  0  0  0
  5  7  1  0  0  0  0
  6 20  1  0  0  0  0
  7  8  1  0  0  0  0
  7  9  1  0  0  0  0
  7 21  1  0  0  0  0
  8 10  1  0  0  0  0
  8 16  1  0  0  0  0
  8 22  1  0  0  0  0
  9 23  1  0  0  0  0
 10 13  1  0  0  0  0
 10 24  1  0  0  0  0
 11 25  1  0  0  0  0
 12 26  1  0  0  0  0
 13 14  1  0  0  0  0
 13 15  1  0  0  0  0
 13 27  1  0  0  0  0
 14 28  1  0  0  0  0
 14 29  1  0  0  0  0
 14 30  1  0  0  0  0
 15 31  1  0  0  0  0
 15 32  1  0  0  0  0
 15 33  1  0  0  0  0
 16 17  1  0  0  0  0
 16 34  1  0  0  0  0
 16 35  1  0  0  0  0
 17 36  1  0  0  0  0
 17 37  1  0  0  0  0
 17 38  1  0  0  0  0
M  END
>  <DRUGBANK_ID>
DB00221

>  <SECONDARY_ACCESSION_NUMBERS>
APRD00750

>  <COMMON_NAME>
Isoetharine

>  <CAS_NUMBER>
79490-84-9

>  <UNII>
YV0SN3276Q

>  <SYNONYMS>
Isoetarina; Isoetarine; Isoetarinum; Isoetharine

$$$$
