
 OpenBabel10282417193D

 60 64  0  0  0  0  0  0  0  0999 V2000
    2.5463   -0.0653   -0.0429 C   0  0  0  0  0  0  0  0  0  0  0  0
    1.0480   -0.1058   -0.0073 C   0  0  0  0  0  0  0  0  0  0  0  0
    0.3942    1.1016    0.1675 C   0  0  0  0  0  0  0  0  0  0  0  0
   -0.9736    1.1155    0.3744 C   0  0  0  0  0  0  0  0  0  0  0  0
   -1.7842    0.0258    0.0992 C   0  0  0  0  0  0  0  0  0  0  0  0
   -1.1305   -1.1981   -0.0348 C   0  0  0  0  0  0  0  0  0  0  0  0
    0.2893   -1.2920   -0.0288 C   0  0  0  0  0  0  0  0  0  0  0  0
    0.9416   -2.5397   -0.1322 N   0  0  0  0  0  0  0  0  0  0  0  0
    0.2963   -3.7719   -0.0991 C   0  0  0  0  0  0  0  0  0  0  0  0
    0.5013   -4.5953    0.9407 N   0  0  0  0  0  0  0  0  0  0  0  0
   -0.2514   -5.7123    0.9743 C   0  0  0  0  0  0  0  0  0  0  0  0
   -1.1490   -6.0548   -0.0077 C   0  0  0  0  0  0  0  0  0  0  0  0
   -1.2587   -5.1735   -1.0606 C   0  0  0  0  0  0  0  0  0  0  0  0
   -0.5530   -4.0321   -1.0996 N   0  0  0  0  0  0  0  0  0  0  0  0
   -2.1732   -5.4030   -2.1797 C   0  0  0  0  0  0  0  0  0  0  0  0
   -3.5361   -5.6060   -1.9784 C   0  0  0  0  0  0  0  0  0  0  0  0
   -4.4070   -5.8739   -2.9824 N   0  0  0  0  0  0  0  0  0  0  0  0
   -3.8603   -5.9084   -4.2169 C   0  0  0  0  0  0  0  0  0  0  0  0
   -2.5088   -5.7052   -4.4361 C   0  0  0  0  0  0  0  0  0  0  0  0
   -1.6387   -5.4575   -3.4308 N   0  0  0  0  0  0  0  0  0  0  0  0
   -3.2908    0.1141   -0.0202 C   0  0  0  0  0  0  0  0  0  0  0  0
   -3.9513   -0.9169   -0.0240 O   0  0  0  0  0  0  0  0  0  0  0  0
   -3.9733    1.3379   -0.0706 N   0  0  0  0  0  0  0  0  0  0  0  0
   -3.4586    2.6407   -0.1958 C   0  0  0  0  0  0  0  0  0  0  0  0
   -2.4680    2.9101   -1.1552 C   0  0  0  0  0  0  0  0  0  0  0  0
   -1.6659    4.0555   -1.0535 C   0  0  0  0  0  0  0  0  0  0  0  0
   -2.0138    5.0338   -0.1173 C   0  0  0  0  0  0  0  0  0  0  0  0
   -3.0967    4.8263    0.7545 C   0  0  0  0  0  0  0  0  0  0  0  0
   -3.8077    3.6175    0.7489 C   0  0  0  0  0  0  0  0  0  0  0  0
   -3.4368    5.8824    1.6255 N   0  0  0  0  0  0  0  0  0  0  0  0
   -3.6095    5.8623    2.9875 C   0  0  0  0  0  0  0  0  0  0  0  0
   -3.8155    7.1818    3.3520 C   0  0  0  0  0  0  0  0  0  0  0  0
   -3.8361    7.9898    2.2421 N   0  0  0  0  0  0  0  0  0  0  0  0
   -3.6066    7.1878    1.2300 C   0  0  0  0  0  0  0  0  0  0  0  0
   -3.9785    7.7740    4.6995 C   0  0  0  0  0  0  0  0  0  0  0  0
   -0.3778    4.1623   -1.8358 C   0  0  0  0  0  0  0  0  0  0  0  0
   -0.3893    5.1928   -2.7182 F   0  0  0  0  0  0  0  0  0  0  0  0
    0.7007    4.3690   -1.0247 F   0  0  0  0  0  0  0  0  0  0  0  0
   -0.0810    3.0439   -2.5521 F   0  0  0  0  0  0  0  0  0  0  0  0
    2.9457   -0.5550    0.8496 H   0  0  0  0  0  0  0  0  0  0  0  0
    2.9285   -0.5383   -0.9492 H   0  0  0  0  0  0  0  0  0  0  0  0
    2.9136    0.9694   -0.0305 H   0  0  0  0  0  0  0  0  0  0  0  0
    0.9370    2.0433    0.1877 H   0  0  0  0  0  0  0  0  0  0  0  0
   -1.3770    2.0424    0.7401 H   0  0  0  0  0  0  0  0  0  0  0  0
   -1.7415   -2.0965   -0.0922 H   0  0  0  0  0  0  0  0  0  0  0  0
    1.8673   -2.5886    0.2627 H   0  0  0  0  0  0  0  0  0  0  0  0
   -0.1149   -6.3486    1.8447 H   0  0  0  0  0  0  0  0  0  0  0  0
   -1.7216   -6.9707    0.0361 H   0  0  0  0  0  0  0  0  0  0  0  0
   -3.9726   -5.5618   -0.9861 H   0  0  0  0  0  0  0  0  0  0  0  0
   -4.5444   -6.1058   -5.0338 H   0  0  0  0  0  0  0  0  0  0  0  0
   -2.0853   -5.7435   -5.4332 H   0  0  0  0  0  0  0  0  0  0  0  0
   -4.9645    1.2341    0.1208 H   0  0  0  0  0  0  0  0  0  0  0  0
   -2.1909    2.1323   -1.8691 H   0  0  0  0  0  0  0  0  0  0  0  0
   -1.3888    5.9237   -0.0205 H   0  0  0  0  0  0  0  0  0  0  0  0
   -4.5866    3.4240    1.4826 H   0  0  0  0  0  0  0  0  0  0  0  0
   -3.4850    4.9706    3.5852 H   0  0  0  0  0  0  0  0  0  0  0  0
   -3.5871    7.4760    0.1871 H   0  0  0  0  0  0  0  0  0  0  0  0
   -3.2103    8.5337    4.8815 H   0  0  0  0  0  0  0  0  0  0  0  0
   -4.9591    8.2514    4.7908 H   0  0  0  0  0  0  0  0  0  0  0  0
   -3.8923    7.0109    5.4780 H   0  0  0  0  0  0  0  0  0  0  0  0
  1  2  1  0  0  0  0
  1 40  1  0  0  0  0
  1 41  1  0  0  0  0
  1 42  1  0  0  0  0
  2  3  2  0  0  0  0
  2  7  1  0  0  0  0
  3  4  1  0  0  0  0
  3 43  1  0  0  0  0
  4  5  2  0  0  0  0
  4 44  1  0  0  0  0
  5  6  1  0  0  0  0
  5 21  1  0  0  0  0
  6  7  2  0  0  0  0
  6 45  1  0  0  0  0
  7  8  1  0  0  0  0
  8  9  1  0  0  0  0
  8 46  1  0  0  0  0
  9 10  2  0  0  0  0
  9 14  1  0  0  0  0
 10 11  1  0  0  0  0
 11 12  2  0  0  0  0
 11 47  1  0  0  0  0
 12 13  1  0  0  0  0
 12 48  1  0  0  0  0
 13 14  2  0  0  0  0
 13 15  1  0  0  0  0
 15 16  2  0  0  0  0
 15 20  1  0  0  0  0
 16 17  1  0  0  0  0
 16 49  1  0  0  0  0
 17 18  2  0  0  0  0
 18 19  1  0  0  0  0
 18 50  1  0  0  0  0
 19 20  2  0  0  0  0
 19 51  1  0  0  0  0
 21 22  2  0  0  0  0
 21 23  1  0  0  0  0
 23 24  1  0  0  0  0
 23 52  1  0  0  0  0
 24 25  2  0  0  0  0
 24 29  1  0  0  0  0
 25 26  1  0  0  0  0
 25 53  1  0  0  0  0
 26 27  2  0  0  0  0
 26 36  1  0  0  0  0
 27 28  1  0  0  0  0
 27 54  1  0  0  0  0
 28 29  2  0  0  0  0
 28 30  1  0  0  0  0
 29 55  1  0  0  0  0
 30 31  1  0  0  0  0
 30 34  1  0  0  0  0
 31 32  2  0  0  0  0
 31 56  1  0  0  0  0
 32 33  1  0  0  0  0
 32 35  1  0  0  0  0
 33 34  2  0  0  0  0
 34 57  1  0  0  0  0
 35 58  1  0  0  0  0
 35 59  1  0  0  0  0
 35 60  1  0  0  0  0
 36 37  1  0  0  0  0
 36 38  1  0  0  0  0
 36 39  1  0  0  0  0
M  END
>  <DRUGBANK_ID>
DB12323

>  <COMMON_NAME>
Radotinib

>  <CAS_NUMBER>
926037-48-1

>  <UNII>
I284LJY110

>  <SYNONYMS>
Radotinib

$$$$
