
 OpenBabel10282417123D

 22 21  0  0  0  0  0  0  0  0999 V2000
    0.7955   -0.0613   -0.0976 O   0  0  0  0  0  0  0  0  0  0  0  0
    0.3548    0.5720    1.0931 C   0  0  0  0  0  0  0  0  0  0  0  0
    0.9398   -0.1233    2.3185 C   0  0  0  0  0  0  0  0  0  0  0  0
    2.4724   -0.0669    2.3609 C   0  0  0  0  0  0  0  0  0  0  0  0
    3.0183    1.3657    2.3974 C   0  0  0  0  0  0  0  0  0  0  0  0
    2.5691    2.1467    3.6393 C   0  0  0  0  0  0  0  0  0  0  0  0
    3.0241    1.4989    4.9435 C   0  0  0  0  0  0  0  0  0  0  0  0
    4.4407    1.4532    5.0100 O   0  0  0  0  0  0  0  0  0  0  0  0
    1.7678    0.0165   -0.1386 H   0  0  0  0  0  0  0  0  0  0  0  0
    0.6241    1.6320    1.0512 H   0  0  0  0  0  0  0  0  0  0  0  0
   -0.7376    0.5213    1.1168 H   0  0  0  0  0  0  0  0  0  0  0  0
    0.5169    0.3206    3.2270 H   0  0  0  0  0  0  0  0  0  0  0  0
    0.6358   -1.1763    2.3182 H   0  0  0  0  0  0  0  0  0  0  0  0
    2.8280   -0.6319    3.2298 H   0  0  0  0  0  0  0  0  0  0  0  0
    2.8936   -0.5906    1.4958 H   0  0  0  0  0  0  0  0  0  0  0  0
    4.1122    1.3355    2.3455 H   0  0  0  0  0  0  0  0  0  0  0  0
    2.7111    1.9131    1.4992 H   0  0  0  0  0  0  0  0  0  0  0  0
    2.9813    3.1602    3.5741 H   0  0  0  0  0  0  0  0  0  0  0  0
    1.4787    2.2561    3.6468 H   0  0  0  0  0  0  0  0  0  0  0  0
    2.6655    2.0802    5.7978 H   0  0  0  0  0  0  0  0  0  0  0  0
    2.6309    0.4843    5.0602 H   0  0  0  0  0  0  0  0  0  0  0  0
    4.7599    0.9032    4.2693 H   0  0  0  0  0  0  0  0  0  0  0  0
  1  2  1  0  0  0  0
  1  9  1  0  0  0  0
  2  3  1  0  0  0  0
  2 10  1  0  0  0  0
  2 11  1  0  0  0  0
  3  4  1  0  0  0  0
  3 12  1  0  0  0  0
  3 13  1  0  0  0  0
  4  5  1  0  0  0  0
  4 14  1  0  0  0  0
  4 15  1  0  0  0  0
  5  6  1  0  0  0  0
  5 16  1  0  0  0  0
  5 17  1  0  0  0  0
  6  7  1  0  0  0  0
  6 18  1  0  0  0  0
  6 19  1  0  0  0  0
  7  8  1  0  0  0  0
  7 20  1  0  0  0  0
  7 21  1  0  0  0  0
  8 22  1  0  0  0  0
M  END
>  <DRUGBANK_ID>
DB02210

>  <SECONDARY_ACCESSION_NUMBERS>
EXPT01731

>  <COMMON_NAME>
Hexane-1,6-Diol

>  <CAS_NUMBER>
629-11-8

>  <UNII>
ZIA319275I

$$$$
