
 OpenBabel10282417143D

 52 54  0  0  1  0  0  0  0  0999 V2000
    3.2891   -1.0899    1.2876 O   0  0  0  0  0  0  0  0  0  0  0  0
    0.4515    0.3710    1.2042 O   0  0  0  0  0  0  0  0  0  0  0  0
   -0.2354   -0.6943    4.4020 O   0  0  0  0  0  0  0  0  0  0  0  0
    0.6851    1.2996    4.0707 O   0  0  0  0  0  0  0  0  0  0  0  0
    2.9263   -1.9800   -1.9505 O   0  0  0  0  0  0  0  0  0  0  0  0
    0.1512    1.7116   -3.1968 O   0  0  0  0  0  0  0  0  0  0  0  0
    1.5633   -0.8696   -0.4744 N   0  0  0  0  0  0  0  0  0  0  0  0
    0.3093    1.0142   -1.0176 N   0  0  0  0  0  0  0  0  0  0  0  0
    2.6460   -0.4814    2.4346 C   0  0  0  0  0  0  0  0  0  0  0  0
    1.0396   -0.4075    2.2893 C   0  0  1  0  0  0  0  0  0  0  0  0
    3.1233   -1.4636    3.5409 C   0  0  0  0  0  0  0  0  0  0  0  0
    3.1995    0.9877    2.6615 C   0  0  0  0  0  0  0  0  0  0  0  0
    4.4875   -1.5074    3.8878 C   0  0  0  0  0  0  0  0  0  0  0  0
    2.7518    2.0717    1.8869 C   0  0  0  0  0  0  0  0  0  0  0  0
    2.2979   -2.4370    4.1121 C   0  0  0  0  0  0  0  0  0  0  0  0
    4.0094    1.3503    3.7641 C   0  0  0  0  0  0  0  0  0  0  0  0
    0.4973    0.1597    3.6419 C   0  0  0  0  0  0  0  0  0  0  0  0
    2.8599   -2.4450    1.0174 C   0  0  0  0  0  0  0  0  0  0  0  0
    4.9116   -2.1792    5.0212 C   0  0  0  0  0  0  0  0  0  0  0  0
    3.0395    3.4011    2.2271 C   0  0  0  0  0  0  0  0  0  0  0  0
    2.7324   -3.1851    5.1967 C   0  0  0  0  0  0  0  0  0  0  0  0
    4.3439    2.6643    4.0814 C   0  0  0  0  0  0  0  0  0  0  0  0
    4.0263   -3.0202    5.6781 C   0  0  0  0  0  0  0  0  0  0  0  0
    3.8559    3.6961    3.3093 C   0  0  0  0  0  0  0  0  0  0  0  0
    0.7826    0.1423   -0.1277 C   0  0  0  0  0  0  0  0  0  0  0  0
    2.0181   -0.9751   -1.7353 C   0  0  0  0  0  0  0  0  0  0  0  0
    0.7049    0.8309   -2.2992 C   0  0  0  0  0  0  0  0  0  0  0  0
    1.5819   -0.1473   -2.7048 C   0  0  0  0  0  0  0  0  0  0  0  0
    3.3747   -2.2207   -3.2801 C   0  0  0  0  0  0  0  0  0  0  0  0
    0.5505    1.5090   -4.5516 C   0  0  0  0  0  0  0  0  0  0  0  0
   -0.4191   -1.5841    4.0576 H   0  0  0  0  0  0  0  0  0  0  0  0
    0.5980   -1.4015    2.1857 H   0  0  0  0  0  0  0  0  0  0  0  0
    5.2119   -0.9167    3.3219 H   0  0  0  0  0  0  0  0  0  0  0  0
    2.0935    1.9447    1.0405 H   0  0  0  0  0  0  0  0  0  0  0  0
    1.3307   -2.6807    3.6925 H   0  0  0  0  0  0  0  0  0  0  0  0
    4.3922    0.6453    4.4866 H   0  0  0  0  0  0  0  0  0  0  0  0
    3.2765   -2.7643    0.0684 H   0  0  0  0  0  0  0  0  0  0  0  0
    3.2226   -3.1635    1.7458 H   0  0  0  0  0  0  0  0  0  0  0  0
    1.7681   -2.5419    0.9688 H   0  0  0  0  0  0  0  0  0  0  0  0
    5.9179   -2.0129    5.3925 H   0  0  0  0  0  0  0  0  0  0  0  0
    2.5808    4.2047    1.6586 H   0  0  0  0  0  0  0  0  0  0  0  0
    2.0494   -3.8811    5.6716 H   0  0  0  0  0  0  0  0  0  0  0  0
    4.9401    2.8530    4.9693 H   0  0  0  0  0  0  0  0  0  0  0  0
    4.3594   -3.5801    6.5431 H   0  0  0  0  0  0  0  0  0  0  0  0
    4.0905    4.7209    3.5686 H   0  0  0  0  0  0  0  0  0  0  0  0
    1.9041   -0.2837   -3.7199 H   0  0  0  0  0  0  0  0  0  0  0  0
    2.5333   -2.5117   -3.9165 H   0  0  0  0  0  0  0  0  0  0  0  0
    3.9035   -1.3542   -3.6933 H   0  0  0  0  0  0  0  0  0  0  0  0
    4.0817   -3.0575   -3.2667 H   0  0  0  0  0  0  0  0  0  0  0  0
    1.6343    1.6469   -4.6657 H   0  0  0  0  0  0  0  0  0  0  0  0
    0.2497    0.5140   -4.9077 H   0  0  0  0  0  0  0  0  0  0  0  0
    0.0533    2.2499   -5.1756 H   0  0  0  0  0  0  0  0  0  0  0  0
  1  9  1  0  0  0  0
  1 18  1  0  0  0  0
  2 25  1  0  0  0  0
  3 17  1  0  0  0  0
  3 31  1  0  0  0  0
  4 17  2  0  0  0  0
  5 26  1  0  0  0  0
  5 29  1  0  0  0  0
  6 27  1  0  0  0  0
  6 30  1  0  0  0  0
  7 25  1  0  0  0  0
  7 26  2  0  0  0  0
  8 25  2  0  0  0  0
  8 27  1  0  0  0  0
  9 11  1  0  0  0  0
  9 12  1  0  0  0  0
 10 17  1  0  0  0  0
 10 32  1  6  0  0  0
 10  9  1  0  0  0  0
 10  2  1  0  0  0  0
 11 13  2  0  0  0  0
 11 15  1  0  0  0  0
 12 14  2  0  0  0  0
 12 16  1  0  0  0  0
 13 19  1  0  0  0  0
 13 33  1  0  0  0  0
 14 20  1  0  0  0  0
 14 34  1  0  0  0  0
 15 21  2  0  0  0  0
 15 35  1  0  0  0  0
 16 22  2  0  0  0  0
 16 36  1  0  0  0  0
 18 37  1  0  0  0  0
 18 38  1  0  0  0  0
 18 39  1  0  0  0  0
 19 23  2  0  0  0  0
 19 40  1  0  0  0  0
 20 24  2  0  0  0  0
 20 41  1  0  0  0  0
 21 23  1  0  0  0  0
 21 42  1  0  0  0  0
 22 24  1  0  0  0  0
 22 43  1  0  0  0  0
 23 44  1  0  0  0  0
 24 45  1  0  0  0  0
 26 28  1  0  0  0  0
 27 28  2  0  0  0  0
 28 46  1  0  0  0  0
 29 47  1  0  0  0  0
 29 48  1  0  0  0  0
 29 49  1  0  0  0  0
 30 50  1  0  0  0  0
 30 51  1  0  0  0  0
 30 52  1  0  0  0  0
M  END
>  <DRUGBANK_ID>
DB04883

>  <COMMON_NAME>
Darusentan

>  <CAS_NUMBER>
171714-84-4

>  <UNII>
33JD57L6RW

>  <SYNONYMS>
Darusentan

$$$$
