
 OpenBabel10282417123D

 23 22  0  0  1  0  0  0  0  0999 V2000
    1.0657   -0.1143    0.1112 C   0  0  0  0  0  0  0  0  0  0  0  0
   -0.9558    2.7041   -1.5024 C   0  0  0  0  0  0  0  0  0  0  0  0
    1.0470    2.4568    0.0865 C   0  0  0  0  0  0  0  0  0  0  0  0
    1.1361    3.9802   -1.9653 C   0  0  0  0  0  0  0  0  0  0  0  0
    0.6232    1.1664    0.8087 C   0  0  1  0  0  0  0  0  0  0  0  0
    0.5714    2.6622   -1.3749 C   0  0  2  0  0  0  0  0  0  0  0  0
    2.5595    4.0167   -2.0121 O   0  0  0  0  0  0  0  0  0  0  0  0
   -0.7785    1.1618    1.0508 O   0  0  0  0  0  0  0  0  0  0  0  0
    1.0585    1.5793   -2.1738 O   0  0  0  0  0  0  0  0  0  0  0  0
    1.0902    1.1789    1.8014 H   0  0  0  0  0  0  0  0  0  0  0  0
    0.5818   -0.2407   -0.8607 H   0  0  0  0  0  0  0  0  0  0  0  0
    0.7727   -0.9940    0.6912 H   0  0  0  0  0  0  0  0  0  0  0  0
    2.1517   -0.1254   -0.0270 H   0  0  0  0  0  0  0  0  0  0  0  0
   -1.3933    3.4502   -0.8313 H   0  0  0  0  0  0  0  0  0  0  0  0
   -1.2526    2.9496   -2.5285 H   0  0  0  0  0  0  0  0  0  0  0  0
   -1.4141    1.7317   -1.3109 H   0  0  0  0  0  0  0  0  0  0  0  0
    0.7050    3.3135    0.6833 H   0  0  0  0  0  0  0  0  0  0  0  0
    2.1434    2.4652    0.1143 H   0  0  0  0  0  0  0  0  0  0  0  0
    0.8031    4.0862   -3.0038 H   0  0  0  0  0  0  0  0  0  0  0  0
    0.7829    4.8504   -1.4034 H   0  0  0  0  0  0  0  0  0  0  0  0
    2.9010    3.8668   -1.1161 H   0  0  0  0  0  0  0  0  0  0  0  0
   -1.2037    0.6571    0.3341 H   0  0  0  0  0  0  0  0  0  0  0  0
    0.7494    1.7048   -3.0872 H   0  0  0  0  0  0  0  0  0  0  0  0
  1 11  1  0  0  0  0
  1 12  1  0  0  0  0
  1 13  1  0  0  0  0
  2 14  1  0  0  0  0
  2 15  1  0  0  0  0
  2 16  1  0  0  0  0
  3 17  1  0  0  0  0
  3 18  1  0  0  0  0
  4 19  1  0  0  0  0
  4 20  1  0  0  0  0
  5  1  1  0  0  0  0
  5  3  1  0  0  0  0
  5  8  1  0  0  0  0
  5 10  1  1  0  0  0
  6  2  1  0  0  0  0
  6  3  1  0  0  0  0
  6  4  1  0  0  0  0
  6  9  1  6  0  0  0
  7  4  1  0  0  0  0
  7 21  1  0  0  0  0
  8 22  1  0  0  0  0
  9 23  1  0  0  0  0
M  END
>  <DRUGBANK_ID>
DB01881

>  <SECONDARY_ACCESSION_NUMBERS>
EXPT02229

>  <COMMON_NAME>
2-Methylpentane-1,2,4-Triol

$$$$
