
 OpenBabel10282417133D

 16 15  0  0  0  0  0  0  0  0999 V2000
    1.1744   -0.1470   -0.5129 O   0  0  0  0  0  0  0  0  0  0  0  0
    0.4445   -0.5179   -1.5853 C   0  0  0  0  0  0  0  0  0  0  0  0
    1.0092   -0.7730   -2.6479 O   0  0  0  0  0  0  0  0  0  0  0  0
   -1.0821   -0.4270   -1.3634 C   0  0  0  0  0  0  0  0  0  0  0  0
   -1.6672   -1.3013   -0.2144 C   0  0  0  0  0  0  0  0  0  0  0  0
   -1.0572   -0.8250    1.4439 P   0  0  0  0  0  0  0  0  0  0  0  0
   -0.1939   -2.1939    1.4396 O   0  0  0  0  0  0  0  0  0  0  0  0
   -0.4024    0.5478    0.9274 O   0  0  0  0  0  0  0  0  0  0  0  0
   -0.5411   -0.4220    2.8469 O   0  0  0  0  0  0  0  0  0  0  0  0
    2.1505   -0.1964   -0.6138 H   0  0  0  0  0  0  0  0  0  0  0  0
   -1.3541    0.6254   -1.1938 H   0  0  0  0  0  0  0  0  0  0  0  0
   -1.5612   -0.7002   -2.3081 H   0  0  0  0  0  0  0  0  0  0  0  0
   -2.7604   -1.2464   -0.2126 H   0  0  0  0  0  0  0  0  0  0  0  0
   -1.4007   -2.3392   -0.4490 H   0  0  0  0  0  0  0  0  0  0  0  0
   -0.6613   -2.7754    2.0950 H   0  0  0  0  0  0  0  0  0  0  0  0
    0.3506    0.5747    0.3197 H   0  0  0  0  0  0  0  0  0  0  0  0
  1  2  1  0  0  0  0
  1 10  1  0  0  0  0
  2  3  2  0  0  0  0
  2  4  1  0  0  0  0
  4  5  1  0  0  0  0
  4 11  1  0  0  0  0
  4 12  1  0  0  0  0
  5  6  1  0  0  0  0
  5 13  1  0  0  0  0
  5 14  1  0  0  0  0
  6  7  1  0  0  0  0
  6  8  1  0  0  0  0
  6  9  2  0  0  0  0
  7 15  1  0  0  0  0
  8 16  1  0  0  0  0
M  END
>  <DRUGBANK_ID>
DB03379

>  <SECONDARY_ACCESSION_NUMBERS>
EXPT00189

>  <COMMON_NAME>
2-Carboxyethylphosphonic Acid

>  <UNII>
8DM1R7808M

$$$$
