
 OpenBabel10282417223D

 50 54  0  0  0  0  0  0  0  0999 V2000
    0.9692   -0.1295    0.0845 C   0  0  0  0  0  0  0  0  0  0  0  0
    0.3682   -1.3174   -0.6839 C   0  0  0  0  0  0  0  0  0  0  0  0
    0.7272   -1.1537   -2.1658 C   0  0  0  0  0  0  0  0  0  0  0  0
    0.9571   -2.5413   -0.1827 O   0  0  0  0  0  0  0  0  0  0  0  0
    0.2708   -3.7248   -0.6235 C   0  0  0  0  0  0  0  0  0  0  0  0
   -1.1118   -3.7950    0.0166 C   0  0  0  0  0  0  0  0  0  0  0  0
   -1.7835   -2.5184   -0.1104 N   0  0  0  0  0  0  0  0  0  0  0  0
   -1.1239   -1.3552   -0.4422 C   0  0  0  0  0  0  0  0  0  0  0  0
   -1.9653   -0.3380   -0.4624 N   0  0  0  0  0  0  0  0  0  0  0  0
   -3.1987   -0.8591   -0.1019 C   0  0  0  0  0  0  0  0  0  0  0  0
   -4.4732   -0.2541    0.0484 C   0  0  0  0  0  0  0  0  0  0  0  0
   -5.5125   -1.0923    0.3851 N   0  0  0  0  0  0  0  0  0  0  0  0
   -5.2907   -2.4281    0.5407 C   0  0  0  0  0  0  0  0  0  0  0  0
   -4.0992   -3.0685    0.4363 N   0  0  0  0  0  0  0  0  0  0  0  0
   -3.1036   -2.2263    0.1086 C   0  0  0  0  0  0  0  0  0  0  0  0
   -6.4371   -3.2809    0.8873 C   0  0  0  0  0  0  0  0  0  0  0  0
   -7.5635   -3.4649    0.1094 C   0  0  0  0  0  0  0  0  0  0  0  0
   -8.6075   -4.2894    0.4271 N   0  0  0  0  0  0  0  0  0  0  0  0
   -8.5199   -4.9536    1.5816 C   0  0  0  0  0  0  0  0  0  0  0  0
   -9.5457   -5.7897    1.9423 N   0  0  0  0  0  0  0  0  0  0  0  0
   -7.4844   -4.8646    2.4143 N   0  0  0  0  0  0  0  0  0  0  0  0
   -6.4696   -4.0381    2.0408 C   0  0  0  0  0  0  0  0  0  0  0  0
   -4.7509    1.0568   -0.3037 N   0  0  0  0  0  0  0  0  0  0  0  0
   -5.2307    2.0497    0.6695 C   0  0  0  0  0  0  0  0  0  0  0  0
   -6.0923    3.0849   -0.0954 C   0  0  0  0  0  0  0  0  0  0  0  0
   -5.3697    3.6812   -1.1946 O   0  0  0  0  0  0  0  0  0  0  0  0
   -4.9076    2.6627   -2.1010 C   0  0  0  0  0  0  0  0  0  0  0  0
   -3.9740    1.6717   -1.3879 C   0  0  0  0  0  0  0  0  0  0  0  0
    0.6648   -0.1339    1.1374 H   0  0  0  0  0  0  0  0  0  0  0  0
    0.6369    0.8230   -0.3489 H   0  0  0  0  0  0  0  0  0  0  0  0
    2.0644   -0.1471    0.0671 H   0  0  0  0  0  0  0  0  0  0  0  0
    0.3005   -0.2392   -2.5884 H   0  0  0  0  0  0  0  0  0  0  0  0
    1.8176   -1.1179   -2.2881 H   0  0  0  0  0  0  0  0  0  0  0  0
    0.3808   -1.9883   -2.7813 H   0  0  0  0  0  0  0  0  0  0  0  0
    0.2009   -3.7456   -1.7161 H   0  0  0  0  0  0  0  0  0  0  0  0
    0.8710   -4.5953   -0.3386 H   0  0  0  0  0  0  0  0  0  0  0  0
   -1.7236   -4.5681   -0.4578 H   0  0  0  0  0  0  0  0  0  0  0  0
   -1.0219   -3.9997    1.0884 H   0  0  0  0  0  0  0  0  0  0  0  0
   -7.6792   -2.9648   -0.8490 H   0  0  0  0  0  0  0  0  0  0  0  0
   -9.4837   -6.2425    2.8367 H   0  0  0  0  0  0  0  0  0  0  0  0
  -10.3554   -5.8483    1.3539 H   0  0  0  0  0  0  0  0  0  0  0  0
   -5.6451   -4.0081    2.7473 H   0  0  0  0  0  0  0  0  0  0  0  0
   -4.3715    2.5794    1.1088 H   0  0  0  0  0  0  0  0  0  0  0  0
   -5.8095    1.6091    1.4867 H   0  0  0  0  0  0  0  0  0  0  0  0
   -6.9985    2.6121   -0.4916 H   0  0  0  0  0  0  0  0  0  0  0  0
   -6.4020    3.9008    0.5661 H   0  0  0  0  0  0  0  0  0  0  0  0
   -4.3839    3.1509   -2.9275 H   0  0  0  0  0  0  0  0  0  0  0  0
   -5.7784    2.1383   -2.5152 H   0  0  0  0  0  0  0  0  0  0  0  0
   -3.1027    2.2026   -0.9817 H   0  0  0  0  0  0  0  0  0  0  0  0
   -3.6343    0.9313   -2.1191 H   0  0  0  0  0  0  0  0  0  0  0  0
  1  2  1  0  0  0  0
  1 29  1  0  0  0  0
  1 30  1  0  0  0  0
  1 31  1  0  0  0  0
  2  3  1  0  0  0  0
  2  4  1  0  0  0  0
  2  8  1  0  0  0  0
  3 32  1  0  0  0  0
  3 33  1  0  0  0  0
  3 34  1  0  0  0  0
  4  5  1  0  0  0  0
  5  6  1  0  0  0  0
  5 35  1  0  0  0  0
  5 36  1  0  0  0  0
  6  7  1  0  0  0  0
  6 37  1  0  0  0  0
  6 38  1  0  0  0  0
  7  8  1  0  0  0  0
  7 15  1  0  0  0  0
  8  9  2  0  0  0  0
  9 10  1  0  0  0  0
 10 11  2  0  0  0  0
 10 15  1  0  0  0  0
 11 12  1  0  0  0  0
 11 23  1  0  0  0  0
 12 13  2  0  0  0  0
 13 14  1  0  0  0  0
 13 16  1  0  0  0  0
 14 15  2  0  0  0  0
 16 17  2  0  0  0  0
 16 22  1  0  0  0  0
 17 18  1  0  0  0  0
 17 39  1  0  0  0  0
 18 19  2  0  0  0  0
 19 20  1  0  0  0  0
 19 21  1  0  0  0  0
 20 40  1  0  0  0  0
 20 41  1  0  0  0  0
 21 22  2  0  0  0  0
 22 42  1  0  0  0  0
 23 24  1  0  0  0  0
 23 28  1  0  0  0  0
 24 25  1  0  0  0  0
 24 43  1  0  0  0  0
 24 44  1  0  0  0  0
 25 26  1  0  0  0  0
 25 45  1  0  0  0  0
 25 46  1  0  0  0  0
 26 27  1  0  0  0  0
 27 28  1  0  0  0  0
 27 47  1  0  0  0  0
 27 48  1  0  0  0  0
 28 49  1  0  0  0  0
 28 50  1  0  0  0  0
M  END
>  <DRUGBANK_ID>
DB15186

>  <COMMON_NAME>
Paxalisib

>  <CAS_NUMBER>
1382979-44-3

>  <UNII>
P5DKZ70636

>  <SYNONYMS>
5-(6,6-dimethyl-4-morpholino-8,9-dihydro-6H-[1,4]oxazino[3,4-e]purin-2-yl)pyrimidin-2-amine

$$$$
