
 OpenBabel10282417133D

 20 19  0  0  0  0  0  0  0  0999 V2000
    1.0780    0.0752   -0.0297 C   0  0  0  0  0  0  0  0  0  0  0  0
    0.5316    1.1668   -0.9874 C   0  0  0  0  0  0  0  0  0  0  0  0
    1.0763    0.8372   -2.3855 C   0  0  0  0  0  0  0  0  0  0  0  0
   -1.0031    1.1241   -0.9418 C   0  0  0  0  0  0  0  0  0  0  0  0
   -1.5054    1.4248    0.3499 O   0  0  0  0  0  0  0  0  0  0  0  0
    1.0427    2.5369   -0.5258 C   0  0  0  0  0  0  0  0  0  0  0  0
    1.7821    2.6426    0.4544 O   0  0  0  0  0  0  0  0  0  0  0  0
    0.6770    3.8425   -1.2991 C   0  0  0  0  0  0  0  0  0  0  0  0
   -0.0660    3.7776   -2.4060 O   0  0  0  0  0  0  0  0  0  0  0  0
    1.1107    4.9186   -0.9109 O   0  0  0  0  0  0  0  0  0  0  0  0
    0.7185   -0.9180   -0.3236 H   0  0  0  0  0  0  0  0  0  0  0  0
    0.7752    0.2443    1.0095 H   0  0  0  0  0  0  0  0  0  0  0  0
    2.1740    0.0484   -0.0337 H   0  0  0  0  0  0  0  0  0  0  0  0
    0.7351   -0.1495   -2.7161 H   0  0  0  0  0  0  0  0  0  0  0  0
    0.7722    1.5473   -3.1545 H   0  0  0  0  0  0  0  0  0  0  0  0
    2.1728    0.8379   -2.3871 H   0  0  0  0  0  0  0  0  0  0  0  0
   -1.4669    1.8464   -1.6120 H   0  0  0  0  0  0  0  0  0  0  0  0
   -1.3797    0.1415   -1.2454 H   0  0  0  0  0  0  0  0  0  0  0  0
   -1.2224    0.7344    0.9759 H   0  0  0  0  0  0  0  0  0  0  0  0
   -0.4308    2.9389   -2.7211 H   0  0  0  0  0  0  0  0  0  0  0  0
  1  2  1  0  0  0  0
  1 11  1  0  0  0  0
  1 12  1  0  0  0  0
  1 13  1  0  0  0  0
  2  3  1  0  0  0  0
  2  4  1  0  0  0  0
  2  6  1  0  0  0  0
  3 14  1  0  0  0  0
  3 15  1  0  0  0  0
  3 16  1  0  0  0  0
  4  5  1  0  0  0  0
  4 17  1  0  0  0  0
  4 18  1  0  0  0  0
  5 19  1  0  0  0  0
  6  7  2  0  0  0  0
  6  8  1  0  0  0  0
  8  9  1  0  0  0  0
  8 10  2  0  0  0  0
  9 20  1  0  0  0  0
M  END
>  <DRUGBANK_ID>
DB03795

>  <SECONDARY_ACCESSION_NUMBERS>
EXPT01981

>  <COMMON_NAME>
2-Dehydropantoate

>  <UNII>
GZM7NYS95Z

$$$$
