
 OpenBabel10282417133D

 14 14  0  0  0  0  0  0  0  0999 V2000
   -0.7055   -0.9020   -0.2088 N   0  0  0  0  0  0  0  0  0  0  0  0
    0.6344   -1.0093   -0.0314 C   0  0  0  0  0  0  0  0  0  0  0  0
    1.2324    0.3908    0.0408 C   0  0  1  0  0  0  0  0  0  0  0  0
    2.2475    0.5712   -1.0027 N   0  0  0  0  0  0  0  0  0  0  0  0
    0.0190    1.2824   -0.1909 C   0  0  0  0  0  0  0  0  0  0  0  0
   -1.1073    0.3483    0.1242 C   0  0  0  0  0  0  0  0  0  0  0  0
    1.2523   -2.0522    0.1201 O   0  0  0  0  0  0  0  0  0  0  0  0
   -2.1811    0.6493    0.6205 O   0  0  0  0  0  0  0  0  0  0  0  0
   -1.3062   -1.7073   -0.1423 H   0  0  0  0  0  0  0  0  0  0  0  0
    1.6550    0.5421    1.0422 H   0  0  0  0  0  0  0  0  0  0  0  0
    2.7055   -0.3293   -1.1723 H   0  0  0  0  0  0  0  0  0  0  0  0
    2.9844    1.1844   -0.6549 H   0  0  0  0  0  0  0  0  0  0  0  0
    0.0210    2.1766    0.4361 H   0  0  0  0  0  0  0  0  0  0  0  0
   -0.0914    1.5726   -1.2425 H   0  0  0  0  0  0  0  0  0  0  0  0
  1  2  1  0  0  0  0
  1  6  1  0  0  0  0
  1  9  1  0  0  0  0
  2  3  1  0  0  0  0
  2  7  2  0  0  0  0
  3  5  1  0  0  0  0
  3 10  1  1  0  0  0
  3  4  1  0  0  0  0
  4 11  1  0  0  0  0
  4 12  1  0  0  0  0
  5  6  1  0  0  0  0
  5 13  1  0  0  0  0
  5 14  1  0  0  0  0
  6  8  2  0  0  0  0
M  END
>  <DRUGBANK_ID>
DB03487

>  <SECONDARY_ACCESSION_NUMBERS>
EXPT02930

>  <COMMON_NAME>
(S)-Aspartimide

>  <CAS_NUMBER>
73537-92-5

>  <SYNONYMS>
3-aminosuccinimide

$$$$
