
 OpenBabel10282417143D

 40 41  0  0  0  0  0  0  0  0999 V2000
   -1.1932   -1.1857   -0.0730 C   0  0  0  0  0  0  0  0  0  0  0  0
   -1.1672    1.2293   -0.0302 C   0  0  0  0  0  0  0  0  0  0  0  0
    0.2026   -1.2138   -0.0315 C   0  0  0  0  0  0  0  0  0  0  0  0
    0.2295    1.2022   -0.0085 C   0  0  0  0  0  0  0  0  0  0  0  0
   -8.3554   -0.8706    1.8749 C   0  0  0  0  0  0  0  0  0  0  0  0
   -9.2753   -2.0370    1.5097 C   0  0  0  0  0  0  0  0  0  0  0  0
   -3.3539    0.0592   -0.0060 C   0  0  0  0  0  0  0  0  0  0  0  0
   -4.6408   -2.3678    4.0689 C   0  0  0  0  0  0  0  0  0  0  0  0
   -1.8889    0.0330   -0.0513 C   0  0  0  0  0  0  0  0  0  0  0  0
    0.9034   -0.0144   -0.0103 C   0  0  0  0  0  0  0  0  0  0  0  0
   -7.1406   -1.3146    2.6423 C   0  0  0  0  0  0  0  0  0  0  0  0
   -4.0838   -0.4774    0.9814 C   0  0  0  0  0  0  0  0  0  0  0  0
   -9.9216   -2.7589    2.6778 C   0  0  0  0  0  0  0  0  0  0  0  0
   -5.1991   -1.6671    5.3023 C   0  0  0  0  0  0  0  0  0  0  0  0
   -5.7381   -1.1042    2.1250 C   0  0  0  0  0  0  0  0  0  0  0  0
   -3.5501   -1.1608    2.2060 C   0  0  0  0  0  0  0  0  0  0  0  0
   -7.2494   -1.8308    3.8142 N   0  0  0  0  0  0  0  0  0  0  0  0
   -5.4673   -0.4806    1.0180 N   0  0  0  0  0  0  0  0  0  0  0  0
   -4.6715   -1.5364    2.8621 N   0  0  0  0  0  0  0  0  0  0  0  0
    2.2665    0.0212    0.0089 O   0  0  0  0  0  0  0  0  0  0  0  0
  -11.0927   -2.6920    3.0093 O   0  0  0  0  0  0  0  0  0  0  0  0
   -9.0500   -3.4910    3.3951 O   0  0  0  0  0  0  0  0  0  0  0  0
   -5.9151   -2.1648    6.1618 O   0  0  0  0  0  0  0  0  0  0  0  0
   -4.7606   -0.3990    5.4503 O   0  0  0  0  0  0  0  0  0  0  0  0
   -2.3934   -1.3762    2.5312 O   0  0  0  0  0  0  0  0  0  0  0  0
   -3.8514    0.5616   -0.8311 H   0  0  0  0  0  0  0  0  0  0  0  0
   -8.2150   -1.9828    4.1053 H   0  0  0  0  0  0  0  0  0  0  0  0
   -1.7394   -2.1266   -0.0586 H   0  0  0  0  0  0  0  0  0  0  0  0
   -1.6791    2.1877   -0.0023 H   0  0  0  0  0  0  0  0  0  0  0  0
    0.7085   -2.1728    0.0071 H   0  0  0  0  0  0  0  0  0  0  0  0
    0.7937    2.1291    0.0257 H   0  0  0  0  0  0  0  0  0  0  0  0
   -8.8890   -0.1501    2.5090 H   0  0  0  0  0  0  0  0  0  0  0  0
   -8.0522   -0.3352    0.9697 H   0  0  0  0  0  0  0  0  0  0  0  0
  -10.0993   -1.6395    0.9050 H   0  0  0  0  0  0  0  0  0  0  0  0
   -8.7477   -2.7690    0.8908 H   0  0  0  0  0  0  0  0  0  0  0  0
   -5.1811   -3.2993    3.8713 H   0  0  0  0  0  0  0  0  0  0  0  0
   -3.6036   -2.6302    4.3077 H   0  0  0  0  0  0  0  0  0  0  0  0
    2.6046   -0.8886   -0.0110 H   0  0  0  0  0  0  0  0  0  0  0  0
   -9.4808   -3.8006    4.2211 H   0  0  0  0  0  0  0  0  0  0  0  0
   -5.2325   -0.0930    6.2528 H   0  0  0  0  0  0  0  0  0  0  0  0
  1 28  1  0  0  0  0
  2 29  1  0  0  0  0
  3  1  1  0  0  0  0
  3 30  1  0  0  0  0
  4  2  2  0  0  0  0
  4 31  1  0  0  0  0
  5 32  1  0  0  0  0
  5 33  1  0  0  0  0
  6  5  1  0  0  0  0
  6 34  1  0  0  0  0
  6 35  1  0  0  0  0
  8 36  1  0  0  0  0
  8 37  1  0  0  0  0
  9  1  2  0  0  0  0
  9  2  1  0  0  0  0
  9  7  1  0  0  0  0
 10  3  2  0  0  0  0
 10  4  1  0  0  0  0
 11  5  1  0  0  0  0
 12  7  2  0  0  0  0
 13  6  1  0  0  0  0
 14  8  1  0  0  0  0
 15 11  1  0  0  0  0
 16 12  1  0  0  0  0
 17 11  2  0  0  0  0
 18 12  1  0  0  0  0
 18 15  2  0  0  0  0
 19  8  1  0  0  0  0
 19 15  1  0  0  0  0
 19 16  1  0  0  0  0
 20 10  1  0  0  0  0
 20 38  1  0  0  0  0
 21 13  2  0  0  0  0
 22 13  1  0  0  0  0
 22 39  1  0  0  0  0
 23 14  2  0  0  0  0
 24 14  1  0  0  0  0
 24 40  1  0  0  0  0
 25 16  2  0  0  0  0
 26  7  1  0  0  0  0
 27 17  1  0  0  0  0
M  END
>  <DRUGBANK_ID>
DB04668

>  <COMMON_NAME>
CHROMOPHORE (GLU-TYR-GLY)

$$$$
