3B6
 OpenBabel10282417163D

 39 40  0  0  0  0  0  0  0  0999 V2000
    4.3588   -3.1266   -0.0357 C   0  0  0  0  0  0  0  0  0  0  0  0
    4.4375   -3.8820   -1.2537 C   0  0  0  0  0  0  0  0  0  0  0  0
    4.4378   -5.9648   -1.1400 I   0  0  0  0  0  0  0  0  0  0  0  0
    4.5800   -3.2689   -2.5020 C   0  0  0  0  0  0  0  0  0  0  0  0
    4.5854   -3.9133   -3.7728 C   0  0  0  0  0  0  0  0  0  0  0  0
    4.6217   -4.4036   -4.8391 N   0  0  0  0  0  0  0  0  0  0  0  0
    4.8496   -1.9323   -2.4745 C   0  0  0  0  0  0  0  0  0  0  0  0
    4.8379   -1.2448   -1.2726 C   0  0  0  0  0  0  0  0  0  0  0  0
    4.3930   -1.7405   -0.0634 C   0  0  0  0  0  0  0  0  0  0  0  0
    3.9444   -0.9020    1.0202 N   0  0  0  0  0  0  0  0  0  0  0  0
    3.5461    0.4468    1.0645 C   0  0  0  0  0  0  0  0  0  0  0  0
    3.1709    0.9258    2.1402 O   0  0  0  0  0  0  0  0  0  0  0  0
    3.4724    1.2948   -0.2251 C   0  0  2  0  0  0  0  0  0  0  0  0
    2.7272    2.5253   -0.1842 O   0  0  0  0  0  0  0  0  0  0  0  0
    2.6203    0.4050   -1.1294 C   0  0  0  0  0  0  0  0  0  0  0  0
    4.9312    1.7745   -0.6520 C   0  0  0  0  0  0  0  0  0  0  0  0
    5.0592    2.4828   -1.9536 O   0  0  0  0  0  0  0  0  0  0  0  0
    4.8339    1.8509   -3.1549 C   0  0  0  0  0  0  0  0  0  0  0  0
    3.5677    1.5060   -3.6159 C   0  0  0  0  0  0  0  0  0  0  0  0
    3.4278    0.3800   -4.4390 C   0  0  0  0  0  0  0  0  0  0  0  0
    4.4464    0.0862   -5.3196 C   0  0  0  0  0  0  0  0  0  0  0  0
    4.3045   -0.9833   -6.2524 C   0  0  0  0  0  0  0  0  0  0  0  0
    4.1599   -1.8722   -7.0043 N   0  0  0  0  0  0  0  0  0  0  0  0
    5.6027    0.8638   -5.2278 C   0  0  0  0  0  0  0  0  0  0  0  0
    5.8445    1.6554   -4.0790 C   0  0  0  0  0  0  0  0  0  0  0  0
    4.3137   -3.6395    0.9179 H   0  0  0  0  0  0  0  0  0  0  0  0
    5.0605   -1.3623   -3.3654 H   0  0  0  0  0  0  0  0  0  0  0  0
    5.0584   -0.2286   -1.4355 H   0  0  0  0  0  0  0  0  0  0  0  0
    3.6901   -1.3568    1.8939 H   0  0  0  0  0  0  0  0  0  0  0  0
    2.7054    2.8820   -1.0951 H   0  0  0  0  0  0  0  0  0  0  0  0
    3.1656    0.5207   -2.0021 H   0  0  0  0  0  0  0  0  0  0  0  0
    2.6412   -0.6787   -1.2057 H   0  0  0  0  0  0  0  0  0  0  0  0
    1.5649    0.6379   -1.2263 H   0  0  0  0  0  0  0  0  0  0  0  0
    5.2648    2.4991    0.1132 H   0  0  0  0  0  0  0  0  0  0  0  0
    5.7463    1.0462   -0.5094 H   0  0  0  0  0  0  0  0  0  0  0  0
    2.6725    1.8684   -3.1150 H   0  0  0  0  0  0  0  0  0  0  0  0
    2.5727   -0.2925   -4.3142 H   0  0  0  0  0  0  0  0  0  0  0  0
    6.3321    0.8263   -6.0292 H   0  0  0  0  0  0  0  0  0  0  0  0
    6.8064    2.1395   -3.9444 H   0  0  0  0  0  0  0  0  0  0  0  0
  1  2  2  0  0  0  0
  1  9  1  0  0  0  0
  1 26  1  0  0  0  0
  2  3  1  0  0  0  0
  2  4  1  0  0  0  0
  4  5  1  0  0  0  0
  4  7  2  0  0  0  0
  5  6  3  0  0  0  0
  7  8  1  0  0  0  0
  7 27  1  0  0  0  0
  8  9  2  0  0  0  0
  8 28  1  0  0  0  0
  9 10  1  0  0  0  0
 10 11  1  0  0  0  0
 10 29  1  0  0  0  0
 11 12  2  0  0  0  0
 13 15  1  0  0  0  0
 13 16  1  0  0  0  0
 13 14  1  1  0  0  0
 13 11  1  0  0  0  0
 14 30  1  0  0  0  0
 15 31  1  0  0  0  0
 15 32  1  0  0  0  0
 15 33  1  0  0  0  0
 16 17  1  0  0  0  0
 16 34  1  0  0  0  0
 16 35  1  0  0  0  0
 17 18  1  0  0  0  0
 18 19  2  0  0  0  0
 18 25  1  0  0  0  0
 19 20  1  0  0  0  0
 19 36  1  0  0  0  0
 20 21  2  0  0  0  0
 20 37  1  0  0  0  0
 21 22  1  0  0  0  0
 21 24  1  0  0  0  0
 22 23  3  0  0  0  0
 24 25  2  0  0  0  0
 24 38  1  0  0  0  0
 25 39  1  0  0  0  0
M  END
>  <DRUGBANK_ID>
DB07039

>  <COMMON_NAME>
(2S)-N-(4-cyano-3-iodophenyl)-3-(4-cyanophenoxy)-2-hydroxy-2-methylpropanamide

$$$$
