1156
 OpenBabel10282417183D

 35 36  0  0  1  0  0  0  0  0999 V2000
   -0.3533   -0.1760   -0.2882 C   0  0  0  0  0  0  0  0  0  0  0  0
    0.3425    1.0220   -0.4482 C   0  0  0  0  0  0  0  0  0  0  0  0
    0.3492   -1.3383   -0.1116 C   0  0  0  0  0  0  0  0  0  0  0  0
    1.7670    1.0978   -0.1304 C   0  0  0  0  0  0  0  0  0  0  0  0
    1.7502   -1.3285   -0.0674 C   0  0  0  0  0  0  0  0  0  0  0  0
    2.4567   -0.1099   -0.0599 C   0  0  0  0  0  0  0  0  0  0  0  0
   -2.0705   -0.1344   -0.1308 Cl  0  0  0  0  0  0  0  0  0  0  0  0
    2.5191    2.4163    0.2926 C   0  0  1  0  0  0  0  0  0  0  0  0
    2.7373    3.9217    0.9528 C   0  0  1  0  0  0  0  0  0  0  0  0
    2.4740    5.0592    0.0125 N   0  0  0  0  0  0  0  0  0  0  0  0
    3.3481    4.9564   -1.1724 C   0  0  0  0  0  0  0  0  0  0  0  0
    2.9919    3.6350   -1.8684 C   0  0  0  0  0  0  0  0  0  0  0  0
    3.0625    2.4818   -1.0456 O   0  0  0  0  0  0  0  0  0  0  0  0
    3.0692    6.1225   -2.1447 C   0  0  0  0  0  0  0  0  0  0  0  0
    4.8402    5.0415   -0.7808 C   0  0  0  0  0  0  0  0  0  0  0  0
    1.8867    4.2503    2.2501 C   0  0  0  0  0  0  0  0  0  0  0  0
    1.2356    2.4752    0.9415 O   0  0  0  0  0  0  0  0  0  0  0  0
   -0.2609    1.9221   -0.5277 H   0  0  0  0  0  0  0  0  0  0  0  0
   -0.1894   -2.2790    0.0184 H   0  0  0  0  0  0  0  0  0  0  0  0
    2.2902   -2.2560    0.0418 H   0  0  0  0  0  0  0  0  0  0  0  0
    3.5371   -0.1178    0.0582 H   0  0  0  0  0  0  0  0  0  0  0  0
    3.7730    3.9730    1.2982 H   0  0  0  0  0  0  0  0  0  0  0  0
    2.6348    5.9469    0.4860 H   0  0  0  0  0  0  0  0  0  0  0  0
    1.9949    3.6670   -2.3201 H   0  0  0  0  0  0  0  0  0  0  0  0
    3.6932    3.4798   -2.7040 H   0  0  0  0  0  0  0  0  0  0  0  0
    3.2233    7.0959   -1.6646 H   0  0  0  0  0  0  0  0  0  0  0  0
    3.7452    6.0810   -3.0102 H   0  0  0  0  0  0  0  0  0  0  0  0
    2.0460    6.0969   -2.5348 H   0  0  0  0  0  0  0  0  0  0  0  0
    5.1713    4.2015   -0.1642 H   0  0  0  0  0  0  0  0  0  0  0  0
    5.4887    5.0445   -1.6639 H   0  0  0  0  0  0  0  0  0  0  0  0
    5.0404    5.9660   -0.2237 H   0  0  0  0  0  0  0  0  0  0  0  0
    1.9773    3.4322    2.9754 H   0  0  0  0  0  0  0  0  0  0  0  0
    2.1809    5.1816    2.7334 H   0  0  0  0  0  0  0  0  0  0  0  0
    0.8110    4.3723    2.0289 H   0  0  0  0  0  0  0  0  0  0  0  0
    0.7558    3.2076    0.5347 H   0  0  0  0  0  0  0  0  0  0  0  0
  1  2  2  0  0  0  0
  1  3  1  0  0  0  0
  1  7  1  0  0  0  0
  2  4  1  0  0  0  0
  2 18  1  0  0  0  0
  3  5  2  0  0  0  0
  3 19  1  0  0  0  0
  4  6  2  0  0  0  0
  4  8  1  0  0  0  0
  5  6  1  0  0  0  0
  5 20  1  0  0  0  0
  6 21  1  0  0  0  0
  8  9  1  0  0  0  0
  8 13  1  0  0  0  0
  8 17  1  6  0  0  0
  9 10  1  0  0  0  0
  9 16  1  0  0  0  0
  9 22  1  1  0  0  0
 10 11  1  0  0  0  0
 10 23  1  0  0  0  0
 11 12  1  0  0  0  0
 11 14  1  0  0  0  0
 11 15  1  0  0  0  0
 12 13  1  0  0  0  0
 12 24  1  0  0  0  0
 12 25  1  0  0  0  0
 14 26  1  0  0  0  0
 14 27  1  0  0  0  0
 14 28  1  0  0  0  0
 15 29  1  0  0  0  0
 15 30  1  0  0  0  0
 15 31  1  0  0  0  0
 16 32  1  0  0  0  0
 16 33  1  0  0  0  0
 16 34  1  0  0  0  0
 17 35  1  0  0  0  0
M  END
>  <DRUGBANK_ID>
DB11790

>  <COMMON_NAME>
Radafaxine

>  <CAS_NUMBER>
192374-14-4

>  <UNII>
Q47741214K

>  <SYNONYMS>
Radafaxine

$$$$
