
 OpenBabel10282417103D

 57 60  0  0  0  0  0  0  0  0999 V2000
   -3.7609   -0.3295   -0.2563 C   0  0  1  0  0  0  0  0  0  0  0  0
   -3.8909    1.1259   -0.4860 C   0  0  2  0  0  0  0  0  0  0  0  0
   -2.1942   -0.9747   -0.8756 C   0  0  2  0  0  0  0  0  0  0  0  0
   -4.9896   -1.3590   -0.1670 C   0  0  1  0  0  0  0  0  0  0  0  0
   -2.3821    1.6298   -0.5748 C   0  0  0  0  0  0  0  0  0  0  0  0
   -5.4398    1.1100   -0.8977 C   0  0  0  0  0  0  0  0  0  0  0  0
   -4.2743    1.9431    0.6862 O   0  0  0  0  0  0  0  0  0  0  0  0
   -1.0530   -0.5395   -0.0391 C   0  0  1  0  0  0  0  0  0  0  0  0
   -1.8244   -0.8074   -2.2650 O   0  0  0  0  0  0  0  0  0  0  0  0
   -6.1178   -0.7595    0.6046 C   0  0  0  0  0  0  0  0  0  0  0  0
   -4.1616   -2.5429   -0.1042 N   0  0  0  0  0  0  0  0  0  0  0  0
   -1.1992    0.9304   -0.2913 C   0  0  0  0  0  0  0  0  0  0  0  0
   -2.3558    3.0034   -0.7434 O   0  0  0  0  0  0  0  0  0  0  0  0
   -6.4180    0.4999    0.2032 C   0  0  0  0  0  0  0  0  0  0  0  0
   -5.8407    1.3055   -2.0357 O   0  0  0  0  0  0  0  0  0  0  0  0
    0.1701   -1.5501   -0.1770 C   0  0  2  0  0  0  0  0  0  0  0  0
   -6.9603   -1.5437    1.3793 O   0  0  0  0  0  0  0  0  0  0  0  0
   -3.0702   -2.2609    1.0953 C   0  0  0  0  0  0  0  0  0  0  0  0
   -3.9456   -2.4045   -1.8296 C   0  0  0  0  0  0  0  0  0  0  0  0
    0.1144    1.5399    0.0654 C   0  0  0  0  0  0  0  0  0  0  0  0
   -7.6107    1.1690    0.8135 C   0  0  0  0  0  0  0  0  0  0  0  0
    1.4079   -0.7216   -0.1138 C   0  0  0  0  0  0  0  0  0  0  0  0
    0.2273   -2.7229   -1.2184 C   0  0  0  0  0  0  0  0  0  0  0  0
    1.3752    0.6884   -0.0157 C   0  0  0  0  0  0  0  0  0  0  0  0
    0.1448    2.6779    0.4758 O   0  0  0  0  0  0  0  0  0  0  0  0
   -8.3604    1.9471   -0.0316 N   0  0  0  0  0  0  0  0  0  0  0  0
   -7.9426    1.0430    1.9586 O   0  0  0  0  0  0  0  0  0  0  0  0
    2.6314   -1.4154   -0.0506 C   0  0  0  0  0  0  0  0  0  0  0  0
    2.5981    1.3548    0.0651 C   0  0  0  0  0  0  0  0  0  0  0  0
    3.8209   -0.7335    0.0907 C   0  0  0  0  0  0  0  0  0  0  0  0
    3.8033    0.6538    0.1411 C   0  0  0  0  0  0  0  0  0  0  0  0
    2.6923    2.7181    0.0254 O   0  0  0  0  0  0  0  0  0  0  0  0
   -3.7747   -0.1747    0.8318 H   0  0  0  0  0  0  0  0  0  0  0  0
   -1.1183   -0.5357    1.0562 H   0  0  0  0  0  0  0  0  0  0  0  0
    0.1980   -2.3206    1.0704 O   0  0  0  0  0  0  0  0  0  0  0  0
   -2.1319   -2.0506   -0.8036 H   0  0  0  0  0  0  0  0  0  0  0  0
   -5.6747   -1.7168   -0.9618 H   0  0  0  0  0  0  0  0  0  0  0  0
   -4.2443    2.8520    0.3098 H   0  0  0  0  0  0  0  0  0  0  0  0
   -1.4139   -1.6550   -2.5536 H   0  0  0  0  0  0  0  0  0  0  0  0
   -1.4217    3.2814   -0.6767 H   0  0  0  0  0  0  0  0  0  0  0  0
   -6.4957   -2.3143    1.7472 H   0  0  0  0  0  0  0  0  0  0  0  0
   -2.1342   -2.7769    0.9302 H   0  0  0  0  0  0  0  0  0  0  0  0
   -2.6987   -1.2388    1.2986 H   0  0  0  0  0  0  0  0  0  0  0  0
   -3.3762   -2.3610    2.1412 H   0  0  0  0  0  0  0  0  0  0  0  0
   -3.0743   -2.8683   -2.2984 H   0  0  0  0  0  0  0  0  0  0  0  0
   -4.8301   -2.7801   -2.3580 H   0  0  0  0  0  0  0  0  0  0  0  0
   -3.9927   -1.3295   -2.2189 H   0  0  0  0  0  0  0  0  0  0  0  0
    0.9966   -3.4701   -0.9558 H   0  0  0  0  0  0  0  0  0  0  0  0
   -0.6764   -3.3468   -1.1885 H   0  0  0  0  0  0  0  0  0  0  0  0
    0.4345   -2.4130   -2.2431 H   0  0  0  0  0  0  0  0  0  0  0  0
   -9.2163    2.3149    0.3676 H   0  0  0  0  0  0  0  0  0  0  0  0
   -8.2049    2.0181   -1.0214 H   0  0  0  0  0  0  0  0  0  0  0  0
    2.6482   -2.5044   -0.0510 H   0  0  0  0  0  0  0  0  0  0  0  0
    4.7454   -1.2958    0.1650 H   0  0  0  0  0  0  0  0  0  0  0  0
    4.7341    1.1995    0.2430 H   0  0  0  0  0  0  0  0  0  0  0  0
    1.7885    3.0748   -0.1114 H   0  0  0  0  0  0  0  0  0  0  0  0
   -0.3200   -3.1382    0.9469 H   0  0  0  0  0  0  0  0  0  0  0  0
  1  2  1  0  0  0  0
  1  3  1  0  0  0  0
  1  4  1  0  0  0  0
  1 33  1  6  0  0  0
  2  5  1  0  0  0  0
  2  6  1  0  0  0  0
  2  7  1  6  0  0  0
  3  8  1  0  0  0  0
  3 36  1  1  0  0  0
  3  9  1  0  0  0  0
  4 10  1  0  0  0  0
  4 37  1  1  0  0  0
  4 11  1  0  0  0  0
  5 12  2  0  0  0  0
  5 13  1  0  0  0  0
  6 14  1  0  0  0  0
  6 15  2  0  0  0  0
  7 38  1  0  0  0  0
  8 16  1  0  0  0  0
  8 12  1  0  0  0  0
  8 34  1  6  0  0  0
  9 39  1  0  0  0  0
 10 14  2  0  0  0  0
 10 17  1  0  0  0  0
 11 18  1  0  0  0  0
 11 19  1  0  0  0  0
 12 20  1  0  0  0  0
 13 40  1  0  0  0  0
 14 21  1  0  0  0  0
 16 22  1  0  0  0  0
 16 23  1  0  0  0  0
 16 35  1  1  0  0  0
 17 41  1  0  0  0  0
 18 42  1  0  0  0  0
 18 43  1  0  0  0  0
 18 44  1  0  0  0  0
 19 45  1  0  0  0  0
 19 46  1  0  0  0  0
 19 47  1  0  0  0  0
 20 24  1  0  0  0  0
 20 25  2  0  0  0  0
 21 26  1  0  0  0  0
 21 27  2  0  0  0  0
 22 28  1  0  0  0  0
 22 24  2  0  0  0  0
 23 48  1  0  0  0  0
 23 49  1  0  0  0  0
 23 50  1  0  0  0  0
 24 29  1  0  0  0  0
 26 51  1  0  0  0  0
 26 52  1  0  0  0  0
 28 30  2  0  0  0  0
 28 53  1  0  0  0  0
 29 31  2  0  0  0  0
 29 32  1  0  0  0  0
 30 31  1  0  0  0  0
 30 54  1  0  0  0  0
 31 55  1  0  0  0  0
 32 56  1  0  0  0  0
 35 57  1  0  0  0  0
M  END
>  <DRUGBANK_ID>
DB00595

>  <SECONDARY_ACCESSION_NUMBERS>
APRD00019

>  <COMMON_NAME>
Oxytetracycline

>  <CAS_NUMBER>
79-57-2

>  <UNII>
SLF0D9077S

>  <SYNONYMS>
5-Hydroxytetracycline; Embryostat; Hydroxytetracyclinum; Mepatar; Ossitetraciclina; Oxitetraciclina; Oxyterracin; Oxyterracine; Oxytetracyclin; Oxyt√©tracycline; Oxytetracycline; Oxytetracycline (anhydrous); Oxytetracycline amphoteric; Oxytetracyclinum

$$$$
