STN
 OpenBabel10282417133D

 28 27  0  0  0  0  0  0  0  0999 V2000
   -1.0145    3.0161   -0.9891 C   0  0  0  0  0  0  0  0  0  0  0  0
   -1.4735    3.4661    0.3984 C   0  0  0  0  0  0  0  0  0  0  0  0
    1.0479    1.1555    2.2710 C   0  0  0  0  0  0  0  0  0  0  0  0
    0.5718    2.4635    1.6345 C   0  0  1  0  0  0  0  0  0  0  0  0
   -0.9597    2.5121    1.4864 C   0  0  0  0  0  0  0  0  0  0  0  0
   -1.0496    4.9036    0.6700 C   0  0  0  0  0  0  0  0  0  0  0  0
    1.1607    3.6647    2.3515 C   0  0  0  0  0  0  0  0  0  0  0  0
   -0.7254   -0.2981    3.3259 C   0  0  0  0  0  0  0  0  0  0  0  0
    0.1547    1.5587    4.4709 O   0  0  0  0  0  0  0  0  0  0  0  0
    0.2416    0.6664    3.3845 N   0  0  0  0  0  0  0  0  0  0  0  0
   -1.5794   -0.4668    4.1918 O   0  0  0  0  0  0  0  0  0  0  0  0
    2.0202    4.4059    1.8842 O   0  0  0  0  0  0  0  0  0  0  0  0
    0.6465    3.9154    3.5608 O   0  0  0  0  0  0  0  0  0  0  0  0
    1.0376    2.4844    0.6410 H   0  0  0  0  0  0  0  0  0  0  0  0
    0.0746    3.0315   -1.0879 H   0  0  0  0  0  0  0  0  0  0  0  0
   -1.4136    3.6772   -1.7624 H   0  0  0  0  0  0  0  0  0  0  0  0
   -1.3535    1.9954   -1.1966 H   0  0  0  0  0  0  0  0  0  0  0  0
   -2.5710    3.4267    0.4191 H   0  0  0  0  0  0  0  0  0  0  0  0
    1.0218    0.3788    1.4943 H   0  0  0  0  0  0  0  0  0  0  0  0
    2.0814    1.2420    2.6185 H   0  0  0  0  0  0  0  0  0  0  0  0
   -1.4196    2.7884    2.4437 H   0  0  0  0  0  0  0  0  0  0  0  0
   -1.3376    1.5097    1.2431 H   0  0  0  0  0  0  0  0  0  0  0  0
   -1.4905    5.5930   -0.0522 H   0  0  0  0  0  0  0  0  0  0  0  0
   -1.3498    5.2108    1.6781 H   0  0  0  0  0  0  0  0  0  0  0  0
    0.0311    5.0189    0.5773 H   0  0  0  0  0  0  0  0  0  0  0  0
   -0.6555   -0.9285    2.4264 H   0  0  0  0  0  0  0  0  0  0  0  0
   -0.7145    1.3418    4.8693 H   0  0  0  0  0  0  0  0  0  0  0  0
    1.1554    4.6581    3.9423 H   0  0  0  0  0  0  0  0  0  0  0  0
  1  2  1  0  0  0  0
  1 15  1  0  0  0  0
  1 16  1  0  0  0  0
  1 17  1  0  0  0  0
  2  5  1  0  0  0  0
  2  6  1  0  0  0  0
  2 18  1  0  0  0  0
  3 10  1  0  0  0  0
  3 19  1  0  0  0  0
  3 20  1  0  0  0  0
  4  7  1  0  0  0  0
  4 14  1  6  0  0  0
  4  5  1  0  0  0  0
  4  3  1  0  0  0  0
  5 21  1  0  0  0  0
  5 22  1  0  0  0  0
  6 23  1  0  0  0  0
  6 24  1  0  0  0  0
  6 25  1  0  0  0  0
  7 12  2  0  0  0  0
  7 13  1  0  0  0  0
  8 10  1  0  0  0  0
  8 11  2  0  0  0  0
  8 26  1  0  0  0  0
  9 10  1  0  0  0  0
  9 27  1  0  0  0  0
 13 28  1  0  0  0  0
M  END
>  <DRUGBANK_ID>
DB03683

>  <SECONDARY_ACCESSION_NUMBERS>
EXPT02969

>  <COMMON_NAME>
2-{[Formyl(Hydroxy)Amino]Methyl}-4-Methylpentanoic Acid

$$$$
