
 OpenBabel10282417183D

 70 75  0  0  0  0  0  0  0  0999 V2000
    2.5839   -0.4912    0.0025 C   0  0  0  0  0  0  0  0  0  0  0  0
    2.2234    2.1210   -7.8625 C   0  0  0  0  0  0  0  0  0  0  0  0
    1.4732    3.0664   -8.5721 C   0  0  0  0  0  0  0  0  0  0  0  0
   -3.5549    1.8613   -1.6648 C   0  0  0  0  0  0  0  0  0  0  0  0
   -2.6408   -0.4807   -2.2143 C   0  0  0  0  0  0  0  0  0  0  0  0
    0.5173   -1.8470    0.4118 C   0  0  0  0  0  0  0  0  0  0  0  0
    0.4500    0.3248    0.3802 C   0  0  0  0  0  0  0  0  0  0  0  0
   -1.0394   -1.7334    0.2865 C   0  0  0  0  0  0  0  0  0  0  0  0
   -1.3063    0.5648    0.4965 C   0  0  0  0  0  0  0  0  0  0  0  0
   -2.1232   -0.2200    2.1771 C   0  0  0  0  0  0  0  0  0  0  0  0
   -4.7474    1.0924   -1.0780 C   0  0  0  0  0  0  0  0  0  0  0  0
   -3.8675   -1.0691   -1.4835 C   0  0  0  0  0  0  0  0  0  0  0  0
   -0.7746    0.5077    2.7429 C   0  0  0  0  0  0  0  0  0  0  0  0
    1.5229    2.9399    0.3299 C   0  0  0  0  0  0  0  0  0  0  0  0
   -0.6438    2.4727   -0.6955 C   0  0  0  0  0  0  0  0  0  0  0  0
    3.5706    3.0634   -2.6246 C   0  0  0  0  0  0  0  0  0  0  0  0
   -1.3992    4.7395   -7.4132 C   0  0  0  0  0  0  0  0  0  0  0  0
   -2.6398    1.0235   -2.5904 C   0  0  0  0  0  0  0  0  0  0  0  0
    0.1533    2.7403    0.6280 C   0  0  0  0  0  0  0  0  0  0  0  0
    1.9214    1.8297   -6.5391 C   0  0  0  0  0  0  0  0  0  0  0  0
    1.9250    2.8942   -1.0658 C   0  0  0  0  0  0  0  0  0  0  0  0
    0.4039    3.6710   -7.9393 C   0  0  0  0  0  0  0  0  0  0  0  0
   -0.3972    2.4459   -2.0438 C   0  0  0  0  0  0  0  0  0  0  0  0
    1.0002    2.6196   -2.2195 C   0  0  0  0  0  0  0  0  0  0  0  0
    0.8754    2.5078   -5.8898 C   0  0  0  0  0  0  0  0  0  0  0  0
    0.0993    3.3894   -6.6410 C   0  0  0  0  0  0  0  0  0  0  0  0
    1.5011    2.5379   -3.4662 C   0  0  0  0  0  0  0  0  0  0  0  0
    2.8176    0.5627   -5.7623 Cl  0  0  0  0  0  0  0  0  0  0  0  0
    3.2412    3.0333   -1.3330 N   0  0  0  0  0  0  0  0  0  0  0  0
    2.7936    2.8558   -3.7021 N   0  0  0  0  0  0  0  0  0  0  0  0
    0.6148    2.3598   -4.5586 N   0  0  0  0  0  0  0  0  0  0  0  0
    1.1347   -0.7415   -0.2734 N   0  0  0  0  0  0  0  0  0  0  0  0
   -1.8969   -0.6410    0.8173 N   0  0  0  0  0  0  0  0  0  0  0  0
   -4.4067   -0.1679   -0.5267 O   0  0  0  0  0  0  0  0  0  0  0  0
   -0.1337    2.0356    2.0989 O   0  0  0  0  0  0  0  0  0  0  0  0
   -0.4398    4.5905   -8.4819 O   0  0  0  0  0  0  0  0  0  0  0  0
   -0.9812    4.0965   -6.1928 O   0  0  0  0  0  0  0  0  0  0  0  0
   -1.2373    1.6174   -2.9146 O   0  0  0  0  0  0  0  0  0  0  0  0
    2.9558    0.4407   -0.4655 H   0  0  0  0  0  0  0  0  0  0  0  0
    2.7898   -0.3470    1.0741 H   0  0  0  0  0  0  0  0  0  0  0  0
    3.2076   -1.2817   -0.3963 H   0  0  0  0  0  0  0  0  0  0  0  0
    3.0521    1.6010   -8.3332 H   0  0  0  0  0  0  0  0  0  0  0  0
    1.7188    3.2981   -9.5968 H   0  0  0  0  0  0  0  0  0  0  0  0
   -3.0694    2.3143   -0.7987 H   0  0  0  0  0  0  0  0  0  0  0  0
   -3.8659    2.7453   -2.2198 H   0  0  0  0  0  0  0  0  0  0  0  0
   -2.2546   -1.1940   -2.9522 H   0  0  0  0  0  0  0  0  0  0  0  0
   -1.8395   -0.4443   -1.5319 H   0  0  0  0  0  0  0  0  0  0  0  0
    0.8724   -2.7238   -0.1182 H   0  0  0  0  0  0  0  0  0  0  0  0
    0.8052   -1.8624    1.4580 H   0  0  0  0  0  0  0  0  0  0  0  0
    0.9516    0.4439    1.3495 H   0  0  0  0  0  0  0  0  0  0  0  0
    0.9257    1.0095   -0.2581 H   0  0  0  0  0  0  0  0  0  0  0  0
   -1.0846   -1.7638   -0.8142 H   0  0  0  0  0  0  0  0  0  0  0  0
   -1.5465   -2.6395    0.5526 H   0  0  0  0  0  0  0  0  0  0  0  0
   -1.9853    0.8745   -0.2774 H   0  0  0  0  0  0  0  0  0  0  0  0
   -1.6813    1.5045    1.0535 H   0  0  0  0  0  0  0  0  0  0  0  0
   -2.9348    0.5447    2.2165 H   0  0  0  0  0  0  0  0  0  0  0  0
   -2.5458   -1.1071    2.6371 H   0  0  0  0  0  0  0  0  0  0  0  0
   -5.1595    1.6705   -0.2419 H   0  0  0  0  0  0  0  0  0  0  0  0
   -5.5397    0.9458   -1.8125 H   0  0  0  0  0  0  0  0  0  0  0  0
   -4.6622   -1.3716   -2.1710 H   0  0  0  0  0  0  0  0  0  0  0  0
   -3.5980   -1.9858   -0.9294 H   0  0  0  0  0  0  0  0  0  0  0  0
   -0.8909    0.6305    3.8176 H   0  0  0  0  0  0  0  0  0  0  0  0
   -0.0083   -0.2791    2.6529 H   0  0  0  0  0  0  0  0  0  0  0  0
    2.2826    2.7856    1.1089 H   0  0  0  0  0  0  0  0  0  0  0  0
   -0.6648    1.3819   -0.9779 H   0  0  0  0  0  0  0  0  0  0  0  0
    4.6035    3.3306   -2.8555 H   0  0  0  0  0  0  0  0  0  0  0  0
   -2.3473    4.2888   -7.7341 H   0  0  0  0  0  0  0  0  0  0  0  0
   -1.5745    5.8062   -7.2252 H   0  0  0  0  0  0  0  0  0  0  0  0
   -3.1448    0.9882   -3.5635 H   0  0  0  0  0  0  0  0  0  0  0  0
   -0.3011    1.9630   -4.3369 H   0  0  0  0  0  0  0  0  0  0  0  0
  1 39  1  0  0  0  0
  1 40  1  0  0  0  0
  1 41  1  0  0  0  0
  2 42  1  0  0  0  0
  3  2  2  0  0  0  0
  3 43  1  0  0  0  0
  4 44  1  0  0  0  0
  4 45  1  0  0  0  0
  5 46  1  0  0  0  0
  5 47  1  0  0  0  0
  6 48  1  0  0  0  0
  6 49  1  0  0  0  0
  7 50  1  0  0  0  0
  7 51  1  0  0  0  0
  8  6  1  0  0  0  0
  8 52  1  0  0  0  0
  8 53  1  0  0  0  0
  9  7  1  0  0  0  0
  9 54  1  0  0  0  0
  9 55  1  0  0  0  0
 10 56  1  0  0  0  0
 10 57  1  0  0  0  0
 11  4  1  0  0  0  0
 11 58  1  0  0  0  0
 11 59  1  0  0  0  0
 12  5  1  0  0  0  0
 12 60  1  0  0  0  0
 12 61  1  0  0  0  0
 13 10  1  0  0  0  0
 13 62  1  0  0  0  0
 13 63  1  0  0  0  0
 14 64  1  0  0  0  0
 15 65  1  0  0  0  0
 16 66  1  0  0  0  0
 17 67  1  0  0  0  0
 17 68  1  0  0  0  0
 18  4  1  0  0  0  0
 18  5  1  0  0  0  0
 18 69  1  0  0  0  0
 19 14  2  0  0  0  0
 19 15  1  0  0  0  0
 20  2  1  0  0  0  0
 21 14  1  0  0  0  0
 22  3  1  0  0  0  0
 23 15  2  0  0  0  0
 24 21  2  0  0  0  0
 24 23  1  0  0  0  0
 25 20  2  0  0  0  0
 26 22  2  0  0  0  0
 26 25  1  0  0  0  0
 27 24  1  0  0  0  0
 28 20  1  0  0  0  0
 29 16  2  0  0  0  0
 29 21  1  0  0  0  0
 30 16  1  0  0  0  0
 30 27  2  0  0  0  0
 31 25  1  0  0  0  0
 31 27  1  0  0  0  0
 31 70  1  0  0  0  0
 32  1  1  0  0  0  0
 32  6  1  0  0  0  0
 32  7  1  0  0  0  0
 33  8  1  0  0  0  0
 33  9  1  0  0  0  0
 33 10  1  0  0  0  0
 34 11  1  0  0  0  0
 34 12  1  0  0  0  0
 35 13  1  0  0  0  0
 35 19  1  0  0  0  0
 36 17  1  0  0  0  0
 36 22  1  0  0  0  0
 37 17  1  0  0  0  0
 37 26  1  0  0  0  0
 38 18  1  0  0  0  0
 38 23  1  0  0  0  0
M  END
>  <DRUGBANK_ID>
DB11805

>  <COMMON_NAME>
Saracatinib

>  <CAS_NUMBER>
379231-04-6

>  <UNII>
9KD24QGH76

>  <SYNONYMS>
Saracatinib

$$$$
