598
 OpenBabel10282417103D

 48 49  0  0  1  0  0  0  0  0999 V2000
    1.0369   -0.0583   -0.0760 O   0  0  0  0  0  0  0  0  0  0  0  0
    2.4757    1.7750   -6.0375 O   0  0  0  0  0  0  0  0  0  0  0  0
    2.0265   -2.1961   -4.3457 O   0  0  0  0  0  0  0  0  0  0  0  0
    2.5194    2.4157    0.0983 N   0  0  0  0  0  0  0  0  0  0  0  0
    2.6030   -1.1738   -6.2367 N   0  0  0  0  0  0  0  0  0  0  0  0
    3.0200    3.5646    0.8388 C   0  0  3  0  0  0  0  0  0  0  0  0
    2.5885    3.4659    2.3260 C   0  0  0  0  0  0  0  0  0  0  0  0
    1.0511    2.3240    0.1257 C   0  0  0  0  0  0  0  0  0  0  0  0
    3.0802    2.1981    3.0613 C   0  0  0  0  0  0  0  0  0  0  0  0
    0.5774    1.1330   -0.7284 C   0  0  3  0  0  0  0  0  0  0  0  0
    4.5287    3.6181    0.5719 C   0  0  0  0  0  0  0  0  0  0  0  0
    1.0690    1.2213   -2.1630 C   0  0  0  0  0  0  0  0  0  0  0  0
    4.5795    2.1528    3.2321 C   0  0  0  0  0  0  0  0  0  0  0  0
    1.3883    0.0785   -2.9189 C   0  0  0  0  0  0  0  0  0  0  0  0
    1.2178    2.4771   -2.7670 C   0  0  0  0  0  0  0  0  0  0  0  0
    5.3065    3.3455    3.3960 C   0  0  0  0  0  0  0  0  0  0  0  0
    5.2854    0.9495    3.1295 C   0  0  0  0  0  0  0  0  0  0  0  0
    1.8701    0.1758   -4.2485 C   0  0  0  0  0  0  0  0  0  0  0  0
    1.7027    2.5944   -4.0546 C   0  0  0  0  0  0  0  0  0  0  0  0
    2.0199    1.4604   -4.7926 C   0  0  0  0  0  0  0  0  0  0  0  0
    6.6923    3.3617    3.3238 C   0  0  0  0  0  0  0  0  0  0  0  0
    6.6801    0.9555    3.2188 C   0  0  0  0  0  0  0  0  0  0  0  0
    7.3820    2.1615    3.2662 C   0  0  0  0  0  0  0  0  0  0  0  0
    2.1725   -1.1186   -4.9380 C   0  0  0  0  0  0  0  0  0  0  0  0
    2.0033   -0.0637   -0.1842 H   0  0  0  0  0  0  0  0  0  0  0  0
    2.2966    1.0313   -6.6173 H   0  0  0  0  0  0  0  0  0  0  0  0
    2.9382    1.5661    0.4710 H   0  0  0  0  0  0  0  0  0  0  0  0
    2.9982   -0.4507   -6.8088 H   0  0  0  0  0  0  0  0  0  0  0  0
    2.8066   -2.1091   -6.5710 H   0  0  0  0  0  0  0  0  0  0  0  0
    2.6020    4.4846    0.4125 H   0  0  0  0  0  0  0  0  0  0  0  0
    2.8771    4.3769    2.8569 H   0  0  0  0  0  0  0  0  0  0  0  0
    1.4933    3.4939    2.3971 H   0  0  0  0  0  0  0  0  0  0  0  0
    0.6224    3.2682   -0.2293 H   0  0  0  0  0  0  0  0  0  0  0  0
    0.6796    2.1634    1.1401 H   0  0  0  0  0  0  0  0  0  0  0  0
    2.6202    2.1473    4.0537 H   0  0  0  0  0  0  0  0  0  0  0  0
    2.7294    1.3022    2.5288 H   0  0  0  0  0  0  0  0  0  0  0  0
   -0.5170    1.1095   -0.7210 H   0  0  0  0  0  0  0  0  0  0  0  0
    4.7754    3.7303   -0.4873 H   0  0  0  0  0  0  0  0  0  0  0  0
    4.9772    4.4696    1.0915 H   0  0  0  0  0  0  0  0  0  0  0  0
    5.0312    2.6920    0.8652 H   0  0  0  0  0  0  0  0  0  0  0  0
    1.2708   -0.9030   -2.4536 H   0  0  0  0  0  0  0  0  0  0  0  0
    1.0058    3.4020   -2.2385 H   0  0  0  0  0  0  0  0  0  0  0  0
    4.8041    4.3079    3.4175 H   0  0  0  0  0  0  0  0  0  0  0  0
    4.7700    0.0100    2.9380 H   0  0  0  0  0  0  0  0  0  0  0  0
    1.8371    3.5828   -4.4844 H   0  0  0  0  0  0  0  0  0  0  0  0
    7.2115    4.3149    3.2812 H   0  0  0  0  0  0  0  0  0  0  0  0
    7.2274    0.0177    3.2251 H   0  0  0  0  0  0  0  0  0  0  0  0
    8.4667    2.1699    3.2451 H   0  0  0  0  0  0  0  0  0  0  0  0
  1 10  1  0  0  0  0
  1 25  1  0  0  0  0
  2 20  1  0  0  0  0
  2 26  1  0  0  0  0
  3 24  2  0  0  0  0
  4  6  1  0  0  0  0
  4  8  1  0  0  0  0
  4 27  1  0  0  0  0
  5 24  1  0  0  0  0
  5 28  1  0  0  0  0
  5 29  1  0  0  0  0
  6  7  1  0  0  0  0
  6 11  1  0  0  0  0
  6 30  1  0  0  0  0
  7  9  1  0  0  0  0
  7 31  1  0  0  0  0
  7 32  1  0  0  0  0
  8 10  1  0  0  0  0
  8 33  1  0  0  0  0
  8 34  1  0  0  0  0
  9 13  1  0  0  0  0
  9 35  1  0  0  0  0
  9 36  1  0  0  0  0
 10 12  1  0  0  0  0
 10 37  1  0  0  0  0
 11 38  1  0  0  0  0
 11 39  1  0  0  0  0
 11 40  1  0  0  0  0
 12 14  2  0  0  0  0
 12 15  1  0  0  0  0
 13 16  2  0  0  0  0
 13 17  1  0  0  0  0
 14 18  1  0  0  0  0
 14 41  1  0  0  0  0
 15 19  2  0  0  0  0
 15 42  1  0  0  0  0
 16 21  1  0  0  0  0
 16 43  1  0  0  0  0
 17 22  2  0  0  0  0
 17 44  1  0  0  0  0
 18 20  2  0  0  0  0
 18 24  1  0  0  0  0
 19 20  1  0  0  0  0
 19 45  1  0  0  0  0
 21 23  2  0  0  0  0
 21 46  1  0  0  0  0
 22 23  1  0  0  0  0
 22 47  1  0  0  0  0
 23 48  1  0  0  0  0
M  END
>  <DRUGBANK_ID>
DB00598

>  <SECONDARY_ACCESSION_NUMBERS>
APRD01062

>  <COMMON_NAME>
Labetalol

>  <CAS_NUMBER>
36894-69-6

>  <UNII>
R5H8897N95

>  <SYNONYMS>
3-Carboxamido-4-hydroxy-alpha-((1-methyl-3-phenylpropylamino)methyl)benzyl alcohol; 5-(1-Hydroxy-2-(1-methyl-3-phenylpropylamino)ethyl)salicylamide; Lab√©talol; Labetalol; Labetalolum; Labetolol

$$$$
