
 OpenBabel10282417193D

 26 28  0  0  0  0  0  0  0  0999 V2000
   11.3005   -1.1832   -7.2575 C   0  0  0  0  0  0  0  0  0  0  0  0
   13.3433    1.1951   -5.3371 C   0  0  0  0  0  0  0  0  0  0  0  0
    9.1201    1.2849   -6.3138 C   0  0  0  0  0  0  0  0  0  0  0  0
    9.5628    2.2891   -5.2680 C   0  0  0  0  0  0  0  0  0  0  0  0
   10.4604    0.9694   -6.9605 C   0  0  1  0  0  0  0  0  0  0  0  0
   11.0857    2.3017   -5.4667 C   0  0  2  0  0  0  0  0  0  0  0  0
   12.1291   -1.0689   -4.9632 C   0  0  0  0  0  0  0  0  0  0  0  0
   11.2244    0.4470   -3.8533 C   0  0  0  0  0  0  0  0  0  0  0  0
   11.2226   -0.1845   -6.1042 C   0  0  1  0  0  0  0  0  0  0  0  0
   11.7996    0.9854   -5.1914 C   0  0  2  0  0  0  0  0  0  0  0  0
   13.1081   -1.7831   -5.1326 O   0  0  0  0  0  0  0  0  0  0  0  0
   10.2645    0.7491   -3.2050 O   0  0  0  0  0  0  0  0  0  0  0  0
   11.1627    2.2158   -6.8813 O   0  0  0  0  0  0  0  0  0  0  0  0
   11.7887   -0.7479   -3.7031 O   0  0  0  0  0  0  0  0  0  0  0  0
   10.3119    0.8174   -8.0360 H   0  0  0  0  0  0  0  0  0  0  0  0
   11.6010    3.1999   -5.1170 H   0  0  0  0  0  0  0  0  0  0  0  0
   10.6093   -0.9697   -8.0890 H   0  0  0  0  0  0  0  0  0  0  0  0
   10.8522   -2.1245   -6.9135 H   0  0  0  0  0  0  0  0  0  0  0  0
   12.2739   -1.3365   -7.7167 H   0  0  0  0  0  0  0  0  0  0  0  0
   13.8774    0.3168   -5.7188 H   0  0  0  0  0  0  0  0  0  0  0  0
   13.6013    1.9660   -6.0724 H   0  0  0  0  0  0  0  0  0  0  0  0
   13.7940    1.4500   -4.3745 H   0  0  0  0  0  0  0  0  0  0  0  0
    8.3632    1.7428   -6.9592 H   0  0  0  0  0  0  0  0  0  0  0  0
    8.7095    0.3435   -5.9371 H   0  0  0  0  0  0  0  0  0  0  0  0
    9.1834    3.3048   -5.4026 H   0  0  0  0  0  0  0  0  0  0  0  0
    9.1325    1.9944   -4.3193 H   0  0  0  0  0  0  0  0  0  0  0  0
  1 17  1  0  0  0  0
  1 18  1  0  0  0  0
  1 19  1  0  0  0  0
  2 20  1  0  0  0  0
  2 21  1  0  0  0  0
  2 22  1  0  0  0  0
  3 23  1  0  0  0  0
  3 24  1  0  0  0  0
  4  3  1  0  0  0  0
  4 25  1  0  0  0  0
  4 26  1  0  0  0  0
  5  3  1  0  0  0  0
  5 15  1  1  0  0  0
  6  4  1  0  0  0  0
  6 16  1  6  0  0  0
  9  5  1  0  0  0  0
  9  7  1  0  0  0  0
  9  1  1  6  0  0  0
 10  6  1  0  0  0  0
 10  8  1  0  0  0  0
 10  9  1  0  0  0  0
 10  2  1  6  0  0  0
 11  7  2  0  0  0  0
 12  8  2  0  0  0  0
 13  5  1  0  0  0  0
 13  6  1  0  0  0  0
 14  7  1  0  0  0  0
 14  8  1  0  0  0  0
M  END
>  <DRUGBANK_ID>
DB12328

>  <COMMON_NAME>
Cantharidin

>  <CAS_NUMBER>
56-25-7

>  <UNII>
IGL471WQ8P

>  <SYNONYMS>
1,2-Dimethyl-3,6-epoxyperhydrophthalic anhydride; Cantharidin; Cantharidine; Cantharone; exo-1,2-cis-Dimethyl-3,6-epoxyhexahydrophthalic anhydride; Kantharidin

$$$$
