
 OpenBabel10282417223D

 75 78  0  0  1  0  0  0  0  0999 V2000
    1.0810   -0.0852    0.0120 C   0  0  0  0  0  0  0  0  0  0  0  0
    0.4803   -1.4667    0.1102 C   0  0  2  0  0  0  0  0  0  0  0  0
    0.4601   -1.9299    1.5601 C   0  0  0  0  0  0  0  0  0  0  0  0
    0.5195   -3.3628    1.4247 N   0  0  0  0  0  0  0  0  0  0  0  0
    0.4117   -4.1745    2.4959 C   0  0  0  0  0  0  0  0  0  0  0  0
    1.5759   -4.9584    2.7714 N   0  0  0  0  0  0  0  0  0  0  0  0
    1.4810   -5.9731    3.6376 C   0  0  0  0  0  0  0  0  0  0  0  0
    0.2605   -6.1257    4.1669 C   0  0  0  0  0  0  0  0  0  0  0  0
   -0.8817   -5.4103    3.8483 C   0  0  0  0  0  0  0  0  0  0  0  0
   -0.8276   -4.2894    3.1228 C   0  0  0  0  0  0  0  0  0  0  0  0
   -2.0754   -3.4474    3.1039 C   0  0  0  0  0  0  0  0  0  0  0  0
   -2.3496   -2.7225    2.1389 O   0  0  0  0  0  0  0  0  0  0  0  0
   -3.0346   -3.4259    4.1642 N   0  0  0  0  0  0  0  0  0  0  0  0
   -3.4026   -4.1393    5.6352 S   0  0  0  0  0  0  0  0  0  0  0  0
   -3.5920   -3.0625    6.5898 O   0  0  0  0  0  0  0  0  0  0  0  0
   -4.4763   -5.0683    5.3662 O   0  0  0  0  0  0  0  0  0  0  0  0
   -2.1893   -5.1359    6.3950 C   0  0  0  0  0  0  0  0  0  0  0  0
   -2.1604   -6.5362    6.3798 C   0  0  0  0  0  0  0  0  0  0  0  0
   -0.9162   -6.9304    6.8228 N   0  0  0  0  0  0  0  0  0  0  0  0
   -0.3008   -8.2237    6.4773 C   0  0  0  0  0  0  0  0  0  0  0  0
   -0.1378   -5.8286    7.1256 N   0  0  0  0  0  0  0  0  0  0  0  0
   -0.8535   -4.7456    6.7196 C   0  0  0  0  0  0  0  0  0  0  0  0
   -0.1663   -3.4396    6.3189 C   0  0  0  0  0  0  0  0  0  0  0  0
    2.4811   -6.8709    4.2318 N   0  0  0  0  0  0  0  0  0  0  0  0
    2.3694   -8.2659    4.4015 C   0  0  0  0  0  0  0  0  0  0  0  0
    3.5435   -8.7094    4.9696 C   0  0  0  0  0  0  0  0  0  0  0  0
    4.2595   -7.5334    5.1763 C   0  0  0  0  0  0  0  0  0  0  0  0
    5.5932   -7.4774    5.3727 O   0  0  0  0  0  0  0  0  0  0  0  0
    6.2348   -6.2147    5.1761 C   0  0  0  0  0  0  0  0  0  0  0  0
    6.2241   -5.5826    3.7512 C   0  0  0  0  0  0  0  0  0  0  0  0
    4.8391   -5.1903    3.2525 C   0  0  0  0  0  0  0  0  0  0  0  0
    7.0195   -4.2726    3.7801 C   0  0  0  0  0  0  0  0  0  0  0  0
    6.8109   -6.5536    2.7373 C   0  0  0  0  0  0  0  0  0  0  0  0
    8.1080   -6.8233    2.9985 F   0  0  0  0  0  0  0  0  0  0  0  0
    6.1488   -7.7312    2.7007 F   0  0  0  0  0  0  0  0  0  0  0  0
    6.7532   -6.0331    1.4871 F   0  0  0  0  0  0  0  0  0  0  0  0
    3.4932   -6.4463    5.0578 N   0  0  0  0  0  0  0  0  0  0  0  0
    0.5281   -3.8656    0.0567 C   0  0  0  0  0  0  0  0  0  0  0  0
    1.3176   -5.1716   -0.1008 C   0  0  0  0  0  0  0  0  0  0  0  0
   -0.8980   -4.1363   -0.4682 C   0  0  0  0  0  0  0  0  0  0  0  0
    1.1759   -2.6398   -0.6194 C   0  0  0  0  0  0  0  0  0  0  0  0
    0.7080    0.5385    0.8361 H   0  0  0  0  0  0  0  0  0  0  0  0
    0.7692    0.3908   -0.9197 H   0  0  0  0  0  0  0  0  0  0  0  0
    2.1715   -0.1006    0.0667 H   0  0  0  0  0  0  0  0  0  0  0  0
   -0.5518   -1.4001   -0.2542 H   0  0  0  0  0  0  0  0  0  0  0  0
    1.3174   -1.5851    2.1478 H   0  0  0  0  0  0  0  0  0  0  0  0
   -0.4331   -1.5461    2.0598 H   0  0  0  0  0  0  0  0  0  0  0  0
    0.3566   -6.5447    5.1254 H   0  0  0  0  0  0  0  0  0  0  0  0
   -1.8148   -5.6259    4.2940 H   0  0  0  0  0  0  0  0  0  0  0  0
   -3.8242   -2.8247    3.9069 H   0  0  0  0  0  0  0  0  0  0  0  0
   -2.7926   -7.2369    5.8419 H   0  0  0  0  0  0  0  0  0  0  0  0
    0.1483   -8.2028    5.4867 H   0  0  0  0  0  0  0  0  0  0  0  0
    0.4988   -8.4800    7.1696 H   0  0  0  0  0  0  0  0  0  0  0  0
   -1.0475   -9.0039    6.3288 H   0  0  0  0  0  0  0  0  0  0  0  0
    0.4575   -3.0163    7.1050 H   0  0  0  0  0  0  0  0  0  0  0  0
    0.5009   -3.5582    5.4492 H   0  0  0  0  0  0  0  0  0  0  0  0
   -0.8886   -2.6776    5.9970 H   0  0  0  0  0  0  0  0  0  0  0  0
    1.5308   -8.8253    4.0170 H   0  0  0  0  0  0  0  0  0  0  0  0
    3.8838   -9.7275    5.1043 H   0  0  0  0  0  0  0  0  0  0  0  0
    5.8846   -5.5169    5.9459 H   0  0  0  0  0  0  0  0  0  0  0  0
    7.2885   -6.4096    5.4306 H   0  0  0  0  0  0  0  0  0  0  0  0
    4.3198   -4.5928    4.0138 H   0  0  0  0  0  0  0  0  0  0  0  0
    4.8248   -4.6026    2.3361 H   0  0  0  0  0  0  0  0  0  0  0  0
    4.3030   -6.0949    2.9703 H   0  0  0  0  0  0  0  0  0  0  0  0
    8.0737   -4.4416    4.0091 H   0  0  0  0  0  0  0  0  0  0  0  0
    6.9564   -3.7672    2.8093 H   0  0  0  0  0  0  0  0  0  0  0  0
    6.6068   -3.5878    4.5312 H   0  0  0  0  0  0  0  0  0  0  0  0
    0.8085   -6.0035    0.4125 H   0  0  0  0  0  0  0  0  0  0  0  0
    1.3993   -5.4602   -1.1513 H   0  0  0  0  0  0  0  0  0  0  0  0
    2.3246   -5.1010    0.3200 H   0  0  0  0  0  0  0  0  0  0  0  0
   -1.5769   -3.2894   -0.3433 H   0  0  0  0  0  0  0  0  0  0  0  0
   -0.8623   -4.3762   -1.5372 H   0  0  0  0  0  0  0  0  0  0  0  0
   -1.3664   -4.9892    0.0403 H   0  0  0  0  0  0  0  0  0  0  0  0
    1.0216   -2.6306   -1.6987 H   0  0  0  0  0  0  0  0  0  0  0  0
    2.2543   -2.6377   -0.4076 H   0  0  0  0  0  0  0  0  0  0  0  0
  1 42  1  0  0  0  0
  1 43  1  0  0  0  0
  1 44  1  0  0  0  0
  2  1  1  0  0  0  0
  2  3  1  0  0  0  0
  2 41  1  0  0  0  0
  2 45  1  6  0  0  0
  3  4  1  0  0  0  0
  3 46  1  0  0  0  0
  3 47  1  0  0  0  0
  4  5  1  0  0  0  0
  4 38  1  0  0  0  0
  5  6  2  0  0  0  0
  5 10  1  0  0  0  0
  6  7  1  0  0  0  0
  7  8  2  0  0  0  0
  7 24  1  0  0  0  0
  8  9  1  0  0  0  0
  8 48  1  0  0  0  0
  9 10  2  0  0  0  0
  9 49  1  0  0  0  0
 10 11  1  0  0  0  0
 11 12  2  0  0  0  0
 11 13  1  0  0  0  0
 13 14  1  0  0  0  0
 13 50  1  0  0  0  0
 14 15  2  0  0  0  0
 14 16  2  0  0  0  0
 14 17  1  0  0  0  0
 17 18  2  0  0  0  0
 17 22  1  0  0  0  0
 18 19  1  0  0  0  0
 18 51  1  0  0  0  0
 19 20  1  0  0  0  0
 19 21  1  0  0  0  0
 20 52  1  0  0  0  0
 20 53  1  0  0  0  0
 20 54  1  0  0  0  0
 21 22  2  0  0  0  0
 22 23  1  0  0  0  0
 23 55  1  0  0  0  0
 23 56  1  0  0  0  0
 23 57  1  0  0  0  0
 24 25  1  0  0  0  0
 24 37  1  0  0  0  0
 25 26  2  0  0  0  0
 25 58  1  0  0  0  0
 26 27  1  0  0  0  0
 26 59  1  0  0  0  0
 27 28  1  0  0  0  0
 27 37  2  0  0  0  0
 28 29  1  0  0  0  0
 29 30  1  0  0  0  0
 29 60  1  0  0  0  0
 29 61  1  0  0  0  0
 30 31  1  0  0  0  0
 30 32  1  0  0  0  0
 30 33  1  0  0  0  0
 31 62  1  0  0  0  0
 31 63  1  0  0  0  0
 31 64  1  0  0  0  0
 32 65  1  0  0  0  0
 32 66  1  0  0  0  0
 32 67  1  0  0  0  0
 33 34  1  0  0  0  0
 33 35  1  0  0  0  0
 33 36  1  0  0  0  0
 38 39  1  0  0  0  0
 38 40  1  0  0  0  0
 38 41  1  0  0  0  0
 39 68  1  0  0  0  0
 39 69  1  0  0  0  0
 39 70  1  0  0  0  0
 40 71  1  0  0  0  0
 40 72  1  0  0  0  0
 40 73  1  0  0  0  0
 41 74  1  0  0  0  0
 41 75  1  0  0  0  0
M  END
>  <DRUGBANK_ID>
DB15444

>  <COMMON_NAME>
Elexacaftor

>  <CAS_NUMBER>
2216712-66-0

>  <UNII>
RRN67GMB0V

>  <SYNONYMS>
Elexacaftor

$$$$
