XCF
 OpenBabel10282417173D

 48 51  0  0  0  0  0  0  0  0999 V2000
   -2.2380    1.3173   -0.1057 N   0  0  0  0  0  0  0  0  0  0  0  0
   -1.0911    0.5821   -0.0583 C   0  0  0  0  0  0  0  0  0  0  0  0
    0.1231    1.1439   -0.0418 N   0  0  0  0  0  0  0  0  0  0  0  0
   -1.3043   -0.7098   -0.0411 N   0  0  0  0  0  0  0  0  0  0  0  0
   -0.2072   -1.4637    0.0380 C   0  0  0  0  0  0  0  0  0  0  0  0
    1.1139   -1.0443    0.0747 C   0  0  0  0  0  0  0  0  0  0  0  0
    1.2090    0.3305    0.0033 C   0  0  0  0  0  0  0  0  0  0  0  0
    2.4206    0.9852    0.1143 N   0  0  0  0  0  0  0  0  0  0  0  0
    2.3068   -1.9921    0.1431 C   0  0  0  0  0  0  0  0  0  0  0  0
    2.3496   -2.9182    1.3514 C   0  0  0  0  0  0  0  0  0  0  0  0
    1.4038   -3.9377    1.5080 C   0  0  0  0  0  0  0  0  0  0  0  0
    0.4657   -4.3103    0.4396 C   0  0  0  0  0  0  0  0  0  0  0  0
   -0.5619   -5.0887    0.7219 C   0  0  0  0  0  0  0  0  0  0  0  0
   -0.4161   -6.0093    1.8778 C   0  0  1  0  0  0  0  0  0  0  0  0
    0.3562   -7.2749    1.5590 C   0  0  0  0  0  0  0  0  0  0  0  0
    1.7488   -7.3693    0.9452 C   0  0  0  0  0  0  0  0  0  0  0  0
    0.5476   -7.7393    0.1252 C   0  0  0  0  0  0  0  0  0  0  0  0
    0.1770   -5.3621    2.9989 O   0  0  0  0  0  0  0  0  0  0  0  0
    1.2827   -4.5905    2.7454 C   0  0  0  0  0  0  0  0  0  0  0  0
    2.2257   -4.4166    3.7682 C   0  0  0  0  0  0  0  0  0  0  0  0
    2.2026   -5.0979    4.9562 O   0  0  0  0  0  0  0  0  0  0  0  0
    1.1953   -6.0601    5.2142 C   0  0  0  0  0  0  0  0  0  0  0  0
    3.2830   -3.5118    3.5550 C   0  0  0  0  0  0  0  0  0  0  0  0
    3.3141   -2.7470    2.3676 C   0  0  0  0  0  0  0  0  0  0  0  0
    4.3360   -3.2511    4.4070 O   0  0  0  0  0  0  0  0  0  0  0  0
    4.3912   -3.9849    5.6295 C   0  0  0  0  0  0  0  0  0  0  0  0
   -1.4180   -6.2993    2.2112 H   0  0  0  0  0  0  0  0  0  0  0  0
   -2.1832    2.2947    0.1016 H   0  0  0  0  0  0  0  0  0  0  0  0
   -3.0708    0.7645    0.0458 H   0  0  0  0  0  0  0  0  0  0  0  0
   -0.5509   -2.4706    0.0938 H   0  0  0  0  0  0  0  0  0  0  0  0
    2.3424    1.9820   -0.0474 H   0  0  0  0  0  0  0  0  0  0  0  0
    3.2879    0.5418   -0.1389 H   0  0  0  0  0  0  0  0  0  0  0  0
    2.3544   -2.6022   -0.7707 H   0  0  0  0  0  0  0  0  0  0  0  0
    3.2523   -1.4388    0.1170 H   0  0  0  0  0  0  0  0  0  0  0  0
    0.5577   -3.8824   -0.5541 H   0  0  0  0  0  0  0  0  0  0  0  0
   -1.3872   -5.2456    0.0308 H   0  0  0  0  0  0  0  0  0  0  0  0
    0.1712   -8.0048    2.3371 H   0  0  0  0  0  0  0  0  0  0  0  0
    2.3149   -6.5008    0.6270 H   0  0  0  0  0  0  0  0  0  0  0  0
    2.3882   -8.1715    1.2993 H   0  0  0  0  0  0  0  0  0  0  0  0
    0.3534   -8.7796   -0.0933 H   0  0  0  0  0  0  0  0  0  0  0  0
    0.3300   -7.0834   -0.7141 H   0  0  0  0  0  0  0  0  0  0  0  0
    0.2175   -5.5757    5.2987 H   0  0  0  0  0  0  0  0  0  0  0  0
    1.2104   -6.8632    4.4700 H   0  0  0  0  0  0  0  0  0  0  0  0
    1.4068   -6.5213    6.1810 H   0  0  0  0  0  0  0  0  0  0  0  0
    4.1128   -2.0144    2.2457 H   0  0  0  0  0  0  0  0  0  0  0  0
    3.5298   -3.7484    6.2649 H   0  0  0  0  0  0  0  0  0  0  0  0
    4.4867   -5.0613    5.4411 H   0  0  0  0  0  0  0  0  0  0  0  0
    5.2809   -3.6853    6.1893 H   0  0  0  0  0  0  0  0  0  0  0  0
  1  2  1  0  0  0  0
  1 28  1  0  0  0  0
  1 29  1  0  0  0  0
  2  3  2  0  0  0  0
  2  4  1  0  0  0  0
  3  7  1  0  0  0  0
  4  5  2  0  0  0  0
  5  6  1  0  0  0  0
  5 30  1  0  0  0  0
  6  7  2  0  0  0  0
  6  9  1  0  0  0  0
  7  8  1  0  0  0  0
  8 31  1  0  0  0  0
  8 32  1  0  0  0  0
  9 10  1  0  0  0  0
  9 33  1  0  0  0  0
  9 34  1  0  0  0  0
 10 11  2  0  0  0  0
 10 24  1  0  0  0  0
 11 12  1  0  0  0  0
 11 19  1  0  0  0  0
 12 13  2  0  0  0  0
 12 35  1  0  0  0  0
 13 14  1  0  0  0  0
 13 36  1  0  0  0  0
 14 18  1  0  0  0  0
 14 27  1  1  0  0  0
 14 15  1  0  0  0  0
 15 16  1  0  0  0  0
 15 17  1  0  0  0  0
 15 37  1  0  0  0  0
 16 17  1  0  0  0  0
 16 38  1  0  0  0  0
 16 39  1  0  0  0  0
 17 40  1  0  0  0  0
 17 41  1  0  0  0  0
 18 19  1  0  0  0  0
 19 20  2  0  0  0  0
 20 21  1  0  0  0  0
 20 23  1  0  0  0  0
 21 22  1  0  0  0  0
 22 42  1  0  0  0  0
 22 43  1  0  0  0  0
 22 44  1  0  0  0  0
 23 24  2  0  0  0  0
 23 25  1  0  0  0  0
 24 45  1  0  0  0  0
 25 26  1  0  0  0  0
 26 46  1  0  0  0  0
 26 47  1  0  0  0  0
 26 48  1  0  0  0  0
M  END
>  <DRUGBANK_ID>
DB08741

>  <COMMON_NAME>
5-[[(2R)-2-cyclopropyl-7,8-dimethoxy-2H-chromen-5-yl]methyl]pyrimidine-2,4-diamine

>  <UNII>
RG4NWL6NKS

$$$$
