709
 OpenBabel10282417163D

 41 43  0  0  0  0  0  0  0  0999 V2000
    0.0074   -0.6768    0.0188 C   0  0  0  0  0  0  0  0  0  0  0  0
    1.2359   -1.3593    0.0051 C   0  0  0  0  0  0  0  0  0  0  0  0
    2.4459   -0.6623   -0.0242 C   0  0  0  0  0  0  0  0  0  0  0  0
    2.4491    0.7329   -0.0134 C   0  0  0  0  0  0  0  0  0  0  0  0
    1.2244    1.4154    0.0335 C   0  0  0  0  0  0  0  0  0  0  0  0
   -0.0249    0.7468    0.0325 C   0  0  0  0  0  0  0  0  0  0  0  0
   -1.2934    1.4085    0.0326 C   0  0  0  0  0  0  0  0  0  0  0  0
   -2.4561    0.6329    0.0005 C   0  0  0  0  0  0  0  0  0  0  0  0
   -2.4127   -0.7533   -0.0049 C   0  0  0  0  0  0  0  0  0  0  0  0
   -1.1901   -1.4055    0.0129 C   0  0  0  0  0  0  0  0  0  0  0  0
    3.7486    1.4842   -0.0670 C   0  0  0  0  0  0  0  0  0  0  0  0
    3.7848    2.8462   -0.0767 N   0  0  0  0  0  0  0  0  0  0  0  0
    4.8570    0.8189   -0.1154 N   0  0  0  0  0  0  0  0  0  0  0  0
   -1.3868    2.8337    0.0512 N   0  0  0  0  0  0  0  0  0  0  0  0
   -2.5537    3.5800   -0.0307 C   0  0  0  0  0  0  0  0  0  0  0  0
   -2.4180    5.0564   -0.0902 C   0  0  0  0  0  0  0  0  0  0  0  0
   -3.7076    3.1561   -0.0460 O   0  0  0  0  0  0  0  0  0  0  0  0
   -3.3171    5.7785    0.7213 C   0  0  0  0  0  0  0  0  0  0  0  0
   -3.3484    7.1689    0.6887 C   0  0  0  0  0  0  0  0  0  0  0  0
   -2.4785    7.8478   -0.1547 C   0  0  0  0  0  0  0  0  0  0  0  0
   -1.5982    7.1359   -0.9719 C   0  0  0  0  0  0  0  0  0  0  0  0
   -1.5568    5.7301   -0.9773 C   0  0  0  0  0  0  0  0  0  0  0  0
   -0.6562    5.0161   -1.9426 C   0  0  0  0  0  0  0  0  0  0  0  0
   -0.7925    7.8987   -1.7726 O   0  0  0  0  0  0  0  0  0  0  0  0
    1.2631   -2.4485    0.0065 H   0  0  0  0  0  0  0  0  0  0  0  0
    3.3824   -1.2164   -0.0574 H   0  0  0  0  0  0  0  0  0  0  0  0
    1.2388    2.4926    0.0676 H   0  0  0  0  0  0  0  0  0  0  0  0
   -3.4438    1.0742   -0.0142 H   0  0  0  0  0  0  0  0  0  0  0  0
   -3.3472   -1.3070   -0.0218 H   0  0  0  0  0  0  0  0  0  0  0  0
   -1.1902   -2.4932    0.0154 H   0  0  0  0  0  0  0  0  0  0  0  0
    4.6611    3.3480   -0.0878 H   0  0  0  0  0  0  0  0  0  0  0  0
    2.9594    3.4199   -0.0070 H   0  0  0  0  0  0  0  0  0  0  0  0
    5.6520    1.4578   -0.1544 H   0  0  0  0  0  0  0  0  0  0  0  0
   -0.5225    3.3512    0.0951 H   0  0  0  0  0  0  0  0  0  0  0  0
   -4.0175    5.2467    1.3659 H   0  0  0  0  0  0  0  0  0  0  0  0
   -4.0541    7.7161    1.3085 H   0  0  0  0  0  0  0  0  0  0  0  0
   -2.4944    8.9345   -0.1894 H   0  0  0  0  0  0  0  0  0  0  0  0
   -0.8632    5.3425   -2.9660 H   0  0  0  0  0  0  0  0  0  0  0  0
    0.3863    5.2272   -1.6843 H   0  0  0  0  0  0  0  0  0  0  0  0
   -0.7828    3.9348   -1.9588 H   0  0  0  0  0  0  0  0  0  0  0  0
   -0.2372    7.3306   -2.3274 H   0  0  0  0  0  0  0  0  0  0  0  0
  1  2  1  0  0  0  0
  1  6  1  0  0  0  0
  1 10  2  0  0  0  0
  2  3  2  0  0  0  0
  2 25  1  0  0  0  0
  3  4  1  0  0  0  0
  3 26  1  0  0  0  0
  4  5  2  0  0  0  0
  4 11  1  0  0  0  0
  5  6  1  0  0  0  0
  5 27  1  0  0  0  0
  6  7  2  0  0  0  0
  7  8  1  0  0  0  0
  7 14  1  0  0  0  0
  8  9  2  0  0  0  0
  8 28  1  0  0  0  0
  9 10  1  0  0  0  0
  9 29  1  0  0  0  0
 10 30  1  0  0  0  0
 11 12  1  0  0  0  0
 11 13  2  0  0  0  0
 12 31  1  0  0  0  0
 12 32  1  0  0  0  0
 13 33  1  0  0  0  0
 14 15  1  0  0  0  0
 14 34  1  0  0  0  0
 15 16  1  0  0  0  0
 15 17  2  0  0  0  0
 16 18  2  0  0  0  0
 16 22  1  0  0  0  0
 18 19  1  0  0  0  0
 18 35  1  0  0  0  0
 19 20  2  0  0  0  0
 19 36  1  0  0  0  0
 20 21  1  0  0  0  0
 20 37  1  0  0  0  0
 21 22  2  0  0  0  0
 21 24  1  0  0  0  0
 22 23  1  0  0  0  0
 23 38  1  0  0  0  0
 23 39  1  0  0  0  0
 23 40  1  0  0  0  0
 24 41  1  0  0  0  0
M  END
>  <DRUGBANK_ID>
DB07212

>  <COMMON_NAME>
N-(7-CARBAMIMIDOYL-NAPHTHALEN-1-YL)-3-HYDROXY-2-METHYL-BENZAMIDE

$$$$
