1586
 OpenBabel10282417123D

 68 71  0  0  1  0  0  0  0  0999 V2000
   -0.9322   -3.0197   -0.1696 O   0  0  0  0  0  0  0  0  0  0  0  0
    4.5128    0.1253    1.9491 O   0  0  0  0  0  0  0  0  0  0  0  0
   -5.8729    2.5236   -3.7381 O   0  0  0  0  0  0  0  0  0  0  0  0
   -5.4489    0.8356   -2.4324 O   0  0  0  0  0  0  0  0  0  0  0  0
   -1.9656   -0.3886    0.6620 C   0  0  2  0  0  0  0  0  0  0  0  0
   -2.6384    0.9285    0.2804 C   0  0  1  0  0  0  0  0  0  0  0  0
   -0.7625   -0.6066   -0.2679 C   0  0  1  0  0  0  0  0  0  0  0  0
    0.2239    0.5960   -0.1187 C   0  0  1  0  0  0  0  0  0  0  0  0
    1.4538    0.4467   -1.0722 C   0  0  2  0  0  0  0  0  0  0  0  0
   -3.9478    0.9278    1.1077 C   0  0  2  0  0  0  0  0  0  0  0  0
    2.1412   -0.9300   -0.8049 C   0  0  2  0  0  0  0  0  0  0  0  0
   -1.7141    2.0984    0.6127 C   0  0  0  0  0  0  0  0  0  0  0  0
   -0.4252    2.0006   -0.1911 C   0  0  0  0  0  0  0  0  0  0  0  0
   -0.0565   -1.9203    0.0413 C   0  0  2  0  0  0  0  0  0  0  0  0
   -3.1145   -1.3870    0.5855 C   0  0  0  0  0  0  0  0  0  0  0  0
   -4.3228   -0.6050    1.0888 C   0  0  0  0  0  0  0  0  0  0  0  0
    1.1526   -2.1033   -0.8654 C   0  0  0  0  0  0  0  0  0  0  0  0
    2.4843    1.5888   -0.8497 C   0  0  0  0  0  0  0  0  0  0  0  0
   -2.9360    0.8044   -1.2023 C   0  0  0  0  0  0  0  0  0  0  0  0
   -5.1556    1.9256    0.7668 C   0  0  1  0  0  0  0  0  0  0  0  0
    2.8968   -0.9638    0.5364 C   0  0  0  0  0  0  0  0  0  0  0  0
    1.0239    0.5194   -2.5623 C   0  0  0  0  0  0  0  0  0  0  0  0
    3.1774    1.5292    0.5075 C   0  0  0  0  0  0  0  0  0  0  0  0
    3.8819    0.1896    0.6760 C   0  0  1  0  0  0  0  0  0  0  0  0
   -5.0328    3.1968   -0.1728 C   0  0  0  0  0  0  0  0  0  0  0  0
   -6.3435    1.0954    0.3052 C   0  0  0  0  0  0  0  0  0  0  0  0
   -4.6396    3.1164   -1.6836 C   0  0  0  0  0  0  0  0  0  0  0  0
   -5.3636    2.0277   -2.5938 C   0  0  0  0  0  0  0  0  0  0  0  0
   -1.6252   -0.3571    1.7028 H   0  0  0  0  0  0  0  0  0  0  0  0
   -1.1130   -0.6784   -1.3064 H   0  0  0  0  0  0  0  0  0  0  0  0
    0.5798    0.5268    0.9167 H   0  0  0  0  0  0  0  0  0  0  0  0
   -3.6648    1.1552    2.1507 H   0  0  0  0  0  0  0  0  0  0  0  0
    2.8866   -1.0947   -1.5944 H   0  0  0  0  0  0  0  0  0  0  0  0
   -0.4757   -3.8196    0.1384 H   0  0  0  0  0  0  0  0  0  0  0  0
    3.8215    0.0984    2.6321 H   0  0  0  0  0  0  0  0  0  0  0  0
   -5.5694    3.4146   -3.9414 H   0  0  0  0  0  0  0  0  0  0  0  0
   -1.4615    2.0832    1.6821 H   0  0  0  0  0  0  0  0  0  0  0  0
   -2.1825    3.0710    0.4277 H   0  0  0  0  0  0  0  0  0  0  0  0
    0.2638    2.7532    0.2069 H   0  0  0  0  0  0  0  0  0  0  0  0
   -0.6205    2.3008   -1.2243 H   0  0  0  0  0  0  0  0  0  0  0  0
    0.2265   -1.9199    1.0977 H   0  0  0  0  0  0  0  0  0  0  0  0
   -3.3110   -1.7227   -0.4445 H   0  0  0  0  0  0  0  0  0  0  0  0
   -2.9640   -2.2954    1.1658 H   0  0  0  0  0  0  0  0  0  0  0  0
   -5.1076   -0.8929    0.3898 H   0  0  0  0  0  0  0  0  0  0  0  0
   -4.6601   -0.9351    2.0741 H   0  0  0  0  0  0  0  0  0  0  0  0
    0.8086   -2.2490   -1.8979 H   0  0  0  0  0  0  0  0  0  0  0  0
    1.6529   -3.0410   -0.5998 H   0  0  0  0  0  0  0  0  0  0  0  0
    2.0200    2.5723   -0.9800 H   0  0  0  0  0  0  0  0  0  0  0  0
    3.2547    1.5300   -1.6289 H   0  0  0  0  0  0  0  0  0  0  0  0
   -3.2457   -0.1605   -1.6029 H   0  0  0  0  0  0  0  0  0  0  0  0
   -3.8474    1.3002   -1.2231 H   0  0  0  0  0  0  0  0  0  0  0  0
   -2.2442    1.2581   -1.9105 H   0  0  0  0  0  0  0  0  0  0  0  0
   -5.4633    2.3455    1.7432 H   0  0  0  0  0  0  0  0  0  0  0  0
    3.4362   -1.9136    0.6335 H   0  0  0  0  0  0  0  0  0  0  0  0
    2.2034   -0.9417    1.3856 H   0  0  0  0  0  0  0  0  0  0  0  0
    0.3121   -0.2612   -2.8426 H   0  0  0  0  0  0  0  0  0  0  0  0
    0.5656    1.4814   -2.8110 H   0  0  0  0  0  0  0  0  0  0  0  0
    1.8928    0.4021   -3.2199 H   0  0  0  0  0  0  0  0  0  0  0  0
    2.4649    1.6938    1.3256 H   0  0  0  0  0  0  0  0  0  0  0  0
    3.9054    2.3443    0.5892 H   0  0  0  0  0  0  0  0  0  0  0  0
    4.6683    0.0952   -0.0810 H   0  0  0  0  0  0  0  0  0  0  0  0
   -6.0179    3.6870   -0.1702 H   0  0  0  0  0  0  0  0  0  0  0  0
   -4.3721    3.9251    0.3248 H   0  0  0  0  0  0  0  0  0  0  0  0
   -6.6835    0.4061    1.0825 H   0  0  0  0  0  0  0  0  0  0  0  0
   -7.1894    1.6638   -0.0740 H   0  0  0  0  0  0  0  0  0  0  0  0
   -5.9966    0.4778   -0.5072 H   0  0  0  0  0  0  0  0  0  0  0  0
   -4.7532    4.0931   -2.1622 H   0  0  0  0  0  0  0  0  0  0  0  0
   -3.5426    3.0375   -1.7319 H   0  0  0  0  0  0  0  0  0  0  0  0
  1 34  1  0  0  0  0
  2 35  1  0  0  0  0
  3 28  1  0  0  0  0
  3 36  1  0  0  0  0
  4 28  2  0  0  0  0
  5  6  1  0  0  0  0
  5  7  1  0  0  0  0
  5 15  1  0  0  0  0
  5 29  1  1  0  0  0
  6 10  1  0  0  0  0
  6 12  1  0  0  0  0
  6 19  1  6  0  0  0
  7  8  1  0  0  0  0
  7 14  1  0  0  0  0
  7 30  1  6  0  0  0
  8  9  1  0  0  0  0
  8 13  1  0  0  0  0
  8 31  1  1  0  0  0
  9 11  1  0  0  0  0
  9 18  1  0  0  0  0
  9 22  1  6  0  0  0
 10 16  1  0  0  0  0
 10 32  1  1  0  0  0
 10 20  1  0  0  0  0
 11 17  1  0  0  0  0
 11 21  1  0  0  0  0
 11 33  1  6  0  0  0
 12 13  1  0  0  0  0
 12 37  1  0  0  0  0
 12 38  1  0  0  0  0
 13 39  1  0  0  0  0
 13 40  1  0  0  0  0
 14  1  1  0  0  0  0
 14 17  1  0  0  0  0
 14 41  1  1  0  0  0
 15 16  1  0  0  0  0
 15 42  1  0  0  0  0
 15 43  1  0  0  0  0
 16 44  1  0  0  0  0
 16 45  1  0  0  0  0
 17 46  1  0  0  0  0
 17 47  1  0  0  0  0
 18 23  1  0  0  0  0
 18 48  1  0  0  0  0
 18 49  1  0  0  0  0
 19 50  1  0  0  0  0
 19 51  1  0  0  0  0
 19 52  1  0  0  0  0
 20 25  1  0  0  0  0
 20 26  1  0  0  0  0
 20 53  1  1  0  0  0
 21 24  1  0  0  0  0
 21 54  1  0  0  0  0
 21 55  1  0  0  0  0
 22 56  1  0  0  0  0
 22 57  1  0  0  0  0
 22 58  1  0  0  0  0
 23 24  1  0  0  0  0
 23 59  1  0  0  0  0
 23 60  1  0  0  0  0
 24  2  1  0  0  0  0
 24 61  1  6  0  0  0
 25 27  1  0  0  0  0
 25 62  1  0  0  0  0
 25 63  1  0  0  0  0
 26 64  1  0  0  0  0
 26 65  1  0  0  0  0
 26 66  1  0  0  0  0
 27 28  1  0  0  0  0
 27 67  1  0  0  0  0
 27 68  1  0  0  0  0
M  END
>  <DRUGBANK_ID>
DB01586

>  <COMMON_NAME>
Ursodeoxycholic acid

>  <CAS_NUMBER>
128-13-2

>  <UNII>
724L30Y2QR

>  <SYNONYMS>
(3alpha,5beta,7beta)-3,7-dihydroxycholan-24-oic acid; (3α,5β,7β)-3,7-dihydroxycholan-24-oic acid; 3alpha,7beta-Dihydroxy-5beta-cholan-24-oic acid; Acide ursodesoxycholique; Acido ursodeossicolico; Acido ursodeoxicolico; Acidum ursodeoxycholicum; UDCA; Ursodeoxycholate; Ursodeoxycholic acid; Ursodiol

$$$$
