996
 OpenBabel10282417113D

 29 29  0  0  0  0  0  0  0  0999 V2000
    0.8675   -0.4573    0.6211 O   0  0  0  0  0  0  0  0  0  0  0  0
    0.9255    1.4174    1.8469 O   0  0  0  0  0  0  0  0  0  0  0  0
    0.5807    1.2151   -1.4016 N   0  0  0  0  0  0  0  0  0  0  0  0
   -1.7024    1.2179   -0.3298 C   0  0  0  0  0  0  0  0  0  0  0  0
   -1.7223    2.7686   -0.2350 C   0  0  0  0  0  0  0  0  0  0  0  0
   -3.1696    0.7655   -0.6270 C   0  0  0  0  0  0  0  0  0  0  0  0
   -2.2442    3.4188   -1.5184 C   0  0  0  0  0  0  0  0  0  0  0  0
   -3.7478    1.4112   -1.8968 C   0  0  0  0  0  0  0  0  0  0  0  0
   -3.6532    2.9343   -1.8507 C   0  0  0  0  0  0  0  0  0  0  0  0
   -1.2314    0.6096    1.0333 C   0  0  0  0  0  0  0  0  0  0  0  0
   -0.7928    0.7226   -1.4948 C   0  0  0  0  0  0  0  0  0  0  0  0
    0.2667    0.5750    1.2507 C   0  0  0  0  0  0  0  0  0  0  0  0
    1.7116   -0.0523    0.3185 H   0  0  0  0  0  0  0  0  0  0  0  0
    1.1368    0.8673   -2.1769 H   0  0  0  0  0  0  0  0  0  0  0  0
    0.6066    2.2335   -1.4147 H   0  0  0  0  0  0  0  0  0  0  0  0
   -2.3681    3.0814    0.5979 H   0  0  0  0  0  0  0  0  0  0  0  0
   -0.7274    3.1618   -0.0016 H   0  0  0  0  0  0  0  0  0  0  0  0
   -3.2199   -0.3256   -0.7294 H   0  0  0  0  0  0  0  0  0  0  0  0
   -3.8217    1.0267    0.2187 H   0  0  0  0  0  0  0  0  0  0  0  0
   -2.2440    4.5085   -1.4073 H   0  0  0  0  0  0  0  0  0  0  0  0
   -1.5719    3.1991   -2.3555 H   0  0  0  0  0  0  0  0  0  0  0  0
   -4.7931    1.1095   -2.0307 H   0  0  0  0  0  0  0  0  0  0  0  0
   -3.2240    1.0404   -2.7850 H   0  0  0  0  0  0  0  0  0  0  0  0
   -4.3504    3.3117   -1.0931 H   0  0  0  0  0  0  0  0  0  0  0  0
   -3.9686    3.3544   -2.8127 H   0  0  0  0  0  0  0  0  0  0  0  0
   -1.6005   -0.4157    1.1555 H   0  0  0  0  0  0  0  0  0  0  0  0
   -1.6546    1.1803    1.8694 H   0  0  0  0  0  0  0  0  0  0  0  0
   -0.7937   -0.3745   -1.4945 H   0  0  0  0  0  0  0  0  0  0  0  0
   -1.1785    1.0171   -2.4734 H   0  0  0  0  0  0  0  0  0  0  0  0
  1 12  1  0  0  0  0
  1 13  1  0  0  0  0
  2 12  2  0  0  0  0
  3 11  1  0  0  0  0
  3 14  1  0  0  0  0
  3 15  1  0  0  0  0
  4  5  1  0  0  0  0
  4  6  1  0  0  0  0
  4 10  1  0  0  0  0
  4 11  1  0  0  0  0
  5  7  1  0  0  0  0
  5 16  1  0  0  0  0
  5 17  1  0  0  0  0
  6  8  1  0  0  0  0
  6 18  1  0  0  0  0
  6 19  1  0  0  0  0
  7  9  1  0  0  0  0
  7 20  1  0  0  0  0
  7 21  1  0  0  0  0
  8  9  1  0  0  0  0
  8 22  1  0  0  0  0
  8 23  1  0  0  0  0
  9 24  1  0  0  0  0
  9 25  1  0  0  0  0
 10 12  1  0  0  0  0
 10 26  1  0  0  0  0
 10 27  1  0  0  0  0
 11 28  1  0  0  0  0
 11 29  1  0  0  0  0
M  END
>  <DRUGBANK_ID>
DB00996

>  <SECONDARY_ACCESSION_NUMBERS>
APRD00015

>  <COMMON_NAME>
Gabapentin

>  <CAS_NUMBER>
60142-96-3

>  <UNII>
6CW7F3G59X

>  <SYNONYMS>
1-(Aminomethyl)cyclohexaneacetic acid; Gabapentin; Gabapentina; Gabapentine; Gabapentino; Gabapentinum

$$$$
