
 OpenBabel10282417143D

 48 51  0  0  1  0  0  0  0  0999 V2000
    1.2031    0.1865   -0.1635 O   0  0  0  0  0  0  0  0  0  0  0  0
    3.2335   -0.7202   -0.6067 O   0  0  0  0  0  0  0  0  0  0  0  0
   -4.4228    2.6840    3.7173 N   0  0  0  0  0  0  0  0  0  0  0  0
   -2.2779    3.4136    2.6376 N   0  0  0  0  0  0  0  0  0  0  0  0
    3.2541    0.9655    0.8901 N   0  0  0  0  0  0  0  0  0  0  0  0
   -2.7445    0.8528    2.7288 C   0  0  1  0  0  0  0  0  0  0  0  0
   -3.0150    2.3947    3.3942 C   0  0  2  0  0  0  0  0  0  0  0  0
   -4.2795    0.5110    2.9786 C   0  0  0  0  0  0  0  0  0  0  0  0
   -1.6224    1.4050    1.8187 C   0  0  0  0  0  0  0  0  0  0  0  0
   -5.1225    1.4457    3.7489 C   0  0  0  0  0  0  0  0  0  0  0  0
   -1.4960    2.7777    1.7150 C   0  0  0  0  0  0  0  0  0  0  0  0
   -2.9368   -0.3402    1.6419 C   0  0  0  0  0  0  0  0  0  0  0  0
   -4.6764    3.3319    5.0021 C   0  0  0  0  0  0  0  0  0  0  0  0
   -0.6064    0.6108    1.2487 C   0  0  0  0  0  0  0  0  0  0  0  0
   -2.4055    4.8407    2.8163 C   0  0  0  0  0  0  0  0  0  0  0  0
   -0.5131    3.3214    0.8716 C   0  0  0  0  0  0  0  0  0  0  0  0
    0.2955    1.1248    0.3475 C   0  0  0  0  0  0  0  0  0  0  0  0
    0.3487    2.4867    0.1282 C   0  0  0  0  0  0  0  0  0  0  0  0
    2.5907    0.0881    0.0449 C   0  0  0  0  0  0  0  0  0  0  0  0
    2.7797    1.9057    1.8199 C   0  0  0  0  0  0  0  0  0  0  0  0
    1.7945    1.6032    2.7611 C   0  0  0  0  0  0  0  0  0  0  0  0
    3.2325    3.2257    1.7172 C   0  0  0  0  0  0  0  0  0  0  0  0
    1.1190    2.6358    3.4253 C   0  0  0  0  0  0  0  0  0  0  0  0
    2.5893    4.2516    2.4228 C   0  0  0  0  0  0  0  0  0  0  0  0
    1.4865    3.9628    3.2201 C   0  0  0  0  0  0  0  0  0  0  0  0
   -2.4957    2.3068    4.3683 H   0  0  0  0  0  0  0  0  0  0  0  0
    4.2171    1.0485    0.5951 H   0  0  0  0  0  0  0  0  0  0  0  0
   -4.2803   -0.4261    3.5564 H   0  0  0  0  0  0  0  0  0  0  0  0
   -4.9037    0.3947    2.0847 H   0  0  0  0  0  0  0  0  0  0  0  0
   -5.2977    1.0120    4.7387 H   0  0  0  0  0  0  0  0  0  0  0  0
   -6.0991    1.5462    3.2578 H   0  0  0  0  0  0  0  0  0  0  0  0
   -2.8728   -1.2742    2.2228 H   0  0  0  0  0  0  0  0  0  0  0  0
   -3.8053   -0.2918    0.9790 H   0  0  0  0  0  0  0  0  0  0  0  0
   -2.2552   -0.5621    0.8204 H   0  0  0  0  0  0  0  0  0  0  0  0
   -4.4077    2.6876    5.8496 H   0  0  0  0  0  0  0  0  0  0  0  0
   -4.1601    4.2812    5.1279 H   0  0  0  0  0  0  0  0  0  0  0  0
   -5.7521    3.5437    5.0834 H   0  0  0  0  0  0  0  0  0  0  0  0
   -0.5036   -0.4463    1.4973 H   0  0  0  0  0  0  0  0  0  0  0  0
   -1.4776    5.3111    3.1656 H   0  0  0  0  0  0  0  0  0  0  0  0
   -2.6946    5.3115    1.8729 H   0  0  0  0  0  0  0  0  0  0  0  0
   -3.1699    5.1143    3.5460 H   0  0  0  0  0  0  0  0  0  0  0  0
   -0.2687    4.3797    0.9208 H   0  0  0  0  0  0  0  0  0  0  0  0
    1.1937    2.8982   -0.4138 H   0  0  0  0  0  0  0  0  0  0  0  0
    1.4146    0.5896    2.8562 H   0  0  0  0  0  0  0  0  0  0  0  0
    3.9795    3.4967    0.9772 H   0  0  0  0  0  0  0  0  0  0  0  0
    0.1850    2.4189    3.9430 H   0  0  0  0  0  0  0  0  0  0  0  0
    2.8820    5.2870    2.2752 H   0  0  0  0  0  0  0  0  0  0  0  0
    0.8446    4.7632    3.5834 H   0  0  0  0  0  0  0  0  0  0  0  0
  1 17  1  0  0  0  0
  1 19  1  0  0  0  0
  2 19  2  0  0  0  0
  3  7  1  0  0  0  0
  3 10  1  0  0  0  0
  3 13  1  0  0  0  0
  4  7  1  0  0  0  0
  4 11  1  0  0  0  0
  4 15  1  0  0  0  0
  5 19  1  0  0  0  0
  5 20  1  0  0  0  0
  5 27  1  0  0  0  0
  6  7  1  0  0  0  0
  6  8  1  0  0  0  0
  6  9  1  0  0  0  0
  6 12  1  1  0  0  0
  7 26  1  1  0  0  0
  8 10  1  0  0  0  0
  8 28  1  0  0  0  0
  8 29  1  0  0  0  0
  9 11  2  0  0  0  0
  9 14  1  0  0  0  0
 10 30  1  0  0  0  0
 10 31  1  0  0  0  0
 11 16  1  0  0  0  0
 12 32  1  0  0  0  0
 12 33  1  0  0  0  0
 12 34  1  0  0  0  0
 13 35  1  0  0  0  0
 13 36  1  0  0  0  0
 13 37  1  0  0  0  0
 14 17  2  0  0  0  0
 14 38  1  0  0  0  0
 15 39  1  0  0  0  0
 15 40  1  0  0  0  0
 15 41  1  0  0  0  0
 16 18  2  0  0  0  0
 16 42  1  0  0  0  0
 17 18  1  0  0  0  0
 18 43  1  0  0  0  0
 20 21  2  0  0  0  0
 20 22  1  0  0  0  0
 21 23  1  0  0  0  0
 21 44  1  0  0  0  0
 22 24  2  0  0  0  0
 22 45  1  0  0  0  0
 23 25  2  0  0  0  0
 23 46  1  0  0  0  0
 24 25  1  0  0  0  0
 24 47  1  0  0  0  0
 25 48  1  0  0  0  0
M  END
>  <DRUGBANK_ID>
DB04892

>  <COMMON_NAME>
Phenserine

>  <CAS_NUMBER>
101246-66-6

>  <UNII>
SUE285UG3S

>  <SYNONYMS>
(-)-eseroline phenylcarbamate; (-)-phenserine

$$$$
