
 OpenBabel10282417223D

 56 58  0  0  0  0  0  0  0  0999 V2000
    0.8628   -0.3946   -0.1733 C   0  0  0  0  0  0  0  0  0  0  0  0
    0.6390    0.8361    0.6420 C   0  0  0  0  0  0  0  0  0  0  0  0
    1.0470    2.0884    0.0336 O   0  0  0  0  0  0  0  0  0  0  0  0
    2.3354    2.4530    0.3791 C   0  0  0  0  0  0  0  0  0  0  0  0
    3.2966    1.6334   -0.2318 C   0  0  0  0  0  0  0  0  0  0  0  0
    4.6378    1.9366   -0.2224 C   0  0  0  0  0  0  0  0  0  0  0  0
    5.0296    3.1444    0.3160 C   0  0  0  0  0  0  0  0  0  0  0  0
    4.0848    3.9804    0.9447 C   0  0  0  0  0  0  0  0  0  0  0  0
    2.7164    3.6214    1.0863 C   0  0  0  0  0  0  0  0  0  0  0  0
    1.9219    4.5477    2.0510 C   0  0  0  0  0  0  0  0  0  0  0  0
    2.4648    5.5516    2.4889 O   0  0  0  0  0  0  0  0  0  0  0  0
    0.6418    4.2935    2.5601 N   0  0  0  0  0  0  0  0  0  0  0  0
   -0.1556    3.1521    2.2803 C   0  0  0  0  0  0  0  0  0  0  0  0
   -0.5431    2.2176    3.3557 C   0  0  0  0  0  0  0  0  0  0  0  0
   -0.9886    2.4059    4.6286 C   0  0  0  0  0  0  0  0  0  0  0  0
   -1.0286    1.1887    5.2599 O   0  0  0  0  0  0  0  0  0  0  0  0
   -0.6166    0.2897    4.3056 C   0  0  0  0  0  0  0  0  0  0  0  0
   -0.3722    0.8542    3.1537 N   0  0  0  0  0  0  0  0  0  0  0  0
   -0.3465   -1.0853    4.7054 C   0  0  0  0  0  0  0  0  0  0  0  0
    0.9506   -1.6128    4.5581 C   0  0  0  0  0  0  0  0  0  0  0  0
    1.2709   -2.8924    5.0103 C   0  0  0  0  0  0  0  0  0  0  0  0
    0.2987   -3.6672    5.6103 C   0  0  0  0  0  0  0  0  0  0  0  0
    0.5550   -4.9092    6.0740 O   0  0  0  0  0  0  0  0  0  0  0  0
    1.7461   -5.6375    5.9324 C   0  0  0  0  0  0  0  0  0  0  0  0
    2.0899   -5.7062    4.6307 F   0  0  0  0  0  0  0  0  0  0  0  0
    2.7317   -5.0300    6.6250 F   0  0  0  0  0  0  0  0  0  0  0  0
   -1.0076   -3.1524    5.7834 C   0  0  0  0  0  0  0  0  0  0  0  0
   -2.0315   -3.7363    6.4934 O   0  0  0  0  0  0  0  0  0  0  0  0
   -1.7786   -4.9068    7.2879 C   0  0  0  0  0  0  0  0  0  0  0  0
   -1.7032   -6.1535    6.3811 C   0  0  0  0  0  0  0  0  0  0  0  0
   -0.7111   -4.6983    8.3958 C   0  0  0  0  0  0  0  0  0  0  0  0
   -1.3402   -1.8945    5.2564 C   0  0  0  0  0  0  0  0  0  0  0  0
    0.6264   -0.1862   -1.2139 H   0  0  0  0  0  0  0  0  0  0  0  0
    0.2673   -1.2202    0.2230 H   0  0  0  0  0  0  0  0  0  0  0  0
    1.9030   -0.7035   -0.0678 H   0  0  0  0  0  0  0  0  0  0  0  0
   -0.4444    0.9256    0.7990 H   0  0  0  0  0  0  0  0  0  0  0  0
    1.1636    0.6819    1.5936 H   0  0  0  0  0  0  0  0  0  0  0  0
    2.9938    0.7605   -0.7907 H   0  0  0  0  0  0  0  0  0  0  0  0
    5.3280    1.2591   -0.7140 H   0  0  0  0  0  0  0  0  0  0  0  0
    6.0720    3.4381    0.2330 H   0  0  0  0  0  0  0  0  0  0  0  0
    4.4450    4.9412    1.3141 H   0  0  0  0  0  0  0  0  0  0  0  0
    0.2760    5.0073    3.1754 H   0  0  0  0  0  0  0  0  0  0  0  0
   -0.8898    3.3286    1.4891 H   0  0  0  0  0  0  0  0  0  0  0  0
    0.6354    2.5632    1.9223 H   0  0  0  0  0  0  0  0  0  0  0  0
   -1.2349    3.2857    5.1946 H   0  0  0  0  0  0  0  0  0  0  0  0
    1.7427   -1.0236    4.1032 H   0  0  0  0  0  0  0  0  0  0  0  0
    2.2887   -3.2586    4.9301 H   0  0  0  0  0  0  0  0  0  0  0  0
    1.5813   -6.6461    6.3297 H   0  0  0  0  0  0  0  0  0  0  0  0
   -2.6996   -5.0645    7.8645 H   0  0  0  0  0  0  0  0  0  0  0  0
   -1.0519   -6.0755    5.5070 H   0  0  0  0  0  0  0  0  0  0  0  0
   -1.4079   -7.0436    6.9386 H   0  0  0  0  0  0  0  0  0  0  0  0
   -2.6719   -6.3105    5.8971 H   0  0  0  0  0  0  0  0  0  0  0  0
   -1.0571   -3.9468    9.1140 H   0  0  0  0  0  0  0  0  0  0  0  0
   -0.4917   -5.6312    8.9206 H   0  0  0  0  0  0  0  0  0  0  0  0
    0.2493   -4.2801    8.0855 H   0  0  0  0  0  0  0  0  0  0  0  0
   -2.3696   -1.5402    5.2941 H   0  0  0  0  0  0  0  0  0  0  0  0
  1  2  1  0  0  0  0
  1 33  1  0  0  0  0
  1 34  1  0  0  0  0
  1 35  1  0  0  0  0
  2  3  1  0  0  0  0
  2 36  1  0  0  0  0
  2 37  1  0  0  0  0
  3  4  1  0  0  0  0
  4  5  2  0  0  0  0
  4  9  1  0  0  0  0
  5  6  1  0  0  0  0
  5 38  1  0  0  0  0
  6  7  2  0  0  0  0
  6 39  1  0  0  0  0
  7  8  1  0  0  0  0
  7 40  1  0  0  0  0
  8  9  2  0  0  0  0
  8 41  1  0  0  0  0
  9 10  1  0  0  0  0
 10 11  2  0  0  0  0
 10 12  1  0  0  0  0
 12 13  1  0  0  0  0
 12 42  1  0  0  0  0
 13 14  1  0  0  0  0
 13 43  1  0  0  0  0
 13 44  1  0  0  0  0
 14 15  2  0  0  0  0
 14 18  1  0  0  0  0
 15 16  1  0  0  0  0
 15 45  1  0  0  0  0
 16 17  1  0  0  0  0
 17 18  2  0  0  0  0
 17 19  1  0  0  0  0
 19 20  2  0  0  0  0
 19 32  1  0  0  0  0
 20 21  1  0  0  0  0
 20 46  1  0  0  0  0
 21 22  2  0  0  0  0
 21 47  1  0  0  0  0
 22 23  1  0  0  0  0
 22 27  1  0  0  0  0
 23 24  1  0  0  0  0
 24 25  1  0  0  0  0
 24 26  1  0  0  0  0
 24 48  1  0  0  0  0
 27 28  1  0  0  0  0
 27 32  2  0  0  0  0
 28 29  1  0  0  0  0
 29 30  1  0  0  0  0
 29 31  1  0  0  0  0
 29 49  1  0  0  0  0
 30 50  1  0  0  0  0
 30 51  1  0  0  0  0
 30 52  1  0  0  0  0
 31 53  1  0  0  0  0
 31 54  1  0  0  0  0
 31 55  1  0  0  0  0
 32 56  1  0  0  0  0
M  END
>  <DRUGBANK_ID>
DB14987

>  <COMMON_NAME>
Difamilast

>  <CAS_NUMBER>
937782-05-3

>  <UNII>
T3U32GLJ0F

>  <SYNONYMS>
Difamilast

$$$$
