
 OpenBabel10282417123D

 31 32  0  0  0  0  0  0  0  0999 V2000
    0.6964   -1.2849    0.3200 O   0  0  0  0  0  0  0  0  0  0  0  0
   -0.5721    2.2177    0.6910 O   0  0  0  0  0  0  0  0  0  0  0  0
    2.2211    2.6571    0.3335 O   0  0  0  0  0  0  0  0  0  0  0  0
    3.7387    0.5637   -0.8174 O   0  0  0  0  0  0  0  0  0  0  0  0
   -0.3008    0.0759   -2.2500 O   0  0  0  0  0  0  0  0  0  0  0  0
    4.2062   -1.9232   -0.7894 O   0  0  0  0  0  0  0  0  0  0  0  0
   -3.6226    0.2445    0.9075 O   0  0  0  0  0  0  0  0  0  0  0  0
   -1.4352   -0.5330    0.9688 N   0  0  0  0  0  0  0  0  0  0  0  0
   -2.2335    0.2037   -0.9786 N   0  0  0  0  0  0  0  0  0  0  0  0
   -3.1411    0.3910   -2.0293 N   0  0  0  0  0  0  0  0  0  0  0  0
   -0.2425   -0.2210    0.2123 C   0  0  1  0  0  0  0  0  0  0  0  0
    0.3593    1.1274    0.7029 C   0  0  1  0  0  0  0  0  0  0  0  0
    1.6117    1.4434   -0.1123 C   0  0  2  0  0  0  0  0  0  0  0  0
    2.5913    0.2750   -0.0101 C   0  0  1  0  0  0  0  0  0  0  0  0
    1.9147   -1.0515   -0.4257 C   0  0  1  0  0  0  0  0  0  0  0  0
   -0.8937   -0.0063   -1.1799 C   0  0  0  0  0  0  0  0  0  0  0  0
    2.9107   -2.2287   -0.2818 C   0  0  0  0  0  0  0  0  0  0  0  0
   -2.5610    0.0006    0.3434 C   0  0  0  0  0  0  0  0  0  0  0  0
   -1.4550   -0.7341    1.9587 H   0  0  0  0  0  0  0  0  0  0  0  0
   -3.5787    1.3059   -1.9237 H   0  0  0  0  0  0  0  0  0  0  0  0
   -2.6032    0.4130   -2.9007 H   0  0  0  0  0  0  0  0  0  0  0  0
   -0.6934    2.5489   -0.2162 H   0  0  0  0  0  0  0  0  0  0  0  0
    2.6091    2.5064    1.2137 H   0  0  0  0  0  0  0  0  0  0  0  0
    3.4525    0.8496   -1.7030 H   0  0  0  0  0  0  0  0  0  0  0  0
    4.1269   -1.1368   -1.3658 H   0  0  0  0  0  0  0  0  0  0  0  0
    0.6597    1.0204    1.7539 H   0  0  0  0  0  0  0  0  0  0  0  0
    1.3628    1.6282   -1.1623 H   0  0  0  0  0  0  0  0  0  0  0  0
    2.9372    0.1844    1.0283 H   0  0  0  0  0  0  0  0  0  0  0  0
    1.6788   -1.0104   -1.4949 H   0  0  0  0  0  0  0  0  0  0  0  0
    3.0106   -2.5428    0.7620 H   0  0  0  0  0  0  0  0  0  0  0  0
    2.5742   -3.0985   -0.8525 H   0  0  0  0  0  0  0  0  0  0  0  0
  1 15  1  0  0  0  0
  2 22  1  0  0  0  0
  3 23  1  0  0  0  0
  4 24  1  0  0  0  0
  5 16  2  0  0  0  0
  6 17  1  0  0  0  0
  6 25  1  0  0  0  0
  7 18  2  0  0  0  0
  8 11  1  0  0  0  0
  8 18  1  0  0  0  0
  8 19  1  0  0  0  0
  9 10  1  0  0  0  0
  9 16  1  0  0  0  0
  9 18  1  0  0  0  0
 10 20  1  0  0  0  0
 10 21  1  0  0  0  0
 11  1  1  1  0  0  0
 11 12  1  0  0  0  0
 11 16  1  0  0  0  0
 12 13  1  0  0  0  0
 12 26  1  1  0  0  0
 12  2  1  0  0  0  0
 13  3  1  0  0  0  0
 13 14  1  0  0  0  0
 13 27  1  6  0  0  0
 14  4  1  0  0  0  0
 14 15  1  0  0  0  0
 14 28  1  1  0  0  0
 15 29  1  6  0  0  0
 15 17  1  0  0  0  0
 17 30  1  0  0  0  0
 17 31  1  0  0  0  0
M  END
>  <DRUGBANK_ID>
DB01843

>  <SECONDARY_ACCESSION_NUMBERS>
EXPT01596

>  <COMMON_NAME>
(5S,7R,8S,9S,10R)-3-Amino-8,9,10-trihydroxy-7-(hydroxymethyl)-6-oxa-1,3-diazaspiro[4.5]decane-2,4-dione

$$$$
