
 OpenBabel10282417233D

 60 63  0  0  0  0  0  0  0  0999 V2000
    0.9579    0.0289   -0.1190 C   0  0  0  0  0  0  0  0  0  0  0  0
    0.4072    0.1652   -1.4292 O   0  0  0  0  0  0  0  0  0  0  0  0
   -0.9676    0.1234   -1.3943 C   0  0  0  0  0  0  0  0  0  0  0  0
   -1.6068    1.2644   -1.7135 N   0  0  0  0  0  0  0  0  0  0  0  0
   -2.9572    1.1694   -1.7009 C   0  0  0  0  0  0  0  0  0  0  0  0
   -3.7062    0.0492   -1.4337 C   0  0  0  0  0  0  0  0  0  0  0  0
   -3.0258   -1.1043   -1.0926 C   0  0  0  0  0  0  0  0  0  0  0  0
   -1.6263   -1.0670   -1.0785 C   0  0  0  0  0  0  0  0  0  0  0  0
   -5.1678    0.3650   -1.4926 C   0  0  2  0  0  0  0  0  0  0  0  0
   -5.8982    0.4893   -0.0959 C   0  0  0  0  0  0  0  0  0  0  0  0
   -7.4074    0.6796   -0.3597 C   0  0  0  0  0  0  0  0  0  0  0  0
   -7.9783   -0.3544   -1.3198 C   0  0  1  0  0  0  0  0  0  0  0  0
   -7.3910    0.0069   -2.7266 C   0  0  0  0  0  0  0  0  0  0  0  0
   -5.9001   -0.3804   -2.7070 C   0  0  0  0  0  0  0  0  0  0  0  0
   -7.5282   -1.7621   -0.8044 C   0  0  0  0  0  0  0  0  0  0  0  0
   -6.3295   -2.0716   -0.8299 O   0  0  0  0  0  0  0  0  0  0  0  0
   -8.3865   -2.6823   -0.2533 N   0  0  0  0  0  0  0  0  0  0  0  0
   -9.6206   -2.3863    0.4361 C   0  0  0  0  0  0  0  0  0  0  0  0
   -7.8374   -4.0439   -0.1032 C   0  0  0  0  0  0  0  0  0  0  0  0
   -7.7612   -4.8056   -1.4453 C   0  0  0  0  0  0  0  0  0  0  0  0
   -6.9515   -4.1187   -2.4677 N   0  0  0  0  0  0  0  0  0  0  0  0
   -7.7556   -3.4983   -3.5242 C   0  0  0  0  0  0  0  0  0  0  0  0
   -8.3773   -4.5346   -4.4451 C   0  0  0  0  0  0  0  0  0  0  0  0
   -7.2813   -5.4311   -5.0128 C   0  0  0  0  0  0  0  0  0  0  0  0
   -6.4391   -6.0359   -3.8895 C   0  0  0  0  0  0  0  0  0  0  0  0
   -5.8668   -4.9311   -3.0102 C   0  0  0  0  0  0  0  0  0  0  0  0
   -5.1179    1.7752   -1.9140 O   0  0  0  0  0  0  0  0  0  0  0  0
   -3.8678    2.3010   -1.7839 C   0  0  0  0  0  0  0  0  0  0  0  0
   -3.6122    3.5002   -1.6800 O   0  0  0  0  0  0  0  0  0  0  0  0
    0.6810   -0.9238    0.3456 H   0  0  0  0  0  0  0  0  0  0  0  0
    0.6545    0.8654    0.5186 H   0  0  0  0  0  0  0  0  0  0  0  0
    2.0510    0.0401   -0.1963 H   0  0  0  0  0  0  0  0  0  0  0  0
   -3.5588   -2.0054   -0.8038 H   0  0  0  0  0  0  0  0  0  0  0  0
   -1.0571   -1.9511   -0.8145 H   0  0  0  0  0  0  0  0  0  0  0  0
   -6.0514    0.2969    0.9855 H   0  0  0  0  0  0  0  0  0  0  0  0
   -5.2939   -0.3731    0.2430 H   0  0  0  0  0  0  0  0  0  0  0  0
   -8.0381    0.7252    0.5422 H   0  0  0  0  0  0  0  0  0  0  0  0
   -7.5025    1.7015   -0.7513 H   0  0  0  0  0  0  0  0  0  0  0  0
   -9.0713   -0.2969   -1.3611 H   0  0  0  0  0  0  0  0  0  0  0  0
   -8.0305   -0.4832   -3.4746 H   0  0  0  0  0  0  0  0  0  0  0  0
   -7.4576    1.0724   -2.9995 H   0  0  0  0  0  0  0  0  0  0  0  0
   -5.9439   -1.4718   -2.7526 H   0  0  0  0  0  0  0  0  0  0  0  0
   -5.2709   -0.2623   -3.6001 H   0  0  0  0  0  0  0  0  0  0  0  0
  -10.3888   -3.0833    0.0917 H   0  0  0  0  0  0  0  0  0  0  0  0
   -9.4552   -2.5380    1.5093 H   0  0  0  0  0  0  0  0  0  0  0  0
   -9.9447   -1.3594    0.2794 H   0  0  0  0  0  0  0  0  0  0  0  0
   -6.8341   -3.9945    0.3428 H   0  0  0  0  0  0  0  0  0  0  0  0
   -8.4609   -4.6190    0.5892 H   0  0  0  0  0  0  0  0  0  0  0  0
   -7.3600   -5.8037   -1.2317 H   0  0  0  0  0  0  0  0  0  0  0  0
   -8.7877   -4.9611   -1.7927 H   0  0  0  0  0  0  0  0  0  0  0  0
   -8.5358   -2.8591   -3.0977 H   0  0  0  0  0  0  0  0  0  0  0  0
   -7.1215   -2.8310   -4.1237 H   0  0  0  0  0  0  0  0  0  0  0  0
   -9.1062   -5.1384   -3.8934 H   0  0  0  0  0  0  0  0  0  0  0  0
   -8.9283   -4.0325   -5.2464 H   0  0  0  0  0  0  0  0  0  0  0  0
   -7.7271   -6.2253   -5.6143 H   0  0  0  0  0  0  0  0  0  0  0  0
   -6.6328   -4.8317   -5.6640 H   0  0  0  0  0  0  0  0  0  0  0  0
   -7.0703   -6.6968   -3.2833 H   0  0  0  0  0  0  0  0  0  0  0  0
   -5.6321   -6.6508   -4.2964 H   0  0  0  0  0  0  0  0  0  0  0  0
   -5.1857   -4.2950   -3.5952 H   0  0  0  0  0  0  0  0  0  0  0  0
   -5.2501   -5.3457   -2.2029 H   0  0  0  0  0  0  0  0  0  0  0  0
  1  2  1  0  0  0  0
  1 30  1  0  0  0  0
  1 31  1  0  0  0  0
  1 32  1  0  0  0  0
  2  3  1  0  0  0  0
  3  4  2  0  0  0  0
  3  8  1  0  0  0  0
  4  5  1  0  0  0  0
  5  6  2  0  0  0  0
  5 28  1  0  0  0  0
  6  7  1  0  0  0  0
  7  8  2  0  0  0  0
  7 33  1  0  0  0  0
  8 34  1  0  0  0  0
  9  6  1  1  0  0  0
  9 10  1  0  0  0  0
  9 14  1  0  0  0  0
  9 27  1  0  0  0  0
 10 11  1  0  0  0  0
 10 35  1  0  0  0  0
 10 36  1  0  0  0  0
 11 37  1  0  0  0  0
 11 38  1  0  0  0  0
 12 11  1  0  0  0  0
 12 13  1  0  0  0  0
 12 39  1  6  0  0  0
 12 15  1  0  0  0  0
 13 14  1  0  0  0  0
 13 40  1  0  0  0  0
 13 41  1  0  0  0  0
 14 42  1  0  0  0  0
 14 43  1  0  0  0  0
 15 16  2  0  0  0  0
 15 17  1  0  0  0  0
 17 18  1  0  0  0  0
 17 19  1  0  0  0  0
 18 44  1  0  0  0  0
 18 45  1  0  0  0  0
 18 46  1  0  0  0  0
 19 20  1  0  0  0  0
 19 47  1  0  0  0  0
 19 48  1  0  0  0  0
 20 21  1  0  0  0  0
 20 49  1  0  0  0  0
 20 50  1  0  0  0  0
 21 22  1  0  0  0  0
 21 26  1  0  0  0  0
 22 23  1  0  0  0  0
 22 51  1  0  0  0  0
 22 52  1  0  0  0  0
 23 24  1  0  0  0  0
 23 53  1  0  0  0  0
 23 54  1  0  0  0  0
 24 25  1  0  0  0  0
 24 55  1  0  0  0  0
 24 56  1  0  0  0  0
 25 26  1  0  0  0  0
 25 57  1  0  0  0  0
 25 58  1  0  0  0  0
 26 59  1  0  0  0  0
 26 60  1  0  0  0  0
 27 28  1  0  0  0  0
 28 29  2  0  0  0  0
M  END
>  <DRUGBANK_ID>
DB17094

>  <COMMON_NAME>
MK-7288

>  <CAS_NUMBER>
936626-07-2

>  <UNII>
19EF2T21ST

>  <SYNONYMS>
MK-7288 free base; Spiro(cyclohexane-1,5'(7'h)-furo(3,4-b)pyridine)-4-carboxamide, 2'-methoxy-n-methyl-7'-oxo-n-(2-(1-piperidinyl)ethyl)-, trans-

$$$$
