
 OpenBabel10282417193D

211218  0  0  1  0  0  0  0  0999 V2000
   -8.5096   14.2011   -4.0238 C   0  0  0  0  0  0  0  0  0  0  0  0
   -8.8621   13.4875   -5.2104 C   0  0  0  0  0  0  0  0  0  0  0  0
   -7.9046   12.7753   -6.0480 C   0  0  0  0  0  0  0  0  0  0  0  0
   -6.5685   12.6959   -5.7145 C   0  0  0  0  0  0  0  0  0  0  0  0
   -6.3490   13.3486   -4.4746 C   0  0  0  0  0  0  0  0  0  0  0  0
   -7.2251   14.0501   -3.5965 C   0  0  0  0  0  0  0  0  0  0  0  0
   -5.5903   11.6689   -6.4911 C   0  0  0  0  0  0  0  0  0  0  0  0
   -4.5102   12.2496   -7.2783 C   0  0  0  0  0  0  0  0  0  0  0  0
   -3.6703   13.4271   -6.4454 C   0  0  0  0  0  0  0  0  0  0  0  0
   -2.7906   15.0232   -7.5056 C   0  0  0  0  0  0  0  0  0  0  0  0
   -2.7340   15.0144   -9.0953 C   0  0  0  0  0  0  0  0  0  0  0  0
   -3.5741   13.6246   -9.8386 C   0  0  0  0  0  0  0  0  0  0  0  0
   -4.4301   12.2911   -8.9382 C   0  0  0  0  0  0  0  0  0  0  0  0
   -4.6283   10.6690   -5.8821 C   0  0  1  0  0  0  0  0  0  0  0  0
   -5.6701    9.5626   -5.5376 C   0  0  0  0  0  0  0  0  0  0  0  0
   -5.1476    8.4358   -5.7227 O   0  0  0  0  0  0  0  0  0  0  0  0
   -7.0322    9.9205   -4.5360 N   0  0  0  0  0  0  0  0  0  0  0  0
   -7.3663   11.1436   -3.1907 C   0  0  1  0  0  0  0  0  0  0  0  0
   -8.6549   11.3782   -3.7285 C   0  0  0  0  0  0  0  0  0  0  0  0
   -9.7475   10.7399   -3.0611 C   0  0  0  0  0  0  0  0  0  0  0  0
   -9.7359   11.2646   -1.6546 C   0  0  0  0  0  0  0  0  0  0  0  0
   -9.6416   12.7301   -1.2244 C   0  0  0  0  0  0  0  0  0  0  0  0
  -10.8726   13.2259   -1.7336 N   0  0  0  0  0  0  0  0  0  0  0  0
   -7.1043   11.8596   -1.3709 C   0  0  0  0  0  0  0  0  0  0  0  0
   -6.5446   12.8769   -0.9266 O   0  0  0  0  0  0  0  0  0  0  0  0
   -7.3135   10.8567   -0.4232 N   0  0  0  0  0  0  0  0  0  0  0  0
   -3.3965   10.0182   -6.5529 N   0  0  0  0  0  0  0  0  0  0  0  0
   -2.0253    9.9237   -6.2883 C   0  0  0  0  0  0  0  0  0  0  0  0
   -1.2279    9.3880   -7.0508 O   0  0  0  0  0  0  0  0  0  0  0  0
   -1.3799   10.4282   -5.0635 C   0  0  2  0  0  0  0  0  0  0  0  0
   -0.3227   11.6209   -5.0053 C   0  0  0  0  0  0  0  0  0  0  0  0
   -0.6064   11.9535   -3.6424 C   0  0  0  0  0  0  0  0  0  0  0  0
   -1.9090   11.3797   -3.2552 C   0  0  0  0  0  0  0  0  0  0  0  0
   -0.9308   11.2679   -2.4277 N   0  0  0  0  0  0  0  0  0  0  0  0
   -0.8358   11.8961   -1.3239 C   0  0  0  0  0  0  0  0  0  0  0  0
    0.0982   12.4562   -2.1256 C   0  0  0  0  0  0  0  0  0  0  0  0
    0.5695   13.6021   -1.4376 C   0  0  0  0  0  0  0  0  0  0  0  0
   -0.2378   14.0393   -0.2511 C   0  0  0  0  0  0  0  0  0  0  0  0
   -1.2592   13.2875    0.3314 C   0  0  0  0  0  0  0  0  0  0  0  0
   -1.3992   12.0079   -0.0744 C   0  0  0  0  0  0  0  0  0  0  0  0
   -1.2742    9.3295   -3.5054 N   0  0  0  0  0  0  0  0  0  0  0  0
   -2.0626    9.5345   -1.8731 C   0  0  0  0  0  0  0  0  0  0  0  0
   -1.5702    9.0148   -0.8472 O   0  0  0  0  0  0  0  0  0  0  0  0
   -3.2676   11.0847   -1.6547 C   0  0  2  0  0  0  0  0  0  0  0  0
   -4.4451   10.6183   -1.0389 C   0  0  0  0  0  0  0  0  0  0  0  0
   -5.2987   10.9490   -2.1158 C   0  0  0  0  0  0  0  0  0  0  0  0
   -5.0889   10.3688   -3.3805 C   0  0  0  0  0  0  0  0  0  0  0  0
   -5.3298    8.8463   -3.2645 C   0  0  0  0  0  0  0  0  0  0  0  0
   -6.3761    8.2608   -2.4312 N   0  0  0  0  0  0  0  0  0  0  0  0
   -3.7072   12.2664   -2.6285 N   0  0  0  0  0  0  0  0  0  0  0  0
   -3.1319   13.3113   -3.0554 C   0  0  0  0  0  0  0  0  0  0  0  0
   -3.0483   13.0722   -4.2354 O   0  0  0  0  0  0  0  0  0  0  0  0
   -2.4651   14.2691   -2.2874 C   0  0  2  0  0  0  0  0  0  0  0  0
   -1.1671   14.6930   -2.8771 C   0  0  0  0  0  0  0  0  0  0  0  0
   -0.3517   15.4648   -3.8936 C   0  0  0  0  0  0  0  0  0  0  0  0
   -0.6424   16.7762   -3.4617 C   0  0  0  0  0  0  0  0  0  0  0  0
   -0.2983   17.2475   -2.0742 C   0  0  0  0  0  0  0  0  0  0  0  0
    1.0709   17.3517   -2.2885 N   0  0  0  0  0  0  0  0  0  0  0  0
   -3.2143   14.3331   -1.0753 N   0  0  0  0  0  0  0  0  0  0  0  0
   -4.1204   15.1107   -0.5175 C   0  0  0  0  0  0  0  0  0  0  0  0
   -4.5652   14.7487    0.5626 O   0  0  0  0  0  0  0  0  0  0  0  0
   -4.5576   16.3340   -1.1748 C   0  0  2  0  0  0  0  0  0  0  0  0
   -4.3290   17.4703   -0.2266 C   0  0  0  0  0  0  0  0  0  0  0  0
   -5.7164   17.6364    0.6186 C   0  0  0  0  0  0  0  0  0  0  0  0
   -7.1085   17.1073    0.0820 C   0  0  0  0  0  0  0  0  0  0  0  0
   -6.8442   18.2299   -0.7997 N   0  0  0  0  0  0  0  0  0  0  0  0
   -7.1108   19.0883    0.1928 C   0  0  0  0  0  0  0  0  0  0  0  0
   -6.0558   18.9400    1.0736 C   0  0  0  0  0  0  0  0  0  0  0  0
   -5.7475   20.1278    1.7148 C   0  0  0  0  0  0  0  0  0  0  0  0
   -6.9159   20.9210    1.8908 C   0  0  0  0  0  0  0  0  0  0  0  0
   -8.1710   20.5903    1.3363 C   0  0  0  0  0  0  0  0  0  0  0  0
   -8.3373   19.4574    0.6283 C   0  0  0  0  0  0  0  0  0  0  0  0
   -6.0027   16.0475   -1.7429 N   0  0  0  0  0  0  0  0  0  0  0  0
   -6.9283   16.7054   -2.7244 C   0  0  0  0  0  0  0  0  0  0  0  0
   -8.1505   16.6462   -2.6566 O   0  0  0  0  0  0  0  0  0  0  0  0
   -6.2524   17.3225   -3.9241 C   0  0  2  0  0  0  0  0  0  0  0  0
   -6.6206   16.4361   -5.1065 C   0  0  0  0  0  0  0  0  0  0  0  0
   -5.5989   15.3028   -5.2545 C   0  0  0  0  0  0  0  0  0  0  0  0
   -4.5323   14.9985   -4.1152 C   0  0  0  0  0  0  0  0  0  0  0  0
   -4.3454   15.8485   -5.0817 N   0  0  0  0  0  0  0  0  0  0  0  0
   -3.3844   15.3235   -5.6592 C   0  0  0  0  0  0  0  0  0  0  0  0
   -4.7349   15.2711   -6.6013 C   0  0  0  0  0  0  0  0  0  0  0  0
   -4.4547   14.2254   -7.9682 C   0  0  0  0  0  0  0  0  0  0  0  0
   -2.6345   13.1799   -7.9949 C   0  0  0  0  0  0  0  0  0  0  0  0
   -1.4508   13.5054   -6.8489 C   0  0  0  0  0  0  0  0  0  0  0  0
   -1.9141   14.4474   -5.6811 C   0  0  0  0  0  0  0  0  0  0  0  0
   -4.8993   17.2208   -3.3670 N   0  0  0  0  0  0  0  0  0  0  0  0
   -3.5083   17.5134   -3.8251 C   0  0  0  0  0  0  0  0  0  0  0  0
   -2.6761   16.7956   -4.3828 O   0  0  0  0  0  0  0  0  0  0  0  0
   -3.0330   18.7425   -4.2453 C   0  0  2  0  0  0  0  0  0  0  0  0
   -1.9270   19.1073   -3.4133 C   0  0  0  0  0  0  0  0  0  0  0  0
   -0.7523   19.6749   -4.1380 C   0  0  0  0  0  0  0  0  0  0  0  0
   -1.3797   20.9782   -4.3140 C   0  0  0  0  0  0  0  0  0  0  0  0
   -1.8861   21.5349   -3.0091 C   0  0  0  0  0  0  0  0  0  0  0  0
   -0.7444   21.6810   -2.1550 N   0  0  0  0  0  0  0  0  0  0  0  0
   -4.1374   19.4236   -3.8942 N   0  0  0  0  0  0  0  0  0  0  0  0
   -4.7987   19.8873   -4.9603 C   0  0  0  0  0  0  0  0  0  0  0  0
   -5.9177   20.3266   -4.7220 O   0  0  0  0  0  0  0  0  0  0  0  0
   -4.1866   19.6830   -6.3992 C   0  0  2  0  0  0  0  0  0  0  0  0
   -4.5025   18.3692   -7.0714 C   0  0  0  0  0  0  0  0  0  0  0  0
   -5.9433   18.4512   -7.4971 C   0  0  0  0  0  0  0  0  0  0  0  0
   -6.1010   19.5474   -8.5158 C   0  0  0  0  0  0  0  0  0  0  0  0
   -5.2276   19.2644   -9.7200 C   0  0  0  0  0  0  0  0  0  0  0  0
   -5.6749   18.0236  -10.3371 N   0  0  0  0  0  0  0  0  0  0  0  0
   -2.7817   19.9715   -6.6979 N   0  0  0  0  0  0  0  0  0  0  0  0
   -9.2294   14.3586   -3.2175 H   0  0  0  0  0  0  0  0  0  0  0  0
   -9.8366   12.9628   -5.1129 H   0  0  0  0  0  0  0  0  0  0  0  0
   -8.2319   11.9015   -6.6220 H   0  0  0  0  0  0  0  0  0  0  0  0
   -5.4045   13.2479   -3.9733 H   0  0  0  0  0  0  0  0  0  0  0  0
   -6.8738   14.1912   -2.5627 H   0  0  0  0  0  0  0  0  0  0  0  0
   -6.2241   11.0823   -7.1424 H   0  0  0  0  0  0  0  0  0  0  0  0
   -4.2061   13.4094   -5.5276 H   0  0  0  0  0  0  0  0  0  0  0  0
   -2.1417   15.8255   -7.0693 H   0  0  0  0  0  0  0  0  0  0  0  0
   -1.6305   15.2140   -9.1132 H   0  0  0  0  0  0  0  0  0  0  0  0
   -2.7484   13.0995  -10.3341 H   0  0  0  0  0  0  0  0  0  0  0  0
   -5.3756   11.9145   -9.2948 H   0  0  0  0  0  0  0  0  0  0  0  0
   -3.9785   11.1529   -5.1953 H   0  0  0  0  0  0  0  0  0  0  0  0
   -7.3698    9.1552   -3.9785 H   0  0  0  0  0  0  0  0  0  0  0  0
   -6.7688   11.9016   -3.5225 H   0  0  0  0  0  0  0  0  0  0  0  0
   -8.7067   12.3562   -3.4041 H   0  0  0  0  0  0  0  0  0  0  0  0
   -8.6787   11.1387   -4.7826 H   0  0  0  0  0  0  0  0  0  0  0  0
  -10.5807   11.1026   -3.6270 H   0  0  0  0  0  0  0  0  0  0  0  0
   -9.4260    9.7018   -3.1857 H   0  0  0  0  0  0  0  0  0  0  0  0
  -10.0654   10.5550   -0.9228 H   0  0  0  0  0  0  0  0  0  0  0  0
   -8.7426   11.0921   -1.6084 H   0  0  0  0  0  0  0  0  0  0  0  0
   -9.4242   12.8489   -0.1552 H   0  0  0  0  0  0  0  0  0  0  0  0
   -8.7862   13.3009   -1.6212 H   0  0  0  0  0  0  0  0  0  0  0  0
  -10.8942   14.2282   -1.6056 H   0  0  0  0  0  0  0  0  0  0  0  0
  -10.8768   13.0534   -2.7415 H   0  0  0  0  0  0  0  0  0  0  0  0
   -7.7841   10.0390   -0.7784 H   0  0  0  0  0  0  0  0  0  0  0  0
   -7.4781   11.1905    0.5035 H   0  0  0  0  0  0  0  0  0  0  0  0
   -3.6933    9.3026   -7.1767 H   0  0  0  0  0  0  0  0  0  0  0  0
   -2.1753   11.2477   -5.1233 H   0  0  0  0  0  0  0  0  0  0  0  0
    0.5632   11.5987   -5.6125 H   0  0  0  0  0  0  0  0  0  0  0  0
   -0.7053   12.5774   -5.2755 H   0  0  0  0  0  0  0  0  0  0  0  0
   -2.8200   10.3500   -3.4236 H   0  0  0  0  0  0  0  0  0  0  0  0
   -0.6902   10.3761   -2.6970 H   0  0  0  0  0  0  0  0  0  0  0  0
    1.0050   14.4016   -2.0255 H   0  0  0  0  0  0  0  0  0  0  0  0
   -0.2830   15.0916    0.0256 H   0  0  0  0  0  0  0  0  0  0  0  0
   -2.1068   13.7153    0.8892 H   0  0  0  0  0  0  0  0  0  0  0  0
   -2.2685   11.4323    0.2540 H   0  0  0  0  0  0  0  0  0  0  0  0
   -0.2453    9.1033   -3.4624 H   0  0  0  0  0  0  0  0  0  0  0  0
   -3.0630   11.9640   -1.1072 H   0  0  0  0  0  0  0  0  0  0  0  0
   -4.4564    9.5575   -1.0326 H   0  0  0  0  0  0  0  0  0  0  0  0
   -4.6892   11.1910   -0.1530 H   0  0  0  0  0  0  0  0  0  0  0  0
   -6.1076   10.3642   -1.8886 H   0  0  0  0  0  0  0  0  0  0  0  0
   -5.4522   12.0551   -2.2991 H   0  0  0  0  0  0  0  0  0  0  0  0
   -5.6809   10.8821   -4.1185 H   0  0  0  0  0  0  0  0  0  0  0  0
   -4.7909   11.2200   -3.9328 H   0  0  0  0  0  0  0  0  0  0  0  0
   -5.8066    8.2936   -4.0582 H   0  0  0  0  0  0  0  0  0  0  0  0
   -4.3434    8.4823   -3.1267 H   0  0  0  0  0  0  0  0  0  0  0  0
   -6.8681    7.5246   -2.9576 H   0  0  0  0  0  0  0  0  0  0  0  0
   -6.9791    8.8912   -1.9392 H   0  0  0  0  0  0  0  0  0  0  0  0
   -3.6816   11.9906   -3.6037 H   0  0  0  0  0  0  0  0  0  0  0  0
   -2.7516   15.2122   -2.4614 H   0  0  0  0  0  0  0  0  0  0  0  0
   -0.8437   15.1068   -1.9837 H   0  0  0  0  0  0  0  0  0  0  0  0
   -0.8043   13.8279   -3.2777 H   0  0  0  0  0  0  0  0  0  0  0  0
    0.6999   15.2449   -3.8914 H   0  0  0  0  0  0  0  0  0  0  0  0
   -0.4414   15.4839   -4.9800 H   0  0  0  0  0  0  0  0  0  0  0  0
   -0.5989   17.3276   -4.4332 H   0  0  0  0  0  0  0  0  0  0  0  0
   -1.6446   16.7187   -3.0838 H   0  0  0  0  0  0  0  0  0  0  0  0
   -0.6615   18.2006   -1.6856 H   0  0  0  0  0  0  0  0  0  0  0  0
   -0.8504   16.6594   -1.3267 H   0  0  0  0  0  0  0  0  0  0  0  0
    1.4596   17.6783   -1.4352 H   0  0  0  0  0  0  0  0  0  0  0  0
    1.3925   16.4381   -2.5766 H   0  0  0  0  0  0  0  0  0  0  0  0
   -3.3745   13.4740   -0.6022 H   0  0  0  0  0  0  0  0  0  0  0  0
   -3.8125   16.6425   -1.8786 H   0  0  0  0  0  0  0  0  0  0  0  0
   -3.3297   17.2637    0.2064 H   0  0  0  0  0  0  0  0  0  0  0  0
   -4.1059   18.3718   -0.8703 H   0  0  0  0  0  0  0  0  0  0  0  0
   -8.2124   17.1764   -0.2692 H   0  0  0  0  0  0  0  0  0  0  0  0
   -6.0346   17.9535   -1.3291 H   0  0  0  0  0  0  0  0  0  0  0  0
   -4.8017   20.4401    2.1443 H   0  0  0  0  0  0  0  0  0  0  0  0
   -6.9052   21.7967    2.5200 H   0  0  0  0  0  0  0  0  0  0  0  0
   -9.0382   21.2213    1.3599 H   0  0  0  0  0  0  0  0  0  0  0  0
   -9.2299   19.0094    0.2221 H   0  0  0  0  0  0  0  0  0  0  0  0
   -6.5033   15.5697   -0.9849 H   0  0  0  0  0  0  0  0  0  0  0  0
   -6.0797   18.2906   -4.2467 H   0  0  0  0  0  0  0  0  0  0  0  0
   -7.6653   16.2041   -5.2393 H   0  0  0  0  0  0  0  0  0  0  0  0
   -6.3845   16.9883   -5.9810 H   0  0  0  0  0  0  0  0  0  0  0  0
   -3.8530   15.4913   -3.4121 H   0  0  0  0  0  0  0  0  0  0  0  0
   -4.5840   16.8080   -4.9819 H   0  0  0  0  0  0  0  0  0  0  0  0
   -5.4026   14.1075   -8.4268 H   0  0  0  0  0  0  0  0  0  0  0  0
   -2.1428   12.5251   -8.6589 H   0  0  0  0  0  0  0  0  0  0  0  0
   -0.5263   13.9750   -7.2351 H   0  0  0  0  0  0  0  0  0  0  0  0
   -1.6295   14.1203   -4.7470 H   0  0  0  0  0  0  0  0  0  0  0  0
   -5.1640   16.2412   -3.0245 H   0  0  0  0  0  0  0  0  0  0  0  0
   -2.7661   18.4132   -5.2559 H   0  0  0  0  0  0  0  0  0  0  0  0
   -2.2389   19.1456   -2.3650 H   0  0  0  0  0  0  0  0  0  0  0  0
   -1.3254   18.3678   -3.2199 H   0  0  0  0  0  0  0  0  0  0  0  0
    0.1589   19.6328   -3.5283 H   0  0  0  0  0  0  0  0  0  0  0  0
   -0.4745   19.1229   -5.0613 H   0  0  0  0  0  0  0  0  0  0  0  0
   -0.7843   21.5607   -4.9901 H   0  0  0  0  0  0  0  0  0  0  0  0
   -2.3327   20.7924   -4.7536 H   0  0  0  0  0  0  0  0  0  0  0  0
   -2.4777   22.4008   -3.2585 H   0  0  0  0  0  0  0  0  0  0  0  0
   -2.6354   20.8999   -2.4974 H   0  0  0  0  0  0  0  0  0  0  0  0
   -1.0737   22.0125   -1.2619 H   0  0  0  0  0  0  0  0  0  0  0  0
   -0.3033   20.7705   -1.9855 H   0  0  0  0  0  0  0  0  0  0  0  0
   -4.6056   19.0663   -3.0490 H   0  0  0  0  0  0  0  0  0  0  0  0
   -4.6292   20.5289   -6.8630 H   0  0  0  0  0  0  0  0  0  0  0  0
   -3.8228   18.0712   -7.8812 H   0  0  0  0  0  0  0  0  0  0  0  0
   -4.3456   17.5606   -6.4131 H   0  0  0  0  0  0  0  0  0  0  0  0
   -6.2886   17.4863   -7.8840 H   0  0  0  0  0  0  0  0  0  0  0  0
   -6.5695   18.7107   -6.6387 H   0  0  0  0  0  0  0  0  0  0  0  0
   -7.1560   19.6441   -8.7543 H   0  0  0  0  0  0  0  0  0  0  0  0
   -5.8396   20.5226   -8.1040 H   0  0  0  0  0  0  0  0  0  0  0  0
   -5.3052   20.1032  -10.4064 H   0  0  0  0  0  0  0  0  0  0  0  0
   -4.1658   19.1899   -9.4506 H   0  0  0  0  0  0  0  0  0  0  0  0
   -5.0760   17.8100  -11.1274 H   0  0  0  0  0  0  0  0  0  0  0  0
   -5.5432   17.2412   -9.6909 H   0  0  0  0  0  0  0  0  0  0  0  0
   -2.6110   20.9054   -6.3604 H   0  0  0  0  0  0  0  0  0  0  0  0
   -2.0835   19.3765   -6.2607 H   0  0  0  0  0  0  0  0  0  0  0  0
  1  2  2  0  0  0  0
  1  6  1  0  0  0  0
  1106  1  0  0  0  0
  2  3  1  0  0  0  0
  2107  1  0  0  0  0
  3  4  2  0  0  0  0
  3108  1  0  0  0  0
  4  5  1  0  0  0  0
  4  7  1  0  0  0  0
  5  6  2  0  0  0  0
  5109  1  0  0  0  0
  6110  1  0  0  0  0
  7  8  1  0  0  0  0
  7 14  1  0  0  0  0
  7111  1  0  0  0  0
  8  9  2  0  0  0  0
  8 13  1  0  0  0  0
  9 10  1  0  0  0  0
  9112  1  0  0  0  0
 10 11  2  0  0  0  0
 10113  1  0  0  0  0
 11 12  1  0  0  0  0
 11114  1  0  0  0  0
 12 13  2  0  0  0  0
 12115  1  0  0  0  0
 13116  1  0  0  0  0
 14 15  1  0  0  0  0
 14 27  1  0  0  0  0
 14117  1  1  0  0  0
 15 16  2  0  0  0  0
 15 17  1  0  0  0  0
 17118  1  0  0  0  0
 18 17  1  0  0  0  0
 18 19  1  0  0  0  0
 18 24  1  0  0  0  0
 18119  1  6  0  0  0
 19 20  1  0  0  0  0
 19120  1  0  0  0  0
 19121  1  0  0  0  0
 20 21  1  0  0  0  0
 20122  1  0  0  0  0
 20123  1  0  0  0  0
 21 22  1  0  0  0  0
 21124  1  0  0  0  0
 21125  1  0  0  0  0
 22 23  1  0  0  0  0
 22126  1  0  0  0  0
 22127  1  0  0  0  0
 23128  1  0  0  0  0
 23129  1  0  0  0  0
 24 25  2  0  0  0  0
 24 26  1  0  0  0  0
 26130  1  0  0  0  0
 26131  1  0  0  0  0
 27 28  1  0  0  0  0
 27132  1  0  0  0  0
 28 29  2  0  0  0  0
 30 41  1  0  0  0  0
 30133  1  1  0  0  0
 30 31  1  0  0  0  0
 30 28  1  0  0  0  0
 31 32  1  0  0  0  0
 31134  1  0  0  0  0
 31135  1  0  0  0  0
 32 33  2  0  0  0  0
 32 36  1  0  0  0  0
 33 34  1  0  0  0  0
 33136  1  0  0  0  0
 34 35  1  0  0  0  0
 34137  1  0  0  0  0
 35 36  1  0  0  0  0
 35 40  2  0  0  0  0
 36 37  2  0  0  0  0
 37 38  1  0  0  0  0
 37138  1  0  0  0  0
 38 39  2  0  0  0  0
 38139  1  0  0  0  0
 39 40  1  0  0  0  0
 39140  1  0  0  0  0
 40141  1  0  0  0  0
 41 42  1  0  0  0  0
 41142  1  0  0  0  0
 42 43  2  0  0  0  0
 44 50  1  0  0  0  0
 44143  1  1  0  0  0
 44 45  1  0  0  0  0
 44 42  1  0  0  0  0
 45 46  1  0  0  0  0
 45144  1  0  0  0  0
 45145  1  0  0  0  0
 46 47  1  0  0  0  0
 46146  1  0  0  0  0
 46147  1  0  0  0  0
 47 48  1  0  0  0  0
 47148  1  0  0  0  0
 47149  1  0  0  0  0
 48 49  1  0  0  0  0
 48150  1  0  0  0  0
 48151  1  0  0  0  0
 49152  1  0  0  0  0
 49153  1  0  0  0  0
 50 51  1  0  0  0  0
 50154  1  0  0  0  0
 51 52  2  0  0  0  0
 53 59  1  0  0  0  0
 53155  1  6  0  0  0
 53 54  1  0  0  0  0
 53 51  1  0  0  0  0
 54 55  1  0  0  0  0
 54156  1  0  0  0  0
 54157  1  0  0  0  0
 55 56  1  0  0  0  0
 55158  1  0  0  0  0
 55159  1  0  0  0  0
 56 57  1  0  0  0  0
 56160  1  0  0  0  0
 56161  1  0  0  0  0
 57 58  1  0  0  0  0
 57162  1  0  0  0  0
 57163  1  0  0  0  0
 58164  1  0  0  0  0
 58165  1  0  0  0  0
 59 60  1  0  0  0  0
 59166  1  0  0  0  0
 60 61  2  0  0  0  0
 62 73  1  0  0  0  0
 62167  1  6  0  0  0
 62 63  1  0  0  0  0
 62 60  1  0  0  0  0
 63 64  1  0  0  0  0
 63168  1  0  0  0  0
 63169  1  0  0  0  0
 64 65  2  0  0  0  0
 64 68  1  0  0  0  0
 65 66  1  0  0  0  0
 65170  1  0  0  0  0
 66 67  1  0  0  0  0
 66171  1  0  0  0  0
 67 68  1  0  0  0  0
 67 72  2  0  0  0  0
 68 69  2  0  0  0  0
 69 70  1  0  0  0  0
 69172  1  0  0  0  0
 70 71  2  0  0  0  0
 70173  1  0  0  0  0
 71 72  1  0  0  0  0
 71174  1  0  0  0  0
 72175  1  0  0  0  0
 73 74  1  0  0  0  0
 73176  1  0  0  0  0
 74 75  2  0  0  0  0
 76 87  1  0  0  0  0
 76177  1  6  0  0  0
 76 77  1  0  0  0  0
 76 74  1  0  0  0  0
 77 78  1  0  0  0  0
 77178  1  0  0  0  0
 77179  1  0  0  0  0
 78 79  2  0  0  0  0
 78 82  1  0  0  0  0
 79 80  1  0  0  0  0
 79180  1  0  0  0  0
 80 81  1  0  0  0  0
 80181  1  0  0  0  0
 81 82  1  0  0  0  0
 81 86  2  0  0  0  0
 82 83  2  0  0  0  0
 83 84  1  0  0  0  0
 83182  1  0  0  0  0
 84 85  2  0  0  0  0
 84183  1  0  0  0  0
 85 86  1  0  0  0  0
 85184  1  0  0  0  0
 86185  1  0  0  0  0
 87 88  1  0  0  0  0
 87186  1  0  0  0  0
 88 89  2  0  0  0  0
 90 96  1  0  0  0  0
 90187  1  6  0  0  0
 90 91  1  0  0  0  0
 90 88  1  0  0  0  0
 91 92  1  0  0  0  0
 91188  1  0  0  0  0
 91189  1  0  0  0  0
 92 93  1  0  0  0  0
 92190  1  0  0  0  0
 92191  1  0  0  0  0
 93 94  1  0  0  0  0
 93192  1  0  0  0  0
 93193  1  0  0  0  0
 94 95  1  0  0  0  0
 94194  1  0  0  0  0
 94195  1  0  0  0  0
 95196  1  0  0  0  0
 95197  1  0  0  0  0
 96 97  1  0  0  0  0
 96198  1  0  0  0  0
 97 98  2  0  0  0  0
 99105  1  0  0  0  0
 99199  1  6  0  0  0
 99100  1  0  0  0  0
 99 97  1  0  0  0  0
100101  1  0  0  0  0
100200  1  0  0  0  0
100201  1  0  0  0  0
101102  1  0  0  0  0
101202  1  0  0  0  0
101203  1  0  0  0  0
102103  1  0  0  0  0
102204  1  0  0  0  0
102205  1  0  0  0  0
103104  1  0  0  0  0
103206  1  0  0  0  0
103207  1  0  0  0  0
104208  1  0  0  0  0
104209  1  0  0  0  0
105210  1  0  0  0  0
105211  1  0  0  0  0
M  END
>  <DRUGBANK_ID>
DB12748

>  <COMMON_NAME>
LTX-315

>  <CAS_NUMBER>
1345407-05-7

>  <UNII>
75FBL12IZ7

$$$$
