
 OpenBabel10282417123D

 83 86  0  0  0  0  0  0  0  0999 V2000
    0.9680    0.0642    0.0659 Cu  0  3  0  0  0  0  0  0  0  0  0  0
   -9.5403   -6.2669  -16.6880 O   0  0  0  0  0  0  0  0  0  0  0  0
    3.8831   -5.7936  -17.5706 O   0  0  0  0  0  0  0  0  0  0  0  0
  -10.5986   -4.3121  -16.1866 O   0  0  0  0  0  0  0  0  0  0  0  0
    4.3372   -5.7369  -14.9763 O   0  0  0  0  0  0  0  0  0  0  0  0
   -4.0614   -6.7171  -15.3617 N   0  0  0  0  0  0  0  0  0  0  0  0
   -3.3719   -5.5639  -17.1745 N   0  0  0  0  0  0  0  0  0  0  0  0
   -0.4772   -4.2029  -12.9192 N   0  0  0  0  0  0  0  0  0  0  0  0
    3.0263   -2.2448  -13.4925 N   0  5  0  0  0  0  0  0  0  0  0  0
   -2.7726   -6.2595  -15.1242 C   0  0  0  0  0  0  0  0  0  0  0  0
   -3.9134   -7.7207  -16.7386 C   0  0  0  0  0  0  0  0  0  0  0  0
   -4.8819   -6.6823  -17.7459 C   0  0  0  0  0  0  0  0  0  0  0  0
   -1.1012   -4.9307  -13.8913 C   0  0  0  0  0  0  0  0  0  0  0  0
   -5.2013   -6.3089  -14.4751 C   0  0  0  0  0  0  0  0  0  0  0  0
   -2.4772   -4.2096  -16.3808 C   0  0  0  0  0  0  0  0  0  0  0  0
    0.7902   -4.1780  -13.2227 C   0  0  0  0  0  0  0  0  0  0  0  0
    1.4747   -2.6106  -14.6394 C   0  0  0  0  0  0  0  0  0  0  0  0
    2.9950   -3.2954  -12.7635 C   0  0  0  0  0  0  0  0  0  0  0  0
   -2.0543   -6.9975  -16.0843 C   0  0  0  0  0  0  0  0  0  0  0  0
   -2.5454   -7.4842  -17.2837 C   0  0  0  0  0  0  0  0  0  0  0  0
   -2.3408   -5.3644  -14.0555 C   0  0  0  0  0  0  0  0  0  0  0  0
   -5.0197   -8.0737  -17.5380 C   0  0  0  0  0  0  0  0  0  0  0  0
   -0.2801   -3.1989  -15.4797 C   0  0  0  0  0  0  0  0  0  0  0  0
    1.7513   -3.3768  -12.4062 C   0  0  0  0  0  0  0  0  0  0  0  0
   -4.6525   -4.7321  -17.1130 C   0  0  0  0  0  0  0  0  0  0  0  0
   -5.8910   -5.8488  -17.7381 C   0  0  0  0  0  0  0  0  0  0  0  0
   -0.2087   -5.0796  -14.9260 C   0  0  0  0  0  0  0  0  0  0  0  0
    0.9765   -5.1152  -14.4828 C   0  0  0  0  0  0  0  0  0  0  0  0
    3.6633   -2.7089  -14.7794 C   0  0  0  0  0  0  0  0  0  0  0  0
    3.5209   -3.7047  -13.9439 C   0  0  0  0  0  0  0  0  0  0  0  0
   -0.7568   -7.3613  -15.8444 C   0  0  0  0  0  0  0  0  0  0  0  0
   -1.7022   -7.8435  -18.4999 C   0  0  0  0  0  0  0  0  0  0  0  0
   -6.8502   -4.5607  -18.1029 C   0  0  0  0  0  0  0  0  0  0  0  0
    2.1591   -5.3173  -15.9394 C   0  0  0  0  0  0  0  0  0  0  0  0
    5.3157   -3.2133  -15.8183 C   0  0  0  0  0  0  0  0  0  0  0  0
   -5.2909   -4.6697  -17.1963 C   0  0  0  0  0  0  0  0  0  0  0  0
   -0.2306   -4.9372  -16.6724 C   0  0  0  0  0  0  0  0  0  0  0  0
    2.5633   -3.6539  -15.5763 C   0  0  0  0  0  0  0  0  0  0  0  0
    0.4395   -7.8086  -16.2143 C   0  0  0  0  0  0  0  0  0  0  0  0
   -9.0415   -4.5253  -18.2424 C   0  0  0  0  0  0  0  0  0  0  0  0
    5.7057   -4.6532  -16.1344 C   0  0  0  0  0  0  0  0  0  0  0  0
    2.6328   -6.5483  -15.7688 C   0  0  0  0  0  0  0  0  0  0  0  0
   -9.9134   -4.9864  -16.9513 C   0  0  0  0  0  0  0  0  0  0  0  0
    4.5781   -5.3823  -16.2285 C   0  0  0  0  0  0  0  0  0  0  0  0
   -9.7447   -6.6219  -15.7922 H   0  0  0  0  0  0  0  0  0  0  0  0
    4.4757   -6.0922  -18.2417 H   0  0  0  0  0  0  0  0  0  0  0  0
   -6.0542   -5.7293  -14.8702 H   0  0  0  0  0  0  0  0  0  0  0  0
   -5.6427   -7.2052  -14.1337 H   0  0  0  0  0  0  0  0  0  0  0  0
   -4.8730   -5.6691  -13.6549 H   0  0  0  0  0  0  0  0  0  0  0  0
   -2.9928   -5.0128  -13.3123 H   0  0  0  0  0  0  0  0  0  0  0  0
   -5.1800   -9.1640  -17.8838 H   0  0  0  0  0  0  0  0  0  0  0  0
    1.1985   -2.8162  -15.0132 H   0  0  0  0  0  0  0  0  0  0  0  0
    1.5820   -2.7481  -11.5877 H   0  0  0  0  0  0  0  0  0  0  0  0
   -0.3919   -6.7909  -17.0201 H   0  0  0  0  0  0  0  0  0  0  0  0
   -0.2954   -6.7265  -15.1125 H   0  0  0  0  0  0  0  0  0  0  0  0
   -1.7265   -8.9198  -18.5336 H   0  0  0  0  0  0  0  0  0  0  0  0
   -2.0710   -7.4188  -19.4213 H   0  0  0  0  0  0  0  0  0  0  0  0
   -0.6319   -7.5582  -18.4868 H   0  0  0  0  0  0  0  0  0  0  0  0
   -7.6128   -4.0675  -19.3624 H   0  0  0  0  0  0  0  0  0  0  0  0
   -7.5494   -3.6659  -17.7121 H   0  0  0  0  0  0  0  0  0  0  0  0
    2.0639   -4.5255  -17.0574 H   0  0  0  0  0  0  0  0  0  0  0  0
    3.4712   -4.6570  -15.3419 H   0  0  0  0  0  0  0  0  0  0  0  0
    4.8961   -2.7737  -16.6947 H   0  0  0  0  0  0  0  0  0  0  0  0
    6.3867   -2.7904  -15.7659 H   0  0  0  0  0  0  0  0  0  0  0  0
   -5.5132   -5.4767  -16.0940 H   0  0  0  0  0  0  0  0  0  0  0  0
   -4.0983   -4.2008  -18.2642 H   0  0  0  0  0  0  0  0  0  0  0  0
   -6.0024   -3.8534  -17.0194 H   0  0  0  0  0  0  0  0  0  0  0  0
   -0.7171   -5.6670  -16.1914 H   0  0  0  0  0  0  0  0  0  0  0  0
   -1.1320   -5.2982  -17.0799 H   0  0  0  0  0  0  0  0  0  0  0  0
    0.6258   -5.5807  -17.0133 H   0  0  0  0  0  0  0  0  0  0  0  0
    2.5401   -4.8525  -14.4864 H   0  0  0  0  0  0  0  0  0  0  0  0
    1.4807   -3.6641  -16.0638 H   0  0  0  0  0  0  0  0  0  0  0  0
    3.2556   -3.9088  -16.4660 H   0  0  0  0  0  0  0  0  0  0  0  0
    0.2884   -8.1720  -17.1394 H   0  0  0  0  0  0  0  0  0  0  0  0
    1.3346   -7.5299  -15.9832 H   0  0  0  0  0  0  0  0  0  0  0  0
    0.2858   -8.1825  -15.2587 H   0  0  0  0  0  0  0  0  0  0  0  0
   -9.9870   -5.0293  -19.1135 H   0  0  0  0  0  0  0  0  0  0  0  0
   -9.9403   -3.4376  -18.4372 H   0  0  0  0  0  0  0  0  0  0  0  0
    6.1117   -4.9113  -17.0630 H   0  0  0  0  0  0  0  0  0  0  0  0
    6.1351   -5.1922  -15.2872 H   0  0  0  0  0  0  0  0  0  0  0  0
    2.0707   -6.5466  -16.6111 H   0  0  0  0  0  0  0  0  0  0  0  0
    3.4694   -6.6547  -16.2454 H   0  0  0  0  0  0  0  0  0  0  0  0
    2.8354   -6.7316  -14.7720 H   0  0  0  0  0  0  0  0  0  0  0  0
  2 43  1  0  0  0  0
  2 45  1  0  0  0  0
  3 44  1  0  0  0  0
  3 46  1  0  0  0  0
  4 43  2  0  0  0  0
  5 44  2  0  0  0  0
  6 10  1  0  0  0  0
  6 11  1  0  0  0  0
  6 14  1  0  0  0  0
  7 12  1  0  0  0  0
  7 15  2  0  0  0  0
  8 13  1  0  0  0  0
  8 16  2  0  0  0  0
  9 17  1  0  0  0  0
  9 18  1  0  0  0  0
 10 19  2  0  0  0  0
 10 21  1  0  0  0  0
 11 20  2  0  0  0  0
 11 22  1  0  0  0  0
 12 22  2  0  0  0  0
 12 26  1  0  0  0  0
 13 21  2  0  0  0  0
 13 27  1  0  0  0  0
 14 47  1  0  0  0  0
 14 48  1  0  0  0  0
 14 49  1  0  0  0  0
 15 23  1  0  0  0  0
 15 25  1  0  0  0  0
 16 24  1  0  0  0  0
 16 28  1  0  0  0  0
 17 23  2  0  0  0  0
 17 29  1  0  0  0  0
 18 24  2  0  0  0  0
 18 30  1  0  0  0  0
 19 20  1  0  0  0  0
 19 31  1  0  0  0  0
 20 32  1  0  0  0  0
 21 50  1  0  0  0  0
 22 51  1  0  0  0  0
 23 52  1  0  0  0  0
 24 53  1  0  0  0  0
 25 26  2  0  0  0  0
 25 33  1  0  0  0  0
 26 36  1  0  0  0  0
 27 28  2  0  0  0  0
 27 37  1  0  0  0  0
 28 34  1  0  0  0  0
 29 30  2  0  0  0  0
 29 35  1  0  0  0  0
 30 38  1  0  0  0  0
 31 39  1  0  0  0  0
 31 54  1  0  0  0  0
 31 55  1  0  0  0  0
 32 56  1  0  0  0  0
 32 57  1  0  0  0  0
 32 58  1  0  0  0  0
 33 40  1  0  0  0  0
 33 59  1  0  0  0  0
 33 60  1  0  0  0  0
 34 42  1  0  0  0  0
 34 61  1  0  0  0  0
 34 62  1  0  0  0  0
 35 41  1  0  0  0  0
 35 63  1  0  0  0  0
 35 64  1  0  0  0  0
 36 65  1  0  0  0  0
 36 66  1  0  0  0  0
 36 67  1  0  0  0  0
 37 68  1  0  0  0  0
 37 69  1  0  0  0  0
 37 70  1  0  0  0  0
 38 71  1  0  0  0  0
 38 72  1  0  0  0  0
 38 73  1  0  0  0  0
 39 74  1  0  0  0  0
 39 75  1  0  0  0  0
 39 76  1  0  0  0  0
 40 43  1  0  0  0  0
 40 77  1  0  0  0  0
 40 78  1  0  0  0  0
 41 44  1  0  0  0  0
 41 79  1  0  0  0  0
 41 80  1  0  0  0  0
 42 81  1  0  0  0  0
 42 82  1  0  0  0  0
 42 83  1  0  0  0  0
M  CHG  2   1   1   9  -1
M  END
>  <DRUGBANK_ID>
DB02188

>  <SECONDARY_ACCESSION_NUMBERS>
EXPT02216

>  <COMMON_NAME>
N-Methylmesoporphyrin containing copper

>  <SYNONYMS>
3-[18-(2-Carboxyethyl)-7,12-diethyl-3,8,13,17,23-pentamethylporphyrin-21-id-2-yl]propanoic acid;copper(1+)

$$$$
