
 OpenBabel10282417243D

 31 33  0  0  1  0  0  0  0  0999 V2000
    0.9086   -0.1241    0.0071 N   0  0  0  0  0  0  0  0  0  0  0  0
    0.2065   -0.9766    0.7919 C   0  0  0  0  0  0  0  0  0  0  0  0
   -0.9149   -1.5341    0.4029 N   0  0  0  0  0  0  0  0  0  0  0  0
   -1.4968   -2.3090    1.3616 C   0  0  0  0  0  0  0  0  0  0  0  0
   -2.6302   -3.0872    1.2781 N   0  0  0  0  0  0  0  0  0  0  0  0
   -2.8159   -3.6361    2.5274 C   0  0  0  0  0  0  0  0  0  0  0  0
   -1.9069   -3.2637    3.3946 N   0  0  0  0  0  0  0  0  0  0  0  0
   -1.0690   -2.4740    2.6663 C   0  0  0  0  0  0  0  0  0  0  0  0
    0.1441   -1.8226    3.0816 C   0  0  0  0  0  0  0  0  0  0  0  0
    0.6029   -1.8211    4.2249 O   0  0  0  0  0  0  0  0  0  0  0  0
    0.7586   -1.1522    2.0458 N   0  0  0  0  0  0  0  0  0  0  0  0
   -3.5133   -3.3076    0.1372 C   0  0  2  0  0  0  0  0  0  0  0  0
   -4.9501   -2.7858    0.3733 C   0  0  0  0  0  0  0  0  0  0  0  0
   -5.8690   -4.0139    0.5901 C   0  0  2  0  0  0  0  0  0  0  0  0
   -6.3882   -4.1690    2.0252 C   0  0  0  0  0  0  0  0  0  0  0  0
   -7.2025   -3.0605    2.3890 O   0  0  0  0  0  0  0  0  0  0  0  0
   -5.0110   -5.1515    0.1253 C   0  0  0  0  0  0  0  0  0  0  0  0
   -3.7543   -4.7695   -0.1363 C   0  0  0  0  0  0  0  0  0  0  0  0
    0.4546    0.3014   -0.7896 H   0  0  0  0  0  0  0  0  0  0  0  0
    1.9155   -0.0472    0.0658 H   0  0  0  0  0  0  0  0  0  0  0  0
   -3.6206   -4.3132    2.7557 H   0  0  0  0  0  0  0  0  0  0  0  0
    1.5727   -0.6263    2.3124 H   0  0  0  0  0  0  0  0  0  0  0  0
   -3.0692   -2.8184   -0.7364 H   0  0  0  0  0  0  0  0  0  0  0  0
   -4.9959   -2.0622    1.1922 H   0  0  0  0  0  0  0  0  0  0  0  0
   -5.2930   -2.2593   -0.5282 H   0  0  0  0  0  0  0  0  0  0  0  0
   -6.7424   -3.9184   -0.0680 H   0  0  0  0  0  0  0  0  0  0  0  0
   -6.9990   -5.0735    2.1186 H   0  0  0  0  0  0  0  0  0  0  0  0
   -5.5941   -4.2576    2.7652 H   0  0  0  0  0  0  0  0  0  0  0  0
   -6.6432   -2.2653    2.4066 H   0  0  0  0  0  0  0  0  0  0  0  0
   -5.3812   -6.1634    0.0058 H   0  0  0  0  0  0  0  0  0  0  0  0
   -2.9816   -5.4362   -0.4978 H   0  0  0  0  0  0  0  0  0  0  0  0
  1  2  1  0  0  0  0
  1 19  1  0  0  0  0
  1 20  1  0  0  0  0
  2  3  2  0  0  0  0
  2 11  1  0  0  0  0
  3  4  1  0  0  0  0
  4  5  1  0  0  0  0
  4  8  2  0  0  0  0
  5  6  1  0  0  0  0
  6  7  2  0  0  0  0
  6 21  1  0  0  0  0
  7  8  1  0  0  0  0
  8  9  1  0  0  0  0
  9 10  2  0  0  0  0
  9 11  1  0  0  0  0
 11 22  1  0  0  0  0
 12  5  1  0  0  0  0
 12 13  1  0  0  0  0
 12 18  1  0  0  0  0
 12 23  1  6  0  0  0
 13 24  1  0  0  0  0
 13 25  1  0  0  0  0
 14 13  1  0  0  0  0
 14 15  1  0  0  0  0
 14 17  1  0  0  0  0
 14 26  1  6  0  0  0
 15 16  1  0  0  0  0
 15 27  1  0  0  0  0
 15 28  1  0  0  0  0
 16 29  1  0  0  0  0
 17 18  2  0  0  0  0
 17 30  1  0  0  0  0
 18 31  1  0  0  0  0
M  END
>  <DRUGBANK_ID>
DB17733

>  <COMMON_NAME>
Carbovir

>  <CAS_NUMBER>
118353-05-2

>  <UNII>
05469V2RW8

>  <SYNONYMS>
(+/-)-carbovir; 6h-purin-6-one, 2-amino-1,9-dihydro-9-((1r,4s)-4-(hydroxymethyl)-2-cyclopenten-1-yl)-, rel-; Carbovir, (+/-)-

$$$$
