
 OpenBabel10282417173D

 31 31  0  0  0  0  0  0  0  0999 V2000
    4.7224   -7.0234   -2.0998 Cl  0  0  0  0  0  0  0  0  0  0  0  0
    6.4993    0.7206    1.3582 O   0  0  0  0  0  0  0  0  0  0  0  0
    6.4767   -1.3988    2.5861 O   0  0  0  0  0  0  0  0  0  0  0  0
    6.5371   -1.4026    0.1373 O   0  0  0  0  0  0  0  0  0  0  0  0
    3.1271   -0.1257   -2.1329 O   0  0  0  0  0  0  0  0  0  0  0  0
    3.9423   -0.0119    0.0957 N   0  0  0  0  0  0  0  0  0  0  0  0
    4.4050   -0.7012    1.3088 C   0  0  1  0  0  0  0  0  0  0  0  0
    3.9037   -2.1361    1.2987 C   0  0  0  0  0  0  0  0  0  0  0  0
    4.0871   -3.3706    0.4310 C   0  0  0  0  0  0  0  0  0  0  0  0
    3.9376   -4.6354    0.9885 C   0  0  0  0  0  0  0  0  0  0  0  0
    4.4022   -3.2284   -0.9109 C   0  0  0  0  0  0  0  0  0  0  0  0
    3.3796   -0.7411   -1.0500 C   0  0  0  0  0  0  0  0  0  0  0  0
    4.1267   -5.7665    0.2012 C   0  0  0  0  0  0  0  0  0  0  0  0
    4.5863   -4.3521   -1.7155 C   0  0  0  0  0  0  0  0  0  0  0  0
    4.4720   -5.6042   -1.1300 C   0  0  0  0  0  0  0  0  0  0  0  0
    3.0999   -2.2310   -0.9395 C   0  0  0  0  0  0  0  0  0  0  0  0
    6.0045   -0.6954    1.3482 B   0  5  0  0  0  0  0  0  0  0  0  0
    4.1300    0.9879    0.0216 H   0  0  0  0  0  0  0  0  0  0  0  0
    6.1845    1.1896    0.5330 H   0  0  0  0  0  0  0  0  0  0  0  0
    6.1217   -0.9273    3.3933 H   0  0  0  0  0  0  0  0  0  0  0  0
    7.5368   -1.3989    0.1620 H   0  0  0  0  0  0  0  0  0  0  0  0
    4.0251   -0.1968    2.1726 H   0  0  0  0  0  0  0  0  0  0  0  0
    3.1073   -1.5392    0.9059 H   0  0  0  0  0  0  0  0  0  0  0  0
    3.6660   -2.4349    2.2982 H   0  0  0  0  0  0  0  0  0  0  0  0
    3.6776   -4.7386    2.0213 H   0  0  0  0  0  0  0  0  0  0  0  0
    4.5049   -2.2502   -1.3322 H   0  0  0  0  0  0  0  0  0  0  0  0
    4.0074   -6.7451    0.6170 H   0  0  0  0  0  0  0  0  0  0  0  0
    4.8097   -4.2512   -2.7571 H   0  0  0  0  0  0  0  0  0  0  0  0
    4.0106   -2.7500   -0.7248 H   0  0  0  0  0  0  0  0  0  0  0  0
    2.3964   -2.4044   -0.1521 H   0  0  0  0  0  0  0  0  0  0  0  0
    2.6956   -2.5875   -1.8638 H   0  0  0  0  0  0  0  0  0  0  0  0
  1 15  1  0  0  0  0
  2 17  1  0  0  0  0
  2 19  1  0  0  0  0
  3 17  1  0  0  0  0
  3 20  1  0  0  0  0
  4 17  1  0  0  0  0
  4 21  1  0  0  0  0
  5 12  2  0  0  0  0
  6 12  1  0  0  0  0
  6 18  1  0  0  0  0
  7 17  1  0  0  0  0
  7 22  1  1  0  0  0
  7  8  1  0  0  0  0
  7  6  1  0  0  0  0
  8  9  1  0  0  0  0
  8 23  1  0  0  0  0
  8 24  1  0  0  0  0
  9 10  2  0  0  0  0
  9 11  1  0  0  0  0
 10 13  1  0  0  0  0
 10 25  1  0  0  0  0
 11 14  2  0  0  0  0
 11 26  1  0  0  0  0
 12 16  1  0  0  0  0
 13 15  2  0  0  0  0
 13 27  1  0  0  0  0
 14 15  1  0  0  0  0
 14 28  1  0  0  0  0
 16 29  1  0  0  0  0
 16 30  1  0  0  0  0
 16 31  1  0  0  0  0
M  CHG  1  17  -1
M  END
>  <DRUGBANK_ID>
DB08693

>  <COMMON_NAME>
L-1-(4-chlorophenyl)-2-(acetamido)ethane boronic acid

$$$$
