
 OpenBabel10282417233D

 84 87  0  0  1  0  0  0  0  0999 V2000
    6.8337   -8.8936   -8.6289 C   0  0  0  0  0  0  0  0  0  0  0  0
    6.4278   -7.6552   -7.9836 O   0  0  0  0  0  0  0  0  0  0  0  0
    7.0124   -6.4610   -8.2297 C   0  0  0  0  0  0  0  0  0  0  0  0
    7.4840   -5.8250   -9.2815 C   0  0  0  0  0  0  0  0  0  0  0  0
    8.2696   -4.5058   -9.1918 C   0  0  0  0  0  0  0  0  0  0  0  0
    8.5246   -3.7375   -8.0703 C   0  0  0  0  0  0  0  0  0  0  0  0
    7.5669   -4.0851   -7.2529 C   0  0  0  0  0  0  0  0  0  0  0  0
    7.0922   -5.4595   -7.3209 C   0  0  0  0  0  0  0  0  0  0  0  0
    9.5997   -2.8016   -7.4660 C   0  0  1  0  0  0  0  0  0  0  0  0
    9.0625   -1.8703   -6.4553 O   0  0  0  0  0  0  0  0  0  0  0  0
   10.9716   -3.4470   -6.8302 C   0  0  2  0  0  0  0  0  0  0  0  0
   11.5744   -4.6765   -7.6138 N   0  0  0  0  0  0  0  0  0  0  0  0
   11.3842   -6.0472   -7.7887 C   0  0  0  0  0  0  0  0  0  0  0  0
   11.6516   -6.6430   -8.8462 O   0  0  0  0  0  0  0  0  0  0  0  0
   11.0830   -6.9557   -6.6833 C   0  0  2  0  0  0  0  0  0  0  0  0
   12.3081   -6.5734   -5.2500 C   0  0  0  0  0  0  0  0  0  0  0  0
    9.6930   -8.3568   -7.0908 N   0  0  0  0  0  0  0  0  0  0  0  0
    8.0615   -8.6440   -6.4207 C   0  0  0  0  0  0  0  0  0  0  0  0
    7.6171   -9.8572   -6.3126 O   0  0  0  0  0  0  0  0  0  0  0  0
    6.8966   -7.4685   -5.4091 C   0  0  0  0  0  0  0  0  0  0  0  0
    7.5437   -6.8488   -3.8546 N   0  0  0  0  0  0  0  0  0  0  0  0
    8.7587   -6.1694   -3.8806 C   0  0  0  0  0  0  0  0  0  0  0  0
   10.3588   -6.9213   -3.9714 C   0  0  0  0  0  0  0  0  0  0  0  0
   10.5995   -6.4779   -2.7316 O   0  0  0  0  0  0  0  0  0  0  0  0
    9.4217   -6.9417   -2.0268 C   0  0  0  0  0  0  0  0  0  0  0  0
    7.9440   -6.8217   -2.4849 C   0  0  0  0  0  0  0  0  0  0  0  0
   11.0041   -3.5320   -5.2793 C   0  0  0  0  0  0  0  0  0  0  0  0
   11.8344   -3.0398   -4.5119 O   0  0  0  0  0  0  0  0  0  0  0  0
   10.0975   -4.3678   -4.7457 N   0  0  0  0  0  0  0  0  0  0  0  0
    8.9719   -5.0832   -5.4566 C   0  0  1  0  0  0  0  0  0  0  0  0
    8.9720   -7.1005   -5.4601 C   0  0  0  0  0  0  0  0  0  0  0  0
    8.9423   -8.7224   -4.1471 C   0  0  0  0  0  0  0  0  0  0  0  0
    7.8363   -9.2003   -3.4341 C   0  0  0  0  0  0  0  0  0  0  0  0
    7.9729   -9.2866   -1.7697 C   0  0  0  0  0  0  0  0  0  0  0  0
    9.6153   -9.4286   -1.4747 C   0  0  0  0  0  0  0  0  0  0  0  0
   10.3566   -9.1362   -2.9031 C   0  0  0  0  0  0  0  0  0  0  0  0
    7.0792   -4.4826   -4.7359 C   0  0  0  0  0  0  0  0  0  0  0  0
    6.2836   -3.8107   -5.2949 O   0  0  0  0  0  0  0  0  0  0  0  0
    6.1229   -5.3138   -3.4358 C   0  0  1  0  0  0  0  0  0  0  0  0
    5.0768   -6.7346   -3.7496 C   0  0  0  0  0  0  0  0  0  0  0  0
    6.7812   -4.7979   -1.7927 C   0  0  0  0  0  0  0  0  0  0  0  0
    5.5767   -4.5302   -2.3835 O   0  0  0  0  0  0  0  0  0  0  0  0
    6.2862   -9.7719   -8.2075 H   0  0  0  0  0  0  0  0  0  0  0  0
    7.8969   -9.1627   -8.5079 H   0  0  0  0  0  0  0  0  0  0  0  0
    6.6431   -8.7781   -9.6702 H   0  0  0  0  0  0  0  0  0  0  0  0
    7.1039   -6.2698  -10.1715 H   0  0  0  0  0  0  0  0  0  0  0  0
    8.3170   -3.9554  -10.1013 H   0  0  0  0  0  0  0  0  0  0  0  0
    7.8201   -3.5673   -6.3182 H   0  0  0  0  0  0  0  0  0  0  0  0
    7.5511   -5.9233   -6.5180 H   0  0  0  0  0  0  0  0  0  0  0  0
    9.8643   -2.1722   -8.2954 H   0  0  0  0  0  0  0  0  0  0  0  0
    8.0877   -1.7837   -6.5245 H   0  0  0  0  0  0  0  0  0  0  0  0
   11.7233   -2.6484   -6.9523 H   0  0  0  0  0  0  0  0  0  0  0  0
   12.0607   -4.3449   -8.4280 H   0  0  0  0  0  0  0  0  0  0  0  0
   10.5080   -6.1824   -6.2308 H   0  0  0  0  0  0  0  0  0  0  0  0
   12.4781   -7.3572   -4.4412 H   0  0  0  0  0  0  0  0  0  0  0  0
   13.3521   -6.4758   -5.4396 H   0  0  0  0  0  0  0  0  0  0  0  0
   11.9874   -5.7491   -4.5041 H   0  0  0  0  0  0  0  0  0  0  0  0
   10.1161   -9.2384   -6.9498 H   0  0  0  0  0  0  0  0  0  0  0  0
    6.4661   -6.4365   -5.6159 H   0  0  0  0  0  0  0  0  0  0  0  0
    5.8307   -7.4526   -5.8968 H   0  0  0  0  0  0  0  0  0  0  0  0
    8.7863   -5.1271   -3.4751 H   0  0  0  0  0  0  0  0  0  0  0  0
    8.0333   -6.0385   -4.6221 H   0  0  0  0  0  0  0  0  0  0  0  0
   10.5943   -8.1091   -4.2849 H   0  0  0  0  0  0  0  0  0  0  0  0
   10.9991   -7.5602   -4.7801 H   0  0  0  0  0  0  0  0  0  0  0  0
    9.6631   -6.8614   -1.0267 H   0  0  0  0  0  0  0  0  0  0  0  0
    9.2164   -7.8641   -2.3614 H   0  0  0  0  0  0  0  0  0  0  0  0
    8.2787   -5.8606   -2.0975 H   0  0  0  0  0  0  0  0  0  0  0  0
    7.0234   -7.0970   -2.0422 H   0  0  0  0  0  0  0  0  0  0  0  0
   10.3435   -4.5564   -3.7669 H   0  0  0  0  0  0  0  0  0  0  0  0
    9.2795   -4.9716   -6.4713 H   0  0  0  0  0  0  0  0  0  0  0  0
    8.7470   -6.9788   -6.5296 H   0  0  0  0  0  0  0  0  0  0  0  0
    9.8345   -7.6581   -5.6122 H   0  0  0  0  0  0  0  0  0  0  0  0
    6.8483   -8.8997   -3.8000 H   0  0  0  0  0  0  0  0  0  0  0  0
    7.2231   -9.9736   -1.3886 H   0  0  0  0  0  0  0  0  0  0  0  0
    7.5813   -8.3923   -1.1482 H   0  0  0  0  0  0  0  0  0  0  0  0
    9.9746   -8.6970   -0.6493 H   0  0  0  0  0  0  0  0  0  0  0  0
    9.9628  -10.4093   -1.2891 H   0  0  0  0  0  0  0  0  0  0  0  0
   11.1251   -8.3051   -2.5553 H   0  0  0  0  0  0  0  0  0  0  0  0
   11.2415   -9.6247   -3.3561 H   0  0  0  0  0  0  0  0  0  0  0  0
    4.3222   -6.3922   -4.4536 H   0  0  0  0  0  0  0  0  0  0  0  0
    5.2090   -7.6455   -4.4122 H   0  0  0  0  0  0  0  0  0  0  0  0
    5.1738   -7.5310   -2.9896 H   0  0  0  0  0  0  0  0  0  0  0  0
    6.9957   -5.5815   -1.0107 H   0  0  0  0  0  0  0  0  0  0  0  0
    7.7277   -4.2276   -1.9145 H   0  0  0  0  0  0  0  0  0  0  0  0
  1  2  1  0  0  0  0
  1 43  1  0  0  0  0
  1 44  1  0  0  0  0
  1 45  1  0  0  0  0
  2  3  1  0  0  0  0
  3  4  2  0  0  0  0
  3  8  1  0  0  0  0
  4  5  1  0  0  0  0
  4 46  1  0  0  0  0
  5  6  2  0  0  0  0
  5 47  1  0  0  0  0
  6  7  1  0  0  0  0
  7  8  2  0  0  0  0
  7 48  1  0  0  0  0
  8 49  1  0  0  0  0
  9  6  1  0  0  0  0
  9 10  1  0  0  0  0
  9 50  1  6  0  0  0
 10 51  1  0  0  0  0
 11 27  1  0  0  0  0
 11 52  1  6  0  0  0
 11 12  1  0  0  0  0
 11  9  1  0  0  0  0
 12 13  1  0  0  0  0
 12 53  1  0  0  0  0
 13 14  2  0  0  0  0
 15 17  1  0  0  0  0
 15 54  1  1  0  0  0
 15 16  1  0  0  0  0
 15 13  1  0  0  0  0
 16 55  1  0  0  0  0
 16 56  1  0  0  0  0
 16 57  1  0  0  0  0
 17 18  1  0  0  0  0
 17 58  1  0  0  0  0
 18 19  2  0  0  0  0
 18 20  1  0  0  0  0
 20 21  1  0  0  0  0
 20 59  1  0  0  0  0
 20 60  1  0  0  0  0
 21 22  1  0  0  0  0
 21 26  1  0  0  0  0
 22 23  1  0  0  0  0
 22 61  1  0  0  0  0
 22 62  1  0  0  0  0
 23 24  1  0  0  0  0
 23 63  1  0  0  0  0
 23 64  1  0  0  0  0
 24 25  1  0  0  0  0
 25 26  1  0  0  0  0
 25 65  1  0  0  0  0
 25 66  1  0  0  0  0
 26 67  1  0  0  0  0
 26 68  1  0  0  0  0
 27 28  2  0  0  0  0
 27 29  1  0  0  0  0
 29 69  1  0  0  0  0
 30 29  1  0  0  0  0
 30 31  1  0  0  0  0
 30 37  1  0  0  0  0
 30 70  1  6  0  0  0
 31 32  1  0  0  0  0
 31 71  1  0  0  0  0
 31 72  1  0  0  0  0
 32 33  2  0  0  0  0
 32 36  1  0  0  0  0
 33 34  1  0  0  0  0
 33 73  1  0  0  0  0
 34 35  1  0  0  0  0
 34 74  1  0  0  0  0
 34 75  1  0  0  0  0
 35 36  1  0  0  0  0
 35 76  1  0  0  0  0
 35 77  1  0  0  0  0
 36 78  1  0  0  0  0
 36 79  1  0  0  0  0
 37 38  2  0  0  0  0
 39 41  1  0  0  0  0
 39 42  1  0  0  0  0
 39 40  1  0  0  0  0
 39 37  1  6  0  0  0
 40 80  1  0  0  0  0
 40 81  1  0  0  0  0
 40 82  1  0  0  0  0
 41 42  1  0  0  0  0
 41 83  1  0  0  0  0
 41 84  1  0  0  0  0
M  END
>  <DRUGBANK_ID>
DB16070

>  <COMMON_NAME>
Zetomipzomib

>  <CAS_NUMBER>
1629677-75-3

>  <UNII>
O4BT6C02M2

>  <SYNONYMS>
(2S,3R)-N-[(2S)-3-(cyclopent-1-en-1-yl)-1-[(2R)-2-methyloxiran-2-yl]-1-oxopropan-2-yl]-3-hydroxy-3-(4-methoxyphenyl)-2-[(2S)-2-[2-(morpholin-4-yl)acetamido]propanamido]propanamide

$$$$
