4EA
 OpenBabel10282417163D

 50 53  0  0  0  0  0  0  0  0999 V2000
    4.7492    1.9813    5.4081 C   0  0  0  0  0  0  0  0  0  0  0  0
    4.8276    3.3254    5.5709 C   0  0  0  0  0  0  0  0  0  0  0  0
    4.3325    4.0783    6.7452 C   0  0  0  0  0  0  0  0  0  0  0  0
    4.4124    3.6129    8.0619 C   0  0  0  0  0  0  0  0  0  0  0  0
    3.6246    5.2699    6.5191 C   0  0  0  0  0  0  0  0  0  0  0  0
    2.9752    5.8871    7.5820 C   0  0  0  0  0  0  0  0  0  0  0  0
    3.0262    5.4375    8.8514 N   0  0  0  0  0  0  0  0  0  0  0  0
    3.7532    4.3194    9.0652 C   0  0  0  0  0  0  0  0  0  0  0  0
    1.3227    3.2087    5.5748 C   0  0  0  0  0  0  0  0  0  0  0  0
    1.6482    2.5011    6.7396 C   0  0  0  0  0  0  0  0  0  0  0  0
    1.8075    1.1191    6.6526 C   0  0  0  0  0  0  0  0  0  0  0  0
    1.4788    0.4238    5.4945 C   0  0  0  0  0  0  0  0  0  0  0  0
    1.0624    1.1610    4.3585 C   0  0  0  0  0  0  0  0  0  0  0  0
    1.0638    2.5538    4.3862 C   0  0  0  0  0  0  0  0  0  0  0  0
    2.3589    0.2205    7.5388 N   0  0  0  0  0  0  0  0  0  0  0  0
    2.2957   -1.0406    7.0145 C   0  0  0  0  0  0  0  0  0  0  0  0
    1.7582   -0.9562    5.7416 C   0  0  0  0  0  0  0  0  0  0  0  0
    5.9697   -0.1895    2.0079 C   0  0  0  0  0  0  0  0  0  0  0  0
    6.8490    0.6631    2.5936 N   0  0  0  0  0  0  0  0  0  0  0  0
    6.4095    1.3564    3.6710 C   0  0  0  0  0  0  0  0  0  0  0  0
    5.1231    1.2917    4.1663 C   0  0  0  0  0  0  0  0  0  0  0  0
    4.2508    0.4310    3.4898 C   0  0  0  0  0  0  0  0  0  0  0  0
    4.6708   -0.3777    2.4391 C   0  0  0  0  0  0  0  0  0  0  0  0
    3.9738   -1.4296    1.9062 O   0  0  0  0  0  0  0  0  0  0  0  0
    2.7217   -1.7979    2.5126 C   0  0  0  0  0  0  0  0  0  0  0  0
    2.8076   -2.4754    3.9238 C   0  0  2  0  0  0  0  0  0  0  0  0
    1.5669   -2.0962    4.7850 C   0  0  0  0  0  0  0  0  0  0  0  0
    4.0932   -2.3531    4.6382 N   0  0  0  0  0  0  0  0  0  0  0  0
    2.7183   -3.5521    3.7323 H   0  0  0  0  0  0  0  0  0  0  0  0
    4.3666    1.3395    6.1880 H   0  0  0  0  0  0  0  0  0  0  0  0
    5.1699    3.9281    4.7392 H   0  0  0  0  0  0  0  0  0  0  0  0
    4.8899    2.6704    8.3025 H   0  0  0  0  0  0  0  0  0  0  0  0
    3.4622    5.6460    5.5137 H   0  0  0  0  0  0  0  0  0  0  0  0
    2.3317    6.7499    7.4228 H   0  0  0  0  0  0  0  0  0  0  0  0
    3.7344    3.9581   10.0903 H   0  0  0  0  0  0  0  0  0  0  0  0
    1.3219    4.2943    5.5850 H   0  0  0  0  0  0  0  0  0  0  0  0
    1.8845    3.0317    7.6507 H   0  0  0  0  0  0  0  0  0  0  0  0
    0.8661    0.6617    3.4172 H   0  0  0  0  0  0  0  0  0  0  0  0
    0.8750    3.1239    3.4805 H   0  0  0  0  0  0  0  0  0  0  0  0
    2.8294    0.4662    8.4008 H   0  0  0  0  0  0  0  0  0  0  0  0
    2.6825   -1.8913    7.5635 H   0  0  0  0  0  0  0  0  0  0  0  0
    6.3695   -0.7724    1.1847 H   0  0  0  0  0  0  0  0  0  0  0  0
    7.1515    1.9719    4.1686 H   0  0  0  0  0  0  0  0  0  0  0  0
    3.2534    0.3148    3.8525 H   0  0  0  0  0  0  0  0  0  0  0  0
    2.0291   -0.9532    2.4683 H   0  0  0  0  0  0  0  0  0  0  0  0
    2.2758   -2.5472    1.8401 H   0  0  0  0  0  0  0  0  0  0  0  0
    0.7193   -1.8519    4.1317 H   0  0  0  0  0  0  0  0  0  0  0  0
    1.2541   -2.9693    5.3694 H   0  0  0  0  0  0  0  0  0  0  0  0
    4.8485   -2.3405    3.9496 H   0  0  0  0  0  0  0  0  0  0  0  0
    4.1400   -1.4321    5.0796 H   0  0  0  0  0  0  0  0  0  0  0  0
  1  2  2  0  0  0  0
  1 21  1  0  0  0  0
  1 30  1  0  0  0  0
  2  3  1  0  0  0  0
  2 31  1  0  0  0  0
  3  4  2  0  0  0  0
  3  5  1  0  0  0  0
  4  8  1  0  0  0  0
  4 32  1  0  0  0  0
  5  6  2  0  0  0  0
  5 33  1  0  0  0  0
  6  7  1  0  0  0  0
  6 34  1  0  0  0  0
  7  8  2  0  0  0  0
  8 35  1  0  0  0  0
  9 10  2  0  0  0  0
  9 14  1  0  0  0  0
  9 36  1  0  0  0  0
 10 11  1  0  0  0  0
 10 37  1  0  0  0  0
 11 12  2  0  0  0  0
 11 15  1  0  0  0  0
 12 13  1  0  0  0  0
 12 17  1  0  0  0  0
 13 14  2  0  0  0  0
 13 38  1  0  0  0  0
 14 39  1  0  0  0  0
 15 16  1  0  0  0  0
 15 40  1  0  0  0  0
 16 17  2  0  0  0  0
 16 41  1  0  0  0  0
 17 27  1  0  0  0  0
 18 19  1  0  0  0  0
 18 23  2  0  0  0  0
 18 42  1  0  0  0  0
 19 20  2  0  0  0  0
 20 21  1  0  0  0  0
 20 43  1  0  0  0  0
 21 22  2  0  0  0  0
 22 23  1  0  0  0  0
 22 44  1  0  0  0  0
 23 24  1  0  0  0  0
 24 25  1  0  0  0  0
 25 45  1  0  0  0  0
 25 46  1  0  0  0  0
 26 28  1  0  0  0  0
 26 29  1  6  0  0  0
 26 27  1  0  0  0  0
 26 25  1  0  0  0  0
 27 47  1  0  0  0  0
 27 48  1  0  0  0  0
 28 49  1  0  0  0  0
 28 50  1  0  0  0  0
M  END
>  <DRUGBANK_ID>
DB07107

>  <COMMON_NAME>
(1S)-2-(1H-INDOL-3-YL)-1-[({5-[(E)-2-PYRIDIN-4-YLVINYL]PYRIDIN-3-YL}OXY)METHYL]ETHYLAMINE

$$$$
