
 OpenBabel10282417183D

 49 50  0  0  0  0  0  0  0  0999 V2000
    1.0990    0.0049    0.0292 C   0  0  0  0  0  0  0  0  0  0  0  0
   -6.0146    3.2108   -1.9852 C   0  0  0  0  0  0  0  0  0  0  0  0
   -5.3096    4.3671   -1.6826 C   0  0  0  0  0  0  0  0  0  0  0  0
   -5.3736    1.9757   -2.0493 C   0  0  0  0  0  0  0  0  0  0  0  0
   -1.6708    4.5837   -2.8583 C   0  0  0  0  0  0  0  0  0  0  0  0
   -4.0057    4.2449   -1.2274 C   0  0  0  0  0  0  0  0  0  0  0  0
   -4.0346    1.8786   -1.7730 C   0  0  0  0  0  0  0  0  0  0  0  0
   -0.6722    4.3216   -3.8996 C   0  0  0  0  0  0  0  0  0  0  0  0
   -1.9469    2.6437   -0.8747 C   0  0  0  0  0  0  0  0  0  0  0  0
   -1.2855    3.2808    0.5063 C   0  0  0  0  0  0  0  0  0  0  0  0
   -0.7871    4.7621   -1.5831 C   0  0  0  0  0  0  0  0  0  0  0  0
    0.5705    1.4227    0.3639 C   0  0  1  0  0  0  0  0  0  0  0  0
   -3.3697    2.9793   -1.2437 C   0  0  0  0  0  0  0  0  0  0  0  0
   -1.4882    2.2391    1.5183 C   0  0  1  0  0  0  0  0  0  0  0  0
    0.5581    3.6540   -3.1602 C   0  0  1  0  0  0  0  0  0  0  0  0
    1.0291    2.5653   -0.9149 C   0  0  0  0  0  0  0  0  0  0  0  0
   -3.0077    2.3404    1.6874 C   0  0  0  0  0  0  0  0  0  0  0  0
    1.6768    4.6447   -3.3979 C   0  0  0  0  0  0  0  0  0  0  0  0
   -0.8226    1.1023    0.8763 N   0  0  0  0  0  0  0  0  0  0  0  0
    0.3307    3.6449   -1.6877 N   0  0  0  0  0  0  0  0  0  0  0  0
    2.2455    2.4059   -1.1758 O   0  0  0  0  0  0  0  0  0  0  0  0
   -3.5559    3.3055    2.1945 O   0  0  0  0  0  0  0  0  0  0  0  0
   -3.7414    1.5025    0.9312 O   0  0  0  0  0  0  0  0  0  0  0  0
    1.6132    5.6408   -4.0648 O   0  0  0  0  0  0  0  0  0  0  0  0
    2.7742    4.3772   -2.6727 O   0  0  0  0  0  0  0  0  0  0  0  0
    1.1198    1.7396    1.2631 H   0  0  0  0  0  0  0  0  0  0  0  0
   -1.0097    2.4854    2.4649 H   0  0  0  0  0  0  0  0  0  0  0  0
    0.7362    2.6350   -3.5155 H   0  0  0  0  0  0  0  0  0  0  0  0
    0.7372   -0.3331   -0.9475 H   0  0  0  0  0  0  0  0  0  0  0  0
    0.7661   -0.7412    0.7710 H   0  0  0  0  0  0  0  0  0  0  0  0
    2.1918   -0.0352    0.0318 H   0  0  0  0  0  0  0  0  0  0  0  0
   -7.0819    3.2665   -2.1524 H   0  0  0  0  0  0  0  0  0  0  0  0
   -5.7784    5.3463   -1.7708 H   0  0  0  0  0  0  0  0  0  0  0  0
   -5.9061    1.0618   -2.2687 H   0  0  0  0  0  0  0  0  0  0  0  0
   -2.2778    3.6796   -3.0127 H   0  0  0  0  0  0  0  0  0  0  0  0
   -2.4158    5.3690   -3.0028 H   0  0  0  0  0  0  0  0  0  0  0  0
   -3.5140    5.1810   -0.9594 H   0  0  0  0  0  0  0  0  0  0  0  0
   -3.5184    0.9207   -1.8321 H   0  0  0  0  0  0  0  0  0  0  0  0
   -1.1139    3.6822   -4.6764 H   0  0  0  0  0  0  0  0  0  0  0  0
   -0.5537    5.3272   -4.2956 H   0  0  0  0  0  0  0  0  0  0  0  0
   -1.3918    2.7430   -1.7840 H   0  0  0  0  0  0  0  0  0  0  0  0
   -1.7245    1.5892   -1.0832 H   0  0  0  0  0  0  0  0  0  0  0  0
   -1.6691    4.2419    0.8723 H   0  0  0  0  0  0  0  0  0  0  0  0
   -0.2099    3.5476    0.5333 H   0  0  0  0  0  0  0  0  0  0  0  0
   -0.3205    5.7371   -1.4407 H   0  0  0  0  0  0  0  0  0  0  0  0
   -1.4972    4.8112   -0.7838 H   0  0  0  0  0  0  0  0  0  0  0  0
   -1.3784    0.6274    0.1701 H   0  0  0  0  0  0  0  0  0  0  0  0
   -4.4986    2.0814    0.6507 H   0  0  0  0  0  0  0  0  0  0  0  0
    3.3061    5.1858   -2.7046 H   0  0  0  0  0  0  0  0  0  0  0  0
  1 29  1  0  0  0  0
  1 30  1  0  0  0  0
  1 31  1  0  0  0  0
  2 32  1  0  0  0  0
  3  2  2  0  0  0  0
  3 33  1  0  0  0  0
  4  2  1  0  0  0  0
  4 34  1  0  0  0  0
  5 35  1  0  0  0  0
  5 36  1  0  0  0  0
  6  3  1  0  0  0  0
  6 37  1  0  0  0  0
  7  4  2  0  0  0  0
  7 38  1  0  0  0  0
  8  5  1  0  0  0  0
  8 39  1  0  0  0  0
  8 40  1  0  0  0  0
  9 41  1  0  0  0  0
  9 42  1  0  0  0  0
 10  9  1  0  0  0  0
 10 43  1  0  0  0  0
 10 44  1  0  0  0  0
 11  5  1  0  0  0  0
 11 45  1  0  0  0  0
 11 46  1  0  0  0  0
 12  1  1  0  0  0  0
 12 26  1  1  0  0  0
 13  6  2  0  0  0  0
 13  7  1  0  0  0  0
 13  9  1  0  0  0  0
 14 10  1  0  0  0  0
 14 19  1  0  0  0  0
 14 27  1  1  0  0  0
 15  8  1  0  0  0  0
 15 28  1  6  0  0  0
 15 18  1  0  0  0  0
 16 12  1  0  0  0  0
 17 14  1  0  0  0  0
 19 12  1  0  0  0  0
 19 47  1  0  0  0  0
 20 11  1  0  0  0  0
 20 15  1  0  0  0  0
 20 16  1  0  0  0  0
 21 16  2  0  0  0  0
 22 17  2  0  0  0  0
 23 17  1  0  0  0  0
 23 48  1  0  0  0  0
 24 18  2  0  0  0  0
 25 18  1  0  0  0  0
 25 49  1  0  0  0  0
M  END
>  <DRUGBANK_ID>
DB09477

>  <COMMON_NAME>
Enalaprilat

>  <CAS_NUMBER>
76420-72-9

>  <UNII>
Q508Q118JM

>  <SYNONYMS>
Enalaprilat; Enalaprilat anhydrous

$$$$
