
 OpenBabel10282417233D

 72 76  0  0  1  0  0  0  0  0999 V2000
    3.1229    0.0160    0.0223 H   0  0  0  0  0  0  0  0  0  0  0  0
    3.9202    0.6448   -0.3946 C   0  0  1  0  0  0  0  0  0  0  0  0
    5.1028   -0.2889   -0.6638 C   0  0  0  0  0  0  0  0  0  0  0  0
    5.7284   -0.7814    0.6552 C   0  0  0  0  0  0  0  0  0  0  0  0
    6.2104    0.3886    1.5424 C   0  0  2  0  0  0  0  0  0  0  0  0
    6.7358   -0.1256    2.7707 O   0  0  0  0  0  0  0  0  0  0  0  0
    5.0115    1.2399    1.8911 C   0  0  0  0  0  0  0  0  0  0  0  0
    4.2745    1.6899    0.6629 C   0  0  0  0  0  0  0  0  0  0  0  0
    7.2942    1.1866    0.8210 C   0  0  0  0  0  0  0  0  0  0  0  0
    8.4665    0.5411    0.4600 C   0  0  0  0  0  0  0  0  0  0  0  0
    9.3868    1.2167   -0.3267 C   0  0  0  0  0  0  0  0  0  0  0  0
    9.1314    2.5267   -0.7415 C   0  0  0  0  0  0  0  0  0  0  0  0
    7.9310    3.0920   -0.3490 C   0  0  0  0  0  0  0  0  0  0  0  0
    7.0255    2.4595    0.4247 N   0  0  0  0  0  0  0  0  0  0  0  0
   10.0853    3.2862   -1.5179 C   0  0  0  0  0  0  0  0  0  0  0  0
   10.5238    4.4398   -0.9802 N   0  0  0  0  0  0  0  0  0  0  0  0
   11.4531    5.1017   -1.6863 C   0  0  0  0  0  0  0  0  0  0  0  0
   11.9213    4.6721   -2.9049 C   0  0  0  0  0  0  0  0  0  0  0  0
   11.3843    3.4957   -3.3740 C   0  0  0  0  0  0  0  0  0  0  0  0
   10.4784    2.7723   -2.6962 N   0  0  0  0  0  0  0  0  0  0  0  0
    3.3924    1.2799   -1.6398 N   0  0  0  0  0  0  0  0  0  0  0  0
    2.1432    2.0208   -1.3488 C   0  0  1  0  0  0  0  0  0  0  0  0
    2.3308    3.3094   -0.5355 C   0  0  0  0  0  0  0  0  0  0  0  0
    0.9813    3.9247   -0.5472 C   0  0  0  0  0  0  0  0  0  0  0  0
    0.5548    3.7450   -1.8927 N   0  0  0  0  0  0  0  0  0  0  0  0
    1.1694    2.5301   -2.4645 C   0  0  0  0  0  0  0  0  0  0  0  0
   -0.2128    4.6548   -2.5795 C   0  0  0  0  0  0  0  0  0  0  0  0
   -0.4533    4.5288   -3.7789 O   0  0  0  0  0  0  0  0  0  0  0  0
   -0.6234    5.9408   -1.8270 C   0  0  0  0  0  0  0  0  0  0  0  0
   -1.3904    5.7559   -0.5896 N   0  0  0  0  0  0  0  0  0  0  0  0
   -1.0649    6.0741    0.7154 C   0  0  0  0  0  0  0  0  0  0  0  0
   -1.7465    5.6749    1.6423 O   0  0  0  0  0  0  0  0  0  0  0  0
    0.1423    6.8973    0.9967 C   0  0  0  0  0  0  0  0  0  0  0  0
    0.4100    8.0255    0.2238 C   0  0  0  0  0  0  0  0  0  0  0  0
    1.5611    8.7889    0.4406 C   0  0  0  0  0  0  0  0  0  0  0  0
    2.4116    8.4487    1.5006 C   0  0  0  0  0  0  0  0  0  0  0  0
    2.1157    7.3569    2.3204 C   0  0  0  0  0  0  0  0  0  0  0  0
    1.0044    6.5544    2.0455 C   0  0  0  0  0  0  0  0  0  0  0  0
    1.8321    9.9893   -0.4250 C   0  0  0  0  0  0  0  0  0  0  0  0
    1.8097   11.1461    0.2870 F   0  0  0  0  0  0  0  0  0  0  0  0
    3.0440    9.9360   -1.0391 F   0  0  0  0  0  0  0  0  0  0  0  0
    0.9161   10.1430   -1.4229 F   0  0  0  0  0  0  0  0  0  0  0  0
    5.8617    0.2253   -1.2643 H   0  0  0  0  0  0  0  0  0  0  0  0
    4.7719   -1.1534   -1.2508 H   0  0  0  0  0  0  0  0  0  0  0  0
    6.5558   -1.4653    0.4392 H   0  0  0  0  0  0  0  0  0  0  0  0
    4.9988   -1.3855    1.2136 H   0  0  0  0  0  0  0  0  0  0  0  0
    5.9827   -0.4114    3.3156 H   0  0  0  0  0  0  0  0  0  0  0  0
    4.3012    0.6708    2.5077 H   0  0  0  0  0  0  0  0  0  0  0  0
    5.2758    2.1159    2.4999 H   0  0  0  0  0  0  0  0  0  0  0  0
    4.7542    2.5536    0.1870 H   0  0  0  0  0  0  0  0  0  0  0  0
    3.3613    1.9932    1.1444 H   0  0  0  0  0  0  0  0  0  0  0  0
    8.6411   -0.4833    0.7691 H   0  0  0  0  0  0  0  0  0  0  0  0
   10.3098    0.7195   -0.6073 H   0  0  0  0  0  0  0  0  0  0  0  0
    7.6464    4.0927   -0.6688 H   0  0  0  0  0  0  0  0  0  0  0  0
   11.8207    6.0137   -1.2261 H   0  0  0  0  0  0  0  0  0  0  0  0
   12.6649    5.2248   -3.4595 H   0  0  0  0  0  0  0  0  0  0  0  0
   11.6761    3.0847   -4.3353 H   0  0  0  0  0  0  0  0  0  0  0  0
    4.1141    1.8932   -2.0313 H   0  0  0  0  0  0  0  0  0  0  0  0
    1.5322    1.2972   -0.7986 H   0  0  0  0  0  0  0  0  0  0  0  0
    3.0959    3.9603   -0.9751 H   0  0  0  0  0  0  0  0  0  0  0  0
    2.5077    3.2624    0.5263 H   0  0  0  0  0  0  0  0  0  0  0  0
    0.2997    3.3900    0.1267 H   0  0  0  0  0  0  0  0  0  0  0  0
    1.0964    4.9534   -0.2416 H   0  0  0  0  0  0  0  0  0  0  0  0
    1.6278    2.7564   -3.4305 H   0  0  0  0  0  0  0  0  0  0  0  0
    0.3606    1.8048   -2.6042 H   0  0  0  0  0  0  0  0  0  0  0  0
    0.3098    6.4751   -1.6423 H   0  0  0  0  0  0  0  0  0  0  0  0
   -1.2354    6.5663   -2.4821 H   0  0  0  0  0  0  0  0  0  0  0  0
   -2.2505    5.2233   -0.6664 H   0  0  0  0  0  0  0  0  0  0  0  0
   -0.2769    8.3099   -0.5711 H   0  0  0  0  0  0  0  0  0  0  0  0
    3.2971    9.0505    1.7031 H   0  0  0  0  0  0  0  0  0  0  0  0
    2.7455    7.1431    3.1820 H   0  0  0  0  0  0  0  0  0  0  0  0
    0.8229    5.6623    2.6420 H   0  0  0  0  0  0  0  0  0  0  0  0
  2  1  1  1  0  0  0
  2  3  1  0  0  0  0
  2  8  1  0  0  0  0
  2 21  1  0  0  0  0
  3  4  1  0  0  0  0
  3 43  1  0  0  0  0
  3 44  1  0  0  0  0
  4 45  1  0  0  0  0
  4 46  1  0  0  0  0
  5  4  1  0  0  0  0
  5  6  1  1  0  0  0
  5  7  1  0  0  0  0
  5  9  1  0  0  0  0
  6 47  1  0  0  0  0
  7  8  1  0  0  0  0
  7 48  1  0  0  0  0
  7 49  1  0  0  0  0
  8 50  1  0  0  0  0
  8 51  1  0  0  0  0
  9 10  2  0  0  0  0
  9 14  1  0  0  0  0
 10 11  1  0  0  0  0
 10 52  1  0  0  0  0
 11 12  2  0  0  0  0
 11 53  1  0  0  0  0
 12 13  1  0  0  0  0
 12 15  1  0  0  0  0
 13 14  2  0  0  0  0
 13 54  1  0  0  0  0
 15 16  2  0  0  0  0
 15 20  1  0  0  0  0
 16 17  1  0  0  0  0
 17 18  2  0  0  0  0
 17 55  1  0  0  0  0
 18 19  1  0  0  0  0
 18 56  1  0  0  0  0
 19 20  2  0  0  0  0
 19 57  1  0  0  0  0
 21 58  1  0  0  0  0
 22 23  1  0  0  0  0
 22 26  1  0  0  0  0
 22 59  1  1  0  0  0
 22 21  1  0  0  0  0
 23 24  1  0  0  0  0
 23 60  1  0  0  0  0
 23 61  1  0  0  0  0
 24 25  1  0  0  0  0
 24 62  1  0  0  0  0
 24 63  1  0  0  0  0
 25 26  1  0  0  0  0
 25 27  1  0  0  0  0
 26 64  1  0  0  0  0
 26 65  1  0  0  0  0
 27 28  2  0  0  0  0
 27 29  1  0  0  0  0
 29 30  1  0  0  0  0
 29 66  1  0  0  0  0
 29 67  1  0  0  0  0
 30 31  1  0  0  0  0
 30 68  1  0  0  0  0
 31 32  2  0  0  0  0
 31 33  1  0  0  0  0
 33 34  2  0  0  0  0
 33 38  1  0  0  0  0
 34 35  1  0  0  0  0
 34 69  1  0  0  0  0
 35 36  2  0  0  0  0
 35 39  1  0  0  0  0
 36 37  1  0  0  0  0
 36 70  1  0  0  0  0
 37 38  2  0  0  0  0
 37 71  1  0  0  0  0
 38 72  1  0  0  0  0
 39 40  1  0  0  0  0
 39 41  1  0  0  0  0
 39 42  1  0  0  0  0
M  END
>  <DRUGBANK_ID>
DB17200

>  <COMMON_NAME>
PF-4136309

>  <CAS_NUMBER>
1341224-83-6

>  <UNII>
3M2595V4KT

>  <SYNONYMS>
Benzamide, n-(2-((3s)-3-((trans-4-hydroxy-4-(5-(2-pyrimidinyl)- 2-pyridinyl)cyclohexyl)amino)-1-pyrrolidinyl)-2-oxoethyl)-3-(trifluoromethyl)-; N-(2-((3s)-3-((trans-4-hydroxy-4-(5-(pyrimidin-2-yl)pyridin-2- yl)cyclohexyl)amino)pyrrolidin-1-yl)-2-oxoethyl)-3-(trifluoromethyl)benzamide

$$$$
