
 OpenBabel10282417233D

 71 73  0  0  0  0  0  0  0  0999 V2000
    1.1052   -1.2627   -0.2854 C   0  0  0  0  0  0  0  0  0  0  0  0
    0.4047   -1.0020    1.2359 C   0  0  0  0  0  0  0  0  0  0  0  0
    0.0200    0.5217    2.2893 C   0  0  0  0  0  0  0  0  0  0  0  0
   -0.0865    2.0672    2.2970 C   0  0  0  0  0  0  0  0  0  0  0  0
   -1.4324    2.3018    2.2356 C   0  0  0  0  0  0  0  0  0  0  0  0
   -2.4021    1.2739    2.2757 O   0  0  0  0  0  0  0  0  0  0  0  0
   -2.3172   -0.2158    2.1652 C   0  0  0  0  0  0  0  0  0  0  0  0
   -1.6893    3.6516    1.9731 C   0  0  0  0  0  0  0  0  0  0  0  0
   -0.6526    4.6860    1.9069 C   0  0  0  0  0  0  0  0  0  0  0  0
    0.6865    4.4686    2.2330 C   0  0  0  0  0  0  0  0  0  0  0  0
    1.0553    3.1568    2.4537 C   0  0  0  0  0  0  0  0  0  0  0  0
    2.4006    3.1569    2.9229 O   0  0  0  0  0  0  0  0  0  0  0  0
    3.4446    2.1481    2.9916 C   0  0  0  0  0  0  0  0  0  0  0  0
    3.3000    1.0229    4.0165 C   0  0  0  0  0  0  0  0  0  0  0  0
    1.9669    0.5057    3.8293 C   0  0  0  0  0  0  0  0  0  0  0  0
    2.1776   -0.0154    2.2138 O   0  0  0  0  0  0  0  0  0  0  0  0
    1.9300    0.8915    0.8047 C   0  0  0  0  0  0  0  0  0  0  0  0
    3.2126    0.7784    0.3757 C   0  0  0  0  0  0  0  0  0  0  0  0
    3.4679    1.5505   -0.6936 C   0  0  0  0  0  0  0  0  0  0  0  0
    2.4656    1.9093   -1.6224 C   0  0  0  0  0  0  0  0  0  0  0  0
    2.8535    2.4854   -2.9118 C   0  0  0  0  0  0  0  0  0  0  0  0
    2.6354    1.3668   -3.9003 C   0  0  0  0  0  0  0  0  0  0  0  0
    1.2795    0.6534   -3.7311 C   0  0  3  0  0  0  0  0  0  0  0  0
    0.4450    1.3079   -2.7601 O   0  0  0  0  0  0  0  0  0  0  0  0
    1.1299    1.5784   -1.5477 C   0  0  0  0  0  0  0  0  0  0  0  0
    0.6808    1.2569   -0.2752 C   0  0  0  0  0  0  0  0  0  0  0  0
   -0.8852    0.9019   -0.4337 C   0  0  0  0  0  0  0  0  0  0  0  0
   -1.9095    1.9998   -0.7391 C   0  0  0  0  0  0  0  0  0  0  0  0
   -1.8056    2.5835   -2.0933 C   0  0  0  0  0  0  0  0  0  0  0  0
    0.9582    0.0041   -5.1585 C   0  0  0  0  0  0  0  0  0  0  0  0
    0.4530   -1.2706   -5.0451 O   0  0  0  0  0  0  0  0  0  0  0  0
    1.2766    0.4382   -6.2278 O   0  0  0  0  0  0  0  0  0  0  0  0
   -3.0783    3.9066    1.5026 C   0  0  0  0  0  0  0  0  0  0  0  0
   -3.4737    5.2881    1.1281 C   0  0  0  0  0  0  0  0  0  0  0  0
   -3.8951    3.0230    1.3747 O   0  0  0  0  0  0  0  0  0  0  0  0
    1.5616   -0.4760   -0.8639 H   0  0  0  0  0  0  0  0  0  0  0  0
    0.3735   -1.5175   -1.0556 H   0  0  0  0  0  0  0  0  0  0  0  0
    2.0690   -1.7894   -0.2677 H   0  0  0  0  0  0  0  0  0  0  0  0
   -0.5033   -1.5719    1.1885 H   0  0  0  0  0  0  0  0  0  0  0  0
    0.9962   -1.6870    1.8651 H   0  0  0  0  0  0  0  0  0  0  0  0
   -0.2599    0.2002    3.2928 H   0  0  0  0  0  0  0  0  0  0  0  0
    0.8961    1.0215    2.4526 H   0  0  0  0  0  0  0  0  0  0  0  0
   -2.0022   -0.6139    1.1933 H   0  0  0  0  0  0  0  0  0  0  0  0
   -1.7427   -0.7281    2.9535 H   0  0  0  0  0  0  0  0  0  0  0  0
   -3.2885   -0.6940    2.1470 H   0  0  0  0  0  0  0  0  0  0  0  0
   -0.8599    5.7051    1.5860 H   0  0  0  0  0  0  0  0  0  0  0  0
    1.3974    5.3004    2.3095 H   0  0  0  0  0  0  0  0  0  0  0  0
    3.6302    1.9237    1.9760 H   0  0  0  0  0  0  0  0  0  0  0  0
    4.4807    2.4816    3.1411 H   0  0  0  0  0  0  0  0  0  0  0  0
    3.9121    0.1398    3.8251 H   0  0  0  0  0  0  0  0  0  0  0  0
    3.4404    1.3925    5.0298 H   0  0  0  0  0  0  0  0  0  0  0  0
    1.5408   -0.3066    4.4539 H   0  0  0  0  0  0  0  0  0  0  0  0
    1.2942    1.3673    4.1004 H   0  0  0  0  0  0  0  0  0  0  0  0
    3.9345    0.2702    1.0069 H   0  0  0  0  0  0  0  0  0  0  0  0
    4.4972    1.8235   -0.8334 H   0  0  0  0  0  0  0  0  0  0  0  0
    2.2146    3.3570   -3.0910 H   0  0  0  0  0  0  0  0  0  0  0  0
    3.8917    2.7932   -2.8366 H   0  0  0  0  0  0  0  0  0  0  0  0
    2.8254    1.7632   -4.8973 H   0  0  0  0  0  0  0  0  0  0  0  0
    3.3681    0.5680   -3.7324 H   0  0  0  0  0  0  0  0  0  0  0  0
    1.4862   -0.2773   -3.2001 H   0  0  0  0  0  0  0  0  0  0  0  0
   -1.1593    0.0020   -1.0197 H   0  0  0  0  0  0  0  0  0  0  0  0
   -1.2050    0.6690    0.5214 H   0  0  0  0  0  0  0  0  0  0  0  0
   -2.9500    1.7014   -0.5096 H   0  0  0  0  0  0  0  0  0  0  0  0
   -1.6432    2.8270   -0.1179 H   0  0  0  0  0  0  0  0  0  0  0  0
   -1.9927    1.7992   -2.8249 H   0  0  0  0  0  0  0  0  0  0  0  0
   -2.4634    3.4399   -2.2161 H   0  0  0  0  0  0  0  0  0  0  0  0
   -0.8054    3.0039   -2.1539 H   0  0  0  0  0  0  0  0  0  0  0  0
    0.2912   -1.5708   -4.1359 H   0  0  0  0  0  0  0  0  0  0  0  0
   -3.8067    5.2670    0.0885 H   0  0  0  0  0  0  0  0  0  0  0  0
   -4.2786    5.5255    1.8190 H   0  0  0  0  0  0  0  0  0  0  0  0
   -2.6962    6.0323    1.2265 H   0  0  0  0  0  0  0  0  0  0  0  0
  1  2  1  0  0  0  0
  1 36  1  0  0  0  0
  1 37  1  0  0  0  0
  1 38  1  0  0  0  0
  2  3  1  0  0  0  0
  2 39  1  0  0  0  0
  2 40  1  0  0  0  0
  3  4  1  0  0  0  0
  3 41  1  0  0  0  0
  3 42  1  0  0  0  0
  4  5  2  0  0  0  0
  4 11  1  0  0  0  0
  5  6  1  0  0  0  0
  5  8  1  0  0  0  0
  6  7  1  0  0  0  0
  7 43  1  0  0  0  0
  7 44  1  0  0  0  0
  7 45  1  0  0  0  0
  8  9  2  0  0  0  0
  8 33  1  0  0  0  0
  9 10  1  0  0  0  0
  9 46  1  0  0  0  0
 10 11  2  0  0  0  0
 10 47  1  0  0  0  0
 11 12  1  0  0  0  0
 12 13  1  0  0  0  0
 13 14  1  0  0  0  0
 13 48  1  0  0  0  0
 13 49  1  0  0  0  0
 14 15  1  0  0  0  0
 14 50  1  0  0  0  0
 14 51  1  0  0  0  0
 15 16  1  0  0  0  0
 15 52  1  0  0  0  0
 15 53  1  0  0  0  0
 16 17  1  0  0  0  0
 17 18  2  0  0  0  0
 17 26  1  0  0  0  0
 18 19  1  0  0  0  0
 18 54  1  0  0  0  0
 19 20  2  0  0  0  0
 19 55  1  0  0  0  0
 20 21  1  0  0  0  0
 20 25  1  0  0  0  0
 21 22  1  0  0  0  0
 21 56  1  0  0  0  0
 21 57  1  0  0  0  0
 22 23  1  0  0  0  0
 22 58  1  0  0  0  0
 22 59  1  0  0  0  0
 23 24  1  0  0  0  0
 23 30  1  0  0  0  0
 23 60  1  0  0  0  0
 24 25  1  0  0  0  0
 25 26  2  0  0  0  0
 26 27  1  0  0  0  0
 27 28  1  0  0  0  0
 27 61  1  0  0  0  0
 27 62  1  0  0  0  0
 28 29  1  0  0  0  0
 28 63  1  0  0  0  0
 28 64  1  0  0  0  0
 29 65  1  0  0  0  0
 29 66  1  0  0  0  0
 29 67  1  0  0  0  0
 30 31  1  0  0  0  0
 30 32  2  0  0  0  0
 31 68  1  0  0  0  0
 33 34  1  0  0  0  0
 33 35  2  0  0  0  0
 34 69  1  0  0  0  0
 34 70  1  0  0  0  0
 34 71  1  0  0  0  0
M  END
>  <DRUGBANK_ID>
DB17101

>  <COMMON_NAME>
SC 41930

>  <CAS_NUMBER>
120072-59-5

>  <UNII>
EVH7O0422T

>  <SYNONYMS>
(+/-)-7-(3-(4-acetyl-3-methoxy-2-propylphenoxy)propoxy)-3,4-dihydro-8-propyl-2h-1-benzopyran-2-carboxylic acid; 2h-1-benzopyran-2-carboxylic acid, 7-(3-(4-acetyl-3-methoxy-2-propylphenoxy)propoxy)-3,4-dihydro-8-propyl-; 7-(3-(4-acetyl-3-methoxy-2-propyl-phenoxy)propoxyl-3,4-dihydro-8-propyl-2h-1-benzopyran-2-carboxylic acid

$$$$
