L02
 OpenBabel10282417173D

 34 36  0  0  0  0  0  0  0  0999 V2000
   -0.2377   -1.0057   -0.1245 N   0  0  0  0  0  0  0  0  0  0  0  0
   -1.1312    0.0011   -0.0183 N   0  0  0  0  0  0  0  0  0  0  0  0
   -0.3965    1.1122   -0.1104 C   0  0  0  0  0  0  0  0  0  0  0  0
    0.9767    0.7897   -0.2709 C   0  0  0  0  0  0  0  0  0  0  0  0
    1.0729   -0.5818   -0.2102 C   0  0  0  0  0  0  0  0  0  0  0  0
    2.2288   -1.5112    0.0991 C   0  0  0  0  0  0  0  0  0  0  0  0
    2.8766   -1.0091    1.4008 C   0  0  0  0  0  0  0  0  0  0  0  0
    3.8966    0.1053    1.1492 C   0  0  0  0  0  0  0  0  0  0  0  0
    4.9464   -0.3365    0.2372 N   0  0  0  0  0  0  0  0  0  0  0  0
    4.3818   -0.6794   -1.0697 C   0  0  0  0  0  0  0  0  0  0  0  0
    3.3209   -1.7735   -0.9523 C   0  0  0  0  0  0  0  0  0  0  0  0
   -1.7335    2.9015    1.0274 C   0  0  0  0  0  0  0  0  0  0  0  0
   -0.9391    2.4642   -0.0412 C   0  0  0  0  0  0  0  0  0  0  0  0
   -0.5925    3.3702   -1.0537 C   0  0  0  0  0  0  0  0  0  0  0  0
   -1.0414    4.6898   -1.0148 C   0  0  0  0  0  0  0  0  0  0  0  0
   -1.8337    5.1152    0.0477 C   0  0  0  0  0  0  0  0  0  0  0  0
   -2.1797    4.2306    1.0701 C   0  0  0  0  0  0  0  0  0  0  0  0
   -2.3814    6.7458    0.0937 Cl  0  0  0  0  0  0  0  0  0  0  0  0
   -0.5770   -1.9501   -0.0163 H   0  0  0  0  0  0  0  0  0  0  0  0
    1.7746    1.5168   -0.2657 H   0  0  0  0  0  0  0  0  0  0  0  0
    1.7746   -2.4942    0.2912 H   0  0  0  0  0  0  0  0  0  0  0  0
    2.1045   -0.6445    2.0907 H   0  0  0  0  0  0  0  0  0  0  0  0
    3.3700   -1.8502    1.9004 H   0  0  0  0  0  0  0  0  0  0  0  0
    3.4395    1.0061    0.7356 H   0  0  0  0  0  0  0  0  0  0  0  0
    4.3303    0.4157    2.1036 H   0  0  0  0  0  0  0  0  0  0  0  0
    5.6245    0.4173    0.1209 H   0  0  0  0  0  0  0  0  0  0  0  0
    5.2032   -1.0415   -1.7016 H   0  0  0  0  0  0  0  0  0  0  0  0
    3.9684    0.2062   -1.5635 H   0  0  0  0  0  0  0  0  0  0  0  0
    3.8582   -2.6798   -0.6245 H   0  0  0  0  0  0  0  0  0  0  0  0
    2.9111   -2.0165   -1.9385 H   0  0  0  0  0  0  0  0  0  0  0  0
   -1.9942    2.2227    1.8368 H   0  0  0  0  0  0  0  0  0  0  0  0
    0.0285    3.0436   -1.8849 H   0  0  0  0  0  0  0  0  0  0  0  0
   -0.7695    5.3717   -1.8151 H   0  0  0  0  0  0  0  0  0  0  0  0
   -2.7938    4.5708    1.9005 H   0  0  0  0  0  0  0  0  0  0  0  0
  1  2  1  0  0  0  0
  1  5  1  0  0  0  0
  1 19  1  0  0  0  0
  2  3  2  0  0  0  0
  3  4  1  0  0  0  0
  3 13  1  0  0  0  0
  4  5  2  0  0  0  0
  4 20  1  0  0  0  0
  5  6  1  0  0  0  0
  6  7  1  0  0  0  0
  6 11  1  0  0  0  0
  6 21  1  0  0  0  0
  7  8  1  0  0  0  0
  7 22  1  0  0  0  0
  7 23  1  0  0  0  0
  8  9  1  0  0  0  0
  8 24  1  0  0  0  0
  8 25  1  0  0  0  0
  9 10  1  0  0  0  0
  9 26  1  0  0  0  0
 10 11  1  0  0  0  0
 10 27  1  0  0  0  0
 10 28  1  0  0  0  0
 11 29  1  0  0  0  0
 11 30  1  0  0  0  0
 12 13  2  0  0  0  0
 12 17  1  0  0  0  0
 12 31  1  0  0  0  0
 13 14  1  0  0  0  0
 14 15  2  0  0  0  0
 14 32  1  0  0  0  0
 15 16  1  0  0  0  0
 15 33  1  0  0  0  0
 16 17  2  0  0  0  0
 16 18  1  0  0  0  0
 17 34  1  0  0  0  0
M  END
>  <DRUGBANK_ID>
DB08061

>  <COMMON_NAME>
4-[3-(4-CHLOROPHENYL)-1H-PYRAZOL-5-YL]PIPERIDINE

>  <UNII>
3M2B2SQW0I

$$$$
