
 OpenBabel10282417183D

 51 54  0  0  0  0  0  0  0  0999 V2000
    2.2081    0.0643   -0.0535 C   0  0  0  0  0  0  0  0  0  0  0  0
    0.7482   -0.1515   -0.1526 C   0  0  0  0  0  0  0  0  0  0  0  0
   -0.0578   -1.2769   -0.1323 C   0  0  0  0  0  0  0  0  0  0  0  0
   -1.3884   -0.7515   -0.0922 C   0  0  0  0  0  0  0  0  0  0  0  0
   -1.3657    0.5905   -0.0745 N   0  0  0  0  0  0  0  0  0  0  0  0
   -0.0333    0.9592   -0.1030 O   0  0  0  0  0  0  0  0  0  0  0  0
   -2.6367   -1.4990    0.0019 C   0  0  0  0  0  0  0  0  0  0  0  0
   -2.8969   -2.3672    1.0753 C   0  0  0  0  0  0  0  0  0  0  0  0
   -4.0321   -3.1753    1.0880 C   0  0  0  0  0  0  0  0  0  0  0  0
   -4.9395   -3.0740    0.0472 C   0  0  0  0  0  0  0  0  0  0  0  0
   -4.7255   -2.1874   -1.0038 C   0  0  0  0  0  0  0  0  0  0  0  0
   -3.5714   -1.4011   -1.0307 C   0  0  0  0  0  0  0  0  0  0  0  0
   -6.0390   -3.8370    0.0582 F   0  0  0  0  0  0  0  0  0  0  0  0
    0.3795   -2.6972    0.0198 C   0  0  0  0  0  0  0  0  0  0  0  0
   -0.0537   -3.4007    1.2088 O   0  0  0  0  0  0  0  0  0  0  0  0
    0.2896   -2.8956    2.4366 C   0  0  0  0  0  0  0  0  0  0  0  0
    0.2564   -1.5564    2.7289 C   0  0  0  0  0  0  0  0  0  0  0  0
    0.5065   -1.1119    4.0020 C   0  0  0  0  0  0  0  0  0  0  0  0
    0.7109   -1.9752    5.0448 C   0  0  0  0  0  0  0  0  0  0  0  0
    0.6985   -3.3183    4.6974 C   0  0  0  0  0  0  0  0  0  0  0  0
    0.4855   -3.7954    3.4215 N   0  0  0  0  0  0  0  0  0  0  0  0
    1.0544   -1.4606    6.4017 C   0  0  0  0  0  0  0  0  0  0  0  0
    1.4344   -2.2603    7.2506 O   0  0  0  0  0  0  0  0  0  0  0  0
    1.1371   -0.0673    6.5742 N   0  0  0  0  0  0  0  0  0  0  0  0
   -0.0002    0.8584    6.4277 C   0  0  0  0  0  0  0  0  0  0  0  0
    0.3063    1.9840    5.4480 C   0  0  0  0  0  0  0  0  0  0  0  0
    1.7549    2.8584    5.9571 S   0  0  0  0  0  0  0  0  0  0  0  0
    2.2121    3.6238    4.8074 O   0  0  0  0  0  0  0  0  0  0  0  0
    1.4686    3.5086    7.2151 O   0  0  0  0  0  0  0  0  0  0  0  0
    2.9267    1.5381    6.2282 C   0  0  0  0  0  0  0  0  0  0  0  0
    2.3398    0.5064    7.1772 C   0  0  0  0  0  0  0  0  0  0  0  0
    2.5735    0.6341   -0.9105 H   0  0  0  0  0  0  0  0  0  0  0  0
    2.4637    0.6062    0.8643 H   0  0  0  0  0  0  0  0  0  0  0  0
    2.7448   -0.8890   -0.0239 H   0  0  0  0  0  0  0  0  0  0  0  0
   -2.2255   -2.4478    1.9202 H   0  0  0  0  0  0  0  0  0  0  0  0
   -4.2015   -3.8787    1.8980 H   0  0  0  0  0  0  0  0  0  0  0  0
   -5.4538   -2.1217   -1.8040 H   0  0  0  0  0  0  0  0  0  0  0  0
   -3.3942   -0.7252   -1.8640 H   0  0  0  0  0  0  0  0  0  0  0  0
   -0.0254   -3.2514   -0.8366 H   0  0  0  0  0  0  0  0  0  0  0  0
    1.4683   -2.7877   -0.0433 H   0  0  0  0  0  0  0  0  0  0  0  0
   -0.0234   -0.7702    2.0605 H   0  0  0  0  0  0  0  0  0  0  0  0
    0.5194   -0.0578    4.1037 H   0  0  0  0  0  0  0  0  0  0  0  0
    0.8796   -4.0881    5.4418 H   0  0  0  0  0  0  0  0  0  0  0  0
   -0.2015    1.2849    7.4202 H   0  0  0  0  0  0  0  0  0  0  0  0
   -0.8974    0.3003    6.1413 H   0  0  0  0  0  0  0  0  0  0  0  0
   -0.5327    2.6714    5.3306 H   0  0  0  0  0  0  0  0  0  0  0  0
    0.5692    1.6578    4.4447 H   0  0  0  0  0  0  0  0  0  0  0  0
    3.1387    1.0898    5.2494 H   0  0  0  0  0  0  0  0  0  0  0  0
    3.8444    1.9842    6.6170 H   0  0  0  0  0  0  0  0  0  0  0  0
    2.0802    0.9530    8.1434 H   0  0  0  0  0  0  0  0  0  0  0  0
    3.0759   -0.2844    7.3568 H   0  0  0  0  0  0  0  0  0  0  0  0
  1  2  1  0  0  0  0
  1 32  1  0  0  0  0
  1 33  1  0  0  0  0
  1 34  1  0  0  0  0
  2  3  2  0  0  0  0
  2  6  1  0  0  0  0
  3  4  1  0  0  0  0
  3 14  1  0  0  0  0
  4  5  2  0  0  0  0
  4  7  1  0  0  0  0
  5  6  1  0  0  0  0
  7  8  2  0  0  0  0
  7 12  1  0  0  0  0
  8  9  1  0  0  0  0
  8 35  1  0  0  0  0
  9 10  2  0  0  0  0
  9 36  1  0  0  0  0
 10 11  1  0  0  0  0
 10 13  1  0  0  0  0
 11 12  2  0  0  0  0
 11 37  1  0  0  0  0
 12 38  1  0  0  0  0
 14 15  1  0  0  0  0
 14 39  1  0  0  0  0
 14 40  1  0  0  0  0
 15 16  1  0  0  0  0
 16 17  2  0  0  0  0
 16 21  1  0  0  0  0
 17 18  1  0  0  0  0
 17 41  1  0  0  0  0
 18 19  2  0  0  0  0
 18 42  1  0  0  0  0
 19 20  1  0  0  0  0
 19 22  1  0  0  0  0
 20 21  2  0  0  0  0
 20 43  1  0  0  0  0
 22 23  2  0  0  0  0
 22 24  1  0  0  0  0
 24 25  1  0  0  0  0
 24 31  1  0  0  0  0
 25 26  1  0  0  0  0
 25 44  1  0  0  0  0
 25 45  1  0  0  0  0
 26 27  1  0  0  0  0
 26 46  1  0  0  0  0
 26 47  1  0  0  0  0
 27 28  2  0  0  0  0
 27 29  2  0  0  0  0
 27 30  1  0  0  0  0
 30 31  1  0  0  0  0
 30 48  1  0  0  0  0
 30 49  1  0  0  0  0
 31 50  1  0  0  0  0
 31 51  1  0  0  0  0
M  END
>  <DRUGBANK_ID>
DB11877

>  <COMMON_NAME>
Basmisanil

>  <CAS_NUMBER>
1159600-41-5

>  <UNII>
788PET5SUA

>  <SYNONYMS>
Basmisanil

$$$$
