
 OpenBabel10282417173D

 18 19  0  0  0  0  0  0  0  0999 V2000
    2.4238   -0.6816   -0.0523 C   0  0  0  0  0  0  0  0  0  0  0  0
    2.4300    0.7086   -0.0168 C   0  0  0  0  0  0  0  0  0  0  0  0
    1.2211    1.3969    0.0772 C   0  0  0  0  0  0  0  0  0  0  0  0
   -0.0146    0.7073    0.0942 C   0  0  0  0  0  0  0  0  0  0  0  0
   -0.0200   -0.7138    0.0645 C   0  0  0  0  0  0  0  0  0  0  0  0
    1.2133   -1.3795    0.0044 C   0  0  0  0  0  0  0  0  0  0  0  0
   -1.2686    1.3475    0.0666 C   0  0  0  0  0  0  0  0  0  0  0  0
   -2.4314    0.6239   -0.1310 C   0  0  0  0  0  0  0  0  0  0  0  0
   -2.3431   -0.7482   -0.0803 C   0  0  0  0  0  0  0  0  0  0  0  0
   -1.1771   -1.4112    0.0461 N   0  0  0  0  0  0  0  0  0  0  0  0
    1.2043   -2.7599   -0.0418 O   0  0  0  0  0  0  0  0  0  0  0  0
    4.2586   -1.6676   -0.2252 I   0  0  0  0  0  0  0  0  0  0  0  0
    1.3673    3.5090    0.0698 I   0  0  0  0  0  0  0  0  0  0  0  0
    3.3658    1.2562   -0.0862 H   0  0  0  0  0  0  0  0  0  0  0  0
   -1.3580    2.4273    0.1513 H   0  0  0  0  0  0  0  0  0  0  0  0
   -3.3727    1.1224   -0.3254 H   0  0  0  0  0  0  0  0  0  0  0  0
   -3.2302   -1.3685   -0.1467 H   0  0  0  0  0  0  0  0  0  0  0  0
    2.1212   -3.0739   -0.1135 H   0  0  0  0  0  0  0  0  0  0  0  0
  1  2  2  0  0  0  0
  1  6  1  0  0  0  0
  1 12  1  0  0  0  0
  2  3  1  0  0  0  0
  2 14  1  0  0  0  0
  3  4  2  0  0  0  0
  3 13  1  0  0  0  0
  4  5  1  0  0  0  0
  4  7  1  0  0  0  0
  5  6  2  0  0  0  0
  5 10  1  0  0  0  0
  6 11  1  0  0  0  0
  7  8  2  0  0  0  0
  7 15  1  0  0  0  0
  8  9  1  0  0  0  0
  8 16  1  0  0  0  0
  9 10  2  0  0  0  0
  9 17  1  0  0  0  0
 11 18  1  0  0  0  0
M  END
>  <DRUGBANK_ID>
DB09115

>  <COMMON_NAME>
Diiodohydroxyquinoline

>  <CAS_NUMBER>
83-73-8

>  <UNII>
63W7IE88K8

>  <SYNONYMS>
Diiodohydroxyquin; Diiodohydroxyquinoline; Iodoquinol; Ioquin

$$$$
