766
 OpenBabel10282417113D

 23 24  0  0  1  0  0  0  0  0999 V2000
   -1.3787   -0.5620    0.2716 O   0  0  0  0  0  0  0  0  0  0  0  0
    2.3279    0.8205    1.0159 O   0  0  0  0  0  0  0  0  0  0  0  0
   -0.8481    3.1992   -2.0323 O   0  0  0  0  0  0  0  0  0  0  0  0
   -1.5709    1.1062   -2.3801 O   0  0  0  0  0  0  0  0  0  0  0  0
   -2.6352    0.7918    3.7681 O   0  0  0  0  0  0  0  0  0  0  0  0
    0.6394    0.4344   -0.5660 N   0  0  0  0  0  0  0  0  0  0  0  0
   -0.1043   -0.8302   -0.3923 C   0  0  1  0  0  0  0  0  0  0  0  0
   -0.2867    1.5265   -0.3295 C   0  0  2  0  0  0  0  0  0  0  0  0
    1.0513   -1.3274    0.4942 C   0  0  0  0  0  0  0  0  0  0  0  0
    1.5502    0.1192    0.4038 C   0  0  0  0  0  0  0  0  0  0  0  0
   -1.3198    0.8173    0.5403 C   0  0  0  0  0  0  0  0  0  0  0  0
   -0.9729    1.9010   -1.6620 C   0  0  0  0  0  0  0  0  0  0  0  0
   -2.0019    1.3840    1.5536 C   0  0  0  0  0  0  0  0  0  0  0  0
   -3.0535    0.7540    2.4120 C   0  0  0  0  0  0  0  0  0  0  0  0
   -0.2133   -1.3801   -1.3362 H   0  0  0  0  0  0  0  0  0  0  0  0
   -0.3164    3.7719   -1.4501 H   0  0  0  0  0  0  0  0  0  0  0  0
   -1.8533    0.2206    3.8449 H   0  0  0  0  0  0  0  0  0  0  0  0
    0.1939    2.3756    0.1648 H   0  0  0  0  0  0  0  0  0  0  0  0
    0.7352   -1.6514    1.4890 H   0  0  0  0  0  0  0  0  0  0  0  0
    1.7458   -2.0533    0.0647 H   0  0  0  0  0  0  0  0  0  0  0  0
   -1.8138    2.4279    1.7973 H   0  0  0  0  0  0  0  0  0  0  0  0
   -3.9759    1.3421    2.3470 H   0  0  0  0  0  0  0  0  0  0  0  0
   -3.2874   -0.2747    2.1282 H   0  0  0  0  0  0  0  0  0  0  0  0
  1  7  1  0  0  0  0
  1 11  1  0  0  0  0
  2 10  2  0  0  0  0
  3 12  1  0  0  0  0
  3 16  1  0  0  0  0
  4 12  2  0  0  0  0
  5 14  1  0  0  0  0
  5 17  1  0  0  0  0
  6  7  1  0  0  0  0
  6  8  1  0  0  0  0
  6 10  1  0  0  0  0
  7  9  1  0  0  0  0
  7 15  1  6  0  0  0
  8 11  1  0  0  0  0
  8 12  1  0  0  0  0
  8 18  1  1  0  0  0
  9 10  1  0  0  0  0
  9 19  1  0  0  0  0
  9 20  1  0  0  0  0
 11 13  2  0  0  0  0
 13 14  1  0  0  0  0
 13 21  1  0  0  0  0
 14 22  1  0  0  0  0
 14 23  1  0  0  0  0
M  END
>  <DRUGBANK_ID>
DB00766

>  <SECONDARY_ACCESSION_NUMBERS>
APRD00049

>  <COMMON_NAME>
Clavulanic acid

>  <CAS_NUMBER>
58001-44-8

>  <UNII>
23521W1S24

>  <SYNONYMS>
(Z)-(2R,5R)-3-(2-Hydroxyethylidene)-7-oxo-4-oxa-1-azabicyclo(3.2.0)heptane-2-carboxylic acid; Acide clavulanique; ácido clavulánico; Acidum clavulanicum; Clavulanate; Clavulanic acid; Clavulansäure

$$$$
