
 OpenBabel10282417123D

 37 38  0  0  0  0  0  0  0  0999 V2000
    0.9656    2.3820   -0.2781 O   0  0  0  0  0  0  0  0  0  0  0  0
    2.0089   -0.3505    0.0362 O   0  0  0  0  0  0  0  0  0  0  0  0
   -1.0085   -0.9406    1.5369 O   0  0  0  0  0  0  0  0  0  0  0  0
    0.6626   -3.1270    1.2864 O   0  0  0  0  0  0  0  0  0  0  0  0
   -0.8382    0.7935   -4.2428 O   0  0  0  0  0  0  0  0  0  0  0  0
   -1.4573   -1.5788   -5.5782 O   0  0  0  0  0  0  0  0  0  0  0  0
    0.9224   -5.0744   -3.0885 O   0  0  0  0  0  0  0  0  0  0  0  0
    3.5580   -2.7770   -0.2014 O   0  0  0  0  0  0  0  0  0  0  0  0
    0.7698   -0.3323   -2.9555 N   0  0  0  0  0  0  0  0  0  0  0  0
    2.6073   -1.6655   -1.9652 N   0  0  0  0  0  0  0  0  0  0  0  0
   -0.1324   -2.7035   -4.1019 N   0  0  0  0  0  0  0  0  0  0  0  0
    2.3424   -3.9643   -1.7006 N   0  0  0  0  0  0  0  0  0  0  0  0
    0.3943    1.1426   -0.7585 C   0  0  2  0  0  0  0  0  0  0  0  0
    0.6923    0.0479    0.2952 C   0  0  1  0  0  0  0  0  0  0  0  0
    1.0243    0.9294   -2.2070 C   0  0  0  0  0  0  0  0  0  0  0  0
   -0.3697   -1.0992    0.2742 C   0  0  1  0  0  0  0  0  0  0  0  0
    1.4636   -1.5577   -2.7594 C   0  0  0  0  0  0  0  0  0  0  0  0
    0.9209   -2.6994   -3.2255 C   0  0  0  0  0  0  0  0  0  0  0  0
    0.1368   -2.5373    0.1229 C   0  0  0  0  0  0  0  0  0  0  0  0
   -0.2592   -0.2469   -3.9359 C   0  0  0  0  0  0  0  0  0  0  0  0
   -0.6681   -1.5626   -4.6258 C   0  0  0  0  0  0  0  0  0  0  0  0
    1.4165   -4.0169   -2.7014 C   0  0  0  0  0  0  0  0  0  0  0  0
    2.9366   -2.8209   -1.2573 C   0  0  0  0  0  0  0  0  0  0  0  0
    3.1520   -0.8623   -1.6339 H   0  0  0  0  0  0  0  0  0  0  0  0
   -0.4262   -3.5894   -4.5069 H   0  0  0  0  0  0  0  0  0  0  0  0
    2.4761   -4.7893   -1.1274 H   0  0  0  0  0  0  0  0  0  0  0  0
    1.1928    2.2873    0.6667 H   0  0  0  0  0  0  0  0  0  0  0  0
    1.8359   -0.7288   -0.8290 H   0  0  0  0  0  0  0  0  0  0  0  0
   -1.7978   -1.4967    1.5830 H   0  0  0  0  0  0  0  0  0  0  0  0
    1.1839   -2.4273    1.7253 H   0  0  0  0  0  0  0  0  0  0  0  0
   -0.6875    1.2977   -0.8115 H   0  0  0  0  0  0  0  0  0  0  0  0
    0.7813    0.4379    1.3113 H   0  0  0  0  0  0  0  0  0  0  0  0
    0.6511    1.7808   -2.7985 H   0  0  0  0  0  0  0  0  0  0  0  0
    2.1068    1.0887   -2.1954 H   0  0  0  0  0  0  0  0  0  0  0  0
   -1.0807   -0.9230   -0.5431 H   0  0  0  0  0  0  0  0  0  0  0  0
   -0.4776   -3.2555   -0.4409 H   0  0  0  0  0  0  0  0  0  0  0  0
    0.9579   -2.4311   -0.5227 H   0  0  0  0  0  0  0  0  0  0  0  0
  1 27  1  0  0  0  0
  2 28  1  0  0  0  0
  3 29  1  0  0  0  0
  4 19  1  0  0  0  0
  4 30  1  0  0  0  0
  5 20  2  0  0  0  0
  6 21  2  0  0  0  0
  7 22  2  0  0  0  0
  8 23  2  0  0  0  0
  9 15  1  0  0  0  0
  9 17  1  0  0  0  0
  9 20  1  0  0  0  0
 10 17  1  0  0  0  0
 10 23  1  0  0  0  0
 10 24  1  0  0  0  0
 11 18  1  0  0  0  0
 11 21  1  0  0  0  0
 11 25  1  0  0  0  0
 12 22  1  0  0  0  0
 12 23  1  0  0  0  0
 12 26  1  0  0  0  0
 13 15  1  0  0  0  0
 13 31  1  6  0  0  0
 13 14  1  0  0  0  0
 13  1  1  0  0  0  0
 14 32  1  1  0  0  0
 14 16  1  0  0  0  0
 14  2  1  0  0  0  0
 15 33  1  0  0  0  0
 15 34  1  0  0  0  0
 16 35  1  6  0  0  0
 16 19  1  0  0  0  0
 16  3  1  0  0  0  0
 17 18  2  0  0  0  0
 18 22  1  0  0  0  0
 19 36  1  0  0  0  0
 19 37  1  0  0  0  0
 20 21  1  0  0  0  0
M  END
>  <DRUGBANK_ID>
DB02214

>  <SECONDARY_ACCESSION_NUMBERS>
EXPT02766

>  <COMMON_NAME>
6,7-dioxo-5H-8-ribitylaminolumazine

$$$$
