
 OpenBabel10282417133D

 39 36  0  0  0  0  0  0  0  0999 V2000
    0.5860   -1.0370    0.0050 C   0  0  0  0  0  0  0  0  0  0  0  0
   -0.8760   -0.8170   -0.0050 C   0  0  0  0  0  0  0  0  0  0  0  0
    0.1930    1.0600    0.0000 C   0  0  0  0  0  0  0  0  0  0  0  0
    1.1870    0.2110   -0.0030 N   0  0  0  0  0  0  0  0  0  0  0  0
   -1.1050    0.4700    0.0030 N   0  5  0  0  0  0  0  0  0  0  0  0
    0.5860   -1.0370    0.0050 C   0  0  0  0  0  0  0  0  0  0  0  0
   -0.8760   -0.8170   -0.0050 C   0  0  0  0  0  0  0  0  0  0  0  0
    0.1930    1.0600    0.0000 C   0  0  0  0  0  0  0  0  0  0  0  0
    1.1870    0.2110   -0.0030 N   0  0  0  0  0  0  0  0  0  0  0  0
   -1.1050    0.4700    0.0030 N   0  5  0  0  0  0  0  0  0  0  0  0
    0.5860   -1.0370    0.0050 C   0  0  0  0  0  0  0  0  0  0  0  0
   -0.8760   -0.8170   -0.0050 C   0  0  0  0  0  0  0  0  0  0  0  0
    0.1930    1.0600    0.0000 C   0  0  0  0  0  0  0  0  0  0  0  0
    1.1870    0.2110   -0.0030 N   0  0  0  0  0  0  0  0  0  0  0  0
   -1.1050    0.4700    0.0030 N   0  5  0  0  0  0  0  0  0  0  0  0
    0.5860   -1.0370    0.0050 C   0  0  0  0  0  0  0  0  0  0  0  0
   -0.8760   -0.8170   -0.0050 C   0  0  0  0  0  0  0  0  0  0  0  0
    0.1930    1.0600    0.0000 C   0  0  0  0  0  0  0  0  0  0  0  0
    1.1870    0.2110   -0.0030 N   0  0  0  0  0  0  0  0  0  0  0  0
   -1.1050    0.4700    0.0030 N   0  5  0  0  0  0  0  0  0  0  0  0
   -0.6010    0.4393    1.9622 Cu  0  0  0  0  0  0  0  0  0  0  0  0
    3.2711    0.6436    1.4466 O   0  0  0  0  0  0  0  0  0  0  0  0
    2.6703    1.0875   -2.0059 O   0  0  0  0  0  0  0  0  0  0  0  0
    1.0861   -1.9829    0.0163 H   0  0  0  0  0  0  0  0  0  0  0  0
   -1.6224   -1.5836   -0.0168 H   0  0  0  0  0  0  0  0  0  0  0  0
    0.3424    2.1195    0.0002 H   0  0  0  0  0  0  0  0  0  0  0  0
    1.0861   -1.9829    0.0163 H   0  0  0  0  0  0  0  0  0  0  0  0
   -1.6224   -1.5836   -0.0168 H   0  0  0  0  0  0  0  0  0  0  0  0
    0.3424    2.1195    0.0002 H   0  0  0  0  0  0  0  0  0  0  0  0
    1.0861   -1.9829    0.0163 H   0  0  0  0  0  0  0  0  0  0  0  0
   -1.6224   -1.5836   -0.0168 H   0  0  0  0  0  0  0  0  0  0  0  0
    0.3424    2.1195    0.0002 H   0  0  0  0  0  0  0  0  0  0  0  0
    1.0861   -1.9829    0.0163 H   0  0  0  0  0  0  0  0  0  0  0  0
   -1.6224   -1.5836   -0.0168 H   0  0  0  0  0  0  0  0  0  0  0  0
    0.3424    2.1195    0.0002 H   0  0  0  0  0  0  0  0  0  0  0  0
    2.2744    0.3813    1.4488 H   0  0  0  0  0  0  0  0  0  0  0  0
    2.7837    0.5055    0.4731 H   0  0  0  0  0  0  0  0  0  0  0  0
    2.3656    1.2850   -1.0454 H   0  0  0  0  0  0  0  0  0  0  0  0
    2.0051    0.3486   -1.6053 H   0  0  0  0  0  0  0  0  0  0  0  0
  1 24  1  0  0  0  0
  2  1  2  0  0  0  0
  2 25  1  0  0  0  0
  3 26  1  0  0  0  0
  4  1  1  0  0  0  0
  4  3  2  0  0  0  0
  5  2  1  0  0  0  0
  5  3  1  0  0  0  0
  6 27  1  0  0  0  0
  7  6  2  0  0  0  0
  7 28  1  0  0  0  0
  8 29  1  0  0  0  0
  9  6  1  0  0  0  0
  9  8  2  0  0  0  0
 10  7  1  0  0  0  0
 10  8  1  0  0  0  0
 11 30  1  0  0  0  0
 12 11  2  0  0  0  0
 12 31  1  0  0  0  0
 13 32  1  0  0  0  0
 14 11  1  0  0  0  0
 14 13  2  0  0  0  0
 15 12  1  0  0  0  0
 15 13  1  0  0  0  0
 16 33  1  0  0  0  0
 17 16  2  0  0  0  0
 17 34  1  0  0  0  0
 18 35  1  0  0  0  0
 19 16  1  0  0  0  0
 19 18  2  0  0  0  0
 20 17  1  0  0  0  0
 20 18  1  0  0  0  0
 22 36  1  0  0  0  0
 22 37  1  0  0  0  0
 23 38  1  0  0  0  0
 23 39  1  0  0  0  0
M  CHG  5   5  -1  10  -1  15  -1  20  -1  21   4
M  END
>  <DRUGBANK_ID>
DB03840

>  <SECONDARY_ACCESSION_NUMBERS>
EXPT01866

>  <COMMON_NAME>
Tetra(Imidazole)Diaquacopper (Ii)

$$$$
