CFQ
 OpenBabel10282417163D

 40 40  0  0  0  0  0  0  0  0999 V2000
   -0.8454   -0.4353    1.1841 As  0  3  0  0  0  0  0  0  0  0  0  0
   -1.4965   -1.6533   -0.1925 C   0  0  0  0  0  0  0  0  0  0  0  0
   -1.4949   -1.0182    2.9279 C   0  0  0  0  0  0  0  0  0  0  0  0
   -1.4947    1.3665    0.8177 C   0  0  0  0  0  0  0  0  0  0  0  0
    1.1046   -0.4362    1.1832 C   0  0  0  0  0  0  0  0  0  0  0  0
    1.6108   -1.8407    1.4688 C   0  0  0  0  0  0  0  0  0  0  0  0
    1.1366   -2.7277    0.4664 O   0  0  0  0  0  0  0  0  0  0  0  0
    1.6100   -2.3035   -0.8035 C   0  0  2  0  0  0  0  0  0  0  0  0
    3.1300   -2.3035   -0.8035 C   0  0  0  0  0  0  0  0  0  0  0  0
    1.1033   -0.8994   -1.0899 C   0  0  0  0  0  0  0  0  0  0  0  0
   -0.1708   -0.6849   -1.3965 C   0  0  0  0  0  0  0  0  0  0  0  0
   -0.6567    0.5953   -1.5108 C   0  0  0  0  0  0  0  0  0  0  0  0
    0.1748    1.6753   -1.4028 C   0  0  0  0  0  0  0  0  0  0  0  0
    1.4154    1.4259   -1.0249 C   0  0  0  0  0  0  0  0  0  0  0  0
    2.0129    0.1434   -1.0285 C   0  0  0  0  0  0  0  0  0  0  0  0
   -1.0695   -1.8273   -1.6156 N   0  3  0  0  0  0  0  0  0  0  0  0
   -2.3851   -1.6131   -1.9322 O   0  0  0  0  0  0  0  0  0  0  0  0
   -0.6417   -2.9720   -1.5150 O   0  0  0  0  0  0  0  0  0  0  0  0
    3.5733   -2.2309    0.4484 F   0  0  0  0  0  0  0  0  0  0  0  0
    3.5733   -3.4240   -1.3665 F   0  0  0  0  0  0  0  0  0  0  0  0
    3.5733   -1.2557   -1.4922 F   0  0  0  0  0  0  0  0  0  0  0  0
    1.2533   -2.9724   -1.5586 H   0  0  0  0  0  0  0  0  0  0  0  0
   -1.1402   -2.6420    0.0086 H   0  0  0  0  0  0  0  0  0  0  0  0
   -2.5665   -1.6529   -0.1920 H   0  0  0  0  0  0  0  0  0  0  0  0
   -1.1402   -1.3335   -1.1493 H   0  0  0  0  0  0  0  0  0  0  0  0
   -1.1376   -0.3499    3.6832 H   0  0  0  0  0  0  0  0  0  0  0  0
   -2.5649   -1.0177    2.9283 H   0  0  0  0  0  0  0  0  0  0  0  0
   -1.1386   -2.0069    3.1289 H   0  0  0  0  0  0  0  0  0  0  0  0
   -1.1374    2.0349    1.5730 H   0  0  0  0  0  0  0  0  0  0  0  0
   -1.1384    1.6864   -0.1392 H   0  0  0  0  0  0  0  0  0  0  0  0
   -2.5647    1.3670    0.8181 H   0  0  0  0  0  0  0  0  0  0  0  0
    1.4610   -0.1163    0.2263 H   0  0  0  0  0  0  0  0  0  0  0  0
    1.4619    0.2322    1.9385 H   0  0  0  0  0  0  0  0  0  0  0  0
    2.6808   -1.8412    1.4683 H   0  0  0  0  0  0  0  0  0  0  0  0
    1.2544   -2.1605    2.4256 H   0  0  0  0  0  0  0  0  0  0  0  0
   -1.7008    0.7492   -1.6869 H   0  0  0  0  0  0  0  0  0  0  0  0
   -0.1615    2.6690   -1.6131 H   0  0  0  0  0  0  0  0  0  0  0  0
    2.0101    2.2512   -0.6930 H   0  0  0  0  0  0  0  0  0  0  0  0
    3.0715   -0.0074   -0.9875 H   0  0  0  0  0  0  0  0  0  0  0  0
   -2.7340   -0.6795   -2.0142 H   0  0  0  0  0  0  0  0  0  0  0  0
  1  2  1  0  0  0  0
  1  3  1  0  0  0  0
  1  4  1  0  0  0  0
  1  5  1  0  0  0  0
  2 23  1  0  0  0  0
  2 24  1  0  0  0  0
  2 25  1  0  0  0  0
  3 26  1  0  0  0  0
  3 27  1  0  0  0  0
  3 28  1  0  0  0  0
  4 29  1  0  0  0  0
  4 30  1  0  0  0  0
  4 31  1  0  0  0  0
  5  6  1  0  0  0  0
  5 32  1  0  0  0  0
  5 33  1  0  0  0  0
  6  7  1  0  0  0  0
  6 34  1  0  0  0  0
  6 35  1  0  0  0  0
  8 10  1  0  0  0  0
  8 22  1  6  0  0  0
  8  9  1  0  0  0  0
  8  7  1  0  0  0  0
  9 19  1  0  0  0  0
  9 20  1  0  0  0  0
  9 21  1  0  0  0  0
 10 11  1  0  0  0  0
 10 15  2  0  0  0  0
 11 12  2  0  0  0  0
 11 16  1  0  0  0  0
 12 13  1  0  0  0  0
 12 36  1  0  0  0  0
 13 14  2  0  0  0  0
 13 37  1  0  0  0  0
 14 15  1  0  0  0  0
 14 38  1  0  0  0  0
 15 39  1  0  0  0  0
 16 17  1  0  0  0  0
 16 18  2  0  0  0  0
 17 40  1  0  0  0  0
M  CHG  2   1   1  16   1
M  END
>  <DRUGBANK_ID>
DB07555

>  <COMMON_NAME>
Hydroxy(oxo)(2-{(1S)-2,2,2-trifluoro-1-[2-(trimethylarsonio)ethoxy]ethyl}phenyl)ammonium

$$$$
