
 OpenBabel10282417233D

 58 62  0  0  0  0  0  0  0  0999 V2000
    0.9845   -0.0240    0.1254 O   0  0  0  0  0  0  0  0  0  0  0  0
    2.1956    0.1050    0.0098 C   0  0  0  0  0  0  0  0  0  0  0  0
    2.9690    0.9956    0.7509 N   0  0  0  0  0  0  0  0  0  0  0  0
    2.4135    1.4436    2.0421 C   0  0  0  0  0  0  0  0  0  0  0  0
    2.3432    2.9385    2.2148 C   0  0  0  0  0  0  0  0  0  0  0  0
    3.6192    3.5460    1.8077 N   0  0  0  0  0  0  0  0  0  0  0  0
    4.7584    3.1747    2.6753 C   0  0  0  0  0  0  0  0  0  0  0  0
    5.4632    1.8456    2.9688 C   0  0  0  0  0  0  0  0  0  0  0  0
    5.8477    0.6057    2.1783 C   0  0  0  0  0  0  0  0  0  0  0  0
    4.9999    0.4279    3.3992 C   0  0  0  0  0  0  0  0  0  0  0  0
    3.8555    3.3016    0.3755 C   0  0  0  0  0  0  0  0  0  0  0  0
    4.0313    1.8188    0.1042 C   0  0  0  0  0  0  0  0  0  0  0  0
    2.9114   -0.8803   -0.8084 C   0  0  0  0  0  0  0  0  0  0  0  0
    2.6091   -1.2274   -2.1328 C   0  0  0  0  0  0  0  0  0  0  0  0
    3.3688   -2.1900   -2.8500 C   0  0  0  0  0  0  0  0  0  0  0  0
    4.4017   -2.8517   -2.2231 C   0  0  0  0  0  0  0  0  0  0  0  0
    5.3888   -3.5650   -3.0100 N   0  0  0  0  0  0  0  0  0  0  0  0
    6.5523   -4.6063   -2.3441 S   0  0  0  0  0  0  0  0  0  0  0  0
    5.9342   -5.8931   -2.4120 O   0  0  0  0  0  0  0  0  0  0  0  0
    7.8214   -4.4078   -3.0582 O   0  0  0  0  0  0  0  0  0  0  0  0
    6.8537   -4.0292   -0.7088 C   0  0  0  0  0  0  0  0  0  0  0  0
    7.3943   -2.7319   -0.4106 C   0  0  0  0  0  0  0  0  0  0  0  0
    7.2876   -2.2045    0.8913 C   0  0  0  0  0  0  0  0  0  0  0  0
    6.9159   -3.0585    1.9155 C   0  0  0  0  0  0  0  0  0  0  0  0
    6.6798   -4.4116    1.5266 C   0  0  0  0  0  0  0  0  0  0  0  0
    6.3030   -4.8245    0.2695 C   0  0  0  0  0  0  0  0  0  0  0  0
    5.8838   -6.1020    0.0421 N   0  0  0  0  0  0  0  0  0  0  0  0
    6.7556   -7.0310    0.3997 C   0  0  0  0  0  0  0  0  0  0  0  0
    7.7226   -6.5092    1.2083 C   0  0  0  0  0  0  0  0  0  0  0  0
    7.2159   -5.5178    2.1338 C   0  0  0  0  0  0  0  0  0  0  0  0
    4.5334   -2.5293   -0.8884 C   0  0  0  0  0  0  0  0  0  0  0  0
    3.8489   -1.6026   -0.1503 C   0  0  0  0  0  0  0  0  0  0  0  0
    1.5384    0.8675    2.3526 H   0  0  0  0  0  0  0  0  0  0  0  0
    3.0865    1.2170    2.8371 H   0  0  0  0  0  0  0  0  0  0  0  0
    1.5005    3.3291    1.6385 H   0  0  0  0  0  0  0  0  0  0  0  0
    2.1521    3.1770    3.2701 H   0  0  0  0  0  0  0  0  0  0  0  0
    5.5620    3.8531    2.3428 H   0  0  0  0  0  0  0  0  0  0  0  0
    4.5123    3.5863    3.6668 H   0  0  0  0  0  0  0  0  0  0  0  0
    6.3555    2.1927    3.4941 H   0  0  0  0  0  0  0  0  0  0  0  0
    5.3998    0.1521    1.3042 H   0  0  0  0  0  0  0  0  0  0  0  0
    6.9078    0.4166    2.1799 H   0  0  0  0  0  0  0  0  0  0  0  0
    5.4099   -0.0146    4.2954 H   0  0  0  0  0  0  0  0  0  0  0  0
    4.0969   -0.1435    3.1658 H   0  0  0  0  0  0  0  0  0  0  0  0
    3.0282    3.6809   -0.2325 H   0  0  0  0  0  0  0  0  0  0  0  0
    4.7560    3.8444    0.0598 H   0  0  0  0  0  0  0  0  0  0  0  0
    5.0183    1.6686    0.5046 H   0  0  0  0  0  0  0  0  0  0  0  0
    4.1771    1.5493   -0.9434 H   0  0  0  0  0  0  0  0  0  0  0  0
    1.7808   -0.7332   -2.6187 H   0  0  0  0  0  0  0  0  0  0  0  0
    3.1609   -2.3878   -3.8961 H   0  0  0  0  0  0  0  0  0  0  0  0
    4.9165   -4.1705   -3.6927 H   0  0  0  0  0  0  0  0  0  0  0  0
    7.6640   -2.0559   -1.2163 H   0  0  0  0  0  0  0  0  0  0  0  0
    7.4716   -1.1488    1.0652 H   0  0  0  0  0  0  0  0  0  0  0  0
    6.9149   -2.7078    2.9537 H   0  0  0  0  0  0  0  0  0  0  0  0
    6.8512   -7.9039   -0.2564 H   0  0  0  0  0  0  0  0  0  0  0  0
    8.4483   -6.0619    0.4439 H   0  0  0  0  0  0  0  0  0  0  0  0
    6.5005   -5.8297    2.9100 H   0  0  0  0  0  0  0  0  0  0  0  0
    5.2058   -2.9601   -0.2246 H   0  0  0  0  0  0  0  0  0  0  0  0
    4.0978   -1.5069    0.9045 H   0  0  0  0  0  0  0  0  0  0  0  0
  1  2  2  0  0  0  0
  2  3  1  0  0  0  0
  2 13  1  0  0  0  0
  3  4  1  0  0  0  0
  3 12  1  0  0  0  0
  4  5  1  0  0  0  0
  4 33  1  0  0  0  0
  4 34  1  0  0  0  0
  5  6  1  0  0  0  0
  5 35  1  0  0  0  0
  5 36  1  0  0  0  0
  6  7  1  0  0  0  0
  6 11  1  0  0  0  0
  7  8  1  0  0  0  0
  7 37  1  0  0  0  0
  7 38  1  0  0  0  0
  8  9  1  0  0  0  0
  8 10  1  0  0  0  0
  8 39  1  0  0  0  0
  9 10  1  0  0  0  0
  9 40  1  0  0  0  0
  9 41  1  0  0  0  0
 10 42  1  0  0  0  0
 10 43  1  0  0  0  0
 11 12  1  0  0  0  0
 11 44  1  0  0  0  0
 11 45  1  0  0  0  0
 12 46  1  0  0  0  0
 12 47  1  0  0  0  0
 13 14  2  0  0  0  0
 13 32  1  0  0  0  0
 14 15  1  0  0  0  0
 14 48  1  0  0  0  0
 15 16  2  0  0  0  0
 15 49  1  0  0  0  0
 16 17  1  0  0  0  0
 16 31  1  0  0  0  0
 17 18  1  0  0  0  0
 17 50  1  0  0  0  0
 18 19  2  0  0  0  0
 18 20  2  0  0  0  0
 18 21  1  0  0  0  0
 21 22  2  0  0  0  0
 21 26  1  0  0  0  0
 22 23  1  0  0  0  0
 22 51  1  0  0  0  0
 23 24  2  0  0  0  0
 23 52  1  0  0  0  0
 24 25  1  0  0  0  0
 24 53  1  0  0  0  0
 25 26  2  0  0  0  0
 25 30  1  0  0  0  0
 26 27  1  0  0  0  0
 27 28  2  0  0  0  0
 28 29  1  0  0  0  0
 28 54  1  0  0  0  0
 29 30  2  0  0  0  0
 29 55  1  0  0  0  0
 30 56  1  0  0  0  0
 31 32  2  0  0  0  0
 31 57  1  0  0  0  0
 32 58  1  0  0  0  0
M  END
>  <DRUGBANK_ID>
DB16236

>  <COMMON_NAME>
Mitapivat

>  <CAS_NUMBER>
1260075-17-9

>  <UNII>
2WTV10SIKH

>  <SYNONYMS>
Mitapivat; Pkr-in-1

$$$$
