
 OpenBabel10282417213D

 13  9  0  0  0  0  0  0  0  0999 V2000
   -0.8101    1.4415   -0.0357 O   0  0  0  0  0  0  0  0  0  0  0  0
    3.1676   -1.2126    0.1039 O   0  0  0  0  0  0  0  0  0  0  0  0
    0.9959   -0.0964   -0.0263 O   0  0  0  0  0  0  0  0  0  0  0  0
    0.4193   -0.7195    1.4810 P   0  0  0  0  0  0  0  0  0  0  0  0
    0.7382   -1.9672    0.6820 O   0  0  0  0  0  0  0  0  0  0  0  0
    1.4962    0.3474    1.8215 O   0  5  0  0  0  0  0  0  0  0  0  0
   -0.1574   -1.3426    2.9884 O   0  5  0  0  0  0  0  0  0  0  0  0
    1.6414    1.7737   -0.0297 Ca  0  2  0  0  0  0  0  0  0  0  0  0
   -1.0428    0.5027   -0.3436 H   0  0  0  0  0  0  0  0  0  0  0  0
   -0.9095    1.2992    0.8852 H   0  0  0  0  0  0  0  0  0  0  0  0
    2.5920   -1.9892    0.3698 H   0  0  0  0  0  0  0  0  0  0  0  0
    2.8978   -0.6780    0.8868 H   0  0  0  0  0  0  0  0  0  0  0  0
    1.1801   -1.0443   -0.3387 H   0  0  0  0  0  0  0  0  0  0  0  0
  1  9  1  0  0  0  0
  1 10  1  0  0  0  0
  2 11  1  0  0  0  0
  2 12  1  0  0  0  0
  3  4  1  0  0  0  0
  3 13  1  0  0  0  0
  4  5  2  0  0  0  0
  4  6  1  0  0  0  0
  4  7  1  0  0  0  0
M  CHG  3   6  -1   7  -1   8   2
M  END
>  <DRUGBANK_ID>
DB14481

>  <SECONDARY_ACCESSION_NUMBERS>
DBSALT001593

>  <COMMON_NAME>
Calcium phosphate dihydrate

>  <CAS_NUMBER>
7789-77-7

>  <UNII>
O7TSZ97GEP

>  <SYNONYMS>
Calcium monohydrogen phosphate dihydrate; Calcium phosphate dibasic, hydrous; Calcium phosphate dihydrate, dibasic; Calcium phosphate, dibasic, dihydrate; Calcium phosphate, dibasic, hydrous; D.C.P.; Dibasic calcium phosphate dihydrate; Dibasic calcium phosphate hydrate; Dicalcium phosphate dihydrate

$$$$
