
 OpenBabel10282417103D

 10  9  0  0  0  0  0  0  0  0999 V2000
    0.9100   -0.0616   -0.0799 C   0  0  0  0  0  0  0  0  0  0  0  0
    0.1904    0.3782    1.1992 C   0  0  0  0  0  0  0  0  0  0  0  0
    2.2624   -0.0407    0.0019 O   0  0  0  0  0  0  0  0  0  0  0  0
    0.3422   -0.4043   -1.1094 O   0  0  0  0  0  0  0  0  0  0  0  0
   -0.6703    1.5363    0.9460 N   0  0  0  0  0  0  0  0  0  0  0  0
   -0.4119   -0.4666    1.5489 H   0  0  0  0  0  0  0  0  0  0  0  0
    0.9091    0.6202    1.9884 H   0  0  0  0  0  0  0  0  0  0  0  0
    2.6338    0.2559    0.8522 H   0  0  0  0  0  0  0  0  0  0  0  0
   -1.1643    1.8126    1.7909 H   0  0  0  0  0  0  0  0  0  0  0  0
   -0.1226    2.3329    0.6269 H   0  0  0  0  0  0  0  0  0  0  0  0
  2  1  1  0  0  0  0
  2  5  1  0  0  0  0
  2  6  1  0  0  0  0
  2  7  1  0  0  0  0
  3  1  1  0  0  0  0
  3  8  1  0  0  0  0
  4  1  2  0  0  0  0
  5  9  1  0  0  0  0
  5 10  1  0  0  0  0
M  END
>  <DRUGBANK_ID>
DB00145

>  <SECONDARY_ACCESSION_NUMBERS>
NUTR00028

>  <COMMON_NAME>
Glycine

>  <CAS_NUMBER>
56-40-6

>  <UNII>
TE7660XO1C

>  <SYNONYMS>
Aminoacetic acid; Aminoessigs√§ure; Aminoethanoic acid; Glicina; Gly; Glycin; Glycine; Glycocoll; Glykokoll; Glyzin; Leimzucker

$$$$
