
 OpenBabel10282417133D

 50 49  0  0  1  0  0  0  0  0999 V2000
    0.9682    0.1317    0.0002 C   0  0  0  0  0  0  0  0  0  0  0  0
   -3.2366   -7.2084   -1.5729 C   0  0  0  0  0  0  0  0  0  0  0  0
   -5.2225   -6.8241   -3.0203 C   0  0  0  0  0  0  0  0  0  0  0  0
   -3.0661   -8.2096   -3.7641 C   0  0  0  0  0  0  0  0  0  0  0  0
    0.5149    0.7072   -1.3321 C   0  0  0  0  0  0  0  0  0  0  0  0
    1.0046   -0.1694   -2.4854 C   0  0  0  0  0  0  0  0  0  0  0  0
    0.4530   -1.5937   -2.3688 C   0  0  0  0  0  0  0  0  0  0  0  0
   -1.0816   -1.5806   -2.3681 C   0  0  0  0  0  0  0  0  0  0  0  0
   -1.6281   -1.0527   -3.6998 C   0  0  0  0  0  0  0  0  0  0  0  0
   -1.1096   -1.8478   -4.8911 C   0  0  0  0  0  0  0  0  0  0  0  0
   -1.3977   -6.0948   -4.9104 C   0  0  0  0  0  0  0  0  0  0  0  0
   -3.2037   -5.3858   -3.3083 C   0  0  0  0  0  0  0  0  0  0  0  0
   -1.7255   -5.3085   -3.6440 C   0  0  2  0  0  0  0  0  0  0  0  0
   -2.5479   -6.3273   -5.9487 C   0  0  0  0  0  0  0  0  0  0  0  0
   -1.6516   -3.2394   -4.8555 C   0  0  0  0  0  0  0  0  0  0  0  0
   -3.6791   -6.9094   -2.9872 N   0  3  0  0  0  0  0  0  0  0  0  0
   -2.3375   -6.5916   -7.1398 O   0  0  0  0  0  0  0  0  0  0  0  0
   -3.8148   -6.3940   -5.4920 O   0  0  0  0  0  0  0  0  0  0  0  0
   -2.4344   -3.6694   -5.6828 O   0  0  0  0  0  0  0  0  0  0  0  0
   -1.2169   -3.9629   -3.7893 O   0  0  0  0  0  0  0  0  0  0  0  0
   -1.1789   -5.6838   -2.7627 H   0  0  0  0  0  0  0  0  0  0  0  0
    0.5783   -0.8774    0.1698 H   0  0  0  0  0  0  0  0  0  0  0  0
    0.6137    0.7460    0.8280 H   0  0  0  0  0  0  0  0  0  0  0  0
    2.0604    0.0776    0.0268 H   0  0  0  0  0  0  0  0  0  0  0  0
   -3.6161   -6.4354   -0.9088 H   0  0  0  0  0  0  0  0  0  0  0  0
   -3.6286   -8.1957   -1.3250 H   0  0  0  0  0  0  0  0  0  0  0  0
   -2.1433   -7.2297   -1.5737 H   0  0  0  0  0  0  0  0  0  0  0  0
   -5.5795   -6.4372   -3.9816 H   0  0  0  0  0  0  0  0  0  0  0  0
   -5.6293   -7.8149   -2.8311 H   0  0  0  0  0  0  0  0  0  0  0  0
   -5.5351   -6.1068   -2.2503 H   0  0  0  0  0  0  0  0  0  0  0  0
   -3.1673   -8.2793   -4.8503 H   0  0  0  0  0  0  0  0  0  0  0  0
   -1.9946   -8.2623   -3.5465 H   0  0  0  0  0  0  0  0  0  0  0  0
   -3.5774   -9.0985   -3.3937 H   0  0  0  0  0  0  0  0  0  0  0  0
   -0.5774    0.7992   -1.3411 H   0  0  0  0  0  0  0  0  0  0  0  0
    0.8911    1.7258   -1.4564 H   0  0  0  0  0  0  0  0  0  0  0  0
    0.7096    0.2828   -3.4403 H   0  0  0  0  0  0  0  0  0  0  0  0
    2.0989   -0.1979   -2.5027 H   0  0  0  0  0  0  0  0  0  0  0  0
    0.8601   -2.2096   -3.1772 H   0  0  0  0  0  0  0  0  0  0  0  0
    0.8178   -2.0909   -1.4657 H   0  0  0  0  0  0  0  0  0  0  0  0
   -1.4646   -2.5763   -2.1380 H   0  0  0  0  0  0  0  0  0  0  0  0
   -1.4868   -0.9877   -1.5439 H   0  0  0  0  0  0  0  0  0  0  0  0
   -2.7231   -1.0685   -3.6773 H   0  0  0  0  0  0  0  0  0  0  0  0
   -1.3503   -0.0009   -3.8330 H   0  0  0  0  0  0  0  0  0  0  0  0
   -1.4657   -1.3903   -5.8190 H   0  0  0  0  0  0  0  0  0  0  0  0
   -0.0192   -1.8690   -4.9769 H   0  0  0  0  0  0  0  0  0  0  0  0
   -0.6235   -5.5503   -5.4528 H   0  0  0  0  0  0  0  0  0  0  0  0
   -0.8807   -7.0134   -4.6070 H   0  0  0  0  0  0  0  0  0  0  0  0
   -3.4968   -4.7569   -2.4542 H   0  0  0  0  0  0  0  0  0  0  0  0
   -3.8121   -4.9370   -4.1015 H   0  0  0  0  0  0  0  0  0  0  0  0
   -4.3580   -7.1851   -5.7138 H   0  0  0  0  0  0  0  0  0  0  0  0
  1 22  1  0  0  0  0
  1 23  1  0  0  0  0
  1 24  1  0  0  0  0
  2 25  1  0  0  0  0
  2 26  1  0  0  0  0
  2 27  1  0  0  0  0
  3 28  1  0  0  0  0
  3 29  1  0  0  0  0
  3 30  1  0  0  0  0
  4 31  1  0  0  0  0
  4 32  1  0  0  0  0
  4 33  1  0  0  0  0
  5  1  1  0  0  0  0
  5 34  1  0  0  0  0
  5 35  1  0  0  0  0
  6  5  1  0  0  0  0
  6 36  1  0  0  0  0
  6 37  1  0  0  0  0
  7  6  1  0  0  0  0
  7 38  1  0  0  0  0
  7 39  1  0  0  0  0
  8  7  1  0  0  0  0
  8 40  1  0  0  0  0
  8 41  1  0  0  0  0
  9  8  1  0  0  0  0
  9 42  1  0  0  0  0
  9 43  1  0  0  0  0
 10  9  1  0  0  0  0
 10 44  1  0  0  0  0
 10 45  1  0  0  0  0
 11 46  1  0  0  0  0
 11 47  1  0  0  0  0
 12 48  1  0  0  0  0
 12 49  1  0  0  0  0
 13 20  1  0  0  0  0
 13 21  1  1  0  0  0
 13 12  1  0  0  0  0
 13 11  1  0  0  0  0
 14 11  1  0  0  0  0
 15 10  1  0  0  0  0
 16  2  1  0  0  0  0
 16  3  1  0  0  0  0
 16  4  1  0  0  0  0
 16 12  1  0  0  0  0
 17 14  2  0  0  0  0
 18 14  1  0  0  0  0
 18 50  1  0  0  0  0
 19 15  2  0  0  0  0
 20 15  1  0  0  0  0
M  CHG  1  16   1
M  END
>  <DRUGBANK_ID>
DB03832

>  <SECONDARY_ACCESSION_NUMBERS>
EXPT02414

>  <COMMON_NAME>
3-Carboxy-N,N,N-Trimethyl-2-(Octanoyloxy)Propan-1-Aminium

$$$$
