
 OpenBabel10282417143D

 60 62  0  0  1  0  0  0  0  0999 V2000
    1.1110    0.0730   -0.0803 C   0  0  0  0  0  0  0  0  0  0  0  0
    0.6287    0.0389   -1.5321 C   0  0  1  0  0  0  0  0  0  0  0  0
    1.1503   -1.2793   -2.1911 C   0  0  0  0  0  0  0  0  0  0  0  0
    0.4577   -2.1889   -2.5634 O   0  0  0  0  0  0  0  0  0  0  0  0
    2.5110   -1.3077   -2.3152 O   0  0  0  0  0  0  0  0  0  0  0  0
    2.9457   -2.5218   -2.9539 C   0  0  0  0  0  0  0  0  0  0  0  0
   -0.9056    0.0420   -1.4826 N   0  0  0  0  0  0  0  0  0  0  0  0
   -1.4989    0.0328   -3.1608 P   0  0  3  0  0  0  0  0  0  0  0  0
   -1.7800   -1.4586   -3.2358 O   0  0  0  0  0  0  0  0  0  0  0  0
   -2.7674    1.0018   -2.7409 O   0  0  0  0  0  0  0  0  0  0  0  0
   -2.7815    1.4906   -1.3994 C   0  0  0  0  0  0  0  0  0  0  0  0
   -3.0987    0.2737   -0.4201 C   0  0  2  0  0  0  0  0  0  0  0  0
   -2.8528   -1.2344   -0.8039 C   0  0  2  0  0  0  0  0  0  0  0  0
   -3.9490   -1.5493   -1.7345 C   0  0  0  0  0  0  0  0  0  0  0  0
   -5.0518   -0.8831   -1.0070 C   0  0  1  0  0  0  0  0  0  0  0  0
   -4.5214    0.2161   -0.2348 O   0  0  0  0  0  0  0  0  0  0  0  0
   -6.0761   -0.4875   -1.9476 N   0  0  0  0  0  0  0  0  0  0  0  0
   -6.5247   -1.4373   -2.8701 C   0  0  0  0  0  0  0  0  0  0  0  0
   -7.3385   -1.1397   -3.8945 C   0  0  0  0  0  0  0  0  0  0  0  0
   -7.8594    0.2653   -3.9056 C   0  0  0  0  0  0  0  0  0  0  0  0
   -8.5701    0.7254   -4.7857 O   0  0  0  0  0  0  0  0  0  0  0  0
   -7.5130    1.0609   -2.8620 N   0  0  0  0  0  0  0  0  0  0  0  0
   -6.4739    0.8341   -2.0225 C   0  0  0  0  0  0  0  0  0  0  0  0
   -6.0093    1.8032   -1.4286 O   0  0  0  0  0  0  0  0  0  0  0  0
   -7.6898   -2.1159   -4.9238 C   0  0  0  0  0  0  0  0  0  0  0  0
   -8.4971   -1.8745   -5.9659 C   0  0  0  0  0  0  0  0  0  0  0  0
   -8.9576   -3.0951   -7.2806 Br  0  0  0  0  0  0  0  0  0  0  0  0
   -2.4987   -2.0272    0.3119 O   0  0  0  0  0  0  0  0  0  0  0  0
   -2.0756    0.0239   -4.7918 O   0  0  0  0  0  0  0  0  0  0  0  0
   -1.1378    0.0240   -5.8014 C   0  0  0  0  0  0  0  0  0  0  0  0
    0.0072   -0.7703   -5.7572 C   0  0  0  0  0  0  0  0  0  0  0  0
    1.0085   -0.6147   -6.7198 C   0  0  0  0  0  0  0  0  0  0  0  0
    0.8050    0.2341   -7.8048 C   0  0  0  0  0  0  0  0  0  0  0  0
   -0.4092    0.9073   -7.9336 C   0  0  0  0  0  0  0  0  0  0  0  0
   -1.3616    0.8402   -6.9096 C   0  0  0  0  0  0  0  0  0  0  0  0
    0.7714   -0.8139    0.4725 H   0  0  0  0  0  0  0  0  0  0  0  0
    0.7329    0.9565    0.4439 H   0  0  0  0  0  0  0  0  0  0  0  0
    2.2037    0.0802   -0.0248 H   0  0  0  0  0  0  0  0  0  0  0  0
    0.9700    0.9120   -2.0945 H   0  0  0  0  0  0  0  0  0  0  0  0
    2.5888   -3.4116   -2.4180 H   0  0  0  0  0  0  0  0  0  0  0  0
    2.5923   -2.5479   -3.9917 H   0  0  0  0  0  0  0  0  0  0  0  0
    4.0370   -2.5425   -2.9586 H   0  0  0  0  0  0  0  0  0  0  0  0
   -0.9370   -0.7763   -0.8851 H   0  0  0  0  0  0  0  0  0  0  0  0
   -1.8049    1.9903   -1.1977 H   0  0  0  0  0  0  0  0  0  0  0  0
   -3.4662    2.3395   -1.3021 H   0  0  0  0  0  0  0  0  0  0  0  0
   -2.6207    0.5217    0.5373 H   0  0  0  0  0  0  0  0  0  0  0  0
   -2.0760   -1.6569   -1.3928 H   0  0  0  0  0  0  0  0  0  0  0  0
   -3.8509   -1.0452   -2.7126 H   0  0  0  0  0  0  0  0  0  0  0  0
   -4.0148   -2.6119   -1.9704 H   0  0  0  0  0  0  0  0  0  0  0  0
   -5.4365   -1.6023   -0.2882 H   0  0  0  0  0  0  0  0  0  0  0  0
   -6.1154   -2.4433   -2.7618 H   0  0  0  0  0  0  0  0  0  0  0  0
   -7.8191    2.0162   -2.9073 H   0  0  0  0  0  0  0  0  0  0  0  0
   -7.2470   -3.1088   -4.8398 H   0  0  0  0  0  0  0  0  0  0  0  0
   -8.9729   -0.9206   -6.1500 H   0  0  0  0  0  0  0  0  0  0  0  0
   -3.2400   -2.0841    0.9149 H   0  0  0  0  0  0  0  0  0  0  0  0
    0.1211   -1.5422   -5.0023 H   0  0  0  0  0  0  0  0  0  0  0  0
    1.9371   -1.1740   -6.6370 H   0  0  0  0  0  0  0  0  0  0  0  0
    1.5788    0.3488   -8.5608 H   0  0  0  0  0  0  0  0  0  0  0  0
   -0.6093    1.4892   -8.8304 H   0  0  0  0  0  0  0  0  0  0  0  0
   -2.2724    1.4277   -6.9842 H   0  0  0  0  0  0  0  0  0  0  0  0
  1 36  1  0  0  0  0
  1 37  1  0  0  0  0
  1 38  1  0  0  0  0
  2  1  1  0  0  0  0
  2  3  1  0  0  0  0
  2  7  1  0  0  0  0
  2 39  1  6  0  0  0
  3  4  2  0  0  0  0
  3  5  1  0  0  0  0
  5  6  1  0  0  0  0
  6 40  1  0  0  0  0
  6 41  1  0  0  0  0
  6 42  1  0  0  0  0
  7  8  1  0  0  0  0
  7 43  1  0  0  0  0
  8  9  2  0  0  0  0
  8 10  1  0  0  0  0
  8 29  1  0  0  0  0
 10 11  1  0  0  0  0
 11 44  1  0  0  0  0
 11 45  1  0  0  0  0
 12 11  1  0  0  0  0
 12 13  1  0  0  0  0
 12 16  1  0  0  0  0
 12 46  1  1  0  0  0
 13 14  1  0  0  0  0
 13 28  1  0  0  0  0
 13 47  1  6  0  0  0
 14 15  1  0  0  0  0
 14 48  1  0  0  0  0
 14 49  1  0  0  0  0
 15 16  1  0  0  0  0
 15 50  1  1  0  0  0
 15 17  1  0  0  0  0
 17 18  1  0  0  0  0
 17 23  1  0  0  0  0
 18 19  2  0  0  0  0
 18 51  1  0  0  0  0
 19 20  1  0  0  0  0
 19 25  1  0  0  0  0
 20 21  2  0  0  0  0
 20 22  1  0  0  0  0
 22 23  1  0  0  0  0
 22 52  1  0  0  0  0
 23 24  2  0  0  0  0
 25 26  2  0  0  0  0
 25 53  1  0  0  0  0
 26 27  1  0  0  0  0
 26 54  1  0  0  0  0
 28 55  1  0  0  0  0
 29 30  1  0  0  0  0
 30 31  2  0  0  0  0
 30 35  1  0  0  0  0
 31 32  1  0  0  0  0
 31 56  1  0  0  0  0
 32 33  2  0  0  0  0
 32 57  1  0  0  0  0
 33 34  1  0  0  0  0
 33 58  1  0  0  0  0
 34 35  2  0  0  0  0
 34 59  1  0  0  0  0
 35 60  1  0  0  0  0
M  END
>  <DRUGBANK_ID>
DB05116

>  <COMMON_NAME>
Thymectacin

>  <CAS_NUMBER>
232925-18-7

>  <UNII>
2ZRZ4TSW3F

>  <SYNONYMS>
Brivudine phosphoramidate

$$$$
