
 OpenBabel10282417163D

 51 54  0  0  0  0  0  0  0  0999 V2000
   -0.1719    0.0420    1.5977 S   0  0  0  0  0  0  0  0  0  0  0  0
   -1.3264    0.0114   -3.3003 F   0  0  0  0  0  0  0  0  0  0  0  0
    0.3419    0.0396   -1.9703 F   0  0  0  0  0  0  0  0  0  0  0  0
   -0.6448   -1.8385   -2.3848 F   0  0  0  0  0  0  0  0  0  0  0  0
   -2.0001    0.9351   -0.3945 O   0  0  0  0  0  0  0  0  0  0  0  0
   -1.2821   -4.2770    0.0148 O   0  0  0  0  0  0  0  0  0  0  0  0
   -2.4212    2.5622   -1.8540 N   0  0  0  0  0  0  0  0  0  0  0  0
   -2.4204   -2.4113    0.0949 N   0  0  0  0  0  0  0  0  0  0  0  0
   -0.0036   -2.4509    0.2896 N   0  0  0  0  0  0  0  0  0  0  0  0
    1.6774   -0.7290    0.1467 N   0  0  0  0  0  0  0  0  0  0  0  0
   -4.6468    2.4181   -0.9216 N   0  0  0  0  0  0  0  0  0  0  0  0
   -5.6127    5.7492   -2.9751 N   0  0  0  0  0  0  0  0  0  0  0  0
   -6.1741    4.1760   -1.2628 N   0  0  0  0  0  0  0  0  0  0  0  0
   -7.5616    6.5482   -3.9405 N   0  0  0  0  0  0  0  0  0  0  0  0
   -7.3315    6.9539   -1.8084 N   0  0  0  0  0  0  0  0  0  0  0  0
   -8.7046    7.1715   -3.6221 N   0  0  0  0  0  0  0  0  0  0  0  0
   -0.2297    2.6915    0.0404 C   0  0  0  0  0  0  0  0  0  0  0  0
   -1.0962    3.1237   -1.3301 C   0  0  0  0  0  0  0  0  0  0  0  0
    0.4140    1.2708    0.3770 C   0  0  0  0  0  0  0  0  0  0  0  0
   -2.5982   -1.0896   -0.0884 C   0  0  0  0  0  0  0  0  0  0  0  0
   -1.8715   -0.3125   -0.9600 C   0  0  0  0  0  0  0  0  0  0  0  0
   -3.3905   -0.2620    0.7816 C   0  0  0  0  0  0  0  0  0  0  0  0
   -2.8898    1.0050    0.6527 C   0  0  0  0  0  0  0  0  0  0  0  0
    1.6566    0.6939    0.1136 C   0  0  0  0  0  0  0  0  0  0  0  0
   -3.6989    3.0897   -1.6241 C   0  0  0  0  0  0  0  0  0  0  0  0
    0.5103   -1.1798    0.5726 C   0  0  0  0  0  0  0  0  0  0  0  0
   -0.8863   -0.5218   -2.1288 C   0  0  0  0  0  0  0  0  0  0  0  0
   -1.2298   -3.0657    0.1510 C   0  0  0  0  0  0  0  0  0  0  0  0
   -3.9889    4.2516   -2.2338 C   0  0  0  0  0  0  0  0  0  0  0  0
   -3.0736    2.3217    1.3837 C   0  0  0  0  0  0  0  0  0  0  0  0
   -5.2608    4.7346   -2.0808 C   0  0  0  0  0  0  0  0  0  0  0  0
   -5.8147    3.0394   -0.6862 C   0  0  0  0  0  0  0  0  0  0  0  0
   -6.7523    6.4243   -2.8543 C   0  0  0  0  0  0  0  0  0  0  0  0
   -8.5192    7.3820   -2.3146 C   0  0  0  0  0  0  0  0  0  0  0  0
   -2.5603    1.6133   -1.5490 H   0  0  0  0  0  0  0  0  0  0  0  0
   -3.2603   -2.9750    0.1734 H   0  0  0  0  0  0  0  0  0  0  0  0
    0.7101   -3.0849   -0.0536 H   0  0  0  0  0  0  0  0  0  0  0  0
   -4.8325    6.1406   -3.4832 H   0  0  0  0  0  0  0  0  0  0  0  0
   -7.4117    6.1732   -4.8684 H   0  0  0  0  0  0  0  0  0  0  0  0
   -0.7291    3.0758    0.9251 H   0  0  0  0  0  0  0  0  0  0  0  0
    0.6505    3.3472   -0.0387 H   0  0  0  0  0  0  0  0  0  0  0  0
   -1.2550    4.2052   -1.2463 H   0  0  0  0  0  0  0  0  0  0  0  0
   -0.4149    2.9540   -2.1665 H   0  0  0  0  0  0  0  0  0  0  0  0
   -4.0444   -0.5474    1.5867 H   0  0  0  0  0  0  0  0  0  0  0  0
    2.5169    1.2247   -0.2703 H   0  0  0  0  0  0  0  0  0  0  0  0
   -3.2615    4.6701   -2.9058 H   0  0  0  0  0  0  0  0  0  0  0  0
   -2.2320    2.6177    2.0152 H   0  0  0  0  0  0  0  0  0  0  0  0
   -3.2181    3.1965    0.7410 H   0  0  0  0  0  0  0  0  0  0  0  0
   -3.9436    2.2815    2.0386 H   0  0  0  0  0  0  0  0  0  0  0  0
   -6.5131    2.6094    0.0321 H   0  0  0  0  0  0  0  0  0  0  0  0
   -9.2695    7.8645   -1.7063 H   0  0  0  0  0  0  0  0  0  0  0  0
  1 19  1  0  0  0  0
  1 26  1  0  0  0  0
  2 27  1  0  0  0  0
  3 27  1  0  0  0  0
  4 27  1  0  0  0  0
  5 21  1  0  0  0  0
  5 23  1  0  0  0  0
  6 28  2  0  0  0  0
  7 18  1  0  0  0  0
  7 25  1  0  0  0  0
  7 35  1  0  0  0  0
  8 20  1  0  0  0  0
  8 28  1  0  0  0  0
  8 36  1  0  0  0  0
  9 26  1  0  0  0  0
  9 28  1  0  0  0  0
  9 37  1  0  0  0  0
 10 24  1  0  0  0  0
 10 26  2  0  0  0  0
 11 25  1  0  0  0  0
 11 32  2  0  0  0  0
 12 31  1  0  0  0  0
 12 33  1  0  0  0  0
 12 38  1  0  0  0  0
 13 31  2  0  0  0  0
 13 32  1  0  0  0  0
 14 16  1  0  0  0  0
 14 33  1  0  0  0  0
 14 39  1  0  0  0  0
 15 33  2  0  0  0  0
 15 34  1  0  0  0  0
 16 34  2  0  0  0  0
 17 18  1  0  0  0  0
 17 19  1  0  0  0  0
 17 40  1  0  0  0  0
 17 41  1  0  0  0  0
 18 42  1  0  0  0  0
 18 43  1  0  0  0  0
 19 24  2  0  0  0  0
 20 21  2  0  0  0  0
 20 22  1  0  0  0  0
 21 27  1  0  0  0  0
 22 23  2  0  0  0  0
 22 44  1  0  0  0  0
 23 30  1  0  0  0  0
 24 45  1  0  0  0  0
 25 29  2  0  0  0  0
 29 31  1  0  0  0  0
 29 46  1  0  0  0  0
 30 47  1  0  0  0  0
 30 48  1  0  0  0  0
 30 49  1  0  0  0  0
 32 50  1  0  0  0  0
 34 51  1  0  0  0  0
M  END
>  <DRUGBANK_ID>
DB07789

>  <COMMON_NAME>
1-[5-Methyl-2-(trifluoromethyl)furan-3-yl]-3-[5-[2-[[6-(1H-1,2,4-triazol-5-ylamino)pyrimidin-4-yl]amino]ethyl]-1,3-thiazol-2-yl]urea

>  <UNII>
CL76HU6PN3

$$$$
