HMDB03818.mol
 OpenBabel10282417113D

 51 54  0  0  0  0  0  0  0  0999 V2000
    1.8087    1.0859   -0.2173 C   0  0  0  0  0  0  0  0  0  0  0  0
    2.8823    2.0446   -1.0433 C   0  0  1  0  0  0  0  0  0  0  0  0
    2.4834    2.2251   -2.5147 C   0  0  0  0  0  0  0  0  0  0  0  0
    2.2418    0.8525   -3.0228 C   0  0  0  0  0  0  0  0  0  0  0  0
    0.9090    0.3333   -2.5726 C   0  0  2  0  0  0  0  0  0  0  0  0
    0.5750    1.0377   -1.1885 C   0  0  0  0  0  0  0  0  0  0  0  0
    3.1997    0.1002   -3.5928 C   0  0  0  0  0  0  0  0  0  0  0  0
    3.0521   -1.4049   -3.9571 C   0  0  0  0  0  0  0  0  0  0  0  0
    1.5161   -1.9233   -3.9583 C   0  0  2  0  0  0  0  0  0  0  0  0
    1.0049   -1.2454   -2.5232 C   0  0  2  0  0  0  0  0  0  0  0  0
    0.9256   -3.5905   -4.5929 C   0  0  1  0  0  0  0  0  0  0  0  0
    0.1656   -3.7139   -3.3499 C   0  0  2  0  0  0  0  0  0  0  0  0
   -0.1049   -3.2819   -1.9832 C   0  0  0  0  0  0  0  0  0  0  0  0
   -0.2615   -1.8109   -1.9357 C   0  0  0  0  0  0  0  0  0  0  0  0
   -0.6327   -4.8771   -4.6754 C   0  0  0  0  0  0  0  0  0  0  0  0
   -0.5851   -5.9130   -3.5182 C   0  0  0  0  0  0  0  0  0  0  0  0
    0.7189   -5.3345   -3.3489 C   0  0  2  0  0  0  0  0  0  0  0  0
   -0.1350    0.8255   -3.5810 C   0  0  0  0  0  0  0  0  0  0  0  0
    3.0715    3.4141   -0.6357 O   0  0  0  0  0  0  0  0  0  0  0  0
   -0.9101   -2.6511   -4.4878 C   0  0  0  0  0  0  0  0  0  0  0  0
    1.5137   -5.7661   -2.2891 O   0  0  0  0  0  0  0  0  0  0  0  0
    1.1640   -1.2906   -4.7753 H   0  0  0  0  0  0  0  0  0  0  0  0
    1.7909   -1.5050   -1.7860 H   0  0  0  0  0  0  0  0  0  0  0  0
    1.8414   -4.1158   -4.8140 H   0  0  0  0  0  0  0  0  0  0  0  0
    1.4584    0.0427    0.0110 H   0  0  0  0  0  0  0  0  0  0  0  0
    2.6507    0.3590   -0.1157 H   0  0  0  0  0  0  0  0  0  0  0  0
    3.8833    1.6204   -0.8731 H   0  0  0  0  0  0  0  0  0  0  0  0
    3.1373    2.8302   -3.1494 H   0  0  0  0  0  0  0  0  0  0  0  0
    1.5778    2.8564   -2.5201 H   0  0  0  0  0  0  0  0  0  0  0  0
   -0.3476    0.6200   -0.7535 H   0  0  0  0  0  0  0  0  0  0  0  0
    0.2707    2.0909   -1.2772 H   0  0  0  0  0  0  0  0  0  0  0  0
    4.1718    0.5831   -3.7284 H   0  0  0  0  0  0  0  0  0  0  0  0
    3.5202   -1.5097   -4.9369 H   0  0  0  0  0  0  0  0  0  0  0  0
    3.6678   -1.9247   -3.2081 H   0  0  0  0  0  0  0  0  0  0  0  0
   -1.0522   -3.7301   -1.6522 H   0  0  0  0  0  0  0  0  0  0  0  0
    0.6672   -3.6020   -1.2762 H   0  0  0  0  0  0  0  0  0  0  0  0
   -1.1440   -1.4929   -2.4880 H   0  0  0  0  0  0  0  0  0  0  0  0
   -0.4346   -1.5083   -0.9047 H   0  0  0  0  0  0  0  0  0  0  0  0
   -1.0387   -5.2950   -5.5969 H   0  0  0  0  0  0  0  0  0  0  0  0
   -1.6114   -4.4691   -4.3317 H   0  0  0  0  0  0  0  0  0  0  0  0
   -0.6428   -6.9768   -3.7567 H   0  0  0  0  0  0  0  0  0  0  0  0
   -1.2101   -5.7180   -2.6286 H   0  0  0  0  0  0  0  0  0  0  0  0
    1.2726   -5.7313   -4.2400 H   0  0  0  0  0  0  0  0  0  0  0  0
   -1.1248    0.4225   -3.3620 H   0  0  0  0  0  0  0  0  0  0  0  0
   -0.2271    1.9163   -3.5585 H   0  0  0  0  0  0  0  0  0  0  0  0
    0.1418    0.5585   -4.6038 H   0  0  0  0  0  0  0  0  0  0  0  0
    3.6415    3.8100   -1.3408 H   0  0  0  0  0  0  0  0  0  0  0  0
   -0.6563   -1.5956   -4.4979 H   0  0  0  0  0  0  0  0  0  0  0  0
   -0.7749   -2.8925   -5.5855 H   0  0  0  0  0  0  0  0  0  0  0  0
   -1.9772   -2.6986   -4.2832 H   0  0  0  0  0  0  0  0  0  0  0  0
    1.0953   -5.4903   -1.4724 H   0  0  0  0  0  0  0  0  0  0  0  0
  1  2  1  0  0  0  0
  1 25  1  0  0  0  0
  1 26  1  0  0  0  0
  2  3  1  0  0  0  0
  2 19  1  0  0  0  0
  2 27  1  1  0  0  0
  3  4  1  0  0  0  0
  3 28  1  0  0  0  0
  3 29  1  0  0  0  0
  4  5  1  0  0  0  0
  4  7  2  0  0  0  0
  5  6  1  0  0  0  0
  5 18  1  6  0  0  0
  6  1  1  0  0  0  0
  6 30  1  0  0  0  0
  6 31  1  0  0  0  0
  7  8  1  0  0  0  0
  7 32  1  0  0  0  0
  8  9  1  0  0  0  0
  8 33  1  0  0  0  0
  8 34  1  0  0  0  0
  9 10  1  0  0  0  0
  9 11  1  0  0  0  0
  9 22  1  6  0  0  0
 10  5  1  0  0  0  0
 10 23  1  1  0  0  0
 11 12  1  0  0  0  0
 11 15  1  0  0  0  0
 11 24  1  1  0  0  0
 12 13  1  0  0  0  0
 12 20  1  6  0  0  0
 13 14  1  0  0  0  0
 13 35  1  0  0  0  0
 13 36  1  0  0  0  0
 14 10  1  0  0  0  0
 14 37  1  0  0  0  0
 14 38  1  0  0  0  0
 15 16  1  0  0  0  0
 15 39  1  0  0  0  0
 15 40  1  0  0  0  0
 16 17  1  0  0  0  0
 16 41  1  0  0  0  0
 16 42  1  0  0  0  0
 17 12  1  0  0  0  0
 17 43  1  6  0  0  0
 17 21  1  0  0  0  0
 18 44  1  0  0  0  0
 18 45  1  0  0  0  0
 18 46  1  0  0  0  0
 19 47  1  0  0  0  0
 20 48  1  0  0  0  0
 20 49  1  0  0  0  0
 20 50  1  0  0  0  0
 21 51  1  0  0  0  0
M  END
>  <DRUGBANK_ID>
DB01524

>  <COMMON_NAME>
Androstenediol

>  <CAS_NUMBER>
521-17-5

>  <UNII>
95PS51EMXY

>  <SYNONYMS>
5-andendiol; 5-androstenediol; androst-5-ene-3beta,17beta-diol; androst-5-enediol; Androstenediol; hermaphrodiol

$$$$
