
 OpenBabel10282417183D

160163  0  0  0  0  0  0  0  0999 V2000
    1.6284    0.3772    2.5799 O   0  0  0  0  0  0  0  0  0  0  0  0
    0.4549    0.8129    6.4942 O   0  0  0  0  0  0  0  0  0  0  0  0
   -0.9313   -1.2598    7.9707 O   0  0  0  0  0  0  0  0  0  0  0  0
    3.5710   -0.3641    3.6351 O   0  0  0  0  0  0  0  0  0  0  0  0
    2.4067   -1.2342    7.4824 O   0  0  0  0  0  0  0  0  0  0  0  0
    1.4579   -3.1034    6.3698 O   0  0  0  0  0  0  0  0  0  0  0  0
    1.9333    0.2027    5.5738 O   0  0  0  0  0  0  0  0  0  0  0  0
   -2.3747    0.2389    0.9361 O   0  0  0  0  0  0  0  0  0  0  0  0
   -4.1599   -4.1607    6.3722 O   0  0  0  0  0  0  0  0  0  0  0  0
   -3.8590   -0.2952    2.7060 O   0  0  0  0  0  0  0  0  0  0  0  0
   -3.6021    2.3142    3.7265 O   0  0  0  0  0  0  0  0  0  0  0  0
   -2.6057    4.0366    1.7277 O   0  0  0  0  0  0  0  0  0  0  0  0
    0.5430   -2.6390    8.6710 O   0  0  0  0  0  0  0  0  0  0  0  0
   -0.4351   -4.3741    3.2601 O   0  0  0  0  0  0  0  0  0  0  0  0
   -0.3235    3.3869    0.2114 O   0  0  0  0  0  0  0  0  0  0  0  0
   -0.6235   -3.6889    5.9817 O   0  0  0  0  0  0  0  0  0  0  0  0
    0.1877    3.0489    9.1999 O   0  0  0  0  0  0  0  0  0  0  0  0
   -5.9505   -2.9186    5.6865 O   0  0  0  0  0  0  0  0  0  0  0  0
   -5.3442    1.4880    6.5099 O   0  0  0  0  0  0  0  0  0  0  0  0
    0.3125   -2.6528    4.1071 N   0  0  0  0  0  0  0  0  0  0  0  0
    0.8866   -0.0117    3.7321 C   0  0  1  0  0  0  0  0  0  0  0  0
    0.8991   -1.4044    4.3976 C   0  0  1  0  0  0  0  0  0  0  0  0
    0.9938   -1.8172    5.8402 C   0  0  2  0  0  0  0  0  0  0  0  0
    0.7162   -0.2582    7.2100 C   0  0  1  0  0  0  0  0  0  0  0  0
    3.1369    1.3643    5.8383 C   0  0  1  0  0  0  0  0  0  0  0  0
    0.4623    1.4202    4.5775 C   0  0  1  0  0  0  0  0  0  0  0  0
    2.8932    0.7929    3.0788 C   0  0  2  0  0  0  0  0  0  0  0  0
    3.3110   -0.1034    6.2968 C   0  0  2  0  0  0  0  0  0  0  0  0
    3.1942    2.0124    4.0463 C   0  0  0  0  0  0  0  0  0  0  0  0
    3.4792   -0.8965    5.0098 C   0  0  2  0  0  0  0  0  0  0  0  0
   -2.3832   -2.2408    7.0999 C   0  0  2  0  0  0  0  0  0  0  0  0
   -2.8563   -3.5771    5.4414 C   0  0  2  0  0  0  0  0  0  0  0  0
   -3.0859   -0.6302    8.0573 C   0  0  2  0  0  0  0  0  0  0  0  0
    2.7093    2.8072    7.0919 C   0  0  0  0  0  0  0  0  0  0  0  0
   -0.2821    3.3331    4.7827 C   0  0  0  0  0  0  0  0  0  0  0  0
   -3.0233   -4.9995    5.8323 C   0  0  1  0  0  0  0  0  0  0  0  0
    0.6927   -1.9125    7.7019 C   0  0  0  0  0  0  0  0  0  0  0  0
    3.7271   -2.2891    5.2880 C   0  0  0  0  0  0  0  0  0  0  0  0
    1.3759   -4.0434    4.0215 C   0  0  0  0  0  0  0  0  0  0  0  0
   -1.0901   -2.7484    3.6208 C   0  0  0  0  0  0  0  0  0  0  0  0
   -2.9613    2.0290    2.4517 C   0  0  2  0  0  0  0  0  0  0  0  0
   -1.7951    2.9701    1.9810 C   0  0  1  0  0  0  0  0  0  0  0  0
   -3.3588    0.7114    1.8662 C   0  0  1  0  0  0  0  0  0  0  0  0
   -2.3120    0.3729    9.4145 C   0  0  0  0  0  0  0  0  0  0  0  0
   -0.8583    2.3189    0.9354 C   0  0  1  0  0  0  0  0  0  0  0  0
   -4.4305   -0.4508    7.5836 C   0  0  0  0  0  0  0  0  0  0  0  0
   -1.7219    1.2853    0.2443 C   0  0  1  0  0  0  0  0  0  0  0  0
   -1.5896   -5.2942    5.8857 C   0  0  0  0  0  0  0  0  0  0  0  0
   -2.8769   -4.3112    3.5654 C   0  0  0  0  0  0  0  0  0  0  0  0
   -0.8463    0.8946    9.7454 C   0  0  2  0  0  0  0  0  0  0  0  0
   -0.6380   -0.6477    6.3074 C   0  0  0  0  0  0  0  0  0  0  0  0
   -0.7556   -4.4800    5.0203 C   0  0  0  0  0  0  0  0  0  0  0  0
   -1.4215   -1.1979    2.7141 C   0  0  1  0  0  0  0  0  0  0  0  0
   -0.0030   -2.7046    2.1725 C   0  0  1  0  0  0  0  0  0  0  0  0
   -0.5175    2.0715    8.9247 C   0  0  0  0  0  0  0  0  0  0  0  0
   -3.0410   -1.4225    2.5255 C   0  0  0  0  0  0  0  0  0  0  0  0
   -5.3562   -3.9855    5.6591 C   0  0  0  0  0  0  0  0  0  0  0  0
   -4.8989    1.0155    7.5470 C   0  0  0  0  0  0  0  0  0  0  0  0
   -0.7849    1.4551    5.7072 C   0  0  0  0  0  0  0  0  0  0  0  0
   -0.9225    0.5780   -0.7726 C   0  0  0  0  0  0  0  0  0  0  0  0
   -2.0590   -0.9881    4.2784 C   0  0  0  0  0  0  0  0  0  0  0  0
   -1.1994    1.9287    7.6269 C   0  0  0  0  0  0  0  0  0  0  0  0
    0.2683   -0.0415    9.8483 C   0  0  0  0  0  0  0  0  0  0  0  0
   -1.4476    0.0323    4.7917 C   0  0  0  0  0  0  0  0  0  0  0  0
    1.5121   -2.3438    2.4712 C   0  0  0  0  0  0  0  0  0  0  0  0
   -1.9729    0.7322    6.6578 C   0  0  0  0  0  0  0  0  0  0  0  0
   -4.7361    2.9510    3.6512 C   0  0  0  0  0  0  0  0  0  0  0  0
   -2.5612    4.8802    2.8963 C   0  0  0  0  0  0  0  0  0  0  0  0
   -5.9079   -5.2558    5.0877 C   0  0  0  0  0  0  0  0  0  0  0  0
    1.1339    2.3139    5.9304 C   0  0  0  0  0  0  0  0  0  0  0  0
   -2.1971    1.6531    4.6968 C   0  0  0  0  0  0  0  0  0  0  0  0
   -0.6771    1.1660    3.2044 C   0  0  0  0  0  0  0  0  0  0  0  0
    2.3420   -2.8874    1.5122 C   0  0  0  0  0  0  0  0  0  0  0  0
    2.1330   -2.6982    6.9301 H   0  0  0  0  0  0  0  0  0  0  0  0
    0.9441    0.2696    5.5402 H   0  0  0  0  0  0  0  0  0  0  0  0
    0.5855    3.5177    0.5415 H   0  0  0  0  0  0  0  0  0  0  0  0
    0.0080   -0.4257    3.4613 H   0  0  0  0  0  0  0  0  0  0  0  0
    1.7932   -1.1616    3.9976 H   0  0  0  0  0  0  0  0  0  0  0  0
   -0.0052   -2.2318    5.8447 H   0  0  0  0  0  0  0  0  0  0  0  0
    1.4553    0.1683    7.8232 H   0  0  0  0  0  0  0  0  0  0  0  0
    1.0661    2.2734    4.0456 H   0  0  0  0  0  0  0  0  0  0  0  0
    3.1788    1.1981    2.1012 H   0  0  0  0  0  0  0  0  0  0  0  0
    4.2840    0.1042    6.5338 H   0  0  0  0  0  0  0  0  0  0  0  0
    4.1289    2.4059    4.2736 H   0  0  0  0  0  0  0  0  0  0  0  0
    2.5216    2.9310    3.8004 H   0  0  0  0  0  0  0  0  0  0  0  0
    2.5607   -1.2851    5.2570 H   0  0  0  0  0  0  0  0  0  0  0  0
   -2.2661   -2.7897    8.0372 H   0  0  0  0  0  0  0  0  0  0  0  0
   -3.6962   -4.2798    4.6801 H   0  0  0  0  0  0  0  0  0  0  0  0
   -3.1642    0.5206    7.7821 H   0  0  0  0  0  0  0  0  0  0  0  0
    2.2931    3.7730    6.6421 H   0  0  0  0  0  0  0  0  0  0  0  0
    1.6812    2.6253    7.7477 H   0  0  0  0  0  0  0  0  0  0  0  0
    3.3996    2.5001    7.7791 H   0  0  0  0  0  0  0  0  0  0  0  0
   -0.1490    3.8378    5.7860 H   0  0  0  0  0  0  0  0  0  0  0  0
    0.2353    3.8321    3.9955 H   0  0  0  0  0  0  0  0  0  0  0  0
   -1.3560    3.4758    4.9019 H   0  0  0  0  0  0  0  0  0  0  0  0
   -3.5202   -5.9350    6.0129 H   0  0  0  0  0  0  0  0  0  0  0  0
    4.2258   -2.2109    6.2169 H   0  0  0  0  0  0  0  0  0  0  0  0
    2.9335   -2.9549    5.5420 H   0  0  0  0  0  0  0  0  0  0  0  0
    3.8312   -2.7772    4.3744 H   0  0  0  0  0  0  0  0  0  0  0  0
    1.1724   -4.3745    4.9775 H   0  0  0  0  0  0  0  0  0  0  0  0
    1.2241   -4.6197    3.0845 H   0  0  0  0  0  0  0  0  0  0  0  0
    2.4396   -3.9393    3.9087 H   0  0  0  0  0  0  0  0  0  0  0  0
   -1.5538   -2.7761    4.4858 H   0  0  0  0  0  0  0  0  0  0  0  0
   -1.6344   -2.6481    2.2432 H   0  0  0  0  0  0  0  0  0  0  0  0
   -1.5516   -3.3602    2.6535 H   0  0  0  0  0  0  0  0  0  0  0  0
   -2.2050    1.3647    2.4698 H   0  0  0  0  0  0  0  0  0  0  0  0
   -1.0261    3.5186    2.5662 H   0  0  0  0  0  0  0  0  0  0  0  0
   -4.1150    1.2586    1.4332 H   0  0  0  0  0  0  0  0  0  0  0  0
   -2.8305    1.3784    9.4255 H   0  0  0  0  0  0  0  0  0  0  0  0
   -2.6032   -0.2058   10.2367 H   0  0  0  0  0  0  0  0  0  0  0  0
    0.1084    1.8144    1.1918 H   0  0  0  0  0  0  0  0  0  0  0  0
   -4.1679   -0.7685    6.5657 H   0  0  0  0  0  0  0  0  0  0  0  0
   -4.6337   -1.0001    8.4662 H   0  0  0  0  0  0  0  0  0  0  0  0
   -2.5402    1.8691   -0.1098 H   0  0  0  0  0  0  0  0  0  0  0  0
   -0.9661   -6.1153    5.6640 H   0  0  0  0  0  0  0  0  0  0  0  0
   -1.5103   -4.9320    6.9658 H   0  0  0  0  0  0  0  0  0  0  0  0
   -2.1121   -4.8457    2.8173 H   0  0  0  0  0  0  0  0  0  0  0  0
   -3.4970   -3.9957    2.6347 H   0  0  0  0  0  0  0  0  0  0  0  0
   -2.7660   -3.3277    3.5534 H   0  0  0  0  0  0  0  0  0  0  0  0
   -0.7660    1.3623   10.7148 H   0  0  0  0  0  0  0  0  0  0  0  0
   -0.2836   -0.8648    5.4352 H   0  0  0  0  0  0  0  0  0  0  0  0
   -1.5327   -1.1334    6.2440 H   0  0  0  0  0  0  0  0  0  0  0  0
   -1.0477   -0.5040    2.0966 H   0  0  0  0  0  0  0  0  0  0  0  0
   -0.2683   -2.9610    1.1622 H   0  0  0  0  0  0  0  0  0  0  0  0
   -3.0663   -1.8312    1.5430 H   0  0  0  0  0  0  0  0  0  0  0  0
   -3.5331   -2.1075    3.2131 H   0  0  0  0  0  0  0  0  0  0  0  0
   -4.6786    1.6580    8.4385 H   0  0  0  0  0  0  0  0  0  0  0  0
   -1.4527    2.3062    5.9965 H   0  0  0  0  0  0  0  0  0  0  0  0
   -1.6127   -0.0596   -1.3166 H   0  0  0  0  0  0  0  0  0  0  0  0
   -0.4756    1.3301   -1.4064 H   0  0  0  0  0  0  0  0  0  0  0  0
   -0.1456   -0.0593   -0.3246 H   0  0  0  0  0  0  0  0  0  0  0  0
   -2.4926   -1.6434    5.0244 H   0  0  0  0  0  0  0  0  0  0  0  0
   -0.3858    2.6529    7.1869 H   0  0  0  0  0  0  0  0  0  0  0  0
    1.1583    0.5482    9.7843 H   0  0  0  0  0  0  0  0  0  0  0  0
    0.2195   -0.9481   10.4313 H   0  0  0  0  0  0  0  0  0  0  0  0
    0.5511   -0.4560    8.9788 H   0  0  0  0  0  0  0  0  0  0  0  0
    1.5419   -1.3395    2.2917 H   0  0  0  0  0  0  0  0  0  0  0  0
    2.1160   -2.4795    3.5195 H   0  0  0  0  0  0  0  0  0  0  0  0
   -1.6484    0.1395    7.4576 H   0  0  0  0  0  0  0  0  0  0  0  0
   -4.2055    3.6996    3.1636 H   0  0  0  0  0  0  0  0  0  0  0  0
   -5.0808    2.1159    3.0926 H   0  0  0  0  0  0  0  0  0  0  0  0
   -4.9347    3.1664    4.6886 H   0  0  0  0  0  0  0  0  0  0  0  0
   -2.6185    4.4530    3.9300 H   0  0  0  0  0  0  0  0  0  0  0  0
   -1.6289    5.4164    2.8524 H   0  0  0  0  0  0  0  0  0  0  0  0
   -3.4579    5.4415    2.7366 H   0  0  0  0  0  0  0  0  0  0  0  0
   -5.5135   -5.5470    4.1108 H   0  0  0  0  0  0  0  0  0  0  0  0
   -5.7188   -6.0408    5.8220 H   0  0  0  0  0  0  0  0  0  0  0  0
   -6.9848   -5.1107    5.0075 H   0  0  0  0  0  0  0  0  0  0  0  0
    1.8826    1.6224    4.9309 H   0  0  0  0  0  0  0  0  0  0  0  0
    1.4907    3.1728    5.4030 H   0  0  0  0  0  0  0  0  0  0  0  0
    1.7034    1.5904    6.7427 H   0  0  0  0  0  0  0  0  0  0  0  0
   -3.0821    0.8857    4.7087 H   0  0  0  0  0  0  0  0  0  0  0  0
   -1.9183    2.3880    4.0543 H   0  0  0  0  0  0  0  0  0  0  0  0
   -2.2247    0.8075    3.7033 H   0  0  0  0  0  0  0  0  0  0  0  0
   -0.6118    2.2226    3.3068 H   0  0  0  0  0  0  0  0  0  0  0  0
    0.3960    1.6173    2.8469 H   0  0  0  0  0  0  0  0  0  0  0  0
   -0.5336    0.7901    2.2620 H   0  0  0  0  0  0  0  0  0  0  0  0
    1.8469   -2.1972    0.8303 H   0  0  0  0  0  0  0  0  0  0  0  0
    3.2066   -2.6228    2.1315 H   0  0  0  0  0  0  0  0  0  0  0  0
    1.9260   -3.8783    1.5810 H   0  0  0  0  0  0  0  0  0  0  0  0
  2 24  1  0  0  0  0
  2 26  1  0  0  0  0
  4 27  1  0  0  0  0
  4 30  1  0  0  0  0
  5 37  1  0  0  0  0
  6 74  1  0  0  0  0
  7 75  1  0  0  0  0
  8 43  1  0  0  0  0
  8 47  1  0  0  0  0
  9 57  1  0  0  0  0
 10 56  1  0  0  0  0
 11 67  1  0  0  0  0
 12 68  1  0  0  0  0
 13 37  2  0  0  0  0
 14 52  1  0  0  0  0
 14 54  1  0  0  0  0
 15 76  1  0  0  0  0
 16 52  2  0  0  0  0
 17 55  2  0  0  0  0
 18 57  2  0  0  0  0
 19 58  2  0  0  0  0
 20 39  1  0  0  0  0
 20 40  1  0  0  0  0
 21  1  1  0  0  0  0
 21 22  1  0  0  0  0
 21 26  1  0  0  0  0
 21 77  1  6  0  0  0
 22 20  1  0  0  0  0
 22 23  1  0  0  0  0
 22 78  1  6  0  0  0
 23  6  1  0  0  0  0
 23 24  1  0  0  0  0
 23 79  1  1  0  0  0
 24  3  1  0  0  0  0
 24 80  1  1  0  0  0
 25 28  1  0  0  0  0
 25 29  1  0  0  0  0
 25 34  1  0  0  0  0
 25  7  1  6  0  0  0
 26 35  1  0  0  0  0
 26 81  1  1  0  0  0
 27  1  1  0  0  0  0
 27 29  1  0  0  0  0
 27 82  1  6  0  0  0
 28 30  1  0  0  0  0
 28 83  1  1  0  0  0
 28  5  1  0  0  0  0
 29 84  1  0  0  0  0
 29 85  1  0  0  0  0
 30 86  1  6  0  0  0
 30 38  1  0  0  0  0
 31 32  1  0  0  0  0
 31 33  1  0  0  0  0
 31 87  1  1  0  0  0
 31  3  1  0  0  0  0
 32 36  1  0  0  0  0
 32 88  1  1  0  0  0
 32 49  1  0  0  0  0
 33 44  1  0  0  0  0
 33 89  1  6  0  0  0
 33 46  1  0  0  0  0
 34 90  1  0  0  0  0
 34 91  1  0  0  0  0
 34 92  1  0  0  0  0
 35 93  1  0  0  0  0
 35 94  1  0  0  0  0
 35 95  1  0  0  0  0
 36 48  1  0  0  0  0
 36 96  1  6  0  0  0
 36  9  1  0  0  0  0
 37 51  1  0  0  0  0
 38 97  1  0  0  0  0
 38 98  1  0  0  0  0
 38 99  1  0  0  0  0
 39100  1  0  0  0  0
 39101  1  0  0  0  0
 39102  1  0  0  0  0
 40103  1  0  0  0  0
 40104  1  0  0  0  0
 40105  1  0  0  0  0
 41 11  1  0  0  0  0
 41 42  1  0  0  0  0
 41 43  1  0  0  0  0
 41106  1  1  0  0  0
 42 45  1  0  0  0  0
 42107  1  1  0  0  0
 42 12  1  0  0  0  0
 43108  1  6  0  0  0
 43 10  1  0  0  0  0
 44 50  1  0  0  0  0
 44109  1  0  0  0  0
 44110  1  0  0  0  0
 45 47  1  0  0  0  0
 45111  1  1  0  0  0
 45 15  1  0  0  0  0
 46 58  1  0  0  0  0
 46112  1  0  0  0  0
 46113  1  0  0  0  0
 47 60  1  0  0  0  0
 47114  1  6  0  0  0
 48 52  1  0  0  0  0
 48115  1  0  0  0  0
 48116  1  0  0  0  0
 49117  1  0  0  0  0
 49118  1  0  0  0  0
 49119  1  0  0  0  0
 50 55  1  0  0  0  0
 50120  1  1  0  0  0
 50 63  1  0  0  0  0
 51 59  1  0  0  0  0
 51121  1  0  0  0  0
 51122  1  0  0  0  0
 53 54  1  0  0  0  0
 53 56  1  0  0  0  0
 53 61  1  0  0  0  0
 53123  1  6  0  0  0
 54124  1  6  0  0  0
 54 65  1  0  0  0  0
 55 62  1  0  0  0  0
 56125  1  0  0  0  0
 56126  1  0  0  0  0
 57 69  1  0  0  0  0
 58127  1  0  0  0  0
 59 70  1  0  0  0  0
 59 71  1  0  0  0  0
 59128  1  0  0  0  0
 60129  1  0  0  0  0
 60130  1  0  0  0  0
 60131  1  0  0  0  0
 61 64  2  0  0  0  0
 61132  1  0  0  0  0
 62 66  2  0  0  0  0
 62133  1  0  0  0  0
 63134  1  0  0  0  0
 63135  1  0  0  0  0
 63136  1  0  0  0  0
 64 66  1  0  0  0  0
 64 72  1  0  0  0  0
 65 73  1  0  0  0  0
 65137  1  0  0  0  0
 65138  1  0  0  0  0
 66139  1  0  0  0  0
 67140  1  0  0  0  0
 67141  1  0  0  0  0
 67142  1  0  0  0  0
 68143  1  0  0  0  0
 68144  1  0  0  0  0
 68145  1  0  0  0  0
 69146  1  0  0  0  0
 69147  1  0  0  0  0
 69148  1  0  0  0  0
 70149  1  0  0  0  0
 70150  1  0  0  0  0
 70151  1  0  0  0  0
 71152  1  0  0  0  0
 71153  1  0  0  0  0
 71154  1  0  0  0  0
 72155  1  0  0  0  0
 72156  1  0  0  0  0
 72157  1  0  0  0  0
 73158  1  0  0  0  0
 73159  1  0  0  0  0
 73160  1  0  0  0  0
M  END
>  <DRUGBANK_ID>
DB11554

>  <COMMON_NAME>
Tylvalosin

>  <CAS_NUMBER>
63409-12-1

>  <UNII>
9T02S42WQO

>  <SYNONYMS>
Tylvalosin

$$$$
