
 OpenBabel10282417193D

 56 59  0  0  0  0  0  0  0  0999 V2000
   -3.9861   -2.9448   -8.3555 C   0  0  0  0  0  0  0  0  0  0  0  0
   -4.3336   -1.5224   -8.8105 C   0  0  0  0  0  0  0  0  0  0  0  0
   -5.6601   -1.5460   -9.3629 O   0  0  0  0  0  0  0  0  0  0  0  0
   -4.2681   -0.5400   -7.6394 C   0  0  0  0  0  0  0  0  0  0  0  0
   -3.3911   -0.8001   -6.6358 N   0  0  0  0  0  0  0  0  0  0  0  0
   -3.3111    0.0841   -5.6084 C   0  0  0  0  0  0  0  0  0  0  0  0
   -4.0224    1.2737   -5.5133 C   0  0  0  0  0  0  0  0  0  0  0  0
   -4.9150    1.5197   -6.5691 C   0  0  0  0  0  0  0  0  0  0  0  0
   -5.0418    0.6162   -7.6339 C   0  0  0  0  0  0  0  0  0  0  0  0
   -3.8151    2.1857   -4.3767 C   0  0  0  0  0  0  0  0  0  0  0  0
   -4.8622    2.3923   -3.5621 N   0  0  0  0  0  0  0  0  0  0  0  0
   -4.7521    3.2730   -2.5347 C   0  0  0  0  0  0  0  0  0  0  0  0
   -3.5304    3.9138   -2.2600 C   0  0  0  0  0  0  0  0  0  0  0  0
   -2.4500    3.6830   -3.0354 N   0  0  0  0  0  0  0  0  0  0  0  0
   -2.6220    2.8230   -4.0860 C   0  0  0  0  0  0  0  0  0  0  0  0
   -3.4073    4.7915   -1.1906 N   0  0  0  0  0  0  0  0  0  0  0  0
   -4.6399    5.3402   -0.6626 C   0  0  0  0  0  0  0  0  0  0  0  0
   -5.6603    4.2138   -0.4853 C   0  0  0  0  0  0  0  0  0  0  0  0
   -6.3207    4.0566    0.5254 O   0  0  0  0  0  0  0  0  0  0  0  0
   -5.8800    3.5420   -1.6986 N   0  0  0  0  0  0  0  0  0  0  0  0
   -7.2715    3.3651   -2.1250 C   0  0  1  0  0  0  0  0  0  0  0  0
   -7.9974    4.7479   -2.0397 C   0  0  0  0  0  0  0  0  0  0  0  0
   -7.6598    5.6797   -3.2081 C   0  0  0  0  0  0  0  0  0  0  0  0
   -7.8419    5.0451   -4.5878 C   0  0  1  0  0  0  0  0  0  0  0  0
   -7.1339    3.7011   -4.6740 C   0  0  0  0  0  0  0  0  0  0  0  0
   -7.4484    2.7249   -3.5150 C   0  0  0  0  0  0  0  0  0  0  0  0
   -9.1916    4.9992   -5.0507 O   0  0  0  0  0  0  0  0  0  0  0  0
  -10.0861    4.1635   -4.3459 C   0  0  0  0  0  0  0  0  0  0  0  0
   -3.3669   -1.0800   -9.9132 C   0  0  0  0  0  0  0  0  0  0  0  0
   -4.6778   -3.2850   -7.5764 H   0  0  0  0  0  0  0  0  0  0  0  0
   -2.9663   -3.0042   -7.9582 H   0  0  0  0  0  0  0  0  0  0  0  0
   -4.0661   -3.6567   -9.1844 H   0  0  0  0  0  0  0  0  0  0  0  0
   -5.6657   -2.1906  -10.0903 H   0  0  0  0  0  0  0  0  0  0  0  0
   -2.6212   -0.2145   -4.8239 H   0  0  0  0  0  0  0  0  0  0  0  0
   -5.5172    2.4219   -6.5999 H   0  0  0  0  0  0  0  0  0  0  0  0
   -5.7301    0.8156   -8.4527 H   0  0  0  0  0  0  0  0  0  0  0  0
   -1.7470    2.6619   -4.7046 H   0  0  0  0  0  0  0  0  0  0  0  0
   -2.5174    5.2343   -1.0325 H   0  0  0  0  0  0  0  0  0  0  0  0
   -5.0794    6.0762   -1.3552 H   0  0  0  0  0  0  0  0  0  0  0  0
   -4.4902    5.8570    0.2887 H   0  0  0  0  0  0  0  0  0  0  0  0
   -7.7517    2.7105   -1.3853 H   0  0  0  0  0  0  0  0  0  0  0  0
   -9.0688    4.5953   -1.9246 H   0  0  0  0  0  0  0  0  0  0  0  0
   -7.7599    5.2866   -1.1151 H   0  0  0  0  0  0  0  0  0  0  0  0
   -8.2418    6.6055   -3.1410 H   0  0  0  0  0  0  0  0  0  0  0  0
   -6.6055    5.9715   -3.1012 H   0  0  0  0  0  0  0  0  0  0  0  0
   -7.3354    5.7125   -5.3026 H   0  0  0  0  0  0  0  0  0  0  0  0
   -7.3356    3.2198   -5.6342 H   0  0  0  0  0  0  0  0  0  0  0  0
   -6.0694    3.9604   -4.6895 H   0  0  0  0  0  0  0  0  0  0  0  0
   -6.8741    1.7992   -3.6054 H   0  0  0  0  0  0  0  0  0  0  0  0
   -8.4391    2.2903   -3.5924 H   0  0  0  0  0  0  0  0  0  0  0  0
   -9.7831    3.1258   -4.3916 H   0  0  0  0  0  0  0  0  0  0  0  0
  -10.2206    4.5115   -3.3296 H   0  0  0  0  0  0  0  0  0  0  0  0
  -11.0726    4.1819   -4.8001 H   0  0  0  0  0  0  0  0  0  0  0  0
   -2.3320   -1.0559   -9.5554 H   0  0  0  0  0  0  0  0  0  0  0  0
   -3.4191   -1.7572  -10.7741 H   0  0  0  0  0  0  0  0  0  0  0  0
   -3.6226   -0.0823  -10.2887 H   0  0  0  0  0  0  0  0  0  0  0  0
  1  2  1  0  0  0  0
  1 30  1  0  0  0  0
  1 31  1  0  0  0  0
  1 32  1  0  0  0  0
  2  3  1  0  0  0  0
  2  4  1  0  0  0  0
  2 29  1  0  0  0  0
  3 33  1  0  0  0  0
  4  5  2  0  0  0  0
  4  9  1  0  0  0  0
  5  6  1  0  0  0  0
  6  7  2  0  0  0  0
  6 34  1  0  0  0  0
  7  8  1  0  0  0  0
  7 10  1  0  0  0  0
  8  9  2  0  0  0  0
  8 35  1  0  0  0  0
  9 36  1  0  0  0  0
 10 11  2  0  0  0  0
 10 15  1  0  0  0  0
 11 12  1  0  0  0  0
 12 13  2  0  0  0  0
 12 20  1  0  0  0  0
 13 14  1  0  0  0  0
 13 16  1  0  0  0  0
 14 15  2  0  0  0  0
 15 37  1  0  0  0  0
 16 17  1  0  0  0  0
 16 38  1  0  0  0  0
 17 18  1  0  0  0  0
 17 39  1  0  0  0  0
 17 40  1  0  0  0  0
 18 19  2  0  0  0  0
 18 20  1  0  0  0  0
 21 22  1  0  0  0  0
 21 26  1  0  0  0  0
 21 41  1  1  0  0  0
 21 20  1  0  0  0  0
 22 23  1  0  0  0  0
 22 42  1  0  0  0  0
 22 43  1  0  0  0  0
 23 24  1  0  0  0  0
 23 44  1  0  0  0  0
 23 45  1  0  0  0  0
 24 25  1  0  0  0  0
 24 27  1  0  0  0  0
 24 46  1  6  0  0  0
 25 26  1  0  0  0  0
 25 47  1  0  0  0  0
 25 48  1  0  0  0  0
 26 49  1  0  0  0  0
 26 50  1  0  0  0  0
 27 28  1  0  0  0  0
 28 51  1  0  0  0  0
 28 52  1  0  0  0  0
 28 53  1  0  0  0  0
 29 54  1  0  0  0  0
 29 55  1  0  0  0  0
 29 56  1  0  0  0  0
M  END
>  <DRUGBANK_ID>
DB12570

>  <COMMON_NAME>
Onatasertib

>  <CAS_NUMBER>
1228013-30-6

>  <UNII>
I8RA3543SY

$$$$
