1071
 OpenBabel10282417113D

 45 49  0  0  1  0  0  0  0  0999 V2000
    0.0662    1.6594   -0.4955 S   0  0  0  0  0  0  0  0  0  0  0  0
   -2.4894    0.2574    3.2914 N   0  0  3  0  0  0  0  0  0  0  0  0
    0.0172   -1.3265    0.5278 N   0  0  0  0  0  0  0  0  0  0  0  0
    0.0047   -0.3118    3.7835 C   0  0  3  0  0  0  0  0  0  0  0  0
   -0.7167   -1.5256    3.1328 C   0  0  3  0  0  0  0  0  0  0  0  0
   -2.2129   -1.1754    3.0255 C   0  0  0  0  0  0  0  0  0  0  0  0
   -0.0915    0.8424    2.8111 C   0  0  0  0  0  0  0  0  0  0  0  0
   -0.7448    0.2178    5.0304 C   0  0  0  0  0  0  0  0  0  0  0  0
   -1.5744    1.0984    2.5006 C   0  0  0  0  0  0  0  0  0  0  0  0
   -2.2009    0.5725    4.6862 C   0  0  0  0  0  0  0  0  0  0  0  0
   -0.0571   -2.1338    1.8166 C   0  0  0  0  0  0  0  0  0  0  0  0
    1.2861   -0.8075    0.1426 C   0  0  0  0  0  0  0  0  0  0  0  0
   -1.1547   -0.8695   -0.1162 C   0  0  0  0  0  0  0  0  0  0  0  0
    1.4292    0.5412   -0.2797 C   0  0  0  0  0  0  0  0  0  0  0  0
   -1.2656    0.4704   -0.5877 C   0  0  0  0  0  0  0  0  0  0  0  0
    2.3996   -1.6344    0.0435 C   0  0  0  0  0  0  0  0  0  0  0  0
   -2.2781   -1.6913   -0.2612 C   0  0  0  0  0  0  0  0  0  0  0  0
    2.6793    1.0695   -0.6144 C   0  0  0  0  0  0  0  0  0  0  0  0
   -2.5200    1.0163   -0.8920 C   0  0  0  0  0  0  0  0  0  0  0  0
    3.6153   -1.1361   -0.4539 C   0  0  0  0  0  0  0  0  0  0  0  0
   -3.5110   -1.1561   -0.6512 C   0  0  0  0  0  0  0  0  0  0  0  0
    3.7530    0.2222   -0.7466 C   0  0  0  0  0  0  0  0  0  0  0  0
   -3.6450    0.2058   -0.9067 C   0  0  0  0  0  0  0  0  0  0  0  0
    1.0443   -0.5559    4.0257 H   0  0  0  0  0  0  0  0  0  0  0  0
   -0.6538   -2.3336    3.8823 H   0  0  0  0  0  0  0  0  0  0  0  0
   -2.6207   -1.4662    2.0657 H   0  0  0  0  0  0  0  0  0  0  0  0
   -2.7957   -1.7886    3.7266 H   0  0  0  0  0  0  0  0  0  0  0  0
    0.4852    0.5631    1.9549 H   0  0  0  0  0  0  0  0  0  0  0  0
    0.4014    1.7457    3.1796 H   0  0  0  0  0  0  0  0  0  0  0  0
   -0.7141   -0.5023    5.8486 H   0  0  0  0  0  0  0  0  0  0  0  0
   -0.2430    1.1354    5.3697 H   0  0  0  0  0  0  0  0  0  0  0  0
   -1.8383    0.8717    1.4962 H   0  0  0  0  0  0  0  0  0  0  0  0
   -1.7952    2.1668    2.5844 H   0  0  0  0  0  0  0  0  0  0  0  0
   -2.3822    1.6465    4.8332 H   0  0  0  0  0  0  0  0  0  0  0  0
   -2.9083    0.0543    5.3376 H   0  0  0  0  0  0  0  0  0  0  0  0
   -0.5545   -3.0900    1.6020 H   0  0  0  0  0  0  0  0  0  0  0  0
    0.9585   -2.4247    2.1247 H   0  0  0  0  0  0  0  0  0  0  0  0
    2.3163   -2.6984    0.2523 H   0  0  0  0  0  0  0  0  0  0  0  0
   -2.2244   -2.7412    0.0107 H   0  0  0  0  0  0  0  0  0  0  0  0
    2.7772    2.1320   -0.8353 H   0  0  0  0  0  0  0  0  0  0  0  0
   -2.6339    2.0941   -1.0013 H   0  0  0  0  0  0  0  0  0  0  0  0
    4.4387   -1.8111   -0.6366 H   0  0  0  0  0  0  0  0  0  0  0  0
   -4.3886   -1.7948   -0.6838 H   0  0  0  0  0  0  0  0  0  0  0  0
    4.6930    0.6137   -1.1328 H   0  0  0  0  0  0  0  0  0  0  0  0
   -4.6196    0.6454   -1.0903 H   0  0  0  0  0  0  0  0  0  0  0  0
  1 14  1  0  0  0  0
  1 15  1  0  0  0  0
  2  6  1  0  0  0  0
  2  9  1  0  0  0  0
  2 10  1  0  0  0  0
  3 11  1  0  0  0  0
  3 12  1  0  0  0  0
  3 13  1  0  0  0  0
  4  5  1  0  0  0  0
  4  7  1  0  0  0  0
  4  8  1  0  0  0  0
  4 24  1  0  0  0  0
  5  6  1  0  0  0  0
  5 11  1  0  0  0  0
  5 25  1  0  0  0  0
  6 26  1  0  0  0  0
  6 27  1  0  0  0  0
  7  9  1  0  0  0  0
  7 28  1  0  0  0  0
  7 29  1  0  0  0  0
  8 10  1  0  0  0  0
  8 30  1  0  0  0  0
  8 31  1  0  0  0  0
  9 32  1  0  0  0  0
  9 33  1  0  0  0  0
 10 34  1  0  0  0  0
 10 35  1  0  0  0  0
 11 36  1  0  0  0  0
 11 37  1  0  0  0  0
 12 14  1  0  0  0  0
 12 16  2  0  0  0  0
 13 15  1  0  0  0  0
 13 17  2  0  0  0  0
 14 18  2  0  0  0  0
 15 19  2  0  0  0  0
 16 20  1  0  0  0  0
 16 38  1  0  0  0  0
 17 21  1  0  0  0  0
 17 39  1  0  0  0  0
 18 22  1  0  0  0  0
 18 40  1  0  0  0  0
 19 23  1  0  0  0  0
 19 41  1  0  0  0  0
 20 22  2  0  0  0  0
 20 42  1  0  0  0  0
 21 23  2  0  0  0  0
 21 43  1  0  0  0  0
 22 44  1  0  0  0  0
 23 45  1  0  0  0  0
M  END
>  <DRUGBANK_ID>
DB01071

>  <SECONDARY_ACCESSION_NUMBERS>
APRD00386

>  <COMMON_NAME>
Mequitazine

>  <CAS_NUMBER>
29216-28-2

>  <UNII>
Y463242LY2

>  <SYNONYMS>
Mequitazina; Mequitazine; Mequitazinum

$$$$
