
 OpenBabel10282417203D

 63 65  0  0  0  0  0  0  0  0999 V2000
    0.2530   -1.5226   -1.1195 C   0  0  0  0  0  0  0  0  0  0  0  0
    0.9192    0.0191   -1.2971 C   0  0  1  0  0  0  0  0  0  0  0  0
    1.1086    0.0090   -2.6778 O   0  0  0  0  0  0  0  0  0  0  0  0
    0.4515    1.5572   -0.9033 C   0  0  0  0  0  0  0  0  0  0  0  0
   -1.0186    1.3576   -1.1223 C   0  0  0  0  0  0  0  0  0  0  0  0
   -1.3935    0.0177   -0.2024 C   0  0  2  0  0  0  0  0  0  0  0  0
   -1.5912   -0.0693    1.8294 N   0  0  0  0  0  0  0  0  0  0  0  0
   -1.5775   -1.2796    2.7599 C   0  0  0  0  0  0  0  0  0  0  0  0
   -1.5918   -1.2801    4.1552 C   0  0  0  0  0  0  0  0  0  0  0  0
   -1.9370   -0.1070    4.7624 C   0  0  0  0  0  0  0  0  0  0  0  0
   -1.9597   -0.1956    6.0989 C   0  0  0  0  0  0  0  0  0  0  0  0
   -2.4923    1.3478    7.0130 Br  0  0  0  0  0  0  0  0  0  0  0  0
   -1.6138   -1.4144    6.7135 C   0  0  0  0  0  0  0  0  0  0  0  0
   -1.2200   -2.5752    6.0052 C   0  0  0  0  0  0  0  0  0  0  0  0
   -0.7540   -4.1645    6.8960 Br  0  0  0  0  0  0  0  0  0  0  0  0
   -1.1979   -2.5468    4.6538 C   0  0  0  0  0  0  0  0  0  0  0  0
   -0.8038   -3.6063    3.8141 N   0  0  0  0  0  0  0  0  0  0  0  0
   -1.1618   -1.2784   -1.2962 C   0  0  0  0  0  0  0  0  0  0  0  0
    1.8503   -1.2862    0.9526 N   0  0  0  0  0  0  0  0  0  0  0  0
    2.6030   -0.0704    0.9519 C   0  0  0  0  0  0  0  0  0  0  0  0
    1.8283    1.0037    1.2694 N   0  0  0  0  0  0  0  0  0  0  0  0
    0.3011    0.6839    1.3952 C   0  0  0  0  0  0  0  0  0  0  0  0
   -1.2176    1.7378    1.1328 N   0  0  0  0  0  0  0  0  0  0  0  0
   -2.9066    1.0119    0.7689 C   0  0  0  0  0  0  0  0  0  0  0  0
   -2.8219   -0.8517    0.7069 N   0  0  0  0  0  0  0  0  0  0  0  0
   -1.2672   -1.8407    0.8306 C   0  0  0  0  0  0  0  0  0  0  0  0
    0.3255   -0.8721    1.1842 C   0  0  0  0  0  0  0  0  0  0  0  0
   -1.2698   -3.0847    0.8305 O   0  0  0  0  0  0  0  0  0  0  0  0
   -3.9179   -1.6268    0.1597 C   0  0  0  0  0  0  0  0  0  0  0  0
   -3.8993    1.6459    0.3174 O   0  0  0  0  0  0  0  0  0  0  0  0
   -1.0796    3.3198    0.5968 C   0  0  0  0  0  0  0  0  0  0  0  0
    2.4122   -2.6227    0.2656 C   0  0  0  0  0  0  0  0  0  0  0  0
    3.1436   -2.7375   -1.1425 C   0  0  0  0  0  0  0  0  0  0  0  0
    4.2782   -3.1769   -1.2923 O   0  0  0  0  0  0  0  0  0  0  0  0
    2.4298   -2.5338   -2.2802 O   0  0  0  0  0  0  0  0  0  0  0  0
    0.5355   -2.3984   -1.6854 H   0  0  0  0  0  0  0  0  0  0  0  0
    0.3897   -2.1541   -0.2322 H   0  0  0  0  0  0  0  0  0  0  0  0
    1.8955   -0.0264   -0.9266 H   0  0  0  0  0  0  0  0  0  0  0  0
    1.8226   -0.6516   -2.6868 H   0  0  0  0  0  0  0  0  0  0  0  0
    0.7030    2.0966    0.0747 H   0  0  0  0  0  0  0  0  0  0  0  0
    0.9769    2.3877   -1.3952 H   0  0  0  0  0  0  0  0  0  0  0  0
   -1.1848    1.2753   -2.1914 H   0  0  0  0  0  0  0  0  0  0  0  0
   -1.8219    2.1004   -0.9660 H   0  0  0  0  0  0  0  0  0  0  0  0
   -2.4059    0.0921   -0.7797 H   0  0  0  0  0  0  0  0  0  0  0  0
   -2.5780    0.0723    2.1237 H   0  0  0  0  0  0  0  0  0  0  0  0
   -2.3798   -2.0168    2.5384 H   0  0  0  0  0  0  0  0  0  0  0  0
   -0.5559   -1.6195    2.7492 H   0  0  0  0  0  0  0  0  0  0  0  0
   -2.1492    0.7817    4.1699 H   0  0  0  0  0  0  0  0  0  0  0  0
   -1.6542   -1.4614    7.7836 H   0  0  0  0  0  0  0  0  0  0  0  0
   -0.5303   -4.4936    4.2117 H   0  0  0  0  0  0  0  0  0  0  0  0
   -0.7741   -3.5863    2.7879 H   0  0  0  0  0  0  0  0  0  0  0  0
   -1.3155   -1.0342   -2.3326 H   0  0  0  0  0  0  0  0  0  0  0  0
   -1.7820   -2.1880   -1.1628 H   0  0  0  0  0  0  0  0  0  0  0  0
    3.5865   -0.0404    0.3858 H   0  0  0  0  0  0  0  0  0  0  0  0
   -3.6792   -2.0377   -0.8305 H   0  0  0  0  0  0  0  0  0  0  0  0
   -4.0206   -2.4731    0.8358 H   0  0  0  0  0  0  0  0  0  0  0  0
   -4.7723   -0.9732    0.0526 H   0  0  0  0  0  0  0  0  0  0  0  0
   -0.3935    3.8757    1.2213 H   0  0  0  0  0  0  0  0  0  0  0  0
   -0.6466    3.4788   -0.4336 H   0  0  0  0  0  0  0  0  0  0  0  0
   -2.0618    3.7808    0.3871 H   0  0  0  0  0  0  0  0  0  0  0  0
    3.1042   -2.9917    1.0230 H   0  0  0  0  0  0  0  0  0  0  0  0
    1.6292   -3.3960    0.2490 H   0  0  0  0  0  0  0  0  0  0  0  0
    2.9167   -2.8341   -3.0882 H   0  0  0  0  0  0  0  0  0  0  0  0
  1  2  1  0  0  0  0
  1 18  1  0  0  0  0
  1 36  1  0  0  0  0
  1 37  1  0  0  0  0
  2  4  1  0  0  0  0
  2 38  1  1  0  0  0
  2  3  1  0  0  0  0
  3 39  1  0  0  0  0
  4  5  1  0  0  0  0
  4 40  1  0  0  0  0
  4 41  1  0  0  0  0
  5  6  1  0  0  0  0
  5 42  1  0  0  0  0
  5 43  1  0  0  0  0
  6 18  1  0  0  0  0
  6 44  1  6  0  0  0
  6  7  1  0  0  0  0
  7  8  1  0  0  0  0
  7 45  1  0  0  0  0
  8  9  1  0  0  0  0
  8 46  1  0  0  0  0
  8 47  1  0  0  0  0
  9 10  2  0  0  0  0
  9 16  1  0  0  0  0
 10 11  1  0  0  0  0
 10 48  1  0  0  0  0
 11 12  1  0  0  0  0
 11 13  2  0  0  0  0
 13 14  1  0  0  0  0
 13 49  1  0  0  0  0
 14 15  1  0  0  0  0
 14 16  2  0  0  0  0
 16 17  1  0  0  0  0
 17 50  1  0  0  0  0
 17 51  1  0  0  0  0
 18 52  1  0  0  0  0
 18 53  1  0  0  0  0
 19 20  1  0  0  0  0
 19 27  1  0  0  0  0
 19 32  1  0  0  0  0
 20 21  2  0  0  0  0
 20 54  1  0  0  0  0
 21 22  1  0  0  0  0
 22 23  1  0  0  0  0
 22 27  2  0  0  0  0
 23 24  1  0  0  0  0
 23 31  1  0  0  0  0
 24 25  1  0  0  0  0
 24 30  2  0  0  0  0
 25 26  1  0  0  0  0
 25 29  1  0  0  0  0
 26 27  1  0  0  0  0
 26 28  2  0  0  0  0
 29 55  1  0  0  0  0
 29 56  1  0  0  0  0
 29 57  1  0  0  0  0
 31 58  1  0  0  0  0
 31 59  1  0  0  0  0
 31 60  1  0  0  0  0
 32 33  1  0  0  0  0
 32 61  1  0  0  0  0
 32 62  1  0  0  0  0
 33 34  2  0  0  0  0
 33 35  1  0  0  0  0
 35 63  1  0  0  0  0
M  END
>  <DRUGBANK_ID>
DB13141

>  <COMMON_NAME>
Ambroxol acefyllinate

>  <CAS_NUMBER>
96989-76-3

>  <UNII>
0HM1E174TN

>  <SYNONYMS>
Acebrophylline; Ambromucil; Ambroxol theophyllinacetate; Broncomnes; Surfolase

$$$$
