
 OpenBabel10282417233D

 46 48  0  0  1  0  0  0  0  0999 V2000
    0.8208    0.1982   -0.3168 H   0  0  0  0  0  0  0  0  0  0  0  0
    1.9160    0.1409   -0.3348 C   0  0  1  0  0  0  0  0  0  0  0  0
    2.5602    1.1025   -1.2939 C   0  0  0  0  0  0  0  0  0  0  0  0
    3.8615    1.5450   -0.6202 C   0  0  0  0  0  0  0  0  0  0  0  0
    3.7791    1.0174    0.8165 C   0  0  2  0  0  0  0  0  0  0  0  0
    4.1811    1.7586    1.5240 H   0  0  0  0  0  0  0  0  0  0  0  0
    4.5483   -0.2480    1.0555 C   0  0  2  0  0  0  0  0  0  0  0  0
    3.9935   -1.4349   -0.4066 C   0  0  2  0  0  0  0  0  0  0  0  0
    2.3640   -1.2802   -0.6654 C   0  0  0  0  0  0  0  0  0  0  0  0
    4.5834   -3.1666   -0.6357 C   0  0  0  0  0  0  0  0  0  0  0  0
    3.7908   -4.1092   -1.2576 C   0  0  0  0  0  0  0  0  0  0  0  0
    4.0755   -5.4897   -1.0181 C   0  0  0  0  0  0  0  0  0  0  0  0
    4.9542   -5.9532   -0.0124 C   0  0  0  0  0  0  0  0  0  0  0  0
    5.4180   -7.9484    0.2855 I   0  0  0  0  0  0  0  0  0  0  0  0
    5.7015   -5.0578    0.6792 C   0  0  0  0  0  0  0  0  0  0  0  0
    5.7395   -3.7805    0.1160 C   0  0  0  0  0  0  0  0  0  0  0  0
    4.7006   -0.5047    3.0477 C   0  0  0  0  0  0  0  0  0  0  0  0
    5.6751   -0.7941    3.6883 O   0  0  0  0  0  0  0  0  0  0  0  0
    3.5403   -0.8541    3.7857 O   0  0  0  0  0  0  0  0  0  0  0  0
    3.3180   -2.1467    4.5069 C   0  0  0  0  0  0  0  0  0  0  0  0
    2.3832    0.6153    0.9499 N   0  0  0  0  0  0  0  0  0  0  0  0
    2.2120   -0.4200    1.9632 C   0  0  0  0  0  0  0  0  0  0  0  0
    3.0547   -1.9895    1.8331 C   0  0  0  0  0  0  0  0  0  0  0  0
    4.7889   -2.3897    1.8689 C   0  0  0  0  0  0  0  0  0  0  0  0
    5.9811   -1.7139    1.9807 F   0  0  0  0  0  0  0  0  0  0  0  0
    2.7396    0.6069   -2.2519 H   0  0  0  0  0  0  0  0  0  0  0  0
    1.9008    1.9578   -1.4481 H   0  0  0  0  0  0  0  0  0  0  0  0
    4.7371    1.1734   -1.1668 H   0  0  0  0  0  0  0  0  0  0  0  0
    3.9207    2.6377   -0.6291 H   0  0  0  0  0  0  0  0  0  0  0  0
    5.5783   -0.0205    0.7403 H   0  0  0  0  0  0  0  0  0  0  0  0
    4.4246   -1.0012   -1.3222 H   0  0  0  0  0  0  0  0  0  0  0  0
    2.0732   -1.5929   -1.6730 H   0  0  0  0  0  0  0  0  0  0  0  0
    1.6645   -1.9085   -0.0913 H   0  0  0  0  0  0  0  0  0  0  0  0
    3.0106   -3.8205   -1.9509 H   0  0  0  0  0  0  0  0  0  0  0  0
    3.5996   -6.2322   -1.6447 H   0  0  0  0  0  0  0  0  0  0  0  0
    6.2771   -5.2937    1.5869 H   0  0  0  0  0  0  0  0  0  0  0  0
    6.5239   -3.2119    0.6418 H   0  0  0  0  0  0  0  0  0  0  0  0
    3.7670   -3.0368    4.0322 H   0  0  0  0  0  0  0  0  0  0  0  0
    3.6622   -2.0682    5.5230 H   0  0  0  0  0  0  0  0  0  0  0  0
    2.2240   -2.3451    4.4902 H   0  0  0  0  0  0  0  0  0  0  0  0
    2.4462    0.2453    2.8091 H   0  0  0  0  0  0  0  0  0  0  0  0
    1.1663   -0.6199    2.2139 H   0  0  0  0  0  0  0  0  0  0  0  0
    2.5885   -2.6324    2.5526 H   0  0  0  0  0  0  0  0  0  0  0  0
    2.6656   -2.6264    1.0483 H   0  0  0  0  0  0  0  0  0  0  0  0
    4.9389   -3.3377    2.3043 H   0  0  0  0  0  0  0  0  0  0  0  0
    5.0390   -2.1784    0.8888 H   0  0  0  0  0  0  0  0  0  0  0  0
  2  1  1  6  0  0  0
  2  3  1  0  0  0  0
  2  9  1  0  0  0  0
  2 21  1  0  0  0  0
  3  4  1  0  0  0  0
  3 26  1  0  0  0  0
  3 27  1  0  0  0  0
  4 28  1  0  0  0  0
  4 29  1  0  0  0  0
  5  4  1  0  0  0  0
  5  6  1  1  0  0  0
  5 21  1  0  0  0  0
  7  5  1  0  0  0  0
  7  8  1  0  0  0  0
  7 17  1  0  0  0  0
  7 30  1  6  0  0  0
  8  9  1  0  0  0  0
  8 10  1  0  0  0  0
  8 31  1  6  0  0  0
  9 32  1  0  0  0  0
  9 33  1  0  0  0  0
 10 11  2  0  0  0  0
 10 16  1  0  0  0  0
 11 12  1  0  0  0  0
 11 34  1  0  0  0  0
 12 13  2  0  0  0  0
 12 35  1  0  0  0  0
 13 14  1  0  0  0  0
 13 15  1  0  0  0  0
 15 16  2  0  0  0  0
 15 36  1  0  0  0  0
 16 37  1  0  0  0  0
 17 18  2  0  0  0  0
 17 19  1  0  0  0  0
 19 20  1  0  0  0  0
 20 38  1  0  0  0  0
 20 39  1  0  0  0  0
 20 40  1  0  0  0  0
 21 22  1  0  0  0  0
 22 23  1  0  0  0  0
 22 41  1  0  0  0  0
 22 42  1  0  0  0  0
 23 24  1  0  0  0  0
 23 43  1  0  0  0  0
 23 44  1  0  0  0  0
 24 25  1  0  0  0  0
 24 45  1  0  0  0  0
 24 46  1  0  0  0  0
M  ISO  1  25  18
M  END
>  <DRUGBANK_ID>
DB16913

>  <COMMON_NAME>
Ioflupane F-18

>  <CAS_NUMBER>
186381-69-1

>  <UNII>
NT4P0L3OCX

>  <SYNONYMS>
(18f)fp-cit; 18f-beta-cit-fp; 18f-cit-fp; 18f-fp-.beta.-cit; 18f-fpcit; 18f-ioflupane; 18fluorine-n-3-fluoropropyl-2beta-carbomethoxy-3beta-(4-iodophenyl) nortropane; 8-azabicyclo(3.2.1)octane-2-carboxylic acid, 8-(3-(fluoro-18f)propyl)-3-(4-iodophenyl)-, methyl ester, (1r,2s,3s,5s)-; F-18-fpcit; Methyl (1s,3s,4s,5r)-8-(3-fluoranylpropyl)-3-(4-iodophenyl)-8-azabicyclo(3.2.1)octane-4-carboxylate

$$$$
