
 OpenBabel10282417213D

 52 51  0  0  0  0  0  0  0  0999 V2000
   -0.9635    2.7702   -1.3323 C   0  0  0  0  0  0  0  0  0  0  0  0
    0.5060    2.7339   -1.6308 C   0  0  0  0  0  0  0  0  0  0  0  0
    4.0283    7.2948    1.1151 C   0  0  0  0  0  0  0  0  0  0  0  0
    3.3065    7.3830   -0.2032 C   0  0  0  0  0  0  0  0  0  0  0  0
    3.5510    6.1511   -1.0757 C   0  0  0  0  0  0  0  0  0  0  0  0
    2.9886    4.8767   -0.4416 C   0  0  0  0  0  0  0  0  0  0  0  0
    1.4889    5.0316   -0.1557 C   0  0  0  0  0  0  0  0  0  0  0  0
    0.7094    5.2130   -1.4631 C   0  0  0  0  0  0  0  0  0  0  0  0
    0.9104    4.0010   -2.3653 C   0  0  0  0  0  0  0  0  0  0  0  0
    4.9484    8.0198    1.4716 O   0  0  0  0  0  0  0  0  0  0  0  0
    3.5874    6.3097    1.9181 O   0  0  0  0  0  0  0  0  0  0  0  0
   -1.8247    1.8988   -1.8509 C   0  0  0  0  0  0  0  0  0  0  0  0
   -1.3760    0.7903   -2.7228 C   0  0  0  0  0  0  0  0  0  0  0  0
   -1.7821   -0.5061   -2.1347 C   0  0  0  0  0  0  0  0  0  0  0  0
   -2.5557   -1.3652   -2.7955 C   0  0  0  0  0  0  0  0  0  0  0  0
   -3.0432   -1.1169   -4.1931 C   0  0  0  0  0  0  0  0  0  0  0  0
   -2.4869   -2.1654   -5.1429 C   0  0  0  0  0  0  0  0  0  0  0  0
   -3.0292   -3.5521   -4.8087 C   0  0  0  0  0  0  0  0  0  0  0  0
   -4.5603   -3.5796   -4.8069 C   0  0  0  0  0  0  0  0  0  0  0  0
   -5.1154   -3.2008   -6.1714 C   0  0  0  0  0  0  0  0  0  0  0  0
   -1.3615    3.5610   -0.7008 H   0  0  0  0  0  0  0  0  0  0  0  0
    1.0432    2.5582   -0.6966 H   0  0  0  0  0  0  0  0  0  0  0  0
    0.8438    1.9106   -2.2535 H   0  0  0  0  0  0  0  0  0  0  0  0
    3.6590    8.2713   -0.7358 H   0  0  0  0  0  0  0  0  0  0  0  0
    2.2428    7.5684   -0.0188 H   0  0  0  0  0  0  0  0  0  0  0  0
    4.6191    6.0222   -1.2749 H   0  0  0  0  0  0  0  0  0  0  0  0
    3.0914    6.3112   -2.0603 H   0  0  0  0  0  0  0  0  0  0  0  0
    3.5220    4.6161    0.4741 H   0  0  0  0  0  0  0  0  0  0  0  0
    3.1978    4.0175   -1.0875 H   0  0  0  0  0  0  0  0  0  0  0  0
    1.2714    5.8688    0.5109 H   0  0  0  0  0  0  0  0  0  0  0  0
    1.1378    4.1695    0.4197 H   0  0  0  0  0  0  0  0  0  0  0  0
    1.0114    6.1179   -1.9970 H   0  0  0  0  0  0  0  0  0  0  0  0
   -0.3513    5.3661   -1.2422 H   0  0  0  0  0  0  0  0  0  0  0  0
    1.9557    3.9048   -2.6806 H   0  0  0  0  0  0  0  0  0  0  0  0
    0.3471    4.1165   -3.2984 H   0  0  0  0  0  0  0  0  0  0  0  0
    4.2244    6.2442    2.6583 H   0  0  0  0  0  0  0  0  0  0  0  0
   -2.8912    2.0028   -1.6588 H   0  0  0  0  0  0  0  0  0  0  0  0
   -1.7640    1.0341   -3.7074 H   0  0  0  0  0  0  0  0  0  0  0  0
   -0.3076    0.6951   -2.8945 H   0  0  0  0  0  0  0  0  0  0  0  0
   -1.4071   -0.7548   -1.1425 H   0  0  0  0  0  0  0  0  0  0  0  0
   -2.8126   -2.2989   -2.3019 H   0  0  0  0  0  0  0  0  0  0  0  0
   -4.1334   -1.0642   -4.1751 H   0  0  0  0  0  0  0  0  0  0  0  0
   -2.7606   -0.1564   -4.6177 H   0  0  0  0  0  0  0  0  0  0  0  0
   -2.7475   -1.8815   -6.1687 H   0  0  0  0  0  0  0  0  0  0  0  0
   -1.3893   -2.1670   -5.1158 H   0  0  0  0  0  0  0  0  0  0  0  0
   -2.6367   -4.2753   -5.5295 H   0  0  0  0  0  0  0  0  0  0  0  0
   -2.6582   -3.8716   -3.8277 H   0  0  0  0  0  0  0  0  0  0  0  0
   -4.9045   -4.5765   -4.5208 H   0  0  0  0  0  0  0  0  0  0  0  0
   -4.9701   -2.9043   -4.0463 H   0  0  0  0  0  0  0  0  0  0  0  0
   -4.7480   -3.8990   -6.9288 H   0  0  0  0  0  0  0  0  0  0  0  0
   -6.2064   -3.2218   -6.1625 H   0  0  0  0  0  0  0  0  0  0  0  0
   -4.8202   -2.1901   -6.4729 H   0  0  0  0  0  0  0  0  0  0  0  0
  1 21  1  0  0  0  0
  2  1  1  0  0  0  0
  2 22  1  0  0  0  0
  2 23  1  0  0  0  0
  3 10  2  0  0  0  0
  3 11  1  0  0  0  0
  3  4  1  0  0  0  0
  4  5  1  0  0  0  0
  4 24  1  0  0  0  0
  4 25  1  0  0  0  0
  5  6  1  0  0  0  0
  5 26  1  0  0  0  0
  5 27  1  0  0  0  0
  6  7  1  0  0  0  0
  6 28  1  0  0  0  0
  6 29  1  0  0  0  0
  7  8  1  0  0  0  0
  7 30  1  0  0  0  0
  7 31  1  0  0  0  0
  8  9  1  0  0  0  0
  8 32  1  0  0  0  0
  8 33  1  0  0  0  0
  9  2  1  0  0  0  0
  9 34  1  0  0  0  0
  9 35  1  0  0  0  0
 11 36  1  0  0  0  0
 12  1  2  0  0  0  0
 12 37  1  0  0  0  0
 13 12  1  0  0  0  0
 13 38  1  0  0  0  0
 13 39  1  0  0  0  0
 14 13  1  0  0  0  0
 14 40  1  0  0  0  0
 15 14  2  0  0  0  0
 15 41  1  0  0  0  0
 16 15  1  0  0  0  0
 16 42  1  0  0  0  0
 16 43  1  0  0  0  0
 17 16  1  0  0  0  0
 17 44  1  0  0  0  0
 17 45  1  0  0  0  0
 18 17  1  0  0  0  0
 18 46  1  0  0  0  0
 18 47  1  0  0  0  0
 19 18  1  0  0  0  0
 19 48  1  0  0  0  0
 19 49  1  0  0  0  0
 20 19  1  0  0  0  0
 20 50  1  0  0  0  0
 20 51  1  0  0  0  0
 20 52  1  0  0  0  0
M  END
>  <DRUGBANK_ID>
DB14104

>  <COMMON_NAME>
Linoleic acid

>  <CAS_NUMBER>
60-33-3

>  <UNII>
9KJL21T0QJ

>  <SYNONYMS>
(9Z,12Z)-Octadecadienoic acid; (Z,Z)-9,12-octadecadienoic acid; 9-cis,12-cis-Octadecadienoic acid; 9Z,12Z-octadecadienoic acid; acide cis-linoléique; acide linoléique; ácido linoleico; all-cis-9,12-octadecadienoic acid; C18:2 9c, 12c omega6 todos cis-9,12-octadienoico; cis,cis-9,12-octadecadienoic acid; cis,cis-linoleic acid; LA; Linolic acid

$$$$
