
 OpenBabel10282417133D

 19 18  0  0  0  0  0  0  0  0999 V2000
    1.2880   -0.0031    0.0692 C   0  0  0  0  0  0  0  0  0  0  0  0
    0.6163    0.4746    1.3520 C   0  0  0  0  0  0  0  0  0  0  0  0
    1.0795    1.9114    1.6181 C   0  0  0  0  0  0  0  0  0  0  0  0
   -0.9189    0.4040    1.2809 C   0  0  0  0  0  0  0  0  0  0  0  0
   -1.5034   -0.9905    1.1217 C   0  0  0  0  0  0  0  0  0  0  0  0
   -2.1450   -1.5374    2.0137 O   0  0  0  0  0  0  0  0  0  0  0  0
   -1.3150   -1.7054   -0.2362 C   0  0  0  0  0  0  0  0  0  0  0  0
   -0.9709   -1.1616   -1.2688 O   0  0  0  0  0  0  0  0  0  0  0  0
   -1.5373   -3.0225   -0.1799 O   0  0  0  0  0  0  0  0  0  0  0  0
    0.8804    0.5283   -0.7983 H   0  0  0  0  0  0  0  0  0  0  0  0
    1.1511   -1.0784   -0.0608 H   0  0  0  0  0  0  0  0  0  0  0  0
    2.3682    0.1633    0.0880 H   0  0  0  0  0  0  0  0  0  0  0  0
    0.9637   -0.1585    2.1783 H   0  0  0  0  0  0  0  0  0  0  0  0
    0.7346    2.5893    0.8290 H   0  0  0  0  0  0  0  0  0  0  0  0
    0.7074    2.2832    2.5772 H   0  0  0  0  0  0  0  0  0  0  0  0
    2.1745    1.9629    1.6428 H   0  0  0  0  0  0  0  0  0  0  0  0
   -1.3218    0.7962    2.2268 H   0  0  0  0  0  0  0  0  0  0  0  0
   -1.3234    1.0505    0.4943 H   0  0  0  0  0  0  0  0  0  0  0  0
   -1.3502   -3.3506   -1.0830 H   0  0  0  0  0  0  0  0  0  0  0  0
  1  2  1  0  0  0  0
  1 10  1  0  0  0  0
  1 11  1  0  0  0  0
  1 12  1  0  0  0  0
  2  3  1  0  0  0  0
  2  4  1  0  0  0  0
  2 13  1  0  0  0  0
  3 14  1  0  0  0  0
  3 15  1  0  0  0  0
  3 16  1  0  0  0  0
  4  5  1  0  0  0  0
  4 17  1  0  0  0  0
  4 18  1  0  0  0  0
  5  6  2  0  0  0  0
  5  7  1  0  0  0  0
  7  8  2  0  0  0  0
  7  9  1  0  0  0  0
  9 19  1  0  0  0  0
M  END
>  <DRUGBANK_ID>
DB03229

>  <SECONDARY_ACCESSION_NUMBERS>
EXPT00985

>  <COMMON_NAME>
alpha-Ketoisocaproic acid

>  <CAS_NUMBER>
816-66-0

>  <UNII>
4GUJ8AH400

>  <SYNONYMS>
2-oxo-4-methylpentanoic acid; 2-Oxoisocaproate; 2-oxoleucine; 4-Methyl-2-oxopentanoate; 4-methyl-2-oxopentanoic acid; 4-methyl-2-oxovaleric acid; alpha-Ketoisocaproate; Ketoleucine; Î±-ketoisocaproic acid

$$$$
