
 OpenBabel10282417183D

 55 57  0  0  0  0  0  0  0  0999 V2000
   -1.4550    0.4472   -0.4754 C   0  0  0  0  0  0  0  0  0  0  0  0
   -0.9807   -0.9077   -0.0227 C   0  0  0  0  0  0  0  0  0  0  0  0
    0.4498   -1.2859   -0.3660 C   0  0  0  0  0  0  0  0  0  0  0  0
    1.4363   -0.2367    0.2134 C   0  0  0  0  0  0  0  0  0  0  0  0
    0.9727    1.1157   -0.3863 C   0  0  0  0  0  0  0  0  0  0  0  0
   -0.4720    1.4879    0.0174 C   0  0  0  0  0  0  0  0  0  0  0  0
    1.5424   -0.2828    1.7165 N   0  0  0  0  0  0  0  0  0  0  0  0
    1.9474   -1.4838    2.2945 C   0  0  0  0  0  0  0  0  0  0  0  0
    2.2890   -2.4616    1.6254 O   0  0  0  0  0  0  0  0  0  0  0  0
    1.9598   -1.5763    3.7857 C   0  0  0  0  0  0  0  0  0  0  0  0
    1.6423   -0.3490    4.5497 C   0  0  0  0  0  0  0  0  0  0  0  0
    1.6727   -0.3717    5.7816 O   0  0  0  0  0  0  0  0  0  0  0  0
    1.2922    0.7687    3.8244 N   0  0  0  0  0  0  0  0  0  0  0  0
    1.4472    0.8860    2.4609 C   0  0  0  0  0  0  0  0  0  0  0  0
    1.4796    2.0164    1.9783 O   0  0  0  0  0  0  0  0  0  0  0  0
    0.9395    2.0014    4.5476 C   0  0  0  0  0  0  0  0  0  0  0  0
    2.1597    2.5424    5.2958 C   0  0  0  0  0  0  0  0  0  0  0  0
    1.8118    3.7570    6.1343 C   0  0  0  0  0  0  0  0  0  0  0  0
    0.6318    3.4622    7.0547 C   0  0  0  0  0  0  0  0  0  0  0  0
   -0.6030    3.0316    6.2684 C   0  0  0  0  0  0  0  0  0  0  0  0
   -0.3108    1.8068    5.4160 C   0  0  0  0  0  0  0  0  0  0  0  0
    1.0991   -2.7081    4.3024 C   0  0  0  0  0  0  0  0  0  0  0  0
    1.5869   -3.6811    4.8795 O   0  0  0  0  0  0  0  0  0  0  0  0
   -0.2614   -2.6357    4.2048 N   0  0  0  0  0  0  0  0  0  0  0  0
   -1.1040   -1.6842    3.5049 C   0  0  0  0  0  0  0  0  0  0  0  0
   -1.8895   -2.3669    2.4004 C   0  0  0  0  0  0  0  0  0  0  0  0
   -2.9733   -1.9844    1.9646 O   0  0  0  0  0  0  0  0  0  0  0  0
   -1.1279   -3.2436    1.7062 O   0  0  0  0  0  0  0  0  0  0  0  0
   -1.5671    0.4717   -1.5595 H   0  0  0  0  0  0  0  0  0  0  0  0
   -2.4386    0.6328   -0.0219 H   0  0  0  0  0  0  0  0  0  0  0  0
   -0.9989   -0.8220    1.0540 H   0  0  0  0  0  0  0  0  0  0  0  0
   -1.6873   -1.6701   -0.3539 H   0  0  0  0  0  0  0  0  0  0  0  0
    0.6565   -2.2948    0.0026 H   0  0  0  0  0  0  0  0  0  0  0  0
    0.5483   -1.3436   -1.4559 H   0  0  0  0  0  0  0  0  0  0  0  0
    2.4371   -0.4839   -0.1651 H   0  0  0  0  0  0  0  0  0  0  0  0
    1.6829    1.9065   -0.1365 H   0  0  0  0  0  0  0  0  0  0  0  0
    1.0165    1.0516   -1.4793 H   0  0  0  0  0  0  0  0  0  0  0  0
   -0.7388    2.4783   -0.3555 H   0  0  0  0  0  0  0  0  0  0  0  0
   -0.6081    1.5347    1.1059 H   0  0  0  0  0  0  0  0  0  0  0  0
    3.0048   -1.7999    4.0488 H   0  0  0  0  0  0  0  0  0  0  0  0
    0.6503    2.7859    3.8322 H   0  0  0  0  0  0  0  0  0  0  0  0
    2.5804    1.7794    5.9563 H   0  0  0  0  0  0  0  0  0  0  0  0
    2.9527    2.7890    4.5780 H   0  0  0  0  0  0  0  0  0  0  0  0
    2.6882    4.0388    6.7270 H   0  0  0  0  0  0  0  0  0  0  0  0
    1.5734    4.6018    5.4778 H   0  0  0  0  0  0  0  0  0  0  0  0
    0.9095    2.6655    7.7567 H   0  0  0  0  0  0  0  0  0  0  0  0
    0.3988    4.3518    7.6465 H   0  0  0  0  0  0  0  0  0  0  0  0
   -1.4200    2.7959    6.9588 H   0  0  0  0  0  0  0  0  0  0  0  0
   -0.9441    3.8550    5.6298 H   0  0  0  0  0  0  0  0  0  0  0  0
   -1.1727    1.5816    4.7732 H   0  0  0  0  0  0  0  0  0  0  0  0
   -0.2045    0.9483    6.0828 H   0  0  0  0  0  0  0  0  0  0  0  0
   -0.7260   -3.4656    4.5546 H   0  0  0  0  0  0  0  0  0  0  0  0
   -1.7733   -1.1949    4.2118 H   0  0  0  0  0  0  0  0  0  0  0  0
   -0.4984   -0.9082    3.0494 H   0  0  0  0  0  0  0  0  0  0  0  0
   -1.5318   -3.3505    0.8184 H   0  0  0  0  0  0  0  0  0  0  0  0
  1  2  1  0  0  0  0
  1  6  1  0  0  0  0
  1 29  1  0  0  0  0
  1 30  1  0  0  0  0
  2  3  1  0  0  0  0
  2 31  1  0  0  0  0
  2 32  1  0  0  0  0
  3  4  1  0  0  0  0
  3 33  1  0  0  0  0
  3 34  1  0  0  0  0
  4  5  1  0  0  0  0
  4  7  1  0  0  0  0
  4 35  1  0  0  0  0
  5  6  1  0  0  0  0
  5 36  1  0  0  0  0
  5 37  1  0  0  0  0
  6 38  1  0  0  0  0
  6 39  1  0  0  0  0
  7  8  1  0  0  0  0
  7 14  1  0  0  0  0
  8  9  2  0  0  0  0
  8 10  1  0  0  0  0
 10 11  1  0  0  0  0
 10 22  1  0  0  0  0
 10 40  1  0  0  0  0
 11 12  2  0  0  0  0
 11 13  1  0  0  0  0
 13 14  1  0  0  0  0
 13 16  1  0  0  0  0
 14 15  2  0  0  0  0
 16 17  1  0  0  0  0
 16 21  1  0  0  0  0
 16 41  1  0  0  0  0
 17 18  1  0  0  0  0
 17 42  1  0  0  0  0
 17 43  1  0  0  0  0
 18 19  1  0  0  0  0
 18 44  1  0  0  0  0
 18 45  1  0  0  0  0
 19 20  1  0  0  0  0
 19 46  1  0  0  0  0
 19 47  1  0  0  0  0
 20 21  1  0  0  0  0
 20 48  1  0  0  0  0
 20 49  1  0  0  0  0
 21 50  1  0  0  0  0
 21 51  1  0  0  0  0
 22 23  2  0  0  0  0
 22 24  1  0  0  0  0
 24 25  1  0  0  0  0
 24 52  1  0  0  0  0
 25 26  1  0  0  0  0
 25 53  1  0  0  0  0
 25 54  1  0  0  0  0
 26 27  2  0  0  0  0
 26 28  1  0  0  0  0
 28 55  1  0  0  0  0
M  END
>  <DRUGBANK_ID>
DB11682

>  <COMMON_NAME>
Daprodustat

>  <CAS_NUMBER>
960539-70-2

>  <UNII>
JVR38ZM64B

>  <SYNONYMS>
Daprodustat; Glycine, N-((1,3-dicyclohexylhexahydro-2,4,6-trioxo-5-pyrimidinyl)carbonyl)-

$$$$
