
 OpenBabel10282417123D

 16 15  0  0  0  0  0  0  0  0999 V2000
    1.5289   -0.3709    0.2867 C   0  0  0  0  0  0  0  0  0  0  0  0
    0.6912   -1.3451   -0.3323 O   0  0  0  0  0  0  0  0  0  0  0  0
    1.0053   -1.5742   -1.7065 C   0  0  0  0  0  0  0  0  0  0  0  0
    0.3515   -0.5810   -2.6883 C   0  0  0  0  0  0  0  0  0  0  0  0
    0.6655    0.7904   -2.4435 O   0  0  0  0  0  0  0  0  0  0  0  0
   -0.1722    1.3982   -1.4622 C   0  0  0  0  0  0  0  0  0  0  0  0
    1.0083   -0.0009    1.1734 H   0  0  0  0  0  0  0  0  0  0  0  0
    1.7369    0.4819   -0.3615 H   0  0  0  0  0  0  0  0  0  0  0  0
    2.4973   -0.7903    0.5576 H   0  0  0  0  0  0  0  0  0  0  0  0
    2.0975   -1.5986   -1.8286 H   0  0  0  0  0  0  0  0  0  0  0  0
    0.6321   -2.5730   -1.9541 H   0  0  0  0  0  0  0  0  0  0  0  0
    0.7247   -0.8171   -3.6899 H   0  0  0  0  0  0  0  0  0  0  0  0
   -0.7407   -0.7029   -2.7141 H   0  0  0  0  0  0  0  0  0  0  0  0
   -1.1405    1.6739   -1.8785 H   0  0  0  0  0  0  0  0  0  0  0  0
   -0.3802    0.7403   -0.6169 H   0  0  0  0  0  0  0  0  0  0  0  0
    0.3485    2.2806   -1.0820 H   0  0  0  0  0  0  0  0  0  0  0  0
  1  2  1  0  0  0  0
  1  7  1  0  0  0  0
  1  8  1  0  0  0  0
  1  9  1  0  0  0  0
  2  3  1  0  0  0  0
  3  4  1  0  0  0  0
  3 10  1  0  0  0  0
  3 11  1  0  0  0  0
  4  5  1  0  0  0  0
  4 12  1  0  0  0  0
  4 13  1  0  0  0  0
  5  6  1  0  0  0  0
  6 14  1  0  0  0  0
  6 15  1  0  0  0  0
  6 16  1  0  0  0  0
M  END
>  <DRUGBANK_ID>
DB01749

>  <SECONDARY_ACCESSION_NUMBERS>
EXPT01306

>  <COMMON_NAME>
1,2-Dimethoxyethane

>  <CAS_NUMBER>
110-71-4

>  <UNII>
GXS24JF5IW

$$$$
