
 OpenBabel10282417203D

 26 27  0  0  0  0  0  0  0  0999 V2000
    1.1049   -0.0190   -0.0167 C   0  0  0  0  0  0  0  0  0  0  0  0
    1.7260    4.4637    4.1490 C   0  0  0  0  0  0  0  0  0  0  0  0
   -1.1222   -1.8245    4.2770 C   0  0  0  0  0  0  0  0  0  0  0  0
   -0.7439   -0.5207    4.5543 C   0  0  0  0  0  0  0  0  0  0  0  0
    0.0260   -1.6857    2.1482 C   0  0  0  0  0  0  0  0  0  0  0  0
    0.7601    1.9084    1.5075 C   0  0  0  0  0  0  0  0  0  0  0  0
   -0.6726   -2.4147    3.1079 C   0  0  0  0  0  0  0  0  0  0  0  0
   -0.1549    0.2506    3.5440 C   0  0  0  0  0  0  0  0  0  0  0  0
    0.2053   -0.3046    2.2943 C   0  0  0  0  0  0  0  0  0  0  0  0
    0.4789    2.5339    2.6602 C   0  0  0  0  0  0  0  0  0  0  0  0
   -0.0013    1.7033    3.7829 C   0  0  0  0  0  0  0  0  0  0  0  0
   -0.9043   -3.7162    2.8972 F   0  0  0  0  0  0  0  0  0  0  0  0
    0.6751    0.5407    1.2686 N   0  0  0  0  0  0  0  0  0  0  0  0
   -0.3135    2.1951    4.8695 O   0  0  0  0  0  0  0  0  0  0  0  0
    1.1701    4.8253    1.5441 O   0  0  0  0  0  0  0  0  0  0  0  0
    0.5346    4.3004    2.7982 S   0  0  3  0  0  0  0  0  0  0  0  0
    0.7586    0.6075   -0.8468 H   0  0  0  0  0  0  0  0  0  0  0  0
    0.7215   -1.0185   -0.2338 H   0  0  0  0  0  0  0  0  0  0  0  0
    2.1980   -0.0610   -0.0434 H   0  0  0  0  0  0  0  0  0  0  0  0
    2.6802    4.0055    3.8773 H   0  0  0  0  0  0  0  0  0  0  0  0
    1.8825    5.5321    4.3213 H   0  0  0  0  0  0  0  0  0  0  0  0
    1.3487    4.0235    5.0737 H   0  0  0  0  0  0  0  0  0  0  0  0
   -1.7534   -2.3784    4.9623 H   0  0  0  0  0  0  0  0  0  0  0  0
   -0.9419   -0.0911    5.5336 H   0  0  0  0  0  0  0  0  0  0  0  0
    0.3721   -2.2384    1.2843 H   0  0  0  0  0  0  0  0  0  0  0  0
    1.0774    2.4770    0.6348 H   0  0  0  0  0  0  0  0  0  0  0  0
  1 17  1  0  0  0  0
  1 18  1  0  0  0  0
  1 19  1  0  0  0  0
  2 20  1  0  0  0  0
  2 21  1  0  0  0  0
  2 22  1  0  0  0  0
  3 23  1  0  0  0  0
  4  3  2  0  0  0  0
  4 24  1  0  0  0  0
  5 25  1  0  0  0  0
  6 26  1  0  0  0  0
  7  3  1  0  0  0  0
  7  5  2  0  0  0  0
  8  4  1  0  0  0  0
  9  5  1  0  0  0  0
  9  8  2  0  0  0  0
 10  6  2  0  0  0  0
 11  8  1  0  0  0  0
 11 10  1  0  0  0  0
 12  7  1  0  0  0  0
 13  1  1  0  0  0  0
 13  6  1  0  0  0  0
 13  9  1  0  0  0  0
 14 11  2  0  0  0  0
 16  2  1  0  0  0  0
 16 10  1  0  0  0  0
 16 15  2  0  0  0  0
M  END
>  <DRUGBANK_ID>
DB13228

>  <COMMON_NAME>
Flosequinan

>  <CAS_NUMBER>
76568-02-0

>  <UNII>
6NB119DLU7

>  <SYNONYMS>
Flosequinan

$$$$
