1487
 OpenBabel10282417113D

 48 48  0  0  0  0  0  0  0  0999 V2000
    0.8556   -0.5592   -0.0381 O   0  0  0  0  0  0  0  0  0  0  0  0
    4.3435    1.1627    1.6580 O   0  0  0  0  0  0  0  0  0  0  0  0
    0.5062    4.6886    1.9860 O   0  0  0  0  0  0  0  0  0  0  0  0
    3.1649    1.9710    3.3257 N   0  0  0  0  0  0  0  0  0  0  0  0
    0.7128    1.8003    4.4396 C   0  0  0  0  0  0  0  0  0  0  0  0
   -0.3789    2.9313    4.8040 C   0  0  0  0  0  0  0  0  0  0  0  0
    1.0702    1.0416    5.7331 C   0  0  0  0  0  0  0  0  0  0  0  0
    2.0924    2.6426    4.0419 C   0  0  0  0  0  0  0  0  0  0  0  0
    0.1242    0.7169    3.4247 C   0  0  0  0  0  0  0  0  0  0  0  0
   -1.7131    2.4680    5.3824 C   0  0  0  0  0  0  0  0  0  0  0  0
    2.1125   -0.0357    5.4859 C   0  0  0  0  0  0  0  0  0  0  0  0
    0.7916    0.3590    2.2417 C   0  0  0  0  0  0  0  0  0  0  0  0
   -1.0417   -0.0242    3.6328 C   0  0  0  0  0  0  0  0  0  0  0  0
    3.4938    1.9716    1.9945 C   0  0  0  0  0  0  0  0  0  0  0  0
    0.2805   -0.4156    1.1985 C   0  0  0  0  0  0  0  0  0  0  0  0
   -1.5388   -0.9082    2.6514 C   0  0  0  0  0  0  0  0  0  0  0  0
    2.8096    2.9116    0.9439 C   0  0  0  0  0  0  0  0  0  0  0  0
   -0.9286   -1.0310    1.4034 C   0  0  0  0  0  0  0  0  0  0  0  0
    1.3009    2.8956    0.5353 C   0  0  0  0  0  0  0  0  0  0  0  0
    0.3282    3.3451    1.5904 C   0  0  0  0  0  0  0  0  0  0  0  0
    2.2722   -0.4070   -0.1255 C   0  0  0  0  0  0  0  0  0  0  0  0
    1.4426    4.8228    2.2080 H   0  0  0  0  0  0  0  0  0  0  0  0
    3.7348    1.2923    3.8211 H   0  0  0  0  0  0  0  0  0  0  0  0
    0.0620    3.6484    5.5121 H   0  0  0  0  0  0  0  0  0  0  0  0
   -0.6445    3.5379    3.9324 H   0  0  0  0  0  0  0  0  0  0  0  0
    1.4452    1.7528    6.4809 H   0  0  0  0  0  0  0  0  0  0  0  0
    0.1828    0.5732    6.1657 H   0  0  0  0  0  0  0  0  0  0  0  0
    1.9018    3.5127    3.4377 H   0  0  0  0  0  0  0  0  0  0  0  0
    2.5201    3.1132    4.9380 H   0  0  0  0  0  0  0  0  0  0  0  0
   -1.5726    1.8063    6.2381 H   0  0  0  0  0  0  0  0  0  0  0  0
   -2.3271    3.3118    5.7133 H   0  0  0  0  0  0  0  0  0  0  0  0
   -2.3125    1.9692    4.6178 H   0  0  0  0  0  0  0  0  0  0  0  0
    3.0904    0.4068    5.3158 H   0  0  0  0  0  0  0  0  0  0  0  0
    2.2129   -0.6829    6.3529 H   0  0  0  0  0  0  0  0  0  0  0  0
    1.8614   -0.6597    4.6233 H   0  0  0  0  0  0  0  0  0  0  0  0
    1.7541    0.7526    2.0760 H   0  0  0  0  0  0  0  0  0  0  0  0
   -1.5953    0.0295    4.5640 H   0  0  0  0  0  0  0  0  0  0  0  0
   -2.4087   -1.5187    2.8720 H   0  0  0  0  0  0  0  0  0  0  0  0
    3.1171    3.9244    1.1966 H   0  0  0  0  0  0  0  0  0  0  0  0
    3.3374    2.6605    0.0104 H   0  0  0  0  0  0  0  0  0  0  0  0
   -1.3558   -1.6447    0.6181 H   0  0  0  0  0  0  0  0  0  0  0  0
    1.1420    3.5335   -0.3361 H   0  0  0  0  0  0  0  0  0  0  0  0
    0.9900    1.9096    0.1994 H   0  0  0  0  0  0  0  0  0  0  0  0
   -0.7292    3.1085    1.4347 H   0  0  0  0  0  0  0  0  0  0  0  0
    0.5565    2.7406    2.4216 H   0  0  0  0  0  0  0  0  0  0  0  0
    2.5914   -0.5141   -1.1662 H   0  0  0  0  0  0  0  0  0  0  0  0
    2.5941    0.5890    0.1358 H   0  0  0  0  0  0  0  0  0  0  0  0
    2.7821   -1.1384    0.5032 H   0  0  0  0  0  0  0  0  0  0  0  0
  1 15  1  0  0  0  0
  1 21  1  0  0  0  0
  2 14  2  0  0  0  0
  3 20  1  0  0  0  0
  3 22  1  0  0  0  0
  4  8  1  0  0  0  0
  4 14  1  0  0  0  0
  4 23  1  0  0  0  0
  5  6  1  0  0  0  0
  5  7  1  0  0  0  0
  5  8  1  0  0  0  0
  5  9  1  0  0  0  0
  6 10  1  0  0  0  0
  6 24  1  0  0  0  0
  6 25  1  0  0  0  0
  7 11  1  0  0  0  0
  7 26  1  0  0  0  0
  7 27  1  0  0  0  0
  8 28  1  0  0  0  0
  8 29  1  0  0  0  0
  9 12  2  0  0  0  0
  9 13  1  0  0  0  0
 10 30  1  0  0  0  0
 10 31  1  0  0  0  0
 10 32  1  0  0  0  0
 11 33  1  0  0  0  0
 11 34  1  0  0  0  0
 11 35  1  0  0  0  0
 12 15  1  0  0  0  0
 12 36  1  0  0  0  0
 13 16  2  0  0  0  0
 13 37  1  0  0  0  0
 14 17  1  0  0  0  0
 15 18  2  0  0  0  0
 16 18  1  0  0  0  0
 16 38  1  0  0  0  0
 17 19  1  0  0  0  0
 17 39  1  0  0  0  0
 17 40  1  0  0  0  0
 18 41  1  0  0  0  0
 19 20  1  0  0  0  0
 19 42  1  0  0  0  0
 19 43  1  0  0  0  0
 20 44  1  0  0  0  0
 20 45  1  0  0  0  0
 21 46  1  0  0  0  0
 21 47  1  0  0  0  0
 21 48  1  0  0  0  0
M  END
>  <DRUGBANK_ID>
DB01487

>  <SECONDARY_ACCESSION_NUMBERS>
DB11402

>  <COMMON_NAME>
Embutramide

>  <CAS_NUMBER>
15687-14-6

>  <UNII>
3P4TQG94T1

>  <SYNONYMS>
Embutramid; Embutramide

$$$$
