157
 OpenBabel10282417163D

 38 38  0  0  0  0  0  0  0  0999 V2000
    0.8489    2.4360   -1.8783 C   0  0  0  0  0  0  0  0  0  0  0  0
    2.7305    2.4176   -2.2636 C   0  0  0  0  0  0  0  0  0  0  0  0
    4.0679    2.6814   -0.9131 C   0  0  0  0  0  0  0  0  0  0  0  0
    4.6099    1.6299    0.5290 C   0  0  0  0  0  0  0  0  0  0  0  0
    4.7229   -0.0037    0.5533 C   0  0  0  0  0  0  0  0  0  0  0  0
    5.1485   -0.6228    1.6688 N   0  0  0  0  0  0  0  0  0  0  0  0
    4.0969   -0.7646   -0.3300 N   0  0  0  0  0  0  0  0  0  0  0  0
   -2.1042    1.9735    0.5870 O   0  0  0  0  0  0  0  0  0  0  0  0
    2.1410   -0.6571    1.8050 O   0  0  0  0  0  0  0  0  0  0  0  0
    0.5347    0.1297   -0.0014 C   0  0  1  0  0  0  0  0  0  0  0  0
    2.3668    1.0625   -0.3593 C   0  0  0  0  0  0  0  0  0  0  0  0
    1.5325    0.0180   -1.0686 C   0  0  0  0  0  0  0  0  0  0  0  0
    1.2652    0.3959    1.3896 C   0  0  2  0  0  0  0  0  0  0  0  0
    1.9876    1.6239    1.0144 C   0  0  0  0  0  0  0  0  0  0  0  0
   -0.0568    1.5286   -0.5412 C   0  0  2  0  0  0  0  0  0  0  0  0
   -1.5224    1.4555   -0.4257 C   0  0  0  0  0  0  0  0  0  0  0  0
   -0.0145   -0.8117    0.0191 H   0  0  0  0  0  0  0  0  0  0  0  0
    0.6363    0.6254    2.2339 H   0  0  0  0  0  0  0  0  0  0  0  0
   -0.0050    2.2276    0.2876 H   0  0  0  0  0  0  0  0  0  0  0  0
    0.3173    2.1317   -2.7878 H   0  0  0  0  0  0  0  0  0  0  0  0
    0.6523    3.4850   -1.6443 H   0  0  0  0  0  0  0  0  0  0  0  0
    2.9526    1.4247   -2.7157 H   0  0  0  0  0  0  0  0  0  0  0  0
    2.9171    3.1058   -3.0982 H   0  0  0  0  0  0  0  0  0  0  0  0
    5.0162    2.7010   -1.4493 H   0  0  0  0  0  0  0  0  0  0  0  0
    3.8150    3.6717   -0.5047 H   0  0  0  0  0  0  0  0  0  0  0  0
    5.3124    2.2132    1.1409 H   0  0  0  0  0  0  0  0  0  0  0  0
    3.9750    1.5937    1.4219 H   0  0  0  0  0  0  0  0  0  0  0  0
    4.7159   -1.5369    1.7781 H   0  0  0  0  0  0  0  0  0  0  0  0
    4.9597   -0.0805    2.5123 H   0  0  0  0  0  0  0  0  0  0  0  0
    3.9228   -1.7470   -0.2030 H   0  0  0  0  0  0  0  0  0  0  0  0
    2.6670   -0.9596    1.0408 H   0  0  0  0  0  0  0  0  0  0  0  0
    3.2919    0.8965   -0.8580 H   0  0  0  0  0  0  0  0  0  0  0  0
    2.1698    2.0580   -0.6162 H   0  0  0  0  0  0  0  0  0  0  0  0
    2.0771   -0.8928   -1.3245 H   0  0  0  0  0  0  0  0  0  0  0  0
    1.1106    0.2438   -2.0663 H   0  0  0  0  0  0  0  0  0  0  0  0
    1.4405    2.5798    0.8491 H   0  0  0  0  0  0  0  0  0  0  0  0
    2.5803    2.2551    1.6824 H   0  0  0  0  0  0  0  0  0  0  0  0
   -2.0622    0.8431   -1.1191 H   0  0  0  0  0  0  0  0  0  0  0  0
  1  2  1  0  0  0  0
  1 20  1  0  0  0  0
  1 21  1  0  0  0  0
  2  3  1  0  0  0  0
  2 22  1  0  0  0  0
  2 23  1  0  0  0  0
  3  4  1  0  0  0  0
  3 24  1  0  0  0  0
  3 25  1  0  0  0  0
  4  5  1  0  0  0  0
  4 26  1  0  0  0  0
  4 27  1  0  0  0  0
  5  6  1  0  0  0  0
  5  7  2  0  0  0  0
  6 28  1  0  0  0  0
  6 29  1  0  0  0  0
  7 30  1  0  0  0  0
  8 16  2  0  0  0  0
  9 31  1  0  0  0  0
 10 12  1  0  0  0  0
 10 13  1  0  0  0  0
 10 17  1  1  0  0  0
 11 12  1  0  0  0  0
 11 14  1  0  0  0  0
 11 32  1  0  0  0  0
 11 33  1  0  0  0  0
 12 34  1  0  0  0  0
 12 35  1  0  0  0  0
 13  9  1  0  0  0  0
 13 14  1  0  0  0  0
 13 18  1  1  0  0  0
 14 36  1  0  0  0  0
 14 37  1  0  0  0  0
 15 16  1  0  0  0  0
 15 19  1  1  0  0  0
 15 10  1  0  0  0  0
 15  1  1  0  0  0  0
 16 38  1  0  0  0  0
M  END
>  <DRUGBANK_ID>
DB06861

>  <COMMON_NAME>
6-(2-HYDROXY-CYCLOPENTYL)-7-OXO-HEPTANAMIDINE

$$$$
