
 OpenBabel10282417123D

 19 18  0  0  1  0  0  0  0  0999 V2000
    0.9431   -0.1785    0.0742 C   0  0  0  0  0  0  0  0  0  0  0  0
    0.1608    1.3877    3.8893 C   0  0  0  0  0  0  0  0  0  0  0  0
    0.2405    0.4702    1.2345 C   0  0  0  0  0  0  0  0  0  0  0  0
    0.7019    2.8246    3.7322 C   0  0  1  0  0  0  0  0  0  0  0  0
    0.3841    3.4357    2.3656 C   0  0  0  0  0  0  0  0  0  0  0  0
    0.0964    3.6994    4.7807 N   0  0  0  0  0  0  0  0  0  0  0  0
   -0.7143    1.2211    1.0771 O   0  0  0  0  0  0  0  0  0  0  0  0
   -0.5243    4.2077    2.1188 O   0  0  0  0  0  0  0  0  0  0  0  0
    1.1971    2.9880    1.3843 O   0  0  0  0  0  0  0  0  0  0  0  0
    0.9076    0.0932    2.8217 S   0  0  0  0  0  0  0  0  0  0  0  0
    1.7859    2.8479    3.8852 H   0  0  0  0  0  0  0  0  0  0  0  0
    0.6234    0.3086   -0.8545 H   0  0  0  0  0  0  0  0  0  0  0  0
    0.6624   -1.2320    0.0312 H   0  0  0  0  0  0  0  0  0  0  0  0
    2.0294   -0.0690    0.1423 H   0  0  0  0  0  0  0  0  0  0  0  0
   -0.9320    1.3505    3.8056 H   0  0  0  0  0  0  0  0  0  0  0  0
    0.3903    1.0645    4.9155 H   0  0  0  0  0  0  0  0  0  0  0  0
    0.3912    4.6610    4.5875 H   0  0  0  0  0  0  0  0  0  0  0  0
   -0.9151    3.7310    4.6139 H   0  0  0  0  0  0  0  0  0  0  0  0
    0.6136    3.0572    0.5943 H   0  0  0  0  0  0  0  0  0  0  0  0
  1 12  1  0  0  0  0
  1 13  1  0  0  0  0
  1 14  1  0  0  0  0
  2 15  1  0  0  0  0
  2 16  1  0  0  0  0
  3  1  1  0  0  0  0
  4  2  1  0  0  0  0
  4  6  1  0  0  0  0
  4 11  1  1  0  0  0
  5  4  1  0  0  0  0
  6 17  1  0  0  0  0
  6 18  1  0  0  0  0
  7  3  2  0  0  0  0
  8  5  2  0  0  0  0
  9  5  1  0  0  0  0
  9 19  1  0  0  0  0
 10  2  1  0  0  0  0
 10  3  1  0  0  0  0
M  END
>  <DRUGBANK_ID>
DB02039

>  <SECONDARY_ACCESSION_NUMBERS>
EXPT02873

>  <COMMON_NAME>
S-Acetyl-Cysteine

>  <UNII>
SSR768695G

$$$$
