
 OpenBabel10282417233D

 56 59  0  0  0  0  0  0  0  0999 V2000
    1.0142   -0.2214    0.1281 C   0  0  0  0  0  0  0  0  0  0  0  0
    0.4888    1.1675    0.3256 C   0  0  0  0  0  0  0  0  0  0  0  0
    0.9504    2.0797   -0.7374 C   0  0  0  0  0  0  0  0  0  0  0  0
    0.5158    3.3781   -0.5424 C   0  0  0  0  0  0  0  0  0  0  0  0
    0.9485    4.3196   -1.3799 C   0  0  0  0  0  0  0  0  0  0  0  0
    1.7589    3.9533   -2.4280 C   0  0  0  0  0  0  0  0  0  0  0  0
    1.9129    4.8274   -3.4113 O   0  0  0  0  0  0  0  0  0  0  0  0
    1.3150    6.0686   -3.2439 C   0  0  0  0  0  0  0  0  0  0  0  0
   -0.0397    6.0972   -3.8670 C   0  0  0  0  0  0  0  0  0  0  0  0
   -0.7411    4.8715   -3.9950 C   0  0  0  0  0  0  0  0  0  0  0  0
   -2.1064    4.8147   -3.8398 C   0  0  0  0  0  0  0  0  0  0  0  0
   -2.7835    6.0089   -3.6753 C   0  0  0  0  0  0  0  0  0  0  0  0
   -2.0906    7.2434   -3.7630 C   0  0  0  0  0  0  0  0  0  0  0  0
   -0.6950    7.3088   -3.9846 C   0  0  0  0  0  0  0  0  0  0  0  0
    0.0293    8.6245   -4.2822 C   0  0  0  0  0  0  0  0  0  0  0  0
   -0.6628    9.6475   -4.2229 O   0  0  0  0  0  0  0  0  0  0  0  0
    1.4249    8.7790   -4.5821 N   0  0  0  0  0  0  0  0  0  0  0  0
    2.3640    7.8817   -5.2289 C   0  0  0  0  0  0  0  0  0  0  0  0
    1.7941    6.9780   -6.0916 C   0  0  0  0  0  0  0  0  0  0  0  0
    2.4121    5.7775   -6.2676 C   0  0  0  0  0  0  0  0  0  0  0  0
    3.5176    5.4432   -5.5372 C   0  0  0  0  0  0  0  0  0  0  0  0
    3.2370    4.2527   -5.1143 N   0  0  0  0  0  0  0  0  0  0  0  0
    3.8661    3.2836   -5.5768 C   0  0  0  0  0  0  0  0  0  0  0  0
    2.8249    2.4199   -6.1626 C   0  0  0  0  0  0  0  0  0  0  0  0
    5.1153    3.4207   -5.1114 C   0  0  0  0  0  0  0  0  0  0  0  0
    5.4667    4.8712   -4.7264 C   0  0  0  0  0  0  0  0  0  0  0  0
    6.8544    5.2192   -4.6745 N   0  0  0  0  0  0  0  0  0  0  0  0
    4.4057    6.0894   -4.8256 C   0  0  0  0  0  0  0  0  0  0  0  0
    3.7160    7.5467   -4.6616 C   0  0  0  0  0  0  0  0  0  0  0  0
    2.2474    2.6756   -2.6328 C   0  0  0  0  0  0  0  0  0  0  0  0
    1.7911    1.7060   -1.7965 C   0  0  0  0  0  0  0  0  0  0  0  0
    0.6625   -0.6251   -0.8280 H   0  0  0  0  0  0  0  0  0  0  0  0
    0.6667   -0.8513    0.9394 H   0  0  0  0  0  0  0  0  0  0  0  0
    2.1114   -0.2154    0.1179 H   0  0  0  0  0  0  0  0  0  0  0  0
   -0.6054    1.1957    0.3289 H   0  0  0  0  0  0  0  0  0  0  0  0
    0.8622    1.5920    1.2656 H   0  0  0  0  0  0  0  0  0  0  0  0
   -0.1777    3.6934    0.2212 H   0  0  0  0  0  0  0  0  0  0  0  0
    0.5104    5.2950   -1.2577 H   0  0  0  0  0  0  0  0  0  0  0  0
    1.3527    6.5186   -2.2515 H   0  0  0  0  0  0  0  0  0  0  0  0
    2.0497    6.6909   -3.6252 H   0  0  0  0  0  0  0  0  0  0  0  0
   -0.2024    3.9278   -4.0720 H   0  0  0  0  0  0  0  0  0  0  0  0
   -2.5887    3.8424   -3.7644 H   0  0  0  0  0  0  0  0  0  0  0  0
   -3.8568    5.9732   -3.5071 H   0  0  0  0  0  0  0  0  0  0  0  0
   -2.6667    8.1528   -3.6049 H   0  0  0  0  0  0  0  0  0  0  0  0
    1.6693    9.7579   -4.6790 H   0  0  0  0  0  0  0  0  0  0  0  0
    0.7355    6.9392   -6.3328 H   0  0  0  0  0  0  0  0  0  0  0  0
    1.7903    4.9658   -6.6240 H   0  0  0  0  0  0  0  0  0  0  0  0
    2.9031    2.2820   -7.2402 H   0  0  0  0  0  0  0  0  0  0  0  0
    2.4827    1.5790   -5.5666 H   0  0  0  0  0  0  0  0  0  0  0  0
    1.8888    3.0220   -6.1146 H   0  0  0  0  0  0  0  0  0  0  0  0
    5.6843    2.4984   -5.0559 H   0  0  0  0  0  0  0  0  0  0  0  0
    7.2854    4.5654   -5.3231 H   0  0  0  0  0  0  0  0  0  0  0  0
    7.3895    5.1861   -3.8138 H   0  0  0  0  0  0  0  0  0  0  0  0
    4.0536    8.1627   -3.8155 H   0  0  0  0  0  0  0  0  0  0  0  0
    2.9094    2.4078   -3.4432 H   0  0  0  0  0  0  0  0  0  0  0  0
    2.0957    0.6848   -1.9979 H   0  0  0  0  0  0  0  0  0  0  0  0
  1  2  1  0  0  0  0
  1 32  1  0  0  0  0
  1 33  1  0  0  0  0
  1 34  1  0  0  0  0
  2  3  1  0  0  0  0
  2 35  1  0  0  0  0
  2 36  1  0  0  0  0
  3  4  2  0  0  0  0
  3 31  1  0  0  0  0
  4  5  1  0  0  0  0
  4 37  1  0  0  0  0
  5  6  2  0  0  0  0
  5 38  1  0  0  0  0
  6  7  1  0  0  0  0
  6 30  1  0  0  0  0
  7  8  1  0  0  0  0
  8  9  1  0  0  0  0
  8 39  1  0  0  0  0
  8 40  1  0  0  0  0
  9 10  2  0  0  0  0
  9 14  1  0  0  0  0
 10 11  1  0  0  0  0
 10 41  1  0  0  0  0
 11 12  2  0  0  0  0
 11 42  1  0  0  0  0
 12 13  1  0  0  0  0
 12 43  1  0  0  0  0
 13 14  2  0  0  0  0
 13 44  1  0  0  0  0
 14 15  1  0  0  0  0
 15 16  2  0  0  0  0
 15 17  1  0  0  0  0
 17 18  1  0  0  0  0
 17 45  1  0  0  0  0
 18 19  2  0  0  0  0
 18 29  1  0  0  0  0
 19 20  1  0  0  0  0
 19 46  1  0  0  0  0
 20 21  2  0  0  0  0
 20 47  1  0  0  0  0
 21 22  1  0  0  0  0
 21 28  1  0  0  0  0
 22 23  2  0  0  0  0
 23 24  1  0  0  0  0
 23 25  1  0  0  0  0
 24 48  1  0  0  0  0
 24 49  1  0  0  0  0
 24 50  1  0  0  0  0
 25 26  2  0  0  0  0
 25 51  1  0  0  0  0
 26 27  1  0  0  0  0
 26 28  1  0  0  0  0
 27 52  1  0  0  0  0
 27 53  1  0  0  0  0
 28 29  2  0  0  0  0
 29 54  1  0  0  0  0
 30 31  2  0  0  0  0
 30 55  1  0  0  0  0
 31 56  1  0  0  0  0
M  END
>  <DRUGBANK_ID>
DB17033

>  <COMMON_NAME>
JTC-801 free base

>  <CAS_NUMBER>
244218-93-7

>  <UNII>
BXU45ZH6LI

>  <SYNONYMS>
Benzamide, n-(4-amino-2-methyl-6-quinolinyl)-2-((4-ethylphenoxy)methyl)-

$$$$
