
 OpenBabel10282417123D

 34 36  0  0  1  0  0  0  0  0999 V2000
    1.0758   -0.0409   -0.0134 O   0  0  0  0  0  0  0  0  0  0  0  0
    0.6209   -1.3433   -0.3736 C   0  0  2  0  0  0  0  0  0  0  0  0
   -0.7347   -1.6740    0.2305 C   0  0  2  0  0  0  0  0  0  0  0  0
   -1.2090   -2.9637   -0.2413 O   0  0  0  0  0  0  0  0  0  0  0  0
   -0.3091   -3.9914   -0.0979 C   0  0  0  0  0  0  0  0  0  0  0  0
   -0.8094   -5.2953   -0.2352 C   0  0  0  0  0  0  0  0  0  0  0  0
    0.0622   -6.3774   -0.1101 C   0  0  0  0  0  0  0  0  0  0  0  0
   -0.3598   -7.6704   -0.2295 O   0  0  0  0  0  0  0  0  0  0  0  0
    1.4186   -6.1788    0.1396 C   0  0  0  0  0  0  0  0  0  0  0  0
    1.9139   -4.8815    0.2624 C   0  0  0  0  0  0  0  0  0  0  0  0
    3.2482   -4.6793    0.4607 O   0  0  0  0  0  0  0  0  0  0  0  0
    1.0558   -3.7852    0.1419 C   0  0  0  0  0  0  0  0  0  0  0  0
    1.5461   -2.3891    0.2146 C   0  0  0  0  0  0  0  0  0  0  0  0
    2.6267   -2.0687    0.7118 O   0  0  0  0  0  0  0  0  0  0  0  0
   -1.8581   -0.6939   -0.0448 C   0  0  0  0  0  0  0  0  0  0  0  0
   -2.1611   -0.1628   -1.3111 C   0  0  0  0  0  0  0  0  0  0  0  0
   -3.4133    0.4293   -1.5422 C   0  0  0  0  0  0  0  0  0  0  0  0
   -4.3362    0.5076   -0.5005 C   0  0  0  0  0  0  0  0  0  0  0  0
   -5.6140    0.9574   -0.6840 O   0  0  0  0  0  0  0  0  0  0  0  0
   -3.9822    0.0937    0.7773 C   0  0  0  0  0  0  0  0  0  0  0  0
   -4.8638    0.1459    1.8169 O   0  0  0  0  0  0  0  0  0  0  0  0
   -2.7438   -0.4639    1.0166 C   0  0  0  0  0  0  0  0  0  0  0  0
    2.0515   -0.1054    0.0462 H   0  0  0  0  0  0  0  0  0  0  0  0
    0.6399   -1.4367   -1.4639 H   0  0  0  0  0  0  0  0  0  0  0  0
   -0.6288   -1.7424    1.3247 H   0  0  0  0  0  0  0  0  0  0  0  0
   -1.8668   -5.4515   -0.4335 H   0  0  0  0  0  0  0  0  0  0  0  0
   -1.3189   -7.6961   -0.3849 H   0  0  0  0  0  0  0  0  0  0  0  0
    2.0735   -7.0414    0.2208 H   0  0  0  0  0  0  0  0  0  0  0  0
    3.7146   -5.5198    0.5846 H   0  0  0  0  0  0  0  0  0  0  0  0
   -1.4561   -0.2431   -2.1367 H   0  0  0  0  0  0  0  0  0  0  0  0
   -3.6619    0.7719   -2.5426 H   0  0  0  0  0  0  0  0  0  0  0  0
   -5.7282    1.1807   -1.6230 H   0  0  0  0  0  0  0  0  0  0  0  0
   -5.6966    0.4660    1.4239 H   0  0  0  0  0  0  0  0  0  0  0  0
   -2.5019   -0.7932    2.0229 H   0  0  0  0  0  0  0  0  0  0  0  0
  1 23  1  0  0  0  0
  2  1  1  0  0  0  0
  2  3  1  0  0  0  0
  2 13  1  0  0  0  0
  2 24  1  6  0  0  0
  3  4  1  0  0  0  0
  3 25  1  1  0  0  0
  3 15  1  0  0  0  0
  4  5  1  0  0  0  0
  5  6  2  0  0  0  0
  5 12  1  0  0  0  0
  6  7  1  0  0  0  0
  6 26  1  0  0  0  0
  7  8  1  0  0  0  0
  7  9  2  0  0  0  0
  8 27  1  0  0  0  0
  9 10  1  0  0  0  0
  9 28  1  0  0  0  0
 10 11  1  0  0  0  0
 10 12  2  0  0  0  0
 11 29  1  0  0  0  0
 12 13  1  0  0  0  0
 13 14  2  0  0  0  0
 15 16  2  0  0  0  0
 15 22  1  0  0  0  0
 16 17  1  0  0  0  0
 16 30  1  0  0  0  0
 17 18  2  0  0  0  0
 17 31  1  0  0  0  0
 18 19  1  0  0  0  0
 18 20  1  0  0  0  0
 19 32  1  0  0  0  0
 20 21  1  0  0  0  0
 20 22  2  0  0  0  0
 21 33  1  0  0  0  0
 22 34  1  0  0  0  0
M  END
>  <DRUGBANK_ID>
DB02224

>  <SECONDARY_ACCESSION_NUMBERS>
EXPT01185

>  <COMMON_NAME>
Taxifolin

>  <CAS_NUMBER>
480-18-2

>  <UNII>
9SOB9E3987

>  <SYNONYMS>
(+)-(2R,3R)-dihydroquercetin; (+)-dihydroquercetin; (+)-taxifolin; (2R,3R)-(+)-taxifolin; (2R,3R)-3,3',4',5,7-pentahydroxyflavanone; (2R,3R)-dihydroquercetin; Dihydroquercetin

$$$$
