1537
 OpenBabel10282417113D

 28 28  0  0  0  0  0  0  0  0999 V2000
   -1.5685    0.5401   -0.0221 Br  0  0  0  0  0  0  0  0  0  0  0  0
    3.0827    2.4971    0.1567 O   0  0  0  0  0  0  0  0  0  0  0  0
    0.3490   -2.3647   -0.0229 O   0  0  0  0  0  0  0  0  0  0  0  0
    4.5504    1.6171   -2.2080 N   0  0  0  0  0  0  0  0  0  0  0  0
    3.1153    0.0131    0.0273 C   0  0  0  0  0  0  0  0  0  0  0  0
    4.5947   -0.1215   -0.1902 C   0  0  0  0  0  0  0  0  0  0  0  0
    2.4957    1.2605    0.1501 C   0  0  0  0  0  0  0  0  0  0  0  0
    5.1041    0.4122   -1.5674 C   0  0  0  0  0  0  0  0  0  0  0  0
    2.3065   -1.1511    0.0082 C   0  0  0  0  0  0  0  0  0  0  0  0
    0.8977   -1.1122    0.0166 C   0  0  0  0  0  0  0  0  0  0  0  0
    1.1007    1.3041    0.1009 C   0  0  0  0  0  0  0  0  0  0  0  0
    0.2948    0.1529    0.0372 C   0  0  0  0  0  0  0  0  0  0  0  0
    4.4124    2.7302    0.6214 C   0  0  0  0  0  0  0  0  0  0  0  0
   -1.0606   -2.5256   -0.0354 C   0  0  0  0  0  0  0  0  0  0  0  0
    5.1945    2.4040   -2.1330 H   0  0  0  0  0  0  0  0  0  0  0  0
    3.6976    1.9346   -1.7406 H   0  0  0  0  0  0  0  0  0  0  0  0
    5.1111    0.3280    0.6663 H   0  0  0  0  0  0  0  0  0  0  0  0
    4.8913   -1.1774   -0.1189 H   0  0  0  0  0  0  0  0  0  0  0  0
    6.1854    0.5624   -1.4720 H   0  0  0  0  0  0  0  0  0  0  0  0
    4.9529   -0.3862   -2.2956 H   0  0  0  0  0  0  0  0  0  0  0  0
    2.7880   -2.1329   -0.0477 H   0  0  0  0  0  0  0  0  0  0  0  0
    0.6229    2.2852    0.0835 H   0  0  0  0  0  0  0  0  0  0  0  0
    4.5468    2.4425    1.6649 H   0  0  0  0  0  0  0  0  0  0  0  0
    5.1964    2.2681    0.0254 H   0  0  0  0  0  0  0  0  0  0  0  0
    4.6150    3.7980    0.4991 H   0  0  0  0  0  0  0  0  0  0  0  0
   -1.5086   -2.1188    0.8758 H   0  0  0  0  0  0  0  0  0  0  0  0
   -1.4913   -2.1050   -0.9487 H   0  0  0  0  0  0  0  0  0  0  0  0
   -1.2952   -3.5950   -0.0461 H   0  0  0  0  0  0  0  0  0  0  0  0
  1 12  1  0  0  0  0
  2  7  1  0  0  0  0
  2 13  1  0  0  0  0
  3 10  1  0  0  0  0
  3 14  1  0  0  0  0
  4  8  1  0  0  0  0
  4 15  1  0  0  0  0
  4 16  1  0  0  0  0
  5  6  1  0  0  0  0
  5  7  1  0  0  0  0
  5  9  2  0  0  0  0
  6  8  1  0  0  0  0
  6 17  1  0  0  0  0
  6 18  1  0  0  0  0
  7 11  2  0  0  0  0
  8 19  1  0  0  0  0
  8 20  1  0  0  0  0
  9 10  1  0  0  0  0
  9 21  1  0  0  0  0
 10 12  2  0  0  0  0
 11 12  1  0  0  0  0
 11 22  1  0  0  0  0
 13 23  1  0  0  0  0
 13 24  1  0  0  0  0
 13 25  1  0  0  0  0
 14 26  1  0  0  0  0
 14 27  1  0  0  0  0
 14 28  1  0  0  0  0
M  END
>  <DRUGBANK_ID>
DB01537

>  <COMMON_NAME>
4-Bromo-2,5-dimethoxyphenethylamine

>  <CAS_NUMBER>
66142-81-2

>  <UNII>
V77772N32H

>  <SYNONYMS>
2C-B

$$$$
