
 OpenBabel10282417123D

 81 84  0  0  0  0  0  0  0  0999 V2000
    0.8217    0.2134    0.2036 S   0  0  0  0  0  0  0  0  0  0  0  0
    0.2763    0.0065   -1.3493 O   0  0  0  0  0  0  0  0  0  0  0  0
    4.9195   -0.3320   -4.4296 O   0  0  0  0  0  0  0  0  0  0  0  0
    0.3634   -0.9265    0.9834 O   0  0  0  0  0  0  0  0  0  0  0  0
    0.4855    1.5531    0.6169 O   0  0  0  0  0  0  0  0  0  0  0  0
    5.5507   -4.7616   -1.2936 O   0  0  0  0  0  0  0  0  0  0  0  0
    4.4566   -5.4802   -3.1017 O   0  0  0  0  0  0  0  0  0  0  0  0
    1.0931    3.6060   -6.5018 O   0  5  0  0  0  0  0  0  0  0  0  0
    3.1156    3.5495   -5.6495 O   0  0  0  0  0  0  0  0  0  0  0  0
    3.8789   -0.9368   -2.6165 N   0  0  0  0  0  0  0  0  0  0  0  0
    5.4309   -3.4004   -3.2204 N   0  0  0  0  0  0  0  0  0  0  0  0
    1.9288    3.1873   -5.6945 N   0  3  0  0  0  0  0  0  0  0  0  0
    2.9511   -1.6265   -1.7068 C   0  0  2  0  0  0  0  0  0  0  0  0
    3.2084   -1.2127   -0.2654 C   0  0  0  0  0  0  0  0  0  0  0  0
    3.2192   -3.0850   -1.6161 C   0  0  0  0  0  0  0  0  0  0  0  0
    2.6403    0.0847    0.2057 C   0  0  0  0  0  0  0  0  0  0  0  0
    2.5293   -4.1686   -0.8461 C   0  0  0  0  0  0  0  0  0  0  0  0
    4.6058   -2.7425   -4.2730 C   0  0  2  0  0  0  0  0  0  0  0  0
    4.4660   -1.2863   -3.7861 C   0  0  0  0  0  0  0  0  0  0  0  0
    1.0651   -4.2548   -1.0834 C   0  0  0  0  0  0  0  0  0  0  0  0
    3.2509   -3.3787   -4.6713 C   0  0  0  0  0  0  0  0  0  0  0  0
    2.5161   -2.8255   -5.8337 C   0  0  0  0  0  0  0  0  0  0  0  0
    0.4360   -5.4822   -1.1574 C   0  0  0  0  0  0  0  0  0  0  0  0
    0.2748   -3.1191   -1.1009 C   0  0  0  0  0  0  0  0  0  0  0  0
   -0.9550   -5.5304   -1.1049 C   0  0  0  0  0  0  0  0  0  0  0  0
   -1.0965   -3.1373   -1.0251 C   0  0  0  0  0  0  0  0  0  0  0  0
    1.6448   -3.7032   -6.4760 C   0  0  0  0  0  0  0  0  0  0  0  0
    2.4602   -1.4579   -6.0916 C   0  0  0  0  0  0  0  0  0  0  0  0
    5.1721   -4.6365   -2.6254 C   0  0  0  0  0  0  0  0  0  0  0  0
    0.5779    0.8110   -2.4195 C   0  0  0  0  0  0  0  0  0  0  0  0
   -1.7185   -4.3611   -1.0180 C   0  0  0  0  0  0  0  0  0  0  0  0
    0.8361   -3.2209   -7.4826 C   0  0  0  0  0  0  0  0  0  0  0  0
    1.6104   -0.9663   -7.0517 C   0  0  0  0  0  0  0  0  0  0  0  0
    0.8479   -1.8586   -7.7890 C   0  0  0  0  0  0  0  0  0  0  0  0
    1.8591    1.2871   -2.5652 C   0  0  0  0  0  0  0  0  0  0  0  0
   -0.2994    1.0414   -3.4764 C   0  0  0  0  0  0  0  0  0  0  0  0
    6.6486   -4.0645   -0.6861 C   0  0  0  0  0  0  0  0  0  0  0  0
    2.3568    1.9199   -3.6816 C   0  0  0  0  0  0  0  0  0  0  0  0
    0.1424    1.7873   -4.6005 C   0  0  0  0  0  0  0  0  0  0  0  0
    1.4691    2.2471   -4.6745 C   0  0  0  0  0  0  0  0  0  0  0  0
    7.7760   -4.1565   -1.6519 C   0  0  0  0  0  0  0  0  0  0  0  0
    8.3363   -2.9920   -2.1775 C   0  0  0  0  0  0  0  0  0  0  0  0
    8.1184   -5.4158   -2.1696 C   0  0  0  0  0  0  0  0  0  0  0  0
    9.2569   -3.0899   -3.2065 C   0  0  0  0  0  0  0  0  0  0  0  0
    9.0934   -5.5107   -3.1439 C   0  0  0  0  0  0  0  0  0  0  0  0
    9.6481   -4.3465   -3.6720 C   0  0  0  0  0  0  0  0  0  0  0  0
    3.7863    0.0628   -2.6987 H   0  0  0  0  0  0  0  0  0  0  0  0
    5.9801   -2.7427   -2.6958 H   0  0  0  0  0  0  0  0  0  0  0  0
    1.9833   -1.4164   -2.1424 H   0  0  0  0  0  0  0  0  0  0  0  0
    4.3030   -1.2047   -0.1268 H   0  0  0  0  0  0  0  0  0  0  0  0
    2.8479   -1.9792    0.4298 H   0  0  0  0  0  0  0  0  0  0  0  0
    3.1452   -3.4988   -2.5707 H   0  0  0  0  0  0  0  0  0  0  0  0
    4.2427   -3.0621   -1.2855 H   0  0  0  0  0  0  0  0  0  0  0  0
    3.1626    0.9345   -0.2179 H   0  0  0  0  0  0  0  0  0  0  0  0
    2.9213    0.1578    1.2634 H   0  0  0  0  0  0  0  0  0  0  0  0
    2.9610   -5.1199   -1.1862 H   0  0  0  0  0  0  0  0  0  0  0  0
    2.7974   -4.0962    0.2062 H   0  0  0  0  0  0  0  0  0  0  0  0
    5.2494   -2.6937   -5.1552 H   0  0  0  0  0  0  0  0  0  0  0  0
    3.3910   -4.4543   -4.8000 H   0  0  0  0  0  0  0  0  0  0  0  0
    2.4064   -3.2506   -3.9851 H   0  0  0  0  0  0  0  0  0  0  0  0
    1.0276   -6.3926   -1.2169 H   0  0  0  0  0  0  0  0  0  0  0  0
    0.7132   -2.1582   -1.0986 H   0  0  0  0  0  0  0  0  0  0  0  0
   -1.4443   -6.4948   -1.0829 H   0  0  0  0  0  0  0  0  0  0  0  0
   -1.6247   -2.1958   -0.9098 H   0  0  0  0  0  0  0  0  0  0  0  0
    1.5870   -4.7463   -6.1596 H   0  0  0  0  0  0  0  0  0  0  0  0
    3.0353   -0.7274   -5.5496 H   0  0  0  0  0  0  0  0  0  0  0  0
   -2.7959   -4.3924   -0.9338 H   0  0  0  0  0  0  0  0  0  0  0  0
    0.1948   -3.9107   -8.0164 H   0  0  0  0  0  0  0  0  0  0  0  0
    1.5703    0.1049   -7.2114 H   0  0  0  0  0  0  0  0  0  0  0  0
    0.2571   -1.4815   -8.6113 H   0  0  0  0  0  0  0  0  0  0  0  0
    2.5732    1.1228   -1.8104 H   0  0  0  0  0  0  0  0  0  0  0  0
   -1.3326    0.6987   -3.4368 H   0  0  0  0  0  0  0  0  0  0  0  0
    6.3740   -3.0361   -0.4110 H   0  0  0  0  0  0  0  0  0  0  0  0
    6.9182   -4.5779    0.2451 H   0  0  0  0  0  0  0  0  0  0  0  0
    3.4188    2.1543   -3.7201 H   0  0  0  0  0  0  0  0  0  0  0  0
   -0.5528    2.0150   -5.4049 H   0  0  0  0  0  0  0  0  0  0  0  0
    7.9941   -2.0136   -1.8468 H   0  0  0  0  0  0  0  0  0  0  0  0
    7.5684   -6.3091   -1.8640 H   0  0  0  0  0  0  0  0  0  0  0  0
    9.6678   -2.1856   -3.6436 H   0  0  0  0  0  0  0  0  0  0  0  0
    9.4064   -6.4886   -3.4949 H   0  0  0  0  0  0  0  0  0  0  0  0
   10.3850   -4.4198   -4.4641 H   0  0  0  0  0  0  0  0  0  0  0  0
  1  2  1  0  0  0  0
  1  4  2  0  0  0  0
  1  5  2  0  0  0  0
  1 16  1  0  0  0  0
  2 30  1  0  0  0  0
  3 19  2  0  0  0  0
  6 29  1  0  0  0  0
  6 37  1  0  0  0  0
  7 29  2  0  0  0  0
  8 12  1  0  0  0  0
  9 12  2  0  0  0  0
 10 19  1  0  0  0  0
 10 47  1  0  0  0  0
 11 29  1  0  0  0  0
 11 48  1  0  0  0  0
 12 40  1  0  0  0  0
 13 10  1  0  0  0  0
 13 14  1  0  0  0  0
 13 15  1  0  0  0  0
 13 49  1  6  0  0  0
 14 16  1  0  0  0  0
 14 50  1  0  0  0  0
 14 51  1  0  0  0  0
 15 17  1  0  0  0  0
 15 52  1  0  0  0  0
 15 53  1  0  0  0  0
 16 54  1  0  0  0  0
 16 55  1  0  0  0  0
 17 20  1  0  0  0  0
 17 56  1  0  0  0  0
 17 57  1  0  0  0  0
 18 11  1  0  0  0  0
 18 19  1  0  0  0  0
 18 21  1  0  0  0  0
 18 58  1  6  0  0  0
 20 23  2  0  0  0  0
 20 24  1  0  0  0  0
 21 22  1  0  0  0  0
 21 59  1  0  0  0  0
 21 60  1  0  0  0  0
 22 27  2  0  0  0  0
 22 28  1  0  0  0  0
 23 25  1  0  0  0  0
 23 61  1  0  0  0  0
 24 26  2  0  0  0  0
 24 62  1  0  0  0  0
 25 31  2  0  0  0  0
 25 63  1  0  0  0  0
 26 31  1  0  0  0  0
 26 64  1  0  0  0  0
 27 32  1  0  0  0  0
 27 65  1  0  0  0  0
 28 33  2  0  0  0  0
 28 66  1  0  0  0  0
 30 35  2  0  0  0  0
 30 36  1  0  0  0  0
 31 67  1  0  0  0  0
 32 34  2  0  0  0  0
 32 68  1  0  0  0  0
 33 34  1  0  0  0  0
 33 69  1  0  0  0  0
 34 70  1  0  0  0  0
 35 38  1  0  0  0  0
 35 71  1  0  0  0  0
 36 39  2  0  0  0  0
 36 72  1  0  0  0  0
 37 41  1  0  0  0  0
 37 73  1  0  0  0  0
 37 74  1  0  0  0  0
 38 40  2  0  0  0  0
 38 75  1  0  0  0  0
 39 40  1  0  0  0  0
 39 76  1  0  0  0  0
 41 42  2  0  0  0  0
 41 43  1  0  0  0  0
 42 44  1  0  0  0  0
 42 77  1  0  0  0  0
 43 45  2  0  0  0  0
 43 78  1  0  0  0  0
 44 46  2  0  0  0  0
 44 79  1  0  0  0  0
 45 46  1  0  0  0  0
 45 80  1  0  0  0  0
 46 81  1  0  0  0  0
M  CHG  2   8  -1  12   1
M  END
>  <DRUGBANK_ID>
DB02051

>  <SECONDARY_ACCESSION_NUMBERS>
EXPT03233

>  <COMMON_NAME>
4-Nitrophenyl (3S)-3-({N-[(benzyloxy)carbonyl]-L-phenylalanyl}amino)-5-phenyl-1-pentanesulfonate

>  <SYNONYMS>
3-[N-[Benzyloxycarbonyl]-phenylalaninyl-amino]-5-phenyl-pentane-1-sulfonic acid 4-nitro-phenyl ester

$$$$
