PR3
 OpenBabel10282417133D

 23 22  0  0  0  0  0  0  0  0999 V2000
    1.0707    0.5330    2.4651 N   0  0  0  0  0  0  0  0  0  0  0  0
    0.6001   -0.3461    1.3566 C   0  0  2  0  0  0  0  0  0  0  0  0
    1.2912    0.1093    0.0782 C   0  0  0  0  0  0  0  0  0  0  0  0
    2.0240    1.0982    0.0033 O   0  0  0  0  0  0  0  0  0  0  0  0
   -0.9339   -0.2830    1.2899 C   0  0  0  0  0  0  0  0  0  0  0  0
   -1.8852   -1.2699    0.0603 S   0  0  0  0  0  0  0  0  0  0  0  0
   -1.2233   -0.7252   -1.8099 S   0  0  0  0  0  0  0  0  0  0  0  0
   -1.5295   -2.1446   -2.9465 C   0  0  0  0  0  0  0  0  0  0  0  0
   -0.9404   -3.5266   -2.6458 C   0  0  0  0  0  0  0  0  0  0  0  0
   -1.4023   -4.1348   -1.3375 C   0  0  0  0  0  0  0  0  0  0  0  0
    0.9420   -1.3647    1.5728 H   0  0  0  0  0  0  0  0  0  0  0  0
    0.8027    1.4949    2.2295 H   0  0  0  0  0  0  0  0  0  0  0  0
    2.0941    0.5773    2.4105 H   0  0  0  0  0  0  0  0  0  0  0  0
    1.1660   -0.5440   -0.7925 H   0  0  0  0  0  0  0  0  0  0  0  0
   -1.3154   -0.6229    2.2642 H   0  0  0  0  0  0  0  0  0  0  0  0
   -1.2736    0.7504    1.1746 H   0  0  0  0  0  0  0  0  0  0  0  0
   -2.6132   -2.2201   -3.0751 H   0  0  0  0  0  0  0  0  0  0  0  0
   -1.1300   -1.8287   -3.9196 H   0  0  0  0  0  0  0  0  0  0  0  0
   -1.2505   -4.2035   -3.4548 H   0  0  0  0  0  0  0  0  0  0  0  0
    0.1550   -3.5002   -2.6774 H   0  0  0  0  0  0  0  0  0  0  0  0
   -2.4911   -4.0652   -1.2412 H   0  0  0  0  0  0  0  0  0  0  0  0
   -1.1143   -5.1851   -1.2561 H   0  0  0  0  0  0  0  0  0  0  0  0
   -0.9214   -3.6348   -0.4975 H   0  0  0  0  0  0  0  0  0  0  0  0
  1 12  1  0  0  0  0
  1 13  1  0  0  0  0
  2  5  1  0  0  0  0
  2 11  1  1  0  0  0
  2  3  1  0  0  0  0
  2  1  1  0  0  0  0
  3  4  2  0  0  0  0
  3 14  1  0  0  0  0
  5  6  1  0  0  0  0
  5 15  1  0  0  0  0
  5 16  1  0  0  0  0
  6  7  1  0  0  0  0
  7  8  1  0  0  0  0
  8  9  1  0  0  0  0
  8 17  1  0  0  0  0
  8 18  1  0  0  0  0
  9 10  1  0  0  0  0
  9 19  1  0  0  0  0
  9 20  1  0  0  0  0
 10 21  1  0  0  0  0
 10 22  1  0  0  0  0
 10 23  1  0  0  0  0
M  END
>  <DRUGBANK_ID>
DB03654

>  <SECONDARY_ACCESSION_NUMBERS>
EXPT02654

>  <COMMON_NAME>
S,S-Propylthiocysteine

$$$$
