
 OpenBabel10282417243D

 60 59  0  0  1  0  0  0  0  0999 V2000
    7.1472    2.4581   -4.6862 C   0  0  0  0  0  0  0  0  0  0  0  0
    5.9337    1.7523   -5.2696 C   0  0  0  0  0  0  0  0  0  0  0  0
    4.9712    2.7109   -5.7898 N   0  0  0  0  0  0  0  0  0  0  0  0
    3.6606    2.1407   -6.1058 C   0  0  0  0  0  0  0  0  0  0  0  0
    2.9477    1.2778   -5.0331 C   0  0  0  0  0  0  0  0  0  0  0  0
    2.4739    1.9642   -3.7286 C   0  0  2  0  0  0  0  0  0  0  0  0
    1.0392    2.0101   -3.7349 O   0  0  0  0  0  0  0  0  0  0  0  0
    3.0111    3.3829   -3.5814 C   0  0  0  0  0  0  0  0  0  0  0  0
    2.5295    4.1885   -2.4618 N   0  0  0  0  0  0  0  0  0  0  0  0
    3.0371    5.5571   -2.6330 C   0  0  0  0  0  0  0  0  0  0  0  0
    2.5300    6.2866   -3.8958 C   0  0  0  0  0  0  0  0  0  0  0  0
    0.9991    6.3590   -3.9815 C   0  0  0  0  0  0  0  0  0  0  0  0
    0.3931    7.0679   -2.7776 C   0  0  0  0  0  0  0  0  0  0  0  0
    0.9072    8.4330   -2.6993 N   0  0  0  0  0  0  0  0  0  0  0  0
    0.4876    9.1185   -1.4814 C   0  0  0  0  0  0  0  0  0  0  0  0
    1.0537    8.4951   -0.1841 C   0  0  1  0  0  0  0  0  0  0  0  0
    2.4793    8.6029   -0.1772 O   0  0  0  0  0  0  0  0  0  0  0  0
    0.5038    9.1772    1.0654 C   0  0  0  0  0  0  0  0  0  0  0  0
   -1.0252    9.1755    1.1298 C   0  0  0  0  0  0  0  0  0  0  0  0
   -1.5850    7.8233    1.0591 N   0  0  0  0  0  0  0  0  0  0  0  0
   -3.0465    7.8189    1.0157 C   0  0  0  0  0  0  0  0  0  0  0  0
   -3.6083    8.4344   -0.2603 C   0  0  0  0  0  0  0  0  0  0  0  0
    7.5981    3.1516   -5.4018 H   0  0  0  0  0  0  0  0  0  0  0  0
    7.9014    1.7173   -4.4023 H   0  0  0  0  0  0  0  0  0  0  0  0
    6.8757    3.0185   -3.7837 H   0  0  0  0  0  0  0  0  0  0  0  0
    6.2438    1.0865   -6.0811 H   0  0  0  0  0  0  0  0  0  0  0  0
    5.5154    1.1429   -4.4640 H   0  0  0  0  0  0  0  0  0  0  0  0
    4.9099    3.5398   -5.1992 H   0  0  0  0  0  0  0  0  0  0  0  0
    2.9941    2.9565   -6.4145 H   0  0  0  0  0  0  0  0  0  0  0  0
    3.7845    1.5289   -7.0070 H   0  0  0  0  0  0  0  0  0  0  0  0
    2.0853    0.8107   -5.5256 H   0  0  0  0  0  0  0  0  0  0  0  0
    3.5957    0.4383   -4.7609 H   0  0  0  0  0  0  0  0  0  0  0  0
    2.7747    1.3685   -2.8591 H   0  0  0  0  0  0  0  0  0  0  0  0
    0.7304    1.0882   -3.7503 H   0  0  0  0  0  0  0  0  0  0  0  0
    4.0951    3.3432   -3.4773 H   0  0  0  0  0  0  0  0  0  0  0  0
    2.7202    3.8917   -4.4993 H   0  0  0  0  0  0  0  0  0  0  0  0
    1.5082    4.1619   -2.4724 H   0  0  0  0  0  0  0  0  0  0  0  0
    2.7771    6.1214   -1.7349 H   0  0  0  0  0  0  0  0  0  0  0  0
    4.1344    5.5441   -2.6498 H   0  0  0  0  0  0  0  0  0  0  0  0
    2.9689    7.2899   -3.9200 H   0  0  0  0  0  0  0  0  0  0  0  0
    2.9133    5.8240   -4.8112 H   0  0  0  0  0  0  0  0  0  0  0  0
    0.7023    6.8705   -4.9042 H   0  0  0  0  0  0  0  0  0  0  0  0
    0.5754    5.3491   -4.0467 H   0  0  0  0  0  0  0  0  0  0  0  0
   -0.6990    7.0769   -2.8596 H   0  0  0  0  0  0  0  0  0  0  0  0
    0.6276    6.4826   -1.8848 H   0  0  0  0  0  0  0  0  0  0  0  0
    1.9201    8.4732   -2.7599 H   0  0  0  0  0  0  0  0  0  0  0  0
    0.8446   10.1524   -1.5591 H   0  0  0  0  0  0  0  0  0  0  0  0
   -0.6037    9.1538   -1.4916 H   0  0  0  0  0  0  0  0  0  0  0  0
    0.8227    7.4288   -0.1111 H   0  0  0  0  0  0  0  0  0  0  0  0
    2.8017    8.0199   -0.8856 H   0  0  0  0  0  0  0  0  0  0  0  0
    0.9206    8.6887    1.9548 H   0  0  0  0  0  0  0  0  0  0  0  0
    0.8673   10.2120    1.0979 H   0  0  0  0  0  0  0  0  0  0  0  0
   -1.3411    9.6599    2.0588 H   0  0  0  0  0  0  0  0  0  0  0  0
   -1.3968    9.8028    0.3153 H   0  0  0  0  0  0  0  0  0  0  0  0
   -1.2418    7.3200    0.2433 H   0  0  0  0  0  0  0  0  0  0  0  0
   -3.3767    6.7747    1.0689 H   0  0  0  0  0  0  0  0  0  0  0  0
   -3.4527    8.3204    1.9001 H   0  0  0  0  0  0  0  0  0  0  0  0
   -3.2136    7.9303   -1.1492 H   0  0  0  0  0  0  0  0  0  0  0  0
   -4.6981    8.3467   -0.2725 H   0  0  0  0  0  0  0  0  0  0  0  0
   -3.3719    9.4996   -0.3401 H   0  0  0  0  0  0  0  0  0  0  0  0
  1  2  1  0  0  0  0
  1 23  1  0  0  0  0
  1 24  1  0  0  0  0
  1 25  1  0  0  0  0
  2  3  1  0  0  0  0
  2 26  1  0  0  0  0
  2 27  1  0  0  0  0
  3  4  1  0  0  0  0
  3 28  1  0  0  0  0
  4  5  1  0  0  0  0
  4 29  1  0  0  0  0
  4 30  1  0  0  0  0
  5 31  1  0  0  0  0
  5 32  1  0  0  0  0
  6  8  1  0  0  0  0
  6 33  1  1  0  0  0
  6  7  1  0  0  0  0
  6  5  1  0  0  0  0
  7 34  1  0  0  0  0
  8  9  1  0  0  0  0
  8 35  1  0  0  0  0
  8 36  1  0  0  0  0
  9 10  1  0  0  0  0
  9 37  1  0  0  0  0
 10 11  1  0  0  0  0
 10 38  1  0  0  0  0
 10 39  1  0  0  0  0
 11 12  1  0  0  0  0
 11 40  1  0  0  0  0
 11 41  1  0  0  0  0
 12 13  1  0  0  0  0
 12 42  1  0  0  0  0
 12 43  1  0  0  0  0
 13 14  1  0  0  0  0
 13 44  1  0  0  0  0
 13 45  1  0  0  0  0
 14 15  1  0  0  0  0
 14 46  1  0  0  0  0
 15 47  1  0  0  0  0
 15 48  1  0  0  0  0
 16 15  1  0  0  0  0
 16 17  1  0  0  0  0
 16 18  1  0  0  0  0
 16 49  1  1  0  0  0
 17 50  1  0  0  0  0
 18 19  1  0  0  0  0
 18 51  1  0  0  0  0
 18 52  1  0  0  0  0
 19 20  1  0  0  0  0
 19 53  1  0  0  0  0
 19 54  1  0  0  0  0
 20 21  1  0  0  0  0
 20 55  1  0  0  0  0
 21 22  1  0  0  0  0
 21 56  1  0  0  0  0
 21 57  1  0  0  0  0
 22 58  1  0  0  0  0
 22 59  1  0  0  0  0
 22 60  1  0  0  0  0
M  END
>  <DRUGBANK_ID>
DB17988

>  <COMMON_NAME>
Ivospemin

>  <CAS_NUMBER>
748119-79-1

>  <UNII>
775S1NC70I

>  <SYNONYMS>
(6S,15S)-3,8,13,18-Tetraazaeicosane-6,15-diol; (6S,15S)-3,8,13,18-Tetraazaicosane-6,15-diol; 3,8,13,18-tetraazaeicosane-6,15-diol, (6s,15s)-

$$$$
