887
 OpenBabel10282417163D

 53 57  0  0  0  0  0  0  0  0999 V2000
    2.4395   -0.8801    0.2039 C   0  0  0  0  0  0  0  0  0  0  0  0
    1.2391   -1.5911    0.0803 C   0  0  0  0  0  0  0  0  0  0  0  0
   -0.0363   -0.9077    0.1495 C   0  0  0  0  0  0  0  0  0  0  0  0
   -0.0643    0.4771    0.4051 C   0  0  0  0  0  0  0  0  0  0  0  0
    1.0779    0.9833    0.9629 C   0  0  0  0  0  0  0  0  0  0  0  0
    2.2998    0.4209    0.6330 C   0  0  0  0  0  0  0  0  0  0  0  0
   -1.2954   -1.5069   -0.0087 C   0  0  0  0  0  0  0  0  0  0  0  0
   -2.4698   -0.7319   -0.0341 C   0  0  0  0  0  0  0  0  0  0  0  0
   -2.4110    0.6688   -0.0218 C   0  0  0  0  0  0  0  0  0  0  0  0
   -1.1812    1.3117    0.1403 C   0  0  0  0  0  0  0  0  0  0  0  0
    3.6674   -1.4662   -0.0702 O   0  0  0  0  0  0  0  0  0  0  0  0
    4.8625   -0.7267   -0.0385 C   0  0  0  0  0  0  0  0  0  0  0  0
    5.3028    0.0948    1.0435 C   0  0  0  0  0  0  0  0  0  0  0  0
    6.4892    0.8221    0.8902 C   0  0  0  0  0  0  0  0  0  0  0  0
    7.2754    0.6892   -0.1947 N   0  0  0  0  0  0  0  0  0  0  0  0
    6.8841   -0.1586   -1.1727 C   0  0  0  0  0  0  0  0  0  0  0  0
    5.6961   -0.8715   -1.1493 C   0  0  0  0  0  0  0  0  0  0  0  0
    4.6000    0.2776    2.2538 C   0  0  0  0  0  0  0  0  0  0  0  0
    4.8738    1.2698    3.2130 C   0  0  0  0  0  0  0  0  0  0  0  0
    6.0664    1.9806    3.0656 C   0  0  0  0  0  0  0  0  0  0  0  0
    6.8474    1.7116    1.9066 C   0  0  0  0  0  0  0  0  0  0  0  0
    3.7942    1.2819    4.0541 O   0  0  0  0  0  0  0  0  0  0  0  0
    6.7189    2.9299    3.8107 O   0  0  0  0  0  0  0  0  0  0  0  0
    6.2496    3.3066    5.0788 C   0  0  0  0  0  0  0  0  0  0  0  0
    3.7282    2.1246    5.1656 C   0  0  0  0  0  0  0  0  0  0  0  0
   -1.1673    2.8414   -0.0309 C   0  0  0  0  0  0  0  0  0  0  0  0
   -0.0231    3.6026   -0.3401 N   0  0  0  0  0  0  0  0  0  0  0  0
    1.3429    3.2133   -0.5188 C   0  0  0  0  0  0  0  0  0  0  0  0
   -2.2210    3.4518    0.0545 O   0  0  0  0  0  0  0  0  0  0  0  0
    2.2479    3.4403   -1.6803 C   0  0  0  0  0  0  0  0  0  0  0  0
    1.6394    2.1048   -1.5448 C   0  0  0  0  0  0  0  0  0  0  0  0
    1.2707   -2.6561   -0.1354 H   0  0  0  0  0  0  0  0  0  0  0  0
    1.0543    1.9608    1.4199 H   0  0  0  0  0  0  0  0  0  0  0  0
    3.1263    1.1228    0.6033 H   0  0  0  0  0  0  0  0  0  0  0  0
   -1.3730   -2.5889   -0.0763 H   0  0  0  0  0  0  0  0  0  0  0  0
   -3.4385   -1.2231   -0.0926 H   0  0  0  0  0  0  0  0  0  0  0  0
   -3.3296    1.2481   -0.1159 H   0  0  0  0  0  0  0  0  0  0  0  0
    7.5805   -0.2447   -2.0054 H   0  0  0  0  0  0  0  0  0  0  0  0
    5.4387   -1.5194   -1.9796 H   0  0  0  0  0  0  0  0  0  0  0  0
    3.7000   -0.3123    2.4241 H   0  0  0  0  0  0  0  0  0  0  0  0
    7.7917    2.2471    1.7890 H   0  0  0  0  0  0  0  0  0  0  0  0
    5.3479    3.8949    4.9404 H   0  0  0  0  0  0  0  0  0  0  0  0
    6.2044    2.4299    5.7233 H   0  0  0  0  0  0  0  0  0  0  0  0
    6.9103    3.9975    5.6064 H   0  0  0  0  0  0  0  0  0  0  0  0
    4.5068    1.8121    5.8515 H   0  0  0  0  0  0  0  0  0  0  0  0
    3.7020    3.1557    4.8199 H   0  0  0  0  0  0  0  0  0  0  0  0
    2.8171    2.0095    5.7562 H   0  0  0  0  0  0  0  0  0  0  0  0
   -0.2079    4.5997   -0.2460 H   0  0  0  0  0  0  0  0  0  0  0  0
    1.9068    3.3947    0.4003 H   0  0  0  0  0  0  0  0  0  0  0  0
    1.9713    3.9645   -2.5703 H   0  0  0  0  0  0  0  0  0  0  0  0
    3.3090    3.4658   -1.4174 H   0  0  0  0  0  0  0  0  0  0  0  0
    2.3896    1.3255   -1.4988 H   0  0  0  0  0  0  0  0  0  0  0  0
    0.7541    1.7319   -2.0448 H   0  0  0  0  0  0  0  0  0  0  0  0
  1  6  1  0  0  0  0
  2  1  2  0  0  0  0
  2  3  1  0  0  0  0
  2 32  1  0  0  0  0
  3  4  1  0  0  0  0
  4  5  1  0  0  0  0
  4 10  2  0  0  0  0
  5 33  1  0  0  0  0
  6  5  2  0  0  0  0
  6 34  1  0  0  0  0
  7  3  2  0  0  0  0
  7  8  1  0  0  0  0
  7 35  1  0  0  0  0
  8  9  2  0  0  0  0
  8 36  1  0  0  0  0
  9 10  1  0  0  0  0
  9 37  1  0  0  0  0
 10 26  1  0  0  0  0
 11  1  1  0  0  0  0
 12 11  1  0  0  0  0
 12 17  2  0  0  0  0
 13 12  1  0  0  0  0
 14 13  1  0  0  0  0
 14 15  1  0  0  0  0
 15 16  2  0  0  0  0
 16 17  1  0  0  0  0
 16 38  1  0  0  0  0
 17 39  1  0  0  0  0
 18 13  2  0  0  0  0
 18 40  1  0  0  0  0
 19 18  1  0  0  0  0
 20 19  2  0  0  0  0
 20 21  1  0  0  0  0
 21 14  2  0  0  0  0
 21 41  1  0  0  0  0
 22 19  1  0  0  0  0
 22 25  1  0  0  0  0
 23 20  1  0  0  0  0
 24 23  1  0  0  0  0
 24 42  1  0  0  0  0
 24 43  1  0  0  0  0
 24 44  1  0  0  0  0
 25 45  1  0  0  0  0
 25 46  1  0  0  0  0
 25 47  1  0  0  0  0
 26 29  2  0  0  0  0
 26 27  1  0  0  0  0
 27 28  1  0  0  0  0
 27 48  1  0  0  0  0
 28 30  1  0  0  0  0
 28 31  1  0  0  0  0
 28 49  1  0  0  0  0
 30 31  1  0  0  0  0
 30 50  1  0  0  0  0
 30 51  1  0  0  0  0
 31 52  1  0  0  0  0
 31 53  1  0  0  0  0
M  END
>  <DRUGBANK_ID>
DB07274

>  <COMMON_NAME>
N-cyclopropyl-6-[(6,7-dimethoxyquinolin-4-yl)oxy]naphthalene-1-carboxamide

$$$$
