
 OpenBabel10282417243D

 60 63  0  0  0  0  0  0  0  0999 V2000
    0.2264   -0.1902   -0.6619 C   0  0  0  0  0  0  0  0  0  0  0  0
   -0.4086   -0.7643    0.9432 O   0  0  0  0  0  0  0  0  0  0  0  0
    0.1414   -0.8229    2.6480 C   0  0  0  0  0  0  0  0  0  0  0  0
    1.5432   -0.4432    3.2895 C   0  0  0  0  0  0  0  0  0  0  0  0
    2.0807   -0.7015    4.5575 C   0  0  0  0  0  0  0  0  0  0  0  0
    1.2904   -1.5844    5.1876 C   0  0  0  0  0  0  0  0  0  0  0  0
   -0.1585   -1.4809    4.8451 C   0  0  0  0  0  0  0  0  0  0  0  0
   -0.7160   -1.0454    3.5500 C   0  0  0  0  0  0  0  0  0  0  0  0
   -2.0763   -0.8071    3.3488 O   0  0  0  0  0  0  0  0  0  0  0  0
   -2.2926   -0.1839    2.0452 C   0  0  0  0  0  0  0  0  0  0  0  0
   -1.3564    1.2186    1.7066 C   0  0  0  0  0  0  0  0  0  0  0  0
    0.4007    1.3349    1.4244 C   0  0  0  0  0  0  0  0  0  0  0  0
    0.9880    2.5170    1.5603 C   0  0  0  0  0  0  0  0  0  0  0  0
    2.3958    2.3684    1.5266 C   0  0  0  0  0  0  0  0  0  0  0  0
    3.2741    1.0866    1.2575 C   0  0  0  0  0  0  0  0  0  0  0  0
    2.8148   -0.1524    0.8938 C   0  0  0  0  0  0  0  0  0  0  0  0
    3.0896   -1.6960    1.2275 C   0  0  0  0  0  0  0  0  0  0  0  0
    1.5222    0.1072    1.0280 C   0  0  0  0  0  0  0  0  0  0  0  0
    1.8272   -2.8383    6.1229 C   0  0  0  0  0  0  0  0  0  0  0  0
    1.1157   -3.1188    7.0690 O   0  0  0  0  0  0  0  0  0  0  0  0
    3.1853   -3.5437    6.0534 N   0  0  0  0  0  0  0  0  0  0  0  0
    4.3829   -4.4069    5.1608 C   0  0  0  0  0  0  0  0  0  0  0  0
    4.0564   -6.2630    5.0248 C   0  0  0  0  0  0  0  0  0  0  0  0
    3.3606   -6.4051    3.7255 C   0  0  0  0  0  0  0  0  0  0  0  0
    2.5652   -7.2687    3.0050 C   0  0  0  0  0  0  0  0  0  0  0  0
    1.6208   -6.6877    2.1444 C   0  0  0  0  0  0  0  0  0  0  0  0
    1.5552   -5.3232    2.0667 C   0  0  0  0  0  0  0  0  0  0  0  0
    2.5804   -4.6448    2.6619 C   0  0  0  0  0  0  0  0  0  0  0  0
    3.7292   -5.2669    3.1210 C   0  0  0  0  0  0  0  0  0  0  0  0
    4.9698   -4.7261    3.8120 C   0  0  0  0  0  0  0  0  0  0  0  0
    4.5323   -2.9924    4.2151 C   0  0  0  0  0  0  0  0  0  0  0  0
    3.3361   -2.5457    3.9923 O   0  0  0  0  0  0  0  0  0  0  0  0
    5.4071   -2.3874    3.6081 O   0  0  0  0  0  0  0  0  0  0  0  0
   -0.0607    0.8516   -0.9683 H   0  0  0  0  0  0  0  0  0  0  0  0
    0.2122   -1.0955   -1.2308 H   0  0  0  0  0  0  0  0  0  0  0  0
    1.3538   -0.0040   -0.8548 H   0  0  0  0  0  0  0  0  0  0  0  0
    2.4769   -0.1791    2.8545 H   0  0  0  0  0  0  0  0  0  0  0  0
    3.2068   -0.5782    4.5502 H   0  0  0  0  0  0  0  0  0  0  0  0
   -0.7930   -1.7137    5.6602 H   0  0  0  0  0  0  0  0  0  0  0  0
   -2.2547   -0.9817    1.2768 H   0  0  0  0  0  0  0  0  0  0  0  0
   -3.3685    0.0282    1.9686 H   0  0  0  0  0  0  0  0  0  0  0  0
   -1.7887    1.6188    0.7765 H   0  0  0  0  0  0  0  0  0  0  0  0
   -1.6437    1.9181    2.5190 H   0  0  0  0  0  0  0  0  0  0  0  0
    0.3990    3.4232    1.7004 H   0  0  0  0  0  0  0  0  0  0  0  0
    2.9576    3.2571    1.7855 H   0  0  0  0  0  0  0  0  0  0  0  0
    4.2754    1.1247    1.6292 H   0  0  0  0  0  0  0  0  0  0  0  0
    2.3714   -2.0852    1.9981 H   0  0  0  0  0  0  0  0  0  0  0  0
    2.7952   -2.4527    0.4749 H   0  0  0  0  0  0  0  0  0  0  0  0
    4.0437   -1.8291    1.6905 H   0  0  0  0  0  0  0  0  0  0  0  0
    1.2251   -1.0357    0.9139 H   0  0  0  0  0  0  0  0  0  0  0  0
    3.3957   -3.8415    7.0067 H   0  0  0  0  0  0  0  0  0  0  0  0
    3.9465   -6.7004    6.0202 H   0  0  0  0  0  0  0  0  0  0  0  0
    4.8276   -7.0301    4.6944 H   0  0  0  0  0  0  0  0  0  0  0  0
    2.6057   -8.3420    3.1116 H   0  0  0  0  0  0  0  0  0  0  0  0
    0.8487   -7.2545    1.6494 H   0  0  0  0  0  0  0  0  0  0  0  0
    0.7492   -4.7318    1.6468 H   0  0  0  0  0  0  0  0  0  0  0  0
    2.1730   -3.7125    3.0217 H   0  0  0  0  0  0  0  0  0  0  0  0
    5.7101   -4.2851    3.1175 H   0  0  0  0  0  0  0  0  0  0  0  0
    5.8101   -5.2352    4.3595 H   0  0  0  0  0  0  0  0  0  0  0  0
    3.2196   -2.5186    4.9493 H   0  0  0  0  0  0  0  0  0  0  0  0
  1  2  1  0  0  0  0
  1 34  1  0  0  0  0
  1 35  1  0  0  0  0
  1 36  1  0  0  0  0
  2  3  1  0  0  0  0
  3  4  2  0  0  0  0
  3  8  1  0  0  0  0
  4  5  1  0  0  0  0
  4 37  1  0  0  0  0
  5  6  2  0  0  0  0
  5 38  1  0  0  0  0
  6  7  1  0  0  0  0
  6 19  1  0  0  0  0
  7  8  2  0  0  0  0
  7 39  1  0  0  0  0
  8  9  1  0  0  0  0
  9 10  1  0  0  0  0
 10 11  1  0  0  0  0
 10 40  1  0  0  0  0
 10 41  1  0  0  0  0
 11 12  1  0  0  0  0
 11 42  1  0  0  0  0
 11 43  1  0  0  0  0
 12 13  2  0  0  0  0
 12 18  1  0  0  0  0
 13 14  1  0  0  0  0
 13 44  1  0  0  0  0
 14 15  2  0  0  0  0
 14 45  1  0  0  0  0
 15 16  1  0  0  0  0
 15 46  1  0  0  0  0
 16 17  1  0  0  0  0
 16 18  2  0  0  0  0
 17 47  1  0  0  0  0
 17 48  1  0  0  0  0
 17 49  1  0  0  0  0
 18 50  1  0  0  0  0
 19 20  2  0  0  0  0
 19 21  1  0  0  0  0
 21 22  1  0  0  0  0
 21 51  1  0  0  0  0
 22 23  1  0  0  0  0
 22 30  1  0  0  0  0
 22 31  1  0  0  0  0
 23 24  1  0  0  0  0
 23 52  1  0  0  0  0
 23 53  1  0  0  0  0
 24 25  2  0  0  0  0
 24 29  1  0  0  0  0
 25 26  1  0  0  0  0
 25 54  1  0  0  0  0
 26 27  2  0  0  0  0
 26 55  1  0  0  0  0
 27 28  1  0  0  0  0
 27 56  1  0  0  0  0
 28 29  2  0  0  0  0
 28 57  1  0  0  0  0
 29 30  1  0  0  0  0
 30 58  1  0  0  0  0
 30 59  1  0  0  0  0
 31 32  1  0  0  0  0
 31 33  2  0  0  0  0
 32 60  1  0  0  0  0
M  END
>  <DRUGBANK_ID>
DB18124

>  <COMMON_NAME>
Fipaxalparant

>  <CAS_NUMBER>
1195941-38-8

>  <UNII>
Y76WZ464EY

>  <SYNONYMS>
1h-indene-2-carboxylic acid, 2,3-dihydro-2-((4-methoxy-3-(2-(3-methylphenyl)ethoxy)benzoyl)amino)-

$$$$
