INV
 OpenBabel10282417123D

 34 35  0  0  0  0  0  0  0  0999 V2000
    1.2143   -0.3109    0.2097 C   0  0  0  0  0  0  0  0  0  0  0  0
    0.3470   -1.3738    0.0632 C   0  0  0  0  0  0  0  0  0  0  0  0
   -1.0008   -1.1185   -0.0216 C   0  0  0  0  0  0  0  0  0  0  0  0
   -1.4599    0.2024   -0.0178 C   0  0  0  0  0  0  0  0  0  0  0  0
   -0.5333    1.2694   -0.0032 C   0  0  0  0  0  0  0  0  0  0  0  0
    0.8463    1.0204    0.0138 C   0  0  0  0  0  0  0  0  0  0  0  0
    1.8101    2.1639   -0.2125 C   0  0  0  0  0  0  0  0  0  0  0  0
    1.3723    3.3121   -0.3086 O   0  0  0  0  0  0  0  0  0  0  0  0
    3.1683    1.9935   -0.3854 N   0  0  0  0  0  0  0  0  0  0  0  0
    3.9813    0.8030   -0.4033 C   0  0  0  0  0  0  0  0  0  0  0  0
   -2.0679   -2.5207   -0.0066 S   0  0  0  0  0  0  0  0  0  0  0  0
   -2.9180   -2.3272    1.4325 N   0  0  0  0  0  0  0  0  0  0  0  0
   -2.9870   -2.4153   -1.1020 O   0  0  0  0  0  0  0  0  0  0  0  0
   -1.2561   -3.7062    0.2139 O   0  0  0  0  0  0  0  0  0  0  0  0
    4.6075    0.4316   -1.7030 C   0  0  0  0  0  0  0  0  0  0  0  0
    5.2655    1.3921   -2.4565 C   0  0  0  0  0  0  0  0  0  0  0  0
    5.9360    1.0084   -3.6061 C   0  0  0  0  0  0  0  0  0  0  0  0
    5.9635   -0.3326   -3.9821 C   0  0  0  0  0  0  0  0  0  0  0  0
    5.3232   -1.3108   -3.2350 C   0  0  0  0  0  0  0  0  0  0  0  0
    4.6015   -0.9234   -2.1162 C   0  0  0  0  0  0  0  0  0  0  0  0
    6.6112   -0.6837   -5.0983 F   0  0  0  0  0  0  0  0  0  0  0  0
    2.1604   -0.6437    0.5871 H   0  0  0  0  0  0  0  0  0  0  0  0
    0.7564   -2.3815    0.0819 H   0  0  0  0  0  0  0  0  0  0  0  0
   -2.5252    0.4125   -0.0446 H   0  0  0  0  0  0  0  0  0  0  0  0
   -0.8977    2.2970    0.0241 H   0  0  0  0  0  0  0  0  0  0  0  0
    3.6498    2.8708   -0.5495 H   0  0  0  0  0  0  0  0  0  0  0  0
    4.6841    0.8169    0.4335 H   0  0  0  0  0  0  0  0  0  0  0  0
    3.3742   -0.0440   -0.2694 H   0  0  0  0  0  0  0  0  0  0  0  0
   -3.6229   -3.0667    1.4786 H   0  0  0  0  0  0  0  0  0  0  0  0
   -2.3004   -2.3768    2.2440 H   0  0  0  0  0  0  0  0  0  0  0  0
    5.2479    2.4318   -2.1471 H   0  0  0  0  0  0  0  0  0  0  0  0
    6.4501    1.7542   -4.1980 H   0  0  0  0  0  0  0  0  0  0  0  0
    5.3953   -2.3553   -3.5210 H   0  0  0  0  0  0  0  0  0  0  0  0
    4.0387   -1.6830   -1.5699 H   0  0  0  0  0  0  0  0  0  0  0  0
  1  2  2  0  0  0  0
  1  6  1  0  0  0  0
  1 22  1  0  0  0  0
  2  3  1  0  0  0  0
  2 23  1  0  0  0  0
  3  4  2  0  0  0  0
  3 11  1  0  0  0  0
  4  5  1  0  0  0  0
  4 24  1  0  0  0  0
  5  6  2  0  0  0  0
  5 25  1  0  0  0  0
  6  7  1  0  0  0  0
  7  8  2  0  0  0  0
  7  9  1  0  0  0  0
  9 10  1  0  0  0  0
  9 26  1  0  0  0  0
 10 15  1  0  0  0  0
 10 27  1  0  0  0  0
 10 28  1  0  0  0  0
 11 12  1  0  0  0  0
 11 13  2  0  0  0  0
 11 14  2  0  0  0  0
 12 29  1  0  0  0  0
 12 30  1  0  0  0  0
 15 16  2  0  0  0  0
 15 20  1  0  0  0  0
 16 17  1  0  0  0  0
 16 31  1  0  0  0  0
 17 18  2  0  0  0  0
 17 32  1  0  0  0  0
 18 19  1  0  0  0  0
 18 21  1  0  0  0  0
 19 20  2  0  0  0  0
 19 33  1  0  0  0  0
 20 34  1  0  0  0  0
M  END
>  <DRUGBANK_ID>
DB02429

>  <SECONDARY_ACCESSION_NUMBERS>
EXPT01895

>  <COMMON_NAME>
4-(Aminosulfonyl)-N-[(4-Fluorophenyl)Methyl]-Benzamide

$$$$
