
 OpenBabel10282417183D

 38 39  0  0  0  0  0  0  0  0999 V2000
    1.1804   -0.5253    0.1211 O   0  0  0  0  0  0  0  0  0  0  0  0
    0.4410   -1.2195   -0.8364 N   0  0  0  0  0  0  0  0  0  0  0  0
   -0.8370   -0.9733   -0.7740 C   0  0  0  0  0  0  0  0  0  0  0  0
   -1.6560   -1.9123   -1.5651 C   0  0  0  0  0  0  0  0  0  0  0  0
   -2.8174   -1.5540   -2.1349 N   0  0  0  0  0  0  0  0  0  0  0  0
   -3.2578   -2.6939   -2.8038 O   0  0  0  0  0  0  0  0  0  0  0  0
   -2.4063   -3.7667   -2.6029 N   0  0  0  0  0  0  0  0  0  0  0  0
   -1.4088   -3.3015   -1.8490 C   0  0  0  0  0  0  0  0  0  0  0  0
   -0.3493   -4.0293   -1.4002 N   0  0  0  0  0  0  0  0  0  0  0  0
   -0.1968   -5.4640   -1.6441 C   0  0  0  0  0  0  0  0  0  0  0  0
    1.0734   -5.7670   -2.4570 C   0  0  0  0  0  0  0  0  0  0  0  0
    2.3015   -5.3010   -1.7791 N   0  0  0  0  0  0  0  0  0  0  0  0
    3.7583   -5.7025   -2.4784 S   0  0  0  0  0  0  0  0  0  0  0  0
    3.6416   -4.8157   -3.8850 N   0  0  0  0  0  0  0  0  0  0  0  0
    4.8144   -5.1032   -1.6992 O   0  0  0  0  0  0  0  0  0  0  0  0
    3.7479   -7.0825   -2.8675 O   0  0  0  0  0  0  0  0  0  0  0  0
   -1.5786   -0.0283   -0.0557 N   0  0  0  0  0  0  0  0  0  0  0  0
   -1.0437    0.9431    0.8269 C   0  0  0  0  0  0  0  0  0  0  0  0
    0.0030    1.7896    0.4141 C   0  0  0  0  0  0  0  0  0  0  0  0
    0.7286    2.5602    1.3268 C   0  0  0  0  0  0  0  0  0  0  0  0
    0.3649    2.5531    2.6639 C   0  0  0  0  0  0  0  0  0  0  0  0
    1.0675    3.3045    3.5249 F   0  0  0  0  0  0  0  0  0  0  0  0
   -0.7049    1.7707    3.0938 C   0  0  0  0  0  0  0  0  0  0  0  0
   -1.1744    1.7494    4.9285 Br  0  0  0  0  0  0  0  0  0  0  0  0
   -1.4099    0.9653    2.1830 C   0  0  0  0  0  0  0  0  0  0  0  0
    2.0462   -0.3740   -0.2972 H   0  0  0  0  0  0  0  0  0  0  0  0
    0.3472   -3.5946   -0.7985 H   0  0  0  0  0  0  0  0  0  0  0  0
   -0.1642   -5.9924   -0.6836 H   0  0  0  0  0  0  0  0  0  0  0  0
   -1.0489   -5.8788   -2.1974 H   0  0  0  0  0  0  0  0  0  0  0  0
    1.1365   -6.8487   -2.6211 H   0  0  0  0  0  0  0  0  0  0  0  0
    0.9928   -5.2645   -3.4246 H   0  0  0  0  0  0  0  0  0  0  0  0
    2.2986   -4.3307   -1.4713 H   0  0  0  0  0  0  0  0  0  0  0  0
    4.5380   -4.8835   -4.3740 H   0  0  0  0  0  0  0  0  0  0  0  0
    2.9119   -5.1806   -4.4944 H   0  0  0  0  0  0  0  0  0  0  0  0
   -2.5806   -0.1765    0.0178 H   0  0  0  0  0  0  0  0  0  0  0  0
    0.3266    1.7727   -0.6250 H   0  0  0  0  0  0  0  0  0  0  0  0
    1.5972    3.1271    1.0060 H   0  0  0  0  0  0  0  0  0  0  0  0
   -2.1983    0.3141    2.5513 H   0  0  0  0  0  0  0  0  0  0  0  0
  1  2  1  0  0  0  0
  1 26  1  0  0  0  0
  2  3  2  0  0  0  0
  3  4  1  0  0  0  0
  3 17  1  0  0  0  0
  4  5  2  0  0  0  0
  4  8  1  0  0  0  0
  5  6  1  0  0  0  0
  6  7  1  0  0  0  0
  7  8  2  0  0  0  0
  8  9  1  0  0  0  0
  9 10  1  0  0  0  0
  9 27  1  0  0  0  0
 10 11  1  0  0  0  0
 10 28  1  0  0  0  0
 10 29  1  0  0  0  0
 11 12  1  0  0  0  0
 11 30  1  0  0  0  0
 11 31  1  0  0  0  0
 12 13  1  0  0  0  0
 12 32  1  0  0  0  0
 13 14  1  0  0  0  0
 13 15  2  0  0  0  0
 13 16  2  0  0  0  0
 14 33  1  0  0  0  0
 14 34  1  0  0  0  0
 17 18  1  0  0  0  0
 17 35  1  0  0  0  0
 18 19  2  0  0  0  0
 18 25  1  0  0  0  0
 19 20  1  0  0  0  0
 19 36  1  0  0  0  0
 20 21  2  0  0  0  0
 20 37  1  0  0  0  0
 21 22  1  0  0  0  0
 21 23  1  0  0  0  0
 23 24  1  0  0  0  0
 23 25  2  0  0  0  0
 25 38  1  0  0  0  0
M  END
>  <DRUGBANK_ID>
DB11717

>  <COMMON_NAME>
Epacadostat

>  <CAS_NUMBER>
1204669-58-8

>  <UNII>
71596A9R13

>  <SYNONYMS>
Epacadostat; Epacadostatum

$$$$
