
 OpenBabel10282417133D

 21 20  0  0  0  0  0  0  0  0999 V2000
    1.2004    0.2735   -0.1984 C   0  0  0  0  0  0  0  0  0  0  0  0
    0.4254   -0.1691   -1.2313 N   0  0  0  0  0  0  0  0  0  0  0  0
   -1.0362   -0.2172   -1.2850 C   0  0  0  0  0  0  0  0  0  0  0  0
   -1.6023   -1.2815   -0.3512 C   0  0  0  0  0  0  0  0  0  0  0  0
   -1.2863   -0.9911    1.1037 C   0  0  0  0  0  0  0  0  0  0  0  0
    0.8131    0.7980    0.8527 O   0  0  0  0  0  0  0  0  0  0  0  0
    1.0316   -0.6596   -2.4020 O   0  0  0  0  0  0  0  0  0  0  0  0
   -2.2358    0.3355    1.8185 P   0  0  0  0  0  0  0  0  0  0  0  0
   -3.6929    0.1536    1.5619 O   0  0  0  0  0  0  0  0  0  0  0  0
   -1.8277    0.2079    3.3640 O   0  0  0  0  0  0  0  0  0  0  0  0
   -1.8418    1.8502    1.5035 O   0  0  0  0  0  0  0  0  0  0  0  0
    2.2676    0.0736   -0.3391 H   0  0  0  0  0  0  0  0  0  0  0  0
   -1.4278    0.7675   -1.0163 H   0  0  0  0  0  0  0  0  0  0  0  0
   -1.3533   -0.4444   -2.3109 H   0  0  0  0  0  0  0  0  0  0  0  0
   -2.6923   -1.3278   -0.4607 H   0  0  0  0  0  0  0  0  0  0  0  0
   -1.2184   -2.2748   -0.6155 H   0  0  0  0  0  0  0  0  0  0  0  0
   -1.6680   -1.8425    1.6747 H   0  0  0  0  0  0  0  0  0  0  0  0
   -0.2159   -1.0818    1.3150 H   0  0  0  0  0  0  0  0  0  0  0  0
    1.9792   -0.4675   -2.2960 H   0  0  0  0  0  0  0  0  0  0  0  0
   -1.0193   -0.3264    3.4971 H   0  0  0  0  0  0  0  0  0  0  0  0
   -2.6150    2.3898    1.7938 H   0  0  0  0  0  0  0  0  0  0  0  0
  1  6  2  0  0  0  0
  1  2  1  0  0  0  0
  1 12  1  0  0  0  0
  2  7  1  0  0  0  0
  2  3  1  0  0  0  0
  3  4  1  0  0  0  0
  3 13  1  0  0  0  0
  3 14  1  0  0  0  0
  4  5  1  0  0  0  0
  4 15  1  0  0  0  0
  4 16  1  0  0  0  0
  5  8  1  0  0  0  0
  5 17  1  0  0  0  0
  5 18  1  0  0  0  0
  7 19  1  0  0  0  0
  8  9  2  0  0  0  0
  8 10  1  0  0  0  0
  8 11  1  0  0  0  0
 10 20  1  0  0  0  0
 11 21  1  0  0  0  0
M  END
>  <DRUGBANK_ID>
DB02948

>  <SECONDARY_ACCESSION_NUMBERS>
EXPT01469

>  <COMMON_NAME>
Fosmidomycin

>  <CAS_NUMBER>
66508-53-0

>  <UNII>
5829E3D9I9

>  <SYNONYMS>
Fosmidomycin; Fosmidomycina; Fosmidomycine; Fosmidomycinum

$$$$
