
 OpenBabel10282417133D

 75 78  0  0  0  0  0  0  0  0999 V2000
    1.0752    0.0342    0.0458 Zn  0  2  0  0  0  0  0  0  0  0  0  0
   -1.8180  -13.5879   -2.3893 O   0  0  0  0  0  0  0  0  0  0  0  0
   -0.7655  -15.5198   -2.9850 O   0  0  0  0  0  0  0  0  0  0  0  0
    8.3200   -4.7697   -0.7488 O   0  0  0  0  0  0  0  0  0  0  0  0
    8.6011   -6.6347    0.3937 O   0  0  0  0  0  0  0  0  0  0  0  0
    0.1149  -11.1419    2.3586 N   0  5  0  0  0  0  0  0  0  0  0  0
    4.9445   -9.7497    1.5446 N   0  5  0  0  0  0  0  0  0  0  0  0
    7.0037   -7.8421    4.6740 N   0  0  0  0  0  0  0  0  0  0  0  0
    0.4172  -10.0740   -0.0092 N   0  0  0  0  0  0  0  0  0  0  0  0
    0.2334  -12.1205    1.8171 C   0  0  0  0  0  0  0  0  0  0  0  0
    1.8930  -10.7715    2.6929 C   0  0  0  0  0  0  0  0  0  0  0  0
   -1.4241  -11.2388    1.3944 C   0  0  0  0  0  0  0  0  0  0  0  0
   -1.1264  -12.3980    0.8059 C   0  0  0  0  0  0  0  0  0  0  0  0
    5.6891   -8.8198    2.0191 C   0  0  0  0  0  0  0  0  0  0  0  0
   -1.1468  -13.8888    0.8982 C   0  0  0  0  0  0  0  0  0  0  0  0
    4.2136   -9.2112    0.3302 C   0  0  0  0  0  0  0  0  0  0  0  0
    3.6812   -9.5763    3.3849 C   0  0  0  0  0  0  0  0  0  0  0  0
    5.3687   -7.9479    3.9631 C   0  0  0  0  0  0  0  0  0  0  0  0
    7.0868   -6.3494    3.7992 C   0  0  0  0  0  0  0  0  0  0  0  0
    4.6054   -7.9863    0.1664 C   0  0  0  0  0  0  0  0  0  0  0  0
    5.3584   -7.8009    1.1879 C   0  0  0  0  0  0  0  0  0  0  0  0
    7.8644   -6.8868    2.8755 C   0  0  0  0  0  0  0  0  0  0  0  0
    7.3730   -8.0459    3.4297 C   0  0  0  0  0  0  0  0  0  0  0  0
   -1.9788  -10.2173    0.7316 C   0  0  0  0  0  0  0  0  0  0  0  0
    6.6848   -9.1314    3.1222 C   0  0  0  0  0  0  0  0  0  0  0  0
    8.5351   -4.8666    3.0270 C   0  0  0  0  0  0  0  0  0  0  0  0
   -0.5702   -9.6978    0.8157 C   0  0  0  0  0  0  0  0  0  0  0  0
    0.2976  -12.7665    0.5173 C   0  0  0  0  0  0  0  0  0  0  0  0
    2.8017   -9.6646    0.0067 C   0  0  0  0  0  0  0  0  0  0  0  0
   -1.9921  -15.1744   -0.7283 C   0  0  0  0  0  0  0  0  0  0  0  0
    1.5684   -9.5935    0.5393 C   0  0  0  0  0  0  0  0  0  0  0  0
   -0.0692   -9.0420    2.1225 C   0  0  0  0  0  0  0  0  0  0  0  0
    1.2063   -8.8503    1.7911 C   0  0  0  0  0  0  0  0  0  0  0  0
    4.2193   -7.2873   -0.9403 C   0  0  0  0  0  0  0  0  0  0  0  0
    7.2368   -5.9888    1.7991 C   0  0  0  0  0  0  0  0  0  0  0  0
    9.5282   -4.8390    1.4295 C   0  0  0  0  0  0  0  0  0  0  0  0
    5.7235   -6.5675    0.9002 C   0  0  0  0  0  0  0  0  0  0  0  0
   -0.7318   -8.9209    3.4338 C   0  0  0  0  0  0  0  0  0  0  0  0
   -1.4937  -14.8876   -2.2266 C   0  0  0  0  0  0  0  0  0  0  0  0
    2.0506   -8.2407    2.7652 C   0  0  0  0  0  0  0  0  0  0  0  0
    8.8013   -5.4384    0.3059 C   0  0  0  0  0  0  0  0  0  0  0  0
    5.9909   -5.5163    0.0698 C   0  0  0  0  0  0  0  0  0  0  0  0
    3.2106   -7.7672    2.4130 C   0  0  0  0  0  0  0  0  0  0  0  0
   -1.3089  -13.0838   -3.0534 H   0  0  0  0  0  0  0  0  0  0  0  0
    8.6486   -3.8972   -0.9598 H   0  0  0  0  0  0  0  0  0  0  0  0
   -2.1527  -15.1228    1.0450 H   0  0  0  0  0  0  0  0  0  0  0  0
   -0.7348  -15.1400    0.4880 H   0  0  0  0  0  0  0  0  0  0  0  0
    4.6586   -8.7719    4.3037 H   0  0  0  0  0  0  0  0  0  0  0  0
   -2.8043   -9.5848    0.9882 H   0  0  0  0  0  0  0  0  0  0  0  0
    6.2927   -9.5372    4.2198 H   0  0  0  0  0  0  0  0  0  0  0  0
    8.1035   -3.8038    2.6817 H   0  0  0  0  0  0  0  0  0  0  0  0
    9.6154   -4.1556    3.4617 H   0  0  0  0  0  0  0  0  0  0  0  0
    0.3048  -12.1260   -0.3113 H   0  0  0  0  0  0  0  0  0  0  0  0
    1.3535  -12.9836    1.5475 H   0  0  0  0  0  0  0  0  0  0  0  0
    0.3636  -13.7957    0.3086 H   0  0  0  0  0  0  0  0  0  0  0  0
    3.2423  -10.0075    0.9712 H   0  0  0  0  0  0  0  0  0  0  0  0
   -3.2930  -15.5963   -1.2645 H   0  0  0  0  0  0  0  0  0  0  0  0
   -1.9478  -16.6488   -1.1188 H   0  0  0  0  0  0  0  0  0  0  0  0
    4.5375   -7.8803   -1.7419 H   0  0  0  0  0  0  0  0  0  0  0  0
    3.2688   -6.8717   -0.8832 H   0  0  0  0  0  0  0  0  0  0  0  0
    4.7802   -6.4961   -1.0939 H   0  0  0  0  0  0  0  0  0  0  0  0
    7.2322   -7.2789    1.0485 H   0  0  0  0  0  0  0  0  0  0  0  0
    5.6817   -5.5698    2.1144 H   0  0  0  0  0  0  0  0  0  0  0  0
    7.2437   -5.0003    1.3990 H   0  0  0  0  0  0  0  0  0  0  0  0
    9.9428   -3.9102    1.0001 H   0  0  0  0  0  0  0  0  0  0  0  0
   10.3480   -5.5398    1.5636 H   0  0  0  0  0  0  0  0  0  0  0  0
    6.0780   -6.7284    2.3705 H   0  0  0  0  0  0  0  0  0  0  0  0
   -0.2667   -9.4108    4.3048 H   0  0  0  0  0  0  0  0  0  0  0  0
   -0.6719   -7.8571    3.5626 H   0  0  0  0  0  0  0  0  0  0  0  0
   -1.7658   -9.2375    3.3837 H   0  0  0  0  0  0  0  0  0  0  0  0
    1.9400   -8.1152    3.8070 H   0  0  0  0  0  0  0  0  0  0  0  0
    6.6836   -4.6591    0.0527 H   0  0  0  0  0  0  0  0  0  0  0  0
    5.7388   -5.5582   -0.8749 H   0  0  0  0  0  0  0  0  0  0  0  0
    4.0750   -7.6195    3.0021 H   0  0  0  0  0  0  0  0  0  0  0  0
    3.5033   -8.4637    1.7354 H   0  0  0  0  0  0  0  0  0  0  0  0
  2 39  1  0  0  0  0
  2 44  1  0  0  0  0
  3 39  2  0  0  0  0
  4 41  1  0  0  0  0
  4 45  1  0  0  0  0
  5 41  2  0  0  0  0
  6 11  1  0  0  0  0
  6 12  1  0  0  0  0
  7 14  1  0  0  0  0
  7 16  1  0  0  0  0
  8 18  2  0  0  0  0
  8 23  1  0  0  0  0
  9 27  2  0  0  0  0
  9 31  1  0  0  0  0
 10 11  1  0  0  0  0
 10 13  2  0  0  0  0
 10 15  1  0  0  0  0
 11 17  2  0  0  0  0
 12 13  1  0  0  0  0
 12 24  2  0  0  0  0
 13 28  1  0  0  0  0
 14 21  2  0  0  0  0
 14 25  1  0  0  0  0
 15 30  1  0  0  0  0
 15 46  1  0  0  0  0
 15 47  1  0  0  0  0
 16 20  2  0  0  0  0
 16 29  1  0  0  0  0
 17 18  1  0  0  0  0
 17 48  1  0  0  0  0
 18 19  1  0  0  0  0
 19 22  2  0  0  0  0
 19 26  1  0  0  0  0
 20 21  1  0  0  0  0
 20 34  1  0  0  0  0
 21 37  1  0  0  0  0
 22 23  1  0  0  0  0
 22 35  1  0  0  0  0
 23 25  2  0  0  0  0
 24 27  1  0  0  0  0
 24 49  1  0  0  0  0
 25 50  1  0  0  0  0
 26 36  1  0  0  0  0
 26 51  1  0  0  0  0
 26 52  1  0  0  0  0
 27 32  1  0  0  0  0
 28 53  1  0  0  0  0
 28 54  1  0  0  0  0
 28 55  1  0  0  0  0
 29 31  2  0  0  0  0
 29 56  1  0  0  0  0
 30 39  1  0  0  0  0
 30 57  1  0  0  0  0
 30 58  1  0  0  0  0
 31 33  1  0  0  0  0
 32 33  2  0  0  0  0
 32 38  1  0  0  0  0
 33 40  1  0  0  0  0
 34 59  1  0  0  0  0
 34 60  1  0  0  0  0
 34 61  1  0  0  0  0
 35 62  1  0  0  0  0
 35 63  1  0  0  0  0
 35 64  1  0  0  0  0
 36 41  1  0  0  0  0
 36 65  1  0  0  0  0
 36 66  1  0  0  0  0
 37 42  2  0  0  0  0
 37 67  1  0  0  0  0
 38 68  1  0  0  0  0
 38 69  1  0  0  0  0
 38 70  1  0  0  0  0
 40 43  2  0  0  0  0
 40 71  1  0  0  0  0
 42 72  1  0  0  0  0
 42 73  1  0  0  0  0
 43 74  1  0  0  0  0
 43 75  1  0  0  0  0
M  CHG  3   1   2   6  -1   7  -1
M  END
>  <DRUGBANK_ID>
DB03934

>  <SECONDARY_ACCESSION_NUMBERS>
EXPT03292

>  <COMMON_NAME>
Zinc protoporphyrin

>  <UNII>
LNV3FKZ7GR

>  <SYNONYMS>
Protoporphyrin IX containing Zn; Zinc protoporphyrin-9; Zinc-protoporphyrin IX; ZPP

$$$$
