
 OpenBabel10282417143D

 18 17  0  0  1  0  0  0  0  0999 V2000
    1.1051   -0.0530   -0.1471 N   0  0  0  0  0  0  0  0  0  0  0  0
    0.5407   -1.2628    0.4800 C   0  0  1  0  0  0  0  0  0  0  0  0
    0.9762   -1.3457    1.9598 C   0  0  0  0  0  0  0  0  0  0  0  0
    0.5849   -0.1776    2.8741 C   0  0  0  0  0  0  0  0  0  0  0  0
   -0.8896   -0.0580    3.1674 C   0  0  0  0  0  0  0  0  0  0  0  0
   -1.4012   -0.4441    4.2118 O   0  0  0  0  0  0  0  0  0  0  0  0
   -0.9880   -1.2831    0.2392 C   0  0  0  0  0  0  0  0  0  0  0  0
   -1.5077   -2.4501   -0.1861 O   0  0  0  0  0  0  0  0  0  0  0  0
   -1.7136   -0.3017    0.3976 O   0  0  0  0  0  0  0  0  0  0  0  0
    0.7161    0.7742    0.3118 H   0  0  0  0  0  0  0  0  0  0  0  0
    2.1134   -0.0122   -0.0123 H   0  0  0  0  0  0  0  0  0  0  0  0
    0.9692   -2.1194   -0.0538 H   0  0  0  0  0  0  0  0  0  0  0  0
    0.6386   -2.2919    2.3997 H   0  0  0  0  0  0  0  0  0  0  0  0
    2.0783   -1.3932    1.9753 H   0  0  0  0  0  0  0  0  0  0  0  0
    1.0843   -0.3006    3.8436 H   0  0  0  0  0  0  0  0  0  0  0  0
    0.9312    0.7800    2.4743 H   0  0  0  0  0  0  0  0  0  0  0  0
   -1.5040    0.4189    2.3936 H   0  0  0  0  0  0  0  0  0  0  0  0
   -0.8664   -3.0807   -0.5599 H   0  0  0  0  0  0  0  0  0  0  0  0
  1 10  1  0  0  0  0
  1 11  1  0  0  0  0
  2  1  1  0  0  0  0
  2  3  1  0  0  0  0
  2  7  1  0  0  0  0
  2 12  1  6  0  0  0
  3  4  1  0  0  0  0
  3 13  1  0  0  0  0
  3 14  1  0  0  0  0
  4  5  1  0  0  0  0
  4 15  1  0  0  0  0
  4 16  1  0  0  0  0
  5  6  2  0  0  0  0
  5 17  1  0  0  0  0
  7  8  1  0  0  0  0
  7  9  2  0  0  0  0
  8 18  1  0  0  0  0
M  END
>  <DRUGBANK_ID>
DB04388

>  <SECONDARY_ACCESSION_NUMBERS>
EXPT00821

>  <COMMON_NAME>
4-Carboxy-4-Aminobutanal

>  <UNII>
B517ZPX7HX

$$$$
