
 OpenBabel10282417133D

147154  0  0  1  0  0  0  0  0999 V2000
    1.5871   -0.0263    2.4183 C   0  0  0  0  0  0  0  0  0  0  0  0
    2.9026   -2.2796   -1.0838 C   0  0  0  0  0  0  0  0  0  0  0  0
    1.6042    4.8231    1.5852 C   0  0  0  0  0  0  0  0  0  0  0  0
    3.8196   -1.2818   -5.6609 C   0  0  0  0  0  0  0  0  0  0  0  0
    1.8897    7.7502   -1.6858 C   0  0  0  0  0  0  0  0  0  0  0  0
    3.4384    2.8290   -6.5766 C   0  0  0  0  0  0  0  0  0  0  0  0
    2.8220    7.3034   -6.2655 C   0  0  0  0  0  0  0  0  0  0  0  0
    0.4983   -0.4300    1.4091 C   0  0  2  0  0  0  0  0  0  0  0  0
    1.8773   -2.3733   -2.2232 C   0  0  2  0  0  0  0  0  0  0  0  0
    0.2990    4.0198    1.6360 C   0  0  2  0  0  0  0  0  0  0  0  0
    2.5041   -0.8078   -6.2928 C   0  0  2  0  0  0  0  0  0  0  0  0
    0.4989    7.2202   -1.3074 C   0  0  2  0  0  0  0  0  0  0  0  0
    2.1501    3.4129   -7.1693 C   0  0  2  0  0  0  0  0  0  0  0  0
    1.3904    7.1991   -5.7191 C   0  0  2  0  0  0  0  0  0  0  0  0
   -1.9530   -0.3499    0.8158 C   0  0  2  0  0  0  0  0  0  0  0  0
   -2.2145    4.1432    1.9354 C   0  0  2  0  0  0  0  0  0  0  0  0
   -0.4222   -3.2985   -2.8198 C   0  0  2  0  0  0  0  0  0  0  0  0
   -1.9586    7.3508   -1.7796 C   0  0  2  0  0  0  0  0  0  0  0  0
    0.1401   -1.4264   -6.8805 C   0  0  2  0  0  0  0  0  0  0  0  0
   -1.0811    7.2143   -6.3795 C   0  0  2  0  0  0  0  0  0  0  0  0
    0.3230    3.1228   -8.8666 C   0  0  2  0  0  0  0  0  0  0  0  0
   -1.9191   -1.8761    0.7063 C   0  0  2  0  0  0  0  0  0  0  0  0
   -2.0752    3.1355    3.0853 C   0  0  2  0  0  0  0  0  0  0  0  0
    0.2794   -4.1615   -3.8752 C   0  0  2  0  0  0  0  0  0  0  0  0
   -2.1833    7.6236   -0.2898 C   0  0  2  0  0  0  0  0  0  0  0  0
    0.4298   -0.9562   -8.3065 C   0  0  2  0  0  0  0  0  0  0  0  0
   -1.1940    8.5285   -5.5994 C   0  0  2  0  0  0  0  0  0  0  0  0
    0.7175    4.4831   -9.4546 C   0  0  2  0  0  0  0  0  0  0  0  0
   -0.8751    0.1574    1.7840 C   0  0  2  0  0  0  0  0  0  0  0  0
    0.5463   -2.9234   -1.6853 C   0  0  2  0  0  0  0  0  0  0  0  0
   -0.9185    4.9441    1.6998 C   0  0  2  0  0  0  0  0  0  0  0  0
    1.4357   -1.8995   -6.2089 C   0  0  2  0  0  0  0  0  0  0  0  0
   -0.5731    7.8506   -2.2073 C   0  0  2  0  0  0  0  0  0  0  0  0
    1.5455    2.4639   -8.2066 C   0  0  2  0  0  0  0  0  0  0  0  0
    0.3672    6.9634   -6.8540 C   0  0  2  0  0  0  0  0  0  0  0  0
   -0.4890   -2.3608    0.4066 C   0  0  2  0  0  0  0  0  0  0  0  0
   -0.8026    2.3107    2.8855 C   0  0  2  0  0  0  0  0  0  0  0  0
    1.5358   -3.4156   -4.3395 C   0  0  2  0  0  0  0  0  0  0  0  0
   -1.0203    7.0483    0.5374 C   0  0  2  0  0  0  0  0  0  0  0  0
    1.5667    0.0819   -8.2918 C   0  0  2  0  0  0  0  0  0  0  0  0
   -0.1500    8.5487   -4.4740 C   0  0  2  0  0  0  0  0  0  0  0  0
    1.3610    5.3390   -8.3552 C   0  0  2  0  0  0  0  0  0  0  0  0
    2.0872    1.2815    2.2120 O   0  0  0  0  0  0  0  0  0  0  0  0
    4.1394   -1.7512   -1.5501 O   0  0  0  0  0  0  0  0  0  0  0  0
    2.7461    3.9853    1.4599 O   0  0  0  0  0  0  0  0  0  0  0  0
    4.8275   -0.2824   -5.7485 O   0  0  0  0  0  0  0  0  0  0  0  0
    2.9035    7.1832   -0.8659 O   0  0  0  0  0  0  0  0  0  0  0  0
    3.9858    3.6961   -5.5903 O   0  0  0  0  0  0  0  0  0  0  0  0
    3.7744    7.5100   -5.2306 O   0  0  0  0  0  0  0  0  0  0  0  0
   -3.2309    0.1221    1.2975 O   0  0  0  0  0  0  0  0  0  0  0  0
   -3.2830    5.0704    2.1890 O   0  0  0  0  0  0  0  0  0  0  0  0
   -1.5622   -3.9689   -2.2640 O   0  0  0  0  0  0  0  0  0  0  0  0
   -2.9539    8.0020   -2.5885 O   0  0  0  0  0  0  0  0  0  0  0  0
   -0.8076   -2.5114   -6.8563 O   0  0  0  0  0  0  0  0  0  0  0  0
   -1.9393    7.2259   -7.5413 O   0  0  0  0  0  0  0  0  0  0  0  0
   -0.1980    2.2434   -9.8728 O   0  0  0  0  0  0  0  0  0  0  0  0
   -2.8514   -2.3160   -0.2828 O   0  0  0  0  0  0  0  0  0  0  0  0
   -3.2165    2.2728    3.1656 O   0  0  0  0  0  0  0  0  0  0  0  0
   -0.5890   -4.4442   -4.9765 O   0  0  0  0  0  0  0  0  0  0  0  0
   -3.4437    7.0941    0.1268 O   0  0  0  0  0  0  0  0  0  0  0  0
   -0.7588   -0.4340   -8.9044 O   0  0  0  0  0  0  0  0  0  0  0  0
   -2.5191    8.7257   -5.1025 O   0  0  0  0  0  0  0  0  0  0  0  0
   -0.4037    5.1521  -10.0368 O   0  0  0  0  0  0  0  0  0  0  0  0
    0.4292   -1.8675    1.3842 O   0  0  0  0  0  0  0  0  0  0  0  0
    0.3392    3.1688    2.8007 O   0  0  0  0  0  0  0  0  0  0  0  0
    2.4315   -3.2338   -3.2397 O   0  0  0  0  0  0  0  0  0  0  0  0
    0.2442    7.5410    0.0790 O   0  0  0  0  0  0  0  0  0  0  0  0
    2.7464   -0.4336   -7.6636 O   0  0  0  0  0  0  0  0  0  0  0  0
    1.1591    8.4494   -5.0323 O   0  0  0  0  0  0  0  0  0  0  0  0
    2.4879    4.6544   -7.8089 O   0  0  0  0  0  0  0  0  0  0  0  0
   -0.8833    1.5782    1.6692 O   0  0  0  0  0  0  0  0  0  0  0  0
   -0.0955   -1.9194   -0.8899 O   0  0  0  0  0  0  0  0  0  0  0  0
   -1.0596    5.6267    0.4493 O   0  0  0  0  0  0  0  0  0  0  0  0
    1.1328   -2.1471   -4.8431 O   0  0  0  0  0  0  0  0  0  0  0  0
   -0.3735    7.4693   -3.5701 O   0  0  0  0  0  0  0  0  0  0  0  0
    1.1212    1.2470   -7.5950 O   0  0  0  0  0  0  0  0  0  0  0  0
    0.3901    5.6154   -7.3500 O   0  0  0  0  0  0  0  0  0  0  0  0
    0.8028   -0.0467    0.4249 H   0  0  0  0  0  0  0  0  0  0  0  0
    1.7521   -1.3645   -2.6386 H   0  0  0  0  0  0  0  0  0  0  0  0
    0.2719    3.4002    0.7295 H   0  0  0  0  0  0  0  0  0  0  0  0
    2.1753    0.0733   -5.7284 H   0  0  0  0  0  0  0  0  0  0  0  0
    0.5170    6.1286   -1.4239 H   0  0  0  0  0  0  0  0  0  0  0  0
    1.4562    3.6019   -6.3396 H   0  0  0  0  0  0  0  0  0  0  0  0
    1.3549    6.3803   -4.9888 H   0  0  0  0  0  0  0  0  0  0  0  0
   -1.8307    0.1058   -0.1752 H   0  0  0  0  0  0  0  0  0  0  0  0
   -2.5057    3.6226    1.0151 H   0  0  0  0  0  0  0  0  0  0  0  0
   -0.8326   -2.3898   -3.2782 H   0  0  0  0  0  0  0  0  0  0  0  0
   -2.0646    6.2816   -1.9998 H   0  0  0  0  0  0  0  0  0  0  0  0
   -0.3292   -0.6234   -6.2982 H   0  0  0  0  0  0  0  0  0  0  0  0
   -1.4397    6.3755   -5.7702 H   0  0  0  0  0  0  0  0  0  0  0  0
   -0.4881    3.2365   -8.1364 H   0  0  0  0  0  0  0  0  0  0  0  0
   -2.2500   -2.3100    1.6562 H   0  0  0  0  0  0  0  0  0  0  0  0
   -2.0174    3.6765    4.0372 H   0  0  0  0  0  0  0  0  0  0  0  0
    0.5565   -5.1268   -3.4372 H   0  0  0  0  0  0  0  0  0  0  0  0
   -2.2363    8.7062   -0.1298 H   0  0  0  0  0  0  0  0  0  0  0  0
    0.7309   -1.8163   -8.9150 H   0  0  0  0  0  0  0  0  0  0  0  0
   -1.0019    9.3642   -6.2822 H   0  0  0  0  0  0  0  0  0  0  0  0
    1.4448    4.3213  -10.2595 H   0  0  0  0  0  0  0  0  0  0  0  0
   -1.1683   -0.1605    2.7933 H   0  0  0  0  0  0  0  0  0  0  0  0
    0.7556   -3.8311   -1.1031 H   0  0  0  0  0  0  0  0  0  0  0  0
   -0.7913    5.6426    2.5373 H   0  0  0  0  0  0  0  0  0  0  0  0
    1.7699   -2.8067   -6.7290 H   0  0  0  0  0  0  0  0  0  0  0  0
   -0.5565    8.9417   -2.0821 H   0  0  0  0  0  0  0  0  0  0  0  0
    2.3008    2.2771   -8.9829 H   0  0  0  0  0  0  0  0  0  0  0  0
    0.5497    7.6629   -7.6809 H   0  0  0  0  0  0  0  0  0  0  0  0
   -0.4834   -3.4551    0.4680 H   0  0  0  0  0  0  0  0  0  0  0  0
   -0.6553    1.6453    3.7435 H   0  0  0  0  0  0  0  0  0  0  0  0
    2.0597   -4.0072   -5.0979 H   0  0  0  0  0  0  0  0  0  0  0  0
   -1.1496    7.3808    1.5734 H   0  0  0  0  0  0  0  0  0  0  0  0
    1.8151    0.3171   -9.3336 H   0  0  0  0  0  0  0  0  0  0  0  0
   -0.2075    9.5174   -3.9656 H   0  0  0  0  0  0  0  0  0  0  0  0
    1.7158    6.2705   -8.8099 H   0  0  0  0  0  0  0  0  0  0  0  0
    2.4470   -0.6988    2.3461 H   0  0  0  0  0  0  0  0  0  0  0  0
    1.2087   -0.0968    3.4439 H   0  0  0  0  0  0  0  0  0  0  0  0
    2.5480   -1.6278   -0.2836 H   0  0  0  0  0  0  0  0  0  0  0  0
    3.1083   -3.2694   -0.6637 H   0  0  0  0  0  0  0  0  0  0  0  0
    1.6077    5.4762    0.7150 H   0  0  0  0  0  0  0  0  0  0  0  0
    1.7315    5.4317    2.4848 H   0  0  0  0  0  0  0  0  0  0  0  0
    3.6847   -1.5048   -4.6009 H   0  0  0  0  0  0  0  0  0  0  0  0
    4.1965   -2.1772   -6.1634 H   0  0  0  0  0  0  0  0  0  0  0  0
    2.1356    7.5015   -2.7206 H   0  0  0  0  0  0  0  0  0  0  0  0
    1.9418    8.8363   -1.5635 H   0  0  0  0  0  0  0  0  0  0  0  0
    3.2433    1.8797   -6.0833 H   0  0  0  0  0  0  0  0  0  0  0  0
    4.1981    2.6719   -7.3495 H   0  0  0  0  0  0  0  0  0  0  0  0
    3.1420    6.4040   -6.7678 H   0  0  0  0  0  0  0  0  0  0  0  0
    2.9082    8.1321   -6.9746 H   0  0  0  0  0  0  0  0  0  0  0  0
    1.3073    1.8760    2.1264 H   0  0  0  0  0  0  0  0  0  0  0  0
    4.3979   -2.2836   -2.3242 H   0  0  0  0  0  0  0  0  0  0  0  0
    2.7049    3.2811    2.1358 H   0  0  0  0  0  0  0  0  0  0  0  0
    4.8765   -0.0151   -6.6828 H   0  0  0  0  0  0  0  0  0  0  0  0
    2.6361    7.3267    0.0589 H   0  0  0  0  0  0  0  0  0  0  0  0
    4.1700    4.5506   -6.0193 H   0  0  0  0  0  0  0  0  0  0  0  0
    3.4641    8.2775   -4.7184 H   0  0  0  0  0  0  0  0  0  0  0  0
   -3.5031   -0.4507    2.0377 H   0  0  0  0  0  0  0  0  0  0  0  0
   -3.1749    5.4349    3.0852 H   0  0  0  0  0  0  0  0  0  0  0  0
   -1.2993   -4.8652   -1.9912 H   0  0  0  0  0  0  0  0  0  0  0  0
   -3.1032    8.8976   -2.2338 H   0  0  0  0  0  0  0  0  0  0  0  0
   -0.5882   -3.1255   -7.5810 H   0  0  0  0  0  0  0  0  0  0  0  0
   -1.8961    8.1107   -7.9448 H   0  0  0  0  0  0  0  0  0  0  0  0
    0.3857    2.2777  -10.6506 H   0  0  0  0  0  0  0  0  0  0  0  0
   -2.4721   -2.1118   -1.1627 H   0  0  0  0  0  0  0  0  0  0  0  0
   -3.2911    1.8066    2.3022 H   0  0  0  0  0  0  0  0  0  0  0  0
   -0.8887   -3.5830   -5.3494 H   0  0  0  0  0  0  0  0  0  0  0  0
   -3.3518    6.1201    0.2004 H   0  0  0  0  0  0  0  0  0  0  0  0
   -0.8857    0.4776   -8.5668 H   0  0  0  0  0  0  0  0  0  0  0  0
   -2.6898    8.0507   -4.4057 H   0  0  0  0  0  0  0  0  0  0  0  0
   -1.0421    5.3265   -9.3148 H   0  0  0  0  0  0  0  0  0  0  0  0
  1113  1  0  0  0  0
  1114  1  0  0  0  0
  2115  1  0  0  0  0
  2116  1  0  0  0  0
  3117  1  0  0  0  0
  3118  1  0  0  0  0
  4119  1  0  0  0  0
  4120  1  0  0  0  0
  5121  1  0  0  0  0
  5122  1  0  0  0  0
  6123  1  0  0  0  0
  6124  1  0  0  0  0
  7125  1  0  0  0  0
  7126  1  0  0  0  0
  8 78  1  6  0  0  0
  8  1  1  0  0  0  0
  9  2  1  0  0  0  0
  9 79  1  6  0  0  0
 10  3  1  0  0  0  0
 10 80  1  6  0  0  0
 11  4  1  0  0  0  0
 11 81  1  1  0  0  0
 12  5  1  0  0  0  0
 12 82  1  6  0  0  0
 13  6  1  0  0  0  0
 13 83  1  1  0  0  0
 14  7  1  0  0  0  0
 14 84  1  1  0  0  0
 15 50  1  0  0  0  0
 15 85  1  6  0  0  0
 16 51  1  0  0  0  0
 16 86  1  6  0  0  0
 17 52  1  0  0  0  0
 17 87  1  6  0  0  0
 18 53  1  0  0  0  0
 18 88  1  6  0  0  0
 19 54  1  0  0  0  0
 19 89  1  1  0  0  0
 20 55  1  0  0  0  0
 20 90  1  1  0  0  0
 21 56  1  0  0  0  0
 21 91  1  1  0  0  0
 22 15  1  0  0  0  0
 22 57  1  0  0  0  0
 22 92  1  1  0  0  0
 23 16  1  0  0  0  0
 23 58  1  0  0  0  0
 23 93  1  1  0  0  0
 24 17  1  0  0  0  0
 24 59  1  0  0  0  0
 24 94  1  1  0  0  0
 25 18  1  0  0  0  0
 25 60  1  0  0  0  0
 25 95  1  1  0  0  0
 26 19  1  0  0  0  0
 26 61  1  0  0  0  0
 26 96  1  6  0  0  0
 27 20  1  0  0  0  0
 27 62  1  0  0  0  0
 27 97  1  6  0  0  0
 28 21  1  0  0  0  0
 28 63  1  0  0  0  0
 28 98  1  6  0  0  0
 29  8  1  0  0  0  0
 29 15  1  0  0  0  0
 29 99  1  1  0  0  0
 30  9  1  0  0  0  0
 30 17  1  0  0  0  0
 30100  1  1  0  0  0
 31 10  1  0  0  0  0
 31 16  1  0  0  0  0
 31101  1  1  0  0  0
 32 11  1  0  0  0  0
 32 19  1  0  0  0  0
 32102  1  6  0  0  0
 33 12  1  0  0  0  0
 33 18  1  0  0  0  0
 33103  1  1  0  0  0
 34 13  1  0  0  0  0
 34 21  1  0  0  0  0
 34104  1  6  0  0  0
 35 14  1  0  0  0  0
 35 20  1  0  0  0  0
 35105  1  6  0  0  0
 36 22  1  0  0  0  0
 36106  1  1  0  0  0
 37 23  1  0  0  0  0
 37107  1  1  0  0  0
 38 24  1  0  0  0  0
 38108  1  6  0  0  0
 39 25  1  0  0  0  0
 39109  1  1  0  0  0
 40 26  1  0  0  0  0
 40110  1  6  0  0  0
 41 27  1  0  0  0  0
 41111  1  1  0  0  0
 42 28  1  0  0  0  0
 42112  1  6  0  0  0
 43  1  1  0  0  0  0
 43127  1  0  0  0  0
 44  2  1  0  0  0  0
 44128  1  0  0  0  0
 45  3  1  0  0  0  0
 45129  1  0  0  0  0
 46  4  1  0  0  0  0
 46130  1  0  0  0  0
 47  5  1  0  0  0  0
 47131  1  0  0  0  0
 48  6  1  0  0  0  0
 48132  1  0  0  0  0
 49  7  1  0  0  0  0
 49133  1  0  0  0  0
 50134  1  0  0  0  0
 51135  1  0  0  0  0
 52136  1  0  0  0  0
 53137  1  0  0  0  0
 54138  1  0  0  0  0
 55139  1  0  0  0  0
 56140  1  0  0  0  0
 57141  1  0  0  0  0
 58142  1  0  0  0  0
 59143  1  0  0  0  0
 60144  1  0  0  0  0
 61145  1  0  0  0  0
 62146  1  0  0  0  0
 63147  1  0  0  0  0
 64  8  1  0  0  0  0
 64 36  1  0  0  0  0
 65 10  1  0  0  0  0
 65 37  1  0  0  0  0
 66  9  1  0  0  0  0
 66 38  1  0  0  0  0
 67 12  1  0  0  0  0
 67 39  1  0  0  0  0
 68 11  1  0  0  0  0
 68 40  1  0  0  0  0
 69 14  1  0  0  0  0
 69 41  1  0  0  0  0
 70 13  1  0  0  0  0
 70 42  1  0  0  0  0
 71 29  1  0  0  0  0
 71 37  1  0  0  0  0
 72 30  1  0  0  0  0
 72 36  1  0  0  0  0
 73 31  1  0  0  0  0
 73 39  1  0  0  0  0
 74 32  1  0  0  0  0
 74 38  1  0  0  0  0
 75 33  1  0  0  0  0
 75 41  1  0  0  0  0
 76 34  1  0  0  0  0
 76 40  1  0  0  0  0
 77 35  1  0  0  0  0
 77 42  1  0  0  0  0
M  END
>  <DRUGBANK_ID>
DB03995

>  <SECONDARY_ACCESSION_NUMBERS>
EXPT00638

>  <COMMON_NAME>
Betadex

>  <CAS_NUMBER>
7585-39-9

>  <UNII>
JV039JZZ3A

>  <SYNONYMS>
beta-cyclodextrin; Betadex; Cyclodextrin B; Cycloheptaamylose; Cycloheptaglucan; Cyclomaltoheptaose

$$$$
