
 OpenBabel10282417223D

 71 74  0  0  1  0  0  0  0  0999 V2000
   -0.7346   -1.5733   -0.5796 C   0  0  0  0  0  0  0  0  0  0  0  0
   -1.5651   -1.1118    0.6273 C   0  0  0  0  0  0  0  0  0  0  0  0
   -1.8537   -2.3924    1.3534 C   0  0  0  0  0  0  0  0  0  0  0  0
   -0.9126    0.0433    1.5208 C   0  0  2  0  0  0  0  0  0  0  0  0
    0.5454    0.2019    1.5389 N   0  0  0  0  0  0  0  0  0  0  0  0
    1.3633    0.9073    2.3969 C   0  0  0  0  0  0  0  0  0  0  0  0
    2.6098    0.3254    2.1943 C   0  0  0  0  0  0  0  0  0  0  0  0
    3.9335    0.3519    2.8829 C   0  0  0  0  0  0  0  0  0  0  0  0
    4.5008   -1.0926    3.0246 O   0  0  0  0  0  0  0  0  0  0  0  0
    4.4432   -1.9199    4.2275 C   0  0  0  0  0  0  0  0  0  0  0  0
    4.9159   -3.3520    4.3521 C   0  0  0  0  0  0  0  0  0  0  0  0
    6.2688   -3.6485    5.0226 C   0  0  0  0  0  0  0  0  0  0  0  0
    7.0675   -2.5147    5.2073 C   0  0  0  0  0  0  0  0  0  0  0  0
    6.4540   -1.3023    4.8773 C   0  0  0  0  0  0  0  0  0  0  0  0
    5.0930   -1.2768    5.2004 C   0  0  0  0  0  0  0  0  0  0  0  0
    8.3990   -2.6638    5.4367 N   0  0  0  0  0  0  0  0  0  0  0  0
    8.6811   -3.8548    5.9065 C   0  0  0  0  0  0  0  0  0  0  0  0
    7.3132   -4.9626    5.7886 S   0  0  0  0  0  0  0  0  0  0  0  0
   10.4008   -4.1050    6.5595 S   0  0  0  0  0  0  0  0  0  0  0  0
   10.5214   -4.3465    8.2417 N   0  0  0  0  0  0  0  0  0  0  0  0
   10.9821   -5.2955    5.9233 O   0  0  0  0  0  0  0  0  0  0  0  0
   11.0469   -2.8323    6.4035 O   0  0  0  0  0  0  0  0  0  0  0  0
    2.5471   -0.4741    1.1008 N   0  0  0  0  0  0  0  0  0  0  0  0
    1.3045   -0.5030    0.6989 N   0  0  0  0  0  0  0  0  0  0  0  0
   -1.4397    0.0497    2.9764 C   0  0  0  0  0  0  0  0  0  0  0  0
   -2.1880    0.9508    3.3662 O   0  0  0  0  0  0  0  0  0  0  0  0
   -1.0824   -0.9381    3.8673 N   0  0  0  0  0  0  0  0  0  0  0  0
   -0.2397   -2.1449    3.6472 C   0  0  1  0  0  0  0  0  0  0  0  0
    1.0466   -2.1108    4.4289 C   0  0  0  0  0  0  0  0  0  0  0  0
    0.8048   -2.2721    5.8770 C   0  0  0  0  0  0  0  0  0  0  0  0
    0.8117   -3.5651    6.3787 C   0  0  0  0  0  0  0  0  0  0  0  0
    0.6225   -3.7601    7.7217 C   0  0  0  0  0  0  0  0  0  0  0  0
    0.3159   -2.6884    8.5561 C   0  0  0  0  0  0  0  0  0  0  0  0
   -0.0681   -2.8219    9.8601 O   0  0  0  0  0  0  0  0  0  0  0  0
   -0.2439   -4.1640   10.3310 C   0  0  0  0  0  0  0  0  0  0  0  0
   -1.4631   -4.9100    9.7628 C   0  0  0  0  0  0  0  0  0  0  0  0
   -1.3545   -5.2069    8.4438 F   0  0  0  0  0  0  0  0  0  0  0  0
    0.3218   -1.3871    8.0501 C   0  0  0  0  0  0  0  0  0  0  0  0
    0.5241   -1.1780    6.6947 C   0  0  0  0  0  0  0  0  0  0  0  0
   -1.0226   -3.5069    3.8797 C   0  0  0  0  0  0  0  0  0  0  0  0
   -0.9329   -4.4998    2.9609 O   0  0  0  0  0  0  0  0  0  0  0  0
   -1.7416   -3.6978    4.8587 O   0  0  0  0  0  0  0  0  0  0  0  0
    0.2168   -2.0290   -0.2768 H   0  0  0  0  0  0  0  0  0  0  0  0
   -0.5515   -0.7453   -1.2607 H   0  0  0  0  0  0  0  0  0  0  0  0
   -1.2055   -2.4086   -1.1038 H   0  0  0  0  0  0  0  0  0  0  0  0
   -2.5497   -0.7711    0.2931 H   0  0  0  0  0  0  0  0  0  0  0  0
   -0.8644   -2.8016    1.4792 H   0  0  0  0  0  0  0  0  0  0  0  0
   -2.4118   -2.2410    2.2778 H   0  0  0  0  0  0  0  0  0  0  0  0
   -2.3621   -3.1780    0.7990 H   0  0  0  0  0  0  0  0  0  0  0  0
   -1.2559    0.9795    1.0555 H   0  0  0  0  0  0  0  0  0  0  0  0
    0.9675    1.6266    3.1028 H   0  0  0  0  0  0  0  0  0  0  0  0
    4.5812    0.8877    2.1502 H   0  0  0  0  0  0  0  0  0  0  0  0
    3.9229    1.0467    3.7468 H   0  0  0  0  0  0  0  0  0  0  0  0
    4.1645   -4.1556    4.4380 H   0  0  0  0  0  0  0  0  0  0  0  0
    6.7503   -1.0950    3.8337 H   0  0  0  0  0  0  0  0  0  0  0  0
    4.8132   -1.6770    6.1982 H   0  0  0  0  0  0  0  0  0  0  0  0
   11.5273   -4.4000    8.4683 H   0  0  0  0  0  0  0  0  0  0  0  0
   10.1581   -3.5223    8.7277 H   0  0  0  0  0  0  0  0  0  0  0  0
   -1.5465   -0.8731    4.7734 H   0  0  0  0  0  0  0  0  0  0  0  0
    0.1740   -2.0573    2.6545 H   0  0  0  0  0  0  0  0  0  0  0  0
    1.6862   -2.9250    4.0654 H   0  0  0  0  0  0  0  0  0  0  0  0
    1.5957   -1.1821    4.2650 H   0  0  0  0  0  0  0  0  0  0  0  0
    0.8841   -4.4328    5.7250 H   0  0  0  0  0  0  0  0  0  0  0  0
    0.6562   -4.7884    8.0541 H   0  0  0  0  0  0  0  0  0  0  0  0
    0.6925   -4.7259   10.2286 H   0  0  0  0  0  0  0  0  0  0  0  0
   -0.4154   -4.0612   11.4074 H   0  0  0  0  0  0  0  0  0  0  0  0
   -1.5569   -5.8746   10.2632 H   0  0  0  0  0  0  0  0  0  0  0  0
   -2.3755   -4.3258    9.8810 H   0  0  0  0  0  0  0  0  0  0  0  0
    0.1605   -0.5361    8.7040 H   0  0  0  0  0  0  0  0  0  0  0  0
    0.4333   -0.1783    6.2745 H   0  0  0  0  0  0  0  0  0  0  0  0
   -0.5541   -4.3907    2.0684 H   0  0  0  0  0  0  0  0  0  0  0  0
  1  2  1  0  0  0  0
  1 43  1  0  0  0  0
  1 44  1  0  0  0  0
  1 45  1  0  0  0  0
  2  3  1  0  0  0  0
  2 46  1  0  0  0  0
  3 47  1  0  0  0  0
  3 48  1  0  0  0  0
  3 49  1  0  0  0  0
  4 25  1  0  0  0  0
  4 50  1  6  0  0  0
  4  5  1  0  0  0  0
  4  2  1  0  0  0  0
  5  6  1  0  0  0  0
  5 24  1  0  0  0  0
  6  7  2  0  0  0  0
  6 51  1  0  0  0  0
  7  8  1  0  0  0  0
  7 23  1  0  0  0  0
  8  9  1  0  0  0  0
  8 52  1  0  0  0  0
  8 53  1  0  0  0  0
  9 10  1  0  0  0  0
 10 11  2  0  0  0  0
 10 15  1  0  0  0  0
 11 12  1  0  0  0  0
 11 54  1  0  0  0  0
 12 13  2  0  0  0  0
 12 18  1  0  0  0  0
 13 14  1  0  0  0  0
 13 16  1  0  0  0  0
 14 15  2  0  0  0  0
 14 55  1  0  0  0  0
 15 56  1  0  0  0  0
 16 17  2  0  0  0  0
 17 18  1  0  0  0  0
 17 19  1  0  0  0  0
 19 20  1  0  0  0  0
 19 21  2  0  0  0  0
 19 22  2  0  0  0  0
 20 57  1  0  0  0  0
 20 58  1  0  0  0  0
 23 24  2  0  0  0  0
 25 26  2  0  0  0  0
 25 27  1  0  0  0  0
 27 59  1  0  0  0  0
 28 27  1  0  0  0  0
 28 29  1  0  0  0  0
 28 40  1  0  0  0  0
 28 60  1  6  0  0  0
 29 30  1  0  0  0  0
 29 61  1  0  0  0  0
 29 62  1  0  0  0  0
 30 31  2  0  0  0  0
 30 39  1  0  0  0  0
 31 32  1  0  0  0  0
 31 63  1  0  0  0  0
 32 33  2  0  0  0  0
 32 64  1  0  0  0  0
 33 34  1  0  0  0  0
 33 38  1  0  0  0  0
 34 35  1  0  0  0  0
 35 36  1  0  0  0  0
 35 65  1  0  0  0  0
 35 66  1  0  0  0  0
 36 37  1  0  0  0  0
 36 67  1  0  0  0  0
 36 68  1  0  0  0  0
 38 39  2  0  0  0  0
 38 69  1  0  0  0  0
 39 70  1  0  0  0  0
 40 41  1  0  0  0  0
 40 42  2  0  0  0  0
 41 71  1  0  0  0  0
M  END
>  <DRUGBANK_ID>
DB15319

>  <COMMON_NAME>
VM4-037

>  <CAS_NUMBER>
1071470-72-8

>  <UNII>
009954O7PB

$$$$
