SCX
 OpenBabel10282417173D

 45 48  0  0  0  0  0  0  0  0999 V2000
    1.4310   -1.3384   -0.0108 C   0  0  0  0  0  0  0  0  0  0  0  0
    0.1509   -0.8128    0.0141 C   0  0  0  0  0  0  0  0  0  0  0  0
    0.3040    0.5800    0.0128 N   0  0  0  0  0  0  0  0  0  0  0  0
    1.6239    0.9182    0.0140 N   0  0  0  0  0  0  0  0  0  0  0  0
    2.2833   -0.2252    0.0126 C   0  0  0  0  0  0  0  0  0  0  0  0
   -1.0817   -1.4082    0.0419 N   0  0  0  0  0  0  0  0  0  0  0  0
   -2.1172   -0.6168    0.0384 C   0  0  0  0  0  0  0  0  0  0  0  0
   -2.0463    0.8876   -0.0168 C   0  0  0  0  0  0  0  0  0  0  0  0
   -0.8162    1.4569   -0.0027 C   0  0  0  0  0  0  0  0  0  0  0  0
   -0.6290    2.8460   -0.0086 N   0  0  0  0  0  0  0  0  0  0  0  0
   -3.4760   -1.2167    0.1316 C   0  0  0  0  0  0  0  0  0  0  0  0
    0.6186    3.6014    0.0277 C   0  0  0  0  0  0  0  0  0  0  0  0
    0.7515    4.4366   -1.1963 C   0  0  0  0  0  0  0  0  0  0  0  0
    0.6271    5.8047   -1.1605 C   0  0  0  0  0  0  0  0  0  0  0  0
    0.7160    6.5910   -2.2452 N   0  0  0  0  0  0  0  0  0  0  0  0
    0.9524    5.9765   -3.4098 C   0  0  0  0  0  0  0  0  0  0  0  0
    1.1358    4.6596   -3.5562 N   0  0  0  0  0  0  0  0  0  0  0  0
    1.0334    3.9117   -2.4399 C   0  0  0  0  0  0  0  0  0  0  0  0
   -4.4399   -1.0164   -0.8556 C   0  0  0  0  0  0  0  0  0  0  0  0
   -5.6957   -1.6330   -0.7773 C   0  0  0  0  0  0  0  0  0  0  0  0
   -6.0068   -2.4549    0.3063 C   0  0  0  0  0  0  0  0  0  0  0  0
   -5.0551   -2.6559    1.3045 C   0  0  0  0  0  0  0  0  0  0  0  0
   -3.7979   -2.0482    1.2071 C   0  0  0  0  0  0  0  0  0  0  0  0
    1.8736   -2.7514   -0.0605 C   0  0  0  0  0  0  0  0  0  0  0  0
    0.9882    6.7552   -4.5235 N   0  0  0  0  0  0  0  0  0  0  0  0
    2.7140   -3.0233   -1.3026 C   0  0  0  0  0  0  0  0  0  0  0  0
   -4.1826   -0.2352   -1.9139 F   0  0  0  0  0  0  0  0  0  0  0  0
   -2.9204   -2.2611    2.1979 F   0  0  0  0  0  0  0  0  0  0  0  0
    3.3656   -0.1963    0.0105 H   0  0  0  0  0  0  0  0  0  0  0  0
   -2.9610    1.4622   -0.0428 H   0  0  0  0  0  0  0  0  0  0  0  0
   -1.4719    3.4109   -0.0290 H   0  0  0  0  0  0  0  0  0  0  0  0
    0.6233    4.2252    0.9289 H   0  0  0  0  0  0  0  0  0  0  0  0
    1.5370    3.0293    0.1118 H   0  0  0  0  0  0  0  0  0  0  0  0
    0.4469    6.3284   -0.2264 H   0  0  0  0  0  0  0  0  0  0  0  0
    1.1908    2.8442   -2.5821 H   0  0  0  0  0  0  0  0  0  0  0  0
   -6.4253   -1.4747   -1.5677 H   0  0  0  0  0  0  0  0  0  0  0  0
   -6.9808   -2.9374    0.3717 H   0  0  0  0  0  0  0  0  0  0  0  0
   -5.2818   -3.2861    2.1610 H   0  0  0  0  0  0  0  0  0  0  0  0
    2.4710   -2.9659    0.8341 H   0  0  0  0  0  0  0  0  0  0  0  0
    1.0105   -3.4237   -0.0447 H   0  0  0  0  0  0  0  0  0  0  0  0
    1.2061    6.3159   -5.3998 H   0  0  0  0  0  0  0  0  0  0  0  0
    0.8799    7.7459   -4.3970 H   0  0  0  0  0  0  0  0  0  0  0  0
    3.6140   -2.3964   -1.3224 H   0  0  0  0  0  0  0  0  0  0  0  0
    3.0336   -4.0678   -1.3275 H   0  0  0  0  0  0  0  0  0  0  0  0
    2.1451   -2.8083   -2.2139 H   0  0  0  0  0  0  0  0  0  0  0  0
  1  2  2  0  0  0  0
  1 24  1  0  0  0  0
  2  6  1  0  0  0  0
  3  9  1  0  0  0  0
  3  2  1  0  0  0  0
  4  5  2  0  0  0  0
  4  3  1  0  0  0  0
  5  1  1  0  0  0  0
  5 29  1  0  0  0  0
  6  7  2  0  0  0  0
  7 11  1  0  0  0  0
  8  7  1  0  0  0  0
  8 30  1  0  0  0  0
  9  8  2  0  0  0  0
 10 12  1  0  0  0  0
 10  9  1  0  0  0  0
 10 31  1  0  0  0  0
 11 19  1  0  0  0  0
 12 32  1  0  0  0  0
 12 33  1  0  0  0  0
 13 14  1  0  0  0  0
 13 12  1  0  0  0  0
 14 34  1  0  0  0  0
 15 14  2  0  0  0  0
 16 15  1  0  0  0  0
 17 16  2  0  0  0  0
 17 18  1  0  0  0  0
 18 13  2  0  0  0  0
 18 35  1  0  0  0  0
 19 27  1  0  0  0  0
 19 20  2  0  0  0  0
 20 36  1  0  0  0  0
 21 20  1  0  0  0  0
 21 37  1  0  0  0  0
 22 21  2  0  0  0  0
 22 38  1  0  0  0  0
 23 11  2  0  0  0  0
 23 22  1  0  0  0  0
 24 39  1  0  0  0  0
 24 40  1  0  0  0  0
 25 16  1  0  0  0  0
 25 41  1  0  0  0  0
 25 42  1  0  0  0  0
 26 24  1  0  0  0  0
 26 43  1  0  0  0  0
 26 44  1  0  0  0  0
 26 45  1  0  0  0  0
 28 23  1  0  0  0  0
M  END
>  <DRUGBANK_ID>
DB08538

>  <COMMON_NAME>
N-((2-aminopyrimidin-5-yl)methyl)-5-(2,6-difluorophenyl)-3-ethylpyrazolo[1,5-a]pyrimidin-7-amine

$$$$
