
 OpenBabel10282417183D

182189  0  0  0  0  0  0  0  0999 V2000
    2.3849    0.1432   -2.0434 O   0  0  0  0  0  0  0  0  0  0  0  0
    2.9268   -0.0688   -0.3178 C   0  0  1  0  0  0  0  0  0  0  0  0
    3.3932    0.1433   -1.6259 C   0  0  1  0  0  0  0  0  0  0  0  0
    4.7811    0.2766   -1.5813 C   0  0  0  0  0  0  0  0  0  0  0  0
    5.3709   -0.6235   -2.2934 C   0  0  0  0  0  0  0  0  0  0  0  0
    6.7678   -0.5125   -2.2722 C   0  0  0  0  0  0  0  0  0  0  0  0
    7.3073    0.3019   -1.5414 O   0  0  0  0  0  0  0  0  0  0  0  0
   10.0671   -3.4992   -3.5914 C   0  0  0  0  0  0  0  0  0  0  0  0
    9.2747   -2.7576   -2.8017 C   0  0  0  0  0  0  0  0  0  0  0  0
    8.7839   -1.4041   -3.1578 C   0  0  0  0  0  0  0  0  0  0  0  0
    7.3586   -1.3994   -3.1107 N   0  0  0  0  0  0  0  0  0  0  0  0
   11.3374   -5.5640   -3.9275 C   0  0  0  0  0  0  0  0  0  0  0  0
   11.8691   -6.9631   -3.6976 C   0  0  2  0  0  0  0  0  0  0  0  0
   11.3671   -7.9553   -4.7213 C   0  0  0  0  0  0  0  0  0  0  0  0
   11.8410   -7.6564   -6.1232 C   0  0  0  0  0  0  0  0  0  0  0  0
   11.4265   -6.3577   -6.8071 C   0  0  0  0  0  0  0  0  0  0  0  0
    7.7693   -6.4469   -6.9571 C   0  0  0  0  0  0  0  0  0  0  0  0
    9.0402   -7.0789   -6.9342 O   0  0  0  0  0  0  0  0  0  0  0  0
    9.9218   -6.0385   -6.8517 C   0  0  0  0  0  0  0  0  0  0  0  0
    9.2954   -4.8209   -6.7866 N   0  0  0  0  0  0  0  0  0  0  0  0
    7.8035   -4.9779   -6.7027 C   0  0  0  0  0  0  0  0  0  0  0  0
    7.0354   -0.4325   -7.1342 C   0  0  0  0  0  0  0  0  0  0  0  0
    7.2048   -1.8661   -7.1110 C   0  0  0  0  0  0  0  0  0  0  0  0
    5.8664   -2.2137   -5.8597 N   0  0  0  0  0  0  0  0  0  0  0  0
    4.7110   -0.8534   -4.9818 C   0  0  0  0  0  0  0  0  0  0  0  0
    5.8634   -0.1170   -5.7397 C   0  0  0  0  0  0  0  0  0  0  0  0
    6.3041   -3.8896   -6.3706 C   0  0  0  0  0  0  0  0  0  0  0  0
    5.4324   -4.4535   -7.0517 O   0  0  0  0  0  0  0  0  0  0  0  0
   12.6008   -8.4478   -6.6937 O   0  0  0  0  0  0  0  0  0  0  0  0
   11.5178   -7.5411   -2.4418 O   0  0  0  0  0  0  0  0  0  0  0  0
   10.5445   -4.8095   -3.1676 C   0  0  0  0  0  0  0  0  0  0  0  0
   10.1490   -5.2747   -1.8233 C   0  0  0  0  0  0  0  0  0  0  0  0
    2.6079   -1.5527   -2.5262 C   0  0  0  0  0  0  0  0  0  0  0  0
    3.0347    1.0772    0.8712 C   0  0  0  0  0  0  0  0  0  0  0  0
    4.4118    1.5570    0.8862 C   0  0  0  0  0  0  0  0  0  0  0  0
    2.1961    2.3119    0.8473 C   0  0  0  0  0  0  0  0  0  0  0  0
    3.2919    0.0360   -3.7836 C   0  0  0  0  0  0  0  0  0  0  0  0
    1.9589    0.3788   -3.8912 O   0  0  0  0  0  0  0  0  0  0  0  0
    0.4439   -0.0941    0.4085 C   0  0  0  0  0  0  0  0  0  0  0  0
   -0.1322    1.1131   -0.2631 C   0  0  0  0  0  0  0  0  0  0  0  0
   -1.6265    0.8035   -1.4738 C   0  0  1  0  0  0  0  0  0  0  0  0
   -3.6843    0.1134   -0.9625 N   0  0  0  0  0  0  0  0  0  0  0  0
   -2.2764    3.2854   -0.6862 C   0  0  1  0  0  0  0  0  0  0  0  0
   -1.3717    3.6277   -1.7059 N   0  0  0  0  0  0  0  0  0  0  0  0
   -1.8376    4.4661   -2.7855 C   0  0  0  0  0  0  0  0  0  0  0  0
   -3.3015    4.4884   -2.4219 C   0  0  0  0  0  0  0  0  0  0  0  0
   -3.3554    4.2105   -0.9086 C   0  0  0  0  0  0  0  0  0  0  0  0
   -4.1316   -3.4756   -3.7451 C   0  0  0  0  0  0  0  0  0  0  0  0
   -4.4618   -2.4389   -2.9354 C   0  0  0  0  0  0  0  0  0  0  0  0
   -3.3147   -2.2692   -2.4273 C   0  0  0  0  0  0  0  0  0  0  0  0
   -2.5316   -3.3112   -2.1272 C   0  0  0  0  0  0  0  0  0  0  0  0
   -2.6129   -4.5454   -2.5527 C   0  0  0  0  0  0  0  0  0  0  0  0
   -3.4787   -4.6295   -3.4731 C   0  0  0  0  0  0  0  0  0  0  0  0
   -7.2215    1.2275    3.1667 N   0  0  0  0  0  0  0  0  0  0  0  0
   -7.2868    2.5585    3.3574 C   0  0  0  0  0  0  0  0  0  0  0  0
   -7.9026    3.4297    2.4764 C   0  0  0  0  0  0  0  0  0  0  0  0
   -8.5726    2.9120    1.3717 C   0  0  0  0  0  0  0  0  0  0  0  0
   -8.5813    1.5433    1.1709 C   0  0  0  0  0  0  0  0  0  0  0  0
   -7.8741    0.7485    2.0764 C   0  0  0  0  0  0  0  0  0  0  0  0
   -7.7071   -0.6876    1.7854 C   0  0  0  0  0  0  0  0  0  0  0  0
   -7.4047   -0.8646    0.4746 N   0  0  0  0  0  0  0  0  0  0  0  0
   -7.8045   -1.5578    2.6392 O   0  0  0  0  0  0  0  0  0  0  0  0
   -9.2419    0.9833    0.1118 O   0  0  0  0  0  0  0  0  0  0  0  0
   -6.1229   -2.5821   -4.6756 C   0  0  0  0  0  0  0  0  0  0  0  0
   -5.3411   -2.6821   -5.9397 C   0  0  0  0  0  0  0  0  0  0  0  0
   -4.9647   -4.0225   -6.4112 C   0  0  0  0  0  0  0  0  0  0  0  0
   -5.2472   -5.3336   -5.6799 C   0  0  0  0  0  0  0  0  0  0  0  0
   -5.8927   -5.4302   -4.3443 C   0  0  0  0  0  0  0  0  0  0  0  0
   -6.3539   -4.0718   -3.7184 C   0  0  0  0  0  0  0  0  0  0  0  0
   -5.8979   -4.1874   -1.9317 C   0  0  1  0  0  0  0  0  0  0  0  0
   -6.9671   -5.0499   -1.5600 C   0  0  0  0  0  0  0  0  0  0  0  0
   -8.0573   -4.3581   -1.1777 O   0  0  0  0  0  0  0  0  0  0  0  0
   -8.0619   -2.8621   -0.9690 C   0  0  1  0  0  0  0  0  0  0  0  0
   -6.7790   -1.9508    0.0080 C   0  0  1  0  0  0  0  0  0  0  0  0
   -5.0519   -1.1764   -0.6788 C   0  0  0  0  0  0  0  0  0  0  0  0
   -5.1879   -2.4201   -0.6616 O   0  0  0  0  0  0  0  0  0  0  0  0
   -1.4730   -2.9474    0.6702 N   0  0  0  0  0  0  0  0  0  0  0  0
   -2.6052   -4.0055    0.8158 C   0  0  2  0  0  0  0  0  0  0  0  0
   -3.8637   -3.7024    0.1848 C   0  0  0  0  0  0  0  0  0  0  0  0
   -4.5638   -4.5413   -0.8687 N   0  0  0  0  0  0  0  0  0  0  0  0
   -0.4956   -1.9476   -1.2473 O   0  0  0  0  0  0  0  0  0  0  0  0
   -1.2593   -1.9346   -0.2777 C   0  0  0  0  0  0  0  0  0  0  0  0
   -0.8483   -3.2270    2.8799 C   0  0  0  0  0  0  0  0  0  0  0  0
   -1.9734   -4.1895    3.0918 C   0  0  0  0  0  0  0  0  0  0  0  0
   -3.1438   -3.9069    2.2783 C   0  0  0  0  0  0  0  0  0  0  0  0
   -0.3748   -3.2880    1.4606 C   0  0  0  0  0  0  0  0  0  0  0  0
   -1.9348   -5.1219    3.8795 O   0  0  0  0  0  0  0  0  0  0  0  0
   -4.0638   -2.6173    0.7772 O   0  0  0  0  0  0  0  0  0  0  0  0
   -6.8454   -6.2411   -1.8311 O   0  0  0  0  0  0  0  0  0  0  0  0
   -8.1065   -2.1043   -2.2497 C   0  0  0  0  0  0  0  0  0  0  0  0
   -2.2833   -0.9145   -0.3283 C   0  0  1  0  0  0  0  0  0  0  0  0
   -2.4189    0.8040    0.2782 N   0  0  0  0  0  0  0  0  0  0  0  0
   -2.9927    2.0308   -0.9090 C   0  0  0  0  0  0  0  0  0  0  0  0
   -3.2710    1.8059   -2.1633 O   0  0  0  0  0  0  0  0  0  0  0  0
   -2.8732   -0.9920   -2.2071 C   0  0  0  0  0  0  0  0  0  0  0  0
   -1.9075    0.9484    1.5622 C   0  0  0  0  0  0  0  0  0  0  0  0
   -0.6360    2.5345   -1.9172 C   0  0  0  0  0  0  0  0  0  0  0  0
    0.5454    3.0449   -1.9057 O   0  0  0  0  0  0  0  0  0  0  0  0
   -2.3337   -4.9713    0.4622 H   0  0  0  0  0  0  0  0  0  0  0  0
   -1.7676    3.2068    0.2516 H   0  0  0  0  0  0  0  0  0  0  0  0
    2.8315   -1.0929    0.0794 H   0  0  0  0  0  0  0  0  0  0  0  0
    2.9987    1.5272   -1.7678 H   0  0  0  0  0  0  0  0  0  0  0  0
    5.2560    1.0136   -1.0104 H   0  0  0  0  0  0  0  0  0  0  0  0
    4.7789   -1.3203   -2.8209 H   0  0  0  0  0  0  0  0  0  0  0  0
   10.3499   -3.1055   -4.5710 H   0  0  0  0  0  0  0  0  0  0  0  0
    9.0074   -3.1281   -1.8144 H   0  0  0  0  0  0  0  0  0  0  0  0
    9.1082   -1.1266   -4.1613 H   0  0  0  0  0  0  0  0  0  0  0  0
    9.1797   -0.6654   -2.4569 H   0  0  0  0  0  0  0  0  0  0  0  0
    6.8181   -1.9941   -3.7360 H   0  0  0  0  0  0  0  0  0  0  0  0
   11.6394   -5.0327   -4.8091 H   0  0  0  0  0  0  0  0  0  0  0  0
   12.9608   -6.9269   -3.7042 H   0  0  0  0  0  0  0  0  0  0  0  0
   11.7166   -8.9579   -4.4234 H   0  0  0  0  0  0  0  0  0  0  0  0
   10.2755   -8.0035   -4.6995 H   0  0  0  0  0  0  0  0  0  0  0  0
   11.9615   -5.5412   -6.3403 H   0  0  0  0  0  0  0  0  0  0  0  0
   11.9183   -6.2929   -7.7753 H   0  0  0  0  0  0  0  0  0  0  0  0
    7.0090   -7.2236   -7.0776 H   0  0  0  0  0  0  0  0  0  0  0  0
    8.0956    0.0252   -7.3332 H   0  0  0  0  0  0  0  0  0  0  0  0
    6.6342   -0.2535   -8.1395 H   0  0  0  0  0  0  0  0  0  0  0  0
    7.3574   -2.2440   -8.3534 H   0  0  0  0  0  0  0  0  0  0  0  0
    8.4636   -2.1469   -7.1916 H   0  0  0  0  0  0  0  0  0  0  0  0
    6.7140    0.3306   -5.2205 H   0  0  0  0  0  0  0  0  0  0  0  0
   10.5465   -7.5414   -2.3187 H   0  0  0  0  0  0  0  0  0  0  0  0
   10.5410   -4.6358   -1.0469 H   0  0  0  0  0  0  0  0  0  0  0  0
    9.0880   -5.5068   -1.7798 H   0  0  0  0  0  0  0  0  0  0  0  0
   10.6550   -6.1353   -1.4690 H   0  0  0  0  0  0  0  0  0  0  0  0
    1.4806   -1.5657   -2.3502 H   0  0  0  0  0  0  0  0  0  0  0  0
    2.5814   -1.5811   -3.7425 H   0  0  0  0  0  0  0  0  0  0  0  0
    3.2732   -2.2064   -2.0663 H   0  0  0  0  0  0  0  0  0  0  0  0
    2.8023    0.6307    1.8776 H   0  0  0  0  0  0  0  0  0  0  0  0
    4.4661    2.1301   -0.0396 H   0  0  0  0  0  0  0  0  0  0  0  0
    4.6253    2.2900    1.6384 H   0  0  0  0  0  0  0  0  0  0  0  0
    5.0349    0.6624    0.9662 H   0  0  0  0  0  0  0  0  0  0  0  0
    1.3298    1.9637    1.4029 H   0  0  0  0  0  0  0  0  0  0  0  0
    2.3850    3.1597    1.4986 H   0  0  0  0  0  0  0  0  0  0  0  0
    2.1263    2.6857   -0.1807 H   0  0  0  0  0  0  0  0  0  0  0  0
    0.6175   -0.7851   -0.3734 H   0  0  0  0  0  0  0  0  0  0  0  0
    0.1810   -0.4953    1.3732 H   0  0  0  0  0  0  0  0  0  0  0  0
    1.4195   -0.0749    0.7450 H   0  0  0  0  0  0  0  0  0  0  0  0
   -0.7563    1.8296    0.1186 H   0  0  0  0  0  0  0  0  0  0  0  0
    0.3199    2.1502    0.0947 H   0  0  0  0  0  0  0  0  0  0  0  0
   -0.3134    0.7128   -1.8168 H   0  0  0  0  0  0  0  0  0  0  0  0
   -4.2779    0.2522   -0.1274 H   0  0  0  0  0  0  0  0  0  0  0  0
   -1.3899    5.4726   -2.7546 H   0  0  0  0  0  0  0  0  0  0  0  0
   -1.6307    4.0558   -3.7882 H   0  0  0  0  0  0  0  0  0  0  0  0
   -3.7882    5.4211   -2.6368 H   0  0  0  0  0  0  0  0  0  0  0  0
   -3.8088    3.7045   -2.9957 H   0  0  0  0  0  0  0  0  0  0  0  0
   -4.2739    3.7396   -0.5685 H   0  0  0  0  0  0  0  0  0  0  0  0
   -3.0833    5.0477   -0.2987 H   0  0  0  0  0  0  0  0  0  0  0  0
   -4.7439   -3.8042   -4.4757 H   0  0  0  0  0  0  0  0  0  0  0  0
   -5.3614   -1.6844   -2.8195 H   0  0  0  0  0  0  0  0  0  0  0  0
   -2.0696   -3.2849   -1.2359 H   0  0  0  0  0  0  0  0  0  0  0  0
   -2.3075   -5.4355   -2.0994 H   0  0  0  0  0  0  0  0  0  0  0  0
   -3.7926   -5.6276   -3.6407 H   0  0  0  0  0  0  0  0  0  0  0  0
   -6.8202    2.9488    4.2576 H   0  0  0  0  0  0  0  0  0  0  0  0
   -7.8611    4.4964    2.6597 H   0  0  0  0  0  0  0  0  0  0  0  0
   -9.0667    3.5916    0.6902 H   0  0  0  0  0  0  0  0  0  0  0  0
   -7.3060   -0.2213   -0.2686 H   0  0  0  0  0  0  0  0  0  0  0  0
   -9.7428    1.6370   -0.4002 H   0  0  0  0  0  0  0  0  0  0  0  0
   -5.3588   -1.5498   -4.4083 H   0  0  0  0  0  0  0  0  0  0  0  0
   -4.8238   -1.7581   -6.3007 H   0  0  0  0  0  0  0  0  0  0  0  0
   -4.5759   -4.0636   -7.4171 H   0  0  0  0  0  0  0  0  0  0  0  0
   -4.9463   -6.2757   -6.1393 H   0  0  0  0  0  0  0  0  0  0  0  0
   -5.4601   -6.3074   -3.7196 H   0  0  0  0  0  0  0  0  0  0  0  0
   -6.1508   -3.1992   -1.7964 H   0  0  0  0  0  0  0  0  0  0  0  0
   -9.0858   -2.7618   -0.5482 H   0  0  0  0  0  0  0  0  0  0  0  0
   -6.9427   -2.8715    0.8227 H   0  0  0  0  0  0  0  0  0  0  0  0
   -4.1230   -5.4017   -1.1483 H   0  0  0  0  0  0  0  0  0  0  0  0
   -1.2544   -2.2285    3.0814 H   0  0  0  0  0  0  0  0  0  0  0  0
   -0.0276   -3.4910    3.5219 H   0  0  0  0  0  0  0  0  0  0  0  0
   -3.4944   -2.8819    2.5799 H   0  0  0  0  0  0  0  0  0  0  0  0
   -3.9968   -4.5695    2.4214 H   0  0  0  0  0  0  0  0  0  0  0  0
   -0.0760   -4.2850    1.1565 H   0  0  0  0  0  0  0  0  0  0  0  0
    0.4199   -2.5718    1.3093 H   0  0  0  0  0  0  0  0  0  0  0  0
   -8.7702   -2.4666   -3.0190 H   0  0  0  0  0  0  0  0  0  0  0  0
   -8.1423   -1.0462   -2.0488 H   0  0  0  0  0  0  0  0  0  0  0  0
   -7.1624   -2.2065   -2.7007 H   0  0  0  0  0  0  0  0  0  0  0  0
   -3.0193   -1.1491    0.4366 H   0  0  0  0  0  0  0  0  0  0  0  0
   -3.9992   -0.3763   -2.5557 H   0  0  0  0  0  0  0  0  0  0  0  0
   -2.2661   -0.4966   -2.9423 H   0  0  0  0  0  0  0  0  0  0  0  0
   -0.8879    1.2770    1.5987 H   0  0  0  0  0  0  0  0  0  0  0  0
   -2.5300    1.7229    1.8901 H   0  0  0  0  0  0  0  0  0  0  0  0
   -1.8390   -0.0709    1.9146 H   0  0  0  0  0  0  0  0  0  0  0  0
  1 37  1  0  0  0  0
  1  2  1  0  0  0  0
  2  3  1  0  0  0  0
  2101  1  1  0  0  0
  2 34  1  0  0  0  0
  3  4  1  0  0  0  0
  3102  1  6  0  0  0
  3 33  1  0  0  0  0
  4  5  2  0  0  0  0
  4103  1  0  0  0  0
  5  6  1  0  0  0  0
  5104  1  0  0  0  0
  6 11  1  0  0  0  0
  6  7  2  0  0  0  0
  8  9  2  0  0  0  0
  8105  1  0  0  0  0
  9 10  1  0  0  0  0
  9106  1  0  0  0  0
 10 11  1  0  0  0  0
 10107  1  0  0  0  0
 10108  1  0  0  0  0
 11109  1  0  0  0  0
 12 13  1  0  0  0  0
 12 31  2  0  0  0  0
 12110  1  0  0  0  0
 13 14  1  0  0  0  0
 13111  1  6  0  0  0
 13 30  1  0  0  0  0
 14 15  1  0  0  0  0
 14112  1  0  0  0  0
 14113  1  0  0  0  0
 15 29  2  0  0  0  0
 15 16  1  0  0  0  0
 16114  1  0  0  0  0
 16115  1  0  0  0  0
 17 18  1  0  0  0  0
 17116  1  0  0  0  0
 18 19  1  0  0  0  0
 19 20  2  0  0  0  0
 19 16  1  0  0  0  0
 20 21  1  0  0  0  0
 21 17  2  0  0  0  0
 22 23  1  0  0  0  0
 22117  1  0  0  0  0
 22118  1  0  0  0  0
 23 24  1  0  0  0  0
 23119  1  0  0  0  0
 23120  1  0  0  0  0
 24 25  1  0  0  0  0
 24 27  1  0  0  0  0
 25 37  1  0  0  0  0
 25 26  2  0  0  0  0
 26 22  1  0  0  0  0
 26121  1  0  0  0  0
 27 21  1  0  0  0  0
 27 28  2  0  0  0  0
 30122  1  0  0  0  0
 31 32  1  0  0  0  0
 31  8  1  0  0  0  0
 32123  1  0  0  0  0
 32124  1  0  0  0  0
 32125  1  0  0  0  0
 33126  1  0  0  0  0
 33127  1  0  0  0  0
 33128  1  0  0  0  0
 34 35  1  0  0  0  0
 34 36  1  0  0  0  0
 34129  1  0  0  0  0
 35130  1  0  0  0  0
 35131  1  0  0  0  0
 35132  1  0  0  0  0
 36133  1  0  0  0  0
 36134  1  0  0  0  0
 36135  1  0  0  0  0
 37 38  2  0  0  0  0
 39 40  1  0  0  0  0
 39136  1  0  0  0  0
 39137  1  0  0  0  0
 39138  1  0  0  0  0
 40139  1  0  0  0  0
 40140  1  0  0  0  0
 41 40  1  0  0  0  0
 41 42  1  0  0  0  0
 41 97  1  0  0  0  0
 41141  1  6  0  0  0
 42142  1  0  0  0  0
 43 44  1  0  0  0  0
 43100  1  1  0  0  0
 44 45  1  0  0  0  0
 45 46  1  0  0  0  0
 45143  1  0  0  0  0
 45144  1  0  0  0  0
 46 47  1  0  0  0  0
 46145  1  0  0  0  0
 46146  1  0  0  0  0
 47 43  1  0  0  0  0
 47147  1  0  0  0  0
 47148  1  0  0  0  0
 48 49  2  0  0  0  0
 48149  1  0  0  0  0
 49 50  1  0  0  0  0
 49150  1  0  0  0  0
 50 51  2  0  0  0  0
 51 52  1  0  0  0  0
 51151  1  0  0  0  0
 52 53  2  0  0  0  0
 52152  1  0  0  0  0
 53 48  1  0  0  0  0
 53153  1  0  0  0  0
 54 55  2  0  0  0  0
 55 56  1  0  0  0  0
 55154  1  0  0  0  0
 56 57  2  0  0  0  0
 56155  1  0  0  0  0
 57 58  1  0  0  0  0
 57156  1  0  0  0  0
 58 59  2  0  0  0  0
 58 63  1  0  0  0  0
 59 54  1  0  0  0  0
 59 60  1  0  0  0  0
 60 61  1  0  0  0  0
 60 62  2  0  0  0  0
 61157  1  0  0  0  0
 63158  1  0  0  0  0
 64 65  2  0  0  0  0
 64159  1  0  0  0  0
 65 66  1  0  0  0  0
 65160  1  0  0  0  0
 66 67  2  0  0  0  0
 66161  1  0  0  0  0
 67 68  1  0  0  0  0
 67162  1  0  0  0  0
 68 69  2  0  0  0  0
 68163  1  0  0  0  0
 69 64  1  0  0  0  0
 70 69  1  0  0  0  0
 70 71  1  0  0  0  0
 70164  1  1  0  0  0
 71 72  1  0  0  0  0
 71 89  2  0  0  0  0
 72 73  1  0  0  0  0
 73 74  1  0  0  0  0
 73 90  1  0  0  0  0
 73165  1  1  0  0  0
 74 75  1  0  0  0  0
 74 61  1  0  0  0  0
 74166  1  1  0  0  0
 75 76  2  0  0  0  0
 75 42  1  0  0  0  0
 77 78  1  0  0  0  0
 77 82  1  0  0  0  0
 77 86  1  0  0  0  0
 78 79  1  0  0  0  0
 78 99  1  6  0  0  0
 79 80  1  0  0  0  0
 79 88  2  0  0  0  0
 80 70  1  0  0  0  0
 80167  1  0  0  0  0
 81 82  2  0  0  0  0
 82 91  1  0  0  0  0
 83 84  1  0  0  0  0
 83 86  1  0  0  0  0
 83168  1  0  0  0  0
 83169  1  0  0  0  0
 84 85  1  0  0  0  0
 84 87  2  0  0  0  0
 85 78  1  0  0  0  0
 85170  1  0  0  0  0
 85171  1  0  0  0  0
 86172  1  0  0  0  0
 86173  1  0  0  0  0
 90174  1  0  0  0  0
 90175  1  0  0  0  0
 90176  1  0  0  0  0
 91 92  1  0  0  0  0
 91177  1  1  0  0  0
 91 95  1  0  0  0  0
 92 93  1  0  0  0  0
 92 96  1  0  0  0  0
 93 94  2  0  0  0  0
 93 43  1  0  0  0  0
 95 50  1  0  0  0  0
 95178  1  0  0  0  0
 95179  1  0  0  0  0
 96180  1  0  0  0  0
 96181  1  0  0  0  0
 96182  1  0  0  0  0
 97 98  2  0  0  0  0
 97 44  1  0  0  0  0
M  END
>  <DRUGBANK_ID>
DB11476

>  <COMMON_NAME>
Virginiamycin

>  <CAS_NUMBER>
11006-76-1

>  <UNII>
C49WS9N75L

>  <SYNONYMS>
Virginiamicina; Virginiamycin; Virginiamycine; Virginiamycinum

$$$$
