
 OpenBabel10282417123D

 44 44  0  0  0  0  0  0  0  0999 V2000
    0.7619    2.0237    0.1559 C   0  0  2  0  0  0  0  0  0  0  0  0
    1.4984    0.3410    0.8472 C   0  0  1  0  0  0  0  0  0  0  0  0
    0.5264   -1.4185   -0.1227 C   0  0  1  0  0  0  0  0  0  0  0  0
   -1.7817    0.0449   -0.0984 C   0  0  1  0  0  0  0  0  0  0  0  0
   -1.0242   -1.3304    0.3158 C   0  0  2  0  0  0  0  0  0  0  0  0
   -1.0235    1.6500    0.6738 C   0  0  1  0  0  0  0  0  0  0  0  0
    3.0478    0.4188    0.5171 O   0  0  0  0  0  0  0  0  0  0  0  0
   -0.9561    1.4567    2.0830 O   0  0  0  0  0  0  0  0  0  0  0  0
    0.7121    1.2809   -1.6746 O   0  0  0  0  0  0  0  0  0  0  0  0
    0.7136   -1.2863   -1.6744 O   0  0  0  0  0  0  0  0  0  0  0  0
   -0.7519   -1.2196    1.6668 O   0  0  0  0  0  0  0  0  0  0  0  0
   -1.2549   -0.0001   -1.6316 O   0  0  0  0  0  0  0  0  0  0  0  0
    1.7603   -0.0506   -4.2450 O   0  0  0  0  0  0  0  0  0  0  0  0
    1.8519    2.7414   -3.5130 O   0  0  0  0  0  0  0  0  0  0  0  0
    2.0504    1.1633   -2.7646 P   0  0  0  0  0  0  0  0  0  0  0  0
    3.3887    1.0457   -3.8545 O   0  0  0  0  0  0  0  0  0  0  0  0
   -0.9836   -1.0382   -3.2275 O   0  0  0  0  0  0  0  0  0  0  0  0
   -0.0116    0.4065   -0.3097 O   0  0  0  0  0  0  0  0  0  0  0  0
   -0.0643    0.1284   -2.2959 P   0  0  0  0  0  0  0  0  0  0  0  0
   -0.8422    1.5432   -2.9173 O   0  0  0  0  0  0  0  0  0  0  0  0
    0.1137   -3.4299    1.5157 O   0  0  0  0  0  0  0  0  0  0  0  0
    2.0234   -1.5676    1.1054 O   0  0  0  0  0  0  0  0  0  0  0  0
    0.7394   -2.0849    1.8090 P   0  0  0  0  0  0  0  0  0  0  0  0
    2.2307   -2.9501    1.9511 O   0  0  0  0  0  0  0  0  0  0  0  0
    0.4320    1.0517   -3.8237 O   0  0  0  0  0  0  0  0  0  0  0  0
    1.9814    0.0241   -1.0810 O   0  0  0  0  0  0  0  0  0  0  0  0
    0.4166   -0.0007   -2.0777 P   0  0  0  0  0  0  0  0  0  0  0  0
    2.0881   -0.0013   -2.5238 O   0  0  0  0  0  0  0  0  0  0  0  0
    1.4374    2.8728    0.0768 H   0  0  0  0  0  0  0  0  0  0  0  0
    1.5572    0.4236    1.9315 H   0  0  0  0  0  0  0  0  0  0  0  0
    1.0644   -2.4400   -0.2521 H   0  0  0  0  0  0  0  0  0  0  0  0
   -2.8654   -0.0042    0.0148 H   0  0  0  0  0  0  0  0  0  0  0  0
   -1.5042   -2.2493   -0.0644 H   0  0  0  0  0  0  0  0  0  0  0  0
   -1.5835    2.4563    0.2156 H   0  0  0  0  0  0  0  0  0  0  0  0
    3.1284    0.0525   -0.4134 H   0  0  0  0  0  0  0  0  0  0  0  0
   -0.5671    0.5668    2.2111 H   0  0  0  0  0  0  0  0  0  0  0  0
    1.1424    2.6041   -4.1995 H   0  0  0  0  0  0  0  0  0  0  0  0
    3.5914    0.1069   -3.9784 H   0  0  0  0  0  0  0  0  0  0  0  0
    0.8331    0.8837   -0.6341 H   0  0  0  0  0  0  0  0  0  0  0  0
   -0.3826    2.2894   -3.3249 H   0  0  0  0  0  0  0  0  0  0  0  0
    1.6099   -1.0442    1.8050 H   0  0  0  0  0  0  0  0  0  0  0  0
    2.6181   -3.0995    1.0706 H   0  0  0  0  0  0  0  0  0  0  0  0
    1.3000   -0.2915   -0.6281 H   0  0  0  0  0  0  0  0  0  0  0  0
    2.5243   -0.9038   -2.3485 H   0  0  0  0  0  0  0  0  0  0  0  0
  1  2  1  0  0  0  0
  1  6  1  0  0  0  0
  1 29  1  1  0  0  0
  1  9  1  0  0  0  0
  2  3  1  0  0  0  0
  2  7  1  0  0  0  0
  2 30  1  1  0  0  0
  3  5  1  0  0  0  0
  3 10  1  0  0  0  0
  3 31  1  1  0  0  0
  4  6  1  0  0  0  0
  4 12  1  0  0  0  0
  4 32  1  1  0  0  0
  5  4  1  0  0  0  0
  5 33  1  6  0  0  0
  5 11  1  0  0  0  0
  6  8  1  0  0  0  0
  6 34  1  6  0  0  0
  7 35  1  0  0  0  0
  8 36  1  0  0  0  0
  9 15  1  0  0  0  0
 10 19  1  0  0  0  0
 11 23  1  0  0  0  0
 12 27  1  0  0  0  0
 14 37  1  0  0  0  0
 15 13  2  0  0  0  0
 15 14  1  0  0  0  0
 15 16  1  0  0  0  0
 16 38  1  0  0  0  0
 18 39  1  0  0  0  0
 19 17  2  0  0  0  0
 19 18  1  0  0  0  0
 19 20  1  0  0  0  0
 20 40  1  0  0  0  0
 22 41  1  0  0  0  0
 23 21  2  0  0  0  0
 23 22  1  0  0  0  0
 23 24  1  0  0  0  0
 24 42  1  0  0  0  0
 26 43  1  0  0  0  0
 27 25  2  0  0  0  0
 27 26  1  0  0  0  0
 27 28  1  0  0  0  0
 28 44  1  0  0  0  0
M  END
>  <DRUGBANK_ID>
DB01863

>  <SECONDARY_ACCESSION_NUMBERS>
EXPT01943; DB03265

>  <COMMON_NAME>
Inositol 1,3,4,5-Tetrakisphosphate

>  <UNII>
XK67P86535

$$$$
