
 OpenBabel10282417233D

 61 65  0  0  1  0  0  0  0  0999 V2000
    0.3965   -0.3275   -2.6528 C   0  0  0  0  0  0  0  0  0  0  0  0
   -0.6723    0.6115   -2.3138 N   0  0  0  0  0  0  0  0  0  0  0  0
   -0.2108    1.8031   -1.5101 C   0  0  1  0  0  0  0  0  0  0  0  0
    0.4762    2.8635   -2.3059 C   0  0  0  0  0  0  0  0  0  0  0  0
    0.7312    4.1077   -1.4229 C   0  0  0  0  0  0  0  0  0  0  0  0
   -0.5486    4.7668   -0.9127 C   0  0  2  0  0  0  0  0  0  0  0  0
   -1.5701    5.1425   -1.9970 C   0  0  0  0  0  0  0  0  0  0  0  0
   -2.2062    6.3784   -1.4384 C   0  0  0  0  0  0  0  0  0  0  0  0
   -1.0912    6.9651   -0.6034 C   0  0  0  0  0  0  0  0  0  0  0  0
   -0.3191    5.8935   -0.0775 O   0  0  0  0  0  0  0  0  0  0  0  0
   -1.1211    3.7946    0.0085 C   0  0  0  0  0  0  0  0  0  0  0  0
   -1.2607    2.5519   -0.8072 C   0  0  2  0  0  0  0  0  0  0  0  0
   -1.4981    1.7087    0.2301 N   0  0  0  0  0  0  0  0  0  0  0  0
   -3.2769    1.9256    0.6503 C   0  0  0  0  0  0  0  0  0  0  0  0
   -3.9970    0.6838    2.1566 C   0  0  0  0  0  0  0  0  0  0  0  0
   -2.3303   -0.3783    2.4663 C   0  0  0  0  0  0  0  0  0  0  0  0
   -0.7746    0.4611    1.3838 C   0  0  0  0  0  0  0  0  0  0  0  0
   -1.9772    0.2389   -2.7206 C   0  0  0  0  0  0  0  0  0  0  0  0
   -2.1621   -0.7995   -3.3726 O   0  0  0  0  0  0  0  0  0  0  0  0
   -3.2254    1.0683   -2.3934 C   0  0  0  0  0  0  0  0  0  0  0  0
   -3.7676    0.9868   -0.9372 C   0  0  0  0  0  0  0  0  0  0  0  0
   -2.7202    0.2448    0.4338 C   0  0  0  0  0  0  0  0  0  0  0  0
   -2.2925    1.5006    2.0435 C   0  0  0  0  0  0  0  0  0  0  0  0
   -3.2300    2.8797    2.4070 C   0  0  0  0  0  0  0  0  0  0  0  0
   -4.6367    3.1142    1.3148 C   0  0  0  0  0  0  0  0  0  0  0  0
   -4.7994    2.4295   -0.3705 C   0  0  0  0  0  0  0  0  0  0  0  0
   -6.0570    2.8402   -0.6541 C   0  0  0  0  0  0  0  0  0  0  0  0
   -6.5801    3.2751    0.5573 C   0  0  0  0  0  0  0  0  0  0  0  0
   -5.8923    3.1991    1.7167 O   0  0  0  0  0  0  0  0  0  0  0  0
    1.3630    0.0028   -2.2526 H   0  0  0  0  0  0  0  0  0  0  0  0
    0.4672   -0.3885   -3.7404 H   0  0  0  0  0  0  0  0  0  0  0  0
    0.1827   -1.3249   -2.2509 H   0  0  0  0  0  0  0  0  0  0  0  0
    0.4650    1.4159   -0.7313 H   0  0  0  0  0  0  0  0  0  0  0  0
    1.4066    2.4450   -2.6746 H   0  0  0  0  0  0  0  0  0  0  0  0
   -0.1834    3.1118   -3.1415 H   0  0  0  0  0  0  0  0  0  0  0  0
    1.3374    3.8111   -0.5489 H   0  0  0  0  0  0  0  0  0  0  0  0
    1.2738    4.8523   -1.9849 H   0  0  0  0  0  0  0  0  0  0  0  0
   -1.0430    5.2988   -2.9370 H   0  0  0  0  0  0  0  0  0  0  0  0
   -2.3661    4.4254   -2.2301 H   0  0  0  0  0  0  0  0  0  0  0  0
   -2.5671    7.0396   -2.2259 H   0  0  0  0  0  0  0  0  0  0  0  0
   -3.0647    6.1057   -0.8073 H   0  0  0  0  0  0  0  0  0  0  0  0
   -0.3880    7.5197   -1.2212 H   0  0  0  0  0  0  0  0  0  0  0  0
   -1.4625    7.5910    0.2080 H   0  0  0  0  0  0  0  0  0  0  0  0
   -0.5367    3.6047    0.9138 H   0  0  0  0  0  0  0  0  0  0  0  0
   -2.0480    4.2494    0.3987 H   0  0  0  0  0  0  0  0  0  0  0  0
   -2.0800    2.7627   -1.4883 H   0  0  0  0  0  0  0  0  0  0  0  0
   -3.1419    2.9606    0.3552 H   0  0  0  0  0  0  0  0  0  0  0  0
   -4.3612    1.0847    0.6365 H   0  0  0  0  0  0  0  0  0  0  0  0
   -4.3743    1.2999    3.0324 H   0  0  0  0  0  0  0  0  0  0  0  0
   -4.9805    0.2010    1.9620 H   0  0  0  0  0  0  0  0  0  0  0  0
   -2.2876   -0.1506    3.5666 H   0  0  0  0  0  0  0  0  0  0  0  0
   -2.7741   -1.2882    2.0810 H   0  0  0  0  0  0  0  0  0  0  0  0
   -0.1469   -0.2372    0.8540 H   0  0  0  0  0  0  0  0  0  0  0  0
   -0.1908    1.3536    1.8086 H   0  0  0  0  0  0  0  0  0  0  0  0
   -3.0880    2.0900   -2.8007 H   0  0  0  0  0  0  0  0  0  0  0  0
   -4.0942    0.7376   -2.9618 H   0  0  0  0  0  0  0  0  0  0  0  0
   -1.8775   -0.2924   -0.1429 H   0  0  0  0  0  0  0  0  0  0  0  0
   -1.5579    1.3997    2.8825 H   0  0  0  0  0  0  0  0  0  0  0  0
   -3.2278    2.7188    3.5090 H   0  0  0  0  0  0  0  0  0  0  0  0
   -6.4312    2.7488   -1.6515 H   0  0  0  0  0  0  0  0  0  0  0  0
   -7.4870    3.7635    0.7853 H   0  0  0  0  0  0  0  0  0  0  0  0
  1  2  1  0  0  0  0
  1 30  1  0  0  0  0
  1 31  1  0  0  0  0
  1 32  1  0  0  0  0
  2 18  1  0  0  0  0
  3  4  1  0  0  0  0
  3 12  1  0  0  0  0
  3 33  1  1  0  0  0
  3  2  1  0  0  0  0
  4  5  1  0  0  0  0
  4 34  1  0  0  0  0
  4 35  1  0  0  0  0
  5 36  1  0  0  0  0
  5 37  1  0  0  0  0
  6  5  1  0  0  0  0
  6  7  1  0  0  0  0
  6 10  1  1  0  0  0
  6 11  1  0  0  0  0
  7  8  1  0  0  0  0
  7 38  1  0  0  0  0
  7 39  1  0  0  0  0
  8  9  1  0  0  0  0
  8 40  1  0  0  0  0
  8 41  1  0  0  0  0
  9 10  1  0  0  0  0
  9 42  1  0  0  0  0
  9 43  1  0  0  0  0
 11 44  1  0  0  0  0
 11 45  1  0  0  0  0
 12 11  1  0  0  0  0
 12 46  1  6  0  0  0
 12 13  1  0  0  0  0
 13 14  1  0  0  0  0
 13 17  1  0  0  0  0
 14 15  1  0  0  0  0
 14 47  1  0  0  0  0
 14 48  1  0  0  0  0
 15 16  1  0  0  0  0
 15 49  1  0  0  0  0
 15 50  1  0  0  0  0
 16 17  1  0  0  0  0
 16 51  1  0  0  0  0
 16 52  1  0  0  0  0
 17 53  1  0  0  0  0
 17 54  1  0  0  0  0
 18 19  2  0  0  0  0
 18 20  1  0  0  0  0
 20 21  1  0  0  0  0
 20 55  1  0  0  0  0
 20 56  1  0  0  0  0
 21 22  2  0  0  0  0
 21 26  1  0  0  0  0
 22 23  1  0  0  0  0
 22 57  1  0  0  0  0
 23 24  2  0  0  0  0
 23 58  1  0  0  0  0
 24 25  1  0  0  0  0
 24 59  1  0  0  0  0
 25 26  2  0  0  0  0
 25 29  1  0  0  0  0
 26 27  1  0  0  0  0
 27 28  2  0  0  0  0
 27 60  1  0  0  0  0
 28 29  1  0  0  0  0
 28 61  1  0  0  0  0
M  END
>  <DRUGBANK_ID>
DB16967

>  <COMMON_NAME>
Enadoline

>  <CAS_NUMBER>
124378-77-4

>  <UNII>
KJL283326C

$$$$
