
 OpenBabel10282417143D

 24 23  0  0  0  0  0  0  0  0999 V2000
    0.9518   -0.0824   -0.0297 P   0  0  0  0  0  0  0  0  0  0  0  0
    0.8142   -0.2665    1.5963 O   0  0  0  0  0  0  0  0  0  0  0  0
   -0.1162   -2.4554   -0.0669 O   0  0  0  0  0  0  0  0  0  0  0  0
   -0.3642   -3.9160    3.2539 O   0  0  0  0  0  0  0  0  0  0  0  0
   -1.4851   -5.4381    0.3824 O   0  0  0  0  0  0  0  0  0  0  0  0
    0.8608    1.5340   -0.1750 O   0  0  0  0  0  0  0  0  0  0  0  0
   -0.7782   -0.0824   -0.0297 O   0  0  0  0  0  0  0  0  0  0  0  0
    2.5002   -0.0824   -0.0297 O   0  0  0  0  0  0  0  0  0  0  0  0
   -3.0191   -2.9833    2.4549 O   0  0  0  0  0  0  0  0  0  0  0  0
   -2.7963   -4.0292    1.5456 N   0  0  0  0  0  0  0  0  0  0  0  0
   -0.2257   -2.4371    1.3660 C   0  0  1  0  0  0  0  0  0  0  0  0
   -0.3146   -3.8772    1.8316 C   0  0  2  0  0  0  0  0  0  0  0  0
    0.9465   -1.6434    1.9715 C   0  0  0  0  0  0  0  0  0  0  0  0
   -1.5704   -4.5135    1.2095 C   0  0  0  0  0  0  0  0  0  0  0  0
   -3.6195   -4.4733    1.1500 H   0  0  0  0  0  0  0  0  0  0  0  0
   -0.7395   -1.7824   -0.4286 H   0  0  0  0  0  0  0  0  0  0  0  0
    0.5449   -3.7752    3.5784 H   0  0  0  0  0  0  0  0  0  0  0  0
    1.7207    1.7964   -0.5659 H   0  0  0  0  0  0  0  0  0  0  0  0
   -1.1511   -0.0879    0.8707 H   0  0  0  0  0  0  0  0  0  0  0  0
   -2.2626   -3.0280    3.0731 H   0  0  0  0  0  0  0  0  0  0  0  0
   -1.1327   -1.8987    1.6513 H   0  0  0  0  0  0  0  0  0  0  0  0
    0.5561   -4.4375    1.4668 H   0  0  0  0  0  0  0  0  0  0  0  0
    1.9045   -2.0227    1.6008 H   0  0  0  0  0  0  0  0  0  0  0  0
    0.9568   -1.6711    3.0635 H   0  0  0  0  0  0  0  0  0  0  0  0
  1  2  1  0  0  0  0
  1  6  1  0  0  0  0
  1  7  1  0  0  0  0
  1  8  2  0  0  0  0
  2 13  1  0  0  0  0
  3 16  1  0  0  0  0
  4 17  1  0  0  0  0
  5 14  2  0  0  0  0
  6 18  1  0  0  0  0
  7 19  1  0  0  0  0
  9 10  1  0  0  0  0
  9 20  1  0  0  0  0
 10 14  1  0  0  0  0
 10 15  1  0  0  0  0
 11  3  1  0  0  0  0
 11 12  1  0  0  0  0
 11 13  1  0  0  0  0
 11 21  1  1  0  0  0
 12  4  1  0  0  0  0
 12 14  1  0  0  0  0
 12 22  1  6  0  0  0
 13 23  1  0  0  0  0
 13 24  1  0  0  0  0
M  END
>  <DRUGBANK_ID>
DB04496

>  <SECONDARY_ACCESSION_NUMBERS>
EXPT02772

>  <COMMON_NAME>
4-Phospho-D-erythronohydroxamic acid

>  <CAS_NUMBER>
718599-64-5

$$$$
