
 OpenBabel10282417153D

 49 53  0  0  1  0  0  0  0  0999 V2000
    1.5531   -2.0311   -0.0151 O   0  0  0  0  0  0  0  0  0  0  0  0
    3.6912   -1.9922    0.9809 O   0  0  0  0  0  0  0  0  0  0  0  0
    2.8007   -4.9214   -3.1975 O   0  0  0  0  0  0  0  0  0  0  0  0
    1.8792    0.3581    0.1579 O   0  0  0  0  0  0  0  0  0  0  0  0
    0.3114    1.7792  -10.6993 O   0  0  0  0  0  0  0  0  0  0  0  0
    2.4665   -2.8504   -4.1585 N   0  0  0  0  0  0  0  0  0  0  0  0
    1.6445    0.3733   -5.5205 N   0  0  0  0  0  0  0  0  0  0  0  0
    2.3827   -1.4761   -4.0116 C   0  0  0  0  0  0  0  0  0  0  0  0
    3.2455   -1.7345   -1.7481 C   0  0  0  0  0  0  0  0  0  0  0  0
    3.6374   -1.1873   -0.3077 C   0  0  2  0  0  0  0  0  0  0  0  0
    2.1909   -3.2601   -5.5356 C   0  0  0  0  0  0  0  0  0  0  0  0
    1.8433   -1.9573   -6.1956 C   0  0  0  0  0  0  0  0  0  0  0  0
    1.9049   -0.9172   -5.2732 C   0  0  0  0  0  0  0  0  0  0  0  0
    2.8318   -3.0083   -1.8100 C   0  0  0  0  0  0  0  0  0  0  0  0
    2.7297   -0.8867   -2.8575 C   0  0  0  0  0  0  0  0  0  0  0  0
    2.6897   -3.7058   -3.1062 C   0  0  0  0  0  0  0  0  0  0  0  0
    1.5221   -1.6699   -7.5102 C   0  0  0  0  0  0  0  0  0  0  0  0
    5.0295   -0.7068   -0.2356 C   0  0  0  0  0  0  0  0  0  0  0  0
    2.3123   -3.4376   -0.5051 C   0  0  0  0  0  0  0  0  0  0  0  0
    2.2686   -0.7978   -0.0147 C   0  0  0  0  0  0  0  0  0  0  0  0
    1.2816   -0.3098   -7.8323 C   0  0  0  0  0  0  0  0  0  0  0  0
    1.4289   -2.7702   -8.5366 C   0  0  0  0  0  0  0  0  0  0  0  0
    1.3238    0.6684   -6.7959 C   0  0  0  0  0  0  0  0  0  0  0  0
    5.3538    0.2226   -1.3545 C   0  0  0  0  0  0  0  0  0  0  0  0
    0.9987    0.1025   -9.1503 C   0  0  0  0  0  0  0  0  0  0  0  0
    0.0105   -2.9308   -9.0775 C   0  0  0  0  0  0  0  0  0  0  0  0
    1.0314    1.9861   -7.1329 C   0  0  0  0  0  0  0  0  0  0  0  0
    0.6656    1.4124   -9.4373 C   0  0  0  0  0  0  0  0  0  0  0  0
    0.6872    2.3629   -8.4376 C   0  0  0  0  0  0  0  0  0  0  0  0
    3.3981   -1.4021    1.7177 H   0  0  0  0  0  0  0  0  0  0  0  0
    0.2828    0.9864  -11.2627 H   0  0  0  0  0  0  0  0  0  0  0  0
    3.0942   -3.7102   -5.9617 H   0  0  0  0  0  0  0  0  0  0  0  0
    1.3613   -3.9735   -5.5534 H   0  0  0  0  0  0  0  0  0  0  0  0
    2.5198    0.1722   -2.7059 H   0  0  0  0  0  0  0  0  0  0  0  0
    5.2624   -0.2848    0.7491 H   0  0  0  0  0  0  0  0  0  0  0  0
    5.6434   -1.6230   -0.3187 H   0  0  0  0  0  0  0  0  0  0  0  0
    3.4340   -3.5861   -0.3632 H   0  0  0  0  0  0  0  0  0  0  0  0
    2.4538   -3.8498    0.5013 H   0  0  0  0  0  0  0  0  0  0  0  0
    2.1456   -2.5653   -9.3416 H   0  0  0  0  0  0  0  0  0  0  0  0
    1.7376   -3.7285   -8.1049 H   0  0  0  0  0  0  0  0  0  0  0  0
    4.7447    1.1234   -1.2642 H   0  0  0  0  0  0  0  0  0  0  0  0
    6.4141    0.4475   -1.3213 H   0  0  0  0  0  0  0  0  0  0  0  0
    5.1569   -0.2395   -2.3250 H   0  0  0  0  0  0  0  0  0  0  0  0
    1.0337   -0.6064   -9.9689 H   0  0  0  0  0  0  0  0  0  0  0  0
   -0.3801   -2.0322   -9.5616 H   0  0  0  0  0  0  0  0  0  0  0  0
   -0.0183   -3.7252   -9.8262 H   0  0  0  0  0  0  0  0  0  0  0  0
   -0.6871   -3.1667   -8.2689 H   0  0  0  0  0  0  0  0  0  0  0  0
    1.0665    2.7471   -6.3569 H   0  0  0  0  0  0  0  0  0  0  0  0
    0.4491    3.3959   -8.6693 H   0  0  0  0  0  0  0  0  0  0  0  0
  1 19  1  0  0  0  0
  1 20  1  0  0  0  0
  2 30  1  0  0  0  0
  3 16  2  0  0  0  0
  4 20  2  0  0  0  0
  5 28  1  0  0  0  0
  5 31  1  0  0  0  0
  6  8  1  0  0  0  0
  6 11  1  0  0  0  0
  6 16  1  0  0  0  0
  7 13  1  0  0  0  0
  7 23  2  0  0  0  0
  8 13  1  0  0  0  0
  8 15  2  0  0  0  0
  9 10  1  0  0  0  0
  9 14  2  0  0  0  0
  9 15  1  0  0  0  0
 10  2  1  1  0  0  0
 10 18  1  0  0  0  0
 10 20  1  0  0  0  0
 11 12  1  0  0  0  0
 11 32  1  0  0  0  0
 11 33  1  0  0  0  0
 12 13  2  0  0  0  0
 12 17  1  0  0  0  0
 14 16  1  0  0  0  0
 14 19  1  0  0  0  0
 15 34  1  0  0  0  0
 17 21  2  0  0  0  0
 17 22  1  0  0  0  0
 18 24  1  0  0  0  0
 18 35  1  0  0  0  0
 18 36  1  0  0  0  0
 19 37  1  0  0  0  0
 19 38  1  0  0  0  0
 21 23  1  0  0  0  0
 21 25  1  0  0  0  0
 22 26  1  0  0  0  0
 22 39  1  0  0  0  0
 22 40  1  0  0  0  0
 23 27  1  0  0  0  0
 24 41  1  0  0  0  0
 24 42  1  0  0  0  0
 24 43  1  0  0  0  0
 25 28  2  0  0  0  0
 25 44  1  0  0  0  0
 26 45  1  0  0  0  0
 26 46  1  0  0  0  0
 26 47  1  0  0  0  0
 27 29  2  0  0  0  0
 27 48  1  0  0  0  0
 28 29  1  0  0  0  0
 29 49  1  0  0  0  0
M  END
>  <DRUGBANK_ID>
DB05482

>  <SECONDARY_ACCESSION_NUMBERS>
DB12552

>  <COMMON_NAME>
SN-38

>  <CAS_NUMBER>
86639-52-3

>  <UNII>
0H43101T0J

>  <SYNONYMS>
1H-PYRANO(3',4':6,7)INDOLIZINO(1,2-B)QUINOLINE-3,14(4H,12H)-DIONE, 4,11-DIETHYL-4,9-DIHYDROXY-, (4S)-; IRINOTECAN RELATED COMPOUND B

$$$$
