
 OpenBabel10282417143D

  6  5  0  0  0  0  0  0  0  0999 V2000
    0.9041    0.0118    0.0611 C   0  0  0  0  0  0  0  0  0  0  0  0
    0.4289   -1.0378    0.9009 N   0  3  0  0  0  0  0  0  0  0  0  0
    0.0385   -1.9000    1.5908 C   0  5  0  0  0  0  0  0  0  0  0  0
    0.5446    0.9761    0.4286 H   0  0  0  0  0  0  0  0  0  0  0  0
    0.5446   -0.1351   -0.9603 H   0  0  0  0  0  0  0  0  0  0  0  0
    1.9968    0.0196    0.0549 H   0  0  0  0  0  0  0  0  0  0  0  0
  1  4  1  0  0  0  0
  1  5  1  0  0  0  0
  1  6  1  0  0  0  0
  2  1  1  0  0  0  0
  2  3  3  0  0  0  0
M  CHG  2   2   1   3  -1
M  END
>  <DRUGBANK_ID>
DB04337

>  <SECONDARY_ACCESSION_NUMBERS>
EXPT02202

>  <COMMON_NAME>
Isocyanomethane

>  <CAS_NUMBER>
593-75-9

>  <UNII>
B5B6DXM7GG

>  <SYNONYMS>
Methyl isocyanide; Methyl isonitrile; Methylisonitrile

$$$$
