
 OpenBabel10282417103D

 32 32  0  0  1  0  0  0  0  0999 V2000
   -2.3983   -1.0975   -0.1130 O   0  0  0  0  0  0  0  0  0  0  0  0
    2.4265   -1.0939   -0.0592 O   0  0  0  0  0  0  0  0  0  0  0  0
    0.0047    2.6627   -0.0096 O   0  0  0  0  0  0  0  0  0  0  0  0
   -1.1417    0.7236    0.0312 N   0  0  0  0  0  0  0  0  0  0  0  0
    1.1611    0.7275    0.0138 N   0  0  0  0  0  0  0  0  0  0  0  0
    0.0146   -1.4687   -0.1155 C   0  0  0  0  0  0  0  0  0  0  0  0
   -0.0067   -2.5369    1.0505 C   0  0  3  0  0  0  0  0  0  0  0  0
    0.0505   -2.0916   -1.5281 C   0  0  0  0  0  0  0  0  0  0  0  0
   -1.2526   -3.4716    1.0933 C   0  0  0  0  0  0  0  0  0  0  0  0
   -1.2630   -0.6293   -0.0373 C   0  0  0  0  0  0  0  0  0  0  0  0
    1.2889   -0.6265   -0.0194 C   0  0  0  0  0  0  0  0  0  0  0  0
    1.2496   -3.4299    1.1134 C   0  0  0  0  0  0  0  0  0  0  0  0
    0.0086    1.4317    0.0089 C   0  0  0  0  0  0  0  0  0  0  0  0
   -1.4143   -4.4184   -0.0895 C   0  0  0  0  0  0  0  0  0  0  0  0
    0.1669   -1.1293   -2.6670 C   0  0  0  0  0  0  0  0  0  0  0  0
    1.1635   -1.2005   -3.5504 C   0  0  0  0  0  0  0  0  0  0  0  0
   -2.0059    1.2467    0.0173 H   0  0  0  0  0  0  0  0  0  0  0  0
    2.0245    1.2504   -0.0129 H   0  0  0  0  0  0  0  0  0  0  0  0
   -0.0210   -1.9666    1.9943 H   0  0  0  0  0  0  0  0  0  0  0  0
    0.8288   -2.8622   -1.5879 H   0  0  0  0  0  0  0  0  0  0  0  0
   -0.8926   -2.5601   -1.7765 H   0  0  0  0  0  0  0  0  0  0  0  0
   -1.1965   -4.0829    2.0026 H   0  0  0  0  0  0  0  0  0  0  0  0
   -2.1707   -2.8929    1.2213 H   0  0  0  0  0  0  0  0  0  0  0  0
    2.1667   -2.8633    1.2773 H   0  0  0  0  0  0  0  0  0  0  0  0
    1.1864   -4.1314    1.9515 H   0  0  0  0  0  0  0  0  0  0  0  0
    1.3788   -4.0114    0.1978 H   0  0  0  0  0  0  0  0  0  0  0  0
   -0.5038   -4.9907   -0.2824 H   0  0  0  0  0  0  0  0  0  0  0  0
   -2.2407   -5.1113    0.0666 H   0  0  0  0  0  0  0  0  0  0  0  0
   -1.6979   -3.9049   -0.9994 H   0  0  0  0  0  0  0  0  0  0  0  0
   -0.6506   -0.4254   -2.8085 H   0  0  0  0  0  0  0  0  0  0  0  0
    1.1885   -0.5366   -4.4041 H   0  0  0  0  0  0  0  0  0  0  0  0
    1.9479   -1.9450   -3.4433 H   0  0  0  0  0  0  0  0  0  0  0  0
  1 10  2  0  0  0  0
  2 11  2  0  0  0  0
  3 13  2  0  0  0  0
  4 10  1  0  0  0  0
  4 13  1  0  0  0  0
  4 17  1  0  0  0  0
  5 11  1  0  0  0  0
  5 13  1  0  0  0  0
  5 18  1  0  0  0  0
  6  7  1  0  0  0  0
  6  8  1  0  0  0  0
  6 10  1  0  0  0  0
  6 11  1  0  0  0  0
  7  9  1  0  0  0  0
  7 12  1  0  0  0  0
  7 19  1  0  0  0  0
  8 15  1  0  0  0  0
  8 20  1  0  0  0  0
  8 21  1  0  0  0  0
  9 14  1  0  0  0  0
  9 22  1  0  0  0  0
  9 23  1  0  0  0  0
 12 24  1  0  0  0  0
 12 25  1  0  0  0  0
 12 26  1  0  0  0  0
 14 27  1  0  0  0  0
 14 28  1  0  0  0  0
 14 29  1  0  0  0  0
 15 16  2  0  0  0  0
 15 30  1  0  0  0  0
 16 31  1  0  0  0  0
 16 32  1  0  0  0  0
M  END
>  <DRUGBANK_ID>
DB00306

>  <SECONDARY_ACCESSION_NUMBERS>
APRD01333

>  <COMMON_NAME>
Talbutal

>  <CAS_NUMBER>
115-44-6

>  <UNII>
4YIR8202AX

>  <SYNONYMS>
(RS)-5-allyl-5-sec-butylpyrimidine-2,4,6(1H,3H,5H)-trione; 5-allyl-5-sec-butylbarbituric acid; sec-Butyl allyl barbituric acid; Talbutal; Talbutale; Talbutalum

$$$$
