
 OpenBabel10282417233D

 27 27  0  0  0  0  0  0  0  0999 V2000
    0.9639    0.0599   -0.0423 C   0  0  0  0  0  0  0  0  0  0  0  0
    0.5855   -1.3201    0.4514 C   0  0  0  0  0  0  0  0  0  0  0  0
   -0.2527   -3.9032    1.0921 C   0  0  0  0  0  0  0  0  0  0  0  0
   -0.5509   -1.5178    1.2503 C   0  0  0  0  0  0  0  0  0  0  0  0
    1.3090   -2.4360    0.0091 C   0  0  0  0  0  0  0  0  0  0  0  0
    0.8818   -3.7230    0.3145 C   0  0  0  0  0  0  0  0  0  0  0  0
   -0.9740   -2.8117    1.5685 C   0  0  0  0  0  0  0  0  0  0  0  0
   -0.6220   -5.1882    1.3574 O   0  0  0  0  0  0  0  0  0  0  0  0
    0.4528    0.3969   -1.4704 C   0  0  3  0  0  0  0  0  0  0  0  0
    0.9706   -0.5908   -2.5258 C   0  0  0  0  0  0  0  0  0  0  0  0
   -1.0984    0.4468   -1.5159 C   0  0  0  0  0  0  0  0  0  0  0  0
    0.9902    1.7423   -1.8284 N   0  0  0  0  0  0  0  0  0  0  0  0
   -1.7980    1.4271   -1.7468 O   0  0  0  0  0  0  0  0  0  0  0  0
   -1.6919   -0.7424   -1.2937 O   0  0  0  0  0  0  0  0  0  0  0  0
    0.6127    0.8121    0.6779 H   0  0  0  0  0  0  0  0  0  0  0  0
    2.0621    0.1264   -0.0195 H   0  0  0  0  0  0  0  0  0  0  0  0
   -1.1470   -0.6658    1.5728 H   0  0  0  0  0  0  0  0  0  0  0  0
    2.1782   -2.3113   -0.6321 H   0  0  0  0  0  0  0  0  0  0  0  0
    1.4243   -4.5804   -0.0702 H   0  0  0  0  0  0  0  0  0  0  0  0
   -1.8724   -2.9430    2.1625 H   0  0  0  0  0  0  0  0  0  0  0  0
   -1.4119   -5.1777    1.9199 H   0  0  0  0  0  0  0  0  0  0  0  0
    0.5960   -1.6045   -2.3538 H   0  0  0  0  0  0  0  0  0  0  0  0
    0.6398   -0.3219   -3.5337 H   0  0  0  0  0  0  0  0  0  0  0  0
    2.0668   -0.6333   -2.5225 H   0  0  0  0  0  0  0  0  0  0  0  0
    2.0054    1.7100   -1.8956 H   0  0  0  0  0  0  0  0  0  0  0  0
    0.6414    1.9984   -2.7538 H   0  0  0  0  0  0  0  0  0  0  0  0
   -2.6512   -0.5610   -1.2351 H   0  0  0  0  0  0  0  0  0  0  0  0
  1  9  1  0  0  0  0
  1 15  1  0  0  0  0
  1 16  1  0  0  0  0
  2  1  1  0  0  0  0
  3  6  1  0  0  0  0
  4  2  2  0  0  0  0
  4 17  1  0  0  0  0
  5  2  1  0  0  0  0
  5 18  1  0  0  0  0
  6  5  2  0  0  0  0
  6 19  1  0  0  0  0
  7  4  1  0  0  0  0
  7  3  2  0  0  0  0
  7 20  1  0  0  0  0
  8  3  1  0  0  0  0
  8 21  1  0  0  0  0
  9 10  1  0  0  0  0
  9 11  1  0  0  0  0
  9 12  1  0  0  0  0
 10 22  1  0  0  0  0
 10 23  1  0  0  0  0
 10 24  1  0  0  0  0
 11 13  2  0  0  0  0
 11 14  1  0  0  0  0
 12 25  1  0  0  0  0
 12 26  1  0  0  0  0
 14 27  1  0  0  0  0
M  END
>  <DRUGBANK_ID>
DB16306

>  <COMMON_NAME>
Racemetyrosine

>  <CAS_NUMBER>
658-48-0

>  <UNII>
X88TTO174Z

>  <SYNONYMS>
AMPT; D,L-metyrosine; DL-metyrosine; Racemetirosina; Racemetirosine; Racemetirosinum; Racemetyrosine; Sm-88 component racemetyrosine

$$$$
