
 OpenBabel10282417143D

 26 25  0  0  1  0  0  0  0  0999 V2000
   -1.2915   -1.6490    1.3406 N   0  0  0  0  0  0  0  0  0  0  0  0
    0.1271   -1.6578    1.0255 C   0  0  0  0  0  0  0  0  0  0  0  0
    0.6234   -2.6551   -0.0245 C   0  0  0  0  0  0  0  0  0  0  0  0
    0.3147   -2.4808   -1.5137 C   0  0  0  0  0  0  0  0  0  0  0  0
    0.8609   -0.9452   -2.3723 S   0  0  0  0  0  0  0  0  0  0  0  0
   -0.0014    0.4559   -1.5424 C   0  0  0  0  0  0  0  0  0  0  0  0
   -1.5495    0.5090   -1.4457 C   0  0  2  0  0  0  0  0  0  0  0  0
   -1.9554    1.0648   -0.1287 N   0  0  0  0  0  0  0  0  0  0  0  0
   -2.2772   -0.8096   -1.7320 C   0  0  0  0  0  0  0  0  0  0  0  0
   -3.6889   -0.6773   -1.5795 O   0  0  0  0  0  0  0  0  0  0  0  0
   -1.7525   -0.8845    0.8535 H   0  0  0  0  0  0  0  0  0  0  0  0
   -1.7514   -2.5323    1.1160 H   0  0  0  0  0  0  0  0  0  0  0  0
    0.4490   -0.6483    0.7881 H   0  0  0  0  0  0  0  0  0  0  0  0
    0.6433   -1.8786    1.9625 H   0  0  0  0  0  0  0  0  0  0  0  0
    1.7155   -2.6915    0.0630 H   0  0  0  0  0  0  0  0  0  0  0  0
    0.2734   -3.6544    0.2704 H   0  0  0  0  0  0  0  0  0  0  0  0
    0.8715   -3.2730   -2.0356 H   0  0  0  0  0  0  0  0  0  0  0  0
   -0.7100   -2.7586   -1.7651 H   0  0  0  0  0  0  0  0  0  0  0  0
    0.4813    0.6393   -0.5792 H   0  0  0  0  0  0  0  0  0  0  0  0
    0.3098    1.3496   -2.1021 H   0  0  0  0  0  0  0  0  0  0  0  0
   -1.9104    1.2234   -2.1955 H   0  0  0  0  0  0  0  0  0  0  0  0
   -2.9405    0.8855    0.0513 H   0  0  0  0  0  0  0  0  0  0  0  0
   -1.9017    2.0867   -0.1813 H   0  0  0  0  0  0  0  0  0  0  0  0
   -2.0683   -1.1579   -2.7458 H   0  0  0  0  0  0  0  0  0  0  0  0
   -1.9914   -1.5852   -1.0318 H   0  0  0  0  0  0  0  0  0  0  0  0
   -3.8632   -0.6967   -0.6318 H   0  0  0  0  0  0  0  0  0  0  0  0
  1  2  1  0  0  0  0
  1 11  1  0  0  0  0
  1 12  1  0  0  0  0
  2  3  1  0  0  0  0
  2 13  1  0  0  0  0
  2 14  1  0  0  0  0
  3  4  1  0  0  0  0
  3 15  1  0  0  0  0
  3 16  1  0  0  0  0
  4  5  1  0  0  0  0
  4 17  1  0  0  0  0
  4 18  1  0  0  0  0
  5  6  1  0  0  0  0
  6 19  1  0  0  0  0
  6 20  1  0  0  0  0
  7  9  1  0  0  0  0
  7 21  1  6  0  0  0
  7  8  1  0  0  0  0
  7  6  1  0  0  0  0
  8 22  1  0  0  0  0
  8 23  1  0  0  0  0
  9 10  1  0  0  0  0
  9 24  1  0  0  0  0
  9 25  1  0  0  0  0
 10 26  1  0  0  0  0
M  END
>  <DRUGBANK_ID>
DB04648

>  <COMMON_NAME>
S-propylamine-L-cysteine

$$$$
