798
 OpenBabel10282417163D

 47 50  0  0  0  0  0  0  0  0999 V2000
    3.8931   -0.4878   -0.8723 O   0  0  0  0  0  0  0  0  0  0  0  0
    3.6013   -0.2085   -2.0344 C   0  0  0  0  0  0  0  0  0  0  0  0
    3.5959   -1.2523   -3.0816 C   0  0  0  0  0  0  0  0  0  0  0  0
    3.0216   -2.4917   -2.7999 C   0  0  0  0  0  0  0  0  0  0  0  0
    2.8983   -3.4409   -3.8171 C   0  0  0  0  0  0  0  0  0  0  0  0
    3.3634   -3.1576   -5.1092 C   0  0  0  0  0  0  0  0  0  0  0  0
    3.3428   -4.1780   -6.1445 C   0  0  0  0  0  0  0  0  0  0  0  0
    2.1742   -4.7637   -6.5868 C   0  0  0  0  0  0  0  0  0  0  0  0
    2.4588   -5.9574   -7.7836 S   0  0  0  0  0  0  0  0  0  0  0  0
    4.1479   -5.6973   -7.7248 C   0  0  0  0  0  0  0  0  0  0  0  0
    4.4858   -4.7201   -6.8156 C   0  0  0  0  0  0  0  0  0  0  0  0
    3.9461   -1.9140   -5.3793 C   0  0  0  0  0  0  0  0  0  0  0  0
    4.1062   -0.9797   -4.3572 C   0  0  0  0  0  0  0  0  0  0  0  0
    3.2976    1.1856   -2.4245 C   0  0  0  0  0  0  0  0  0  0  0  0
    2.2449    1.5076   -3.2943 C   0  0  0  0  0  0  0  0  0  0  0  0
    2.0984    2.8228   -3.7494 C   0  0  0  0  0  0  0  0  0  0  0  0
    2.9667    3.8188   -3.2971 C   0  0  0  0  0  0  0  0  0  0  0  0
    4.0240    3.4708   -2.4498 C   0  0  0  0  0  0  0  0  0  0  0  0
    4.1652    2.1724   -1.9766 C   0  0  0  0  0  0  0  0  0  0  0  0
    2.6376    5.1041   -3.6468 O   0  0  0  0  0  0  0  0  0  0  0  0
    3.3129    6.1732   -2.9567 C   0  0  0  0  0  0  0  0  0  0  0  0
    3.1869    6.1925   -1.3937 C   0  0  2  0  0  0  0  0  0  0  0  0
    2.3104    5.1594   -0.8170 N   0  0  0  0  0  0  0  0  0  0  0  0
    0.9441    5.6690   -0.8741 C   0  0  0  0  0  0  0  0  0  0  0  0
    1.0675    7.1787   -1.0158 C   0  0  0  0  0  0  0  0  0  0  0  0
    2.5498    7.4573   -0.8468 C   0  0  0  0  0  0  0  0  0  0  0  0
    4.2006    6.1052   -0.9824 H   0  0  0  0  0  0  0  0  0  0  0  0
    2.6665   -2.7126   -1.7958 H   0  0  0  0  0  0  0  0  0  0  0  0
    2.4467   -4.4038   -3.5907 H   0  0  0  0  0  0  0  0  0  0  0  0
    1.1605   -4.5556   -6.2723 H   0  0  0  0  0  0  0  0  0  0  0  0
    4.8138   -6.2734   -8.3529 H   0  0  0  0  0  0  0  0  0  0  0  0
    5.5093   -4.4201   -6.6238 H   0  0  0  0  0  0  0  0  0  0  0  0
    4.2723   -1.6639   -6.3866 H   0  0  0  0  0  0  0  0  0  0  0  0
    4.6293   -0.0486   -4.5645 H   0  0  0  0  0  0  0  0  0  0  0  0
    1.5280    0.7528   -3.6072 H   0  0  0  0  0  0  0  0  0  0  0  0
    1.2928    3.0774   -4.4342 H   0  0  0  0  0  0  0  0  0  0  0  0
    4.7161    4.2093   -2.0677 H   0  0  0  0  0  0  0  0  0  0  0  0
    4.9497    1.9398   -1.2623 H   0  0  0  0  0  0  0  0  0  0  0  0
    4.3694    6.1547   -3.2549 H   0  0  0  0  0  0  0  0  0  0  0  0
    2.9137    7.1072   -3.3721 H   0  0  0  0  0  0  0  0  0  0  0  0
    2.5804    4.9409    0.1388 H   0  0  0  0  0  0  0  0  0  0  0  0
    0.4053    5.3835    0.0338 H   0  0  0  0  0  0  0  0  0  0  0  0
    0.4075    5.2393   -1.7275 H   0  0  0  0  0  0  0  0  0  0  0  0
    0.4619    7.7142   -0.2811 H   0  0  0  0  0  0  0  0  0  0  0  0
    0.7488    7.4845   -2.0190 H   0  0  0  0  0  0  0  0  0  0  0  0
    2.7897    7.5571    0.2210 H   0  0  0  0  0  0  0  0  0  0  0  0
    2.8770    8.3701   -1.3510 H   0  0  0  0  0  0  0  0  0  0  0  0
  1  2  2  0  0  0  0
  2  3  1  0  0  0  0
  3  4  1  0  0  0  0
  4  5  2  0  0  0  0
  4 28  1  0  0  0  0
  5 29  1  0  0  0  0
  6  5  1  0  0  0  0
  6  7  1  0  0  0  0
  7  8  2  0  0  0  0
  8  9  1  0  0  0  0
  8 30  1  0  0  0  0
 10  9  1  0  0  0  0
 10 31  1  0  0  0  0
 11  7  1  0  0  0  0
 11 10  2  0  0  0  0
 11 32  1  0  0  0  0
 12  6  2  0  0  0  0
 12 33  1  0  0  0  0
 13  3  2  0  0  0  0
 13 12  1  0  0  0  0
 13 34  1  0  0  0  0
 14  2  1  0  0  0  0
 14 19  1  0  0  0  0
 15 14  2  0  0  0  0
 15 35  1  0  0  0  0
 16 15  1  0  0  0  0
 16 17  2  0  0  0  0
 16 36  1  0  0  0  0
 17 18  1  0  0  0  0
 18 19  2  0  0  0  0
 18 37  1  0  0  0  0
 19 38  1  0  0  0  0
 20 17  1  0  0  0  0
 21 20  1  0  0  0  0
 21 39  1  0  0  0  0
 21 40  1  0  0  0  0
 22 23  1  0  0  0  0
 22 26  1  0  0  0  0
 22 27  1  1  0  0  0
 22 21  1  0  0  0  0
 23 24  1  0  0  0  0
 23 41  1  0  0  0  0
 24 25  1  0  0  0  0
 24 42  1  0  0  0  0
 24 43  1  0  0  0  0
 25 44  1  0  0  0  0
 25 45  1  0  0  0  0
 26 25  1  0  0  0  0
 26 46  1  0  0  0  0
 26 47  1  0  0  0  0
M  END
>  <DRUGBANK_ID>
DB07237

>  <COMMON_NAME>
{4-[(2R)-pyrrolidin-2-ylmethoxy]phenyl}(4-thiophen-3-ylphenyl)methanone

$$$$
