
 OpenBabel10282417153D

 43 44  0  0  0  0  0  0  0  0999 V2000
    0.9555   -0.0134   -0.1615 C   0  0  0  0  0  0  0  0  0  0  0  0
    0.2907    0.2234   -1.1690 O   0  0  0  0  0  0  0  0  0  0  0  0
    0.2769   -0.2995    1.1954 C   0  0  1  0  0  0  0  0  0  0  0  0
    2.3277    0.0567   -0.1713 N   0  0  0  0  0  0  0  0  0  0  0  0
    0.6773   -1.6164    1.7217 N   0  0  0  0  0  0  0  0  0  0  0  0
    0.5432    0.8054    2.2263 C   0  0  0  0  0  0  0  0  0  0  0  0
    0.1274    2.1937    1.7311 C   0  0  0  0  0  0  0  0  0  0  0  0
   -1.3637    2.3335    1.5077 C   0  0  0  0  0  0  0  0  0  0  0  0
   -2.1052    3.0777    2.1038 O   0  0  0  0  0  0  0  0  0  0  0  0
   -1.8254    1.5248    0.5346 O   0  0  0  0  0  0  0  0  0  0  0  0
    5.3393    1.0133   -0.3268 C   0  0  0  0  0  0  0  0  0  0  0  0
    7.3046    1.1673    0.7403 N   0  0  0  0  0  0  0  0  0  0  0  0
    6.2389    1.8874    0.2622 C   0  0  0  0  0  0  0  0  0  0  0  0
    5.9198   -0.3095   -0.1685 C   0  0  0  0  0  0  0  0  0  0  0  0
    3.5574   -0.7314   -2.2603 C   0  0  0  0  0  0  0  0  0  0  0  0
    4.1012    1.4822   -1.0777 C   0  0  0  0  0  0  0  0  0  0  0  0
    7.1850   -0.1593    0.3932 C   0  0  0  0  0  0  0  0  0  0  0  0
    3.0370    0.4343   -1.4067 C   0  0  2  0  0  0  0  0  0  0  0  0
    3.0973   -1.8665   -2.2747 O   0  0  0  0  0  0  0  0  0  0  0  0
    4.7074   -0.4235   -2.9193 O   0  0  0  0  0  0  0  0  0  0  0  0
    5.5615   -1.6410   -0.4816 C   0  0  0  0  0  0  0  0  0  0  0  0
    8.0640   -1.2549    0.5429 C   0  0  0  0  0  0  0  0  0  0  0  0
    6.4697   -2.6835   -0.5566 C   0  0  0  0  0  0  0  0  0  0  0  0
    7.7116   -2.4997   -0.0071 C   0  0  0  0  0  0  0  0  0  0  0  0
   -0.7948   -0.3889    1.0085 H   0  0  0  0  0  0  0  0  0  0  0  0
    2.8426   -0.2457    0.6521 H   0  0  0  0  0  0  0  0  0  0  0  0
    0.0948   -1.8099    2.5400 H   0  0  0  0  0  0  0  0  0  0  0  0
    0.3741   -2.3100    1.0308 H   0  0  0  0  0  0  0  0  0  0  0  0
    0.0073    0.5815    3.1592 H   0  0  0  0  0  0  0  0  0  0  0  0
    1.6113    0.8302    2.4833 H   0  0  0  0  0  0  0  0  0  0  0  0
    0.4125    2.9355    2.4865 H   0  0  0  0  0  0  0  0  0  0  0  0
    0.6580    2.4716    0.8146 H   0  0  0  0  0  0  0  0  0  0  0  0
   -2.7950    1.6414    0.4851 H   0  0  0  0  0  0  0  0  0  0  0  0
    8.0961    1.5670    1.2237 H   0  0  0  0  0  0  0  0  0  0  0  0
    6.2161    2.9681    0.3572 H   0  0  0  0  0  0  0  0  0  0  0  0
    4.4154    1.9657   -2.0157 H   0  0  0  0  0  0  0  0  0  0  0  0
    3.6227    2.2843   -0.4938 H   0  0  0  0  0  0  0  0  0  0  0  0
    2.3115    0.8973   -2.0830 H   0  0  0  0  0  0  0  0  0  0  0  0
    5.3286   -1.1848   -2.8601 H   0  0  0  0  0  0  0  0  0  0  0  0
    4.5671   -1.9463   -0.7397 H   0  0  0  0  0  0  0  0  0  0  0  0
    9.0204   -1.1477    1.0381 H   0  0  0  0  0  0  0  0  0  0  0  0
    6.1529   -3.6202   -1.0122 H   0  0  0  0  0  0  0  0  0  0  0  0
    8.3837   -3.3522    0.0265 H   0  0  0  0  0  0  0  0  0  0  0  0
  2  1  2  0  0  0  0
  3  1  1  0  0  0  0
  3  5  1  0  0  0  0
  3 25  1  6  0  0  0
  4  1  1  0  0  0  0
  4 26  1  0  0  0  0
  5 27  1  0  0  0  0
  5 28  1  0  0  0  0
  6  3  1  0  0  0  0
  6 29  1  0  0  0  0
  6 30  1  0  0  0  0
  7  6  1  0  0  0  0
  7 31  1  0  0  0  0
  7 32  1  0  0  0  0
  8  7  1  0  0  0  0
  8  9  2  0  0  0  0
  8 10  1  0  0  0  0
 10 33  1  0  0  0  0
 12 34  1  0  0  0  0
 13 11  2  0  0  0  0
 13 12  1  0  0  0  0
 13 35  1  0  0  0  0
 14 11  1  0  0  0  0
 16 11  1  0  0  0  0
 16 36  1  0  0  0  0
 16 37  1  0  0  0  0
 17 12  1  0  0  0  0
 17 14  2  0  0  0  0
 18  4  1  0  0  0  0
 18 38  1  6  0  0  0
 18 16  1  0  0  0  0
 18 15  1  0  0  0  0
 19 15  2  0  0  0  0
 20 15  1  0  0  0  0
 20 39  1  0  0  0  0
 21 14  1  0  0  0  0
 21 40  1  0  0  0  0
 22 17  1  0  0  0  0
 22 41  1  0  0  0  0
 23 21  2  0  0  0  0
 23 42  1  0  0  0  0
 24 22  2  0  0  0  0
 24 23  1  0  0  0  0
 24 43  1  0  0  0  0
M  END
>  <DRUGBANK_ID>
DB05779

>  <COMMON_NAME>
Oglufanide

>  <CAS_NUMBER>
38101-59-6

>  <UNII>
4RHY598T5U

>  <SYNONYMS>
alpha-Glutamyltryptophan; Glutamyltryptophan; L-Glu-L-Trp; L-glutamyl-L-tryptophan; L-α-Glu-L-Trp; Oglufanide; α-Glu-Trp

$$$$
