
 OpenBabel10282417223D

 64 70  0  0  1  0  0  0  0  0999 V2000
    6.8539    1.6145    3.1961 C   0  0  0  0  0  0  0  0  0  0  0  0
    5.8077    0.6904    2.7335 N   0  0  0  0  0  0  0  0  0  0  0  0
    5.2027    1.1627    1.5396 C   0  0  0  0  0  0  0  0  0  0  0  0
    5.5796    0.8231    0.3225 N   0  0  0  0  0  0  0  0  0  0  0  0
    5.5065    2.1462   -0.4678 C   0  0  2  0  0  0  0  0  0  0  0  0
    6.9974    2.4230   -0.8118 C   0  0  0  0  0  0  0  0  0  0  0  0
    7.5043    2.8747    0.5309 C   0  0  0  0  0  0  0  0  0  0  0  0
    6.3755    3.8563    0.9912 C   0  0  0  0  0  0  0  0  0  0  0  0
    5.0190    3.2084    0.5835 C   0  0  2  0  0  0  0  0  0  0  0  0
    4.4694    2.3092    1.6037 N   0  0  0  0  0  0  0  0  0  0  0  0
    3.8236    2.5537    2.7739 C   0  0  0  0  0  0  0  0  0  0  0  0
    2.9482    3.5086    3.0524 N   0  0  0  0  0  0  0  0  0  0  0  0
    2.5543    3.2311    4.3259 N   0  0  0  0  0  0  0  0  0  0  0  0
    1.4680    4.0449    4.8698 C   0  0  0  0  0  0  0  0  0  0  0  0
    0.2831    3.2901    5.4348 C   0  0  0  0  0  0  0  0  0  0  0  0
    0.4174    2.3699    6.4737 C   0  0  0  0  0  0  0  0  0  0  0  0
   -0.6280    1.8325    7.1839 C   0  0  0  0  0  0  0  0  0  0  0  0
   -1.9154    2.1314    6.8004 C   0  0  0  0  0  0  0  0  0  0  0  0
   -2.1085    3.0110    5.7245 C   0  0  0  0  0  0  0  0  0  0  0  0
   -1.0217    3.5736    5.0343 C   0  0  0  0  0  0  0  0  0  0  0  0
   -2.9920    1.4252    7.4636 C   0  0  0  0  0  0  0  0  0  0  0  0
   -3.6922    0.5856    6.6713 N   0  0  0  0  0  0  0  0  0  0  0  0
   -4.6177   -0.1739    7.2755 C   0  0  0  0  0  0  0  0  0  0  0  0
   -5.3148   -1.0216    6.5070 F   0  0  0  0  0  0  0  0  0  0  0  0
   -4.8912   -0.1276    8.6318 C   0  0  0  0  0  0  0  0  0  0  0  0
   -4.1476    0.7303    9.4334 C   0  0  0  0  0  0  0  0  0  0  0  0
   -3.1696    1.5136    8.8428 C   0  0  0  0  0  0  0  0  0  0  0  0
    3.3606    2.2961    4.9740 C   0  0  0  0  0  0  0  0  0  0  0  0
    3.3023    2.1356    6.3341 N   0  0  0  0  0  0  0  0  0  0  0  0
    3.9434    1.1808    7.1527 C   0  0  0  0  0  0  0  0  0  0  0  0
    5.3064    1.3328    7.3627 C   0  0  0  0  0  0  0  0  0  0  0  0
    5.9988    0.4718    8.2047 C   0  0  0  0  0  0  0  0  0  0  0  0
    5.3174   -0.5047    8.9267 C   0  0  0  0  0  0  0  0  0  0  0  0
    3.9306   -0.5916    8.8378 C   0  0  0  0  0  0  0  0  0  0  0  0
    3.2420    0.2439    7.9452 C   0  0  0  0  0  0  0  0  0  0  0  0
    4.0343    1.7040    3.9172 C   0  0  0  0  0  0  0  0  0  0  0  0
    4.9735    0.5870    3.8612 C   0  0  0  0  0  0  0  0  0  0  0  0
    5.1565   -0.2441    4.7195 O   0  0  0  0  0  0  0  0  0  0  0  0
    7.8853    1.3210    2.9998 H   0  0  0  0  0  0  0  0  0  0  0  0
    6.7150    2.1152    4.1652 H   0  0  0  0  0  0  0  0  0  0  0  0
    6.7107    2.4880    2.6178 H   0  0  0  0  0  0  0  0  0  0  0  0
    4.9018    2.1385   -1.3835 H   0  0  0  0  0  0  0  0  0  0  0  0
    7.2030    3.1988   -1.5515 H   0  0  0  0  0  0  0  0  0  0  0  0
    7.4913    1.4947   -1.1335 H   0  0  0  0  0  0  0  0  0  0  0  0
    8.5116    3.2821    0.6005 H   0  0  0  0  0  0  0  0  0  0  0  0
    7.6003    1.9187    1.0504 H   0  0  0  0  0  0  0  0  0  0  0  0
    6.3788    4.1451    2.0489 H   0  0  0  0  0  0  0  0  0  0  0  0
    6.5371    4.7949    0.4570 H   0  0  0  0  0  0  0  0  0  0  0  0
    4.3067    3.9536    0.2149 H   0  0  0  0  0  0  0  0  0  0  0  0
    1.9090    4.6948    5.6348 H   0  0  0  0  0  0  0  0  0  0  0  0
    1.1350    4.6998    4.0537 H   0  0  0  0  0  0  0  0  0  0  0  0
    1.3358    1.9364    6.7765 H   0  0  0  0  0  0  0  0  0  0  0  0
   -0.4013    1.1361    7.9892 H   0  0  0  0  0  0  0  0  0  0  0  0
   -3.1220    3.2564    5.4203 H   0  0  0  0  0  0  0  0  0  0  0  0
   -1.2140    4.2099    4.1731 H   0  0  0  0  0  0  0  0  0  0  0  0
   -5.6717   -0.7522    9.0440 H   0  0  0  0  0  0  0  0  0  0  0  0
   -4.3197    0.7877   10.5030 H   0  0  0  0  0  0  0  0  0  0  0  0
   -2.5456    2.1730    9.4399 H   0  0  0  0  0  0  0  0  0  0  0  0
    2.9329    2.8829    6.9257 H   0  0  0  0  0  0  0  0  0  0  0  0
    5.8259    2.1168    6.8256 H   0  0  0  0  0  0  0  0  0  0  0  0
    7.0758    0.5650    8.2751 H   0  0  0  0  0  0  0  0  0  0  0  0
    5.8735   -1.1991    9.5499 H   0  0  0  0  0  0  0  0  0  0  0  0
    3.3998   -1.3222    9.4472 H   0  0  0  0  0  0  0  0  0  0  0  0
    2.1647    0.1084    7.8656 H   0  0  0  0  0  0  0  0  0  0  0  0
  1  2  1  0  0  0  0
  1 39  1  0  0  0  0
  1 40  1  0  0  0  0
  1 41  1  0  0  0  0
  2  3  1  0  0  0  0
  2 37  1  0  0  0  0
  3  4  2  0  0  0  0
  3 10  1  0  0  0  0
  5  4  1  0  0  0  0
  5  6  1  0  0  0  0
  5  9  1  0  0  0  0
  5 42  1  6  0  0  0
  6  7  1  0  0  0  0
  6 43  1  0  0  0  0
  6 44  1  0  0  0  0
  7  8  1  0  0  0  0
  7 45  1  0  0  0  0
  7 46  1  0  0  0  0
  8 47  1  0  0  0  0
  8 48  1  0  0  0  0
  9  8  1  0  0  0  0
  9 10  1  0  0  0  0
  9 49  1  6  0  0  0
 10 11  1  0  0  0  0
 11 12  2  0  0  0  0
 11 36  1  0  0  0  0
 12 13  1  0  0  0  0
 13 14  1  0  0  0  0
 13 28  1  0  0  0  0
 14 15  1  0  0  0  0
 14 50  1  0  0  0  0
 14 51  1  0  0  0  0
 15 16  2  0  0  0  0
 15 20  1  0  0  0  0
 16 17  1  0  0  0  0
 16 52  1  0  0  0  0
 17 18  2  0  0  0  0
 17 53  1  0  0  0  0
 18 19  1  0  0  0  0
 18 21  1  0  0  0  0
 19 20  2  0  0  0  0
 19 54  1  0  0  0  0
 20 55  1  0  0  0  0
 21 22  2  0  0  0  0
 21 27  1  0  0  0  0
 22 23  1  0  0  0  0
 23 24  1  0  0  0  0
 23 25  2  0  0  0  0
 25 26  1  0  0  0  0
 25 56  1  0  0  0  0
 26 27  2  0  0  0  0
 26 57  1  0  0  0  0
 27 58  1  0  0  0  0
 28 29  1  0  0  0  0
 28 36  2  0  0  0  0
 29 30  1  0  0  0  0
 29 59  1  0  0  0  0
 30 31  2  0  0  0  0
 30 35  1  0  0  0  0
 31 32  1  0  0  0  0
 31 60  1  0  0  0  0
 32 33  2  0  0  0  0
 32 61  1  0  0  0  0
 33 34  1  0  0  0  0
 33 62  1  0  0  0  0
 34 35  2  0  0  0  0
 34 63  1  0  0  0  0
 35 64  1  0  0  0  0
 36 37  1  0  0  0  0
 37 38  2  0  0  0  0
M  END
>  <DRUGBANK_ID>
DB15039

>  <COMMON_NAME>
ITI-214

>  <CAS_NUMBER>
1160521-50-5

>  <UNII>
3GBO34D1BE

$$$$
