539
 OpenBabel10282417103D

 57 59  0  0  0  0  0  0  0  0999 V2000
    1.1679    0.9374   -0.6744 Cl  0  0  0  0  0  0  0  0  0  0  0  0
    2.3497   -6.4443    5.6236 O   0  0  0  0  0  0  0  0  0  0  0  0
   -0.3136   -4.9355    4.7870 N   0  0  0  0  0  0  0  0  0  0  0  0
    3.6276   -1.6409    2.9071 C   0  0  0  0  0  0  0  0  0  0  0  0
    2.6981   -0.8443    2.2645 C   0  0  0  0  0  0  0  0  0  0  0  0
    3.2682   -2.9055    3.6446 C   0  0  0  0  0  0  0  0  0  0  0  0
    3.0565    0.3056    1.2899 C   0  0  0  0  0  0  0  0  0  0  0  0
    5.0961   -1.3767    2.7683 C   0  0  0  0  0  0  0  0  0  0  0  0
    1.2286   -1.0168    2.4709 C   0  0  0  0  0  0  0  0  0  0  0  0
    2.5048   -3.8811    2.9981 C   0  0  0  0  0  0  0  0  0  0  0  0
    3.8850   -3.2534    4.8671 C   0  0  0  0  0  0  0  0  0  0  0  0
    2.7187    0.1917   -0.2056 C   0  0  0  0  0  0  0  0  0  0  0  0
    2.8620   -5.4649    4.7931 C   0  0  0  0  0  0  0  0  0  0  0  0
    2.3302   -5.1581    3.5402 C   0  0  0  0  0  0  0  0  0  0  0  0
    3.7188   -4.5394    5.4143 C   0  0  0  0  0  0  0  0  0  0  0  0
    5.6556   -0.1090    2.9512 C   0  0  0  0  0  0  0  0  0  0  0  0
    5.9667   -2.4701    2.5804 C   0  0  0  0  0  0  0  0  0  0  0  0
    0.3931   -1.2911    1.3739 C   0  0  0  0  0  0  0  0  0  0  0  0
    0.6330   -0.9880    3.7296 C   0  0  0  0  0  0  0  0  0  0  0  0
   -0.2675   -6.1966    5.5124 C   0  0  0  0  0  0  0  0  0  0  0  0
    1.0578   -7.0261    5.3151 C   0  0  0  0  0  0  0  0  0  0  0  0
    7.0286    0.0849    2.8431 C   0  0  0  0  0  0  0  0  0  0  0  0
    7.3453   -2.2937    2.5988 C   0  0  0  0  0  0  0  0  0  0  0  0
   -0.9883   -1.4183    1.5036 C   0  0  0  0  0  0  0  0  0  0  0  0
   -0.7385   -1.2464    3.8799 C   0  0  0  0  0  0  0  0  0  0  0  0
    7.8752   -1.0126    2.6885 C   0  0  0  0  0  0  0  0  0  0  0  0
   -1.5550   -1.4254    2.7570 C   0  0  0  0  0  0  0  0  0  0  0  0
   -1.6286   -4.3961    4.5004 C   0  0  0  0  0  0  0  0  0  0  0  0
    0.4410   -3.9164    5.5075 C   0  0  0  0  0  0  0  0  0  0  0  0
    4.1393    0.3919    1.2313 H   0  0  0  0  0  0  0  0  0  0  0  0
    2.7212    1.2642    1.7058 H   0  0  0  0  0  0  0  0  0  0  0  0
    1.9237   -3.6204    2.1180 H   0  0  0  0  0  0  0  0  0  0  0  0
    4.4715   -2.5167    5.4152 H   0  0  0  0  0  0  0  0  0  0  0  0
    2.7743   -0.8443   -0.5578 H   0  0  0  0  0  0  0  0  0  0  0  0
    3.4541    0.7665   -0.7748 H   0  0  0  0  0  0  0  0  0  0  0  0
    1.5901   -5.7905    3.0647 H   0  0  0  0  0  0  0  0  0  0  0  0
    4.1343   -4.7560    6.3976 H   0  0  0  0  0  0  0  0  0  0  0  0
    5.0195    0.7512    3.1541 H   0  0  0  0  0  0  0  0  0  0  0  0
    5.5744   -3.4796    2.4680 H   0  0  0  0  0  0  0  0  0  0  0  0
    0.8130   -1.4560    0.3952 H   0  0  0  0  0  0  0  0  0  0  0  0
    1.2439   -0.8954    4.6302 H   0  0  0  0  0  0  0  0  0  0  0  0
   -1.0833   -6.8406    5.1537 H   0  0  0  0  0  0  0  0  0  0  0  0
   -0.4639   -6.0112    6.5743 H   0  0  0  0  0  0  0  0  0  0  0  0
    1.0892   -7.4847    4.3213 H   0  0  0  0  0  0  0  0  0  0  0  0
    0.9624   -7.8630    6.0184 H   0  0  0  0  0  0  0  0  0  0  0  0
    7.4357    1.0886    2.9045 H   0  0  0  0  0  0  0  0  0  0  0  0
    7.9983   -3.1621    2.5516 H   0  0  0  0  0  0  0  0  0  0  0  0
   -1.5950   -1.5766    0.6123 H   0  0  0  0  0  0  0  0  0  0  0  0
   -1.1478   -1.4304    4.8679 H   0  0  0  0  0  0  0  0  0  0  0  0
    8.9492   -0.8670    2.6535 H   0  0  0  0  0  0  0  0  0  0  0  0
   -2.6050   -1.6834    2.8745 H   0  0  0  0  0  0  0  0  0  0  0  0
   -2.0322   -3.8285    5.3464 H   0  0  0  0  0  0  0  0  0  0  0  0
   -1.5108   -3.7250    3.6526 H   0  0  0  0  0  0  0  0  0  0  0  0
   -2.3695   -5.1265    4.1727 H   0  0  0  0  0  0  0  0  0  0  0  0
   -0.0785   -3.4464    6.3386 H   0  0  0  0  0  0  0  0  0  0  0  0
    1.3275   -4.3092    5.9771 H   0  0  0  0  0  0  0  0  0  0  0  0
    0.7600   -3.1680    4.7972 H   0  0  0  0  0  0  0  0  0  0  0  0
  1 12  1  0  0  0  0
  2 13  1  0  0  0  0
  2 21  1  0  0  0  0
  3 20  1  0  0  0  0
  3 28  1  0  0  0  0
  3 29  1  0  0  0  0
  4  5  2  0  0  0  0
  4  6  1  0  0  0  0
  4  8  1  0  0  0  0
  5  7  1  0  0  0  0
  5  9  1  0  0  0  0
  6 10  2  0  0  0  0
  6 11  1  0  0  0  0
  7 12  1  0  0  0  0
  7 30  1  0  0  0  0
  7 31  1  0  0  0  0
  8 16  2  0  0  0  0
  8 17  1  0  0  0  0
  9 18  2  0  0  0  0
  9 19  1  0  0  0  0
 10 14  1  0  0  0  0
 10 32  1  0  0  0  0
 11 15  2  0  0  0  0
 11 33  1  0  0  0  0
 12 34  1  0  0  0  0
 12 35  1  0  0  0  0
 13 14  2  0  0  0  0
 13 15  1  0  0  0  0
 14 36  1  0  0  0  0
 15 37  1  0  0  0  0
 16 22  1  0  0  0  0
 16 38  1  0  0  0  0
 17 23  2  0  0  0  0
 17 39  1  0  0  0  0
 18 24  1  0  0  0  0
 18 40  1  0  0  0  0
 19 25  2  0  0  0  0
 19 41  1  0  0  0  0
 20 21  1  0  0  0  0
 20 42  1  0  0  0  0
 20 43  1  0  0  0  0
 21 44  1  0  0  0  0
 21 45  1  0  0  0  0
 22 26  2  0  0  0  0
 22 46  1  0  0  0  0
 23 26  1  0  0  0  0
 23 47  1  0  0  0  0
 24 27  2  0  0  0  0
 24 48  1  0  0  0  0
 25 27  1  0  0  0  0
 25 49  1  0  0  0  0
 26 50  1  0  0  0  0
 27 51  1  0  0  0  0
 28 52  1  0  0  0  0
 28 53  1  0  0  0  0
 28 54  1  0  0  0  0
 29 55  1  0  0  0  0
 29 56  1  0  0  0  0
 29 57  1  0  0  0  0
M  END
>  <DRUGBANK_ID>
DB00539

>  <SECONDARY_ACCESSION_NUMBERS>
APRD00391

>  <COMMON_NAME>
Toremifene

>  <CAS_NUMBER>
89778-26-7

>  <UNII>
7NFE54O27T

>  <SYNONYMS>
Toremifene; Toremifeno; Toremifenum

$$$$
