
 OpenBabel10282417113D

 49 52  0  0  0  0  0  0  0  0999 V2000
    0.9120    1.9416    3.8111 C   0  0  2  0  0  0  0  0  0  0  0  0
   -0.0680    0.9250    3.7703 C   0  0  2  0  0  0  0  0  0  0  0  0
    1.0188    0.0644    2.3924 C   0  0  2  0  0  0  0  0  0  0  0  0
    0.8506   -1.3867    1.9077 C   0  0  0  0  0  0  0  0  0  0  0  0
    1.0765   -1.4988    0.3333 C   0  0  0  0  0  0  0  0  0  0  0  0
    2.3002   -1.0047   -0.4494 C   0  0  0  0  0  0  0  0  0  0  0  0
    3.5410   -0.7718    0.3883 C   0  0  1  0  0  0  0  0  0  0  0  0
    2.7681    0.2185    1.8705 C   0  0  1  0  0  0  0  0  0  0  0  0
    2.7693    1.8311    1.9712 C   0  0  0  0  0  0  0  0  0  0  0  0
    2.3243    2.2343    3.4045 C   0  0  0  0  0  0  0  0  0  0  0  0
    3.3854   -0.1210    2.7020 H   0  0  0  0  0  0  0  0  0  0  0  0
    4.5123   -2.3591   -0.0865 C   0  0  0  0  0  0  0  0  0  0  0  0
    4.3165   -2.9162   -1.6563 C   0  0  0  0  0  0  0  0  0  0  0  0
    2.8362   -2.8549   -1.6504 C   0  0  0  0  0  0  0  0  0  0  0  0
    2.2124   -3.7622   -1.2797 O   0  0  0  0  0  0  0  0  0  0  0  0
    2.3882   -1.4006   -1.7512 C   0  0  0  0  0  0  0  0  0  0  0  0
    4.2264   -0.0330   -0.0642 H   0  0  0  0  0  0  0  0  0  0  0  0
    0.5054    0.5136    1.5629 H   0  0  0  0  0  0  0  0  0  0  0  0
   -0.5192    2.5618    4.9054 C   0  0  0  0  0  0  0  0  0  0  0  0
    0.5211    2.8924    6.0139 C   0  0  0  0  0  0  0  0  0  0  0  0
    0.8770    1.5807    5.5698 C   0  0  2  0  0  0  0  0  0  0  0  0
    1.9258    0.8566    6.1103 O   0  0  0  0  0  0  0  0  0  0  0  0
   -0.2836    0.0830    4.4388 H   0  0  0  0  0  0  0  0  0  0  0  0
   -0.3775    2.6964    2.7034 C   0  0  0  0  0  0  0  0  0  0  0  0
   -0.5325    2.5326    1.2301 C   0  0  0  0  0  0  0  0  0  0  0  0
   -0.1414   -1.7913    2.1096 H   0  0  0  0  0  0  0  0  0  0  0  0
    1.5997   -2.0180    2.4025 H   0  0  0  0  0  0  0  0  0  0  0  0
    0.2459   -0.9917   -0.1699 H   0  0  0  0  0  0  0  0  0  0  0  0
    0.9651   -2.5607    0.1247 H   0  0  0  0  0  0  0  0  0  0  0  0
    2.0662    2.3201    1.2910 H   0  0  0  0  0  0  0  0  0  0  0  0
    3.7264    2.3263    1.7886 H   0  0  0  0  0  0  0  0  0  0  0  0
    2.4289    3.3189    3.5774 H   0  0  0  0  0  0  0  0  0  0  0  0
    3.0101    1.7778    4.1254 H   0  0  0  0  0  0  0  0  0  0  0  0
    5.6019   -2.3727   -0.2958 H   0  0  0  0  0  0  0  0  0  0  0  0
    4.6520   -3.0515    0.7644 H   0  0  0  0  0  0  0  0  0  0  0  0
    4.4697   -3.9298   -2.1047 H   0  0  0  0  0  0  0  0  0  0  0  0
    4.8870   -2.2836   -2.3689 H   0  0  0  0  0  0  0  0  0  0  0  0
    3.1075   -0.9820   -2.4677 H   0  0  0  0  0  0  0  0  0  0  0  0
   -1.5500    2.8073    5.2299 H   0  0  0  0  0  0  0  0  0  0  0  0
   -0.3571    3.5822    4.4681 H   0  0  0  0  0  0  0  0  0  0  0  0
    0.1440    3.0484    7.0301 H   0  0  0  0  0  0  0  0  0  0  0  0
    1.2927    3.6451    5.7828 H   0  0  0  0  0  0  0  0  0  0  0  0
   -0.0091    0.9951    5.9855 H   0  0  0  0  0  0  0  0  0  0  0  0
    1.6088   -0.0637    5.9850 H   0  0  0  0  0  0  0  0  0  0  0  0
   -1.4133    2.3514    3.0317 H   0  0  0  0  0  0  0  0  0  0  0  0
   -0.3894    3.7838    2.8016 H   0  0  0  0  0  0  0  0  0  0  0  0
   -0.7366    1.5270    0.8715 H   0  0  0  0  0  0  0  0  0  0  0  0
   -1.4454    3.0770    0.9663 H   0  0  0  0  0  0  0  0  0  0  0  0
    0.3104    3.0234    0.7730 H   0  0  0  0  0  0  0  0  0  0  0  0
  1 24  1  6  0  0  0
  2  1  1  0  0  0  0
  2 23  1  1  0  0  0
  3  2  1  0  0  0  0
  3  8  1  0  0  0  0
  3 18  1  6  0  0  0
  4  3  1  0  0  0  0
  4 26  1  0  0  0  0
  4 27  1  0  0  0  0
  5  4  1  0  0  0  0
  5 28  1  0  0  0  0
  5 29  1  0  0  0  0
  6  5  1  0  0  0  0
  6  7  1  0  0  0  0
  7  8  1  0  0  0  0
  7 17  1  6  0  0  0
  8  9  1  0  0  0  0
  8 11  1  1  0  0  0
  9 10  1  0  0  0  0
  9 30  1  0  0  0  0
  9 31  1  0  0  0  0
 10  1  1  0  0  0  0
 10 32  1  0  0  0  0
 10 33  1  0  0  0  0
 12  7  1  0  0  0  0
 12 34  1  0  0  0  0
 12 35  1  0  0  0  0
 13 12  1  0  0  0  0
 13 36  1  0  0  0  0
 13 37  1  0  0  0  0
 14 13  1  0  0  0  0
 15 14  2  0  0  0  0
 16 14  1  0  0  0  0
 16  6  2  0  0  0  0
 16 38  1  0  0  0  0
 19  2  1  0  0  0  0
 19 20  1  0  0  0  0
 19 39  1  0  0  0  0
 19 40  1  0  0  0  0
 20 21  1  0  0  0  0
 20 41  1  0  0  0  0
 20 42  1  0  0  0  0
 21  1  1  0  0  0  0
 21 43  1  1  0  0  0
 21 22  1  0  0  0  0
 22 44  1  0  0  0  0
 24 45  1  0  0  0  0
 24 46  1  0  0  0  0
 25 24  1  0  0  0  0
 25 47  1  0  0  0  0
 25 48  1  0  0  0  0
 25 49  1  0  0  0  0
M  END
>  <DRUGBANK_ID>
DB01543

>  <COMMON_NAME>
18-methyl-19-nortestosterone

>  <CAS_NUMBER>
793-55-5

>  <UNII>
6AL6ML53DZ

>  <SYNONYMS>
13beta-ethyl-17beta-hydroxygon-4-en-3-one

$$$$
