
 OpenBabel10282417133D

 17 16  0  0  1  0  0  0  0  0999 V2000
    1.0068    0.0085    0.0680 C   0  0  0  0  0  0  0  0  0  0  0  0
    1.0163    2.2350   -1.2359 C   0  0  0  0  0  0  0  0  0  0  0  0
    0.4868    1.4490   -0.0366 C   0  0  1  0  0  0  0  0  0  0  0  0
   -1.0230    1.5030    0.0463 C   0  0  0  0  0  0  0  0  0  0  0  0
    0.5580   -0.9171   -0.9700 N   0  0  0  0  0  0  0  0  0  0  0  0
    0.5857    1.7486   -2.4983 O   0  0  0  0  0  0  0  0  0  0  0  0
   -1.6690    2.0646    0.9131 O   0  0  0  0  0  0  0  0  0  0  0  0
   -1.6437    0.8317   -0.9483 O   0  0  0  0  0  0  0  0  0  0  0  0
    0.8503    1.9735    0.8607 H   0  0  0  0  0  0  0  0  0  0  0  0
    0.6930   -0.4129    1.0303 H   0  0  0  0  0  0  0  0  0  0  0  0
    2.1035    0.0171    0.0776 H   0  0  0  0  0  0  0  0  0  0  0  0
    0.6930    3.2786   -1.1761 H   0  0  0  0  0  0  0  0  0  0  0  0
    2.1123    2.2295   -1.2348 H   0  0  0  0  0  0  0  0  0  0  0  0
   -0.4367   -0.7282   -1.1533 H   0  0  0  0  0  0  0  0  0  0  0  0
    1.0203   -0.7422   -1.8545 H   0  0  0  0  0  0  0  0  0  0  0  0
    1.0262    0.9025   -2.6646 H   0  0  0  0  0  0  0  0  0  0  0  0
   -2.6023    0.9863   -0.8233 H   0  0  0  0  0  0  0  0  0  0  0  0
  1 10  1  0  0  0  0
  1 11  1  0  0  0  0
  2 12  1  0  0  0  0
  2 13  1  0  0  0  0
  3  1  1  0  0  0  0
  3  2  1  0  0  0  0
  3  4  1  0  0  0  0
  3  9  1  1  0  0  0
  5  1  1  0  0  0  0
  5 14  1  0  0  0  0
  5 15  1  0  0  0  0
  6  2  1  0  0  0  0
  6 16  1  0  0  0  0
  7  4  2  0  0  0  0
  8  4  1  0  0  0  0
  8 17  1  0  0  0  0
M  END
>  <DRUGBANK_ID>
DB02904

>  <SECONDARY_ACCESSION_NUMBERS>
EXPT00762

>  <COMMON_NAME>
Beta-3-Serine

$$$$
