
 OpenBabel10282417233D

 55 58  0  0  0  0  0  0  0  0999 V2000
    2.3152   -0.9431   -0.0189 F   0  0  0  0  0  0  0  0  0  0  0  0
    0.9776   -0.9506    0.0264 C   0  0  0  0  0  0  0  0  0  0  0  0
    0.3626    0.1884    0.2990 C   0  0  0  0  0  0  0  0  0  0  0  0
   -1.0491    0.2850    0.2110 C   0  0  0  0  0  0  0  0  0  0  0  0
   -1.9685   -0.6769    0.0127 C   0  0  0  0  0  0  0  0  0  0  0  0
   -1.3188   -1.8935   -0.0653 C   0  0  0  0  0  0  0  0  0  0  0  0
    0.1369   -2.0234   -0.0805 C   0  0  0  0  0  0  0  0  0  0  0  0
   -3.4765   -0.3029    0.0217 C   0  0  0  0  0  0  0  0  0  0  0  0
   -4.2658   -1.2582   -0.0217 O   0  0  0  0  0  0  0  0  0  0  0  0
   -4.0927    1.1789    0.0231 C   0  0  0  0  0  0  0  0  0  0  0  0
   -3.9186    2.1024    1.2405 C   0  0  0  0  0  0  0  0  0  0  0  0
   -2.5393    2.7082    1.4106 C   0  0  0  0  0  0  0  0  0  0  0  0
   -2.1346    3.5608    0.2417 N   0  0  0  0  0  0  0  0  0  0  0  0
   -1.2494    2.9529   -0.7830 C   0  0  0  0  0  0  0  0  0  0  0  0
    0.1202    2.7881   -0.1733 C   0  0  0  0  0  0  0  0  0  0  0  0
    0.7924    3.9532    0.4211 C   0  0  0  0  0  0  0  0  0  0  0  0
   -0.1431    4.5568    1.4573 C   0  0  0  0  0  0  0  0  0  0  0  0
   -1.5089    4.7629    0.8328 C   0  0  0  0  0  0  0  0  0  0  0  0
    1.3506    4.7938   -0.6676 N   0  0  0  0  0  0  0  0  0  0  0  0
    2.7563    4.9816   -0.3466 C   0  0  0  0  0  0  0  0  0  0  0  0
    3.1292    3.8856    0.4898 N   0  0  0  0  0  0  0  0  0  0  0  0
    2.0399    3.4234    1.2041 C   0  0  0  0  0  0  0  0  0  0  0  0
    2.0937    2.7324    2.1824 O   0  0  0  0  0  0  0  0  0  0  0  0
    0.8458    4.8089   -1.9739 C   0  0  0  0  0  0  0  0  0  0  0  0
   -0.4346    5.3499   -2.2373 C   0  0  0  0  0  0  0  0  0  0  0  0
   -1.1328    5.3182   -3.4468 C   0  0  0  0  0  0  0  0  0  0  0  0
   -0.4830    4.8644   -4.5571 C   0  0  0  0  0  0  0  0  0  0  0  0
    0.8044    4.3486   -4.3940 C   0  0  0  0  0  0  0  0  0  0  0  0
    1.4279    4.2407   -3.1125 C   0  0  0  0  0  0  0  0  0  0  0  0
    1.0842    0.9565    0.5489 H   0  0  0  0  0  0  0  0  0  0  0  0
   -1.5531    1.1897    0.2753 H   0  0  0  0  0  0  0  0  0  0  0  0
   -1.9229   -2.7837   -0.0893 H   0  0  0  0  0  0  0  0  0  0  0  0
    0.6359   -2.9741   -0.1100 H   0  0  0  0  0  0  0  0  0  0  0  0
   -3.8681    1.7137   -0.9084 H   0  0  0  0  0  0  0  0  0  0  0  0
   -5.1901    1.0427   -0.0371 H   0  0  0  0  0  0  0  0  0  0  0  0
   -4.6159    2.9560    1.1933 H   0  0  0  0  0  0  0  0  0  0  0  0
   -4.1804    1.5564    2.1540 H   0  0  0  0  0  0  0  0  0  0  0  0
   -2.5445    3.3117    2.3236 H   0  0  0  0  0  0  0  0  0  0  0  0
   -1.8595    1.9314    1.7753 H   0  0  0  0  0  0  0  0  0  0  0  0
   -1.6404    2.0382   -1.2590 H   0  0  0  0  0  0  0  0  0  0  0  0
   -1.1671    3.4228   -1.7437 H   0  0  0  0  0  0  0  0  0  0  0  0
   -0.0509    2.2768    0.7710 H   0  0  0  0  0  0  0  0  0  0  0  0
    0.7947    2.2709   -0.8671 H   0  0  0  0  0  0  0  0  0  0  0  0
   -0.2547    3.8847    2.3278 H   0  0  0  0  0  0  0  0  0  0  0  0
    0.2600    5.4899    1.8483 H   0  0  0  0  0  0  0  0  0  0  0  0
   -1.3514    5.5656    0.1466 H   0  0  0  0  0  0  0  0  0  0  0  0
   -2.2350    5.2140    1.5057 H   0  0  0  0  0  0  0  0  0  0  0  0
    3.4450    5.0751   -1.1802 H   0  0  0  0  0  0  0  0  0  0  0  0
    2.7747    5.8711    0.2905 H   0  0  0  0  0  0  0  0  0  0  0  0
    4.0551    3.7145    0.8606 H   0  0  0  0  0  0  0  0  0  0  0  0
   -1.0939    5.6663   -1.4653 H   0  0  0  0  0  0  0  0  0  0  0  0
   -2.1788    5.6211   -3.4538 H   0  0  0  0  0  0  0  0  0  0  0  0
   -0.9913    4.9019   -5.5151 H   0  0  0  0  0  0  0  0  0  0  0  0
    1.3267    4.0187   -5.2878 H   0  0  0  0  0  0  0  0  0  0  0  0
    2.3373    3.6461   -3.0561 H   0  0  0  0  0  0  0  0  0  0  0  0
  1  2  1  0  0  0  0
  2  3  2  0  0  0  0
  2  7  1  0  0  0  0
  3  4  1  0  0  0  0
  3 30  1  0  0  0  0
  4  5  2  0  0  0  0
  4 31  1  0  0  0  0
  5  6  1  0  0  0  0
  5  8  1  0  0  0  0
  6  7  2  0  0  0  0
  6 32  1  0  0  0  0
  7 33  1  0  0  0  0
  8  9  2  0  0  0  0
  8 10  1  0  0  0  0
 10 11  1  0  0  0  0
 10 34  1  0  0  0  0
 10 35  1  0  0  0  0
 11 12  1  0  0  0  0
 11 36  1  0  0  0  0
 11 37  1  0  0  0  0
 12 13  1  0  0  0  0
 12 38  1  0  0  0  0
 12 39  1  0  0  0  0
 13 14  1  0  0  0  0
 13 18  1  0  0  0  0
 14 15  1  0  0  0  0
 14 40  1  0  0  0  0
 14 41  1  0  0  0  0
 15 16  1  0  0  0  0
 15 42  1  0  0  0  0
 15 43  1  0  0  0  0
 16 17  1  0  0  0  0
 16 19  1  0  0  0  0
 16 22  1  0  0  0  0
 17 18  1  0  0  0  0
 17 44  1  0  0  0  0
 17 45  1  0  0  0  0
 18 46  1  0  0  0  0
 18 47  1  0  0  0  0
 19 20  1  0  0  0  0
 19 24  1  0  0  0  0
 20 21  1  0  0  0  0
 20 48  1  0  0  0  0
 20 49  1  0  0  0  0
 21 22  1  0  0  0  0
 21 50  1  0  0  0  0
 22 23  2  0  0  0  0
 24 25  2  0  0  0  0
 24 29  1  0  0  0  0
 25 26  1  0  0  0  0
 25 51  1  0  0  0  0
 26 27  2  0  0  0  0
 26 52  1  0  0  0  0
 27 28  1  0  0  0  0
 27 53  1  0  0  0  0
 28 29  2  0  0  0  0
 28 54  1  0  0  0  0
 29 55  1  0  0  0  0
M  END
>  <DRUGBANK_ID>
DB17056

>  <COMMON_NAME>
Spiperone

>  <CAS_NUMBER>
749-02-0

>  <UNII>
4X6E73CJ0Q

>  <SYNONYMS>
Spiropitan

$$$$
