ALZ
 OpenBabel10282417163D

 50 51  0  0  0  0  0  0  0  0999 V2000
    1.1066    0.0348   -0.0535 N   0  0  0  0  0  0  0  0  0  0  0  0
    0.6541   -0.8067   -1.1513 C   0  0  0  0  0  0  0  0  0  0  0  0
    1.1422   -2.2453   -0.9641 C   0  0  0  0  0  0  0  0  0  0  0  0
    0.5667   -2.9224    0.2922 C   0  0  0  0  0  0  0  0  0  0  0  0
   -0.9710   -2.9330    0.3935 C   0  0  0  0  0  0  0  0  0  0  0  0
   -1.5489   -3.8452   -0.5862 N   0  0  0  0  0  0  0  0  0  0  0  0
   -2.9045   -3.6141   -0.8037 N   0  0  0  0  0  0  0  0  0  0  0  0
   -3.5341   -3.2445   -1.9688 C   0  0  0  0  0  0  0  0  0  0  0  0
   -4.7662   -3.3969   -1.9963 O   0  0  0  0  0  0  0  0  0  0  0  0
   -2.8370   -2.5310   -3.1636 C   0  0  1  0  0  0  0  0  0  0  0  0
   -2.6744   -1.0772   -3.0947 N   0  0  0  0  0  0  0  0  0  0  0  0
   -1.4165   -2.9525   -3.5220 C   0  0  0  0  0  0  0  0  0  0  0  0
   -0.8648   -1.8880   -4.4450 C   0  0  0  0  0  0  0  0  0  0  0  0
   -1.6180   -0.6311   -4.0023 C   0  0  0  0  0  0  0  0  0  0  0  0
   -3.4902   -0.1603   -2.4480 C   0  0  0  0  0  0  0  0  0  0  0  0
   -3.3363    1.0432   -2.5420 O   0  0  0  0  0  0  0  0  0  0  0  0
   -4.4312   -0.7490   -1.6635 O   0  0  0  0  0  0  0  0  0  0  0  0
   -5.3020    0.0963   -0.8956 C   0  0  0  0  0  0  0  0  0  0  0  0
   -4.6015    0.8544    0.2045 C   0  0  0  0  0  0  0  0  0  0  0  0
   -4.7285    2.2489    0.2591 C   0  0  0  0  0  0  0  0  0  0  0  0
   -4.1545    2.9734    1.3002 C   0  0  0  0  0  0  0  0  0  0  0  0
   -3.4663    2.3068    2.3105 C   0  0  0  0  0  0  0  0  0  0  0  0
   -3.3459    0.9172    2.2754 C   0  0  0  0  0  0  0  0  0  0  0  0
   -3.8735    0.1948    1.2031 C   0  0  0  0  0  0  0  0  0  0  0  0
   -3.4617   -2.7435   -4.0438 H   0  0  0  0  0  0  0  0  0  0  0  0
    0.7458   -0.3200    0.8311 H   0  0  0  0  0  0  0  0  0  0  0  0
    2.1215   -0.0171    0.0162 H   0  0  0  0  0  0  0  0  0  0  0  0
   -0.4367   -0.7589   -1.2151 H   0  0  0  0  0  0  0  0  0  0  0  0
    1.0329   -0.3978   -2.0933 H   0  0  0  0  0  0  0  0  0  0  0  0
    0.9244   -2.8473   -1.8483 H   0  0  0  0  0  0  0  0  0  0  0  0
    2.2383   -2.2533   -0.9194 H   0  0  0  0  0  0  0  0  0  0  0  0
    0.9509   -3.9488    0.3404 H   0  0  0  0  0  0  0  0  0  0  0  0
    0.9653   -2.4139    1.1765 H   0  0  0  0  0  0  0  0  0  0  0  0
   -1.2637   -3.2827    1.3885 H   0  0  0  0  0  0  0  0  0  0  0  0
   -1.3706   -1.9202    0.2793 H   0  0  0  0  0  0  0  0  0  0  0  0
   -1.0140   -3.8263   -1.4363 H   0  0  0  0  0  0  0  0  0  0  0  0
   -3.5484   -4.0419   -0.1398 H   0  0  0  0  0  0  0  0  0  0  0  0
   -0.7748   -2.7867   -2.6794 H   0  0  0  0  0  0  0  0  0  0  0  0
   -1.2974   -3.9889   -3.8461 H   0  0  0  0  0  0  0  0  0  0  0  0
    0.2184   -1.7746   -4.2902 H   0  0  0  0  0  0  0  0  0  0  0  0
   -1.0226   -2.1494   -5.4931 H   0  0  0  0  0  0  0  0  0  0  0  0
   -0.9723    0.0797   -3.4784 H   0  0  0  0  0  0  0  0  0  0  0  0
   -2.0504   -0.1333   -4.8741 H   0  0  0  0  0  0  0  0  0  0  0  0
   -5.8657    0.7631   -1.5594 H   0  0  0  0  0  0  0  0  0  0  0  0
   -6.0557   -0.5446   -0.4143 H   0  0  0  0  0  0  0  0  0  0  0  0
   -5.2673    2.7766   -0.5248 H   0  0  0  0  0  0  0  0  0  0  0  0
   -4.2559    4.0546    1.3228 H   0  0  0  0  0  0  0  0  0  0  0  0
   -3.0175    2.8730    3.1217 H   0  0  0  0  0  0  0  0  0  0  0  0
   -2.8487    0.3990    3.0906 H   0  0  0  0  0  0  0  0  0  0  0  0
   -3.7219   -0.8808    1.1517 H   0  0  0  0  0  0  0  0  0  0  0  0
  1  2  1  0  0  0  0
  1 26  1  0  0  0  0
  1 27  1  0  0  0  0
  2  3  1  0  0  0  0
  2 28  1  0  0  0  0
  2 29  1  0  0  0  0
  3  4  1  0  0  0  0
  3 30  1  0  0  0  0
  3 31  1  0  0  0  0
  4  5  1  0  0  0  0
  4 32  1  0  0  0  0
  4 33  1  0  0  0  0
  5  6  1  0  0  0  0
  5 34  1  0  0  0  0
  5 35  1  0  0  0  0
  6  7  1  0  0  0  0
  6 36  1  0  0  0  0
  7  8  1  0  0  0  0
  7 37  1  0  0  0  0
  8  9  2  0  0  0  0
 10  8  1  0  0  0  0
 10 11  1  0  0  0  0
 10 12  1  0  0  0  0
 10 25  1  6  0  0  0
 11 14  1  0  0  0  0
 11 15  1  0  0  0  0
 12 13  1  0  0  0  0
 12 38  1  0  0  0  0
 12 39  1  0  0  0  0
 13 14  1  0  0  0  0
 13 40  1  0  0  0  0
 13 41  1  0  0  0  0
 14 42  1  0  0  0  0
 14 43  1  0  0  0  0
 15 16  2  0  0  0  0
 15 17  1  0  0  0  0
 17 18  1  0  0  0  0
 18 19  1  0  0  0  0
 18 44  1  0  0  0  0
 18 45  1  0  0  0  0
 19 20  2  0  0  0  0
 19 24  1  0  0  0  0
 20 21  1  0  0  0  0
 20 46  1  0  0  0  0
 21 22  2  0  0  0  0
 21 47  1  0  0  0  0
 22 23  1  0  0  0  0
 22 48  1  0  0  0  0
 23 24  2  0  0  0  0
 23 49  1  0  0  0  0
 24 50  1  0  0  0  0
M  END
>  <DRUGBANK_ID>
DB07366

>  <COMMON_NAME>
2-[N'-(4-AMINO-BUTYL)-HYDRAZINOCARBONYL]-PYRROLIDINE-1-CARBOXYLIC ACID BENZYL ESTER

$$$$
