
 OpenBabel10282417133D

 19 18  0  0  1  0  0  0  0  0999 V2000
    3.1390   -6.8320    0.5864 O   0  0  0  0  0  0  0  0  0  0  0  0
    2.6596   -5.2862   -0.0248 P   0  0  0  0  0  0  0  0  0  0  0  0
    2.5790   -4.6959    1.4893 O   0  0  0  0  0  0  0  0  0  0  0  0
    4.0647   -5.0920   -0.5814 O   0  0  0  0  0  0  0  0  0  0  0  0
    2.1663   -3.6958   -0.6536 N   0  0  0  0  0  0  0  0  0  0  0  0
    1.1866   -4.1595   -1.7693 P   0  0  2  0  0  0  0  0  0  0  0  0
    0.6345   -2.7005   -2.1213 O   0  0  0  0  0  0  0  0  0  0  0  0
    0.0309   -4.9342   -1.1823 O   0  0  0  0  0  0  0  0  0  0  0  0
    2.2633   -4.7240   -2.9108 O   0  0  0  0  0  0  0  0  0  0  0  0
    1.6087   -6.1540   -3.6315 P   0  0  0  0  0  0  0  0  0  0  0  0
    1.3323   -6.7079   -2.1246 O   0  0  0  0  0  0  0  0  0  0  0  0
    0.3799   -5.1885   -4.0731 O   0  0  0  0  0  0  0  0  0  0  0  0
    1.0228   -7.4338   -4.2766 O   0  0  0  0  0  0  0  0  0  0  0  0
    2.4394   -7.4983    0.4816 H   0  0  0  0  0  0  0  0  0  0  0  0
    1.8306   -5.0257    2.0142 H   0  0  0  0  0  0  0  0  0  0  0  0
    1.9202   -3.1539    0.1540 H   0  0  0  0  0  0  0  0  0  0  0  0
    0.2348   -2.3998   -1.2714 H   0  0  0  0  0  0  0  0  0  0  0  0
    1.6168   -7.6381   -2.0734 H   0  0  0  0  0  0  0  0  0  0  0  0
    0.7158   -4.5070   -4.6971 H   0  0  0  0  0  0  0  0  0  0  0  0
  1  2  1  0  0  0  0
  1 14  1  0  0  0  0
  2  3  1  0  0  0  0
  2  4  2  0  0  0  0
  2  5  1  0  0  0  0
  3 15  1  0  0  0  0
  5 16  1  0  0  0  0
  6  8  2  1  0  0  0
  6  9  1  0  0  0  0
  6  7  1  0  0  0  0
  6  5  1  0  0  0  0
  7 17  1  0  0  0  0
  9 10  1  0  0  0  0
 10 11  1  0  0  0  0
 10 12  1  0  0  0  0
 10 13  2  0  0  0  0
 11 18  1  0  0  0  0
 12 19  1  0  0  0  0
M  END
>  <DRUGBANK_ID>
DB03075

>  <SECONDARY_ACCESSION_NUMBERS>
EXPT02642

>  <COMMON_NAME>
(Diphosphono)Aminophosphonic Acid

$$$$
