
 OpenBabel10282417183D

  8  7  0  0  0  0  0  0  0  0999 V2000
    1.0301   -0.0871   -0.0463 C   0  0  0  0  0  0  0  0  0  0  0  0
    0.4194    0.4450    0.8679 O   0  0  0  0  0  0  0  0  0  0  0  0
    0.4127   -0.6885   -1.0795 N   0  0  0  0  0  0  0  0  0  0  0  0
    2.3740   -0.1188   -0.1008 N   0  0  0  0  0  0  0  0  0  0  0  0
    0.8976   -1.1319   -1.8411 H   0  0  0  0  0  0  0  0  0  0  0  0
   -0.5982   -0.6858   -1.0749 H   0  0  0  0  0  0  0  0  0  0  0  0
    2.8749    0.3229    0.6581 H   0  0  0  0  0  0  0  0  0  0  0  0
    2.8948   -0.5518   -0.8446 H   0  0  0  0  0  0  0  0  0  0  0  0
  2  1  2  0  0  0  0
  3  1  1  0  0  0  0
  3  5  1  0  0  0  0
  3  6  1  0  0  0  0
  4  1  1  0  0  0  0
  4  7  1  0  0  0  0
  4  8  1  0  0  0  0
M  ISO  1   1  14
M  END
>  <DRUGBANK_ID>
DB09513

>  <COMMON_NAME>
Urea C-14

>  <CAS_NUMBER>
594-05-8

>  <UNII>
WBZ6M63TEE

>  <SYNONYMS>
14C-urea; Carbon 14 urea; Carbon-14 urea; Urea (14C); Urea 14 C; Urea C 14; Urea-14C; Urea, C-14

$$$$
