
 OpenBabel10282417183D

 68 72  0  0  0  0  0  0  0  0999 V2000
    2.5129    2.6002   -1.1852 F   0  0  0  0  0  0  0  0  0  0  0  0
    3.3479    5.8692   -0.4462 O   0  0  0  0  0  0  0  0  0  0  0  0
    0.5779    3.4765   -4.1276 O   0  0  0  0  0  0  0  0  0  0  0  0
    1.3799    7.7315   -2.8111 O   0  0  0  0  0  0  0  0  0  0  0  0
    3.9762    8.9518   -0.9427 O   0  0  0  0  0  0  0  0  0  0  0  0
    5.4054   -0.7583   -2.2106 O   0  0  0  0  0  0  0  0  0  0  0  0
    2.1194   10.2755   -1.2658 O   0  0  0  0  0  0  0  0  0  0  0  0
    4.0843   11.8180    3.0934 N   0  0  0  0  0  0  0  0  0  0  0  0
    1.0413    4.2276   -0.1247 C   0  0  1  0  0  0  0  0  0  0  0  0
    0.4059    2.8308   -0.7413 C   0  0  1  0  0  0  0  0  0  0  0  0
    1.2778    5.1362   -1.4433 C   0  0  1  0  0  0  0  0  0  0  0  0
    1.2807    2.4952   -1.9119 C   0  0  2  0  0  0  0  0  0  0  0  0
    2.0819    6.3454   -0.9175 C   0  0  1  0  0  0  0  0  0  0  0  0
    1.1739    0.9155   -2.4044 C   0  0  2  0  0  0  0  0  0  0  0  0
    1.5872    3.3166   -3.1511 C   0  0  2  0  0  0  0  0  0  0  0  0
    2.1746    4.5664   -2.5937 C   0  0  0  0  0  0  0  0  0  0  0  0
    0.7846    5.4499    0.9270 C   0  0  0  0  0  0  0  0  0  0  0  0
    1.1784    6.7464    0.2258 C   0  0  1  0  0  0  0  0  0  0  0  0
    0.4924    1.6290    0.3230 C   0  0  0  0  0  0  0  0  0  0  0  0
    1.6371   -0.3430   -0.9808 C   0  0  0  0  0  0  0  0  0  0  0  0
    2.2668    7.4472   -2.0016 C   0  0  0  0  0  0  0  0  0  0  0  0
   -0.1232    5.4801   -1.9944 C   0  0  0  0  0  0  0  0  0  0  0  0
    0.4408    0.1354   -0.1612 C   0  0  0  0  0  0  0  0  0  0  0  0
    2.6254    0.6477   -2.0411 C   0  0  0  0  0  0  0  0  0  0  0  0
    0.6285    0.5381   -3.8610 C   0  0  0  0  0  0  0  0  0  0  0  0
    3.1357   -0.7957   -0.6720 C   0  0  0  0  0  0  0  0  0  0  0  0
    1.7514    7.8337    1.0610 C   0  0  0  0  0  0  0  0  0  0  0  0
    3.6094    8.1675   -2.0860 C   0  0  0  0  0  0  0  0  0  0  0  0
    3.4984    0.2248   -2.9949 C   0  0  0  0  0  0  0  0  0  0  0  0
    4.2438   -0.5534   -2.0361 C   0  0  0  0  0  0  0  0  0  0  0  0
    3.1262    9.9796   -0.6476 C   0  0  0  0  0  0  0  0  0  0  0  0
    3.4525   10.5746    0.6788 C   0  0  0  0  0  0  0  0  0  0  0  0
    4.7460   11.0041    0.9127 C   0  0  0  0  0  0  0  0  0  0  0  0
    2.4720   10.7629    1.6704 C   0  0  0  0  0  0  0  0  0  0  0  0
    4.9977   11.6459    2.1107 C   0  0  0  0  0  0  0  0  0  0  0  0
    2.8417   11.3564    2.8636 C   0  0  0  0  0  0  0  0  0  0  0  0
    0.1651    3.9653    0.4794 H   0  0  0  0  0  0  0  0  0  0  0  0
   -0.6405    2.9686   -1.0572 H   0  0  0  0  0  0  0  0  0  0  0  0
    3.5484    6.2258    0.4336 H   0  0  0  0  0  0  0  0  0  0  0  0
   -0.1730    3.9922   -3.8129 H   0  0  0  0  0  0  0  0  0  0  0  0
    2.3961    2.8244   -3.7087 H   0  0  0  0  0  0  0  0  0  0  0  0
    2.3575    5.2747   -3.4056 H   0  0  0  0  0  0  0  0  0  0  0  0
    3.1829    4.3082   -2.2180 H   0  0  0  0  0  0  0  0  0  0  0  0
    1.2428    5.3948    1.9253 H   0  0  0  0  0  0  0  0  0  0  0  0
   -0.2994    5.5376    1.1270 H   0  0  0  0  0  0  0  0  0  0  0  0
    0.2580    7.1947   -0.1654 H   0  0  0  0  0  0  0  0  0  0  0  0
    1.4326    1.7496    0.8651 H   0  0  0  0  0  0  0  0  0  0  0  0
   -0.3300    1.7770    1.0320 H   0  0  0  0  0  0  0  0  0  0  0  0
   -0.7060    4.5975   -2.2381 H   0  0  0  0  0  0  0  0  0  0  0  0
   -0.7539    5.9819   -1.2659 H   0  0  0  0  0  0  0  0  0  0  0  0
   -0.0693    6.0733   -2.9036 H   0  0  0  0  0  0  0  0  0  0  0  0
    0.1594   -0.5964    0.5899 H   0  0  0  0  0  0  0  0  0  0  0  0
   -0.3928    0.1049   -0.8850 H   0  0  0  0  0  0  0  0  0  0  0  0
    1.6036    0.8362   -2.2968 H   0  0  0  0  0  0  0  0  0  0  0  0
   -0.3999    0.8934   -3.9587 H   0  0  0  0  0  0  0  0  0  0  0  0
    1.2301    1.0462   -4.6282 H   0  0  0  0  0  0  0  0  0  0  0  0
    0.6771   -0.5337   -4.0571 H   0  0  0  0  0  0  0  0  0  0  0  0
    3.8743   -0.1832   -0.0500 H   0  0  0  0  0  0  0  0  0  0  0  0
    1.7036    8.6534    0.3645 H   0  0  0  0  0  0  0  0  0  0  0  0
    1.1229    8.1383    1.8923 H   0  0  0  0  0  0  0  0  0  0  0  0
    2.7869    7.7064    1.3821 H   0  0  0  0  0  0  0  0  0  0  0  0
    4.3850    7.4132   -2.2790 H   0  0  0  0  0  0  0  0  0  0  0  0
    3.5905    8.8044   -2.9801 H   0  0  0  0  0  0  0  0  0  0  0  0
    3.3714    0.0336   -4.0419 H   0  0  0  0  0  0  0  0  0  0  0  0
    5.5197   10.8797    0.1668 H   0  0  0  0  0  0  0  0  0  0  0  0
    1.4423   10.4401    1.5518 H   0  0  0  0  0  0  0  0  0  0  0  0
    5.9751   12.0700    2.3140 H   0  0  0  0  0  0  0  0  0  0  0  0
    2.1342   11.4895    3.6800 H   0  0  0  0  0  0  0  0  0  0  0  0
  2 39  1  0  0  0  0
  3 40  1  0  0  0  0
  4 21  2  0  0  0  0
  5 28  1  0  0  0  0
  5 31  1  0  0  0  0
  6 30  2  0  0  0  0
  7 31  2  0  0  0  0
  8 35  2  0  0  0  0
  8 36  1  0  0  0  0
  9 10  1  0  0  0  0
  9 11  1  0  0  0  0
  9 17  1  0  0  0  0
  9 37  1  1  0  0  0
 10 12  1  0  0  0  0
 10 19  1  0  0  0  0
 10 38  1  6  0  0  0
 11 13  1  0  0  0  0
 11 16  1  0  0  0  0
 11 22  1  6  0  0  0
 12  1  1  1  0  0  0
 12 14  1  0  0  0  0
 12 15  1  0  0  0  0
 13 18  1  0  0  0  0
 13 21  1  6  0  0  0
 13  2  1  0  0  0  0
 14 20  1  0  0  0  0
 14 24  1  0  0  0  0
 14 25  1  6  0  0  0
 15  3  1  0  0  0  0
 15 16  1  0  0  0  0
 15 41  1  6  0  0  0
 16 42  1  0  0  0  0
 16 43  1  0  0  0  0
 17 18  1  0  0  0  0
 17 44  1  0  0  0  0
 17 45  1  0  0  0  0
 18 27  1  0  0  0  0
 18 46  1  6  0  0  0
 19 23  1  0  0  0  0
 19 47  1  0  0  0  0
 19 48  1  0  0  0  0
 20 23  1  0  0  0  0
 20 26  2  0  0  0  0
 21 28  1  0  0  0  0
 22 49  1  0  0  0  0
 22 50  1  0  0  0  0
 22 51  1  0  0  0  0
 23 52  1  0  0  0  0
 23 53  1  0  0  0  0
 24 29  2  0  0  0  0
 24 54  1  0  0  0  0
 25 55  1  0  0  0  0
 25 56  1  0  0  0  0
 25 57  1  0  0  0  0
 26 30  1  0  0  0  0
 26 58  1  0  0  0  0
 27 59  1  0  0  0  0
 27 60  1  0  0  0  0
 27 61  1  0  0  0  0
 28 62  1  0  0  0  0
 28 63  1  0  0  0  0
 29 30  1  0  0  0  0
 29 64  1  0  0  0  0
 31 32  1  0  0  0  0
 32 33  2  0  0  0  0
 32 34  1  0  0  0  0
 33 35  1  0  0  0  0
 33 65  1  0  0  0  0
 34 36  2  0  0  0  0
 34 66  1  0  0  0  0
 35 67  1  0  0  0  0
 36 68  1  0  0  0  0
M  END
>  <DRUGBANK_ID>
DB11487

>  <COMMON_NAME>
Dexamethasone isonicotinate

>  <CAS_NUMBER>
2265-64-7

>  <UNII>
8LGC0BOA71

>  <SYNONYMS>
Dexamethasone 21-(4-Pyridinecarboxylate); Dexamethasone-21-isonicotinate

$$$$
