
 OpenBabel10282417223D

 52 48  0  0  0  0  0  0  0  0999 V2000
   -1.1000    0.2930   -1.1081 Fe  0  1  0  0  0  0  0  0  0  0  0  0
    1.0828    2.1766    1.5345 O   0  0  0  0  0  0  0  0  0  0  0  0
    0.8737   -0.9994    0.4855 O   0  0  0  0  0  0  0  0  0  0  0  0
    2.9438   -1.5026   -1.6056 O   0  0  0  0  0  0  0  0  0  0  0  0
    1.8099   -2.2073   -4.0881 O   0  0  0  0  0  0  0  0  0  0  0  0
    0.4013   -2.3165   -4.0172 C   0  0  2  0  0  0  0  0  0  0  0  0
    0.2539   -3.7279   -5.9044 O   0  0  0  0  0  0  0  0  0  0  0  0
   -0.2387   -2.5216   -5.3543 C   0  0  1  0  0  0  0  0  0  0  0  0
   -2.4215   -2.6073   -6.4042 O   0  0  0  0  0  0  0  0  0  0  0  0
   -1.7726   -2.5237   -5.1529 C   0  0  2  0  0  0  0  0  0  0  0  0
   -4.1225   -0.1855   -3.3533 O   0  0  0  0  0  0  0  0  0  0  0  0
   -3.7846   -1.3792   -4.0758 C   0  0  0  0  0  0  0  0  0  0  0  0
   -2.3113   -1.2685   -4.4237 C   0  0  1  0  0  0  0  0  0  0  0  0
   -1.6012   -1.0085   -3.2011 O   0  0  0  0  0  0  0  0  0  0  0  0
   -0.2320   -1.0375   -3.5753 C   0  0  2  0  0  0  0  0  0  0  0  0
    0.1212    0.0965   -4.3303 O   0  0  0  0  0  0  0  0  0  0  0  0
    1.4893    0.4944   -4.0883 C   0  0  0  0  0  0  0  0  0  0  0  0
    0.3609    1.1072   -2.2088 O   0  0  0  0  0  0  0  0  0  0  0  0
    1.7248    0.5627   -2.5860 C   0  0  1  0  0  0  0  0  0  0  0  0
    1.9245   -0.5269   -1.4890 C   0  0  2  0  0  0  0  0  0  0  0  0
    1.7145    0.0888   -0.0326 C   0  0  1  0  0  0  0  0  0  0  0  0
    1.0189    1.6091    0.2483 C   0  0  2  0  0  0  0  0  0  0  0  0
    1.1916    2.7867   -0.7216 C   0  0  0  0  0  0  0  0  0  0  0  0
    0.1521    3.1856   -1.3697 O   0  0  0  0  0  0  0  0  0  0  0  0
   -1.6304   -0.4925    0.3601 O   0  5  0  0  0  0  0  0  0  0  0  0
    1.5418   -0.0987    2.8051 O   0  5  0  0  0  0  0  0  0  0  0  0
    3.9032    1.5417   -0.8986 O   0  5  0  0  0  0  0  0  0  0  0  0
    1.3734    1.4478    2.1535 H   0  0  0  0  0  0  0  0  0  0  0  0
    1.0521   -1.0216    1.4858 H   0  0  0  0  0  0  0  0  0  0  0  0
    2.7760   -2.1690   -0.9002 H   0  0  0  0  0  0  0  0  0  0  0  0
    2.0904   -1.8524   -4.9521 H   0  0  0  0  0  0  0  0  0  0  0  0
    0.1932   -3.1120   -3.2950 H   0  0  0  0  0  0  0  0  0  0  0  0
    0.2390   -4.4156   -5.2142 H   0  0  0  0  0  0  0  0  0  0  0  0
    0.0620   -1.7163   -6.0391 H   0  0  0  0  0  0  0  0  0  0  0  0
   -2.1016   -1.8711   -6.9589 H   0  0  0  0  0  0  0  0  0  0  0  0
   -2.0142   -3.4103   -4.5530 H   0  0  0  0  0  0  0  0  0  0  0  0
   -4.0043   -0.3792   -2.4139 H   0  0  0  0  0  0  0  0  0  0  0  0
   -4.3842   -1.4400   -4.9861 H   0  0  0  0  0  0  0  0  0  0  0  0
   -3.9851   -2.2478   -3.4383 H   0  0  0  0  0  0  0  0  0  0  0  0
   -2.1922   -0.3650   -5.0365 H   0  0  0  0  0  0  0  0  0  0  0  0
    0.0473   -0.9127   -2.5869 H   0  0  0  0  0  0  0  0  0  0  0  0
    1.5247    1.5295   -4.4703 H   0  0  0  0  0  0  0  0  0  0  0  0
    2.2405   -0.0230   -4.6744 H   0  0  0  0  0  0  0  0  0  0  0  0
    0.4342    2.0123   -2.6631 H   0  0  0  0  0  0  0  0  0  0  0  0
    2.5324    1.2781   -2.5680 H   0  0  0  0  0  0  0  0  0  0  0  0
    1.1337   -1.2702   -1.5254 H   0  0  0  0  0  0  0  0  0  0  0  0
    2.6347    0.0317    0.5298 H   0  0  0  0  0  0  0  0  0  0  0  0
   -0.0681    1.4808    0.2225 H   0  0  0  0  0  0  0  0  0  0  0  0
    2.1694    3.1426   -1.0128 H   0  0  0  0  0  0  0  0  0  0  0  0
   -0.8503   -0.5224    0.9369 H   0  0  0  0  0  0  0  0  0  0  0  0
    2.3696   -0.3302    2.4090 H   0  0  0  0  0  0  0  0  0  0  0  0
    3.8139    0.6014   -0.9133 H   0  0  0  0  0  0  0  0  0  0  0  0
  2 28  1  0  0  0  0
  3 29  1  0  0  0  0
  4 30  1  0  0  0  0
  5 31  1  0  0  0  0
  6  5  1  0  0  0  0
  6  8  1  0  0  0  0
  6 32  1  1  0  0  0
  7 33  1  0  0  0  0
  8  7  1  0  0  0  0
  8 10  1  0  0  0  0
  8 34  1  6  0  0  0
  9 35  1  0  0  0  0
 10  9  1  0  0  0  0
 10 13  1  0  0  0  0
 10 36  1  1  0  0  0
 11 12  1  0  0  0  0
 11 37  1  0  0  0  0
 12 38  1  0  0  0  0
 12 39  1  0  0  0  0
 13 12  1  0  0  0  0
 13 14  1  0  0  0  0
 13 40  1  6  0  0  0
 14 15  1  0  0  0  0
 15  6  1  0  0  0  0
 15 16  1  0  0  0  0
 15 41  1  1  0  0  0
 16 17  1  0  0  0  0
 17 42  1  0  0  0  0
 17 43  1  0  0  0  0
 18 44  1  0  0  0  0
 19 17  1  0  0  0  0
 19 18  1  0  0  0  0
 19 45  1  1  0  0  0
 20 46  1  6  0  0  0
 20 19  1  0  0  0  0
 20  4  1  0  0  0  0
 21  3  1  0  0  0  0
 21 20  1  0  0  0  0
 21 47  1  1  0  0  0
 22 48  1  6  0  0  0
 22 21  1  0  0  0  0
 22  2  1  0  0  0  0
 23 22  1  0  0  0  0
 23 24  2  0  0  0  0
 23 49  1  0  0  0  0
 25 50  1  0  0  0  0
 26 51  1  0  0  0  0
 27 52  1  0  0  0  0
M  CHG  4   1   3  25  -1  26  -1  27  -1
M  END
>  <DRUGBANK_ID>
DB15763

>  <COMMON_NAME>
Iron polymaltose

>  <CAS_NUMBER>
53858-86-9

>  <UNII>
UM5219H89V

>  <SYNONYMS>
Ferric hydroxide polymaltose complex; Ferromaltose; Iron polymaltose; Iron polymaltose complex; Iron(III)-hydroxide polymaltose complex

$$$$
