
 OpenBabel10282417173D

115108  0  0  0  0  0  0  0  0999 V2000
    0.9549    0.0888   -0.0087 C   0  0  0  0  0  0  0  0  0  0  0  0
    0.9549    0.2977    2.4647 C   0  0  0  0  0  0  0  0  0  0  0  0
   -1.9821   -1.9912   -0.8253 C   0  5  0  0  0  0  0  0  0  0  0  0
    0.4482   -2.4242    2.6126 C   0  0  0  0  0  0  0  0  0  0  0  0
   -1.0718   -0.5207    1.2883 C   0  0  0  0  0  0  0  0  0  0  0  0
    0.4482   -0.5207    1.2883 C   0  0  0  0  0  0  0  0  0  0  0  0
   -1.5618   -1.3122    0.1506 N   0  3  0  0  0  0  0  0  0  0  0  0
    0.9216   -1.8548    1.4009 O   0  0  0  0  0  0  0  0  0  0  0  0
    1.0627   -0.0759    0.0176 C   0  0  0  0  0  0  0  0  0  0  0  0
    1.0626   -0.9248   -2.3149 C   0  0  0  0  0  0  0  0  0  0  0  0
   -1.8743    2.1453    0.2614 C   0  5  0  0  0  0  0  0  0  0  0  0
    0.5560    1.6636   -3.1700 C   0  0  0  0  0  0  0  0  0  0  0  0
   -0.9640    0.1730   -1.3937 C   0  0  0  0  0  0  0  0  0  0  0  0
    0.5560    0.1730   -1.3937 C   0  0  0  0  0  0  0  0  0  0  0  0
   -1.4540    1.2346   -0.5028 N   0  3  0  0  0  0  0  0  0  0  0  0
    1.0293    1.4310   -1.8515 O   0  0  0  0  0  0  0  0  0  0  0  0
    1.0619   -0.0731    0.0288 C   0  0  0  0  0  0  0  0  0  0  0  0
    1.0619   -2.2934   -1.0809 C   0  0  0  0  0  0  0  0  0  0  0  0
   -1.8751    1.7072   -1.3217 C   0  5  0  0  0  0  0  0  0  0  0  0
    0.5552   -1.0022   -3.4817 C   0  0  0  0  0  0  0  0  0  0  0  0
   -0.9648   -0.8629   -1.1670 C   0  0  0  0  0  0  0  0  0  0  0  0
    0.5552   -0.8629   -1.1670 C   0  0  0  0  0  0  0  0  0  0  0  0
   -1.4548    0.5205   -1.2503 N   0  3  0  0  0  0  0  0  0  0  0  0
    1.0285   -0.2644   -2.3646 O   0  0  0  0  0  0  0  0  0  0  0  0
    0.9088   -0.0405    0.0066 C   0  0  0  0  0  0  0  0  0  0  0  0
    0.9088    2.3366   -0.7079 C   0  0  0  0  0  0  0  0  0  0  0  0
   -2.0282   -0.4106    2.2103 C   0  5  0  0  0  0  0  0  0  0  0  0
    0.4021    3.0427    1.9250 C   0  0  0  0  0  0  0  0  0  0  0  0
   -1.1179    1.3543    0.3355 C   0  0  0  0  0  0  0  0  0  0  0  0
    0.4021    1.3543    0.3355 C   0  0  0  0  0  0  0  0  0  0  0  0
   -1.6079    0.4043    1.3447 N   0  3  0  0  0  0  0  0  0  0  0  0
    0.8755    1.7397    1.6177 O   0  0  0  0  0  0  0  0  0  0  0  0
    1.0106    0.0775   -0.0623 C   0  0  0  0  0  0  0  0  0  0  0  0
    1.0105    2.5581   -0.1504 C   0  0  0  0  0  0  0  0  0  0  0  0
   -1.9264   -0.8395    1.9754 C   0  5  0  0  0  0  0  0  0  0  0  0
    0.5039    2.5732    2.5755 C   0  0  0  0  0  0  0  0  0  0  0  0
   -1.0161    1.3432    0.6097 C   0  0  0  0  0  0  0  0  0  0  0  0
    0.5039    1.3432    0.6097 C   0  0  0  0  0  0  0  0  0  0  0  0
   -1.5061    0.1683    1.3448 N   0  3  0  0  0  0  0  0  0  0  0  0
    0.9772    1.3908    1.9476 O   0  0  0  0  0  0  0  0  0  0  0  0
    0.9169   -0.0266    0.0489 C   0  0  0  0  0  0  0  0  0  0  0  0
    0.9169   -1.6442   -1.8337 C   0  0  0  0  0  0  0  0  0  0  0  0
   -2.0201    2.1377   -0.5071 C   0  5  0  0  0  0  0  0  0  0  0  0
    0.4103    0.4757   -3.5475 C   0  0  0  0  0  0  0  0  0  0  0  0
   -1.1097   -0.2919   -1.3594 C   0  0  0  0  0  0  0  0  0  0  0  0
    0.4103   -0.2919   -1.3594 C   0  0  0  0  0  0  0  0  0  0  0  0
   -1.5997    1.0159   -0.9006 N   0  3  0  0  0  0  0  0  0  0  0  0
    0.8836    0.7236   -2.2319 O   0  0  0  0  0  0  0  0  0  0  0  0
    1.0897    0.0439   -0.0048 Tc  0  3  0  0  0  0  0  0  0  0  0  0
    0.5982    1.0940   -0.0936 H   0  0  0  0  0  0  0  0  0  0  0  0
    0.5982   -0.4873   -0.8368 H   0  0  0  0  0  0  0  0  0  0  0  0
    2.0249    0.0888   -0.0087 H   0  0  0  0  0  0  0  0  0  0  0  0
    0.5982    1.3029    2.3798 H   0  0  0  0  0  0  0  0  0  0  0  0
    0.5982   -0.1314    3.3777 H   0  0  0  0  0  0  0  0  0  0  0  0
    2.0249    0.2977    2.4647 H   0  0  0  0  0  0  0  0  0  0  0  0
    0.8049   -1.8481    3.4407 H   0  0  0  0  0  0  0  0  0  0  0  0
   -0.6218   -2.4243    2.6126 H   0  0  0  0  0  0  0  0  0  0  0  0
    0.8049   -3.4295    2.6974 H   0  0  0  0  0  0  0  0  0  0  0  0
   -1.4285   -0.9499    2.2013 H   0  0  0  0  0  0  0  0  0  0  0  0
   -1.4284    0.4845    1.2034 H   0  0  0  0  0  0  0  0  0  0  0  0
    0.7060   -1.0239    0.3626 H   0  0  0  0  0  0  0  0  0  0  0  0
    0.7060    0.6968    0.6661 H   0  0  0  0  0  0  0  0  0  0  0  0
    2.1327   -0.0759    0.0176 H   0  0  0  0  0  0  0  0  0  0  0  0
    0.7060   -1.8728   -1.9699 H   0  0  0  0  0  0  0  0  0  0  0  0
    0.7060   -0.7496   -3.3084 H   0  0  0  0  0  0  0  0  0  0  0  0
    2.1326   -0.9248   -2.3149 H   0  0  0  0  0  0  0  0  0  0  0  0
    0.9126    0.8908   -3.8184 H   0  0  0  0  0  0  0  0  0  0  0  0
   -0.5140    1.6636   -3.1700 H   0  0  0  0  0  0  0  0  0  0  0  0
    0.9126    2.6115   -3.5150 H   0  0  0  0  0  0  0  0  0  0  0  0
   -1.3207    0.3482   -2.3872 H   0  0  0  0  0  0  0  0  0  0  0  0
   -1.3207   -0.7750   -1.0487 H   0  0  0  0  0  0  0  0  0  0  0  0
    0.7052   -0.5241    0.9312 H   0  0  0  0  0  0  0  0  0  0  0  0
    0.7052    0.9339   -0.0318 H   0  0  0  0  0  0  0  0  0  0  0  0
    2.1319   -0.0731    0.0288 H   0  0  0  0  0  0  0  0  0  0  0  0
    0.7052   -2.7444   -0.1785 H   0  0  0  0  0  0  0  0  0  0  0  0
    0.7052   -2.8494   -1.9227 H   0  0  0  0  0  0  0  0  0  0  0  0
    2.1319   -2.2934   -1.0809 H   0  0  0  0  0  0  0  0  0  0  0  0
    0.9119   -2.0092   -3.4210 H   0  0  0  0  0  0  0  0  0  0  0  0
   -0.5148   -1.0022   -3.4817 H   0  0  0  0  0  0  0  0  0  0  0  0
    0.9119   -0.5512   -4.3840 H   0  0  0  0  0  0  0  0  0  0  0  0
   -1.3215   -1.4189   -2.0088 H   0  0  0  0  0  0  0  0  0  0  0  0
   -1.3215   -1.3139   -0.2646 H   0  0  0  0  0  0  0  0  0  0  0  0
    0.5521   -0.3308   -0.9595 H   0  0  0  0  0  0  0  0  0  0  0  0
    0.5521   -0.7320    0.7411 H   0  0  0  0  0  0  0  0  0  0  0  0
    1.9788   -0.0405    0.0066 H   0  0  0  0  0  0  0  0  0  0  0  0
    0.5521    2.0463   -1.6740 H   0  0  0  0  0  0  0  0  0  0  0  0
    0.5521    3.3185   -0.4763 H   0  0  0  0  0  0  0  0  0  0  0  0
    1.9788    2.3366   -0.7079 H   0  0  0  0  0  0  0  0  0  0  0  0
    0.7588    3.7342    1.1905 H   0  0  0  0  0  0  0  0  0  0  0  0
   -0.6679    3.0427    1.9250 H   0  0  0  0  0  0  0  0  0  0  0  0
    0.7588    3.3331    2.8911 H   0  0  0  0  0  0  0  0  0  0  0  0
   -1.4746    2.3362    0.5671 H   0  0  0  0  0  0  0  0  0  0  0  0
   -1.4745    1.0640   -0.6306 H   0  0  0  0  0  0  0  0  0  0  0  0
    0.6539    0.0417   -1.0705 H   0  0  0  0  0  0  0  0  0  0  0  0
    0.6539   -0.7777    0.4728 H   0  0  0  0  0  0  0  0  0  0  0  0
    2.0806    0.0775   -0.0623 H   0  0  0  0  0  0  0  0  0  0  0  0
    0.6539    2.5223   -1.1586 H   0  0  0  0  0  0  0  0  0  0  0  0
    0.6539    3.4491    0.3226 H   0  0  0  0  0  0  0  0  0  0  0  0
    2.0805    2.5581   -0.1504 H   0  0  0  0  0  0  0  0  0  0  0  0
    0.8605    3.4284    2.0404 H   0  0  0  0  0  0  0  0  0  0  0  0
   -0.5661    2.5732    2.5755 H   0  0  0  0  0  0  0  0  0  0  0  0
    0.8605    2.6090    3.5836 H   0  0  0  0  0  0  0  0  0  0  0  0
   -1.3728    2.2342    1.0828 H   0  0  0  0  0  0  0  0  0  0  0  0
   -1.3728    1.3074   -0.3985 H   0  0  0  0  0  0  0  0  0  0  0  0
    0.5603   -0.7917    0.7064 H   0  0  0  0  0  0  0  0  0  0  0  0
    0.5603    0.9254    0.3828 H   0  0  0  0  0  0  0  0  0  0  0  0
    1.9869   -0.0266    0.0489 H   0  0  0  0  0  0  0  0  0  0  0  0
    0.5602   -2.4093   -1.1763 H   0  0  0  0  0  0  0  0  0  0  0  0
    0.5602   -1.8310   -2.8251 H   0  0  0  0  0  0  0  0  0  0  0  0
    1.9869   -1.6442   -1.8337 H   0  0  0  0  0  0  0  0  0  0  0  0
    0.7669   -0.4763   -3.8814 H   0  0  0  0  0  0  0  0  0  0  0  0
   -0.6597    0.4757   -3.5475 H   0  0  0  0  0  0  0  0  0  0  0  0
    0.7669    1.2408   -4.2049 H   0  0  0  0  0  0  0  0  0  0  0  0
   -1.4664   -0.4787   -2.3507 H   0  0  0  0  0  0  0  0  0  0  0  0
   -1.4664   -1.0570   -0.7019 H   0  0  0  0  0  0  0  0  0  0  0  0
  1 50  1  0  0  0  0
  1 51  1  0  0  0  0
  1 52  1  0  0  0  0
  2 53  1  0  0  0  0
  2 54  1  0  0  0  0
  2 55  1  0  0  0  0
  4 56  1  0  0  0  0
  4 57  1  0  0  0  0
  4 58  1  0  0  0  0
  5 59  1  0  0  0  0
  5 60  1  0  0  0  0
  6  1  1  0  0  0  0
  6  2  1  0  0  0  0
  6  5  1  0  0  0  0
  7  3  3  0  0  0  0
  7  5  1  0  0  0  0
  8  4  1  0  0  0  0
  8  6  1  0  0  0  0
  9 61  1  0  0  0  0
  9 62  1  0  0  0  0
  9 63  1  0  0  0  0
 10 64  1  0  0  0  0
 10 65  1  0  0  0  0
 10 66  1  0  0  0  0
 12 67  1  0  0  0  0
 12 68  1  0  0  0  0
 12 69  1  0  0  0  0
 13 70  1  0  0  0  0
 13 71  1  0  0  0  0
 14  9  1  0  0  0  0
 14 10  1  0  0  0  0
 14 13  1  0  0  0  0
 15 11  3  0  0  0  0
 15 13  1  0  0  0  0
 16 12  1  0  0  0  0
 16 14  1  0  0  0  0
 17 72  1  0  0  0  0
 17 73  1  0  0  0  0
 17 74  1  0  0  0  0
 18 75  1  0  0  0  0
 18 76  1  0  0  0  0
 18 77  1  0  0  0  0
 20 78  1  0  0  0  0
 20 79  1  0  0  0  0
 20 80  1  0  0  0  0
 21 81  1  0  0  0  0
 21 82  1  0  0  0  0
 22 17  1  0  0  0  0
 22 18  1  0  0  0  0
 22 21  1  0  0  0  0
 23 19  3  0  0  0  0
 23 21  1  0  0  0  0
 24 20  1  0  0  0  0
 24 22  1  0  0  0  0
 25 83  1  0  0  0  0
 25 84  1  0  0  0  0
 25 85  1  0  0  0  0
 26 86  1  0  0  0  0
 26 87  1  0  0  0  0
 26 88  1  0  0  0  0
 28 89  1  0  0  0  0
 28 90  1  0  0  0  0
 28 91  1  0  0  0  0
 29 92  1  0  0  0  0
 29 93  1  0  0  0  0
 30 25  1  0  0  0  0
 30 26  1  0  0  0  0
 30 29  1  0  0  0  0
 31 27  3  0  0  0  0
 31 29  1  0  0  0  0
 32 28  1  0  0  0  0
 32 30  1  0  0  0  0
 33 94  1  0  0  0  0
 33 95  1  0  0  0  0
 33 96  1  0  0  0  0
 34 97  1  0  0  0  0
 34 98  1  0  0  0  0
 34 99  1  0  0  0  0
 36100  1  0  0  0  0
 36101  1  0  0  0  0
 36102  1  0  0  0  0
 37103  1  0  0  0  0
 37104  1  0  0  0  0
 38 33  1  0  0  0  0
 38 34  1  0  0  0  0
 38 37  1  0  0  0  0
 39 35  3  0  0  0  0
 39 37  1  0  0  0  0
 40 36  1  0  0  0  0
 40 38  1  0  0  0  0
 41105  1  0  0  0  0
 41106  1  0  0  0  0
 41107  1  0  0  0  0
 42108  1  0  0  0  0
 42109  1  0  0  0  0
 42110  1  0  0  0  0
 44111  1  0  0  0  0
 44112  1  0  0  0  0
 44113  1  0  0  0  0
 45114  1  0  0  0  0
 45115  1  0  0  0  0
 46 41  1  0  0  0  0
 46 42  1  0  0  0  0
 46 45  1  0  0  0  0
 47 43  3  0  0  0  0
 47 45  1  0  0  0  0
 48 44  1  0  0  0  0
 48 46  1  0  0  0  0
M  CHG  8   3  -1   7   1  11  -1  15   1  19  -1  23   1  27  -1  31   1
M  CHG  5  35  -1  39   1  43  -1  47   1  49   1
M  END
>  <DRUGBANK_ID>
DB09161

>  <COMMON_NAME>
Technetium Tc-99m sestamibi

>  <CAS_NUMBER>
109581-73-9

>  <UNII>
971Z4W1S09

>  <SYNONYMS>
99m Tc-sestamibi; 99m-Tc sestamibi; 99mTc sestamibi; 99mTc-sestamibi; Sestamibi; Technetium (99m Tc) sestamibi; Technetium (99mTc) sestamibi; Technetium Tc 99m sestamibi

$$$$
