
 OpenBabel10282417133D

 14 14  0  0  0  0  0  0  0  0999 V2000
    0.9050   -0.1424   -0.0886 F   0  0  0  0  0  0  0  0  0  0  0  0
    2.5260    2.0658   -1.1583 O   0  0  0  0  0  0  0  0  0  0  0  0
    6.2812    0.0790   -0.0340 O   0  0  0  0  0  0  0  0  0  0  0  0
    4.3297    1.2131   -0.0690 N   0  0  0  0  0  0  0  0  0  0  0  0
    4.3452   -1.1026   -0.0465 N   0  0  0  0  0  0  0  0  0  0  0  0
    2.9037    1.2867   -0.0419 C   0  0  2  0  0  0  0  0  0  0  0  0
    2.2540   -0.0576   -0.0785 C   0  0  0  0  0  0  0  0  0  0  0  0
    5.0543    0.0667   -0.0501 C   0  0  0  0  0  0  0  0  0  0  0  0
    2.9798   -1.1780   -0.0703 C   0  0  0  0  0  0  0  0  0  0  0  0
    4.8504    2.0751   -0.0994 H   0  0  0  0  0  0  0  0  0  0  0  0
    4.9068   -1.9461   -0.0480 H   0  0  0  0  0  0  0  0  0  0  0  0
    1.5606    1.9846   -1.2348 H   0  0  0  0  0  0  0  0  0  0  0  0
    2.6144    1.8198    0.8680 H   0  0  0  0  0  0  0  0  0  0  0  0
    2.5299   -2.1639   -0.0794 H   0  0  0  0  0  0  0  0  0  0  0  0
  1  7  1  0  0  0  0
  2 12  1  0  0  0  0
  3  8  2  0  0  0  0
  4  6  1  0  0  0  0
  4  8  1  0  0  0  0
  4 10  1  0  0  0  0
  5  8  1  0  0  0  0
  5  9  1  0  0  0  0
  5 11  1  0  0  0  0
  6  7  1  0  0  0  0
  6 13  1  1  0  0  0
  6  2  1  0  0  0  0
  7  9  2  0  0  0  0
  9 14  1  0  0  0  0
M  END
>  <DRUGBANK_ID>
DB04135

>  <SECONDARY_ACCESSION_NUMBERS>
EXPT01480

>  <COMMON_NAME>
(4S)-5-Fluoro-4-hydroxy-3,4-dihydro-2(1H)-pyrimidinone

>  <SYNONYMS>
(4S)-5-Fluoro-4-hydroxy-3,4-dihydropyrimidin-2(1H)-one

$$$$
