UA5
 OpenBabel10282417173D

 24 24  0  0  0  0  0  0  0  0999 V2000
    1.0797    0.0643   -0.2548 O   0  0  0  0  0  0  0  0  0  0  0  0
    2.5096    0.0936   -0.0398 S   0  0  0  0  0  0  0  0  0  0  0  0
    3.0839    0.0301    1.2783 O   0  0  0  0  0  0  0  0  0  0  0  0
    3.1276   -1.1506   -0.8550 O   0  0  0  0  0  0  0  0  0  0  0  0
    3.1096    1.3883   -0.9047 N   0  0  0  0  0  0  0  0  0  0  0  0
    4.0154    2.3374   -0.3614 C   0  0  0  0  0  0  0  0  0  0  0  0
    3.8915    3.6900   -0.6924 C   0  0  0  0  0  0  0  0  0  0  0  0
    4.8544    4.6089   -0.2519 C   0  0  0  0  0  0  0  0  0  0  0  0
    5.9045    4.1988    0.5818 C   0  0  0  0  0  0  0  0  0  0  0  0
    6.8712    5.1912    1.1740 C   0  0  0  0  0  0  0  0  0  0  0  0
    7.6709    5.9224    0.1112 C   0  0  0  0  0  0  0  0  0  0  0  0
    6.0199    2.8461    0.9010 C   0  0  0  0  0  0  0  0  0  0  0  0
    5.0956    1.9268    0.4142 C   0  0  0  0  0  0  0  0  0  0  0  0
    4.0622   -1.2722   -0.5971 H   0  0  0  0  0  0  0  0  0  0  0  0
    2.7803    1.4849   -1.8616 H   0  0  0  0  0  0  0  0  0  0  0  0
    3.0456    4.0603   -1.2675 H   0  0  0  0  0  0  0  0  0  0  0  0
    4.7799    5.6511   -0.5580 H   0  0  0  0  0  0  0  0  0  0  0  0
    6.3088    5.9052    1.7878 H   0  0  0  0  0  0  0  0  0  0  0  0
    7.5653    4.6828    1.8558 H   0  0  0  0  0  0  0  0  0  0  0  0
    7.0182    6.4900   -0.5590 H   0  0  0  0  0  0  0  0  0  0  0  0
    8.3663    6.6261    0.5779 H   0  0  0  0  0  0  0  0  0  0  0  0
    8.2466    5.2158   -0.4956 H   0  0  0  0  0  0  0  0  0  0  0  0
    6.8303    2.4851    1.5287 H   0  0  0  0  0  0  0  0  0  0  0  0
    5.2362    0.8846    0.6731 H   0  0  0  0  0  0  0  0  0  0  0  0
  1  2  2  0  0  0  0
  2  5  1  0  0  0  0
  2  3  2  0  0  0  0
  2  4  1  0  0  0  0
  4 14  1  0  0  0  0
  5  6  1  0  0  0  0
  5 15  1  0  0  0  0
  6 13  1  0  0  0  0
  6  7  2  0  0  0  0
  7  8  1  0  0  0  0
  7 16  1  0  0  0  0
  8  9  2  0  0  0  0
  8 17  1  0  0  0  0
  9 12  1  0  0  0  0
  9 10  1  0  0  0  0
 10 11  1  0  0  0  0
 10 18  1  0  0  0  0
 10 19  1  0  0  0  0
 11 20  1  0  0  0  0
 11 21  1  0  0  0  0
 11 22  1  0  0  0  0
 12 13  2  0  0  0  0
 12 23  1  0  0  0  0
 13 24  1  0  0  0  0
M  END
>  <DRUGBANK_ID>
DB08678

>  <COMMON_NAME>
(4-ETHYLPHENYL)SULFAMIC ACID

$$$$
