
 OpenBabel10282417193D

 26 28  0  0  0  0  0  0  0  0999 V2000
    1.0391    0.0005    0.0698 C   0  0  0  0  0  0  0  0  0  0  0  0
    0.5182   -1.0838    0.9752 C   0  0  0  0  0  0  0  0  0  0  0  0
   -0.2195   -0.7797    1.9158 O   0  0  0  0  0  0  0  0  0  0  0  0
    0.7714   -2.4705    0.6246 C   0  0  0  0  0  0  0  0  0  0  0  0
    2.0144   -2.9451    0.2502 O   0  0  0  0  0  0  0  0  0  0  0  0
    1.8714   -4.3018    0.0592 C   0  0  0  0  0  0  0  0  0  0  0  0
    2.9391   -5.2035   -0.3178 C   0  0  0  0  0  0  0  0  0  0  0  0
    4.1148   -4.8940   -0.4828 O   0  0  0  0  0  0  0  0  0  0  0  0
    2.5003   -6.6369   -0.5108 C   0  0  0  0  0  0  0  0  0  0  0  0
    3.4325   -7.6160   -0.8916 C   0  0  0  0  0  0  0  0  0  0  0  0
    3.0289   -8.9449   -1.0833 C   0  0  0  0  0  0  0  0  0  0  0  0
    1.6964   -9.3111   -0.8979 C   0  0  0  0  0  0  0  0  0  0  0  0
    0.7604   -8.3508   -0.5182 C   0  0  0  0  0  0  0  0  0  0  0  0
    1.1551   -7.0170   -0.3222 C   0  0  0  0  0  0  0  0  0  0  0  0
    0.1162   -6.0300    0.0838 C   0  0  0  0  0  0  0  0  0  0  0  0
   -1.0535   -6.3615    0.2394 O   0  0  0  0  0  0  0  0  0  0  0  0
    0.5635   -4.6742    0.2638 C   0  0  0  0  0  0  0  0  0  0  0  0
   -0.1329   -3.5151    0.6495 C   0  0  0  0  0  0  0  0  0  0  0  0
    0.6699    0.9692    0.4315 H   0  0  0  0  0  0  0  0  0  0  0  0
    0.6457   -0.1391   -0.9414 H   0  0  0  0  0  0  0  0  0  0  0  0
    2.1285    0.0264    0.0656 H   0  0  0  0  0  0  0  0  0  0  0  0
    4.4790   -7.3558   -1.0436 H   0  0  0  0  0  0  0  0  0  0  0  0
    3.7557   -9.7003   -1.3793 H   0  0  0  0  0  0  0  0  0  0  0  0
    1.3850  -10.3439   -1.0478 H   0  0  0  0  0  0  0  0  0  0  0  0
   -0.2789   -8.6463   -0.3759 H   0  0  0  0  0  0  0  0  0  0  0  0
   -1.1813   -3.4296    0.9022 H   0  0  0  0  0  0  0  0  0  0  0  0
  1  2  1  0  0  0  0
  1 19  1  0  0  0  0
  1 20  1  0  0  0  0
  1 21  1  0  0  0  0
  2  3  2  0  0  0  0
  2  4  1  0  0  0  0
  4  5  1  0  0  0  0
  4 18  2  0  0  0  0
  5  6  1  0  0  0  0
  6  7  1  0  0  0  0
  6 17  2  0  0  0  0
  7  8  2  0  0  0  0
  7  9  1  0  0  0  0
  9 10  2  0  0  0  0
  9 14  1  0  0  0  0
 10 11  1  0  0  0  0
 10 22  1  0  0  0  0
 11 12  2  0  0  0  0
 11 23  1  0  0  0  0
 12 13  1  0  0  0  0
 12 24  1  0  0  0  0
 13 14  2  0  0  0  0
 13 25  1  0  0  0  0
 14 15  1  0  0  0  0
 15 16  2  0  0  0  0
 15 17  1  0  0  0  0
 17 18  1  0  0  0  0
 18 26  1  0  0  0  0
M  END
>  <DRUGBANK_ID>
DB12155

>  <COMMON_NAME>
Napabucasin

>  <CAS_NUMBER>
83280-65-3

>  <UNII>
Z1HHM49K7O

>  <SYNONYMS>
Napabucasin

$$$$
