
 OpenBabel10282417123D

 56 58  0  0  0  0  0  0  0  0999 V2000
    1.0290   -0.0478   -0.2565 C   0  0  0  0  0  0  0  0  0  0  0  0
    0.5511    0.8245    0.8047 N   0  0  0  0  0  0  0  0  0  0  0  0
   -0.9371    0.9372    0.7326 C   0  0  0  0  0  0  0  0  0  0  0  0
   -1.7569   -0.3371    0.9945 C   0  0  0  0  0  0  0  0  0  0  0  0
   -1.6408   -0.6342    2.4380 C   0  0  0  0  0  0  0  0  0  0  0  0
   -2.0741    0.4153    3.3818 C   0  0  0  0  0  0  0  0  0  0  0  0
   -3.4728    0.2682    3.8027 C   0  0  0  0  0  0  0  0  0  0  0  0
   -3.6543   -1.1570    4.3673 C   0  0  0  0  0  0  0  0  0  0  0  0
   -3.1031   -1.4124    5.7099 O   0  0  0  0  0  0  0  0  0  0  0  0
   -1.7424   -1.5101    5.9553 C   0  0  0  0  0  0  0  0  0  0  0  0
   -0.9074   -0.3861    5.9699 C   0  0  0  0  0  0  0  0  0  0  0  0
    0.4727   -0.5024    5.7633 C   0  0  0  0  0  0  0  0  0  0  0  0
    1.0620   -1.6857    6.1817 C   0  0  0  0  0  0  0  0  0  0  0  0
    0.2245   -2.7306    6.5549 C   0  0  0  0  0  0  0  0  0  0  0  0
    0.9879   -3.7342    7.0833 O   0  0  0  0  0  0  0  0  0  0  0  0
    2.2935   -3.3339    7.0047 C   0  0  0  0  0  0  0  0  0  0  0  0
    2.4031   -2.1152    6.3698 C   0  0  0  0  0  0  0  0  0  0  0  0
    3.6489   -1.3973    6.1404 C   0  0  0  0  0  0  0  0  0  0  0  0
    3.8136   -0.0914    6.6267 C   0  0  0  0  0  0  0  0  0  0  0  0
    4.9976    0.6155    6.3904 C   0  0  0  0  0  0  0  0  0  0  0  0
    6.0189    0.0229    5.6523 C   0  0  0  0  0  0  0  0  0  0  0  0
    7.6315    0.9641    5.3563 Br  0  0  0  0  0  0  0  0  0  0  0  0
    5.8613   -1.2621    5.1369 C   0  0  0  0  0  0  0  0  0  0  0  0
    4.6797   -1.9715    5.3834 C   0  0  0  0  0  0  0  0  0  0  0  0
   -1.1773   -2.7119    6.3885 C   0  0  0  0  0  0  0  0  0  0  0  0
    1.2324    0.4176    2.0718 C   0  0  0  0  0  0  0  0  0  0  0  0
    1.2330   -1.1111    2.3378 C   0  0  0  0  0  0  0  0  0  0  0  0
    2.0109   -1.9850    2.9158 C   0  0  0  0  0  0  0  0  0  0  0  0
    0.6482    0.2719   -1.2248 H   0  0  0  0  0  0  0  0  0  0  0  0
    0.7115   -1.0834   -0.1020 H   0  0  0  0  0  0  0  0  0  0  0  0
    2.1203   -0.0271   -0.2736 H   0  0  0  0  0  0  0  0  0  0  0  0
   -1.2743    1.7451    1.3944 H   0  0  0  0  0  0  0  0  0  0  0  0
   -1.2377    1.2989   -0.2570 H   0  0  0  0  0  0  0  0  0  0  0  0
   -2.8196   -0.2507    0.7512 H   0  0  0  0  0  0  0  0  0  0  0  0
   -1.3699   -1.1861    0.4210 H   0  0  0  0  0  0  0  0  0  0  0  0
   -1.7510   -1.6898    2.7051 H   0  0  0  0  0  0  0  0  0  0  0  0
   -0.6423   -0.4769    2.7084 H   0  0  0  0  0  0  0  0  0  0  0  0
   -1.4928    0.0740    4.1749 H   0  0  0  0  0  0  0  0  0  0  0  0
   -1.6528    1.4226    3.3053 H   0  0  0  0  0  0  0  0  0  0  0  0
   -3.6805    1.0228    4.5622 H   0  0  0  0  0  0  0  0  0  0  0  0
   -4.0619    0.4751    2.9014 H   0  0  0  0  0  0  0  0  0  0  0  0
   -4.7392   -1.2865    4.4281 H   0  0  0  0  0  0  0  0  0  0  0  0
   -3.3621   -1.9473    3.6606 H   0  0  0  0  0  0  0  0  0  0  0  0
   -1.3240    0.6166    5.8768 H   0  0  0  0  0  0  0  0  0  0  0  0
    1.0629    0.3058    5.3404 H   0  0  0  0  0  0  0  0  0  0  0  0
    3.0117   -4.0045    7.4541 H   0  0  0  0  0  0  0  0  0  0  0  0
    3.0242    0.3872    7.2025 H   0  0  0  0  0  0  0  0  0  0  0  0
    5.1129    1.6203    6.7894 H   0  0  0  0  0  0  0  0  0  0  0  0
    6.6493   -1.7192    4.5436 H   0  0  0  0  0  0  0  0  0  0  0  0
    4.5589   -2.9612    4.9478 H   0  0  0  0  0  0  0  0  0  0  0  0
   -1.7852   -3.5695    6.6416 H   0  0  0  0  0  0  0  0  0  0  0  0
    2.2726    0.7608    2.0616 H   0  0  0  0  0  0  0  0  0  0  0  0
    0.7818    0.9907    2.9016 H   0  0  0  0  0  0  0  0  0  0  0  0
    0.3578   -1.6568    1.9761 H   0  0  0  0  0  0  0  0  0  0  0  0
    1.5743   -2.9785    3.1002 H   0  0  0  0  0  0  0  0  0  0  0  0
    3.0034   -1.7656    3.2774 H   0  0  0  0  0  0  0  0  0  0  0  0
  1  2  1  0  0  0  0
  1 29  1  0  0  0  0
  1 30  1  0  0  0  0
  1 31  1  0  0  0  0
  2  3  1  0  0  0  0
  2 26  1  0  0  0  0
  3  4  1  0  0  0  0
  3 32  1  0  0  0  0
  3 33  1  0  0  0  0
  4  5  1  0  0  0  0
  4 34  1  0  0  0  0
  4 35  1  0  0  0  0
  5  6  1  0  0  0  0
  5 36  1  0  0  0  0
  5 37  1  0  0  0  0
  6  7  1  0  0  0  0
  6 38  1  0  0  0  0
  6 39  1  0  0  0  0
  7  8  1  0  0  0  0
  7 40  1  0  0  0  0
  7 41  1  0  0  0  0
  8  9  1  0  0  0  0
  8 42  1  0  0  0  0
  8 43  1  0  0  0  0
  9 10  1  0  0  0  0
 10 11  2  0  0  0  0
 10 25  1  0  0  0  0
 11 12  1  0  0  0  0
 11 44  1  0  0  0  0
 12 13  2  0  0  0  0
 12 45  1  0  0  0  0
 13 14  1  0  0  0  0
 13 17  1  0  0  0  0
 14 15  1  0  0  0  0
 14 25  2  0  0  0  0
 15 16  1  0  0  0  0
 16 17  2  0  0  0  0
 16 46  1  0  0  0  0
 17 18  1  0  0  0  0
 18 19  2  0  0  0  0
 18 24  1  0  0  0  0
 19 20  1  0  0  0  0
 19 47  1  0  0  0  0
 20 21  2  0  0  0  0
 20 48  1  0  0  0  0
 21 22  1  0  0  0  0
 21 23  1  0  0  0  0
 23 24  2  0  0  0  0
 23 49  1  0  0  0  0
 24 50  1  0  0  0  0
 25 51  1  0  0  0  0
 26 27  1  0  0  0  0
 26 52  1  0  0  0  0
 26 53  1  0  0  0  0
 27 28  2  0  0  0  0
 27 54  1  0  0  0  0
 28 55  1  0  0  0  0
 28 56  1  0  0  0  0
M  END
>  <DRUGBANK_ID>
DB02339

>  <SECONDARY_ACCESSION_NUMBERS>
EXPT02742

>  <COMMON_NAME>
Allyl-{6-[3-(4-Bromo-Phenyl)-Benzofuran-6-Yloxy]-Hexyl-}-Methyl-Amin

$$$$
