
 OpenBabel10282417223D

 34 33  0  0  1  0  0  0  0  0999 V2000
    5.4505    6.4294   -3.8492 C   0  0  0  0  0  0  0  0  0  0  0  0
    6.2139    5.2128   -3.3339 C   0  0  0  0  0  0  0  0  0  0  0  0
    5.4142    4.3825   -2.3339 C   0  0  0  0  0  0  0  0  0  0  0  0
    4.0343    3.9602   -2.8744 C   0  0  1  0  0  0  0  0  0  0  0  0
    4.2435    2.9871   -4.0379 C   0  0  0  0  0  0  0  0  0  0  0  0
    3.1409    3.3355   -1.7993 C   0  0  0  0  0  0  0  0  0  0  0  0
    2.5611    4.3219   -0.7256 C   0  0  2  0  0  0  0  0  0  0  0  0
    1.0208    4.2163   -0.7535 C   0  0  0  0  0  0  0  0  0  0  0  0
    0.5000    4.5586   -2.0769 N   0  0  0  0  0  0  0  0  0  0  0  0
    2.9945    5.8024   -0.8549 C   0  0  0  0  0  0  0  0  0  0  0  0
    2.4974    6.7354    0.2180 C   0  0  0  0  0  0  0  0  0  0  0  0
    3.4799    7.3053    0.9517 O   0  0  0  0  0  0  0  0  0  0  0  0
    1.3174    7.0106    0.4009 O   0  0  0  0  0  0  0  0  0  0  0  0
    4.5262    6.1571   -4.3679 H   0  0  0  0  0  0  0  0  0  0  0  0
    6.0596    6.9767   -4.5717 H   0  0  0  0  0  0  0  0  0  0  0  0
    5.1874    7.1051   -3.0285 H   0  0  0  0  0  0  0  0  0  0  0  0
    6.5202    4.5812   -4.1716 H   0  0  0  0  0  0  0  0  0  0  0  0
    7.1330    5.5507   -2.8441 H   0  0  0  0  0  0  0  0  0  0  0  0
    5.9724    3.4924   -2.0229 H   0  0  0  0  0  0  0  0  0  0  0  0
    5.3843    4.9640   -1.4198 H   0  0  0  0  0  0  0  0  0  0  0  0
    3.4742    4.8068   -3.2813 H   0  0  0  0  0  0  0  0  0  0  0  0
    4.8000    2.1066   -3.7039 H   0  0  0  0  0  0  0  0  0  0  0  0
    3.2908    2.6648   -4.4660 H   0  0  0  0  0  0  0  0  0  0  0  0
    4.8070    3.4613   -4.8475 H   0  0  0  0  0  0  0  0  0  0  0  0
    2.3101    2.8321   -2.3166 H   0  0  0  0  0  0  0  0  0  0  0  0
    3.6710    2.5112   -1.3052 H   0  0  0  0  0  0  0  0  0  0  0  0
    2.9043    3.9551    0.2529 H   0  0  0  0  0  0  0  0  0  0  0  0
    0.7147    3.1968   -0.4949 H   0  0  0  0  0  0  0  0  0  0  0  0
    0.5665    4.8624   -0.0010 H   0  0  0  0  0  0  0  0  0  0  0  0
   -0.5165    4.5900   -2.0417 H   0  0  0  0  0  0  0  0  0  0  0  0
    0.7945    5.4973   -2.3406 H   0  0  0  0  0  0  0  0  0  0  0  0
    4.0671    5.8922   -0.7864 H   0  0  0  0  0  0  0  0  0  0  0  0
    2.7250    6.2279   -1.8260 H   0  0  0  0  0  0  0  0  0  0  0  0
    4.3947    7.0724    0.6995 H   0  0  0  0  0  0  0  0  0  0  0  0
  1  2  1  0  0  0  0
  1 14  1  0  0  0  0
  1 15  1  0  0  0  0
  1 16  1  0  0  0  0
  2  3  1  0  0  0  0
  2 17  1  0  0  0  0
  2 18  1  0  0  0  0
  3 19  1  0  0  0  0
  3 20  1  0  0  0  0
  4  3  1  0  0  0  0
  4  5  1  0  0  0  0
  4  6  1  0  0  0  0
  4 21  1  6  0  0  0
  5 22  1  0  0  0  0
  5 23  1  0  0  0  0
  5 24  1  0  0  0  0
  6 25  1  0  0  0  0
  6 26  1  0  0  0  0
  7 10  1  0  0  0  0
  7 27  1  1  0  0  0
  7  8  1  0  0  0  0
  7  6  1  0  0  0  0
  8  9  1  0  0  0  0
  8 28  1  0  0  0  0
  8 29  1  0  0  0  0
  9 30  1  0  0  0  0
  9 31  1  0  0  0  0
 10 11  1  0  0  0  0
 10 32  1  0  0  0  0
 10 33  1  0  0  0  0
 11 12  1  0  0  0  0
 11 13  2  0  0  0  0
 12 34  1  0  0  0  0
M  END
>  <DRUGBANK_ID>
DB15264

>  <COMMON_NAME>
PD-0299685

>  <CAS_NUMBER>
313651-33-1

>  <UNII>
61SA6645RL

$$$$
