
 OpenBabel10282417143D

 37 38  0  0  0  0  0  0  0  0999 V2000
   -1.7023    0.0097   -0.5658 O   0  0  0  0  0  0  0  0  0  0  0  0
   -0.8378   -0.0450    0.5767 C   0  0  1  0  0  0  0  0  0  0  0  0
   -0.0399   -1.3082    0.5046 C   0  0  0  0  0  0  0  0  0  0  0  0
    1.1696   -0.9247   -0.3662 C   0  0  1  0  0  0  0  0  0  0  0  0
    1.4582    0.4004    0.0089 O   0  0  0  0  0  0  0  0  0  0  0  0
    0.2568    0.9959    0.4830 C   0  0  2  0  0  0  0  0  0  0  0  0
    0.5351    1.7585    1.8011 C   0  0  0  0  0  0  0  0  0  0  0  0
    0.1044    3.1455    1.7619 O   0  0  0  0  0  0  0  0  0  0  0  0
    0.8654    3.9534    0.5850 P   0  0  0  0  0  0  0  0  0  0  0  0
    2.3240    3.6837    0.5267 O   0  0  0  0  0  0  0  0  0  0  0  0
   -0.0620    3.4460   -0.6015 O   0  0  0  0  0  0  0  0  0  0  0  0
    0.3999    5.4724    0.4830 O   0  0  0  0  0  0  0  0  0  0  0  0
    2.3228   -1.7833   -0.1139 N   0  0  0  0  0  0  0  0  0  0  0  0
    2.0692   -3.1368   -0.1988 C   0  0  0  0  0  0  0  0  0  0  0  0
    2.8494   -4.0602    0.3628 C   0  0  0  0  0  0  0  0  0  0  0  0
    2.3671   -5.4231    0.4946 C   0  0  0  0  0  0  0  0  0  0  0  0
    3.0226   -6.4189    1.0961 C   0  0  0  0  0  0  0  0  0  0  0  0
    2.3789   -8.1447    1.2778 Br  0  0  0  0  0  0  0  0  0  0  0  0
    4.1672   -3.5814    0.8950 C   0  0  0  0  0  0  0  0  0  0  0  0
    4.9400   -4.2751    1.5171 O   0  0  0  0  0  0  0  0  0  0  0  0
    4.4694   -2.2736    0.6307 N   0  0  0  0  0  0  0  0  0  0  0  0
    3.5494   -1.3053    0.3445 C   0  0  0  0  0  0  0  0  0  0  0  0
    3.8787   -0.1350    0.5492 O   0  0  0  0  0  0  0  0  0  0  0  0
   -2.2059    0.8441   -0.5294 H   0  0  0  0  0  0  0  0  0  0  0  0
   -1.4689    0.0515    1.4615 H   0  0  0  0  0  0  0  0  0  0  0  0
    0.3022   -1.5584    1.5152 H   0  0  0  0  0  0  0  0  0  0  0  0
   -0.6076   -2.1447    0.0918 H   0  0  0  0  0  0  0  0  0  0  0  0
    0.9273   -0.9646   -1.4383 H   0  0  0  0  0  0  0  0  0  0  0  0
   -0.0319    1.5623   -0.3747 H   0  0  0  0  0  0  0  0  0  0  0  0
    0.0659    1.2471    2.6515 H   0  0  0  0  0  0  0  0  0  0  0  0
    1.6081    1.7601    2.0259 H   0  0  0  0  0  0  0  0  0  0  0  0
   -0.9387    3.3701   -0.1697 H   0  0  0  0  0  0  0  0  0  0  0  0
    1.1154    6.0877    0.2180 H   0  0  0  0  0  0  0  0  0  0  0  0
    1.1163   -3.4007   -0.6542 H   0  0  0  0  0  0  0  0  0  0  0  0
    1.3686   -5.6216    0.1015 H   0  0  0  0  0  0  0  0  0  0  0  0
    4.0018   -6.3043    1.5417 H   0  0  0  0  0  0  0  0  0  0  0  0
    5.3419   -1.9454    1.0130 H   0  0  0  0  0  0  0  0  0  0  0  0
  1 24  1  0  0  0  0
  2  1  1  0  0  0  0
  2  6  1  0  0  0  0
  2 25  1  1  0  0  0
  3  2  1  0  0  0  0
  3 26  1  0  0  0  0
  3 27  1  0  0  0  0
  4  3  1  0  0  0  0
  4  5  1  0  0  0  0
  4 28  1  6  0  0  0
  4 13  1  0  0  0  0
  6  5  1  0  0  0  0
  6 29  1  6  0  0  0
  6  7  1  0  0  0  0
  7  8  1  0  0  0  0
  7 30  1  0  0  0  0
  7 31  1  0  0  0  0
  8  9  1  0  0  0  0
 10  9  2  0  0  0  0
 11  9  1  0  0  0  0
 11 32  1  0  0  0  0
 12  9  1  0  0  0  0
 12 33  1  0  0  0  0
 14 13  1  0  0  0  0
 14 34  1  0  0  0  0
 15 14  2  0  0  0  0
 15 16  1  0  0  0  0
 16 17  2  0  0  0  0
 16 35  1  0  0  0  0
 17 36  1  0  0  0  0
 18 17  1  0  0  0  0
 19 15  1  0  0  0  0
 19 20  2  0  0  0  0
 19 21  1  0  0  0  0
 21 37  1  0  0  0  0
 22 13  1  0  0  0  0
 22 21  1  0  0  0  0
 22 23  2  0  0  0  0
M  END
>  <DRUGBANK_ID>
DB04438

>  <SECONDARY_ACCESSION_NUMBERS>
EXPT00784

>  <COMMON_NAME>
Brivudine monophosphate

>  <CAS_NUMBER>
80860-82-8

>  <UNII>
O7N0Y11U8K

>  <SYNONYMS>
Bvdu 5'-monophosphate; BVDU-MP

$$$$
