
 OpenBabel10282417183D

118124  0  0  0  0  0  0  0  0999 V2000
   -6.3570   -3.3780    3.2570 C   0  0  1  0  0  0  0  0  0  0  0  0
   -6.4387   -4.2758    4.7041 C   0  0  0  0  0  0  0  0  0  0  0  0
   -7.0381   -3.5586    6.1347 C   0  0  0  0  0  0  0  0  0  0  0  0
   -8.0217   -2.3866    5.9371 C   0  0  1  0  0  0  0  0  0  0  0  0
   -8.0802   -1.7723    4.5541 C   0  0  2  0  0  0  0  0  0  0  0  0
   -7.6870   -2.6071    3.3801 O   0  0  0  0  0  0  0  0  0  0  0  0
   -1.3542   -0.2639    5.3822 C   0  0  1  0  0  0  0  0  0  0  0  0
   -2.6884   -0.4622    6.0787 C   0  0  2  0  0  0  0  0  0  0  0  0
   -1.2132   -1.3210    4.1858 C   0  0  0  0  0  0  0  0  0  0  0  0
   -1.9737    3.3132    2.2963 C   0  0  1  0  0  0  0  0  0  0  0  0
   -2.9556    2.7362    3.2308 C   0  0  1  0  0  0  0  0  0  0  0  0
   -2.6525    2.8748    4.6321 O   0  0  0  0  0  0  0  0  0  0  0  0
   -1.4455    2.2132    5.0344 C   0  0  2  0  0  0  0  0  0  0  0  0
   -0.4164    2.9777    4.2625 C   0  0  0  0  0  0  0  0  0  0  0  0
   -0.6233    2.8061    2.7291 C   0  0  2  0  0  0  0  0  0  0  0  0
   -2.3016    2.9405    0.9440 O   0  0  0  0  0  0  0  0  0  0  0  0
   -1.2108    0.8999    4.5897 O   0  0  0  0  0  0  0  0  0  0  0  0
   -4.2753    3.3813    2.8629 C   0  0  0  0  0  0  0  0  0  0  0  0
   -1.3222    2.2888    6.1223 H   0  0  0  0  0  0  0  0  0  0  0  0
    0.2601    3.6193    1.9776 O   0  0  0  0  0  0  0  0  0  0  0  0
    1.5962    3.3882    2.3207 C   0  0  0  0  0  0  0  0  0  0  0  0
   -1.8415   -1.4984    2.9692 C   0  0  0  0  0  0  0  0  0  0  0  0
   -2.9921   -0.9191    2.1520 C   0  0  0  0  0  0  0  0  0  0  0  0
   -4.3241   -1.7986    1.9528 C   0  0  1  0  0  0  0  0  0  0  0  0
   -6.3539   -3.9027    1.7664 C   0  0  0  0  0  0  0  0  0  0  0  0
   -4.7919   -2.7672    3.0559 O   0  0  0  0  0  0  0  0  0  0  0  0
   -3.6341    0.2419    4.9344 C   0  0  0  0  0  0  0  0  0  0  0  0
   -4.5726    1.2477    4.7461 C   0  0  0  0  0  0  0  0  0  0  0  0
   -7.2260   -1.5279   -0.0052 O   0  0  0  0  0  0  0  0  0  0  0  0
   -6.1763   -2.5454    0.6789 C   0  0  1  0  0  0  0  0  0  0  0  0
   -7.1693   -0.0761   -0.1099 C   0  0  0  0  0  0  0  0  0  0  0  0
   -5.7022    1.4412    3.5545 C   0  0  0  0  0  0  0  0  0  0  0  0
   -8.4943    0.8127    0.7732 C   0  0  2  0  0  0  0  0  0  0  0  0
  -10.0892    3.3259    1.7617 C   0  0  0  0  0  0  0  0  0  0  0  0
   -9.7702    3.1231    0.3287 C   0  0  0  0  0  0  0  0  0  0  0  0
   -9.0172    2.0500   -0.0865 C   0  0  0  0  0  0  0  0  0  0  0  0
   -7.7008    2.8996    4.3730 C   0  0  0  0  0  0  0  0  0  0  0  0
   -8.7142    3.5248    3.6292 O   0  0  0  0  0  0  0  0  0  0  0  0
   -9.2282    2.5443    2.7149 C   0  0  1  0  0  0  0  0  0  0  0  0
   -8.0611    1.6050    2.2001 C   0  0  1  0  0  0  0  0  0  0  0  0
   -7.0192    1.9277    3.4296 C   0  0  0  0  0  0  0  0  0  0  0  0
  -11.0131    4.0835    2.3359 N   0  0  0  0  0  0  0  0  0  0  0  0
   -9.3098    0.0905    0.8499 H   0  0  0  0  0  0  0  0  0  0  0  0
   -9.0868   -1.3734    4.3514 H   0  0  0  0  0  0  0  0  0  0  0  0
   -9.3317   -2.3808    6.6953 C   0  0  0  0  0  0  0  0  0  0  0  0
   -7.2748   -0.4885    4.5523 C   0  0  0  0  0  0  0  0  0  0  0  0
   -6.2700    0.4947   -0.6476 O   0  0  0  0  0  0  0  0  0  0  0  0
   -4.6217   -2.2820    0.5627 C   0  0  0  0  0  0  0  0  0  0  0  0
   -6.8944    1.8329    1.4528 O   0  0  0  0  0  0  0  0  0  0  0  0
   -5.0134   -0.9572    1.8934 H   0  0  0  0  0  0  0  0  0  0  0  0
   -6.5136   -1.9631    1.5026 H   0  0  0  0  0  0  0  0  0  0  0  0
  -10.2073    4.2423   -0.5556 C   0  0  0  0  0  0  0  0  0  0  0  0
   -0.1340   -2.3007    4.4987 C   0  0  0  0  0  0  0  0  0  0  0  0
   -3.0073   -0.6986    7.7459 C   0  0  0  0  0  0  0  0  0  0  0  0
   -9.9816    1.9500    3.2709 H   0  0  0  0  0  0  0  0  0  0  0  0
   -5.9599   -0.9476    4.1211 C   0  0  0  0  0  0  0  0  0  0  0  0
   -5.2475   -1.6104    5.2149 C   0  0  0  0  0  0  0  0  0  0  0  0
   -5.3581   -0.9209    6.5342 C   0  0  0  0  0  0  0  0  0  0  0  0
   -6.3687    0.0603    6.9649 C   0  0  0  0  0  0  0  0  0  0  0  0
   -7.1842    0.4618    5.7923 C   0  0  0  0  0  0  0  0  0  0  0  0
  -11.9233    4.6864    1.4733 O   0  0  0  0  0  0  0  0  0  0  0  0
   -7.1177   -5.1143    4.5964 H   0  0  0  0  0  0  0  0  0  0  0  0
   -5.4177   -4.6019    4.9467 H   0  0  0  0  0  0  0  0  0  0  0  0
   -7.3186   -4.1809    6.9862 H   0  0  0  0  0  0  0  0  0  0  0  0
   -6.1430   -3.1875    6.6791 H   0  0  0  0  0  0  0  0  0  0  0  0
   -7.6215   -1.6073    6.5536 H   0  0  0  0  0  0  0  0  0  0  0  0
   -0.5824   -0.2992    6.1626 H   0  0  0  0  0  0  0  0  0  0  0  0
   -2.7554   -1.5720    5.9312 H   0  0  0  0  0  0  0  0  0  0  0  0
   -2.0463    4.4002    2.3735 H   0  0  0  0  0  0  0  0  0  0  0  0
   -2.9410    1.6776    3.0002 H   0  0  0  0  0  0  0  0  0  0  0  0
   -0.5082    4.0354    4.5160 H   0  0  0  0  0  0  0  0  0  0  0  0
    0.5586    2.5946    4.5632 H   0  0  0  0  0  0  0  0  0  0  0  0
   -0.5140    1.7536    2.4129 H   0  0  0  0  0  0  0  0  0  0  0  0
   -2.3253    1.9701    0.8770 H   0  0  0  0  0  0  0  0  0  0  0  0
   -4.6604    2.9127    1.9401 H   0  0  0  0  0  0  0  0  0  0  0  0
   -4.9292    3.3150    3.7179 H   0  0  0  0  0  0  0  0  0  0  0  0
   -4.3230    4.4521    2.7583 H   0  0  0  0  0  0  0  0  0  0  0  0
    1.7665    3.6638    3.3623 H   0  0  0  0  0  0  0  0  0  0  0  0
    1.8431    2.3393    2.1458 H   0  0  0  0  0  0  0  0  0  0  0  0
    2.1902    4.0499    1.7016 H   0  0  0  0  0  0  0  0  0  0  0  0
   -1.4372   -2.2810    2.3326 H   0  0  0  0  0  0  0  0  0  0  0  0
   -3.3706    0.0122    2.5457 H   0  0  0  0  0  0  0  0  0  0  0  0
   -2.6061   -0.4783    1.2166 H   0  0  0  0  0  0  0  0  0  0  0  0
   -7.1778   -4.5707    1.5490 H   0  0  0  0  0  0  0  0  0  0  0  0
   -5.4107   -4.4853    1.6931 H   0  0  0  0  0  0  0  0  0  0  0  0
   -3.5521   -0.5497    4.2114 H   0  0  0  0  0  0  0  0  0  0  0  0
   -4.6467    1.9712    5.5310 H   0  0  0  0  0  0  0  0  0  0  0  0
   -5.2843    0.9901    2.6455 H   0  0  0  0  0  0  0  0  0  0  0  0
   -8.5814    2.1509   -1.0764 H   0  0  0  0  0  0  0  0  0  0  0  0
   -8.2248    2.4930    5.2386 H   0  0  0  0  0  0  0  0  0  0  0  0
   -6.9962    3.6420    4.7442 H   0  0  0  0  0  0  0  0  0  0  0  0
  -10.1725   -2.5362    6.0264 H   0  0  0  0  0  0  0  0  0  0  0  0
   -9.2825   -3.1198    7.4910 H   0  0  0  0  0  0  0  0  0  0  0  0
   -9.4948   -1.4046    7.1949 H   0  0  0  0  0  0  0  0  0  0  0  0
   -7.7125   -0.0409    3.6736 H   0  0  0  0  0  0  0  0  0  0  0  0
   -3.9930   -3.1699    0.3984 H   0  0  0  0  0  0  0  0  0  0  0  0
   -4.3079   -1.5063   -0.1487 H   0  0  0  0  0  0  0  0  0  0  0  0
   -6.5681    0.8977    1.5616 H   0  0  0  0  0  0  0  0  0  0  0  0
   -9.9392    5.2176   -0.1241 H   0  0  0  0  0  0  0  0  0  0  0  0
   -9.7752    4.1758   -1.5514 H   0  0  0  0  0  0  0  0  0  0  0  0
  -11.2961    4.1974   -0.6710 H   0  0  0  0  0  0  0  0  0  0  0  0
   -0.0387   -3.0454    3.7047 H   0  0  0  0  0  0  0  0  0  0  0  0
    0.8057   -1.7560    4.5938 H   0  0  0  0  0  0  0  0  0  0  0  0
   -0.3739   -2.8252    5.4274 H   0  0  0  0  0  0  0  0  0  0  0  0
   -3.8047   -0.0530    8.1688 H   0  0  0  0  0  0  0  0  0  0  0  0
   -3.4241   -1.7304    7.9195 H   0  0  0  0  0  0  0  0  0  0  0  0
   -2.1987   -0.6790    8.4679 H   0  0  0  0  0  0  0  0  0  0  0  0
   -6.2394   -1.3542    3.1812 H   0  0  0  0  0  0  0  0  0  0  0  0
   -5.2148   -0.4559    3.5839 H   0  0  0  0  0  0  0  0  0  0  0  0
   -5.8179   -2.4448    5.2051 H   0  0  0  0  0  0  0  0  0  0  0  0
   -4.3104   -2.1584    5.0428 H   0  0  0  0  0  0  0  0  0  0  0  0
   -5.1522   -1.6507    7.2843 H   0  0  0  0  0  0  0  0  0  0  0  0
   -4.6272   -0.1666    6.5758 H   0  0  0  0  0  0  0  0  0  0  0  0
   -6.9161   -0.3634    7.7870 H   0  0  0  0  0  0  0  0  0  0  0  0
   -5.8685    0.9577    7.3931 H   0  0  0  0  0  0  0  0  0  0  0  0
   -6.6341    1.3738    5.5822 H   0  0  0  0  0  0  0  0  0  0  0  0
   -8.1425    0.8112    6.1313 H   0  0  0  0  0  0  0  0  0  0  0  0
  -12.3528    5.3583    2.0423 H   0  0  0  0  0  0  0  0  0  0  0  0
  1 25  1  0  0  0  0
  1 26  1  6  0  0  0
  1  2  1  0  0  0  0
  1  6  1  0  0  0  0
  2  3  1  0  0  0  0
  2 62  1  0  0  0  0
  2 63  1  0  0  0  0
  3  4  1  0  0  0  0
  3 64  1  0  0  0  0
  3 65  1  0  0  0  0
  4  5  1  0  0  0  0
  4 45  1  0  0  0  0
  4 66  1  1  0  0  0
  5  6  1  0  0  0  0
  5 44  1  6  0  0  0
  5 46  1  0  0  0  0
  7  8  1  0  0  0  0
  7  9  1  0  0  0  0
  7 67  1  1  0  0  0
  7 17  1  0  0  0  0
  8 27  1  0  0  0  0
  8 54  1  0  0  0  0
  8 68  1  6  0  0  0
  9 53  1  0  0  0  0
 10 11  1  0  0  0  0
 10 16  1  0  0  0  0
 10 15  1  0  0  0  0
 10 69  1  1  0  0  0
 11 18  1  0  0  0  0
 11 12  1  0  0  0  0
 11 70  1  6  0  0  0
 12 13  1  0  0  0  0
 13 17  1  0  0  0  0
 13 19  1  1  0  0  0
 13 14  1  0  0  0  0
 14 15  1  0  0  0  0
 14 71  1  0  0  0  0
 14 72  1  0  0  0  0
 15 73  1  6  0  0  0
 15 20  1  0  0  0  0
 16 74  1  0  0  0  0
 18 75  1  0  0  0  0
 18 76  1  0  0  0  0
 18 77  1  0  0  0  0
 20 21  1  0  0  0  0
 21 78  1  0  0  0  0
 21 79  1  0  0  0  0
 21 80  1  0  0  0  0
 22  9  2  0  0  0  0
 22 23  1  0  0  0  0
 22 81  1  0  0  0  0
 23 82  1  0  0  0  0
 23 83  1  0  0  0  0
 24 23  1  0  0  0  0
 24 26  1  0  0  0  0
 24 50  1  6  0  0  0
 25 84  1  0  0  0  0
 25 85  1  0  0  0  0
 27 28  2  0  0  0  0
 27 86  1  0  0  0  0
 28 32  1  0  0  0  0
 28 87  1  0  0  0  0
 29 30  1  0  0  0  0
 30 48  1  0  0  0  0
 30 25  1  0  0  0  0
 30 51  1  6  0  0  0
 31 29  1  0  0  0  0
 31 33  1  0  0  0  0
 31 47  2  0  0  0  0
 32 41  2  0  0  0  0
 32 88  1  0  0  0  0
 33 40  1  0  0  0  0
 33 36  1  0  0  0  0
 33 43  1  1  0  0  0
 34 35  1  0  0  0  0
 34 42  2  0  0  0  0
 35 36  2  0  0  0  0
 35 52  1  0  0  0  0
 36 89  1  0  0  0  0
 37 38  1  0  0  0  0
 37 90  1  0  0  0  0
 37 91  1  0  0  0  0
 38 39  1  0  0  0  0
 39 34  1  0  0  0  0
 39 40  1  0  0  0  0
 39 55  1  6  0  0  0
 40 41  1  0  0  0  0
 40 49  1  6  0  0  0
 41 37  1  0  0  0  0
 42 61  1  0  0  0  0
 45 92  1  0  0  0  0
 45 93  1  0  0  0  0
 45 94  1  0  0  0  0
 46 56  1  0  0  0  0
 46 60  1  0  0  0  0
 46 95  1  0  0  0  0
 48 24  1  0  0  0  0
 48 96  1  0  0  0  0
 48 97  1  0  0  0  0
 49 98  1  0  0  0  0
 52 99  1  0  0  0  0
 52100  1  0  0  0  0
 52101  1  0  0  0  0
 53102  1  0  0  0  0
 53103  1  0  0  0  0
 53104  1  0  0  0  0
 54105  1  0  0  0  0
 54106  1  0  0  0  0
 54107  1  0  0  0  0
 56 57  1  0  0  0  0
 56108  1  0  0  0  0
 56109  1  0  0  0  0
 57 58  1  0  0  0  0
 57110  1  0  0  0  0
 57111  1  0  0  0  0
 58 59  1  0  0  0  0
 58112  1  0  0  0  0
 58113  1  0  0  0  0
 59 60  1  0  0  0  0
 59114  1  0  0  0  0
 59115  1  0  0  0  0
 60116  1  0  0  0  0
 60117  1  0  0  0  0
 61118  1  0  0  0  0
M  END
>  <DRUGBANK_ID>
DB11459

>  <COMMON_NAME>
Selamectin

>  <CAS_NUMBER>
220119-17-5

>  <UNII>
A2669OWX9N

>  <SYNONYMS>
Selamectin

$$$$
