
 OpenBabel10282417123D

 38 40  0  0  0  0  0  0  0  0999 V2000
    0.9498    0.0130    0.0388 C   0  0  0  0  0  0  0  0  0  0  0  0
    0.5113    1.3525    0.5297 C   0  0  0  0  0  0  0  0  0  0  0  0
    1.0625    2.5116    0.0530 C   0  0  0  0  0  0  0  0  0  0  0  0
    0.7003    3.7365    0.4916 N   0  0  0  0  0  0  0  0  0  0  0  0
   -0.2533    3.8824    1.4460 C   0  0  0  0  0  0  0  0  0  0  0  0
   -0.9001    2.7446    1.9778 C   0  0  0  0  0  0  0  0  0  0  0  0
   -0.4925    1.4864    1.4800 C   0  0  0  0  0  0  0  0  0  0  0  0
   -1.9048    2.8797    2.9735 C   0  0  0  0  0  0  0  0  0  0  0  0
   -2.6125    1.6726    3.5563 C   0  0  0  0  0  0  0  0  0  0  0  0
   -2.2606    4.1646    3.4468 C   0  0  0  0  0  0  0  0  0  0  0  0
   -3.3299    4.3152    4.5163 C   0  0  0  0  0  0  0  0  0  0  0  0
   -1.6159    5.3140    2.9239 C   0  0  0  0  0  0  0  0  0  0  0  0
   -0.6075    5.1748    1.9191 C   0  0  0  0  0  0  0  0  0  0  0  0
   -0.0070    6.3295    1.4451 N   0  3  0  0  0  0  0  0  0  0  0  0
    1.0534    6.2883    0.4059 C   0  0  0  0  0  0  0  0  0  0  0  0
   -0.3519    7.5561    1.9025 C   0  0  0  0  0  0  0  0  0  0  0  0
   -1.3223    7.7333    2.8696 C   0  0  0  0  0  0  0  0  0  0  0  0
   -1.6851    9.1060    3.3550 C   0  0  0  0  0  0  0  0  0  0  0  0
   -1.9474    6.6049    3.3742 C   0  0  0  0  0  0  0  0  0  0  0  0
    0.5675   -0.1640   -0.9702 H   0  0  0  0  0  0  0  0  0  0  0  0
    0.5862   -0.7863    0.6936 H   0  0  0  0  0  0  0  0  0  0  0  0
    2.0427   -0.0428    0.0324 H   0  0  0  0  0  0  0  0  0  0  0  0
    1.8375    2.4959   -0.7099 H   0  0  0  0  0  0  0  0  0  0  0  0
   -0.9414    0.5640    1.8314 H   0  0  0  0  0  0  0  0  0  0  0  0
   -2.4270    1.6230    4.6343 H   0  0  0  0  0  0  0  0  0  0  0  0
   -3.6860    1.7436    3.3538 H   0  0  0  0  0  0  0  0  0  0  0  0
   -2.2995    0.7102    3.1577 H   0  0  0  0  0  0  0  0  0  0  0  0
   -2.9058    4.7905    5.4067 H   0  0  0  0  0  0  0  0  0  0  0  0
   -4.1647    4.9092    4.1308 H   0  0  0  0  0  0  0  0  0  0  0  0
   -3.7596    3.3704    4.8532 H   0  0  0  0  0  0  0  0  0  0  0  0
    1.9080    5.7356    0.8049 H   0  0  0  0  0  0  0  0  0  0  0  0
    0.6275    5.8634   -0.5067 H   0  0  0  0  0  0  0  0  0  0  0  0
    1.3966    7.2987    0.1689 H   0  0  0  0  0  0  0  0  0  0  0  0
    0.1673    8.4126    1.4776 H   0  0  0  0  0  0  0  0  0  0  0  0
   -0.8117    9.5938    3.7991 H   0  0  0  0  0  0  0  0  0  0  0  0
   -2.0575    9.7146    2.5250 H   0  0  0  0  0  0  0  0  0  0  0  0
   -2.4699    9.0684    4.1186 H   0  0  0  0  0  0  0  0  0  0  0  0
   -2.7122    6.7483    4.1382 H   0  0  0  0  0  0  0  0  0  0  0  0
  1  2  1  0  0  0  0
  1 20  1  0  0  0  0
  1 21  1  0  0  0  0
  1 22  1  0  0  0  0
  2  3  2  0  0  0  0
  2  7  1  0  0  0  0
  3  4  1  0  0  0  0
  3 23  1  0  0  0  0
  4  5  2  0  0  0  0
  5  6  1  0  0  0  0
  5 13  1  0  0  0  0
  6  7  2  0  0  0  0
  6  8  1  0  0  0  0
  7 24  1  0  0  0  0
  8  9  1  0  0  0  0
  8 10  2  0  0  0  0
  9 25  1  0  0  0  0
  9 26  1  0  0  0  0
  9 27  1  0  0  0  0
 10 11  1  0  0  0  0
 10 12  1  0  0  0  0
 11 28  1  0  0  0  0
 11 29  1  0  0  0  0
 11 30  1  0  0  0  0
 12 13  2  0  0  0  0
 12 19  1  0  0  0  0
 13 14  1  0  0  0  0
 14 15  1  0  0  0  0
 14 16  2  0  0  0  0
 15 31  1  0  0  0  0
 15 32  1  0  0  0  0
 15 33  1  0  0  0  0
 16 17  1  0  0  0  0
 16 34  1  0  0  0  0
 17 18  1  0  0  0  0
 17 19  2  0  0  0  0
 18 35  1  0  0  0  0
 18 36  1  0  0  0  0
 18 37  1  0  0  0  0
 19 38  1  0  0  0  0
M  CHG  1  14   1
M  END
>  <DRUGBANK_ID>
DB02310

>  <SECONDARY_ACCESSION_NUMBERS>
EXPT03080

>  <COMMON_NAME>
3,5,6,8-Tetramethyl-N-Methyl Phenanthrolinium

$$$$
