
 OpenBabel10282417133D

 30 31  0  0  1  0  0  0  0  0999 V2000
    1.1984    0.0193   -0.1492 N   0  0  0  0  0  0  0  0  0  0  0  0
    0.5754   -0.7119    0.9723 C   0  0  1  0  0  0  0  0  0  0  0  0
    0.9507   -0.0696    2.3437 C   0  0  0  0  0  0  0  0  0  0  0  0
    0.5008    1.3173    2.5266 N   0  0  0  0  0  0  0  0  0  0  0  0
    1.4002    2.3654    2.3195 C   0  0  0  0  0  0  0  0  0  0  0  0
    2.5919    2.2071    2.0541 O   0  0  0  0  0  0  0  0  0  0  0  0
    0.8718    3.6306    2.4245 N   0  0  0  0  0  0  0  0  0  0  0  0
   -0.4472    3.9582    2.6535 C   0  0  0  0  0  0  0  0  0  0  0  0
   -0.8366    5.1105    2.7108 O   0  0  0  0  0  0  0  0  0  0  0  0
   -1.3339    2.8035    2.8672 C   0  0  0  0  0  0  0  0  0  0  0  0
   -0.8169    1.5780    2.8376 C   0  0  0  0  0  0  0  0  0  0  0  0
   -1.8234    0.5493    3.2234 C   0  0  0  0  0  0  0  0  0  0  0  0
   -3.1350    1.3125    3.2948 C   0  0  0  0  0  0  0  0  0  0  0  0
   -2.7948    2.8056    3.1683 C   0  0  0  0  0  0  0  0  0  0  0  0
   -0.9334   -0.7440    0.6485 C   0  0  0  0  0  0  0  0  0  0  0  0
   -1.5615   -1.9233    0.8677 O   0  0  0  0  0  0  0  0  0  0  0  0
   -1.5629    0.2371    0.2620 O   0  0  0  0  0  0  0  0  0  0  0  0
    0.7799    0.9588   -0.1343 H   0  0  0  0  0  0  0  0  0  0  0  0
    2.1904    0.1668    0.0215 H   0  0  0  0  0  0  0  0  0  0  0  0
    0.9503   -1.7414    0.9626 H   0  0  0  0  0  0  0  0  0  0  0  0
    0.5955   -0.6645    3.1933 H   0  0  0  0  0  0  0  0  0  0  0  0
    2.0480   -0.0860    2.4255 H   0  0  0  0  0  0  0  0  0  0  0  0
    1.5153    4.3956    2.2884 H   0  0  0  0  0  0  0  0  0  0  0  0
   -1.9867   -0.2554    2.5270 H   0  0  0  0  0  0  0  0  0  0  0  0
   -1.5410    0.0733    4.1640 H   0  0  0  0  0  0  0  0  0  0  0  0
   -3.7975    0.9911    2.4771 H   0  0  0  0  0  0  0  0  0  0  0  0
   -3.6476    1.0609    4.2276 H   0  0  0  0  0  0  0  0  0  0  0  0
   -3.3868    3.2599    2.3649 H   0  0  0  0  0  0  0  0  0  0  0  0
   -3.0287    3.3161    4.1050 H   0  0  0  0  0  0  0  0  0  0  0  0
   -0.9896   -2.6944    1.0251 H   0  0  0  0  0  0  0  0  0  0  0  0
  1 18  1  0  0  0  0
  1 19  1  0  0  0  0
  2  1  1  0  0  0  0
  2  3  1  0  0  0  0
  2 15  1  0  0  0  0
  2 20  1  6  0  0  0
  3  4  1  0  0  0  0
  3 21  1  0  0  0  0
  3 22  1  0  0  0  0
  4  5  1  0  0  0  0
  4 11  1  0  0  0  0
  5  6  2  0  0  0  0
  5  7  1  0  0  0  0
  7  8  1  0  0  0  0
  7 23  1  0  0  0  0
  8  9  2  0  0  0  0
  8 10  1  0  0  0  0
 10 11  2  0  0  0  0
 10 14  1  0  0  0  0
 11 12  1  0  0  0  0
 12 13  1  0  0  0  0
 12 24  1  0  0  0  0
 12 25  1  0  0  0  0
 13 14  1  0  0  0  0
 13 26  1  0  0  0  0
 13 27  1  0  0  0  0
 14 28  1  0  0  0  0
 14 29  1  0  0  0  0
 15 16  1  0  0  0  0
 15 17  2  0  0  0  0
 16 30  1  0  0  0  0
M  END
>  <DRUGBANK_ID>
DB03240

>  <SECONDARY_ACCESSION_NUMBERS>
EXPT01007

>  <COMMON_NAME>
(S)-2-Amino-3-(1,3,5,7-Pentahydro-2,4-Dioxo-Cyclopenta[E]Pyrimidin-1-Yl) Proionic Acid

$$$$
