
 OpenBabel10282417203D

 46 47  0  0  0  0  0  0  0  0999 V2000
    1.1390   -0.0285   -0.1036 C   0  0  0  0  0  0  0  0  0  0  0  0
    1.1981    1.5687    1.7629 C   0  0  0  0  0  0  0  0  0  0  0  0
   -2.1126    3.3869    0.7727 C   0  0  0  0  0  0  0  0  0  0  0  0
   -3.7708   -0.5616   -0.3022 C   0  0  0  0  0  0  0  0  0  0  0  0
   -3.1525    2.7264    1.4619 C   0  0  0  0  0  0  0  0  0  0  0  0
   -0.9215   -0.4538    5.4928 C   0  0  0  0  0  0  0  0  0  0  0  0
    1.3566   -0.9151    5.9615 C   0  0  0  0  0  0  0  0  0  0  0  0
   -0.5696   -0.5068    4.1471 C   0  0  0  0  0  0  0  0  0  0  0  0
    1.6801   -0.9557    4.5815 C   0  0  0  0  0  0  0  0  0  0  0  0
   -1.0045    3.7071    1.4909 C   0  0  0  0  0  0  0  0  0  0  0  0
   -3.4848   -1.4355    0.8799 C   0  0  0  0  0  0  0  0  0  0  0  0
   -2.9424    0.6463   -0.1181 C   0  0  0  0  0  0  0  0  0  0  0  0
   -1.7181    2.3179    3.2292 C   0  0  0  0  0  0  0  0  0  0  0  0
   -2.8536    1.8893    2.5676 C   0  0  0  0  0  0  0  0  0  0  0  0
    0.0626   -0.6446    6.4126 C   0  0  0  0  0  0  0  0  0  0  0  0
    0.7141   -0.7084    3.6247 C   0  0  0  0  0  0  0  0  0  0  0  0
   -3.5649    0.5111    2.9857 C   0  0  0  0  0  0  0  0  0  0  0  0
   -0.8403    0.0672    1.0869 C   0  0  0  0  0  0  0  0  0  0  0  0
    0.6337    0.2402    1.3184 C   0  0  0  0  0  0  0  0  0  0  0  0
   -0.3438   -0.5412    8.0731 Cl  0  0  0  0  0  0  0  0  0  0  0  0
   -0.8487    3.2724    2.7546 N   0  0  0  0  0  0  0  0  0  0  0  0
   -3.8833    0.4762    4.1797 O   0  0  0  0  0  0  0  0  0  0  0  0
   -1.3889   -0.7931    1.7853 O   0  0  0  0  0  0  0  0  0  0  0  0
   -3.7686   -0.6869    2.2461 O   0  0  0  0  0  0  0  0  0  0  0  0
   -1.4917    0.6674    0.0660 O   0  0  0  0  0  0  0  0  0  0  0  0
    1.1128   -0.7622    2.2908 O   0  0  0  0  0  0  0  0  0  0  0  0
    0.7692    0.7550   -0.7882 H   0  0  0  0  0  0  0  0  0  0  0  0
    0.7486   -0.9814   -0.4800 H   0  0  0  0  0  0  0  0  0  0  0  0
    2.2238   -0.0401   -0.1581 H   0  0  0  0  0  0  0  0  0  0  0  0
    0.9195    2.3545    1.0685 H   0  0  0  0  0  0  0  0  0  0  0  0
    0.9020    1.8012    2.7870 H   0  0  0  0  0  0  0  0  0  0  0  0
    2.2907    1.5617    1.7978 H   0  0  0  0  0  0  0  0  0  0  0  0
   -2.0870    3.4751   -0.3194 H   0  0  0  0  0  0  0  0  0  0  0  0
   -4.8337   -0.2755   -0.2353 H   0  0  0  0  0  0  0  0  0  0  0  0
   -3.5208   -0.9273   -1.2884 H   0  0  0  0  0  0  0  0  0  0  0  0
   -4.0842    2.6110    0.9094 H   0  0  0  0  0  0  0  0  0  0  0  0
   -1.9609   -0.2527    5.7563 H   0  0  0  0  0  0  0  0  0  0  0  0
    2.1324   -1.0979    6.6924 H   0  0  0  0  0  0  0  0  0  0  0  0
   -1.4578   -0.3716    3.5832 H   0  0  0  0  0  0  0  0  0  0  0  0
    2.6946   -1.1687    4.2638 H   0  0  0  0  0  0  0  0  0  0  0  0
   -0.1634    4.2250    1.0326 H   0  0  0  0  0  0  0  0  0  0  0  0
   -4.0373   -2.3750    0.8730 H   0  0  0  0  0  0  0  0  0  0  0  0
   -2.4742   -1.8305    0.7395 H   0  0  0  0  0  0  0  0  0  0  0  0
   -3.4535    0.8711    0.7835 H   0  0  0  0  0  0  0  0  0  0  0  0
   -3.2139    1.4425   -0.8090 H   0  0  0  0  0  0  0  0  0  0  0  0
   -1.3690    1.8643    4.1472 H   0  0  0  0  0  0  0  0  0  0  0  0
  1 27  1  0  0  0  0
  1 28  1  0  0  0  0
  1 29  1  0  0  0  0
  2 30  1  0  0  0  0
  2 31  1  0  0  0  0
  2 32  1  0  0  0  0
  3 33  1  0  0  0  0
  4 34  1  0  0  0  0
  4 35  1  0  0  0  0
  5  3  2  0  0  0  0
  5 36  1  0  0  0  0
  6 37  1  0  0  0  0
  7 38  1  0  0  0  0
  8  6  1  0  0  0  0
  8 39  1  0  0  0  0
  9  7  2  0  0  0  0
  9 40  1  0  0  0  0
 10  3  1  0  0  0  0
 10 41  1  0  0  0  0
 11  4  1  0  0  0  0
 11 42  1  0  0  0  0
 11 43  1  0  0  0  0
 12  4  1  0  0  0  0
 12 44  1  0  0  0  0
 12 45  1  0  0  0  0
 13 46  1  0  0  0  0
 14  5  1  0  0  0  0
 14 13  2  0  0  0  0
 15  6  2  0  0  0  0
 15  7  1  0  0  0  0
 16  8  2  0  0  0  0
 16  9  1  0  0  0  0
 17 14  1  0  0  0  0
 19  1  1  0  0  0  0
 19  2  1  0  0  0  0
 19 18  1  0  0  0  0
 20 15  1  0  0  0  0
 21 10  2  0  0  0  0
 21 13  1  0  0  0  0
 22 17  2  0  0  0  0
 23 18  2  0  0  0  0
 24 11  1  0  0  0  0
 24 17  1  0  0  0  0
 25 12  1  0  0  0  0
 25 18  1  0  0  0  0
 26 16  1  0  0  0  0
 26 19  1  0  0  0  0
M  END
>  <DRUGBANK_ID>
DB13460

>  <COMMON_NAME>
Ronifibrate

>  <CAS_NUMBER>
42597-57-9

>  <UNII>
W86I18X716

>  <SYNONYMS>
Ronifibrate

$$$$
