PIQ
 OpenBabel10282417173D

 29 31  0  0  0  0  0  0  0  0999 V2000
    1.0966    0.0676   -0.1743 N   0  0  0  0  0  0  0  0  0  0  0  0
    0.3874   -0.2140   -1.2797 C   0  0  0  0  0  0  0  0  0  0  0  0
   -0.7454    0.4899   -1.5936 N   0  0  0  0  0  0  0  0  0  0  0  0
   -1.1854    0.0747   -2.8220 C   0  0  0  0  0  0  0  0  0  0  0  0
   -2.2304    0.4747   -3.6520 C   0  0  0  0  0  0  0  0  0  0  0  0
   -2.3636   -0.2188   -4.8560 C   0  0  0  0  0  0  0  0  0  0  0  0
   -3.4257    0.1293   -5.8044 C   0  0  0  0  0  0  0  0  0  0  0  0
   -4.4316   -0.7918   -6.1316 C   0  0  0  0  0  0  0  0  0  0  0  0
   -5.4479   -0.4496   -7.0259 C   0  0  0  0  0  0  0  0  0  0  0  0
   -5.3961    0.7652   -7.7047 C   0  0  0  0  0  0  0  0  0  0  0  0
   -4.3727    1.6682   -7.4319 C   0  0  0  0  0  0  0  0  0  0  0  0
   -3.4526    1.3908   -6.4202 C   0  0  0  0  0  0  0  0  0  0  0  0
    0.6773   -1.0902   -2.2205 N   0  0  0  0  0  0  0  0  0  0  0  0
   -1.3293    1.5755   -0.8468 C   0  0  0  0  0  0  0  0  0  0  0  0
   -0.2981   -0.9341   -3.1737 C   0  0  0  0  0  0  0  0  0  0  0  0
   -0.4034   -1.6298   -4.3312 N   0  0  0  0  0  0  0  0  0  0  0  0
   -1.4401   -1.2406   -5.1212 C   0  0  0  0  0  0  0  0  0  0  0  0
    0.6063    0.0561    0.7179 H   0  0  0  0  0  0  0  0  0  0  0  0
    1.9952   -0.4008   -0.0942 H   0  0  0  0  0  0  0  0  0  0  0  0
   -2.9040    1.2783   -3.3772 H   0  0  0  0  0  0  0  0  0  0  0  0
   -4.4381   -1.7804   -5.6770 H   0  0  0  0  0  0  0  0  0  0  0  0
   -6.2669   -1.1407   -7.2071 H   0  0  0  0  0  0  0  0  0  0  0  0
   -6.1535    1.0096   -8.4445 H   0  0  0  0  0  0  0  0  0  0  0  0
   -4.2860    2.5867   -8.0065 H   0  0  0  0  0  0  0  0  0  0  0  0
   -2.7374    2.1597   -6.1346 H   0  0  0  0  0  0  0  0  0  0  0  0
   -1.2733    2.4784   -1.4600 H   0  0  0  0  0  0  0  0  0  0  0  0
   -2.3694    1.3195   -0.6309 H   0  0  0  0  0  0  0  0  0  0  0  0
   -0.7914    1.7357    0.0881 H   0  0  0  0  0  0  0  0  0  0  0  0
   -1.5117   -1.8014   -6.0533 H   0  0  0  0  0  0  0  0  0  0  0  0
  1  2  1  0  0  0  0
  1 18  1  0  0  0  0
  1 19  1  0  0  0  0
  2  3  1  0  0  0  0
  2 13  2  0  0  0  0
  3  4  1  0  0  0  0
  3 14  1  0  0  0  0
  4  5  2  0  0  0  0
  4 15  1  0  0  0  0
  5  6  1  0  0  0  0
  5 20  1  0  0  0  0
  6  7  1  0  0  0  0
  6 17  2  0  0  0  0
  7  8  1  0  0  0  0
  7 12  2  0  0  0  0
  8  9  2  0  0  0  0
  8 21  1  0  0  0  0
  9 10  1  0  0  0  0
  9 22  1  0  0  0  0
 10 11  2  0  0  0  0
 10 23  1  0  0  0  0
 11 12  1  0  0  0  0
 11 24  1  0  0  0  0
 12 25  1  0  0  0  0
 13 15  1  0  0  0  0
 14 26  1  0  0  0  0
 14 27  1  0  0  0  0
 14 28  1  0  0  0  0
 15 16  2  0  0  0  0
 16 17  1  0  0  0  0
 17 29  1  0  0  0  0
M  END
>  <DRUGBANK_ID>
DB08398

>  <SECONDARY_ACCESSION_NUMBERS>
DB12735

>  <COMMON_NAME>
2-Amino-1-methyl-6-phenylimidazo(4,5-b)pyridine

>  <CAS_NUMBER>
105650-23-5

>  <UNII>
909C6UN66T

>  <SYNONYMS>
2-amino-1-methyl-6-phenylimidazo[4,5-b]pyridine; PhIP

$$$$
