
 OpenBabel10282417173D

 26 26  0  0  1  0  0  0  0  0999 V2000
    0.1045   -0.3653    3.1169 C   0  0  0  0  0  0  0  0  0  0  0  0
   -3.5397   -3.8706    3.2343 C   0  0  0  0  0  0  0  0  0  0  0  0
   -0.3290   -1.9318    1.0360 C   0  0  2  0  0  0  0  0  0  0  0  0
   -1.7308   -1.2886    0.9622 C   0  0  0  0  0  0  0  0  0  0  0  0
   -2.6335   -1.8083    2.0842 C   0  0  0  0  0  0  0  0  0  0  0  0
   -0.5387   -3.4504    0.7672 C   0  0  0  0  0  0  0  0  0  0  0  0
    0.4134   -1.6302    2.3529 C   0  0  0  0  0  0  0  0  0  0  0  0
    1.2980   -2.4834    2.9104 C   0  0  0  0  0  0  0  0  0  0  0  0
   -2.5334   -3.3010    2.2829 C   0  0  0  0  0  0  0  0  0  0  0  0
   -1.5955   -4.0466    1.6661 C   0  0  0  0  0  0  0  0  0  0  0  0
   -0.5856    0.3063    2.6045 H   0  0  0  0  0  0  0  0  0  0  0  0
    1.0119    0.2149    3.3016 H   0  0  0  0  0  0  0  0  0  0  0  0
   -0.3583   -0.6205    4.0779 H   0  0  0  0  0  0  0  0  0  0  0  0
   -3.4117   -3.4239    4.2265 H   0  0  0  0  0  0  0  0  0  0  0  0
   -4.5504   -3.6420    2.8818 H   0  0  0  0  0  0  0  0  0  0  0  0
   -3.4507   -4.9556    3.3355 H   0  0  0  0  0  0  0  0  0  0  0  0
    0.2776   -1.5186    0.2179 H   0  0  0  0  0  0  0  0  0  0  0  0
   -1.6788   -0.1953    0.9884 H   0  0  0  0  0  0  0  0  0  0  0  0
   -2.1908   -1.5212   -0.0080 H   0  0  0  0  0  0  0  0  0  0  0  0
   -3.6676   -1.5236    1.8652 H   0  0  0  0  0  0  0  0  0  0  0  0
   -2.3780   -1.3245    3.0340 H   0  0  0  0  0  0  0  0  0  0  0  0
    0.3957   -4.0105    0.8746 H   0  0  0  0  0  0  0  0  0  0  0  0
   -0.8459   -3.6098   -0.2745 H   0  0  0  0  0  0  0  0  0  0  0  0
    1.7504   -2.2725    3.8730 H   0  0  0  0  0  0  0  0  0  0  0  0
    1.5857   -3.4200    2.4514 H   0  0  0  0  0  0  0  0  0  0  0  0
   -1.5462   -5.1195    1.8320 H   0  0  0  0  0  0  0  0  0  0  0  0
  1  7  1  0  0  0  0
  1 11  1  0  0  0  0
  1 12  1  0  0  0  0
  1 13  1  0  0  0  0
  2  9  1  0  0  0  0
  2 14  1  0  0  0  0
  2 15  1  0  0  0  0
  2 16  1  0  0  0  0
  3  4  1  0  0  0  0
  3  6  1  0  0  0  0
  3 17  1  6  0  0  0
  3  7  1  0  0  0  0
  4  5  1  0  0  0  0
  4 18  1  0  0  0  0
  4 19  1  0  0  0  0
  5  9  1  0  0  0  0
  5 20  1  0  0  0  0
  5 21  1  0  0  0  0
  6 10  1  0  0  0  0
  6 22  1  0  0  0  0
  6 23  1  0  0  0  0
  7  8  2  0  0  0  0
  8 24  1  0  0  0  0
  8 25  1  0  0  0  0
  9 10  2  0  0  0  0
 10 26  1  0  0  0  0
M  END
>  <DRUGBANK_ID>
DB08921

>  <COMMON_NAME>
(4R)-limonene

>  <CAS_NUMBER>
5989-27-5

>  <UNII>
GFD7C86Q1W

>  <SYNONYMS>
(+)-(4R)-Limonene; (+)-(R)-Limonene; (+)-4-isopropenyl-1-methylcyclohexene; (+)-Limonene; (4R)-1-methyl-4-isopropenylcyclohex-1-ene; (4R)-4-isopropenyl-1-methylcyclohexene; (R)-(+)-limonene; (R)-(+)-p-mentha-1,8-diene; (R)-1-methyl-4-(1-methylethenyl)cyclohexene; (R)-4-isopropenyl-1-methyl-1-cyclohexene; (R)-p-mentha-1,8-diene; 4Î²H-p-mentha-1,8-diene; D-(+)-limonene; D-Limonen; D-limonene

$$$$
