
 OpenBabel10282417203D

 11 10  0  0  0  0  0  0  0  0999 V2000
    1.3733   -0.2349   -0.0762 C   0  0  0  0  0  0  0  0  0  0  0  0
    0.4172   -1.1633   -0.1368 C   0  0  0  0  0  0  0  0  0  0  0  0
   -0.9507   -1.0700   -0.1307 O   0  0  0  0  0  0  0  0  0  0  0  0
   -1.7156    0.0655   -0.0566 C   0  0  0  0  0  0  0  0  0  0  0  0
   -1.3880    1.3560    0.0276 C   0  0  0  0  0  0  0  0  0  0  0  0
    1.2022    0.8234   -0.0071 H   0  0  0  0  0  0  0  0  0  0  0  0
    2.4219   -0.5075   -0.0940 H   0  0  0  0  0  0  0  0  0  0  0  0
    0.6795   -2.2171   -0.2056 H   0  0  0  0  0  0  0  0  0  0  0  0
   -2.7614   -0.2347   -0.0762 H   0  0  0  0  0  0  0  0  0  0  0  0
   -2.1489    2.1258    0.0779 H   0  0  0  0  0  0  0  0  0  0  0  0
   -0.3839    1.7372    0.0525 H   0  0  0  0  0  0  0  0  0  0  0  0
  1  2  2  0  0  0  0
  1  6  1  0  0  0  0
  1  7  1  0  0  0  0
  2  3  1  0  0  0  0
  2  8  1  0  0  0  0
  3  4  1  0  0  0  0
  4  5  2  0  0  0  0
  4  9  1  0  0  0  0
  5 10  1  0  0  0  0
  5 11  1  0  0  0  0
M  END
>  <DRUGBANK_ID>
DB13690

>  <COMMON_NAME>
Vinyl ether

>  <CAS_NUMBER>
109-93-3

>  <UNII>
2H2T044E11

$$$$
