CXB
 OpenBabel10282417163D

 28 28  0  0  0  0  0  0  0  0999 V2000
    1.0911    0.0327    0.0250 C   0  0  0  0  0  0  0  0  0  0  0  0
    0.6178    1.3622    0.1828 O   0  0  0  0  0  0  0  0  0  0  0  0
    0.9488    2.0787    1.3026 N   0  0  0  0  0  0  0  0  0  0  0  0
    0.5102    3.3104    1.4489 C   0  0  0  0  0  0  0  0  0  0  0  0
   -0.3637    3.9385    0.3755 C   0  0  0  0  0  0  0  0  0  0  0  0
   -0.7873    5.1284    0.5168 O   0  0  0  0  0  0  0  0  0  0  0  0
   -0.7188    3.1697   -0.8261 N   0  0  0  0  0  0  0  0  0  0  0  0
   -0.2288    1.7935   -0.9895 C   0  0  0  0  0  0  0  0  0  0  0  0
   -1.4732    0.7948   -1.1081 B   0  0  0  0  0  0  0  0  0  0  0  0
   -1.6483   -0.0423   -2.3404 O   0  0  0  0  0  0  0  0  0  0  0  0
   -2.4648    0.6957    0.0131 O   0  0  0  0  0  0  0  0  0  0  0  0
    0.8774    4.1054    2.6913 C   0  0  0  0  0  0  0  0  0  0  0  0
   -0.0905    4.6709    3.4357 C   0  0  0  0  0  0  0  0  0  0  0  0
    0.5652    5.3404    4.8740 S   0  0  0  0  0  0  0  0  0  0  0  0
    2.1361    4.7742    4.3779 C   0  0  0  0  0  0  0  0  0  0  0  0
    3.2122    4.9757    5.1467 N   0  0  0  0  0  0  0  0  0  0  0  0
    2.1551    4.1573    3.2268 N   0  0  0  0  0  0  0  0  0  0  0  0
    0.7345   -0.3651   -0.9021 H   0  0  0  0  0  0  0  0  0  0  0  0
    0.7345   -0.5712    0.8330 H   0  0  0  0  0  0  0  0  0  0  0  0
    2.1611    0.0327    0.0250 H   0  0  0  0  0  0  0  0  0  0  0  0
   -1.3052    3.5912   -1.5464 H   0  0  0  0  0  0  0  0  0  0  0  0
    0.3657    1.7295   -1.8769 H   0  0  0  0  0  0  0  0  0  0  0  0
    0.3657    1.5235   -0.1418 H   0  0  0  0  0  0  0  0  0  0  0  0
   -0.9040    0.1474   -2.9807 H   0  0  0  0  0  0  0  0  0  0  0  0
   -3.1721    0.0301   -0.2253 H   0  0  0  0  0  0  0  0  0  0  0  0
   -1.1261    4.6992    3.1681 H   0  0  0  0  0  0  0  0  0  0  0  0
    3.1189    5.4665    6.0360 H   0  0  0  0  0  0  0  0  0  0  0  0
    4.1259    4.6387    4.8436 H   0  0  0  0  0  0  0  0  0  0  0  0
  1  2  1  0  0  0  0
  1 18  1  0  0  0  0
  1 19  1  0  0  0  0
  1 20  1  0  0  0  0
  2  3  1  0  0  0  0
  3  4  2  0  0  0  0
  4  5  1  0  0  0  0
  4 12  1  0  0  0  0
  5  6  2  0  0  0  0
  5  7  1  0  0  0  0
  7  8  1  0  0  0  0
  7 21  1  0  0  0  0
  8  9  1  0  0  0  0
  8 22  1  0  0  0  0
  8 23  1  0  0  0  0
  9 10  1  0  0  0  0
  9 11  1  0  0  0  0
 10 24  1  0  0  0  0
 11 25  1  0  0  0  0
 12 13  2  0  0  0  0
 12 17  1  0  0  0  0
 13 14  1  0  0  0  0
 13 26  1  0  0  0  0
 14 15  1  0  0  0  0
 15 16  1  0  0  0  0
 15 17  2  0  0  0  0
 16 27  1  0  0  0  0
 16 28  1  0  0  0  0
M  END
>  <DRUGBANK_ID>
DB07599

>  <COMMON_NAME>
[(2-AMINO-ALPHA-METHOXYIMINO-4-THIAZOLYLACETYL)AMINO]METHYLBORONIC ACID

$$$$
