116
 OpenBabel10282417103D

 55 57  0  0  1  0  0  0  0  0999 V2000
    1.1205    0.1541    0.0027 O   0  0  0  0  0  0  0  0  0  0  0  0
    3.3471   -9.4959   -6.2569 O   0  0  0  0  0  0  0  0  0  0  0  0
    0.0015   -5.4389   -7.3225 O   0  0  0  0  0  0  0  0  0  0  0  0
   -0.3791   -7.4298   -8.2422 O   0  0  0  0  0  0  0  0  0  0  0  0
    0.8377   -5.9813  -11.9946 O   0  0  0  0  0  0  0  0  0  0  0  0
    0.3107   -7.6782  -10.6500 O   0  0  0  0  0  0  0  0  0  0  0  0
    2.3777   -2.3493    0.0040 N   0  0  0  0  0  0  0  0  0  0  0  0
    5.1546   -2.3183    0.2108 N   0  0  0  0  0  0  0  0  0  0  0  0
    4.2384   -4.7303   -2.1509 N   0  0  0  0  0  0  0  0  0  0  0  0
    5.0795    0.0900   -0.0044 N   0  0  0  0  0  0  0  0  0  0  0  0
    3.0887    1.3382    0.0169 N   0  0  0  0  0  0  0  0  0  0  0  0
    2.4996   -7.9617   -7.6346 N   0  0  0  0  0  0  0  0  0  0  0  0
    5.1292    2.3737   -0.0208 N   0  0  0  0  0  0  0  0  0  0  0  0
    3.0925   -3.5652   -0.3694 C   0  0  3  0  0  0  0  0  0  0  0  0
    4.4095   -3.5720    0.4557 C   0  0  0  0  0  0  0  0  0  0  0  0
    3.4405   -3.5466   -1.8738 C   0  0  0  0  0  0  0  0  0  0  0  0
    3.0898   -1.1469    0.0582 C   0  0  0  0  0  0  0  0  0  0  0  0
    4.4512   -1.1179    0.0874 C   0  0  0  0  0  0  0  0  0  0  0  0
    3.9464   -5.5648   -3.1874 C   0  0  0  0  0  0  0  0  0  0  0  0
    2.3510    0.1722    0.0273 C   0  0  0  0  0  0  0  0  0  0  0  0
    4.3790    1.2520    0.0029 C   0  0  0  0  0  0  0  0  0  0  0  0
    1.9616   -6.6973   -8.1100 C   0  0  1  0  0  0  0  0  0  0  0  0
    2.7579   -6.1218   -9.2768 C   0  0  0  0  0  0  0  0  0  0  0  0
    3.3531   -5.0871   -4.3169 C   0  0  0  0  0  0  0  0  0  0  0  0
    4.2096   -6.9303   -3.0939 C   0  0  0  0  0  0  0  0  0  0  0  0
    3.3221   -7.3247   -5.3168 C   0  0  0  0  0  0  0  0  0  0  0  0
    3.0696   -5.9501   -5.3433 C   0  0  0  0  0  0  0  0  0  0  0  0
    3.8978   -7.8098   -4.1399 C   0  0  0  0  0  0  0  0  0  0  0  0
    2.5633   -6.8789  -10.5672 C   0  0  0  0  0  0  0  0  0  0  0  0
    3.0514   -8.3114   -6.4234 C   0  0  0  0  0  0  0  0  0  0  0  0
    0.4271   -6.5683   -7.9496 C   0  0  0  0  0  0  0  0  0  0  0  0
    1.1353   -6.8955  -11.0527 C   0  0  0  0  0  0  0  0  0  0  0  0
    0.5248   -5.1514   -6.5527 H   0  0  0  0  0  0  0  0  0  0  0  0
    1.5914   -5.7316  -12.5535 H   0  0  0  0  0  0  0  0  0  0  0  0
    1.3670   -2.3108    0.1045 H   0  0  0  0  0  0  0  0  0  0  0  0
    6.0850   -2.3734   -0.1844 H   0  0  0  0  0  0  0  0  0  0  0  0
    5.1933   -4.7658   -1.8149 H   0  0  0  0  0  0  0  0  0  0  0  0
    6.0829    0.0829    0.0580 H   0  0  0  0  0  0  0  0  0  0  0  0
    2.3009   -8.7725   -8.2160 H   0  0  0  0  0  0  0  0  0  0  0  0
    4.6347    3.2573    0.0258 H   0  0  0  0  0  0  0  0  0  0  0  0
    6.1337    2.3939    0.0407 H   0  0  0  0  0  0  0  0  0  0  0  0
    2.4926   -4.4572   -0.1469 H   0  0  0  0  0  0  0  0  0  0  0  0
    4.1516   -3.5926    1.5198 H   0  0  0  0  0  0  0  0  0  0  0  0
    5.0255   -4.4554    0.2615 H   0  0  0  0  0  0  0  0  0  0  0  0
    2.4993   -3.5065   -2.4419 H   0  0  0  0  0  0  0  0  0  0  0  0
    3.9941   -2.6479   -2.1773 H   0  0  0  0  0  0  0  0  0  0  0  0
    2.2781   -5.9746   -7.4334 H   0  0  0  0  0  0  0  0  0  0  0  0
    2.5554   -5.0473   -9.3855 H   0  0  0  0  0  0  0  0  0  0  0  0
    3.8331   -6.1736   -9.0089 H   0  0  0  0  0  0  0  0  0  0  0  0
    3.1263   -4.0347   -4.4728 H   0  0  0  0  0  0  0  0  0  0  0  0
    4.6330   -7.3201   -2.1740 H   0  0  0  0  0  0  0  0  0  0  0  0
    2.6716   -5.3269   -6.1017 H   0  0  0  0  0  0  0  0  0  0  0  0
    4.1171   -8.8692   -4.0154 H   0  0  0  0  0  0  0  0  0  0  0  0
    3.2282   -6.4796  -11.3356 H   0  0  0  0  0  0  0  0  0  0  0  0
    2.8580   -7.9201  -10.4047 H   0  0  0  0  0  0  0  0  0  0  0  0
  1 20  2  0  0  0  0
  2 30  2  0  0  0  0
  3 31  1  0  0  0  0
  3 33  1  0  0  0  0
  4 31  2  0  0  0  0
  5 32  1  0  0  0  0
  5 34  1  0  0  0  0
  6 32  2  0  0  0  0
  7 14  1  0  0  0  0
  7 17  1  0  0  0  0
  7 35  1  0  0  0  0
  8 15  1  0  0  0  0
  8 18  1  0  0  0  0
  8 36  1  0  0  0  0
  9 16  1  0  0  0  0
  9 19  1  0  0  0  0
  9 37  1  0  0  0  0
 10 18  1  0  0  0  0
 10 21  1  0  0  0  0
 10 38  1  0  0  0  0
 11 20  1  0  0  0  0
 11 21  2  0  0  0  0
 12 30  1  0  0  0  0
 12 39  1  0  0  0  0
 13 21  1  0  0  0  0
 13 40  1  0  0  0  0
 13 41  1  0  0  0  0
 14 15  1  0  0  0  0
 14 16  1  0  0  0  0
 14 42  1  0  0  0  0
 15 43  1  0  0  0  0
 15 44  1  0  0  0  0
 16 45  1  0  0  0  0
 16 46  1  0  0  0  0
 17 18  2  0  0  0  0
 17 20  1  0  0  0  0
 19 24  2  0  0  0  0
 19 25  1  0  0  0  0
 22 12  1  0  0  0  0
 22 23  1  0  0  0  0
 22 31  1  0  0  0  0
 22 47  1  1  0  0  0
 23 29  1  0  0  0  0
 23 48  1  0  0  0  0
 23 49  1  0  0  0  0
 24 27  1  0  0  0  0
 24 50  1  0  0  0  0
 25 28  2  0  0  0  0
 25 51  1  0  0  0  0
 26 27  2  0  0  0  0
 26 28  1  0  0  0  0
 26 30  1  0  0  0  0
 27 52  1  0  0  0  0
 28 53  1  0  0  0  0
 29 32  1  0  0  0  0
 29 54  1  0  0  0  0
 29 55  1  0  0  0  0
M  END
>  <DRUGBANK_ID>
DB00116

>  <SECONDARY_ACCESSION_NUMBERS>
NUTR00056

>  <COMMON_NAME>
Tetrahydrofolic acid

>  <CAS_NUMBER>
135-16-0

>  <UNII>
43ZWB253H4

>  <SYNONYMS>
5,6,7,8-tetrahydrofolate; 5,6,7,8-tetrahydrofolic acid; Tetrahydrofolate

$$$$
