M5P
 OpenBabel10282417173D

 31 31  0  0  0  0  0  0  0  0999 V2000
    1.4166   -0.3009    0.0081 C   0  0  0  0  0  0  0  0  0  0  0  0
    0.5269   -1.3797    0.0155 C   0  0  0  0  0  0  0  0  0  0  0  0
   -0.8540   -1.1723   -0.0042 C   0  0  0  0  0  0  0  0  0  0  0  0
   -1.3481    0.1139    0.0836 C   0  0  0  0  0  0  0  0  0  0  0  0
   -0.4465    1.1622    0.2076 C   0  0  0  0  0  0  0  0  0  0  0  0
    0.9270    0.9971    0.0127 C   0  0  0  0  0  0  0  0  0  0  0  0
    1.8245    2.1760   -0.2931 C   0  0  0  0  0  0  0  0  0  0  0  0
    1.4380    2.8669   -1.6248 C   0  0  0  0  0  0  0  0  0  0  0  0
    0.0609    3.5535   -1.6078 C   0  0  0  0  0  0  0  0  0  0  0  0
   -0.1429    4.5166   -0.4182 C   0  0  1  0  0  0  0  0  0  0  0  0
    0.7569    5.7309   -0.5900 C   0  0  0  0  0  0  0  0  0  0  0  0
    0.3953    6.8907   -0.7483 O   0  0  0  0  0  0  0  0  0  0  0  0
    2.0714    5.4365   -0.5621 O   0  0  0  0  0  0  0  0  0  0  0  0
   -1.6059    4.9822   -0.2922 C   0  0  0  0  0  0  0  0  0  0  0  0
   -2.9016    3.7288    0.0459 S   0  0  0  0  0  0  0  0  0  0  0  0
    0.1332    4.0712    0.5445 H   0  0  0  0  0  0  0  0  0  0  0  0
    2.4875   -0.4783   -0.0122 H   0  0  0  0  0  0  0  0  0  0  0  0
    0.9158   -2.3914    0.0030 H   0  0  0  0  0  0  0  0  0  0  0  0
   -1.5437   -2.0082   -0.0525 H   0  0  0  0  0  0  0  0  0  0  0  0
   -2.4167    0.3144    0.0552 H   0  0  0  0  0  0  0  0  0  0  0  0
   -0.8429    2.1405    0.4091 H   0  0  0  0  0  0  0  0  0  0  0  0
    1.8233    2.8756    0.5488 H   0  0  0  0  0  0  0  0  0  0  0  0
    2.8654    1.8424   -0.3847 H   0  0  0  0  0  0  0  0  0  0  0  0
    2.2020    3.6027   -1.8950 H   0  0  0  0  0  0  0  0  0  0  0  0
    1.4588    2.1397   -2.4464 H   0  0  0  0  0  0  0  0  0  0  0  0
   -0.1142    4.0795   -2.5530 H   0  0  0  0  0  0  0  0  0  0  0  0
   -0.6935    2.7650   -1.6223 H   0  0  0  0  0  0  0  0  0  0  0  0
    2.5502    6.2531   -0.8171 H   0  0  0  0  0  0  0  0  0  0  0  0
   -1.6788    5.6936    0.5364 H   0  0  0  0  0  0  0  0  0  0  0  0
   -1.9059    5.4953   -1.2076 H   0  0  0  0  0  0  0  0  0  0  0  0
   -2.6081    2.8607   -0.9380 H   0  0  0  0  0  0  0  0  0  0  0  0
  1  2  1  0  0  0  0
  1  6  2  0  0  0  0
  1 17  1  0  0  0  0
  2  3  2  0  0  0  0
  2 18  1  0  0  0  0
  3  4  1  0  0  0  0
  3 19  1  0  0  0  0
  4  5  2  0  0  0  0
  4 20  1  0  0  0  0
  5  6  1  0  0  0  0
  5 21  1  0  0  0  0
  6  7  1  0  0  0  0
  7  8  1  0  0  0  0
  7 22  1  0  0  0  0
  7 23  1  0  0  0  0
  8  9  1  0  0  0  0
  8 24  1  0  0  0  0
  8 25  1  0  0  0  0
  9 10  1  0  0  0  0
  9 26  1  0  0  0  0
  9 27  1  0  0  0  0
 10 11  1  0  0  0  0
 10 14  1  0  0  0  0
 10 16  1  1  0  0  0
 11 12  2  0  0  0  0
 11 13  1  0  0  0  0
 13 28  1  0  0  0  0
 14 15  1  0  0  0  0
 14 29  1  0  0  0  0
 14 30  1  0  0  0  0
 15 31  1  0  0  0  0
M  END
>  <DRUGBANK_ID>
DB08161

>  <COMMON_NAME>
(S)-2-(MERCAPTOMETHYL)-5-PHENYLPENTANOIC ACID

$$$$
