553
 OpenBabel10282417163D

 34 36  0  0  0  0  0  0  0  0999 V2000
    0.8936   -0.0486    0.1056 O   0  0  0  0  0  0  0  0  0  0  0  0
    2.1214   -0.0472    0.0326 C   0  0  0  0  0  0  0  0  0  0  0  0
    2.8222   -1.2146   -0.0583 N   0  0  0  0  0  0  0  0  0  0  0  0
    4.2578   -1.3551    0.0123 C   0  0  0  0  0  0  0  0  0  0  0  0
    5.1436   -0.0778    0.1222 C   0  0  2  0  0  0  0  0  0  0  0  0
    5.8894   -0.1353    1.4649 C   0  0  0  0  0  0  0  0  0  0  0  0
    6.7210   -1.4040    1.6020 C   0  0  0  0  0  0  0  0  0  0  0  0
    7.6092   -1.4545    0.5765 F   0  0  0  0  0  0  0  0  0  0  0  0
    4.3006    1.1544    0.0533 C   0  0  0  0  0  0  0  0  0  0  0  0
    4.7381    2.4611    0.0211 N   0  0  0  0  0  0  0  0  0  0  0  0
    2.9216    1.1544    0.0399 C   0  0  0  0  0  0  0  0  0  0  0  0
    2.5127    2.4994    0.0624 C   0  0  0  0  0  0  0  0  0  0  0  0
    3.6409    3.2993    0.0617 C   0  0  0  0  0  0  0  0  0  0  0  0
    3.6977    4.7486    0.1443 C   0  0  0  0  0  0  0  0  0  0  0  0
    3.0674    5.3959    1.1831 C   0  0  0  0  0  0  0  0  0  0  0  0
    3.0689    6.7615    1.1085 C   0  0  0  0  0  0  0  0  0  0  0  0
    4.2861    5.3783   -0.8868 N   0  0  0  0  0  0  0  0  0  0  0  0
    4.2059    6.7135   -0.8731 C   0  0  0  0  0  0  0  0  0  0  0  0
    3.6233    7.4402    0.0896 N   0  0  0  0  0  0  0  0  0  0  0  0
    4.7713    7.3967   -1.9099 N   0  0  0  0  0  0  0  0  0  0  0  0
    5.8596   -0.0703   -0.7119 H   0  0  0  0  0  0  0  0  0  0  0  0
    2.2569   -2.0482    0.0234 H   0  0  0  0  0  0  0  0  0  0  0  0
    4.3629   -1.9731    0.9054 H   0  0  0  0  0  0  0  0  0  0  0  0
    4.5836   -1.9704   -0.8318 H   0  0  0  0  0  0  0  0  0  0  0  0
    6.5434    0.7388    1.5621 H   0  0  0  0  0  0  0  0  0  0  0  0
    5.1608   -0.0846    2.2852 H   0  0  0  0  0  0  0  0  0  0  0  0
    7.2644   -1.4124    2.5475 H   0  0  0  0  0  0  0  0  0  0  0  0
    6.1360   -2.3267    1.5692 H   0  0  0  0  0  0  0  0  0  0  0  0
    5.7024    2.7758    0.0280 H   0  0  0  0  0  0  0  0  0  0  0  0
    1.4892    2.8486    0.0797 H   0  0  0  0  0  0  0  0  0  0  0  0
    2.5902    4.8618    1.9927 H   0  0  0  0  0  0  0  0  0  0  0  0
    2.6038    7.3647    1.8817 H   0  0  0  0  0  0  0  0  0  0  0  0
    4.6524    8.3946   -1.9304 H   0  0  0  0  0  0  0  0  0  0  0  0
    5.1248    6.8622   -2.6830 H   0  0  0  0  0  0  0  0  0  0  0  0
  2  1  2  0  0  0  0
  2 11  1  0  0  0  0
  3  2  1  0  0  0  0
  3 22  1  0  0  0  0
  4  3  1  0  0  0  0
  4  5  1  0  0  0  0
  4 23  1  0  0  0  0
  4 24  1  0  0  0  0
  5  6  1  0  0  0  0
  5  9  1  0  0  0  0
  5 21  1  6  0  0  0
  6 25  1  0  0  0  0
  6 26  1  0  0  0  0
  7  6  1  0  0  0  0
  7 27  1  0  0  0  0
  7 28  1  0  0  0  0
  8  7  1  0  0  0  0
  9 11  2  0  0  0  0
  9 10  1  0  0  0  0
 10 13  1  0  0  0  0
 10 29  1  0  0  0  0
 11 12  1  0  0  0  0
 12 13  2  0  0  0  0
 12 30  1  0  0  0  0
 13 14  1  0  0  0  0
 14 15  1  0  0  0  0
 15 16  2  0  0  0  0
 15 31  1  0  0  0  0
 16 32  1  0  0  0  0
 17 14  2  0  0  0  0
 17 18  1  0  0  0  0
 18 19  2  0  0  0  0
 19 16  1  0  0  0  0
 20 18  1  0  0  0  0
 20 33  1  0  0  0  0
 20 34  1  0  0  0  0
M  END
>  <DRUGBANK_ID>
DB07149

>  <COMMON_NAME>
(7S)-2-(2-aminopyrimidin-4-yl)-7-(2-fluoroethyl)-1,5,6,7-tetrahydro-4H-pyrrolo[3,2-c]pyridin-4-one

$$$$
