
 OpenBabel10282417233D

 65 69  0  0  1  0  0  0  0  0999 V2000
    1.2190    0.0253    0.1820 C   0  0  0  0  0  0  0  0  0  0  0  0
    0.8251   -0.0671   -1.1629 O   0  0  0  0  0  0  0  0  0  0  0  0
   -0.5428    0.0591   -0.8074 C   0  0  0  0  0  0  0  0  0  0  0  0
   -1.4509    1.4541   -1.3998 N   0  0  0  0  0  0  0  0  0  0  0  0
   -3.2254    1.3184   -1.4131 C   0  0  0  0  0  0  0  0  0  0  0  0
   -3.8632    2.2103   -2.3160 O   0  0  0  0  0  0  0  0  0  0  0  0
   -3.8746    1.8579   -3.7308 C   0  0  0  0  0  0  0  0  0  0  0  0
   -4.1334   -0.1268   -0.6794 C   0  0  0  0  0  0  0  0  0  0  0  0
   -3.0382   -1.6087   -0.0486 C   0  0  0  0  0  0  0  0  0  0  0  0
   -3.6516   -2.7635    0.0438 O   0  0  0  0  0  0  0  0  0  0  0  0
   -4.6080   -2.3006    0.9695 C   0  0  1  0  0  0  0  0  0  0  0  0
   -4.0829   -1.2477    2.1771 C   0  0  1  0  0  0  0  0  0  0  0  0
   -4.2306    0.1114    1.4673 C   0  0  1  0  0  0  0  0  0  0  0  0
   -2.5855    0.2139    0.3352 C   0  0  0  0  0  0  0  0  0  0  0  0
   -2.6289   -0.6792   -1.6221 N   0  0  0  0  0  0  0  0  0  0  0  0
   -1.7329   -0.5783   -2.6935 C   0  0  0  0  0  0  0  0  0  0  0  0
   -3.6976   -1.7739   -2.2699 C   0  0  0  0  0  0  0  0  0  0  0  0
   -5.7590   -0.1009    0.7368 C   0  0  1  0  0  0  0  0  0  0  0  0
   -7.0675    0.0298    1.2915 O   0  0  0  0  0  0  0  0  0  0  0  0
   -5.2643   -0.8956   -0.3369 C   0  0  1  0  0  0  0  0  0  0  0  0
   -6.1885   -0.5664   -1.4184 O   0  0  0  0  0  0  0  0  0  0  0  0
   -4.6765   -1.3938    3.5460 C   0  0  0  0  0  0  0  0  0  0  0  0
   -4.0023   -2.1350    4.5379 C   0  0  0  0  0  0  0  0  0  0  0  0
   -4.6196   -2.3970    5.7517 C   0  0  0  0  0  0  0  0  0  0  0  0
   -5.8010   -1.7382    6.0586 C   0  0  0  0  0  0  0  0  0  0  0  0
   -6.3438   -0.8248    5.1682 C   0  0  0  0  0  0  0  0  0  0  0  0
   -5.8305   -0.7259    3.8955 C   0  0  0  0  0  0  0  0  0  0  0  0
   -3.7965   -3.7650    1.7290 C   0  0  0  0  0  0  0  0  0  0  0  0
   -2.4141   -4.3521    1.6598 C   0  0  0  0  0  0  0  0  0  0  0  0
   -2.0134   -5.6748    2.2172 C   0  0  0  0  0  0  0  0  0  0  0  0
   -2.8591   -6.3838    3.0557 C   0  0  0  0  0  0  0  0  0  0  0  0
   -4.0403   -5.7122    3.3733 C   0  0  0  0  0  0  0  0  0  0  0  0
   -4.5142   -4.5060    2.6829 C   0  0  0  0  0  0  0  0  0  0  0  0
   -2.5711   -7.7317    3.5377 C   0  0  0  0  0  0  0  0  0  0  0  0
   -2.3701   -8.8259    3.8848 N   0  0  0  0  0  0  0  0  0  0  0  0
   -1.2489   -1.4767   -0.2142 C   0  0  0  0  0  0  0  0  0  0  0  0
    0.8134   -0.8190    0.7617 H   0  0  0  0  0  0  0  0  0  0  0  0
    0.7941    0.9632    0.5699 H   0  0  0  0  0  0  0  0  0  0  0  0
    2.2915    0.0169    0.2704 H   0  0  0  0  0  0  0  0  0  0  0  0
   -2.8823    1.7744   -4.2016 H   0  0  0  0  0  0  0  0  0  0  0  0
   -4.4361    0.9322   -3.8937 H   0  0  0  0  0  0  0  0  0  0  0  0
   -4.4089    2.6446   -4.2996 H   0  0  0  0  0  0  0  0  0  0  0  0
   -3.0236   -1.3421    2.4214 H   0  0  0  0  0  0  0  0  0  0  0  0
   -4.3113    1.0330    2.0426 H   0  0  0  0  0  0  0  0  0  0  0  0
   -2.1898    1.2118    0.5852 H   0  0  0  0  0  0  0  0  0  0  0  0
   -2.0165   -0.3662    1.1411 H   0  0  0  0  0  0  0  0  0  0  0  0
   -1.3191   -1.5541   -2.6616 H   0  0  0  0  0  0  0  0  0  0  0  0
   -2.2934   -0.1679   -3.4884 H   0  0  0  0  0  0  0  0  0  0  0  0
   -1.8695   -0.0455   -1.8651 H   0  0  0  0  0  0  0  0  0  0  0  0
   -3.1591   -2.7133   -2.2821 H   0  0  0  0  0  0  0  0  0  0  0  0
   -4.6224   -2.1078   -1.7778 H   0  0  0  0  0  0  0  0  0  0  0  0
   -4.0904   -1.3098   -3.1671 H   0  0  0  0  0  0  0  0  0  0  0  0
   -6.1303   -1.1307    0.7340 H   0  0  0  0  0  0  0  0  0  0  0  0
   -7.3052   -0.8497    1.6951 H   0  0  0  0  0  0  0  0  0  0  0  0
   -5.8711   -0.5172   -2.3516 H   0  0  0  0  0  0  0  0  0  0  0  0
   -3.0052   -2.5418    4.3619 H   0  0  0  0  0  0  0  0  0  0  0  0
   -4.1776   -3.0891    6.4618 H   0  0  0  0  0  0  0  0  0  0  0  0
   -6.2864   -1.9102    7.0093 H   0  0  0  0  0  0  0  0  0  0  0  0
   -7.1633   -0.1735    5.4436 H   0  0  0  0  0  0  0  0  0  0  0  0
   -6.3083   -0.0490    3.2144 H   0  0  0  0  0  0  0  0  0  0  0  0
   -1.5431   -3.8650    1.2084 H   0  0  0  0  0  0  0  0  0  0  0  0
   -1.0481   -6.1519    1.9789 H   0  0  0  0  0  0  0  0  0  0  0  0
   -4.6533   -6.1290    4.1741 H   0  0  0  0  0  0  0  0  0  0  0  0
   -5.4838   -4.1377    2.9800 H   0  0  0  0  0  0  0  0  0  0  0  0
   -0.6831   -2.4007   -0.1404 H   0  0  0  0  0  0  0  0  0  0  0  0
  1  2  1  0  0  0  0
  1 37  1  0  0  0  0
  1 38  1  0  0  0  0
  1 39  1  0  0  0  0
  2  3  1  0  0  0  0
  3  4  2  0  0  0  0
  3 36  1  0  0  0  0
  4  5  1  0  0  0  0
  5  8  2  0  0  0  0
  5  6  1  0  0  0  0
  6  7  1  0  0  0  0
  7 40  1  0  0  0  0
  7 41  1  0  0  0  0
  7 42  1  0  0  0  0
  8  9  1  0  0  0  0
  9 10  1  0  0  0  0
  9 36  2  0  0  0  0
 11 10  1  0  0  0  0
 11 12  1  0  0  0  0
 11 20  1  0  0  0  0
 11 28  1  1  0  0  0
 12 13  1  0  0  0  0
 12 22  1  0  0  0  0
 12 43  1  1  0  0  0
 13 18  1  0  0  0  0
 13 44  1  1  0  0  0
 13 14  1  0  0  0  0
 14 15  1  0  0  0  0
 14 45  1  0  0  0  0
 14 46  1  0  0  0  0
 15 16  1  0  0  0  0
 15 17  1  0  0  0  0
 16 47  1  0  0  0  0
 16 48  1  0  0  0  0
 16 49  1  0  0  0  0
 17 50  1  0  0  0  0
 17 51  1  0  0  0  0
 17 52  1  0  0  0  0
 18 19  1  0  0  0  0
 18 53  1  1  0  0  0
 19 54  1  0  0  0  0
 20 18  1  0  0  0  0
 20  8  1  0  0  0  0
 20 21  1  6  0  0  0
 21 55  1  0  0  0  0
 22 23  2  0  0  0  0
 22 27  1  0  0  0  0
 23 24  1  0  0  0  0
 23 56  1  0  0  0  0
 24 25  2  0  0  0  0
 24 57  1  0  0  0  0
 25 26  1  0  0  0  0
 25 58  1  0  0  0  0
 26 27  2  0  0  0  0
 26 59  1  0  0  0  0
 27 60  1  0  0  0  0
 28 29  2  0  0  0  0
 28 33  1  0  0  0  0
 29 30  1  0  0  0  0
 29 61  1  0  0  0  0
 30 31  2  0  0  0  0
 30 62  1  0  0  0  0
 31 32  1  0  0  0  0
 31 34  1  0  0  0  0
 32 33  2  0  0  0  0
 32 63  1  0  0  0  0
 33 64  1  0  0  0  0
 34 35  3  0  0  0  0
 36 65  1  0  0  0  0
M  END
>  <DRUGBANK_ID>
DB16408

>  <COMMON_NAME>
Zotatifin

>  <CAS_NUMBER>
2098191-53-6

>  <UNII>
2EWN8Z05CN

>  <SYNONYMS>
Zotatifin

$$$$
