
 OpenBabel10282417203D

 46 48  0  0  0  0  0  0  0  0999 V2000
    1.0395    0.0902    0.0452 C   0  0  0  0  0  0  0  0  0  0  0  0
    0.6066    1.4887    0.4007 C   0  0  0  0  0  0  0  0  0  0  0  0
   -0.5411    1.6838    1.1893 C   0  0  0  0  0  0  0  0  0  0  0  0
   -0.9793    2.9758    1.5129 C   0  0  0  0  0  0  0  0  0  0  0  0
   -0.2936    4.1030    1.0294 C   0  0  0  0  0  0  0  0  0  0  0  0
    0.8793    3.9142    0.2179 C   0  0  0  0  0  0  0  0  0  0  0  0
    1.3052    2.6095   -0.1002 C   0  0  0  0  0  0  0  0  0  0  0  0
    1.5911    5.0029   -0.5148 O   0  0  0  0  0  0  0  0  0  0  0  0
    2.2563    6.1468    0.0463 C   0  0  0  0  0  0  0  0  0  0  0  0
    2.5198    6.2855    1.1968 O   0  0  0  0  0  0  0  0  0  0  0  0
    2.5070    7.3085   -0.9214 C   0  0  0  0  0  0  0  0  0  0  0  0
   -0.8907    5.3872    1.4128 C   0  0  0  0  0  0  0  0  0  0  0  0
   -1.9200    5.5471    2.2417 C   0  0  0  0  0  0  0  0  0  0  0  0
   -2.3869    6.9550    2.6782 C   0  0  0  0  0  0  0  0  0  0  0  0
   -1.3662    8.0732    2.4370 C   0  0  0  0  0  0  0  0  0  0  0  0
   -0.8101    7.9424    1.0364 C   0  0  3  0  0  0  0  0  0  0  0  0
   -0.2016    6.5799    0.9792 C   0  0  0  0  0  0  0  0  0  0  0  0
   -1.8006    8.0512   -0.1148 C   0  0  0  0  0  0  0  0  0  0  0  0
   -2.6018    4.3265    2.7686 C   0  0  0  0  0  0  0  0  0  0  0  0
   -2.1172    3.0432    2.2826 O   0  0  0  0  0  0  0  0  0  0  0  0
   -2.3589    4.3282    4.2803 C   0  0  0  0  0  0  0  0  0  0  0  0
   -4.0437    4.4509    2.2725 C   0  0  0  0  0  0  0  0  0  0  0  0
    0.6570   -0.1907   -0.9416 H   0  0  0  0  0  0  0  0  0  0  0  0
    0.6737   -0.6422    0.7755 H   0  0  0  0  0  0  0  0  0  0  0  0
    2.1317    0.0165    0.0390 H   0  0  0  0  0  0  0  0  0  0  0  0
   -1.1089    0.8262    1.5521 H   0  0  0  0  0  0  0  0  0  0  0  0
    2.1664    2.4526   -0.7451 H   0  0  0  0  0  0  0  0  0  0  0  0
    3.5634    7.5578   -0.7836 H   0  0  0  0  0  0  0  0  0  0  0  0
    2.3073    7.1566   -1.9823 H   0  0  0  0  0  0  0  0  0  0  0  0
    1.9317    8.1916   -0.6009 H   0  0  0  0  0  0  0  0  0  0  0  0
   -2.6576    6.9963    3.7350 H   0  0  0  0  0  0  0  0  0  0  0  0
   -3.2861    7.2124    2.1096 H   0  0  0  0  0  0  0  0  0  0  0  0
   -0.5445    7.9732    3.1665 H   0  0  0  0  0  0  0  0  0  0  0  0
   -1.7904    9.0682    2.5918 H   0  0  0  0  0  0  0  0  0  0  0  0
    0.0038    8.6603    0.8825 H   0  0  0  0  0  0  0  0  0  0  0  0
    0.0134    6.4134   -0.0664 H   0  0  0  0  0  0  0  0  0  0  0  0
    0.5813    6.5956    1.7309 H   0  0  0  0  0  0  0  0  0  0  0  0
   -2.2721    9.0313   -0.1327 H   0  0  0  0  0  0  0  0  0  0  0  0
   -1.2732    7.9004   -1.0666 H   0  0  0  0  0  0  0  0  0  0  0  0
   -2.5721    7.2751   -0.0705 H   0  0  0  0  0  0  0  0  0  0  0  0
   -2.6834    5.2477    4.7749 H   0  0  0  0  0  0  0  0  0  0  0  0
   -2.8340    3.4847    4.7820 H   0  0  0  0  0  0  0  0  0  0  0  0
   -1.2770    4.2378    4.4697 H   0  0  0  0  0  0  0  0  0  0  0  0
   -4.0525    4.3463    1.1753 H   0  0  0  0  0  0  0  0  0  0  0  0
   -4.6958    3.6737    2.6695 H   0  0  0  0  0  0  0  0  0  0  0  0
   -4.4933    5.4247    2.4947 H   0  0  0  0  0  0  0  0  0  0  0  0
  1  2  1  0  0  0  0
  1 23  1  0  0  0  0
  1 24  1  0  0  0  0
  1 25  1  0  0  0  0
  2  3  2  0  0  0  0
  2  7  1  0  0  0  0
  3  4  1  0  0  0  0
  3 26  1  0  0  0  0
  4  5  2  0  0  0  0
  4 20  1  0  0  0  0
  5  6  1  0  0  0  0
  5 12  1  0  0  0  0
  6  7  2  0  0  0  0
  6  8  1  0  0  0  0
  7 27  1  0  0  0  0
  8  9  1  0  0  0  0
  9 10  2  0  0  0  0
  9 11  1  0  0  0  0
 11 28  1  0  0  0  0
 11 29  1  0  0  0  0
 11 30  1  0  0  0  0
 12 13  2  0  0  0  0
 12 17  1  0  0  0  0
 13 14  1  0  0  0  0
 13 19  1  0  0  0  0
 14 15  1  0  0  0  0
 14 31  1  0  0  0  0
 14 32  1  0  0  0  0
 15 16  1  0  0  0  0
 15 33  1  0  0  0  0
 15 34  1  0  0  0  0
 16 17  1  0  0  0  0
 16 18  1  0  0  0  0
 16 35  1  0  0  0  0
 17 36  1  0  0  0  0
 17 37  1  0  0  0  0
 18 38  1  0  0  0  0
 18 39  1  0  0  0  0
 18 40  1  0  0  0  0
 19 20  1  0  0  0  0
 19 21  1  0  0  0  0
 19 22  1  0  0  0  0
 21 41  1  0  0  0  0
 21 42  1  0  0  0  0
 21 43  1  0  0  0  0
 22 44  1  0  0  0  0
 22 45  1  0  0  0  0
 22 46  1  0  0  0  0
M  END
>  <DRUGBANK_ID>
DB12840

>  <COMMON_NAME>
Pirnabine

>  <CAS_NUMBER>
19825-63-9

>  <UNII>
S3FHL03F60

>  <SYNONYMS>
Pirnabin; Pirnabine

$$$$
