4NA
 OpenBabel10282417163D

 30 32  0  0  0  0  0  0  0  0999 V2000
    2.4389    0.7465   -0.0225 C   0  0  0  0  0  0  0  0  0  0  0  0
    1.2275    1.4408    0.0648 C   0  0  0  0  0  0  0  0  0  0  0  0
    0.0025    0.7376    0.0788 C   0  0  0  0  0  0  0  0  0  0  0  0
    0.0347   -0.6855    0.0746 C   0  0  0  0  0  0  0  0  0  0  0  0
    1.2615   -1.3541    0.0177 C   0  0  0  0  0  0  0  0  0  0  0  0
    2.4591   -0.6470   -0.0548 C   0  0  0  0  0  0  0  0  0  0  0  0
   -1.2540    1.3636    0.0376 C   0  0  0  0  0  0  0  0  0  0  0  0
   -2.4196    0.6263   -0.1426 C   0  0  0  0  0  0  0  0  0  0  0  0
   -2.3986   -0.7700   -0.0442 C   0  0  0  0  0  0  0  0  0  0  0  0
   -1.1638   -1.4091    0.0966 C   0  0  0  0  0  0  0  0  0  0  0  0
   -3.6566   -1.5145    0.0024 C   0  0  0  0  0  0  0  0  0  0  0  0
   -4.5723   -1.4651   -1.0570 C   0  0  0  0  0  0  0  0  0  0  0  0
   -5.8501   -2.0035   -0.9080 C   0  0  0  0  0  0  0  0  0  0  0  0
   -6.1849   -2.6719    0.2633 C   0  0  0  0  0  0  0  0  0  0  0  0
   -5.2544   -2.8355    1.2820 C   0  0  0  0  0  0  0  0  0  0  0  0
   -4.0068   -2.2231    1.1649 C   0  0  0  0  0  0  0  0  0  0  0  0
   -7.4572   -3.1462    0.3797 O   0  0  0  0  0  0  0  0  0  0  0  0
    1.2588    3.1820    0.0730 Cl  0  0  0  0  0  0  0  0  0  0  0  0
    3.6153    1.4405   -0.1057 O   0  0  0  0  0  0  0  0  0  0  0  0
    1.2895   -2.4442   -0.0208 H   0  0  0  0  0  0  0  0  0  0  0  0
    3.3904   -1.1950   -0.1491 H   0  0  0  0  0  0  0  0  0  0  0  0
   -1.3443    2.4467    0.1116 H   0  0  0  0  0  0  0  0  0  0  0  0
   -3.3518    1.1550   -0.3270 H   0  0  0  0  0  0  0  0  0  0  0  0
   -1.1420   -2.4959    0.1933 H   0  0  0  0  0  0  0  0  0  0  0  0
   -4.3026   -0.9811   -1.9933 H   0  0  0  0  0  0  0  0  0  0  0  0
   -6.5860   -1.8871   -1.6976 H   0  0  0  0  0  0  0  0  0  0  0  0
   -5.4819   -3.4073    2.1753 H   0  0  0  0  0  0  0  0  0  0  0  0
   -3.3131   -2.2665    2.0028 H   0  0  0  0  0  0  0  0  0  0  0  0
   -7.5771   -3.4931    1.2788 H   0  0  0  0  0  0  0  0  0  0  0  0
    4.3544    0.8182   -0.1853 H   0  0  0  0  0  0  0  0  0  0  0  0
  1  2  2  0  0  0  0
  1  6  1  0  0  0  0
  1 19  1  0  0  0  0
  2  3  1  0  0  0  0
  2 18  1  0  0  0  0
  3  4  1  0  0  0  0
  3  7  2  0  0  0  0
  4  5  1  0  0  0  0
  4 10  2  0  0  0  0
  5  6  2  0  0  0  0
  5 20  1  0  0  0  0
  6 21  1  0  0  0  0
  7  8  1  0  0  0  0
  7 22  1  0  0  0  0
  8  9  2  0  0  0  0
  8 23  1  0  0  0  0
  9 10  1  0  0  0  0
  9 11  1  0  0  0  0
 10 24  1  0  0  0  0
 11 12  1  0  0  0  0
 11 16  2  0  0  0  0
 12 13  2  0  0  0  0
 12 25  1  0  0  0  0
 13 14  1  0  0  0  0
 13 26  1  0  0  0  0
 14 15  2  0  0  0  0
 14 17  1  0  0  0  0
 15 16  1  0  0  0  0
 15 27  1  0  0  0  0
 16 28  1  0  0  0  0
 17 29  1  0  0  0  0
 19 30  1  0  0  0  0
M  END
>  <DRUGBANK_ID>
DB07119

>  <COMMON_NAME>
1-CHLORO-6-(4-HYDROXYPHENYL)-2-NAPHTHOL

$$$$
