
 OpenBabel10282417213D

  4  2  0  0  0  0  0  0  0  0999 V2000
    1.0648    0.0362    0.0670 I   0  5  0  0  0  0  0  0  0  0  0  0
   -1.7152    0.0362    0.0670 I   0  0  0  0  0  0  0  0  0  0  0  0
    3.8448    0.0362    0.0670 I   0  0  0  0  0  0  0  0  0  0  0  0
    1.0241    0.0765   -0.0597 K   0  3  0  0  0  0  0  0  0  0  0  0
  1  2  1  0  0  0  0
  1  3  1  0  0  0  0
M  CHG  2   1  -1   4   1
M  END
>  <DRUGBANK_ID>
DB14492

>  <COMMON_NAME>
Potassium triiodide

>  <CAS_NUMBER>
12298-68-9

>  <UNII>
T66M6Y3KSA

>  <SYNONYMS>
Iodine aqueous; Lugol's iodine; Lugol's solution; Microiodide; Potassium triiodide

$$$$
