
 OpenBabel10282417113D

 79 80  0  0  1  0  0  0  0  0999 V2000
    0.3865    0.7464   -0.0137 C   0  0  0  0  0  0  0  0  0  0  0  0
   -1.0321    1.0914   -0.0265 C   0  0  0  0  0  0  0  0  0  0  0  0
    0.7953   -0.5838   -0.0059 C   0  0  0  0  0  0  0  0  0  0  0  0
   -0.1948   -1.6673    0.0168 C   0  0  0  0  0  0  0  0  0  0  0  0
    2.1593   -0.8900   -0.0046 C   0  0  0  0  0  0  0  0  0  0  0  0
    1.3285    1.7773   -0.0055 C   0  0  0  0  0  0  0  0  0  0  0  0
   -1.6325   -1.3024    0.0820 C   0  0  0  0  0  0  0  0  0  0  0  0
    3.1002    0.1396    0.0110 C   0  0  0  0  0  0  0  0  0  0  0  0
   -2.0166   -0.0074    0.0126 C   0  0  0  0  0  0  0  0  0  0  0  0
    2.6847    1.4714    0.0132 C   0  0  0  0  0  0  0  0  0  0  0  0
    0.1728   -2.8436   -0.0218 O   0  0  0  0  0  0  0  0  0  0  0  0
   -1.3949    2.2708   -0.0479 O   0  0  0  0  0  0  0  0  0  0  0  0
   -2.5790   -2.4694    0.2161 C   0  0  0  0  0  0  0  0  0  0  0  0
   -4.7723   -2.2124    1.4043 C   0  0  0  0  0  0  0  0  0  0  0  0
   -5.5251   -1.8617    2.6750 C   0  0  0  0  0  0  0  0  0  0  0  0
   -5.4945   -2.3685    0.0769 C   0  0  0  0  0  0  0  0  0  0  0  0
   -6.2188   -0.4885    2.6297 C   0  0  0  0  0  0  0  0  0  0  0  0
   -7.2501   -0.3867    1.5026 C   0  0  0  0  0  0  0  0  0  0  0  0
   -8.2842   -1.5338    1.5974 C   0  0  1  0  0  0  0  0  0  0  0  0
   -9.0975   -1.3359    2.8866 C   0  0  0  0  0  0  0  0  0  0  0  0
   -9.0413   -1.7128    0.2736 C   0  0  0  0  0  0  0  0  0  0  0  0
   -9.8088    0.0176    2.9146 C   0  0  0  0  0  0  0  0  0  0  0  0
  -10.8210    0.1468    1.7793 C   0  0  0  0  0  0  0  0  0  0  0  0
  -11.8040   -1.0376    1.8041 C   0  0  1  0  0  0  0  0  0  0  0  0
  -12.6356   -0.8736    3.0857 C   0  0  0  0  0  0  0  0  0  0  0  0
  -12.5342   -1.2131    0.4715 C   0  0  0  0  0  0  0  0  0  0  0  0
  -13.3513    0.4836    3.1468 C   0  0  0  0  0  0  0  0  0  0  0  0
  -14.3923    0.6481    2.0416 C   0  0  0  0  0  0  0  0  0  0  0  0
  -15.3617   -0.5414    2.0345 C   0  0  0  0  0  0  0  0  0  0  0  0
  -16.1693   -0.4660    3.3206 C   0  0  0  0  0  0  0  0  0  0  0  0
  -16.2347   -0.5494    0.7939 C   0  0  0  0  0  0  0  0  0  0  0  0
   -3.4336   -2.3371    1.4481 C   0  0  0  0  0  0  0  0  0  0  0  0
   -3.4243    0.4949   -0.0116 C   0  0  0  0  0  0  0  0  0  0  0  0
    2.4905   -1.9274   -0.0093 H   0  0  0  0  0  0  0  0  0  0  0  0
    1.0014    2.8158   -0.0087 H   0  0  0  0  0  0  0  0  0  0  0  0
    4.1607   -0.0972    0.0250 H   0  0  0  0  0  0  0  0  0  0  0  0
    3.4155    2.2751    0.0289 H   0  0  0  0  0  0  0  0  0  0  0  0
   -3.1708   -2.5027   -0.7046 H   0  0  0  0  0  0  0  0  0  0  0  0
   -2.0818   -3.4416    0.2695 H   0  0  0  0  0  0  0  0  0  0  0  0
   -6.2309   -2.6662    2.9042 H   0  0  0  0  0  0  0  0  0  0  0  0
   -4.8532   -1.8518    3.5439 H   0  0  0  0  0  0  0  0  0  0  0  0
   -5.3287   -1.5431   -0.6242 H   0  0  0  0  0  0  0  0  0  0  0  0
   -5.2233   -3.2910   -0.4321 H   0  0  0  0  0  0  0  0  0  0  0  0
   -6.5597   -2.4281    0.1815 H   0  0  0  0  0  0  0  0  0  0  0  0
   -6.7009   -0.3001    3.5989 H   0  0  0  0  0  0  0  0  0  0  0  0
   -5.4836    0.3161    2.5249 H   0  0  0  0  0  0  0  0  0  0  0  0
   -7.7301    0.5952    1.5208 H   0  0  0  0  0  0  0  0  0  0  0  0
   -6.7539   -0.3553    0.5336 H   0  0  0  0  0  0  0  0  0  0  0  0
   -7.8116   -2.5107    1.7315 H   0  0  0  0  0  0  0  0  0  0  0  0
   -9.7711   -2.1837    3.0473 H   0  0  0  0  0  0  0  0  0  0  0  0
   -8.4443   -1.4019    3.7658 H   0  0  0  0  0  0  0  0  0  0  0  0
   -8.4059   -2.0862   -0.5308 H   0  0  0  0  0  0  0  0  0  0  0  0
   -9.8558   -2.4314    0.3818 H   0  0  0  0  0  0  0  0  0  0  0  0
   -9.3986   -0.7837   -0.1540 H   0  0  0  0  0  0  0  0  0  0  0  0
  -10.2798    0.1547    3.8916 H   0  0  0  0  0  0  0  0  0  0  0  0
   -9.1043    0.8505    2.8645 H   0  0  0  0  0  0  0  0  0  0  0  0
  -11.3164    1.1134    1.8460 H   0  0  0  0  0  0  0  0  0  0  0  0
  -10.3558    0.2910    0.8154 H   0  0  0  0  0  0  0  0  0  0  0  0
  -11.3024   -2.0032    1.9113 H   0  0  0  0  0  0  0  0  0  0  0  0
  -13.3040   -1.7269    3.2257 H   0  0  0  0  0  0  0  0  0  0  0  0
  -11.9819   -0.9520    3.9648 H   0  0  0  0  0  0  0  0  0  0  0  0
  -11.8639   -1.5776   -0.3120 H   0  0  0  0  0  0  0  0  0  0  0  0
  -13.3430   -1.9431    0.5585 H   0  0  0  0  0  0  0  0  0  0  0  0
  -12.9081   -0.2825    0.0598 H   0  0  0  0  0  0  0  0  0  0  0  0
  -13.8024    0.6049    4.1326 H   0  0  0  0  0  0  0  0  0  0  0  0
  -12.6541    1.3242    3.1074 H   0  0  0  0  0  0  0  0  0  0  0  0
  -14.9311    1.5885    2.1872 H   0  0  0  0  0  0  0  0  0  0  0  0
  -13.9249    0.8094    1.0726 H   0  0  0  0  0  0  0  0  0  0  0  0
  -14.8467   -1.5067    2.0241 H   0  0  0  0  0  0  0  0  0  0  0  0
  -16.6770    0.5008    3.3756 H   0  0  0  0  0  0  0  0  0  0  0  0
  -16.8967   -1.2733    3.3846 H   0  0  0  0  0  0  0  0  0  0  0  0
  -15.5193   -0.5520    4.1985 H   0  0  0  0  0  0  0  0  0  0  0  0
  -15.6289   -0.7078   -0.1067 H   0  0  0  0  0  0  0  0  0  0  0  0
  -16.9584   -1.3688    0.8500 H   0  0  0  0  0  0  0  0  0  0  0  0
  -16.7700    0.3954    0.6913 H   0  0  0  0  0  0  0  0  0  0  0  0
   -2.9115   -2.2534    2.4006 H   0  0  0  0  0  0  0  0  0  0  0  0
   -3.6637    1.0927    0.8715 H   0  0  0  0  0  0  0  0  0  0  0  0
   -3.6488    1.0489   -0.9268 H   0  0  0  0  0  0  0  0  0  0  0  0
   -4.1163   -0.3165   -0.0137 H   0  0  0  0  0  0  0  0  0  0  0  0
  1  2  1  0  0  0  0
  1  6  1  0  0  0  0
  2 12  2  0  0  0  0
  2  9  1  0  0  0  0
  3  1  2  0  0  0  0
  3  4  1  0  0  0  0
  3  5  1  0  0  0  0
  4 11  2  0  0  0  0
  4  7  1  0  0  0  0
  5  8  2  0  0  0  0
  5 34  1  0  0  0  0
  6 10  2  0  0  0  0
  6 35  1  0  0  0  0
  7 13  1  0  0  0  0
  7  9  2  0  0  0  0
  8 10  1  0  0  0  0
  8 36  1  0  0  0  0
  9 33  1  0  0  0  0
 10 37  1  0  0  0  0
 13 32  1  0  0  0  0
 13 38  1  0  0  0  0
 13 39  1  0  0  0  0
 14 15  1  0  0  0  0
 14 16  1  0  0  0  0
 15 17  1  0  0  0  0
 15 40  1  0  0  0  0
 15 41  1  0  0  0  0
 16 42  1  0  0  0  0
 16 43  1  0  0  0  0
 16 44  1  0  0  0  0
 17 18  1  0  0  0  0
 17 45  1  0  0  0  0
 17 46  1  0  0  0  0
 18 19  1  0  0  0  0
 18 47  1  0  0  0  0
 18 48  1  0  0  0  0
 19 20  1  0  0  0  0
 19 21  1  0  0  0  0
 19 49  1  1  0  0  0
 20 22  1  0  0  0  0
 20 50  1  0  0  0  0
 20 51  1  0  0  0  0
 21 52  1  0  0  0  0
 21 53  1  0  0  0  0
 21 54  1  0  0  0  0
 22 23  1  0  0  0  0
 22 55  1  0  0  0  0
 22 56  1  0  0  0  0
 23 24  1  0  0  0  0
 23 57  1  0  0  0  0
 23 58  1  0  0  0  0
 24 25  1  0  0  0  0
 24 26  1  0  0  0  0
 24 59  1  1  0  0  0
 25 27  1  0  0  0  0
 25 60  1  0  0  0  0
 25 61  1  0  0  0  0
 26 62  1  0  0  0  0
 26 63  1  0  0  0  0
 26 64  1  0  0  0  0
 27 28  1  0  0  0  0
 27 65  1  0  0  0  0
 27 66  1  0  0  0  0
 28 29  1  0  0  0  0
 28 67  1  0  0  0  0
 28 68  1  0  0  0  0
 29 30  1  0  0  0  0
 29 31  1  0  0  0  0
 29 69  1  0  0  0  0
 30 70  1  0  0  0  0
 30 71  1  0  0  0  0
 30 72  1  0  0  0  0
 31 73  1  0  0  0  0
 31 74  1  0  0  0  0
 31 75  1  0  0  0  0
 32 14  2  0  0  0  0
 32 76  1  0  0  0  0
 33 77  1  0  0  0  0
 33 78  1  0  0  0  0
 33 79  1  0  0  0  0
M  END
>  <DRUGBANK_ID>
DB01022

>  <SECONDARY_ACCESSION_NUMBERS>
APRD00464; DB09528

>  <COMMON_NAME>
Phylloquinone

>  <CAS_NUMBER>
84-80-0

>  <UNII>
S5Z3U87QHF

>  <SYNONYMS>
2-Methyl-3-(3,7,11,15-tetramethyl-2-hexadecenyl)-1,4-naphthalenedione; 2-Methyl-3-[(2E)-3,7,11,15-tetramethyl-2-hexadecenyl]naphthoquinone; 2-Methyl-3-phytyl-1,4-naphthochinon; 2-Methyl-3-phytyl-1,4-naphthoquinone; 3-Phytylmenadione; alpha-Phylloquinone; Fitomenadiona; Phyllochinon; Phyllochinonum; Phylloquinone; Phythyl-menadion; Phytomenadione; Phytomenadionum; Phytonadione; Phytonadionum; Phytylmenadione; trans-Phylloquinone; Vitamin K; Vitamin K1; Î±-phylloquinone

$$$$
