
 OpenBabel10282417203D

 35 36  0  0  0  0  0  0  0  0999 V2000
    0.9529    0.1445   -0.0672 C   0  0  0  0  0  0  0  0  0  0  0  0
    0.4290   -0.5054   -1.3184 C   0  0  0  0  0  0  0  0  0  0  0  0
   -0.2241   -1.5430   -1.3005 O   0  0  0  0  0  0  0  0  0  0  0  0
    0.8413    0.1835   -2.4649 O   0  0  0  0  0  0  0  0  0  0  0  0
    0.3845   -0.3097   -3.7101 C   0  0  0  0  0  0  0  0  0  0  0  0
   -0.9867   -0.5928   -3.8484 C   0  0  0  0  0  0  0  0  0  0  0  0
   -1.5020   -1.0814   -5.0472 C   0  0  0  0  0  0  0  0  0  0  0  0
   -0.6731   -1.2067   -6.1520 C   0  0  0  0  0  0  0  0  0  0  0  0
    0.6733   -0.8532   -6.0478 C   0  0  0  0  0  0  0  0  0  0  0  0
    1.2413   -0.4567   -4.8151 C   0  0  0  0  0  0  0  0  0  0  0  0
    2.7302   -0.3439   -4.8191 C   0  0  0  0  0  0  0  0  0  0  0  0
    3.3861   -0.6007   -5.8287 O   0  0  0  0  0  0  0  0  0  0  0  0
    3.2552   -0.0087   -3.5871 O   0  0  0  0  0  0  0  0  0  0  0  0
    4.6638    0.0701   -3.4348 C   0  0  0  0  0  0  0  0  0  0  0  0
    5.4021    0.8120   -4.3656 C   0  0  0  0  0  0  0  0  0  0  0  0
    6.7694    1.0099   -4.1872 C   0  0  0  0  0  0  0  0  0  0  0  0
    7.3950    0.5281   -3.0427 C   0  0  0  0  0  0  0  0  0  0  0  0
    6.6549   -0.1775   -2.0914 C   0  0  0  0  0  0  0  0  0  0  0  0
    5.2992   -0.4723   -2.3047 C   0  0  0  0  0  0  0  0  0  0  0  0
    4.7749   -1.3087   -1.3526 O   0  0  0  0  0  0  0  0  0  0  0  0
    3.4854   -1.8309   -1.6144 C   0  0  0  0  0  0  0  0  0  0  0  0
    0.6255   -0.4607    0.7856 H   0  0  0  0  0  0  0  0  0  0  0  0
    0.5580    1.1536    0.0488 H   0  0  0  0  0  0  0  0  0  0  0  0
    2.0441    0.1617   -0.0471 H   0  0  0  0  0  0  0  0  0  0  0  0
   -1.6652   -0.4823   -3.0060 H   0  0  0  0  0  0  0  0  0  0  0  0
   -2.5508   -1.3597   -5.1128 H   0  0  0  0  0  0  0  0  0  0  0  0
   -1.0663   -1.5940   -7.0893 H   0  0  0  0  0  0  0  0  0  0  0  0
    1.2906   -0.9184   -6.9448 H   0  0  0  0  0  0  0  0  0  0  0  0
    4.9236    1.2258   -5.2478 H   0  0  0  0  0  0  0  0  0  0  0  0
    7.3364    1.5564   -4.9355 H   0  0  0  0  0  0  0  0  0  0  0  0
    8.4597    0.6910   -2.8963 H   0  0  0  0  0  0  0  0  0  0  0  0
    7.1466   -0.5100   -1.1790 H   0  0  0  0  0  0  0  0  0  0  0  0
    2.7887   -1.0093   -1.5646 H   0  0  0  0  0  0  0  0  0  0  0  0
    3.4126   -2.3394   -2.5809 H   0  0  0  0  0  0  0  0  0  0  0  0
    3.1997   -2.5341   -0.8280 H   0  0  0  0  0  0  0  0  0  0  0  0
  1  2  1  0  0  0  0
  1 22  1  0  0  0  0
  1 23  1  0  0  0  0
  1 24  1  0  0  0  0
  2  3  2  0  0  0  0
  2  4  1  0  0  0  0
  4  5  1  0  0  0  0
  5  6  2  0  0  0  0
  5 10  1  0  0  0  0
  6  7  1  0  0  0  0
  6 25  1  0  0  0  0
  7  8  2  0  0  0  0
  7 26  1  0  0  0  0
  8  9  1  0  0  0  0
  8 27  1  0  0  0  0
  9 10  2  0  0  0  0
  9 28  1  0  0  0  0
 10 11  1  0  0  0  0
 11 12  2  0  0  0  0
 11 13  1  0  0  0  0
 13 14  1  0  0  0  0
 14 15  2  0  0  0  0
 14 19  1  0  0  0  0
 15 16  1  0  0  0  0
 15 29  1  0  0  0  0
 16 17  2  0  0  0  0
 16 30  1  0  0  0  0
 17 18  1  0  0  0  0
 17 31  1  0  0  0  0
 18 19  2  0  0  0  0
 18 32  1  0  0  0  0
 19 20  1  0  0  0  0
 20 21  1  0  0  0  0
 21 33  1  0  0  0  0
 21 34  1  0  0  0  0
 21 35  1  0  0  0  0
M  END
>  <DRUGBANK_ID>
DB13538

>  <COMMON_NAME>
Guacetisal

>  <CAS_NUMBER>
55482-89-8

>  <UNII>
T6EKB9V2O2

>  <SYNONYMS>
Guacetisal

$$$$
