
 OpenBabel10282417123D

108111  0  0  1  0  0  0  0  0999 V2000
   -3.6826   -2.9990   -8.9193 C   0  0  0  0  0  0  0  0  0  0  0  0
   -4.1379   -3.3248   -6.4744 C   0  0  0  0  0  0  0  0  0  0  0  0
   -0.9199   -1.8663   -2.0045 C   0  0  0  0  0  0  0  0  0  0  0  0
    0.4094   -2.3732    0.6706 C   0  0  0  0  0  0  0  0  0  0  0  0
   -0.8382   -7.2465   -7.6900 C   0  0  0  0  0  0  0  0  0  0  0  0
    2.7575   -5.4724    0.3815 C   0  0  0  0  0  0  0  0  0  0  0  0
    4.0225    1.7958   -1.5618 C   0  0  0  0  0  0  0  0  0  0  0  0
    8.7523   -0.3922   -2.1785 C   0  0  0  0  0  0  0  0  0  0  0  0
    3.5514    0.6582   -2.1837 C   0  0  0  0  0  0  0  0  0  0  0  0
    7.4489   -0.4979   -2.5191 C   0  0  0  0  0  0  0  0  0  0  0  0
    2.2726   -2.8587   -6.1338 C   0  0  0  0  0  0  0  0  0  0  0  0
    1.7827   -4.7726   -3.7460 C   0  0  0  0  0  0  0  0  0  0  0  0
    3.2541   -0.5513   -3.5693 C   0  0  0  0  0  0  0  0  0  0  0  0
    2.2661    0.0112   -0.5305 C   0  0  0  0  0  0  0  0  0  0  0  0
    2.4642   -1.9149   -5.0084 C   0  0  0  0  0  0  0  0  0  0  0  0
    1.8881   -4.0253   -2.7225 C   0  0  0  0  0  0  0  0  0  0  0  0
    4.8464   -0.8650   -3.3599 C   0  0  0  0  0  0  0  0  0  0  0  0
    3.6771   -0.1668   -0.3529 C   0  0  0  0  0  0  0  0  0  0  0  0
    5.1037    1.2097   -0.3802 C   0  0  0  0  0  0  0  0  0  0  0  0
    9.1957   -0.8997   -0.9559 C   0  0  0  0  0  0  0  0  0  0  0  0
    4.5497   -1.9531   -0.5245 C   0  0  0  0  0  0  0  0  0  0  0  0
    7.2226   -1.7480   -0.4399 C   0  0  0  0  0  0  0  0  0  0  0  0
    1.4189   -5.4607   -6.7544 C   0  0  0  0  0  0  0  0  0  0  0  0
    0.6695   -0.7452   -2.0260 C   0  0  0  0  0  0  0  0  0  0  0  0
   -3.2480   -3.6667   -7.6517 C   0  0  0  0  0  0  0  0  0  0  0  0
    0.6816   -2.4678   -0.7948 C   0  0  0  0  0  0  0  0  0  0  0  0
    1.9904   -4.1462   -5.5899 C   0  0  0  0  0  0  0  0  0  0  0  0
    1.9137   -0.3217   -2.1343 C   0  0  0  0  0  0  0  0  0  0  0  0
    2.4433   -2.2621   -3.0879 C   0  0  0  0  0  0  0  0  0  0  0  0
    5.1605   -0.4839   -1.7577 C   0  0  0  0  0  0  0  0  0  0  0  0
    3.4887   -1.4195   -1.8129 C   0  0  0  0  0  0  0  0  0  0  0  0
    6.6443   -1.0557   -1.5749 C   0  0  0  0  0  0  0  0  0  0  0  0
   -3.1177   -5.2032   -7.8149 C   0  0  1  0  0  0  0  0  0  0  0  0
    2.3164   -3.4038   -0.9917 C   0  0  1  0  0  0  0  0  0  0  0  0
   -0.4809   -3.4210   -5.9949 C   0  0  2  0  0  0  0  0  0  0  0  0
    0.2181   -4.4181   -4.8244 C   0  0  2  0  0  0  0  0  0  0  0  0
   -0.6380   -4.5362   -6.8847 C   0  0  2  0  0  0  0  0  0  0  0  0
    1.0973   -2.9783   -4.1623 C   0  0  2  0  0  0  0  0  0  0  0  0
   -2.1292   -5.7048   -8.9444 C   0  0  0  0  0  0  0  0  0  0  0  0
    1.1163   -4.7700   -0.8157 C   0  0  0  0  0  0  0  0  0  0  0  0
   -1.7132   -5.4386   -5.9886 C   0  0  0  0  0  0  0  0  0  0  0  0
    3.2594   -3.5329   -3.9849 C   0  0  0  0  0  0  0  0  0  0  0  0
   -1.1294   -6.5159   -8.9021 N   0  0  0  0  0  0  0  0  0  0  0  0
    1.5799   -5.8760   -0.3875 N   0  0  0  0  0  0  0  0  0  0  0  0
    5.4440   -0.5238    0.2167 N   0  0  0  0  0  0  0  0  0  0  0  0
    8.4850   -1.6058   -0.0709 N   0  0  0  0  0  0  0  0  0  0  0  0
   -2.8500   -5.7539   -6.4713 N   0  0  0  0  0  0  0  0  0  0  0  0
    3.7437   -3.6543   -2.4416 N   0  0  0  0  0  0  0  0  0  0  0  0
    0.0327   -2.3207   -6.8039 O   0  0  0  0  0  0  0  0  0  0  0  0
    1.5669   -5.9144   -4.9910 O   0  0  0  0  0  0  0  0  0  0  0  0
   -2.3916   -5.1560  -10.1519 O   0  0  0  0  0  0  0  0  0  0  0  0
   -0.0930   -4.7088   -1.5000 O   0  0  0  0  0  0  0  0  0  0  0  0
   -1.3556   -6.1525   -4.8773 O   0  0  0  0  0  0  0  0  0  0  0  0
    4.2008   -3.3865   -5.0084 O   0  0  0  0  0  0  0  0  0  0  0  0
    0.5728   -4.8285   -7.5815 O   0  0  0  0  0  0  0  0  0  0  0  0
    0.5795   -2.4560   -2.7911 O   0  0  0  0  0  0  0  0  0  0  0  0
   -4.0906   -5.6114   -8.0757 H   0  0  0  0  0  0  0  0  0  0  0  0
    2.9887   -3.3431   -0.1572 H   0  0  0  0  0  0  0  0  0  0  0  0
   -1.3498   -2.9163   -5.5368 H   0  0  0  0  0  0  0  0  0  0  0  0
   -0.4653   -4.6031   -3.9823 H   0  0  0  0  0  0  0  0  0  0  0  0
   -1.0423   -4.1458   -7.7819 H   0  0  0  0  0  0  0  0  0  0  0  0
    0.4986   -2.1158   -4.6158 H   0  0  0  0  0  0  0  0  0  0  0  0
   -4.6574   -3.3878   -9.1973 H   0  0  0  0  0  0  0  0  0  0  0  0
   -2.9669   -3.1651   -9.7231 H   0  0  0  0  0  0  0  0  0  0  0  0
   -3.7037   -1.9198   -8.7785 H   0  0  0  0  0  0  0  0  0  0  0  0
   -5.1360   -3.7061   -6.6714 H   0  0  0  0  0  0  0  0  0  0  0  0
   -3.7696   -3.7608   -5.5372 H   0  0  0  0  0  0  0  0  0  0  0  0
   -4.1538   -2.2438   -6.3317 H   0  0  0  0  0  0  0  0  0  0  0  0
   -1.4230   -2.6590   -2.5215 H   0  0  0  0  0  0  0  0  0  0  0  0
   -1.3881   -0.8228   -2.0514 H   0  0  0  0  0  0  0  0  0  0  0  0
   -0.3932   -1.2630   -3.2647 H   0  0  0  0  0  0  0  0  0  0  0  0
    1.3688   -2.4267    1.2471 H   0  0  0  0  0  0  0  0  0  0  0  0
    0.0035   -1.3793    0.8777 H   0  0  0  0  0  0  0  0  0  0  0  0
   -0.2232   -3.2214    0.6385 H   0  0  0  0  0  0  0  0  0  0  0  0
   -0.5633   -6.5649   -6.9644 H   0  0  0  0  0  0  0  0  0  0  0  0
   -1.6733   -7.6955   -7.1627 H   0  0  0  0  0  0  0  0  0  0  0  0
    0.1334   -7.7271   -7.6030 H   0  0  0  0  0  0  0  0  0  0  0  0
    3.6773   -5.2552   -0.1990 H   0  0  0  0  0  0  0  0  0  0  0  0
    2.5280   -4.6056    1.0376 H   0  0  0  0  0  0  0  0  0  0  0  0
    2.9120   -6.3029    1.0230 H   0  0  0  0  0  0  0  0  0  0  0  0
    2.8866    2.2277   -1.4317 H   0  0  0  0  0  0  0  0  0  0  0  0
    9.3923    0.1230   -2.8625 H   0  0  0  0  0  0  0  0  0  0  0  0
    2.5519    1.0296   -3.0809 H   0  0  0  0  0  0  0  0  0  0  0  0
    6.9986   -0.0340   -3.3889 H   0  0  0  0  0  0  0  0  0  0  0  0
    2.6549   -2.7965   -7.1311 H   0  0  0  0  0  0  0  0  0  0  0  0
    1.1950   -5.7120   -3.3917 H   0  0  0  0  0  0  0  0  0  0  0  0
    2.6408   -0.3486   -4.3049 H   0  0  0  0  0  0  0  0  0  0  0  0
    1.6897    0.3163    0.3267 H   0  0  0  0  0  0  0  0  0  0  0  0
    2.9277   -1.0893   -5.5877 H   0  0  0  0  0  0  0  0  0  0  0  0
    2.4763   -4.8509   -2.1613 H   0  0  0  0  0  0  0  0  0  0  0  0
    5.2473   -1.9930   -3.4829 H   0  0  0  0  0  0  0  0  0  0  0  0
    3.8428   -0.1636    0.7873 H   0  0  0  0  0  0  0  0  0  0  0  0
    4.5389    1.6674    0.4517 H   0  0  0  0  0  0  0  0  0  0  0  0
   10.2217   -0.7743   -0.6730 H   0  0  0  0  0  0  0  0  0  0  0  0
    4.9899   -2.9406   -0.8481 H   0  0  0  0  0  0  0  0  0  0  0  0
    6.6282   -2.2310    0.3537 H   0  0  0  0  0  0  0  0  0  0  0  0
    0.7417   -6.3424   -6.1975 H   0  0  0  0  0  0  0  0  0  0  0  0
    2.3316   -6.0620   -6.9104 H   0  0  0  0  0  0  0  0  0  0  0  0
    0.2059    0.1314   -2.4134 H   0  0  0  0  0  0  0  0  0  0  0  0
   -0.0183   -0.7146   -0.8970 H   0  0  0  0  0  0  0  0  0  0  0  0
   -2.3348   -3.1424   -7.4169 H   0  0  0  0  0  0  0  0  0  0  0  0
    1.4085   -1.7307   -0.4983 H   0  0  0  0  0  0  0  0  0  0  0  0
    0.6738   -2.6927   -7.4436 H   0  0  0  0  0  0  0  0  0  0  0  0
    2.7330   -5.5076   -5.1568 H   0  0  0  0  0  0  0  0  0  0  0  0
   -1.7104   -5.3809  -10.8090 H   0  0  0  0  0  0  0  0  0  0  0  0
   -0.2379   -5.4101   -2.1645 H   0  0  0  0  0  0  0  0  0  0  0  0
   -0.4054   -6.2500   -4.6365 H   0  0  0  0  0  0  0  0  0  0  0  0
    4.4791   -2.4439   -5.0634 H   0  0  0  0  0  0  0  0  0  0  0  0
  1 63  1  0  0  0  0
  1 64  1  0  0  0  0
  1 65  1  0  0  0  0
  2 66  1  0  0  0  0
  2 67  1  0  0  0  0
  2 68  1  0  0  0  0
  3 69  1  0  0  0  0
  3 70  1  0  0  0  0
  3 71  1  0  0  0  0
  4 72  1  0  0  0  0
  4 73  1  0  0  0  0
  4 74  1  0  0  0  0
  5 75  1  0  0  0  0
  5 76  1  0  0  0  0
  5 77  1  0  0  0  0
  6 78  1  0  0  0  0
  6 79  1  0  0  0  0
  6 80  1  0  0  0  0
  7 81  1  0  0  0  0
  8 82  1  0  0  0  0
  9  7  2  0  0  0  0
  9 83  1  0  0  0  0
 10  8  2  0  0  0  0
 10 84  1  0  0  0  0
 11 85  1  0  0  0  0
 12 86  1  0  0  0  0
 13 87  1  0  0  0  0
 14 88  1  0  0  0  0
 15 11  1  0  0  0  0
 15 89  1  0  0  0  0
 16 12  2  0  0  0  0
 16 90  1  0  0  0  0
 17 13  1  0  0  0  0
 17 91  1  0  0  0  0
 18 14  2  0  0  0  0
 18 92  1  0  0  0  0
 19  7  1  0  0  0  0
 19 93  1  0  0  0  0
 20  8  1  0  0  0  0
 20 94  1  0  0  0  0
 21 95  1  0  0  0  0
 22 96  1  0  0  0  0
 23 97  1  0  0  0  0
 23 98  1  0  0  0  0
 24 99  1  0  0  0  0
 24100  1  0  0  0  0
 25  1  1  0  0  0  0
 25  2  1  0  0  0  0
 25101  1  0  0  0  0
 26  3  1  0  0  0  0
 26  4  1  0  0  0  0
 26102  1  0  0  0  0
 27 11  2  0  0  0  0
 27 12  1  0  0  0  0
 27 23  1  0  0  0  0
 28 13  2  0  0  0  0
 28 14  1  0  0  0  0
 28 24  1  0  0  0  0
 29 15  2  0  0  0  0
 29 16  1  0  0  0  0
 30 17  2  0  0  0  0
 30 18  1  0  0  0  0
 31  9  1  0  0  0  0
 31 21  2  0  0  0  0
 31 29  1  0  0  0  0
 32 10  1  0  0  0  0
 32 22  2  0  0  0  0
 32 30  1  0  0  0  0
 33 25  1  0  0  0  0
 33 47  1  0  0  0  0
 33 57  1  6  0  0  0
 34 26  1  0  0  0  0
 34 48  1  0  0  0  0
 34 58  1  1  0  0  0
 35 49  1  0  0  0  0
 35 59  1  1  0  0  0
 36 50  1  0  0  0  0
 36 60  1  1  0  0  0
 36 38  1  0  0  0  0
 36 35  1  0  0  0  0
 37 35  1  0  0  0  0
 37 55  1  0  0  0  0
 37 61  1  6  0  0  0
 38 62  1  6  0  0  0
 38 56  1  0  0  0  0
 38 42  1  0  0  0  0
 39 33  1  0  0  0  0
 40 34  1  0  0  0  0
 41 37  1  0  0  0  0
 41 53  1  0  0  0  0
 42 54  1  0  0  0  0
 43  5  1  0  0  0  0
 43 39  2  3  0  0  0
 44  6  1  0  0  0  0
 44 40  2  3  0  0  0
 45 19  2  0  0  0  0
 45 21  1  0  0  0  0
 46 20  2  0  0  0  0
 46 22  1  0  0  0  0
 47 41  2  3  0  0  0
 48 42  2  3  0  0  0
 49103  1  0  0  0  0
 50104  1  0  0  0  0
 51 39  1  0  0  0  0
 51105  1  0  0  0  0
 52 40  1  0  0  0  0
 52106  1  0  0  0  0
 53107  1  0  0  0  0
 54108  1  0  0  0  0
 55 23  1  0  0  0  0
 56 24  1  0  0  0  0
M  END
>  <DRUGBANK_ID>
DB02683

>  <SECONDARY_ACCESSION_NUMBERS>
EXPT00666

>  <COMMON_NAME>
Inhibitor Bea428

$$$$
