S58
 OpenBabel10282417133D

 37 39  0  0  0  0  0  0  0  0999 V2000
   -1.1850   -0.0194   -0.0098 C   0  0  0  0  0  0  0  0  0  0  0  0
   -0.3891   -1.1426    0.0133 C   0  0  0  0  0  0  0  0  0  0  0  0
   -0.3001    1.0823    0.0407 C   0  0  0  0  0  0  0  0  0  0  0  0
   -0.7169    2.5290    0.0167 C   0  0  0  0  0  0  0  0  0  0  0  0
    2.1136   -1.4526   -0.0144 C   0  0  0  0  0  0  0  0  0  0  0  0
    2.2944   -2.3518   -1.0744 C   0  0  0  0  0  0  0  0  0  0  0  0
    3.4842   -3.0825   -1.1727 C   0  0  0  0  0  0  0  0  0  0  0  0
    4.4798   -2.9320   -0.1987 C   0  0  0  0  0  0  0  0  0  0  0  0
    4.3066   -2.0261    0.8537 C   0  0  0  0  0  0  0  0  0  0  0  0
    3.1120   -1.2975    0.9564 C   0  0  0  0  0  0  0  0  0  0  0  0
   -0.7783   -2.5414    0.0229 C   0  0  0  0  0  0  0  0  0  0  0  0
   -1.5452   -3.0472   -1.0305 C   0  0  0  0  0  0  0  0  0  0  0  0
   -1.8449   -4.4064   -1.0822 C   0  0  0  0  0  0  0  0  0  0  0  0
   -1.3716   -5.2550   -0.0823 C   0  0  0  0  0  0  0  0  0  0  0  0
   -0.5928   -4.7615    0.9625 C   0  0  0  0  0  0  0  0  0  0  0  0
   -0.3401   -3.3946    1.0430 C   0  0  0  0  0  0  0  0  0  0  0  0
    0.9192   -0.6869    0.0733 N   0  0  0  0  0  0  0  0  0  0  0  0
    0.9798    0.6682    0.1539 N   0  0  0  0  0  0  0  0  0  0  0  0
    7.2144   -2.9915   -0.3296 N   0  0  0  0  0  0  0  0  0  0  0  0
    5.9655   -4.6745    1.0699 O   0  0  0  0  0  0  0  0  0  0  0  0
    5.8830   -4.7641   -1.4534 O   0  0  0  0  0  0  0  0  0  0  0  0
   -1.8461   -7.0827   -0.1050 Br  0  0  0  0  0  0  0  0  0  0  0  0
   -0.2818    3.2149    1.1043 F   0  0  0  0  0  0  0  0  0  0  0  0
   -0.2700    3.1872   -1.0851 F   0  0  0  0  0  0  0  0  0  0  0  0
   -2.0757    2.6521    0.0051 F   0  0  0  0  0  0  0  0  0  0  0  0
    5.8861   -4.0200   -0.2205 S   0  0  0  0  0  0  0  0  0  0  0  0
   -2.2675    0.0092   -0.0376 H   0  0  0  0  0  0  0  0  0  0  0  0
    1.5332   -2.4764   -1.8416 H   0  0  0  0  0  0  0  0  0  0  0  0
    3.6161   -3.7758   -2.0015 H   0  0  0  0  0  0  0  0  0  0  0  0
    5.0841   -1.8994    1.6044 H   0  0  0  0  0  0  0  0  0  0  0  0
    2.9381   -0.6674    1.8273 H   0  0  0  0  0  0  0  0  0  0  0  0
   -1.8967   -2.3883   -1.8215 H   0  0  0  0  0  0  0  0  0  0  0  0
   -2.4362   -4.7908   -1.9082 H   0  0  0  0  0  0  0  0  0  0  0  0
   -0.1777   -5.4272    1.7142 H   0  0  0  0  0  0  0  0  0  0  0  0
    0.2102   -3.0048    1.8977 H   0  0  0  0  0  0  0  0  0  0  0  0
    8.0615   -3.5591   -0.2268 H   0  0  0  0  0  0  0  0  0  0  0  0
    7.2286   -2.4921   -1.2184 H   0  0  0  0  0  0  0  0  0  0  0  0
  1  2  2  0  0  0  0
  1  3  1  0  0  0  0
  1 27  1  0  0  0  0
  2 11  1  0  0  0  0
  2 17  1  0  0  0  0
  3  4  1  0  0  0  0
  3 18  2  0  0  0  0
  4 23  1  0  0  0  0
  4 24  1  0  0  0  0
  4 25  1  0  0  0  0
  5  6  2  0  0  0  0
  5 10  1  0  0  0  0
  5 17  1  0  0  0  0
  6  7  1  0  0  0  0
  6 28  1  0  0  0  0
  7  8  2  0  0  0  0
  7 29  1  0  0  0  0
  8  9  1  0  0  0  0
  8 26  1  0  0  0  0
  9 10  2  0  0  0  0
  9 30  1  0  0  0  0
 10 31  1  0  0  0  0
 11 12  2  0  0  0  0
 11 16  1  0  0  0  0
 12 13  1  0  0  0  0
 12 32  1  0  0  0  0
 13 14  2  0  0  0  0
 13 33  1  0  0  0  0
 14 15  1  0  0  0  0
 14 22  1  0  0  0  0
 15 16  2  0  0  0  0
 15 34  1  0  0  0  0
 16 35  1  0  0  0  0
 17 18  1  0  0  0  0
 19 26  1  0  0  0  0
 19 36  1  0  0  0  0
 19 37  1  0  0  0  0
 20 26  2  0  0  0  0
 21 26  2  0  0  0  0
M  END
>  <DRUGBANK_ID>
DB03477

>  <SECONDARY_ACCESSION_NUMBERS>
EXPT02833

>  <COMMON_NAME>
1-Phenylsulfonamide-3-Trifluoromethyl-5-Parabromophenylpyrazole

$$$$
