P5C
 OpenBabel10282417173D

 49 51  0  0  0  0  0  0  0  0999 V2000
    0.0522    1.3507    0.0098 C   0  0  0  0  0  0  0  0  0  0  0  0
    1.0920   -0.7065   -0.0262 C   0  0  0  0  0  0  0  0  0  0  0  0
   -1.1398    0.7561    0.0769 N   0  0  0  0  0  0  0  0  0  0  0  0
   -0.0948   -1.4083    0.0030 C   0  0  0  0  0  0  0  0  0  0  0  0
   -1.2286   -0.6034    0.0232 C   0  0  0  0  0  0  0  0  0  0  0  0
   -0.1629   -2.8952    0.0211 C   0  0  0  0  0  0  0  0  0  0  0  0
   -3.7311   -0.4515   -0.0992 C   0  0  0  0  0  0  0  0  0  0  0  0
   -3.9667    0.4698   -1.1259 C   0  0  0  0  0  0  0  0  0  0  0  0
   -6.0758    1.0892   -0.1379 C   0  0  0  0  0  0  0  0  0  0  0  0
   -5.8592    0.1847    0.9081 C   0  0  0  0  0  0  0  0  0  0  0  0
   -5.1365    1.2252   -1.1563 C   0  0  0  0  0  0  0  0  0  0  0  0
   -4.6897   -0.5944    0.9113 C   0  0  0  0  0  0  0  0  0  0  0  0
   -6.8503    0.0727    2.0280 C   0  0  0  0  0  0  0  0  0  0  0  0
   -1.2477   -3.4880    0.0325 O   0  0  0  0  0  0  0  0  0  0  0  0
    0.9886   -3.6358    0.0385 N   0  0  0  0  0  0  0  0  0  0  0  0
   -2.5225   -1.1592   -0.0461 N   0  0  0  0  0  0  0  0  0  0  0  0
    1.1906    0.6501   -0.0811 N   0  0  0  0  0  0  0  0  0  0  0  0
    0.0945    2.7325   -0.1310 N   0  0  0  0  0  0  0  0  0  0  0  0
   -0.3871    3.5820    0.9836 C   0  0  1  0  0  0  0  0  0  0  0  0
    0.0270    3.1029    2.4182 C   0  0  1  0  0  0  0  0  0  0  0  0
    1.4876    2.9514    2.5741 N   0  0  0  0  0  0  0  0  0  0  0  0
   -0.4963    4.0830    3.4924 C   0  0  0  0  0  0  0  0  0  0  0  0
    0.0004    5.5094    3.2736 C   0  0  0  0  0  0  0  0  0  0  0  0
   -0.3801    5.9950    1.8789 C   0  0  0  0  0  0  0  0  0  0  0  0
    0.1030    5.0439    0.7732 C   0  0  0  0  0  0  0  0  0  0  0  0
   -1.4834    3.5980    0.9299 H   0  0  0  0  0  0  0  0  0  0  0  0
   -0.4308    2.1275    2.6158 H   0  0  0  0  0  0  0  0  0  0  0  0
    2.0532   -1.2089   -0.0162 H   0  0  0  0  0  0  0  0  0  0  0  0
   -3.2255    0.5994   -1.9106 H   0  0  0  0  0  0  0  0  0  0  0  0
   -6.9725    1.7032   -0.1604 H   0  0  0  0  0  0  0  0  0  0  0  0
   -5.3027    1.9294   -1.9658 H   0  0  0  0  0  0  0  0  0  0  0  0
   -4.5004   -1.2796    1.7343 H   0  0  0  0  0  0  0  0  0  0  0  0
   -7.2265   -0.9518    2.1015 H   0  0  0  0  0  0  0  0  0  0  0  0
   -6.3854    0.3601    2.9767 H   0  0  0  0  0  0  0  0  0  0  0  0
   -7.7090    0.7336    1.8657 H   0  0  0  0  0  0  0  0  0  0  0  0
    1.9329   -3.2795    0.0474 H   0  0  0  0  0  0  0  0  0  0  0  0
    0.8879   -4.6458    0.0571 H   0  0  0  0  0  0  0  0  0  0  0  0
   -2.5796   -2.1695    0.0764 H   0  0  0  0  0  0  0  0  0  0  0  0
    0.9640    3.0132   -0.5582 H   0  0  0  0  0  0  0  0  0  0  0  0
    1.7199    2.8467    3.5601 H   0  0  0  0  0  0  0  0  0  0  0  0
    1.9622    3.7945    2.2590 H   0  0  0  0  0  0  0  0  0  0  0  0
   -1.5946    4.0850    3.4804 H   0  0  0  0  0  0  0  0  0  0  0  0
   -0.2039    3.7451    4.4949 H   0  0  0  0  0  0  0  0  0  0  0  0
   -0.4287    6.1740    4.0339 H   0  0  0  0  0  0  0  0  0  0  0  0
    1.0884    5.5591    3.4042 H   0  0  0  0  0  0  0  0  0  0  0  0
   -1.4711    6.0914    1.8208 H   0  0  0  0  0  0  0  0  0  0  0  0
    0.0344    6.9981    1.7218 H   0  0  0  0  0  0  0  0  0  0  0  0
    1.2003    5.0819    0.7352 H   0  0  0  0  0  0  0  0  0  0  0  0
   -0.2403    5.4219   -0.1965 H   0  0  0  0  0  0  0  0  0  0  0  0
  1  3  2  0  0  0  0
  1 17  1  0  0  0  0
  1 18  1  0  0  0  0
  2  4  1  0  0  0  0
  2 17  2  0  0  0  0
  2 28  1  0  0  0  0
  3  5  1  0  0  0  0
  4  5  2  0  0  0  0
  4  6  1  0  0  0  0
  5 16  1  0  0  0  0
  6 14  2  0  0  0  0
  6 15  1  0  0  0  0
  7  8  2  0  0  0  0
  7 12  1  0  0  0  0
  7 16  1  0  0  0  0
  8 11  1  0  0  0  0
  8 29  1  0  0  0  0
  9 10  1  0  0  0  0
  9 11  2  0  0  0  0
  9 30  1  0  0  0  0
 10 12  2  0  0  0  0
 10 13  1  0  0  0  0
 11 31  1  0  0  0  0
 12 32  1  0  0  0  0
 13 33  1  0  0  0  0
 13 34  1  0  0  0  0
 13 35  1  0  0  0  0
 15 36  1  0  0  0  0
 15 37  1  0  0  0  0
 16 38  1  0  0  0  0
 18 39  1  0  0  0  0
 19 18  1  0  0  0  0
 19 20  1  0  0  0  0
 19 25  1  0  0  0  0
 19 26  1  6  0  0  0
 20 22  1  0  0  0  0
 20 27  1  1  0  0  0
 20 21  1  0  0  0  0
 21 40  1  0  0  0  0
 21 41  1  0  0  0  0
 22 23  1  0  0  0  0
 22 42  1  0  0  0  0
 22 43  1  0  0  0  0
 23 24  1  0  0  0  0
 23 44  1  0  0  0  0
 23 45  1  0  0  0  0
 24 25  1  0  0  0  0
 24 46  1  0  0  0  0
 24 47  1  0  0  0  0
 25 48  1  0  0  0  0
 25 49  1  0  0  0  0
M  END
>  <DRUGBANK_ID>
DB08361

>  <COMMON_NAME>
2-{[(1R,2S)-2-aminocyclohexyl]amino}-4-[(3-methylphenyl)amino]pyrimidine-5-carboxamide

$$$$
