
 OpenBabel10282417113D

 42 43  0  0  1  0  0  0  0  0999 V2000
    1.1151    0.0875   -0.1123 C   0  0  0  0  0  0  0  0  0  0  0  0
    0.5645   -5.1774    0.1749 C   0  0  0  0  0  0  0  0  0  0  0  0
    4.4203   -7.9107    1.0397 C   0  0  0  0  0  0  0  0  0  0  0  0
    0.7019   -1.1331   -0.8957 C   0  0  0  0  0  0  0  0  0  0  0  0
    2.3469   -3.3519    4.9450 C   0  0  0  0  0  0  0  0  0  0  0  0
    3.2111   -2.5346    4.2146 C   0  0  0  0  0  0  0  0  0  0  0  0
    1.6632   -4.3625    4.3070 C   0  0  0  0  0  0  0  0  0  0  0  0
    3.3786   -2.7118    2.8334 C   0  0  0  0  0  0  0  0  0  0  0  0
    1.8655   -4.5538    2.9525 C   0  0  0  0  0  0  0  0  0  0  0  0
    4.3356   -4.1741    0.3105 C   0  0  0  0  0  0  0  0  0  0  0  0
    4.8212   -5.5229    0.8940 C   0  0  0  0  0  0  0  0  0  0  0  0
    2.6255   -6.4861    0.5672 C   0  0  0  0  0  0  0  0  0  0  0  0
    2.0849   -5.1682    0.0216 C   0  0  2  0  0  0  0  0  0  0  0  0
    2.6817   -3.7246    2.1601 C   0  0  0  0  0  0  0  0  0  0  0  0
    1.0539   -2.2819   -0.0146 C   0  0  0  0  0  0  0  0  0  0  0  0
    2.8121   -3.9276    0.6330 C   0  0  1  0  0  0  0  0  0  0  0  0
    4.0571   -6.6615    0.3560 N   0  0  0  0  0  0  0  0  0  0  0  0
    0.1859   -2.6661    0.7743 O   0  0  0  0  0  0  0  0  0  0  0  0
    2.3450   -2.7220   -0.1094 O   0  0  0  0  0  0  0  0  0  0  0  0
    2.2808   -5.1532   -1.0621 H   0  0  0  0  0  0  0  0  0  0  0  0
    0.7262    0.0252    0.9136 H   0  0  0  0  0  0  0  0  0  0  0  0
    0.7318    1.0002   -0.5674 H   0  0  0  0  0  0  0  0  0  0  0  0
    2.2052    0.1292   -0.0425 H   0  0  0  0  0  0  0  0  0  0  0  0
    0.1000   -4.6709   -0.6734 H   0  0  0  0  0  0  0  0  0  0  0  0
    0.1370   -6.1736    0.2704 H   0  0  0  0  0  0  0  0  0  0  0  0
    0.2461   -4.6863    1.0893 H   0  0  0  0  0  0  0  0  0  0  0  0
    4.2544   -7.8462    2.1237 H   0  0  0  0  0  0  0  0  0  0  0  0
    3.7984   -8.7348    0.6651 H   0  0  0  0  0  0  0  0  0  0  0  0
    5.4616   -8.1758    0.8541 H   0  0  0  0  0  0  0  0  0  0  0  0
   -0.3943   -1.1362   -1.0120 H   0  0  0  0  0  0  0  0  0  0  0  0
    1.1153   -1.2116   -1.9039 H   0  0  0  0  0  0  0  0  0  0  0  0
    2.1949   -3.2052    6.0077 H   0  0  0  0  0  0  0  0  0  0  0  0
    3.7407   -1.7369    4.7258 H   0  0  0  0  0  0  0  0  0  0  0  0
    0.9527   -5.0034    4.8207 H   0  0  0  0  0  0  0  0  0  0  0  0
    4.0582   -2.0493    2.3010 H   0  0  0  0  0  0  0  0  0  0  0  0
    1.3109   -5.3904    2.5561 H   0  0  0  0  0  0  0  0  0  0  0  0
    4.9798   -3.3669    0.6858 H   0  0  0  0  0  0  0  0  0  0  0  0
    4.5042   -4.1691   -0.7767 H   0  0  0  0  0  0  0  0  0  0  0  0
    5.8817   -5.6622    0.6487 H   0  0  0  0  0  0  0  0  0  0  0  0
    4.7620   -5.4921    1.9902 H   0  0  0  0  0  0  0  0  0  0  0  0
    2.0700   -7.3008    0.0884 H   0  0  0  0  0  0  0  0  0  0  0  0
    2.4291   -6.6035    1.6329 H   0  0  0  0  0  0  0  0  0  0  0  0
  1 21  1  0  0  0  0
  1 22  1  0  0  0  0
  1 23  1  0  0  0  0
  2 24  1  0  0  0  0
  2 25  1  0  0  0  0
  2 26  1  0  0  0  0
  3 27  1  0  0  0  0
  3 28  1  0  0  0  0
  3 29  1  0  0  0  0
  4  1  1  0  0  0  0
  4 30  1  0  0  0  0
  4 31  1  0  0  0  0
  5 32  1  0  0  0  0
  6  5  2  0  0  0  0
  6 33  1  0  0  0  0
  7  5  1  0  0  0  0
  7 34  1  0  0  0  0
  8  6  1  0  0  0  0
  8 35  1  0  0  0  0
  9  7  2  0  0  0  0
  9 36  1  0  0  0  0
 10 37  1  0  0  0  0
 10 38  1  0  0  0  0
 11 10  1  0  0  0  0
 11 39  1  0  0  0  0
 11 40  1  0  0  0  0
 12 41  1  0  0  0  0
 12 42  1  0  0  0  0
 13 12  1  0  0  0  0
 13 20  1  6  0  0  0
 13  2  1  0  0  0  0
 14  8  2  0  0  0  0
 14  9  1  0  0  0  0
 15  4  1  0  0  0  0
 16 10  1  0  0  0  0
 16 13  1  0  0  0  0
 16 14  1  0  0  0  0
 16 19  1  6  0  0  0
 17  3  1  0  0  0  0
 17 11  1  0  0  0  0
 17 12  1  0  0  0  0
 18 15  2  0  0  0  0
 19 15  1  0  0  0  0
M  END
>  <DRUGBANK_ID>
DB01473

>  <COMMON_NAME>
Betaprodine

>  <CAS_NUMBER>
468-59-7

>  <UNII>
21J54X4Z4Z

>  <SYNONYMS>
beta-Prodine; Betaprodina; Betaprodine; Betaprodinum

$$$$
