
 OpenBabel10282417213D

 80 84  0  0  1  0  0  0  0  0999 V2000
    1.2471    1.2241   -4.0456 C   0  0  0  0  0  0  0  0  0  0  0  0
    1.2948   -0.2213   -3.4790 C   0  0  1  0  0  0  0  0  0  0  0  0
    0.1595   -1.0337   -3.8507 C   0  0  1  0  0  0  0  0  0  0  0  0
    0.2756   -2.4476   -3.2477 C   0  0  2  0  0  0  0  0  0  0  0  0
    1.6658   -3.1513   -3.2820 C   0  0  2  0  0  0  0  0  0  0  0  0
    2.6921   -2.2751   -2.6207 C   0  0  1  0  0  0  0  0  0  0  0  0
    2.4374   -1.0482   -3.3715 O   0  0  0  0  0  0  0  0  0  0  0  0
    2.8442   -2.2630   -1.2001 O   0  0  0  0  0  0  0  0  0  0  0  0
    2.0737   -1.2979   -0.5633 C   0  0  0  0  0  0  0  0  0  0  0  0
    2.4115    0.1535   -1.0663 C   0  0  2  0  0  0  0  0  0  0  0  0
    3.6891    0.5481   -2.3306 C   0  0  2  0  0  0  0  0  0  0  0  0
    3.7566    1.9987   -2.7883 C   0  0  1  0  0  0  0  0  0  0  0  0
    3.2379    2.8690   -1.7011 C   0  0  2  0  0  0  0  0  0  0  0  0
    2.0891    2.4453   -0.7547 C   0  0  1  0  0  0  0  0  0  0  0  0
    2.4380    1.1886   -0.1018 O   0  0  0  0  0  0  0  0  0  0  0  0
    1.8493    3.4433    0.2550 O   0  0  0  0  0  0  0  0  0  0  0  0
    2.8363    3.3408    1.2204 C   0  0  0  0  0  0  0  0  0  0  0  0
    4.2167    3.7857    0.8583 C   0  0  0  0  0  0  0  0  0  0  0  0
    4.4690    4.4601   -0.0795 O   0  0  0  0  0  0  0  0  0  0  0  0
    5.2745    3.4334    1.7870 C   0  0  0  0  0  0  0  0  0  0  0  0
    6.5843    3.7457    1.4389 C   0  0  0  0  0  0  0  0  0  0  0  0
    7.5220    3.7993    2.4375 C   0  0  0  0  0  0  0  0  0  0  0  0
    7.2274    3.2644    3.6918 C   0  0  0  0  0  0  0  0  0  0  0  0
    5.9145    2.8889    4.0126 C   0  0  0  0  0  0  0  0  0  0  0  0
    4.9137    3.0104    3.0563 C   0  0  0  0  0  0  0  0  0  0  0  0
    3.6121    2.7309    3.4196 O   0  0  0  0  0  0  0  0  0  0  0  0
    2.6167    2.8745    2.4529 C   0  0  0  0  0  0  0  0  0  0  0  0
    1.2406    2.5601    2.9074 C   0  0  0  0  0  0  0  0  0  0  0  0
    0.6446    3.3904    3.8653 C   0  0  0  0  0  0  0  0  0  0  0  0
   -0.6750    3.1726    4.2752 C   0  0  0  0  0  0  0  0  0  0  0  0
   -1.4104    2.1351    3.7198 C   0  0  0  0  0  0  0  0  0  0  0  0
   -0.8470    1.3131    2.7531 C   0  0  0  0  0  0  0  0  0  0  0  0
    0.4761    1.5103    2.3593 C   0  0  0  0  0  0  0  0  0  0  0  0
   -1.6245    0.3244    2.2134 O   0  0  0  0  0  0  0  0  0  0  0  0
   -2.6900    1.9341    4.1506 O   0  0  0  0  0  0  0  0  0  0  0  0
    8.1879    2.9764    4.6235 O   0  0  0  0  0  0  0  0  0  0  0  0
    9.5552    3.1976    4.2376 C   0  0  0  0  0  0  0  0  0  0  0  0
   10.1240    2.1510    3.2515 C   0  0  0  0  0  0  0  0  0  0  0  0
    9.4991    2.0768    1.9731 O   0  0  0  0  0  0  0  0  0  0  0  0
    6.9769    3.9612    0.1496 O   0  0  0  0  0  0  0  0  0  0  0  0
    3.0126    4.1666   -2.2303 O   0  0  0  0  0  0  0  0  0  0  0  0
    5.1021    2.3391   -3.2086 O   0  0  0  0  0  0  0  0  0  0  0  0
    4.1353   -0.0014   -3.6521 O   0  0  0  0  0  0  0  0  0  0  0  0
    2.0683   -3.2466   -4.6797 O   0  0  0  0  0  0  0  0  0  0  0  0
   -0.6197   -3.2067   -4.0427 O   0  0  0  0  0  0  0  0  0  0  0  0
   -0.9956   -0.3283   -3.3800 O   0  0  0  0  0  0  0  0  0  0  0  0
    1.7132    1.3720   -5.0143 H   0  0  0  0  0  0  0  0  0  0  0  0
    0.2409    1.6451   -3.9539 H   0  0  0  0  0  0  0  0  0  0  0  0
    1.6518    1.9621   -3.3606 H   0  0  0  0  0  0  0  0  0  0  0  0
    1.0145    0.1542   -2.5633 H   0  0  0  0  0  0  0  0  0  0  0  0
    0.1944   -1.0168   -4.9394 H   0  0  0  0  0  0  0  0  0  0  0  0
   -0.0969   -2.4351   -2.2207 H   0  0  0  0  0  0  0  0  0  0  0  0
    1.6466   -4.1610   -2.8654 H   0  0  0  0  0  0  0  0  0  0  0  0
    3.7037   -2.6347   -2.8959 H   0  0  0  0  0  0  0  0  0  0  0  0
    1.0439   -1.5933   -0.8261 H   0  0  0  0  0  0  0  0  0  0  0  0
    2.0127   -1.3995    0.5332 H   0  0  0  0  0  0  0  0  0  0  0  0
    1.3339    0.3381   -1.1447 H   0  0  0  0  0  0  0  0  0  0  0  0
    4.5583    0.2257   -1.7735 H   0  0  0  0  0  0  0  0  0  0  0  0
    3.3014    2.2452   -3.7507 H   0  0  0  0  0  0  0  0  0  0  0  0
    4.1261    2.7498   -1.0979 H   0  0  0  0  0  0  0  0  0  0  0  0
    1.1164    2.3891   -1.2848 H   0  0  0  0  0  0  0  0  0  0  0  0
    8.5106    4.1496    2.1679 H   0  0  0  0  0  0  0  0  0  0  0  0
    5.6726    2.5250    5.0061 H   0  0  0  0  0  0  0  0  0  0  0  0
    1.2006    4.2238    4.2900 H   0  0  0  0  0  0  0  0  0  0  0  0
   -1.1289    3.8148    5.0224 H   0  0  0  0  0  0  0  0  0  0  0  0
    0.9141    0.8489    1.6262 H   0  0  0  0  0  0  0  0  0  0  0  0
   -1.1010   -0.1585    1.5531 H   0  0  0  0  0  0  0  0  0  0  0  0
   -3.0124    1.1531    3.6609 H   0  0  0  0  0  0  0  0  0  0  0  0
    9.6946    4.2329    3.9013 H   0  0  0  0  0  0  0  0  0  0  0  0
   10.1384    3.1105    5.1611 H   0  0  0  0  0  0  0  0  0  0  0  0
   11.1715    2.3894    3.0526 H   0  0  0  0  0  0  0  0  0  0  0  0
   10.0526    1.1523    3.6839 H   0  0  0  0  0  0  0  0  0  0  0  0
    8.5955    1.7393    2.1227 H   0  0  0  0  0  0  0  0  0  0  0  0
    7.9311    4.1313    0.0775 H   0  0  0  0  0  0  0  0  0  0  0  0
    2.1999    4.1725   -2.7541 H   0  0  0  0  0  0  0  0  0  0  0  0
    5.7083    1.6961   -2.8118 H   0  0  0  0  0  0  0  0  0  0  0  0
    3.3660   -0.2518   -4.2114 H   0  0  0  0  0  0  0  0  0  0  0  0
    2.3947   -2.3607   -4.9458 H   0  0  0  0  0  0  0  0  0  0  0  0
   -0.2955   -3.0585   -4.9543 H   0  0  0  0  0  0  0  0  0  0  0  0
   -0.8852   -0.1109   -2.4331 H   0  0  0  0  0  0  0  0  0  0  0  0
  1 47  1  0  0  0  0
  1 48  1  0  0  0  0
  1 49  1  0  0  0  0
  2  1  1  0  0  0  0
  2  3  1  0  0  0  0
  2  7  1  0  0  0  0
  2 50  1  1  0  0  0
  3  4  1  0  0  0  0
  3 46  1  0  0  0  0
  3 51  1  6  0  0  0
  4  5  1  0  0  0  0
  4 45  1  0  0  0  0
  4 52  1  1  0  0  0
  5  6  1  0  0  0  0
  5 44  1  0  0  0  0
  5 53  1  1  0  0  0
  6  7  1  0  0  0  0
  6  8  1  0  0  0  0
  6 54  1  6  0  0  0
  8  9  1  0  0  0  0
  9 55  1  0  0  0  0
  9 56  1  0  0  0  0
 10 11  1  0  0  0  0
 10 15  1  0  0  0  0
 10 57  1  6  0  0  0
 10  9  1  0  0  0  0
 11 12  1  0  0  0  0
 11 43  1  0  0  0  0
 11 58  1  1  0  0  0
 12 13  1  0  0  0  0
 12 42  1  0  0  0  0
 12 59  1  6  0  0  0
 13 14  1  0  0  0  0
 13 41  1  0  0  0  0
 13 60  1  1  0  0  0
 14 15  1  0  0  0  0
 14 16  1  0  0  0  0
 14 61  1  6  0  0  0
 16 17  1  0  0  0  0
 17 18  1  0  0  0  0
 17 27  2  0  0  0  0
 18 19  2  0  0  0  0
 18 20  1  0  0  0  0
 20 21  2  0  0  0  0
 20 25  1  0  0  0  0
 21 22  1  0  0  0  0
 21 40  1  0  0  0  0
 22 23  2  0  0  0  0
 22 62  1  0  0  0  0
 23 24  1  0  0  0  0
 23 36  1  0  0  0  0
 24 25  2  0  0  0  0
 24 63  1  0  0  0  0
 25 26  1  0  0  0  0
 26 27  1  0  0  0  0
 27 28  1  0  0  0  0
 28 29  2  0  0  0  0
 28 33  1  0  0  0  0
 29 30  1  0  0  0  0
 29 64  1  0  0  0  0
 30 31  2  0  0  0  0
 30 65  1  0  0  0  0
 31 32  1  0  0  0  0
 31 35  1  0  0  0  0
 32 33  2  0  0  0  0
 32 34  1  0  0  0  0
 33 66  1  0  0  0  0
 34 67  1  0  0  0  0
 35 68  1  0  0  0  0
 36 37  1  0  0  0  0
 37 38  1  0  0  0  0
 37 69  1  0  0  0  0
 37 70  1  0  0  0  0
 38 39  1  0  0  0  0
 38 71  1  0  0  0  0
 38 72  1  0  0  0  0
 39 73  1  0  0  0  0
 40 74  1  0  0  0  0
 41 75  1  0  0  0  0
 42 76  1  0  0  0  0
 43 77  1  0  0  0  0
 44 78  1  0  0  0  0
 45 79  1  0  0  0  0
 46 80  1  0  0  0  0
M  END
>  <DRUGBANK_ID>
DB13764

>  <COMMON_NAME>
Monoxerutin

>  <CAS_NUMBER>
23869-24-1

>  <UNII>
EKF7043SBU

>  <SYNONYMS>
beta-Hydroxyethylrutosid; Mono-7-hydroxyethylrutoside; Monoxerutin; Monoxerutina; Monoxerutine; Monoxerutinum; O-(beta-Hydroxyethyl)rutin

$$$$
