1288
 OpenBabel10282417113D

 43 44  0  0  1  0  0  0  0  0999 V2000
    0.9376   -0.0955   -0.0407 O   0  0  0  0  0  0  0  0  0  0  0  0
    2.2554    2.2104   -5.3770 O   0  0  0  0  0  0  0  0  0  0  0  0
    1.4166   -2.3660   -4.5129 O   0  0  0  0  0  0  0  0  0  0  0  0
    4.0148   -0.0666    5.2342 O   0  0  0  0  0  0  0  0  0  0  0  0
    2.4480    2.4305   -0.5499 N   0  0  0  0  0  0  0  0  0  0  0  0
    2.9716    3.6663    0.0350 C   0  0  3  0  0  0  0  0  0  0  0  0
    2.5098    3.9403    1.4907 C   0  0  0  0  0  0  0  0  0  0  0  0
    0.9738    2.3044   -0.4833 C   0  0  0  0  0  0  0  0  0  0  0  0
    0.4925    0.9100   -0.9653 C   0  0  3  0  0  0  0  0  0  0  0  0
    4.5052    3.6278   -0.0492 C   0  0  0  0  0  0  0  0  0  0  0  0
    2.8890    2.8763    2.5056 C   0  0  0  0  0  0  0  0  0  0  0  0
    0.9610    0.5639   -2.3591 C   0  0  0  0  0  0  0  0  0  0  0  0
    2.4735    1.5441    2.3785 C   0  0  0  0  0  0  0  0  0  0  0  0
    3.6651    3.1980    3.6192 C   0  0  0  0  0  0  0  0  0  0  0  0
    0.9751   -0.7707   -2.7845 C   0  0  0  0  0  0  0  0  0  0  0  0
    1.3767    1.5631   -3.2578 C   0  0  0  0  0  0  0  0  0  0  0  0
    1.8176    1.2391   -4.5272 C   0  0  0  0  0  0  0  0  0  0  0  0
    1.4005   -1.0756   -4.0718 C   0  0  0  0  0  0  0  0  0  0  0  0
    2.8778    0.5332    3.2358 C   0  0  0  0  0  0  0  0  0  0  0  0
    4.0199    2.2014    4.5364 C   0  0  0  0  0  0  0  0  0  0  0  0
    3.6428    0.8795    4.3303 C   0  0  0  0  0  0  0  0  0  0  0  0
    1.8220   -0.0804   -4.9484 C   0  0  0  0  0  0  0  0  0  0  0  0
    1.8963   -0.1901   -0.1794 H   0  0  0  0  0  0  0  0  0  0  0  0
    2.2573    3.0582   -4.8990 H   0  0  0  0  0  0  0  0  0  0  0  0
    1.0834   -2.9361   -3.8006 H   0  0  0  0  0  0  0  0  0  0  0  0
    3.6485   -0.9191    4.9441 H   0  0  0  0  0  0  0  0  0  0  0  0
    2.9143    1.6328   -0.1218 H   0  0  0  0  0  0  0  0  0  0  0  0
    2.6345    4.4922   -0.6048 H   0  0  0  0  0  0  0  0  0  0  0  0
    2.9210    4.9122    1.7915 H   0  0  0  0  0  0  0  0  0  0  0  0
    1.4224    4.0811    1.5221 H   0  0  0  0  0  0  0  0  0  0  0  0
    0.5176    3.0944   -1.0883 H   0  0  0  0  0  0  0  0  0  0  0  0
    0.5846    2.4437    0.5279 H   0  0  0  0  0  0  0  0  0  0  0  0
   -0.6026    0.8920   -0.9409 H   0  0  0  0  0  0  0  0  0  0  0  0
    4.8493    3.4224   -1.0695 H   0  0  0  0  0  0  0  0  0  0  0  0
    4.9263    4.5923    0.2537 H   0  0  0  0  0  0  0  0  0  0  0  0
    4.9328    2.8559    0.6008 H   0  0  0  0  0  0  0  0  0  0  0  0
    1.7994    1.2365    1.6010 H   0  0  0  0  0  0  0  0  0  0  0  0
    3.9890    4.2208    3.7861 H   0  0  0  0  0  0  0  0  0  0  0  0
    0.6608   -1.5548   -2.0990 H   0  0  0  0  0  0  0  0  0  0  0  0
    1.3906    2.6076   -2.9599 H   0  0  0  0  0  0  0  0  0  0  0  0
    2.5618   -0.4844    3.0351 H   0  0  0  0  0  0  0  0  0  0  0  0
    4.5943    2.4619    5.4200 H   0  0  0  0  0  0  0  0  0  0  0  0
    2.1519   -0.3283   -5.9484 H   0  0  0  0  0  0  0  0  0  0  0  0
  1  9  1  0  0  0  0
  1 23  1  0  0  0  0
  2 17  1  0  0  0  0
  2 24  1  0  0  0  0
  3 18  1  0  0  0  0
  3 25  1  0  0  0  0
  4 21  1  0  0  0  0
  4 26  1  0  0  0  0
  5  6  1  0  0  0  0
  5  8  1  0  0  0  0
  5 27  1  0  0  0  0
  6  7  1  0  0  0  0
  6 10  1  0  0  0  0
  6 28  1  0  0  0  0
  7 11  1  0  0  0  0
  7 29  1  0  0  0  0
  7 30  1  0  0  0  0
  8  9  1  0  0  0  0
  8 31  1  0  0  0  0
  8 32  1  0  0  0  0
  9 12  1  0  0  0  0
  9 33  1  0  0  0  0
 10 34  1  0  0  0  0
 10 35  1  0  0  0  0
 10 36  1  0  0  0  0
 11 13  2  0  0  0  0
 11 14  1  0  0  0  0
 12 15  2  0  0  0  0
 12 16  1  0  0  0  0
 13 19  1  0  0  0  0
 13 37  1  0  0  0  0
 14 20  2  0  0  0  0
 14 38  1  0  0  0  0
 15 18  1  0  0  0  0
 15 39  1  0  0  0  0
 16 17  2  0  0  0  0
 16 40  1  0  0  0  0
 17 22  1  0  0  0  0
 18 22  2  0  0  0  0
 19 21  2  0  0  0  0
 19 41  1  0  0  0  0
 20 21  1  0  0  0  0
 20 42  1  0  0  0  0
 22 43  1  0  0  0  0
M  END
>  <DRUGBANK_ID>
DB01288

>  <COMMON_NAME>
Fenoterol

>  <CAS_NUMBER>
13392-18-2

>  <UNII>
22M9P70OQ9

>  <SYNONYMS>
1-(3,5-dihydroxyphenyl)-1-hydroxy-2-((4-hydroxyphenyl)isopropylamino)ethane; 1-(p-hydroxyphenyl)-2-((β-hydroxy-β-(3',5'-dihydroxyphenyl))ethyl)aminopropane; 3,5-dihydroxy-α-(((p-hydroxy-α-methylphenethyl)amino)methyl)benzyl alcohol; 5-{1-Hydroxy-2-[2-(4-hydroxy-phenyl)-1-methyl-ethylamino]-ethyl}-benzene-1,3-diol; Fenoterol; Fenoterolum; Phenoterol

$$$$
