
 OpenBabel10282417163D

 19 17  0  0  0  0  0  0  0  0999 V2000
    1.0726   -0.0290   -0.0624 O   0  0  0  0  0  0  0  0  0  0  0  0
   -1.6308   -0.0888    0.0288 O   0  5  0  0  0  0  0  0  0  0  0  0
   -1.5562   -1.3674    1.9771 O   0  0  0  0  0  0  0  0  0  0  0  0
    3.3359   -2.8690    2.0032 O   0  5  0  0  0  0  0  0  0  0  0  0
   -0.2172    1.7145    3.5085 O   0  5  0  0  0  0  0  0  0  0  0  0
    3.2613   -1.5904    0.0549 O   0  0  0  0  0  0  0  0  0  0  0  0
    0.9062    2.1474    1.5118 O   0  0  0  0  0  0  0  0  0  0  0  0
    0.5992   -0.7635    1.0569 C   0  0  0  0  0  0  0  0  0  0  0  0
    1.1059   -2.1943    0.9750 C   0  0  0  0  0  0  0  0  0  0  0  0
    1.1059   -0.1191    2.3369 C   0  0  0  0  0  0  0  0  0  0  0  0
   -0.9208   -0.7635    1.0569 C   0  0  0  0  0  0  0  0  0  0  0  0
    2.6259   -2.1943    0.9750 C   0  0  0  0  0  0  0  0  0  0  0  0
    0.5992    1.3117    2.4187 C   0  0  0  0  0  0  0  0  0  0  0  0
    0.9368   -0.0617    0.0469 Ga  0  1  0  0  0  0  0  0  0  0  0  0
    2.0726   -0.0290   -0.0624 H   0  0  0  0  0  0  0  0  0  0  0  0
    0.7492   -2.7478    1.8184 H   0  0  0  0  0  0  0  0  0  0  0  0
    0.7492   -2.6479    0.0740 H   0  0  0  0  0  0  0  0  0  0  0  0
    0.7492   -0.6726    3.1803 H   0  0  0  0  0  0  0  0  0  0  0  0
    2.1759   -0.1191    2.3369 H   0  0  0  0  0  0  0  0  0  0  0  0
  1  8  1  0  0  0  0
  1 15  1  0  0  0  0
  2 11  1  0  0  0  0
  3 11  2  0  0  0  0
  4 12  1  0  0  0  0
  5 13  1  0  0  0  0
  6 12  2  0  0  0  0
  7 13  2  0  0  0  0
  8  9  1  0  0  0  0
  8 10  1  0  0  0  0
  8 11  1  0  0  0  0
  9 12  1  0  0  0  0
  9 16  1  0  0  0  0
  9 17  1  0  0  0  0
 10 13  1  0  0  0  0
 10 18  1  0  0  0  0
 10 19  1  0  0  0  0
M  ISO  1  14  67
M  CHG  4   2  -1   4  -1   5  -1  14   3
M  END
>  <DRUGBANK_ID>
DB06784

>  <SECONDARY_ACCESSION_NUMBERS>
DB09412

>  <COMMON_NAME>
Gallium citrate Ga-67

>  <CAS_NUMBER>
41183-64-6

>  <UNII>
4LJK511Z86

>  <SYNONYMS>
Gallium (67 Ga) citrate; Gallium citrate Ga 67; Gallium citrate Ga-67; Gallium-67 Citrate

$$$$
