
 OpenBabel10282417133D

 50 51  0  0  1  0  0  0  0  0999 V2000
   -1.7396   -5.1706    2.5685 O   0  0  0  0  0  0  0  0  0  0  0  0
   -0.4876   -4.5783    2.2368 C   0  0  0  0  0  0  0  0  0  0  0  0
   -0.2419   -3.4583    0.8472 C   0  0  1  0  0  0  0  0  0  0  0  0
   -0.5499   -2.0919    1.1210 O   0  0  0  0  0  0  0  0  0  0  0  0
    1.1564   -3.6001    0.4838 C   0  0  2  0  0  0  0  0  0  0  0  0
    1.5766   -2.5187   -0.3684 O   0  0  0  0  0  0  0  0  0  0  0  0
    1.2941   -4.8807   -0.3538 C   0  0  1  0  0  0  0  0  0  0  0  0
    2.7148   -4.9949   -0.4716 O   0  0  0  0  0  0  0  0  0  0  0  0
    0.5688   -6.1752    0.1288 C   0  0  0  0  0  0  0  0  0  0  0  0
   -1.0389   -6.2141   -0.0093 N   0  0  0  0  0  0  0  0  0  0  0  0
   -2.0495   -5.3481    0.3199 C   0  0  0  0  0  0  0  0  0  0  0  0
   -2.1572   -4.1366    0.5463 O   0  0  0  0  0  0  0  0  0  0  0  0
   -3.2697   -5.8356    0.6512 N   0  0  0  0  0  0  0  0  0  0  0  0
   -4.5392   -5.1948    1.5124 C   0  0  0  0  0  0  0  0  0  0  0  0
   -4.3253   -4.6662    3.0156 C   0  0  0  0  0  0  0  0  0  0  0  0
   -3.2969   -3.5115    3.4101 C   0  0  0  0  0  0  0  0  0  0  0  0
   -2.9136   -2.5910    2.3256 O   0  0  0  0  0  0  0  0  0  0  0  0
   -3.4063   -2.1233    0.8056 P   0  0  0  0  0  0  0  0  0  0  0  0
   -4.0750   -3.2889   -0.0300 O   0  0  0  0  0  0  0  0  0  0  0  0
   -4.7181   -1.3545    1.1985 O   0  0  0  0  0  0  0  0  0  0  0  0
   -2.4752   -1.4476   -0.1558 O   0  0  0  0  0  0  0  0  0  0  0  0
   -3.1164   -7.0271    0.0581 C   0  0  0  0  0  0  0  0  0  0  0  0
   -1.8307   -7.2873   -0.2887 C   0  0  0  0  0  0  0  0  0  0  0  0
   -1.4886   -8.3741   -0.9844 N   0  0  0  0  0  0  0  0  0  0  0  0
   -2.4828   -9.1676   -1.4969 C   0  0  0  0  0  0  0  0  0  0  0  0
   -2.2239  -10.1620   -2.1591 O   0  0  0  0  0  0  0  0  0  0  0  0
   -3.7902   -8.7835   -1.2446 N   0  0  0  0  0  0  0  0  0  0  0  0
   -4.2170   -7.7437   -0.4867 C   0  0  0  0  0  0  0  0  0  0  0  0
   -5.3723   -7.3730   -0.3517 O   0  0  0  0  0  0  0  0  0  0  0  0
   -2.3161   -4.5383    2.0968 H   0  0  0  0  0  0  0  0  0  0  0  0
   -0.1681   -4.1187    3.1491 H   0  0  0  0  0  0  0  0  0  0  0  0
   -0.0843   -5.5679    2.1631 H   0  0  0  0  0  0  0  0  0  0  0  0
   -0.6459   -3.6124   -0.2121 H   0  0  0  0  0  0  0  0  0  0  0  0
   -1.0769   -1.7512    0.3418 H   0  0  0  0  0  0  0  0  0  0  0  0
    1.6494   -3.5442    1.4515 H   0  0  0  0  0  0  0  0  0  0  0  0
    0.8519   -2.3537   -1.0075 H   0  0  0  0  0  0  0  0  0  0  0  0
    0.9261   -4.7237   -1.3721 H   0  0  0  0  0  0  0  0  0  0  0  0
    2.9957   -4.0653   -0.6667 H   0  0  0  0  0  0  0  0  0  0  0  0
    1.0088   -7.0607   -0.3359 H   0  0  0  0  0  0  0  0  0  0  0  0
    0.9410   -6.3345    1.1554 H   0  0  0  0  0  0  0  0  0  0  0  0
   -4.9730   -4.2507    1.1909 H   0  0  0  0  0  0  0  0  0  0  0  0
   -5.4498   -5.7365    1.2508 H   0  0  0  0  0  0  0  0  0  0  0  0
   -5.2662   -4.1793    3.3183 H   0  0  0  0  0  0  0  0  0  0  0  0
   -4.2069   -5.5623    3.6298 H   0  0  0  0  0  0  0  0  0  0  0  0
   -3.3667   -3.1213    4.4588 H   0  0  0  0  0  0  0  0  0  0  0  0
   -2.3495   -3.9410    3.8021 H   0  0  0  0  0  0  0  0  0  0  0  0
   -3.4462   -4.0019    0.1539 H   0  0  0  0  0  0  0  0  0  0  0  0
   -4.4432   -0.9075    2.0065 H   0  0  0  0  0  0  0  0  0  0  0  0
   -0.5196   -8.5739   -1.2052 H   0  0  0  0  0  0  0  0  0  0  0  0
   -4.5445   -9.2998   -1.6505 H   0  0  0  0  0  0  0  0  0  0  0  0
  1  2  1  0  0  0  0
  1 30  1  0  0  0  0
  2  3  1  0  0  0  0
  2 31  1  0  0  0  0
  2 32  1  0  0  0  0
  3  4  1  0  0  0  0
  3 33  1  6  0  0  0
  4 34  1  0  0  0  0
  5  7  1  0  0  0  0
  5 35  1  1  0  0  0
  5  6  1  0  0  0  0
  5  3  1  0  0  0  0
  6 36  1  0  0  0  0
  7  8  1  0  0  0  0
  7  9  1  0  0  0  0
  7 37  1  6  0  0  0
  8 38  1  0  0  0  0
  9 10  1  0  0  0  0
  9 39  1  0  0  0  0
  9 40  1  0  0  0  0
 10 11  1  0  0  0  0
 10 23  1  0  0  0  0
 11 12  2  0  0  0  0
 11 13  1  0  0  0  0
 13 14  1  0  0  0  0
 13 22  1  0  0  0  0
 14 15  1  0  0  0  0
 14 41  1  0  0  0  0
 14 42  1  0  0  0  0
 15 16  1  0  0  0  0
 15 43  1  0  0  0  0
 15 44  1  0  0  0  0
 16 17  1  0  0  0  0
 16 45  1  0  0  0  0
 16 46  1  0  0  0  0
 17 18  1  0  0  0  0
 18 19  1  0  0  0  0
 18 20  1  0  0  0  0
 18 21  2  0  0  0  0
 19 47  1  0  0  0  0
 20 48  1  0  0  0  0
 22 23  2  0  0  0  0
 22 28  1  0  0  0  0
 23 24  1  0  0  0  0
 24 25  1  0  0  0  0
 24 49  1  0  0  0  0
 25 26  2  0  0  0  0
 25 27  1  0  0  0  0
 27 28  1  0  0  0  0
 27 50  1  0  0  0  0
 28 29  2  0  0  0  0
M  END
>  <DRUGBANK_ID>
DB03812

>  <SECONDARY_ACCESSION_NUMBERS>
EXPT02992

>  <COMMON_NAME>
3-{2,6,8-trioxo-9-[(2S,3R,4R)-2,3,4,5-tetrahydroxypentyl]-1,2,3,6,8,9-hexahydro-7H-purin-7-Yl}propyl dihydrogen phosphate

$$$$
