
 OpenBabel10282417173D

 60 62  0  0  0  0  0  0  0  0999 V2000
    1.1832    0.1485    0.7659 O   0  0  0  0  0  0  0  0  0  0  0  0
    2.5414   -4.2231   -1.3439 O   0  0  0  0  0  0  0  0  0  0  0  0
    0.6820   -4.6308    2.4605 N   0  0  0  0  0  0  0  0  0  0  0  0
    1.4647   -2.1506   -1.1112 N   0  0  0  0  0  0  0  0  0  0  0  0
    1.0451   -2.4012    0.3851 C   0  0  0  0  0  0  0  0  0  0  0  0
    0.2878   -3.7398    0.1901 C   0  0  0  0  0  0  0  0  0  0  0  0
    2.0478   -2.7561    1.5807 C   0  0  0  0  0  0  0  0  0  0  0  0
   -0.2401   -4.4603    1.3549 C   0  0  0  0  0  0  0  0  0  0  0  0
    1.2799   -3.3542    2.8052 C   0  0  0  0  0  0  0  0  0  0  0  0
    0.4195   -1.0718    1.0066 C   0  0  0  0  0  0  0  0  0  0  0  0
   -0.0305   -5.2592    3.5878 C   0  0  0  0  0  0  0  0  0  0  0  0
    0.8872   -0.9930   -1.7892 C   0  0  0  0  0  0  0  0  0  0  0  0
    1.9989   -3.2089   -1.8697 C   0  0  0  0  0  0  0  0  0  0  0  0
   -1.2877   -4.5076    4.1248 C   0  0  0  0  0  0  0  0  0  0  0  0
    2.0431   -3.1773   -3.3766 C   0  0  0  0  0  0  0  0  0  0  0  0
    1.6850    0.1456   -1.8715 C   0  0  0  0  0  0  0  0  0  0  0  0
   -0.3526   -0.9116   -2.4238 C   0  0  0  0  0  0  0  0  0  0  0  0
   -2.4357   -4.3255    3.1366 C   0  0  0  0  0  0  0  0  0  0  0  0
    2.6150    0.0832    0.8299 C   0  0  0  0  0  0  0  0  0  0  0  0
    0.7466   -3.0784   -4.1491 C   0  0  0  0  0  0  0  0  0  0  0  0
    1.2117    1.3808   -2.2980 C   0  0  0  0  0  0  0  0  0  0  0  0
   -0.6210    0.2116   -3.2470 C   0  0  0  0  0  0  0  0  0  0  0  0
   -2.9797   -5.4511    2.4954 C   0  0  0  0  0  0  0  0  0  0  0  0
   -2.7771   -3.0400    2.6472 C   0  0  0  0  0  0  0  0  0  0  0  0
    0.0987    1.3957   -3.1016 C   0  0  0  0  0  0  0  0  0  0  0  0
   -3.8465   -5.3031    1.4107 C   0  0  0  0  0  0  0  0  0  0  0  0
   -3.6520   -2.8990    1.5632 C   0  0  0  0  0  0  0  0  0  0  0  0
   -4.1887   -4.0312    0.9516 C   0  0  0  0  0  0  0  0  0  0  0  0
   -0.4812   -3.6610   -0.5859 H   0  0  0  0  0  0  0  0  0  0  0  0
    0.9778   -4.5121   -0.1370 H   0  0  0  0  0  0  0  0  0  0  0  0
    2.8830   -3.3841    1.2751 H   0  0  0  0  0  0  0  0  0  0  0  0
    2.4970   -1.8699    2.0334 H   0  0  0  0  0  0  0  0  0  0  0  0
   -1.0324   -3.7932    1.5743 H   0  0  0  0  0  0  0  0  0  0  0  0
   -0.6163   -5.4376    1.0261 H   0  0  0  0  0  0  0  0  0  0  0  0
    1.9566   -3.4480    3.6625 H   0  0  0  0  0  0  0  0  0  0  0  0
    0.4932   -2.6704    3.1489 H   0  0  0  0  0  0  0  0  0  0  0  0
    0.3618   -1.0725    2.0973 H   0  0  0  0  0  0  0  0  0  0  0  0
   -0.6171   -0.9164    0.6881 H   0  0  0  0  0  0  0  0  0  0  0  0
   -0.3053   -6.2768    3.2762 H   0  0  0  0  0  0  0  0  0  0  0  0
    0.6823   -5.4069    4.4103 H   0  0  0  0  0  0  0  0  0  0  0  0
   -1.6809   -5.0651    4.9791 H   0  0  0  0  0  0  0  0  0  0  0  0
   -0.9752   -3.5311    4.5121 H   0  0  0  0  0  0  0  0  0  0  0  0
    2.7433   -2.3861   -3.6439 H   0  0  0  0  0  0  0  0  0  0  0  0
    2.4892   -4.1329   -3.6887 H   0  0  0  0  0  0  0  0  0  0  0  0
    2.6989    0.0997   -1.5164 H   0  0  0  0  0  0  0  0  0  0  0  0
   -1.0237   -1.7659   -2.4814 H   0  0  0  0  0  0  0  0  0  0  0  0
    3.0467    0.9343    0.2894 H   0  0  0  0  0  0  0  0  0  0  0  0
    2.9697    0.1533    1.8533 H   0  0  0  0  0  0  0  0  0  0  0  0
    3.0304   -0.8096    0.3425 H   0  0  0  0  0  0  0  0  0  0  0  0
    0.3731   -2.0693   -4.1391 H   0  0  0  0  0  0  0  0  0  0  0  0
    0.9063   -3.2417   -5.2156 H   0  0  0  0  0  0  0  0  0  0  0  0
   -0.0338   -3.7517   -3.7776 H   0  0  0  0  0  0  0  0  0  0  0  0
    1.7732    2.2797   -2.0645 H   0  0  0  0  0  0  0  0  0  0  0  0
   -1.3393    0.1415   -4.0620 H   0  0  0  0  0  0  0  0  0  0  0  0
   -2.6313   -6.4489    2.7550 H   0  0  0  0  0  0  0  0  0  0  0  0
   -2.2124   -2.1626    2.9672 H   0  0  0  0  0  0  0  0  0  0  0  0
   -0.1508    2.2998   -3.6500 H   0  0  0  0  0  0  0  0  0  0  0  0
   -4.2247   -6.1861    0.9019 H   0  0  0  0  0  0  0  0  0  0  0  0
   -3.8713   -1.9120    1.1613 H   0  0  0  0  0  0  0  0  0  0  0  0
   -4.8494   -3.9261    0.0949 H   0  0  0  0  0  0  0  0  0  0  0  0
  1 10  1  0  0  0  0
  1 19  1  0  0  0  0
  2 13  2  0  0  0  0
  3  8  1  0  0  0  0
  3  9  1  0  0  0  0
  3 11  1  0  0  0  0
  4  5  1  0  0  0  0
  4 12  1  0  0  0  0
  4 13  1  0  0  0  0
  5  6  1  0  0  0  0
  5  7  1  0  0  0  0
  5 10  1  0  0  0  0
  6  8  1  0  0  0  0
  6 29  1  0  0  0  0
  6 30  1  0  0  0  0
  7  9  1  0  0  0  0
  7 31  1  0  0  0  0
  7 32  1  0  0  0  0
  8 33  1  0  0  0  0
  8 34  1  0  0  0  0
  9 35  1  0  0  0  0
  9 36  1  0  0  0  0
 10 37  1  0  0  0  0
 10 38  1  0  0  0  0
 11 14  1  0  0  0  0
 11 39  1  0  0  0  0
 11 40  1  0  0  0  0
 12 16  2  0  0  0  0
 12 17  1  0  0  0  0
 13 15  1  0  0  0  0
 14 18  1  0  0  0  0
 14 41  1  0  0  0  0
 14 42  1  0  0  0  0
 15 20  1  0  0  0  0
 15 43  1  0  0  0  0
 15 44  1  0  0  0  0
 16 21  1  0  0  0  0
 16 45  1  0  0  0  0
 17 22  2  0  0  0  0
 17 46  1  0  0  0  0
 18 23  2  0  0  0  0
 18 24  1  0  0  0  0
 19 47  1  0  0  0  0
 19 48  1  0  0  0  0
 19 49  1  0  0  0  0
 20 50  1  0  0  0  0
 20 51  1  0  0  0  0
 20 52  1  0  0  0  0
 21 25  2  0  0  0  0
 21 53  1  0  0  0  0
 22 25  1  0  0  0  0
 22 54  1  0  0  0  0
 23 26  1  0  0  0  0
 23 55  1  0  0  0  0
 24 27  2  0  0  0  0
 24 56  1  0  0  0  0
 25 57  1  0  0  0  0
 26 28  2  0  0  0  0
 26 58  1  0  0  0  0
 27 28  1  0  0  0  0
 27 59  1  0  0  0  0
 28 60  1  0  0  0  0
M  END
>  <DRUGBANK_ID>
DB09179

>  <COMMON_NAME>
R-30490

>  <CAS_NUMBER>
60618-49-7

>  <UNII>
03DNV05OD4

$$$$
