
 OpenBabel10282417243D

 48 48  0  0  0  0  0  0  0  0999 V2000
    1.0073   -0.1263    0.0399 C   0  0  0  0  0  0  0  0  0  0  0  0
    0.5675    1.3202    0.1988 C   0  0  0  0  0  0  0  0  0  0  0  0
    1.0604    2.1539   -0.9844 C   0  0  0  0  0  0  0  0  0  0  0  0
    0.5029    1.6106   -2.3062 C   0  0  0  0  0  0  0  0  0  0  0  0
   -1.0324    1.5620   -2.2712 C   0  0  0  0  0  0  0  0  0  0  0  0
   -1.5941    2.9555   -2.0550 C   0  0  0  0  0  0  0  0  0  0  0  0
   -1.1322    3.8484   -3.1828 C   0  0  0  0  0  0  0  0  0  0  0  0
   -1.5660    3.3135   -4.5649 C   0  0  0  0  0  0  0  0  0  0  0  0
   -3.0659    3.4614   -4.7237 C   0  0  0  0  0  0  0  0  0  0  0  0
   -3.5399    4.9021   -4.7614 C   0  0  0  0  0  0  0  0  0  0  0  0
   -2.7964    6.0314   -4.8560 C   0  0  0  0  0  0  0  0  0  0  0  0
   -1.3006    6.1768   -5.1015 C   0  0  0  0  0  0  0  0  0  0  0  0
   -3.4562    7.3544   -4.7322 C   0  0  0  0  0  0  0  0  0  0  0  0
   -2.7896    8.3807   -4.7047 O   0  0  0  0  0  0  0  0  0  0  0  0
   -4.9325    7.4133   -4.6404 C   0  0  0  0  0  0  0  0  0  0  0  0
   -5.5030    8.7982   -4.6015 C   0  0  0  0  0  0  0  0  0  0  0  0
   -5.6809    6.2996   -4.6139 C   0  0  0  0  0  0  0  0  0  0  0  0
   -7.1818    6.3148   -4.5446 C   0  0  0  0  0  0  0  0  0  0  0  0
   -5.0375    4.9640   -4.6723 C   0  0  0  0  0  0  0  0  0  0  0  0
   -5.7104    3.9447   -4.6819 O   0  0  0  0  0  0  0  0  0  0  0  0
    0.6077   -0.5830   -0.8719 H   0  0  0  0  0  0  0  0  0  0  0  0
    0.6536   -0.7328    0.8734 H   0  0  0  0  0  0  0  0  0  0  0  0
    2.0986   -0.1759   -0.0126 H   0  0  0  0  0  0  0  0  0  0  0  0
   -0.5247    1.3661    0.2881 H   0  0  0  0  0  0  0  0  0  0  0  0
    0.9513    1.7386    1.1325 H   0  0  0  0  0  0  0  0  0  0  0  0
    0.7736    3.2033   -0.8373 H   0  0  0  0  0  0  0  0  0  0  0  0
    2.1540    2.1604   -1.0206 H   0  0  0  0  0  0  0  0  0  0  0  0
    0.8819    2.2193   -3.1356 H   0  0  0  0  0  0  0  0  0  0  0  0
    0.8902    0.6143   -2.5291 H   0  0  0  0  0  0  0  0  0  0  0  0
   -1.4096    1.1168   -3.1948 H   0  0  0  0  0  0  0  0  0  0  0  0
   -1.4185    0.8983   -1.4969 H   0  0  0  0  0  0  0  0  0  0  0  0
   -2.6852    2.9418   -1.9910 H   0  0  0  0  0  0  0  0  0  0  0  0
   -1.2751    3.3977   -1.1045 H   0  0  0  0  0  0  0  0  0  0  0  0
   -1.5524    4.8232   -2.9245 H   0  0  0  0  0  0  0  0  0  0  0  0
   -0.0464    4.0009   -3.1812 H   0  0  0  0  0  0  0  0  0  0  0  0
   -1.0515    3.8052   -5.3899 H   0  0  0  0  0  0  0  0  0  0  0  0
   -1.2683    2.2754   -4.7258 H   0  0  0  0  0  0  0  0  0  0  0  0
   -3.5523    2.9431   -3.8830 H   0  0  0  0  0  0  0  0  0  0  0  0
   -3.4019    2.9247   -5.6169 H   0  0  0  0  0  0  0  0  0  0  0  0
   -0.6576    5.7848   -4.3181 H   0  0  0  0  0  0  0  0  0  0  0  0
   -1.0276    5.7107   -6.0503 H   0  0  0  0  0  0  0  0  0  0  0  0
   -0.9516    7.2081   -5.1527 H   0  0  0  0  0  0  0  0  0  0  0  0
   -6.1459    8.9637   -5.4701 H   0  0  0  0  0  0  0  0  0  0  0  0
   -6.0725    8.9509   -3.6812 H   0  0  0  0  0  0  0  0  0  0  0  0
   -4.7334    9.5757   -4.6288 H   0  0  0  0  0  0  0  0  0  0  0  0
   -7.5185    6.8223   -3.6351 H   0  0  0  0  0  0  0  0  0  0  0  0
   -7.5970    6.8302   -5.4167 H   0  0  0  0  0  0  0  0  0  0  0  0
   -7.6236    5.3136   -4.5296 H   0  0  0  0  0  0  0  0  0  0  0  0
  1  2  1  0  0  0  0
  1 21  1  0  0  0  0
  1 22  1  0  0  0  0
  1 23  1  0  0  0  0
  2  3  1  0  0  0  0
  2 24  1  0  0  0  0
  2 25  1  0  0  0  0
  3  4  1  0  0  0  0
  3 26  1  0  0  0  0
  3 27  1  0  0  0  0
  4  5  1  0  0  0  0
  4 28  1  0  0  0  0
  4 29  1  0  0  0  0
  5  6  1  0  0  0  0
  5 30  1  0  0  0  0
  5 31  1  0  0  0  0
  6  7  1  0  0  0  0
  6 32  1  0  0  0  0
  6 33  1  0  0  0  0
  7  8  1  0  0  0  0
  7 34  1  0  0  0  0
  7 35  1  0  0  0  0
  8  9  1  0  0  0  0
  8 36  1  0  0  0  0
  8 37  1  0  0  0  0
  9 10  1  0  0  0  0
  9 38  1  0  0  0  0
  9 39  1  0  0  0  0
 10 11  2  0  0  0  0
 10 19  1  0  0  0  0
 11 12  1  0  0  0  0
 11 13  1  0  0  0  0
 12 40  1  0  0  0  0
 12 41  1  0  0  0  0
 12 42  1  0  0  0  0
 13 14  2  0  0  0  0
 13 15  1  0  0  0  0
 15 16  1  0  0  0  0
 15 17  2  0  0  0  0
 16 43  1  0  0  0  0
 16 44  1  0  0  0  0
 16 45  1  0  0  0  0
 17 18  1  0  0  0  0
 17 19  1  0  0  0  0
 18 46  1  0  0  0  0
 18 47  1  0  0  0  0
 18 48  1  0  0  0  0
 19 20  2  0  0  0  0
M  END
>  <DRUGBANK_ID>
DB18154

>  <COMMON_NAME>
Utreloxastat

>  <CAS_NUMBER>
1213269-96-5

>  <UNII>
WW8KZK2PZT

>  <SYNONYMS>
2,5-cyclohexadiene-1,4-dione, 2,3,5-trimethyl-6-nonyl-

$$$$
