
 OpenBabel10282417223D

 71 75  0  0  0  0  0  0  0  0999 V2000
   -4.9341  -13.2827   11.0690 O   0  0  0  0  0  0  0  0  0  0  0  0
   -3.6751  -12.7603   10.5801 C   0  0  2  0  0  0  0  0  0  0  0  0
   -2.9196  -13.3232    9.0797 C   0  0  0  0  0  0  0  0  0  0  0  0
   -2.1491  -14.5576    8.9275 O   0  0  0  0  0  0  0  0  0  0  0  0
   -2.7148  -12.5105    8.0612 C   0  0  0  0  0  0  0  0  0  0  0  0
   -1.6655  -12.9271    7.1062 C   0  0  0  0  0  0  0  0  0  0  0  0
   -1.8406  -12.5795    5.7255 C   0  0  0  0  0  0  0  0  0  0  0  0
   -0.7670  -12.7883    4.8338 C   0  0  0  0  0  0  0  0  0  0  0  0
    0.4464  -13.3084    5.2411 O   0  0  0  0  0  0  0  0  0  0  0  0
   -0.9561  -12.4282    3.5040 C   0  0  0  0  0  0  0  0  0  0  0  0
    0.0590  -12.6195    2.5424 N   0  0  0  0  0  0  0  0  0  0  0  0
   -0.0557  -12.2722    1.1995 C   0  0  0  0  0  0  0  0  0  0  0  0
    1.1404  -12.4671    0.2816 C   0  0  2  0  0  0  0  0  0  0  0  0
    0.8702  -13.4606   -0.8570 C   0  0  0  0  0  0  0  0  0  0  0  0
    2.2101  -14.1580   -1.0916 C   0  0  0  0  0  0  0  0  0  0  0  0
    3.1764  -13.4746   -0.1354 C   0  0  0  0  0  0  0  0  0  0  0  0
    2.3109  -13.0330    0.9618 N   0  0  0  0  0  0  0  0  0  0  0  0
    2.9802  -12.0606    1.8133 C   0  0  0  0  0  0  0  0  0  0  0  0
   -1.0507  -11.7657    0.6751 O   0  0  0  0  0  0  0  0  0  0  0  0
   -2.1890  -11.8792    3.1352 C   0  0  0  0  0  0  0  0  0  0  0  0
   -3.2297  -11.6999    4.0293 C   0  0  0  0  0  0  0  0  0  0  0  0
   -4.3748  -11.1815    3.5686 F   0  0  0  0  0  0  0  0  0  0  0  0
   -3.0776  -12.0288    5.3625 C   0  0  0  0  0  0  0  0  0  0  0  0
   -4.2403  -11.8560    6.3851 C   0  0  0  0  0  0  0  0  0  0  0  0
   -3.7116  -11.4726    7.9538 C   0  0  1  0  0  0  0  0  0  0  0  0
   -3.3888  -10.4452    7.7948 H   0  0  0  0  0  0  0  0  0  0  0  0
   -4.5866  -11.5840    9.6384 C   0  0  0  0  0  0  0  0  0  0  0  0
   -3.8200  -11.7013   11.6572 C   0  0  1  0  0  0  0  0  0  0  0  0
   -3.8232  -10.5636   11.4052 H   0  0  0  0  0  0  0  0  0  0  0  0
   -2.6067  -12.4386   13.3033 C   0  0  1  0  0  0  0  0  0  0  0  0
   -1.2963  -13.3598   12.9109 C   0  0  0  0  0  0  0  0  0  0  0  0
    0.0037  -12.9924   12.4604 O   0  0  0  0  0  0  0  0  0  0  0  0
   -2.1157  -13.0964   11.9920 C   0  0  0  0  0  0  0  0  0  0  0  0
   -1.7338  -14.0450   11.1420 C   0  0  0  0  0  0  0  0  0  0  0  0
   -2.7051  -14.8015   10.9999 O   0  0  0  0  0  0  0  0  0  0  0  0
   -0.6781  -13.2070   10.2701 N   0  0  0  0  0  0  0  0  0  0  0  0
   -2.4375  -12.0444   11.1081 C   0  0  0  0  0  0  0  0  0  0  0  0
   -1.7725  -11.0315   10.9361 O   0  0  0  0  0  0  0  0  0  0  0  0
   -1.2686  -12.4840   14.8266 N   0  0  0  0  0  0  0  0  0  0  0  0
   -1.0107  -13.4589   16.3223 C   0  0  0  0  0  0  0  0  0  0  0  0
    0.4702  -12.6539   14.7615 C   0  0  0  0  0  0  0  0  0  0  0  0
   -0.6207  -13.4926    7.4288 O   0  0  0  0  0  0  0  0  0  0  0  0
   -4.8605  -14.2222   11.2003 H   0  0  0  0  0  0  0  0  0  0  0  0
   -1.3957  -14.6742    9.5649 H   0  0  0  0  0  0  0  0  0  0  0  0
    0.3932  -13.5424    6.2063 H   0  0  0  0  0  0  0  0  0  0  0  0
    0.9208  -13.0456    2.8849 H   0  0  0  0  0  0  0  0  0  0  0  0
    1.3478  -11.4800   -0.1618 H   0  0  0  0  0  0  0  0  0  0  0  0
    0.5315  -12.9567   -1.7726 H   0  0  0  0  0  0  0  0  0  0  0  0
    0.0997  -14.1944   -0.5944 H   0  0  0  0  0  0  0  0  0  0  0  0
    2.5466  -14.0910   -2.1330 H   0  0  0  0  0  0  0  0  0  0  0  0
    2.1242  -15.2234   -0.8495 H   0  0  0  0  0  0  0  0  0  0  0  0
    3.6687  -12.6282   -0.6343 H   0  0  0  0  0  0  0  0  0  0  0  0
    3.9445  -14.1637    0.2210 H   0  0  0  0  0  0  0  0  0  0  0  0
    3.3307  -11.1890    1.2566 H   0  0  0  0  0  0  0  0  0  0  0  0
    2.3218  -11.6882    2.6025 H   0  0  0  0  0  0  0  0  0  0  0  0
    3.8170  -12.5448    2.3205 H   0  0  0  0  0  0  0  0  0  0  0  0
   -2.4075  -11.5658    2.1283 H   0  0  0  0  0  0  0  0  0  0  0  0
   -4.8238  -11.0358    5.9457 H   0  0  0  0  0  0  0  0  0  0  0  0
   -4.7954  -12.8047    6.2828 H   0  0  0  0  0  0  0  0  0  0  0  0
   -5.2108  -12.5667    9.2000 H   0  0  0  0  0  0  0  0  0  0  0  0
   -5.4688  -10.9545    9.2722 H   0  0  0  0  0  0  0  0  0  0  0  0
   -3.1367  -13.3370   13.8919 H   0  0  0  0  0  0  0  0  0  0  0  0
    0.6884  -13.6045   12.7958 H   0  0  0  0  0  0  0  0  0  0  0  0
   -0.1678  -12.5454   10.9135 H   0  0  0  0  0  0  0  0  0  0  0  0
   -0.9771  -12.3655    9.6764 H   0  0  0  0  0  0  0  0  0  0  0  0
   -0.2817  -14.3702   16.3814 H   0  0  0  0  0  0  0  0  0  0  0  0
   -0.3451  -12.8383   17.0433 H   0  0  0  0  0  0  0  0  0  0  0  0
   -1.8485  -13.7078   16.9733 H   0  0  0  0  0  0  0  0  0  0  0  0
    0.9720  -13.6942   14.8727 H   0  0  0  0  0  0  0  0  0  0  0  0
    0.9118  -12.1343   13.9349 H   0  0  0  0  0  0  0  0  0  0  0  0
    0.9706  -12.1332   15.6101 H   0  0  0  0  0  0  0  0  0  0  0  0
  1 43  1  0  0  0  0
  2  1  1  6  0  0  0
  2  3  1  0  0  0  0
  2 28  1  0  0  0  0
  2 37  1  0  0  0  0
  3  4  1  0  0  0  0
  3  5  2  0  0  0  0
  4 44  1  0  0  0  0
  5  6  1  0  0  0  0
  5 25  1  0  0  0  0
  6  7  1  0  0  0  0
  6 42  2  0  0  0  0
  7  8  2  0  0  0  0
  7 23  1  0  0  0  0
  8  9  1  0  0  0  0
  8 10  1  0  0  0  0
  9 45  1  0  0  0  0
 10 11  1  0  0  0  0
 10 20  2  0  0  0  0
 11 12  1  0  0  0  0
 11 46  1  0  0  0  0
 12 19  2  0  0  0  0
 13 14  1  0  0  0  0
 13 17  1  0  0  0  0
 13 47  1  6  0  0  0
 13 12  1  0  0  0  0
 14 15  1  0  0  0  0
 14 48  1  0  0  0  0
 14 49  1  0  0  0  0
 15 50  1  0  0  0  0
 15 51  1  0  0  0  0
 16 15  1  0  0  0  0
 16 52  1  0  0  0  0
 16 53  1  0  0  0  0
 17 16  1  0  0  0  0
 17 18  1  0  0  0  0
 18 54  1  0  0  0  0
 18 55  1  0  0  0  0
 18 56  1  0  0  0  0
 20 57  1  0  0  0  0
 21 20  1  0  0  0  0
 21 22  1  0  0  0  0
 23 21  2  0  0  0  0
 24 23  1  0  0  0  0
 24 58  1  0  0  0  0
 24 59  1  0  0  0  0
 25 24  1  0  0  0  0
 25 26  1  6  0  0  0
 27 25  1  0  0  0  0
 27 60  1  0  0  0  0
 27 61  1  0  0  0  0
 28 27  1  0  0  0  0
 28 29  1  6  0  0  0
 28 30  1  0  0  0  0
 30 31  1  0  0  0  0
 30 39  1  0  0  0  0
 30 62  1  1  0  0  0
 31 32  1  0  0  0  0
 32 63  1  0  0  0  0
 33 31  2  0  0  0  0
 33 34  1  0  0  0  0
 34 35  2  0  0  0  0
 34 36  1  0  0  0  0
 36 64  1  0  0  0  0
 36 65  1  0  0  0  0
 37 33  1  0  0  0  0
 37 38  2  0  0  0  0
 39 40  1  0  0  0  0
 39 41  1  0  0  0  0
 40 66  1  0  0  0  0
 40 67  1  0  0  0  0
 40 68  1  0  0  0  0
 41 69  1  0  0  0  0
 41 70  1  0  0  0  0
 41 71  1  0  0  0  0
M  END
>  <DRUGBANK_ID>
DB15040

>  <COMMON_NAME>
TP-271

>  <CAS_NUMBER>
1207284-17-0

>  <UNII>
Y6IUM7395Q

$$$$
