
 OpenBabel10282417133D

 17 16  0  0  1  0  0  0  0  0999 V2000
    1.0795   -0.0777   -0.0669 N   0  0  0  0  0  0  0  0  0  0  0  0
    0.5388   -1.3473    0.4586 C   0  0  1  0  0  0  0  0  0  0  0  0
    1.0275   -1.5926    1.8997 C   0  0  0  0  0  0  0  0  0  0  0  0
    0.6270   -0.5328    2.9299 C   0  0  0  0  0  0  0  0  0  0  0  0
   -0.7655   -0.5249    3.1780 O   0  0  0  0  0  0  0  0  0  0  0  0
   -1.0008   -1.3284    0.3306 C   0  0  0  0  0  0  0  0  0  0  0  0
   -1.5496   -2.3523   -0.3546 O   0  0  0  0  0  0  0  0  0  0  0  0
   -1.7001   -0.4356    0.8080 O   0  0  0  0  0  0  0  0  0  0  0  0
    0.7020    0.6939    0.4912 H   0  0  0  0  0  0  0  0  0  0  0  0
    2.0900   -0.0450    0.0590 H   0  0  0  0  0  0  0  0  0  0  0  0
    0.9279   -2.1471   -0.1817 H   0  0  0  0  0  0  0  0  0  0  0  0
    0.6685   -2.5728    2.2366 H   0  0  0  0  0  0  0  0  0  0  0  0
    2.1261   -1.6462    1.8901 H   0  0  0  0  0  0  0  0  0  0  0  0
    1.1081   -0.7542    3.8874 H   0  0  0  0  0  0  0  0  0  0  0  0
    0.9495    0.4706    2.6358 H   0  0  0  0  0  0  0  0  0  0  0  0
   -1.2287   -0.1807    2.3814 H   0  0  0  0  0  0  0  0  0  0  0  0
   -0.9202   -2.9390   -0.8115 H   0  0  0  0  0  0  0  0  0  0  0  0
  1  9  1  0  0  0  0
  1 10  1  0  0  0  0
  2  1  1  0  0  0  0
  2  3  1  0  0  0  0
  2  6  1  0  0  0  0
  2 11  1  6  0  0  0
  3  4  1  0  0  0  0
  3 12  1  0  0  0  0
  3 13  1  0  0  0  0
  4  5  1  0  0  0  0
  4 14  1  0  0  0  0
  4 15  1  0  0  0  0
  5 16  1  0  0  0  0
  6  7  1  0  0  0  0
  6  8  2  0  0  0  0
  7 17  1  0  0  0  0
M  END
>  <DRUGBANK_ID>
DB04193

>  <SECONDARY_ACCESSION_NUMBERS>
EXPT01782

>  <COMMON_NAME>
L-Homoserine

>  <CAS_NUMBER>
672-15-1

>  <UNII>
6KA95X0IVO

$$$$
