1466
 OpenBabel10282417113D

 46 50  0  0  1  0  0  0  0  0999 V2000
   -2.0276    0.2030    1.3051 O   0  0  0  0  0  0  0  0  0  0  0  0
   -3.4418   -1.9724   -0.0737 O   0  0  0  0  0  0  0  0  0  0  0  0
   -2.9493    3.0688    0.7318 O   0  0  0  0  0  0  0  0  0  0  0  0
    2.9071   -1.0242    0.2805 N   0  0  0  0  0  0  0  0  0  0  0  0
    0.0971   -0.6688    0.5982 C   0  0  1  0  0  0  0  0  0  0  0  0
    0.6819   -1.3259   -0.6674 C   0  0  2  0  0  0  0  0  0  0  0  0
    2.0676   -0.6522   -0.8942 C   0  0  1  0  0  0  0  0  0  0  0  0
   -1.3528   -1.0381    0.9429 C   0  0  2  0  0  0  0  0  0  0  0  0
    1.0024   -0.8312    1.8224 C   0  0  0  0  0  0  0  0  0  0  0  0
   -0.0809    0.7842    0.2872 C   0  0  0  0  0  0  0  0  0  0  0  0
    1.9498    0.8934   -1.1601 C   0  0  0  0  0  0  0  0  0  0  0  0
    2.4406   -0.4153    1.5309 C   0  0  0  0  0  0  0  0  0  0  0  0
    0.7691    1.5564   -0.4928 C   0  0  0  0  0  0  0  0  0  0  0  0
   -2.0352   -1.8532   -0.1959 C   0  0  2  0  0  0  0  0  0  0  0  0
   -0.3141   -1.2245   -1.8224 C   0  0  0  0  0  0  0  0  0  0  0  0
   -1.3066    1.2249    0.7305 C   0  0  0  0  0  0  0  0  0  0  0  0
   -1.6178   -1.4230   -1.5793 C   0  0  0  0  0  0  0  0  0  0  0  0
    0.4094    2.8865   -0.7015 C   0  0  0  0  0  0  0  0  0  0  0  0
    4.3235   -0.7618    0.0660 C   0  0  0  0  0  0  0  0  0  0  0  0
   -1.7214    2.5221    0.4719 C   0  0  0  0  0  0  0  0  0  0  0  0
   -0.8247    3.3642   -0.2137 C   0  0  0  0  0  0  0  0  0  0  0  0
   -3.9330    2.2251    1.3380 C   0  0  0  0  0  0  0  0  0  0  0  0
   -4.4579    1.1682    0.3770 C   0  0  0  0  0  0  0  0  0  0  0  0
    0.8412   -2.4003   -0.4912 H   0  0  0  0  0  0  0  0  0  0  0  0
    2.5199   -1.1150   -1.7821 H   0  0  0  0  0  0  0  0  0  0  0  0
   -1.4093   -1.6601    1.8449 H   0  0  0  0  0  0  0  0  0  0  0  0
   -3.8385   -1.1469   -0.3836 H   0  0  0  0  0  0  0  0  0  0  0  0
    0.9865   -1.8827    2.1369 H   0  0  0  0  0  0  0  0  0  0  0  0
    0.6243   -0.2442    2.6708 H   0  0  0  0  0  0  0  0  0  0  0  0
    2.8646    1.4177   -0.8677 H   0  0  0  0  0  0  0  0  0  0  0  0
    1.8459    1.0325   -2.2444 H   0  0  0  0  0  0  0  0  0  0  0  0
    3.0579   -0.7466    2.3738 H   0  0  0  0  0  0  0  0  0  0  0  0
    2.5249    0.6777    1.5016 H   0  0  0  0  0  0  0  0  0  0  0  0
   -1.6756   -2.8852   -0.0967 H   0  0  0  0  0  0  0  0  0  0  0  0
    0.0369   -0.9459   -2.8144 H   0  0  0  0  0  0  0  0  0  0  0  0
   -2.3608   -1.3250   -2.3677 H   0  0  0  0  0  0  0  0  0  0  0  0
    1.0511    3.5498   -1.2777 H   0  0  0  0  0  0  0  0  0  0  0  0
    4.6864   -1.3302   -0.7962 H   0  0  0  0  0  0  0  0  0  0  0  0
    4.5389    0.2977   -0.0950 H   0  0  0  0  0  0  0  0  0  0  0  0
    4.9070   -1.0962    0.9306 H   0  0  0  0  0  0  0  0  0  0  0  0
   -1.1096    4.3946   -0.4204 H   0  0  0  0  0  0  0  0  0  0  0  0
   -3.5504    1.8101    2.2786 H   0  0  0  0  0  0  0  0  0  0  0  0
   -4.7787    2.8620    1.6165 H   0  0  0  0  0  0  0  0  0  0  0  0
   -3.6461    0.6563   -0.1286 H   0  0  0  0  0  0  0  0  0  0  0  0
   -5.0734    0.4308    0.9015 H   0  0  0  0  0  0  0  0  0  0  0  0
   -5.0170    1.6039   -0.4511 H   0  0  0  0  0  0  0  0  0  0  0  0
  1  8  1  0  0  0  0
  1 16  1  0  0  0  0
  2 27  1  0  0  0  0
  3 20  1  0  0  0  0
  3 22  1  0  0  0  0
  4  7  1  0  0  0  0
  4 12  1  0  0  0  0
  4 19  1  0  0  0  0
  5  6  1  0  0  0  0
  5  8  1  0  0  0  0
  5  9  1  0  0  0  0
  5 10  1  6  0  0  0
  6  7  1  0  0  0  0
  6 15  1  0  0  0  0
  6 24  1  1  0  0  0
  7 11  1  0  0  0  0
  7 25  1  6  0  0  0
  8 14  1  0  0  0  0
  8 26  1  1  0  0  0
  9 12  1  0  0  0  0
  9 28  1  0  0  0  0
  9 29  1  0  0  0  0
 10 13  2  0  0  0  0
 10 16  1  0  0  0  0
 11 13  1  0  0  0  0
 11 30  1  0  0  0  0
 11 31  1  0  0  0  0
 12 32  1  0  0  0  0
 12 33  1  0  0  0  0
 13 18  1  0  0  0  0
 14  2  1  0  0  0  0
 14 17  1  0  0  0  0
 14 34  1  1  0  0  0
 15 17  2  0  0  0  0
 15 35  1  0  0  0  0
 16 20  2  0  0  0  0
 17 36  1  0  0  0  0
 18 21  2  0  0  0  0
 18 37  1  0  0  0  0
 19 38  1  0  0  0  0
 19 39  1  0  0  0  0
 19 40  1  0  0  0  0
 20 21  1  0  0  0  0
 21 41  1  0  0  0  0
 22 23  1  0  0  0  0
 22 42  1  0  0  0  0
 22 43  1  0  0  0  0
 23 44  1  0  0  0  0
 23 45  1  0  0  0  0
 23 46  1  0  0  0  0
M  END
>  <DRUGBANK_ID>
DB01466

>  <COMMON_NAME>
Ethylmorphine

>  <CAS_NUMBER>
76-58-4

>  <UNII>
RWO67D87EU

>  <SYNONYMS>
3-ethoxymorphine; 3-O-Ethylmorphine; Dionine; Ethylmorphine

$$$$
