491
 OpenBabel10282417103D

 31 31  0  0  1  0  0  0  0  0999 V2000
    2.4034    0.7931   -0.1087 O   0  0  0  0  0  0  0  0  0  0  0  0
    0.0041    2.1700    0.2989 O   0  0  0  0  0  0  0  0  0  0  0  0
   -2.4561    0.6639   -0.1996 O   0  0  0  0  0  0  0  0  0  0  0  0
    2.9301   -3.3028    0.0249 O   0  0  0  0  0  0  0  0  0  0  0  0
    1.3001   -3.4655   -2.2578 O   0  0  0  0  0  0  0  0  0  0  0  0
    0.0193   -2.0950    0.2877 N   0  0  0  0  0  0  0  0  0  0  0  0
    1.2936   -1.3877   -0.0394 C   0  0  1  0  0  0  0  0  0  0  0  0
    1.2487    0.1043    0.3955 C   0  0  2  0  0  0  0  0  0  0  0  0
   -0.0030    0.8084   -0.1517 C   0  0  1  0  0  0  0  0  0  0  0  0
   -1.2603    0.0532    0.2904 C   0  0  2  0  0  0  0  0  0  0  0  0
   -1.1616   -1.3804   -0.2287 C   0  0  0  0  0  0  0  0  0  0  0  0
    2.6013   -2.0178    0.5337 C   0  0  0  0  0  0  0  0  0  0  0  0
   -0.0642   -3.5044   -0.1527 C   0  0  0  0  0  0  0  0  0  0  0  0
    0.0668   -3.8172   -1.6614 C   0  0  0  0  0  0  0  0  0  0  0  0
    2.2328    1.7477    0.0090 H   0  0  0  0  0  0  0  0  0  0  0  0
   -0.1846    2.1666    1.2536 H   0  0  0  0  0  0  0  0  0  0  0  0
   -2.4409    0.6494   -1.1719 H   0  0  0  0  0  0  0  0  0  0  0  0
    2.4380   -3.9673    0.5339 H   0  0  0  0  0  0  0  0  0  0  0  0
    1.2784   -2.5207   -2.4933 H   0  0  0  0  0  0  0  0  0  0  0  0
    1.4081   -1.3439   -1.1208 H   0  0  0  0  0  0  0  0  0  0  0  0
    1.2822    0.1939    1.4883 H   0  0  0  0  0  0  0  0  0  0  0  0
    0.0375    0.8647   -1.2476 H   0  0  0  0  0  0  0  0  0  0  0  0
   -1.3401    0.0591    1.3834 H   0  0  0  0  0  0  0  0  0  0  0  0
   -2.0850   -1.9083    0.0455 H   0  0  0  0  0  0  0  0  0  0  0  0
   -1.1496   -1.3553   -1.3269 H   0  0  0  0  0  0  0  0  0  0  0  0
    3.4544   -1.3934    0.2512 H   0  0  0  0  0  0  0  0  0  0  0  0
    2.5768   -2.0665    1.6266 H   0  0  0  0  0  0  0  0  0  0  0  0
    0.6188   -4.1150    0.4379 H   0  0  0  0  0  0  0  0  0  0  0  0
   -1.0448   -3.8912    0.1632 H   0  0  0  0  0  0  0  0  0  0  0  0
   -0.0277   -4.8978   -1.7940 H   0  0  0  0  0  0  0  0  0  0  0  0
   -0.7392   -3.3466   -2.2300 H   0  0  0  0  0  0  0  0  0  0  0  0
  1 15  1  0  0  0  0
  2 16  1  0  0  0  0
  3 17  1  0  0  0  0
  4 12  1  0  0  0  0
  4 18  1  0  0  0  0
  5 14  1  0  0  0  0
  5 19  1  0  0  0  0
  6  7  1  0  0  0  0
  6 11  1  0  0  0  0
  6 13  1  0  0  0  0
  7  8  1  0  0  0  0
  7 12  1  0  0  0  0
  7 20  1  6  0  0  0
  8  1  1  0  0  0  0
  8  9  1  0  0  0  0
  8 21  1  1  0  0  0
  9  2  1  0  0  0  0
  9 10  1  0  0  0  0
  9 22  1  6  0  0  0
 10  3  1  0  0  0  0
 10 11  1  0  0  0  0
 10 23  1  1  0  0  0
 11 24  1  0  0  0  0
 11 25  1  0  0  0  0
 12 26  1  0  0  0  0
 12 27  1  0  0  0  0
 13 14  1  0  0  0  0
 13 28  1  0  0  0  0
 13 29  1  0  0  0  0
 14 30  1  0  0  0  0
 14 31  1  0  0  0  0
M  END
>  <DRUGBANK_ID>
DB00491

>  <SECONDARY_ACCESSION_NUMBERS>
APRD01117

>  <COMMON_NAME>
Miglitol

>  <CAS_NUMBER>
72432-03-2

>  <UNII>
0V5436JAQW

>  <SYNONYMS>
Miglitol; Miglitolum

$$$$
