
 OpenBabel10282417123D

 87 92  0  0  0  0  0  0  0  0999 V2000
    0.7641   -1.0942    0.2237 P   0  0  3  0  0  0  0  0  0  0  0  0
    1.3408    0.3428    0.9952 O   0  0  0  0  0  0  0  0  0  0  0  0
    0.8837    0.4497    2.3471 C   0  0  0  0  0  0  0  0  0  0  0  0
   -0.6587    0.5412    2.4359 C   0  0  1  0  0  0  0  0  0  0  0  0
    0.1874   -2.5312   -0.5479 O   0  0  0  0  0  0  0  0  0  0  0  0
   -2.3866    3.4590   -0.5284 N   0  0  0  0  0  0  0  0  0  0  0  0
   -1.8236    4.2867    0.4424 C   0  0  0  0  0  0  0  0  0  0  0  0
   -2.5859    3.9805   -1.8324 C   0  0  0  0  0  0  0  0  0  0  0  0
   -2.9730    2.1306   -0.2644 C   0  0  0  0  0  0  0  0  0  0  0  0
   -1.6791    5.7532    0.1439 C   0  0  0  0  0  0  0  0  0  0  0  0
   -1.3872    3.8792    1.5740 N   0  0  0  0  0  0  0  0  0  0  0  0
   -2.3080    5.3466   -2.0604 C   0  0  0  0  0  0  0  0  0  0  0  0
   -3.0231    3.1926   -2.9213 C   0  0  0  0  0  0  0  0  0  0  0  0
   -1.8960    6.2398   -1.0396 N   0  0  0  0  0  0  0  0  0  0  0  0
   -1.2130    6.6407    1.2730 C   0  0  0  0  0  0  0  0  0  0  0  0
   -1.1580    4.6689    2.6640 C   0  0  0  0  0  0  0  0  0  0  0  0
   -2.4734    5.8720   -3.3467 C   0  0  0  0  0  0  0  0  0  0  0  0
   -3.1901    3.7286   -4.2063 C   0  0  0  0  0  0  0  0  0  0  0  0
   -2.9276    2.2485    2.2851 O   0  0  0  0  0  0  0  0  0  0  0  0
   -1.0583    6.0140    2.4635 N   0  0  0  0  0  0  0  0  0  0  0  0
   -0.9796    7.8335    1.1047 O   0  0  0  0  0  0  0  0  0  0  0  0
   -1.0816    4.2168    3.7716 O   0  0  0  0  0  0  0  0  0  0  0  0
   -2.9109    5.0877   -4.4180 C   0  0  0  0  0  0  0  0  0  0  0  0
   -3.6636    2.8196   -5.3115 C   0  0  0  0  0  0  0  0  0  0  0  0
   -1.2476    0.0715    0.0308 O   0  0  0  0  0  0  0  0  0  0  0  0
   -3.0876    5.6923   -5.7763 C   0  0  0  0  0  0  0  0  0  0  0  0
   -0.9252    1.3423    3.5730 O   0  0  0  0  0  0  0  0  0  0  0  0
   -0.0445   -1.6383    1.4048 O   0  0  0  0  0  0  0  0  0  0  0  0
   -1.6343   -1.7247   -2.3178 O   0  0  0  0  0  0  0  0  0  0  0  0
   -2.6949    1.4888    1.1208 C   0  0  2  0  0  0  0  0  0  0  0  0
   -1.2476    1.0427    1.0779 C   0  0  1  0  0  0  0  0  0  0  0  0
   -1.7569   -3.9574   -0.7841 O   0  0  0  0  0  0  0  0  0  0  0  0
   -0.6590   -4.6200   -0.1372 C   0  0  0  0  0  0  0  0  0  0  0  0
    0.4104   -4.7653   -1.2773 C   0  0  1  0  0  0  0  0  0  0  0  0
   -0.2228   -5.7994   -2.0774 O   0  0  0  0  0  0  0  0  0  0  0  0
    0.7593   -3.6239   -2.3567 C   0  0  2  0  0  0  0  0  0  0  0  0
   -0.6830   -5.2279   -3.3108 C   0  0  2  0  0  0  0  0  0  0  0  0
   -0.2735   -3.7907   -3.4426 C   0  0  2  0  0  0  0  0  0  0  0  0
    2.1614   -3.4974   -2.5580 O   0  0  0  0  0  0  0  0  0  0  0  0
    0.2050   -3.2208   -4.6461 O   0  0  0  0  0  0  0  0  0  0  0  0
   -1.4273   -2.3959   -1.0007 P   0  0  3  0  0  0  0  0  0  0  0  0
   -2.5923   -1.9058   -0.0113 O   0  0  0  0  0  0  0  0  0  0  0  0
    2.2032   -1.8478    0.4172 O   0  0  0  0  0  0  0  0  0  0  0  0
   -2.0930   -5.5370   -3.6677 N   0  0  0  0  0  0  0  0  0  0  0  0
   -3.3673   -5.8027   -3.0902 C   0  0  0  0  0  0  0  0  0  0  0  0
   -2.1902   -5.9669   -4.9839 C   0  0  0  0  0  0  0  0  0  0  0  0
   -3.8524   -6.7535   -3.9909 C   0  0  0  0  0  0  0  0  0  0  0  0
   -4.0845   -5.4566   -1.9696 N   0  0  0  0  0  0  0  0  0  0  0  0
   -3.1923   -6.7639   -5.1815 N   0  0  0  0  0  0  0  0  0  0  0  0
   -4.8313   -7.6620   -3.5772 C   0  0  0  0  0  0  0  0  0  0  0  0
   -5.1950   -6.2833   -1.8012 C   0  0  0  0  0  0  0  0  0  0  0  0
   -5.5340   -7.4096   -2.4708 N   0  0  0  0  0  0  0  0  0  0  0  0
   -4.9755   -8.8319   -4.3077 N   0  0  0  0  0  0  0  0  0  0  0  0
   -2.2057    7.2027   -3.5634 O   0  0  0  0  0  0  0  0  0  0  0  0
    1.2609   -0.4036    2.9287 H   0  0  0  0  0  0  0  0  0  0  0  0
    1.3373    1.3394    2.7884 H   0  0  0  0  0  0  0  0  0  0  0  0
   -1.1193   -0.4184    2.7050 H   0  0  0  0  0  0  0  0  0  0  0  0
   -2.5841    1.4487   -1.0364 H   0  0  0  0  0  0  0  0  0  0  0  0
   -4.0554    2.1478   -0.4256 H   0  0  0  0  0  0  0  0  0  0  0  0
   -3.2388    2.1314   -2.8144 H   0  0  0  0  0  0  0  0  0  0  0  0
   -3.8439    2.5006    2.4133 H   0  0  0  0  0  0  0  0  0  0  0  0
   -0.7938    6.5368    3.2832 H   0  0  0  0  0  0  0  0  0  0  0  0
   -2.9503    2.0040   -5.4667 H   0  0  0  0  0  0  0  0  0  0  0  0
   -4.6472    2.4064   -5.0665 H   0  0  0  0  0  0  0  0  0  0  0  0
   -3.7667    3.3386   -6.2670 H   0  0  0  0  0  0  0  0  0  0  0  0
   -1.6037   -0.7213    0.5044 H   0  0  0  0  0  0  0  0  0  0  0  0
   -2.4299    5.1823   -6.4865 H   0  0  0  0  0  0  0  0  0  0  0  0
   -4.1329    5.5883   -6.0828 H   0  0  0  0  0  0  0  0  0  0  0  0
   -2.8411    6.7549   -5.8019 H   0  0  0  0  0  0  0  0  0  0  0  0
   -1.0294    2.2578    3.2468 H   0  0  0  0  0  0  0  0  0  0  0  0
   -3.3448    0.6101    1.2105 H   0  0  0  0  0  0  0  0  0  0  0  0
   -0.5781    1.8055    0.6797 H   0  0  0  0  0  0  0  0  0  0  0  0
   -0.3166   -4.0771    0.7706 H   0  0  0  0  0  0  0  0  0  0  0  0
   -0.9705   -5.5839    0.2816 H   0  0  0  0  0  0  0  0  0  0  0  0
    1.3318   -5.1228   -0.8021 H   0  0  0  0  0  0  0  0  0  0  0  0
    0.6617   -2.5368   -2.2665 H   0  0  0  0  0  0  0  0  0  0  0  0
   -0.0503   -5.6996   -4.0634 H   0  0  0  0  0  0  0  0  0  0  0  0
   -1.2432   -3.3438   -3.2932 H   0  0  0  0  0  0  0  0  0  0  0  0
    2.5077   -4.1613   -3.1567 H   0  0  0  0  0  0  0  0  0  0  0  0
    1.0036   -2.6964   -4.4184 H   0  0  0  0  0  0  0  0  0  0  0  0
   -3.4514   -2.1973   -0.4261 H   0  0  0  0  0  0  0  0  0  0  0  0
    2.0463   -2.7800    0.6665 H   0  0  0  0  0  0  0  0  0  0  0  0
   -1.3962   -5.7982   -5.6972 H   0  0  0  0  0  0  0  0  0  0  0  0
   -5.9181   -6.0574   -1.0067 H   0  0  0  0  0  0  0  0  0  0  0  0
   -5.3495   -9.6401   -3.8382 H   0  0  0  0  0  0  0  0  0  0  0  0
   -4.2131   -8.9548   -4.9742 H   0  0  0  0  0  0  0  0  0  0  0  0
   -1.9183    7.5627   -2.7005 H   0  0  0  0  0  0  0  0  0  0  0  0
  1 28  2  0  0  0  0
  1 43  1  0  0  0  0
  1  5  1  0  0  0  0
  2  1  1  0  0  0  0
  3  2  1  0  0  0  0
  3 55  1  0  0  0  0
  3 56  1  0  0  0  0
  4 27  1  0  0  0  0
  4 57  1  1  0  0  0
  4 31  1  0  0  0  0
  4  3  1  0  0  0  0
  5 41  1  0  0  0  0
  6  7  1  0  0  0  0
  6  8  1  0  0  0  0
  6  9  1  0  0  0  0
  7 10  1  0  0  0  0
  7 11  2  0  0  0  0
  8 12  2  0  0  0  0
  8 13  1  0  0  0  0
  9 58  1  0  0  0  0
  9 59  1  0  0  0  0
 10 14  2  0  0  0  0
 10 15  1  0  0  0  0
 11 16  1  0  0  0  0
 12 17  1  0  0  0  0
 12 14  1  0  0  0  0
 13 18  2  0  0  0  0
 13 60  1  0  0  0  0
 15 20  1  0  0  0  0
 15 21  2  0  0  0  0
 16 22  2  0  0  0  0
 16 20  1  0  0  0  0
 17 23  2  0  0  0  0
 17 54  1  0  0  0  0
 18 24  1  0  0  0  0
 18 23  1  0  0  0  0
 19 61  1  0  0  0  0
 20 62  1  0  0  0  0
 23 26  1  0  0  0  0
 24 63  1  0  0  0  0
 24 64  1  0  0  0  0
 24 65  1  0  0  0  0
 25 66  1  0  0  0  0
 26 67  1  0  0  0  0
 26 68  1  0  0  0  0
 26 69  1  0  0  0  0
 27 70  1  0  0  0  0
 30 31  1  0  0  0  0
 30 71  1  1  0  0  0
 30 19  1  0  0  0  0
 30  9  1  0  0  0  0
 31 25  1  0  0  0  0
 31 72  1  6  0  0  0
 32 33  1  0  0  0  0
 33 73  1  0  0  0  0
 33 74  1  0  0  0  0
 34 33  1  0  0  0  0
 34 35  1  0  0  0  0
 34 36  1  0  0  0  0
 34 75  1  1  0  0  0
 35 37  1  0  0  0  0
 36 38  1  0  0  0  0
 36 39  1  0  0  0  0
 36 76  1  1  0  0  0
 37 38  1  0  0  0  0
 37 77  1  6  0  0  0
 37 44  1  0  0  0  0
 38 40  1  0  0  0  0
 38 78  1  1  0  0  0
 39 79  1  0  0  0  0
 40 80  1  0  0  0  0
 41 29  2  0  0  0  0
 41 32  1  0  0  0  0
 41 42  1  0  0  0  0
 42 81  1  0  0  0  0
 43 82  1  0  0  0  0
 44 45  1  0  0  0  0
 44 46  1  0  0  0  0
 45 47  2  0  0  0  0
 45 48  1  0  0  0  0
 46 49  2  0  0  0  0
 46 83  1  0  0  0  0
 47 50  1  0  0  0  0
 47 49  1  0  0  0  0
 48 51  2  0  0  0  0
 50 52  2  0  0  0  0
 50 53  1  0  0  0  0
 51 52  1  0  0  0  0
 51 84  1  0  0  0  0
 53 85  1  0  0  0  0
 53 86  1  0  0  0  0
 54 87  1  0  0  0  0
M  END
>  <DRUGBANK_ID>
DB02654

>  <SECONDARY_ACCESSION_NUMBERS>
EXPT00285

>  <COMMON_NAME>
6-hydroxy-FAD

>  <CAS_NUMBER>
52301-43-6

>  <SYNONYMS>
6-HO-FAD; 6-hydroxy-flavin-adenine dinucleotide; 6-hydroxyflavin-adenine dinucleotide; 6-hydroxyflavine-adenine dinucleotide

$$$$
