
 OpenBabel10282417203D

 29 30  0  0  0  0  0  0  0  0999 V2000
   -1.0851   -0.0559    0.0212 S   0  0  0  0  0  0  0  0  0  0  0  0
    0.2369   -1.1659    0.0104 C   0  0  0  0  0  0  0  0  0  0  0  0
    1.4253   -0.5939   -0.0100 N   0  0  0  0  0  0  0  0  0  0  0  0
    1.3216    0.8082   -0.0034 C   0  0  0  0  0  0  0  0  0  0  0  0
    0.0115    1.2568    0.0095 C   0  0  0  0  0  0  0  0  0  0  0  0
    2.5191    1.6664   -0.0216 C   0  0  0  0  0  0  0  0  0  0  0  0
    2.3274    3.0256   -0.0302 N   0  0  0  0  0  0  0  0  0  0  0  0
    3.6726    1.2356   -0.0357 O   0  0  0  0  0  0  0  0  0  0  0  0
   -0.0628   -2.6436   -0.0511 C   0  0  1  0  0  0  0  0  0  0  0  0
    0.4621   -3.3136   -1.3157 C   0  0  2  0  0  0  0  0  0  0  0  0
   -0.4404   -3.2012   -2.4159 O   0  0  0  0  0  0  0  0  0  0  0  0
    0.6416   -4.7565   -0.8553 C   0  0  2  0  0  0  0  0  0  0  0  0
   -0.5942   -5.4781   -1.0026 O   0  0  0  0  0  0  0  0  0  0  0  0
    1.0280   -4.6156    0.6198 C   0  0  2  0  0  0  0  0  0  0  0  0
    0.5212   -3.3354    1.0733 O   0  0  0  0  0  0  0  0  0  0  0  0
    2.5432   -4.6965    0.8498 C   0  0  0  0  0  0  0  0  0  0  0  0
    3.2668   -3.6874    0.1607 O   0  0  0  0  0  0  0  0  0  0  0  0
   -0.3636    2.2685    0.0095 H   0  0  0  0  0  0  0  0  0  0  0  0
    3.1607    3.5990   -0.0445 H   0  0  0  0  0  0  0  0  0  0  0  0
    1.4314    3.4849   -0.0270 H   0  0  0  0  0  0  0  0  0  0  0  0
   -1.1459   -2.8015    0.0239 H   0  0  0  0  0  0  0  0  0  0  0  0
    1.4221   -2.8916   -1.6280 H   0  0  0  0  0  0  0  0  0  0  0  0
   -1.2300   -3.7338   -2.2104 H   0  0  0  0  0  0  0  0  0  0  0  0
    1.3894   -5.3061   -1.4365 H   0  0  0  0  0  0  0  0  0  0  0  0
   -1.2735   -5.0763   -0.4361 H   0  0  0  0  0  0  0  0  0  0  0  0
    0.5438   -5.3897    1.2287 H   0  0  0  0  0  0  0  0  0  0  0  0
    2.7669   -4.5770    1.9147 H   0  0  0  0  0  0  0  0  0  0  0  0
    2.9288   -5.6712    0.5309 H   0  0  0  0  0  0  0  0  0  0  0  0
    3.1334   -3.7721   -0.7954 H   0  0  0  0  0  0  0  0  0  0  0  0
  1  2  1  0  0  0  0
  1  5  1  0  0  0  0
  2  3  2  0  0  0  0
  3  4  1  0  0  0  0
  4  5  2  0  0  0  0
  4  6  1  0  0  0  0
  5 18  1  0  0  0  0
  6  7  1  0  0  0  0
  6  8  2  0  0  0  0
  7 19  1  0  0  0  0
  7 20  1  0  0  0  0
  9 10  1  0  0  0  0
  9 15  1  0  0  0  0
  9  2  1  0  0  0  0
  9 21  1  1  0  0  0
 10 11  1  0  0  0  0
 10 12  1  0  0  0  0
 10 22  1  6  0  0  0
 11 23  1  0  0  0  0
 12 13  1  0  0  0  0
 12 14  1  0  0  0  0
 12 24  1  6  0  0  0
 13 25  1  0  0  0  0
 14 15  1  0  0  0  0
 14 26  1  1  0  0  0
 14 16  1  0  0  0  0
 16 17  1  0  0  0  0
 16 27  1  0  0  0  0
 16 28  1  0  0  0  0
 17 29  1  0  0  0  0
M  END
>  <DRUGBANK_ID>
DB13243

>  <COMMON_NAME>
Tiazofurine

>  <CAS_NUMBER>
60084-10-8

>  <UNII>
ULJ82834RE

>  <SYNONYMS>
2-(β-D-ribofuranosyl)-4-thiazolecarboxamide; 2-Beta-D-ribofuranosyl-4-thiazolecarboxamide; 2-β-D-ribofuranosyl-4-thiazolecarboxamide; TCAR; Tiazofurin; Tiazofurina; Tiazofurine; Tiazofurinum

$$$$
