
 OpenBabel10282417133D

  5  8  0  0  0  0  0  0  0  0999 V2000
    0.0000    0.0000    0.0000 S   0  0  0  0  0  0  0  0  0  0  0  0
   -1.3250   -0.7080   -0.2900 Cu  0  0  0  0  0  0  0  0  0  0  0  0
    1.3250   -0.2900    0.7080 Cu  0  0  0  0  0  0  0  0  0  0  0  0
   -1.3250    0.7080    0.2900 Cu  0  0  0  0  0  0  0  0  0  0  0  0
    1.3250    0.2900   -0.7080 Cu  0  0  0  0  0  0  0  0  0  0  0  0
  1  4  1  0  0  0  0
  1  2  1  0  0  0  0
  1  5  1  0  0  0  0
  1  3  1  0  0  0  0
  2  3  1  0  0  0  0
  3  5  1  0  0  0  0
  4  2  1  0  0  0  0
  4  5  1  0  0  0  0
M  END
>  <DRUGBANK_ID>
DB03151

>  <SECONDARY_ACCESSION_NUMBERS>
EXPT01060

>  <COMMON_NAME>
mu4-sulfido-quadro-tetracopper

>  <SYNONYMS>
Î¼4-sulfido-quadro-tetracopper

$$$$
