478
 OpenBabel10282417103D

 34 36  0  0  1  0  0  0  0  0999 V2000
    0.9222    0.0073    0.0837 N   0  0  0  0  0  0  0  0  0  0  0  0
    0.8809    2.0586   -1.4538 C   0  0  3  0  0  0  0  0  0  0  0  0
    2.1574    4.0320   -2.4718 C   0  0  3  0  0  0  0  0  0  0  0  0
    0.0569    3.2159   -3.5847 C   0  0  3  0  0  0  0  0  0  0  0  0
    2.1418    1.8218   -3.6718 C   0  0  3  0  0  0  0  0  0  0  0  0
    1.7569    3.3174   -1.1614 C   0  0  0  0  0  0  0  0  0  0  0  0
   -0.3475    2.5277   -2.2845 C   0  0  0  0  0  0  0  0  0  0  0  0
    1.7498    1.1285   -2.3572 C   0  0  0  0  0  0  0  0  0  0  0  0
    0.8932    4.4528   -3.2375 C   0  0  0  0  0  0  0  0  0  0  0  0
    2.9718    3.0731   -3.3538 C   0  0  0  0  0  0  0  0  0  0  0  0
    0.8680    2.2251   -4.4259 C   0  0  0  0  0  0  0  0  0  0  0  0
    0.4296    1.3771   -0.0985 C   0  0  3  0  0  0  0  0  0  0  0  0
   -1.0938    1.3043    0.0978 C   0  0  0  0  0  0  0  0  0  0  0  0
    0.5854   -0.5813   -0.6735 H   0  0  0  0  0  0  0  0  0  0  0  0
    1.9421   -0.0065    0.0295 H   0  0  0  0  0  0  0  0  0  0  0  0
    2.7575    4.9194   -2.2408 H   0  0  0  0  0  0  0  0  0  0  0  0
   -0.8458    3.5153   -4.1285 H   0  0  0  0  0  0  0  0  0  0  0  0
    2.7306    1.1320   -4.2867 H   0  0  0  0  0  0  0  0  0  0  0  0
    1.2099    4.0186   -0.5178 H   0  0  0  0  0  0  0  0  0  0  0  0
    2.6642    3.0309   -0.6119 H   0  0  0  0  0  0  0  0  0  0  0  0
   -0.9833    1.6707   -2.5338 H   0  0  0  0  0  0  0  0  0  0  0  0
   -0.9507    3.2362   -1.7043 H   0  0  0  0  0  0  0  0  0  0  0  0
    2.6696    0.8340   -1.8336 H   0  0  0  0  0  0  0  0  0  0  0  0
    1.2027    0.2090   -2.5960 H   0  0  0  0  0  0  0  0  0  0  0  0
    1.1620    4.9882   -4.1552 H   0  0  0  0  0  0  0  0  0  0  0  0
    0.3013    5.1452   -2.6253 H   0  0  0  0  0  0  0  0  0  0  0  0
    3.2607    3.5734   -4.2864 H   0  0  0  0  0  0  0  0  0  0  0  0
    3.8996    2.7897   -2.8428 H   0  0  0  0  0  0  0  0  0  0  0  0
    0.2633    1.3326   -4.6347 H   0  0  0  0  0  0  0  0  0  0  0  0
    1.1216    2.6726   -5.3926 H   0  0  0  0  0  0  0  0  0  0  0  0
    0.8254    1.9616    0.7407 H   0  0  0  0  0  0  0  0  0  0  0  0
   -1.3588    0.8303    1.0479 H   0  0  0  0  0  0  0  0  0  0  0  0
   -1.5375    2.3053    0.1157 H   0  0  0  0  0  0  0  0  0  0  0  0
   -1.5760    0.7214   -0.6954 H   0  0  0  0  0  0  0  0  0  0  0  0
  1 12  1  0  0  0  0
  1 14  1  0  0  0  0
  1 15  1  0  0  0  0
  2  6  1  0  0  0  0
  2  7  1  0  0  0  0
  2  8  1  0  0  0  0
  2 12  1  0  0  0  0
  3  6  1  0  0  0  0
  3  9  1  0  0  0  0
  3 10  1  0  0  0  0
  3 16  1  0  0  0  0
  4  7  1  0  0  0  0
  4  9  1  0  0  0  0
  4 11  1  0  0  0  0
  4 17  1  0  0  0  0
  5  8  1  0  0  0  0
  5 10  1  0  0  0  0
  5 11  1  0  0  0  0
  5 18  1  0  0  0  0
  6 19  1  0  0  0  0
  6 20  1  0  0  0  0
  7 21  1  0  0  0  0
  7 22  1  0  0  0  0
  8 23  1  0  0  0  0
  8 24  1  0  0  0  0
  9 25  1  0  0  0  0
  9 26  1  0  0  0  0
 10 27  1  0  0  0  0
 10 28  1  0  0  0  0
 11 29  1  0  0  0  0
 11 30  1  0  0  0  0
 12 13  1  0  0  0  0
 12 31  1  0  0  0  0
 13 32  1  0  0  0  0
 13 33  1  0  0  0  0
 13 34  1  0  0  0  0
M  END
>  <DRUGBANK_ID>
DB00478

>  <SECONDARY_ACCESSION_NUMBERS>
APRD01219

>  <COMMON_NAME>
Rimantadine

>  <CAS_NUMBER>
13392-28-4

>  <UNII>
0T2EF4JQTU

>  <SYNONYMS>
alpha-Methyl-1-adamantanemethylamine; alpha-Methyladamantanemethylamine; Rimantadina; Rimantadine; Rimantadinum

$$$$
