
 OpenBabel10282417203D

 56 58  0  0  0  0  0  0  0  0999 V2000
    1.3982   -0.2334    0.0610 N   0  0  0  0  0  0  0  0  0  0  0  0
    0.6317    0.8068    0.4676 C   0  0  0  0  0  0  0  0  0  0  0  0
   -0.3921    0.9421   -0.1430 O   0  0  0  0  0  0  0  0  0  0  0  0
    1.1225    1.7087    1.4824 C   0  0  0  0  0  0  0  0  0  0  0  0
    2.0131    2.7281    1.1501 C   0  0  0  0  0  0  0  0  0  0  0  0
    2.7512    2.9048   -0.0762 N   0  0  0  0  0  0  0  0  0  0  0  0
    3.8459    3.6119   -0.5618 C   0  0  0  0  0  0  0  0  0  0  0  0
    4.2195    3.4170   -1.7233 O   0  0  0  0  0  0  0  0  0  0  0  0
    4.5896    4.4673    0.1839 N   0  0  0  0  0  0  0  0  0  0  0  0
    4.3194    4.6832    1.5389 C   0  0  0  0  0  0  0  0  0  0  0  0
    5.1892    4.1415    2.6274 C   0  0  0  0  0  0  0  0  0  0  0  0
    6.3415    5.0774    2.6531 C   0  0  0  0  0  0  0  0  0  0  0  0
    5.8417    6.4692    3.0673 C   0  0  0  0  0  0  0  0  0  0  0  0
    5.1582    6.4909    4.3729 N   0  0  0  0  0  0  0  0  0  0  0  0
    5.0433    7.8840    4.8361 C   0  0  0  0  0  0  0  0  0  0  0  0
    6.4013    8.1333    5.4623 C   0  0  0  0  0  0  0  0  0  0  0  0
    6.6686    6.8369    6.2034 C   0  0  0  0  0  0  0  0  0  0  0  0
    5.9104    5.7834    5.4237 C   0  0  0  0  0  0  0  0  0  0  0  0
    1.7576    3.8888    2.4646 S   0  0  0  0  0  0  0  0  0  0  0  0
    1.2667    2.8056    3.5848 N   0  0  0  0  0  0  0  0  0  0  0  0
    0.6548    1.8816    2.8652 C   0  0  0  0  0  0  0  0  0  0  0  0
   -0.3951    1.4034    3.5687 O   0  0  0  0  0  0  0  0  0  0  0  0
   -1.3662    0.7192    2.8084 C   0  0  0  0  0  0  0  0  0  0  0  0
   -2.1175    1.5251    1.7561 C   0  0  0  0  0  0  0  0  0  0  0  0
   -2.8019    0.8001    0.7669 C   0  0  0  0  0  0  0  0  0  0  0  0
   -2.8536   -0.5391    0.8616 F   0  0  0  0  0  0  0  0  0  0  0  0
   -3.1898    1.3924   -0.4418 C   0  0  0  0  0  0  0  0  0  0  0  0
   -2.9216    2.7415   -0.6657 C   0  0  0  0  0  0  0  0  0  0  0  0
   -3.4293    3.5663   -2.2867 Br  0  0  0  0  0  0  0  0  0  0  0  0
   -2.2649    3.4924    0.2975 C   0  0  0  0  0  0  0  0  0  0  0  0
   -1.9101    2.8945    1.5049 C   0  0  0  0  0  0  0  0  0  0  0  0
   -1.2258    3.6674    2.3546 F   0  0  0  0  0  0  0  0  0  0  0  0
    0.8853   -0.7643   -0.6367 H   0  0  0  0  0  0  0  0  0  0  0  0
    2.4008   -0.2001    0.0259 H   0  0  0  0  0  0  0  0  0  0  0  0
    2.4722    2.2646   -0.8124 H   0  0  0  0  0  0  0  0  0  0  0  0
    5.3645    4.9518   -0.2558 H   0  0  0  0  0  0  0  0  0  0  0  0
    3.7438    5.6018    1.7025 H   0  0  0  0  0  0  0  0  0  0  0  0
    3.6956    3.8735    1.6236 H   0  0  0  0  0  0  0  0  0  0  0  0
    4.6254    4.1119    3.5777 H   0  0  0  0  0  0  0  0  0  0  0  0
    5.4606    3.0952    2.4382 H   0  0  0  0  0  0  0  0  0  0  0  0
    7.1214    4.6731    3.2935 H   0  0  0  0  0  0  0  0  0  0  0  0
    6.7753    5.1189    1.6518 H   0  0  0  0  0  0  0  0  0  0  0  0
    6.6839    7.1525    2.9940 H   0  0  0  0  0  0  0  0  0  0  0  0
    5.1172    6.8629    2.3394 H   0  0  0  0  0  0  0  0  0  0  0  0
    4.2490    7.9706    5.5883 H   0  0  0  0  0  0  0  0  0  0  0  0
    4.8035    8.5856    4.0287 H   0  0  0  0  0  0  0  0  0  0  0  0
    7.1609    8.2867    4.6850 H   0  0  0  0  0  0  0  0  0  0  0  0
    6.4206    9.0027    6.1185 H   0  0  0  0  0  0  0  0  0  0  0  0
    7.7375    6.6074    6.2486 H   0  0  0  0  0  0  0  0  0  0  0  0
    6.2704    6.8836    7.2202 H   0  0  0  0  0  0  0  0  0  0  0  0
    6.6215    5.0395    5.0682 H   0  0  0  0  0  0  0  0  0  0  0  0
    5.2249    5.2132    6.0613 H   0  0  0  0  0  0  0  0  0  0  0  0
   -0.8329   -0.1333    2.3679 H   0  0  0  0  0  0  0  0  0  0  0  0
   -2.0715    0.2931    3.5254 H   0  0  0  0  0  0  0  0  0  0  0  0
   -3.5703    0.7636   -1.2404 H   0  0  0  0  0  0  0  0  0  0  0  0
   -1.9598    4.5192    0.1129 H   0  0  0  0  0  0  0  0  0  0  0  0
  1  2  1  0  0  0  0
  1 33  1  0  0  0  0
  1 34  1  0  0  0  0
  2  3  2  0  0  0  0
  2  4  1  0  0  0  0
  4  5  2  0  0  0  0
  5  6  1  0  0  0  0
  5 19  1  0  0  0  0
  6  7  1  0  0  0  0
  6 35  1  0  0  0  0
  7  8  2  0  0  0  0
  7  9  1  0  0  0  0
  9 10  1  0  0  0  0
  9 36  1  0  0  0  0
 10 11  1  0  0  0  0
 10 37  1  0  0  0  0
 10 38  1  0  0  0  0
 11 12  1  0  0  0  0
 11 39  1  0  0  0  0
 11 40  1  0  0  0  0
 12 13  1  0  0  0  0
 12 41  1  0  0  0  0
 12 42  1  0  0  0  0
 13 14  1  0  0  0  0
 13 43  1  0  0  0  0
 13 44  1  0  0  0  0
 14 15  1  0  0  0  0
 15 16  1  0  0  0  0
 15 45  1  0  0  0  0
 15 46  1  0  0  0  0
 16 17  1  0  0  0  0
 16 47  1  0  0  0  0
 16 48  1  0  0  0  0
 17 18  1  0  0  0  0
 17 49  1  0  0  0  0
 17 50  1  0  0  0  0
 18 14  1  0  0  0  0
 18 51  1  0  0  0  0
 18 52  1  0  0  0  0
 19 20  1  0  0  0  0
 20 21  2  0  0  0  0
 21  4  1  0  0  0  0
 21 22  1  0  0  0  0
 22 23  1  0  0  0  0
 23 24  1  0  0  0  0
 23 53  1  0  0  0  0
 23 54  1  0  0  0  0
 24 25  2  0  0  0  0
 25 26  1  0  0  0  0
 25 27  1  0  0  0  0
 27 28  2  0  0  0  0
 27 55  1  0  0  0  0
 28 29  1  0  0  0  0
 28 30  1  0  0  0  0
 30 31  2  0  0  0  0
 30 56  1  0  0  0  0
 31 24  1  0  0  0  0
 31 32  1  0  0  0  0
M  END
>  <DRUGBANK_ID>
DB12962

>  <COMMON_NAME>
CP-547632

>  <CAS_NUMBER>
252003-65-9

>  <UNII>
W1B375O5M2

$$$$
