
 OpenBabel10282417133D

 34 36  0  0  0  0  0  0  0  0999 V2000
    1.7110    0.4966    0.1218 O   0  0  0  0  0  0  0  0  0  0  0  0
   -1.8768    0.8942    0.0910 O   0  0  0  0  0  0  0  0  0  0  0  0
   -0.7751   -1.4960    0.6652 O   0  0  0  0  0  0  0  0  0  0  0  0
    1.3933   -1.9470   -2.5928 O   0  0  0  0  0  0  0  0  0  0  0  0
   -0.2060    5.5568   -3.1175 O   0  0  0  0  0  0  0  0  0  0  0  0
    0.7151    2.6349   -0.0500 N   0  3  0  0  0  0  0  0  0  0  0  0
    0.1932    4.7282   -0.2500 N   0  0  0  0  0  0  0  0  0  0  0  0
    1.7918    2.3402   -2.2360 N   0  0  0  0  0  0  0  0  0  0  0  0
    1.7120    4.1925   -3.7288 N   0  0  0  0  0  0  0  0  0  0  0  0
    0.5168    1.2501    0.3496 C   0  0  1  0  0  0  0  0  0  0  0  0
   -0.5999    0.6089   -0.4740 C   0  0  1  0  0  0  0  0  0  0  0  0
   -0.1994   -0.8497   -0.4760 C   0  0  1  0  0  0  0  0  0  0  0  0
    1.3360   -0.8078   -0.4005 C   0  0  1  0  0  0  0  0  0  0  0  0
    1.1846    3.0599   -1.2694 C   0  0  0  0  0  0  0  0  0  0  0  0
    2.0635   -1.0506   -1.7351 C   0  0  0  0  0  0  0  0  0  0  0  0
    0.8168    4.3631   -1.4213 C   0  0  0  0  0  0  0  0  0  0  0  0
    0.1539    3.6808    0.5817 C   0  0  0  0  0  0  0  0  0  0  0  0
    1.0527    5.0517   -2.7138 C   0  0  2  0  0  0  0  0  0  0  0  0
    2.0187    2.9727   -3.4298 C   0  0  0  0  0  0  0  0  0  0  0  0
   -0.2487    5.6293   -0.0824 H   0  0  0  0  0  0  0  0  0  0  0  0
    2.3187    1.5043   -2.0495 H   0  0  0  0  0  0  0  0  0  0  0  0
   -2.0621    0.2238    0.7785 H   0  0  0  0  0  0  0  0  0  0  0  0
   -0.3916   -1.1704    1.4953 H   0  0  0  0  0  0  0  0  0  0  0  0
    1.3466   -2.8213   -2.1714 H   0  0  0  0  0  0  0  0  0  0  0  0
   -0.1531    6.5228   -3.0544 H   0  0  0  0  0  0  0  0  0  0  0  0
    0.2788    1.2288    1.4222 H   0  0  0  0  0  0  0  0  0  0  0  0
   -0.5912    0.9880   -1.5017 H   0  0  0  0  0  0  0  0  0  0  0  0
   -0.5783   -1.3731   -1.3572 H   0  0  0  0  0  0  0  0  0  0  0  0
    1.6978   -1.5568    0.3139 H   0  0  0  0  0  0  0  0  0  0  0  0
    2.1600   -0.1515   -2.3234 H   0  0  0  0  0  0  0  0  0  0  0  0
    3.0957   -1.3785   -1.5632 H   0  0  0  0  0  0  0  0  0  0  0  0
   -0.3005    3.6737    1.5666 H   0  0  0  0  0  0  0  0  0  0  0  0
    1.7316    5.8857   -2.5077 H   0  0  0  0  0  0  0  0  0  0  0  0
    2.5170    2.3188   -4.1662 H   0  0  0  0  0  0  0  0  0  0  0  0
  1 10  1  0  0  0  0
  1 13  1  0  0  0  0
  2 22  1  0  0  0  0
  3 23  1  0  0  0  0
  4 15  1  0  0  0  0
  4 24  1  0  0  0  0
  5 25  1  0  0  0  0
  6 14  1  0  0  0  0
  6 17  2  0  0  0  0
  7 16  1  0  0  0  0
  7 17  1  0  0  0  0
  7 20  1  0  0  0  0
  8 14  1  0  0  0  0
  8 19  1  0  0  0  0
  8 21  1  0  0  0  0
  9 18  1  0  0  0  0
  9 19  2  0  0  0  0
 10 11  1  0  0  0  0
 10 26  1  1  0  0  0
 10  6  1  0  0  0  0
 11  2  1  0  0  0  0
 11 12  1  0  0  0  0
 11 27  1  6  0  0  0
 12  3  1  0  0  0  0
 12 13  1  0  0  0  0
 12 28  1  6  0  0  0
 13 29  1  1  0  0  0
 13 15  1  0  0  0  0
 14 16  2  0  0  0  0
 15 30  1  0  0  0  0
 15 31  1  0  0  0  0
 16 18  1  0  0  0  0
 17 32  1  0  0  0  0
 18 33  1  1  0  0  0
 18  5  1  0  0  0  0
 19 34  1  0  0  0  0
M  CHG  1   6   1
M  END
>  <DRUGBANK_ID>
DB03015

>  <SECONDARY_ACCESSION_NUMBERS>
EXPT02660

>  <COMMON_NAME>
6-hydroxy-1,6-dihydro purine nucleoside

$$$$
