
 OpenBabel10282417213D

 69 72  0  0  0  0  0  0  0  0999 V2000
   -1.0309    1.2024   -0.5547 C   0  0  1  0  0  0  0  0  0  0  0  0
    0.0384    0.4312    0.1412 C   0  0  1  0  0  0  0  0  0  0  0  0
   -2.5469    1.0683   -0.0636 C   0  0  1  0  0  0  0  0  0  0  0  0
   -1.0997    1.3189   -2.0731 C   0  0  0  0  0  0  0  0  0  0  0  0
   -0.1520   -0.9369   -0.3361 C   0  0  1  0  0  0  0  0  0  0  0  0
    1.5203    0.7915   -0.0688 C   0  0  0  0  0  0  0  0  0  0  0  0
   -2.8920    2.5881   -0.9228 C   0  0  2  0  0  0  0  0  0  0  0  0
   -2.7618   -0.4587   -0.6386 C   0  0  0  0  0  0  0  0  0  0  0  0
   -2.7829    0.9425    1.5646 C   0  0  0  0  0  0  0  0  0  0  0  0
   -2.4058    2.0610   -2.2885 C   0  0  0  0  0  0  0  0  0  0  0  0
    0.8360   -1.7925    0.3814 C   0  0  2  0  0  0  0  0  0  0  0  0
   -1.6212   -1.4311   -0.1788 C   0  0  2  0  0  0  0  0  0  0  0  0
    2.6344   -0.2690    0.6093 C   0  0  0  0  0  0  0  0  0  0  0  0
   -2.1927    3.7097   -0.0834 C   0  0  0  0  0  0  0  0  0  0  0  0
    2.2172   -1.8976    0.7640 C   0  0  0  0  0  0  0  0  0  0  0  0
    0.7366   -1.3695    2.1501 C   0  0  0  0  0  0  0  0  0  0  0  0
    1.0873   -2.9599   -0.7296 C   0  0  0  0  0  0  0  0  0  0  0  0
   -1.9563   -1.6074    1.1705 O   0  0  0  0  0  0  0  0  0  0  0  0
   -1.2926    3.4589    1.1271 C   0  0  0  0  0  0  0  0  0  0  0  0
   -2.4834    4.9054   -0.1578 O   0  0  0  0  0  0  0  0  0  0  0  0
    2.0700   -3.1436    1.5382 C   0  0  0  0  0  0  0  0  0  0  0  0
   -0.0660   -2.4078    2.8404 C   0  0  0  0  0  0  0  0  0  0  0  0
    0.3850   -3.5034    1.9046 C   0  0  0  0  0  0  0  0  0  0  0  0
   -0.3374   -4.2832    1.3530 O   0  0  0  0  0  0  0  0  0  0  0  0
   -0.6439    2.1487   -0.3502 H   0  0  0  0  0  0  0  0  0  0  0  0
   -0.1539    0.6159    1.1900 H   0  0  0  0  0  0  0  0  0  0  0  0
    0.0966   -0.9189   -1.4032 H   0  0  0  0  0  0  0  0  0  0  0  0
   -4.1400    3.3528   -1.4649 O   0  0  0  0  0  0  0  0  0  0  0  0
   -4.7972    4.5492   -1.1050 C   0  0  0  0  0  0  0  0  0  0  0  0
   -5.3273    5.2976   -1.9182 O   0  0  0  0  0  0  0  0  0  0  0  0
   -4.9157    4.8307    0.3825 C   0  0  0  0  0  0  0  0  0  0  0  0
   -4.9045    3.4741    1.0548 C   0  0  0  0  0  0  0  0  0  0  0  0
   -0.0254    3.0218    1.4741 O   0  0  0  0  0  0  0  0  0  0  0  0
    0.9050    3.9135    0.9836 C   0  0  0  0  0  0  0  0  0  0  0  0
    0.7408    4.1769   -0.5267 C   0  0  0  0  0  0  0  0  0  0  0  0
    1.7480    4.3925    1.6742 O   0  0  0  0  0  0  0  0  0  0  0  0
   -0.2568    1.9156   -2.4184 H   0  0  0  0  0  0  0  0  0  0  0  0
   -1.0918    0.3725   -2.6191 H   0  0  0  0  0  0  0  0  0  0  0  0
    1.7043    1.7614    0.3971 H   0  0  0  0  0  0  0  0  0  0  0  0
    1.6755    0.9974   -1.1382 H   0  0  0  0  0  0  0  0  0  0  0  0
   -3.6972   -0.8770   -0.2424 H   0  0  0  0  0  0  0  0  0  0  0  0
   -2.8131   -0.5528   -1.7234 H   0  0  0  0  0  0  0  0  0  0  0  0
   -1.8656    0.6878    2.1099 H   0  0  0  0  0  0  0  0  0  0  0  0
   -3.1312    1.7748    2.1776 H   0  0  0  0  0  0  0  0  0  0  0  0
   -3.5209    0.1636    1.8251 H   0  0  0  0  0  0  0  0  0  0  0  0
   -2.3883    2.7116   -3.1665 H   0  0  0  0  0  0  0  0  0  0  0  0
   -3.2031    1.3412   -2.5467 H   0  0  0  0  0  0  0  0  0  0  0  0
   -1.6907   -2.4336   -0.6073 H   0  0  0  0  0  0  0  0  0  0  0  0
    2.8030    0.1811    1.5989 H   0  0  0  0  0  0  0  0  0  0  0  0
    3.5241   -0.0947   -0.0020 H   0  0  0  0  0  0  0  0  0  0  0  0
    1.7163   -1.4195    2.7304 H   0  0  0  0  0  0  0  0  0  0  0  0
    0.6320   -0.3157    2.4129 H   0  0  0  0  0  0  0  0  0  0  0  0
    1.3029   -2.5273   -1.7236 H   0  0  0  0  0  0  0  0  0  0  0  0
    1.9694   -3.6312   -0.6334 H   0  0  0  0  0  0  0  0  0  0  0  0
    0.2180   -3.5962   -0.8088 H   0  0  0  0  0  0  0  0  0  0  0  0
   -1.4744   -0.9135    1.6350 H   0  0  0  0  0  0  0  0  0  0  0  0
   -1.9770    3.1024    1.8643 H   0  0  0  0  0  0  0  0  0  0  0  0
   -1.1150    4.5110    1.2663 H   0  0  0  0  0  0  0  0  0  0  0  0
    2.4015   -3.5446    2.4991 H   0  0  0  0  0  0  0  0  0  0  0  0
    0.2602   -2.6012    3.8505 H   0  0  0  0  0  0  0  0  0  0  0  0
   -1.1016   -2.1211    2.9156 H   0  0  0  0  0  0  0  0  0  0  0  0
   -4.1900    5.6159    0.6424 H   0  0  0  0  0  0  0  0  0  0  0  0
   -5.8243    5.3504    0.6962 H   0  0  0  0  0  0  0  0  0  0  0  0
   -4.3160    2.7196    0.5674 H   0  0  0  0  0  0  0  0  0  0  0  0
   -4.5098    3.4746    2.0638 H   0  0  0  0  0  0  0  0  0  0  0  0
   -5.8737    2.9970    0.9259 H   0  0  0  0  0  0  0  0  0  0  0  0
    0.5759    5.2363   -0.6970 H   0  0  0  0  0  0  0  0  0  0  0  0
    1.5878    3.7455   -1.0495 H   0  0  0  0  0  0  0  0  0  0  0  0
   -0.1123    3.7316   -1.0316 H   0  0  0  0  0  0  0  0  0  0  0  0
  1  2  1  0  0  0  0
  1  3  1  0  0  0  0
  1  4  1  0  0  0  0
  1 25  1  6  0  0  0
  2  5  1  0  0  0  0
  2  6  1  0  0  0  0
  2 26  1  1  0  0  0
  3  7  1  0  0  0  0
  3  8  1  0  0  0  0
  3  9  1  1  0  0  0
  4 10  1  0  0  0  0
  4 37  1  0  0  0  0
  4 38  1  0  0  0  0
  5 11  1  0  0  0  0
  5 12  1  0  0  0  0
  5 27  1  6  0  0  0
  6 13  1  0  0  0  0
  6 39  1  0  0  0  0
  6 40  1  0  0  0  0
  7 10  1  0  0  0  0
  7 28  1  6  0  0  0
  7 14  1  0  0  0  0
  8 12  1  0  0  0  0
  8 41  1  0  0  0  0
  8 42  1  0  0  0  0
  9 43  1  0  0  0  0
  9 44  1  0  0  0  0
  9 45  1  0  0  0  0
 10 46  1  0  0  0  0
 10 47  1  0  0  0  0
 11 15  1  0  0  0  0
 11 16  1  0  0  0  0
 11 17  1  1  0  0  0
 12 18  1  0  0  0  0
 12 48  1  6  0  0  0
 13 15  1  0  0  0  0
 13 49  1  0  0  0  0
 13 50  1  0  0  0  0
 14 19  1  0  0  0  0
 14 20  2  0  0  0  0
 15 21  2  0  0  0  0
 16 22  1  0  0  0  0
 16 51  1  0  0  0  0
 16 52  1  0  0  0  0
 17 53  1  0  0  0  0
 17 54  1  0  0  0  0
 17 55  1  0  0  0  0
 18 56  1  0  0  0  0
 19 33  1  0  0  0  0
 19 57  1  0  0  0  0
 19 58  1  0  0  0  0
 21 23  1  0  0  0  0
 21 59  1  0  0  0  0
 22 23  1  0  0  0  0
 22 60  1  0  0  0  0
 22 61  1  0  0  0  0
 23 24  2  0  0  0  0
 28 29  1  0  0  0  0
 29 30  2  0  0  0  0
 29 31  1  0  0  0  0
 31 32  1  0  0  0  0
 31 62  1  0  0  0  0
 31 63  1  0  0  0  0
 32 64  1  0  0  0  0
 32 65  1  0  0  0  0
 32 66  1  0  0  0  0
 33 34  1  0  0  0  0
 34 35  1  0  0  0  0
 34 36  2  0  0  0  0
 35 67  1  0  0  0  0
 35 68  1  0  0  0  0
 35 69  1  0  0  0  0
M  END
>  <DRUGBANK_ID>
DB14538

>  <SECONDARY_ACCESSION_NUMBERS>
DBSALT001278

>  <COMMON_NAME>
Hydrocortisone aceponate

>  <CAS_NUMBER>
74050-20-7

>  <UNII>
2340UP1L2G

>  <SYNONYMS>
Hydrocortisone aceponate

$$$$
