
 OpenBabel10282417233D

 26 28  0  0  0  0  0  0  0  0999 V2000
   -2.1656   -0.4909    0.0249 C   0  0  3  0  0  0  0  0  0  0  0  0
   -3.1483   -0.6966    1.1647 C   0  0  0  0  0  0  0  0  0  0  0  0
   -1.5570    0.9494    0.0020 C   0  0  0  0  0  0  0  0  0  0  0  0
   -0.9938   -1.4657    0.0228 N   0  0  0  0  0  0  0  0  0  0  0  0
   -4.2558    0.1601    1.3064 C   0  0  0  0  0  0  0  0  0  0  0  0
   -3.0274   -1.7769    2.0485 C   0  0  0  0  0  0  0  0  0  0  0  0
   -0.1646    0.6488   -0.0458 N   0  0  0  0  0  0  0  0  0  0  0  0
    0.0324   -0.6804   -0.0095 C   0  0  0  0  0  0  0  0  0  0  0  0
   -5.2107   -0.0607    2.3015 C   0  0  0  0  0  0  0  0  0  0  0  0
   -4.0082   -2.0247    3.0109 C   0  0  0  0  0  0  0  0  0  0  0  0
    0.9462    1.5407    0.0149 C   0  0  0  0  0  0  0  0  0  0  0  0
    1.7057   -1.0957   -0.0091 S   0  0  0  0  0  0  0  0  0  0  0  0
   -5.0897   -1.1581    3.1492 C   0  0  0  0  0  0  0  0  0  0  0  0
    2.2184    0.6733    0.0153 C   0  0  0  0  0  0  0  0  0  0  0  0
   -2.7197   -0.6629   -0.9084 H   0  0  0  0  0  0  0  0  0  0  0  0
   -1.8126    1.5421    0.8854 H   0  0  0  0  0  0  0  0  0  0  0  0
   -1.8688    1.4842   -0.9007 H   0  0  0  0  0  0  0  0  0  0  0  0
   -4.3933    1.0037    0.6337 H   0  0  0  0  0  0  0  0  0  0  0  0
   -2.1730   -2.4480    1.9804 H   0  0  0  0  0  0  0  0  0  0  0  0
   -6.0609    0.6095    2.4004 H   0  0  0  0  0  0  0  0  0  0  0  0
   -3.9318   -2.9067    3.6409 H   0  0  0  0  0  0  0  0  0  0  0  0
    0.9068    2.1568    0.9195 H   0  0  0  0  0  0  0  0  0  0  0  0
    0.9393    2.2087   -0.8523 H   0  0  0  0  0  0  0  0  0  0  0  0
   -5.8397   -1.3438    3.9131 H   0  0  0  0  0  0  0  0  0  0  0  0
    2.8382    0.8945   -0.8596 H   0  0  0  0  0  0  0  0  0  0  0  0
    2.8180    0.8701    0.9098 H   0  0  0  0  0  0  0  0  0  0  0  0
  1  2  1  0  0  0  0
  1  3  1  0  0  0  0
  1  4  1  0  0  0  0
  1 15  1  0  0  0  0
  2  5  2  0  0  0  0
  2  6  1  0  0  0  0
  3  7  1  0  0  0  0
  3 16  1  0  0  0  0
  3 17  1  0  0  0  0
  4  8  2  0  0  0  0
  5  9  1  0  0  0  0
  5 18  1  0  0  0  0
  6 10  2  0  0  0  0
  6 19  1  0  0  0  0
  7 11  1  0  0  0  0
  7  8  1  0  0  0  0
  8 12  1  0  0  0  0
  9 13  2  0  0  0  0
  9 20  1  0  0  0  0
 10 13  1  0  0  0  0
 10 21  1  0  0  0  0
 11 14  1  0  0  0  0
 11 22  1  0  0  0  0
 11 23  1  0  0  0  0
 12 14  1  0  0  0  0
 13 24  1  0  0  0  0
 14 25  1  0  0  0  0
 14 26  1  0  0  0  0
M  END
>  <DRUGBANK_ID>
DB16561

>  <COMMON_NAME>
Tetramisole

>  <CAS_NUMBER>
5036-02-2

>  <UNII>
C8M7RFE4NO

>  <SYNONYMS>
Levamisole DL-form; Tetramisol; Tetramisole; Tetramisolum

$$$$
