[NO NAME]
 OpenBabel10282417113D
Created with ChemWriter - http://chemwriter.com
 67 65  0  0  0  0  0  0  0  0999 V2000
    2.6194   -2.5766    1.5940 C   0  0  0  0  0  0  0  0  0  0  0  0
    1.2760   -3.4919    1.7421 N   0  3  0  0  0  0  0  0  0  0  0  0
    1.0616   -2.2759    3.1045 C   0  0  0  0  0  0  0  0  0  0  0  0
   -0.4260   -3.5126    1.8278 C   0  0  0  0  0  0  0  0  0  0  0  0
    1.4673   -4.1057   -0.0940 C   0  0  0  0  0  0  0  0  0  0  0  0
    0.9243   -3.3900   -1.7506 C   0  0  0  0  0  0  0  0  0  0  0  0
    1.5203   -2.1424   -2.2486 O   0  0  0  0  0  0  0  0  0  0  0  0
   -1.8770    0.0420   -0.0140 C   0  0  0  0  0  0  0  0  0  0  0  0
   -1.2260   -1.1720   -0.0010 C   0  0  0  0  0  0  0  0  0  0  0  0
    0.1710   -1.2410    0.0150 C   0  0  0  0  0  0  0  0  0  0  0  0
    0.8850   -0.0250   -0.0010 C   0  0  0  0  0  0  0  0  0  0  0  0
    0.2240    1.1800    0.0160 C   0  0  0  0  0  0  0  0  0  0  0  0
   -1.1570    1.2120    0.0000 C   0  0  0  0  0  0  0  0  0  0  0  0
    1.0132    2.4785    0.0524 C   0  0  0  0  0  0  0  0  0  0  0  0
    0.4026    3.5930    0.0682 O   0  0  0  0  0  0  0  0  0  0  0  0
    2.4328    2.4464    0.0689 O   0  5  0  0  0  0  0  0  0  0  0  0
    2.2370    0.0050   -0.0110 O   0  0  0  0  0  0  0  0  0  0  0  0
   -1.8770    0.0420   -0.0140 C   0  0  0  0  0  0  0  0  0  0  0  0
   -1.2260   -1.1720   -0.0010 C   0  0  0  0  0  0  0  0  0  0  0  0
    0.1710   -1.2410    0.0150 C   0  0  0  0  0  0  0  0  0  0  0  0
    0.8850   -0.0250   -0.0010 C   0  0  0  0  0  0  0  0  0  0  0  0
    0.2240    1.1800    0.0160 C   0  0  0  0  0  0  0  0  0  0  0  0
   -1.1570    1.2120    0.0000 C   0  0  0  0  0  0  0  0  0  0  0  0
    1.0132    2.4785    0.0524 C   0  0  0  0  0  0  0  0  0  0  0  0
    0.4026    3.5930    0.0682 O   0  0  0  0  0  0  0  0  0  0  0  0
    2.4328    2.4464    0.0689 O   0  5  0  0  0  0  0  0  0  0  0  0
    2.2370    0.0050   -0.0110 O   0  0  0  0  0  0  0  0  0  0  0  0
    3.4671    1.9486   -1.1120 Mg  0  2  0  0  0  0  0  0  0  0  0  0
   -1.8770    0.0420   -0.0140 C   0  0  0  0  0  0  0  0  0  0  0  0
   -1.2260   -1.1720   -0.0010 C   0  0  0  0  0  0  0  0  0  0  0  0
    0.1710   -1.2410    0.0150 C   0  0  0  0  0  0  0  0  0  0  0  0
    0.8850   -0.0250   -0.0010 C   0  0  0  0  0  0  0  0  0  0  0  0
    0.2240    1.1800    0.0160 C   0  0  0  0  0  0  0  0  0  0  0  0
   -1.1570    1.2120    0.0000 C   0  0  0  0  0  0  0  0  0  0  0  0
    1.0132    2.4785    0.0524 C   0  0  0  0  0  0  0  0  0  0  0  0
    0.4026    3.5930    0.0682 O   0  0  0  0  0  0  0  0  0  0  0  0
    2.4328    2.4464    0.0689 O   0  5  0  0  0  0  0  0  0  0  0  0
    2.2370    0.0050   -0.0110 O   0  0  0  0  0  0  0  0  0  0  0  0
    2.5395   -1.5292    1.9418 H   0  0  0  0  0  0  0  0  0  0  0  0
    2.8517   -2.5543    0.5450 H   0  0  0  0  0  0  0  0  0  0  0  0
    3.5146   -3.0771    2.0721 H   0  0  0  0  0  0  0  0  0  0  0  0
    0.6315   -1.3297    2.7337 H   0  0  0  0  0  0  0  0  0  0  0  0
    0.4192   -2.7348    3.8640 H   0  0  0  0  0  0  0  0  0  0  0  0
    2.0147   -2.0797    3.6271 H   0  0  0  0  0  0  0  0  0  0  0  0
   -0.8019   -3.7755    0.8402 H   0  0  0  0  0  0  0  0  0  0  0  0
   -0.7623   -4.2843    2.5993 H   0  0  0  0  0  0  0  0  0  0  0  0
   -0.8437   -2.5481    2.2021 H   0  0  0  0  0  0  0  0  0  0  0  0
    2.5514   -4.1843   -0.2223 H   0  0  0  0  0  0  0  0  0  0  0  0
    0.9586   -5.0619   -0.0517 H   0  0  0  0  0  0  0  0  0  0  0  0
    1.1900   -4.0726   -2.5584 H   0  0  0  0  0  0  0  0  0  0  0  0
   -0.1782   -3.2866   -1.8171 H   0  0  0  0  0  0  0  0  0  0  0  0
    0.7842   -1.4794   -2.4667 H   0  0  0  0  0  0  0  0  0  0  0  0
   -2.9463    0.0738   -0.0351 H   0  0  0  0  0  0  0  0  0  0  0  0
   -1.7979   -2.0763   -0.0032 H   0  0  0  0  0  0  0  0  0  0  0  0
    0.6794   -2.1822    0.0385 H   0  0  0  0  0  0  0  0  0  0  0  0
   -1.6681    2.1520   -0.0015 H   0  0  0  0  0  0  0  0  0  0  0  0
    2.7560   -0.8497   -0.0234 H   0  0  0  0  0  0  0  0  0  0  0  0
   -2.9463    0.0738   -0.0351 H   0  0  0  0  0  0  0  0  0  0  0  0
   -1.7979   -2.0763   -0.0032 H   0  0  0  0  0  0  0  0  0  0  0  0
    0.6794   -2.1822    0.0385 H   0  0  0  0  0  0  0  0  0  0  0  0
   -1.6681    2.1520   -0.0015 H   0  0  0  0  0  0  0  0  0  0  0  0
    2.7560   -0.8497   -0.0234 H   0  0  0  0  0  0  0  0  0  0  0  0
   -2.9463    0.0738   -0.0351 H   0  0  0  0  0  0  0  0  0  0  0  0
   -1.7979   -2.0763   -0.0032 H   0  0  0  0  0  0  0  0  0  0  0  0
    0.6794   -2.1822    0.0385 H   0  0  0  0  0  0  0  0  0  0  0  0
   -1.6681    2.1520   -0.0015 H   0  0  0  0  0  0  0  0  0  0  0  0
    2.7560   -0.8497   -0.0234 H   0  0  0  0  0  0  0  0  0  0  0  0
  1  2  1  0  0  0  0
  1 39  1  0  0  0  0
  1 40  1  0  0  0  0
  1 41  1  0  0  0  0
  2  3  1  0  0  0  0
  2  4  1  0  0  0  0
  2  5  1  0  0  0  0
  3 42  1  0  0  0  0
  3 43  1  0  0  0  0
  3 44  1  0  0  0  0
  4 45  1  0  0  0  0
  4 46  1  0  0  0  0
  4 47  1  0  0  0  0
  5  6  1  0  0  0  0
  5 48  1  0  0  0  0
  5 49  1  0  0  0  0
  6  7  1  0  0  0  0
  6 50  1  0  0  0  0
  6 51  1  0  0  0  0
  7 52  1  0  0  0  0
  8  9  2  0  0  0  0
  8 13  1  0  0  0  0
  8 53  1  0  0  0  0
  9 10  1  0  0  0  0
  9 54  1  0  0  0  0
 10 11  2  0  0  0  0
 10 55  1  0  0  0  0
 11 12  1  0  0  0  0
 11 17  1  0  0  0  0
 12 13  2  0  0  0  0
 12 14  1  0  0  0  0
 13 56  1  0  0  0  0
 14 15  2  0  0  0  0
 14 16  1  0  0  0  0
 17 57  1  0  0  0  0
 18 19  2  0  0  0  0
 18 23  1  0  0  0  0
 18 58  1  0  0  0  0
 19 20  1  0  0  0  0
 19 59  1  0  0  0  0
 20 21  2  0  0  0  0
 20 60  1  0  0  0  0
 21 22  1  0  0  0  0
 21 27  1  0  0  0  0
 22 23  2  0  0  0  0
 22 24  1  0  0  0  0
 23 61  1  0  0  0  0
 24 25  2  0  0  0  0
 24 26  1  0  0  0  0
 27 62  1  0  0  0  0
 29 30  2  0  0  0  0
 29 34  1  0  0  0  0
 29 63  1  0  0  0  0
 30 31  1  0  0  0  0
 30 64  1  0  0  0  0
 31 32  2  0  0  0  0
 31 65  1  0  0  0  0
 32 33  1  0  0  0  0
 32 38  1  0  0  0  0
 33 34  2  0  0  0  0
 33 35  1  0  0  0  0
 34 66  1  0  0  0  0
 35 36  2  0  0  0  0
 35 37  1  0  0  0  0
 38 67  1  0  0  0  0
M  CHG  5   2   1  16  -1  26  -1  28   2  37  -1
M  END
>  <DRUGBANK_ID>
DB01401

>  <COMMON_NAME>
Choline magnesium trisalicylate

>  <CAS_NUMBER>
64425-90-7

$$$$
