
 OpenBabel10282417153D

 29 30  0  0  1  0  0  0  0  0999 V2000
   -1.1980   -0.0450    0.0155 C   0  0  0  0  0  0  0  0  0  0  0  0
   -0.4485   -1.1408   -0.0016 N   0  0  0  0  0  0  0  0  0  0  0  0
    0.8553   -0.6619   -0.0057 C   0  0  0  0  0  0  0  0  0  0  0  0
    0.8976    0.6755    0.0195 N   0  0  0  0  0  0  0  0  0  0  0  0
   -0.4098    1.0613    0.0675 N   0  0  0  0  0  0  0  0  0  0  0  0
   -0.6173    2.5012    0.0601 C   0  0  2  0  0  0  0  0  0  0  0  0
   -1.5751    3.5005    0.7672 C   0  0  2  0  0  0  0  0  0  0  0  0
   -2.2254    4.2898   -0.3677 C   0  0  2  0  0  0  0  0  0  0  0  0
   -1.2121    4.1887   -1.4968 C   0  0  1  0  0  0  0  0  0  0  0  0
   -0.4579    2.9820   -1.2962 O   0  0  0  0  0  0  0  0  0  0  0  0
   -1.9237    4.1915   -2.8567 C   0  0  0  0  0  0  0  0  0  0  0  0
   -1.2028    4.9744   -3.8058 O   0  0  0  0  0  0  0  0  0  0  0  0
   -2.4738    5.6709   -0.0732 O   0  0  0  0  0  0  0  0  0  0  0  0
   -0.7659    4.4870    1.4873 O   0  0  0  0  0  0  0  0  0  0  0  0
    2.0894   -1.4943   -0.0139 C   0  0  0  0  0  0  0  0  0  0  0  0
    3.2442   -1.0366   -0.0114 O   0  0  0  0  0  0  0  0  0  0  0  0
    1.9283   -2.8528   -0.0116 N   0  0  0  0  0  0  0  0  0  0  0  0
   -2.2785   -0.0383   -0.0074 H   0  0  0  0  0  0  0  0  0  0  0  0
    0.2891    2.7486    0.6219 H   0  0  0  0  0  0  0  0  0  0  0  0
   -2.2915    3.0955    1.4859 H   0  0  0  0  0  0  0  0  0  0  0  0
   -3.1848    3.8417   -0.6396 H   0  0  0  0  0  0  0  0  0  0  0  0
   -0.4961    5.0211   -1.4619 H   0  0  0  0  0  0  0  0  0  0  0  0
   -2.0099    3.1774   -3.2585 H   0  0  0  0  0  0  0  0  0  0  0  0
   -2.9281    4.6238   -2.7895 H   0  0  0  0  0  0  0  0  0  0  0  0
   -1.2011    5.8942   -3.4859 H   0  0  0  0  0  0  0  0  0  0  0  0
   -1.6641    6.0573    0.3160 H   0  0  0  0  0  0  0  0  0  0  0  0
   -0.0241    4.7545    0.9061 H   0  0  0  0  0  0  0  0  0  0  0  0
    1.0108   -3.2763   -0.0137 H   0  0  0  0  0  0  0  0  0  0  0  0
    2.7598   -3.4288   -0.0179 H   0  0  0  0  0  0  0  0  0  0  0  0
  1  2  2  0  0  0  0
  1  5  1  0  0  0  0
  1 18  1  0  0  0  0
  2  3  1  0  0  0  0
  3  4  2  0  0  0  0
  3 15  1  0  0  0  0
  4  5  1  0  0  0  0
  6  5  1  0  0  0  0
  6  7  1  0  0  0  0
  6 10  1  0  0  0  0
  6 19  1  1  0  0  0
  7  8  1  0  0  0  0
  7 14  1  0  0  0  0
  7 20  1  1  0  0  0
  8  9  1  0  0  0  0
  8 13  1  0  0  0  0
  8 21  1  6  0  0  0
  9 10  1  0  0  0  0
  9 22  1  1  0  0  0
  9 11  1  0  0  0  0
 11 12  1  0  0  0  0
 11 23  1  0  0  0  0
 11 24  1  0  0  0  0
 12 25  1  0  0  0  0
 13 26  1  0  0  0  0
 14 27  1  0  0  0  0
 15 16  2  0  0  0  0
 15 17  1  0  0  0  0
 17 28  1  0  0  0  0
 17 29  1  0  0  0  0
M  END
>  <DRUGBANK_ID>
DB06523

>  <COMMON_NAME>
Levovirin

>  <CAS_NUMBER>
206269-27-4

>  <UNII>
ZGF0S6S33Q

$$$$
