
 OpenBabel10282417133D

 28 30  0  0  0  0  0  0  0  0999 V2000
   -1.3057    0.0408    0.0297 C   0  0  0  0  0  0  0  0  0  0  0  0
   -0.8938    1.3691    0.0269 C   0  0  0  0  0  0  0  0  0  0  0  0
    0.4669    1.6896    0.0194 C   0  0  0  0  0  0  0  0  0  0  0  0
   -0.3751   -1.0044    0.0440 C   0  0  0  0  0  0  0  0  0  0  0  0
    1.0100   -0.7126    0.0251 C   0  0  0  0  0  0  0  0  0  0  0  0
    1.3885    0.6311    0.0045 C   0  0  0  0  0  0  0  0  0  0  0  0
    2.7610    0.6557   -0.0392 N   0  0  0  0  0  0  0  0  0  0  0  0
    3.2664   -0.6221   -0.0496 C   0  0  0  0  0  0  0  0  0  0  0  0
    2.2142   -1.5231    0.0134 C   0  0  0  0  0  0  0  0  0  0  0  0
    2.2515   -2.9942    0.0493 C   0  0  0  0  0  0  0  0  0  0  0  0
    3.5953   -3.6564    0.0202 C   0  0  0  0  0  0  0  0  0  0  0  0
    1.2115   -3.6478    0.1177 O   0  0  0  0  0  0  0  0  0  0  0  0
    3.7417   -4.9968    0.0078 C   0  0  0  0  0  0  0  0  0  0  0  0
    5.0403   -5.5699    0.0546 C   0  0  0  0  0  0  0  0  0  0  0  0
    2.6681   -5.8616   -0.0412 O   0  0  0  0  0  0  0  0  0  0  0  0
    6.1341   -5.2269    0.7082 N   0  0  0  0  0  0  0  0  0  0  0  0
    7.1053   -6.1335    0.3536 N   0  0  0  0  0  0  0  0  0  0  0  0
    6.6374   -7.0105   -0.5213 N   0  0  0  0  0  0  0  0  0  0  0  0
    5.3595   -6.6568   -0.7190 N   0  0  0  0  0  0  0  0  0  0  0  0
   -2.9905   -0.3213   -0.0022 Cl  0  0  0  0  0  0  0  0  0  0  0  0
   -1.6319    2.1686    0.0238 H   0  0  0  0  0  0  0  0  0  0  0  0
    0.7870    2.7273    0.0134 H   0  0  0  0  0  0  0  0  0  0  0  0
   -0.7158   -2.0363    0.0543 H   0  0  0  0  0  0  0  0  0  0  0  0
    3.3123    1.5030   -0.0757 H   0  0  0  0  0  0  0  0  0  0  0  0
    4.3373   -0.7599   -0.0983 H   0  0  0  0  0  0  0  0  0  0  0  0
    4.4733   -3.0210    0.0172 H   0  0  0  0  0  0  0  0  0  0  0  0
    2.8896   -6.7441    0.2960 H   0  0  0  0  0  0  0  0  0  0  0  0
    4.8024   -7.1723   -1.3886 H   0  0  0  0  0  0  0  0  0  0  0  0
  1  2  2  0  0  0  0
  1 20  1  0  0  0  0
  2  3  1  0  0  0  0
  2 21  1  0  0  0  0
  3  6  2  0  0  0  0
  3 22  1  0  0  0  0
  4  1  1  0  0  0  0
  4 23  1  0  0  0  0
  5  6  1  0  0  0  0
  5  4  2  0  0  0  0
  6  7  1  0  0  0  0
  7  8  1  0  0  0  0
  7 24  1  0  0  0  0
  8  9  2  0  0  0  0
  8 25  1  0  0  0  0
  9 10  1  0  0  0  0
  9  5  1  0  0  0  0
 10 11  1  0  0  0  0
 10 12  2  0  0  0  0
 11 13  2  0  0  0  0
 11 26  1  0  0  0  0
 13 14  1  0  0  0  0
 13 15  1  0  0  0  0
 14 16  2  0  0  0  0
 15 27  1  0  0  0  0
 16 17  1  0  0  0  0
 17 18  2  0  0  0  0
 18 19  1  0  0  0  0
 19 14  1  0  0  0  0
 19 28  1  0  0  0  0
M  END
>  <DRUGBANK_ID>
DB03118

>  <SECONDARY_ACCESSION_NUMBERS>
EXPT00006

>  <COMMON_NAME>
(2Z)-1-(5-Chloro-1H-indol-3-yl)-3-hydroxy-3-(1H-tetrazol-5-yl)-2-propen-1-one

>  <SYNONYMS>
1-(5-Chloroindol-3-YL)-3-hydroxy-3-(2H-tetrazol-5-YL)-propenone

$$$$
