PY9
 OpenBabel10282417173D

 41 43  0  0  0  0  0  0  0  0999 V2000
   -1.0464    0.5713    0.1184 N   0  0  0  0  0  0  0  0  0  0  0  0
   -2.7570    5.1756    1.6556 C   0  0  0  0  0  0  0  0  0  0  0  0
   -3.0188    4.1807    2.5915 C   0  0  0  0  0  0  0  0  0  0  0  0
   -2.8367    2.8395    2.2474 C   0  0  0  0  0  0  0  0  0  0  0  0
   -2.2539    1.0544    0.5898 C   0  0  0  0  0  0  0  0  0  0  0  0
   -0.8441   -0.8501   -0.2246 C   0  0  1  0  0  0  0  0  0  0  0  0
    1.2926    0.2342   -0.1002 C   0  0  0  0  0  0  0  0  0  0  0  0
   -1.4690   -0.1184   -2.5866 C   0  0  0  0  0  0  0  0  0  0  0  0
   -1.3730   -1.5788   -4.4904 C   0  0  0  0  0  0  0  0  0  0  0  0
   -0.7273   -2.4077   -2.2860 C   0  0  0  0  0  0  0  0  0  0  0  0
   -1.6549   -0.3348   -3.9494 C   0  0  0  0  0  0  0  0  0  0  0  0
   -2.1337    3.5001    0.0302 C   0  0  0  0  0  0  0  0  0  0  0  0
   -0.9097   -2.6035   -3.6678 C   0  0  0  0  0  0  0  0  0  0  0  0
   -2.3105    4.8475    0.3781 C   0  0  0  0  0  0  0  0  0  0  0  0
   -2.3836    2.4865    0.9672 C   0  0  0  0  0  0  0  0  0  0  0  0
   -0.9981   -1.1344   -1.7249 C   0  0  0  0  0  0  0  0  0  0  0  0
    0.5886   -1.0567    0.2839 C   0  0  0  0  0  0  0  0  0  0  0  0
    0.2151    1.2993    0.0424 C   0  0  0  0  0  0  0  0  0  0  0  0
   -0.2765   -3.5938   -1.4727 C   0  0  0  0  0  0  0  0  0  0  0  0
   -3.2373    0.3353    0.7815 O   0  0  0  0  0  0  0  0  0  0  0  0
   -2.9575    6.4708    2.0353 O   0  0  0  0  0  0  0  0  0  0  0  0
   -3.1037    1.9202    3.2273 O   0  0  0  0  0  0  0  0  0  0  0  0
   -1.5654   -1.4783    0.3128 H   0  0  0  0  0  0  0  0  0  0  0  0
   -3.3705    4.4492    3.5840 H   0  0  0  0  0  0  0  0  0  0  0  0
    2.1677    0.4245    0.5258 H   0  0  0  0  0  0  0  0  0  0  0  0
    1.6354    0.1718   -1.1408 H   0  0  0  0  0  0  0  0  0  0  0  0
   -1.7145    0.8682   -2.2039 H   0  0  0  0  0  0  0  0  0  0  0  0
   -1.5283   -1.7583   -5.5499 H   0  0  0  0  0  0  0  0  0  0  0  0
   -2.0322    0.4672   -4.5776 H   0  0  0  0  0  0  0  0  0  0  0  0
   -1.8212    3.2489   -0.9790 H   0  0  0  0  0  0  0  0  0  0  0  0
   -0.7083   -3.5758   -4.1127 H   0  0  0  0  0  0  0  0  0  0  0  0
   -2.1065    5.6202   -0.3574 H   0  0  0  0  0  0  0  0  0  0  0  0
    0.5784   -1.1765    1.3742 H   0  0  0  0  0  0  0  0  0  0  0  0
    1.1444   -1.8955   -0.1191 H   0  0  0  0  0  0  0  0  0  0  0  0
    0.3581    1.9183    0.9303 H   0  0  0  0  0  0  0  0  0  0  0  0
    0.1956    1.9338   -0.8488 H   0  0  0  0  0  0  0  0  0  0  0  0
    0.7277   -3.4566   -1.0731 H   0  0  0  0  0  0  0  0  0  0  0  0
   -0.9807   -3.7899   -0.6595 H   0  0  0  0  0  0  0  0  0  0  0  0
   -0.2046   -4.4997   -2.0827 H   0  0  0  0  0  0  0  0  0  0  0  0
   -2.7708    7.0640    1.2894 H   0  0  0  0  0  0  0  0  0  0  0  0
   -3.0995    1.0279    2.8279 H   0  0  0  0  0  0  0  0  0  0  0  0
  1 18  1  0  0  0  0
  1  6  1  0  0  0  0
  2 14  1  0  0  0  0
  3  2  2  0  0  0  0
  3  4  1  0  0  0  0
  3 24  1  0  0  0  0
  4 15  2  0  0  0  0
  5  1  1  0  0  0  0
  6 16  1  0  0  0  0
  6 17  1  0  0  0  0
  6 23  1  1  0  0  0
  7 17  1  0  0  0  0
  7 25  1  0  0  0  0
  7 26  1  0  0  0  0
  8 16  2  0  0  0  0
  8 11  1  0  0  0  0
  8 27  1  0  0  0  0
  9 13  1  0  0  0  0
  9 28  1  0  0  0  0
 10 13  2  0  0  0  0
 10 19  1  0  0  0  0
 11  9  2  0  0  0  0
 11 29  1  0  0  0  0
 12 30  1  0  0  0  0
 13 31  1  0  0  0  0
 14 12  2  0  0  0  0
 14 32  1  0  0  0  0
 15  5  1  0  0  0  0
 15 12  1  0  0  0  0
 16 10  1  0  0  0  0
 17 33  1  0  0  0  0
 17 34  1  0  0  0  0
 18  7  1  0  0  0  0
 18 35  1  0  0  0  0
 18 36  1  0  0  0  0
 19 37  1  0  0  0  0
 19 38  1  0  0  0  0
 19 39  1  0  0  0  0
 20  5  2  0  0  0  0
 21  2  1  0  0  0  0
 21 40  1  0  0  0  0
 22  4  1  0  0  0  0
 22 41  1  0  0  0  0
M  END
>  <DRUGBANK_ID>
DB08442

>  <COMMON_NAME>
4-{[(2R)-2-(2-methylphenyl)pyrrolidin-1-yl]carbonyl}benzene-1,3-diol

$$$$
