
 OpenBabel10282417133D

 25 24  0  0  1  0  0  0  0  0999 V2000
    0.9301    0.0650    0.0254 C   0  0  0  0  0  0  0  0  0  0  0  0
    3.0299    0.5817   -2.8389 C   0  0  0  0  0  0  0  0  0  0  0  0
    0.3873    0.1292   -1.4051 C   0  0  0  0  0  0  0  0  0  0  0  0
    2.4559   -0.7418   -2.2981 C   0  0  0  0  0  0  0  0  0  0  0  0
    0.5164   -1.2711    0.6318 C   0  0  1  0  0  0  0  0  0  0  0  0
    1.0452   -1.4305    2.0560 C   0  0  0  0  0  0  0  0  0  0  0  0
    2.7966    1.7920   -2.0346 N   0  0  0  0  0  0  0  0  0  0  0  0
   -0.9645   -1.3176    0.6261 N   0  0  0  0  0  0  0  0  0  0  0  0
    0.3698   -1.5660    3.0586 O   0  0  0  0  0  0  0  0  0  0  0  0
    2.3931   -1.4502    2.1262 O   0  0  0  0  0  0  0  0  0  0  0  0
    1.0281   -0.7881   -2.2904 O   0  0  0  0  0  0  0  0  0  0  0  0
    0.8977   -2.1105    0.0372 H   0  0  0  0  0  0  0  0  0  0  0  0
    0.5565    0.9080    0.6189 H   0  0  0  0  0  0  0  0  0  0  0  0
    2.0215    0.1659    0.0696 H   0  0  0  0  0  0  0  0  0  0  0  0
    4.1134    0.4663   -2.9198 H   0  0  0  0  0  0  0  0  0  0  0  0
    2.6190    0.7495   -3.8388 H   0  0  0  0  0  0  0  0  0  0  0  0
   -0.6851   -0.0863   -1.4313 H   0  0  0  0  0  0  0  0  0  0  0  0
    0.3995    1.1301   -1.8229 H   0  0  0  0  0  0  0  0  0  0  0  0
    2.8703   -1.0082   -1.3196 H   0  0  0  0  0  0  0  0  0  0  0  0
    2.7786   -1.5580   -2.9567 H   0  0  0  0  0  0  0  0  0  0  0  0
    3.2527    2.5849   -2.4816 H   0  0  0  0  0  0  0  0  0  0  0  0
    1.8174    2.0546   -2.0981 H   0  0  0  0  0  0  0  0  0  0  0  0
   -1.2754   -2.1888    1.0471 H   0  0  0  0  0  0  0  0  0  0  0  0
   -1.3117   -0.5660    1.2217 H   0  0  0  0  0  0  0  0  0  0  0  0
    2.5872   -1.5688    3.0796 H   0  0  0  0  0  0  0  0  0  0  0  0
  1 13  1  0  0  0  0
  1 14  1  0  0  0  0
  2 15  1  0  0  0  0
  2 16  1  0  0  0  0
  3  1  1  0  0  0  0
  3 17  1  0  0  0  0
  3 18  1  0  0  0  0
  4  2  1  0  0  0  0
  4 19  1  0  0  0  0
  4 20  1  0  0  0  0
  5  1  1  0  0  0  0
  5  8  1  0  0  0  0
  5 12  1  6  0  0  0
  6  5  1  0  0  0  0
  7  2  1  0  0  0  0
  7 21  1  0  0  0  0
  7 22  1  0  0  0  0
  8 23  1  0  0  0  0
  8 24  1  0  0  0  0
  9  6  2  0  0  0  0
 10  6  1  0  0  0  0
 10 25  1  0  0  0  0
 11  3  1  0  0  0  0
 11  4  1  0  0  0  0
M  END
>  <DRUGBANK_ID>
DB02971

>  <SECONDARY_ACCESSION_NUMBERS>
EXPT00593

>  <COMMON_NAME>
2-Amino-4-(2-Amino-Ethoxy)-Butyric Acid

$$$$
