Creatinine.mol
 OpenBabel10282417183D

 15 15  0  0  0  0  0  0  0  0999 V2000
   -0.4767   -1.0733    0.0342 N   0  0  0  0  0  0  0  0  0  0  0  0
    0.8075   -0.6645    0.0056 C   0  0  0  0  0  0  0  0  0  0  0  0
    1.8049   -1.4650   -0.0129 N   0  0  0  0  0  0  0  0  0  0  0  0
    0.8591    0.6877   -0.0030 N   0  0  0  0  0  0  0  0  0  0  0  0
    2.0561    1.4763   -0.0042 C   0  0  0  0  0  0  0  0  0  0  0  0
   -0.4692    1.2719    0.0171 C   0  0  0  0  0  0  0  0  0  0  0  0
   -1.3314    0.0051    0.0141 C   0  0  0  0  0  0  0  0  0  0  0  0
   -2.5495   -0.0459   -0.0073 O   0  0  0  0  0  0  0  0  0  0  0  0
   -0.8082   -2.0213    0.0445 H   0  0  0  0  0  0  0  0  0  0  0  0
    1.5197   -2.4416   -0.0076 H   0  0  0  0  0  0  0  0  0  0  0  0
    2.0961    2.1083   -0.8955 H   0  0  0  0  0  0  0  0  0  0  0  0
    2.0972    2.1091    0.8865 H   0  0  0  0  0  0  0  0  0  0  0  0
    2.9525    0.8466   -0.0042 H   0  0  0  0  0  0  0  0  0  0  0  0
   -0.6683    1.8669   -0.8780 H   0  0  0  0  0  0  0  0  0  0  0  0
   -0.6502    1.8414    0.9327 H   0  0  0  0  0  0  0  0  0  0  0  0
  1  2  1  0  0  0  0
  1  7  1  0  0  0  0
  1  9  1  0  0  0  0
  2  3  2  0  0  0  0
  2  4  1  0  0  0  0
  3 10  1  0  0  0  0
  4  5  1  0  0  0  0
  4  6  1  0  0  0  0
  5 11  1  0  0  0  0
  5 12  1  0  0  0  0
  5 13  1  0  0  0  0
  6  7  1  0  0  0  0
  6 14  1  0  0  0  0
  6 15  1  0  0  0  0
  7  8  2  0  0  0  0
M  END
>  <DRUGBANK_ID>
DB11846

>  <COMMON_NAME>
Creatinine

>  <CAS_NUMBER>
60-27-5

>  <UNII>
AYI8EX34EU

>  <SYNONYMS>
creatinina

$$$$
