
 OpenBabel10282417213D

 50 49  0  0  0  0  0  0  0  0999 V2000
    0.7863   -7.0895   -4.4338 O   0  0  0  0  0  0  0  0  0  0  0  0
    1.9852   -6.2855   -6.1346 O   0  0  0  0  0  0  0  0  0  0  0  0
  -11.0084  -11.5066    0.0114 C   0  0  0  0  0  0  0  0  0  0  0  0
   -1.4050   -6.9288   -6.4901 C   0  0  0  0  0  0  0  0  0  0  0  0
  -10.6113  -10.4925   -1.0578 C   0  0  0  0  0  0  0  0  0  0  0  0
   -1.8452   -7.7799   -5.3033 C   0  0  0  0  0  0  0  0  0  0  0  0
  -11.8279  -10.8615    1.1327 C   0  0  0  0  0  0  0  0  0  0  0  0
   -0.4039   -5.8402   -6.0948 C   0  0  0  0  0  0  0  0  0  0  0  0
   -9.8591   -9.3194   -0.4492 C   0  0  0  0  0  0  0  0  0  0  0  0
   -2.3741   -6.9090   -4.1747 C   0  0  0  0  0  0  0  0  0  0  0  0
   -7.2742   -8.3417   -1.4295 C   0  0  0  0  0  0  0  0  0  0  0  0
   -4.9049   -7.4135   -2.7981 C   0  0  0  0  0  0  0  0  0  0  0  0
  -13.1153  -10.2581    0.5922 C   0  0  0  0  0  0  0  0  0  0  0  0
    0.8969   -6.4053   -5.5874 C   0  0  0  0  0  0  0  0  0  0  0  0
   -8.5436   -9.7722    0.1155 C   0  0  0  0  0  0  0  0  0  0  0  0
   -3.6656   -6.2625   -4.5821 C   0  0  0  0  0  0  0  0  0  0  0  0
   -7.3687   -9.3396   -0.3400 C   0  0  0  0  0  0  0  0  0  0  0  0
   -4.8209   -6.5057   -3.9651 C   0  0  0  0  0  0  0  0  0  0  0  0
   -6.5329   -7.1378   -0.9744 C   0  0  0  0  0  0  0  0  0  0  0  0
   -5.4521   -6.6986   -1.6172 C   0  0  0  0  0  0  0  0  0  0  0  0
    1.6556   -7.5142   -4.2810 H   0  0  0  0  0  0  0  0  0  0  0  0
  -11.5753  -12.3178   -0.4549 H   0  0  0  0  0  0  0  0  0  0  0  0
  -10.1110  -11.9707    0.4370 H   0  0  0  0  0  0  0  0  0  0  0  0
   -2.2882   -6.4569   -6.9398 H   0  0  0  0  0  0  0  0  0  0  0  0
   -0.9839   -7.5790   -7.2624 H   0  0  0  0  0  0  0  0  0  0  0  0
  -11.4963  -10.1087   -1.5779 H   0  0  0  0  0  0  0  0  0  0  0  0
  -10.0076  -10.9754   -1.8374 H   0  0  0  0  0  0  0  0  0  0  0  0
   -2.5986   -8.5165   -5.6118 H   0  0  0  0  0  0  0  0  0  0  0  0
   -1.0141   -8.3860   -4.9303 H   0  0  0  0  0  0  0  0  0  0  0  0
  -12.0519  -11.6116    1.8953 H   0  0  0  0  0  0  0  0  0  0  0  0
  -11.2516  -10.0864    1.6517 H   0  0  0  0  0  0  0  0  0  0  0  0
   -0.8032   -5.1424   -5.3506 H   0  0  0  0  0  0  0  0  0  0  0  0
   -0.1948   -5.2213   -6.9719 H   0  0  0  0  0  0  0  0  0  0  0  0
  -10.4100   -8.7961    0.3347 H   0  0  0  0  0  0  0  0  0  0  0  0
   -9.7909   -8.5737   -1.2378 H   0  0  0  0  0  0  0  0  0  0  0  0
   -2.4309   -7.5581   -3.3044 H   0  0  0  0  0  0  0  0  0  0  0  0
   -1.6903   -6.1253   -3.8444 H   0  0  0  0  0  0  0  0  0  0  0  0
   -8.2078   -7.9542   -1.8265 H   0  0  0  0  0  0  0  0  0  0  0  0
   -6.8656   -8.8970   -2.2699 H   0  0  0  0  0  0  0  0  0  0  0  0
   -5.4551   -8.2760   -3.1655 H   0  0  0  0  0  0  0  0  0  0  0  0
   -3.9769   -7.8527   -2.4441 H   0  0  0  0  0  0  0  0  0  0  0  0
  -13.7180  -11.0353    0.1139 H   0  0  0  0  0  0  0  0  0  0  0  0
  -13.6930   -9.7998    1.3966 H   0  0  0  0  0  0  0  0  0  0  0  0
  -12.9262   -9.4741   -0.1489 H   0  0  0  0  0  0  0  0  0  0  0  0
   -8.5377  -10.5104    0.9134 H   0  0  0  0  0  0  0  0  0  0  0  0
   -3.6762   -5.5914   -5.4370 H   0  0  0  0  0  0  0  0  0  0  0  0
   -6.4416   -9.7460    0.0622 H   0  0  0  0  0  0  0  0  0  0  0  0
   -5.7446   -6.0644   -4.3366 H   0  0  0  0  0  0  0  0  0  0  0  0
   -6.9121   -6.5948   -0.1125 H   0  0  0  0  0  0  0  0  0  0  0  0
   -4.9282   -5.8148   -1.2620 H   0  0  0  0  0  0  0  0  0  0  0  0
  1 14  1  0  0  0  0
  1 21  1  0  0  0  0
  2 14  2  0  0  0  0
  3  5  1  0  0  0  0
  3  7  1  0  0  0  0
  3 22  1  0  0  0  0
  3 23  1  0  0  0  0
  4  6  1  0  0  0  0
  4  8  1  0  0  0  0
  4 24  1  0  0  0  0
  4 25  1  0  0  0  0
  5  9  1  0  0  0  0
  5 26  1  0  0  0  0
  5 27  1  0  0  0  0
  6 10  1  0  0  0  0
  6 28  1  0  0  0  0
  6 29  1  0  0  0  0
  7 13  1  0  0  0  0
  7 30  1  0  0  0  0
  7 31  1  0  0  0  0
  8 14  1  0  0  0  0
  8 32  1  0  0  0  0
  8 33  1  0  0  0  0
  9 15  1  0  0  0  0
  9 34  1  0  0  0  0
  9 35  1  0  0  0  0
 10 16  1  0  0  0  0
 10 36  1  0  0  0  0
 10 37  1  0  0  0  0
 11 17  1  0  0  0  0
 11 19  1  0  0  0  0
 11 38  1  0  0  0  0
 11 39  1  0  0  0  0
 12 18  1  0  0  0  0
 12 20  1  0  0  0  0
 12 40  1  0  0  0  0
 12 41  1  0  0  0  0
 13 42  1  0  0  0  0
 13 43  1  0  0  0  0
 13 44  1  0  0  0  0
 15 17  2  0  0  0  0
 15 45  1  0  0  0  0
 16 18  2  0  0  0  0
 16 46  1  0  0  0  0
 17 47  1  0  0  0  0
 18 48  1  0  0  0  0
 19 20  2  0  0  0  0
 19 49  1  0  0  0  0
 20 50  1  0  0  0  0
M  END
>  <DRUGBANK_ID>
DB13854

>  <COMMON_NAME>
Gamolenic acid

>  <CAS_NUMBER>
506-26-3

>  <UNII>
78YC2MAX4O

>  <SYNONYMS>
(6,9,12)-linolenic acid; (6Z,9Z,12Z)-Octadecatrienoic acid; (Z,Z,Z)-6,9,12-octadecatrienoic acid; 18:3 (n-6); 6-cis,9-cis,12-cis-octadecatrienoic acid; 6,9,12-Octadecatrienoic acid; all-cis-6,9,12-octadecatrienoic acid; gamma-Linolenic acid; Gammalinolenic acid; gamoleic acid; Gamolenic acid; GLA; Octadeca-6,9,12-triensäure; γ-linolenic acid; γ-Linolensäure

$$$$
