G23
 OpenBabel10282417163D

 58 60  0  0  0  0  0  0  0  0999 V2000
   -0.0973    1.3853   -0.5242 C   0  0  1  0  0  0  0  0  0  0  0  0
   -1.8015   -0.2237   -0.0217 C   0  0  2  0  0  0  0  0  0  0  0  0
   -2.6337   -0.5608   -1.3060 C   0  0  1  0  0  0  0  0  0  0  0  0
   -2.9718   -2.0715   -1.3937 C   0  0  0  0  0  0  0  0  0  0  0  0
    1.3936    0.5159    1.4307 C   0  0  0  0  0  0  0  0  0  0  0  0
    2.0000   -0.0185   -0.9471 C   0  0  0  0  0  0  0  0  0  0  0  0
    0.4274    2.7955   -0.2323 C   0  0  0  0  0  0  0  0  0  0  0  0
    0.8508    0.2907    0.0149 C   0  0  0  0  0  0  0  0  0  0  0  0
   -4.7593   -3.7784   -1.4836 C   0  0  0  0  0  0  0  0  0  0  0  0
   -4.0411    1.1260   -2.4703 C   0  0  0  0  0  0  0  0  0  0  0  0
   -5.2487    2.0592   -2.4014 C   0  0  0  0  0  0  0  0  0  0  0  0
   -3.5736    3.9800   -2.4198 C   0  0  0  0  0  0  0  0  0  0  0  0
   -4.9036    3.5353   -2.3772 C   0  0  0  0  0  0  0  0  0  0  0  0
   -5.9251    4.4995   -2.3593 C   0  0  0  0  0  0  0  0  0  0  0  0
   -5.6110    5.8633   -2.3678 C   0  0  0  0  0  0  0  0  0  0  0  0
   -4.2802    6.2779   -2.3966 C   0  0  0  0  0  0  0  0  0  0  0  0
   -3.2638    5.3349   -2.4655 C   0  0  0  0  0  0  0  0  0  0  0  0
   -6.2479   -5.7712    1.3822 C   0  0  0  0  0  0  0  0  0  0  0  0
   -6.6699   -4.7553    2.2380 C   0  0  0  0  0  0  0  0  0  0  0  0
   -6.6273   -3.4298    1.8189 C   0  0  0  0  0  0  0  0  0  0  0  0
   -6.1103   -3.1154    0.5669 C   0  0  0  0  0  0  0  0  0  0  0  0
   -5.5763   -4.1145   -0.2582 C   0  0  0  0  0  0  0  0  0  0  0  0
   -5.7359   -5.4563    0.1223 C   0  0  0  0  0  0  0  0  0  0  0  0
   -1.4547    1.2147    0.0849 N   0  0  0  0  0  0  0  0  0  0  0  0
   -3.8650    0.2723   -1.4022 N   0  0  0  0  0  0  0  0  0  0  0  0
   -4.3062   -2.3967   -1.4838 N   0  0  0  0  0  0  0  0  0  0  0  0
   -2.1083   -2.9454   -1.3974 O   0  0  0  0  0  0  0  0  0  0  0  0
   -3.2639    1.1395   -3.4233 O   0  0  0  0  0  0  0  0  0  0  0  0
    0.8631    3.5942   -1.0560 O   0  0  0  0  0  0  0  0  0  0  0  0
    0.4264    3.1150    1.0819 O   0  0  0  0  0  0  0  0  0  0  0  0
   -0.2392   -1.1583    0.1387 S   0  0  0  0  0  0  0  0  0  0  0  0
   -0.2011    1.3094   -1.6159 H   0  0  0  0  0  0  0  0  0  0  0  0
   -2.4172   -0.4777    0.8491 H   0  0  0  0  0  0  0  0  0  0  0  0
   -2.0129   -0.3529   -2.1856 H   0  0  0  0  0  0  0  0  0  0  0  0
    2.0487    1.3919    1.4617 H   0  0  0  0  0  0  0  0  0  0  0  0
    0.5890    0.6654    2.1607 H   0  0  0  0  0  0  0  0  0  0  0  0
    2.0058   -0.3257    1.7749 H   0  0  0  0  0  0  0  0  0  0  0  0
    1.6420   -0.3450   -1.9307 H   0  0  0  0  0  0  0  0  0  0  0  0
    2.6237    0.8684   -1.1014 H   0  0  0  0  0  0  0  0  0  0  0  0
    2.6521   -0.8095   -0.5548 H   0  0  0  0  0  0  0  0  0  0  0  0
   -5.3340   -3.9493   -2.3970 H   0  0  0  0  0  0  0  0  0  0  0  0
   -3.8851   -4.4411   -1.4938 H   0  0  0  0  0  0  0  0  0  0  0  0
   -5.8422    1.8549   -3.3023 H   0  0  0  0  0  0  0  0  0  0  0  0
   -5.8732    1.8151   -1.5342 H   0  0  0  0  0  0  0  0  0  0  0  0
   -2.7406    3.2814   -2.4346 H   0  0  0  0  0  0  0  0  0  0  0  0
   -6.9722    4.2030   -2.3420 H   0  0  0  0  0  0  0  0  0  0  0  0
   -6.4029    6.6081   -2.3656 H   0  0  0  0  0  0  0  0  0  0  0  0
   -4.0302    7.3340   -2.3663 H   0  0  0  0  0  0  0  0  0  0  0  0
   -2.2244    5.6369   -2.5628 H   0  0  0  0  0  0  0  0  0  0  0  0
   -6.2830   -6.8064    1.7125 H   0  0  0  0  0  0  0  0  0  0  0  0
   -7.0365   -4.9953    3.2315 H   0  0  0  0  0  0  0  0  0  0  0  0
   -6.9600   -2.6323    2.4763 H   0  0  0  0  0  0  0  0  0  0  0  0
   -6.0863   -2.0734    0.2687 H   0  0  0  0  0  0  0  0  0  0  0  0
   -5.4182   -6.2628   -0.5369 H   0  0  0  0  0  0  0  0  0  0  0  0
   -1.3596    1.4522    1.0743 H   0  0  0  0  0  0  0  0  0  0  0  0
   -4.4654    0.3429   -0.5912 H   0  0  0  0  0  0  0  0  0  0  0  0
   -4.9831   -1.6529   -1.5668 H   0  0  0  0  0  0  0  0  0  0  0  0
    0.9064    3.9680    1.1439 H   0  0  0  0  0  0  0  0  0  0  0  0
  1  7  1  0  0  0  0
  1  8  1  0  0  0  0
  1 24  1  0  0  0  0
  1 32  1  6  0  0  0
  2  3  1  0  0  0  0
  2 24  1  0  0  0  0
  2 31  1  0  0  0  0
  2 33  1  1  0  0  0
  3  4  1  0  0  0  0
  3 25  1  0  0  0  0
  3 34  1  6  0  0  0
  4 26  1  0  0  0  0
  4 27  2  0  0  0  0
  5  8  1  0  0  0  0
  5 35  1  0  0  0  0
  5 36  1  0  0  0  0
  5 37  1  0  0  0  0
  6  8  1  0  0  0  0
  6 38  1  0  0  0  0
  6 39  1  0  0  0  0
  6 40  1  0  0  0  0
  7 29  2  0  0  0  0
  7 30  1  0  0  0  0
  8 31  1  0  0  0  0
  9 22  1  0  0  0  0
  9 26  1  0  0  0  0
  9 41  1  0  0  0  0
  9 42  1  0  0  0  0
 10 11  1  0  0  0  0
 10 25  1  0  0  0  0
 10 28  2  0  0  0  0
 11 13  1  0  0  0  0
 11 43  1  0  0  0  0
 11 44  1  0  0  0  0
 12 13  2  0  0  0  0
 12 17  1  0  0  0  0
 12 45  1  0  0  0  0
 13 14  1  0  0  0  0
 14 15  2  0  0  0  0
 14 46  1  0  0  0  0
 15 16  1  0  0  0  0
 15 47  1  0  0  0  0
 16 17  2  0  0  0  0
 16 48  1  0  0  0  0
 17 49  1  0  0  0  0
 18 19  2  0  0  0  0
 18 23  1  0  0  0  0
 18 50  1  0  0  0  0
 19 20  1  0  0  0  0
 19 51  1  0  0  0  0
 20 21  2  0  0  0  0
 20 52  1  0  0  0  0
 21 22  1  0  0  0  0
 21 53  1  0  0  0  0
 22 23  2  0  0  0  0
 23 54  1  0  0  0  0
 24 55  1  0  0  0  0
 25 56  1  0  0  0  0
 26 57  1  0  0  0  0
 30 58  1  0  0  0  0
M  END
>  <DRUGBANK_ID>
DB07806

>  <COMMON_NAME>
(2R,4S)-2-[(R)-BENZYLCARBAMOYL-PHENYLACETYL-METHYL]-5,5-DIMETHYL-THIAZOLIDINE-4-CARBOXYLIC ACID

$$$$
