
 OpenBabel10282417223D

  4  3  0  0  0  0  0  0  0  0999 V2000
    1.0705   -0.0497    0.0505 Fe  0  0  0  0  0  0  0  0  0  0  0  0
   -0.0995    1.5587   -1.1821 Cl  0  0  0  0  0  0  0  0  0  0  0  0
   -0.0995   -1.6582    1.2832 Cl  0  0  0  0  0  0  0  0  0  0  0  0
    3.4105   -0.0497    0.0505 Cl  0  0  0  0  0  0  0  0  0  0  0  0
  1  2  1  0  0  0  0
  1  3  1  0  0  0  0
  1  4  1  0  0  0  0
M  END
>  <DRUGBANK_ID>
DB15536

>  <COMMON_NAME>
Ferric chloride

>  <CAS_NUMBER>
7705-08-0

>  <UNII>
U38V3ZVV3V

>  <SYNONYMS>
Ferric chloride, anhydrous; Iron (III) chloride; Iron chloride; Iron perchloride

$$$$
