
 OpenBabel10282417103D

 37 40  0  0  0  0  0  0  0  0999 V2000
    1.7707   -0.8772    0.0323 C   0  0  0  0  0  0  0  0  0  0  0  0
    0.5291   -1.3362   -0.1927 C   0  0  0  0  0  0  0  0  0  0  0  0
    1.9862    0.6009    0.0586 C   0  0  0  0  0  0  0  0  0  0  0  0
    2.9908   -1.7668    0.1228 C   0  0  0  0  0  0  0  0  0  0  0  0
    0.8617    1.4232    0.0489 O   0  0  0  0  0  0  0  0  0  0  0  0
   -0.6295   -0.4750   -0.1005 C   0  0  0  0  0  0  0  0  0  0  0  0
   -0.4351    0.8885    0.0089 C   0  0  0  0  0  0  0  0  0  0  0  0
    3.1166    1.0811    0.0419 O   0  0  0  0  0  0  0  0  0  0  0  0
    0.1992   -2.6192   -0.5345 O   0  0  0  0  0  0  0  0  0  0  0  0
   -1.9309   -0.9944   -0.0983 C   0  0  0  0  0  0  0  0  0  0  0  0
   -1.5163    1.7577    0.0687 C   0  0  0  0  0  0  0  0  0  0  0  0
   -3.0231   -0.1386   -0.0416 C   0  0  0  0  0  0  0  0  0  0  0  0
   -2.8137    1.2380    0.0377 C   0  0  0  0  0  0  0  0  0  0  0  0
    3.0665   -2.5506    1.4284 C   0  0  0  0  0  0  0  0  0  0  0  0
    4.0103   -2.4081    2.3760 C   0  0  0  0  0  0  0  0  0  0  0  0
    2.0807   -3.6477    1.6353 C   0  0  0  0  0  0  0  0  0  0  0  0
    1.7635   -4.0354    2.9082 O   0  0  0  0  0  0  0  0  0  0  0  0
    3.9150   -3.1696    3.6272 C   0  0  0  0  0  0  0  0  0  0  0  0
    2.7770   -3.9391    3.8533 C   0  0  0  0  0  0  0  0  0  0  0  0
    1.5195   -4.1809    0.6774 O   0  0  0  0  0  0  0  0  0  0  0  0
    5.0943   -1.5642    2.2843 O   0  0  0  0  0  0  0  0  0  0  0  0
    4.8734   -3.1281    4.6396 C   0  0  0  0  0  0  0  0  0  0  0  0
    2.5693   -4.6659    5.0217 C   0  0  0  0  0  0  0  0  0  0  0  0
    4.6748   -3.8408    5.8311 C   0  0  0  0  0  0  0  0  0  0  0  0
    3.5237   -4.6078    6.0233 C   0  0  0  0  0  0  0  0  0  0  0  0
    3.0215   -2.4498   -0.7343 H   0  0  0  0  0  0  0  0  0  0  0  0
    3.8899   -1.1581   -0.0106 H   0  0  0  0  0  0  0  0  0  0  0  0
    0.9208   -3.2501   -0.3481 H   0  0  0  0  0  0  0  0  0  0  0  0
   -2.0964   -2.0704   -0.1470 H   0  0  0  0  0  0  0  0  0  0  0  0
   -1.3506    2.8278    0.1280 H   0  0  0  0  0  0  0  0  0  0  0  0
   -4.0277   -0.5515   -0.0712 H   0  0  0  0  0  0  0  0  0  0  0  0
   -3.6676    1.9073    0.0742 H   0  0  0  0  0  0  0  0  0  0  0  0
    5.1107   -1.0947    1.4343 H   0  0  0  0  0  0  0  0  0  0  0  0
    5.7731   -2.5293    4.5188 H   0  0  0  0  0  0  0  0  0  0  0  0
    1.6694   -5.2644    5.1351 H   0  0  0  0  0  0  0  0  0  0  0  0
    5.4220   -3.7899    6.6178 H   0  0  0  0  0  0  0  0  0  0  0  0
    3.3647   -5.1528    6.9493 H   0  0  0  0  0  0  0  0  0  0  0  0
  2  1  2  0  0  0  0
  3  1  1  0  0  0  0
  4  1  1  0  0  0  0
  4 14  1  0  0  0  0
  4 26  1  0  0  0  0
  4 27  1  0  0  0  0
  5  3  1  0  0  0  0
  6  2  1  0  0  0  0
  7  5  1  0  0  0  0
  7  6  2  0  0  0  0
  8  3  2  0  0  0  0
  9  2  1  0  0  0  0
  9 28  1  0  0  0  0
 10  6  1  0  0  0  0
 10 29  1  0  0  0  0
 11  7  1  0  0  0  0
 11 30  1  0  0  0  0
 12 10  2  0  0  0  0
 12 31  1  0  0  0  0
 13 11  2  0  0  0  0
 13 12  1  0  0  0  0
 13 32  1  0  0  0  0
 15 14  2  0  0  0  0
 16 14  1  0  0  0  0
 17 16  1  0  0  0  0
 18 15  1  0  0  0  0
 19 17  1  0  0  0  0
 19 18  2  0  0  0  0
 20 16  2  0  0  0  0
 21 15  1  0  0  0  0
 21 33  1  0  0  0  0
 22 18  1  0  0  0  0
 22 34  1  0  0  0  0
 23 19  1  0  0  0  0
 23 35  1  0  0  0  0
 24 22  2  0  0  0  0
 24 36  1  0  0  0  0
 25 23  2  0  0  0  0
 25 24  1  0  0  0  0
 25 37  1  0  0  0  0
M  END
>  <DRUGBANK_ID>
DB00266

>  <SECONDARY_ACCESSION_NUMBERS>
APRD00761

>  <COMMON_NAME>
Dicoumarol

>  <CAS_NUMBER>
66-76-2

>  <UNII>
7QID3E7BG7

>  <SYNONYMS>
3,3'-methylen-bis(4-hydroxy-cumarin); 3,3'-methylene-bis(4-hydroxycoumarine); 3,3'-methylenebis(4-hydroxy-1,2-benzopyrone); 3,3'-methylenebis(4-hydroxy-2H-1-benzopyran-2-one); 3,3'-methylenebis(4-hydroxycoumarin); bis-3,3'-(4-hydroxycoumarinyl)methane; bis-hydroxycoumarin; bis(4-hydroxycoumarin-3-yl)methane; di-(4-hydroxy-3-coumarinyl)methane; Dicoumarol; Dicoumarolum; Dicumarol

$$$$
