
 OpenBabel10282417153D

116121  0  0  1  0  0  0  0  0999 V2000
    1.2581    0.0993    0.1653 C   0  0  0  0  0  0  0  0  0  0  0  0
    0.8107   -1.0414    1.0423 C   0  0  0  0  0  0  0  0  0  0  0  0
    0.6227    1.4810    0.4801 C   0  0  0  0  0  0  0  0  0  0  0  0
    1.3724   -0.8708    2.4584 C   0  0  0  0  0  0  0  0  0  0  0  0
    1.3320    6.5067   -5.7197 C   0  0  0  0  0  0  0  0  0  0  0  0
   -4.0238    4.7886    0.7676 C   0  0  0  0  0  0  0  0  0  0  0  0
    1.0632    2.7061   -0.2942 C   0  0  0  0  0  0  0  0  0  0  0  0
    0.9540    0.4293    3.2921 C   0  0  0  0  0  0  0  0  0  0  0  0
    0.2830    6.6527   -6.6298 C   0  0  0  0  0  0  0  0  0  0  0  0
   -5.2104    5.1293    1.4164 C   0  0  0  0  0  0  0  0  0  0  0  0
    1.2113    5.5944   -4.7008 C   0  0  0  0  0  0  0  0  0  0  0  0
   -3.1799    3.8136    1.3140 C   0  0  0  0  0  0  0  0  0  0  0  0
    0.1134    1.5690   -2.1711 C   0  0  0  0  0  0  0  0  0  0  0  0
   -1.0707   -0.5210    3.2970 C   0  0  0  0  0  0  0  0  0  0  0  0
    0.0377    1.5048   -3.5023 C   0  0  0  0  0  0  0  0  0  0  0  0
   -2.2671   -0.2913    2.8965 C   0  0  0  0  0  0  0  0  0  0  0  0
   -1.0189    4.9935   -5.4988 C   0  0  0  0  0  0  0  0  0  0  0  0
   -4.7301    3.5040    3.1232 C   0  0  0  0  0  0  0  0  0  0  0  0
    0.2814    3.8211   -2.4327 C   0  0  0  0  0  0  0  0  0  0  0  0
   -1.3176    1.9319    3.1979 C   0  0  0  0  0  0  0  0  0  0  0  0
   -1.9765    5.9333   -7.5574 C   0  0  0  0  0  0  0  0  0  0  0  0
   -6.9095    4.6918    3.2529 C   0  0  0  0  0  0  0  0  0  0  0  0
    2.8239   -0.9665   -4.9565 C   0  0  0  0  0  0  0  0  0  0  0  0
   -2.6694   -0.5407    0.5124 C   0  0  0  0  0  0  0  0  0  0  0  0
    0.4731    2.7287   -1.6313 C   0  0  0  0  0  0  0  0  0  0  0  0
   -0.4995    0.6874    3.3354 C   0  0  0  0  0  0  0  0  0  0  0  0
   -0.8863    5.8845   -6.5359 C   0  0  0  0  0  0  0  0  0  0  0  0
   -5.5920    4.4522    2.5744 C   0  0  0  0  0  0  0  0  0  0  0  0
    0.0549    4.8193   -4.6453 C   0  0  0  0  0  0  0  0  0  0  0  0
   -3.5088    3.1783    2.5258 C   0  0  0  0  0  0  0  0  0  0  0  0
    0.0529    3.6643   -3.8320 C   0  0  0  0  0  0  0  0  0  0  0  0
   -2.7461    2.0432    3.0469 C   0  0  0  0  0  0  0  0  0  0  0  0
   -0.0414    2.4325   -4.4396 C   0  0  0  0  0  0  0  0  0  0  0  0
   -3.3488    0.8289    3.0722 C   0  0  0  0  0  0  0  0  0  0  0  0
    1.4026   -0.4272   -5.0443 C   0  0  2  0  0  0  0  0  0  0  0  0
   -3.9917   -0.9139    1.6524 C   0  0  2  0  0  0  0  0  0  0  0  0
   -2.1942    4.6061   -8.2517 C   0  0  0  0  0  0  0  0  0  0  0  0
   -7.7938    3.4651    3.2729 C   0  0  0  0  0  0  0  0  0  0  0  0
    0.3066   -1.3644   -4.3107 C   0  0  2  0  0  0  0  0  0  0  0  0
   -3.8665   -1.4907    3.6148 C   0  0  2  0  0  0  0  0  0  0  0  0
   -1.2269   -0.7940   -4.3496 C   0  0  1  0  0  0  0  0  0  0  0  0
   -5.0424   -1.3414    4.5213 C   0  0  1  0  0  0  0  0  0  0  0  0
   -1.4951   -0.2221   -5.7444 C   0  0  1  0  0  0  0  0  0  0  0  0
   -6.0764   -1.6821    3.5505 C   0  0  1  0  0  0  0  0  0  0  0  0
   -0.3179    0.7127   -6.2601 C   0  0  1  0  0  0  0  0  0  0  0  0
   -5.8639   -0.6102    2.4326 C   0  0  1  0  0  0  0  0  0  0  0  0
    3.7419   -0.0379   -5.5434 O   0  0  0  0  0  0  0  0  0  0  0  0
   -2.8759    0.4054   -0.5368 O   0  0  0  0  0  0  0  0  0  0  0  0
   -3.2294    3.9588   -8.2446 O   0  0  0  0  0  0  0  0  0  0  0  0
   -1.1127    4.1647   -8.9282 O   0  0  0  0  0  0  0  0  0  0  0  0
   -8.2004    2.8917    4.2706 O   0  0  0  0  0  0  0  0  0  0  0  0
   -8.1309    3.0221    2.0430 O   0  0  0  0  0  0  0  0  0  0  0  0
    0.7039   -1.6934   -2.9777 O   0  0  0  0  0  0  0  0  0  0  0  0
   -2.8823   -1.0746    4.8431 O   0  0  0  0  0  0  0  0  0  0  0  0
   -2.1757   -1.7114   -3.8207 O   0  0  0  0  0  0  0  0  0  0  0  0
   -4.9141   -2.2501    5.6250 O   0  0  0  0  0  0  0  0  0  0  0  0
   -1.6536   -1.3771   -6.5941 O   0  0  0  0  0  0  0  0  0  0  0  0
   -5.8568   -3.0591    3.1251 O   0  0  0  0  0  0  0  0  0  0  0  0
   -0.2157    2.1010   -5.7498 O   0  0  0  0  0  0  0  0  0  0  0  0
   -4.9294    0.7131    2.9850 O   0  0  0  0  0  0  0  0  0  0  0  0
    0.9396   -0.0385   -6.3346 O   0  0  0  0  0  0  0  0  0  0  0  0
   -5.2571   -1.2772    1.2903 O   0  0  0  0  0  0  0  0  0  0  0  0
    1.6661    0.5266   -4.5802 H   0  0  0  0  0  0  0  0  0  0  0  0
   -4.1985    0.1654    1.3939 H   0  0  0  0  0  0  0  0  0  0  0  0
    0.2913   -2.3167   -4.8367 H   0  0  0  0  0  0  0  0  0  0  0  0
   -3.4901   -2.5067    3.5200 H   0  0  0  0  0  0  0  0  0  0  0  0
   -1.4973    0.0178   -3.6714 H   0  0  0  0  0  0  0  0  0  0  0  0
   -5.1122   -0.3318    4.9736 H   0  0  0  0  0  0  0  0  0  0  0  0
   -2.4405    0.3316   -5.7596 H   0  0  0  0  0  0  0  0  0  0  0  0
   -7.0325   -1.6246    4.0521 H   0  0  0  0  0  0  0  0  0  0  0  0
   -0.5530    0.8638   -7.3230 H   0  0  0  0  0  0  0  0  0  0  0  0
   -6.8473   -0.2811    2.0852 H   0  0  0  0  0  0  0  0  0  0  0  0
    1.0066   -0.3049   -0.7996 H   0  0  0  0  0  0  0  0  0  0  0  0
    2.3447    0.1616    0.1494 H   0  0  0  0  0  0  0  0  0  0  0  0
   -0.2694   -1.1635    0.9713 H   0  0  0  0  0  0  0  0  0  0  0  0
    1.1469   -1.9984    0.6069 H   0  0  0  0  0  0  0  0  0  0  0  0
   -0.4696    1.4462    0.5040 H   0  0  0  0  0  0  0  0  0  0  0  0
    0.9546    1.8200    1.4299 H   0  0  0  0  0  0  0  0  0  0  0  0
    1.1068   -1.7955    2.9953 H   0  0  0  0  0  0  0  0  0  0  0  0
    2.4538   -0.9004    2.3969 H   0  0  0  0  0  0  0  0  0  0  0  0
    2.2564    7.0603   -5.8281 H   0  0  0  0  0  0  0  0  0  0  0  0
   -3.7669    5.2747   -0.1717 H   0  0  0  0  0  0  0  0  0  0  0  0
    0.7278    3.6010    0.2341 H   0  0  0  0  0  0  0  0  0  0  0  0
    2.1584    2.7030   -0.3413 H   0  0  0  0  0  0  0  0  0  0  0  0
    1.2456    0.3020    4.3302 H   0  0  0  0  0  0  0  0  0  0  0  0
    1.4370    1.3247    2.9561 H   0  0  0  0  0  0  0  0  0  0  0  0
    0.3925    7.3677   -7.4345 H   0  0  0  0  0  0  0  0  0  0  0  0
   -5.8392    5.9163    1.0093 H   0  0  0  0  0  0  0  0  0  0  0  0
    2.0230    5.4213   -3.9951 H   0  0  0  0  0  0  0  0  0  0  0  0
   -2.2852    3.5296    0.7623 H   0  0  0  0  0  0  0  0  0  0  0  0
   -0.0953    0.6422   -1.6831 H   0  0  0  0  0  0  0  0  0  0  0  0
   -0.7079   -1.5586    3.2623 H   0  0  0  0  0  0  0  0  0  0  0  0
    0.1291    0.5283   -3.7531 H   0  0  0  0  0  0  0  0  0  0  0  0
   -2.3661   -1.3447    2.4675 H   0  0  0  0  0  0  0  0  0  0  0  0
   -1.8899    4.3412   -5.4036 H   0  0  0  0  0  0  0  0  0  0  0  0
   -5.0465    2.9533    4.0103 H   0  0  0  0  0  0  0  0  0  0  0  0
    0.2799    4.8024   -1.9793 H   0  0  0  0  0  0  0  0  0  0  0  0
   -0.7634    2.8573    3.1134 H   0  0  0  0  0  0  0  0  0  0  0  0
   -2.9034    6.2138   -7.0434 H   0  0  0  0  0  0  0  0  0  0  0  0
   -1.7630    6.6984   -8.3045 H   0  0  0  0  0  0  0  0  0  0  0  0
   -6.7003    4.9854    4.2888 H   0  0  0  0  0  0  0  0  0  0  0  0
   -7.4526    5.5170    2.7853 H   0  0  0  0  0  0  0  0  0  0  0  0
    3.1064   -1.0397   -3.8961 H   0  0  0  0  0  0  0  0  0  0  0  0
    2.9167   -1.9257   -5.4496 H   0  0  0  0  0  0  0  0  0  0  0  0
   -1.8666    0.0618    0.9585 H   0  0  0  0  0  0  0  0  0  0  0  0
   -2.2128   -1.4531    0.1676 H   0  0  0  0  0  0  0  0  0  0  0  0
    3.3510    0.2534   -6.3882 H   0  0  0  0  0  0  0  0  0  0  0  0
   -3.7824    0.3305   -0.8403 H   0  0  0  0  0  0  0  0  0  0  0  0
   -1.3713    3.2993   -9.3067 H   0  0  0  0  0  0  0  0  0  0  0  0
   -8.6887    2.2311    2.1908 H   0  0  0  0  0  0  0  0  0  0  0  0
    1.0179   -0.8913   -2.5321 H   0  0  0  0  0  0  0  0  0  0  0  0
   -2.6802   -0.1059    4.9270 H   0  0  0  0  0  0  0  0  0  0  0  0
   -2.1757   -2.4950   -4.3782 H   0  0  0  0  0  0  0  0  0  0  0  0
   -4.2468   -2.9086    5.3545 H   0  0  0  0  0  0  0  0  0  0  0  0
   -0.8013   -1.8479   -6.6175 H   0  0  0  0  0  0  0  0  0  0  0  0
   -5.0764   -3.1157    2.5374 H   0  0  0  0  0  0  0  0  0  0  0  0
  1 73  1  0  0  0  0
  1 74  1  0  0  0  0
  2  1  1  0  0  0  0
  2 75  1  0  0  0  0
  2 76  1  0  0  0  0
  3  1  1  0  0  0  0
  3 77  1  0  0  0  0
  3 78  1  0  0  0  0
  4  2  1  0  0  0  0
  4 79  1  0  0  0  0
  4 80  1  0  0  0  0
  5 81  1  0  0  0  0
  6 82  1  0  0  0  0
  7  3  1  0  0  0  0
  7 83  1  0  0  0  0
  7 84  1  0  0  0  0
  8  4  1  0  0  0  0
  8 85  1  0  0  0  0
  8 86  1  0  0  0  0
  9  5  2  0  0  0  0
  9 87  1  0  0  0  0
 10  6  2  0  0  0  0
 10 88  1  0  0  0  0
 11  5  1  0  0  0  0
 11 89  1  0  0  0  0
 12  6  1  0  0  0  0
 12 90  1  0  0  0  0
 13 91  1  0  0  0  0
 14 92  1  0  0  0  0
 15 13  2  0  0  0  0
 15 93  1  0  0  0  0
 16 14  2  0  0  0  0
 16 94  1  0  0  0  0
 17 95  1  0  0  0  0
 18 96  1  0  0  0  0
 19 97  1  0  0  0  0
 20 98  1  0  0  0  0
 21 99  1  0  0  0  0
 21100  1  0  0  0  0
 22101  1  0  0  0  0
 22102  1  0  0  0  0
 23103  1  0  0  0  0
 23104  1  0  0  0  0
 24105  1  0  0  0  0
 24106  1  0  0  0  0
 25  7  1  0  0  0  0
 25 13  1  0  0  0  0
 25 19  2  0  0  0  0
 26  8  1  0  0  0  0
 26 14  1  0  0  0  0
 26 20  2  0  0  0  0
 27  9  1  0  0  0  0
 27 17  2  0  0  0  0
 27 21  1  0  0  0  0
 28 10  1  0  0  0  0
 28 18  2  0  0  0  0
 28 22  1  0  0  0  0
 29 11  2  0  0  0  0
 29 17  1  0  0  0  0
 30 12  2  0  0  0  0
 30 18  1  0  0  0  0
 31 19  1  0  0  0  0
 31 29  1  0  0  0  0
 32 20  1  0  0  0  0
 32 30  1  0  0  0  0
 33 15  1  0  0  0  0
 33 31  2  0  0  0  0
 34 16  1  0  0  0  0
 34 32  2  0  0  0  0
 35 23  1  0  0  0  0
 35 63  1  1  0  0  0
 36 24  1  0  0  0  0
 36 64  1  1  0  0  0
 37 21  1  0  0  0  0
 38 22  1  0  0  0  0
 39 35  1  0  0  0  0
 39 53  1  0  0  0  0
 39 65  1  6  0  0  0
 40 36  1  0  0  0  0
 40 54  1  0  0  0  0
 40 66  1  6  0  0  0
 41 39  1  0  0  0  0
 41 55  1  0  0  0  0
 41 67  1  1  0  0  0
 42 40  1  0  0  0  0
 42 56  1  0  0  0  0
 42 68  1  1  0  0  0
 43 41  1  0  0  0  0
 43 57  1  0  0  0  0
 43 69  1  1  0  0  0
 44 42  1  0  0  0  0
 44 58  1  0  0  0  0
 44 70  1  1  0  0  0
 45 43  1  0  0  0  0
 45 59  1  0  0  0  0
 45 71  1  6  0  0  0
 46 44  1  0  0  0  0
 46 60  1  0  0  0  0
 46 72  1  6  0  0  0
 47 23  1  0  0  0  0
 47107  1  0  0  0  0
 48 24  1  0  0  0  0
 48108  1  0  0  0  0
 49 37  2  0  0  0  0
 50 37  1  0  0  0  0
 50109  1  0  0  0  0
 51 38  2  0  0  0  0
 52 38  1  0  0  0  0
 52110  1  0  0  0  0
 53111  1  0  0  0  0
 54112  1  0  0  0  0
 55113  1  0  0  0  0
 56114  1  0  0  0  0
 57115  1  0  0  0  0
 58116  1  0  0  0  0
 59 33  1  0  0  0  0
 60 34  1  0  0  0  0
 61 35  1  0  0  0  0
 61 45  1  0  0  0  0
 62 36  1  0  0  0  0
 62 46  1  0  0  0  0
M  END
>  <DRUGBANK_ID>
DB06197

>  <COMMON_NAME>
Bimosiamose

>  <CAS_NUMBER>
187269-40-5

>  <UNII>
97B5KCW80W

>  <SYNONYMS>
Bimosiamose

$$$$
