ZYX
 OpenBabel10282417173D

 25 25  0  0  0  0  0  0  0  0999 V2000
    1.4367   -0.2704    0.0194 C   0  0  0  0  0  0  0  0  0  0  0  0
    0.9798    1.0397   -0.0670 C   0  0  0  0  0  0  0  0  0  0  0  0
   -0.3922    1.2720   -0.1290 C   0  0  0  0  0  0  0  0  0  0  0  0
   -1.3233    0.2180   -0.0956 C   0  0  0  0  0  0  0  0  0  0  0  0
   -0.8428   -1.0954   -0.0364 C   0  0  0  0  0  0  0  0  0  0  0  0
    0.5338   -1.3398    0.0081 C   0  0  0  0  0  0  0  0  0  0  0  0
    3.1589   -0.5821    0.2665 S   0  0  0  0  0  0  0  0  0  0  0  0
    3.6028    0.2025    1.3989 O   0  0  0  0  0  0  0  0  0  0  0  0
    3.3907   -2.0021    0.1795 O   0  0  0  0  0  0  0  0  0  0  0  0
    3.8911    0.0700   -1.1027 N   0  0  0  0  0  0  0  0  0  0  0  0
   -2.8109    0.5007   -0.1808 C   0  0  0  0  0  0  0  0  0  0  0  0
   -3.3991    1.2728    1.0156 C   0  0  0  0  0  0  0  0  0  0  0  0
   -2.8150    2.6027    1.2003 N   0  0  0  0  0  0  0  0  0  0  0  0
    1.6658    1.8831   -0.0777 H   0  0  0  0  0  0  0  0  0  0  0  0
   -0.7281    2.3045   -0.1919 H   0  0  0  0  0  0  0  0  0  0  0  0
   -1.5309   -1.9389   -0.0192 H   0  0  0  0  0  0  0  0  0  0  0  0
    0.8917   -2.3655    0.0533 H   0  0  0  0  0  0  0  0  0  0  0  0
    4.9050    0.0012   -0.9803 H   0  0  0  0  0  0  0  0  0  0  0  0
    3.5962   -0.4158   -1.9493 H   0  0  0  0  0  0  0  0  0  0  0  0
   -3.0046    1.0434   -1.1149 H   0  0  0  0  0  0  0  0  0  0  0  0
   -3.3613   -0.4467   -0.2723 H   0  0  0  0  0  0  0  0  0  0  0  0
   -4.4778    1.3935    0.8637 H   0  0  0  0  0  0  0  0  0  0  0  0
   -3.2581    0.6948    1.9352 H   0  0  0  0  0  0  0  0  0  0  0  0
   -3.2552    3.0719    1.9886 H   0  0  0  0  0  0  0  0  0  0  0  0
   -1.8458    2.4761    1.4949 H   0  0  0  0  0  0  0  0  0  0  0  0
  1  6  2  0  0  0  0
  1  2  1  0  0  0  0
  1  7  1  0  0  0  0
  2  3  2  0  0  0  0
  2 14  1  0  0  0  0
  3  4  1  0  0  0  0
  3 15  1  0  0  0  0
  4 11  1  0  0  0  0
  4  5  2  0  0  0  0
  5  6  1  0  0  0  0
  5 16  1  0  0  0  0
  6 17  1  0  0  0  0
  7 10  1  0  0  0  0
  7  8  2  0  0  0  0
  7  9  2  0  0  0  0
 10 18  1  0  0  0  0
 10 19  1  0  0  0  0
 11 12  1  0  0  0  0
 11 20  1  0  0  0  0
 11 21  1  0  0  0  0
 12 13  1  0  0  0  0
 12 22  1  0  0  0  0
 12 23  1  0  0  0  0
 13 24  1  0  0  0  0
 13 25  1  0  0  0  0
M  END
>  <DRUGBANK_ID>
DB08782

>  <COMMON_NAME>
4-(2-AMINOETHYL)BENZENESULFONAMIDE

>  <UNII>
WIA59Y34CJ

$$$$
