
 OpenBabel10282417213D

 67 71  0  0  0  0  0  0  0  0999 V2000
    4.7747    3.0157   -0.2148 F   0  0  0  0  0  0  0  0  0  0  0  0
    5.2355   -3.2677    5.3063 O   0  0  0  0  0  0  0  0  0  0  0  0
    5.0090   -1.3075    6.6054 O   0  0  0  0  0  0  0  0  0  0  0  0
    2.5361   -2.6386    1.0057 O   0  0  0  0  0  0  0  0  0  0  0  0
    7.6340   -2.1876    2.8358 O   0  0  0  0  0  0  0  0  0  0  0  0
    8.6953   -1.1328    5.8461 O   0  0  0  0  0  0  0  0  0  0  0  0
    1.8409    4.4656   -2.2007 O   0  0  0  0  0  0  0  0  0  0  0  0
    8.8107    0.3309    4.0911 O   0  0  0  0  0  0  0  0  0  0  0  0
    5.4408   -0.5226    2.8322 C   0  0  2  0  0  0  0  0  0  0  0  0
    4.8768   -1.9589    3.1271 C   0  0  1  0  0  0  0  0  0  0  0  0
    4.7329   -0.1483    1.4519 C   0  0  1  0  0  0  0  0  0  0  0  0
    5.5999   -2.1890    4.4790 C   0  0  1  0  0  0  0  0  0  0  0  0
    3.2110   -0.2183    1.0932 C   0  0  1  0  0  0  0  0  0  0  0  0
    5.0135   -0.9786    5.2330 C   0  0  1  0  0  0  0  0  0  0  0  0
    2.6328    0.4212   -0.5908 C   0  0  2  0  0  0  0  0  0  0  0  0
    5.7113    0.0811    4.4463 C   0  0  0  0  0  0  0  0  0  0  0  0
    2.5918   -1.4863    1.8124 C   0  0  2  0  0  0  0  0  0  0  0  0
    3.3000   -1.7978    3.1684 C   0  0  0  0  0  0  0  0  0  0  0  0
    5.2583    1.1585    1.0030 C   0  0  0  0  0  0  0  0  0  0  0  0
    7.2491   -2.2051    4.0181 C   0  0  0  0  0  0  0  0  0  0  0  0
    2.7170    1.8163   -0.0491 C   0  0  0  0  0  0  0  0  0  0  0  0
    5.2582   -2.7279    6.6485 C   0  0  0  0  0  0  0  0  0  0  0  0
    5.1983   -3.1222    2.1727 C   0  0  0  0  0  0  0  0  0  0  0  0
    4.3006    1.8030    0.0747 C   0  0  1  0  0  0  0  0  0  0  0  0
    3.4435    1.2806   -2.1175 C   0  0  0  0  0  0  0  0  0  0  0  0
    1.0911    0.0708   -0.3407 C   0  0  0  0  0  0  0  0  0  0  0  0
    1.7908    2.6771   -0.6157 C   0  0  0  0  0  0  0  0  0  0  0  0
    8.4046   -2.2501    4.9897 C   0  0  0  0  0  0  0  0  0  0  0  0
    3.3885    2.6730   -2.3927 C   0  0  0  0  0  0  0  0  0  0  0  0
    4.4081   -3.5923    7.5654 C   0  0  0  0  0  0  0  0  0  0  0  0
    6.6123   -2.7953    7.3157 C   0  0  0  0  0  0  0  0  0  0  0  0
    2.3036    3.4679   -1.7697 C   0  0  0  0  0  0  0  0  0  0  0  0
    8.7680    0.1105    5.2938 C   0  0  0  0  0  0  0  0  0  0  0  0
    8.5345    1.1979    6.3213 C   0  0  0  0  0  0  0  0  0  0  0  0
    6.4819   -0.4644    2.4828 H   0  0  0  0  0  0  0  0  0  0  0  0
    5.1092   -0.9273    0.7568 H   0  0  0  0  0  0  0  0  0  0  0  0
    2.7957    0.5593    1.7619 H   0  0  0  0  0  0  0  0  0  0  0  0
    3.3403   -2.6776    0.4733 H   0  0  0  0  0  0  0  0  0  0  0  0
    4.0104   -0.5814    5.1221 H   0  0  0  0  0  0  0  0  0  0  0  0
    5.6162    1.1173    4.7864 H   0  0  0  0  0  0  0  0  0  0  0  0
    6.6864   -0.1536    4.8628 H   0  0  0  0  0  0  0  0  0  0  0  0
    1.5504   -1.2820    2.1029 H   0  0  0  0  0  0  0  0  0  0  0  0
    2.8828   -2.6811    3.6607 H   0  0  0  0  0  0  0  0  0  0  0  0
    2.9768   -0.9485    3.7807 H   0  0  0  0  0  0  0  0  0  0  0  0
    6.1833    0.9440    0.4161 H   0  0  0  0  0  0  0  0  0  0  0  0
    5.4664    1.8784    1.7651 H   0  0  0  0  0  0  0  0  0  0  0  0
    4.8873   -2.9662    1.1512 H   0  0  0  0  0  0  0  0  0  0  0  0
    6.2420   -3.3567    2.0111 H   0  0  0  0  0  0  0  0  0  0  0  0
    4.7439   -4.0346    2.5636 H   0  0  0  0  0  0  0  0  0  0  0  0
    4.6596    0.9897   -0.6178 H   0  0  0  0  0  0  0  0  0  0  0  0
    4.5504    1.1399   -2.3152 H   0  0  0  0  0  0  0  0  0  0  0  0
    0.7203    0.6987    0.5010 H   0  0  0  0  0  0  0  0  0  0  0  0
    0.3800    0.1526   -1.1588 H   0  0  0  0  0  0  0  0  0  0  0  0
    0.9441   -0.9223    0.0955 H   0  0  0  0  0  0  0  0  0  0  0  0
    0.7883    2.3698   -0.9877 H   0  0  0  0  0  0  0  0  0  0  0  0
    8.2438   -3.1770    5.5479 H   0  0  0  0  0  0  0  0  0  0  0  0
    9.3112   -2.4703    4.4157 H   0  0  0  0  0  0  0  0  0  0  0  0
    4.2258    3.3824   -2.6279 H   0  0  0  0  0  0  0  0  0  0  0  0
    4.8162   -4.6169    7.5637 H   0  0  0  0  0  0  0  0  0  0  0  0
    4.4554   -3.2228    8.5955 H   0  0  0  0  0  0  0  0  0  0  0  0
    3.3657   -3.6600    7.2600 H   0  0  0  0  0  0  0  0  0  0  0  0
    7.2106   -2.0536    6.8452 H   0  0  0  0  0  0  0  0  0  0  0  0
    6.6118   -2.4196    8.3415 H   0  0  0  0  0  0  0  0  0  0  0  0
    7.0763   -3.7805    7.2530 H   0  0  0  0  0  0  0  0  0  0  0  0
    7.5122    1.1832    6.7218 H   0  0  0  0  0  0  0  0  0  0  0  0
    9.2504    1.1243    7.1389 H   0  0  0  0  0  0  0  0  0  0  0  0
    8.6617    2.1674    5.8268 H   0  0  0  0  0  0  0  0  0  0  0  0
  2 22  1  0  0  0  0
  3 22  1  0  0  0  0
  4 38  1  0  0  0  0
  5 20  2  0  0  0  0
  6 28  1  0  0  0  0
  6 33  1  0  0  0  0
  7 32  2  0  0  0  0
  8 33  2  0  0  0  0
  9 10  1  0  0  0  0
  9 11  1  0  0  0  0
  9 16  1  0  0  0  0
  9 35  1  1  0  0  0
 10 12  1  0  0  0  0
 10 18  1  0  0  0  0
 10 23  1  6  0  0  0
 11 13  1  0  0  0  0
 11 19  1  0  0  0  0
 11 36  1  6  0  0  0
 12  2  1  0  0  0  0
 12 14  1  0  0  0  0
 12 20  1  6  0  0  0
 13 15  1  0  0  0  0
 13 17  1  0  0  0  0
 13 37  1  1  0  0  0
 14  3  1  0  0  0  0
 14 16  1  0  0  0  0
 14 39  1  1  0  0  0
 15 21  1  0  0  0  0
 15 25  1  0  0  0  0
 15 26  1  1  0  0  0
 16 40  1  0  0  0  0
 16 41  1  0  0  0  0
 17  4  1  0  0  0  0
 17 18  1  0  0  0  0
 17 42  1  1  0  0  0
 18 43  1  0  0  0  0
 18 44  1  0  0  0  0
 19 24  1  0  0  0  0
 19 45  1  0  0  0  0
 19 46  1  0  0  0  0
 20 28  1  0  0  0  0
 21 24  1  0  0  0  0
 21 27  2  0  0  0  0
 22 30  1  0  0  0  0
 22 31  1  0  0  0  0
 23 47  1  0  0  0  0
 23 48  1  0  0  0  0
 23 49  1  0  0  0  0
 24  1  1  0  0  0  0
 24 50  1  6  0  0  0
 25 29  2  0  0  0  0
 25 51  1  0  0  0  0
 26 52  1  0  0  0  0
 26 53  1  0  0  0  0
 26 54  1  0  0  0  0
 27 32  1  0  0  0  0
 27 55  1  0  0  0  0
 28 56  1  0  0  0  0
 28 57  1  0  0  0  0
 29 32  1  0  0  0  0
 29 58  1  0  0  0  0
 30 59  1  0  0  0  0
 30 60  1  0  0  0  0
 30 61  1  0  0  0  0
 31 62  1  0  0  0  0
 31 63  1  0  0  0  0
 31 64  1  0  0  0  0
 33 34  1  0  0  0  0
 34 65  1  0  0  0  0
 34 66  1  0  0  0  0
 34 67  1  0  0  0  0
M  END
>  <DRUGBANK_ID>
DB14662

>  <SECONDARY_ACCESSION_NUMBERS>
DBSALT001846

>  <COMMON_NAME>
Flunisolide acetate

>  <CAS_NUMBER>
4533-89-5

>  <UNII>
N225H64CIH

>  <SYNONYMS>
Flunisolide 21-acetate; Flunisolide acetate

$$$$
