
 OpenBabel10282417183D

 99104  0  0  0  0  0  0  0  0999 V2000
    1.0230   -0.0907    0.1231 C   0  0  0  0  0  0  0  0  0  0  0  0
    0.3053   -1.2801    0.3412 C   0  0  0  0  0  0  0  0  0  0  0  0
   -1.0850   -1.2245    0.5957 C   0  0  0  0  0  0  0  0  0  0  0  0
   -1.8195   -0.0935    0.2742 C   0  0  0  0  0  0  0  0  0  0  0  0
   -1.0681    1.0440    0.0494 C   0  0  0  0  0  0  0  0  0  0  0  0
    0.3274    1.1033    0.0543 C   0  0  0  0  0  0  0  0  0  0  0  0
    0.9864    2.4617    0.0584 C   0  0  0  0  0  0  0  0  0  0  0  0
    0.5739    3.4366   -1.0227 C   0  0  0  0  0  0  0  0  0  0  0  0
    1.5714    3.8574   -1.9135 C   0  0  0  0  0  0  0  0  0  0  0  0
    1.3378    4.9109   -2.8044 C   0  0  0  0  0  0  0  0  0  0  0  0
    0.0435    5.4974   -2.7866 C   0  0  0  0  0  0  0  0  0  0  0  0
   -1.0249    4.8785   -2.1514 C   0  0  0  0  0  0  0  0  0  0  0  0
   -0.7163    3.9953   -1.1416 C   0  0  0  0  0  0  0  0  0  0  0  0
    0.9364   -2.5351    0.2500 N   0  0  0  0  0  0  0  0  0  0  0  0
   -2.3846    5.1431   -2.4918 N   0  0  0  0  0  0  0  0  0  0  0  0
    0.7361   -3.3981   -0.7853 N   0  0  0  0  0  0  0  0  0  0  0  0
    1.5293   -4.4429   -0.4809 C   0  0  0  0  0  0  0  0  0  0  0  0
    2.2246   -4.1011    0.7600 C   0  0  0  0  0  0  0  0  0  0  0  0
    1.9283   -2.8500    1.1051 N   0  0  0  0  0  0  0  0  0  0  0  0
   -3.2080    5.7259   -1.6009 N   0  0  0  0  0  0  0  0  0  0  0  0
   -4.3707    5.7789   -2.2430 C   0  0  0  0  0  0  0  0  0  0  0  0
   -4.2323    5.1826   -3.5682 C   0  0  0  0  0  0  0  0  0  0  0  0
   -2.9484    4.7833   -3.6917 N   0  0  0  0  0  0  0  0  0  0  0  0
   -5.3271    5.1263   -4.4674 C   0  0  0  0  0  0  0  0  0  0  0  0
   -6.5245    5.7140   -3.9850 C   0  0  0  0  0  0  0  0  0  0  0  0
   -6.6388    6.2934   -2.6947 C   0  0  0  0  0  0  0  0  0  0  0  0
   -5.5765    6.3325   -1.7805 C   0  0  0  0  0  0  0  0  0  0  0  0
    1.7358   -5.6747   -1.1384 C   0  0  0  0  0  0  0  0  0  0  0  0
    2.6310   -6.5503   -0.4788 C   0  0  0  0  0  0  0  0  0  0  0  0
    3.2660   -6.2285    0.7500 C   0  0  0  0  0  0  0  0  0  0  0  0
    3.0885   -5.0023    1.4089 C   0  0  0  0  0  0  0  0  0  0  0  0
   -1.6959    3.8326   -0.2133 O   0  0  0  0  0  0  0  0  0  0  0  0
    2.3770   -0.0567   -0.0578 O   0  0  0  0  0  0  0  0  0  0  0  0
    2.3984    5.3589   -3.8332 C   0  0  0  0  0  0  0  0  0  0  0  0
   -3.3407    0.0355    0.0491 C   0  0  0  0  0  0  0  0  0  0  0  0
   -3.9348    0.7315    1.3021 C   0  0  0  0  0  0  0  0  0  0  0  0
   -3.7940    0.9853   -1.1180 C   0  0  0  0  0  0  0  0  0  0  0  0
    2.0521    4.9355   -5.3399 C   0  0  0  0  0  0  0  0  0  0  0  0
    2.6234    6.8711   -3.6422 C   0  0  0  0  0  0  0  0  0  0  0  0
    3.8016    4.7351   -3.5410 C   0  0  0  0  0  0  0  0  0  0  0  0
    0.7164    5.3765   -6.0292 C   0  0  0  0  0  0  0  0  0  0  0  0
    0.5526    6.9079   -5.9949 C   0  0  0  0  0  0  0  0  0  0  0  0
    0.6301    4.9828   -7.5142 C   0  0  0  0  0  0  0  0  0  0  0  0
   -0.4664    4.5858   -5.4726 C   0  0  0  0  0  0  0  0  0  0  0  0
   -3.9478   -1.3753   -0.1848 C   0  0  0  0  0  0  0  0  0  0  0  0
   -3.5298   -2.1895   -1.4801 C   0  0  0  0  0  0  0  0  0  0  0  0
   -2.0350   -2.3891   -1.7371 C   0  0  0  0  0  0  0  0  0  0  0  0
   -4.1051   -3.6043   -1.3235 C   0  0  0  0  0  0  0  0  0  0  0  0
   -4.0510   -1.5786   -2.7809 C   0  0  0  0  0  0  0  0  0  0  0  0
   -1.5946   -2.1410    0.8978 H   0  0  0  0  0  0  0  0  0  0  0  0
   -1.6715    1.8812   -0.1565 H   0  0  0  0  0  0  0  0  0  0  0  0
    0.7763    2.9447    1.0202 H   0  0  0  0  0  0  0  0  0  0  0  0
    2.0768    2.3401    0.0514 H   0  0  0  0  0  0  0  0  0  0  0  0
    2.5516    3.3879   -1.8461 H   0  0  0  0  0  0  0  0  0  0  0  0
   -0.1958    6.3507   -3.4059 H   0  0  0  0  0  0  0  0  0  0  0  0
   -5.2715    4.6937   -5.4600 H   0  0  0  0  0  0  0  0  0  0  0  0
   -7.4054    5.7345   -4.6301 H   0  0  0  0  0  0  0  0  0  0  0  0
   -7.5895    6.7357   -2.3947 H   0  0  0  0  0  0  0  0  0  0  0  0
   -5.6457    6.7712   -0.7967 H   0  0  0  0  0  0  0  0  0  0  0  0
    1.2597   -5.9452   -2.0742 H   0  0  0  0  0  0  0  0  0  0  0  0
    2.8475   -7.5218   -0.9268 H   0  0  0  0  0  0  0  0  0  0  0  0
    3.9348   -6.9625    1.2027 H   0  0  0  0  0  0  0  0  0  0  0  0
    3.5694   -4.7482    2.3410 H   0  0  0  0  0  0  0  0  0  0  0  0
   -1.2774    3.5920    0.6265 H   0  0  0  0  0  0  0  0  0  0  0  0
    2.7532   -0.9430    0.0828 H   0  0  0  0  0  0  0  0  0  0  0  0
   -3.5842    1.7744    1.3697 H   0  0  0  0  0  0  0  0  0  0  0  0
   -5.0288    0.7829    1.2532 H   0  0  0  0  0  0  0  0  0  0  0  0
   -3.6417    0.2395    2.2315 H   0  0  0  0  0  0  0  0  0  0  0  0
   -3.2297    0.8386   -2.0366 H   0  0  0  0  0  0  0  0  0  0  0  0
   -4.8674    0.8674   -1.3246 H   0  0  0  0  0  0  0  0  0  0  0  0
   -3.6615    2.0513   -0.8967 H   0  0  0  0  0  0  0  0  0  0  0  0
    2.8799    5.2842   -5.9762 H   0  0  0  0  0  0  0  0  0  0  0  0
    2.0990    3.8359   -5.3985 H   0  0  0  0  0  0  0  0  0  0  0  0
    3.0768    7.0700   -2.6637 H   0  0  0  0  0  0  0  0  0  0  0  0
    3.2778    7.2760   -4.4188 H   0  0  0  0  0  0  0  0  0  0  0  0
    1.7089    7.4587   -3.6252 H   0  0  0  0  0  0  0  0  0  0  0  0
    4.1332    4.9645   -2.5197 H   0  0  0  0  0  0  0  0  0  0  0  0
    3.8082    3.6452   -3.6587 H   0  0  0  0  0  0  0  0  0  0  0  0
    4.5632    5.1361   -4.2204 H   0  0  0  0  0  0  0  0  0  0  0  0
    1.4283    7.3973   -6.4414 H   0  0  0  0  0  0  0  0  0  0  0  0
   -0.3352    7.2429   -6.5372 H   0  0  0  0  0  0  0  0  0  0  0  0
    0.4256    7.3222   -5.0027 H   0  0  0  0  0  0  0  0  0  0  0  0
    0.6506    3.8939   -7.6355 H   0  0  0  0  0  0  0  0  0  0  0  0
   -0.3400    5.3227   -7.9115 H   0  0  0  0  0  0  0  0  0  0  0  0
    1.4190    5.4254   -8.1192 H   0  0  0  0  0  0  0  0  0  0  0  0
   -0.5621    3.5757   -5.8803 H   0  0  0  0  0  0  0  0  0  0  0  0
   -0.3282    4.3115   -4.4550 H   0  0  0  0  0  0  0  0  0  0  0  0
   -1.4023    5.1309   -5.5962 H   0  0  0  0  0  0  0  0  0  0  0  0
   -3.7399   -1.9777    0.7125 H   0  0  0  0  0  0  0  0  0  0  0  0
   -5.0446   -1.2822   -0.1821 H   0  0  0  0  0  0  0  0  0  0  0  0
   -1.6243   -3.0220   -0.9528 H   0  0  0  0  0  0  0  0  0  0  0  0
   -1.8190   -2.9241   -2.6654 H   0  0  0  0  0  0  0  0  0  0  0  0
   -1.5044   -1.4386   -1.8410 H   0  0  0  0  0  0  0  0  0  0  0  0
   -5.1962   -3.5850   -1.2945 H   0  0  0  0  0  0  0  0  0  0  0  0
   -3.7884   -4.2361   -2.1603 H   0  0  0  0  0  0  0  0  0  0  0  0
   -3.7389   -4.0768   -0.4031 H   0  0  0  0  0  0  0  0  0  0  0  0
   -5.1085   -1.3229   -2.7162 H   0  0  0  0  0  0  0  0  0  0  0  0
   -3.4799   -0.6966   -3.0709 H   0  0  0  0  0  0  0  0  0  0  0  0
   -3.8954   -2.2699   -3.6149 H   0  0  0  0  0  0  0  0  0  0  0  0
  1  2  1  0  0  0  0
  1  6  2  0  0  0  0
  1 33  1  0  0  0  0
  2  3  2  0  0  0  0
  2 14  1  0  0  0  0
  3  4  1  0  0  0  0
  3 50  1  0  0  0  0
  4  5  2  0  0  0  0
  4 35  1  0  0  0  0
  5  6  1  0  0  0  0
  5 51  1  0  0  0  0
  6  7  1  0  0  0  0
  7  8  1  0  0  0  0
  7 52  1  0  0  0  0
  7 53  1  0  0  0  0
  8  9  1  0  0  0  0
  8 13  2  0  0  0  0
  9 10  2  0  0  0  0
  9 54  1  0  0  0  0
 10 11  1  0  0  0  0
 10 34  1  0  0  0  0
 11 12  2  0  0  0  0
 11 55  1  0  0  0  0
 12 13  1  0  0  0  0
 12 15  1  0  0  0  0
 13 32  1  0  0  0  0
 14 16  1  0  0  0  0
 14 19  1  0  0  0  0
 15 20  1  0  0  0  0
 15 23  1  0  0  0  0
 16 17  2  0  0  0  0
 17 28  1  0  0  0  0
 18 19  2  0  0  0  0
 18 17  1  0  0  0  0
 20 21  2  0  0  0  0
 21 22  1  0  0  0  0
 22 23  2  0  0  0  0
 22 24  1  0  0  0  0
 24 25  2  0  0  0  0
 24 56  1  0  0  0  0
 25 26  1  0  0  0  0
 25 57  1  0  0  0  0
 26 27  2  0  0  0  0
 26 58  1  0  0  0  0
 27 21  1  0  0  0  0
 27 59  1  0  0  0  0
 28 29  2  0  0  0  0
 28 60  1  0  0  0  0
 29 30  1  0  0  0  0
 29 61  1  0  0  0  0
 30 31  2  0  0  0  0
 30 62  1  0  0  0  0
 31 18  1  0  0  0  0
 31 63  1  0  0  0  0
 32 64  1  0  0  0  0
 33 65  1  0  0  0  0
 34 38  1  0  0  0  0
 34 39  1  0  0  0  0
 34 40  1  0  0  0  0
 35 36  1  0  0  0  0
 35 37  1  0  0  0  0
 35 45  1  0  0  0  0
 36 66  1  0  0  0  0
 36 67  1  0  0  0  0
 36 68  1  0  0  0  0
 37 69  1  0  0  0  0
 37 70  1  0  0  0  0
 37 71  1  0  0  0  0
 38 41  1  0  0  0  0
 38 72  1  0  0  0  0
 38 73  1  0  0  0  0
 39 74  1  0  0  0  0
 39 75  1  0  0  0  0
 39 76  1  0  0  0  0
 40 77  1  0  0  0  0
 40 78  1  0  0  0  0
 40 79  1  0  0  0  0
 41 42  1  0  0  0  0
 41 43  1  0  0  0  0
 41 44  1  0  0  0  0
 42 80  1  0  0  0  0
 42 81  1  0  0  0  0
 42 82  1  0  0  0  0
 43 83  1  0  0  0  0
 43 84  1  0  0  0  0
 43 85  1  0  0  0  0
 44 86  1  0  0  0  0
 44 87  1  0  0  0  0
 44 88  1  0  0  0  0
 45 46  1  0  0  0  0
 45 89  1  0  0  0  0
 45 90  1  0  0  0  0
 46 47  1  0  0  0  0
 46 48  1  0  0  0  0
 46 49  1  0  0  0  0
 47 91  1  0  0  0  0
 47 92  1  0  0  0  0
 47 93  1  0  0  0  0
 48 94  1  0  0  0  0
 48 95  1  0  0  0  0
 48 96  1  0  0  0  0
 49 97  1  0  0  0  0
 49 98  1  0  0  0  0
 49 99  1  0  0  0  0
M  END
>  <DRUGBANK_ID>
DB11262

>  <COMMON_NAME>
Bisoctrizole

>  <CAS_NUMBER>
103597-45-1

>  <UNII>
8NT850T0YS

>  <SYNONYMS>
Bisoctrizole; MBBT

$$$$
