M77
 OpenBabel10282417173D

 37 39  0  0  0  0  0  0  0  0999 V2000
    0.8394    0.0013   -0.2069 O   0  0  0  0  0  0  0  0  0  0  0  0
    2.2382   -0.0857    0.1284 S   0  0  0  0  0  0  0  0  0  0  0  0
    2.6656   -1.1605    1.0126 O   0  0  0  0  0  0  0  0  0  0  0  0
    3.1630   -0.1625   -1.3510 N   0  0  0  0  0  0  0  0  0  0  0  0
    3.9037   -1.4205   -1.6975 C   0  0  0  0  0  0  0  0  0  0  0  0
    4.9872   -1.7801   -0.6717 C   0  0  0  0  0  0  0  0  0  0  0  0
    6.0666   -0.7721   -0.4767 N   0  0  0  0  0  0  0  0  0  0  0  0
    5.5344    0.5014   -0.0105 C   0  0  0  0  0  0  0  0  0  0  0  0
    5.0062    1.4966   -1.0451 C   0  0  0  0  0  0  0  0  0  0  0  0
    3.8782    1.0014   -1.9345 C   0  0  0  0  0  0  0  0  0  0  0  0
    2.6918    1.4731    0.9593 C   0  0  0  0  0  0  0  0  0  0  0  0
    3.5531    1.4708    2.0886 C   0  0  0  0  0  0  0  0  0  0  0  0
    4.0564    2.6673    2.6055 C   0  0  0  0  0  0  0  0  0  0  0  0
    3.6152    3.8758    2.0769 C   0  0  0  0  0  0  0  0  0  0  0  0
    2.7259    3.8968    0.9825 C   0  0  0  0  0  0  0  0  0  0  0  0
    2.2652    2.6962    0.3961 C   0  0  0  0  0  0  0  0  0  0  0  0
    1.4762    2.7991   -0.7636 C   0  0  0  0  0  0  0  0  0  0  0  0
    2.3070    5.0921    0.3963 C   0  0  0  0  0  0  0  0  0  0  0  0
    1.5374    5.1860   -0.7139 N   0  0  0  0  0  0  0  0  0  0  0  0
    1.1489    4.0328   -1.2755 C   0  0  0  0  0  0  0  0  0  0  0  0
    4.4158   -1.2924   -2.6650 H   0  0  0  0  0  0  0  0  0  0  0  0
    3.1988   -2.2392   -1.8708 H   0  0  0  0  0  0  0  0  0  0  0  0
    5.4650   -2.7117   -0.9862 H   0  0  0  0  0  0  0  0  0  0  0  0
    4.5388   -2.0250    0.2920 H   0  0  0  0  0  0  0  0  0  0  0  0
    6.6089   -1.1353    0.3133 H   0  0  0  0  0  0  0  0  0  0  0  0
    6.2472    1.0279    0.6324 H   0  0  0  0  0  0  0  0  0  0  0  0
    4.7686    0.1962    0.6750 H   0  0  0  0  0  0  0  0  0  0  0  0
    4.6512    2.3915   -0.5280 H   0  0  0  0  0  0  0  0  0  0  0  0
    5.8292    1.8752   -1.6564 H   0  0  0  0  0  0  0  0  0  0  0  0
    3.1918    1.7940   -2.2342 H   0  0  0  0  0  0  0  0  0  0  0  0
    4.3222    0.7271   -2.9026 H   0  0  0  0  0  0  0  0  0  0  0  0
    3.9522    0.5411    2.4999 H   0  0  0  0  0  0  0  0  0  0  0  0
    4.8065    2.6597    3.3972 H   0  0  0  0  0  0  0  0  0  0  0  0
    3.9878    4.8054    2.5069 H   0  0  0  0  0  0  0  0  0  0  0  0
    1.1542    1.9352   -1.3352 H   0  0  0  0  0  0  0  0  0  0  0  0
    2.6011    6.0524    0.8096 H   0  0  0  0  0  0  0  0  0  0  0  0
    0.5586    4.0982   -2.1836 H   0  0  0  0  0  0  0  0  0  0  0  0
  1  2  2  0  0  0  0
  2  3  2  0  0  0  0
  2  4  1  0  0  0  0
  2 11  1  0  0  0  0
  4  5  1  0  0  0  0
  4 10  1  0  0  0  0
  5  6  1  0  0  0  0
  5 21  1  0  0  0  0
  5 22  1  0  0  0  0
  6  7  1  0  0  0  0
  6 23  1  0  0  0  0
  6 24  1  0  0  0  0
  7  8  1  0  0  0  0
  7 25  1  0  0  0  0
  8  9  1  0  0  0  0
  8 26  1  0  0  0  0
  8 27  1  0  0  0  0
  9 10  1  0  0  0  0
  9 28  1  0  0  0  0
  9 29  1  0  0  0  0
 10 30  1  0  0  0  0
 10 31  1  0  0  0  0
 11 12  2  0  0  0  0
 11 16  1  0  0  0  0
 12 13  1  0  0  0  0
 12 32  1  0  0  0  0
 13 14  2  0  0  0  0
 13 33  1  0  0  0  0
 14 15  1  0  0  0  0
 14 34  1  0  0  0  0
 15 16  2  0  0  0  0
 15 18  1  0  0  0  0
 16 17  1  0  0  0  0
 17 20  2  0  0  0  0
 17 35  1  0  0  0  0
 18 19  2  0  0  0  0
 18 36  1  0  0  0  0
 19 20  1  0  0  0  0
 20 37  1  0  0  0  0
M  END
>  <DRUGBANK_ID>
DB08162

>  <SECONDARY_ACCESSION_NUMBERS>
DB12469

>  <COMMON_NAME>
Fasudil

>  <CAS_NUMBER>
103745-39-7

>  <UNII>
Q0CH43PGXS

>  <SYNONYMS>
Fasudil

$$$$
