
 OpenBabel10282417123D

 15 15  0  0  1  0  0  0  0  0999 V2000
    0.0052    1.3382   -0.2362 C   0  0  0  0  0  0  0  0  0  0  0  0
   -0.1467   -1.2288   -0.3575 C   0  0  0  0  0  0  0  0  0  0  0  0
   -1.3991    0.7712    0.0006 C   0  0  1  0  0  0  0  0  0  0  0  0
   -2.3351    1.1670   -1.1370 C   0  0  0  0  0  0  0  0  0  0  0  0
   -1.3954   -0.7118    0.1896 N   0  0  0  0  0  0  0  0  0  0  0  0
   -3.3265    1.8755   -1.0279 O   0  0  0  0  0  0  0  0  0  0  0  0
   -1.9787    0.6773   -2.3435 O   0  0  0  0  0  0  0  0  0  0  0  0
    1.1201   -0.0408    0.0893 S   0  0  0  0  0  0  0  0  0  0  0  0
   -1.8166    1.2184    0.9124 H   0  0  0  0  0  0  0  0  0  0  0  0
    0.1630    1.6779   -1.2645 H   0  0  0  0  0  0  0  0  0  0  0  0
    0.2300    2.1645    0.4437 H   0  0  0  0  0  0  0  0  0  0  0  0
    0.0840   -2.2167    0.0513 H   0  0  0  0  0  0  0  0  0  0  0  0
   -0.2020   -1.3155   -1.4468 H   0  0  0  0  0  0  0  0  0  0  0  0
   -1.3626   -0.8849    1.1945 H   0  0  0  0  0  0  0  0  0  0  0  0
   -2.6813    0.9819   -2.9549 H   0  0  0  0  0  0  0  0  0  0  0  0
  1 10  1  0  0  0  0
  1 11  1  0  0  0  0
  2 12  1  0  0  0  0
  2 13  1  0  0  0  0
  3  1  1  0  0  0  0
  3  4  1  0  0  0  0
  3  9  1  1  0  0  0
  5  2  1  0  0  0  0
  5  3  1  0  0  0  0
  5 14  1  0  0  0  0
  6  4  2  0  0  0  0
  7  4  1  0  0  0  0
  7 15  1  0  0  0  0
  8  1  1  0  0  0  0
  8  2  1  0  0  0  0
M  END
>  <DRUGBANK_ID>
DB02846

>  <SECONDARY_ACCESSION_NUMBERS>
EXPT02664

>  <COMMON_NAME>
L-thioproline

>  <CAS_NUMBER>
2756-91-4

>  <UNII>
KL096K0KXL

>  <SYNONYMS>
(4R)-4-Thiazolidinecarboxylic acid; (R)-(-)-4-Thiazolidinecarboxylic acid; (R)-4-Thiazolidinecarboxylic acid; 4-thiaproline; L-thiaproline; L-Thiazolidine-4-carboxylic acid; Thiazolidinecarboxylic acid; Î³-thioproline

$$$$
