
 OpenBabel10282417123D

 25 24  0  0  1  0  0  0  0  0999 V2000
    1.0476    0.1639    0.1348 C   0  0  0  0  0  0  0  0  0  0  0  0
    0.5714    1.0745   -0.9811 C   0  0  0  0  0  0  0  0  0  0  0  0
    1.1579    0.7343   -2.3555 C   0  0  0  0  0  0  0  0  0  0  0  0
    0.2365   -3.3814   -2.7125 C   0  0  0  0  0  0  0  0  0  0  0  0
   -1.3006   -3.2786   -2.6193 C   0  0  1  0  0  0  0  0  0  0  0  0
    0.8603   -0.6231   -2.9862 C   0  0  0  0  0  0  0  0  0  0  0  0
   -1.8779   -2.1145   -3.4221 C   0  0  0  0  0  0  0  0  0  0  0  0
   -1.8775   -4.5458   -3.1679 N   0  0  0  0  0  0  0  0  0  0  0  0
    0.3997   -0.7050   -4.1194 O   0  0  0  0  0  0  0  0  0  0  0  0
   -2.3303   -2.1753   -4.5495 O   0  0  0  0  0  0  0  0  0  0  0  0
   -1.7925   -0.9345   -2.7700 O   0  0  0  0  0  0  0  0  0  0  0  0
    1.3268   -2.0626   -2.0887 S   0  0  0  0  0  0  0  0  0  0  0  0
   -1.6387   -3.1948   -1.5805 H   0  0  0  0  0  0  0  0  0  0  0  0
    0.5959   -0.8241    0.0452 H   0  0  0  0  0  0  0  0  0  0  0  0
    0.7413    0.5303    1.1162 H   0  0  0  0  0  0  0  0  0  0  0  0
    2.1386    0.0715    0.1158 H   0  0  0  0  0  0  0  0  0  0  0  0
   -0.5243    1.0802   -1.0109 H   0  0  0  0  0  0  0  0  0  0  0  0
    0.8783    2.0994   -0.7282 H   0  0  0  0  0  0  0  0  0  0  0  0
    0.7616    1.4875   -3.0538 H   0  0  0  0  0  0  0  0  0  0  0  0
    2.2442    0.8653   -2.3516 H   0  0  0  0  0  0  0  0  0  0  0  0
    0.5552   -3.6017   -3.7354 H   0  0  0  0  0  0  0  0  0  0  0  0
    0.5225   -4.2592   -2.1127 H   0  0  0  0  0  0  0  0  0  0  0  0
   -2.8915   -4.4269   -3.2383 H   0  0  0  0  0  0  0  0  0  0  0  0
   -1.5847   -4.6153   -4.1490 H   0  0  0  0  0  0  0  0  0  0  0  0
   -1.7354   -0.2996   -3.5218 H   0  0  0  0  0  0  0  0  0  0  0  0
  1 14  1  0  0  0  0
  1 15  1  0  0  0  0
  1 16  1  0  0  0  0
  2  1  1  0  0  0  0
  2 17  1  0  0  0  0
  2 18  1  0  0  0  0
  3  2  1  0  0  0  0
  3 19  1  0  0  0  0
  3 20  1  0  0  0  0
  4 21  1  0  0  0  0
  4 22  1  0  0  0  0
  5  4  1  0  0  0  0
  5  8  1  0  0  0  0
  5 13  1  1  0  0  0
  6  3  1  0  0  0  0
  7  5  1  0  0  0  0
  8 23  1  0  0  0  0
  8 24  1  0  0  0  0
  9  6  2  0  0  0  0
 10  7  2  0  0  0  0
 11  7  1  0  0  0  0
 11 25  1  0  0  0  0
 12  4  1  0  0  0  0
 12  6  1  0  0  0  0
M  END
>  <DRUGBANK_ID>
DB02160

>  <SECONDARY_ACCESSION_NUMBERS>
EXPT01074

>  <COMMON_NAME>
S-Butyryl-Cystein

$$$$
