
 OpenBabel10282417133D

 11 10  0  0  0  0  0  0  0  0999 V2000
    1.0471   -0.0369   -0.0694 C   0  0  0  0  0  0  0  0  0  0  0  0
    0.5767   -1.3102    0.5419 C   0  0  0  0  0  0  0  0  0  0  0  0
   -0.1616   -1.2474    1.5897 N   0  3  0  0  0  0  0  0  0  0  0  0
    0.9207   -2.6542   -0.0025 C   0  0  0  0  0  0  0  0  0  0  0  0
    1.6444   -2.6643   -1.0273 O   0  5  0  0  0  0  0  0  0  0  0  0
    0.4096   -3.5852    0.6811 O   0  0  0  0  0  0  0  0  0  0  0  0
    0.6901    0.8427    0.4734 H   0  0  0  0  0  0  0  0  0  0  0  0
    0.6892    0.0164   -1.1019 H   0  0  0  0  0  0  0  0  0  0  0  0
    2.1410   -0.0275   -0.0762 H   0  0  0  0  0  0  0  0  0  0  0  0
   -0.4607   -2.1548    1.9742 H   0  0  0  0  0  0  0  0  0  0  0  0
   -0.4443   -0.3790    2.0270 H   0  0  0  0  0  0  0  0  0  0  0  0
  1  2  1  0  0  0  0
  1  7  1  0  0  0  0
  1  8  1  0  0  0  0
  1  9  1  0  0  0  0
  2  3  2  0  0  0  0
  2  4  1  0  0  0  0
  3 10  1  0  0  0  0
  3 11  1  0  0  0  0
  4  5  1  0  0  0  0
  4  6  2  0  0  0  0
M  CHG  2   3   1   5  -1
M  END
>  <DRUGBANK_ID>
DB04212

>  <SECONDARY_ACCESSION_NUMBERS>
EXPT02290

>  <COMMON_NAME>
2-Iminiopropanoate

$$$$
