
 OpenBabel10282417233D

 83 88  0  0  1  0  0  0  0  0999 V2000
   -0.7404    1.1338    0.0959 C   0  0  0  0  0  0  0  0  0  0  0  0
   -1.4029   -0.0892   -0.0520 C   0  0  0  0  0  0  0  0  0  0  0  0
   -0.6460   -1.2356   -0.0493 C   0  0  0  0  0  0  0  0  0  0  0  0
    0.7447   -1.1405    0.0965 C   0  0  0  0  0  0  0  0  0  0  0  0
    1.4607    0.0381   -0.1122 C   0  0  0  0  0  0  0  0  0  0  0  0
    0.6593    1.2327   -0.0579 C   0  0  0  0  0  0  0  0  0  0  0  0
    1.3396    2.5544   -0.1979 C   0  0  0  0  0  0  0  0  0  0  0  0
    2.3349    2.7517    0.9042 C   0  0  0  0  0  0  0  0  0  0  0  0
    3.4290    1.6423    0.7136 C   0  0  0  0  0  0  0  0  0  0  0  0
    3.5384   -0.1436   -0.3934 C   0  0  1  0  0  0  0  0  0  0  0  0
    5.3058   -1.6224   -1.1582 C   0  0  0  0  0  0  0  0  0  0  0  0
    7.6098   -2.8485   -0.8147 N   0  0  0  0  0  0  0  0  0  0  0  0
    6.0788   -1.4621   -0.6525 C   0  0  0  0  0  0  0  0  0  0  0  0
    5.8212   -1.0712    0.6860 C   0  0  0  0  0  0  0  0  0  0  0  0
    5.0415   -0.0186    1.1185 O   0  0  0  0  0  0  0  0  0  0  0  0
    3.6574   -0.4309    1.0940 C   0  0  0  0  0  0  0  0  0  0  0  0
    6.4672   -1.9097    1.4910 C   0  0  0  0  0  0  0  0  0  0  0  0
    7.1767   -3.0632    1.1352 C   0  0  0  0  0  0  0  0  0  0  0  0
    6.9085   -3.9257    0.1041 C   0  0  0  0  0  0  0  0  0  0  0  0
    6.4294   -2.8241   -1.2090 C   0  0  0  0  0  0  0  0  0  0  0  0
    7.7321   -4.8111   -0.9069 C   0  0  0  0  0  0  0  0  0  0  0  0
    8.4196   -5.7147    0.0991 N   0  0  0  0  0  0  0  0  0  0  0  0
    9.4956   -6.8247   -0.6340 S   0  0  0  0  0  0  0  0  0  0  0  0
   10.9968   -6.1764   -0.4356 C   0  0  1  0  0  0  0  0  0  0  0  0
   11.2188   -6.0368    1.9560 C   0  0  2  0  0  0  0  0  0  0  0  0
   10.8207   -7.8012    2.1678 C   0  0  0  0  0  0  0  0  0  0  0  0
   11.3406   -9.1683    1.6647 C   0  0  0  0  0  0  0  0  0  0  0  0
   12.1454   -9.8988    2.4618 C   0  0  0  0  0  0  0  0  0  0  0  0
   13.1467  -10.7301    1.7971 C   0  0  1  0  0  0  0  0  0  0  0  0
   13.1756   -8.6187    1.2488 C   0  0  1  0  0  0  0  0  0  0  0  0
   11.6533   -6.5100    0.7206 C   0  0  2  0  0  0  0  0  0  0  0  0
    9.7173   -4.5728   -0.1193 C   0  0  0  0  0  0  0  0  0  0  0  0
   13.5172   -7.9650    2.1303 C   0  0  0  0  0  0  0  0  0  0  0  0
   14.5140   -9.3292    2.8053 C   0  0  0  0  0  0  0  0  0  0  0  0
   12.6246  -12.0903    2.4603 O   0  0  0  0  0  0  0  0  0  0  0  0
   12.7490  -12.0928    3.8708 C   0  0  0  0  0  0  0  0  0  0  0  0
   10.5393   -4.9887    2.0962 C   0  0  0  0  0  0  0  0  0  0  0  0
   12.1965   -7.6954   -0.7397 C   0  0  0  0  0  0  0  0  0  0  0  0
    9.0978   -8.0033    0.0471 O   0  0  0  0  0  0  0  0  0  0  0  0
    9.5185   -6.7931   -2.0577 O   0  0  0  0  0  0  0  0  0  0  0  0
    8.0112   -4.7662   -2.1271 O   0  0  0  0  0  0  0  0  0  0  0  0
   -3.1385   -0.1841   -0.2407 Cl  0  0  0  0  0  0  0  0  0  0  0  0
   -1.3030    2.0285    0.3162 H   0  0  0  0  0  0  0  0  0  0  0  0
   -1.1276   -2.1943   -0.1577 H   0  0  0  0  0  0  0  0  0  0  0  0
    1.3256   -2.0096    0.3268 H   0  0  0  0  0  0  0  0  0  0  0  0
    1.8640    2.5902   -1.1516 H   0  0  0  0  0  0  0  0  0  0  0  0
    0.6037    3.3458   -0.1804 H   0  0  0  0  0  0  0  0  0  0  0  0
    2.8196    3.7192    0.8189 H   0  0  0  0  0  0  0  0  0  0  0  0
    1.8177    2.7269    1.8755 H   0  0  0  0  0  0  0  0  0  0  0  0
    4.0781    1.7871    1.6747 H   0  0  0  0  0  0  0  0  0  0  0  0
    2.7147    0.9788    0.9907 H   0  0  0  0  0  0  0  0  0  0  0  0
    3.5015   -1.7292   -1.2724 H   0  0  0  0  0  0  0  0  0  0  0  0
    3.7548   -0.7946   -1.9178 H   0  0  0  0  0  0  0  0  0  0  0  0
    3.0724    0.0868    2.0096 H   0  0  0  0  0  0  0  0  0  0  0  0
    3.4000   -1.4115    1.1659 H   0  0  0  0  0  0  0  0  0  0  0  0
    6.4455   -1.7079    2.5270 H   0  0  0  0  0  0  0  0  0  0  0  0
    7.7155   -3.6511    1.7364 H   0  0  0  0  0  0  0  0  0  0  0  0
    6.5118   -2.7358   -2.4186 H   0  0  0  0  0  0  0  0  0  0  0  0
    8.5823   -5.1834    1.0187 H   0  0  0  0  0  0  0  0  0  0  0  0
   11.8158   -5.5194   -0.5927 H   0  0  0  0  0  0  0  0  0  0  0  0
   12.6134   -6.2425    1.9232 H   0  0  0  0  0  0  0  0  0  0  0  0
   10.9972   -7.7377    3.1757 H   0  0  0  0  0  0  0  0  0  0  0  0
    9.8649   -7.8671    1.8021 H   0  0  0  0  0  0  0  0  0  0  0  0
   11.6753   -9.3857    0.6520 H   0  0  0  0  0  0  0  0  0  0  0  0
   12.3088   -9.5661    3.4763 H   0  0  0  0  0  0  0  0  0  0  0  0
   13.0677  -11.0407    0.7910 H   0  0  0  0  0  0  0  0  0  0  0  0
   14.3096  -10.0112    1.2804 H   0  0  0  0  0  0  0  0  0  0  0  0
   12.4721   -7.9132    1.3546 H   0  0  0  0  0  0  0  0  0  0  0  0
    8.8976   -3.3865   -1.2275 H   0  0  0  0  0  0  0  0  0  0  0  0
    8.8051   -3.2440   -0.9513 H   0  0  0  0  0  0  0  0  0  0  0  0
   14.6791   -9.0365    3.2056 H   0  0  0  0  0  0  0  0  0  0  0  0
   14.8028   -9.2767    2.6551 H   0  0  0  0  0  0  0  0  0  0  0  0
   15.4305   -8.2650    2.6914 H   0  0  0  0  0  0  0  0  0  0  0  0
   13.8267   -9.2369    3.9546 H   0  0  0  0  0  0  0  0  0  0  0  0
   13.7851  -11.9865    4.1573 H   0  0  0  0  0  0  0  0  0  0  0  0
   12.1829  -11.2573    4.2560 H   0  0  0  0  0  0  0  0  0  0  0  0
   12.3459  -12.9996    4.3020 H   0  0  0  0  0  0  0  0  0  0  0  0
    9.7030   -5.3704    1.7219 H   0  0  0  0  0  0  0  0  0  0  0  0
   10.7315   -5.2265    3.0781 H   0  0  0  0  0  0  0  0  0  0  0  0
   11.1492   -4.3507    1.5528 H   0  0  0  0  0  0  0  0  0  0  0  0
   12.1063   -7.8031   -1.7255 H   0  0  0  0  0  0  0  0  0  0  0  0
   13.2166   -7.6237   -0.3403 H   0  0  0  0  0  0  0  0  0  0  0  0
   11.7434   -8.5355   -0.3962 H   0  0  0  0  0  0  0  0  0  0  0  0
  1  6  1  0  0  0  0
  1 43  1  0  0  0  0
  2  1  2  0  0  0  0
  2 42  1  0  0  0  0
  3  2  1  0  0  0  0
  3 44  1  0  0  0  0
  4  3  2  0  0  0  0
  4 45  1  0  0  0  0
  5  4  1  0  0  0  0
  6  5  2  0  0  0  0
  6  7  1  0  0  0  0
  7  8  1  0  0  0  0
  7 46  1  0  0  0  0
  7 47  1  0  0  0  0
  8  9  1  0  0  0  0
  8 48  1  0  0  0  0
  8 49  1  0  0  0  0
  9 50  1  0  0  0  0
  9 51  1  0  0  0  0
 10  9  1  0  0  0  0
 10  5  1  1  0  0  0
 10 11  1  0  0  0  0
 10 16  1  0  0  0  0
 11 12  1  0  0  0  0
 11 52  1  0  0  0  0
 11 53  1  0  0  0  0
 12 13  1  0  0  0  0
 12 32  1  0  0  0  0
 13 14  2  0  0  0  0
 13 20  1  0  0  0  0
 14 15  1  0  0  0  0
 14 17  1  0  0  0  0
 16 15  1  0  0  0  0
 16 54  1  0  0  0  0
 16 55  1  0  0  0  0
 17 18  2  0  0  0  0
 17 56  1  0  0  0  0
 18 19  1  0  0  0  0
 18 57  1  0  0  0  0
 19 20  2  0  0  0  0
 19 21  1  0  0  0  0
 20 58  1  0  0  0  0
 21 22  1  0  0  0  0
 21 41  2  0  0  0  0
 22 23  1  0  0  0  0
 22 59  1  0  0  0  0
 23 39  2  0  0  0  0
 23 40  2  0  0  0  0
 24 23  1  0  0  0  0
 24 38  1  0  0  0  0
 24 60  1  6  0  0  0
 25 24  1  0  0  0  0
 25 61  1  1  0  0  0
 25 37  1  0  0  0  0
 26 25  1  0  0  0  0
 26 62  1  0  0  0  0
 26 63  1  0  0  0  0
 27 26  1  0  0  0  0
 27 64  1  0  0  0  0
 28 27  2  0  0  0  0
 28 65  1  0  0  0  0
 29 28  1  0  0  0  0
 29 35  1  0  0  0  0
 29 66  1  6  0  0  0
 30 29  1  0  0  0  0
 30 34  1  0  0  0  0
 30 67  1  6  0  0  0
 31 30  1  0  0  0  0
 31 33  1  0  0  0  0
 31 68  1  1  0  0  0
 32 31  1  0  0  0  0
 32 69  1  0  0  0  0
 32 70  1  0  0  0  0
 33 71  1  0  0  0  0
 33 72  1  0  0  0  0
 34 33  1  0  0  0  0
 34 73  1  0  0  0  0
 34 74  1  0  0  0  0
 35 36  1  0  0  0  0
 36 75  1  0  0  0  0
 36 76  1  0  0  0  0
 36 77  1  0  0  0  0
 37 78  1  0  0  0  0
 37 79  1  0  0  0  0
 37 80  1  0  0  0  0
 38 81  1  0  0  0  0
 38 82  1  0  0  0  0
 38 83  1  0  0  0  0
M  END
>  <DRUGBANK_ID>
DB17166

>  <COMMON_NAME>
Tapotoclax

>  <CAS_NUMBER>
1883727-34-1

>  <UNII>
97W7N9T08G

>  <SYNONYMS>
MCL-1 inhibitor AMG 176; MCL-1 inhibitor AMG-176

$$$$
