
 OpenBabel10282417233D

 27 27  0  0  1  0  0  0  0  0999 V2000
    1.1442   -1.5184   -1.9345 C   0  0  0  0  0  0  0  0  0  0  0  0
    0.4429   -0.2334   -1.4993 C   0  0  2  0  0  0  0  0  0  0  0  0
    0.9138    0.0511   -0.1534 O   0  0  0  0  0  0  0  0  0  0  0  0
    1.0580    1.2993    0.3532 C   0  0  0  0  0  0  0  0  0  0  0  0
    0.7277    2.3388   -0.4530 N   0  0  0  0  0  0  0  0  0  0  0  0
    1.4111    1.4901    1.5117 O   0  0  0  0  0  0  0  0  0  0  0  0
   -1.1092   -0.3033   -1.4875 C   0  0  1  0  0  0  0  0  0  0  0  0
   -1.6345    0.9529   -1.0150 O   0  0  0  0  0  0  0  0  0  0  0  0
   -1.6573   -0.5450   -2.8788 C   0  0  0  0  0  0  0  0  0  0  0  0
   -1.9740    0.5480   -3.7118 C   0  0  0  0  0  0  0  0  0  0  0  0
   -2.3634    0.3526   -5.0362 C   0  0  0  0  0  0  0  0  0  0  0  0
   -2.3974   -0.9330   -5.5659 C   0  0  0  0  0  0  0  0  0  0  0  0
   -2.0921   -2.0263   -4.7592 C   0  0  0  0  0  0  0  0  0  0  0  0
   -1.7742   -1.8404   -3.4137 C   0  0  0  0  0  0  0  0  0  0  0  0
   -1.5351   -3.2703   -2.4657 Cl  0  0  0  0  0  0  0  0  0  0  0  0
    2.2166   -1.3318   -2.0382 H   0  0  0  0  0  0  0  0  0  0  0  0
    0.8112   -1.8740   -2.9115 H   0  0  0  0  0  0  0  0  0  0  0  0
    1.0284   -2.3159   -1.1925 H   0  0  0  0  0  0  0  0  0  0  0  0
    0.7867    0.5495   -2.1827 H   0  0  0  0  0  0  0  0  0  0  0  0
    0.7406    3.2607   -0.0403 H   0  0  0  0  0  0  0  0  0  0  0  0
    0.2705    2.2422   -1.3475 H   0  0  0  0  0  0  0  0  0  0  0  0
   -1.4754   -1.0522   -0.7776 H   0  0  0  0  0  0  0  0  0  0  0  0
   -1.3411    1.0455   -0.0899 H   0  0  0  0  0  0  0  0  0  0  0  0
   -1.9275    1.5672   -3.3286 H   0  0  0  0  0  0  0  0  0  0  0  0
   -2.6315    1.2056   -5.6546 H   0  0  0  0  0  0  0  0  0  0  0  0
   -2.6789   -1.0889   -6.6031 H   0  0  0  0  0  0  0  0  0  0  0  0
   -2.1086   -3.0280   -5.1801 H   0  0  0  0  0  0  0  0  0  0  0  0
  1 16  1  0  0  0  0
  1 17  1  0  0  0  0
  1 18  1  0  0  0  0
  2  7  1  0  0  0  0
  2 19  1  6  0  0  0
  2  3  1  0  0  0  0
  2  1  1  0  0  0  0
  3  4  1  0  0  0  0
  4  5  1  0  0  0  0
  4  6  2  0  0  0  0
  5 20  1  0  0  0  0
  5 21  1  0  0  0  0
  7  8  1  0  0  0  0
  7  9  1  0  0  0  0
  7 22  1  1  0  0  0
  8 23  1  0  0  0  0
  9 10  2  0  0  0  0
  9 14  1  0  0  0  0
 10 11  1  0  0  0  0
 10 24  1  0  0  0  0
 11 12  2  0  0  0  0
 11 25  1  0  0  0  0
 12 13  1  0  0  0  0
 12 26  1  0  0  0  0
 13 14  2  0  0  0  0
 13 27  1  0  0  0  0
 14 15  1  0  0  0  0
M  END
>  <DRUGBANK_ID>
DB16034

>  <COMMON_NAME>
JBPOS0101

>  <CAS_NUMBER>
1353949-71-9

>  <UNII>
D7NM51C3GU

$$$$
