900
 OpenBabel10282417113D

 29 31  0  0  1  0  0  0  0  0999 V2000
    1.1248   -0.0386    0.0071 O   0  0  0  0  0  0  0  0  0  0  0  0
    1.3001    3.3630    0.0712 O   0  0  0  0  0  0  0  0  0  0  0  0
   -0.2871   -4.2048    5.2562 O   0  0  0  0  0  0  0  0  0  0  0  0
    0.3650   -1.7640    1.4548 N   0  0  0  0  0  0  0  0  0  0  0  0
   -1.1472   -3.7051    1.3273 N   0  0  0  0  0  0  0  0  0  0  0  0
    0.9165   -1.9819    3.6120 N   0  0  0  0  0  0  0  0  0  0  0  0
   -1.4319   -4.9031    3.3850 N   0  0  0  0  0  0  0  0  0  0  0  0
    0.2660   -1.1905    0.1192 C   0  0  1  0  0  0  0  0  0  0  0  0
   -1.1414   -0.7136   -0.2020 C   0  0  0  0  0  0  0  0  0  0  0  0
   -1.1092    0.7353    0.2128 C   0  0  0  0  0  0  0  0  0  0  0  0
    0.3136    1.1511   -0.1120 C   0  0  1  0  0  0  0  0  0  0  0  0
    0.8531    2.2385    0.8250 C   0  0  0  0  0  0  0  0  0  0  0  0
   -0.2940   -2.8600    1.9302 C   0  0  0  0  0  0  0  0  0  0  0  0
    1.1041   -1.2829    2.5091 C   0  0  0  0  0  0  0  0  0  0  0  0
    0.0372   -2.9789    3.2574 C   0  0  0  0  0  0  0  0  0  0  0  0
   -0.5488   -4.0578    4.0665 C   0  0  0  0  0  0  0  0  0  0  0  0
   -1.6711   -4.6972    2.1277 C   0  0  0  0  0  0  0  0  0  0  0  0
    1.9898    3.0464   -0.5382 H   0  0  0  0  0  0  0  0  0  0  0  0
   -1.4341   -3.6593    0.3558 H   0  0  0  0  0  0  0  0  0  0  0  0
    0.6205   -1.9593   -0.5763 H   0  0  0  0  0  0  0  0  0  0  0  0
   -1.3220   -0.7936   -1.2796 H   0  0  0  0  0  0  0  0  0  0  0  0
   -1.9349   -1.2622    0.3121 H   0  0  0  0  0  0  0  0  0  0  0  0
   -1.8523    1.3444   -0.3102 H   0  0  0  0  0  0  0  0  0  0  0  0
   -1.3074    0.8123    1.2878 H   0  0  0  0  0  0  0  0  0  0  0  0
    0.3784    1.4729   -1.1592 H   0  0  0  0  0  0  0  0  0  0  0  0
    0.0850    2.6034    1.5136 H   0  0  0  0  0  0  0  0  0  0  0  0
    1.6979    1.8751    1.4190 H   0  0  0  0  0  0  0  0  0  0  0  0
    1.7532   -0.4204    2.4262 H   0  0  0  0  0  0  0  0  0  0  0  0
   -2.3663   -5.3604    1.5852 H   0  0  0  0  0  0  0  0  0  0  0  0
  1  8  1  0  0  0  0
  1 11  1  0  0  0  0
  2 12  1  0  0  0  0
  2 18  1  0  0  0  0
  3 16  2  0  0  0  0
  4 13  1  0  0  0  0
  4 14  1  0  0  0  0
  5 13  1  0  0  0  0
  5 17  1  0  0  0  0
  5 19  1  0  0  0  0
  6 14  2  0  0  0  0
  6 15  1  0  0  0  0
  7 16  1  0  0  0  0
  7 17  2  0  0  0  0
  8  4  1  0  0  0  0
  8  9  1  0  0  0  0
  8 20  1  6  0  0  0
  9 10  1  0  0  0  0
  9 21  1  0  0  0  0
  9 22  1  0  0  0  0
 10 11  1  0  0  0  0
 10 23  1  0  0  0  0
 10 24  1  0  0  0  0
 11 25  1  6  0  0  0
 11 12  1  0  0  0  0
 12 26  1  0  0  0  0
 12 27  1  0  0  0  0
 13 15  2  0  0  0  0
 14 28  1  0  0  0  0
 15 16  1  0  0  0  0
 17 29  1  0  0  0  0
M  END
>  <DRUGBANK_ID>
DB00900

>  <SECONDARY_ACCESSION_NUMBERS>
APRD00240; DB02392

>  <COMMON_NAME>
Didanosine

>  <CAS_NUMBER>
69655-05-6

>  <UNII>
K3GDH6OH08

>  <SYNONYMS>
2,3-Dideoxyinosine; 9-((2R,5S)-5-(hydroxymethyl)-tetrahydrofuran-2-yl)-1H-purin-6(9H)-one; 9-((2R,5S)-5-Hydroxymethyl-tetrahydro-furan-2-yl)-1,9-dihydro-purin-6-one; 9-((2S,5R)-5-Hydroxymethyl-tetrahydro-furan-2-yl)-9H-purin-6-ol; 9-[(2R,5S)-5-(hydroxymethyl)tetrahydrofuran-2-yl]-1,9-dihydro-6H-purin-6-one; ddI; ddIno; Didanosina; Didanosine; Didanosinum; Dideoxyinosine

$$$$
