
 OpenBabel10282417243D

110118  0  0  1  0  0  0  0  0999 V2000
   11.0794    7.7467   -2.8785 O   0  5  0  0  0  0  0  0  0  0  0  0
   10.2593    7.2905   -1.9632 N   0  3  0  0  0  0  0  0  0  0  0  0
    9.0825    7.5628   -2.5117 O   0  0  0  0  0  0  0  0  0  0  0  0
   10.6285    6.0784   -0.2799 C   0  0  0  0  0  0  0  0  0  0  0  0
   11.5706    6.2015    0.7096 C   0  0  0  0  0  0  0  0  0  0  0  0
   11.1905    6.1813    2.0203 C   0  0  0  0  0  0  0  0  0  0  0  0
   10.2954    5.3092    2.6014 C   0  0  0  0  0  0  0  0  0  0  0  0
    9.5442    4.5572    1.8160 C   0  0  0  0  0  0  0  0  0  0  0  0
    9.6774    4.7934    0.4908 C   0  0  0  0  0  0  0  0  0  0  0  0
    8.7407    3.8469    0.0706 N   0  0  0  0  0  0  0  0  0  0  0  0
    7.5230    2.5132    0.3747 C   0  0  0  0  0  0  0  0  0  0  0  0
    5.9605    2.2802   -0.7615 C   0  0  1  0  0  0  0  0  0  0  0  0
    5.2891    3.2622   -2.1893 C   0  0  0  0  0  0  0  0  0  0  0  0
    5.7651    2.8890   -3.4760 O   0  0  0  0  0  0  0  0  0  0  0  0
    5.9577    1.4646   -3.9918 C   0  0  0  0  0  0  0  0  0  0  0  0
    6.3760    0.4174   -2.6094 C   0  0  0  0  0  0  0  0  0  0  0  0
    5.7535    0.8338   -1.2867 O   0  0  0  0  0  0  0  0  0  0  0  0
   11.9386    7.4797    2.8907 S   0  0  0  0  0  0  0  0  0  0  0  0
   10.9011    8.0887    3.6875 O   0  0  0  0  0  0  0  0  0  0  0  0
   13.0687    6.7816    3.4554 O   0  0  0  0  0  0  0  0  0  0  0  0
   12.4775    8.6780    1.7774 N   0  0  0  0  0  0  0  0  0  0  0  0
   12.3734    9.0250    0.3782 C   0  0  0  0  0  0  0  0  0  0  0  0
   13.0201    9.9318   -0.1217 O   0  0  0  0  0  0  0  0  0  0  0  0
   11.5499    8.2150   -0.5293 C   0  0  0  0  0  0  0  0  0  0  0  0
    9.8513    8.0912   -0.0450 C   0  0  0  0  0  0  0  0  0  0  0  0
    8.8171    6.7485   -0.6343 C   0  0  0  0  0  0  0  0  0  0  0  0
    9.6707    5.5216   -1.8020 C   0  0  0  0  0  0  0  0  0  0  0  0
   11.4373    5.5897   -2.1637 C   0  0  0  0  0  0  0  0  0  0  0  0
   12.3585    6.9165   -1.4933 C   0  0  0  0  0  0  0  0  0  0  0  0
   13.5964    6.9912   -2.0552 O   0  0  0  0  0  0  0  0  0  0  0  0
   14.4900    7.7225   -1.3651 C   0  0  0  0  0  0  0  0  0  0  0  0
   14.7809    7.4781   -0.0249 C   0  0  0  0  0  0  0  0  0  0  0  0
   15.6538    8.1632    0.7264 N   0  0  0  0  0  0  0  0  0  0  0  0
   16.3208    9.0633   -0.0124 C   0  0  0  0  0  0  0  0  0  0  0  0
   17.3735    9.7915    0.4512 N   0  0  0  0  0  0  0  0  0  0  0  0
   17.8722   10.5672   -0.5606 C   0  0  0  0  0  0  0  0  0  0  0  0
   17.0874   10.3784   -1.6761 C   0  0  0  0  0  0  0  0  0  0  0  0
   16.1276    9.3953   -1.3521 C   0  0  0  0  0  0  0  0  0  0  0  0
   15.1342    8.7270   -2.0606 C   0  0  0  0  0  0  0  0  0  0  0  0
    9.1174    4.5187   -2.4336 N   0  0  0  0  0  0  0  0  0  0  0  0
    7.7175    5.0345   -2.3704 C   0  0  0  0  0  0  0  0  0  0  0  0
    7.1227    4.2424   -1.3275 C   0  0  0  0  0  0  0  0  0  0  0  0
    7.9627    2.6898   -1.7404 N   0  0  0  0  0  0  0  0  0  0  0  0
    7.9504    2.3361   -3.1330 C   0  0  0  0  0  0  0  0  0  0  0  0
    8.1191    3.1842   -4.3247 C   0  0  0  0  0  0  0  0  0  0  0  0
    7.3528    3.9542   -5.1824 C   0  0  0  0  0  0  0  0  0  0  0  0
    8.1402    4.8865   -6.0392 C   0  0  0  0  0  0  0  0  0  0  0  0
    9.3881    4.1117   -6.3120 C   0  0  0  0  0  0  0  0  0  0  0  0
    8.6620    2.9339   -7.3315 C   0  0  0  0  0  0  0  0  0  0  0  0
   10.1221    2.6084   -7.4429 C   0  0  0  0  0  0  0  0  0  0  0  0
   10.4391    4.1499   -7.3285 C   0  0  0  0  0  0  0  0  0  0  0  0
   10.3545    3.9259   -5.2007 C   0  0  0  0  0  0  0  0  0  0  0  0
    9.5769    2.9833   -4.4817 C   0  0  0  0  0  0  0  0  0  0  0  0
    5.8826    4.0475   -5.5564 C   0  0  0  0  0  0  0  0  0  0  0  0
    4.9299    4.6531   -4.7204 C   0  0  0  0  0  0  0  0  0  0  0  0
    3.5762    4.3329   -4.7252 C   0  0  0  0  0  0  0  0  0  0  0  0
    3.0986    3.8201   -5.8928 C   0  0  0  0  0  0  0  0  0  0  0  0
    1.4092    3.7528   -6.1370 Cl  0  0  0  0  0  0  0  0  0  0  0  0
    3.9981    3.4704   -6.9024 C   0  0  0  0  0  0  0  0  0  0  0  0
    5.3731    3.4013   -6.6703 C   0  0  0  0  0  0  0  0  0  0  0  0
    9.2576    2.0966   -1.2689 C   0  0  0  0  0  0  0  0  0  0  0  0
   10.0488    3.0965   -1.9394 C   0  0  0  0  0  0  0  0  0  0  0  0
   12.4374    6.7619    0.5905 H   0  0  0  0  0  0  0  0  0  0  0  0
   10.2072    5.1037    3.6424 H   0  0  0  0  0  0  0  0  0  0  0  0
    8.7295    3.9283    2.1581 H   0  0  0  0  0  0  0  0  0  0  0  0
    8.7708    3.9005   -0.9412 H   0  0  0  0  0  0  0  0  0  0  0  0
    7.9614    1.4908    0.2063 H   0  0  0  0  0  0  0  0  0  0  0  0
    7.5108    2.4804    1.4485 H   0  0  0  0  0  0  0  0  0  0  0  0
    5.2794    2.5681    0.0474 H   0  0  0  0  0  0  0  0  0  0  0  0
    5.3342    4.4511   -2.1957 H   0  0  0  0  0  0  0  0  0  0  0  0
    4.2411    3.1836   -2.3179 H   0  0  0  0  0  0  0  0  0  0  0  0
    5.0564    1.5153   -4.5608 H   0  0  0  0  0  0  0  0  0  0  0  0
    6.7984    1.4022   -4.8299 H   0  0  0  0  0  0  0  0  0  0  0  0
    7.4682    0.3114   -2.2881 H   0  0  0  0  0  0  0  0  0  0  0  0
    6.3170   -0.6122   -2.9835 H   0  0  0  0  0  0  0  0  0  0  0  0
   13.2080    9.2361    2.2191 H   0  0  0  0  0  0  0  0  0  0  0  0
    9.7441    8.3538    1.0131 H   0  0  0  0  0  0  0  0  0  0  0  0
    8.0463    6.4499    0.0908 H   0  0  0  0  0  0  0  0  0  0  0  0
   11.7451    5.2526   -3.1502 H   0  0  0  0  0  0  0  0  0  0  0  0
   14.2270    6.7437    0.5407 H   0  0  0  0  0  0  0  0  0  0  0  0
   17.7314    9.7065    1.3904 H   0  0  0  0  0  0  0  0  0  0  0  0
   18.7403   11.1887   -0.4112 H   0  0  0  0  0  0  0  0  0  0  0  0
   17.2252   10.8553   -2.6363 H   0  0  0  0  0  0  0  0  0  0  0  0
   14.8837    8.9483   -3.0921 H   0  0  0  0  0  0  0  0  0  0  0  0
    7.4162    6.0835   -2.2057 H   0  0  0  0  0  0  0  0  0  0  0  0
    7.3716    5.0564   -3.3708 H   0  0  0  0  0  0  0  0  0  0  0  0
    7.1727    4.6202   -0.2625 H   0  0  0  0  0  0  0  0  0  0  0  0
    6.0946    4.3975   -0.8559 H   0  0  0  0  0  0  0  0  0  0  0  0
    8.3054    1.3349   -3.4459 H   0  0  0  0  0  0  0  0  0  0  0  0
    7.0609    2.1261   -2.7040 H   0  0  0  0  0  0  0  0  0  0  0  0
    8.1243    5.8603   -5.5394 H   0  0  0  0  0  0  0  0  0  0  0  0
    7.6605    4.9748   -7.0067 H   0  0  0  0  0  0  0  0  0  0  0  0
    8.3213    1.9102   -7.6179 H   0  0  0  0  0  0  0  0  0  0  0  0
    7.9160    2.5439   -6.6080 H   0  0  0  0  0  0  0  0  0  0  0  0
   10.4172    2.2102   -8.3874 H   0  0  0  0  0  0  0  0  0  0  0  0
   10.3400    1.9081   -6.6114 H   0  0  0  0  0  0  0  0  0  0  0  0
   10.0886    4.9230   -7.9937 H   0  0  0  0  0  0  0  0  0  0  0  0
   11.4583    4.3598   -6.9744 H   0  0  0  0  0  0  0  0  0  0  0  0
   11.2889    3.3319   -5.2833 H   0  0  0  0  0  0  0  0  0  0  0  0
   10.6527    4.8269   -4.6337 H   0  0  0  0  0  0  0  0  0  0  0  0
    9.9497    1.9425   -4.4340 H   0  0  0  0  0  0  0  0  0  0  0  0
   10.0577    3.4827   -3.7153 H   0  0  0  0  0  0  0  0  0  0  0  0
    5.2850    5.1453   -3.8429 H   0  0  0  0  0  0  0  0  0  0  0  0
    2.9665    4.5487   -3.8481 H   0  0  0  0  0  0  0  0  0  0  0  0
    3.6422    3.2952   -7.9037 H   0  0  0  0  0  0  0  0  0  0  0  0
    6.0063    2.8693   -7.3717 H   0  0  0  0  0  0  0  0  0  0  0  0
    9.6547    2.0702   -0.2462 H   0  0  0  0  0  0  0  0  0  0  0  0
    9.3727    1.0373   -1.5583 H   0  0  0  0  0  0  0  0  0  0  0  0
   10.1736    2.3241   -2.6806 H   0  0  0  0  0  0  0  0  0  0  0  0
   11.0609    3.2802   -1.6157 H   0  0  0  0  0  0  0  0  0  0  0  0
  1  2  1  0  0  0  0
  2  3  2  0  0  0  0
  2  4  1  0  0  0  0
  4  5  2  0  0  0  0
  4  9  1  0  0  0  0
  5  6  1  0  0  0  0
  5 63  1  0  0  0  0
  6  7  2  0  0  0  0
  6 18  1  0  0  0  0
  7  8  1  0  0  0  0
  7 64  1  0  0  0  0
  8  9  2  0  0  0  0
  8 65  1  0  0  0  0
  9 10  1  0  0  0  0
 10 11  1  0  0  0  0
 10 66  1  0  0  0  0
 11 67  1  0  0  0  0
 11 68  1  0  0  0  0
 12 13  1  0  0  0  0
 12 17  1  0  0  0  0
 12 69  1  1  0  0  0
 12 11  1  0  0  0  0
 13 14  1  0  0  0  0
 13 70  1  0  0  0  0
 13 71  1  0  0  0  0
 14 15  1  0  0  0  0
 15 16  1  0  0  0  0
 15 72  1  0  0  0  0
 15 73  1  0  0  0  0
 16 17  1  0  0  0  0
 16 74  1  0  0  0  0
 16 75  1  0  0  0  0
 18 19  2  0  0  0  0
 18 20  2  0  0  0  0
 18 21  1  0  0  0  0
 21 22  1  0  0  0  0
 21 76  1  0  0  0  0
 22 23  2  0  0  0  0
 22 24  1  0  0  0  0
 24 25  2  0  0  0  0
 24 29  1  0  0  0  0
 25 26  1  0  0  0  0
 25 77  1  0  0  0  0
 26 27  2  0  0  0  0
 26 78  1  0  0  0  0
 27 28  1  0  0  0  0
 27 40  1  0  0  0  0
 28 29  2  0  0  0  0
 28 79  1  0  0  0  0
 29 30  1  0  0  0  0
 30 31  1  0  0  0  0
 31 32  2  0  0  0  0
 31 39  1  0  0  0  0
 32 33  1  0  0  0  0
 32 80  1  0  0  0  0
 33 34  2  0  0  0  0
 34 35  1  0  0  0  0
 34 38  1  0  0  0  0
 35 36  1  0  0  0  0
 35 81  1  0  0  0  0
 36 37  2  0  0  0  0
 36 82  1  0  0  0  0
 37 38  1  0  0  0  0
 37 83  1  0  0  0  0
 38 39  2  0  0  0  0
 39 84  1  0  0  0  0
 40 41  1  0  0  0  0
 40 62  1  0  0  0  0
 41 42  1  0  0  0  0
 41 85  1  0  0  0  0
 41 86  1  0  0  0  0
 42 43  1  0  0  0  0
 42 87  1  0  0  0  0
 42 88  1  0  0  0  0
 43 44  1  0  0  0  0
 43 61  1  0  0  0  0
 44 45  1  0  0  0  0
 44 89  1  0  0  0  0
 44 90  1  0  0  0  0
 45 46  2  0  0  0  0
 45 53  1  0  0  0  0
 46 47  1  0  0  0  0
 46 54  1  0  0  0  0
 47 48  1  0  0  0  0
 47 91  1  0  0  0  0
 47 92  1  0  0  0  0
 48 49  1  0  0  0  0
 48 51  1  0  0  0  0
 48 52  1  0  0  0  0
 49 50  1  0  0  0  0
 49 93  1  0  0  0  0
 49 94  1  0  0  0  0
 50 51  1  0  0  0  0
 50 95  1  0  0  0  0
 50 96  1  0  0  0  0
 51 97  1  0  0  0  0
 51 98  1  0  0  0  0
 52 53  1  0  0  0  0
 52 99  1  0  0  0  0
 52100  1  0  0  0  0
 53101  1  0  0  0  0
 53102  1  0  0  0  0
 54 55  2  0  0  0  0
 54 60  1  0  0  0  0
 55 56  1  0  0  0  0
 55103  1  0  0  0  0
 56 57  2  0  0  0  0
 56104  1  0  0  0  0
 57 58  1  0  0  0  0
 57 59  1  0  0  0  0
 59 60  2  0  0  0  0
 59105  1  0  0  0  0
 60106  1  0  0  0  0
 61 62  1  0  0  0  0
 61107  1  0  0  0  0
 61108  1  0  0  0  0
 62109  1  0  0  0  0
 62110  1  0  0  0  0
M  CHG  2   1  -1   2   1
M  END
>  <DRUGBANK_ID>
DB18054

>  <COMMON_NAME>
Lisaftoclax

>  <CAS_NUMBER>
2180923-05-9

>  <UNII>
OSL3FEZ1IF

>  <SYNONYMS>
4-(4-((6-(4-chlorophenyl)spiro(3.5)non-6-en-7-yl)methyl)-piperazin-1-yl)-n-((3-nitro-4-(((2s)-1,4-dioxan-2-ylmethyl)amino)phenyl)sulfonyl)-2-(1hpyrrolo(2,3-b)pyridin-5-yloxy)benzamide; 4-{4-{[6-(4-Chlorophenyl)spiro[3.5]non-6-en-7-yl]methyl}-piperazin-1-yl}-N-{{3-nitro-4-[((2S)-1,4-dioxan-2-ylmethyl)amino]phenyl}sulfonyl}-2-(1H-pyrrolo[2,3-b]pyridin-5-yloxy)benzamide; Benzamide, 4-(4-((6-(4-chlorophenyl)spiro(3.5)non-6-en-7-yl)methyl)-1-piperazinyl)-n-((4-(((2s)-1,4-dioxan-2-ylmethyl)amino)-3-nitrophenyl)sulfonyl)-2-(1h-pyrrolo(2,3-b)pyridin-5-yloxy)-

$$$$
