
 OpenBabel10282417173D

 39 38  0  0  1  0  0  0  0  0999 V2000
   -5.5776   -0.0214    5.0631 C   0  0  0  0  0  0  0  0  0  0  0  0
   -5.0259   -1.3660    5.5403 C   0  0  0  0  0  0  0  0  0  0  0  0
   -4.5150   -2.1881    4.3883 C   0  0  0  0  0  0  0  0  0  0  0  0
   -3.3567   -1.5313    3.6912 C   0  0  0  0  0  0  0  0  0  0  0  0
   -2.1564   -1.2067    4.6018 C   0  0  0  0  0  0  0  0  0  0  0  0
   -1.4987   -2.4903    5.0615 C   0  0  0  0  0  0  0  0  0  0  0  0
   -0.9384   -3.3302    3.8896 C   0  0  2  0  0  0  0  0  0  0  0  0
   -1.2780   -2.8488    2.4768 C   0  0  0  0  0  0  0  0  0  0  0  0
   -0.3194   -3.1022    1.3890 C   0  0  0  0  0  0  0  0  0  0  0  0
   -0.6012   -3.5783    0.3162 O   0  0  0  0  0  0  0  0  0  0  0  0
    0.8667   -2.5199    1.6362 O   0  0  0  0  0  0  0  0  0  0  0  0
   -4.5687    0.9365    4.4116 C   0  0  0  0  0  0  0  0  0  0  0  0
   -5.1054    2.2364    3.8952 C   0  0  0  0  0  0  0  0  0  0  0  0
   -5.5984    3.0409    5.0491 C   0  0  0  0  0  0  0  0  0  0  0  0
   -1.4675   -4.6537    4.0474 O   0  0  0  0  0  0  0  0  0  0  0  0
    0.1430   -3.3944    4.0127 H   0  0  0  0  0  0  0  0  0  0  0  0
   -6.0159    0.4495    5.9429 H   0  0  0  0  0  0  0  0  0  0  0  0
   -6.3825   -0.2195    4.3463 H   0  0  0  0  0  0  0  0  0  0  0  0
   -4.2479   -1.2232    6.2982 H   0  0  0  0  0  0  0  0  0  0  0  0
   -5.8141   -1.9419    6.0373 H   0  0  0  0  0  0  0  0  0  0  0  0
   -4.1964   -3.1799    4.7346 H   0  0  0  0  0  0  0  0  0  0  0  0
   -5.3081   -2.3809    3.6565 H   0  0  0  0  0  0  0  0  0  0  0  0
   -3.2461   -2.2198    2.8830 H   0  0  0  0  0  0  0  0  0  0  0  0
   -3.5066   -0.7190    3.0017 H   0  0  0  0  0  0  0  0  0  0  0  0
   -1.4243   -0.5601    4.0986 H   0  0  0  0  0  0  0  0  0  0  0  0
   -2.4415   -0.6166    5.4806 H   0  0  0  0  0  0  0  0  0  0  0  0
   -0.6923   -2.2466    5.7646 H   0  0  0  0  0  0  0  0  0  0  0  0
   -2.2182   -3.0591    5.6677 H   0  0  0  0  0  0  0  0  0  0  0  0
   -2.1856   -3.3550    2.1231 H   0  0  0  0  0  0  0  0  0  0  0  0
   -1.3678   -1.7561    2.4098 H   0  0  0  0  0  0  0  0  0  0  0  0
    1.3548   -2.6625    0.8032 H   0  0  0  0  0  0  0  0  0  0  0  0
   -3.6812    1.0835    5.0366 H   0  0  0  0  0  0  0  0  0  0  0  0
   -4.2693    0.5894    3.4480 H   0  0  0  0  0  0  0  0  0  0  0  0
   -4.2931    2.7524    3.3618 H   0  0  0  0  0  0  0  0  0  0  0  0
   -5.8859    2.0271    3.1534 H   0  0  0  0  0  0  0  0  0  0  0  0
   -4.7792    3.1937    5.7587 H   0  0  0  0  0  0  0  0  0  0  0  0
   -5.9725    3.9949    4.6901 H   0  0  0  0  0  0  0  0  0  0  0  0
   -6.4040    2.5076    5.5572 H   0  0  0  0  0  0  0  0  0  0  0  0
   -2.4412   -4.5961    4.0114 H   0  0  0  0  0  0  0  0  0  0  0  0
  1 12  1  0  0  0  0
  1 17  1  0  0  0  0
  1 18  1  0  0  0  0
  2  1  1  0  0  0  0
  2 19  1  0  0  0  0
  2 20  1  0  0  0  0
  3  2  1  0  0  0  0
  3 21  1  0  0  0  0
  3 22  1  0  0  0  0
  4  3  1  0  0  0  0
  4 23  1  0  0  0  0
  4 24  1  0  0  0  0
  5  4  1  0  0  0  0
  5 25  1  0  0  0  0
  5 26  1  0  0  0  0
  6  5  1  0  0  0  0
  6 27  1  0  0  0  0
  6 28  1  0  0  0  0
  7 15  1  0  0  0  0
  7 16  1  1  0  0  0
  7  8  1  0  0  0  0
  7  6  1  0  0  0  0
  8 29  1  0  0  0  0
  8 30  1  0  0  0  0
  9  8  1  0  0  0  0
 10  9  2  0  0  0  0
 11  9  1  0  0  0  0
 11 31  1  0  0  0  0
 12 13  1  0  0  0  0
 12 32  1  0  0  0  0
 12 33  1  0  0  0  0
 13 14  1  0  0  0  0
 13 34  1  0  0  0  0
 13 35  1  0  0  0  0
 14 36  1  0  0  0  0
 14 37  1  0  0  0  0
 14 38  1  0  0  0  0
 15 39  1  0  0  0  0
M  END
>  <DRUGBANK_ID>
DB07930

>  <COMMON_NAME>
(3R)-3-HYDROXYDODECANOIC ACID

$$$$
