
 OpenBabel10282417213D

 26 22  0  0  0  0  0  0  0  0999 V2000
    1.3551    1.1854   -0.7845 C   0  0  0  0  0  0  0  0  0  0  0  0
    0.0553    2.4725   -0.3663 C   0  0  0  0  0  0  0  0  0  0  0  0
    1.5827   -0.2186   -1.9058 N   0  0  0  0  0  0  0  0  0  0  0  0
   -1.1134    2.4659   -0.8262 O   0  0  0  0  0  0  0  0  0  0  0  0
    0.3514    3.1343    0.7022 O   0  5  0  0  0  0  0  0  0  0  0  0
   -0.4430   -0.5652   -0.4803 C   0  0  0  0  0  0  0  0  0  0  0  0
   -0.7691    0.3330   -2.1018 C   0  0  0  0  0  0  0  0  0  0  0  0
   -0.2497   -1.9294    0.1016 N   0  0  0  0  0  0  0  0  0  0  0  0
   -1.4462   -0.4081   -2.8538 O   0  0  0  0  0  0  0  0  0  0  0  0
    0.0079    1.2767   -2.5508 O   0  5  0  0  0  0  0  0  0  0  0  0
    3.4481   -0.2880    2.9268 Fe  0  2  0  0  0  0  0  0  0  0  0  0
    2.1081   -0.3098    1.4685 O   0  0  0  0  0  0  0  0  0  0  0  0
    1.4153    0.5549    3.5139 O   0  0  0  0  0  0  0  0  0  0  0  0
    2.2118    2.0778    1.8616 O   0  0  0  0  0  0  0  0  0  0  0  0
   -0.2082    0.9311    1.9916 O   0  0  0  0  0  0  0  0  0  0  0  0
    1.2635    1.0564    2.0225 S   0  0  0  0  0  0  0  0  0  0  0  0
    0.9621    0.6561    0.0356 H   0  0  0  0  0  0  0  0  0  0  0  0
    2.3680    1.2594   -0.4259 H   0  0  0  0  0  0  0  0  0  0  0  0
    0.7133   -0.8662   -2.1065 H   0  0  0  0  0  0  0  0  0  0  0  0
    1.3228    0.3067   -2.7807 H   0  0  0  0  0  0  0  0  0  0  0  0
   -0.9496    0.0158    0.2562 H   0  0  0  0  0  0  0  0  0  0  0  0
    0.6311   -0.7827   -0.3346 H   0  0  0  0  0  0  0  0  0  0  0  0
   -1.1599   -2.2373    0.3520 H   0  0  0  0  0  0  0  0  0  0  0  0
    0.3655   -2.5162   -0.4611 H   0  0  0  0  0  0  0  0  0  0  0  0
    2.2776   -0.4070    0.4474 H   0  0  0  0  0  0  0  0  0  0  0  0
    0.4450    0.2500    3.5662 H   0  0  0  0  0  0  0  0  0  0  0  0
  1 17  1  0  0  0  0
  1 18  1  0  0  0  0
  2  1  1  0  0  0  0
  3  1  1  0  0  0  0
  3 19  1  0  0  0  0
  3 20  1  0  0  0  0
  4  2  2  0  0  0  0
  5  2  1  0  0  0  0
  6 21  1  0  0  0  0
  6 22  1  0  0  0  0
  7  6  1  0  0  0  0
  8  6  1  0  0  0  0
  8 23  1  0  0  0  0
  8 24  1  0  0  0  0
  9  7  2  0  0  0  0
 10  7  1  0  0  0  0
 12 25  1  0  0  0  0
 13 26  1  0  0  0  0
 16 12  1  0  0  0  0
 16 13  1  0  0  0  0
 16 14  2  0  0  0  0
 16 15  2  0  0  0  0
M  CHG  3   5  -1  10  -1  11   2
M  END
>  <DRUGBANK_ID>
DB14501

>  <SECONDARY_ACCESSION_NUMBERS>
DBSALT000081

>  <COMMON_NAME>
Ferrous glycine sulfate

>  <CAS_NUMBER>
14729-84-1

>  <UNII>
56PS9HY5XI

>  <SYNONYMS>
Ferrous (II) Glycine Sulphate Complex; Ferrous glycine sulphate; Iron(II) glycine sulfate

$$$$
