BBS
 OpenBabel10282417163D

 28 28  0  0  0  0  0  0  0  0999 V2000
    0.9650    0.0057   -0.0474 C   0  0  0  0  0  0  0  0  0  0  0  0
    0.4757   -0.2266   -1.4900 C   0  0  0  0  0  0  0  0  0  0  0  0
    0.9529   -1.6254   -1.9295 C   0  0  0  0  0  0  0  0  0  0  0  0
   -1.0707   -0.2301   -1.4855 C   0  0  0  0  0  0  0  0  0  0  0  0
    0.9084    2.2320   -2.0524 C   0  0  0  0  0  0  0  0  0  0  0  0
    1.0207    3.2635   -2.9840 C   0  0  0  0  0  0  0  0  0  0  0  0
    1.1771    2.9527   -4.3319 C   0  0  0  0  0  0  0  0  0  0  0  0
    1.2778    1.6289   -4.7498 C   0  0  0  0  0  0  0  0  0  0  0  0
    1.2028    0.6069   -3.8059 C   0  0  0  0  0  0  0  0  0  0  0  0
    0.9269    0.8835   -2.4539 C   0  0  0  0  0  0  0  0  0  0  0  0
    1.3194    4.2297   -5.5386 S   0  0  0  0  0  0  0  0  0  0  0  0
    2.6574    4.1754   -6.0780 O   0  0  0  0  0  0  0  0  0  0  0  0
    0.1528    4.1739   -6.3954 O   0  0  0  0  0  0  0  0  0  0  0  0
    1.2144    5.6172   -4.7198 O   0  0  0  0  0  0  0  0  0  0  0  0
    0.6179   -0.7925    0.6188 H   0  0  0  0  0  0  0  0  0  0  0  0
    0.5847    0.9410    0.3765 H   0  0  0  0  0  0  0  0  0  0  0  0
    2.0587    0.0367   -0.0036 H   0  0  0  0  0  0  0  0  0  0  0  0
    0.6039   -2.4016   -1.2404 H   0  0  0  0  0  0  0  0  0  0  0  0
    0.5642   -1.8989   -2.9171 H   0  0  0  0  0  0  0  0  0  0  0  0
    2.0469   -1.6704   -1.9702 H   0  0  0  0  0  0  0  0  0  0  0  0
   -1.4770    0.7298   -1.1442 H   0  0  0  0  0  0  0  0  0  0  0  0
   -1.4741   -0.4156   -2.4886 H   0  0  0  0  0  0  0  0  0  0  0  0
   -1.4641   -1.0080   -0.8215 H   0  0  0  0  0  0  0  0  0  0  0  0
    0.7711    2.5087   -1.0106 H   0  0  0  0  0  0  0  0  0  0  0  0
    0.9558    4.2930   -2.6434 H   0  0  0  0  0  0  0  0  0  0  0  0
    1.3937    1.3797   -5.8020 H   0  0  0  0  0  0  0  0  0  0  0  0
    1.3344   -0.4098   -4.1648 H   0  0  0  0  0  0  0  0  0  0  0  0
    1.3143    6.3525   -5.3581 H   0  0  0  0  0  0  0  0  0  0  0  0
  1  2  1  0  0  0  0
  1 15  1  0  0  0  0
  1 16  1  0  0  0  0
  1 17  1  0  0  0  0
  2  3  1  0  0  0  0
  2  4  1  0  0  0  0
  2 10  1  0  0  0  0
  3 18  1  0  0  0  0
  3 19  1  0  0  0  0
  3 20  1  0  0  0  0
  4 21  1  0  0  0  0
  4 22  1  0  0  0  0
  4 23  1  0  0  0  0
  5  6  2  0  0  0  0
  5 10  1  0  0  0  0
  5 24  1  0  0  0  0
  6  7  1  0  0  0  0
  6 25  1  0  0  0  0
  7  8  2  0  0  0  0
  7 11  1  0  0  0  0
  8  9  1  0  0  0  0
  8 26  1  0  0  0  0
  9 10  2  0  0  0  0
  9 27  1  0  0  0  0
 11 12  2  0  0  0  0
 11 13  2  0  0  0  0
 11 14  1  0  0  0  0
 14 28  1  0  0  0  0
M  END
>  <DRUGBANK_ID>
DB07440

>  <COMMON_NAME>
4-TERT-BUTYLBENZENESULFONIC ACID

>  <UNII>
YV1D0UF57S

$$$$
