
 OpenBabel10282417123D

 97100  0  0  1  0  0  0  0  0999 V2000
    0.8061   -0.4425   -0.0251 C   0  0  0  0  0  0  0  0  0  0  0  0
    0.1044    4.1228    3.0813 C   0  0  0  0  0  0  0  0  0  0  0  0
    2.3585    2.1534   -0.7343 C   0  0  0  0  0  0  0  0  0  0  0  0
    1.5810    6.7946    0.9398 C   0  0  0  0  0  0  0  0  0  0  0  0
   -0.8148    1.4157   -3.2186 C   0  0  0  0  0  0  0  0  0  0  0  0
   -1.2863    5.1995   -3.5989 C   0  0  0  0  0  0  0  0  0  0  0  0
    0.1276    0.0926    1.2639 C   0  0  0  0  0  0  0  0  0  0  0  0
    2.0457    4.4598    6.6901 C   0  0  0  0  0  0  0  0  0  0  0  0
    0.8919    3.4186    6.7196 C   0  0  0  0  0  0  0  0  0  0  0  0
    7.3576   -1.1690    4.8036 C   0  0  0  0  0  0  0  0  0  0  0  0
    7.2003    0.0728    5.4210 C   0  0  0  0  0  0  0  0  0  0  0  0
    6.2527   -1.9049    4.3489 C   0  0  0  0  0  0  0  0  0  0  0  0
    2.2560    4.8823    5.3110 C   0  0  0  0  0  0  0  0  0  0  0  0
    6.7051    2.8818    3.5002 C   0  0  0  0  0  0  0  0  0  0  0  0
    4.5253    3.8873    3.1187 C   0  0  0  0  0  0  0  0  0  0  0  0
    6.6496    3.0484    5.1157 C   0  0  0  0  0  0  0  0  0  0  0  0
    3.4991    3.0739    2.7186 C   0  0  0  0  0  0  0  0  0  0  0  0
    0.9453    2.1389    5.8551 C   0  0  0  0  0  0  0  0  0  0  0  0
    5.2270    2.9214    1.2856 C   0  0  0  0  0  0  0  0  0  0  0  0
    4.8453   -0.2975    5.3280 C   0  0  0  0  0  0  0  0  0  0  0  0
    0.2417    4.2549    0.5579 C   0  0  0  0  0  0  0  0  0  0  0  0
   -0.6140    2.3957   -0.6133 C   0  0  0  0  0  0  0  0  0  0  0  0
    2.7063   -1.3457    3.6889 C   0  0  0  0  0  0  0  0  0  0  0  0
    5.5759    3.3070    2.5843 C   0  0  0  0  0  0  0  0  0  0  0  0
    5.9263    0.5617    5.6697 C   0  0  0  0  0  0  0  0  0  0  0  0
   -0.1349    2.7945    0.6056 C   0  0  0  0  0  0  0  0  0  0  0  0
    4.9770   -1.3994    4.4906 C   0  0  0  0  0  0  0  0  0  0  0  0
    0.4719    1.5413    1.7448 C   0  0  1  0  0  0  0  0  0  0  0  0
    2.3554    3.5023    4.6713 C   0  0  1  0  0  0  0  0  0  0  0  0
    5.7714    2.0792    6.0497 C   0  0  2  0  0  0  0  0  0  0  0  0
    2.7814    3.5234    1.7411 C   0  0  0  0  0  0  0  0  0  0  0  0
    3.7504    2.9742    0.8787 C   0  0  0  0  0  0  0  0  0  0  0  0
    0.2915    5.1891   -0.4381 C   0  0  0  0  0  0  0  0  0  0  0  0
   -0.5567    3.2869   -1.7129 C   0  0  0  0  0  0  0  0  0  0  0  0
    1.9817   -1.2950    5.0130 C   0  0  0  0  0  0  0  0  0  0  0  0
   -0.2322    4.6969   -1.5957 C   0  0  0  0  0  0  0  0  0  0  0  0
    0.2802    1.6756    3.4434 C   0  0  0  0  0  0  0  0  0  0  0  0
    3.6898    2.5271    5.1340 C   0  0  0  0  0  0  0  0  0  0  0  0
    1.1795    2.4410    4.5003 N   0  0  0  0  0  0  0  0  0  0  0  0
    1.5321   -0.3131    5.5458 O   0  0  0  0  0  0  0  0  0  0  0  0
    1.9050   -2.4322    5.7115 O   0  0  0  0  0  0  0  0  0  0  0  0
   -0.8049    1.1935    3.8321 O   0  0  0  0  0  0  0  0  0  0  0  0
    4.0541    1.6212    4.3986 O   0  0  0  0  0  0  0  0  0  0  0  0
    1.4546    3.4053    2.2282 O   0  0  0  0  0  0  0  0  0  0  0  0
    3.6416    2.1581   -0.2246 O   0  0  0  0  0  0  0  0  0  0  0  0
    0.8637    6.4372   -0.2802 O   0  0  0  0  0  0  0  0  0  0  0  0
   -0.6700    2.8045   -2.9960 O   0  0  0  0  0  0  0  0  0  0  0  0
   -0.4673    5.6545   -2.5428 O   0  0  0  0  0  0  0  0  0  0  0  0
    3.9732   -2.0053    3.7737 O   0  0  0  0  0  0  0  0  0  0  0  0
    4.4495    2.7224    6.2186 O   0  0  0  0  0  0  0  0  0  0  0  0
    1.5579    1.4234    1.6981 H   0  0  0  0  0  0  0  0  0  0  0  0
    2.3701    4.1411    3.8003 H   0  0  0  0  0  0  0  0  0  0  0  0
    6.1739    2.1321    7.0717 H   0  0  0  0  0  0  0  0  0  0  0  0
    0.5776    0.1341   -0.9210 H   0  0  0  0  0  0  0  0  0  0  0  0
    0.4786   -1.4549   -0.2602 H   0  0  0  0  0  0  0  0  0  0  0  0
    1.9024   -0.4631    0.0530 H   0  0  0  0  0  0  0  0  0  0  0  0
   -0.3091    3.6432    3.9894 H   0  0  0  0  0  0  0  0  0  0  0  0
    0.2811    5.1524    3.3181 H   0  0  0  0  0  0  0  0  0  0  0  0
   -0.8206    3.9238    2.4954 H   0  0  0  0  0  0  0  0  0  0  0  0
    1.7945    1.5594   -0.0652 H   0  0  0  0  0  0  0  0  0  0  0  0
    1.9860    3.1615   -0.7751 H   0  0  0  0  0  0  0  0  0  0  0  0
    2.2395    1.6471   -1.6872 H   0  0  0  0  0  0  0  0  0  0  0  0
    0.9325    6.7655    1.8262 H   0  0  0  0  0  0  0  0  0  0  0  0
    2.4758    6.1790    1.1166 H   0  0  0  0  0  0  0  0  0  0  0  0
    1.9319    7.8321    0.8711 H   0  0  0  0  0  0  0  0  0  0  0  0
    0.1268    0.8900   -3.0329 H   0  0  0  0  0  0  0  0  0  0  0  0
   -1.6380    0.9983   -2.6343 H   0  0  0  0  0  0  0  0  0  0  0  0
   -1.0696    1.2902   -4.2722 H   0  0  0  0  0  0  0  0  0  0  0  0
   -0.6536    4.6234   -4.2772 H   0  0  0  0  0  0  0  0  0  0  0  0
   -2.1581    4.6259   -3.2476 H   0  0  0  0  0  0  0  0  0  0  0  0
   -1.6612    6.0607   -4.1417 H   0  0  0  0  0  0  0  0  0  0  0  0
   -0.9548    0.0087    1.1936 H   0  0  0  0  0  0  0  0  0  0  0  0
    0.4768   -0.5806    2.0516 H   0  0  0  0  0  0  0  0  0  0  0  0
    1.8812    5.3430    7.2919 H   0  0  0  0  0  0  0  0  0  0  0  0
    2.9935    4.0437    7.0194 H   0  0  0  0  0  0  0  0  0  0  0  0
    0.8594    3.0592    7.7350 H   0  0  0  0  0  0  0  0  0  0  0  0
   -0.0045    3.9475    6.3939 H   0  0  0  0  0  0  0  0  0  0  0  0
    8.3604   -1.5384    4.6262 H   0  0  0  0  0  0  0  0  0  0  0  0
    8.0695    0.6772    5.6590 H   0  0  0  0  0  0  0  0  0  0  0  0
    6.3898   -2.8771    3.8903 H   0  0  0  0  0  0  0  0  0  0  0  0
    1.4714    5.5421    4.8957 H   0  0  0  0  0  0  0  0  0  0  0  0
    3.1769    5.4862    5.1370 H   0  0  0  0  0  0  0  0  0  0  0  0
    7.5766    3.4457    3.1590 H   0  0  0  0  0  0  0  0  0  0  0  0
    6.8761    1.8224    3.3051 H   0  0  0  0  0  0  0  0  0  0  0  0
    4.6538    4.2657    4.1270 H   0  0  0  0  0  0  0  0  0  0  0  0
    6.3914    4.0868    5.3684 H   0  0  0  0  0  0  0  0  0  0  0  0
    7.6859    2.9212    5.4571 H   0  0  0  0  0  0  0  0  0  0  0  0
    2.9700    2.1871    3.1068 H   0  0  0  0  0  0  0  0  0  0  0  0
    1.8602    1.6272    6.1499 H   0  0  0  0  0  0  0  0  0  0  0  0
    0.0950    1.4771    5.9530 H   0  0  0  0  0  0  0  0  0  0  0  0
    5.9169    2.3900    0.6576 H   0  0  0  0  0  0  0  0  0  0  0  0
    3.8459    0.0460    5.5375 H   0  0  0  0  0  0  0  0  0  0  0  0
    0.6749    4.8160    1.3546 H   0  0  0  0  0  0  0  0  0  0  0  0
   -0.8894    1.3706   -0.7577 H   0  0  0  0  0  0  0  0  0  0  0  0
    2.7898   -0.3411    3.2435 H   0  0  0  0  0  0  0  0  0  0  0  0
    2.0491   -1.9019    3.0085 H   0  0  0  0  0  0  0  0  0  0  0  0
    1.5431   -2.0718    6.5532 H   0  0  0  0  0  0  0  0  0  0  0  0
  1 54  1  0  0  0  0
  1 55  1  0  0  0  0
  1 56  1  0  0  0  0
  2 57  1  0  0  0  0
  2 58  1  0  0  0  0
  2 59  1  0  0  0  0
  3 60  1  0  0  0  0
  3 61  1  0  0  0  0
  3 62  1  0  0  0  0
  4 63  1  0  0  0  0
  4 64  1  0  0  0  0
  4 65  1  0  0  0  0
  5 66  1  0  0  0  0
  5 67  1  0  0  0  0
  5 68  1  0  0  0  0
  6 69  1  0  0  0  0
  6 70  1  0  0  0  0
  6 71  1  0  0  0  0
  7  1  1  0  0  0  0
  7 72  1  0  0  0  0
  7 73  1  0  0  0  0
  8 74  1  0  0  0  0
  8 75  1  0  0  0  0
  9  8  1  0  0  0  0
  9 76  1  0  0  0  0
  9 77  1  0  0  0  0
 10 78  1  0  0  0  0
 11 10  2  0  0  0  0
 11 79  1  0  0  0  0
 12 10  1  0  0  0  0
 12 80  1  0  0  0  0
 13  8  1  0  0  0  0
 13 81  1  0  0  0  0
 13 82  1  0  0  0  0
 14 83  1  0  0  0  0
 14 84  1  0  0  0  0
 15 85  1  0  0  0  0
 16 14  1  0  0  0  0
 16 86  1  0  0  0  0
 16 87  1  0  0  0  0
 17 15  2  0  0  0  0
 17 88  1  0  0  0  0
 18  9  1  0  0  0  0
 18 89  1  0  0  0  0
 18 90  1  0  0  0  0
 19 91  1  0  0  0  0
 20 92  1  0  0  0  0
 21 93  1  0  0  0  0
 22 94  1  0  0  0  0
 23 95  1  0  0  0  0
 23 96  1  0  0  0  0
 24 14  1  0  0  0  0
 24 15  1  0  0  0  0
 24 19  2  0  0  0  0
 25 11  1  0  0  0  0
 25 20  2  0  0  0  0
 26 21  2  0  0  0  0
 26 22  1  0  0  0  0
 27 12  2  0  0  0  0
 27 20  1  0  0  0  0
 28  7  1  0  0  0  0
 28 26  1  0  0  0  0
 28 37  1  0  0  0  0
 28 51  1  6  0  0  0
 29 13  1  0  0  0  0
 29 52  1  6  0  0  0
 29 38  1  0  0  0  0
 30 50  1  0  0  0  0
 30 53  1  1  0  0  0
 30 25  1  0  0  0  0
 30 16  1  0  0  0  0
 31 17  1  0  0  0  0
 32 19  1  0  0  0  0
 32 31  2  0  0  0  0
 33 21  1  0  0  0  0
 34 22  2  0  0  0  0
 35 23  1  0  0  0  0
 36 33  2  0  0  0  0
 36 34  1  0  0  0  0
 39 18  1  0  0  0  0
 39 29  1  0  0  0  0
 39 37  1  0  0  0  0
 40 35  2  0  0  0  0
 41 35  1  0  0  0  0
 41 97  1  0  0  0  0
 42 37  2  0  0  0  0
 43 38  2  0  0  0  0
 44  2  1  0  0  0  0
 44 31  1  0  0  0  0
 45  3  1  0  0  0  0
 45 32  1  0  0  0  0
 46  4  1  0  0  0  0
 46 33  1  0  0  0  0
 47  5  1  0  0  0  0
 47 34  1  0  0  0  0
 48  6  1  0  0  0  0
 48 36  1  0  0  0  0
 49 23  1  0  0  0  0
 49 27  1  0  0  0  0
 50 38  1  0  0  0  0
M  END
>  <DRUGBANK_ID>
DB01723

>  <SECONDARY_ACCESSION_NUMBERS>
EXPT00532

>  <COMMON_NAME>
{3-[3-(3,4-Dimethoxy-Phenyl)-1-(1-{1-[2-(3,4,5-Trimethoxy-Phenyl)-Butyryl]-Piperidin-2yl}-Vinyloxy)-Propyl]-Phenoxy}-Acetic Acid

$$$$
