
 OpenBabel10282417143D

 28 29  0  0  0  0  0  0  0  0999 V2000
   -2.0814   -0.0684   -0.0536 C   0  0  0  0  0  0  0  0  0  0  0  0
   -0.6385   -0.1213    0.0343 N   0  0  0  0  0  0  0  0  0  0  0  0
    0.0364    1.0502    0.0765 N   0  0  0  0  0  0  0  0  0  0  0  0
    1.3284    0.7022    0.0042 C   0  0  0  0  0  0  0  0  0  0  0  0
    1.4613   -0.7008   -0.0236 C   0  0  0  0  0  0  0  0  0  0  0  0
    0.1917   -1.2236    0.0352 C   0  0  0  0  0  0  0  0  0  0  0  0
   -0.1480   -2.5696    0.0646 N   0  0  0  0  0  0  0  0  0  0  0  0
    0.8948   -3.8195   -0.0336 S   0  0  0  0  0  0  0  0  0  0  0  0
    0.5423   -4.6142    1.3208 O   0  0  0  0  0  0  0  0  0  0  0  0
    0.4943   -4.6740   -1.1317 O   0  0  0  0  0  0  0  0  0  0  0  0
    2.2745   -3.4379    0.1260 O   0  0  0  0  0  0  0  0  0  0  0  0
    2.4296    1.6547   -0.0754 C   0  0  0  0  0  0  0  0  0  0  0  0
    3.3177    1.6006   -1.1618 C   0  0  0  0  0  0  0  0  0  0  0  0
    4.3560    2.5279   -1.2768 C   0  0  0  0  0  0  0  0  0  0  0  0
    4.5140    3.5159   -0.3083 C   0  0  0  0  0  0  0  0  0  0  0  0
    3.6442    3.5671    0.7811 C   0  0  0  0  0  0  0  0  0  0  0  0
    2.6304    2.6137    0.9212 C   0  0  0  0  0  0  0  0  0  0  0  0
   -2.4660    0.5337    0.7749 H   0  0  0  0  0  0  0  0  0  0  0  0
   -2.3531    0.3959   -1.0071 H   0  0  0  0  0  0  0  0  0  0  0  0
   -2.4993   -1.0754   -0.0033 H   0  0  0  0  0  0  0  0  0  0  0  0
    2.4092   -1.2103   -0.0774 H   0  0  0  0  0  0  0  0  0  0  0  0
   -1.1120   -2.8580    0.0687 H   0  0  0  0  0  0  0  0  0  0  0  0
    1.0815   -4.2412    2.0507 H   0  0  0  0  0  0  0  0  0  0  0  0
    3.2016    0.8475   -1.9376 H   0  0  0  0  0  0  0  0  0  0  0  0
    5.0257    2.4946   -2.1329 H   0  0  0  0  0  0  0  0  0  0  0  0
    5.3139    4.2471   -0.4021 H   0  0  0  0  0  0  0  0  0  0  0  0
    3.7470    4.3630    1.5146 H   0  0  0  0  0  0  0  0  0  0  0  0
    2.0052    2.6254    1.8103 H   0  0  0  0  0  0  0  0  0  0  0  0
  1  2  1  0  0  0  0
  1 18  1  0  0  0  0
  1 19  1  0  0  0  0
  1 20  1  0  0  0  0
  2  3  1  0  0  0  0
  2  6  1  0  0  0  0
  3  4  2  0  0  0  0
  4  5  1  0  0  0  0
  4 12  1  0  0  0  0
  5  6  2  0  0  0  0
  5 21  1  0  0  0  0
  6  7  1  0  0  0  0
  7  8  1  0  0  0  0
  7 22  1  0  0  0  0
  8  9  1  0  0  0  0
  8 10  2  0  0  0  0
  8 11  2  0  0  0  0
  9 23  1  0  0  0  0
 12 13  2  0  0  0  0
 12 17  1  0  0  0  0
 13 14  1  0  0  0  0
 13 24  1  0  0  0  0
 14 15  2  0  0  0  0
 14 25  1  0  0  0  0
 15 16  1  0  0  0  0
 15 26  1  0  0  0  0
 16 17  2  0  0  0  0
 16 27  1  0  0  0  0
 17 28  1  0  0  0  0
M  END
>  <DRUGBANK_ID>
DB04800

>  <COMMON_NAME>
1-METHYL-3-PHENYL-1H-PYRAZOL-5-YLSULFAMIC ACID

$$$$
