
 OpenBabel10282417183D

 72 75  0  0  0  0  0  0  0  0999 V2000
    3.0616   -3.7036   -4.8126 C   0  0  0  0  0  0  0  0  0  0  0  0
    3.5951   -4.9237   -4.3113 C   0  0  0  0  0  0  0  0  0  0  0  0
    3.4888   -5.7447   -5.9237 C   0  0  0  0  0  0  0  0  0  0  0  0
    3.3606   -5.0084   -7.7686 C   0  0  0  0  0  0  0  0  0  0  0  0
    1.9093   -3.6967   -6.2319 C   0  0  0  0  0  0  0  0  0  0  0  0
    3.1381   -3.3321   -8.5417 C   0  0  2  0  0  0  0  0  0  0  0  0
    1.8751   -3.0538   -7.8512 C   0  0  0  0  0  0  0  0  0  0  0  0
    4.4064   -6.5655   -5.4186 C   0  0  0  0  0  0  0  0  0  0  0  0
    5.5827   -6.0224   -6.0905 C   0  0  0  0  0  0  0  0  0  0  0  0
    5.6802   -6.3964   -7.3929 C   0  0  0  0  0  0  0  0  0  0  0  0
    5.2104   -5.1365   -8.1001 C   0  0  0  0  0  0  0  0  0  0  0  0
    3.9405   -5.3300   -8.8434 C   0  0  0  0  0  0  0  0  0  0  0  0
    4.4254   -5.0635   -2.6981 C   0  0  0  0  0  0  0  0  0  0  0  0
    4.8129   -3.9003   -1.7798 C   0  0  0  0  0  0  0  0  0  0  0  0
    4.3785   -2.6395   -2.4242 C   0  0  0  0  0  0  0  0  0  0  0  0
    3.5206   -2.6453   -3.8668 C   0  0  0  0  0  0  0  0  0  0  0  0
    4.2650   -1.2327   -1.6452 O   0  0  0  0  0  0  0  0  0  0  0  0
    5.3543   -3.9916   -0.2408 O   0  0  0  0  0  0  0  0  0  0  0  0
    5.3216   -4.9430    1.1758 C   0  0  0  0  0  0  0  0  0  0  0  0
    4.7702   -6.0162   -1.6953 O   0  0  0  0  0  0  0  0  0  0  0  0
    5.1961   -7.3378   -1.3990 C   0  0  0  0  0  0  0  0  0  0  0  0
    5.1138   -8.0627   -7.8162 S   0  0  0  0  0  0  0  0  0  0  0  0
    4.7898   -8.1057   -9.5642 C   0  0  0  0  0  0  0  0  0  0  0  0
    5.5075   -3.9903   -7.7188 O   0  0  0  0  0  0  0  0  0  0  0  0
    2.9649   -2.7245  -10.2302 N   0  0  0  0  0  0  0  0  0  0  0  0
    3.6180   -1.4919  -10.7659 C   0  0  0  0  0  0  0  0  0  0  0  0
    3.0167   -0.5342  -11.2760 O   0  0  0  0  0  0  0  0  0  0  0  0
    5.1275   -1.4701  -10.7947 C   0  0  0  0  0  0  0  0  0  0  0  0
    3.3688   -1.1146   -0.1892 C   0  0  2  0  0  0  0  0  0  0  0  0
    3.8996   -0.9211    1.1883 O   0  0  0  0  0  0  0  0  0  0  0  0
    3.0548   -1.6913    2.2066 C   0  0  1  0  0  0  0  0  0  0  0  0
    3.3092   -3.1672    1.9916 C   0  0  2  0  0  0  0  0  0  0  0  0
    2.7190   -3.5897    0.6775 C   0  0  1  0  0  0  0  0  0  0  0  0
    3.0002   -2.5099   -0.2599 C   0  0  1  0  0  0  0  0  0  0  0  0
    1.9924   -2.5631   -1.2206 O   0  0  0  0  0  0  0  0  0  0  0  0
    2.8190   -4.0481    2.9860 O   0  0  0  0  0  0  0  0  0  0  0  0
    3.4844   -1.4463    3.6647 C   0  0  0  0  0  0  0  0  0  0  0  0
    2.9777   -4.9033    0.1408 O   0  0  0  0  0  0  0  0  0  0  0  0
    3.1149   -0.1354    4.0365 O   0  0  0  0  0  0  0  0  0  0  0  0
    0.8834   -3.7247   -5.8881 H   0  0  0  0  0  0  0  0  0  0  0  0
    1.7389   -4.7656   -6.5362 H   0  0  0  0  0  0  0  0  0  0  0  0
    4.0131   -2.7186   -8.4197 H   0  0  0  0  0  0  0  0  0  0  0  0
    1.6097   -2.0112   -8.0140 H   0  0  0  0  0  0  0  0  0  0  0  0
    1.1579   -3.6191   -8.5234 H   0  0  0  0  0  0  0  0  0  0  0  0
    4.7863   -7.6030   -5.3278 H   0  0  0  0  0  0  0  0  0  0  0  0
    5.5758   -4.9433   -5.8018 H   0  0  0  0  0  0  0  0  0  0  0  0
    4.2111   -6.0726   -9.6031 H   0  0  0  0  0  0  0  0  0  0  0  0
    3.1588   -1.6610   -4.1074 H   0  0  0  0  0  0  0  0  0  0  0  0
    4.4625   -5.6305    1.3491 H   0  0  0  0  0  0  0  0  0  0  0  0
    6.2881   -5.3968    1.2897 H   0  0  0  0  0  0  0  0  0  0  0  0
    5.2947   -4.4184    2.1863 H   0  0  0  0  0  0  0  0  0  0  0  0
    4.3849   -7.9912   -1.6740 H   0  0  0  0  0  0  0  0  0  0  0  0
    6.1694   -7.5068   -1.8533 H   0  0  0  0  0  0  0  0  0  0  0  0
    5.3925   -7.5812   -0.3079 H   0  0  0  0  0  0  0  0  0  0  0  0
    3.7277   -7.9085   -9.7896 H   0  0  0  0  0  0  0  0  0  0  0  0
    5.4583   -7.3807  -10.0281 H   0  0  0  0  0  0  0  0  0  0  0  0
    5.0198   -9.0792   -9.9796 H   0  0  0  0  0  0  0  0  0  0  0  0
    2.0002   -2.5306  -10.5549 H   0  0  0  0  0  0  0  0  0  0  0  0
    5.4694   -1.7567   -9.8115 H   0  0  0  0  0  0  0  0  0  0  0  0
    5.4824   -2.1405  -11.5823 H   0  0  0  0  0  0  0  0  0  0  0  0
    5.5564   -0.4732  -11.0163 H   0  0  0  0  0  0  0  0  0  0  0  0
    2.6137   -0.3361   -0.3510 H   0  0  0  0  0  0  0  0  0  0  0  0
    1.9882   -1.4820    2.0670 H   0  0  0  0  0  0  0  0  0  0  0  0
    4.3895   -3.0751    2.0370 H   0  0  0  0  0  0  0  0  0  0  0  0
    1.6544   -3.6820    0.7430 H   0  0  0  0  0  0  0  0  0  0  0  0
    4.0832   -2.6179   -0.3061 H   0  0  0  0  0  0  0  0  0  0  0  0
    2.3521   -2.8941   -2.0446 H   0  0  0  0  0  0  0  0  0  0  0  0
    1.9413   -4.3520    2.6821 H   0  0  0  0  0  0  0  0  0  0  0  0
    3.0003   -2.1507    4.3597 H   0  0  0  0  0  0  0  0  0  0  0  0
    4.5670   -1.5656    3.7976 H   0  0  0  0  0  0  0  0  0  0  0  0
    3.8853   -4.9811   -0.2283 H   0  0  0  0  0  0  0  0  0  0  0  0
    3.5362    0.4305    3.3668 H   0  0  0  0  0  0  0  0  0  0  0  0
  1  5  1  0  0  0  0
  1  2  1  0  0  0  0
  2  3  1  0  0  0  0
  2 13  2  0  0  0  0
  3  4  1  0  0  0  0
  3  8  2  0  0  0  0
  4  6  1  0  0  0  0
  4 12  2  0  0  0  0
  5  7  1  0  0  0  0
  5 40  1  0  0  0  0
  5 41  1  0  0  0  0
  6  7  1  0  0  0  0
  6 42  1  1  0  0  0
  6 25  1  0  0  0  0
  7 43  1  0  0  0  0
  7 44  1  0  0  0  0
  8  9  1  0  0  0  0
  8 45  1  0  0  0  0
  9 10  2  0  0  0  0
  9 46  1  0  0  0  0
 10 11  1  0  0  0  0
 10 22  1  0  0  0  0
 11 12  1  0  0  0  0
 11 24  2  0  0  0  0
 12 47  1  0  0  0  0
 13 14  1  0  0  0  0
 13 20  1  0  0  0  0
 14 15  2  0  0  0  0
 14 18  1  0  0  0  0
 15 16  1  0  0  0  0
 15 17  1  0  0  0  0
 16  1  2  0  0  0  0
 16 48  1  0  0  0  0
 18 19  1  0  0  0  0
 19 49  1  0  0  0  0
 19 50  1  0  0  0  0
 19 51  1  0  0  0  0
 20 21  1  0  0  0  0
 21 52  1  0  0  0  0
 21 53  1  0  0  0  0
 21 54  1  0  0  0  0
 22 23  1  0  0  0  0
 23 55  1  0  0  0  0
 23 56  1  0  0  0  0
 23 57  1  0  0  0  0
 25 26  1  0  0  0  0
 25 58  1  0  0  0  0
 26 27  2  0  0  0  0
 26 28  1  0  0  0  0
 28 59  1  0  0  0  0
 28 60  1  0  0  0  0
 28 61  1  0  0  0  0
 29 30  1  0  0  0  0
 29 34  1  0  0  0  0
 29 62  1  6  0  0  0
 29 17  1  0  0  0  0
 30 31  1  0  0  0  0
 31 32  1  0  0  0  0
 31 37  1  0  0  0  0
 31 63  1  6  0  0  0
 32 33  1  0  0  0  0
 32 36  1  0  0  0  0
 32 64  1  6  0  0  0
 33 34  1  0  0  0  0
 33 38  1  0  0  0  0
 33 65  1  1  0  0  0
 34 35  1  0  0  0  0
 34 66  1  6  0  0  0
 35 67  1  0  0  0  0
 36 68  1  0  0  0  0
 37 39  1  0  0  0  0
 37 69  1  0  0  0  0
 37 70  1  0  0  0  0
 38 71  1  0  0  0  0
 39 72  1  0  0  0  0
M  END
>  <DRUGBANK_ID>
DB11582

>  <COMMON_NAME>
Thiocolchicoside

>  <CAS_NUMBER>
602-41-5

>  <UNII>
T1X8S697GT

>  <SYNONYMS>
TCC; Thiocolchicine 2-glucoside analog; Thiocolchicoside

$$$$
