QUE
 OpenBabel10282417143D

 32 34  0  0  0  0  0  0  0  0999 V2000
   -2.2866   -0.9816   -0.0189 C   0  0  0  0  0  0  0  0  0  0  0  0
   -0.9299   -1.3132    0.0029 C   0  0  0  0  0  0  0  0  0  0  0  0
    0.0566   -0.3080    0.0280 C   0  0  0  0  0  0  0  0  0  0  0  0
   -0.3230    1.0364    0.0422 C   0  0  0  0  0  0  0  0  0  0  0  0
   -1.6825    1.3690    0.0304 C   0  0  0  0  0  0  0  0  0  0  0  0
   -2.6489    0.3620   -0.0076 C   0  0  0  0  0  0  0  0  0  0  0  0
    1.4992   -0.6189    0.0273 C   0  0  0  0  0  0  0  0  0  0  0  0
    2.4402    0.5358   -0.0215 C   0  0  0  0  0  0  0  0  0  0  0  0
    1.9384    1.7893   -0.0153 C   0  0  0  0  0  0  0  0  0  0  0  0
    2.8277    2.9795   -0.1096 C   0  0  0  0  0  0  0  0  0  0  0  0
    3.6817    3.1173   -1.2236 C   0  0  0  0  0  0  0  0  0  0  0  0
    4.6119    4.1577   -1.3020 C   0  0  0  0  0  0  0  0  0  0  0  0
    4.6848    5.0847   -0.2767 C   0  0  0  0  0  0  0  0  0  0  0  0
    3.8325    4.9894    0.8217 C   0  0  0  0  0  0  0  0  0  0  0  0
    2.9021    3.9440    0.9135 C   0  0  0  0  0  0  0  0  0  0  0  0
    0.5802    2.0810    0.0601 O   0  0  0  0  0  0  0  0  0  0  0  0
    1.9338   -1.7674    0.0544 O   0  0  0  0  0  0  0  0  0  0  0  0
    3.9599    5.9430    1.7962 O   0  0  0  0  0  0  0  0  0  0  0  0
    5.6135    6.0817   -0.3738 O   0  0  0  0  0  0  0  0  0  0  0  0
    3.7890    0.2229   -0.0756 O   0  0  0  0  0  0  0  0  0  0  0  0
   -3.9584    0.7462   -0.0391 O   0  0  0  0  0  0  0  0  0  0  0  0
   -0.5712   -2.6322   -0.0086 O   0  0  0  0  0  0  0  0  0  0  0  0
   -3.0422   -1.7605   -0.0482 H   0  0  0  0  0  0  0  0  0  0  0  0
   -1.9977    2.4089    0.0407 H   0  0  0  0  0  0  0  0  0  0  0  0
    3.6512    2.3923   -2.0362 H   0  0  0  0  0  0  0  0  0  0  0  0
    5.2808    4.2401   -2.1538 H   0  0  0  0  0  0  0  0  0  0  0  0
    2.2549    3.8586    1.7818 H   0  0  0  0  0  0  0  0  0  0  0  0
    3.3065    5.7702    2.4955 H   0  0  0  0  0  0  0  0  0  0  0  0
    5.5106    6.6233    0.4321 H   0  0  0  0  0  0  0  0  0  0  0  0
    4.3215    1.0316   -0.0455 H   0  0  0  0  0  0  0  0  0  0  0  0
   -4.5324   -0.0370   -0.0884 H   0  0  0  0  0  0  0  0  0  0  0  0
   -1.3397   -3.2215   -0.0259 H   0  0  0  0  0  0  0  0  0  0  0  0
  1  2  2  0  0  0  0
  1  6  1  0  0  0  0
  1 23  1  0  0  0  0
  2  3  1  0  0  0  0
  2 22  1  0  0  0  0
  3  4  2  0  0  0  0
  3  7  1  0  0  0  0
  4  5  1  0  0  0  0
  4 16  1  0  0  0  0
  5  6  2  0  0  0  0
  5 24  1  0  0  0  0
  6 21  1  0  0  0  0
  7  8  1  0  0  0  0
  7 17  2  0  0  0  0
  8  9  2  0  0  0  0
  8 20  1  0  0  0  0
  9 10  1  0  0  0  0
  9 16  1  0  0  0  0
 10 11  2  0  0  0  0
 10 15  1  0  0  0  0
 11 12  1  0  0  0  0
 11 25  1  0  0  0  0
 12 13  2  0  0  0  0
 12 26  1  0  0  0  0
 13 14  1  0  0  0  0
 13 19  1  0  0  0  0
 14 15  2  0  0  0  0
 14 18  1  0  0  0  0
 15 27  1  0  0  0  0
 18 28  1  0  0  0  0
 19 29  1  0  0  0  0
 20 30  1  0  0  0  0
 21 31  1  0  0  0  0
 22 32  1  0  0  0  0
M  END
>  <DRUGBANK_ID>
DB04216

>  <SECONDARY_ACCESSION_NUMBERS>
EXPT02732

>  <COMMON_NAME>
Quercetin

>  <CAS_NUMBER>
117-39-5

>  <UNII>
9IKM0I5T1E

>  <SYNONYMS>
2-(3,4-dihydroxyphenyl)-3,5,7-trihydroxy-4H-1-benzopyran-4-one; 3,3',4',5,7-pentahydroxyflavone; 3,5,7,3',4'-Pentahydroxyflavone; 3'-HYDROXYKAEMPFEROL; FLAVONE, 3,3',4',5,7-PENTAHYDROXY-; poly (lactide-co-glycolide)-polyethylene glycol nanoparticles encapsulating quercetin; Sophoretin; Xanthaurine

$$$$
