IPO
 OpenBabel10282417123D

 25 25  0  0  0  0  0  0  0  0999 V2000
    3.5676    0.0434   -0.0578 C   0  0  0  0  0  0  0  0  0  0  0  0
    2.8567    1.2440    0.0045 C   0  0  0  0  0  0  0  0  0  0  0  0
    1.4602    1.2318    0.0278 C   0  0  0  0  0  0  0  0  0  0  0  0
    0.7695    0.0193    0.0207 C   0  0  0  0  0  0  0  0  0  0  0  0
   -1.3042   -0.0002    0.0374 I   0  0  0  0  0  0  0  0  0  0  0  0
    1.4618   -1.1829   -0.0409 C   0  0  0  0  0  0  0  0  0  0  0  0
    2.8488   -1.1612   -0.1391 C   0  0  0  0  0  0  0  0  0  0  0  0
    5.0799    0.0539   -0.0735 C   0  0  0  0  0  0  0  0  0  0  0  0
    5.7302   -0.6903    1.1166 C   0  0  1  0  0  0  0  0  0  0  0  0
    5.3450   -2.1239    1.2262 N   0  0  0  0  0  0  0  0  0  0  0  0
    7.2638   -0.6182    1.0446 C   0  0  0  0  0  0  0  0  0  0  0  0
    7.9175   -0.0971    1.9573 O   0  0  0  0  0  0  0  0  0  0  0  0
    7.9024   -1.1740   -0.0201 N   0  0  0  0  0  0  0  0  0  0  0  0
    7.2577   -1.8581   -1.0626 O   0  0  0  0  0  0  0  0  0  0  0  0
    5.4208   -0.1971    2.0482 H   0  0  0  0  0  0  0  0  0  0  0  0
    3.3817    2.1971    0.0168 H   0  0  0  0  0  0  0  0  0  0  0  0
    0.9259    2.1769    0.0486 H   0  0  0  0  0  0  0  0  0  0  0  0
    0.9491   -2.1411   -0.0340 H   0  0  0  0  0  0  0  0  0  0  0  0
    3.3585   -2.1125   -0.2757 H   0  0  0  0  0  0  0  0  0  0  0  0
    5.3908   -0.3420   -1.0451 H   0  0  0  0  0  0  0  0  0  0  0  0
    5.4490    1.0896   -0.0674 H   0  0  0  0  0  0  0  0  0  0  0  0
    5.7982   -2.5146    2.0565 H   0  0  0  0  0  0  0  0  0  0  0  0
    4.3549   -2.1458    1.4839 H   0  0  0  0  0  0  0  0  0  0  0  0
    8.9163   -1.2052   -0.0184 H   0  0  0  0  0  0  0  0  0  0  0  0
    6.3942   -2.1297   -0.6872 H   0  0  0  0  0  0  0  0  0  0  0  0
  1  2  2  0  0  0  0
  1  7  1  0  0  0  0
  1  8  1  0  0  0  0
  2  3  1  0  0  0  0
  2 16  1  0  0  0  0
  3  4  2  0  0  0  0
  3 17  1  0  0  0  0
  4  5  1  0  0  0  0
  4  6  1  0  0  0  0
  6  7  2  0  0  0  0
  6 18  1  0  0  0  0
  7 19  1  0  0  0  0
  8  9  1  0  0  0  0
  8 20  1  0  0  0  0
  8 21  1  0  0  0  0
  9 10  1  0  0  0  0
  9 11  1  0  0  0  0
  9 15  1  1  0  0  0
 10 22  1  0  0  0  0
 10 23  1  0  0  0  0
 11 12  2  0  0  0  0
 11 13  1  0  0  0  0
 13 14  1  0  0  0  0
 13 24  1  0  0  0  0
 14 25  1  0  0  0  0
M  END
>  <DRUGBANK_ID>
DB01980

>  <SECONDARY_ACCESSION_NUMBERS>
EXPT01920

>  <COMMON_NAME>
Para-Iodo-D-Phenylalanine Hydroxamic Acid

$$$$
