
 OpenBabel10282417193D

 56 59  0  0  0  0  0  0  0  0999 V2000
   -0.2487    0.7186   -0.0451 N   0  0  0  0  0  0  0  0  0  0  0  0
    0.9025    1.4086   -0.0187 N   0  0  0  0  0  0  0  0  0  0  0  0
    1.9629    0.6484   -0.0093 C   0  0  0  0  0  0  0  0  0  0  0  0
    2.0368   -0.7395   -0.0517 N   0  0  0  0  0  0  0  0  0  0  0  0
    0.9363   -1.4517   -0.1226 C   0  0  0  0  0  0  0  0  0  0  0  0
   -0.2676   -0.6354   -0.0426 C   0  0  0  0  0  0  0  0  0  0  0  0
   -1.5697   -0.9346    0.2279 C   0  0  0  0  0  0  0  0  0  0  0  0
   -2.4794    0.1336    0.0618 C   0  0  0  0  0  0  0  0  0  0  0  0
   -1.5663    1.1942   -0.0250 C   0  0  0  0  0  0  0  0  0  0  0  0
   -3.9998    0.1669    0.0648 C   0  0  0  0  0  0  0  0  0  0  0  0
   -4.5856    1.2736   -0.0190 O   0  0  0  0  0  0  0  0  0  0  0  0
   -4.8844   -0.9343    0.1486 N   0  0  0  0  0  0  0  0  0  0  0  0
   -4.6201   -2.3436    0.0216 C   0  0  0  0  0  0  0  0  0  0  0  0
   -4.6773   -3.1991    1.2944 C   0  0  0  0  0  0  0  0  0  0  0  0
   -6.0817   -3.7057    1.3923 C   0  0  0  0  0  0  0  0  0  0  0  0
   -1.8947   -2.2547    0.5613 C   0  0  0  0  0  0  0  0  0  0  0  0
    1.0804   -2.8791   -0.2253 N   0  0  0  0  0  0  0  0  0  0  0  0
    0.1204   -3.9733   -0.3209 C   0  0  0  0  0  0  0  0  0  0  0  0
   -0.2062   -4.7812    0.8222 C   0  0  0  0  0  0  0  0  0  0  0  0
   -1.4574   -5.4694    0.8802 C   0  0  0  0  0  0  0  0  0  0  0  0
   -2.3757   -5.4360   -0.1749 C   0  0  0  0  0  0  0  0  0  0  0  0
   -2.0696   -4.7127   -1.3274 C   0  0  0  0  0  0  0  0  0  0  0  0
   -0.8033   -4.0164   -1.4049 C   0  0  0  0  0  0  0  0  0  0  0  0
   -3.1613   -4.3051   -2.2899 C   0  0  0  0  0  0  0  0  0  0  0  0
   -2.9013   -3.3731   -3.0452 O   0  0  0  0  0  0  0  0  0  0  0  0
   -4.4248   -4.9060   -2.2203 N   0  0  0  0  0  0  0  0  0  0  0  0
   -5.5172   -4.6356   -3.1362 C   0  0  0  0  0  0  0  0  0  0  0  0
   -5.4197   -3.7163   -4.3248 C   0  0  0  0  0  0  0  0  0  0  0  0
   -5.4498   -5.2015   -4.5321 C   0  0  0  0  0  0  0  0  0  0  0  0
    0.5408   -4.7233    2.1339 C   0  0  0  0  0  0  0  0  0  0  0  0
    2.9390    1.1678    0.0206 H   0  0  0  0  0  0  0  0  0  0  0  0
   -1.7458    2.2592   -0.0558 H   0  0  0  0  0  0  0  0  0  0  0  0
   -5.8554   -0.6903    0.0028 H   0  0  0  0  0  0  0  0  0  0  0  0
   -5.0544   -2.8373   -0.8481 H   0  0  0  0  0  0  0  0  0  0  0  0
   -3.6711   -2.2623   -0.3697 H   0  0  0  0  0  0  0  0  0  0  0  0
   -4.0136   -4.0713    1.2521 H   0  0  0  0  0  0  0  0  0  0  0  0
   -4.3781   -2.6595    2.2033 H   0  0  0  0  0  0  0  0  0  0  0  0
   -6.2973   -4.3071    0.5027 H   0  0  0  0  0  0  0  0  0  0  0  0
   -6.2271   -4.3180    2.2820 H   0  0  0  0  0  0  0  0  0  0  0  0
   -6.7442   -2.8402    1.4123 H   0  0  0  0  0  0  0  0  0  0  0  0
   -2.6211   -2.2876    1.3359 H   0  0  0  0  0  0  0  0  0  0  0  0
   -2.1207   -2.6094   -0.4358 H   0  0  0  0  0  0  0  0  0  0  0  0
   -1.0991   -2.7738    1.0181 H   0  0  0  0  0  0  0  0  0  0  0  0
    1.9845   -3.1959    0.1102 H   0  0  0  0  0  0  0  0  0  0  0  0
   -1.8040   -5.8890    1.8310 H   0  0  0  0  0  0  0  0  0  0  0  0
   -3.3714   -5.8302    0.0126 H   0  0  0  0  0  0  0  0  0  0  0  0
   -0.6962   -3.2490   -2.1787 H   0  0  0  0  0  0  0  0  0  0  0  0
   -4.6734   -5.4853   -1.4299 H   0  0  0  0  0  0  0  0  0  0  0  0
   -6.4954   -4.6984   -2.6557 H   0  0  0  0  0  0  0  0  0  0  0  0
   -6.2829   -3.1307   -4.6167 H   0  0  0  0  0  0  0  0  0  0  0  0
   -4.4977   -3.1879   -4.5244 H   0  0  0  0  0  0  0  0  0  0  0  0
   -4.5327   -5.7073   -4.8119 H   0  0  0  0  0  0  0  0  0  0  0  0
   -6.3399   -5.6130   -4.9920 H   0  0  0  0  0  0  0  0  0  0  0  0
   -0.1086   -4.3664    2.9481 H   0  0  0  0  0  0  0  0  0  0  0  0
    0.8801   -5.7314    2.3856 H   0  0  0  0  0  0  0  0  0  0  0  0
    1.4014   -4.0559    2.0945 H   0  0  0  0  0  0  0  0  0  0  0  0
  1  2  1  0  0  0  0
  3  2  2  0  0  0  0
  3  4  1  0  0  0  0
  3 31  1  0  0  0  0
  5  4  2  0  0  0  0
  5 17  1  0  0  0  0
  5  6  1  0  0  0  0
  6  1  1  0  0  0  0
  6  7  2  0  0  0  0
  7  8  1  0  0  0  0
  8  9  2  0  0  0  0
  9  1  1  0  0  0  0
  9 32  1  0  0  0  0
 10  8  1  0  0  0  0
 10 11  2  0  0  0  0
 10 12  1  0  0  0  0
 12 33  1  0  0  0  0
 13 12  1  0  0  0  0
 13 14  1  0  0  0  0
 13 34  1  0  0  0  0
 13 35  1  0  0  0  0
 14 15  1  0  0  0  0
 14 36  1  0  0  0  0
 14 37  1  0  0  0  0
 15 38  1  0  0  0  0
 15 39  1  0  0  0  0
 15 40  1  0  0  0  0
 16  7  1  0  0  0  0
 16 41  1  0  0  0  0
 16 42  1  0  0  0  0
 16 43  1  0  0  0  0
 17 44  1  0  0  0  0
 18 17  1  0  0  0  0
 18 23  2  0  0  0  0
 18 19  1  0  0  0  0
 19 20  2  0  0  0  0
 19 30  1  0  0  0  0
 20 21  1  0  0  0  0
 20 45  1  0  0  0  0
 21 22  2  0  0  0  0
 21 46  1  0  0  0  0
 22 24  1  0  0  0  0
 22 23  1  0  0  0  0
 23 47  1  0  0  0  0
 24 26  1  0  0  0  0
 24 25  2  0  0  0  0
 26 48  1  0  0  0  0
 27 26  1  0  0  0  0
 27 29  1  0  0  0  0
 27 28  1  0  0  0  0
 27 49  1  0  0  0  0
 28 29  1  0  0  0  0
 28 50  1  0  0  0  0
 28 51  1  0  0  0  0
 29 52  1  0  0  0  0
 29 53  1  0  0  0  0
 30 54  1  0  0  0  0
 30 55  1  0  0  0  0
 30 56  1  0  0  0  0
M  END
>  <DRUGBANK_ID>
DB12696

>  <COMMON_NAME>
BMS-582949

>  <CAS_NUMBER>
623152-17-0

>  <UNII>
CR743OME9E

$$$$
