
 OpenBabel10282417223D

 52 56  0  0  1  0  0  0  0  0999 V2000
    0.9603    0.0930    0.1964 C   0  0  0  0  0  0  0  0  0  0  0  0
    0.1352    1.2308   -0.1935 N   0  0  0  0  0  0  0  0  0  0  0  0
    0.6323    2.6100   -0.0190 C   0  0  0  0  0  0  0  0  0  0  0  0
    0.2095    3.3848   -1.2932 C   0  0  1  0  0  0  0  0  0  0  0  0
    1.2372    4.3886   -1.8293 C   0  0  0  0  0  0  0  0  0  0  0  0
    2.1438    3.5876   -2.7705 C   0  0  0  0  0  0  0  0  0  0  0  0
    1.5701    2.2555   -2.7790 N   0  0  0  0  0  0  0  0  0  0  0  0
    0.1708    2.2885   -2.3507 C   0  0  1  0  0  0  0  0  0  0  0  0
   -0.3198    1.0835   -1.5781 C   0  0  0  0  0  0  0  0  0  0  0  0
    2.3139    1.1386   -3.0369 C   0  0  0  0  0  0  0  0  0  0  0  0
    1.9305    0.2386   -4.0328 C   0  0  0  0  0  0  0  0  0  0  0  0
    2.7109   -0.8815   -4.3470 C   0  0  0  0  0  0  0  0  0  0  0  0
    3.8924   -1.1480   -3.6474 C   0  0  0  0  0  0  0  0  0  0  0  0
    4.2827   -0.2448   -2.6493 C   0  0  0  0  0  0  0  0  0  0  0  0
    3.4872    0.8584   -2.3283 C   0  0  0  0  0  0  0  0  0  0  0  0
    4.7023   -2.3440   -3.9075 C   0  0  0  0  0  0  0  0  0  0  0  0
    5.2789   -2.5854   -5.1651 C   0  0  0  0  0  0  0  0  0  0  0  0
    6.1267   -3.6826   -5.3750 C   0  0  0  0  0  0  0  0  0  0  0  0
    6.3678   -4.5800   -4.3352 C   0  0  0  0  0  0  0  0  0  0  0  0
    5.8120   -4.3380   -3.0729 C   0  0  0  0  0  0  0  0  0  0  0  0
    4.9632   -3.2520   -2.8703 C   0  0  0  0  0  0  0  0  0  0  0  0
    7.0587   -5.7962   -4.5470 N   0  0  0  0  0  0  0  0  0  0  0  0
    8.2792   -5.7171   -5.1872 N   0  0  0  0  0  0  0  0  0  0  0  0
    8.9659   -6.8134   -5.2006 C   0  0  0  0  0  0  0  0  0  0  0  0
    8.5742   -8.0813   -4.5637 C   0  0  0  0  0  0  0  0  0  0  0  0
    7.2804   -8.1967   -4.2615 C   0  0  0  0  0  0  0  0  0  0  0  0
    6.4133   -7.0048   -4.2896 C   0  0  0  0  0  0  0  0  0  0  0  0
    5.2108   -7.1564   -4.0325 O   0  0  0  0  0  0  0  0  0  0  0  0
    0.7367   -0.7808   -0.4358 H   0  0  0  0  0  0  0  0  0  0  0  0
    0.6874   -0.2424    1.2009 H   0  0  0  0  0  0  0  0  0  0  0  0
    2.0433    0.2343    0.1338 H   0  0  0  0  0  0  0  0  0  0  0  0
    0.1306    3.0703    0.8426 H   0  0  0  0  0  0  0  0  0  0  0  0
    1.7117    2.7027    0.1591 H   0  0  0  0  0  0  0  0  0  0  0  0
   -0.7727    3.8534   -1.1480 H   0  0  0  0  0  0  0  0  0  0  0  0
    1.8122    4.8716   -1.0336 H   0  0  0  0  0  0  0  0  0  0  0  0
    0.7438    5.1871   -2.3995 H   0  0  0  0  0  0  0  0  0  0  0  0
    3.1876    3.6227   -2.4482 H   0  0  0  0  0  0  0  0  0  0  0  0
    2.0831    3.9927   -3.7886 H   0  0  0  0  0  0  0  0  0  0  0  0
   -0.4794    2.5228   -3.1997 H   0  0  0  0  0  0  0  0  0  0  0  0
   -0.0213    0.1531   -2.0662 H   0  0  0  0  0  0  0  0  0  0  0  0
   -1.4134    1.0726   -1.5272 H   0  0  0  0  0  0  0  0  0  0  0  0
    1.0166    0.4218   -4.5904 H   0  0  0  0  0  0  0  0  0  0  0  0
    2.3831   -1.5432   -5.1443 H   0  0  0  0  0  0  0  0  0  0  0  0
    5.2206   -0.3938   -2.1171 H   0  0  0  0  0  0  0  0  0  0  0  0
    3.7732    1.4752   -1.4794 H   0  0  0  0  0  0  0  0  0  0  0  0
    5.0634   -1.9151   -5.9939 H   0  0  0  0  0  0  0  0  0  0  0  0
    6.5382   -3.8648   -6.3631 H   0  0  0  0  0  0  0  0  0  0  0  0
    6.0481   -4.9908   -2.2361 H   0  0  0  0  0  0  0  0  0  0  0  0
    4.4921   -3.1277   -1.8967 H   0  0  0  0  0  0  0  0  0  0  0  0
    9.9215   -6.8478   -5.7507 H   0  0  0  0  0  0  0  0  0  0  0  0
    9.2952   -8.8730   -4.4275 H   0  0  0  0  0  0  0  0  0  0  0  0
    6.8288   -9.1108   -3.9019 H   0  0  0  0  0  0  0  0  0  0  0  0
  1  2  1  0  0  0  0
  1 29  1  0  0  0  0
  1 30  1  0  0  0  0
  1 31  1  0  0  0  0
  2  3  1  0  0  0  0
  2  9  1  0  0  0  0
  3 32  1  0  0  0  0
  3 33  1  0  0  0  0
  4  3  1  0  0  0  0
  4  5  1  0  0  0  0
  4  8  1  0  0  0  0
  4 34  1  1  0  0  0
  5  6  1  0  0  0  0
  5 35  1  0  0  0  0
  5 36  1  0  0  0  0
  6  7  1  0  0  0  0
  6 37  1  0  0  0  0
  6 38  1  0  0  0  0
  7 10  1  0  0  0  0
  8  7  1  0  0  0  0
  8  9  1  0  0  0  0
  8 39  1  6  0  0  0
  9 40  1  0  0  0  0
  9 41  1  0  0  0  0
 10 11  2  0  0  0  0
 10 15  1  0  0  0  0
 11 12  1  0  0  0  0
 11 42  1  0  0  0  0
 12 13  2  0  0  0  0
 12 43  1  0  0  0  0
 13 14  1  0  0  0  0
 13 16  1  0  0  0  0
 14 15  2  0  0  0  0
 14 44  1  0  0  0  0
 15 45  1  0  0  0  0
 16 17  2  0  0  0  0
 16 21  1  0  0  0  0
 17 18  1  0  0  0  0
 17 46  1  0  0  0  0
 18 19  2  0  0  0  0
 18 47  1  0  0  0  0
 19 20  1  0  0  0  0
 19 22  1  0  0  0  0
 20 21  2  0  0  0  0
 20 48  1  0  0  0  0
 21 49  1  0  0  0  0
 22 23  1  0  0  0  0
 22 27  1  0  0  0  0
 23 24  2  0  0  0  0
 24 25  1  0  0  0  0
 24 50  1  0  0  0  0
 25 26  2  0  0  0  0
 25 51  1  0  0  0  0
 26 27  1  0  0  0  0
 26 52  1  0  0  0  0
 27 28  2  0  0  0  0
M  END
>  <DRUGBANK_ID>
DB15192

>  <COMMON_NAME>
ABT-288

>  <CAS_NUMBER>
948845-91-8

>  <UNII>
5MEI1M3NHH

$$$$
