14C
 OpenBabel10282417163D

 28 30  0  0  0  0  0  0  0  0999 V2000
    1.1420   -1.2350    0.0066 C   0  0  0  0  0  0  0  0  0  0  0  0
    1.4166   -2.7048    0.0026 C   0  0  0  0  0  0  0  0  0  0  0  0
   -6.2055   -3.3481    2.2851 Cl  0  0  0  0  0  0  0  0  0  0  0  0
   -5.4926   -2.5411    0.9466 C   0  0  0  0  0  0  0  0  0  0  0  0
   -4.2396   -1.9483    1.0432 C   0  0  0  0  0  0  0  0  0  0  0  0
   -6.2659   -2.4931   -0.1484 N   0  0  0  0  0  0  0  0  0  0  0  0
   -5.8095   -1.7087   -1.1443 C   0  0  0  0  0  0  0  0  0  0  0  0
   -4.6795   -0.8853   -1.0491 C   0  0  0  0  0  0  0  0  0  0  0  0
   -3.8155   -1.0646    0.0354 C   0  0  0  0  0  0  0  0  0  0  0  0
   -2.4579   -0.5873    0.0338 N   0  0  0  0  0  0  0  0  0  0  0  0
   -1.9651    0.7094   -0.0376 C   0  0  0  0  0  0  0  0  0  0  0  0
   -2.5646    1.7671   -0.0644 O   0  0  0  0  0  0  0  0  0  0  0  0
   -0.4651    0.6093   -0.0160 C   0  0  0  0  0  0  0  0  0  0  0  0
    0.5809    1.5386   -0.0125 C   0  0  0  0  0  0  0  0  0  0  0  0
    1.9151    1.0648   -0.0014 C   0  0  0  0  0  0  0  0  0  0  0  0
   -1.4216   -1.4834    0.0480 C   0  0  0  0  0  0  0  0  0  0  0  0
   -1.4679   -2.7071    0.0442 O   0  0  0  0  0  0  0  0  0  0  0  0
   -0.1646   -0.7394    0.0127 C   0  0  0  0  0  0  0  0  0  0  0  0
    2.1907   -0.3108   -0.0007 C   0  0  0  0  0  0  0  0  0  0  0  0
    0.9890   -3.1643    0.8985 H   0  0  0  0  0  0  0  0  0  0  0  0
    0.9856   -3.1598   -0.8947 H   0  0  0  0  0  0  0  0  0  0  0  0
    2.4900   -2.9152   -0.0007 H   0  0  0  0  0  0  0  0  0  0  0  0
   -3.6201   -2.1719    1.9029 H   0  0  0  0  0  0  0  0  0  0  0  0
   -6.3765   -1.7979   -2.0704 H   0  0  0  0  0  0  0  0  0  0  0  0
   -4.4605   -0.2106   -1.8666 H   0  0  0  0  0  0  0  0  0  0  0  0
    0.4135    2.6127   -0.0134 H   0  0  0  0  0  0  0  0  0  0  0  0
    2.7606    1.7566    0.0043 H   0  0  0  0  0  0  0  0  0  0  0  0
    3.2256   -0.6584   -0.0025 H   0  0  0  0  0  0  0  0  0  0  0  0
  1  2  1  0  0  0  0
  1 18  2  0  0  0  0
  1 19  1  0  0  0  0
  2 20  1  0  0  0  0
  2 21  1  0  0  0  0
  2 22  1  0  0  0  0
  3  4  1  0  0  0  0
  4  5  2  0  0  0  0
  4  6  1  0  0  0  0
  5  9  1  0  0  0  0
  5 23  1  0  0  0  0
  6  7  2  0  0  0  0
  7  8  1  0  0  0  0
  7 24  1  0  0  0  0
  8  9  2  0  0  0  0
  8 25  1  0  0  0  0
  9 10  1  0  0  0  0
 10 11  1  0  0  0  0
 10 16  1  0  0  0  0
 11 12  2  0  0  0  0
 11 13  1  0  0  0  0
 13 14  2  0  0  0  0
 13 18  1  0  0  0  0
 14 15  1  0  0  0  0
 14 26  1  0  0  0  0
 15 19  2  0  0  0  0
 15 27  1  0  0  0  0
 16 17  2  0  0  0  0
 16 18  1  0  0  0  0
 19 28  1  0  0  0  0
M  END
>  <DRUGBANK_ID>
DB06860

>  <COMMON_NAME>
2-(2-chloropyridin-4-yl)-4-methyl-1H-isoindole-1,3(2H)-dione

$$$$
