
 OpenBabel10282417113D

 64 70  0  0  0  0  0  0  0  0999 V2000
   -2.3187    2.5286   -3.0429 C   0  0  0  0  0  0  0  0  0  0  0  0
   -0.3360    1.7576   -3.8432 C   0  0  0  0  0  0  0  0  0  0  0  0
    0.9393   -1.3011   -1.4433 C   0  0  0  0  0  0  0  0  0  0  0  0
   -6.0146   -0.4037   -2.4673 C   0  0  0  0  0  0  0  0  0  0  0  0
   -5.2654    0.6103   -3.2199 C   0  0  0  0  0  0  0  0  0  0  0  0
   -6.7762    0.1953    2.1586 C   0  0  0  0  0  0  0  0  0  0  0  0
   -6.8523   -1.2036    1.8871 C   0  0  0  0  0  0  0  0  0  0  0  0
   -1.8009    1.0137    1.0251 C   0  0  0  0  0  0  0  0  0  0  0  0
   -1.7421    0.3456   -0.1147 C   0  0  0  0  0  0  0  0  0  0  0  0
   -4.0559    1.9316   -1.0769 C   0  0  0  0  0  0  0  0  0  0  0  0
   -4.8530    3.3693   -1.1292 C   0  0  0  0  0  0  0  0  0  0  0  0
   -5.5531    2.4332    1.9065 C   0  0  0  0  0  0  0  0  0  0  0  0
   -1.4151    2.4621   -0.3368 C   0  0  0  0  0  0  0  0  0  0  0  0
   -6.2084    1.3650   -0.6039 C   0  0  0  0  0  0  0  0  0  0  0  0
   -6.3481    1.0149   -2.0865 C   0  0  0  0  0  0  0  0  0  0  0  0
   -5.5772    0.9060    2.0447 C   0  0  0  0  0  0  0  0  0  0  0  0
   -5.7498   -1.9483    1.4746 C   0  0  0  0  0  0  0  0  0  0  0  0
   -0.8229    1.0573   -1.4480 C   0  0  2  0  0  0  0  0  0  0  0  0
   -4.3092    2.8254    1.0454 C   0  0  2  0  0  0  0  0  0  0  0  0
   -4.5718    0.1544    1.4018 C   0  0  0  0  0  0  0  0  0  0  0  0
   -4.6066   -1.2650    1.1706 C   0  0  0  0  0  0  0  0  0  0  0  0
   -2.6776   -0.8889    0.2751 C   0  0  2  0  0  0  0  0  0  0  0  0
   -1.3884    1.3071   -2.8952 C   0  0  0  0  0  0  0  0  0  0  0  0
   -2.8127    1.9845    0.7377 C   0  0  1  0  0  0  0  0  0  0  0  0
   -3.7086    0.7741    0.3194 C   0  0  2  0  0  0  0  0  0  0  0  0
   -1.2029   -0.7028   -0.8761 C   0  0  1  0  0  0  0  0  0  0  0  0
   -5.4086    2.6750   -0.0868 N   0  0  0  0  0  0  0  0  0  0  0  0
   -5.8534   -3.2822    1.2245 O   0  0  0  0  0  0  0  0  0  0  0  0
   -1.9532    0.1010   -3.4233 O   0  0  0  0  0  0  0  0  0  0  0  0
    0.0223   -1.1741   -0.3398 O   0  0  0  0  0  0  0  0  0  0  0  0
   -3.6671   -1.8918    0.3165 O   0  0  0  0  0  0  0  0  0  0  0  0
    0.2648    1.1860   -1.4099 H   0  0  0  0  0  0  0  0  0  0  0  0
   -3.9535    3.8792    1.0236 H   0  0  0  0  0  0  0  0  0  0  0  0
   -2.1575   -1.1180    1.2867 H   0  0  0  0  0  0  0  0  0  0  0  0
   -1.8941    3.5315   -3.0738 H   0  0  0  0  0  0  0  0  0  0  0  0
   -2.6980    2.7554   -2.0928 H   0  0  0  0  0  0  0  0  0  0  0  0
   -3.1445    2.4059   -3.7445 H   0  0  0  0  0  0  0  0  0  0  0  0
    0.0347    2.7227   -3.4832 H   0  0  0  0  0  0  0  0  0  0  0  0
    0.4580    1.0288   -3.9271 H   0  0  0  0  0  0  0  0  0  0  0  0
   -0.8320    1.8847   -4.8140 H   0  0  0  0  0  0  0  0  0  0  0  0
    0.4366   -1.7558   -2.3039 H   0  0  0  0  0  0  0  0  0  0  0  0
    1.3318   -0.3312   -1.7624 H   0  0  0  0  0  0  0  0  0  0  0  0
    1.8089   -1.8962   -1.1634 H   0  0  0  0  0  0  0  0  0  0  0  0
   -6.6479   -1.0482   -3.0352 H   0  0  0  0  0  0  0  0  0  0  0  0
   -5.3689   -0.9656   -1.7724 H   0  0  0  0  0  0  0  0  0  0  0  0
   -4.2032    0.3766   -3.1549 H   0  0  0  0  0  0  0  0  0  0  0  0
   -5.3535    1.4038   -3.9531 H   0  0  0  0  0  0  0  0  0  0  0  0
   -7.7120    0.7569    2.1946 H   0  0  0  0  0  0  0  0  0  0  0  0
   -7.8188   -1.6926    1.9070 H   0  0  0  0  0  0  0  0  0  0  0  0
   -1.1604    0.8873    1.8663 H   0  0  0  0  0  0  0  0  0  0  0  0
   -2.5064    0.2961   -1.0871 H   0  0  0  0  0  0  0  0  0  0  0  0
   -4.5588    1.8881   -2.0005 H   0  0  0  0  0  0  0  0  0  0  0  0
   -3.5220    1.3192   -1.7451 H   0  0  0  0  0  0  0  0  0  0  0  0
   -5.8953    3.6349   -1.4494 H   0  0  0  0  0  0  0  0  0  0  0  0
   -4.4864    4.3510   -0.7714 H   0  0  0  0  0  0  0  0  0  0  0  0
   -6.5500    2.6566    1.3806 H   0  0  0  0  0  0  0  0  0  0  0  0
   -5.8702    3.1704    2.6468 H   0  0  0  0  0  0  0  0  0  0  0  0
   -0.5145    2.5907    0.3285 H   0  0  0  0  0  0  0  0  0  0  0  0
   -1.4160    3.4003   -0.8813 H   0  0  0  0  0  0  0  0  0  0  0  0
   -5.7585    0.4408   -0.2989 H   0  0  0  0  0  0  0  0  0  0  0  0
   -7.1908    1.3703   -0.1428 H   0  0  0  0  0  0  0  0  0  0  0  0
   -7.0631    1.7013   -2.5024 H   0  0  0  0  0  0  0  0  0  0  0  0
   -4.9466   -3.5891    1.0203 H   0  0  0  0  0  0  0  0  0  0  0  0
   -1.3183   -0.6350   -3.3366 H   0  0  0  0  0  0  0  0  0  0  0  0
  1 35  1  0  0  0  0
  1 36  1  0  0  0  0
  1 37  1  0  0  0  0
  2 38  1  0  0  0  0
  2 39  1  0  0  0  0
  2 40  1  0  0  0  0
  3 41  1  0  0  0  0
  3 42  1  0  0  0  0
  3 43  1  0  0  0  0
  4 44  1  0  0  0  0
  4 45  1  0  0  0  0
  5  4  1  0  0  0  0
  5 46  1  0  0  0  0
  5 47  1  0  0  0  0
  6 48  1  0  0  0  0
  7  6  2  0  0  0  0
  7 49  1  0  0  0  0
  8 50  1  0  0  0  0
  9  8  2  0  0  0  0
  9 51  1  0  0  0  0
 10 52  1  0  0  0  0
 10 53  1  0  0  0  0
 11 10  1  0  0  0  0
 11 54  1  0  0  0  0
 11 55  1  0  0  0  0
 12 56  1  0  0  0  0
 12 57  1  0  0  0  0
 13 58  1  0  0  0  0
 13 59  1  0  0  0  0
 14 60  1  0  0  0  0
 14 61  1  0  0  0  0
 15  4  1  0  0  0  0
 15  5  1  0  0  0  0
 15 14  1  0  0  0  0
 15 62  1  0  0  0  0
 16  6  1  0  0  0  0
 16 12  1  0  0  0  0
 17  7  1  0  0  0  0
 18 13  1  0  0  0  0
 18 32  1  6  0  0  0
 18 23  1  0  0  0  0
 19 12  1  0  0  0  0
 19 33  1  6  0  0  0
 20 16  2  0  0  0  0
 21 17  2  0  0  0  0
 21 20  1  0  0  0  0
 22 34  1  1  0  0  0
 23  1  1  0  0  0  0
 23  2  1  0  0  0  0
 24  8  1  6  0  0  0
 24 13  1  0  0  0  0
 24 19  1  0  0  0  0
 25 10  1  0  0  0  0
 25 20  1  6  0  0  0
 25 22  1  0  0  0  0
 25 24  1  0  0  0  0
 26  9  1  0  0  0  0
 26 18  1  0  0  0  0
 26 22  1  0  0  0  0
 26 30  1  6  0  0  0
 27 11  1  0  0  0  0
 27 14  1  0  0  0  0
 27 19  1  0  0  0  0
 28 17  1  0  0  0  0
 28 63  1  0  0  0  0
 29 23  1  0  0  0  0
 29 64  1  0  0  0  0
 30  3  1  0  0  0  0
 31 21  1  0  0  0  0
 31 22  1  0  0  0  0
M  END
>  <DRUGBANK_ID>
DB01480

>  <COMMON_NAME>
Cyprenorphine

>  <CAS_NUMBER>
4406-22-8

>  <UNII>
1P6HEG5ZHS

>  <SYNONYMS>
Cyprenorphine

$$$$
