MHB
 OpenBabel10282417173D

 31 32  0  0  0  0  0  0  0  0999 V2000
    1.4901   -0.2938   -0.0205 C   0  0  0  0  0  0  0  0  0  0  0  0
    0.5724   -1.3835   -0.0565 C   0  0  0  0  0  0  0  0  0  0  0  0
   -0.8201   -1.1146   -0.0287 C   0  0  0  0  0  0  0  0  0  0  0  0
   -1.3262    0.1842    0.0013 C   0  0  0  0  0  0  0  0  0  0  0  0
   -0.4461    1.2528    0.0324 C   0  0  0  0  0  0  0  0  0  0  0  0
    0.9362    1.0144   -0.0066 C   0  0  0  0  0  0  0  0  0  0  0  0
    4.6872   -1.7071    0.4275 C   0  0  0  0  0  0  0  0  0  0  0  0
    5.4450   -1.0437    1.3776 C   0  0  0  0  0  0  0  0  0  0  0  0
    6.7614   -1.4224    1.6524 C   0  0  0  0  0  0  0  0  0  0  0  0
    7.3194   -2.5034    0.9642 C   0  0  0  0  0  0  0  0  0  0  0  0
    6.5610   -3.2292    0.0544 C   0  0  0  0  0  0  0  0  0  0  0  0
    5.2576   -2.8093   -0.2395 C   0  0  0  0  0  0  0  0  0  0  0  0
    0.8805   -2.8541   -0.1312 C   0  0  0  0  0  0  0  0  0  0  0  0
    7.4834   -0.6706    2.7195 C   0  0  0  0  0  0  0  0  0  0  0  0
    2.9238   -0.3487   -0.0018 N   0  0  0  0  0  0  0  0  0  0  0  0
    3.3130   -1.4579    0.3962 N   0  0  0  0  0  0  0  0  0  0  0  0
    0.0612   -3.7399    0.0968 O   0  0  0  0  0  0  0  0  0  0  0  0
    2.1145   -3.1994   -0.5035 O   0  0  0  0  0  0  0  0  0  0  0  0
    8.6138   -2.8964    1.1425 O   0  0  0  0  0  0  0  0  0  0  0  0
   -1.5327   -1.9397   -0.0393 H   0  0  0  0  0  0  0  0  0  0  0  0
   -2.4016    0.3530   -0.0152 H   0  0  0  0  0  0  0  0  0  0  0  0
   -0.8342    2.2690    0.0864 H   0  0  0  0  0  0  0  0  0  0  0  0
    1.5983    1.8794   -0.0388 H   0  0  0  0  0  0  0  0  0  0  0  0
    4.9605   -0.2544    1.9456 H   0  0  0  0  0  0  0  0  0  0  0  0
    6.9790   -4.1226   -0.4063 H   0  0  0  0  0  0  0  0  0  0  0  0
    4.6833   -3.3754   -0.9692 H   0  0  0  0  0  0  0  0  0  0  0  0
    7.7854   -1.3558    3.5158 H   0  0  0  0  0  0  0  0  0  0  0  0
    8.3503   -0.1664    2.2891 H   0  0  0  0  0  0  0  0  0  0  0  0
    6.8336    0.0908    3.1648 H   0  0  0  0  0  0  0  0  0  0  0  0
    2.3276   -4.0770   -0.1275 H   0  0  0  0  0  0  0  0  0  0  0  0
    9.0832   -2.2112    1.6449 H   0  0  0  0  0  0  0  0  0  0  0  0
  1  2  1  0  0  0  0
  1  6  2  0  0  0  0
  1 15  1  0  0  0  0
  2  3  2  0  0  0  0
  2 13  1  0  0  0  0
  3  4  1  0  0  0  0
  3 20  1  0  0  0  0
  4  5  2  0  0  0  0
  4 21  1  0  0  0  0
  5  6  1  0  0  0  0
  5 22  1  0  0  0  0
  6 23  1  0  0  0  0
  7  8  1  0  0  0  0
  7 12  2  0  0  0  0
  7 16  1  0  0  0  0
  8  9  2  0  0  0  0
  8 24  1  0  0  0  0
  9 10  1  0  0  0  0
  9 14  1  0  0  0  0
 10 11  2  0  0  0  0
 10 19  1  0  0  0  0
 11 12  1  0  0  0  0
 11 25  1  0  0  0  0
 12 26  1  0  0  0  0
 13 17  2  0  0  0  0
 13 18  1  0  0  0  0
 14 27  1  0  0  0  0
 14 28  1  0  0  0  0
 14 29  1  0  0  0  0
 15 16  2  0  0  0  0
 18 30  1  0  0  0  0
 19 31  1  0  0  0  0
M  END
>  <DRUGBANK_ID>
DB08181

>  <COMMON_NAME>
2-((3'-METHYL-4'-HYDROXYPHENYL)AZO)BENZOIC ACID

$$$$
