
 OpenBabel10282417233D

 40 42  0  0  0  0  0  0  0  0999 V2000
    0.9926   -0.1029    0.1600 O   0  0  0  0  0  0  0  0  0  0  0  0
    0.4408   -1.2871   -0.1781 C   0  0  0  0  0  0  0  0  0  0  0  0
    1.1257   -2.2088   -0.5900 O   0  0  0  0  0  0  0  0  0  0  0  0
   -1.0666   -1.2361   -0.1615 C   0  0  0  0  0  0  0  0  0  0  0  0
   -1.6379   -0.8111    1.1115 N   0  0  0  0  0  0  0  0  0  0  0  0
   -2.4365    0.2651    1.3732 C   0  0  0  0  0  0  0  0  0  0  0  0
   -2.7393    0.5511    2.5296 O   0  0  0  0  0  0  0  0  0  0  0  0
   -2.9193    1.1022    0.2511 C   0  0  0  0  0  0  0  0  0  0  0  0
   -2.8983    2.4432    0.3311 C   0  0  0  0  0  0  0  0  0  0  0  0
   -2.4640    3.1510    1.4375 O   0  0  0  0  0  0  0  0  0  0  0  0
   -3.4359    3.2452   -0.7807 C   0  0  0  0  0  0  0  0  0  0  0  0
   -3.5950    4.6326   -0.6673 C   0  0  0  0  0  0  0  0  0  0  0  0
   -4.3357    5.3311   -1.6186 C   0  0  0  0  0  0  0  0  0  0  0  0
   -4.8335    4.6665   -2.7354 C   0  0  0  0  0  0  0  0  0  0  0  0
   -4.4787    3.3379   -2.9711 C   0  0  0  0  0  0  0  0  0  0  0  0
   -3.8515    2.5978   -1.9613 C   0  0  0  0  0  0  0  0  0  0  0  0
   -3.7473    1.1806   -2.0376 N   0  0  0  0  0  0  0  0  0  0  0  0
   -4.2333    0.6132   -3.2518 O   0  0  0  0  0  0  0  0  0  0  0  0
   -4.0634   -0.8118   -3.3911 C   0  0  0  0  0  0  0  0  0  0  0  0
   -2.6308   -1.2467   -3.2847 C   0  0  0  0  0  0  0  0  0  0  0  0
   -1.5640   -0.6012   -4.1269 C   0  0  0  0  0  0  0  0  0  0  0  0
   -1.9265   -2.0476   -4.3414 C   0  0  0  0  0  0  0  0  0  0  0  0
   -3.5730    0.4363   -0.8963 C   0  0  0  0  0  0  0  0  0  0  0  0
   -3.8781   -0.7525   -0.7488 O   0  0  0  0  0  0  0  0  0  0  0  0
    1.9538   -0.2223    0.0188 H   0  0  0  0  0  0  0  0  0  0  0  0
   -1.3080   -0.5234   -0.9499 H   0  0  0  0  0  0  0  0  0  0  0  0
   -1.4745   -2.2215   -0.4044 H   0  0  0  0  0  0  0  0  0  0  0  0
   -1.4689   -1.4039    1.9142 H   0  0  0  0  0  0  0  0  0  0  0  0
   -2.3232    2.5228    2.1779 H   0  0  0  0  0  0  0  0  0  0  0  0
   -3.1970    5.1665    0.1931 H   0  0  0  0  0  0  0  0  0  0  0  0
   -4.5350    6.3903   -1.4785 H   0  0  0  0  0  0  0  0  0  0  0  0
   -5.5107    5.1774   -3.4157 H   0  0  0  0  0  0  0  0  0  0  0  0
   -4.7679    2.8757   -3.9109 H   0  0  0  0  0  0  0  0  0  0  0  0
   -4.7128   -1.3334   -2.6807 H   0  0  0  0  0  0  0  0  0  0  0  0
   -4.4635   -1.0851   -4.3716 H   0  0  0  0  0  0  0  0  0  0  0  0
   -2.4159   -1.6280   -2.3032 H   0  0  0  0  0  0  0  0  0  0  0  0
   -1.8692    0.1240   -4.8730 H   0  0  0  0  0  0  0  0  0  0  0  0
   -0.6266   -0.3544   -3.6395 H   0  0  0  0  0  0  0  0  0  0  0  0
   -1.2181   -2.7969   -3.9961 H   0  0  0  0  0  0  0  0  0  0  0  0
   -2.5204   -2.3607   -5.1882 H   0  0  0  0  0  0  0  0  0  0  0  0
  1  2  1  0  0  0  0
  1 25  1  0  0  0  0
  2  3  2  0  0  0  0
  2  4  1  0  0  0  0
  4  5  1  0  0  0  0
  4 26  1  0  0  0  0
  4 27  1  0  0  0  0
  5  6  1  0  0  0  0
  5 28  1  0  0  0  0
  6  7  2  0  0  0  0
  6  8  1  0  0  0  0
  8  9  2  0  0  0  0
  8 23  1  0  0  0  0
  9 10  1  0  0  0  0
  9 11  1  0  0  0  0
 10 29  1  0  0  0  0
 11 12  2  0  0  0  0
 11 16  1  0  0  0  0
 12 13  1  0  0  0  0
 12 30  1  0  0  0  0
 13 14  2  0  0  0  0
 13 31  1  0  0  0  0
 14 15  1  0  0  0  0
 14 32  1  0  0  0  0
 15 16  2  0  0  0  0
 15 33  1  0  0  0  0
 16 17  1  0  0  0  0
 17 18  1  0  0  0  0
 17 23  1  0  0  0  0
 18 19  1  0  0  0  0
 19 20  1  0  0  0  0
 19 34  1  0  0  0  0
 19 35  1  0  0  0  0
 20 21  1  0  0  0  0
 20 22  1  0  0  0  0
 20 36  1  0  0  0  0
 21 22  1  0  0  0  0
 21 37  1  0  0  0  0
 21 38  1  0  0  0  0
 22 39  1  0  0  0  0
 22 40  1  0  0  0  0
 23 24  2  0  0  0  0
M  END
>  <DRUGBANK_ID>
DB16135

>  <COMMON_NAME>
Desidustat

>  <CAS_NUMBER>
1616690-16-4

>  <UNII>
Y962PQA4KS

>  <SYNONYMS>
Desidustat

$$$$
