
 OpenBabel10282417143D

 56 60  0  0  1  0  0  0  0  0999 V2000
   -2.1576   -0.0577    0.0019 Cl  0  0  0  0  0  0  0  0  0  0  0  0
   10.7565   -4.4152    1.2593 Cl  0  0  0  0  0  0  0  0  0  0  0  0
    7.8706   -3.6837   -5.5537 O   0  0  0  0  0  0  0  0  0  0  0  0
    4.2406    2.3768    1.1264 N   0  0  0  0  0  0  0  0  0  0  0  0
    4.3643   -0.7003    1.2823 N   0  0  0  0  0  0  0  0  0  0  0  0
    6.3033   -2.2315   -4.6626 N   0  0  0  0  0  0  0  0  0  0  0  0
    5.4659    3.4135   -0.4099 N   0  0  0  0  0  0  0  0  0  0  0  0
    3.9151    0.0206    0.0780 C   0  0  2  0  0  0  0  0  0  0  0  0
    4.4535   -0.6867   -1.1824 C   0  0  0  0  0  0  0  0  0  0  0  0
    4.4971    1.4283    0.1518 C   0  0  0  0  0  0  0  0  0  0  0  0
    2.3691    0.0079    0.0157 C   0  0  0  0  0  0  0  0  0  0  0  0
    5.9788   -2.2676   -2.2506 C   0  0  0  0  0  0  0  0  0  0  0  0
    5.3853   -1.7293   -1.1069 C   0  0  0  0  0  0  0  0  0  0  0  0
    5.6454   -1.7395   -3.5052 C   0  0  0  0  0  0  0  0  0  0  0  0
    4.0772   -0.2263   -2.4526 C   0  0  0  0  0  0  0  0  0  0  0  0
    6.9638   -3.3569   -2.1217 C   0  0  0  0  0  0  0  0  0  0  0  0
    4.6831   -0.7268   -3.5952 C   0  0  0  0  0  0  0  0  0  0  0  0
    5.3042    2.1054   -0.7549 C   0  0  0  0  0  0  0  0  0  0  0  0
    1.6114    1.1892   -0.1178 C   0  0  0  0  0  0  0  0  0  0  0  0
    1.6714   -1.2136    0.0332 C   0  0  0  0  0  0  0  0  0  0  0  0
    7.5259   -3.8149   -3.2519 C   0  0  0  0  0  0  0  0  0  0  0  0
    7.2471   -3.2377   -4.5859 C   0  0  0  0  0  0  0  0  0  0  0  0
    4.8100    3.5505    0.7153 C   0  0  0  0  0  0  0  0  0  0  0  0
    7.3856   -3.9993   -0.8542 C   0  0  0  0  0  0  0  0  0  0  0  0
    3.4437    2.2419    2.3233 C   0  0  0  0  0  0  0  0  0  0  0  0
    5.9943   -1.6476   -5.9564 C   0  0  0  0  0  0  0  0  0  0  0  0
    0.2229    1.1748   -0.0753 C   0  0  0  0  0  0  0  0  0  0  0  0
    0.2752   -1.2363   -0.0040 C   0  0  0  0  0  0  0  0  0  0  0  0
   -0.4407   -0.0411   -0.0229 C   0  0  0  0  0  0  0  0  0  0  0  0
    8.7129   -3.8898   -0.4189 C   0  0  0  0  0  0  0  0  0  0  0  0
    6.4594   -4.6897   -0.0565 C   0  0  0  0  0  0  0  0  0  0  0  0
    9.1104   -4.5043    0.7670 C   0  0  0  0  0  0  0  0  0  0  0  0
    6.8586   -5.2820    1.1433 C   0  0  0  0  0  0  0  0  0  0  0  0
    8.1900   -5.1999    1.5491 C   0  0  0  0  0  0  0  0  0  0  0  0
    5.3754   -0.5872    1.3539 H   0  0  0  0  0  0  0  0  0  0  0  0
    3.9703   -0.2812    2.1119 H   0  0  0  0  0  0  0  0  0  0  0  0
    5.6680   -2.1173   -0.1331 H   0  0  0  0  0  0  0  0  0  0  0  0
    3.3584    0.5852   -2.5550 H   0  0  0  0  0  0  0  0  0  0  0  0
    4.3968   -0.2796   -4.5409 H   0  0  0  0  0  0  0  0  0  0  0  0
    5.7350    1.7278   -1.6760 H   0  0  0  0  0  0  0  0  0  0  0  0
    2.0869    2.1614   -0.2200 H   0  0  0  0  0  0  0  0  0  0  0  0
    2.2214   -2.1543    0.0557 H   0  0  0  0  0  0  0  0  0  0  0  0
    8.2375   -4.6333   -3.2565 H   0  0  0  0  0  0  0  0  0  0  0  0
    4.7133    4.4768    1.2635 H   0  0  0  0  0  0  0  0  0  0  0  0
    2.4313    1.9234    2.0807 H   0  0  0  0  0  0  0  0  0  0  0  0
    3.9127    1.5111    2.9803 H   0  0  0  0  0  0  0  0  0  0  0  0
    3.3777    3.2041    2.8323 H   0  0  0  0  0  0  0  0  0  0  0  0
    4.9300   -1.7928   -6.1690 H   0  0  0  0  0  0  0  0  0  0  0  0
    6.2337   -0.5785   -5.9385 H   0  0  0  0  0  0  0  0  0  0  0  0
    6.5676   -2.1113   -6.7612 H   0  0  0  0  0  0  0  0  0  0  0  0
   -0.3171    2.1171   -0.0873 H   0  0  0  0  0  0  0  0  0  0  0  0
   -0.2447   -2.1893   -0.0122 H   0  0  0  0  0  0  0  0  0  0  0  0
    9.4351   -3.3243   -1.0033 H   0  0  0  0  0  0  0  0  0  0  0  0
    5.4152   -4.7564   -0.3582 H   0  0  0  0  0  0  0  0  0  0  0  0
    6.1331   -5.8120    1.7558 H   0  0  0  0  0  0  0  0  0  0  0  0
    8.5040   -5.6795    2.4722 H   0  0  0  0  0  0  0  0  0  0  0  0
  1 29  1  0  0  0  0
  2 32  1  0  0  0  0
  3 22  2  0  0  0  0
  4 10  1  0  0  0  0
  4 23  1  0  0  0  0
  4 25  1  0  0  0  0
  5 35  1  0  0  0  0
  5 36  1  0  0  0  0
  6 14  1  0  0  0  0
  6 22  1  0  0  0  0
  6 26  1  0  0  0  0
  7 18  1  0  0  0  0
  7 23  2  0  0  0  0
  8  5  1  1  0  0  0
  8  9  1  0  0  0  0
  8 10  1  0  0  0  0
  8 11  1  0  0  0  0
  9 13  2  0  0  0  0
  9 15  1  0  0  0  0
 10 18  2  0  0  0  0
 11 19  2  0  0  0  0
 11 20  1  0  0  0  0
 12 13  1  0  0  0  0
 12 14  2  0  0  0  0
 12 16  1  0  0  0  0
 13 37  1  0  0  0  0
 14 17  1  0  0  0  0
 15 17  2  0  0  0  0
 15 38  1  0  0  0  0
 16 21  2  0  0  0  0
 16 24  1  0  0  0  0
 17 39  1  0  0  0  0
 18 40  1  0  0  0  0
 19 27  1  0  0  0  0
 19 41  1  0  0  0  0
 20 28  2  0  0  0  0
 20 42  1  0  0  0  0
 21 22  1  0  0  0  0
 21 43  1  0  0  0  0
 23 44  1  0  0  0  0
 24 30  2  0  0  0  0
 24 31  1  0  0  0  0
 25 45  1  0  0  0  0
 25 46  1  0  0  0  0
 25 47  1  0  0  0  0
 26 48  1  0  0  0  0
 26 49  1  0  0  0  0
 26 50  1  0  0  0  0
 27 29  2  0  0  0  0
 27 51  1  0  0  0  0
 28 29  1  0  0  0  0
 28 52  1  0  0  0  0
 30 32  1  0  0  0  0
 30 53  1  0  0  0  0
 31 33  2  0  0  0  0
 31 54  1  0  0  0  0
 32 34  2  0  0  0  0
 33 34  1  0  0  0  0
 33 55  1  0  0  0  0
 34 56  1  0  0  0  0
M  END
>  <DRUGBANK_ID>
DB04960

>  <COMMON_NAME>
Tipifarnib

>  <CAS_NUMBER>
192185-72-1

>  <UNII>
MAT637500A

>  <SYNONYMS>
Tipifarnib; Zarnestra

$$$$
