
 OpenBabel10282417213D

 15 14  0  0  0  0  0  0  0  0999 V2000
    0.7223   -0.2888    0.2430 C   0  0  0  0  0  0  0  0  0  0  0  0
    0.7911   -1.7943   -0.6330 P   0  0  0  0  0  0  0  0  0  0  0  0
    0.8465   -1.3007   -2.1672 O   0  0  0  0  0  0  0  0  0  0  0  0
    1.9095   -2.7233   -0.2964 O   0  0  0  0  0  0  0  0  0  0  0  0
    0.4517    0.6279    1.7193 P   0  0  0  0  0  0  0  0  0  0  0  0
    1.9251    0.8172    2.3291 O   0  0  0  0  0  0  0  0  0  0  0  0
   -0.1779    1.9586    1.3864 O   0  0  0  0  0  0  0  0  0  0  0  0
   -0.2782    0.0084    2.9801 O   0  0  0  0  0  0  0  0  0  0  0  0
   -0.5787   -2.5853   -0.8448 O   0  0  0  0  0  0  0  0  0  0  0  0
    0.3403    0.4141   -0.5096 H   0  0  0  0  0  0  0  0  0  0  0  0
    1.8060   -0.1104    0.1674 H   0  0  0  0  0  0  0  0  0  0  0  0
    0.0550   -0.7798   -2.4201 H   0  0  0  0  0  0  0  0  0  0  0  0
    2.4290   -0.0048    2.4851 H   0  0  0  0  0  0  0  0  0  0  0  0
   -0.2075   -0.8720    3.4017 H   0  0  0  0  0  0  0  0  0  0  0  0
   -0.3820   -3.3137   -1.4820 H   0  0  0  0  0  0  0  0  0  0  0  0
  1  2  1  0  0  0  0
  1  5  1  0  0  0  0
  1 10  1  0  0  0  0
  1 11  1  0  0  0  0
  2  3  1  0  0  0  0
  2  4  2  0  0  0  0
  2  9  1  0  0  0  0
  3 12  1  0  0  0  0
  5  6  1  0  0  0  0
  5  7  2  0  0  0  0
  5  8  1  0  0  0  0
  6 13  1  0  0  0  0
  8 14  1  0  0  0  0
  9 15  1  0  0  0  0
M  END
>  <DRUGBANK_ID>
DB14078

>  <COMMON_NAME>
Medronic acid

>  <CAS_NUMBER>
1984-15-2

>  <UNII>
73OS0QIN3O

>  <SYNONYMS>
Acide medronique; Acido medronico; Acidum medronicum; Medronate; Medronic acid; methanebisphosphonic acid; methanediphosphonic acid; methanediylbis(phosphonic acid); Methylene-1,1-bisphosphonic acid; Methylenediphosphonic acid

$$$$
