
 OpenBabel10282417233D

 51 53  0  0  0  0  0  0  0  0999 V2000
    1.1713   -0.0000    0.3203 O   0  5  0  0  0  0  0  0  0  0  0  0
    2.3843   -0.2254    0.2066 N   0  3  0  0  0  0  0  0  0  0  0  0
    2.9439   -0.5002   -0.8675 O   0  0  0  0  0  0  0  0  0  0  0  0
    3.2505   -0.0021    1.3876 C   0  0  0  0  0  0  0  0  0  0  0  0
    4.4649    0.6882    1.1808 C   0  0  0  0  0  0  0  0  0  0  0  0
    5.1019    1.5201    2.1525 C   0  0  0  0  0  0  0  0  0  0  0  0
    6.0304    2.7126    1.7872 C   0  0  0  0  0  0  0  0  0  0  0  0
    6.2060    3.3090    0.5652 C   0  0  0  0  0  0  0  0  0  0  0  0
    5.5861    2.8966   -0.7430 C   0  0  0  0  0  0  0  0  0  0  0  0
    4.5829    3.8561   -1.2707 N   0  0  0  0  0  0  0  0  0  0  0  0
    5.1681    4.6290   -2.3639 C   0  0  0  0  0  0  0  0  0  0  0  0
    6.5810    5.1611   -2.0336 C   0  0  0  0  0  0  0  0  0  0  0  0
    6.7425    5.5674   -0.5814 C   0  0  0  0  0  0  0  0  0  0  0  0
    6.5288    6.8119   -0.1048 C   0  0  0  0  0  0  0  0  0  0  0  0
    5.9733    7.9042   -0.9343 C   0  0  0  0  0  0  0  0  0  0  0  0
    4.7272    7.7492   -1.5665 C   0  0  0  0  0  0  0  0  0  0  0  0
    4.2203    8.7155   -2.4491 C   0  0  0  0  0  0  0  0  0  0  0  0
    4.9050    9.9091   -2.6060 C   0  0  0  0  0  0  0  0  0  0  0  0
    4.4441   10.9016   -3.3775 F   0  0  0  0  0  0  0  0  0  0  0  0
    6.1046   10.1157   -1.9224 C   0  0  0  0  0  0  0  0  0  0  0  0
    6.6511    9.1122   -1.1072 C   0  0  0  0  0  0  0  0  0  0  0  0
    2.9942    8.4525   -3.2057 N   0  3  0  0  0  0  0  0  0  0  0  0
    2.4949    7.3264   -3.1149 O   0  5  0  0  0  0  0  0  0  0  0  0
    2.5317    9.3491   -3.9206 O   0  0  0  0  0  0  0  0  0  0  0  0
    7.1867    4.4596    0.3550 C   0  0  0  0  0  0  0  0  0  0  0  0
    8.3448    4.3933    0.7541 O   0  0  0  0  0  0  0  0  0  0  0  0
    3.2067    4.0884   -1.0220 C   0  0  0  0  0  0  0  0  0  0  0  0
    2.5772    4.9606   -1.6330 O   0  0  0  0  0  0  0  0  0  0  0  0
    2.3534    3.4322   -0.0041 C   0  0  0  0  0  0  0  0  0  0  0  0
    2.9184    3.0451    1.1312 C   0  0  0  0  0  0  0  0  0  0  0  0
    4.5371    1.4421    3.4389 C   0  0  0  0  0  0  0  0  0  0  0  0
    3.4039    0.6142    3.6893 C   0  0  0  0  0  0  0  0  0  0  0  0
    2.7439   -0.0759    2.6603 C   0  0  0  0  0  0  0  0  0  0  0  0
    1.5900   -0.7045    2.9153 F   0  0  0  0  0  0  0  0  0  0  0  0
    4.6791    0.7444    0.1401 H   0  0  0  0  0  0  0  0  0  0  0  0
    6.4336    3.2561    2.6538 H   0  0  0  0  0  0  0  0  0  0  0  0
    6.4143    2.7844   -1.4594 H   0  0  0  0  0  0  0  0  0  0  0  0
    5.2130    1.9104   -0.8366 H   0  0  0  0  0  0  0  0  0  0  0  0
    5.2198    3.9673   -3.2347 H   0  0  0  0  0  0  0  0  0  0  0  0
    4.5086    5.4326   -2.6769 H   0  0  0  0  0  0  0  0  0  0  0  0
    7.3293    4.3883   -2.2593 H   0  0  0  0  0  0  0  0  0  0  0  0
    6.8461    5.9719   -2.7193 H   0  0  0  0  0  0  0  0  0  0  0  0
    6.7043    7.0523    0.9416 H   0  0  0  0  0  0  0  0  0  0  0  0
    4.1417    6.8603   -1.3609 H   0  0  0  0  0  0  0  0  0  0  0  0
    6.6103   11.0705   -2.0369 H   0  0  0  0  0  0  0  0  0  0  0  0
    7.6029    9.2926   -0.6114 H   0  0  0  0  0  0  0  0  0  0  0  0
    1.2737    3.4796    0.0077 H   0  0  0  0  0  0  0  0  0  0  0  0
    2.4255    2.6082    1.9738 H   0  0  0  0  0  0  0  0  0  0  0  0
    3.9610    3.1369    1.0854 H   0  0  0  0  0  0  0  0  0  0  0  0
    4.8579    2.1155    4.2367 H   0  0  0  0  0  0  0  0  0  0  0  0
    2.9522    0.5977    4.6784 H   0  0  0  0  0  0  0  0  0  0  0  0
  1  2  1  0  0  0  0
  2  3  2  0  0  0  0
  2  4  1  0  0  0  0
  4  5  2  0  0  0  0
  4 33  1  0  0  0  0
  5  6  1  0  0  0  0
  5 35  1  0  0  0  0
  6  7  1  0  0  0  0
  6 31  2  0  0  0  0
  7  8  2  0  0  0  0
  7 36  1  0  0  0  0
  8  9  1  0  0  0  0
  8 25  1  0  0  0  0
  9 10  1  0  0  0  0
  9 37  1  0  0  0  0
  9 38  1  0  0  0  0
 10 11  1  0  0  0  0
 10 27  1  0  0  0  0
 11 12  1  0  0  0  0
 11 39  1  0  0  0  0
 11 40  1  0  0  0  0
 12 13  1  0  0  0  0
 12 41  1  0  0  0  0
 12 42  1  0  0  0  0
 13 14  2  0  0  0  0
 13 25  1  0  0  0  0
 14 15  1  0  0  0  0
 14 43  1  0  0  0  0
 15 16  2  0  0  0  0
 15 21  1  0  0  0  0
 16 17  1  0  0  0  0
 16 44  1  0  0  0  0
 17 18  2  0  0  0  0
 17 22  1  0  0  0  0
 18 19  1  0  0  0  0
 18 20  1  0  0  0  0
 20 21  2  0  0  0  0
 20 45  1  0  0  0  0
 21 46  1  0  0  0  0
 22 23  1  0  0  0  0
 22 24  2  0  0  0  0
 25 26  2  0  0  0  0
 27 28  2  0  0  0  0
 27 29  1  0  0  0  0
 29 30  2  0  0  0  0
 29 47  1  0  0  0  0
 30 48  1  0  0  0  0
 30 49  1  0  0  0  0
 31 32  1  0  0  0  0
 31 50  1  0  0  0  0
 32 33  2  0  0  0  0
 32 51  1  0  0  0  0
 33 34  1  0  0  0  0
M  CHG  4   1  -1   2   1  22   1  23  -1
M  END
>  <DRUGBANK_ID>
DB16030

>  <COMMON_NAME>
VLX-1570

>  <CAS_NUMBER>
1956378-23-6

>  <UNII>
K6067N5M6N

>  <SYNONYMS>
(3E,5E)-3,5-Bis[(4-Fluoro-3-Nitrophenyl)Methylidene]-1-(Prop-2-Enoyl)Azepan-4-0Ne

$$$$
