
 OpenBabel10282417133D

 34 33  0  0  0  0  0  0  0  0999 V2000
    0.8816    0.0790    0.0695 O   0  0  0  0  0  0  0  0  0  0  0  0
    0.9495    0.4243    2.2836 O   0  0  0  0  0  0  0  0  0  0  0  0
   -3.2466   -2.0226    3.1982 N   0  3  0  0  0  0  0  0  0  0  0  0
   -1.7598    1.3618    0.3345 N   0  0  0  0  0  0  0  0  0  0  0  0
   -5.2886   -2.8875    3.9339 N   0  0  0  0  0  0  0  0  0  0  0  0
   -3.2694   -3.8328    4.6666 N   0  0  0  0  0  0  0  0  0  0  0  0
   -1.7523   -1.0671    0.7503 C   0  0  0  0  0  0  0  0  0  0  0  0
   -1.2975   -2.1868    1.6871 C   0  0  0  0  0  0  0  0  0  0  0  0
   -1.2372    0.3049    1.2043 C   0  0  1  0  0  0  0  0  0  0  0  0
   -1.7757   -1.9684    3.1138 C   0  0  0  0  0  0  0  0  0  0  0  0
    0.2922    0.3106    1.2550 C   0  0  0  0  0  0  0  0  0  0  0  0
   -3.9364   -2.9198    3.9392 C   0  0  0  0  0  0  0  0  0  0  0  0
   -6.1350   -3.8321    4.6565 C   0  0  0  0  0  0  0  0  0  0  0  0
   -7.0063   -3.0765    5.5952 C   0  0  0  0  0  0  0  0  0  0  0  0
   -8.3364   -3.2289    5.6230 C   0  0  0  0  0  0  0  0  0  0  0  0
    1.8479    0.1039    0.2262 H   0  0  0  0  0  0  0  0  0  0  0  0
   -3.7833   -1.3490    2.6627 H   0  0  0  0  0  0  0  0  0  0  0  0
   -2.7765    1.3833    0.3715 H   0  0  0  0  0  0  0  0  0  0  0  0
   -1.4411    2.2678    0.6819 H   0  0  0  0  0  0  0  0  0  0  0  0
   -5.7617   -2.2006    3.3589 H   0  0  0  0  0  0  0  0  0  0  0  0
   -2.2640   -3.8727    4.6963 H   0  0  0  0  0  0  0  0  0  0  0  0
   -3.7234   -4.5210    5.2424 H   0  0  0  0  0  0  0  0  0  0  0  0
   -2.8485   -1.0608    0.7025 H   0  0  0  0  0  0  0  0  0  0  0  0
   -1.4041   -1.2963   -0.2646 H   0  0  0  0  0  0  0  0  0  0  0  0
   -1.6716   -3.1485    1.3157 H   0  0  0  0  0  0  0  0  0  0  0  0
   -0.2033   -2.2603    1.6860 H   0  0  0  0  0  0  0  0  0  0  0  0
   -1.5989    0.5355    2.2113 H   0  0  0  0  0  0  0  0  0  0  0  0
   -1.3039   -2.7229    3.7386 H   0  0  0  0  0  0  0  0  0  0  0  0
   -1.4552   -1.0133    3.5362 H   0  0  0  0  0  0  0  0  0  0  0  0
   -6.7069   -4.4040    3.9205 H   0  0  0  0  0  0  0  0  0  0  0  0
   -5.5467   -4.5415    5.2356 H   0  0  0  0  0  0  0  0  0  0  0  0
   -6.5367   -2.4334    6.3378 H   0  0  0  0  0  0  0  0  0  0  0  0
   -8.9489   -2.7169    6.3602 H   0  0  0  0  0  0  0  0  0  0  0  0
   -8.8497   -3.8958    4.9349 H   0  0  0  0  0  0  0  0  0  0  0  0
  1 11  1  0  0  0  0
  1 16  1  0  0  0  0
  2 11  2  0  0  0  0
  3 10  1  0  0  0  0
  3 12  2  0  0  0  0
  3 17  1  0  0  0  0
  4 18  1  0  0  0  0
  4 19  1  0  0  0  0
  5 12  1  0  0  0  0
  5 13  1  0  0  0  0
  5 20  1  0  0  0  0
  6 12  1  0  0  0  0
  6 21  1  0  0  0  0
  6 22  1  0  0  0  0
  7  8  1  0  0  0  0
  7  9  1  0  0  0  0
  7 23  1  0  0  0  0
  7 24  1  0  0  0  0
  8 10  1  0  0  0  0
  8 25  1  0  0  0  0
  8 26  1  0  0  0  0
  9  4  1  0  0  0  0
  9 11  1  0  0  0  0
  9 27  1  1  0  0  0
 10 28  1  0  0  0  0
 10 29  1  0  0  0  0
 13 14  1  0  0  0  0
 13 30  1  0  0  0  0
 13 31  1  0  0  0  0
 14 15  2  0  0  0  0
 14 32  1  0  0  0  0
 15 33  1  0  0  0  0
 15 34  1  0  0  0  0
M  CHG  1   3   1
M  END
>  <DRUGBANK_ID>
DB03892

>  <SECONDARY_ACCESSION_NUMBERS>
EXPT00563

>  <COMMON_NAME>
5-N-Allyl-arginine

$$$$
