244
 OpenBabel10282417103D

 18 18  0  0  0  0  0  0  0  0999 V2000
    2.7429    0.1894    0.1144 O   0  0  0  0  0  0  0  0  0  0  0  0
    2.6857   -2.7283    0.0198 O   0  0  0  0  0  0  0  0  0  0  0  0
    0.6391   -3.6038    0.0239 O   0  0  0  0  0  0  0  0  0  0  0  0
   -2.8149   -0.0066   -0.0108 N   0  0  0  0  0  0  0  0  0  0  0  0
    0.7263   -1.2292    0.0325 C   0  0  0  0  0  0  0  0  0  0  0  0
   -1.4327   -0.0121    0.0027 C   0  0  0  0  0  0  0  0  0  0  0  0
   -0.6963   -1.2052    0.0110 C   0  0  0  0  0  0  0  0  0  0  0  0
    1.3910    0.0023    0.0449 C   0  0  0  0  0  0  0  0  0  0  0  0
   -0.7367    1.1899    0.0090 C   0  0  0  0  0  0  0  0  0  0  0  0
    0.6584    1.1971    0.0363 C   0  0  0  0  0  0  0  0  0  0  0  0
    1.3447   -2.5966    0.0477 C   0  0  0  0  0  0  0  0  0  0  0  0
    3.2090   -0.4505   -0.4400 H   0  0  0  0  0  0  0  0  0  0  0  0
    3.2535   -2.0249    0.3687 H   0  0  0  0  0  0  0  0  0  0  0  0
   -3.3240    0.8680    0.0139 H   0  0  0  0  0  0  0  0  0  0  0  0
   -3.3501   -0.8641   -0.0266 H   0  0  0  0  0  0  0  0  0  0  0  0
   -1.2456   -2.1474    0.0114 H   0  0  0  0  0  0  0  0  0  0  0  0
   -1.2733    2.1357    0.0014 H   0  0  0  0  0  0  0  0  0  0  0  0
    1.1777    2.1522    0.0539 H   0  0  0  0  0  0  0  0  0  0  0  0
  1  8  1  0  0  0  0
  1 12  1  0  0  0  0
  2 11  1  0  0  0  0
  2 13  1  0  0  0  0
  3 11  2  0  0  0  0
  4  6  1  0  0  0  0
  4 14  1  0  0  0  0
  4 15  1  0  0  0  0
  5  7  1  0  0  0  0
  5  8  2  0  0  0  0
  5 11  1  0  0  0  0
  6  7  2  0  0  0  0
  6  9  1  0  0  0  0
  7 16  1  0  0  0  0
  8 10  1  0  0  0  0
  9 10  2  0  0  0  0
  9 17  1  0  0  0  0
 10 18  1  0  0  0  0
M  END
>  <DRUGBANK_ID>
DB00244

>  <SECONDARY_ACCESSION_NUMBERS>
APRD01098; DB05376; DB06396

>  <COMMON_NAME>
Mesalazine

>  <CAS_NUMBER>
89-57-6

>  <UNII>
4Q81I59GXC

>  <SYNONYMS>
3-carboxy-4-hydroxyaniline; 5-aminosalicylic acid; 5-ASA; m-Aminosalicylic acid; Mesalamine; Mesalazina; MÃ©salazine; Mesalazine; Mesalazinum; p-Aminosalicylsaeure

$$$$
