
 OpenBabel10282417203D

 33 34  0  0  0  0  0  0  0  0999 V2000
    0.9671    0.0482    0.1752 C   0  0  0  0  0  0  0  0  0  0  0  0
    0.5050    3.9468    3.0630 C   0  0  0  0  0  0  0  0  0  0  0  0
   -4.8701   -1.3575    6.8650 C   0  0  0  0  0  0  0  0  0  0  0  0
   -5.2356    1.0097    6.7696 C   0  0  0  0  0  0  0  0  0  0  0  0
   -3.4989   -1.1625    6.6322 C   0  0  0  0  0  0  0  0  0  0  0  0
   -3.8526    1.2225    6.7352 C   0  0  0  0  0  0  0  0  0  0  0  0
   -0.0169   -0.1670    2.4939 C   0  0  0  0  0  0  0  0  0  0  0  0
    0.5109    0.6290    1.4854 C   0  0  0  0  0  0  0  0  0  0  0  0
    0.3176    2.4808    2.8244 C   0  0  0  0  0  0  0  0  0  0  0  0
   -5.7551   -0.2754    6.9342 C   0  0  0  0  0  0  0  0  0  0  0  0
   -2.9914    0.1370    6.5716 C   0  0  0  0  0  0  0  0  0  0  0  0
   -0.3485    0.4651    3.6802 C   0  0  0  0  0  0  0  0  0  0  0  0
   -7.1374   -0.4900    6.9418 N   0  0  0  0  0  0  0  0  0  0  0  0
    0.6891    1.9565    1.6440 N   0  0  0  0  0  0  0  0  0  0  0  0
   -0.2169    1.7771    3.8315 N   0  0  0  0  0  0  0  0  0  0  0  0
   -1.0808   -0.2300    4.6942 N   0  0  0  0  0  0  0  0  0  0  0  0
   -0.5343   -0.4548    7.1709 O   0  0  0  0  0  0  0  0  0  0  0  0
   -1.0597    1.8560    6.3130 O   0  0  0  0  0  0  0  0  0  0  0  0
   -1.2430    0.4162    6.2640 S   0  0  0  0  0  0  0  0  0  0  0  0
    0.6048    0.6494   -0.6670 H   0  0  0  0  0  0  0  0  0  0  0  0
    0.6063   -0.9751    0.0325 H   0  0  0  0  0  0  0  0  0  0  0  0
    2.0618    0.0345    0.1396 H   0  0  0  0  0  0  0  0  0  0  0  0
   -0.4552    4.4072    3.3164 H   0  0  0  0  0  0  0  0  0  0  0  0
    1.1936    4.1002    3.9003 H   0  0  0  0  0  0  0  0  0  0  0  0
    0.9115    4.4501    2.1816 H   0  0  0  0  0  0  0  0  0  0  0  0
   -5.2506   -2.3697    6.9757 H   0  0  0  0  0  0  0  0  0  0  0  0
   -5.8999    1.8647    6.6724 H   0  0  0  0  0  0  0  0  0  0  0  0
   -2.8487   -2.0230    6.5094 H   0  0  0  0  0  0  0  0  0  0  0  0
   -3.4657    2.2353    6.8209 H   0  0  0  0  0  0  0  0  0  0  0  0
   -0.1702   -1.2261    2.3379 H   0  0  0  0  0  0  0  0  0  0  0  0
   -7.6989    0.3058    7.2309 H   0  0  0  0  0  0  0  0  0  0  0  0
   -7.4354   -1.3545    7.3837 H   0  0  0  0  0  0  0  0  0  0  0  0
   -0.8841   -1.2284    4.7341 H   0  0  0  0  0  0  0  0  0  0  0  0
  1 20  1  0  0  0  0
  1 21  1  0  0  0  0
  1 22  1  0  0  0  0
  2 23  1  0  0  0  0
  2 24  1  0  0  0  0
  2 25  1  0  0  0  0
  3 26  1  0  0  0  0
  4 27  1  0  0  0  0
  5  3  1  0  0  0  0
  5 28  1  0  0  0  0
  6  4  2  0  0  0  0
  6 29  1  0  0  0  0
  7 30  1  0  0  0  0
  8  1  1  0  0  0  0
  8  7  2  0  0  0  0
  9  2  1  0  0  0  0
 10  3  2  0  0  0  0
 10  4  1  0  0  0  0
 11  5  2  0  0  0  0
 11  6  1  0  0  0  0
 12  7  1  0  0  0  0
 13 10  1  0  0  0  0
 13 31  1  0  0  0  0
 13 32  1  0  0  0  0
 14  8  1  0  0  0  0
 14  9  2  0  0  0  0
 15  9  1  0  0  0  0
 15 12  2  0  0  0  0
 16 12  1  0  0  0  0
 16 33  1  0  0  0  0
 19 11  1  0  0  0  0
 19 16  1  0  0  0  0
 19 17  2  0  0  0  0
 19 18  2  0  0  0  0
M  END
>  <DRUGBANK_ID>
DB13283

>  <COMMON_NAME>
Sulfaisodimidine

>  <CAS_NUMBER>
515-64-0

>  <UNII>
W03L3ODK6E

>  <SYNONYMS>
solfisomidina; Sulfisomidine

$$$$
