
 OpenBabel10282417153D

 31 32  0  0  1  0  0  0  0  0999 V2000
    0.9687   -0.0840    0.0098 C   0  0  0  0  0  0  0  0  0  0  0  0
    0.5386   -1.4259   -0.4744 C   0  0  0  0  0  0  0  0  0  0  0  0
    0.8302   -2.5315    0.2107 C   0  0  0  0  0  0  0  0  0  0  0  0
    0.6872   -3.7987   -0.2998 N   0  0  0  0  0  0  0  0  0  0  0  0
    0.0200   -4.0143   -1.4920 C   0  0  0  0  0  0  0  0  0  0  0  0
   -0.1172   -5.1151   -2.0175 O   0  0  0  0  0  0  0  0  0  0  0  0
   -0.5115   -2.8882   -2.0703 N   0  0  0  0  0  0  0  0  0  0  0  0
   -0.1821   -1.6018   -1.7456 C   0  0  0  0  0  0  0  0  0  0  0  0
   -0.4832   -0.6481   -2.4622 O   0  0  0  0  0  0  0  0  0  0  0  0
    1.2380   -4.9356    0.4211 C   0  0  2  0  0  0  0  0  0  0  0  0
    0.5931   -5.1945    1.7845 C   0  0  1  0  0  0  0  0  0  0  0  0
    1.7223   -5.8589    2.5289 C   0  0  2  0  0  0  0  0  0  0  0  0
    2.9562   -5.1115    2.0068 C   0  0  1  0  0  0  0  0  0  0  0  0
    2.6679   -4.7676    0.6290 O   0  0  0  0  0  0  0  0  0  0  0  0
    3.2985   -3.8339    2.8058 C   0  0  0  0  0  0  0  0  0  0  0  0
    3.1778   -2.6315    2.0577 O   0  0  0  0  0  0  0  0  0  0  0  0
    1.7732   -7.2533    2.2030 O   0  0  0  0  0  0  0  0  0  0  0  0
    0.2838   -4.0409    2.4358 F   0  0  0  0  0  0  0  0  0  0  0  0
    0.6132    0.1065    1.0275 H   0  0  0  0  0  0  0  0  0  0  0  0
    0.6203    0.7237   -0.6363 H   0  0  0  0  0  0  0  0  0  0  0  0
    2.0660   -0.0413    0.0225 H   0  0  0  0  0  0  0  0  0  0  0  0
    1.2391   -2.4385    1.2040 H   0  0  0  0  0  0  0  0  0  0  0  0
   -1.0206   -3.0229   -2.9284 H   0  0  0  0  0  0  0  0  0  0  0  0
    1.1524   -5.8435   -0.1896 H   0  0  0  0  0  0  0  0  0  0  0  0
   -0.3219   -5.7831    1.6930 H   0  0  0  0  0  0  0  0  0  0  0  0
    1.6161   -5.7799    3.6141 H   0  0  0  0  0  0  0  0  0  0  0  0
    3.8285   -5.7770    2.0259 H   0  0  0  0  0  0  0  0  0  0  0  0
    2.6896   -3.7479    3.7105 H   0  0  0  0  0  0  0  0  0  0  0  0
    4.3431   -3.8664    3.1243 H   0  0  0  0  0  0  0  0  0  0  0  0
    3.4790   -2.8329    1.1500 H   0  0  0  0  0  0  0  0  0  0  0  0
    1.9211   -7.3628    1.2459 H   0  0  0  0  0  0  0  0  0  0  0  0
  1  2  1  0  0  0  0
  1 19  1  0  0  0  0
  1 20  1  0  0  0  0
  1 21  1  0  0  0  0
  2  3  2  0  0  0  0
  2  8  1  0  0  0  0
  3  4  1  0  0  0  0
  3 22  1  0  0  0  0
  4  5  1  0  0  0  0
  5  6  2  0  0  0  0
  5  7  1  0  0  0  0
  7  8  1  0  0  0  0
  7 23  1  0  0  0  0
  8  9  2  0  0  0  0
 10  4  1  0  0  0  0
 10 11  1  0  0  0  0
 10 14  1  0  0  0  0
 10 24  1  6  0  0  0
 11 12  1  0  0  0  0
 11 18  1  0  0  0  0
 11 25  1  6  0  0  0
 12 13  1  0  0  0  0
 12 17  1  0  0  0  0
 12 26  1  1  0  0  0
 13 14  1  0  0  0  0
 13 27  1  1  0  0  0
 13 15  1  0  0  0  0
 15 16  1  0  0  0  0
 15 28  1  0  0  0  0
 15 29  1  0  0  0  0
 16 30  1  0  0  0  0
 17 31  1  0  0  0  0
M  END
>  <DRUGBANK_ID>
DB06683

>  <COMMON_NAME>
Clevudine

>  <CAS_NUMBER>
163252-36-6

>  <UNII>
IN51MVP5F1

>  <SYNONYMS>
2'-Fluoro-5-methyl-beta-L-arabinofuranosyluracil; Clevudine; L-FMAU

$$$$
