
 OpenBabel10282417233D

 86 88  0  0  0  0  0  0  0  0999 V2000
    0.9080    1.5162   -0.0075 C   0  0  0  0  0  0  0  0  0  0  0  0
    2.1612    0.8434   -0.0262 C   0  0  0  0  0  0  0  0  0  0  0  0
    2.2494   -0.5349   -0.0137 C   0  0  0  0  0  0  0  0  0  0  0  0
    1.0240   -1.1477    0.0145 C   0  0  0  0  0  0  0  0  0  0  0  0
   -0.2144   -0.6078    0.1139 C   0  0  0  0  0  0  0  0  0  0  0  0
   -0.2485    0.7487    0.0514 C   0  0  0  0  0  0  0  0  0  0  0  0
   -1.5274    1.1405    0.0572 O   0  0  0  0  0  0  0  0  0  0  0  0
   -1.4851   -1.2009    0.2011 C   0  0  0  0  0  0  0  0  0  0  0  0
   -2.2658    0.0178    0.1603 C   0  0  0  0  0  0  0  0  0  0  0  0
    3.5614   -1.2734    0.0046 C   0  0  0  0  0  0  0  0  0  0  0  0
    3.6361   -2.6381    0.0353 O   0  0  0  0  0  0  0  0  0  0  0  0
    4.5960   -0.6118    0.0010 O   0  0  0  0  0  0  0  0  0  0  0  0
    2.5046   -3.5370    0.0526 C   0  0  0  0  0  0  0  0  0  0  0  0
    1.7662   -3.3635    1.4284 C   0  0  0  0  0  0  0  0  0  0  0  0
    1.7613   -3.4158   -1.3289 C   0  0  0  0  0  0  0  0  0  0  0  0
   -3.7108    0.3304   -0.1034 C   0  0  0  0  0  0  0  0  0  0  0  0
   -4.0444   -0.3125   -1.4926 C   0  0  0  0  0  0  0  0  0  0  0  0
   -3.1776   -1.4992   -1.5671 C   0  0  0  0  0  0  0  0  0  0  0  0
   -3.9240   -1.7799   -0.0265 C   0  0  0  0  0  0  0  0  0  0  0  0
   -1.7353   -2.8825   -0.0792 C   0  0  0  0  0  0  0  0  0  0  0  0
   -3.2084   -3.7734   -0.6723 C   0  0  0  0  0  0  0  0  0  0  0  0
   -0.8276   -3.6520    0.1988 O   0  0  0  0  0  0  0  0  0  0  0  0
   -4.4805   -3.2479   -1.8456 C   0  0  0  0  0  0  0  0  0  0  0  0
   -3.6071   -3.8282    1.0236 C   0  0  0  0  0  0  0  0  0  0  0  0
   -5.2511   -3.1812    1.2762 C   0  0  0  0  0  0  0  0  0  0  0  0
   -6.6035   -2.7173    0.1211 C   0  0  0  0  0  0  0  0  0  0  0  0
   -6.1555   -2.5855   -1.5642 C   0  0  0  0  0  0  0  0  0  0  0  0
   -8.1672   -3.7303   -0.1587 C   0  0  0  0  0  0  0  0  0  0  0  0
   -8.2732   -5.4908   -0.1386 C   0  0  0  0  0  0  0  0  0  0  0  0
   -7.8458   -6.3734    1.1015 C   0  0  0  0  0  0  0  0  0  0  0  0
   -8.2763   -5.8616    2.4106 N   0  0  0  0  0  0  0  0  0  0  0  0
   -7.3203   -6.3481    3.5029 C   0  0  0  0  0  0  0  0  0  0  0  0
   -5.6981   -6.0192    3.6723 C   0  0  0  0  0  0  0  0  0  0  0  0
   -5.1700   -4.5096    4.1399 C   0  0  0  0  0  0  0  0  0  0  0  0
   -6.1043   -3.8526    5.1129 C   0  0  0  0  0  0  0  0  0  0  0  0
   -8.2992   -4.4321    2.4601 C   0  0  0  0  0  0  0  0  0  0  0  0
   -6.9538   -4.2275    1.9700 C   0  0  0  0  0  0  0  0  0  0  0  0
   -5.8367   -5.2096    0.6628 C   0  0  0  0  0  0  0  0  0  0  0  0
   -5.7929   -4.7098   -0.6780 C   0  0  0  0  0  0  0  0  0  0  0  0
    0.8403    2.5882   -0.0059 H   0  0  0  0  0  0  0  0  0  0  0  0
    3.0789    1.4179   -0.0541 H   0  0  0  0  0  0  0  0  0  0  0  0
    0.8190   -2.1748    0.0183 H   0  0  0  0  0  0  0  0  0  0  0  0
    2.8635   -4.5712    0.0717 H   0  0  0  0  0  0  0  0  0  0  0  0
    1.5199   -2.3385    1.7281 H   0  0  0  0  0  0  0  0  0  0  0  0
    0.8327   -3.9159    1.4436 H   0  0  0  0  0  0  0  0  0  0  0  0
    2.3816   -3.6021    2.2880 H   0  0  0  0  0  0  0  0  0  0  0  0
    2.3819   -3.6856   -2.1774 H   0  0  0  0  0  0  0  0  0  0  0  0
    0.8162   -3.9564   -1.3147 H   0  0  0  0  0  0  0  0  0  0  0  0
    1.5235   -2.4003   -1.6689 H   0  0  0  0  0  0  0  0  0  0  0  0
   -4.2765   -0.0503    0.7888 H   0  0  0  0  0  0  0  0  0  0  0  0
   -4.1043    1.3083   -0.0839 H   0  0  0  0  0  0  0  0  0  0  0  0
   -5.1283   -0.5548   -1.4625 H   0  0  0  0  0  0  0  0  0  0  0  0
   -3.8509    0.2339   -2.3753 H   0  0  0  0  0  0  0  0  0  0  0  0
   -3.0272   -2.2037   -2.5202 H   0  0  0  0  0  0  0  0  0  0  0  0
   -2.0879   -1.6206   -1.6623 H   0  0  0  0  0  0  0  0  0  0  0  0
   -4.9595   -1.5532    0.1703 H   0  0  0  0  0  0  0  0  0  0  0  0
   -4.2974   -2.6742   -0.1040 H   0  0  0  0  0  0  0  0  0  0  0  0
   -3.5871   -1.6769    1.0329 H   0  0  0  0  0  0  0  0  0  0  0  0
   -4.5371   -2.4520   -2.6951 H   0  0  0  0  0  0  0  0  0  0  0  0
   -3.0097   -3.9303    1.9996 H   0  0  0  0  0  0  0  0  0  0  0  0
   -5.1433   -4.0618    2.0538 H   0  0  0  0  0  0  0  0  0  0  0  0
   -6.8086   -2.3534   -2.4840 H   0  0  0  0  0  0  0  0  0  0  0  0
   -8.9182   -3.1743    0.3877 H   0  0  0  0  0  0  0  0  0  0  0  0
   -8.4578   -3.4873   -1.1918 H   0  0  0  0  0  0  0  0  0  0  0  0
   -9.2992   -5.7738   -0.3363 H   0  0  0  0  0  0  0  0  0  0  0  0
   -7.7453   -5.9210   -1.0271 H   0  0  0  0  0  0  0  0  0  0  0  0
   -7.9785   -7.4308    0.9049 H   0  0  0  0  0  0  0  0  0  0  0  0
   -6.8138   -6.6467    1.2189 H   0  0  0  0  0  0  0  0  0  0  0  0
   -7.7861   -5.9753    4.4100 H   0  0  0  0  0  0  0  0  0  0  0  0
   -7.4315   -7.4251    3.4443 H   0  0  0  0  0  0  0  0  0  0  0  0
   -5.3192   -6.6743    4.4522 H   0  0  0  0  0  0  0  0  0  0  0  0
   -5.2036   -6.3658    2.7509 H   0  0  0  0  0  0  0  0  0  0  0  0
   -4.0967   -4.3957    3.9338 H   0  0  0  0  0  0  0  0  0  0  0  0
   -5.2919   -3.5964    3.5468 H   0  0  0  0  0  0  0  0  0  0  0  0
   -5.8522   -4.2574    6.0653 H   0  0  0  0  0  0  0  0  0  0  0  0
   -6.0527   -2.7499    5.0247 H   0  0  0  0  0  0  0  0  0  0  0  0
   -7.1573   -4.0534    4.8937 H   0  0  0  0  0  0  0  0  0  0  0  0
   -8.8829   -3.7109    1.9315 H   0  0  0  0  0  0  0  0  0  0  0  0
   -8.3872   -3.9197    3.4401 H   0  0  0  0  0  0  0  0  0  0  0  0
   -6.8456   -3.0699    2.2959 H   0  0  0  0  0  0  0  0  0  0  0  0
   -6.5701   -4.5242    2.8708 H   0  0  0  0  0  0  0  0  0  0  0  0
   -4.7835   -5.2323    0.8755 H   0  0  0  0  0  0  0  0  0  0  0  0
   -5.5028   -6.2363    0.5246 H   0  0  0  0  0  0  0  0  0  0  0  0
   -5.3873   -3.7774   -0.4657 H   0  0  0  0  0  0  0  0  0  0  0  0
   -5.2880   -5.0798   -1.5206 H   0  0  0  0  0  0  0  0  0  0  0  0
   -6.7054   -4.6033   -1.1561 H   0  0  0  0  0  0  0  0  0  0  0  0
  1  2  2  0  0  0  0
  1  6  1  0  0  0  0
  1 40  1  0  0  0  0
  2  3  1  0  0  0  0
  2 41  1  0  0  0  0
  3  4  2  0  0  0  0
  3 10  1  0  0  0  0
  4  5  1  0  0  0  0
  4 42  1  0  0  0  0
  5  8  1  0  0  0  0
  6  5  2  0  0  0  0
  7  6  1  0  0  0  0
  7  9  1  0  0  0  0
  8  9  2  0  0  0  0
  8 20  1  0  0  0  0
  9 16  1  0  0  0  0
 10 11  1  0  0  0  0
 10 12  2  0  0  0  0
 11 13  1  0  0  0  0
 13 14  1  0  0  0  0
 13 15  1  0  0  0  0
 13 43  1  0  0  0  0
 14 44  1  0  0  0  0
 14 45  1  0  0  0  0
 14 46  1  0  0  0  0
 15 47  1  0  0  0  0
 15 48  1  0  0  0  0
 15 49  1  0  0  0  0
 16 17  1  0  0  0  0
 16 50  1  0  0  0  0
 16 51  1  0  0  0  0
 17 18  1  0  0  0  0
 17 52  1  0  0  0  0
 17 53  1  0  0  0  0
 18 19  1  0  0  0  0
 18 54  1  0  0  0  0
 18 55  1  0  0  0  0
 19 56  1  0  0  0  0
 19 57  1  0  0  0  0
 19 58  1  0  0  0  0
 20 21  1  0  0  0  0
 20 22  2  0  0  0  0
 21 24  1  0  0  0  0
 23 21  2  0  0  0  0
 23 27  1  0  0  0  0
 23 59  1  0  0  0  0
 24 25  2  0  0  0  0
 24 60  1  0  0  0  0
 25 26  1  0  0  0  0
 25 61  1  0  0  0  0
 26 27  2  0  0  0  0
 26 28  1  0  0  0  0
 27 62  1  0  0  0  0
 28 29  1  0  0  0  0
 28 63  1  0  0  0  0
 28 64  1  0  0  0  0
 29 30  1  0  0  0  0
 29 65  1  0  0  0  0
 29 66  1  0  0  0  0
 30 31  1  0  0  0  0
 30 67  1  0  0  0  0
 30 68  1  0  0  0  0
 31 32  1  0  0  0  0
 31 36  1  0  0  0  0
 32 33  1  0  0  0  0
 32 69  1  0  0  0  0
 32 70  1  0  0  0  0
 33 34  1  0  0  0  0
 33 71  1  0  0  0  0
 33 72  1  0  0  0  0
 34 35  1  0  0  0  0
 34 73  1  0  0  0  0
 34 74  1  0  0  0  0
 35 75  1  0  0  0  0
 35 76  1  0  0  0  0
 35 77  1  0  0  0  0
 36 37  1  0  0  0  0
 36 78  1  0  0  0  0
 36 79  1  0  0  0  0
 37 38  1  0  0  0  0
 37 80  1  0  0  0  0
 37 81  1  0  0  0  0
 38 39  1  0  0  0  0
 38 82  1  0  0  0  0
 38 83  1  0  0  0  0
 39 84  1  0  0  0  0
 39 85  1  0  0  0  0
 39 86  1  0  0  0  0
M  END
>  <DRUGBANK_ID>
DB16012

>  <COMMON_NAME>
Celivarone

>  <CAS_NUMBER>
401925-43-7

>  <UNII>
K45001587E

>  <SYNONYMS>
Celivarone; Isopropyl 2-butyl-3-(4-(3-(dibutylamino)propyl)benzoyl)-1-benzofuran-5-carboxylate

$$$$
