
 OpenBabel10282417203D

 25 25  0  0  0  0  0  0  0  0999 V2000
    1.0150    0.4375   -0.2891 O   0  0  0  0  0  0  0  0  0  0  0  0
    5.0287   -2.1963   -0.0435 O   0  0  0  0  0  0  0  0  0  0  0  0
    3.0542    1.3214   -0.0468 N   0  0  0  0  0  0  0  0  0  0  0  0
    2.8577   -1.1323   -0.0526 C   0  0  0  0  0  0  0  0  0  0  0  0
    2.2260    0.2482   -0.1364 C   0  0  0  0  0  0  0  0  0  0  0  0
    4.3751   -1.1502   -0.0398 C   0  0  0  0  0  0  0  0  0  0  0  0
    2.4678   -1.7384    1.3152 C   0  0  0  0  0  0  0  0  0  0  0  0
    2.4170   -1.9007   -1.3193 C   0  0  0  0  0  0  0  0  0  0  0  0
    5.1010    0.1265   -0.0299 C   0  0  0  0  0  0  0  0  0  0  0  0
    4.4152    1.2678   -0.0280 C   0  0  0  0  0  0  0  0  0  0  0  0
    2.9758   -1.2339   -2.5893 C   0  0  0  0  0  0  0  0  0  0  0  0
    0.9758   -1.8751    1.5499 C   0  0  0  0  0  0  0  0  0  0  0  0
    2.5713    2.2134   -0.0855 H   0  0  0  0  0  0  0  0  0  0  0  0
    2.9392   -2.7205    1.4515 H   0  0  0  0  0  0  0  0  0  0  0  0
    2.8816   -1.1007    2.1127 H   0  0  0  0  0  0  0  0  0  0  0  0
    2.7626   -2.9407   -1.2847 H   0  0  0  0  0  0  0  0  0  0  0  0
    1.3243   -1.9283   -1.4027 H   0  0  0  0  0  0  0  0  0  0  0  0
    6.1807    0.0706   -0.0375 H   0  0  0  0  0  0  0  0  0  0  0  0
    4.9207    2.2265   -0.0338 H   0  0  0  0  0  0  0  0  0  0  0  0
    4.0714   -1.2257   -2.5926 H   0  0  0  0  0  0  0  0  0  0  0  0
    2.6489   -1.7640   -3.4856 H   0  0  0  0  0  0  0  0  0  0  0  0
    2.6426   -0.1935   -2.6755 H   0  0  0  0  0  0  0  0  0  0  0  0
    0.5204   -2.4912    0.7723 H   0  0  0  0  0  0  0  0  0  0  0  0
    0.7861   -2.3319    2.5241 H   0  0  0  0  0  0  0  0  0  0  0  0
    0.4812   -0.9007    1.5656 H   0  0  0  0  0  0  0  0  0  0  0  0
  1  5  2  0  0  0  0
  2  6  2  0  0  0  0
  3  5  1  0  0  0  0
  3 10  1  0  0  0  0
  3 13  1  0  0  0  0
  4  5  1  0  0  0  0
  4  6  1  0  0  0  0
  4  7  1  0  0  0  0
  4  8  1  0  0  0  0
  6  9  1  0  0  0  0
  7 12  1  0  0  0  0
  7 14  1  0  0  0  0
  7 15  1  0  0  0  0
  8 11  1  0  0  0  0
  8 16  1  0  0  0  0
  8 17  1  0  0  0  0
  9 10  2  0  0  0  0
  9 18  1  0  0  0  0
 10 19  1  0  0  0  0
 11 20  1  0  0  0  0
 11 21  1  0  0  0  0
 11 22  1  0  0  0  0
 12 23  1  0  0  0  0
 12 24  1  0  0  0  0
 12 25  1  0  0  0  0
M  END
>  <DRUGBANK_ID>
DB13331

>  <COMMON_NAME>
Pyrithyldione

>  <CAS_NUMBER>
77-04-3

>  <UNII>
8AB20823CK

>  <SYNONYMS>
Pyrithyldiona; Pyrithyldione; Pyrithyldionum

$$$$
