2BF
 OpenBabel10282417133D

 35 36  0  0  0  0  0  0  0  0999 V2000
    1.3596   -0.3108   -0.0878 C   0  0  0  0  0  0  0  0  0  0  0  0
    0.4850   -1.3877   -0.0310 C   0  0  0  0  0  0  0  0  0  0  0  0
   -0.8919   -1.1670   -0.0488 C   0  0  0  0  0  0  0  0  0  0  0  0
   -1.3983    0.1339   -0.0366 C   0  0  0  0  0  0  0  0  0  0  0  0
   -0.5265    1.2284   -0.0135 C   0  0  0  0  0  0  0  0  0  0  0  0
    0.8536    0.9845   -0.1341 C   0  0  0  0  0  0  0  0  0  0  0  0
   -1.0577    2.5980    0.3859 C   0  0  1  0  0  0  0  0  0  0  0  0
   -0.5392    6.1570    0.6620 C   0  0  0  0  0  0  0  0  0  0  0  0
   -0.9522    7.4646    0.9389 C   0  0  0  0  0  0  0  0  0  0  0  0
   -0.6105    8.1417    2.1732 C   0  0  0  0  0  0  0  0  0  0  0  0
   -0.0580    7.4729    3.2304 C   0  0  0  0  0  0  0  0  0  0  0  0
    0.3625    6.2315    2.9121 C   0  0  0  0  0  0  0  0  0  0  0  0
    0.4363    5.8435    1.5582 C   0  0  0  0  0  0  0  0  0  0  0  0
   -0.3522    3.1931    1.9661 P   0  0  0  0  0  0  0  0  0  0  0  0
    1.0395    3.3638    1.3929 O   0  0  0  0  0  0  0  0  0  0  0  0
   -1.6150    4.1527    2.2598 O   0  0  0  0  0  0  0  0  0  0  0  0
    0.3147    3.7557    3.4599 O   0  0  0  0  0  0  0  0  0  0  0  0
   -0.6633    3.7266   -0.6063 N   0  0  0  0  0  0  0  0  0  0  0  0
   -1.0655    5.1897   -0.4518 C   0  0  0  0  0  0  0  0  0  0  0  0
   -2.1520    2.5657    0.4366 H   0  0  0  0  0  0  0  0  0  0  0  0
    2.4355   -0.4654   -0.0582 H   0  0  0  0  0  0  0  0  0  0  0  0
    0.8787   -2.3980    0.0257 H   0  0  0  0  0  0  0  0  0  0  0  0
   -1.5740   -2.0121   -0.0294 H   0  0  0  0  0  0  0  0  0  0  0  0
   -2.4750    0.2831    0.0011 H   0  0  0  0  0  0  0  0  0  0  0  0
    1.5719    1.8001   -0.1817 H   0  0  0  0  0  0  0  0  0  0  0  0
   -1.4996    8.0291    0.1987 H   0  0  0  0  0  0  0  0  0  0  0  0
   -0.8521    9.1788    2.3572 H   0  0  0  0  0  0  0  0  0  0  0  0
   -0.0019    7.7551    4.2753 H   0  0  0  0  0  0  0  0  0  0  0  0
   -0.0523    5.5803    3.6987 H   0  0  0  0  0  0  0  0  0  0  0  0
    1.2483    5.2175    1.2363 H   0  0  0  0  0  0  0  0  0  0  0  0
   -2.0232    4.6750    1.5580 H   0  0  0  0  0  0  0  0  0  0  0  0
    1.2394    3.9827    3.2244 H   0  0  0  0  0  0  0  0  0  0  0  0
    0.3579    3.6932   -0.6761 H   0  0  0  0  0  0  0  0  0  0  0  0
   -0.8217    5.6556   -1.4124 H   0  0  0  0  0  0  0  0  0  0  0  0
   -2.1633    5.1739   -0.4006 H   0  0  0  0  0  0  0  0  0  0  0  0
  1  2  2  0  0  0  0
  1  6  1  0  0  0  0
  1 21  1  0  0  0  0
  2  3  1  0  0  0  0
  2 22  1  0  0  0  0
  3  4  2  0  0  0  0
  3 23  1  0  0  0  0
  4  5  1  0  0  0  0
  4 24  1  0  0  0  0
  5  6  2  0  0  0  0
  5  7  1  0  0  0  0
  6 25  1  0  0  0  0
  7 14  1  0  0  0  0
  7 18  1  0  0  0  0
  7 20  1  1  0  0  0
  8  9  2  0  0  0  0
  8 13  1  0  0  0  0
  8 19  1  0  0  0  0
  9 10  1  0  0  0  0
  9 26  1  0  0  0  0
 10 11  2  0  0  0  0
 10 27  1  0  0  0  0
 11 12  1  0  0  0  0
 11 28  1  0  0  0  0
 12 13  2  0  0  0  0
 12 29  1  0  0  0  0
 13 30  1  0  0  0  0
 14 15  2  0  0  0  0
 14 16  1  0  0  0  0
 14 17  1  0  0  0  0
 16 31  1  0  0  0  0
 17 32  1  0  0  0  0
 18 19  1  0  0  0  0
 18 33  1  0  0  0  0
 19 34  1  0  0  0  0
 19 35  1  0  0  0  0
M  END
>  <DRUGBANK_ID>
DB03577

>  <SECONDARY_ACCESSION_NUMBERS>
EXPT00105

>  <COMMON_NAME>
Alpha-Benzyl-Aminobenzyl-Phosphonic Acid

$$$$
