
 OpenBabel10282417203D

 45 47  0  0  0  0  0  0  0  0999 V2000
    1.0045    0.5377   -0.5821 C   0  0  0  0  0  0  0  0  0  0  0  0
    0.5186    1.2896    0.7357 C   0  0  3  0  0  0  0  0  0  0  0  0
    0.6259    2.6989    0.1859 C   0  0  0  0  0  0  0  0  0  0  0  0
    1.8723    3.3596    0.2275 C   0  0  0  0  0  0  0  0  0  0  0  0
    2.0444    4.5657   -0.4173 C   0  0  0  0  0  0  0  0  0  0  0  0
    0.9838    5.0963   -1.1394 C   0  0  0  0  0  0  0  0  0  0  0  0
   -0.2430    4.4231   -1.2261 C   0  0  0  0  0  0  0  0  0  0  0  0
   -0.4416    3.2069   -0.5764 C   0  0  0  0  0  0  0  0  0  0  0  0
   -1.7737    2.4776   -0.7108 C   0  0  0  0  0  0  0  0  0  0  0  0
   -1.7858    1.0040   -0.3250 C   0  0  0  0  0  0  0  0  0  0  0  0
   -0.9544    0.9003    0.9140 C   0  0  0  0  0  0  0  0  0  0  0  0
   -1.4647    0.5285    1.9875 O   0  0  0  0  0  0  0  0  0  0  0  0
    1.2764    1.2337    2.1628 C   0  0  0  0  0  0  0  0  0  0  0  0
    1.2435   -0.0297    3.1143 C   0  0  0  0  0  0  0  0  0  0  0  0
    1.9073   -1.2645    2.5951 N   0  0  0  0  0  0  0  0  0  0  0  0
    1.2824   -2.5051    3.0579 C   0  0  0  0  0  0  0  0  0  0  0  0
    1.8071   -3.6974    2.2123 C   0  0  0  0  0  0  0  0  0  0  0  0
    1.5053   -3.5889    0.7123 C   0  0  0  0  0  0  0  0  0  0  0  0
    2.1087   -2.3175    0.2026 C   0  0  0  0  0  0  0  0  0  0  0  0
    1.7334   -1.2356    1.1738 C   0  0  0  0  0  0  0  0  0  0  0  0
    0.6814    0.9921   -1.5275 H   0  0  0  0  0  0  0  0  0  0  0  0
    0.5310   -0.4439   -0.6780 H   0  0  0  0  0  0  0  0  0  0  0  0
    2.0914    0.4792   -0.6982 H   0  0  0  0  0  0  0  0  0  0  0  0
    2.7396    2.9209    0.7173 H   0  0  0  0  0  0  0  0  0  0  0  0
    3.0066    5.0666   -0.3637 H   0  0  0  0  0  0  0  0  0  0  0  0
    1.1183    6.0420   -1.6521 H   0  0  0  0  0  0  0  0  0  0  0  0
   -1.0435    4.8505   -1.8209 H   0  0  0  0  0  0  0  0  0  0  0  0
   -2.1241    2.5445   -1.7462 H   0  0  0  0  0  0  0  0  0  0  0  0
   -2.4897    2.9935   -0.0641 H   0  0  0  0  0  0  0  0  0  0  0  0
   -1.3668    0.3698   -1.1140 H   0  0  0  0  0  0  0  0  0  0  0  0
   -2.7900    0.6049   -0.1546 H   0  0  0  0  0  0  0  0  0  0  0  0
    2.3401    1.4731    2.0414 H   0  0  0  0  0  0  0  0  0  0  0  0
    0.8756    2.0676    2.7651 H   0  0  0  0  0  0  0  0  0  0  0  0
    1.7681    0.2524    4.0397 H   0  0  0  0  0  0  0  0  0  0  0  0
    0.2101   -0.2184    3.4170 H   0  0  0  0  0  0  0  0  0  0  0  0
    0.1891   -2.4481    2.9628 H   0  0  0  0  0  0  0  0  0  0  0  0
    1.5248   -2.6550    4.1131 H   0  0  0  0  0  0  0  0  0  0  0  0
    1.3789   -4.6262    2.5857 H   0  0  0  0  0  0  0  0  0  0  0  0
    2.8981   -3.7428    2.3210 H   0  0  0  0  0  0  0  0  0  0  0  0
    1.9218   -4.4174    0.1348 H   0  0  0  0  0  0  0  0  0  0  0  0
    0.4207   -3.5745    0.5334 H   0  0  0  0  0  0  0  0  0  0  0  0
    3.1940   -2.3437    0.0915 H   0  0  0  0  0  0  0  0  0  0  0  0
    1.7082   -2.0987   -0.7986 H   0  0  0  0  0  0  0  0  0  0  0  0
    2.3703   -0.4088    0.8959 H   0  0  0  0  0  0  0  0  0  0  0  0
    0.6459   -1.1320    1.0649 H   0  0  0  0  0  0  0  0  0  0  0  0
  1  2  1  0  0  0  0
  1 21  1  0  0  0  0
  1 22  1  0  0  0  0
  1 23  1  0  0  0  0
  2  3  1  0  0  0  0
  2 11  1  0  0  0  0
  2 13  1  0  0  0  0
  3  4  2  0  0  0  0
  3  8  1  0  0  0  0
  4  5  1  0  0  0  0
  4 24  1  0  0  0  0
  5  6  2  0  0  0  0
  5 25  1  0  0  0  0
  6  7  1  0  0  0  0
  6 26  1  0  0  0  0
  7  8  2  0  0  0  0
  7 27  1  0  0  0  0
  8  9  1  0  0  0  0
  9 10  1  0  0  0  0
  9 28  1  0  0  0  0
  9 29  1  0  0  0  0
 10 11  1  0  0  0  0
 10 30  1  0  0  0  0
 10 31  1  0  0  0  0
 11 12  2  0  0  0  0
 13 14  1  0  0  0  0
 13 32  1  0  0  0  0
 13 33  1  0  0  0  0
 14 15  1  0  0  0  0
 14 34  1  0  0  0  0
 14 35  1  0  0  0  0
 15 16  1  0  0  0  0
 15 20  1  0  0  0  0
 16 17  1  0  0  0  0
 16 36  1  0  0  0  0
 16 37  1  0  0  0  0
 17 18  1  0  0  0  0
 17 38  1  0  0  0  0
 17 39  1  0  0  0  0
 18 19  1  0  0  0  0
 18 40  1  0  0  0  0
 18 41  1  0  0  0  0
 19 20  1  0  0  0  0
 19 42  1  0  0  0  0
 19 43  1  0  0  0  0
 20 44  1  0  0  0  0
 20 45  1  0  0  0  0
M  END
>  <DRUGBANK_ID>
DB13445

>  <COMMON_NAME>
Nepinalone

>  <CAS_NUMBER>
22443-11-4

>  <UNII>
L9806LPR7G

>  <SYNONYMS>
Nepinalone

$$$$
