
 OpenBabel10282417123D

 83 84  0  0  0  0  0  0  0  0999 V2000
    0.2604   -1.2490   -0.0038 C   0  0  0  0  0  0  0  0  0  0  0  0
    0.9254   -0.0230   -0.0187 C   0  0  0  0  0  0  0  0  0  0  0  0
   -1.1639    1.2015    0.0333 C   0  0  0  0  0  0  0  0  0  0  0  0
   -1.8810    0.0032    0.0402 C   0  0  0  0  0  0  0  0  0  0  0  0
    0.2484    1.2155    0.0120 C   0  0  0  0  0  0  0  0  0  0  0  0
    0.6565    3.3696   -1.2066 C   0  0  0  0  0  0  0  0  0  0  0  0
    0.6266    3.3161    1.3298 C   0  0  0  0  0  0  0  0  0  0  0  0
    1.0179    2.5600    0.0481 C   0  0  0  0  0  0  0  0  0  0  0  0
    2.5718    2.4840    0.0732 C   0  0  0  0  0  0  0  0  0  0  0  0
   -1.1468   -1.1828   -0.0110 C   0  0  0  0  0  0  0  0  0  0  0  0
   -3.6639    0.1135    0.1918 S   0  0  0  0  0  0  0  0  0  0  0  0
   -3.7934   -2.5266   -1.5486 S   0  0  0  0  0  0  0  0  0  0  0  0
   -4.2664   -1.5741   -2.9890 C   0  0  0  0  0  0  0  0  0  0  0  0
   -4.0818   -0.1963   -3.1204 C   0  0  0  0  0  0  0  0  0  0  0  0
   -4.7634   -0.2262   -5.4025 C   0  0  0  0  0  0  0  0  0  0  0  0
   -4.9895   -1.6170   -5.3332 C   0  0  0  0  0  0  0  0  0  0  0  0
   -4.3462    0.5296   -4.3045 C   0  0  0  0  0  0  0  0  0  0  0  0
   -5.0716    2.6891   -3.2424 C   0  0  0  0  0  0  0  0  0  0  0  0
   -2.6545    2.3652   -3.9339 C   0  0  0  0  0  0  0  0  0  0  0  0
   -4.1236    2.0551   -4.2825 C   0  0  0  0  0  0  0  0  0  0  0  0
   -4.4043    2.7990   -5.5982 C   0  0  0  0  0  0  0  0  0  0  0  0
   -4.7268   -2.2717   -4.1087 C   0  0  0  0  0  0  0  0  0  0  0  0
   -4.3420   -1.5910   -0.0376 C   0  0  0  0  0  0  0  0  0  0  0  0
   -5.4964   -2.4204   -6.5587 C   0  0  0  0  0  0  0  0  0  0  0  0
   -4.4485   -3.4828   -6.9274 C   0  0  0  0  0  0  0  0  0  0  0  0
   -6.8405   -3.0713   -6.1909 C   0  0  0  0  0  0  0  0  0  0  0  0
   -5.7676   -1.6223   -7.8672 C   0  0  0  0  0  0  0  0  0  0  0  0
    0.9083   -2.6461    0.0345 C   0  0  0  0  0  0  0  0  0  0  0  0
    0.4622   -3.3844    1.3168 C   0  0  0  0  0  0  0  0  0  0  0  0
    0.4938   -3.4449   -1.2163 C   0  0  0  0  0  0  0  0  0  0  0  0
    2.4429   -2.6731    0.0613 C   0  0  0  0  0  0  0  0  0  0  0  0
    2.2610    0.1035   -0.1196 O   0  0  0  0  0  0  0  0  0  0  0  0
   -4.9014    0.2714   -6.6472 O   0  0  0  0  0  0  0  0  0  0  0  0
   -3.9766   -2.3801    1.2378 C   0  0  0  0  0  0  0  0  0  0  0  0
   -5.8750   -1.5129   -0.0953 C   0  0  0  0  0  0  0  0  0  0  0  0
   -1.7130    2.1425    0.0478 H   0  0  0  0  0  0  0  0  0  0  0  0
   -0.4087    3.6127   -1.2543 H   0  0  0  0  0  0  0  0  0  0  0  0
    1.2135    4.3120   -1.2306 H   0  0  0  0  0  0  0  0  0  0  0  0
    0.9103    2.8082   -2.1151 H   0  0  0  0  0  0  0  0  0  0  0  0
    0.8590    2.7157    2.2191 H   0  0  0  0  0  0  0  0  0  0  0  0
    1.1827    4.2561    1.4089 H   0  0  0  0  0  0  0  0  0  0  0  0
   -0.4388    3.5598    1.3645 H   0  0  0  0  0  0  0  0  0  0  0  0
    2.9268    1.9341    0.9572 H   0  0  0  0  0  0  0  0  0  0  0  0
    2.9621    2.0108   -0.8393 H   0  0  0  0  0  0  0  0  0  0  0  0
    3.0488    3.4644    0.1160 H   0  0  0  0  0  0  0  0  0  0  0  0
   -1.6614   -2.1288   -0.0564 H   0  0  0  0  0  0  0  0  0  0  0  0
   -3.6661    0.3588   -2.2963 H   0  0  0  0  0  0  0  0  0  0  0  0
   -4.8670    2.3520   -2.2222 H   0  0  0  0  0  0  0  0  0  0  0  0
   -4.9804    3.7811   -3.2493 H   0  0  0  0  0  0  0  0  0  0  0  0
   -6.1172    2.4432   -3.4691 H   0  0  0  0  0  0  0  0  0  0  0  0
   -1.9779    1.8831   -4.6504 H   0  0  0  0  0  0  0  0  0  0  0  0
   -2.4671    3.4440   -3.9720 H   0  0  0  0  0  0  0  0  0  0  0  0
   -2.3737    2.0252   -2.9334 H   0  0  0  0  0  0  0  0  0  0  0  0
   -3.7172    2.4568   -6.3840 H   0  0  0  0  0  0  0  0  0  0  0  0
   -5.4537    2.6681   -5.8965 H   0  0  0  0  0  0  0  0  0  0  0  0
   -4.2530    3.8774   -5.5261 H   0  0  0  0  0  0  0  0  0  0  0  0
   -4.8551   -3.3510   -4.0369 H   0  0  0  0  0  0  0  0  0  0  0  0
   -4.2805   -4.2022   -6.1212 H   0  0  0  0  0  0  0  0  0  0  0  0
   -4.7645   -4.0459   -7.8119 H   0  0  0  0  0  0  0  0  0  0  0  0
   -3.4846   -3.0114   -7.1588 H   0  0  0  0  0  0  0  0  0  0  0  0
   -7.5732   -2.3068   -5.9007 H   0  0  0  0  0  0  0  0  0  0  0  0
   -7.2520   -3.6186   -7.0454 H   0  0  0  0  0  0  0  0  0  0  0  0
   -6.7501   -3.7759   -5.3595 H   0  0  0  0  0  0  0  0  0  0  0  0
   -6.5256   -0.8421   -7.7058 H   0  0  0  0  0  0  0  0  0  0  0  0
   -4.8449   -1.1674   -8.2551 H   0  0  0  0  0  0  0  0  0  0  0  0
   -6.1433   -2.2467   -8.6797 H   0  0  0  0  0  0  0  0  0  0  0  0
   -0.6150   -3.5724    1.3475 H   0  0  0  0  0  0  0  0  0  0  0  0
    0.9613   -4.3566    1.3977 H   0  0  0  0  0  0  0  0  0  0  0  0
    0.7216   -2.8035    2.2114 H   0  0  0  0  0  0  0  0  0  0  0  0
    0.7684   -2.9020   -2.1291 H   0  0  0  0  0  0  0  0  0  0  0  0
    0.9986   -4.4167   -1.2394 H   0  0  0  0  0  0  0  0  0  0  0  0
   -0.5814   -3.6405   -1.2587 H   0  0  0  0  0  0  0  0  0  0  0  0
    2.8465   -2.2261   -0.8571 H   0  0  0  0  0  0  0  0  0  0  0  0
    2.8183   -2.1606    0.9579 H   0  0  0  0  0  0  0  0  0  0  0  0
    2.8562   -3.6819    0.1039 H   0  0  0  0  0  0  0  0  0  0  0  0
    2.8300   -0.6537    0.0099 H   0  0  0  0  0  0  0  0  0  0  0  0
   -4.9640    1.2136   -6.7868 H   0  0  0  0  0  0  0  0  0  0  0  0
   -4.3714   -1.8806    2.1314 H   0  0  0  0  0  0  0  0  0  0  0  0
   -4.3893   -3.3932    1.2186 H   0  0  0  0  0  0  0  0  0  0  0  0
   -2.9056   -2.4888    1.4159 H   0  0  0  0  0  0  0  0  0  0  0  0
   -6.2831   -1.0123    0.7904 H   0  0  0  0  0  0  0  0  0  0  0  0
   -6.2426   -0.9770   -0.9766 H   0  0  0  0  0  0  0  0  0  0  0  0
   -6.3142   -2.5197   -0.1122 H   0  0  0  0  0  0  0  0  0  0  0  0
  1  2  2  0  0  0  0
  1 28  1  0  0  0  0
  2  5  1  0  0  0  0
  2 32  1  0  0  0  0
  3  4  1  0  0  0  0
  3 36  1  0  0  0  0
  4 11  1  0  0  0  0
  5  3  2  0  0  0  0
  5  8  1  0  0  0  0
  6 37  1  0  0  0  0
  6 38  1  0  0  0  0
  6 39  1  0  0  0  0
  7 40  1  0  0  0  0
  7 41  1  0  0  0  0
  7 42  1  0  0  0  0
  8  6  1  0  0  0  0
  8  7  1  0  0  0  0
  8  9  1  0  0  0  0
  9 43  1  0  0  0  0
  9 44  1  0  0  0  0
  9 45  1  0  0  0  0
 10  1  1  0  0  0  0
 10  4  2  0  0  0  0
 10 46  1  0  0  0  0
 11 23  1  0  0  0  0
 12 13  1  0  0  0  0
 13 14  2  0  0  0  0
 14 17  1  0  0  0  0
 14 47  1  0  0  0  0
 15 16  1  0  0  0  0
 15 33  1  0  0  0  0
 16 24  1  0  0  0  0
 17 15  2  0  0  0  0
 17 20  1  0  0  0  0
 18 48  1  0  0  0  0
 18 49  1  0  0  0  0
 18 50  1  0  0  0  0
 19 51  1  0  0  0  0
 19 52  1  0  0  0  0
 19 53  1  0  0  0  0
 20 18  1  0  0  0  0
 20 19  1  0  0  0  0
 20 21  1  0  0  0  0
 21 54  1  0  0  0  0
 21 55  1  0  0  0  0
 21 56  1  0  0  0  0
 22 13  1  0  0  0  0
 22 16  2  0  0  0  0
 22 57  1  0  0  0  0
 23 12  1  0  0  0  0
 24 25  1  0  0  0  0
 24 26  1  0  0  0  0
 24 27  1  0  0  0  0
 25 58  1  0  0  0  0
 25 59  1  0  0  0  0
 25 60  1  0  0  0  0
 26 61  1  0  0  0  0
 26 62  1  0  0  0  0
 26 63  1  0  0  0  0
 27 64  1  0  0  0  0
 27 65  1  0  0  0  0
 27 66  1  0  0  0  0
 28 29  1  0  0  0  0
 28 30  1  0  0  0  0
 28 31  1  0  0  0  0
 29 67  1  0  0  0  0
 29 68  1  0  0  0  0
 29 69  1  0  0  0  0
 30 70  1  0  0  0  0
 30 71  1  0  0  0  0
 30 72  1  0  0  0  0
 31 73  1  0  0  0  0
 31 74  1  0  0  0  0
 31 75  1  0  0  0  0
 32 76  1  0  0  0  0
 33 77  1  0  0  0  0
 34 23  1  0  0  0  0
 34 78  1  0  0  0  0
 34 79  1  0  0  0  0
 34 80  1  0  0  0  0
 35 23  1  0  0  0  0
 35 81  1  0  0  0  0
 35 82  1  0  0  0  0
 35 83  1  0  0  0  0
M  END
>  <DRUGBANK_ID>
DB01599

>  <COMMON_NAME>
Probucol

>  <CAS_NUMBER>
23288-49-5

>  <UNII>
P3CTH044XJ

>  <SYNONYMS>
4,4'- (Isopropylidenedithio)bis(2,6-di-tert-butylphenol); Acetone bis(3,5-di-tert-butyl-4-hydroxyphenyl) mercaptole; Biphenabid; Bisbid; Bisphenabid; Probucol; Probucolum

$$$$
