
 OpenBabel10282417203D

 83 87  0  0  1  0  0  0  0  0999 V2000
    1.1195   -0.8638    0.1955 C   0  0  0  0  0  0  0  0  0  0  0  0
    0.4963   -1.0646   -1.6711 C   0  0  1  0  0  0  0  0  0  0  0  0
    1.1065   -2.5760   -1.4812 C   0  0  0  0  0  0  0  0  0  0  0  0
    0.4661   -3.5806   -1.1460 O   0  0  0  0  0  0  0  0  0  0  0  0
    2.4776   -2.7781   -1.3018 N   0  0  0  0  0  0  0  0  0  0  0  0
    3.5688   -1.8435   -1.0934 C   0  0  1  0  0  0  0  0  0  0  0  0
    4.2625   -1.7835    0.1703 C   0  0  0  0  0  0  0  0  0  0  0  0
    5.0100   -1.5891   -1.9582 C   0  0  0  0  0  0  0  0  0  0  0  0
    5.5334   -0.5028   -2.2273 O   0  0  0  0  0  0  0  0  0  0  0  0
    5.2802   -2.7432   -2.6487 O   0  0  0  0  0  0  0  0  0  0  0  0
    5.8672   -2.5049   -3.9636 C   0  0  0  0  0  0  0  0  0  0  0  0
    4.8757   -2.3412   -5.2133 C   0  0  0  0  0  0  0  0  0  0  0  0
    4.0435   -1.1388   -5.4995 O   0  0  0  0  0  0  0  0  0  0  0  0
    3.0292   -0.7406   -4.6796 C   0  0  0  0  0  0  0  0  0  0  0  0
    3.2299   -0.7793   -3.3922 C   0  0  0  0  0  0  0  0  0  0  0  0
    2.9335    0.2668   -2.3881 C   0  0  0  0  0  0  0  0  0  0  0  0
    1.7074    0.8991   -2.3698 C   0  0  0  0  0  0  0  0  0  0  0  0
    1.3080    0.8002   -3.7116 C   0  0  0  0  0  0  0  0  0  0  0  0
    1.9334    0.0173   -4.8310 C   0  0  0  0  0  0  0  0  0  0  0  0
    0.4979    1.0374   -0.9809 C   0  0  0  0  0  0  0  0  0  0  0  0
   -0.7957   -0.1323   -0.3840 C   0  0  0  0  0  0  0  0  0  0  0  0
   -1.5477    0.0875    0.6587 C   0  0  0  0  0  0  0  0  0  0  0  0
   -1.0295    1.0809    1.5041 N   0  0  0  0  0  0  0  0  0  0  0  0
    0.2665    1.8749    1.2780 C   0  0  0  0  0  0  0  0  0  0  0  0
    1.0684    1.9240    0.0352 C   0  0  0  0  0  0  0  0  0  0  0  0
    2.5506    2.1952   -0.0974 C   0  0  0  0  0  0  0  0  0  0  0  0
    3.7105    2.3161   -0.2216 N   0  0  0  0  0  0  0  0  0  0  0  0
    0.8641    2.4830    2.9220 S   0  0  0  0  0  0  0  0  0  0  0  0
    2.6181    2.8504    2.5944 C   0  0  0  0  0  0  0  0  0  0  0  0
    3.5129    1.6318    2.5334 C   0  0  0  0  0  0  0  0  0  0  0  0
    3.1332    0.3058    2.6253 C   0  0  0  0  0  0  0  0  0  0  0  0
    4.5535   -0.6429    2.8073 S   0  0  0  0  0  0  0  0  0  0  0  0
    5.4509    0.6164    2.0154 C   0  0  0  0  0  0  0  0  0  0  0  0
    4.8647    1.7872    2.1919 N   0  0  0  0  0  0  0  0  0  0  0  0
    6.8519    0.3873    1.6155 C   0  0  0  0  0  0  0  0  0  0  0  0
    7.8138    0.8791    2.4868 C   0  0  0  0  0  0  0  0  0  0  0  0
    9.1700    0.6211    2.2925 C   0  0  0  0  0  0  0  0  0  0  0  0
    9.5905   -0.1389    1.2088 C   0  0  0  0  0  0  0  0  0  0  0  0
    8.6549   -0.6753    0.3427 C   0  0  0  0  0  0  0  0  0  0  0  0
    7.3081   -0.3264    0.4933 C   0  0  0  0  0  0  0  0  0  0  0  0
   11.2653   -0.3494    0.8918 Cl  0  0  0  0  0  0  0  0  0  0  0  0
   -2.7837   -0.5302    0.6311 N   0  0  0  0  0  0  0  0  0  0  0  0
   -3.9350    0.3119    0.4597 C   0  0  0  0  0  0  0  0  0  0  0  0
   -4.9110   -0.5223    1.2593 C   0  0  0  0  0  0  0  0  0  0  0  0
   -4.6448   -1.9540    0.7926 C   0  0  0  0  0  0  0  0  0  0  0  0
   -3.1646   -1.9585    0.4620 C   0  0  0  0  0  0  0  0  0  0  0  0
   -1.2532   -1.9049   -1.1812 C   0  0  0  0  0  0  0  0  0  0  0  0
   -1.4063   -2.5054   -2.1926 N   0  0  0  0  0  0  0  0  0  0  0  0
   -1.2543   -0.2461   -2.3565 N   0  0  0  0  0  0  0  0  0  0  0  0
    0.5805   -1.3105    1.0742 H   0  0  0  0  0  0  0  0  0  0  0  0
    0.7527    0.0108    0.6858 H   0  0  0  0  0  0  0  0  0  0  0  0
    2.0746   -0.3821    0.4240 H   0  0  0  0  0  0  0  0  0  0  0  0
    0.6750   -0.7307   -2.6346 H   0  0  0  0  0  0  0  0  0  0  0  0
    2.7141   -3.7457   -1.3683 H   0  0  0  0  0  0  0  0  0  0  0  0
    2.9198   -1.0274   -0.8787 H   0  0  0  0  0  0  0  0  0  0  0  0
    4.9314   -2.6247    0.1912 H   0  0  0  0  0  0  0  0  0  0  0  0
    4.7977   -0.8214    0.1213 H   0  0  0  0  0  0  0  0  0  0  0  0
    3.4955   -1.7352    0.9168 H   0  0  0  0  0  0  0  0  0  0  0  0
    6.5560   -1.6585   -3.9268 H   0  0  0  0  0  0  0  0  0  0  0  0
    6.4491   -3.4200   -4.1137 H   0  0  0  0  0  0  0  0  0  0  0  0
    5.5372   -2.4003   -6.0921 H   0  0  0  0  0  0  0  0  0  0  0  0
    4.1946   -3.1934   -5.2530 H   0  0  0  0  0  0  0  0  0  0  0  0
    3.9022   -1.5794   -3.4094 H   0  0  0  0  0  0  0  0  0  0  0  0
    3.6155    0.3533   -1.5299 H   0  0  0  0  0  0  0  0  0  0  0  0
    0.2979    1.1170   -3.8106 H   0  0  0  0  0  0  0  0  0  0  0  0
    1.4360   -0.0746   -5.7712 H   0  0  0  0  0  0  0  0  0  0  0  0
    2.6360    3.4852    1.7047 H   0  0  0  0  0  0  0  0  0  0  0  0
    2.9852    3.5039    3.3778 H   0  0  0  0  0  0  0  0  0  0  0  0
    2.1266   -0.0932    2.6875 H   0  0  0  0  0  0  0  0  0  0  0  0
    7.4821    1.4828    3.3251 H   0  0  0  0  0  0  0  0  0  0  0  0
    9.8828    1.0034    3.0114 H   0  0  0  0  0  0  0  0  0  0  0  0
    8.9629   -1.3605   -0.4432 H   0  0  0  0  0  0  0  0  0  0  0  0
    6.6662   -0.6018   -0.3237 H   0  0  0  0  0  0  0  0  0  0  0  0
   -4.2619    0.4031   -0.5922 H   0  0  0  0  0  0  0  0  0  0  0  0
   -3.7691    1.3146    0.8509 H   0  0  0  0  0  0  0  0  0  0  0  0
   -4.6395   -0.4285    2.3171 H   0  0  0  0  0  0  0  0  0  0  0  0
   -5.9403   -0.2120    1.1157 H   0  0  0  0  0  0  0  0  0  0  0  0
   -4.8734   -2.7131    1.5406 H   0  0  0  0  0  0  0  0  0  0  0  0
   -5.2407   -2.1796   -0.1035 H   0  0  0  0  0  0  0  0  0  0  0  0
   -2.5560   -2.6047    1.1010 H   0  0  0  0  0  0  0  0  0  0  0  0
   -3.1246   -2.3868   -0.5540 H   0  0  0  0  0  0  0  0  0  0  0  0
   -1.8954   -0.8993   -2.8674 H   0  0  0  0  0  0  0  0  0  0  0  0
   -2.1559   -0.4253   -1.5248 H   0  0  0  0  0  0  0  0  0  0  0  0
  1  2  1  0  0  0  0
  1 50  1  0  0  0  0
  1 51  1  0  0  0  0
  1 52  1  0  0  0  0
  2  3  1  0  0  0  0
  2 49  1  0  0  0  0
  2 53  1  6  0  0  0
  3  4  2  0  0  0  0
  3  5  1  0  0  0  0
  5  6  1  0  0  0  0
  5 54  1  0  0  0  0
  6  7  1  0  0  0  0
  6  8  1  0  0  0  0
  6 55  1  6  0  0  0
  7 56  1  0  0  0  0
  7 57  1  0  0  0  0
  7 58  1  0  0  0  0
  8  9  2  0  0  0  0
  8 10  1  0  0  0  0
 10 11  1  0  0  0  0
 11 12  1  0  0  0  0
 11 59  1  0  0  0  0
 11 60  1  0  0  0  0
 12 13  1  0  0  0  0
 12 61  1  0  0  0  0
 12 62  1  0  0  0  0
 13 14  1  0  0  0  0
 14 15  2  0  0  0  0
 14 19  1  0  0  0  0
 15 16  1  0  0  0  0
 15 63  1  0  0  0  0
 16 17  2  0  0  0  0
 16 64  1  0  0  0  0
 17 18  1  0  0  0  0
 17 20  1  0  0  0  0
 18 19  2  0  0  0  0
 18 65  1  0  0  0  0
 19 66  1  0  0  0  0
 20 21  2  0  0  0  0
 20 25  1  0  0  0  0
 21 22  1  0  0  0  0
 21 47  1  0  0  0  0
 22 23  2  0  0  0  0
 22 42  1  0  0  0  0
 23 24  1  0  0  0  0
 24 25  2  0  0  0  0
 24 28  1  0  0  0  0
 25 26  1  0  0  0  0
 26 27  3  0  0  0  0
 28 29  1  0  0  0  0
 29 30  1  0  0  0  0
 29 67  1  0  0  0  0
 29 68  1  0  0  0  0
 30 31  2  0  0  0  0
 30 34  1  0  0  0  0
 31 32  1  0  0  0  0
 31 69  1  0  0  0  0
 32 33  1  0  0  0  0
 33 34  2  0  0  0  0
 33 35  1  0  0  0  0
 35 36  2  0  0  0  0
 35 40  1  0  0  0  0
 36 37  1  0  0  0  0
 36 70  1  0  0  0  0
 37 38  2  0  0  0  0
 37 71  1  0  0  0  0
 38 39  1  0  0  0  0
 38 41  1  0  0  0  0
 39 40  2  0  0  0  0
 39 72  1  0  0  0  0
 40 73  1  0  0  0  0
 42 43  1  0  0  0  0
 42 46  1  0  0  0  0
 43 44  1  0  0  0  0
 43 74  1  0  0  0  0
 43 75  1  0  0  0  0
 44 45  1  0  0  0  0
 44 76  1  0  0  0  0
 44 77  1  0  0  0  0
 45 46  1  0  0  0  0
 45 78  1  0  0  0  0
 45 79  1  0  0  0  0
 46 80  1  0  0  0  0
 46 81  1  0  0  0  0
 47 48  3  0  0  0  0
 49 82  1  0  0  0  0
 49 83  1  0  0  0  0
M  END
>  <DRUGBANK_ID>
DB13138

>  <COMMON_NAME>
Neladenoson bialanate

>  <CAS_NUMBER>
1239309-58-0

>  <UNII>
IV690462VZ

>  <SYNONYMS>
Neladenoson bialanate

$$$$
