
 OpenBabel10282417213D

 12 11  0  0  0  0  0  0  0  0999 V2000
    1.0546    0.1243   -0.0656 C   0  0  0  0  0  0  0  0  0  0  0  0
    0.3203   -0.8226    0.8845 C   0  0  2  0  0  0  0  0  0  0  0  0
    2.3979    0.0306    0.0078 O   0  0  0  0  0  0  0  0  0  0  0  0
    0.6526   -0.4825    2.3287 C   0  0  0  0  0  0  0  0  0  0  0  0
    0.5248    0.8838   -0.8632 O   0  0  0  0  0  0  0  0  0  0  0  0
    0.6277   -2.1925    0.6536 O   0  0  0  0  0  0  0  0  0  0  0  0
   -0.7563   -0.6929    0.7270 H   0  0  0  0  0  0  0  0  0  0  0  0
    2.7442    0.6653   -0.6524 H   0  0  0  0  0  0  0  0  0  0  0  0
    0.3972    0.5566    2.5591 H   0  0  0  0  0  0  0  0  0  0  0  0
    0.1095   -1.1405    3.0153 H   0  0  0  0  0  0  0  0  0  0  0  0
    1.7197   -0.6253    2.5333 H   0  0  0  0  0  0  0  0  0  0  0  0
    0.3857   -2.3864   -0.2688 H   0  0  0  0  0  0  0  0  0  0  0  0
  1  5  2  0  0  0  0
  1  2  1  0  0  0  0
  1  3  1  0  0  0  0
  2  6  1  0  0  0  0
  2  7  1  6  0  0  0
  3  8  1  0  0  0  0
  4  2  1  0  0  0  0
  4  9  1  0  0  0  0
  4 10  1  0  0  0  0
  4 11  1  0  0  0  0
  6 12  1  0  0  0  0
M  END
>  <DRUGBANK_ID>
DB14475

>  <COMMON_NAME>
L-Lactic acid

>  <CAS_NUMBER>
79-33-4

>  <UNII>
F9S9FFU82N

>  <SYNONYMS>
(+)-lactic acid; (S)-(+)-lactic acid; (S)-2-hydroxypropanoic acid; (S)-2-hydroxypropionic acid; (S)-lactic acid; L-(+)-lactic acid; L-(+)-α-hydroxypropionic acid; L-Lactic acid; L-Milchsäure

$$$$
