
 OpenBabel10282417133D

 21 22  0  0  0  0  0  0  0  0999 V2000
    1.0142   -0.1863   -0.2385 N   0  0  0  0  0  0  0  0  0  0  0  0
    0.2898    0.7902   -0.9149 C   0  0  0  0  0  0  0  0  0  0  0  0
    0.5393    1.0323   -2.2620 C   0  0  0  0  0  0  0  0  0  0  0  0
   -0.2957    1.8901   -2.9900 C   0  0  0  0  0  0  0  0  0  0  0  0
   -1.2107    2.7211   -2.3624 C   0  0  0  0  0  0  0  0  0  0  0  0
   -1.3458    2.5859   -0.9788 C   0  0  0  0  0  0  0  0  0  0  0  0
   -0.6505    1.5815   -0.2714 C   0  0  0  0  0  0  0  0  0  0  0  0
   -2.1772    3.5206   -0.3980 C   0  0  0  0  0  0  0  0  0  0  0  0
   -2.3440    3.5232    0.9620 O   0  0  0  0  0  0  0  0  0  0  0  0
   -2.8212    4.5027   -1.0382 N   0  0  0  0  0  0  0  0  0  0  0  0
   -2.6436    4.5172   -2.3664 C   0  0  0  0  0  0  0  0  0  0  0  0
   -1.8852    3.6531   -3.0519 N   0  0  0  0  0  0  0  0  0  0  0  0
   -3.2592    5.5026   -3.0809 N   0  0  0  0  0  0  0  0  0  0  0  0
    0.5898   -0.5260    0.6184 H   0  0  0  0  0  0  0  0  0  0  0  0
    2.0113   -0.0125   -0.1547 H   0  0  0  0  0  0  0  0  0  0  0  0
    1.3454    0.5093   -2.7671 H   0  0  0  0  0  0  0  0  0  0  0  0
   -0.2049    1.9179   -4.0749 H   0  0  0  0  0  0  0  0  0  0  0  0
   -0.8481    1.4544    0.7916 H   0  0  0  0  0  0  0  0  0  0  0  0
   -2.9148    4.2962    1.0996 H   0  0  0  0  0  0  0  0  0  0  0  0
   -3.1153    5.5169   -4.0771 H   0  0  0  0  0  0  0  0  0  0  0  0
   -3.8195    6.1787   -2.5955 H   0  0  0  0  0  0  0  0  0  0  0  0
  1  2  1  0  0  0  0
  1 14  1  0  0  0  0
  1 15  1  0  0  0  0
  2  3  1  0  0  0  0
  2  7  2  0  0  0  0
  3  4  2  0  0  0  0
  3 16  1  0  0  0  0
  4  5  1  0  0  0  0
  4 17  1  0  0  0  0
  5  6  1  0  0  0  0
  5 12  2  0  0  0  0
  6  7  1  0  0  0  0
  6  8  2  0  0  0  0
  7 18  1  0  0  0  0
  8  9  1  0  0  0  0
  8 10  1  0  0  0  0
  9 19  1  0  0  0  0
 10 11  2  0  0  0  0
 11 12  1  0  0  0  0
 11 13  1  0  0  0  0
 13 20  1  0  0  0  0
 13 21  1  0  0  0  0
M  END
>  <DRUGBANK_ID>
DB03505

>  <SECONDARY_ACCESSION_NUMBERS>
EXPT01267

>  <COMMON_NAME>
2,6-diaminoquinazolin-4-ol

>  <CAS_NUMBER>
53745-23-6

$$$$
