BHG
 OpenBabel10282417133D

 42 42  0  0  0  0  0  0  0  0999 V2000
    0.0177    1.8389   -0.2309 C   0  0  1  0  0  0  0  0  0  0  0  0
    0.0500    2.8698    0.7941 O   0  0  0  0  0  0  0  0  0  0  0  0
    0.9816    0.6579    0.0475 C   0  0  2  0  0  0  0  0  0  0  0  0
    2.3520    1.0412   -0.2393 O   0  0  0  0  0  0  0  0  0  0  0  0
    0.6155   -0.6184   -0.7249 C   0  0  1  0  0  0  0  0  0  0  0  0
    1.3675   -1.7468   -0.2558 O   0  0  0  0  0  0  0  0  0  0  0  0
   -0.8847   -0.9551   -0.8924 C   0  0  1  0  0  0  0  0  0  0  0  0
   -1.4291   -1.8375    0.0912 O   0  0  0  0  0  0  0  0  0  0  0  0
   -1.7102    0.3059   -1.2453 C   0  0  2  0  0  0  0  0  0  0  0  0
   -1.3396    1.5407   -0.5874 O   0  0  0  0  0  0  0  0  0  0  0  0
   -3.2293    0.0353   -0.9946 C   0  0  0  0  0  0  0  0  0  0  0  0
   -4.0215    1.1954   -1.2097 O   0  0  0  0  0  0  0  0  0  0  0  0
   -0.1037    2.5602    2.1840 C   0  0  0  0  0  0  0  0  0  0  0  0
   -1.4918    2.0690    2.5863 C   0  0  0  0  0  0  0  0  0  0  0  0
   -1.7710    0.6686    2.1104 C   0  0  0  0  0  0  0  0  0  0  0  0
   -0.7525   -0.3692    2.5605 C   0  0  0  0  0  0  0  0  0  0  0  0
   -1.1611   -1.0506    3.8193 C   0  0  0  0  0  0  0  0  0  0  0  0
   -2.5756   -1.5822    3.7228 C   0  0  0  0  0  0  0  0  0  0  0  0
    0.4249    2.3650   -1.1004 H   0  0  0  0  0  0  0  0  0  0  0  0
    1.0778    0.4433    1.0995 H   0  0  0  0  0  0  0  0  0  0  0  0
    0.9802   -0.4501   -1.7404 H   0  0  0  0  0  0  0  0  0  0  0  0
   -0.9406   -1.6162   -1.7626 H   0  0  0  0  0  0  0  0  0  0  0  0
   -1.5727    0.5043   -2.3106 H   0  0  0  0  0  0  0  0  0  0  0  0
    2.4286    1.2695   -1.1799 H   0  0  0  0  0  0  0  0  0  0  0  0
    1.1667   -1.8971    0.6859 H   0  0  0  0  0  0  0  0  0  0  0  0
   -2.0889   -1.3957    0.6800 H   0  0  0  0  0  0  0  0  0  0  0  0
   -3.5864   -0.7707   -1.6433 H   0  0  0  0  0  0  0  0  0  0  0  0
   -3.4595   -0.2762    0.0303 H   0  0  0  0  0  0  0  0  0  0  0  0
   -3.7231    1.8464   -0.5451 H   0  0  0  0  0  0  0  0  0  0  0  0
    0.7003    1.9102    2.5356 H   0  0  0  0  0  0  0  0  0  0  0  0
    0.0656    3.4888    2.7426 H   0  0  0  0  0  0  0  0  0  0  0  0
   -1.6145    2.0683    3.6751 H   0  0  0  0  0  0  0  0  0  0  0  0
   -2.2492    2.7440    2.1697 H   0  0  0  0  0  0  0  0  0  0  0  0
   -2.8217    0.4304    2.2659 H   0  0  0  0  0  0  0  0  0  0  0  0
   -1.7603    0.6630    1.0590 H   0  0  0  0  0  0  0  0  0  0  0  0
   -0.5611   -1.1414    1.8265 H   0  0  0  0  0  0  0  0  0  0  0  0
    0.2406    0.0353    2.7246 H   0  0  0  0  0  0  0  0  0  0  0  0
   -0.4553   -1.8708    3.9842 H   0  0  0  0  0  0  0  0  0  0  0  0
   -1.0461   -0.3211    4.6223 H   0  0  0  0  0  0  0  0  0  0  0  0
   -2.6706   -2.2884    2.8900 H   0  0  0  0  0  0  0  0  0  0  0  0
   -2.8454   -2.0607    4.6583 H   0  0  0  0  0  0  0  0  0  0  0  0
   -3.3170   -0.7949    3.5667 H   0  0  0  0  0  0  0  0  0  0  0  0
  1  2  1  0  0  0  0
  1  3  1  0  0  0  0
  1 10  1  0  0  0  0
  1 19  1  6  0  0  0
  2 13  1  0  0  0  0
  3  4  1  0  0  0  0
  3  5  1  0  0  0  0
  3 20  1  1  0  0  0
  4 24  1  0  0  0  0
  5  6  1  0  0  0  0
  5  7  1  0  0  0  0
  5 21  1  6  0  0  0
  6 25  1  0  0  0  0
  7  8  1  0  0  0  0
  7  9  1  0  0  0  0
  7 22  1  6  0  0  0
  8 26  1  0  0  0  0
  9 10  1  0  0  0  0
  9 11  1  0  0  0  0
  9 23  1  6  0  0  0
 11 12  1  0  0  0  0
 11 27  1  0  0  0  0
 11 28  1  0  0  0  0
 12 29  1  0  0  0  0
 13 14  1  0  0  0  0
 13 30  1  0  0  0  0
 13 31  1  0  0  0  0
 14 15  1  0  0  0  0
 14 32  1  0  0  0  0
 14 33  1  0  0  0  0
 15 16  1  0  0  0  0
 15 34  1  0  0  0  0
 15 35  1  0  0  0  0
 16 17  1  0  0  0  0
 16 36  1  0  0  0  0
 16 37  1  0  0  0  0
 17 18  1  0  0  0  0
 17 38  1  0  0  0  0
 17 39  1  0  0  0  0
 18 40  1  0  0  0  0
 18 41  1  0  0  0  0
 18 42  1  0  0  0  0
M  END
>  <DRUGBANK_ID>
DB04141

>  <SECONDARY_ACCESSION_NUMBERS>
EXPT00697

>  <COMMON_NAME>
2-Hexyloxy-6-Hydroxymethyl-Tetrahydro-Pyran-3,4,5-Triol

$$$$
