
 OpenBabel10282417223D

 37 38  0  0  0  0  0  0  0  0999 V2000
    0.2171    0.8372   -0.1153 C   0  0  0  0  0  0  0  0  0  0  0  0
   -0.3486   -0.4413   -0.0266 C   0  0  0  0  0  0  0  0  0  0  0  0
   -0.5393    1.9896   -0.3132 N   0  0  0  0  0  0  0  0  0  0  0  0
    1.6112    0.9333   -0.0927 C   0  0  0  0  0  0  0  0  0  0  0  0
    0.4438   -1.5949    0.0394 C   0  0  0  0  0  0  0  0  0  0  0  0
   -2.1158   -0.5995   -0.0725 S   0  0  0  0  0  0  0  0  0  0  0  0
   -1.8949    2.0078    0.1820 C   0  0  3  0  0  0  0  0  0  0  0  0
    2.4298   -0.2055   -0.0134 C   0  0  0  0  0  0  0  0  0  0  0  0
    1.8473   -1.4762    0.0262 C   0  0  0  0  0  0  0  0  0  0  0  0
   -2.5921    0.9489   -0.5109 N   0  0  0  0  0  0  0  0  0  0  0  0
   -2.5812   -0.8757    1.2630 O   0  0  0  0  0  0  0  0  0  0  0  0
   -2.4635   -1.4610   -1.1851 O   0  0  0  0  0  0  0  0  0  0  0  0
   -1.9826    1.8914    1.7102 C   0  0  0  0  0  0  0  0  0  0  0  0
    4.1223    0.1254    0.0171 Cl  0  0  0  0  0  0  0  0  0  0  0  0
    2.7992   -2.9686   -0.0991 S   0  0  0  0  0  0  0  0  0  0  0  0
   -1.2701    2.9954    2.4852 C   0  0  0  0  0  0  0  0  0  0  0  0
    2.4040   -3.8142    1.3064 N   0  0  0  0  0  0  0  0  0  0  0  0
    2.2736   -3.7314   -1.2076 O   0  0  0  0  0  0  0  0  0  0  0  0
    4.2111   -2.7192    0.0422 O   0  0  0  0  0  0  0  0  0  0  0  0
   -1.8811    4.3501    2.1709 C   0  0  0  0  0  0  0  0  0  0  0  0
   -1.3654    2.6826    3.9792 C   0  0  0  0  0  0  0  0  0  0  0  0
   -0.0503    2.8801   -0.2711 H   0  0  0  0  0  0  0  0  0  0  0  0
    2.0814    1.9153   -0.1430 H   0  0  0  0  0  0  0  0  0  0  0  0
   -0.0377   -2.5725    0.0597 H   0  0  0  0  0  0  0  0  0  0  0  0
   -2.3588    2.9476   -0.1391 H   0  0  0  0  0  0  0  0  0  0  0  0
   -2.5289    1.0547   -1.5222 H   0  0  0  0  0  0  0  0  0  0  0  0
   -3.0397    1.8354    2.0048 H   0  0  0  0  0  0  0  0  0  0  0  0
   -1.5160    0.9687    2.0644 H   0  0  0  0  0  0  0  0  0  0  0  0
   -0.2080    3.0003    2.2107 H   0  0  0  0  0  0  0  0  0  0  0  0
    2.8830   -4.7200    1.2504 H   0  0  0  0  0  0  0  0  0  0  0  0
    2.7320   -3.3205    2.1374 H   0  0  0  0  0  0  0  0  0  0  0  0
   -2.9464    4.3575    2.4236 H   0  0  0  0  0  0  0  0  0  0  0  0
   -1.3768    5.1394    2.7317 H   0  0  0  0  0  0  0  0  0  0  0  0
   -1.7842    4.5917    1.1085 H   0  0  0  0  0  0  0  0  0  0  0  0
   -0.9141    1.7086    4.2049 H   0  0  0  0  0  0  0  0  0  0  0  0
   -0.8401    3.4400    4.5663 H   0  0  0  0  0  0  0  0  0  0  0  0
   -2.4099    2.6477    4.3074 H   0  0  0  0  0  0  0  0  0  0  0  0
  1  2  2  0  0  0  0
  1  3  1  0  0  0  0
  1  4  1  0  0  0  0
  2  5  1  0  0  0  0
  2  6  1  0  0  0  0
  3  7  1  0  0  0  0
  3 22  1  0  0  0  0
  4  8  2  0  0  0  0
  4 23  1  0  0  0  0
  5  9  2  0  0  0  0
  5 24  1  0  0  0  0
  6 10  1  0  0  0  0
  6 11  2  0  0  0  0
  6 12  2  0  0  0  0
  7 13  1  0  0  0  0
  7 10  1  0  0  0  0
  7 25  1  0  0  0  0
  8 14  1  0  0  0  0
  8  9  1  0  0  0  0
  9 15  1  0  0  0  0
 10 26  1  0  0  0  0
 13 16  1  0  0  0  0
 13 27  1  0  0  0  0
 13 28  1  0  0  0  0
 15 17  1  0  0  0  0
 15 18  2  0  0  0  0
 15 19  2  0  0  0  0
 16 20  1  0  0  0  0
 16 21  1  0  0  0  0
 16 29  1  0  0  0  0
 17 30  1  0  0  0  0
 17 31  1  0  0  0  0
 20 32  1  0  0  0  0
 20 33  1  0  0  0  0
 20 34  1  0  0  0  0
 21 35  1  0  0  0  0
 21 36  1  0  0  0  0
 21 37  1  0  0  0  0
M  END
>  <DRUGBANK_ID>
DB15861

>  <COMMON_NAME>
Buthiazide

>  <CAS_NUMBER>
2043-38-1

>  <UNII>
W00SSD35VW

>  <SYNONYMS>
Buthiazide; Butizida; Butizide; Butizidum; Isobutylhydrochlorothiazide

$$$$
