
 OpenBabel10282417133D

 72 71  0  0  1  0  0  0  0  0999 V2000
   -9.4551    8.5334   12.9686 N   0  0  0  0  0  0  0  0  0  0  0  0
   -8.7765    7.1873   12.5523 C   0  0  1  0  0  0  0  0  0  0  0  0
   -9.5194    6.0650   13.1900 C   0  0  0  0  0  0  0  0  0  0  0  0
  -10.9962    5.9210   12.7549 C   0  0  0  0  0  0  0  0  0  0  0  0
  -11.3884    5.7996   11.2617 C   0  0  0  0  0  0  0  0  0  0  0  0
  -11.6239    4.6797   10.7865 O   0  0  0  0  0  0  0  0  0  0  0  0
  -11.4035    6.9102   10.3856 N   0  0  0  0  0  0  0  0  0  0  0  0
  -10.6799    8.2638   10.5039 C   0  0  1  0  0  0  0  0  0  0  0  0
   -9.0707    8.8025   10.0370 C   0  0  0  0  0  0  0  0  0  0  0  0
  -11.5252    9.5072   10.3620 C   0  0  0  0  0  0  0  0  0  0  0  0
  -12.0948   10.0744   11.2848 O   0  0  0  0  0  0  0  0  0  0  0  0
  -11.5742    9.9588    9.0870 N   0  0  0  0  0  0  0  0  0  0  0  0
  -11.1438    9.1195    8.0444 C   0  0  0  0  0  0  0  0  0  0  0  0
  -12.3862    8.5775    7.4837 C   0  0  0  0  0  0  0  0  0  0  0  0
  -12.9571    9.0402    6.5131 O   0  0  0  0  0  0  0  0  0  0  0  0
  -12.6511    7.3357    7.9875 O   0  0  0  0  0  0  0  0  0  0  0  0
   -8.3306    6.5453   11.1119 C   0  0  0  0  0  0  0  0  0  0  0  0
   -7.1962    6.4732   10.6656 O   0  0  0  0  0  0  0  0  0  0  0  0
   -9.2967    6.0817   10.3238 O   0  0  0  0  0  0  0  0  0  0  0  0
  -15.6733    4.8747    1.7456 N   0  0  0  0  0  0  0  0  0  0  0  0
  -14.8614    6.0956    1.9127 C   0  0  1  0  0  0  0  0  0  0  0  0
  -14.9979    6.5865    3.4445 C   0  0  0  0  0  0  0  0  0  0  0  0
  -14.1132    6.1480    4.6806 C   0  0  0  0  0  0  0  0  0  0  0  0
  -12.8363    7.0513    4.6565 C   0  0  0  0  0  0  0  0  0  0  0  0
  -12.7513    7.9890    3.8732 O   0  0  0  0  0  0  0  0  0  0  0  0
  -11.7668    6.7621    5.4726 N   0  0  0  0  0  0  0  0  0  0  0  0
  -10.4306    7.5141    5.3529 C   0  0  1  0  0  0  0  0  0  0  0  0
   -9.2469    6.6694    5.8709 C   0  0  0  0  0  0  0  0  0  0  0  0
   -8.7728    6.5949    7.6206 S   0  0  0  0  0  0  0  0  0  0  0  0
  -10.0893    8.0629    3.9561 C   0  0  0  0  0  0  0  0  0  0  0  0
   -9.9925    9.2694    3.7345 O   0  0  0  0  0  0  0  0  0  0  0  0
   -9.8207    7.1643    2.9731 N   0  0  0  0  0  0  0  0  0  0  0  0
   -9.9220    5.7440    3.1613 C   0  0  0  0  0  0  0  0  0  0  0  0
  -11.0055    5.2454    2.3192 C   0  0  0  0  0  0  0  0  0  0  0  0
  -11.0234    4.3034    1.6232 O   0  0  0  0  0  0  0  0  0  0  0  0
  -12.0566    5.7626    3.0012 O   0  0  0  0  0  0  0  0  0  0  0  0
  -13.5719    5.5338    1.2667 C   0  0  0  0  0  0  0  0  0  0  0  0
  -12.7354    6.1144    0.5968 O   0  0  0  0  0  0  0  0  0  0  0  0
  -13.4339    4.2787    2.0112 O   0  0  0  0  0  0  0  0  0  0  0  0
   -8.1853    8.4689    8.2969 S   0  0  0  0  0  0  0  0  0  0  0  0
  -10.4954    8.5388   13.0111 H   0  0  0  0  0  0  0  0  0  0  0  0
   -9.3632    8.6533   13.9856 H   0  0  0  0  0  0  0  0  0  0  0  0
   -7.7838    7.4187   12.9342 H   0  0  0  0  0  0  0  0  0  0  0  0
   -8.9558    5.1574   12.9491 H   0  0  0  0  0  0  0  0  0  0  0  0
   -9.4555    6.2096   14.2717 H   0  0  0  0  0  0  0  0  0  0  0  0
  -11.3338    4.9962   13.2472 H   0  0  0  0  0  0  0  0  0  0  0  0
  -11.6140    6.7189   13.1707 H   0  0  0  0  0  0  0  0  0  0  0  0
  -11.6295    6.5698    9.4575 H   0  0  0  0  0  0  0  0  0  0  0  0
  -10.6867    8.1591   11.5273 H   0  0  0  0  0  0  0  0  0  0  0  0
   -8.9672    9.8782   10.2800 H   0  0  0  0  0  0  0  0  0  0  0  0
   -8.2474    8.5312   10.6979 H   0  0  0  0  0  0  0  0  0  0  0  0
  -12.2427   10.6773    8.8551 H   0  0  0  0  0  0  0  0  0  0  0  0
  -10.4818    9.6686    7.3787 H   0  0  0  0  0  0  0  0  0  0  0  0
  -10.6359    8.2136    8.3559 H   0  0  0  0  0  0  0  0  0  0  0  0
  -13.3643    6.8285    7.5406 H   0  0  0  0  0  0  0  0  0  0  0  0
   -9.2617    6.3928    9.3866 H   0  0  0  0  0  0  0  0  0  0  0  0
  -16.4938    4.8436    2.3163 H   0  0  0  0  0  0  0  0  0  0  0  0
  -15.0443    4.1198    2.0901 H   0  0  0  0  0  0  0  0  0  0  0  0
  -15.1537    6.9178    1.2483 H   0  0  0  0  0  0  0  0  0  0  0  0
  -16.0317    6.3615    3.7317 H   0  0  0  0  0  0  0  0  0  0  0  0
  -14.9755    7.6855    3.4467 H   0  0  0  0  0  0  0  0  0  0  0  0
  -13.9560    5.0563    4.6914 H   0  0  0  0  0  0  0  0  0  0  0  0
  -14.6335    6.3578    5.6299 H   0  0  0  0  0  0  0  0  0  0  0  0
  -12.1698    7.0635    6.3206 H   0  0  0  0  0  0  0  0  0  0  0  0
  -10.4632    8.4247    5.9264 H   0  0  0  0  0  0  0  0  0  0  0  0
   -8.3303    6.8736    5.3148 H   0  0  0  0  0  0  0  0  0  0  0  0
   -9.4937    5.6158    5.7081 H   0  0  0  0  0  0  0  0  0  0  0  0
  -10.0532    7.5564    2.0599 H   0  0  0  0  0  0  0  0  0  0  0  0
   -9.0600    5.1493    2.9531 H   0  0  0  0  0  0  0  0  0  0  0  0
  -10.3434    5.4539    4.1281 H   0  0  0  0  0  0  0  0  0  0  0  0
  -12.9121    5.3161    3.0395 H   0  0  0  0  0  0  0  0  0  0  0  0
  -12.5446    3.8950    2.2532 H   0  0  0  0  0  0  0  0  0  0  0  0
  1 41  1  0  0  0  0
  1 42  1  0  0  0  0
  2  1  1  0  0  0  0
  2  3  1  0  0  0  0
  2 17  1  0  0  0  0
  2 43  1  1  0  0  0
  3  4  1  0  0  0  0
  3 44  1  0  0  0  0
  3 45  1  0  0  0  0
  4  5  1  0  0  0  0
  4 46  1  0  0  0  0
  4 47  1  0  0  0  0
  5  6  2  0  0  0  0
  5  7  1  0  0  0  0
  7  8  1  0  0  0  0
  7 48  1  0  0  0  0
  8  9  1  0  0  0  0
  8 10  1  0  0  0  0
  8 49  1  1  0  0  0
  9 40  1  0  0  0  0
  9 50  1  0  0  0  0
  9 51  1  0  0  0  0
 10 11  2  0  0  0  0
 10 12  1  0  0  0  0
 12 13  1  0  0  0  0
 12 52  1  0  0  0  0
 13 14  1  0  0  0  0
 13 53  1  0  0  0  0
 13 54  1  0  0  0  0
 14 15  2  0  0  0  0
 14 16  1  0  0  0  0
 16 55  1  0  0  0  0
 17 18  2  0  0  0  0
 17 19  1  0  0  0  0
 19 56  1  0  0  0  0
 20 57  1  0  0  0  0
 20 58  1  0  0  0  0
 21 37  1  0  0  0  0
 21 59  1  6  0  0  0
 21 22  1  0  0  0  0
 21 20  1  0  0  0  0
 22 23  1  0  0  0  0
 22 60  1  0  0  0  0
 22 61  1  0  0  0  0
 23 24  1  0  0  0  0
 23 62  1  0  0  0  0
 23 63  1  0  0  0  0
 24 25  2  0  0  0  0
 24 26  1  0  0  0  0
 26 64  1  0  0  0  0
 27 30  1  0  0  0  0
 27 65  1  1  0  0  0
 27 28  1  0  0  0  0
 27 26  1  0  0  0  0
 28 29  1  0  0  0  0
 28 66  1  0  0  0  0
 28 67  1  0  0  0  0
 30 31  2  0  0  0  0
 30 32  1  0  0  0  0
 32 33  1  0  0  0  0
 32 68  1  0  0  0  0
 33 34  1  0  0  0  0
 33 69  1  0  0  0  0
 33 70  1  0  0  0  0
 34 35  2  0  0  0  0
 34 36  1  0  0  0  0
 36 71  1  0  0  0  0
 37 38  2  0  0  0  0
 37 39  1  0  0  0  0
 39 72  1  0  0  0  0
 40 29  1  0  0  0  0
M  END
>  <DRUGBANK_ID>
DB03310

>  <SECONDARY_ACCESSION_NUMBERS>
EXPT01575; DB09544

>  <COMMON_NAME>
Glutathione disulfide

>  <CAS_NUMBER>
27025-41-8

>  <UNII>
ULW86O013H

>  <SYNONYMS>
Glutathione disulphide; GSSG; Oxidized glutathione; Oxiglutatione

$$$$
