
 OpenBabel10282417153D

 43 43  0  0  1  0  0  0  0  0999 V2000
    1.2158    2.2739   -2.0137 C   0  0  0  0  0  0  0  0  0  0  0  0
    0.7262    2.3861   -0.5691 C   0  0  0  0  0  0  0  0  0  0  0  0
    0.6937    4.0729   -0.0072 Cl  0  0  0  0  0  0  0  0  0  0  0  0
    0.3818    2.9288   -3.0323 N   0  0  0  0  0  0  0  0  0  0  0  0
   -1.2704    2.2712   -3.1097 P   0  0  0  0  0  0  0  0  0  0  0  0
   -1.7283    3.7261   -3.2141 O   0  0  0  0  0  0  0  0  0  0  0  0
   -0.9977    1.8758   -4.7346 N   0  0  0  0  0  0  0  0  0  0  0  0
   -1.9156    2.5433   -5.7058 C   0  0  0  0  0  0  0  0  0  0  0  0
   -1.8232    4.0809   -5.8596 C   0  0  0  0  0  0  0  0  0  0  0  0
   -0.1642    4.5956   -6.2487 Cl  0  0  0  0  0  0  0  0  0  0  0  0
   -2.8763    1.6321   -3.1848 O   0  0  0  0  0  0  0  0  0  0  0  0
   -3.5277    1.8152   -1.8846 C   0  0  1  0  0  0  0  0  0  0  0  0
   -3.3433    3.2453   -1.2926 C   0  0  1  0  0  0  0  0  0  0  0  0
   -4.1078    3.5361   -0.0258 C   0  0  2  0  0  0  0  0  0  0  0  0
   -5.5398    3.0999   -0.1454 C   0  0  1  0  0  0  0  0  0  0  0  0
   -5.5841    1.6601   -0.6721 C   0  0  2  0  0  0  0  0  0  0  0  0
   -4.9302    1.5173   -1.9549 O   0  0  0  0  0  0  0  0  0  0  0  0
   -7.0527    1.2638   -0.8034 C   0  0  0  0  0  0  0  0  0  0  0  0
   -7.1533   -0.0783   -1.2598 O   0  0  0  0  0  0  0  0  0  0  0  0
   -6.1632    3.1898    1.1372 O   0  0  0  0  0  0  0  0  0  0  0  0
   -4.0126    4.9277    0.3080 O   0  0  0  0  0  0  0  0  0  0  0  0
   -1.9857    3.4440   -0.9109 O   0  0  0  0  0  0  0  0  0  0  0  0
    1.2829    1.2092   -2.2657 H   0  0  0  0  0  0  0  0  0  0  0  0
    2.2319    2.6758   -2.0770 H   0  0  0  0  0  0  0  0  0  0  0  0
   -0.2614    1.9259   -0.4679 H   0  0  0  0  0  0  0  0  0  0  0  0
    1.3789    1.8452    0.1179 H   0  0  0  0  0  0  0  0  0  0  0  0
    0.2135    3.9043   -2.7750 H   0  0  0  0  0  0  0  0  0  0  0  0
   -0.0625    2.2203   -4.9423 H   0  0  0  0  0  0  0  0  0  0  0  0
   -1.7245    2.1007   -6.6888 H   0  0  0  0  0  0  0  0  0  0  0  0
   -2.9550    2.2822   -5.4707 H   0  0  0  0  0  0  0  0  0  0  0  0
   -2.4821    4.4183   -6.6637 H   0  0  0  0  0  0  0  0  0  0  0  0
   -2.1591    4.6613   -4.9996 H   0  0  0  0  0  0  0  0  0  0  0  0
   -3.0468    1.0864   -1.2201 H   0  0  0  0  0  0  0  0  0  0  0  0
   -3.6404    3.9825   -2.0555 H   0  0  0  0  0  0  0  0  0  0  0  0
   -3.6286    3.0179    0.8140 H   0  0  0  0  0  0  0  0  0  0  0  0
   -6.0631    3.7832   -0.8247 H   0  0  0  0  0  0  0  0  0  0  0  0
   -5.0971    0.9695    0.0310 H   0  0  0  0  0  0  0  0  0  0  0  0
   -7.5620    1.3378    0.1630 H   0  0  0  0  0  0  0  0  0  0  0  0
   -7.5656    1.9129   -1.5206 H   0  0  0  0  0  0  0  0  0  0  0  0
   -6.6825   -0.0976   -2.1140 H   0  0  0  0  0  0  0  0  0  0  0  0
   -5.5411    2.8638    1.8127 H   0  0  0  0  0  0  0  0  0  0  0  0
   -4.0802    5.4524   -0.5129 H   0  0  0  0  0  0  0  0  0  0  0  0
   -1.8262    3.1390    0.0013 H   0  0  0  0  0  0  0  0  0  0  0  0
  1  2  1  0  0  0  0
  1  4  1  0  0  0  0
  1 23  1  0  0  0  0
  1 24  1  0  0  0  0
  2  3  1  0  0  0  0
  2 25  1  0  0  0  0
  2 26  1  0  0  0  0
  4  5  1  0  0  0  0
  4 27  1  0  0  0  0
  5  6  2  0  0  0  0
  5  7  1  0  0  0  0
  5 11  1  0  0  0  0
  7  8  1  0  0  0  0
  7 28  1  0  0  0  0
  8  9  1  0  0  0  0
  8 29  1  0  0  0  0
  8 30  1  0  0  0  0
  9 10  1  0  0  0  0
  9 31  1  0  0  0  0
  9 32  1  0  0  0  0
 12 13  1  0  0  0  0
 12 17  1  0  0  0  0
 12 33  1  1  0  0  0
 12 11  1  0  0  0  0
 13 14  1  0  0  0  0
 13 22  1  0  0  0  0
 13 34  1  6  0  0  0
 14 15  1  0  0  0  0
 14 21  1  0  0  0  0
 14 35  1  1  0  0  0
 15 16  1  0  0  0  0
 15 20  1  0  0  0  0
 15 36  1  6  0  0  0
 16 17  1  0  0  0  0
 16 18  1  0  0  0  0
 16 37  1  1  0  0  0
 18 19  1  0  0  0  0
 18 38  1  0  0  0  0
 18 39  1  0  0  0  0
 19 40  1  0  0  0  0
 20 41  1  0  0  0  0
 21 42  1  0  0  0  0
 22 43  1  0  0  0  0
M  END
>  <DRUGBANK_ID>
DB06177

>  <COMMON_NAME>
Glufosfamide

>  <CAS_NUMBER>
132682-98-5

>  <UNII>
1W5N8SZD9A

>  <SYNONYMS>
Glufosfamide

$$$$
