
 OpenBabel10282417243D

110117  0  0  1  0  0  0  0  0999 V2000
   10.0512   -8.6750   -5.5065 C   0  0  0  0  0  0  0  0  0  0  0  0
   10.1521   -8.2769   -3.6758 O   0  0  0  0  0  0  0  0  0  0  0  0
    8.8933   -8.1635   -2.3610 C   0  0  2  0  0  0  0  0  0  0  0  0
    8.7833   -7.0521   -3.9673 C   0  0  0  0  0  0  0  0  0  0  0  0
   10.3123   -6.2957   -4.6006 N   0  0  0  0  0  0  0  0  0  0  0  0
   11.7924   -7.1210   -4.3218 C   0  0  0  0  0  0  0  0  0  0  0  0
   12.7921   -7.4873   -5.4639 C   0  0  0  0  0  0  0  0  0  0  0  0
   12.5749   -7.1125   -6.8358 N   0  0  1  0  0  0  0  0  0  0  0  0
   13.4471   -7.8187   -7.7607 C   0  0  0  0  0  0  0  0  0  0  0  0
   13.7382   -6.8738   -8.9033 C   0  0  0  0  0  0  0  0  0  0  0  0
   12.4439   -6.3210   -9.4937 C   0  0  0  0  0  0  0  0  0  0  0  0
   11.6415   -5.5722   -8.4135 C   0  0  0  0  0  0  0  0  0  0  0  0
   11.2983   -6.5364   -7.2769 C   0  0  2  0  0  0  0  0  0  0  0  0
   10.4431   -5.7932   -6.0562 C   0  0  0  0  0  0  0  0  0  0  0  0
    8.2212   -7.3419   -0.7775 C   0  0  0  0  0  0  0  0  0  0  0  0
    7.7887   -6.8080    0.9653 C   0  0  0  0  0  0  0  0  0  0  0  0
    7.0968   -6.0986    2.0980 C   0  0  0  0  0  0  0  0  0  0  0  0
    8.0463   -4.9038    0.9919 C   0  0  2  0  0  0  0  0  0  0  0  0
    9.8125   -5.4830    1.2667 C   0  0  0  0  0  0  0  0  0  0  0  0
    7.2351   -3.6925    0.8568 C   0  0  1  0  0  0  0  0  0  0  0  0
    8.4770   -2.8744    0.6141 C   0  0  0  0  0  0  0  0  0  0  0  0
    5.4788   -4.2382    0.4434 S   0  0  0  0  0  0  0  0  0  0  0  0
    4.8654   -4.6274    1.7106 O   0  0  0  0  0  0  0  0  0  0  0  0
    4.7291   -3.2132   -0.2378 O   0  0  0  0  0  0  0  0  0  0  0  0
    5.4482   -5.6512   -0.5098 N   0  0  0  0  0  0  0  0  0  0  0  0
    5.1697   -5.5853   -1.8979 C   0  0  0  0  0  0  0  0  0  0  0  0
    5.2399   -4.5235   -2.4948 O   0  0  0  0  0  0  0  0  0  0  0  0
    4.9492   -6.8219   -2.7312 C   0  0  0  0  0  0  0  0  0  0  0  0
    4.3017   -6.7400   -3.9917 C   0  0  0  0  0  0  0  0  0  0  0  0
    4.3600   -7.8316   -4.9299 C   0  0  0  0  0  0  0  0  0  0  0  0
    5.0485   -9.0321   -4.6008 C   0  0  0  0  0  0  0  0  0  0  0  0
    5.0107  -10.3040   -5.4190 O   0  0  0  0  0  0  0  0  0  0  0  0
    3.8187  -11.6474   -4.8676 C   0  0  0  0  0  0  0  0  0  0  0  0
    4.4770  -12.0561   -3.6156 C   0  0  1  0  0  0  0  0  0  0  0  0
    3.4722  -10.9969   -4.2422 C   0  0  0  0  0  0  0  0  0  0  0  0
    1.8161  -11.3718   -3.6443 C   0  0  0  0  0  0  0  0  0  0  0  0
    2.0625  -11.9090   -2.2777 C   0  0  0  0  0  0  0  0  0  0  0  0
    2.7187  -13.2435   -2.4448 C   0  0  0  0  0  0  0  0  0  0  0  0
    1.9965  -14.3733   -2.0513 C   0  0  0  0  0  0  0  0  0  0  0  0
    2.4103  -15.6428   -2.4064 C   0  0  0  0  0  0  0  0  0  0  0  0
    1.3776  -16.9850   -2.1127 Cl  0  0  0  0  0  0  0  0  0  0  0  0
    3.6574  -15.8062   -2.9904 C   0  0  0  0  0  0  0  0  0  0  0  0
    4.4687  -14.6774   -3.2477 C   0  0  0  0  0  0  0  0  0  0  0  0
    3.9243  -13.3776   -3.1152 C   0  0  0  0  0  0  0  0  0  0  0  0
    5.0571  -11.3181   -2.4213 C   0  0  0  0  0  0  0  0  0  0  0  0
    6.0199  -10.3826   -2.8313 N   0  0  0  0  0  0  0  0  0  0  0  0
    7.3830  -10.5500   -2.5999 C   0  0  0  0  0  0  0  0  0  0  0  0
    7.9576  -10.0899   -3.9011 C   0  0  2  0  0  0  0  0  0  0  0  0
    8.1378  -10.9238   -5.2301 C   0  0  0  0  0  0  0  0  0  0  0  0
    9.2949  -11.4747   -4.4193 C   0  0  0  0  0  0  0  0  0  0  0  0
    9.2067  -10.0368   -3.1046 C   0  0  1  0  0  0  0  0  0  0  0  0
    5.5579   -9.1405   -3.2742 C   0  0  0  0  0  0  0  0  0  0  0  0
    5.5290   -8.0378   -2.3818 C   0  0  0  0  0  0  0  0  0  0  0  0
   10.7482   -7.9221   -5.7177 H   0  0  0  0  0  0  0  0  0  0  0  0
    9.3799   -8.0182   -6.1818 H   0  0  0  0  0  0  0  0  0  0  0  0
   10.8662   -9.1049   -6.2299 H   0  0  0  0  0  0  0  0  0  0  0  0
    8.6451   -7.8491   -4.6946 H   0  0  0  0  0  0  0  0  0  0  0  0
    7.8144   -6.9425   -4.5251 H   0  0  0  0  0  0  0  0  0  0  0  0
   12.2265   -6.5741   -3.5112 H   0  0  0  0  0  0  0  0  0  0  0  0
   11.8274   -8.2010   -3.9566 H   0  0  0  0  0  0  0  0  0  0  0  0
   13.6806   -6.9770   -5.1308 H   0  0  0  0  0  0  0  0  0  0  0  0
   12.9696   -8.6006   -5.4486 H   0  0  0  0  0  0  0  0  0  0  0  0
   13.0495   -8.7787   -8.1256 H   0  0  0  0  0  0  0  0  0  0  0  0
   14.3971   -8.0615   -7.2562 H   0  0  0  0  0  0  0  0  0  0  0  0
   14.3286   -7.3898   -9.6645 H   0  0  0  0  0  0  0  0  0  0  0  0
   14.3354   -6.0439   -8.5058 H   0  0  0  0  0  0  0  0  0  0  0  0
   12.6733   -5.6426  -10.3163 H   0  0  0  0  0  0  0  0  0  0  0  0
   11.8525   -7.1572   -9.8964 H   0  0  0  0  0  0  0  0  0  0  0  0
   12.2291   -4.7499   -7.9927 H   0  0  0  0  0  0  0  0  0  0  0  0
   10.7216   -5.1684   -8.8509 H   0  0  0  0  0  0  0  0  0  0  0  0
   10.6536   -7.2622   -7.8120 H   0  0  0  0  0  0  0  0  0  0  0  0
   11.0679   -4.9154   -5.8737 H   0  0  0  0  0  0  0  0  0  0  0  0
    9.4758   -5.4808   -6.4610 H   0  0  0  0  0  0  0  0  0  0  0  0
    8.7724   -7.7646    0.4167 H   0  0  0  0  0  0  0  0  0  0  0  0
    8.1203   -6.0222    2.0817 H   0  0  0  0  0  0  0  0  0  0  0  0
    7.5400   -6.6207    3.2319 H   0  0  0  0  0  0  0  0  0  0  0  0
    6.1541   -5.7334    2.6069 H   0  0  0  0  0  0  0  0  0  0  0  0
    8.0983   -5.0427   -0.1265 H   0  0  0  0  0  0  0  0  0  0  0  0
   10.1016   -5.6273    2.3314 H   0  0  0  0  0  0  0  0  0  0  0  0
   10.0468   -6.5386    0.9496 H   0  0  0  0  0  0  0  0  0  0  0  0
   10.4566   -5.0079    0.5367 H   0  0  0  0  0  0  0  0  0  0  0  0
    6.7632   -2.8091    1.2909 H   0  0  0  0  0  0  0  0  0  0  0  0
    8.6545   -2.2126    1.4733 H   0  0  0  0  0  0  0  0  0  0  0  0
    9.4064   -3.4235    0.8477 H   0  0  0  0  0  0  0  0  0  0  0  0
    8.6962   -2.5962   -0.3993 H   0  0  0  0  0  0  0  0  0  0  0  0
    5.8700   -6.4977   -0.1313 H   0  0  0  0  0  0  0  0  0  0  0  0
    3.7713   -5.8145   -4.2626 H   0  0  0  0  0  0  0  0  0  0  0  0
    3.7947   -7.7344   -5.8545 H   0  0  0  0  0  0  0  0  0  0  0  0
    3.4113  -12.5480   -5.4912 H   0  0  0  0  0  0  0  0  0  0  0  0
    2.4483  -10.7539   -5.2741 H   0  0  0  0  0  0  0  0  0  0  0  0
    3.5045  -10.7697   -5.9595 H   0  0  0  0  0  0  0  0  0  0  0  0
    3.4791   -9.9778   -3.8391 H   0  0  0  0  0  0  0  0  0  0  0  0
    1.2439  -11.9411   -4.4065 H   0  0  0  0  0  0  0  0  0  0  0  0
    1.3937  -10.3669   -3.5949 H   0  0  0  0  0  0  0  0  0  0  0  0
    1.4312  -12.0819   -1.4185 H   0  0  0  0  0  0  0  0  0  0  0  0
    2.4809  -10.9829   -1.8781 H   0  0  0  0  0  0  0  0  0  0  0  0
    1.0823  -14.2326   -1.4858 H   0  0  0  0  0  0  0  0  0  0  0  0
    3.9843  -16.8131   -3.2446 H   0  0  0  0  0  0  0  0  0  0  0  0
    5.4962  -14.8638   -3.5603 H   0  0  0  0  0  0  0  0  0  0  0  0
    5.4091  -12.0209   -1.6477 H   0  0  0  0  0  0  0  0  0  0  0  0
    4.3291  -10.7181   -1.8924 H   0  0  0  0  0  0  0  0  0  0  0  0
    7.8548  -11.5085   -2.2818 H   0  0  0  0  0  0  0  0  0  0  0  0
    7.5971   -9.8863   -1.7534 H   0  0  0  0  0  0  0  0  0  0  0  0
    7.5951   -9.1577   -4.2913 H   0  0  0  0  0  0  0  0  0  0  0  0
    7.7367  -11.8637   -5.7676 H   0  0  0  0  0  0  0  0  0  0  0  0
    7.0784  -10.7094   -5.4564 H   0  0  0  0  0  0  0  0  0  0  0  0
   10.1139  -11.8088   -5.1268 H   0  0  0  0  0  0  0  0  0  0  0  0
    9.0774  -12.5474   -4.2172 H   0  0  0  0  0  0  0  0  0  0  0  0
   10.3147  -10.0082   -3.2618 H   0  0  0  0  0  0  0  0  0  0  0  0
    5.9974   -8.1436   -1.4141 H   0  0  0  0  0  0  0  0  0  0  0  0
  1  2  1  0  0  0  0
  1 54  1  0  0  0  0
  1 55  1  0  0  0  0
  1 56  1  0  0  0  0
  3 15  1  0  0  0  0
  3  2  1  1  0  0  0
  3  4  1  0  0  0  0
  4  5  1  0  0  0  0
  4 57  1  0  0  0  0
  4 58  1  0  0  0  0
  5  6  1  0  0  0  0
  5 14  1  0  0  0  0
  6  7  1  0  0  0  0
  6 59  1  0  0  0  0
  6 60  1  0  0  0  0
  7 61  1  0  0  0  0
  7 62  1  0  0  0  0
  8  7  1  1  0  0  0
  8  9  1  0  0  0  0
  8 13  1  0  0  0  0
  9 10  1  0  0  0  0
  9 63  1  0  0  0  0
  9 64  1  0  0  0  0
 10 11  1  0  0  0  0
 10 65  1  0  0  0  0
 10 66  1  0  0  0  0
 11 12  1  0  0  0  0
 11 67  1  0  0  0  0
 11 68  1  0  0  0  0
 12 69  1  0  0  0  0
 12 70  1  0  0  0  0
 13 12  1  0  0  0  0
 13 14  1  0  0  0  0
 13 71  1  6  0  0  0
 14 72  1  0  0  0  0
 14 73  1  0  0  0  0
 15 16  2  0  0  0  0
 15 74  1  0  0  0  0
 16 17  1  0  0  0  0
 16 75  1  0  0  0  0
 17 76  1  0  0  0  0
 17 77  1  0  0  0  0
 18 17  1  0  0  0  0
 18 20  1  0  0  0  0
 18 19  1  0  0  0  0
 18 78  1  6  0  0  0
 19 79  1  0  0  0  0
 19 80  1  0  0  0  0
 19 81  1  0  0  0  0
 20 22  1  0  0  0  0
 20 21  1  0  0  0  0
 20 82  1  1  0  0  0
 21 83  1  0  0  0  0
 21 84  1  0  0  0  0
 21 85  1  0  0  0  0
 22 25  1  0  0  0  0
 22 23  2  0  0  0  0
 22 24  2  0  0  0  0
 25 26  1  0  0  0  0
 25 86  1  0  0  0  0
 26 28  1  0  0  0  0
 26 27  2  0  0  0  0
 28 29  2  0  0  0  0
 28 53  1  0  0  0  0
 29 30  1  0  0  0  0
 29 87  1  0  0  0  0
 30 31  2  0  0  0  0
 30 88  1  0  0  0  0
 31 32  1  0  0  0  0
 31 52  1  0  0  0  0
 32 33  1  0  0  0  0
 33 89  1  0  0  0  0
 33 90  1  0  0  0  0
 34 33  1  0  0  0  0
 34 35  1  0  0  0  0
 34 44  1  1  0  0  0
 34 45  1  0  0  0  0
 35 36  1  0  0  0  0
 35 91  1  0  0  0  0
 35 92  1  0  0  0  0
 36 37  1  0  0  0  0
 36 93  1  0  0  0  0
 36 94  1  0  0  0  0
 37 38  1  0  0  0  0
 37 95  1  0  0  0  0
 37 96  1  0  0  0  0
 38 39  2  0  0  0  0
 38 44  1  0  0  0  0
 39 40  1  0  0  0  0
 39 97  1  0  0  0  0
 40 42  2  0  0  0  0
 40 41  1  0  0  0  0
 42 43  1  0  0  0  0
 42 98  1  0  0  0  0
 43 44  2  0  0  0  0
 43 99  1  0  0  0  0
 45 46  1  0  0  0  0
 45100  1  0  0  0  0
 45101  1  0  0  0  0
 46 47  1  0  0  0  0
 46 52  1  0  0  0  0
 47102  1  0  0  0  0
 47103  1  0  0  0  0
 48 47  1  0  0  0  0
 48 49  1  0  0  0  0
 48104  1  6  0  0  0
 49 50  1  0  0  0  0
 49105  1  0  0  0  0
 49106  1  0  0  0  0
 50107  1  0  0  0  0
 50108  1  0  0  0  0
 51 50  1  0  0  0  0
 51  3  1  0  0  0  0
 51 48  1  0  0  0  0
 51109  1  1  0  0  0
 52 53  2  0  0  0  0
 53110  1  0  0  0  0
M  END
>  <DRUGBANK_ID>
DB17977

>  <COMMON_NAME>
Murizatoclax

>  <CAS_NUMBER>
2245848-05-7

>  <UNII>
BO0V7196L2

>  <SYNONYMS>
Murizatoclax

$$$$
