
 OpenBabel10282417123D

 28 28  0  0  1  0  0  0  0  0999 V2000
    0.7357   -0.3925    0.4300 C   0  0  0  0  0  0  0  0  0  0  0  0
    0.3031    1.1626    0.8507 C   0  0  2  0  0  0  0  0  0  0  0  0
   -1.0177    1.3515    0.1646 C   0  0  1  0  0  0  0  0  0  0  0  0
   -0.3658    3.3675   -1.2580 C   0  0  2  0  0  0  0  0  0  0  0  0
   -0.6729    1.8402   -1.3110 C   0  0  1  0  0  0  0  0  0  0  0  0
    0.8827    3.4382   -0.4128 C   0  0  2  0  0  0  0  0  0  0  0  0
    0.1241   -0.8658   -0.8022 O   0  0  0  0  0  0  0  0  0  0  0  0
   -1.8514    0.1941    0.2270 O   0  0  0  0  0  0  0  0  0  0  0  0
   -1.3215    4.3007   -0.7820 O   0  0  0  0  0  0  0  0  0  0  0  0
    1.7493    2.8862   -1.3131 O   0  0  0  0  0  0  0  0  0  0  0  0
    3.1399    1.7105   -2.7022 O   0  0  0  0  0  0  0  0  0  0  0  0
    2.6527    0.8232   -0.5479 O   0  0  0  0  0  0  0  0  0  0  0  0
    2.6086   -0.6944   -2.5264 O   0  0  0  0  0  0  0  0  0  0  0  0
    1.0192    2.4792    0.6955 O   0  0  0  0  0  0  0  0  0  0  0  0
    0.5166    1.0318   -2.2071 O   0  0  0  0  0  0  0  0  0  0  0  0
    2.2938    0.5616   -1.9523 S   0  0  0  0  0  0  0  0  0  0  0  0
    0.2744    1.0762    1.9450 H   0  0  0  0  0  0  0  0  0  0  0  0
   -1.5941    2.1065    0.7155 H   0  0  0  0  0  0  0  0  0  0  0  0
   -0.1786    3.6549   -2.3044 H   0  0  0  0  0  0  0  0  0  0  0  0
   -1.6042    1.6978   -1.8927 H   0  0  0  0  0  0  0  0  0  0  0  0
    1.4042    4.3886   -0.2923 H   0  0  0  0  0  0  0  0  0  0  0  0
    0.2843   -1.0997    1.1293 H   0  0  0  0  0  0  0  0  0  0  0  0
    1.7756   -0.7244    0.4169 H   0  0  0  0  0  0  0  0  0  0  0  0
    0.1039   -0.1659   -1.4791 H   0  0  0  0  0  0  0  0  0  0  0  0
   -1.3891   -0.5576   -0.2091 H   0  0  0  0  0  0  0  0  0  0  0  0
   -1.7736    3.9829    0.0117 H   0  0  0  0  0  0  0  0  0  0  0  0
    1.5555    2.0581   -0.8165 H   0  0  0  0  0  0  0  0  0  0  0  0
    2.7556    2.5605   -2.3609 H   0  0  0  0  0  0  0  0  0  0  0  0
  1 22  1  0  0  0  0
  1 23  1  0  0  0  0
  2  1  1  0  0  0  0
  2 17  1  1  0  0  0
  3  2  1  0  0  0  0
  3  8  1  0  0  0  0
  3 18  1  1  0  0  0
  4 19  1  6  0  0  0
  4  9  1  0  0  0  0
  5  3  1  0  0  0  0
  5  4  1  0  0  0  0
  5 15  1  0  0  0  0
  5 20  1  6  0  0  0
  6  4  1  0  0  0  0
  6 10  1  0  0  0  0
  6 21  1  1  0  0  0
  7  1  1  0  0  0  0
  7 24  1  0  0  0  0
  8 25  1  0  0  0  0
  9 26  1  0  0  0  0
 10 27  1  0  0  0  0
 11 28  1  0  0  0  0
 14  2  1  0  0  0  0
 14  6  1  0  0  0  0
 16 11  1  0  0  0  0
 16 12  2  0  0  0  0
 16 13  2  0  0  0  0
 16 15  1  0  0  0  0
M  END
>  <DRUGBANK_ID>
DB01818

>  <SECONDARY_ACCESSION_NUMBERS>
EXPT02894

>  <COMMON_NAME>
O3-Sulfonylgalactose

$$$$
