
 OpenBabel10282417153D

 53 54  0  0  0  0  0  0  0  0999 V2000
    1.4054   -0.1739    0.0282 C   0  0  0  0  0  0  0  0  0  0  0  0
    2.8588   -0.3858    0.1531 C   0  0  0  0  0  0  0  0  0  0  0  0
    3.7852    0.5872    0.2271 C   0  0  0  0  0  0  0  0  0  0  0  0
    5.2141    0.2226    0.4092 C   0  0  0  0  0  0  0  0  0  0  0  0
    6.1746    1.3712    0.4581 C   0  0  0  0  0  0  0  0  0  0  0  0
    5.5408   -0.9601    0.5072 O   0  0  0  0  0  0  0  0  0  0  0  0
    7.4988    1.1754    0.5935 C   0  0  0  0  0  0  0  0  0  0  0  0
    8.4663    2.2676    0.6195 C   0  0  0  0  0  0  0  0  0  0  0  0
    7.9887   -0.1049    0.7156 O   0  0  0  0  0  0  0  0  0  0  0  0
    9.8050    2.1544    0.7256 C   0  0  0  0  0  0  0  0  0  0  0  0
   10.7342    3.2914    0.8049 C   0  0  0  0  0  0  0  0  0  0  0  0
   11.9796    3.2415    0.1752 C   0  0  0  0  0  0  0  0  0  0  0  0
   12.9145    4.2633    0.3846 C   0  0  0  0  0  0  0  0  0  0  0  0
   12.5982    5.3800    1.1734 C   0  0  0  0  0  0  0  0  0  0  0  0
   11.3534    5.4216    1.8240 C   0  0  0  0  0  0  0  0  0  0  0  0
   10.4406    4.3783    1.6305 C   0  0  0  0  0  0  0  0  0  0  0  0
    0.5535   -1.2892    0.0152 C   0  0  0  0  0  0  0  0  0  0  0  0
   -0.8444   -1.1474   -0.0076 C   0  0  0  0  0  0  0  0  0  0  0  0
   -1.4073    0.1400   -0.0321 C   0  0  0  0  0  0  0  0  0  0  0  0
   -0.5589    1.2507    0.0047 C   0  0  0  0  0  0  0  0  0  0  0  0
    0.8281    1.0961   -0.0132 C   0  0  0  0  0  0  0  0  0  0  0  0
   -1.7006   -2.2122    0.0243 O   0  0  0  0  0  0  0  0  0  0  0  0
   -1.1682   -3.5209    0.0969 C   0  0  0  0  0  0  0  0  0  0  0  0
   -2.7376    0.4772   -0.0988 O   0  0  0  0  0  0  0  0  0  0  0  0
   -3.6730   -0.5761   -0.3023 C   0  0  0  0  0  0  0  0  0  0  0  0
   11.0904    6.4741    2.6552 O   0  0  0  0  0  0  0  0  0  0  0  0
   13.5874    6.3349    1.2091 O   0  0  0  0  0  0  0  0  0  0  0  0
   13.2853    7.5660    1.8618 C   0  0  0  0  0  0  0  0  0  0  0  0
    9.8564    6.4997    3.3489 C   0  0  0  0  0  0  0  0  0  0  0  0
    3.1766   -1.4276    0.2337 H   0  0  0  0  0  0  0  0  0  0  0  0
    3.5384    1.6362    0.1745 H   0  0  0  0  0  0  0  0  0  0  0  0
    5.7614    2.3701    0.3668 H   0  0  0  0  0  0  0  0  0  0  0  0
    8.0400    3.2685    0.5375 H   0  0  0  0  0  0  0  0  0  0  0  0
    8.9456   -0.1251    0.8178 H   0  0  0  0  0  0  0  0  0  0  0  0
   10.3060    1.1966    0.8080 H   0  0  0  0  0  0  0  0  0  0  0  0
   12.2350    2.4147   -0.4845 H   0  0  0  0  0  0  0  0  0  0  0  0
   13.9019    4.1839   -0.0673 H   0  0  0  0  0  0  0  0  0  0  0  0
    9.4859    4.3832    2.1427 H   0  0  0  0  0  0  0  0  0  0  0  0
    1.0003   -2.2788    0.0314 H   0  0  0  0  0  0  0  0  0  0  0  0
   -0.9769    2.2535    0.0536 H   0  0  0  0  0  0  0  0  0  0  0  0
    1.4360    1.9931   -0.0535 H   0  0  0  0  0  0  0  0  0  0  0  0
   -0.5891   -3.7493   -0.8019 H   0  0  0  0  0  0  0  0  0  0  0  0
   -0.5780   -3.6539    1.0083 H   0  0  0  0  0  0  0  0  0  0  0  0
   -2.0126   -4.2148    0.1400 H   0  0  0  0  0  0  0  0  0  0  0  0
   -3.4450   -1.1501   -1.2086 H   0  0  0  0  0  0  0  0  0  0  0  0
   -3.7308   -1.2117    0.5873 H   0  0  0  0  0  0  0  0  0  0  0  0
   -4.6658   -0.1411   -0.4443 H   0  0  0  0  0  0  0  0  0  0  0  0
   12.3952    8.0437    1.4335 H   0  0  0  0  0  0  0  0  0  0  0  0
   13.1919    7.4135    2.9424 H   0  0  0  0  0  0  0  0  0  0  0  0
   14.1171    8.2596    1.7143 H   0  0  0  0  0  0  0  0  0  0  0  0
    9.0210    6.5625    2.6451 H   0  0  0  0  0  0  0  0  0  0  0  0
    9.7631    5.6351    4.0134 H   0  0  0  0  0  0  0  0  0  0  0  0
    9.8463    7.4010    3.9666 H   0  0  0  0  0  0  0  0  0  0  0  0
  1 17  2  0  0  0  0
  1  2  1  0  0  0  0
  2  3  2  0  0  0  0
  2 30  1  0  0  0  0
  3  4  1  0  0  0  0
  3 31  1  0  0  0  0
  4  5  1  0  0  0  0
  4  6  2  0  0  0  0
  5  7  2  0  0  0  0
  5 32  1  0  0  0  0
  7  8  1  0  0  0  0
  7  9  1  0  0  0  0
  8 10  2  0  0  0  0
  8 33  1  0  0  0  0
  9 34  1  0  0  0  0
 10 11  1  0  0  0  0
 10 35  1  0  0  0  0
 11 12  2  0  0  0  0
 12 13  1  0  0  0  0
 12 36  1  0  0  0  0
 13 14  2  0  0  0  0
 13 37  1  0  0  0  0
 14 15  1  0  0  0  0
 14 27  1  0  0  0  0
 15 16  2  0  0  0  0
 15 26  1  0  0  0  0
 16 11  1  0  0  0  0
 16 38  1  0  0  0  0
 17 18  1  0  0  0  0
 17 39  1  0  0  0  0
 18 19  2  0  0  0  0
 18 22  1  0  0  0  0
 19 20  1  0  0  0  0
 19 24  1  0  0  0  0
 20 21  2  0  0  0  0
 20 40  1  0  0  0  0
 21  1  1  0  0  0  0
 21 41  1  0  0  0  0
 22 23  1  0  0  0  0
 23 42  1  0  0  0  0
 23 43  1  0  0  0  0
 23 44  1  0  0  0  0
 24 25  1  0  0  0  0
 25 45  1  0  0  0  0
 25 46  1  0  0  0  0
 25 47  1  0  0  0  0
 26 29  1  0  0  0  0
 27 28  1  0  0  0  0
 28 48  1  0  0  0  0
 28 49  1  0  0  0  0
 28 50  1  0  0  0  0
 29 51  1  0  0  0  0
 29 52  1  0  0  0  0
 29 53  1  0  0  0  0
M  END
>  <DRUGBANK_ID>
DB06133

>  <COMMON_NAME>
Dimethylcurcumin

>  <CAS_NUMBER>
52328-98-0

>  <UNII>
D60XLY608D

$$$$
