
 OpenBabel10282417233D

 50 53  0  0  1  0  0  0  0  0999 V2000
   -1.1939   -1.5994    0.4447 O   0  0  0  0  0  0  0  0  0  0  0  0
   -1.7333   -1.1259   -0.7069 C   0  0  0  0  0  0  0  0  0  0  0  0
   -2.5449   -1.7944   -1.3060 O   0  0  0  0  0  0  0  0  0  0  0  0
   -1.2486    0.2905   -1.0835 C   0  0  2  0  0  0  0  0  0  0  0  0
    0.3139    0.3109   -1.1539 C   0  0  0  0  0  0  0  0  0  0  0  0
    1.0316    0.0651    0.1804 C   0  0  0  0  0  0  0  0  0  0  0  0
    2.4355    0.6276    0.0149 C   0  0  0  0  0  0  0  0  0  0  0  0
    2.4040    1.5366   -1.2059 C   0  0  0  0  0  0  0  0  0  0  0  0
    0.9424    1.6371   -1.5992 C   0  0  0  0  0  0  0  0  0  0  0  0
   -1.8117    1.4081   -0.1857 C   0  0  0  0  0  0  0  0  0  0  0  0
   -2.2042    1.1564    1.1342 C   0  0  0  0  0  0  0  0  0  0  0  0
   -2.4295    2.1841    2.0662 C   0  0  0  0  0  0  0  0  0  0  0  0
   -2.2980    3.5162    1.7155 C   0  0  0  0  0  0  0  0  0  0  0  0
   -2.5522    4.5687    2.5818 O   0  0  0  0  0  0  0  0  0  0  0  0
   -3.4876    4.4590    3.7923 C   0  0  0  0  0  0  0  0  0  0  0  0
   -5.1245    4.3132    3.5040 C   0  0  0  0  0  0  0  0  0  0  0  0
   -6.2472    5.1498    3.7450 N   0  0  0  0  0  0  0  0  0  0  0  0
   -7.0284    5.7599    2.5574 C   0  0  0  0  0  0  0  0  0  0  0  0
   -6.1842    5.8238    1.4811 C   0  0  0  0  0  0  0  0  0  0  0  0
   -6.2308    6.6148    0.3392 C   0  0  0  0  0  0  0  0  0  0  0  0
   -7.4007    7.1992   -0.0518 C   0  0  0  0  0  0  0  0  0  0  0  0
   -8.4985    6.9820    0.7567 C   0  0  0  0  0  0  0  0  0  0  0  0
   -8.3222    6.3421    2.0485 C   0  0  0  0  0  0  0  0  0  0  0  0
   -5.0756    5.0577    1.5481 C   0  0  0  0  0  0  0  0  0  0  0  0
   -5.2254    3.8908    2.2569 C   0  0  0  0  0  0  0  0  0  0  0  0
   -1.9000    3.7890    0.3871 C   0  0  0  0  0  0  0  0  0  0  0  0
   -1.7521    2.7553   -0.5731 C   0  0  0  0  0  0  0  0  0  0  0  0
   -1.6070   -2.4684    0.6168 H   0  0  0  0  0  0  0  0  0  0  0  0
   -1.6249    0.4484   -2.1076 H   0  0  0  0  0  0  0  0  0  0  0  0
    0.6350   -0.4729   -1.8575 H   0  0  0  0  0  0  0  0  0  0  0  0
    0.5297    0.5813    1.0050 H   0  0  0  0  0  0  0  0  0  0  0  0
    1.0871   -0.9966    0.4366 H   0  0  0  0  0  0  0  0  0  0  0  0
    2.7301    1.1698    0.9198 H   0  0  0  0  0  0  0  0  0  0  0  0
    3.1575   -0.1805   -0.1359 H   0  0  0  0  0  0  0  0  0  0  0  0
    2.8127    2.5266   -0.9748 H   0  0  0  0  0  0  0  0  0  0  0  0
    2.9926    1.1094   -2.0219 H   0  0  0  0  0  0  0  0  0  0  0  0
    0.7939    1.8440   -2.6629 H   0  0  0  0  0  0  0  0  0  0  0  0
    0.5607    2.4872   -1.0357 H   0  0  0  0  0  0  0  0  0  0  0  0
   -2.2961    0.1404    1.5008 H   0  0  0  0  0  0  0  0  0  0  0  0
   -2.6616    1.8921    3.0798 H   0  0  0  0  0  0  0  0  0  0  0  0
   -3.0988    3.6197    4.3831 H   0  0  0  0  0  0  0  0  0  0  0  0
   -3.3043    5.3846    4.3462 H   0  0  0  0  0  0  0  0  0  0  0  0
   -5.3346    6.6946   -0.2683 H   0  0  0  0  0  0  0  0  0  0  0  0
   -7.4247    7.7435   -0.9915 H   0  0  0  0  0  0  0  0  0  0  0  0
   -9.4626    7.3333    0.3808 H   0  0  0  0  0  0  0  0  0  0  0  0
   -9.2430    6.2824    2.6354 H   0  0  0  0  0  0  0  0  0  0  0  0
   -4.2594    5.7617    1.8281 H   0  0  0  0  0  0  0  0  0  0  0  0
   -6.1099    3.2721    2.0627 H   0  0  0  0  0  0  0  0  0  0  0  0
   -1.6656    4.8039    0.0681 H   0  0  0  0  0  0  0  0  0  0  0  0
   -1.4829    3.0140   -1.6014 H   0  0  0  0  0  0  0  0  0  0  0  0
  1  2  1  0  0  0  0
  1 28  1  0  0  0  0
  2  3  2  0  0  0  0
  4 10  1  0  0  0  0
  4 29  1  6  0  0  0
  4  5  1  0  0  0  0
  4  2  1  0  0  0  0
  5  6  1  0  0  0  0
  5  9  1  0  0  0  0
  5 30  1  0  0  0  0
  6  7  1  0  0  0  0
  6 31  1  0  0  0  0
  6 32  1  0  0  0  0
  7  8  1  0  0  0  0
  7 33  1  0  0  0  0
  7 34  1  0  0  0  0
  8  9  1  0  0  0  0
  8 35  1  0  0  0  0
  8 36  1  0  0  0  0
  9 37  1  0  0  0  0
  9 38  1  0  0  0  0
 10 11  2  0  0  0  0
 10 27  1  0  0  0  0
 11 12  1  0  0  0  0
 11 39  1  0  0  0  0
 12 13  2  0  0  0  0
 12 40  1  0  0  0  0
 13 14  1  0  0  0  0
 13 26  1  0  0  0  0
 14 15  1  0  0  0  0
 15 16  1  0  0  0  0
 15 41  1  0  0  0  0
 15 42  1  0  0  0  0
 16 17  2  0  0  0  0
 16 25  1  0  0  0  0
 17 18  1  0  0  0  0
 18 19  2  0  0  0  0
 18 23  1  0  0  0  0
 19 20  1  0  0  0  0
 19 24  1  0  0  0  0
 20 21  2  0  0  0  0
 20 43  1  0  0  0  0
 21 22  1  0  0  0  0
 21 44  1  0  0  0  0
 22 23  2  0  0  0  0
 22 45  1  0  0  0  0
 23 46  1  0  0  0  0
 24 25  2  0  0  0  0
 24 47  1  0  0  0  0
 25 48  1  0  0  0  0
 26 27  2  0  0  0  0
 26 49  1  0  0  0  0
 27 50  1  0  0  0  0
M  END
>  <DRUGBANK_ID>
DB16346

>  <COMMON_NAME>
Veliflapon

>  <CAS_NUMBER>
128253-31-6

>  <UNII>
JXH6X663L0

>  <SYNONYMS>
Veliflapon

$$$$
