NP4
 OpenBabel10282417173D

 39 40  0  0  0  0  0  0  0  0999 V2000
   -1.9613    0.6594    4.0258 C   0  0  0  0  0  0  0  0  0  0  0  0
   -2.9267    2.1172    5.0945 C   0  0  0  0  0  0  0  0  0  0  0  0
   -0.6418   -0.4849    3.4264 O   0  0  0  0  0  0  0  0  0  0  0  0
   -3.2873    3.5191    6.3998 C   0  0  0  0  0  0  0  0  0  0  0  0
   -3.8349    5.2039    6.3935 C   0  0  0  0  0  0  0  0  0  0  0  0
   -4.0292    5.6462    5.1786 C   0  0  0  0  0  0  0  0  0  0  0  0
   -4.4090    4.4995    4.4897 C   0  0  0  0  0  0  0  0  0  0  0  0
   -4.2284    2.9304    4.8851 C   0  0  0  0  0  0  0  0  0  0  0  0
   -5.6250    2.2535    4.9335 C   0  0  0  0  0  0  0  0  0  0  0  0
   -5.0033    1.4671    3.9098 C   0  0  0  0  0  0  0  0  0  0  0  0
   -4.3296    0.2301    4.4269 C   0  0  0  0  0  0  0  0  0  0  0  0
   -4.3976   -0.5343    3.1540 C   0  0  0  0  0  0  0  0  0  0  0  0
   -3.7532    0.2863    1.6162 C   0  0  0  0  0  0  0  0  0  0  0  0
   -2.2358    0.8935    1.4710 C   0  0  0  0  0  0  0  0  0  0  0  0
   -1.1689    0.2343    0.9388 C   0  0  0  0  0  0  0  0  0  0  0  0
    0.2821    0.0754    1.5326 C   0  0  0  0  0  0  0  0  0  0  0  0
    0.4671   -1.2758    2.1155 C   0  0  0  0  0  0  0  0  0  0  0  0
   -2.3373   -0.6173    3.5266 O   0  0  0  0  0  0  0  0  0  0  0  0
   -4.8680    3.7894    7.3412 O   0  0  0  0  0  0  0  0  0  0  0  0
   -3.1378    6.5464    4.6340 O   0  0  0  0  0  0  0  0  0  0  0  0
   -3.6120    4.5630    2.9426 Cl  0  0  0  0  0  0  0  0  0  0  0  0
   -4.6587    2.1179    2.9121 O   0  0  0  0  0  0  0  0  0  0  0  0
   -3.9277    6.2263    7.0377 H   0  0  0  0  0  0  0  0  0  0  0  0
   -6.5643    2.6588    4.4965 H   0  0  0  0  0  0  0  0  0  0  0  0
   -5.8543    1.6950    5.8514 H   0  0  0  0  0  0  0  0  0  0  0  0
   -4.6555   -0.0636    5.4172 H   0  0  0  0  0  0  0  0  0  0  0  0
   -3.3652    0.1884    4.9447 H   0  0  0  0  0  0  0  0  0  0  0  0
   -5.4392   -0.6681    3.0229 H   0  0  0  0  0  0  0  0  0  0  0  0
   -3.9368   -1.5107    3.4240 H   0  0  0  0  0  0  0  0  0  0  0  0
   -4.2867    1.1918    1.4444 H   0  0  0  0  0  0  0  0  0  0  0  0
   -3.8502   -0.5319    0.9291 H   0  0  0  0  0  0  0  0  0  0  0  0
   -2.6904    0.2933    2.1832 H   0  0  0  0  0  0  0  0  0  0  0  0
   -1.4678   -0.7284    0.5301 H   0  0  0  0  0  0  0  0  0  0  0  0
    0.5434    0.6653    2.4240 H   0  0  0  0  0  0  0  0  0  0  0  0
    0.9398    0.3081    0.7051 H   0  0  0  0  0  0  0  0  0  0  0  0
    0.6101   -1.9994    2.9192 H   0  0  0  0  0  0  0  0  0  0  0  0
    1.7113   -1.2610    2.2012 H   0  0  0  0  0  0  0  0  0  0  0  0
   -5.2775    4.5660    8.1029 H   0  0  0  0  0  0  0  0  0  0  0  0
   -2.8191    7.3367    5.0935 H   0  0  0  0  0  0  0  0  0  0  0  0
  1  2  1  0  0  0  0
  1  3  1  0  0  0  0
  1 18  2  0  0  0  0
  2  4  2  0  0  0  0
  2  8  1  0  0  0  0
  3 17  1  0  0  0  0
  4  5  1  0  0  0  0
  4 19  1  0  0  0  0
  5  6  2  0  0  0  0
  5 23  1  0  0  0  0
  6  7  1  0  0  0  0
  6 20  1  0  0  0  0
  7  8  2  0  0  0  0
  7 21  1  0  0  0  0
  8  9  1  0  0  0  0
  9 10  1  0  0  0  0
  9 24  1  0  0  0  0
  9 25  1  0  0  0  0
 10 11  1  0  0  0  0
 10 22  2  0  0  0  0
 11 12  1  0  0  0  0
 11 26  1  0  0  0  0
 11 27  1  0  0  0  0
 12 13  1  0  0  0  0
 12 28  1  0  0  0  0
 12 29  1  0  0  0  0
 13 14  1  0  0  0  0
 13 30  1  0  0  0  0
 13 31  1  0  0  0  0
 14 15  2  0  0  0  0
 14 32  1  0  0  0  0
 15 16  1  0  0  0  0
 15 33  1  0  0  0  0
 16 17  1  0  0  0  0
 16 34  1  0  0  0  0
 16 35  1  0  0  0  0
 17 36  1  0  0  0  0
 17 37  1  0  0  0  0
 19 38  1  0  0  0  0
 20 39  1  0  0  0  0
M  END
>  <DRUGBANK_ID>
DB08292

>  <COMMON_NAME>
(5Z)-12-CHLORO-13,15-DIHYDROXY-4,7,8,9-TETRAHYDRO-2-BENZOXACYCLOTRIDECINE-1,10(3H,11H)-DIONE

$$$$
