26U
 OpenBabel10282417163D

 53 54  0  0  0  0  0  0  0  0999 V2000
   -1.0140    0.4868    0.3181 N   0  0  0  0  0  0  0  0  0  0  0  0
   -0.6416   -0.9372    0.1606 C   0  0  2  0  0  0  0  0  0  0  0  0
   -1.1912   -1.9959    1.1332 C   0  0  0  0  0  0  0  0  0  0  0  0
   -0.8340   -3.1512    1.1149 O   0  0  0  0  0  0  0  0  0  0  0  0
   -2.2655   -1.5383    1.8487 N   0  0  0  0  0  0  0  0  0  0  0  0
   -3.4762   -2.2999    2.1518 C   0  0  0  0  0  0  0  0  0  0  0  0
   -3.7147   -2.1585    3.5859 C   0  0  0  0  0  0  0  0  0  0  0  0
   -3.7656   -0.8832    4.1483 C   0  0  0  0  0  0  0  0  0  0  0  0
   -3.7736   -0.7716    5.5127 C   0  0  0  0  0  0  0  0  0  0  0  0
   -3.8079   -1.9317    6.2968 C   0  0  0  0  0  0  0  0  0  0  0  0
   -3.7102   -1.8000    7.7699 C   0  0  0  0  0  0  0  0  0  0  0  0
   -3.6901   -2.8162    8.5725 N   0  0  0  0  0  0  0  0  0  0  0  0
   -3.6203   -0.5792    8.3530 N   0  0  0  0  0  0  0  0  0  0  0  0
   -3.8795   -3.2004    5.6990 C   0  0  0  0  0  0  0  0  0  0  0  0
   -3.7819   -3.3183    4.3360 C   0  0  0  0  0  0  0  0  0  0  0  0
    0.8510   -1.0176    0.3752 C   0  0  0  0  0  0  0  0  0  0  0  0
    1.3609    0.3097   -0.1122 C   0  0  0  0  0  0  0  0  0  0  0  0
    0.1967    1.2885    0.0891 C   0  0  0  0  0  0  0  0  0  0  0  0
   -2.2461    1.1459    0.4272 C   0  0  0  0  0  0  0  0  0  0  0  0
   -3.6547    0.4623    0.3630 C   0  0  0  0  0  0  0  0  0  0  0  0
   -4.1258   -0.3321   -0.8725 C   0  0  0  0  0  0  0  0  0  0  0  0
   -3.1235   -1.3001   -1.4948 C   0  0  0  0  0  0  0  0  0  0  0  0
   -2.9972   -2.6964   -0.8985 C   0  0  0  0  0  0  0  0  0  0  0  0
   -3.3051   -1.6907   -2.9338 C   0  0  0  0  0  0  0  0  0  0  0  0
   -2.2444    2.3476    0.7381 O   0  0  0  0  0  0  0  0  0  0  0  0
   -0.7302   -1.2271   -0.8881 H   0  0  0  0  0  0  0  0  0  0  0  0
   -2.2337   -0.5571    2.0713 H   0  0  0  0  0  0  0  0  0  0  0  0
   -4.3645   -1.9034    1.6320 H   0  0  0  0  0  0  0  0  0  0  0  0
   -3.4153   -3.3516    1.8531 H   0  0  0  0  0  0  0  0  0  0  0  0
   -3.7119    0.0156    3.5380 H   0  0  0  0  0  0  0  0  0  0  0  0
   -3.7268    0.2297    5.9181 H   0  0  0  0  0  0  0  0  0  0  0  0
   -3.7552   -3.7032    8.0744 H   0  0  0  0  0  0  0  0  0  0  0  0
   -3.4588    0.2787    7.8508 H   0  0  0  0  0  0  0  0  0  0  0  0
   -3.4398   -0.5788    9.3463 H   0  0  0  0  0  0  0  0  0  0  0  0
   -3.9759   -4.1229    6.2526 H   0  0  0  0  0  0  0  0  0  0  0  0
   -3.7104   -4.2934    3.8565 H   0  0  0  0  0  0  0  0  0  0  0  0
    1.0627   -1.1638    1.4367 H   0  0  0  0  0  0  0  0  0  0  0  0
    1.2668   -1.8706   -0.1782 H   0  0  0  0  0  0  0  0  0  0  0  0
    2.2549    0.5843    0.4521 H   0  0  0  0  0  0  0  0  0  0  0  0
    1.6401    0.2343   -1.1706 H   0  0  0  0  0  0  0  0  0  0  0  0
    0.3654    1.9492    0.9422 H   0  0  0  0  0  0  0  0  0  0  0  0
    0.0738    1.9044   -0.8123 H   0  0  0  0  0  0  0  0  0  0  0  0
   -3.8655   -0.0802    1.2702 H   0  0  0  0  0  0  0  0  0  0  0  0
   -4.3966    1.2655    0.5290 H   0  0  0  0  0  0  0  0  0  0  0  0
   -5.0545   -0.8654   -0.6344 H   0  0  0  0  0  0  0  0  0  0  0  0
   -4.3758    0.4287   -1.6188 H   0  0  0  0  0  0  0  0  0  0  0  0
   -2.2355   -0.6885   -1.5470 H   0  0  0  0  0  0  0  0  0  0  0  0
   -3.8631   -3.3342   -1.0726 H   0  0  0  0  0  0  0  0  0  0  0  0
   -2.0796   -3.1970   -1.2343 H   0  0  0  0  0  0  0  0  0  0  0  0
   -2.9569   -2.7302    0.1447 H   0  0  0  0  0  0  0  0  0  0  0  0
   -3.4164   -0.8265   -3.5750 H   0  0  0  0  0  0  0  0  0  0  0  0
   -2.3927   -2.2340   -3.2321 H   0  0  0  0  0  0  0  0  0  0  0  0
   -4.1508   -2.3757   -3.0187 H   0  0  0  0  0  0  0  0  0  0  0  0
  1 19  1  0  0  0  0
  2  1  1  0  0  0  0
  2 26  1  6  0  0  0
  2  3  1  0  0  0  0
  3  5  1  0  0  0  0
  4  3  2  0  0  0  0
  5 27  1  0  0  0  0
  6  5  1  0  0  0  0
  6  7  1  0  0  0  0
  6 28  1  0  0  0  0
  6 29  1  0  0  0  0
  7  8  2  0  0  0  0
  7 15  1  0  0  0  0
  8  9  1  0  0  0  0
  8 30  1  0  0  0  0
  9 10  2  0  0  0  0
  9 31  1  0  0  0  0
 10 11  1  0  0  0  0
 11 12  2  0  0  0  0
 11 13  1  0  0  0  0
 12 32  1  0  0  0  0
 13 33  1  0  0  0  0
 13 34  1  0  0  0  0
 14 10  1  0  0  0  0
 14 35  1  0  0  0  0
 15 14  2  0  0  0  0
 15 36  1  0  0  0  0
 16  2  1  0  0  0  0
 16 37  1  0  0  0  0
 16 38  1  0  0  0  0
 17 16  1  0  0  0  0
 17 18  1  0  0  0  0
 17 39  1  0  0  0  0
 17 40  1  0  0  0  0
 18  1  1  0  0  0  0
 18 41  1  0  0  0  0
 18 42  1  0  0  0  0
 19 25  2  0  0  0  0
 19 20  1  0  0  0  0
 20 21  1  0  0  0  0
 20 43  1  0  0  0  0
 20 44  1  0  0  0  0
 21 22  1  0  0  0  0
 21 45  1  0  0  0  0
 21 46  1  0  0  0  0
 22 23  1  0  0  0  0
 22 47  1  0  0  0  0
 23 48  1  0  0  0  0
 23 49  1  0  0  0  0
 23 50  1  0  0  0  0
 24 22  1  0  0  0  0
 24 51  1  0  0  0  0
 24 52  1  0  0  0  0
 24 53  1  0  0  0  0
M  END
>  <DRUGBANK_ID>
DB06936

>  <COMMON_NAME>
N-(4-carbamimidoylbenzyl)-1-(4-methylpentanoyl)-L-prolinamide

$$$$
