
 OpenBabel10282417193D

 43 46  0  0  0  0  0  0  0  0999 V2000
  -10.7821   -5.1468    7.9792 C   0  0  0  0  0  0  0  0  0  0  0  0
  -11.4580   -4.5338    6.9250 C   0  0  0  0  0  0  0  0  0  0  0  0
  -10.7449   -4.0155    5.8367 C   0  0  0  0  0  0  0  0  0  0  0  0
   -9.3438   -4.0990    5.7876 C   0  0  0  0  0  0  0  0  0  0  0  0
   -8.6817   -4.6897    6.8811 C   0  0  0  0  0  0  0  0  0  0  0  0
   -9.3930   -5.2289    7.9561 C   0  0  0  0  0  0  0  0  0  0  0  0
   -8.5859   -3.7036    4.5919 C   0  0  0  0  0  0  0  0  0  0  0  0
   -8.6541   -2.4150    4.1744 N   0  0  0  0  0  0  0  0  0  0  0  0
   -7.9478   -2.0323    3.0746 C   0  0  0  0  0  0  0  0  0  0  0  0
   -7.1995   -3.0294    2.3973 C   0  0  0  0  0  0  0  0  0  0  0  0
   -7.2525   -4.3133    2.9172 C   0  0  0  0  0  0  0  0  0  0  0  0
   -7.8973   -4.7085    4.0140 N   0  0  0  0  0  0  0  0  0  0  0  0
   -6.5287   -5.1474    2.1101 N   0  0  0  0  0  0  0  0  0  0  0  0
   -6.0304   -4.4562    1.0457 C   0  0  0  0  0  0  0  0  0  0  0  0
   -6.3507   -3.1345    1.2488 C   0  0  0  0  0  0  0  0  0  0  0  0
   -8.0567   -0.7004    2.7053 N   0  0  0  0  0  0  0  0  0  0  0  0
   -7.4061   -0.1391    1.5396 C   0  0  1  0  0  0  0  0  0  0  0  0
   -8.0345   -0.7132    0.2555 C   0  0  0  0  0  0  0  0  0  0  0  0
   -7.2420   -0.2571   -0.9591 C   0  0  0  0  0  0  0  0  0  0  0  0
   -7.3939    1.2506   -1.0728 C   0  0  1  0  0  0  0  0  0  0  0  0
   -6.8771    1.9427    0.1943 C   0  0  0  0  0  0  0  0  0  0  0  0
   -7.5282    1.3942    1.4768 C   0  0  0  0  0  0  0  0  0  0  0  0
   -6.7035    1.7211   -2.2194 O   0  0  0  0  0  0  0  0  0  0  0  0
  -11.3371   -5.5627    8.8164 H   0  0  0  0  0  0  0  0  0  0  0  0
  -12.5437   -4.4788    6.9395 H   0  0  0  0  0  0  0  0  0  0  0  0
  -11.2905   -3.5762    5.0040 H   0  0  0  0  0  0  0  0  0  0  0  0
   -7.5946   -4.7481    6.8820 H   0  0  0  0  0  0  0  0  0  0  0  0
   -8.8613   -5.7265    8.7630 H   0  0  0  0  0  0  0  0  0  0  0  0
   -6.4089   -6.1357    2.2867 H   0  0  0  0  0  0  0  0  0  0  0  0
   -5.4791   -4.9360    0.2488 H   0  0  0  0  0  0  0  0  0  0  0  0
   -6.0469   -2.3534    0.5707 H   0  0  0  0  0  0  0  0  0  0  0  0
   -8.5994   -0.1247    3.3378 H   0  0  0  0  0  0  0  0  0  0  0  0
   -6.3319   -0.3598    1.6065 H   0  0  0  0  0  0  0  0  0  0  0  0
   -9.0775   -0.3851    0.1794 H   0  0  0  0  0  0  0  0  0  0  0  0
   -8.1079   -1.7992    0.2437 H   0  0  0  0  0  0  0  0  0  0  0  0
   -7.6028   -0.7622   -1.8612 H   0  0  0  0  0  0  0  0  0  0  0  0
   -6.1793   -0.5283   -0.8736 H   0  0  0  0  0  0  0  0  0  0  0  0
   -8.4554    1.4838   -1.2134 H   0  0  0  0  0  0  0  0  0  0  0  0
   -5.7880    1.8137    0.2572 H   0  0  0  0  0  0  0  0  0  0  0  0
   -7.0449    3.0220    0.1115 H   0  0  0  0  0  0  0  0  0  0  0  0
   -8.5858    1.6858    1.4980 H   0  0  0  0  0  0  0  0  0  0  0  0
   -7.0575    1.8590    2.3515 H   0  0  0  0  0  0  0  0  0  0  0  0
   -5.7489    1.6248   -2.0676 H   0  0  0  0  0  0  0  0  0  0  0  0
  1  2  2  0  0  0  0
  1  6  1  0  0  0  0
  1 24  1  0  0  0  0
  2  3  1  0  0  0  0
  2 25  1  0  0  0  0
  3  4  2  0  0  0  0
  3 26  1  0  0  0  0
  4  5  1  0  0  0  0
  4  7  1  0  0  0  0
  5  6  2  0  0  0  0
  5 27  1  0  0  0  0
  6 28  1  0  0  0  0
  7  8  2  0  0  0  0
  7 12  1  0  0  0  0
  8  9  1  0  0  0  0
  9 10  2  0  0  0  0
  9 16  1  0  0  0  0
 10 11  1  0  0  0  0
 10 15  1  0  0  0  0
 11 12  2  0  0  0  0
 11 13  1  0  0  0  0
 13 14  1  0  0  0  0
 13 29  1  0  0  0  0
 14 15  2  0  0  0  0
 14 30  1  0  0  0  0
 15 31  1  0  0  0  0
 16 32  1  0  0  0  0
 17 18  1  0  0  0  0
 17 22  1  0  0  0  0
 17 33  1  1  0  0  0
 17 16  1  0  0  0  0
 18 19  1  0  0  0  0
 18 34  1  0  0  0  0
 18 35  1  0  0  0  0
 19 20  1  0  0  0  0
 19 36  1  0  0  0  0
 19 37  1  0  0  0  0
 20 21  1  0  0  0  0
 20 23  1  0  0  0  0
 20 38  1  6  0  0  0
 21 22  1  0  0  0  0
 21 39  1  0  0  0  0
 21 40  1  0  0  0  0
 22 41  1  0  0  0  0
 22 42  1  0  0  0  0
 23 43  1  0  0  0  0
M  END
>  <DRUGBANK_ID>
DB12446

>  <COMMON_NAME>
Derenofylline

>  <CAS_NUMBER>
251945-92-3

>  <UNII>
O1Q96UZ63W

>  <SYNONYMS>
Derenofylline

$$$$
