1094
 OpenBabel10282417113D

 36 38  0  0  1  0  0  0  0  0999 V2000
    0.7501   -2.1431    0.0613 O   0  0  0  0  0  0  0  0  0  0  0  0
    2.2887    1.6525   -0.0241 O   0  0  0  0  0  0  0  0  0  0  0  0
   -0.1138    2.6456   -0.0824 O   0  0  0  0  0  0  0  0  0  0  0  0
    5.1720   -6.5474    0.9281 O   0  0  0  0  0  0  0  0  0  0  0  0
    2.6912   -6.6130   -0.9892 O   0  0  0  0  0  0  0  0  0  0  0  0
   -3.6815   -0.4312    0.0454 O   0  0  0  0  0  0  0  0  0  0  0  0
    2.1070   -1.9019   -0.3512 C   0  0  1  0  0  0  0  0  0  0  0  0
    2.6849   -0.6734    0.3326 C   0  0  0  0  0  0  0  0  0  0  0  0
    2.9086   -3.1504   -0.0238 C   0  0  0  0  0  0  0  0  0  0  0  0
    0.3914    0.2704   -0.0324 C   0  0  0  0  0  0  0  0  0  0  0  0
    1.8355    0.5098    0.0433 C   0  0  0  0  0  0  0  0  0  0  0  0
   -0.0699   -1.0482   -0.0047 C   0  0  0  0  0  0  0  0  0  0  0  0
    2.5377   -4.3695   -0.5979 C   0  0  0  0  0  0  0  0  0  0  0  0
    4.0129   -3.1456    0.8375 C   0  0  0  0  0  0  0  0  0  0  0  0
   -0.5109    1.3361   -0.0534 C   0  0  0  0  0  0  0  0  0  0  0  0
   -1.4422   -1.3010    0.0140 C   0  0  0  0  0  0  0  0  0  0  0  0
    3.2360   -5.5508   -0.3267 C   0  0  0  0  0  0  0  0  0  0  0  0
   -1.8773    1.0861   -0.0229 C   0  0  0  0  0  0  0  0  0  0  0  0
   -2.3332   -0.2294    0.0103 C   0  0  0  0  0  0  0  0  0  0  0  0
    4.7127   -4.3179    1.1121 C   0  0  0  0  0  0  0  0  0  0  0  0
    4.3421   -5.5374    0.5326 C   0  0  0  0  0  0  0  0  0  0  0  0
    4.9509   -7.8395    0.4094 C   0  0  0  0  0  0  0  0  0  0  0  0
    0.8704    2.6714   -0.0986 H   0  0  0  0  0  0  0  0  0  0  0  0
    3.1332   -7.4405   -0.7875 H   0  0  0  0  0  0  0  0  0  0  0  0
   -3.8606   -1.3858    0.0712 H   0  0  0  0  0  0  0  0  0  0  0  0
    2.1150   -1.7710   -1.4440 H   0  0  0  0  0  0  0  0  0  0  0  0
    2.6985   -0.7886    1.4233 H   0  0  0  0  0  0  0  0  0  0  0  0
    3.6988   -0.4760   -0.0327 H   0  0  0  0  0  0  0  0  0  0  0  0
    1.6797   -4.4199   -1.2669 H   0  0  0  0  0  0  0  0  0  0  0  0
    4.3625   -2.2389    1.3235 H   0  0  0  0  0  0  0  0  0  0  0  0
   -1.7972   -2.3270    0.0370 H   0  0  0  0  0  0  0  0  0  0  0  0
   -2.5809    1.9131   -0.0137 H   0  0  0  0  0  0  0  0  0  0  0  0
    5.5615   -4.2672    1.7930 H   0  0  0  0  0  0  0  0  0  0  0  0
    3.9799   -8.2155    0.7469 H   0  0  0  0  0  0  0  0  0  0  0  0
    5.0499   -7.8337   -0.6811 H   0  0  0  0  0  0  0  0  0  0  0  0
    5.7111   -8.5182    0.8007 H   0  0  0  0  0  0  0  0  0  0  0  0
  1  7  1  0  0  0  0
  1 12  1  0  0  0  0
  2 11  2  0  0  0  0
  3 15  1  0  0  0  0
  3 23  1  0  0  0  0
  4 21  1  0  0  0  0
  4 22  1  0  0  0  0
  5 17  1  0  0  0  0
  5 24  1  0  0  0  0
  6 19  1  0  0  0  0
  6 25  1  0  0  0  0
  7  8  1  0  0  0  0
  7  9  1  0  0  0  0
  7 26  1  6  0  0  0
  8 11  1  0  0  0  0
  8 27  1  0  0  0  0
  8 28  1  0  0  0  0
  9 13  2  0  0  0  0
  9 14  1  0  0  0  0
 10 11  1  0  0  0  0
 10 12  1  0  0  0  0
 10 15  2  0  0  0  0
 12 16  2  0  0  0  0
 13 17  1  0  0  0  0
 13 29  1  0  0  0  0
 14 20  2  0  0  0  0
 14 30  1  0  0  0  0
 15 18  1  0  0  0  0
 16 19  1  0  0  0  0
 16 31  1  0  0  0  0
 17 21  2  0  0  0  0
 18 19  2  0  0  0  0
 18 32  1  0  0  0  0
 20 21  1  0  0  0  0
 20 33  1  0  0  0  0
 22 34  1  0  0  0  0
 22 35  1  0  0  0  0
 22 36  1  0  0  0  0
M  END
>  <DRUGBANK_ID>
DB01094

>  <SECONDARY_ACCESSION_NUMBERS>
APRD00117

>  <COMMON_NAME>
Hesperetin

>  <CAS_NUMBER>
520-33-2

>  <UNII>
Q9Q3D557F1

>  <SYNONYMS>
(−)-(S)-hesperetin; (−)-hesperetin; (S)-2,3-dihydro-5,7-dihydroxy-2-(3-hydroxy-4-methoxyphenyl)-4H-1-benzopyran-4-one; 3',5,7-Trihydroxy-4'-methoxyflavanone; Hesperitin

$$$$
