M25
 OpenBabel10282417173D

 30 30  0  0  0  0  0  0  0  0999 V2000
    1.4253   -0.2693    0.0441 C   0  0  0  0  0  0  0  0  0  0  0  0
    0.9600    1.0403   -0.0437 C   0  0  0  0  0  0  0  0  0  0  0  0
   -0.4099    1.2759   -0.0965 C   0  0  0  0  0  0  0  0  0  0  0  0
   -1.3334    0.2194   -0.0769 C   0  0  0  0  0  0  0  0  0  0  0  0
   -0.8488   -1.0942   -0.0217 C   0  0  0  0  0  0  0  0  0  0  0  0
    0.5279   -1.3401    0.0311 C   0  0  0  0  0  0  0  0  0  0  0  0
    3.1695   -0.5057    0.1994 S   0  0  0  0  0  0  0  0  0  0  0  0
    3.7939   -0.1102   -1.0365 O   0  0  0  0  0  0  0  0  0  0  0  0
    3.5754    0.0272    1.4827 O   0  0  0  0  0  0  0  0  0  0  0  0
    3.3691   -2.1770    0.2929 N   0  0  0  0  0  0  0  0  0  0  0  0
   -2.8175    0.4990   -0.1781 C   0  0  0  0  0  0  0  0  0  0  0  0
   -3.4082    1.2522    1.0236 C   0  0  0  0  0  0  0  0  0  0  0  0
   -2.8623    2.5891    1.2048 N   0  0  0  0  0  0  0  0  0  0  0  0
   -3.4742    3.7940    1.0442 C   0  0  0  0  0  0  0  0  0  0  0  0
   -4.9560    3.7877    0.8229 C   0  0  0  0  0  0  0  0  0  0  0  0
   -2.8185    4.8302    1.1118 O   0  0  0  0  0  0  0  0  0  0  0  0
    1.6462    1.8840   -0.0762 H   0  0  0  0  0  0  0  0  0  0  0  0
   -0.7402    2.3091   -0.1595 H   0  0  0  0  0  0  0  0  0  0  0  0
   -1.5348   -1.9396   -0.0195 H   0  0  0  0  0  0  0  0  0  0  0  0
    0.8745   -2.3676    0.0679 H   0  0  0  0  0  0  0  0  0  0  0  0
    3.1273   -2.6230   -0.5907 H   0  0  0  0  0  0  0  0  0  0  0  0
    4.3411   -2.3686    0.5461 H   0  0  0  0  0  0  0  0  0  0  0  0
   -3.0004    1.0523   -1.1079 H   0  0  0  0  0  0  0  0  0  0  0  0
   -3.3620   -0.4500   -0.2800 H   0  0  0  0  0  0  0  0  0  0  0  0
   -4.4915    1.3122    0.8919 H   0  0  0  0  0  0  0  0  0  0  0  0
   -3.2111    0.7070    1.9509 H   0  0  0  0  0  0  0  0  0  0  0  0
   -1.8888    2.6750    1.4709 H   0  0  0  0  0  0  0  0  0  0  0  0
   -5.1939    3.2912   -0.1207 H   0  0  0  0  0  0  0  0  0  0  0  0
   -5.4380    3.2723    1.6589 H   0  0  0  0  0  0  0  0  0  0  0  0
   -5.3273    4.8146    0.7912 H   0  0  0  0  0  0  0  0  0  0  0  0
  1  7  1  0  0  0  0
  1  6  2  0  0  0  0
  1  2  1  0  0  0  0
  2  3  2  0  0  0  0
  2 17  1  0  0  0  0
  3  4  1  0  0  0  0
  3 18  1  0  0  0  0
  4  5  2  0  0  0  0
  4 11  1  0  0  0  0
  5  6  1  0  0  0  0
  5 19  1  0  0  0  0
  6 20  1  0  0  0  0
  7  8  2  0  0  0  0
  7  9  2  0  0  0  0
  7 10  1  0  0  0  0
 10 21  1  0  0  0  0
 10 22  1  0  0  0  0
 11 12  1  0  0  0  0
 11 23  1  0  0  0  0
 11 24  1  0  0  0  0
 12 13  1  0  0  0  0
 12 25  1  0  0  0  0
 12 26  1  0  0  0  0
 13 14  1  0  0  0  0
 13 27  1  0  0  0  0
 14 16  2  0  0  0  0
 14 15  1  0  0  0  0
 15 28  1  0  0  0  0
 15 29  1  0  0  0  0
 15 30  1  0  0  0  0
M  END
>  <DRUGBANK_ID>
DB08155

>  <COMMON_NAME>
N-{2-[4-(AMINOSULFONYL)PHENYL]ETHYL}ACETAMIDE

>  <UNII>
SL3TT94T4C

$$$$
