L5G
 OpenBabel10282417173D

 46 50  0  0  0  0  0  0  0  0999 V2000
   -1.0154    1.4376    0.0763 N   0  0  0  0  0  0  0  0  0  0  0  0
    1.5735   -0.9301    0.0071 N   0  0  0  0  0  0  0  0  0  0  0  0
   -3.4097    1.3247   -0.0371 C   0  0  0  0  0  0  0  0  0  0  0  0
   -4.2912    1.1101    1.0296 C   0  0  0  0  0  0  0  0  0  0  0  0
   -5.4797    1.8382    1.1031 C   0  0  0  0  0  0  0  0  0  0  0  0
   -2.0734    0.6813   -0.0168 C   0  0  0  0  0  0  0  0  0  0  0  0
   -2.0839   -0.8130   -0.0208 C   0  0  0  0  0  0  0  0  0  0  0  0
    0.2924   -0.6389    0.0425 C   0  0  0  0  0  0  0  0  0  0  0  0
    2.3301    2.9353    3.7204 C   0  0  0  0  0  0  0  0  0  0  0  0
    4.5329    2.9955    3.2738 C   0  0  0  0  0  0  0  0  0  0  0  0
    4.2934    3.7225    5.3831 C   0  0  0  0  0  0  0  0  0  0  0  0
    3.2265    3.5298    7.8924 C   0  0  0  0  0  0  0  0  0  0  0  0
    2.4158    3.3840    6.6335 C   0  0  0  0  0  0  0  0  0  0  0  0
    6.6564    4.4751    8.9647 C   0  0  0  0  0  0  0  0  0  0  0  0
    5.2879    4.0091    9.0341 O   0  0  0  0  0  0  0  0  0  0  0  0
    4.5749    3.8391    7.8686 C   0  0  0  0  0  0  0  0  0  0  0  0
    5.0782    3.9086    6.5792 C   0  0  0  0  0  0  0  0  0  0  0  0
    2.8860    3.4830    5.1932 C   0  0  0  0  0  0  0  0  0  0  0  0
    5.0776    3.6366    4.3190 N   0  0  0  0  0  0  0  0  0  0  0  0
    3.3746    2.1936    3.3039 C   0  0  0  0  0  0  0  0  0  0  0  0
    2.1959    3.5213    2.2586 O   0  0  0  0  0  0  0  0  0  0  0  0
    1.7289    2.7335    0.8366 C   0  0  0  0  0  0  0  0  0  0  0  0
    1.4240    1.2253    0.5826 C   0  0  0  0  0  0  0  0  0  0  0  0
    0.1567    0.7361    0.2015 N   0  0  0  0  0  0  0  0  0  0  0  0
    2.2815    0.2466    0.2697 N   0  0  0  0  0  0  0  0  0  0  0  0
   -0.8906   -1.4259   -0.0166 C   0  0  0  0  0  0  0  0  0  0  0  0
   -3.7212    2.2512   -1.0350 C   0  0  0  0  0  0  0  0  0  0  0  0
   -4.8944    3.0027   -0.9348 C   0  0  0  0  0  0  0  0  0  0  0  0
   -5.7780    2.7867    0.1245 C   0  0  0  0  0  0  0  0  0  0  0  0
   -4.0444    0.4130    1.8257 H   0  0  0  0  0  0  0  0  0  0  0  0
   -6.1580    1.6923    1.9407 H   0  0  0  0  0  0  0  0  0  0  0  0
   -3.0259   -1.3531   -0.0241 H   0  0  0  0  0  0  0  0  0  0  0  0
    4.8245    3.5283    2.3616 H   0  0  0  0  0  0  0  0  0  0  0  0
    2.7792    3.3507    8.8819 H   0  0  0  0  0  0  0  0  0  0  0  0
    1.3888    3.0790    6.8436 H   0  0  0  0  0  0  0  0  0  0  0  0
    7.3206    3.6954    8.5742 H   0  0  0  0  0  0  0  0  0  0  0  0
    6.7480    5.3934    8.3735 H   0  0  0  0  0  0  0  0  0  0  0  0
    7.0310    4.7214    9.9731 H   0  0  0  0  0  0  0  0  0  0  0  0
    6.1537    4.0192    6.4718 H   0  0  0  0  0  0  0  0  0  0  0  0
    3.3683    1.3616    4.0158 H   0  0  0  0  0  0  0  0  0  0  0  0
    2.4902    2.9748    0.0589 H   0  0  0  0  0  0  0  0  0  0  0  0
    0.8618    3.3277    0.5146 H   0  0  0  0  0  0  0  0  0  0  0  0
   -0.8271   -2.5121   -0.0103 H   0  0  0  0  0  0  0  0  0  0  0  0
   -3.0514    2.4037   -1.8771 H   0  0  0  0  0  0  0  0  0  0  0  0
   -5.1099    3.7763   -1.6683 H   0  0  0  0  0  0  0  0  0  0  0  0
   -6.6959    3.3668    0.1926 H   0  0  0  0  0  0  0  0  0  0  0  0
  1  6  2  0  0  0  0
  1 24  1  0  0  0  0
  2  8  2  0  0  0  0
  2 25  1  0  0  0  0
  3  4  2  0  0  0  0
  3  6  1  0  0  0  0
  3 27  1  0  0  0  0
  4  5  1  0  0  0  0
  4 30  1  0  0  0  0
  5 29  2  0  0  0  0
  5 31  1  0  0  0  0
  6  7  1  0  0  0  0
  7 26  2  0  0  0  0
  7 32  1  0  0  0  0
  8 24  1  0  0  0  0
  8 26  1  0  0  0  0
  9 18  2  0  0  0  0
  9 20  1  0  0  0  0
  9 21  1  0  0  0  0
 10 19  1  0  0  0  0
 10 20  2  0  0  0  0
 10 33  1  0  0  0  0
 11 17  1  0  0  0  0
 11 18  1  0  0  0  0
 11 19  2  0  0  0  0
 12 13  2  0  0  0  0
 12 16  1  0  0  0  0
 12 34  1  0  0  0  0
 13 18  1  0  0  0  0
 13 35  1  0  0  0  0
 14 15  1  0  0  0  0
 14 36  1  0  0  0  0
 14 37  1  0  0  0  0
 14 38  1  0  0  0  0
 15 16  1  0  0  0  0
 16 17  2  0  0  0  0
 17 39  1  0  0  0  0
 20 40  1  0  0  0  0
 21 22  1  0  0  0  0
 22 23  1  0  0  0  0
 22 41  1  0  0  0  0
 22 42  1  0  0  0  0
 23 24  1  0  0  0  0
 23 25  2  0  0  0  0
 26 43  1  0  0  0  0
 27 28  2  0  0  0  0
 27 44  1  0  0  0  0
 28 29  1  0  0  0  0
 28 45  1  0  0  0  0
 29 46  1  0  0  0  0
M  END
>  <DRUGBANK_ID>
DB08079

>  <SECONDARY_ACCESSION_NUMBERS>
DB12603

>  <COMMON_NAME>
AMG-208

>  <CAS_NUMBER>
1002304-34-8

>  <UNII>
Y2SR66P7VM

>  <SYNONYMS>
7-methoxy-4-[(6-phenyl[1,2,4]triazolo[4,3-b]pyridazin-3-yl)methoxy]quinoline

$$$$
