
 OpenBabel10282417153D

 47 48  0  0  0  0  0  0  0  0999 V2000
    1.0350    0.0626    0.1084 C   0  0  0  0  0  0  0  0  0  0  0  0
   -0.9175    4.1289   -0.5387 C   0  0  0  0  0  0  0  0  0  0  0  0
   -3.8080    1.5145   -2.8744 C   0  0  0  0  0  0  0  0  0  0  0  0
   -3.1204    2.7014   -3.0968 C   0  0  0  0  0  0  0  0  0  0  0  0
   -3.0906    0.3320   -2.7263 C   0  0  0  0  0  0  0  0  0  0  0  0
   -1.7228    2.6916   -3.2126 C   0  0  0  0  0  0  0  0  0  0  0  0
   -1.6897    0.3575   -2.6723 C   0  0  0  0  0  0  0  0  0  0  0  0
    1.1871    2.1080   -1.2996 C   0  0  0  0  0  0  0  0  0  0  0  0
    0.5403    1.5884   -2.6298 C   0  0  0  0  0  0  0  0  0  0  0  0
   -3.1667    0.7439    1.6098 C   0  0  0  0  0  0  0  0  0  0  0  0
   -4.3509    2.6631    2.4723 C   0  0  0  0  0  0  0  0  0  0  0  0
   -3.6356   -0.0351    2.6607 C   0  0  0  0  0  0  0  0  0  0  0  0
   -4.8760    1.8679    3.4903 C   0  0  0  0  0  0  0  0  0  0  0  0
    0.6681    1.5580    0.0421 C   0  0  3  0  0  0  0  0  0  0  0  0
   -1.3531    3.0601    0.4584 C   0  0  3  0  0  0  0  0  0  0  0  0
   -0.9738    1.5496   -2.8699 C   0  0  0  0  0  0  0  0  0  0  0  0
   -3.4949    2.1130    1.5268 C   0  0  0  0  0  0  0  0  0  0  0  0
   -4.4888    0.5320    3.5783 C   0  0  0  0  0  0  0  0  0  0  0  0
   -2.9203    2.9492    0.4054 C   0  0  3  0  0  0  0  0  0  0  0  0
   -0.7577    1.7192    0.2423 N   0  0  0  0  0  0  0  0  0  0  0  0
   -4.9848   -0.2042    4.6148 O   0  0  0  0  0  0  0  0  0  0  0  0
   -3.5416    4.2413    0.3739 O   0  0  0  0  0  0  0  0  0  0  0  0
    0.6501   -0.4952   -0.7515 H   0  0  0  0  0  0  0  0  0  0  0  0
    0.6601   -0.4276    1.0127 H   0  0  0  0  0  0  0  0  0  0  0  0
    2.1265   -0.0490    0.1022 H   0  0  0  0  0  0  0  0  0  0  0  0
   -0.8084    3.6529   -1.4846 H   0  0  0  0  0  0  0  0  0  0  0  0
   -1.6310    4.9334   -0.7255 H   0  0  0  0  0  0  0  0  0  0  0  0
    0.0551    4.5684   -0.3241 H   0  0  0  0  0  0  0  0  0  0  0  0
   -4.8901    1.5227   -2.7613 H   0  0  0  0  0  0  0  0  0  0  0  0
   -3.6611    3.6481   -3.0824 H   0  0  0  0  0  0  0  0  0  0  0  0
   -3.6247   -0.6038   -2.5862 H   0  0  0  0  0  0  0  0  0  0  0  0
   -1.2305    3.6441   -3.4090 H   0  0  0  0  0  0  0  0  0  0  0  0
   -1.1664   -0.5580   -2.4092 H   0  0  0  0  0  0  0  0  0  0  0  0
    1.2044    3.1980   -1.2834 H   0  0  0  0  0  0  0  0  0  0  0  0
    2.2610    1.8723   -1.3399 H   0  0  0  0  0  0  0  0  0  0  0  0
    0.9807    2.1890   -3.4342 H   0  0  0  0  0  0  0  0  0  0  0  0
    0.9219    0.5733   -2.7833 H   0  0  0  0  0  0  0  0  0  0  0  0
   -2.5276    0.2662    0.8815 H   0  0  0  0  0  0  0  0  0  0  0  0
   -4.6345    3.7129    2.4292 H   0  0  0  0  0  0  0  0  0  0  0  0
   -3.3107   -1.0711    2.7168 H   0  0  0  0  0  0  0  0  0  0  0  0
   -5.5676    2.2928    4.1996 H   0  0  0  0  0  0  0  0  0  0  0  0
    1.1768    2.0421    0.8858 H   0  0  0  0  0  0  0  0  0  0  0  0
   -1.0685    3.4142    1.4551 H   0  0  0  0  0  0  0  0  0  0  0  0
   -3.2330    2.4652   -0.5164 H   0  0  0  0  0  0  0  0  0  0  0  0
   -1.2643    1.2516   -0.5060 H   0  0  0  0  0  0  0  0  0  0  0  0
   -4.5614   -1.0767    4.5727 H   0  0  0  0  0  0  0  0  0  0  0  0
   -3.1054    4.7715    1.0603 H   0  0  0  0  0  0  0  0  0  0  0  0
  1 23  1  0  0  0  0
  1 24  1  0  0  0  0
  1 25  1  0  0  0  0
  2 26  1  0  0  0  0
  2 27  1  0  0  0  0
  2 28  1  0  0  0  0
  3 29  1  0  0  0  0
  4  3  2  0  0  0  0
  4 30  1  0  0  0  0
  5  3  1  0  0  0  0
  5 31  1  0  0  0  0
  6  4  1  0  0  0  0
  6 32  1  0  0  0  0
  7  5  2  0  0  0  0
  7 33  1  0  0  0  0
  8 34  1  0  0  0  0
  8 35  1  0  0  0  0
  9  8  1  0  0  0  0
  9 36  1  0  0  0  0
  9 37  1  0  0  0  0
 10 38  1  0  0  0  0
 11 39  1  0  0  0  0
 12 10  1  0  0  0  0
 12 40  1  0  0  0  0
 13 11  2  0  0  0  0
 13 41  1  0  0  0  0
 14  1  1  0  0  0  0
 14  8  1  0  0  0  0
 14 42  1  0  0  0  0
 15  2  1  0  0  0  0
 15 43  1  0  0  0  0
 16  6  2  0  0  0  0
 16  7  1  0  0  0  0
 16  9  1  0  0  0  0
 17 10  2  0  0  0  0
 17 11  1  0  0  0  0
 18 12  2  0  0  0  0
 18 13  1  0  0  0  0
 19 15  1  0  0  0  0
 19 17  1  0  0  0  0
 19 44  1  0  0  0  0
 20 14  1  0  0  0  0
 20 15  1  0  0  0  0
 20 45  1  0  0  0  0
 21 18  1  0  0  0  0
 21 46  1  0  0  0  0
 22 19  1  0  0  0  0
 22 47  1  0  0  0  0
M  END
>  <DRUGBANK_ID>
DB06152

>  <COMMON_NAME>
Nylidrin

>  <CAS_NUMBER>
447-41-6

>  <UNII>
695DKH33EI

>  <SYNONYMS>
Bufenina; Buphenin; Buphenine; Bupheninum

$$$$
