
 OpenBabel10282417133D

 44 43  0  0  0  0  0  0  0  0999 V2000
   -1.9694    0.1851   -3.8973 S   0  0  0  0  0  0  0  0  0  0  0  0
   -5.9243    2.4107   -2.7772 O   0  0  0  0  0  0  0  0  0  0  0  0
   -5.2312   -1.7057   -0.2052 O   0  0  0  0  0  0  0  0  0  0  0  0
   -8.0293   -3.4455   -1.9020 O   0  0  0  0  0  0  0  0  0  0  0  0
   -6.9824   -4.7352   -3.4569 O   0  0  0  0  0  0  0  0  0  0  0  0
   -2.7444    2.3601    1.4923 O   0  0  0  0  0  0  0  0  0  0  0  0
   -2.0538    0.4870    2.5523 O   0  0  0  0  0  0  0  0  0  0  0  0
   -4.5103    0.7847   -2.3325 N   0  0  0  0  0  0  0  0  0  0  0  0
   -3.3458   -0.7453    0.3566 N   0  0  0  0  0  0  0  0  0  0  0  0
   -4.6482   -3.3109   -2.3703 N   0  0  0  0  0  0  0  0  0  0  0  0
   -6.9171   -0.7118   -4.1276 C   0  0  0  0  0  0  0  0  0  0  0  0
   -5.8537   -1.8276   -4.1174 C   0  0  0  0  0  0  0  0  0  0  0  0
   -6.9567    0.2413   -2.9013 C   0  0  0  0  0  0  0  0  0  0  0  0
   -3.9912   -0.5433   -2.0333 C   0  0  1  0  0  0  0  0  0  0  0  0
   -5.9391   -2.6875   -2.8045 C   0  0  1  0  0  0  0  0  0  0  0  0
   -5.7659    1.1906   -2.6818 C   0  0  0  0  0  0  0  0  0  0  0  0
   -2.7488   -1.0716   -2.8161 C   0  0  0  0  0  0  0  0  0  0  0  0
   -4.2442   -1.0704   -0.5829 C   0  0  0  0  0  0  0  0  0  0  0  0
   -7.0342   -3.7075   -2.7781 C   0  0  0  0  0  0  0  0  0  0  0  0
   -2.4665    0.3704    0.1801 C   0  0  2  0  0  0  0  0  0  0  0  0
   -1.1836   -0.1398   -0.3737 C   0  0  0  0  0  0  0  0  0  0  0  0
   -2.3596    1.0579    1.5320 C   0  0  0  0  0  0  0  0  0  0  0  0
   -0.2343   -0.8061    0.2827 C   0  0  0  0  0  0  0  0  0  0  0  0
   -3.8320    1.5291   -2.4099 H   0  0  0  0  0  0  0  0  0  0  0  0
   -3.5753   -1.0826    1.2904 H   0  0  0  0  0  0  0  0  0  0  0  0
   -4.6175   -4.2924   -2.6466 H   0  0  0  0  0  0  0  0  0  0  0  0
   -4.6431   -3.3435   -1.3373 H   0  0  0  0  0  0  0  0  0  0  0  0
   -2.9658    0.2493   -4.7964 H   0  0  0  0  0  0  0  0  0  0  0  0
   -7.9064   -2.6660   -1.3161 H   0  0  0  0  0  0  0  0  0  0  0  0
   -3.0789    2.6813    0.6328 H   0  0  0  0  0  0  0  0  0  0  0  0
   -7.8920   -1.1996   -4.2361 H   0  0  0  0  0  0  0  0  0  0  0  0
   -6.7684   -0.0951   -5.0235 H   0  0  0  0  0  0  0  0  0  0  0  0
   -5.8609   -2.4722   -4.9959 H   0  0  0  0  0  0  0  0  0  0  0  0
   -4.9221   -1.2661   -4.2847 H   0  0  0  0  0  0  0  0  0  0  0  0
   -7.2005   -0.2672   -1.9636 H   0  0  0  0  0  0  0  0  0  0  0  0
   -7.8273    0.8988   -3.0631 H   0  0  0  0  0  0  0  0  0  0  0  0
   -4.7355   -1.0559   -2.5212 H   0  0  0  0  0  0  0  0  0  0  0  0
   -6.2422   -2.0042   -2.0170 H   0  0  0  0  0  0  0  0  0  0  0  0
   -2.9966   -1.8806   -3.5137 H   0  0  0  0  0  0  0  0  0  0  0  0
   -2.0465   -1.5883   -2.1561 H   0  0  0  0  0  0  0  0  0  0  0  0
   -2.9194    1.0675   -0.5263 H   0  0  0  0  0  0  0  0  0  0  0  0
   -1.0032   -0.0003   -1.4306 H   0  0  0  0  0  0  0  0  0  0  0  0
    0.6229   -1.1918   -0.2573 H   0  0  0  0  0  0  0  0  0  0  0  0
   -0.3085   -0.9671    1.3504 H   0  0  0  0  0  0  0  0  0  0  0  0
  1 17  1  0  0  0  0
  1 28  1  0  0  0  0
  2 16  2  0  0  0  0
  3 18  2  0  0  0  0
  4 19  1  0  0  0  0
  4 29  1  0  0  0  0
  5 19  2  0  0  0  0
  6 22  1  0  0  0  0
  6 30  1  0  0  0  0
  7 22  2  0  0  0  0
  8 16  1  0  0  0  0
  8 24  1  0  0  0  0
  9 18  1  0  0  0  0
  9 25  1  0  0  0  0
 10 26  1  0  0  0  0
 10 27  1  0  0  0  0
 11 12  1  0  0  0  0
 11 13  1  0  0  0  0
 11 31  1  0  0  0  0
 11 32  1  0  0  0  0
 12 33  1  0  0  0  0
 12 34  1  0  0  0  0
 13 16  1  0  0  0  0
 13 35  1  0  0  0  0
 13 36  1  0  0  0  0
 14 18  1  0  0  0  0
 14 37  1  6  0  0  0
 14 17  1  0  0  0  0
 14  8  1  0  0  0  0
 15 19  1  0  0  0  0
 15 38  1  1  0  0  0
 15 12  1  0  0  0  0
 15 10  1  0  0  0  0
 17 39  1  0  0  0  0
 17 40  1  0  0  0  0
 20 22  1  0  0  0  0
 20 41  1  6  0  0  0
 20 21  1  0  0  0  0
 20  9  1  0  0  0  0
 21 23  2  0  0  0  0
 21 42  1  0  0  0  0
 23 43  1  0  0  0  0
 23 44  1  0  0  0  0
M  END
>  <DRUGBANK_ID>
DB03427

>  <SECONDARY_ACCESSION_NUMBERS>
EXPT00577

>  <COMMON_NAME>
delta-(L-alpha-Aminoadipoyl)-L-cysteinyl-D-vinylglycine

$$$$
