
 OpenBabel10282417153D

 94 95  0  0  0  0  0  0  0  0999 V2000
    0.9532    0.1247   -0.0954 S   0  0  0  0  0  0  0  0  0  0  0  0
    3.4177   -1.5485   -0.5940 S   0  0  0  0  0  0  0  0  0  0  0  0
   -0.3379    5.4752    2.1857 O   0  0  0  0  0  0  0  0  0  0  0  0
    2.0046   -5.9971    3.0160 O   0  0  0  0  0  0  0  0  0  0  0  0
   -1.1212    6.2208    0.1167 O   0  0  0  0  0  0  0  0  0  0  0  0
   -3.9385    7.5350    3.0910 O   0  0  0  0  0  0  0  0  0  0  0  0
   -3.5503    6.3650    1.2292 O   0  0  0  0  0  0  0  0  0  0  0  0
    1.7295    5.3701    0.0590 C   0  0  0  0  0  0  0  0  0  0  0  0
   -2.0598    3.1549    3.0236 C   0  0  0  0  0  0  0  0  0  0  0  0
    1.0609   -3.2579    3.9330 C   0  0  0  0  0  0  0  0  0  0  0  0
    3.5039   -6.5794    0.8051 C   0  0  0  0  0  0  0  0  0  0  0  0
    0.8708    4.1755    0.6040 C   0  0  0  0  0  0  0  0  0  0  0  0
   -0.8876    3.0963    2.0157 C   0  0  0  0  0  0  0  0  0  0  0  0
    1.8190   -3.6145    2.6446 C   0  0  0  0  0  0  0  0  0  0  0  0
    3.0019   -5.1571    1.1363 C   0  0  0  0  0  0  0  0  0  0  0  0
   -0.1327    4.2375    1.5790 C   0  0  0  0  0  0  0  0  0  0  0  0
    2.2604   -4.8875    2.3005 C   0  0  0  0  0  0  0  0  0  0  0  0
    1.0730    2.8930    0.0664 C   0  0  0  0  0  0  0  0  0  0  0  0
   -0.5368    1.8311    1.4862 C   0  0  0  0  0  0  0  0  0  0  0  0
    0.4808    1.7194    0.5443 C   0  0  0  0  0  0  0  0  0  0  0  0
    3.1871    5.1099    0.4438 C   0  0  0  0  0  0  0  0  0  0  0  0
    1.5411    5.4267   -1.4739 C   0  0  0  0  0  0  0  0  0  0  0  0
    1.6025    6.8352    0.5800 C   0  0  0  0  0  0  0  0  0  0  0  0
   -3.3619    2.6181    2.3758 C   0  0  0  0  0  0  0  0  0  0  0  0
   -1.7034    2.3784    4.2889 C   0  0  0  0  0  0  0  0  0  0  0  0
   -2.3890    4.5586    3.5134 C   0  0  0  0  0  0  0  0  0  0  0  0
    2.8780   -2.7891    0.5643 C   0  0  0  0  0  0  0  0  0  0  0  0
    2.1166   -2.5902    1.7201 C   0  0  0  0  0  0  0  0  0  0  0  0
    3.2973   -4.0865    0.2774 C   0  0  0  0  0  0  0  0  0  0  0  0
    2.8285    0.0954    0.0382 C   0  0  0  0  0  0  0  0  0  0  0  0
    1.8909   -2.2616    4.7630 C   0  0  0  0  0  0  0  0  0  0  0  0
   -0.3075   -2.6590    3.5756 C   0  0  0  0  0  0  0  0  0  0  0  0
    0.7720   -4.4349    4.8755 C   0  0  0  0  0  0  0  0  0  0  0  0
    2.8921   -7.0202   -0.5308 C   0  0  0  0  0  0  0  0  0  0  0  0
    5.0372   -6.5510    0.7266 C   0  0  0  0  0  0  0  0  0  0  0  0
    3.1518   -7.6914    1.8304 C   0  0  0  0  0  0  0  0  0  0  0  0
    3.4747    1.0793   -0.9503 C   0  0  0  0  0  0  0  0  0  0  0  0
    3.3871    0.4061    1.4336 C   0  0  0  0  0  0  0  0  0  0  0  0
   -0.8432    6.4055    1.3007 C   0  0  0  0  0  0  0  0  0  0  0  0
   -0.8843    7.7821    1.9596 C   0  0  0  0  0  0  0  0  0  0  0  0
   -2.2366    8.3334    1.5916 C   0  0  0  0  0  0  0  0  0  0  0  0
   -3.3116    7.3266    1.9165 C   0  0  0  0  0  0  0  0  0  0  0  0
    1.5554   -6.0110    3.8502 H   0  0  0  0  0  0  0  0  0  0  0  0
   -3.9073    8.4556    3.3947 H   0  0  0  0  0  0  0  0  0  0  0  0
    1.7026    2.8148   -0.8031 H   0  0  0  0  0  0  0  0  0  0  0  0
   -1.0693    0.9311    1.8011 H   0  0  0  0  0  0  0  0  0  0  0  0
    3.5920    4.2058    0.0015 H   0  0  0  0  0  0  0  0  0  0  0  0
    3.8131    5.9476    0.1140 H   0  0  0  0  0  0  0  0  0  0  0  0
    3.2714    5.0466    1.5370 H   0  0  0  0  0  0  0  0  0  0  0  0
    0.4803    5.4842   -1.7546 H   0  0  0  0  0  0  0  0  0  0  0  0
    2.0424    6.2996   -1.8996 H   0  0  0  0  0  0  0  0  0  0  0  0
    1.9504    4.5445   -1.9734 H   0  0  0  0  0  0  0  0  0  0  0  0
    0.7730    7.3692    0.1186 H   0  0  0  0  0  0  0  0  0  0  0  0
    1.5841    6.8625    1.6787 H   0  0  0  0  0  0  0  0  0  0  0  0
    2.4127    7.5092    0.2857 H   0  0  0  0  0  0  0  0  0  0  0  0
   -3.2982    1.5592    2.1095 H   0  0  0  0  0  0  0  0  0  0  0  0
   -4.2153    2.7332    3.0562 H   0  0  0  0  0  0  0  0  0  0  0  0
   -3.6073    3.1720    1.4588 H   0  0  0  0  0  0  0  0  0  0  0  0
   -0.7819    2.7861    4.7222 H   0  0  0  0  0  0  0  0  0  0  0  0
   -2.4988    2.4836    5.0355 H   0  0  0  0  0  0  0  0  0  0  0  0
   -1.5531    1.3142    4.0978 H   0  0  0  0  0  0  0  0  0  0  0  0
   -1.5449    5.0576    3.9982 H   0  0  0  0  0  0  0  0  0  0  0  0
   -2.6714    5.0909    2.6279 H   0  0  0  0  0  0  0  0  0  0  0  0
   -3.2367    4.6282    4.1984 H   0  0  0  0  0  0  0  0  0  0  0  0
    1.7173   -1.6106    1.9381 H   0  0  0  0  0  0  0  0  0  0  0  0
    3.8646   -4.2679   -0.6348 H   0  0  0  0  0  0  0  0  0  0  0  0
    2.0495   -1.3129    4.2435 H   0  0  0  0  0  0  0  0  0  0  0  0
    1.3861   -2.0381    5.7095 H   0  0  0  0  0  0  0  0  0  0  0  0
    2.8770   -2.6799    5.0036 H   0  0  0  0  0  0  0  0  0  0  0  0
   -0.8861   -3.3612    2.9624 H   0  0  0  0  0  0  0  0  0  0  0  0
   -0.8833   -2.4516    4.4835 H   0  0  0  0  0  0  0  0  0  0  0  0
   -0.2227   -1.7218    3.0191 H   0  0  0  0  0  0  0  0  0  0  0  0
    0.1181   -5.1609    4.3717 H   0  0  0  0  0  0  0  0  0  0  0  0
    1.7169   -4.8887    5.2095 H   0  0  0  0  0  0  0  0  0  0  0  0
    0.2443   -4.1603    5.7882 H   0  0  0  0  0  0  0  0  0  0  0  0
    3.1864   -6.3674   -1.3575 H   0  0  0  0  0  0  0  0  0  0  0  0
    3.2124   -8.0365   -0.7796 H   0  0  0  0  0  0  0  0  0  0  0  0
    1.7959   -7.0142   -0.4765 H   0  0  0  0  0  0  0  0  0  0  0  0
    5.4685   -6.2108    1.6770 H   0  0  0  0  0  0  0  0  0  0  0  0
    5.4272   -7.5520    0.5186 H   0  0  0  0  0  0  0  0  0  0  0  0
    5.4015   -5.8836   -0.0595 H   0  0  0  0  0  0  0  0  0  0  0  0
    3.5814   -7.4594    2.8175 H   0  0  0  0  0  0  0  0  0  0  0  0
    2.0609   -7.8140    1.9129 H   0  0  0  0  0  0  0  0  0  0  0  0
    3.5338   -8.6747    1.5638 H   0  0  0  0  0  0  0  0  0  0  0  0
    3.3925    2.1020   -0.5939 H   0  0  0  0  0  0  0  0  0  0  0  0
    4.5606    0.9539   -1.0222 H   0  0  0  0  0  0  0  0  0  0  0  0
    3.0454    1.0149   -1.9572 H   0  0  0  0  0  0  0  0  0  0  0  0
    3.0630    1.3915    1.7806 H   0  0  0  0  0  0  0  0  0  0  0  0
    3.1058   -0.2942    2.2158 H   0  0  0  0  0  0  0  0  0  0  0  0
    4.4835    0.4118    1.4209 H   0  0  0  0  0  0  0  0  0  0  0  0
   -0.6710    7.7245    3.0335 H   0  0  0  0  0  0  0  0  0  0  0  0
   -0.1170    8.4627    1.5591 H   0  0  0  0  0  0  0  0  0  0  0  0
   -2.4194    9.3175    2.0194 H   0  0  0  0  0  0  0  0  0  0  0  0
   -2.2639    8.4459    0.5009 H   0  0  0  0  0  0  0  0  0  0  0  0
  1 20  1  0  0  0  0
  1 30  1  0  0  0  0
  2 27  1  0  0  0  0
  2 30  1  0  0  0  0
  3 16  1  0  0  0  0
  3 39  1  0  0  0  0
  4 17  1  0  0  0  0
  4 43  1  0  0  0  0
  5 39  2  0  0  0  0
  6 42  1  0  0  0  0
  6 44  1  0  0  0  0
  7 42  2  0  0  0  0
  8 12  1  0  0  0  0
  8 21  1  0  0  0  0
  8 22  1  0  0  0  0
  8 23  1  0  0  0  0
  9 13  1  0  0  0  0
  9 24  1  0  0  0  0
  9 25  1  0  0  0  0
  9 26  1  0  0  0  0
 10 14  1  0  0  0  0
 10 31  1  0  0  0  0
 10 32  1  0  0  0  0
 10 33  1  0  0  0  0
 11 15  1  0  0  0  0
 11 34  1  0  0  0  0
 11 35  1  0  0  0  0
 11 36  1  0  0  0  0
 12 16  2  0  0  0  0
 12 18  1  0  0  0  0
 13 16  1  0  0  0  0
 13 19  2  0  0  0  0
 14 17  2  0  0  0  0
 14 28  1  0  0  0  0
 15 17  1  0  0  0  0
 15 29  2  0  0  0  0
 18 20  2  0  0  0  0
 18 45  1  0  0  0  0
 19 20  1  0  0  0  0
 19 46  1  0  0  0  0
 21 47  1  0  0  0  0
 21 48  1  0  0  0  0
 21 49  1  0  0  0  0
 22 50  1  0  0  0  0
 22 51  1  0  0  0  0
 22 52  1  0  0  0  0
 23 53  1  0  0  0  0
 23 54  1  0  0  0  0
 23 55  1  0  0  0  0
 24 56  1  0  0  0  0
 24 57  1  0  0  0  0
 24 58  1  0  0  0  0
 25 59  1  0  0  0  0
 25 60  1  0  0  0  0
 25 61  1  0  0  0  0
 26 62  1  0  0  0  0
 26 63  1  0  0  0  0
 26 64  1  0  0  0  0
 27 28  2  0  0  0  0
 27 29  1  0  0  0  0
 28 65  1  0  0  0  0
 29 66  1  0  0  0  0
 30 37  1  0  0  0  0
 30 38  1  0  0  0  0
 31 67  1  0  0  0  0
 31 68  1  0  0  0  0
 31 69  1  0  0  0  0
 32 70  1  0  0  0  0
 32 71  1  0  0  0  0
 32 72  1  0  0  0  0
 33 73  1  0  0  0  0
 33 74  1  0  0  0  0
 33 75  1  0  0  0  0
 34 76  1  0  0  0  0
 34 77  1  0  0  0  0
 34 78  1  0  0  0  0
 35 79  1  0  0  0  0
 35 80  1  0  0  0  0
 35 81  1  0  0  0  0
 36 82  1  0  0  0  0
 36 83  1  0  0  0  0
 36 84  1  0  0  0  0
 37 85  1  0  0  0  0
 37 86  1  0  0  0  0
 37 87  1  0  0  0  0
 38 88  1  0  0  0  0
 38 89  1  0  0  0  0
 38 90  1  0  0  0  0
 39 40  1  0  0  0  0
 40 41  1  0  0  0  0
 40 91  1  0  0  0  0
 40 92  1  0  0  0  0
 41 42  1  0  0  0  0
 41 93  1  0  0  0  0
 41 94  1  0  0  0  0
M  END
>  <DRUGBANK_ID>
DB05399

>  <COMMON_NAME>
Succinobucol

>  <CAS_NUMBER>
216167-82-7

>  <UNII>
J1J54V24R4

>  <SYNONYMS>
Succinobucol

$$$$
