1560
 OpenBabel10282417113D

 22 22  0  0  1  0  0  0  0  0999 V2000
    1.0665    0.0719   -0.1253 O   0  0  0  0  0  0  0  0  0  0  0  0
    3.8980   -0.1761    1.8397 N   0  0  0  0  0  0  0  0  0  0  0  0
    3.0788    0.7527    1.0463 C   0  0  2  0  0  0  0  0  0  0  0  0
    2.2984    0.0190   -0.0592 C   0  0  0  0  0  0  0  0  0  0  0  0
    3.0453   -0.6982   -1.1290 C   0  0  0  0  0  0  0  0  0  0  0  0
    3.9455    1.8582    0.4533 C   0  0  0  0  0  0  0  0  0  0  0  0
    2.6856   -0.5060   -2.4670 C   0  0  0  0  0  0  0  0  0  0  0  0
    4.1232   -1.5319   -0.8179 C   0  0  0  0  0  0  0  0  0  0  0  0
    3.4214   -1.1326   -3.4774 C   0  0  0  0  0  0  0  0  0  0  0  0
    4.8867   -2.1097   -1.8263 C   0  0  0  0  0  0  0  0  0  0  0  0
    4.5205   -1.9316   -3.1553 C   0  0  0  0  0  0  0  0  0  0  0  0
    4.3730    0.3255    2.5871 H   0  0  0  0  0  0  0  0  0  0  0  0
    3.2904   -0.8672    2.2796 H   0  0  0  0  0  0  0  0  0  0  0  0
    2.3444    1.2059    1.7230 H   0  0  0  0  0  0  0  0  0  0  0  0
    3.3267    2.5822   -0.0887 H   0  0  0  0  0  0  0  0  0  0  0  0
    4.4867    2.3990    1.2369 H   0  0  0  0  0  0  0  0  0  0  0  0
    4.6842    1.4668   -0.2547 H   0  0  0  0  0  0  0  0  0  0  0  0
    1.8448    0.1338   -2.7267 H   0  0  0  0  0  0  0  0  0  0  0  0
    4.3888   -1.7557    0.2082 H   0  0  0  0  0  0  0  0  0  0  0  0
    3.1471   -0.9911   -4.5196 H   0  0  0  0  0  0  0  0  0  0  0  0
    5.7628   -2.6961   -1.5634 H   0  0  0  0  0  0  0  0  0  0  0  0
    5.0894   -2.4261   -3.9377 H   0  0  0  0  0  0  0  0  0  0  0  0
  1  4  2  0  0  0  0
  2 12  1  0  0  0  0
  2 13  1  0  0  0  0
  3  2  1  0  0  0  0
  3  4  1  0  0  0  0
  3  6  1  0  0  0  0
  3 14  1  1  0  0  0
  4  5  1  0  0  0  0
  5  7  2  0  0  0  0
  5  8  1  0  0  0  0
  6 15  1  0  0  0  0
  6 16  1  0  0  0  0
  6 17  1  0  0  0  0
  7  9  1  0  0  0  0
  7 18  1  0  0  0  0
  8 10  2  0  0  0  0
  8 19  1  0  0  0  0
  9 11  2  0  0  0  0
  9 20  1  0  0  0  0
 10 11  1  0  0  0  0
 10 21  1  0  0  0  0
 11 22  1  0  0  0  0
M  END
>  <DRUGBANK_ID>
DB01560

>  <COMMON_NAME>
Cathinone

>  <CAS_NUMBER>
71031-15-7

>  <UNII>
540EI4406J

>  <SYNONYMS>
alpha-Aminopropiophenone; Cathinone; Cathinonum; Catinona; D-Cathinone; Norephedrone

$$$$
