N24
 OpenBabel10282417173D

 32 34  0  0  0  0  0  0  0  0999 V2000
    1.0221   -1.0524   -0.5511 C   0  0  0  0  0  0  0  0  0  0  0  0
    0.3385    0.1479   -0.3257 C   0  0  0  0  0  0  0  0  0  0  0  0
   -1.5520    0.1417   -0.1761 Br  0  0  0  0  0  0  0  0  0  0  0  0
    1.0378    1.3211   -0.0824 C   0  0  0  0  0  0  0  0  0  0  0  0
    2.4281    1.2812   -0.0288 C   0  0  0  0  0  0  0  0  0  0  0  0
    3.0986    0.0541   -0.0756 C   0  0  0  0  0  0  0  0  0  0  0  0
    2.3989   -1.1484   -0.2782 C   0  0  0  0  0  0  0  0  0  0  0  0
    3.1086   -2.4674    0.0098 C   0  0  2  0  0  0  0  0  0  0  0  0
    2.9579   -3.7492   -1.2522 S   0  0  0  0  0  0  0  0  0  0  0  0
    3.4192   -5.0553   -0.0731 C   0  0  0  0  0  0  0  0  0  0  0  0
    3.0263   -4.5353    1.3001 C   0  0  0  0  0  0  0  0  0  0  0  0
    2.9007   -5.2597    2.2721 O   0  0  0  0  0  0  0  0  0  0  0  0
    2.7826   -3.1607    1.2685 N   0  0  0  0  0  0  0  0  0  0  0  0
    2.3029   -2.4725    2.4139 C   0  0  0  0  0  0  0  0  0  0  0  0
    3.0354   -2.3234    3.5855 C   0  0  0  0  0  0  0  0  0  0  0  0
    2.5173   -1.5115    4.6064 C   0  0  0  0  0  0  0  0  0  0  0  0
    1.3041   -0.8296    4.4526 C   0  0  0  0  0  0  0  0  0  0  0  0
    0.5320   -1.0620    3.3261 C   0  0  0  0  0  0  0  0  0  0  0  0
    0.9986   -1.9701    2.3936 C   0  0  0  0  0  0  0  0  0  0  0  0
    0.0930   -2.4818    1.5070 O   0  0  0  0  0  0  0  0  0  0  0  0
    3.3860   -1.3357    6.0820 Cl  0  0  0  0  0  0  0  0  0  0  0  0
    4.1874   -2.2625    0.0469 H   0  0  0  0  0  0  0  0  0  0  0  0
    0.4342   -1.9394   -0.7731 H   0  0  0  0  0  0  0  0  0  0  0  0
    0.5105    2.2587    0.0701 H   0  0  0  0  0  0  0  0  0  0  0  0
    2.9892    2.2017    0.1056 H   0  0  0  0  0  0  0  0  0  0  0  0
    4.1748    0.0448    0.0882 H   0  0  0  0  0  0  0  0  0  0  0  0
    2.8749   -5.9760   -0.2977 H   0  0  0  0  0  0  0  0  0  0  0  0
    4.4970   -5.2398   -0.0903 H   0  0  0  0  0  0  0  0  0  0  0  0
    3.9840   -2.8325    3.7217 H   0  0  0  0  0  0  0  0  0  0  0  0
    0.9247   -0.1696    5.2275 H   0  0  0  0  0  0  0  0  0  0  0  0
   -0.4337   -0.5859    3.1861 H   0  0  0  0  0  0  0  0  0  0  0  0
    0.5972   -3.1076    0.9569 H   0  0  0  0  0  0  0  0  0  0  0  0
  1  2  2  0  0  0  0
  1  7  1  0  0  0  0
  1 23  1  0  0  0  0
  2  3  1  0  0  0  0
  2  4  1  0  0  0  0
  4  5  2  0  0  0  0
  4 24  1  0  0  0  0
  5  6  1  0  0  0  0
  5 25  1  0  0  0  0
  6  7  2  0  0  0  0
  6 26  1  0  0  0  0
  8  7  1  0  0  0  0
  8  9  1  0  0  0  0
  8 13  1  0  0  0  0
  8 22  1  1  0  0  0
  9 10  1  0  0  0  0
 10 11  1  0  0  0  0
 10 27  1  0  0  0  0
 10 28  1  0  0  0  0
 11 12  2  0  0  0  0
 11 13  1  0  0  0  0
 13 14  1  0  0  0  0
 14 15  2  0  0  0  0
 14 19  1  0  0  0  0
 15 16  1  0  0  0  0
 15 29  1  0  0  0  0
 16 17  2  0  0  0  0
 16 21  1  0  0  0  0
 17 18  1  0  0  0  0
 17 30  1  0  0  0  0
 18 19  2  0  0  0  0
 18 31  1  0  0  0  0
 19 20  1  0  0  0  0
 20 32  1  0  0  0  0
M  END
>  <DRUGBANK_ID>
DB08236

>  <COMMON_NAME>
(2S)-2-(3-bromophenyl)-3-(5-chloro-2-hydroxyphenyl)-1,3-thiazolidin-4-one

$$$$
