TF3
 OpenBabel10282417173D

 50 51  0  0  0  0  0  0  0  0999 V2000
    0.2876    1.1615    0.3709 C   0  0  0  0  0  0  0  0  0  0  0  0
   -0.2954   -0.0775    0.6910 C   0  0  0  0  0  0  0  0  0  0  0  0
    1.6651    1.1885    0.1002 C   0  0  0  0  0  0  0  0  0  0  0  0
   -0.3250    2.3693    0.1341 O   0  0  0  0  0  0  0  0  0  0  0  0
    0.3859   -1.2467    0.3400 C   0  0  0  0  0  0  0  0  0  0  0  0
   -1.9021   -0.3543    1.2921 Cl  0  0  0  0  0  0  0  0  0  0  0  0
    2.4074    0.0030    0.0299 C   0  0  0  0  0  0  0  0  0  0  0  0
   -1.7294    2.4217   -0.1671 C   0  0  0  0  0  0  0  0  0  0  0  0
    1.7560   -1.2297    0.0855 C   0  0  0  0  0  0  0  0  0  0  0  0
   -2.1882    1.7454   -1.4545 C   0  0  0  0  0  0  0  0  0  0  0  0
    2.4881   -2.5491    0.0371 C   0  0  0  0  0  0  0  0  0  0  0  0
   -1.8152    0.4327   -1.7540 C   0  0  0  0  0  0  0  0  0  0  0  0
   -3.0755    2.3296   -2.3487 C   0  0  0  0  0  0  0  0  0  0  0  0
    2.1787   -3.3441    1.3112 C   0  0  0  0  0  0  0  0  0  0  0  0
   -2.3813   -0.3761   -2.6975 C   0  0  0  0  0  0  0  0  0  0  0  0
   -3.5597    1.5753   -3.4307 C   0  0  0  0  0  0  0  0  0  0  0  0
    1.5793   -4.5737    1.1186 N   0  0  0  0  0  0  0  0  0  0  0  0
    2.3833   -2.8793    2.4201 O   0  0  0  0  0  0  0  0  0  0  0  0
   -3.1908    0.2264   -3.6139 C   0  0  0  0  0  0  0  0  0  0  0  0
    1.1765   -5.3954    2.2554 C   0  0  0  0  0  0  0  0  0  0  0  0
   -3.4634   -0.5713   -4.8535 C   0  0  0  0  0  0  0  0  0  0  0  0
   -0.3219   -5.7235    2.2265 C   0  0  0  0  0  0  0  0  0  0  0  0
   -4.9554   -0.7360   -5.0227 C   0  0  0  0  0  0  0  0  0  0  0  0
   -2.7693    0.1143   -6.0243 C   0  0  0  0  0  0  0  0  0  0  0  0
   -0.6758   -6.5025    1.0350 N   0  0  0  0  0  0  0  0  0  0  0  0
    2.1666    2.1411   -0.0641 H   0  0  0  0  0  0  0  0  0  0  0  0
   -0.1641   -2.1850    0.2753 H   0  0  0  0  0  0  0  0  0  0  0  0
    3.4882    0.0556   -0.0748 H   0  0  0  0  0  0  0  0  0  0  0  0
   -2.2925    2.0692    0.7012 H   0  0  0  0  0  0  0  0  0  0  0  0
   -1.9994    3.4858   -0.2121 H   0  0  0  0  0  0  0  0  0  0  0  0
    2.2149   -3.1024   -0.8691 H   0  0  0  0  0  0  0  0  0  0  0  0
    3.5702   -2.3856    0.0122 H   0  0  0  0  0  0  0  0  0  0  0  0
   -0.9814   -0.0531   -1.3156 H   0  0  0  0  0  0  0  0  0  0  0  0
   -3.3507    3.3775   -2.2618 H   0  0  0  0  0  0  0  0  0  0  0  0
   -2.0679   -1.4146   -2.7584 H   0  0  0  0  0  0  0  0  0  0  0  0
   -4.2072    2.0558   -4.1579 H   0  0  0  0  0  0  0  0  0  0  0  0
    1.4813   -4.9686    0.1947 H   0  0  0  0  0  0  0  0  0  0  0  0
    1.7701   -6.3154    2.2199 H   0  0  0  0  0  0  0  0  0  0  0  0
    1.4106   -4.8869    3.1962 H   0  0  0  0  0  0  0  0  0  0  0  0
   -3.0203   -1.5762   -4.7575 H   0  0  0  0  0  0  0  0  0  0  0  0
   -0.5871   -6.2979    3.1210 H   0  0  0  0  0  0  0  0  0  0  0  0
   -0.9101   -4.7985    2.2382 H   0  0  0  0  0  0  0  0  0  0  0  0
   -5.4480    0.2360   -5.1075 H   0  0  0  0  0  0  0  0  0  0  0  0
   -5.1736   -1.3237   -5.9154 H   0  0  0  0  0  0  0  0  0  0  0  0
   -5.3785   -1.2508   -4.1510 H   0  0  0  0  0  0  0  0  0  0  0  0
   -1.6862    0.1837   -5.8489 H   0  0  0  0  0  0  0  0  0  0  0  0
   -2.9284   -0.4427   -6.9488 H   0  0  0  0  0  0  0  0  0  0  0  0
   -3.1390    1.1349   -6.1626 H   0  0  0  0  0  0  0  0  0  0  0  0
   -1.6809   -6.6767    1.0419 H   0  0  0  0  0  0  0  0  0  0  0  0
   -0.4950   -5.9435    0.2054 H   0  0  0  0  0  0  0  0  0  0  0  0
  1  2  2  0  0  0  0
  1  3  1  0  0  0  0
  1  4  1  0  0  0  0
  2  5  1  0  0  0  0
  2  6  1  0  0  0  0
  3  7  2  0  0  0  0
  3 26  1  0  0  0  0
  4  8  1  0  0  0  0
  5  9  2  0  0  0  0
  5 27  1  0  0  0  0
  7  9  1  0  0  0  0
  7 28  1  0  0  0  0
  8 10  1  0  0  0  0
  8 29  1  0  0  0  0
  8 30  1  0  0  0  0
  9 11  1  0  0  0  0
 10 12  2  0  0  0  0
 10 13  1  0  0  0  0
 11 14  1  0  0  0  0
 11 31  1  0  0  0  0
 11 32  1  0  0  0  0
 12 15  1  0  0  0  0
 12 33  1  0  0  0  0
 13 16  2  0  0  0  0
 13 34  1  0  0  0  0
 14 17  1  0  0  0  0
 14 18  2  0  0  0  0
 15 19  2  0  0  0  0
 15 35  1  0  0  0  0
 16 19  1  0  0  0  0
 16 36  1  0  0  0  0
 17 20  1  0  0  0  0
 17 37  1  0  0  0  0
 19 21  1  0  0  0  0
 20 22  1  0  0  0  0
 20 38  1  0  0  0  0
 20 39  1  0  0  0  0
 21 23  1  0  0  0  0
 21 24  1  0  0  0  0
 21 40  1  0  0  0  0
 22 25  1  0  0  0  0
 22 41  1  0  0  0  0
 22 42  1  0  0  0  0
 23 43  1  0  0  0  0
 23 44  1  0  0  0  0
 23 45  1  0  0  0  0
 24 46  1  0  0  0  0
 24 47  1  0  0  0  0
 24 48  1  0  0  0  0
 25 49  1  0  0  0  0
 25 50  1  0  0  0  0
M  END
>  <DRUGBANK_ID>
DB08610

>  <COMMON_NAME>
N-(2-AMINOETHYL)-2-{3-CHLORO-4-[(4-ISOPROPYLBENZYL)OXY]PHENYL} ACETAMIDE

$$$$
