
 OpenBabel10282417173D

 65 67  0  0  0  0  0  0  0  0999 V2000
    1.0855    0.0709   -0.5966 C   0  0  0  0  0  0  0  0  0  0  0  0
    0.2763   -1.2705   -0.5842 C   0  0  0  0  0  0  0  0  0  0  0  0
    0.4729    1.2052   -0.0735 N   0  0  0  0  0  0  0  0  0  0  0  0
   -0.6044   -1.7432    0.5969 C   0  0  0  0  0  0  0  0  0  0  0  0
   -1.6788   -0.7293    0.9988 C   0  0  0  0  0  0  0  0  0  0  0  0
   -2.5386   -0.4600   -0.2028 C   0  0  0  0  0  0  0  0  0  0  0  0
   -3.3854   -1.6567   -0.5306 C   0  0  0  0  0  0  0  0  0  0  0  0
   -4.2395   -2.0225    0.6850 C   0  0  0  0  0  0  0  0  0  0  0  0
   -5.1737   -0.8821    1.0656 C   0  0  0  0  0  0  0  0  0  0  0  0
   -3.6435    4.5450   -0.2461 C   0  0  0  0  0  0  0  0  0  0  0  0
   -3.1782    3.2546   -0.3259 C   0  0  0  0  0  0  0  0  0  0  0  0
   -3.9734    2.1586   -0.2477 O   0  0  0  0  0  0  0  0  0  0  0  0
   -5.3385    2.4320   -0.4888 C   0  0  0  0  0  0  0  0  0  0  0  0
   -5.7423    3.6797    0.2644 C   0  0  0  0  0  0  0  0  0  0  0  0
   -4.9768    4.8295   -0.1362 O   0  0  0  0  0  0  0  0  0  0  0  0
   -2.7243    5.5858   -0.3373 C   0  0  0  0  0  0  0  0  0  0  0  0
   -1.3442    5.3278   -0.4322 C   0  0  0  0  0  0  0  0  0  0  0  0
   -0.8605    4.0202   -0.4801 C   0  0  0  0  0  0  0  0  0  0  0  0
   -1.8257    3.0114   -0.5011 C   0  0  0  0  0  0  0  0  0  0  0  0
    0.6269    3.6920   -0.5522 C   0  0  2  0  0  0  0  0  0  0  0  0
    1.0765    2.5123    0.3721 C   0  0  1  0  0  0  0  0  0  0  0  0
    0.7653    2.9024    1.9109 C   0  0  0  0  0  0  0  0  0  0  0  0
    1.4244    4.8470   -0.2447 O   0  0  0  0  0  0  0  0  0  0  0  0
    2.2252    0.0864   -1.0110 O   0  0  0  0  0  0  0  0  0  0  0  0
    1.2075    2.0929    3.0822 N   0  0  0  0  0  0  0  0  0  0  0  0
    2.5299    1.4572    2.8715 C   0  0  0  0  0  0  0  0  0  0  0  0
    0.2564    1.0289    3.3997 C   0  0  0  0  0  0  0  0  0  0  0  0
    2.1903    0.1816    2.1915 C   0  0  0  0  0  0  0  0  0  0  0  0
    0.8935   -0.2050    2.8248 C   0  0  0  0  0  0  0  0  0  0  0  0
   -0.3136   -1.2868   -1.5031 H   0  0  0  0  0  0  0  0  0  0  0  0
    1.0264   -2.0630   -0.6992 H   0  0  0  0  0  0  0  0  0  0  0  0
   -0.4313    1.0856    0.2986 H   0  0  0  0  0  0  0  0  0  0  0  0
   -1.1007   -2.6840    0.3354 H   0  0  0  0  0  0  0  0  0  0  0  0
   -0.0054   -2.1034    1.4422 H   0  0  0  0  0  0  0  0  0  0  0  0
   -2.2165   -1.0358    1.9003 H   0  0  0  0  0  0  0  0  0  0  0  0
   -1.3508    0.2410    1.3455 H   0  0  0  0  0  0  0  0  0  0  0  0
   -3.1678    0.3585    0.0690 H   0  0  0  0  0  0  0  0  0  0  0  0
   -1.9715   -0.1102   -1.0702 H   0  0  0  0  0  0  0  0  0  0  0  0
   -4.0017   -1.4200   -1.4004 H   0  0  0  0  0  0  0  0  0  0  0  0
   -2.7462   -2.4944   -0.8229 H   0  0  0  0  0  0  0  0  0  0  0  0
   -4.8008   -2.9274    0.4612 H   0  0  0  0  0  0  0  0  0  0  0  0
   -3.6240   -2.2785    1.5548 H   0  0  0  0  0  0  0  0  0  0  0  0
   -5.7997   -0.6313    0.2062 H   0  0  0  0  0  0  0  0  0  0  0  0
   -5.8057   -1.1601    1.9081 H   0  0  0  0  0  0  0  0  0  0  0  0
   -4.6411    0.0244    1.3783 H   0  0  0  0  0  0  0  0  0  0  0  0
   -5.9185    1.5761   -0.1301 H   0  0  0  0  0  0  0  0  0  0  0  0
   -5.4770    2.4995   -1.5713 H   0  0  0  0  0  0  0  0  0  0  0  0
   -6.7972    3.8838    0.0704 H   0  0  0  0  0  0  0  0  0  0  0  0
   -5.6053    3.5334    1.3438 H   0  0  0  0  0  0  0  0  0  0  0  0
   -3.0745    6.6110   -0.3335 H   0  0  0  0  0  0  0  0  0  0  0  0
   -0.6525    6.1644   -0.4937 H   0  0  0  0  0  0  0  0  0  0  0  0
   -1.5731    1.9912   -0.7145 H   0  0  0  0  0  0  0  0  0  0  0  0
    0.8697    3.4250   -1.5863 H   0  0  0  0  0  0  0  0  0  0  0  0
    2.1638    2.4394    0.2692 H   0  0  0  0  0  0  0  0  0  0  0  0
    1.2455    3.8682    2.1074 H   0  0  0  0  0  0  0  0  0  0  0  0
   -0.3067    3.1274    2.0294 H   0  0  0  0  0  0  0  0  0  0  0  0
    1.1552    5.1852    0.6265 H   0  0  0  0  0  0  0  0  0  0  0  0
    3.0378    1.2066    3.8010 H   0  0  0  0  0  0  0  0  0  0  0  0
    3.1801    2.0860    2.2567 H   0  0  0  0  0  0  0  0  0  0  0  0
   -0.7450    1.2314    2.9907 H   0  0  0  0  0  0  0  0  0  0  0  0
    0.0864    0.8763    4.4684 H   0  0  0  0  0  0  0  0  0  0  0  0
    2.0478    0.5244    1.2015 H   0  0  0  0  0  0  0  0  0  0  0  0
    2.8922   -0.6284    2.0007 H   0  0  0  0  0  0  0  0  0  0  0  0
    0.2644   -0.4549    2.0263 H   0  0  0  0  0  0  0  0  0  0  0  0
    0.9595   -1.0647    3.4887 H   0  0  0  0  0  0  0  0  0  0  0  0
  1  2  1  0  0  0  0
  1  3  1  0  0  0  0
  1 24  2  0  0  0  0
  2  4  1  0  0  0  0
  2 30  1  0  0  0  0
  2 31  1  0  0  0  0
  3 32  1  0  0  0  0
  4  5  1  0  0  0  0
  4 33  1  0  0  0  0
  4 34  1  0  0  0  0
  5  6  1  0  0  0  0
  5 35  1  0  0  0  0
  5 36  1  0  0  0  0
  6  7  1  0  0  0  0
  6 37  1  0  0  0  0
  6 38  1  0  0  0  0
  7  8  1  0  0  0  0
  7 39  1  0  0  0  0
  7 40  1  0  0  0  0
  8  9  1  0  0  0  0
  8 41  1  0  0  0  0
  8 42  1  0  0  0  0
  9 43  1  0  0  0  0
  9 44  1  0  0  0  0
  9 45  1  0  0  0  0
 10 11  1  0  0  0  0
 10 15  1  0  0  0  0
 10 16  2  0  0  0  0
 11 12  1  0  0  0  0
 11 19  2  0  0  0  0
 12 13  1  0  0  0  0
 13 14  1  0  0  0  0
 13 46  1  0  0  0  0
 13 47  1  0  0  0  0
 14 15  1  0  0  0  0
 14 48  1  0  0  0  0
 14 49  1  0  0  0  0
 16 17  1  0  0  0  0
 16 50  1  0  0  0  0
 17 18  2  0  0  0  0
 17 51  1  0  0  0  0
 18 19  1  0  0  0  0
 18 20  1  0  0  0  0
 19 52  1  0  0  0  0
 20 21  1  0  0  0  0
 20 23  1  0  0  0  0
 20 53  1  6  0  0  0
 21  3  1  0  0  0  0
 21 22  1  0  0  0  0
 21 54  1  6  0  0  0
 22 25  1  0  0  0  0
 22 55  1  0  0  0  0
 22 56  1  0  0  0  0
 23 57  1  0  0  0  0
 26 25  1  0  0  0  0
 26 58  1  0  0  0  0
 26 59  1  0  0  0  0
 27 25  1  0  0  0  0
 27 60  1  0  0  0  0
 27 61  1  0  0  0  0
 28 26  1  0  0  0  0
 28 62  1  0  0  0  0
 28 63  1  0  0  0  0
 29 27  1  0  0  0  0
 29 28  1  0  0  0  0
 29 64  1  0  0  0  0
 29 65  1  0  0  0  0
M  END
>  <DRUGBANK_ID>
DB09039

>  <SECONDARY_ACCESSION_NUMBERS>
DB05715

>  <COMMON_NAME>
Eliglustat

>  <CAS_NUMBER>
491833-29-5

>  <UNII>
DR40J4WA67

>  <SYNONYMS>
Eliglustat; Ã©liglustat; Eliglustatum; N-[(1R,2R)-1-(2,3-Dihydro-1,4-benzodioxin-6-yl)-1-hydroxy-3-(1-pyrrolidinyl)-2-propanyl]octanamide

$$$$
