
 OpenBabel10282417203D

 55 60  0  0  1  0  0  0  0  0999 V2000
    1.1209    0.8972    1.8688 C   0  0  0  0  0  0  0  0  0  0  0  0
   -0.3891    0.7263    1.4955 C   0  0  0  0  0  0  0  0  0  0  0  0
   -1.5009    2.1740    1.7186 C   0  0  1  0  0  0  0  0  0  0  0  0
   -1.0711    3.9141    1.6366 C   0  0  2  0  0  0  0  0  0  0  0  0
   -0.1996    3.2587    0.6500 C   0  0  0  0  0  0  0  0  0  0  0  0
   -1.1651    3.0124   -0.6047 C   0  0  1  0  0  0  0  0  0  0  0  0
   -0.7876    3.3378   -1.9662 C   0  0  1  0  0  0  0  0  0  0  0  0
   -0.3302    4.8760   -1.9834 C   0  0  2  0  0  0  0  0  0  0  0  0
   -1.5653    5.3420   -2.5702 C   0  0  0  0  0  0  0  0  0  0  0  0
   -2.3598    5.0193   -1.0002 C   0  0  1  0  0  0  0  0  0  0  0  0
   -1.2085    5.3561    0.3414 C   0  0  1  0  0  0  0  0  0  0  0  0
    0.0830    5.4632   -0.6173 C   0  0  1  0  0  0  0  0  0  0  0  0
    1.2814    4.7073   -0.2249 O   0  0  0  0  0  0  0  0  0  0  0  0
    1.8064    3.6358   -0.9431 C   0  0  0  0  0  0  0  0  0  0  0  0
    1.9544    2.4848   -0.5368 O   0  0  0  0  0  0  0  0  0  0  0  0
    2.6348    4.1931   -2.1004 C   0  0  0  0  0  0  0  0  0  0  0  0
    2.1349    4.4060   -4.5275 Cl  0  0  0  0  0  0  0  0  0  0  0  0
   -2.6657    3.2554   -0.7101 N   0  0  3  0  0  0  0  0  0  0  0  0
   -2.6664    2.1290    0.5808 C   0  0  2  0  0  0  0  0  0  0  0  0
   -3.8568    2.1111    1.2907 O   0  0  0  0  0  0  0  0  0  0  0  0
    0.8179    4.8786   -2.8591 C   0  0  0  0  0  0  0  0  0  0  0  0
    2.1289    6.0632   -2.9874 C   0  0  0  0  0  0  0  0  0  0  0  0
    3.7578    5.4012   -3.3572 C   0  0  0  0  0  0  0  0  0  0  0  0
    4.0112    3.6318   -3.5929 C   0  0  0  0  0  0  0  0  0  0  0  0
    2.6636    2.4818   -3.4169 C   0  0  0  0  0  0  0  0  0  0  0  0
    1.0866    3.1111   -3.0963 C   0  0  0  0  0  0  0  0  0  0  0  0
    0.0754    2.3884   -2.5541 N   0  0  0  0  0  0  0  0  0  0  0  0
    0.0274    0.9838   -2.3305 C   0  0  0  0  0  0  0  0  0  0  0  0
    1.6227    1.7732    1.4707 H   0  0  0  0  0  0  0  0  0  0  0  0
    1.7652    0.0892    1.4895 H   0  0  0  0  0  0  0  0  0  0  0  0
    1.2056    1.0481    2.9379 H   0  0  0  0  0  0  0  0  0  0  0  0
   -0.4812    0.3213    0.4735 H   0  0  0  0  0  0  0  0  0  0  0  0
   -0.7220   -0.1486    2.0770 H   0  0  0  0  0  0  0  0  0  0  0  0
   -1.6927    1.9655    2.7791 H   0  0  0  0  0  0  0  0  0  0  0  0
   -0.5177    4.2025    2.5486 H   0  0  0  0  0  0  0  0  0  0  0  0
    0.6655    3.7498    1.1252 H   0  0  0  0  0  0  0  0  0  0  0  0
    0.2378    2.3262    0.6249 H   0  0  0  0  0  0  0  0  0  0  0  0
   -1.6321    3.7129   -0.0428 H   0  0  0  0  0  0  0  0  0  0  0  0
   -1.6793    3.1468   -2.5935 H   0  0  0  0  0  0  0  0  0  0  0  0
   -1.4902    6.3148   -3.1106 H   0  0  0  0  0  0  0  0  0  0  0  0
   -1.7305    4.6895   -3.4762 H   0  0  0  0  0  0  0  0  0  0  0  0
   -2.9954    5.9123   -1.1890 H   0  0  0  0  0  0  0  0  0  0  0  0
   -1.4717    6.3817    0.6696 H   0  0  0  0  0  0  0  0  0  0  0  0
    0.4858    6.4689   -0.4381 H   0  0  0  0  0  0  0  0  0  0  0  0
    2.8726    5.1381   -1.5040 H   0  0  0  0  0  0  0  0  0  0  0  0
    3.5038    3.5438   -1.7864 H   0  0  0  0  0  0  0  0  0  0  0  0
   -2.5264    1.1292    0.1009 H   0  0  0  0  0  0  0  0  0  0  0  0
   -3.7098    2.8435    1.9026 H   0  0  0  0  0  0  0  0  0  0  0  0
    2.0322    7.0929   -2.6269 H   0  0  0  0  0  0  0  0  0  0  0  0
    4.6173    6.0523   -3.3831 H   0  0  0  0  0  0  0  0  0  0  0  0
    5.0020    3.2190   -3.6749 H   0  0  0  0  0  0  0  0  0  0  0  0
    2.8523    1.4269   -3.2256 H   0  0  0  0  0  0  0  0  0  0  0  0
    0.8974    0.4979   -2.7607 H   0  0  0  0  0  0  0  0  0  0  0  0
    0.0401    0.7452   -1.2731 H   0  0  0  0  0  0  0  0  0  0  0  0
   -0.8835    0.5784   -2.7713 H   0  0  0  0  0  0  0  0  0  0  0  0
  1  2  1  0  0  0  0
  1 29  1  0  0  0  0
  1 30  1  0  0  0  0
  1 31  1  0  0  0  0
  2 32  1  0  0  0  0
  2 33  1  0  0  0  0
  3  4  1  0  0  0  0
  3 19  1  0  0  0  0
  3 34  1  1  0  0  0
  3  2  1  0  0  0  0
  4  5  1  0  0  0  0
  4 11  1  0  0  0  0
  4 35  1  6  0  0  0
  5  6  1  0  0  0  0
  5 36  1  0  0  0  0
  5 37  1  0  0  0  0
  6  7  1  0  0  0  0
  6 18  1  0  0  0  0
  6 38  1  1  0  0  0
  7  8  1  0  0  0  0
  7 27  1  0  0  0  0
  7 39  1  6  0  0  0
  8  9  1  0  0  0  0
  8 12  1  0  0  0  0
  8 21  1  1  0  0  0
  9 40  1  0  0  0  0
  9 41  1  0  0  0  0
 10  9  1  0  0  0  0
 10 18  1  0  0  0  0
 10 42  1  6  0  0  0
 11 10  1  0  0  0  0
 11 12  1  0  0  0  0
 11 43  1  6  0  0  0
 12 44  1  6  0  0  0
 12 13  1  0  0  0  0
 13 14  1  0  0  0  0
 14 15  2  0  0  0  0
 14 16  1  0  0  0  0
 16 17  1  0  0  0  0
 16 45  1  0  0  0  0
 16 46  1  0  0  0  0
 18 19  1  0  0  0  0
 19 20  1  0  0  0  0
 19 47  1  6  0  0  0
 20 48  1  0  0  0  0
 21 22  2  0  0  0  0
 21 26  1  0  0  0  0
 22 23  1  0  0  0  0
 22 49  1  0  0  0  0
 23 24  2  0  0  0  0
 23 50  1  0  0  0  0
 24 25  1  0  0  0  0
 24 51  1  0  0  0  0
 25 26  2  0  0  0  0
 25 52  1  0  0  0  0
 26 27  1  0  0  0  0
 27 28  1  0  0  0  0
 28 53  1  0  0  0  0
 28 54  1  0  0  0  0
 28 55  1  0  0  0  0
M  END
>  <DRUGBANK_ID>
DB13651

>  <COMMON_NAME>
Lorajmine

>  <CAS_NUMBER>
47562-08-3

>  <UNII>
F96VX65849

>  <SYNONYMS>
Lorajmine

$$$$
