
 OpenBabel10282417133D

 36 36  0  0  1  0  0  0  0  0999 V2000
    3.7690    5.1211   -5.1648 C   0  0  0  0  0  0  0  0  0  0  0  0
   -0.8895    5.0088   -3.1880 C   0  0  0  0  0  0  0  0  0  0  0  0
   -3.6348    0.6993   -3.3133 C   0  0  0  0  0  0  0  0  0  0  0  0
   -2.3025    1.2300   -2.7605 C   0  0  2  0  0  0  0  0  0  0  0  0
   -2.6035    2.0156   -1.4789 C   0  0  2  0  0  0  0  0  0  0  0  0
   -1.3335    2.3682   -0.7279 C   0  0  1  0  0  0  0  0  0  0  0  0
   -0.2074    2.7159   -1.6861 C   0  0  2  0  0  0  0  0  0  0  0  0
   -0.1837    2.2396   -3.2836 C   0  0  2  0  0  0  0  0  0  0  0  0
    0.6074    3.0852   -4.3768 N   0  0  0  0  0  0  0  0  0  0  0  0
   -3.4169   -0.1095   -4.4618 O   0  0  0  0  0  0  0  0  0  0  0  0
   -3.3395    1.1964   -0.5479 O   0  0  0  0  0  0  0  0  0  0  0  0
   -1.6834    3.4774    0.1919 O   0  0  0  0  0  0  0  0  0  0  0  0
    1.0804    2.6629   -1.1016 O   0  0  0  0  0  0  0  0  0  0  0  0
    2.5933    4.0954   -3.0448 O   0  0  0  0  0  0  0  0  0  0  0  0
    2.4791    4.5468   -5.3715 O   0  0  0  0  0  0  0  0  0  0  0  0
    0.4754    4.6930   -2.5545 O   0  0  0  0  0  0  0  0  0  0  0  0
   -1.5757    2.0287   -3.7307 O   0  0  0  0  0  0  0  0  0  0  0  0
    1.4772    4.6199   -3.9630 P   0  0  0  0  0  0  0  0  0  0  0  0
   -1.6776    0.3628   -2.5407 H   0  0  0  0  0  0  0  0  0  0  0  0
   -3.2003    2.9047   -1.7075 H   0  0  0  0  0  0  0  0  0  0  0  0
   -0.9561    1.6166   -0.0577 H   0  0  0  0  0  0  0  0  0  0  0  0
   -0.5384    3.7214   -1.5361 H   0  0  0  0  0  0  0  0  0  0  0  0
    0.2773    1.2478   -3.3468 H   0  0  0  0  0  0  0  0  0  0  0  0
    4.3366    5.0875   -6.0951 H   0  0  0  0  0  0  0  0  0  0  0  0
    4.3347    4.5574   -4.4155 H   0  0  0  0  0  0  0  0  0  0  0  0
    3.6591    6.1572   -4.8324 H   0  0  0  0  0  0  0  0  0  0  0  0
   -0.9285    5.3944   -4.2227 H   0  0  0  0  0  0  0  0  0  0  0  0
   -1.1168    4.0498   -3.5815 H   0  0  0  0  0  0  0  0  0  0  0  0
   -1.7883    4.9260   -2.5640 H   0  0  0  0  0  0  0  0  0  0  0  0
   -4.1185    0.0662   -2.5598 H   0  0  0  0  0  0  0  0  0  0  0  0
   -4.3306    1.5015   -3.5806 H   0  0  0  0  0  0  0  0  0  0  0  0
   -0.0377    3.2801   -5.1463 H   0  0  0  0  0  0  0  0  0  0  0  0
   -2.9855    0.4643   -5.1176 H   0  0  0  0  0  0  0  0  0  0  0  0
   -2.7082    0.6978   -0.0626 H   0  0  0  0  0  0  0  0  0  0  0  0
   -1.9795    4.2692   -0.2851 H   0  0  0  0  0  0  0  0  0  0  0  0
    1.6290    3.2807   -1.6675 H   0  0  0  0  0  0  0  0  0  0  0  0
  1 24  1  0  0  0  0
  1 25  1  0  0  0  0
  1 26  1  0  0  0  0
  2 27  1  0  0  0  0
  2 28  1  0  0  0  0
  2 29  1  0  0  0  0
  3 30  1  0  0  0  0
  3 31  1  0  0  0  0
  4  3  1  0  0  0  0
  4 19  1  1  0  0  0
  5  4  1  0  0  0  0
  5 11  1  0  0  0  0
  5 20  1  6  0  0  0
  6  5  1  0  0  0  0
  6 12  1  0  0  0  0
  6 21  1  1  0  0  0
  7  6  1  0  0  0  0
  7 13  1  0  0  0  0
  7 22  1  6  0  0  0
  8  7  1  0  0  0  0
  8 23  1  6  0  0  0
  8  9  1  0  0  0  0
  9 32  1  0  0  0  0
 10  3  1  0  0  0  0
 10 33  1  0  0  0  0
 11 34  1  0  0  0  0
 12 35  1  0  0  0  0
 13 36  1  0  0  0  0
 15  1  1  0  0  0  0
 16  2  1  0  0  0  0
 17  4  1  0  0  0  0
 17  8  1  0  0  0  0
 18  9  1  0  0  0  0
 18 14  2  0  0  0  0
 18 15  1  0  0  0  0
 18 16  1  0  0  0  0
M  END
>  <DRUGBANK_ID>
DB03392

>  <SECONDARY_ACCESSION_NUMBERS>
EXPT01599

>  <COMMON_NAME>
(3,4,5-Trihydroxy-6-Hydroxymethyl-Tetrahydro-Pyran-2-Yl)-Phosphoramidic Acid Dimethyl Ester

$$$$
