
 OpenBabel10282417183D

125129  0  0  1  0  0  0  0  0999 V2000
   25.7739   15.4093  -25.5326 C   0  0  0  0  0  0  0  0  0  0  0  0
   21.3467    9.6593  -31.6182 C   0  0  0  0  0  0  0  0  0  0  0  0
   27.0339   17.8748  -31.9247 C   0  0  0  0  0  0  0  0  0  0  0  0
   23.4088   10.0723  -27.9563 C   0  0  0  0  0  0  0  0  0  0  0  0
   21.4794   15.8276  -30.7750 C   0  0  0  0  0  0  0  0  0  0  0  0
   20.3278   12.2315  -33.5936 C   0  0  0  0  0  0  0  0  0  0  0  0
   22.0275   18.1003  -29.3975 C   0  0  0  0  0  0  0  0  0  0  0  0
   24.3956   14.9418  -28.3839 C   0  0  0  0  0  0  0  0  0  0  0  0
   23.8862   13.0114  -29.5652 C   0  0  0  0  0  0  0  0  0  0  0  0
   26.5467   12.6869  -30.0496 C   0  0  0  0  0  0  0  0  0  0  0  0
   20.8734   13.3163  -30.4620 C   0  0  0  0  0  0  0  0  0  0  0  0
   25.3355   16.5685  -26.2398 C   0  0  0  0  0  0  0  0  0  0  0  0
   21.1321   10.9384  -28.3185 C   0  0  0  0  0  0  0  0  0  0  0  0
   21.8427   12.2014  -27.1724 C   0  0  0  0  0  0  0  0  0  0  0  0
   17.1403   12.7515  -23.5709 C   0  0  0  0  0  0  0  0  0  0  0  0
   17.9077   12.1045  -24.5339 C   0  0  0  0  0  0  0  0  0  0  0  0
   16.9099   12.1315  -22.3391 C   0  0  0  0  0  0  0  0  0  0  0  0
   21.1323    9.3396  -27.8450 C   0  0  0  0  0  0  0  0  0  0  0  0
   23.3533   11.8727  -26.0969 C   0  0  0  0  0  0  0  0  0  0  0  0
   26.4618   15.6784  -30.7439 C   0  0  0  0  0  0  0  0  0  0  0  0
   18.2273   10.2468  -23.0022 C   0  0  0  0  0  0  0  0  0  0  0  0
   22.6351   11.5470  -32.7063 C   0  0  0  0  0  0  0  0  0  0  0  0
   20.2249   10.2577  -25.7491 C   0  0  0  0  0  0  0  0  0  0  0  0
   22.4895   10.6527  -31.4551 C   0  0  2  0  0  0  0  0  0  0  0  0
   26.0344   16.7605  -31.8757 C   0  0  2  0  0  0  0  0  0  0  0  0
   24.1461   10.5011  -29.1017 C   0  0  1  0  0  0  0  0  0  0  0  0
   21.5816   15.7080  -32.2936 C   0  0  1  0  0  0  0  0  0  0  0  0
   18.3879   10.8204  -24.2532 C   0  0  0  0  0  0  0  0  0  0  0  0
   17.4535   10.8786  -22.0482 C   0  0  0  0  0  0  0  0  0  0  0  0
   19.0069    9.9988  -25.2304 C   0  0  0  0  0  0  0  0  0  0  0  0
   25.4241   14.4826  -30.7326 C   0  0  1  0  0  0  0  0  0  0  0  0
   24.2813   15.7941  -27.0672 C   0  0  2  0  0  0  0  0  0  0  0  0
   23.9058   10.4493  -30.7140 C   0  0  0  0  0  0  0  0  0  0  0  0
   24.8657   13.9999  -31.9857 C   0  0  2  0  0  0  0  0  0  0  0  0
   24.9384   11.9017  -28.0597 C   0  0  2  0  0  0  0  0  0  0  0  0
   22.3979   17.1152  -32.2864 C   0  0  0  0  0  0  0  0  0  0  0  0
   22.1520   14.3574  -33.2374 C   0  0  2  0  0  0  0  0  0  0  0  0
   24.4794   15.1705  -32.7668 C   0  0  1  0  0  0  0  0  0  0  0  0
   24.0024   17.4327  -29.7077 C   0  0  0  0  0  0  0  0  0  0  0  0
   25.9724   12.3908  -26.4769 C   0  0  0  0  0  0  0  0  0  0  0  0
   21.5211   12.7101  -32.7474 C   0  0  1  0  0  0  0  0  0  0  0  0
   22.8242   18.0170  -30.6710 C   0  0  2  0  0  0  0  0  0  0  0  0
   24.6158   13.8534  -27.4031 C   0  0  1  0  0  0  0  0  0  0  0  0
   23.0834   19.2643  -31.1580 F   0  0  0  0  0  0  0  0  0  0  0  0
   17.2834   10.2882  -20.8143 N   0  0  0  0  0  0  0  0  0  0  0  0
   18.6014    8.7575  -25.6275 N   0  0  0  0  0  0  0  0  0  0  0  0
   19.4517    8.3267  -26.5416 N   0  0  0  0  0  0  0  0  0  0  0  0
   25.3517   13.4191  -29.7660 N   0  0  0  0  0  0  0  0  0  0  0  0
   20.3055    9.3137  -26.7053 N   0  0  0  0  0  0  0  0  0  0  0  0
   24.8683   11.5560  -26.6998 N   0  0  0  0  0  0  0  0  0  0  0  0
   24.9365   10.4231  -31.3992 O   0  0  0  0  0  0  0  0  0  0  0  0
   23.5675   13.4938  -31.6371 O   0  0  0  0  0  0  0  0  0  0  0  0
   22.8212   17.4803  -33.3945 O   0  0  0  0  0  0  0  0  0  0  0  0
   24.5401   16.6364  -30.3405 O   0  0  0  0  0  0  0  0  0  0  0  0
   27.0951   12.4334  -26.9988 O   0  0  0  0  0  0  0  0  0  0  0  0
   20.5591   12.6121  -31.5687 O   0  0  0  0  0  0  0  0  0  0  0  0
   25.5666   16.0711  -33.0632 O   0  0  0  0  0  0  0  0  0  0  0  0
   24.0586   17.2128  -28.2594 O   0  0  0  0  0  0  0  0  0  0  0  0
   23.5786   14.5963  -33.7353 O   0  0  0  0  0  0  0  0  0  0  0  0
   25.3297   13.4946  -26.2366 O   0  0  0  0  0  0  0  0  0  0  0  0
   22.0317   11.3510  -30.8089 H   0  0  0  0  0  0  0  0  0  0  0  0
   25.2422   17.5257  -31.7087 H   0  0  0  0  0  0  0  0  0  0  0  0
   24.1891    9.3682  -29.1297 H   0  0  0  0  0  0  0  0  0  0  0  0
   20.5569   15.7351  -32.6756 H   0  0  0  0  0  0  0  0  0  0  0  0
   24.4952   14.8684  -30.4957 H   0  0  0  0  0  0  0  0  0  0  0  0
   23.2464   15.8811  -26.6429 H   0  0  0  0  0  0  0  0  0  0  0  0
   25.4311   13.2094  -32.4370 H   0  0  0  0  0  0  0  0  0  0  0  0
   25.8939   11.4269  -28.3023 H   0  0  0  0  0  0  0  0  0  0  0  0
   21.7677   14.3359  -34.2664 H   0  0  0  0  0  0  0  0  0  0  0  0
   23.8381   15.6944  -32.0964 H   0  0  0  0  0  0  0  0  0  0  0  0
   24.7941   14.9630  -25.1742 H   0  0  0  0  0  0  0  0  0  0  0  0
   26.5566   15.0661  -24.8949 H   0  0  0  0  0  0  0  0  0  0  0  0
   26.2741   15.0428  -26.4662 H   0  0  0  0  0  0  0  0  0  0  0  0
   21.6698    8.6689  -31.9066 H   0  0  0  0  0  0  0  0  0  0  0  0
   20.7012    9.6119  -30.7314 H   0  0  0  0  0  0  0  0  0  0  0  0
   20.6516    9.9878  -32.3973 H   0  0  0  0  0  0  0  0  0  0  0  0
   26.6618   18.6504  -32.6067 H   0  0  0  0  0  0  0  0  0  0  0  0
   27.1239   18.3563  -30.9289 H   0  0  0  0  0  0  0  0  0  0  0  0
   27.9549   17.4248  -32.2446 H   0  0  0  0  0  0  0  0  0  0  0  0
   24.0710    9.6830  -27.1873 H   0  0  0  0  0  0  0  0  0  0  0  0
   23.1637   11.0975  -28.1181 H   0  0  0  0  0  0  0  0  0  0  0  0
   22.6973   10.3168  -27.1997 H   0  0  0  0  0  0  0  0  0  0  0  0
   22.4938   15.9997  -30.5173 H   0  0  0  0  0  0  0  0  0  0  0  0
   20.6717   16.5074  -30.5421 H   0  0  0  0  0  0  0  0  0  0  0  0
   21.4999   15.2025  -29.8846 H   0  0  0  0  0  0  0  0  0  0  0  0
   19.6555   13.0640  -33.8089 H   0  0  0  0  0  0  0  0  0  0  0  0
   20.5974   11.6271  -34.4481 H   0  0  0  0  0  0  0  0  0  0  0  0
   19.6625   11.5744  -32.9879 H   0  0  0  0  0  0  0  0  0  0  0  0
   20.9659   18.0625  -29.4298 H   0  0  0  0  0  0  0  0  0  0  0  0
   22.1723   17.2174  -28.7335 H   0  0  0  0  0  0  0  0  0  0  0  0
   22.4787   18.9538  -28.8787 H   0  0  0  0  0  0  0  0  0  0  0  0
   23.8189   15.2730  -29.2232 H   0  0  0  0  0  0  0  0  0  0  0  0
   23.2314   15.1006  -28.2825 H   0  0  0  0  0  0  0  0  0  0  0  0
   25.3419   15.5165  -28.5842 H   0  0  0  0  0  0  0  0  0  0  0  0
   23.4755   12.2673  -30.1459 H   0  0  0  0  0  0  0  0  0  0  0  0
   23.4641   12.7629  -28.6047 H   0  0  0  0  0  0  0  0  0  0  0  0
   23.1253   13.7774  -29.4621 H   0  0  0  0  0  0  0  0  0  0  0  0
   26.4661   12.2912  -31.0438 H   0  0  0  0  0  0  0  0  0  0  0  0
   27.3348   13.4363  -29.9310 H   0  0  0  0  0  0  0  0  0  0  0  0
   26.9636   11.8918  -29.4557 H   0  0  0  0  0  0  0  0  0  0  0  0
   21.7055   12.9589  -29.9283 H   0  0  0  0  0  0  0  0  0  0  0  0
   21.2385   14.0539  -31.0664 H   0  0  0  0  0  0  0  0  0  0  0  0
   20.1695   13.7638  -29.7560 H   0  0  0  0  0  0  0  0  0  0  0  0
   24.9897   17.3070  -25.5321 H   0  0  0  0  0  0  0  0  0  0  0  0
   26.1168   16.9614  -26.9048 H   0  0  0  0  0  0  0  0  0  0  0  0
   20.2079   11.2521  -28.8329 H   0  0  0  0  0  0  0  0  0  0  0  0
   21.7598   10.9319  -29.1915 H   0  0  0  0  0  0  0  0  0  0  0  0
   21.0167   12.4958  -26.5293 H   0  0  0  0  0  0  0  0  0  0  0  0
   21.9465   13.1644  -27.6962 H   0  0  0  0  0  0  0  0  0  0  0  0
   16.6861   13.7161  -23.7811 H   0  0  0  0  0  0  0  0  0  0  0  0
   18.0754   12.5835  -25.4960 H   0  0  0  0  0  0  0  0  0  0  0  0
   16.2842   12.6284  -21.6042 H   0  0  0  0  0  0  0  0  0  0  0  0
   21.0225    8.5852  -28.6412 H   0  0  0  0  0  0  0  0  0  0  0  0
   22.0079    8.8199  -27.3772 H   0  0  0  0  0  0  0  0  0  0  0  0
   23.1739   10.9675  -25.5046 H   0  0  0  0  0  0  0  0  0  0  0  0
   23.4594   12.6894  -25.3871 H   0  0  0  0  0  0  0  0  0  0  0  0
   27.4210   15.2485  -30.9606 H   0  0  0  0  0  0  0  0  0  0  0  0
   26.6324   16.2027  -29.7606 H   0  0  0  0  0  0  0  0  0  0  0  0
   18.6794    9.2765  -22.8090 H   0  0  0  0  0  0  0  0  0  0  0  0
   22.8054   11.0311  -33.6526 H   0  0  0  0  0  0  0  0  0  0  0  0
   23.6413   11.9364  -32.6442 H   0  0  0  0  0  0  0  0  0  0  0  0
   20.8965   11.0542  -25.5045 H   0  0  0  0  0  0  0  0  0  0  0  0
   17.6227    9.3463  -20.6635 H   0  0  0  0  0  0  0  0  0  0  0  0
   16.6243   10.6760  -20.1569 H   0  0  0  0  0  0  0  0  0  0  0  0
   23.0512   14.1776  -31.1958 H   0  0  0  0  0  0  0  0  0  0  0  0
  1 71  1  0  0  0  0
  1 72  1  0  0  0  0
  1 73  1  0  0  0  0
  2 74  1  0  0  0  0
  2 75  1  0  0  0  0
  2 76  1  0  0  0  0
  3 77  1  0  0  0  0
  3 78  1  0  0  0  0
  3 79  1  0  0  0  0
  4 80  1  0  0  0  0
  4 81  1  0  0  0  0
  4 82  1  0  0  0  0
  5 83  1  0  0  0  0
  5 84  1  0  0  0  0
  5 85  1  0  0  0  0
  6 86  1  0  0  0  0
  6 87  1  0  0  0  0
  6 88  1  0  0  0  0
  7 89  1  0  0  0  0
  7 90  1  0  0  0  0
  7 91  1  0  0  0  0
  8 92  1  0  0  0  0
  8 93  1  0  0  0  0
  8 94  1  0  0  0  0
  9 95  1  0  0  0  0
  9 96  1  0  0  0  0
  9 97  1  0  0  0  0
 10 98  1  0  0  0  0
 10 99  1  0  0  0  0
 10100  1  0  0  0  0
 11101  1  0  0  0  0
 11102  1  0  0  0  0
 11103  1  0  0  0  0
 12  1  1  0  0  0  0
 12104  1  0  0  0  0
 12105  1  0  0  0  0
 13106  1  0  0  0  0
 13107  1  0  0  0  0
 14 13  1  0  0  0  0
 14108  1  0  0  0  0
 14109  1  0  0  0  0
 15110  1  0  0  0  0
 16 15  2  0  0  0  0
 16111  1  0  0  0  0
 17 15  1  0  0  0  0
 17112  1  0  0  0  0
 18 13  1  0  0  0  0
 18113  1  0  0  0  0
 18114  1  0  0  0  0
 19 14  1  0  0  0  0
 19115  1  0  0  0  0
 19116  1  0  0  0  0
 20117  1  0  0  0  0
 20118  1  0  0  0  0
 21119  1  0  0  0  0
 22120  1  0  0  0  0
 22121  1  0  0  0  0
 23122  1  0  0  0  0
 24 22  1  0  0  0  0
 24  2  1  0  0  0  0
 24 61  1  1  0  0  0
 25  3  1  0  0  0  0
 25 20  1  0  0  0  0
 25 62  1  1  0  0  0
 26 63  1  1  0  0  0
 26  4  1  0  0  0  0
 27 64  1  6  0  0  0
 27  5  1  0  0  0  0
 28 16  1  0  0  0  0
 28 21  2  0  0  0  0
 29 17  2  0  0  0  0
 29 21  1  0  0  0  0
 30 23  2  0  0  0  0
 30 28  1  0  0  0  0
 31 20  1  0  0  0  0
 31 48  1  0  0  0  0
 31 65  1  1  0  0  0
 32 12  1  0  0  0  0
 32 66  1  1  0  0  0
 33 24  1  0  0  0  0
 33 26  1  0  0  0  0
 34 31  1  0  0  0  0
 34 52  1  0  0  0  0
 34 67  1  6  0  0  0
 35 26  1  0  0  0  0
 35 68  1  1  0  0  0
 36 27  1  0  0  0  0
 37 27  1  0  0  0  0
 37 69  1  6  0  0  0
 37 59  1  0  0  0  0
 38 34  1  0  0  0  0
 38 70  1  1  0  0  0
 38 59  1  0  0  0  0
 41 22  1  0  0  0  0
 41 37  1  0  0  0  0
 41  6  1  0  0  0  0
 41 56  1  1  0  0  0
 42 36  1  0  0  0  0
 42 39  1  0  0  0  0
 42 44  1  6  0  0  0
 42  7  1  0  0  0  0
 43 32  1  0  0  0  0
 43 35  1  0  0  0  0
 43  8  1  6  0  0  0
 45 29  1  0  0  0  0
 45123  1  0  0  0  0
 45124  1  0  0  0  0
 46 30  1  0  0  0  0
 47 46  2  0  0  0  0
 48  9  1  0  0  0  0
 48 10  1  0  0  0  0
 49 18  1  0  0  0  0
 49 23  1  0  0  0  0
 49 47  1  0  0  0  0
 50 35  1  0  0  0  0
 50 40  1  0  0  0  0
 50 19  1  0  0  0  0
 51 33  2  0  0  0  0
 52125  1  0  0  0  0
 53 36  2  0  0  0  0
 54 39  2  0  0  0  0
 55 40  2  0  0  0  0
 56 11  1  0  0  0  0
 57 25  1  0  0  0  0
 57 38  1  0  0  0  0
 58 32  1  0  0  0  0
 58 39  1  0  0  0  0
 60 40  1  0  0  0  0
 60 43  1  0  0  0  0
M  END
>  <DRUGBANK_ID>
DB09308

>  <COMMON_NAME>
Solithromycin

>  <CAS_NUMBER>
760981-83-7

>  <UNII>
9U1ETH79CK

>  <SYNONYMS>
Solithromycin

$$$$
