
 OpenBabel10282417133D

 44 45  0  0  0  0  0  0  0  0999 V2000
    3.0416    1.2393    0.3874 O   0  0  0  0  0  0  0  0  0  0  0  0
    2.7068   -1.0297    0.7661 O   0  0  0  0  0  0  0  0  0  0  0  0
    1.9637    0.7986   -2.4215 O   0  0  0  0  0  0  0  0  0  0  0  0
    3.0166   -1.8133   -3.3155 O   0  0  0  0  0  0  0  0  0  0  0  0
    4.4810    0.4741    2.8509 O   0  0  0  0  0  0  0  0  0  0  0  0
    2.4552   -3.9366   -1.4468 O   0  0  0  0  0  0  0  0  0  0  0  0
    6.9098   -0.9903    2.4522 O   0  0  0  0  0  0  0  0  0  0  0  0
    5.0764    1.6572   -3.1586 O   0  0  0  0  0  0  0  0  0  0  0  0
    2.4846   -3.0567    2.6800 O   0  0  0  0  0  0  0  0  0  0  0  0
    7.5707   -1.1425   -0.3186 O   0  0  0  0  0  0  0  0  0  0  0  0
    6.6803    0.9454   -0.6748 N   0  0  0  0  0  0  0  0  0  0  0  0
    4.4855    1.2154    0.5271 C   0  0  2  0  0  0  0  0  0  0  0  0
    2.3616    0.0517   -0.0759 C   0  0  2  0  0  0  0  0  0  0  0  0
    2.5742   -0.1889   -1.5912 C   0  0  1  0  0  0  0  0  0  0  0  0
    5.2382    1.0504   -0.8056 C   0  0  1  0  0  0  0  0  0  0  0  0
    2.3357   -1.6061   -2.0598 C   0  0  2  0  0  0  0  0  0  0  0  0
    4.9961    0.1724    1.5482 C   0  0  1  0  0  0  0  0  0  0  0  0
    2.8574   -2.6303   -1.0478 C   0  0  1  0  0  0  0  0  0  0  0  0
    2.3259   -2.3299    0.3511 C   0  0  1  0  0  0  0  0  0  0  0  0
    6.5203    0.0465    1.5640 C   0  0  2  0  0  0  0  0  0  0  0  0
    4.7786    2.0985   -1.8368 C   0  0  0  0  0  0  0  0  0  0  0  0
    7.0177   -0.1357    0.1323 C   0  0  0  0  0  0  0  0  0  0  0  0
    2.9100   -3.3473    1.3514 C   0  0  0  0  0  0  0  0  0  0  0  0
    7.1488    0.8692   -1.5709 H   0  0  0  0  0  0  0  0  0  0  0  0
    1.0263    0.8907   -2.2090 H   0  0  0  0  0  0  0  0  0  0  0  0
    3.9705   -1.6353   -3.2003 H   0  0  0  0  0  0  0  0  0  0  0  0
    4.8680    1.3191    3.1369 H   0  0  0  0  0  0  0  0  0  0  0  0
    1.4942   -3.9123   -1.6020 H   0  0  0  0  0  0  0  0  0  0  0  0
    6.4975   -1.8196    2.1488 H   0  0  0  0  0  0  0  0  0  0  0  0
    6.0363    1.5895   -3.2612 H   0  0  0  0  0  0  0  0  0  0  0  0
    2.8256   -2.1657    2.8934 H   0  0  0  0  0  0  0  0  0  0  0  0
    4.7374    2.2099    0.9197 H   0  0  0  0  0  0  0  0  0  0  0  0
    1.2948    0.2478    0.0801 H   0  0  0  0  0  0  0  0  0  0  0  0
    3.5889   -0.0689   -1.8746 H   0  0  0  0  0  0  0  0  0  0  0  0
    5.0604    0.0306   -1.1448 H   0  0  0  0  0  0  0  0  0  0  0  0
    1.2745   -1.7414   -2.2669 H   0  0  0  0  0  0  0  0  0  0  0  0
    4.6534   -0.8316    1.3170 H   0  0  0  0  0  0  0  0  0  0  0  0
    3.9588   -2.6141   -1.0410 H   0  0  0  0  0  0  0  0  0  0  0  0
    1.2339   -2.3879    0.3891 H   0  0  0  0  0  0  0  0  0  0  0  0
    6.9599    0.9774    1.9267 H   0  0  0  0  0  0  0  0  0  0  0  0
    3.6988    2.2712   -1.8010 H   0  0  0  0  0  0  0  0  0  0  0  0
    5.2382    3.0710   -1.6590 H   0  0  0  0  0  0  0  0  0  0  0  0
    2.5782   -4.3602    1.1056 H   0  0  0  0  0  0  0  0  0  0  0  0
    4.0069   -3.3364    1.3489 H   0  0  0  0  0  0  0  0  0  0  0  0
  2 13  1  0  0  0  0
  2 19  1  0  0  0  0
  3 25  1  0  0  0  0
  4 26  1  0  0  0  0
  5 27  1  0  0  0  0
  6 28  1  0  0  0  0
  7 29  1  0  0  0  0
  8 21  1  0  0  0  0
  8 30  1  0  0  0  0
  9 23  1  0  0  0  0
  9 31  1  0  0  0  0
 10 22  2  0  0  0  0
 11 15  1  0  0  0  0
 11 22  1  0  0  0  0
 11 24  1  0  0  0  0
 12  1  1  0  0  0  0
 12 15  1  0  0  0  0
 12 17  1  0  0  0  0
 12 32  1  1  0  0  0
 13 14  1  0  0  0  0
 13 33  1  1  0  0  0
 13  1  1  0  0  0  0
 14  3  1  0  0  0  0
 14 16  1  0  0  0  0
 14 34  1  6  0  0  0
 15 21  1  0  0  0  0
 15 35  1  6  0  0  0
 16  4  1  0  0  0  0
 16 18  1  0  0  0  0
 16 36  1  6  0  0  0
 17  5  1  0  0  0  0
 17 20  1  0  0  0  0
 17 37  1  6  0  0  0
 18  6  1  0  0  0  0
 18 19  1  0  0  0  0
 18 38  1  1  0  0  0
 19 23  1  0  0  0  0
 19 39  1  6  0  0  0
 20 22  1  0  0  0  0
 20 40  1  1  0  0  0
 20  7  1  0  0  0  0
 21 41  1  0  0  0  0
 21 42  1  0  0  0  0
 23 43  1  0  0  0  0
 23 44  1  0  0  0  0
M  END
>  <DRUGBANK_ID>
DB04096

>  <SECONDARY_ACCESSION_NUMBERS>
EXPT00398

>  <COMMON_NAME>
(2R,3R,4R,5R)-4,5-Dihydroxy-2-(hydroxymethyl)-6-oxo-3-piperidinyl beta-D-glucopyranoside

$$$$
