
 OpenBabel10282417153D

 41 40  0  0  1  0  0  0  0  0999 V2000
    1.0355    0.1971   -0.4470 S   0  0  0  0  0  0  0  0  0  0  0  0
    4.6033   -3.6568    0.5589 O   0  0  0  0  0  0  0  0  0  0  0  0
    0.0521   -5.7944    0.0225 O   0  0  0  0  0  0  0  0  0  0  0  0
   -1.0630   -1.3829    2.9536 O   0  0  0  0  0  0  0  0  0  0  0  0
   -1.6436   -3.4825    3.5884 O   0  0  0  0  0  0  0  0  0  0  0  0
    3.3583    1.3128   -0.5229 O   0  0  0  0  0  0  0  0  0  0  0  0
    1.7100   -3.2328    6.0121 O   0  0  0  0  0  0  0  0  0  0  0  0
    0.0505   -1.9536    5.1854 O   0  0  0  0  0  0  0  0  0  0  0  0
    2.5364   -3.0843   -0.1204 N   0  0  0  0  0  0  0  0  0  0  0  0
    0.1543   -4.8545    2.6110 N   0  0  0  0  0  0  0  0  0  0  0  0
   -1.0640   -3.3828    0.7336 N   0  0  0  0  0  0  0  0  0  0  0  0
    1.0632   -3.1552   -0.1373 C   0  0  3  0  0  0  0  0  0  0  0  0
    1.9854   -4.5360    2.0388 C   0  0  0  0  0  0  0  0  0  0  0  0
    2.8723   -5.1417    0.9996 C   0  0  0  0  0  0  0  0  0  0  0  0
    0.3483   -3.1796    1.8252 C   0  0  3  0  0  0  0  0  0  0  0  0
    3.4240   -3.9424    0.4271 C   0  0  0  0  0  0  0  0  0  0  0  0
    0.4956   -1.3576    0.2756 C   0  0  0  0  0  0  0  0  0  0  0  0
    0.3864   -4.8639    0.7456 C   0  0  0  0  0  0  0  0  0  0  0  0
   -0.9048   -2.7258    2.9687 C   0  0  0  0  0  0  0  0  0  0  0  0
    1.1346   -3.6288    3.7926 C   0  0  0  0  0  0  0  0  0  0  0  0
    2.7745    0.1578    0.0130 C   0  0  0  0  0  0  0  0  0  0  0  0
    0.8050   -2.9021    5.0719 C   0  0  0  0  0  0  0  0  0  0  0  0
   -0.2072   -0.9427    3.1069 H   0  0  0  0  0  0  0  0  0  0  0  0
    2.9470    1.3411   -1.4073 H   0  0  0  0  0  0  0  0  0  0  0  0
    2.4033   -3.8416    5.6858 H   0  0  0  0  0  0  0  0  0  0  0  0
    3.0137   -2.2968   -0.5039 H   0  0  0  0  0  0  0  0  0  0  0  0
   -0.4090   -5.5903    2.9941 H   0  0  0  0  0  0  0  0  0  0  0  0
   -1.6471   -2.5931    0.5015 H   0  0  0  0  0  0  0  0  0  0  0  0
   -1.0664   -4.0289   -0.0783 H   0  0  0  0  0  0  0  0  0  0  0  0
    0.7243   -3.1193   -1.1878 H   0  0  0  0  0  0  0  0  0  0  0  0
    1.6700   -5.6602    2.2574 H   0  0  0  0  0  0  0  0  0  0  0  0
    2.4174   -4.8704    3.0390 H   0  0  0  0  0  0  0  0  0  0  0  0
    2.3640   -5.8357    0.3266 H   0  0  0  0  0  0  0  0  0  0  0  0
    3.5968   -5.7819    1.5329 H   0  0  0  0  0  0  0  0  0  0  0  0
    1.0359   -2.4052    1.7292 H   0  0  0  0  0  0  0  0  0  0  0  0
    0.8225   -0.9760    1.2802 H   0  0  0  0  0  0  0  0  0  0  0  0
   -0.5886   -1.2583    0.4340 H   0  0  0  0  0  0  0  0  0  0  0  0
    2.2835   -3.6356    3.8675 H   0  0  0  0  0  0  0  0  0  0  0  0
    1.5349   -2.6619    3.2348 H   0  0  0  0  0  0  0  0  0  0  0  0
    3.0302    0.0310    1.0768 H   0  0  0  0  0  0  0  0  0  0  0  0
    3.2243   -0.6394   -0.5512 H   0  0  0  0  0  0  0  0  0  0  0  0
  1 17  1  0  0  0  0
  1 21  1  0  0  0  0
  2 16  2  0  0  0  0
  3 18  2  0  0  0  0
  4 19  1  0  0  0  0
  4 23  1  0  0  0  0
  5 19  2  0  0  0  0
  6 21  1  0  0  0  0
  6 24  1  0  0  0  0
  7 22  1  0  0  0  0
  7 25  1  0  0  0  0
  8 22  2  0  0  0  0
  9 12  1  0  0  0  0
  9 16  1  0  0  0  0
  9 26  1  0  0  0  0
 10 18  1  0  0  0  0
 10 20  1  0  0  0  0
 10 27  1  0  0  0  0
 11 15  1  0  0  0  0
 11 28  1  0  0  0  0
 11 29  1  0  0  0  0
 12 17  1  0  0  0  0
 12 18  1  0  0  0  0
 12 30  1  0  0  0  0
 13 14  1  0  0  0  0
 13 15  1  0  0  0  0
 13 31  1  0  0  0  0
 13 32  1  0  0  0  0
 14 16  1  0  0  0  0
 14 33  1  0  0  0  0
 14 34  1  0  0  0  0
 15 19  1  0  0  0  0
 15 35  1  0  0  0  0
 17 36  1  0  0  0  0
 17 37  1  0  0  0  0
 20 22  1  0  0  0  0
 20 38  1  0  0  0  0
 20 39  1  0  0  0  0
 21 40  1  0  0  0  0
 21 41  1  0  0  0  0
M  END
>  <DRUGBANK_ID>
DB05446

>  <COMMON_NAME>
LJP 1082

$$$$
