
 OpenBabel10282417123D

125127  0  0  1  0  0  0  0  0999 V2000
  -10.9542   11.0896   -1.0832 C   0  0  2  0  0  0  0  0  0  0  0  0
   -9.8174   10.3820   -0.6136 O   0  0  0  0  0  0  0  0  0  0  0  0
  -12.1216   10.3567   -0.4469 C   0  0  1  0  0  0  0  0  0  0  0  0
  -10.1321    9.3147    0.2760 C   0  0  1  0  0  0  0  0  0  0  0  0
  -11.5138    8.9680   -0.1942 C   0  0  1  0  0  0  0  0  0  0  0  0
  -12.4678   11.0163    0.7917 O   0  0  0  0  0  0  0  0  0  0  0  0
   -1.4237   -1.0093   -1.6711 C   0  0  0  0  0  0  0  0  0  0  0  0
   -1.5095   -2.0652   -0.5558 C   0  0  0  0  0  0  0  0  0  0  0  0
   -2.6912   -0.6667   -2.2885 N   0  0  0  0  0  0  0  0  0  0  0  0
   -3.3955    0.4683   -1.9719 C   0  0  0  0  0  0  0  0  0  0  0  0
   -2.9131    1.3960   -1.3258 O   0  0  0  0  0  0  0  0  0  0  0  0
   -5.8030    0.8543   -1.3821 C   0  0  0  0  0  0  0  0  0  0  0  0
   -4.8228    0.5122   -2.4998 C   0  0  0  0  0  0  0  0  0  0  0  0
   -5.5517    2.1511   -0.7825 N   0  0  0  0  0  0  0  0  0  0  0  0
   -7.6328    3.0191   -1.2381 O   0  0  0  0  0  0  0  0  0  0  0  0
   -6.5054    3.1369   -0.7602 C   0  0  0  0  0  0  0  0  0  0  0  0
   -6.9756    6.1261   -1.8170 C   0  0  0  0  0  0  0  0  0  0  0  0
   -4.8957    6.5532   -0.2428 C   0  0  0  0  0  0  0  0  0  0  0  0
   -5.6883    5.5400   -1.1609 C   0  0  0  0  0  0  0  0  0  0  0  0
   -4.8531    4.9194   -2.3100 C   0  0  0  0  0  0  0  0  0  0  0  0
   -6.0883    4.4582   -0.1218 C   0  0  1  0  0  0  0  0  0  0  0  0
   -7.1756    4.9635    0.6689 O   0  0  0  0  0  0  0  0  0  0  0  0
   -6.7418    7.1371   -2.7805 O   0  0  0  0  0  0  0  0  0  0  0  0
   -7.4269    9.1938   -1.7397 O   0  0  0  0  0  0  0  0  0  0  0  0
   -7.7644    8.5932    0.6080 O   0  0  0  0  0  0  0  0  0  0  0  0
   -5.6360    9.4089   -3.2582 O   0  0  0  0  0  0  0  0  0  0  0  0
   -4.4597    7.6176   -2.5662 O   0  0  0  0  0  0  0  0  0  0  0  0
   -8.1001   10.9526    0.5951 O   0  0  0  0  0  0  0  0  0  0  0  0
   -6.7199   11.4365   -1.0643 O   0  0  0  0  0  0  0  0  0  0  0  0
   -5.9433    8.4057   -2.1529 P   0  0  3  0  0  0  0  0  0  0  0  0
   -7.2421   10.0149   -0.2282 P   0  0  3  0  0  0  0  0  0  0  0  0
   -9.0977    8.1896    0.1710 C   0  0  0  0  0  0  0  0  0  0  0  0
  -12.1729    8.1934    0.7594 O   0  0  0  0  0  0  0  0  0  0  0  0
  -13.9322    8.7701    2.0627 O   0  0  0  0  0  0  0  0  0  0  0  0
  -11.9485    7.5907    2.9339 O   0  0  0  0  0  0  0  0  0  0  0  0
  -12.3323    9.0303    2.2651 P   0  0  0  0  0  0  0  0  0  0  0  0
  -12.4750    9.7793    3.6127 O   0  0  0  0  0  0  0  0  0  0  0  0
  -10.8323   11.0589   -2.5098 N   0  0  0  0  0  0  0  0  0  0  0  0
  -11.7463   11.4897   -3.4098 C   0  0  0  0  0  0  0  0  0  0  0  0
   -9.7288   10.6640   -3.2148 C   0  0  0  0  0  0  0  0  0  0  0  0
  -11.1446   11.2764   -4.6374 C   0  0  0  0  0  0  0  0  0  0  0  0
  -12.9597   11.9980   -3.1682 N   0  0  0  0  0  0  0  0  0  0  0  0
   -9.8923   10.7465   -4.5074 N   0  0  0  0  0  0  0  0  0  0  0  0
  -11.8746   11.6231   -5.7705 C   0  0  0  0  0  0  0  0  0  0  0  0
  -13.5710   12.2981   -4.3343 C   0  0  0  0  0  0  0  0  0  0  0  0
  -13.1095   12.1422   -5.5987 N   0  0  0  0  0  0  0  0  0  0  0  0
  -11.3593   11.4421   -7.0315 N   0  0  0  0  0  0  0  0  0  0  0  0
   -2.1208   -3.7312   -0.9216 S   0  0  0  0  0  0  0  0  0  0  0  0
   -4.3142   -2.4995   -1.6527 O   0  0  0  0  0  0  0  0  0  0  0  0
   -3.6579   -3.5445   -1.7519 C   0  0  0  0  0  0  0  0  0  0  0  0
   -4.2053   -4.6964   -2.5652 C   0  0  0  0  0  0  0  0  0  0  0  0
   -3.3900   -5.0631   -3.8063 C   0  0  0  0  0  0  0  0  0  0  0  0
   -1.9962   -5.5715   -3.4518 C   0  0  0  0  0  0  0  0  0  0  0  0
   -2.0925   -6.7251   -2.4408 C   0  0  0  0  0  0  0  0  0  0  0  0
   -2.7817   -7.9169   -3.1006 C   0  0  0  0  0  0  0  0  0  0  0  0
   -1.9641   -8.3517   -4.3170 C   0  0  0  0  0  0  0  0  0  0  0  0
   -0.5474   -8.7312   -3.8707 C   0  0  0  0  0  0  0  0  0  0  0  0
   -0.6205   -9.8936   -2.8768 C   0  0  0  0  0  0  0  0  0  0  0  0
   -1.3000  -11.0935   -3.5425 C   0  0  0  0  0  0  0  0  0  0  0  0
   -0.5010  -11.5310   -4.7754 C   0  0  0  0  0  0  0  0  0  0  0  0
    0.9159  -11.9583   -4.3771 C   0  0  0  0  0  0  0  0  0  0  0  0
    0.8847  -13.1127   -3.3748 C   0  0  0  0  0  0  0  0  0  0  0  0
    0.1842  -14.3186   -3.9792 C   0  0  0  0  0  0  0  0  0  0  0  0
  -10.8790   12.1340   -0.7522 H   0  0  0  0  0  0  0  0  0  0  0  0
  -13.0318   10.3100   -1.0438 H   0  0  0  0  0  0  0  0  0  0  0  0
  -10.0944    9.6804    1.3104 H   0  0  0  0  0  0  0  0  0  0  0  0
  -11.4614    8.4089   -1.1358 H   0  0  0  0  0  0  0  0  0  0  0  0
  -11.6629   11.3518    1.2436 H   0  0  0  0  0  0  0  0  0  0  0  0
   -0.7469   -1.3324   -2.4684 H   0  0  0  0  0  0  0  0  0  0  0  0
   -0.9945   -0.1025   -1.2282 H   0  0  0  0  0  0  0  0  0  0  0  0
   -0.4817   -2.2142   -0.1909 H   0  0  0  0  0  0  0  0  0  0  0  0
   -2.0901   -1.7023    0.2931 H   0  0  0  0  0  0  0  0  0  0  0  0
   -3.2561   -1.4392   -2.6203 H   0  0  0  0  0  0  0  0  0  0  0  0
   -5.7516    0.1141   -0.5770 H   0  0  0  0  0  0  0  0  0  0  0  0
   -6.8214    0.8383   -1.7832 H   0  0  0  0  0  0  0  0  0  0  0  0
   -5.1186   -0.4441   -2.9475 H   0  0  0  0  0  0  0  0  0  0  0  0
   -4.8633    1.2614   -3.2976 H   0  0  0  0  0  0  0  0  0  0  0  0
   -4.6119    2.3144   -0.4178 H   0  0  0  0  0  0  0  0  0  0  0  0
   -7.6081    6.5593   -1.0531 H   0  0  0  0  0  0  0  0  0  0  0  0
   -7.5756    5.3550   -2.3105 H   0  0  0  0  0  0  0  0  0  0  0  0
   -5.5269    6.8860    0.5873 H   0  0  0  0  0  0  0  0  0  0  0  0
   -3.9781    6.0884    0.1236 H   0  0  0  0  0  0  0  0  0  0  0  0
   -4.5149    7.5025   -0.6011 H   0  0  0  0  0  0  0  0  0  0  0  0
   -5.3911    4.0866   -2.7786 H   0  0  0  0  0  0  0  0  0  0  0  0
   -4.6838    5.5842   -3.1606 H   0  0  0  0  0  0  0  0  0  0  0  0
   -3.8844    4.5631   -1.9599 H   0  0  0  0  0  0  0  0  0  0  0  0
   -5.2561    4.2797    0.5702 H   0  0  0  0  0  0  0  0  0  0  0  0
   -7.9792    4.8116    0.1322 H   0  0  0  0  0  0  0  0  0  0  0  0
   -4.1929    8.0875   -3.3866 H   0  0  0  0  0  0  0  0  0  0  0  0
   -7.5112   12.0047   -1.1354 H   0  0  0  0  0  0  0  0  0  0  0  0
   -9.3809    7.3068    0.7498 H   0  0  0  0  0  0  0  0  0  0  0  0
   -9.0577    7.8920   -0.8791 H   0  0  0  0  0  0  0  0  0  0  0  0
  -14.3365    9.6039    1.7614 H   0  0  0  0  0  0  0  0  0  0  0  0
  -11.4126    7.0407    2.3419 H   0  0  0  0  0  0  0  0  0  0  0  0
   -8.8258   10.3308   -2.7505 H   0  0  0  0  0  0  0  0  0  0  0  0
  -14.5673   12.7177   -4.2443 H   0  0  0  0  0  0  0  0  0  0  0  0
  -10.4194   11.0729   -7.1157 H   0  0  0  0  0  0  0  0  0  0  0  0
  -11.9026   11.7236   -7.8273 H   0  0  0  0  0  0  0  0  0  0  0  0
   -4.3853   -5.5468   -1.8999 H   0  0  0  0  0  0  0  0  0  0  0  0
   -5.2067   -4.4097   -2.9104 H   0  0  0  0  0  0  0  0  0  0  0  0
   -3.9329   -5.8377   -4.3674 H   0  0  0  0  0  0  0  0  0  0  0  0
   -3.3111   -4.2178   -4.4960 H   0  0  0  0  0  0  0  0  0  0  0  0
   -1.4568   -5.8555   -4.3590 H   0  0  0  0  0  0  0  0  0  0  0  0
   -1.3630   -4.7668   -3.0848 H   0  0  0  0  0  0  0  0  0  0  0  0
   -1.0970   -6.9689   -2.0579 H   0  0  0  0  0  0  0  0  0  0  0  0
   -2.6398   -6.4718   -1.5303 H   0  0  0  0  0  0  0  0  0  0  0  0
   -2.9067   -8.7228   -2.3703 H   0  0  0  0  0  0  0  0  0  0  0  0
   -3.8069   -7.6823   -3.4000 H   0  0  0  0  0  0  0  0  0  0  0  0
   -2.4770   -9.1644   -4.8353 H   0  0  0  0  0  0  0  0  0  0  0  0
   -1.9146   -7.5761   -5.0845 H   0  0  0  0  0  0  0  0  0  0  0  0
    0.0636   -8.9672   -4.7452 H   0  0  0  0  0  0  0  0  0  0  0  0
   -0.0084   -7.8933   -3.4188 H   0  0  0  0  0  0  0  0  0  0  0  0
    0.3818  -10.1345   -2.5131 H   0  0  0  0  0  0  0  0  0  0  0  0
   -1.1607   -9.6225   -1.9641 H   0  0  0  0  0  0  0  0  0  0  0  0
   -1.4179  -11.9015   -2.8166 H   0  0  0  0  0  0  0  0  0  0  0  0
   -2.3312  -10.8698   -3.8342 H   0  0  0  0  0  0  0  0  0  0  0  0
   -1.0332  -12.3311   -5.2949 H   0  0  0  0  0  0  0  0  0  0  0  0
   -0.4453  -10.7356   -5.5263 H   0  0  0  0  0  0  0  0  0  0  0  0
    1.4783  -12.2427   -5.2712 H   0  0  0  0  0  0  0  0  0  0  0  0
    1.4724  -11.1167   -3.9460 H   0  0  0  0  0  0  0  0  0  0  0  0
    1.9052  -13.3721   -3.0808 H   0  0  0  0  0  0  0  0  0  0  0  0
    0.3795  -12.8195   -2.4466 H   0  0  0  0  0  0  0  0  0  0  0  0
    0.7082  -14.6343   -4.8860 H   0  0  0  0  0  0  0  0  0  0  0  0
    0.1555  -15.1459   -3.2698 H   0  0  0  0  0  0  0  0  0  0  0  0
   -0.8540  -14.0999   -4.2501 H   0  0  0  0  0  0  0  0  0  0  0  0
  1 38  1  0  0  0  0
  1 64  1  1  0  0  0
  2  1  1  0  0  0  0
  3  1  1  0  0  0  0
  3  6  1  0  0  0  0
  3 65  1  6  0  0  0
  4  2  1  0  0  0  0
  4 32  1  0  0  0  0
  4 66  1  1  0  0  0
  5  3  1  0  0  0  0
  5  4  1  0  0  0  0
  5 33  1  0  0  0  0
  5 67  1  6  0  0  0
  6 68  1  0  0  0  0
  7  8  1  0  0  0  0
  7 69  1  0  0  0  0
  7 70  1  0  0  0  0
  8 48  1  0  0  0  0
  8 71  1  0  0  0  0
  8 72  1  0  0  0  0
  9  7  1  0  0  0  0
  9 73  1  0  0  0  0
 10  9  1  0  0  0  0
 10 11  2  0  0  0  0
 12 14  1  0  0  0  0
 12 74  1  0  0  0  0
 12 75  1  0  0  0  0
 13 10  1  0  0  0  0
 13 12  1  0  0  0  0
 13 76  1  0  0  0  0
 13 77  1  0  0  0  0
 14 78  1  0  0  0  0
 16 14  1  0  0  0  0
 16 15  2  0  0  0  0
 17 23  1  0  0  0  0
 17 79  1  0  0  0  0
 17 80  1  0  0  0  0
 18 81  1  0  0  0  0
 18 82  1  0  0  0  0
 18 83  1  0  0  0  0
 19 17  1  0  0  0  0
 19 18  1  0  0  0  0
 19 20  1  0  0  0  0
 20 84  1  0  0  0  0
 20 85  1  0  0  0  0
 20 86  1  0  0  0  0
 21 22  1  0  0  0  0
 21 87  1  1  0  0  0
 21 19  1  0  0  0  0
 21 16  1  0  0  0  0
 22 88  1  0  0  0  0
 23 30  1  0  0  0  0
 24 31  1  0  0  0  0
 27 89  1  0  0  0  0
 29 90  1  0  0  0  0
 30 24  1  0  0  0  0
 30 26  2  0  0  0  0
 30 27  1  0  0  0  0
 31 25  1  0  0  0  0
 31 28  2  0  0  0  0
 31 29  1  0  0  0  0
 32 25  1  0  0  0  0
 32 91  1  0  0  0  0
 32 92  1  0  0  0  0
 33 36  1  0  0  0  0
 34 93  1  0  0  0  0
 35 94  1  0  0  0  0
 36 34  1  0  0  0  0
 36 35  1  0  0  0  0
 36 37  2  0  0  0  0
 39 38  1  0  0  0  0
 40 38  1  0  0  0  0
 40 95  1  0  0  0  0
 41 39  2  0  0  0  0
 42 39  1  0  0  0  0
 43 40  2  0  0  0  0
 43 41  1  0  0  0  0
 44 41  1  0  0  0  0
 45 42  2  0  0  0  0
 45 96  1  0  0  0  0
 46 44  2  0  0  0  0
 46 45  1  0  0  0  0
 47 44  1  0  0  0  0
 47 97  1  0  0  0  0
 47 98  1  0  0  0  0
 48 50  1  0  0  0  0
 50 49  2  0  0  0  0
 50 51  1  0  0  0  0
 51 52  1  0  0  0  0
 51 99  1  0  0  0  0
 51100  1  0  0  0  0
 52 53  1  0  0  0  0
 52101  1  0  0  0  0
 52102  1  0  0  0  0
 53 54  1  0  0  0  0
 53103  1  0  0  0  0
 53104  1  0  0  0  0
 54 55  1  0  0  0  0
 54105  1  0  0  0  0
 54106  1  0  0  0  0
 55 56  1  0  0  0  0
 55107  1  0  0  0  0
 55108  1  0  0  0  0
 56 57  1  0  0  0  0
 56109  1  0  0  0  0
 56110  1  0  0  0  0
 57 58  1  0  0  0  0
 57111  1  0  0  0  0
 57112  1  0  0  0  0
 58 59  1  0  0  0  0
 58113  1  0  0  0  0
 58114  1  0  0  0  0
 59 60  1  0  0  0  0
 59115  1  0  0  0  0
 59116  1  0  0  0  0
 60 61  1  0  0  0  0
 60117  1  0  0  0  0
 60118  1  0  0  0  0
 61 62  1  0  0  0  0
 61119  1  0  0  0  0
 61120  1  0  0  0  0
 62 63  1  0  0  0  0
 62121  1  0  0  0  0
 62122  1  0  0  0  0
 63123  1  0  0  0  0
 63124  1  0  0  0  0
 63125  1  0  0  0  0
M  END
>  <DRUGBANK_ID>
DB02180

>  <SECONDARY_ACCESSION_NUMBERS>
EXPT02264

>  <COMMON_NAME>
Myristoyl-Coa

>  <CAS_NUMBER>
3130-72-1

$$$$
