
 OpenBabel10282417193D

 59 61  0  0  0  0  0  0  0  0999 V2000
    1.4349   -0.2276    0.0009 C   0  0  0  0  0  0  0  0  0  0  0  0
    0.5519   -1.3009    0.0023 C   0  0  0  0  0  0  0  0  0  0  0  0
   -0.8210   -1.0663   -0.0002 C   0  0  0  0  0  0  0  0  0  0  0  0
   -1.3356    0.2447    0.0491 C   0  0  0  0  0  0  0  0  0  0  0  0
   -0.4168    1.3006    0.0915 C   0  0  0  0  0  0  0  0  0  0  0  0
    0.9500    1.0741    0.0079 C   0  0  0  0  0  0  0  0  0  0  0  0
   -2.7388    0.5151    0.0690 N   0  0  0  0  0  0  0  0  0  0  0  0
   -3.2955    1.8183   -0.1906 C   0  0  0  0  0  0  0  0  0  0  0  0
   -2.8811    2.6444   -1.2518 C   0  0  0  0  0  0  0  0  0  0  0  0
   -3.4264    3.9220   -1.4111 C   0  0  0  0  0  0  0  0  0  0  0  0
   -4.4304    4.3625   -0.5503 C   0  0  0  0  0  0  0  0  0  0  0  0
   -4.9012    3.5260    0.4587 C   0  0  0  0  0  0  0  0  0  0  0  0
   -4.3168    2.2776    0.6553 C   0  0  0  0  0  0  0  0  0  0  0  0
   -3.6434   -0.5622   -0.0574 C   0  0  0  0  0  0  0  0  0  0  0  0
   -4.2904   -0.5940   -1.2083 N   0  0  0  0  0  0  0  0  0  0  0  0
   -5.0750   -1.6421   -1.4315 C   0  0  0  0  0  0  0  0  0  0  0  0
   -5.3470   -2.6676   -0.5594 C   0  0  0  0  0  0  0  0  0  0  0  0
   -4.6350   -2.5518    0.6073 C   0  0  0  0  0  0  0  0  0  0  0  0
   -3.7720   -1.5342    0.8703 N   0  0  0  0  0  0  0  0  0  0  0  0
   -6.2686   -3.8234   -0.7211 C   0  0  0  0  0  0  0  0  0  0  0  0
   -6.3605   -4.6708    0.1457 O   0  0  0  0  0  0  0  0  0  0  0  0
   -7.0538   -3.9553   -1.8340 N   0  0  0  0  0  0  0  0  0  0  0  0
   -7.1385   -3.1223   -2.9913 C   0  0  0  0  0  0  0  0  0  0  0  0
   -6.5166   -3.7752   -4.1846 C   0  0  0  0  0  0  0  0  0  0  0  0
   -7.5094   -4.8042   -4.6188 C   0  0  0  0  0  0  0  0  0  0  0  0
   -8.8958   -4.1525   -4.9068 C   0  0  0  0  0  0  0  0  0  0  0  0
   -8.8362   -3.2319   -6.1132 C   0  0  0  0  0  0  0  0  0  0  0  0
   -8.3906   -3.9980   -7.3555 C   0  0  0  0  0  0  0  0  0  0  0  0
   -9.3887   -5.0564   -7.8365 C   0  0  0  0  0  0  0  0  0  0  0  0
   -9.9554   -4.8804   -8.9197 O   0  0  0  0  0  0  0  0  0  0  0  0
   -9.7159   -6.1764   -7.1435 N   0  0  0  0  0  0  0  0  0  0  0  0
   -9.0833   -6.7723   -6.0565 O   0  0  0  0  0  0  0  0  0  0  0  0
    2.5044   -0.4041    0.0112 H   0  0  0  0  0  0  0  0  0  0  0  0
    0.9226   -2.3218    0.0053 H   0  0  0  0  0  0  0  0  0  0  0  0
   -1.4726   -1.9370   -0.0208 H   0  0  0  0  0  0  0  0  0  0  0  0
   -0.7613    2.3251    0.1939 H   0  0  0  0  0  0  0  0  0  0  0  0
    1.6232    1.9232   -0.0350 H   0  0  0  0  0  0  0  0  0  0  0  0
   -2.1225    2.3058   -1.9542 H   0  0  0  0  0  0  0  0  0  0  0  0
   -3.0706    4.5716   -2.2072 H   0  0  0  0  0  0  0  0  0  0  0  0
   -4.8478    5.3594   -0.6627 H   0  0  0  0  0  0  0  0  0  0  0  0
   -5.7146    3.8445    1.1031 H   0  0  0  0  0  0  0  0  0  0  0  0
   -4.6336    1.6601    1.4926 H   0  0  0  0  0  0  0  0  0  0  0  0
   -5.3884   -1.4825   -2.4352 H   0  0  0  0  0  0  0  0  0  0  0  0
   -4.7204   -3.2918    1.3989 H   0  0  0  0  0  0  0  0  0  0  0  0
   -7.6369   -4.7907   -1.8065 H   0  0  0  0  0  0  0  0  0  0  0  0
   -8.1546   -2.7567   -3.0572 H   0  0  0  0  0  0  0  0  0  0  0  0
   -6.6870   -2.1797   -2.9363 H   0  0  0  0  0  0  0  0  0  0  0  0
   -6.3339   -3.0506   -4.9879 H   0  0  0  0  0  0  0  0  0  0  0  0
   -5.5384   -4.2320   -3.9779 H   0  0  0  0  0  0  0  0  0  0  0  0
   -7.0071   -5.2695   -5.4706 H   0  0  0  0  0  0  0  0  0  0  0  0
   -7.6199   -5.5944   -3.8672 H   0  0  0  0  0  0  0  0  0  0  0  0
   -9.6930   -4.8801   -5.0330 H   0  0  0  0  0  0  0  0  0  0  0  0
   -9.3103   -3.6110   -4.0558 H   0  0  0  0  0  0  0  0  0  0  0  0
   -9.8166   -2.7697   -6.2730 H   0  0  0  0  0  0  0  0  0  0  0  0
   -8.1542   -2.3905   -5.9169 H   0  0  0  0  0  0  0  0  0  0  0  0
   -8.2890   -3.2554   -8.1593 H   0  0  0  0  0  0  0  0  0  0  0  0
   -7.3859   -4.4186   -7.2568 H   0  0  0  0  0  0  0  0  0  0  0  0
  -10.4293   -6.7729   -7.5440 H   0  0  0  0  0  0  0  0  0  0  0  0
   -8.3075   -6.2245   -5.9409 H   0  0  0  0  0  0  0  0  0  0  0  0
  1  2  2  0  0  0  0
  1  6  1  0  0  0  0
  1 33  1  0  0  0  0
  2  3  1  0  0  0  0
  2 34  1  0  0  0  0
  3  4  2  0  0  0  0
  3 35  1  0  0  0  0
  4  5  1  0  0  0  0
  4  7  1  0  0  0  0
  5  6  2  0  0  0  0
  5 36  1  0  0  0  0
  6 37  1  0  0  0  0
  7  8  1  0  0  0  0
  7 14  1  0  0  0  0
  8  9  2  0  0  0  0
  8 13  1  0  0  0  0
  9 10  1  0  0  0  0
  9 38  1  0  0  0  0
 10 11  2  0  0  0  0
 10 39  1  0  0  0  0
 11 12  1  0  0  0  0
 11 40  1  0  0  0  0
 12 13  2  0  0  0  0
 12 41  1  0  0  0  0
 13 42  1  0  0  0  0
 14 15  2  0  0  0  0
 14 19  1  0  0  0  0
 15 16  1  0  0  0  0
 16 17  2  0  0  0  0
 16 43  1  0  0  0  0
 17 18  1  0  0  0  0
 17 20  1  0  0  0  0
 18 19  2  0  0  0  0
 18 44  1  0  0  0  0
 20 21  2  0  0  0  0
 20 22  1  0  0  0  0
 22 23  1  0  0  0  0
 22 45  1  0  0  0  0
 23 24  1  0  0  0  0
 23 46  1  0  0  0  0
 23 47  1  0  0  0  0
 24 25  1  0  0  0  0
 24 48  1  0  0  0  0
 24 49  1  0  0  0  0
 25 26  1  0  0  0  0
 25 50  1  0  0  0  0
 25 51  1  0  0  0  0
 26 27  1  0  0  0  0
 26 52  1  0  0  0  0
 26 53  1  0  0  0  0
 27 28  1  0  0  0  0
 27 54  1  0  0  0  0
 27 55  1  0  0  0  0
 28 29  1  0  0  0  0
 28 56  1  0  0  0  0
 28 57  1  0  0  0  0
 29 30  2  0  0  0  0
 29 31  1  0  0  0  0
 31 32  1  0  0  0  0
 31 58  1  0  0  0  0
 32 59  1  0  0  0  0
M  END
>  <DRUGBANK_ID>
DB12376

>  <COMMON_NAME>
Ricolinostat

>  <CAS_NUMBER>
1316214-52-4

>  <UNII>
WKT909C62B

>  <SYNONYMS>
Ricolinostat

$$$$
