
 OpenBabel10282417133D

 57 56  0  0  0  0  0  0  0  0999 V2000
    0.9968   -0.0195   -0.0322 C   0  0  0  0  0  0  0  0  0  0  0  0
   -1.6138   -2.8888   -2.6833 C   0  0  0  0  0  0  0  0  0  0  0  0
    0.5250   -0.2336   -1.4687 C   0  0  0  0  0  0  0  0  0  0  0  0
   -1.0527   -2.7394   -1.2788 C   0  0  0  0  0  0  0  0  0  0  0  0
    1.0311   -1.5495   -2.0626 C   0  0  0  0  0  0  0  0  0  0  0  0
    0.4754   -2.8049   -1.3914 C   0  0  0  0  0  0  0  0  0  0  0  0
    1.0238   -0.9032    2.3720 C   0  0  0  0  0  0  0  0  0  0  0  0
   -1.5995   -5.3787   -2.3766 C   0  0  0  0  0  0  0  0  0  0  0  0
    0.5381   -1.0828    0.9630 C   0  0  0  0  0  0  0  0  0  0  0  0
   -1.1305   -4.2191   -3.2656 C   0  0  0  0  0  0  0  0  0  0  0  0
   -1.1335    0.2766    2.9704 C   0  0  0  0  0  0  0  0  0  0  0  0
   -3.6888   -5.5695   -3.7654 C   0  0  0  0  0  0  0  0  0  0  0  0
    0.3990    0.3214    2.9893 C   0  0  0  0  0  0  0  0  0  0  0  0
   -3.1291   -5.4264   -2.3498 C   0  0  0  0  0  0  0  0  0  0  0  0
   -1.6851   -0.9338    3.7133 C   0  0  0  0  0  0  0  0  0  0  0  0
   -3.1747   -6.8490   -4.4053 C   0  0  0  0  0  0  0  0  0  0  0  0
   -2.4622   -0.6452    4.8052 N   0  0  0  0  0  0  0  0  0  0  0  0
   -1.4868   -2.0888    3.3487 O   0  0  0  0  0  0  0  0  0  0  0  0
   -2.3556   -1.5732    7.0903 C   0  0  0  0  0  0  0  0  0  0  0  0
   -3.2977   -1.4933    8.0663 O   0  0  0  0  0  0  0  0  0  0  0  0
   -1.1714   -1.4965    7.3437 O   0  0  0  0  0  0  0  0  0  0  0  0
   -2.9301   -1.7106    5.6792 C   0  0  0  0  0  0  0  0  0  0  0  0
    0.6370    0.9656    0.2774 H   0  0  0  0  0  0  0  0  0  0  0  0
    2.0906    0.0120   -0.0283 H   0  0  0  0  0  0  0  0  0  0  0  0
   -2.7044   -2.8102   -2.6614 H   0  0  0  0  0  0  0  0  0  0  0  0
   -1.2958   -2.0570   -3.3190 H   0  0  0  0  0  0  0  0  0  0  0  0
   -0.5675   -0.1472   -1.5263 H   0  0  0  0  0  0  0  0  0  0  0  0
    0.8911    0.5933   -2.0892 H   0  0  0  0  0  0  0  0  0  0  0  0
   -1.4204   -3.4997   -0.5809 H   0  0  0  0  0  0  0  0  0  0  0  0
   -1.4479   -1.8169   -0.8471 H   0  0  0  0  0  0  0  0  0  0  0  0
    0.7629   -1.5715   -3.1261 H   0  0  0  0  0  0  0  0  0  0  0  0
    2.1236   -1.5744   -2.0339 H   0  0  0  0  0  0  0  0  0  0  0  0
    0.8411   -3.6792   -1.9236 H   0  0  0  0  0  0  0  0  0  0  0  0
    0.9395   -3.0775   -0.4575 H   0  0  0  0  0  0  0  0  0  0  0  0
    0.7802   -1.8113    2.9382 H   0  0  0  0  0  0  0  0  0  0  0  0
    2.1180   -0.8635    2.3654 H   0  0  0  0  0  0  0  0  0  0  0  0
   -1.1661   -6.3150   -2.7345 H   0  0  0  0  0  0  0  0  0  0  0  0
   -1.2170   -5.3074   -1.3518 H   0  0  0  0  0  0  0  0  0  0  0  0
   -0.5430   -1.2374    0.9106 H   0  0  0  0  0  0  0  0  0  0  0  0
    1.0112   -2.0226    0.7772 H   0  0  0  0  0  0  0  0  0  0  0  0
   -1.4575   -4.3073   -4.3009 H   0  0  0  0  0  0  0  0  0  0  0  0
   -0.0455   -4.2644   -3.3793 H   0  0  0  0  0  0  0  0  0  0  0  0
   -1.5164    1.2126    3.3832 H   0  0  0  0  0  0  0  0  0  0  0  0
   -1.5312    0.2342    1.9481 H   0  0  0  0  0  0  0  0  0  0  0  0
   -4.7804   -5.5653   -3.7330 H   0  0  0  0  0  0  0  0  0  0  0  0
   -3.4172   -4.7104   -4.3908 H   0  0  0  0  0  0  0  0  0  0  0  0
    0.7790    0.4194    4.0074 H   0  0  0  0  0  0  0  0  0  0  0  0
    0.7451    1.1988    2.4310 H   0  0  0  0  0  0  0  0  0  0  0  0
   -3.4622   -6.2534   -1.7166 H   0  0  0  0  0  0  0  0  0  0  0  0
   -3.5410   -4.5230   -1.8824 H   0  0  0  0  0  0  0  0  0  0  0  0
   -3.4776   -7.7090   -3.8014 H   0  0  0  0  0  0  0  0  0  0  0  0
   -3.5621   -6.9582   -5.4179 H   0  0  0  0  0  0  0  0  0  0  0  0
   -2.0823   -6.8644   -4.4849 H   0  0  0  0  0  0  0  0  0  0  0  0
   -2.5916    0.3200    5.0779 H   0  0  0  0  0  0  0  0  0  0  0  0
   -4.2275   -1.5336    7.7784 H   0  0  0  0  0  0  0  0  0  0  0  0
   -4.0216   -1.6718    5.6837 H   0  0  0  0  0  0  0  0  0  0  0  0
   -2.6313   -2.6966    5.3074 H   0  0  0  0  0  0  0  0  0  0  0  0
  1  9  1  0  0  0  0
  1 23  1  0  0  0  0
  1 24  1  0  0  0  0
  2 10  1  0  0  0  0
  2 25  1  0  0  0  0
  2 26  1  0  0  0  0
  3  1  1  0  0  0  0
  3 27  1  0  0  0  0
  3 28  1  0  0  0  0
  4  2  1  0  0  0  0
  4 29  1  0  0  0  0
  4 30  1  0  0  0  0
  5  3  1  0  0  0  0
  5 31  1  0  0  0  0
  5 32  1  0  0  0  0
  6  4  1  0  0  0  0
  6  5  1  0  0  0  0
  6 33  1  0  0  0  0
  6 34  1  0  0  0  0
  7 13  1  0  0  0  0
  7 35  1  0  0  0  0
  7 36  1  0  0  0  0
  8 14  1  0  0  0  0
  8 37  1  0  0  0  0
  8 38  1  0  0  0  0
  9  7  1  0  0  0  0
  9 39  1  0  0  0  0
  9 40  1  0  0  0  0
 10  8  1  0  0  0  0
 10 41  1  0  0  0  0
 10 42  1  0  0  0  0
 11 15  1  0  0  0  0
 11 43  1  0  0  0  0
 11 44  1  0  0  0  0
 12 16  1  0  0  0  0
 12 45  1  0  0  0  0
 12 46  1  0  0  0  0
 13 11  1  0  0  0  0
 13 47  1  0  0  0  0
 13 48  1  0  0  0  0
 14 12  1  0  0  0  0
 14 49  1  0  0  0  0
 14 50  1  0  0  0  0
 15 17  1  0  0  0  0
 15 18  2  0  0  0  0
 16 51  1  0  0  0  0
 16 52  1  0  0  0  0
 16 53  1  0  0  0  0
 17 54  1  0  0  0  0
 19 21  2  0  0  0  0
 19 22  1  0  0  0  0
 20 19  1  0  0  0  0
 20 55  1  0  0  0  0
 22 17  1  0  0  0  0
 22 56  1  0  0  0  0
 22 57  1  0  0  0  0
M  END
>  <DRUGBANK_ID>
DB03440

>  <SECONDARY_ACCESSION_NUMBERS>
EXPT00027

>  <COMMON_NAME>
N-hexadecanoylglycine

>  <CAS_NUMBER>
2441-41-0

>  <UNII>
M6V3RIU5KI

>  <SYNONYMS>
2-(Hexadecanoylamino)acetic acid; Elmiric acid; N-(1-Oxohexadecyl)glycine; N-ethanoyl-hexadecanamide; N-Palmitoyl glycine; N-Palmitoylglycine

$$$$
