MIB
 OpenBabel10282417173D

 28 29  0  0  0  0  0  0  0  0999 V2000
    1.0009   -0.0987   -0.1076 O   0  0  0  0  0  0  0  0  0  0  0  0
    2.2313   -0.0983   -0.1068 C   0  0  0  0  0  0  0  0  0  0  0  0
    3.0164    0.4992    1.0371 C   0  0  0  0  0  0  0  0  0  0  0  0
    3.0124   -0.6966   -1.2299 C   0  0  0  0  0  0  0  0  0  0  0  0
    2.4090   -1.2373   -2.3044 C   0  0  0  0  0  0  0  0  0  0  0  0
    3.0936   -1.8676   -3.3961 C   0  0  0  0  0  0  0  0  0  0  0  0
    4.1958   -2.6858   -3.2557 C   0  0  0  0  0  0  0  0  0  0  0  0
    2.7682   -1.8291   -4.7922 C   0  0  0  0  0  0  0  0  0  0  0  0
    4.5373   -3.1611   -4.4947 N   0  0  0  0  0  0  0  0  0  0  0  0
    5.5979   -4.1099   -4.7548 C   0  0  0  0  0  0  0  0  0  0  0  0
    3.6991   -2.6395   -5.4570 C   0  0  0  0  0  0  0  0  0  0  0  0
    1.7802   -1.1825   -5.5690 C   0  0  0  0  0  0  0  0  0  0  0  0
    3.6790   -2.8275   -6.8503 C   0  0  0  0  0  0  0  0  0  0  0  0
    1.7498   -1.3683   -6.9593 C   0  0  0  0  0  0  0  0  0  0  0  0
    2.6872   -2.1803   -7.5889 C   0  0  0  0  0  0  0  0  0  0  0  0
    3.6359   -0.2639    1.5162 H   0  0  0  0  0  0  0  0  0  0  0  0
    3.6381    1.3256    0.6823 H   0  0  0  0  0  0  0  0  0  0  0  0
    2.3234    0.8937    1.7883 H   0  0  0  0  0  0  0  0  0  0  0  0
    4.0914   -0.6705   -1.1394 H   0  0  0  0  0  0  0  0  0  0  0  0
    1.3206   -1.2156   -2.3620 H   0  0  0  0  0  0  0  0  0  0  0  0
    4.7386   -2.9974   -2.3737 H   0  0  0  0  0  0  0  0  0  0  0  0
    5.1554   -5.0120   -5.1866 H   0  0  0  0  0  0  0  0  0  0  0  0
    6.3082   -3.6592   -5.4527 H   0  0  0  0  0  0  0  0  0  0  0  0
    6.1050   -4.3601   -3.8198 H   0  0  0  0  0  0  0  0  0  0  0  0
    1.0444   -0.5385   -5.0966 H   0  0  0  0  0  0  0  0  0  0  0  0
    4.4077   -3.4596   -7.3484 H   0  0  0  0  0  0  0  0  0  0  0  0
    0.9848   -0.8730   -7.5526 H   0  0  0  0  0  0  0  0  0  0  0  0
    2.6487   -2.3163   -8.6677 H   0  0  0  0  0  0  0  0  0  0  0  0
  1  2  2  0  0  0  0
  2  3  1  0  0  0  0
  2  4  1  0  0  0  0
  3 16  1  0  0  0  0
  3 17  1  0  0  0  0
  3 18  1  0  0  0  0
  4  5  2  0  0  0  0
  4 19  1  0  0  0  0
  5  6  1  0  0  0  0
  5 20  1  0  0  0  0
  6  7  2  0  0  0  0
  6  8  1  0  0  0  0
  7  9  1  0  0  0  0
  7 21  1  0  0  0  0
  8 11  1  0  0  0  0
  8 12  2  0  0  0  0
  9 10  1  0  0  0  0
  9 11  1  0  0  0  0
 10 22  1  0  0  0  0
 10 23  1  0  0  0  0
 10 24  1  0  0  0  0
 11 13  2  0  0  0  0
 12 14  1  0  0  0  0
 12 25  1  0  0  0  0
 13 15  1  0  0  0  0
 13 26  1  0  0  0  0
 14 15  2  0  0  0  0
 14 27  1  0  0  0  0
 15 28  1  0  0  0  0
M  END
>  <DRUGBANK_ID>
DB08186

>  <COMMON_NAME>
(3E)-4-(1-METHYL-1H-INDOL-3-YL)BUT-3-EN-2-ONE

$$$$
