
 OpenBabel10282417243D

 43 43  0  0  0  0  0  0  0  0999 V2000
    0.9664    0.0718   -0.0918 C   0  0  0  0  0  0  0  0  0  0  0  0
    0.3919   -1.0169    0.8164 C   0  0  0  0  0  0  0  0  0  0  0  0
    1.0223   -1.1186    2.1387 N   0  0  0  0  0  0  0  0  0  0  0  0
    0.4886   -2.2257    2.9483 C   0  0  0  0  0  0  0  0  0  0  0  0
    0.7764   -3.6543    2.4818 C   0  0  0  0  0  0  0  0  0  0  0  0
    2.4853   -1.0510    2.1461 C   0  0  0  0  0  0  0  0  0  0  0  0
    3.2648   -2.1808    1.4732 C   0  0  0  0  0  0  0  0  0  0  0  0
    2.8504   -2.5381    0.1216 N   0  0  0  0  0  0  0  0  0  0  0  0
    3.6259   -2.6096   -0.9808 C   0  0  0  0  0  0  0  0  0  0  0  0
    3.1406   -2.6790   -2.1137 O   0  0  0  0  0  0  0  0  0  0  0  0
    5.0656   -2.6417   -0.7649 C   0  0  0  0  0  0  0  0  0  0  0  0
    5.6261   -3.4592    0.2325 C   0  0  0  0  0  0  0  0  0  0  0  0
    6.9967   -3.4320    0.4717 C   0  0  0  0  0  0  0  0  0  0  0  0
    7.8125   -2.6700   -0.3688 C   0  0  0  0  0  0  0  0  0  0  0  0
    9.2096   -2.6340   -0.1477 N   0  0  0  0  0  0  0  0  0  0  0  0
   10.0955   -1.8891   -0.9108 C   0  0  0  0  0  0  0  0  0  0  0  0
   11.5343   -1.9546   -0.5083 C   0  0  0  0  0  0  0  0  0  0  0  0
    9.8202   -1.1838   -1.8793 O   0  0  0  0  0  0  0  0  0  0  0  0
    7.2188   -1.9405   -1.4115 C   0  0  0  0  0  0  0  0  0  0  0  0
    5.8511   -1.8521   -1.5690 C   0  0  0  0  0  0  0  0  0  0  0  0
    0.6997    1.0626    0.2837 H   0  0  0  0  0  0  0  0  0  0  0  0
    0.5743   -0.0447   -1.1063 H   0  0  0  0  0  0  0  0  0  0  0  0
    2.0556    0.0337   -0.1949 H   0  0  0  0  0  0  0  0  0  0  0  0
   -0.6819   -0.8370    0.9331 H   0  0  0  0  0  0  0  0  0  0  0  0
    0.4230   -1.9644    0.2846 H   0  0  0  0  0  0  0  0  0  0  0  0
    0.8599   -2.1168    3.9760 H   0  0  0  0  0  0  0  0  0  0  0  0
   -0.5978   -2.1057    3.0178 H   0  0  0  0  0  0  0  0  0  0  0  0
    1.7968   -3.9621    2.6992 H   0  0  0  0  0  0  0  0  0  0  0  0
    0.1683   -4.3760    3.0285 H   0  0  0  0  0  0  0  0  0  0  0  0
    0.5845   -3.7925    1.4149 H   0  0  0  0  0  0  0  0  0  0  0  0
    2.8241   -0.1022    1.7104 H   0  0  0  0  0  0  0  0  0  0  0  0
    2.8381   -0.9785    3.1841 H   0  0  0  0  0  0  0  0  0  0  0  0
    4.3024   -1.8521    1.4905 H   0  0  0  0  0  0  0  0  0  0  0  0
    3.2628   -3.0983    2.0521 H   0  0  0  0  0  0  0  0  0  0  0  0
    1.9037   -2.8132   -0.0864 H   0  0  0  0  0  0  0  0  0  0  0  0
    4.9802   -4.0768    0.8530 H   0  0  0  0  0  0  0  0  0  0  0  0
    7.3825   -4.0245    1.2965 H   0  0  0  0  0  0  0  0  0  0  0  0
    9.5620   -3.1501    0.6500 H   0  0  0  0  0  0  0  0  0  0  0  0
   12.0954   -2.3578   -1.3571 H   0  0  0  0  0  0  0  0  0  0  0  0
   11.8685   -0.9287   -0.3218 H   0  0  0  0  0  0  0  0  0  0  0  0
   11.7136   -2.5634    0.3761 H   0  0  0  0  0  0  0  0  0  0  0  0
    7.7926   -1.4147   -2.1592 H   0  0  0  0  0  0  0  0  0  0  0  0
    5.4223   -1.1922   -2.3177 H   0  0  0  0  0  0  0  0  0  0  0  0
  1  2  1  0  0  0  0
  1 21  1  0  0  0  0
  1 22  1  0  0  0  0
  1 23  1  0  0  0  0
  2  3  1  0  0  0  0
  2 24  1  0  0  0  0
  2 25  1  0  0  0  0
  3  4  1  0  0  0  0
  3  6  1  0  0  0  0
  4  5  1  0  0  0  0
  4 26  1  0  0  0  0
  4 27  1  0  0  0  0
  5 28  1  0  0  0  0
  5 29  1  0  0  0  0
  5 30  1  0  0  0  0
  6  7  1  0  0  0  0
  6 31  1  0  0  0  0
  6 32  1  0  0  0  0
  7  8  1  0  0  0  0
  7 33  1  0  0  0  0
  7 34  1  0  0  0  0
  8  9  1  0  0  0  0
  8 35  1  0  0  0  0
  9 10  2  0  0  0  0
  9 11  1  0  0  0  0
 11 12  2  0  0  0  0
 11 20  1  0  0  0  0
 12 13  1  0  0  0  0
 12 36  1  0  0  0  0
 13 14  2  0  0  0  0
 13 37  1  0  0  0  0
 14 15  1  0  0  0  0
 14 19  1  0  0  0  0
 15 16  1  0  0  0  0
 15 38  1  0  0  0  0
 16 17  1  0  0  0  0
 16 18  2  0  0  0  0
 17 39  1  0  0  0  0
 17 40  1  0  0  0  0
 17 41  1  0  0  0  0
 19 20  2  0  0  0  0
 19 42  1  0  0  0  0
 20 43  1  0  0  0  0
M  END
>  <DRUGBANK_ID>
DB17602

>  <COMMON_NAME>
Acecainide

>  <CAS_NUMBER>
32795-44-1

>  <UNII>
910Q707V6F

>  <SYNONYMS>
4'-((2-(diethylamino)ethyl)carbamoyl)acetanilide; Acetylprocainamide; Acetylprocainamide, n-; Benzamide, 4-(acetylamino)-n-(2-(diethylamino)ethyl)-; N-acetyl-procainamide; N-acetylnovocainamide; N-acetylprocainamide; N-acetylprocaine amide

$$$$
