
 OpenBabel10282417153D

 87 90  0  0  0  0  0  0  0  0999 V2000
   -8.4913   -4.8677   -1.9762 C   0  0  0  0  0  0  0  0  0  0  0  0
   -8.0233   -3.4436   -1.7243 C   0  0  0  0  0  0  0  0  0  0  0  0
   -7.8530   -3.2230   -0.2301 C   0  0  0  0  0  0  0  0  0  0  0  0
   -8.3693   -3.9635    0.6829 C   0  0  0  0  0  0  0  0  0  0  0  0
   -8.0350   -3.5229    1.8776 C   0  0  0  0  0  0  0  0  0  0  0  0
   -8.4320   -4.1220    3.2170 C   0  0  0  0  0  0  0  0  0  0  0  0
   -9.2157   -5.2332    3.2596 C   0  0  0  0  0  0  0  0  0  0  0  0
   -9.5803   -5.7820    4.4297 N   0  0  0  0  0  0  0  0  0  0  0  0
  -10.2381   -6.9032    4.1864 C   0  0  0  0  0  0  0  0  0  0  0  0
  -10.8371   -7.8542    5.2098 C   0  0  0  0  0  0  0  0  0  0  0  0
  -12.1592   -8.1580    5.2661 C   0  0  0  0  0  0  0  0  0  0  0  0
  -12.7745   -8.8035    6.4759 N   0  5  0  0  0  0  0  0  0  0  0  0
  -13.2518   -7.6496    7.3674 C   0  0  0  0  0  0  0  0  0  0  0  0
  -14.3862   -6.9261    7.1668 C   0  0  0  0  0  0  0  0  0  0  0  0
  -15.2890   -7.2402    5.9849 C   0  0  0  0  0  0  0  0  0  0  0  0
  -14.9665   -7.2001    4.7029 N   0  0  0  0  0  0  0  0  0  0  0  0
  -16.0415   -7.5468    3.9767 C   0  0  0  0  0  0  0  0  0  0  0  0
   -6.4098   -1.1715   -0.4301 C   0  0  0  0  0  0  0  0  0  0  0  0
   -7.1711   -2.2661    0.2998 C   0  0  0  0  0  0  0  0  0  0  0  0
   -7.2742   -2.4396    1.6735 N   0  5  0  0  0  0  0  0  0  0  0  0
  -17.0849   -7.8256    4.7746 C   0  0  0  0  0  0  0  0  0  0  0  0
  -16.7144   -7.6573    6.0329 C   0  0  0  0  0  0  0  0  0  0  0  0
  -17.5709   -7.8508    7.2737 C   0  0  0  0  0  0  0  0  0  0  0  0
  -17.4499   -9.2879    7.7540 C   0  0  0  0  0  0  0  0  0  0  0  0
  -18.4642   -8.2625    4.3085 C   0  0  0  0  0  0  0  0  0  0  0  0
  -12.2594   -7.4317    8.5203 C   0  0  2  0  0  0  0  0  0  0  0  0
  -11.1750   -8.4078    8.4020 C   0  0  2  0  0  0  0  0  0  0  0  0
  -10.2139   -8.4131    7.5338 C   0  0  0  0  0  0  0  0  0  0  0  0
   -9.9686   -8.5057    6.2129 C   0  0  0  0  0  0  0  0  0  0  0  0
   -8.8914   -8.2603    8.2673 C   0  0  0  0  0  0  0  0  0  0  0  0
   -8.6645   -8.9402    9.3168 O   0  0  0  0  0  0  0  0  0  0  0  0
   -7.9092   -7.3580    7.7797 O   0  0  0  0  0  0  0  0  0  0  0  0
   -6.6736   -7.2155    8.4648 C   0  0  0  0  0  0  0  0  0  0  0  0
   -6.9337   -6.7424    9.8857 C   0  0  0  0  0  0  0  0  0  0  0  0
  -10.9144   -9.0550    9.7524 C   0  0  0  0  0  0  0  0  0  0  0  0
  -11.8600  -10.2298    9.9418 C   0  0  0  0  0  0  0  0  0  0  0  0
  -12.1044   -7.3853   10.0317 C   0  0  0  0  0  0  0  0  0  0  0  0
  -10.2714   -7.0426    2.7074 C   0  0  0  0  0  0  0  0  0  0  0  0
   -9.6251   -5.9920    2.2301 C   0  0  0  0  0  0  0  0  0  0  0  0
   -9.3854   -5.6929    0.7593 C   0  0  0  0  0  0  0  0  0  0  0  0
  -10.7183   -5.6295    0.0314 C   0  0  0  0  0  0  0  0  0  0  0  0
  -10.9159   -8.1627    1.9072 C   0  0  0  0  0  0  0  0  0  0  0  0
   -9.2441   -5.1787    0.4211 C   0  0  0  0  0  0  0  0  0  0  0  0
    1.0820   -0.0489    0.0297 Cl  0  5  0  0  0  0  0  0  0  0  0  0
    0.9124   -0.0329    0.0353 Sn  0  0  0  0  0  0  0  0  0  0  0  0
   -7.7648   -5.5545   -1.5947 H   0  0  0  0  0  0  0  0  0  0  0  0
   -8.6112   -5.0229   -3.0280 H   0  0  0  0  0  0  0  0  0  0  0  0
   -9.4272   -5.0280   -1.4830 H   0  0  0  0  0  0  0  0  0  0  0  0
   -7.0874   -3.2832   -2.2175 H   0  0  0  0  0  0  0  0  0  0  0  0
   -8.7498   -2.7568   -2.1057 H   0  0  0  0  0  0  0  0  0  0  0  0
   -8.0950   -3.6698    4.1263 H   0  0  0  0  0  0  0  0  0  0  0  0
  -14.6430   -6.1359    7.8410 H   0  0  0  0  0  0  0  0  0  0  0  0
   -5.7132   -0.4990   -0.8854 H   0  0  0  0  0  0  0  0  0  0  0  0
  -17.2370   -7.1879    8.0444 H   0  0  0  0  0  0  0  0  0  0  0  0
  -18.5928   -7.6382    7.0384 H   0  0  0  0  0  0  0  0  0  0  0  0
  -16.4280   -9.5004    7.9893 H   0  0  0  0  0  0  0  0  0  0  0  0
  -18.0528   -9.4239    8.6274 H   0  0  0  0  0  0  0  0  0  0  0  0
  -17.7838   -9.9508    6.9833 H   0  0  0  0  0  0  0  0  0  0  0  0
  -18.7327   -9.1760    4.7968 H   0  0  0  0  0  0  0  0  0  0  0  0
  -19.1796   -7.5047    4.5510 H   0  0  0  0  0  0  0  0  0  0  0  0
  -18.4510   -8.4147    3.2495 H   0  0  0  0  0  0  0  0  0  0  0  0
  -12.5168   -6.4153    8.3071 H   0  0  0  0  0  0  0  0  0  0  0  0
   -9.1207   -9.0671    5.8800 H   0  0  0  0  0  0  0  0  0  0  0  0
   -6.1687   -8.1585    8.4896 H   0  0  0  0  0  0  0  0  0  0  0  0
   -6.0644   -6.4980    7.9559 H   0  0  0  0  0  0  0  0  0  0  0  0
   -7.5429   -7.4599   10.3946 H   0  0  0  0  0  0  0  0  0  0  0  0
   -6.0026   -6.6350   10.4019 H   0  0  0  0  0  0  0  0  0  0  0  0
   -7.4386   -5.7994    9.8608 H   0  0  0  0  0  0  0  0  0  0  0  0
   -9.9028   -9.4014    9.7925 H   0  0  0  0  0  0  0  0  0  0  0  0
  -11.0768   -8.3376   10.5295 H   0  0  0  0  0  0  0  0  0  0  0  0
  -11.6976  -10.9473    9.1647 H   0  0  0  0  0  0  0  0  0  0  0  0
  -11.6766  -10.6858   10.8922 H   0  0  0  0  0  0  0  0  0  0  0  0
  -12.8716   -9.8835    9.9017 H   0  0  0  0  0  0  0  0  0  0  0  0
  -12.7473   -8.1149   10.4781 H   0  0  0  0  0  0  0  0  0  0  0  0
  -11.0887   -7.5970   10.2936 H   0  0  0  0  0  0  0  0  0  0  0  0
  -12.3689   -6.4115   10.3874 H   0  0  0  0  0  0  0  0  0  0  0  0
   -8.8820   -4.7536    0.6641 H   0  0  0  0  0  0  0  0  0  0  0  0
   -8.7819   -6.4660    0.3315 H   0  0  0  0  0  0  0  0  0  0  0  0
  -11.3219   -4.8564    0.4591 H   0  0  0  0  0  0  0  0  0  0  0  0
  -10.5496   -5.4185   -1.0040 H   0  0  0  0  0  0  0  0  0  0  0  0
  -11.2218   -6.5688    0.1265 H   0  0  0  0  0  0  0  0  0  0  0  0
  -11.6522   -8.6532    2.5089 H   0  0  0  0  0  0  0  0  0  0  0  0
  -11.3822   -7.7550    1.0347 H   0  0  0  0  0  0  0  0  0  0  0  0
  -10.1668   -8.8684    1.6144 H   0  0  0  0  0  0  0  0  0  0  0  0
   -9.0969   -5.8984    1.1990 H   0  0  0  0  0  0  0  0  0  0  0  0
  -10.2717   -4.8811    0.4002 H   0  0  0  0  0  0  0  0  0  0  0  0
   -8.9791   -5.6121   -0.5206 H   0  0  0  0  0  0  0  0  0  0  0  0
  1  2  1  0  0  0  0
  1 46  1  0  0  0  0
  1 47  1  0  0  0  0
  1 48  1  0  0  0  0
  2 49  1  0  0  0  0
  2 50  1  0  0  0  0
  2  3  1  0  0  0  0
  3  4  1  0  0  0  0
  3 19  2  0  0  0  0
  4  5  2  0  0  0  0
  4 43  1  0  0  0  0
  5  6  1  0  0  0  0
  5 20  1  0  0  0  0
  6  7  2  0  0  0  0
  6 51  1  0  0  0  0
  7  8  1  0  0  0  0
  7 39  1  0  0  0  0
  8  9  2  0  0  0  0
  9 10  1  0  0  0  0
  9 38  1  0  0  0  0
 10 11  2  0  0  0  0
 10 29  1  0  0  0  0
 11 12  1  0  0  0  0
 11 27  1  0  0  0  0
 12 13  1  0  0  0  0
 13 14  2  0  0  0  0
 13 26  1  0  0  0  0
 14 15  1  0  0  0  0
 14 52  1  0  0  0  0
 15 16  2  0  0  0  0
 15 22  1  0  0  0  0
 16 17  1  0  0  0  0
 17 18  2  0  0  0  0
 17 21  1  0  0  0  0
 18 19  1  0  0  0  0
 18 53  1  0  0  0  0
 19 20  1  0  0  0  0
 21 22  2  0  0  0  0
 21 25  1  0  0  0  0
 22 23  1  0  0  0  0
 23 24  1  0  0  0  0
 23 54  1  0  0  0  0
 23 55  1  0  0  0  0
 24 56  1  0  0  0  0
 24 57  1  0  0  0  0
 24 58  1  0  0  0  0
 25 59  1  0  0  0  0
 25 60  1  0  0  0  0
 25 61  1  0  0  0  0
 26 27  1  0  0  0  0
 26 37  1  0  0  0  0
 26 62  1  6  0  0  0
 27 28  1  0  0  0  0
 27 35  1  1  0  0  0
 28 29  2  0  0  0  0
 28 30  1  0  0  0  0
 29 63  1  0  0  0  0
 30 31  2  0  0  0  0
 30 32  1  0  0  0  0
 32 33  1  0  0  0  0
 33 34  1  0  0  0  0
 33 64  1  0  0  0  0
 33 65  1  0  0  0  0
 34 66  1  0  0  0  0
 34 67  1  0  0  0  0
 34 68  1  0  0  0  0
 35 36  1  0  0  0  0
 35 69  1  0  0  0  0
 35 70  1  0  0  0  0
 36 71  1  0  0  0  0
 36 72  1  0  0  0  0
 36 73  1  0  0  0  0
 37 74  1  0  0  0  0
 37 75  1  0  0  0  0
 37 76  1  0  0  0  0
 38 39  2  0  0  0  0
 38 42  1  0  0  0  0
 39 40  1  0  0  0  0
 40 41  1  0  0  0  0
 40 77  1  0  0  0  0
 40 78  1  0  0  0  0
 41 79  1  0  0  0  0
 41 80  1  0  0  0  0
 41 81  1  0  0  0  0
 42 82  1  0  0  0  0
 42 83  1  0  0  0  0
 42 84  1  0  0  0  0
 43 85  1  0  0  0  0
 43 86  1  0  0  0  0
 43 87  1  0  0  0  0
M  CHG  4  12  -1  20  -1  44  -1  45   4
M  END
>  <DRUGBANK_ID>
DB06659

>  <COMMON_NAME>
Rostaporfin

>  <CAS_NUMBER>
284041-10-7

>  <UNII>
466G63QE7G

>  <SYNONYMS>
Rostaporfin; SnET2; Tin ethyl etiopurpurin

$$$$
