
 OpenBabel10282417233D

 44 47  0  0  0  0  0  0  0  0999 V2000
    2.6729    1.7440   -6.0347 S   0  0  0  0  0  0  0  0  0  0  0  0
    2.7132    3.0013   -4.7806 C   0  0  0  0  0  0  0  0  0  0  0  0
   -1.2071    7.2157   -2.4062 N   0  0  0  0  0  0  0  0  0  0  0  0
   -1.9893    9.4623   -1.5136 C   0  0  2  0  0  0  0  0  0  0  0  0
   -1.7435    8.5628   -0.3947 C   0  0  1  0  0  0  0  0  0  0  0  0
    0.1566    5.5681   -3.5802 C   0  0  0  0  0  0  0  0  0  0  0  0
    1.5630    3.8191   -4.6728 C   0  0  0  0  0  0  0  0  0  0  0  0
    0.0013    6.4551   -2.5231 N   0  0  0  0  0  0  0  0  0  0  0  0
   -0.3914    9.3473   -0.3188 C   0  0  1  0  0  0  0  0  0  0  0  0
   -1.4482   10.8663   -0.7556 C   0  0  2  0  0  0  0  0  0  0  0  0
    1.4505    4.8052   -3.6716 C   0  0  0  0  0  0  0  0  0  0  0  0
   -0.9200    8.6227   -2.6040 C   0  0  0  0  0  0  0  0  0  0  0  0
   -1.7496    7.1538   -1.0313 C   0  0  0  0  0  0  0  0  0  0  0  0
   -0.3992   10.7688   -1.6794 C   0  0  0  0  0  0  0  0  0  0  0  0
    3.7819    3.2054   -3.9138 C   0  0  0  0  0  0  0  0  0  0  0  0
    3.8464    0.8693   -5.9325 O   0  0  0  0  0  0  0  0  0  0  0  0
    2.2814    2.3458   -7.2607 O   0  0  0  0  0  0  0  0  0  0  0  0
    1.4048    0.8040   -5.4921 N   0  0  0  0  0  0  0  0  0  0  0  0
   -0.7086    5.3536   -4.4257 O   0  0  0  0  0  0  0  0  0  0  0  0
   -0.0679    9.9497    1.0624 C   0  0  0  0  0  0  0  0  0  0  0  0
    0.1002   11.0574    0.1480 C   0  0  0  0  0  0  0  0  0  0  0  0
    2.5296    4.9910   -2.8032 C   0  0  0  0  0  0  0  0  0  0  0  0
    3.6818    4.2036   -2.9344 C   0  0  0  0  0  0  0  0  0  0  0  0
    5.2632    2.3264   -3.9188 Cl  0  0  0  0  0  0  0  0  0  0  0  0
   -2.4768    8.6925    0.4142 H   0  0  0  0  0  0  0  0  0  0  0  0
   -2.9760    9.5432   -1.9752 H   0  0  0  0  0  0  0  0  0  0  0  0
    0.7369    3.6837   -5.3730 H   0  0  0  0  0  0  0  0  0  0  0  0
    0.7649    6.6792   -1.8955 H   0  0  0  0  0  0  0  0  0  0  0  0
    0.4100    8.6182   -0.4658 H   0  0  0  0  0  0  0  0  0  0  0  0
   -2.1745   11.6366   -0.5106 H   0  0  0  0  0  0  0  0  0  0  0  0
   -0.8575    9.0246   -3.6209 H   0  0  0  0  0  0  0  0  0  0  0  0
    0.1516    8.7320   -2.3124 H   0  0  0  0  0  0  0  0  0  0  0  0
   -2.7886    6.8078   -1.1234 H   0  0  0  0  0  0  0  0  0  0  0  0
   -1.2219    6.4174   -0.4197 H   0  0  0  0  0  0  0  0  0  0  0  0
   -0.2154   11.8744   -1.6504 H   0  0  0  0  0  0  0  0  0  0  0  0
   -0.8230   10.7110   -2.6945 H   0  0  0  0  0  0  0  0  0  0  0  0
    1.5832    0.1987   -4.6991 H   0  0  0  0  0  0  0  0  0  0  0  0
    0.4684    1.1398   -5.7024 H   0  0  0  0  0  0  0  0  0  0  0  0
   -0.3283   10.6613    1.8587 H   0  0  0  0  0  0  0  0  0  0  0  0
    0.7561    9.3626    1.4667 H   0  0  0  0  0  0  0  0  0  0  0  0
    0.3148   12.0971    0.3868 H   0  0  0  0  0  0  0  0  0  0  0  0
    1.0878   10.7820   -0.3892 H   0  0  0  0  0  0  0  0  0  0  0  0
    2.5243    5.7323   -2.0118 H   0  0  0  0  0  0  0  0  0  0  0  0
    4.5136    4.3703   -2.2501 H   0  0  0  0  0  0  0  0  0  0  0  0
  2  1  1  0  0  0  0
  3  8  1  0  0  0  0
  4 12  1  0  0  0  0
  4 26  1  1  0  0  0
  5 13  1  0  0  0  0
  5  4  1  0  0  0  0
  5 25  1  6  0  0  0
  6 11  1  0  0  0  0
  7  2  2  0  0  0  0
  7 27  1  0  0  0  0
  8  6  1  0  0  0  0
  8 28  1  0  0  0  0
  9  5  1  0  0  0  0
  9 14  1  0  0  0  0
  9 29  1  6  0  0  0
 10  4  1  0  0  0  0
 10 14  1  0  0  0  0
 10 30  1  6  0  0  0
 11  7  1  0  0  0  0
 12  3  1  0  0  0  0
 12 31  1  0  0  0  0
 12 32  1  0  0  0  0
 13  3  1  0  0  0  0
 13 33  1  0  0  0  0
 13 34  1  0  0  0  0
 14 35  1  0  0  0  0
 14 36  1  0  0  0  0
 15  2  1  0  0  0  0
 16  1  2  0  0  0  0
 17  1  2  0  0  0  0
 18  1  1  0  0  0  0
 18 37  1  0  0  0  0
 18 38  1  0  0  0  0
 19  6  2  0  0  0  0
 20  9  1  0  0  0  0
 20 39  1  0  0  0  0
 20 40  1  0  0  0  0
 21 10  1  0  0  0  0
 21 20  1  0  0  0  0
 21 41  1  0  0  0  0
 21 42  1  0  0  0  0
 22 23  1  0  0  0  0
 22 11  2  0  0  0  0
 22 43  1  0  0  0  0
 23 15  2  0  0  0  0
 23 44  1  0  0  0  0
 24 15  1  0  0  0  0
M  END
>  <DRUGBANK_ID>
DB15959

>  <COMMON_NAME>
Tripamide

>  <CAS_NUMBER>
73803-48-2

>  <UNII>
G36A0E9CVT

>  <SYNONYMS>
Tripamide

$$$$
