5CP
 OpenBabel10282417163D

 47 50  0  0  0  0  0  0  0  0999 V2000
    1.1497   -0.8063    0.0237 C   0  0  0  0  0  0  0  0  0  0  0  0
   -0.0820   -1.4209    0.0132 C   0  0  0  0  0  0  0  0  0  0  0  0
   -1.2126   -0.6183   -0.0265 C   0  0  0  0  0  0  0  0  0  0  0  0
   -1.1178    0.7250   -0.0193 N   0  0  0  0  0  0  0  0  0  0  0  0
    1.2246    0.5282    0.0256 N   0  0  0  0  0  0  0  0  0  0  0  0
    6.6353    0.9446    2.8309 C   0  0  0  0  0  0  0  0  0  0  0  0
    5.6802    2.0603    2.5645 C   0  0  0  0  0  0  0  0  0  0  0  0
    6.2304    1.2529    1.4054 C   0  0  0  0  0  0  0  0  0  0  0  0
    5.2971    0.2946    0.6922 C   0  0  0  0  0  0  0  0  0  0  0  0
    4.0350   -0.0832    1.0748 C   0  0  0  0  0  0  0  0  0  0  0  0
    5.5248   -0.3563   -0.4861 N   0  0  0  0  0  0  0  0  0  0  0  0
    4.5334   -1.2116   -0.8297 N   0  0  0  0  0  0  0  0  0  0  0  0
    3.5802   -0.9787    0.0812 C   0  0  0  0  0  0  0  0  0  0  0  0
    2.3494   -1.5552    0.1315 N   0  0  0  0  0  0  0  0  0  0  0  0
   -2.4644   -1.2115    0.0247 N   0  0  0  0  0  0  0  0  0  0  0  0
   -3.6827   -0.4365   -0.0655 C   0  0  0  0  0  0  0  0  0  0  0  0
    0.1072    1.2513    0.0116 C   0  0  0  0  0  0  0  0  0  0  0  0
    0.2355    2.6378    0.1112 N   0  0  0  0  0  0  0  0  0  0  0  0
    1.4253    3.3643    0.0149 C   0  0  0  0  0  0  0  0  0  0  0  0
    2.3208    3.1570   -1.0426 C   0  0  0  0  0  0  0  0  0  0  0  0
    3.5355    3.8398   -1.1075 C   0  0  0  0  0  0  0  0  0  0  0  0
    1.7635    4.2880    1.0048 C   0  0  0  0  0  0  0  0  0  0  0  0
    2.9709    4.9874    0.9381 C   0  0  0  0  0  0  0  0  0  0  0  0
    3.8833    4.7454   -0.1018 C   0  0  0  0  0  0  0  0  0  0  0  0
    5.2277    5.4292   -0.1138 C   0  0  0  0  0  0  0  0  0  0  0  0
    5.0512    6.9373   -0.1829 C   0  0  0  0  0  0  0  0  0  0  0  0
    4.9049    8.1884   -0.2403 N   0  0  0  0  0  0  0  0  0  0  0  0
   -0.1648   -2.5001    0.0358 H   0  0  0  0  0  0  0  0  0  0  0  0
    7.6360    1.2148    3.1524 H   0  0  0  0  0  0  0  0  0  0  0  0
    6.2781    0.0203    3.2714 H   0  0  0  0  0  0  0  0  0  0  0  0
    4.6548    1.9198    2.8894 H   0  0  0  0  0  0  0  0  0  0  0  0
    6.0229    3.0796    2.6863 H   0  0  0  0  0  0  0  0  0  0  0  0
    7.0313    1.6649    0.7993 H   0  0  0  0  0  0  0  0  0  0  0  0
    3.4747    0.2491    1.9338 H   0  0  0  0  0  0  0  0  0  0  0  0
    6.3561   -0.3166   -1.0663 H   0  0  0  0  0  0  0  0  0  0  0  0
    2.2779   -2.4382   -0.3549 H   0  0  0  0  0  0  0  0  0  0  0  0
   -2.5356   -2.2080   -0.1269 H   0  0  0  0  0  0  0  0  0  0  0  0
   -4.2321   -0.6859   -0.9801 H   0  0  0  0  0  0  0  0  0  0  0  0
   -4.3226   -0.6916    0.7850 H   0  0  0  0  0  0  0  0  0  0  0  0
   -3.5330    0.6476   -0.0508 H   0  0  0  0  0  0  0  0  0  0  0  0
   -0.6385    3.1318    0.1253 H   0  0  0  0  0  0  0  0  0  0  0  0
    2.0792    2.4341   -1.8195 H   0  0  0  0  0  0  0  0  0  0  0  0
    4.2001    3.6434   -1.9452 H   0  0  0  0  0  0  0  0  0  0  0  0
    1.1176    4.4232    1.8683 H   0  0  0  0  0  0  0  0  0  0  0  0
    3.1937    5.7180    1.7138 H   0  0  0  0  0  0  0  0  0  0  0  0
    5.7783    5.1610    0.7950 H   0  0  0  0  0  0  0  0  0  0  0  0
    5.8287    5.1039   -0.9704 H   0  0  0  0  0  0  0  0  0  0  0  0
  1  2  2  0  0  0  0
  1  5  1  0  0  0  0
  1 14  1  0  0  0  0
  2  3  1  0  0  0  0
  2 28  1  0  0  0  0
  3  4  2  0  0  0  0
  3 15  1  0  0  0  0
  4 17  1  0  0  0  0
  5 17  2  0  0  0  0
  6  7  1  0  0  0  0
  6  8  1  0  0  0  0
  6 29  1  0  0  0  0
  6 30  1  0  0  0  0
  7  8  1  0  0  0  0
  7 31  1  0  0  0  0
  7 32  1  0  0  0  0
  8  9  1  0  0  0  0
  8 33  1  0  0  0  0
  9 10  2  0  0  0  0
  9 11  1  0  0  0  0
 10 13  1  0  0  0  0
 10 34  1  0  0  0  0
 11 12  1  0  0  0  0
 11 35  1  0  0  0  0
 12 13  2  0  0  0  0
 13 14  1  0  0  0  0
 14 36  1  0  0  0  0
 15 16  1  0  0  0  0
 15 37  1  0  0  0  0
 16 38  1  0  0  0  0
 16 39  1  0  0  0  0
 16 40  1  0  0  0  0
 17 18  1  0  0  0  0
 18 19  1  0  0  0  0
 18 41  1  0  0  0  0
 19 20  2  0  0  0  0
 19 22  1  0  0  0  0
 20 21  1  0  0  0  0
 20 42  1  0  0  0  0
 21 24  2  0  0  0  0
 21 43  1  0  0  0  0
 22 23  2  0  0  0  0
 22 44  1  0  0  0  0
 23 24  1  0  0  0  0
 23 45  1  0  0  0  0
 24 25  1  0  0  0  0
 25 26  1  0  0  0  0
 25 46  1  0  0  0  0
 25 47  1  0  0  0  0
 26 27  3  0  0  0  0
M  END
>  <DRUGBANK_ID>
DB07168

>  <COMMON_NAME>
[4-({4-[(5-cyclopropyl-1H-pyrazol-3-yl)amino]-6-(methylamino)pyrimidin-2-yl}amino)phenyl]acetonitrile

$$$$
