
 OpenBabel10282417183D

 38 41  0  0  0  0  0  0  0  0999 V2000
    1.0107   -0.2011   -0.1315 C   0  0  0  0  0  0  0  0  0  0  0  0
    0.3502    1.0784    0.0051 N   0  0  0  0  0  0  0  0  0  0  0  0
   -1.0874    1.1986    0.0669 C   0  0  0  0  0  0  0  0  0  0  0  0
   -1.8678    0.4133    0.9249 C   0  0  0  0  0  0  0  0  0  0  0  0
   -1.1921   -0.5237    2.2122 Cl  0  0  0  0  0  0  0  0  0  0  0  0
   -3.2609    0.4749    0.8820 C   0  0  0  0  0  0  0  0  0  0  0  0
   -3.9207    1.3361    0.0345 N   0  3  0  0  0  0  0  0  0  0  0  0
   -5.1863    1.3745    0.0101 O   0  5  0  0  0  0  0  0  0  0  0  0
   -3.1751    2.1782   -0.7606 C   0  0  0  0  0  0  0  0  0  0  0  0
   -1.7744    2.1375   -0.7353 C   0  0  0  0  0  0  0  0  0  0  0  0
   -0.9436    3.2324   -1.7845 Cl  0  0  0  0  0  0  0  0  0  0  0  0
    0.4024   -1.2422   -0.2109 O   0  0  0  0  0  0  0  0  0  0  0  0
    2.5313   -0.2637   -0.2363 C   0  0  0  0  0  0  0  0  0  0  0  0
    3.3683   -1.5012   -0.2578 C   0  0  0  0  0  0  0  0  0  0  0  0
    4.7230   -1.1869   -0.0564 C   0  0  0  0  0  0  0  0  0  0  0  0
    5.4118   -2.2595    0.3117 O   0  0  0  0  0  0  0  0  0  0  0  0
    4.6070   -3.2930    0.4175 C   0  0  0  0  0  0  0  0  0  0  0  0
    3.4429   -3.0637   -0.2958 C   0  0  0  0  0  0  0  0  0  0  0  0
    2.8872   -4.3210   -0.6773 C   0  0  0  0  0  0  0  0  0  0  0  0
    3.2811   -5.4936   -0.0034 N   0  0  0  0  0  0  0  0  0  0  0  0
    4.2061   -5.4659    0.9795 C   0  0  0  0  0  0  0  0  0  0  0  0
    4.9976   -4.3820    1.1677 C   0  0  0  0  0  0  0  0  0  0  0  0
    5.3738    0.0515   -0.0338 C   0  0  0  0  0  0  0  0  0  0  0  0
    6.7338    0.2647    0.1124 O   0  0  0  0  0  0  0  0  0  0  0  0
    7.5849   -0.8852    0.0795 C   0  0  0  0  0  0  0  0  0  0  0  0
    7.4102   -1.6281    1.2006 F   0  0  0  0  0  0  0  0  0  0  0  0
    7.3410   -1.6322   -1.0256 F   0  0  0  0  0  0  0  0  0  0  0  0
    4.5756    1.1702   -0.0305 C   0  0  0  0  0  0  0  0  0  0  0  0
    3.1958    1.0153   -0.0857 C   0  0  0  0  0  0  0  0  0  0  0  0
    0.8168    1.9467   -0.2289 H   0  0  0  0  0  0  0  0  0  0  0  0
   -3.9232   -0.1085    1.5027 H   0  0  0  0  0  0  0  0  0  0  0  0
   -3.7871    2.8189   -1.3821 H   0  0  0  0  0  0  0  0  0  0  0  0
    2.2547   -4.5655   -1.5311 H   0  0  0  0  0  0  0  0  0  0  0  0
    4.3331   -6.3414    1.6144 H   0  0  0  0  0  0  0  0  0  0  0  0
    5.8027   -4.2961    1.8822 H   0  0  0  0  0  0  0  0  0  0  0  0
    8.6281   -0.5803    0.0554 H   0  0  0  0  0  0  0  0  0  0  0  0
    5.0282    2.1548    0.0818 H   0  0  0  0  0  0  0  0  0  0  0  0
    2.6590    1.9528    0.0444 H   0  0  0  0  0  0  0  0  0  0  0  0
  1  2  1  0  0  0  0
  1 12  2  0  0  0  0
  1 13  1  0  0  0  0
  2  3  1  0  0  0  0
  2 30  1  0  0  0  0
  3  4  2  0  0  0  0
  3 10  1  0  0  0  0
  4  5  1  0  0  0  0
  4  6  1  0  0  0  0
  6  7  2  0  0  0  0
  6 31  1  0  0  0  0
  7  8  1  0  0  0  0
  9  7  1  0  0  0  0
  9 32  1  0  0  0  0
 10  9  2  0  0  0  0
 10 11  1  0  0  0  0
 13 14  1  0  0  0  0
 13 29  2  0  0  0  0
 14 15  2  0  0  0  0
 14 18  1  0  0  0  0
 15 16  1  0  0  0  0
 15 23  1  0  0  0  0
 16 17  1  0  0  0  0
 17 22  2  0  0  0  0
 18 17  1  0  0  0  0
 18 19  2  0  0  0  0
 19 20  1  0  0  0  0
 19 33  1  0  0  0  0
 20 21  2  0  0  0  0
 21 34  1  0  0  0  0
 22 21  1  0  0  0  0
 22 35  1  0  0  0  0
 23 24  1  0  0  0  0
 24 25  1  0  0  0  0
 25 26  1  0  0  0  0
 25 27  1  0  0  0  0
 25 36  1  0  0  0  0
 28 23  2  0  0  0  0
 28 37  1  0  0  0  0
 29 28  1  0  0  0  0
 29 38  1  0  0  0  0
M  CHG  2   7   1   8  -1
M  END
>  <DRUGBANK_ID>
DB11838

>  <COMMON_NAME>
Revamilast

>  <CAS_NUMBER>
893555-90-3

>  <UNII>
30LE65637T

>  <SYNONYMS>
Revamilast; RÃ©vamilast; Revamilastum

$$$$
