
 OpenBabel10282417243D

 41 43  0  0  0  0  0  0  0  0999 V2000
    1.0013   -0.2716    0.2731 C   0  0  0  0  0  0  0  0  0  0  0  0
    0.4790   -1.4778   -0.4131 C   0  0  0  0  0  0  0  0  0  0  0  0
    0.7409   -2.7356    0.1146 O   0  0  0  0  0  0  0  0  0  0  0  0
    0.2156   -3.6736   -0.7655 C   0  0  0  0  0  0  0  0  0  0  0  0
    0.2277   -5.0924   -0.7316 C   0  0  0  0  0  0  0  0  0  0  0  0
    0.6333   -5.8700    0.4903 C   0  0  0  0  0  0  0  0  0  0  0  0
   -0.2520   -5.6929   -1.9579 C   0  0  0  0  0  0  0  0  0  0  0  0
   -0.1366   -7.0993   -2.1820 O   0  0  0  0  0  0  0  0  0  0  0  0
   -0.5091   -7.7038   -3.4013 C   0  0  0  0  0  0  0  0  0  0  0  0
   -0.3813   -8.8939   -3.6185 O   0  0  0  0  0  0  0  0  0  0  0  0
   -1.0819   -6.8362   -4.4504 C   0  0  0  0  0  0  0  0  0  0  0  0
   -1.2569   -5.5291   -4.2782 C   0  0  0  0  0  0  0  0  0  0  0  0
   -1.8119   -4.6218   -5.3523 C   0  0  0  0  0  0  0  0  0  0  0  0
   -0.8408   -4.9616   -2.9990 C   0  0  0  0  0  0  0  0  0  0  0  0
   -1.0111   -3.6142   -2.8372 C   0  0  0  0  0  0  0  0  0  0  0  0
   -0.3979   -2.9703   -1.7827 C   0  0  0  0  0  0  0  0  0  0  0  0
   -0.2359   -1.5955   -1.5854 C   0  0  0  0  0  0  0  0  0  0  0  0
   -0.7099   -0.6194   -2.6064 C   0  0  0  0  0  0  0  0  0  0  0  0
   -0.0011   -0.6850   -3.8593 O   0  0  0  0  0  0  0  0  0  0  0  0
    1.4284   -0.6265   -3.7688 C   0  0  0  0  0  0  0  0  0  0  0  0
    1.9656    0.7659   -3.3928 C   0  0  0  0  0  0  0  0  0  0  0  0
    1.5518    1.2607   -2.0907 N   0  0  0  0  0  0  0  0  0  0  0  0
    0.7859   -0.2406    1.3385 H   0  0  0  0  0  0  0  0  0  0  0  0
    0.4910    0.6125   -0.1250 H   0  0  0  0  0  0  0  0  0  0  0  0
    2.0787   -0.1495    0.1071 H   0  0  0  0  0  0  0  0  0  0  0  0
    1.6653   -5.6627    0.7921 H   0  0  0  0  0  0  0  0  0  0  0  0
   -0.0155   -5.5942    1.3343 H   0  0  0  0  0  0  0  0  0  0  0  0
    0.5248   -6.9518    0.3602 H   0  0  0  0  0  0  0  0  0  0  0  0
   -1.3552   -7.3134   -5.3854 H   0  0  0  0  0  0  0  0  0  0  0  0
   -2.7220   -4.1173   -5.0024 H   0  0  0  0  0  0  0  0  0  0  0  0
   -1.0794   -3.8511   -5.6313 H   0  0  0  0  0  0  0  0  0  0  0  0
   -2.0753   -5.1595   -6.2651 H   0  0  0  0  0  0  0  0  0  0  0  0
   -1.5074   -2.9980   -3.5726 H   0  0  0  0  0  0  0  0  0  0  0  0
   -1.7530   -0.8609   -2.8549 H   0  0  0  0  0  0  0  0  0  0  0  0
   -0.7961    0.3999   -2.2538 H   0  0  0  0  0  0  0  0  0  0  0  0
    1.8206   -1.4176   -3.1187 H   0  0  0  0  0  0  0  0  0  0  0  0
    1.8128   -0.8680   -4.7696 H   0  0  0  0  0  0  0  0  0  0  0  0
    3.0575    0.7304   -3.3980 H   0  0  0  0  0  0  0  0  0  0  0  0
    1.6245    1.4899   -4.1360 H   0  0  0  0  0  0  0  0  0  0  0  0
    2.0281    2.1154   -1.8235 H   0  0  0  0  0  0  0  0  0  0  0  0
    0.5696    1.5130   -2.1220 H   0  0  0  0  0  0  0  0  0  0  0  0
  1  2  1  0  0  0  0
  1 23  1  0  0  0  0
  1 24  1  0  0  0  0
  1 25  1  0  0  0  0
  2  3  1  0  0  0  0
  2 17  2  0  0  0  0
  3  4  1  0  0  0  0
  4  5  2  0  0  0  0
  4 16  1  0  0  0  0
  5  6  1  0  0  0  0
  5  7  1  0  0  0  0
  6 26  1  0  0  0  0
  6 27  1  0  0  0  0
  6 28  1  0  0  0  0
  7  8  1  0  0  0  0
  7 14  2  0  0  0  0
  8  9  1  0  0  0  0
  9 10  2  0  0  0  0
  9 11  1  0  0  0  0
 11 12  2  0  0  0  0
 11 29  1  0  0  0  0
 12 13  1  0  0  0  0
 12 14  1  0  0  0  0
 13 30  1  0  0  0  0
 13 31  1  0  0  0  0
 13 32  1  0  0  0  0
 14 15  1  0  0  0  0
 15 16  2  0  0  0  0
 15 33  1  0  0  0  0
 16 17  1  0  0  0  0
 17 18  1  0  0  0  0
 18 19  1  0  0  0  0
 18 34  1  0  0  0  0
 18 35  1  0  0  0  0
 19 20  1  0  0  0  0
 20 21  1  0  0  0  0
 20 36  1  0  0  0  0
 20 37  1  0  0  0  0
 21 22  1  0  0  0  0
 21 38  1  0  0  0  0
 21 39  1  0  0  0  0
 22 40  1  0  0  0  0
 22 41  1  0  0  0  0
M  END
>  <DRUGBANK_ID>
DB17693

>  <COMMON_NAME>
Amotosalen

>  <CAS_NUMBER>
161262-29-9

>  <UNII>
K1LDZ0VBC0

>  <SYNONYMS>
3-((2-aminoethoxy)methyl)-2,5,9-trimethyl-7h-furo(3,2-g)chromen-7-one; 7h-furo(3,2-g)(1)benzopyran-7-one, 3-((2-aminoethoxy)methyl)-2,5,9-trimethyl-; Amotosalen

$$$$
