925
 OpenBabel10282417113D

 43 44  0  0  1  0  0  0  0  0999 V2000
    1.7337   -0.7791   -0.3348 Cl  0  0  0  0  0  0  0  0  0  0  0  0
    0.9870    4.4174    0.8099 O   0  0  0  0  0  0  0  0  0  0  0  0
    3.5510    2.3324    0.9684 N   0  0  0  0  0  0  0  0  0  0  0  0
    3.7620    3.7962    1.1585 C   0  0  3  0  0  0  0  0  0  0  0  0
    2.1532    2.3292    0.7028 C   0  0  0  0  0  0  0  0  0  0  0  0
    3.8880    1.3938   -0.1294 C   0  0  0  0  0  0  0  0  0  0  0  0
    2.7648    4.5172    0.2857 C   0  0  0  0  0  0  0  0  0  0  0  0
    3.3162    4.5784    2.4201 C   0  0  0  0  0  0  0  0  0  0  0  0
    1.5385    2.8654   -0.9879 C   0  0  0  0  0  0  0  0  0  0  0  0
    3.3804   -0.1456    0.0180 C   0  0  0  0  0  0  0  0  0  0  0  0
    0.9282    2.0009   -1.9053 C   0  0  0  0  0  0  0  0  0  0  0  0
    1.2363    4.3594   -1.5061 C   0  0  0  0  0  0  0  0  0  0  0  0
   -0.2397    3.3161    0.7787 C   0  0  0  0  0  0  0  0  0  0  0  0
    0.2138    2.5809   -2.9987 C   0  0  0  0  0  0  0  0  0  0  0  0
    0.6212    4.9090   -2.5510 C   0  0  0  0  0  0  0  0  0  0  0  0
    0.0644    3.9470   -3.3792 C   0  0  0  0  0  0  0  0  0  0  0  0
   -0.1103    1.9954    1.3816 C   0  0  0  0  0  0  0  0  0  0  0  0
   -1.2447    3.2021   -0.2120 C   0  0  0  0  0  0  0  0  0  0  0  0
   -0.8797    0.8112    1.4114 C   0  0  0  0  0  0  0  0  0  0  0  0
   -1.9044    1.8888   -0.4673 C   0  0  0  0  0  0  0  0  0  0  0  0
   -1.6799    0.7089    0.3009 C   0  0  0  0  0  0  0  0  0  0  0  0
    4.8185    4.0018    0.9414 H   0  0  0  0  0  0  0  0  0  0  0  0
    1.9586    1.3370    1.1394 H   0  0  0  0  0  0  0  0  0  0  0  0
    1.7900    2.8768    1.6086 H   0  0  0  0  0  0  0  0  0  0  0  0
    4.9644    1.3279   -0.1745 H   0  0  0  0  0  0  0  0  0  0  0  0
    3.5528    1.7451   -1.1072 H   0  0  0  0  0  0  0  0  0  0  0  0
    2.9888    5.5820    0.1087 H   0  0  0  0  0  0  0  0  0  0  0  0
    3.1009    4.1039   -0.7129 H   0  0  0  0  0  0  0  0  0  0  0  0
    3.6467    4.1531    3.3511 H   0  0  0  0  0  0  0  0  0  0  0  0
    3.6257    5.6313    2.2937 H   0  0  0  0  0  0  0  0  0  0  0  0
    2.2252    4.6909    2.5232 H   0  0  0  0  0  0  0  0  0  0  0  0
    3.5664   -0.5150    1.0254 H   0  0  0  0  0  0  0  0  0  0  0  0
    3.9351   -0.6931   -0.7315 H   0  0  0  0  0  0  0  0  0  0  0  0
    0.7442    0.9757   -1.6876 H   0  0  0  0  0  0  0  0  0  0  0  0
    1.3696    5.2845   -0.8856 H   0  0  0  0  0  0  0  0  0  0  0  0
   -0.4787    1.9106   -3.5215 H   0  0  0  0  0  0  0  0  0  0  0  0
    0.4085    5.9790   -2.6000 H   0  0  0  0  0  0  0  0  0  0  0  0
   -0.5689    4.2946   -4.1520 H   0  0  0  0  0  0  0  0  0  0  0  0
    0.4495    1.4456    0.5467 H   0  0  0  0  0  0  0  0  0  0  0  0
   -1.4081    3.9455   -0.9853 H   0  0  0  0  0  0  0  0  0  0  0  0
   -0.3523   -0.0866    1.7864 H   0  0  0  0  0  0  0  0  0  0  0  0
   -2.4660    1.7419   -1.3943 H   0  0  0  0  0  0  0  0  0  0  0  0
   -1.9307   -0.2904   -0.0627 H   0  0  0  0  0  0  0  0  0  0  0  0
  1 10  1  0  0  0  0
  2  7  1  0  0  0  0
  2 13  1  0  0  0  0
  3  4  1  0  0  0  0
  3  5  1  0  0  0  0
  3  6  1  0  0  0  0
  4  7  1  0  0  0  0
  4  8  1  0  0  0  0
  4 22  1  0  0  0  0
  5  9  1  0  0  0  0
  5 23  1  0  0  0  0
  5 24  1  0  0  0  0
  6 10  1  0  0  0  0
  6 25  1  0  0  0  0
  6 26  1  0  0  0  0
  7 27  1  0  0  0  0
  7 28  1  0  0  0  0
  8 29  1  0  0  0  0
  8 30  1  0  0  0  0
  8 31  1  0  0  0  0
  9 11  2  0  0  0  0
  9 12  1  0  0  0  0
 10 32  1  0  0  0  0
 10 33  1  0  0  0  0
 11 14  1  0  0  0  0
 11 34  1  0  0  0  0
 12 15  2  0  0  0  0
 12 35  1  0  0  0  0
 13 17  2  0  0  0  0
 13 18  1  0  0  0  0
 14 16  2  0  0  0  0
 14 36  1  0  0  0  0
 15 16  1  0  0  0  0
 15 37  1  0  0  0  0
 16 38  1  0  0  0  0
 17 19  1  0  0  0  0
 17 39  1  0  0  0  0
 18 20  2  0  0  0  0
 18 40  1  0  0  0  0
 19 21  2  0  0  0  0
 19 41  1  0  0  0  0
 20 21  1  0  0  0  0
 20 42  1  0  0  0  0
 21 43  1  0  0  0  0
M  END
>  <DRUGBANK_ID>
DB00925

>  <SECONDARY_ACCESSION_NUMBERS>
APRD00651

>  <COMMON_NAME>
Phenoxybenzamine

>  <CAS_NUMBER>
59-96-1

>  <UNII>
0TTZ664R7Z

>  <SYNONYMS>
Fenossibenzamina; Fenoxibenzamina; Phenoxybenzamine; Phenoxybenzaminum; POB

$$$$
