F83
 OpenBabel10282417163D

 40 42  0  0  0  0  0  0  0  0999 V2000
    0.7474   -0.1293   -0.1872 O   0  0  0  0  0  0  0  0  0  0  0  0
    0.4290    1.2474   -0.0219 C   0  0  0  0  0  0  0  0  0  0  0  0
    0.9927    1.8617    1.2943 C   0  0  2  0  0  0  0  0  0  0  0  0
    1.4057    3.2413    0.9763 N   0  0  0  0  0  0  0  0  0  0  0  0
    2.8416    3.3778    0.7976 C   0  0  0  0  0  0  0  0  0  0  0  0
    3.5322    2.1177    0.3405 C   0  0  0  0  0  0  0  0  0  0  0  0
    4.3430    2.0717   -0.7836 C   0  0  0  0  0  0  0  0  0  0  0  0
    5.1907    1.0072   -1.0489 C   0  0  0  0  0  0  0  0  0  0  0  0
    4.9888   -0.1781   -0.3362 C   0  0  0  0  0  0  0  0  0  0  0  0
    3.9973   -0.2260    0.6643 C   0  0  0  0  0  0  0  0  0  0  0  0
    3.3005    0.9364    1.0284 C   0  0  0  0  0  0  0  0  0  0  0  0
    2.1074    0.9874    1.9551 C   0  0  0  0  0  0  0  0  0  0  0  0
    6.5360    1.1483   -2.2248 S   0  0  0  0  0  0  0  0  0  0  0  0
    7.7564    0.8096   -1.5056 O   0  0  0  0  0  0  0  0  0  0  0  0
    6.1437    0.3808   -3.3812 O   0  0  0  0  0  0  0  0  0  0  0  0
    6.7654    2.7386   -2.7731 N   0  0  0  0  0  0  0  0  0  0  0  0
    6.2276    3.9310   -2.2191 C   0  0  0  0  0  0  0  0  0  0  0  0
    6.2357    4.1703   -0.8442 C   0  0  0  0  0  0  0  0  0  0  0  0
    5.3571    5.1227   -0.3056 C   0  0  0  0  0  0  0  0  0  0  0  0
    4.5610    5.9075   -1.1439 C   0  0  0  0  0  0  0  0  0  0  0  0
    4.6623    5.7719   -2.5251 C   0  0  0  0  0  0  0  0  0  0  0  0
    5.5033    4.7871   -3.0657 C   0  0  0  0  0  0  0  0  0  0  0  0
    3.3687    6.9529   -0.4672 Cl  0  0  0  0  0  0  0  0  0  0  0  0
    0.1612    1.9445    2.0026 H   0  0  0  0  0  0  0  0  0  0  0  0
    1.7039   -0.1630   -0.3719 H   0  0  0  0  0  0  0  0  0  0  0  0
    0.7964    1.7761   -0.9129 H   0  0  0  0  0  0  0  0  0  0  0  0
   -0.6604    1.3400   -0.0328 H   0  0  0  0  0  0  0  0  0  0  0  0
    1.0939    3.9047    1.6832 H   0  0  0  0  0  0  0  0  0  0  0  0
    2.9778    4.1682    0.0678 H   0  0  0  0  0  0  0  0  0  0  0  0
    3.3060    3.7146    1.7367 H   0  0  0  0  0  0  0  0  0  0  0  0
    4.2816    2.9042   -1.4579 H   0  0  0  0  0  0  0  0  0  0  0  0
    5.5385   -1.0813   -0.5988 H   0  0  0  0  0  0  0  0  0  0  0  0
    3.7294   -1.1811    1.1114 H   0  0  0  0  0  0  0  0  0  0  0  0
    2.4095    1.4235    2.9151 H   0  0  0  0  0  0  0  0  0  0  0  0
    1.7200   -0.0170    2.1450 H   0  0  0  0  0  0  0  0  0  0  0  0
    7.4461    2.8197   -3.5281 H   0  0  0  0  0  0  0  0  0  0  0  0
    6.7392    3.4794   -0.1704 H   0  0  0  0  0  0  0  0  0  0  0  0
    5.1862    5.1294    0.7697 H   0  0  0  0  0  0  0  0  0  0  0  0
    4.0402    6.3808   -3.1782 H   0  0  0  0  0  0  0  0  0  0  0  0
    5.5034    4.6392   -4.1437 H   0  0  0  0  0  0  0  0  0  0  0  0
  1  2  1  0  0  0  0
  1 25  1  0  0  0  0
  2 26  1  0  0  0  0
  2 27  1  0  0  0  0
  3  2  1  0  0  0  0
  3  4  1  0  0  0  0
  3 12  1  0  0  0  0
  3 24  1  1  0  0  0
  4  5  1  0  0  0  0
  4 28  1  0  0  0  0
  5  6  1  0  0  0  0
  5 29  1  0  0  0  0
  5 30  1  0  0  0  0
  6  7  2  0  0  0  0
  6 11  1  0  0  0  0
  7  8  1  0  0  0  0
  7 31  1  0  0  0  0
  8  9  2  0  0  0  0
  8 13  1  0  0  0  0
  9 10  1  0  0  0  0
  9 32  1  0  0  0  0
 10 11  2  0  0  0  0
 10 33  1  0  0  0  0
 11 12  1  0  0  0  0
 12 34  1  0  0  0  0
 12 35  1  0  0  0  0
 13 14  2  0  0  0  0
 13 15  2  0  0  0  0
 13 16  1  0  0  0  0
 16 17  1  0  0  0  0
 16 36  1  0  0  0  0
 17 18  2  0  0  0  0
 17 22  1  0  0  0  0
 18 19  1  0  0  0  0
 18 37  1  0  0  0  0
 19 20  2  0  0  0  0
 19 38  1  0  0  0  0
 20 21  1  0  0  0  0
 20 23  1  0  0  0  0
 21 22  2  0  0  0  0
 21 39  1  0  0  0  0
 22 40  1  0  0  0  0
M  END
>  <DRUGBANK_ID>
DB07747

>  <COMMON_NAME>
(3R)-N-(4-CHLOROPHENYL)-3-(HYDROXYMETHYL)-1,2,3,4-TETRAHYDROISOQUINOLINE-7-SULFONAMIDE

$$$$
