29U
 OpenBabel10282417163D

 49 50  0  0  0  0  0  0  0  0999 V2000
   -4.0720    0.5645   -1.8287 N   0  0  0  0  0  0  0  0  0  0  0  0
   -4.0260    2.0709   -1.8547 C   0  0  2  0  0  0  0  0  0  0  0  0
   -4.5080    3.0323   -0.6594 C   0  0  0  0  0  0  0  0  0  0  0  0
   -4.4109    4.2291   -0.6617 O   0  0  0  0  0  0  0  0  0  0  0  0
   -5.0075    2.2760    0.3710 N   0  0  0  0  0  0  0  0  0  0  0  0
   -5.2982    2.5792    1.8031 C   0  0  0  0  0  0  0  0  0  0  0  0
   -6.6513    1.9636    2.2320 C   0  0  0  0  0  0  0  0  0  0  0  0
   -7.0777    0.6053    2.1470 C   0  0  0  0  0  0  0  0  0  0  0  0
   -8.3395    0.1480    2.4946 C   0  0  0  0  0  0  0  0  0  0  0  0
   -9.2297    1.0372    3.0382 C   0  0  0  0  0  0  0  0  0  0  0  0
  -10.6085    0.5568    3.3285 C   0  0  0  0  0  0  0  0  0  0  0  0
  -11.5162    1.3370    3.8198 N   0  0  0  0  0  0  0  0  0  0  0  0
  -10.9911   -0.7229    3.0663 N   0  0  0  0  0  0  0  0  0  0  0  0
   -8.8006    2.3580    3.2599 C   0  0  0  0  0  0  0  0  0  0  0  0
   -7.5578    2.8269    2.8126 C   0  0  0  0  0  0  0  0  0  0  0  0
   -4.9403    2.3911   -3.0197 C   0  0  0  0  0  0  0  0  0  0  0  0
   -4.5688    1.3327   -4.0409 C   0  0  0  0  0  0  0  0  0  0  0  0
   -4.2170    0.0991   -3.2133 C   0  0  0  0  0  0  0  0  0  0  0  0
   -3.6722   -0.4182   -0.9239 C   0  0  0  0  0  0  0  0  0  0  0  0
   -3.2488   -0.0872    0.5274 C   0  0  2  0  0  0  0  0  0  0  0  0
   -4.4648   -0.1556    1.3050 N   0  0  0  0  0  0  0  0  0  0  0  0
   -2.0712    0.8871    0.7214 C   0  0  0  0  0  0  0  0  0  0  0  0
   -1.9028    2.3307    0.2678 C   0  0  0  0  0  0  0  0  0  0  0  0
   -3.9036   -1.6135   -1.1687 O   0  0  0  0  0  0  0  0  0  0  0  0
   -3.0293    2.3300   -2.2244 H   0  0  0  0  0  0  0  0  0  0  0  0
   -2.8401   -1.0040    0.9691 H   0  0  0  0  0  0  0  0  0  0  0  0
   -4.8999    1.3381    0.0328 H   0  0  0  0  0  0  0  0  0  0  0  0
   -4.5139    2.1427    2.4605 H   0  0  0  0  0  0  0  0  0  0  0  0
   -5.2033    3.6531    1.9874 H   0  0  0  0  0  0  0  0  0  0  0  0
   -6.5170   -0.2543    1.8304 H   0  0  0  0  0  0  0  0  0  0  0  0
   -8.5578   -0.9051    2.3346 H   0  0  0  0  0  0  0  0  0  0  0  0
  -11.1491    2.2756    3.9731 H   0  0  0  0  0  0  0  0  0  0  0  0
  -10.4303   -1.4149    2.5946 H   0  0  0  0  0  0  0  0  0  0  0  0
  -11.9672   -0.9439    3.2088 H   0  0  0  0  0  0  0  0  0  0  0  0
   -9.4145    3.0713    3.7892 H   0  0  0  0  0  0  0  0  0  0  0  0
   -7.2982    3.8761    2.9192 H   0  0  0  0  0  0  0  0  0  0  0  0
   -5.9848    2.2971   -2.7062 H   0  0  0  0  0  0  0  0  0  0  0  0
   -4.7640    3.4097   -3.3766 H   0  0  0  0  0  0  0  0  0  0  0  0
   -5.3793    1.1525   -4.7491 H   0  0  0  0  0  0  0  0  0  0  0  0
   -3.6912    1.6640   -4.6110 H   0  0  0  0  0  0  0  0  0  0  0  0
   -4.9704   -0.6914   -3.2857 H   0  0  0  0  0  0  0  0  0  0  0  0
   -3.2573   -0.3215   -3.5515 H   0  0  0  0  0  0  0  0  0  0  0  0
   -4.9678    0.6991    1.3675 H   0  0  0  0  0  0  0  0  0  0  0  0
   -5.1250   -0.7473    0.7787 H   0  0  0  0  0  0  0  0  0  0  0  0
   -1.7981    0.8905    1.7804 H   0  0  0  0  0  0  0  0  0  0  0  0
   -1.2844    0.3673    0.1688 H   0  0  0  0  0  0  0  0  0  0  0  0
   -2.4793    3.0692    0.8299 H   0  0  0  0  0  0  0  0  0  0  0  0
   -0.8545    2.6360    0.3313 H   0  0  0  0  0  0  0  0  0  0  0  0
   -2.0580    2.4500   -0.7861 H   0  0  0  0  0  0  0  0  0  0  0  0
  1 19  1  0  0  0  0
  2  1  1  0  0  0  0
  2 25  1  6  0  0  0
  2  3  1  0  0  0  0
  3  5  1  0  0  0  0
  4  3  2  0  0  0  0
  5 27  1  0  0  0  0
  6  5  1  0  0  0  0
  6  7  1  0  0  0  0
  6 28  1  0  0  0  0
  6 29  1  0  0  0  0
  7  8  2  0  0  0  0
  7 15  1  0  0  0  0
  8  9  1  0  0  0  0
  8 30  1  0  0  0  0
  9 10  2  0  0  0  0
  9 31  1  0  0  0  0
 10 11  1  0  0  0  0
 11 12  2  0  0  0  0
 11 13  1  0  0  0  0
 12 32  1  0  0  0  0
 13 33  1  0  0  0  0
 13 34  1  0  0  0  0
 14 10  1  0  0  0  0
 14 35  1  0  0  0  0
 15 14  2  0  0  0  0
 15 36  1  0  0  0  0
 16  2  1  0  0  0  0
 16 17  1  0  0  0  0
 16 37  1  0  0  0  0
 16 38  1  0  0  0  0
 17 18  1  0  0  0  0
 17 39  1  0  0  0  0
 17 40  1  0  0  0  0
 18  1  1  0  0  0  0
 18 41  1  0  0  0  0
 18 42  1  0  0  0  0
 19 24  2  0  0  0  0
 20 26  1  1  0  0  0
 20 21  1  0  0  0  0
 20 22  1  0  0  0  0
 20 19  1  0  0  0  0
 21 43  1  0  0  0  0
 21 44  1  0  0  0  0
 22 23  1  0  0  0  0
 22 45  1  0  0  0  0
 22 46  1  0  0  0  0
 23 47  1  0  0  0  0
 23 48  1  0  0  0  0
 23 49  1  0  0  0  0
M  END
>  <DRUGBANK_ID>
DB06947

>  <COMMON_NAME>
1-[(2R)-2-aminobutanoyl]-N-(4-carbamimidoylbenzyl)-L-prolinamide

$$$$
