
 OpenBabel10282417213D

 63 63  0  0  0  0  0  0  0  0999 V2000
   -1.2355   -0.5208   -0.1214 C   0  0  0  0  0  0  0  0  0  0  0  0
    1.2630   -1.0261    0.0704 C   0  0  0  0  0  0  0  0  0  0  0  0
    0.5299    1.3650   -0.0593 C   0  0  0  0  0  0  0  0  0  0  0  0
   -0.1152   -1.4426   -0.0790 C   0  0  0  0  0  0  0  0  0  0  0  0
   -0.8136    0.8805   -0.2396 C   0  0  0  0  0  0  0  0  0  0  0  0
    1.5524    0.3759    0.0804 C   0  0  0  0  0  0  0  0  0  0  0  0
   -2.6576   -0.8520    0.2340 N   0  0  0  0  0  0  0  0  0  0  0  0
    2.4083   -2.0424    0.1997 C   0  0  0  0  0  0  0  0  0  0  0  0
    0.7591    2.8803    0.0692 C   0  0  0  0  0  0  0  0  0  0  0  0
   -3.3383   -2.0889    0.4892 C   0  0  0  0  0  0  0  0  0  0  0  0
    2.0591   -3.3394    0.4937 N   0  0  0  0  0  0  0  0  0  0  0  0
    2.0317    3.3443   -0.0549 N   0  0  0  0  0  0  0  0  0  0  0  0
   -3.6089    0.2269    0.3890 C   0  0  0  0  0  0  0  0  0  0  0  0
    3.5731   -1.8020    0.0608 O   0  0  0  0  0  0  0  0  0  0  0  0
   -0.1273    3.6860    0.3182 O   0  0  0  0  0  0  0  0  0  0  0  0
   -4.5557   -2.2449    0.6324 O   0  0  0  0  0  0  0  0  0  0  0  0
   -2.1676    2.4798   -1.3943 I   0  0  0  0  0  0  0  0  0  0  0  0
    3.7348    0.9754    0.0240 I   0  0  0  0  0  0  0  0  0  0  0  0
   -0.1266   -3.4563   -1.4926 I   0  0  0  0  0  0  0  0  0  0  0  0
   -3.6766    1.0151    1.7168 C   0  0  3  0  0  0  0  0  0  0  0  0
    3.0029   -4.4269    0.3142 C   0  0  0  0  0  0  0  0  0  0  0  0
    2.4269    4.7308   -0.0506 C   0  0  0  0  0  0  0  0  0  0  0  0
    2.8196   -5.3470    1.5075 C   0  0  3  0  0  0  0  0  0  0  0  0
    3.2880    5.0748    1.1702 C   0  0  3  0  0  0  0  0  0  0  0  0
   -2.4523    1.6620    2.0642 O   0  0  0  0  0  0  0  0  0  0  0  0
    1.5302   -5.9756    1.4354 O   0  0  0  0  0  0  0  0  0  0  0  0
    4.4994    4.3071    1.1526 O   0  0  0  0  0  0  0  0  0  0  0  0
   -2.5455   -3.2976    0.4768 C   0  0  0  0  0  0  0  0  0  0  0  0
    5.2030   -5.8377    1.5554 O   0  0  0  0  0  0  0  0  0  0  0  0
    2.5076    7.3970    1.1717 O   0  0  0  0  0  0  0  0  0  0  0  0
   -6.1144    1.6107    1.7516 O   0  0  0  0  0  0  0  0  0  0  0  0
    3.6550    6.5582    1.1330 C   0  0  0  0  0  0  0  0  0  0  0  0
    3.9019   -6.4094    1.5232 C   0  0  0  0  0  0  0  0  0  0  0  0
   -4.7738    2.1032    1.6540 C   0  0  0  0  0  0  0  0  0  0  0  0
   -6.5523    0.8288    0.6514 C   0  0  0  0  0  0  0  0  0  0  0  0
    1.1009   -3.6134    0.3990 H   0  0  0  0  0  0  0  0  0  0  0  0
    2.7838    2.6880   -0.1503 H   0  0  0  0  0  0  0  0  0  0  0  0
   -3.7542    0.7539   -0.5398 H   0  0  0  0  0  0  0  0  0  0  0  0
   -4.5438   -0.2710    0.3452 H   0  0  0  0  0  0  0  0  0  0  0  0
   -3.9096    0.3182    2.5292 H   0  0  0  0  0  0  0  0  0  0  0  0
    2.7574   -4.9498   -0.6214 H   0  0  0  0  0  0  0  0  0  0  0  0
    4.0180   -4.0366    0.2004 H   0  0  0  0  0  0  0  0  0  0  0  0
    3.0097    4.8647   -0.9684 H   0  0  0  0  0  0  0  0  0  0  0  0
    1.5337    5.3532   -0.1058 H   0  0  0  0  0  0  0  0  0  0  0  0
    2.8572   -4.7461    2.4248 H   0  0  0  0  0  0  0  0  0  0  0  0
    2.7476    4.8393    2.0947 H   0  0  0  0  0  0  0  0  0  0  0  0
   -1.7232    1.0450    1.9257 H   0  0  0  0  0  0  0  0  0  0  0  0
    0.8548   -5.2910    1.5716 H   0  0  0  0  0  0  0  0  0  0  0  0
    4.2564    3.3728    1.2724 H   0  0  0  0  0  0  0  0  0  0  0  0
   -2.3598   -3.2718   -0.5808 H   0  0  0  0  0  0  0  0  0  0  0  0
   -1.7466   -3.1795    1.2055 H   0  0  0  0  0  0  0  0  0  0  0  0
   -3.0703   -4.2403    0.6204 H   0  0  0  0  0  0  0  0  0  0  0  0
    5.3516   -5.3408    0.7320 H   0  0  0  0  0  0  0  0  0  0  0  0
    1.9711    7.2360    0.3767 H   0  0  0  0  0  0  0  0  0  0  0  0
    4.2861    6.8076    1.9915 H   0  0  0  0  0  0  0  0  0  0  0  0
    4.2406    6.7882    0.2349 H   0  0  0  0  0  0  0  0  0  0  0  0
    3.7786   -7.0308    2.4141 H   0  0  0  0  0  0  0  0  0  0  0  0
    3.8081   -7.0649    0.6510 H   0  0  0  0  0  0  0  0  0  0  0  0
   -4.6265    2.7943    2.4952 H   0  0  0  0  0  0  0  0  0  0  0  0
   -4.6749    2.7313    0.7598 H   0  0  0  0  0  0  0  0  0  0  0  0
   -6.2720    1.2860   -0.3058 H   0  0  0  0  0  0  0  0  0  0  0  0
   -6.1795   -0.1848    0.7531 H   0  0  0  0  0  0  0  0  0  0  0  0
   -7.6258    0.6637    0.6935 H   0  0  0  0  0  0  0  0  0  0  0  0
  2  4  2  0  0  0  0
  2  6  1  0  0  0  0
  3  5  1  0  0  0  0
  4  1  1  0  0  0  0
  5  1  2  0  0  0  0
  6  3  2  0  0  0  0
  7  1  1  0  0  0  0
  8  2  1  0  0  0  0
  9  3  1  0  0  0  0
 10  7  1  0  0  0  0
 11  8  1  0  0  0  0
 11 36  1  0  0  0  0
 12  9  1  0  0  0  0
 12 37  1  0  0  0  0
 13  7  1  0  0  0  0
 13 38  1  0  0  0  0
 13 39  1  0  0  0  0
 14  8  2  0  0  0  0
 15  9  2  0  0  0  0
 16 10  2  0  0  0  0
 17  5  1  0  0  0  0
 18  6  1  0  0  0  0
 19  4  1  0  0  0  0
 20 13  1  0  0  0  0
 20 40  1  0  0  0  0
 21 11  1  0  0  0  0
 21 41  1  0  0  0  0
 21 42  1  0  0  0  0
 22 12  1  0  0  0  0
 22 43  1  0  0  0  0
 22 44  1  0  0  0  0
 23 21  1  0  0  0  0
 23 45  1  0  0  0  0
 24 22  1  0  0  0  0
 24 46  1  0  0  0  0
 25 20  1  0  0  0  0
 25 47  1  0  0  0  0
 26 23  1  0  0  0  0
 26 48  1  0  0  0  0
 27 24  1  0  0  0  0
 27 49  1  0  0  0  0
 28 10  1  0  0  0  0
 28 50  1  0  0  0  0
 28 51  1  0  0  0  0
 28 52  1  0  0  0  0
 29 33  1  0  0  0  0
 29 53  1  0  0  0  0
 30 32  1  0  0  0  0
 30 54  1  0  0  0  0
 31 34  1  0  0  0  0
 32 24  1  0  0  0  0
 32 55  1  0  0  0  0
 32 56  1  0  0  0  0
 33 23  1  0  0  0  0
 33 57  1  0  0  0  0
 33 58  1  0  0  0  0
 34 20  1  0  0  0  0
 34 59  1  0  0  0  0
 34 60  1  0  0  0  0
 35 31  1  0  0  0  0
 35 61  1  0  0  0  0
 35 62  1  0  0  0  0
 35 63  1  0  0  0  0
M  END
>  <DRUGBANK_ID>
DB13861

>  <COMMON_NAME>
Iopentol

>  <CAS_NUMBER>
89797-00-2

>  <UNII>
7D6XWX076T

>  <SYNONYMS>
Iopentol; Iopentolum

$$$$
