
 OpenBabel10282417173D

 68 72  0  0  1  0  0  0  0  0999 V2000
   -7.4352    2.1075   -5.1498 C   0  0  0  0  0  0  0  0  0  0  0  0
   -8.5755    2.8033   -5.4687 C   0  0  0  0  0  0  0  0  0  0  0  0
   -9.1664    3.6240   -4.5011 C   0  0  0  0  0  0  0  0  0  0  0  0
   -8.5971    3.8340   -3.2465 C   0  0  0  0  0  0  0  0  0  0  0  0
   -7.4194    3.2162   -2.9411 C   0  0  0  0  0  0  0  0  0  0  0  0
   -6.9081    2.3222   -3.9024 C   0  0  0  0  0  0  0  0  0  0  0  0
   -6.7586    3.4452   -1.6957 C   0  0  0  0  0  0  0  0  0  0  0  0
   -5.6895    2.6831   -1.3540 C   0  0  0  0  0  0  0  0  0  0  0  0
   -5.4205    1.8709   -2.3892 C   0  0  0  0  0  0  0  0  0  0  0  0
   -5.8692    1.6485   -3.6192 N   0  0  0  0  0  0  0  0  0  0  0  0
   -5.0231    2.4027    0.0549 C   0  0  2  0  0  0  0  0  0  0  0  0
   -3.5061    1.3167    0.3930 C   0  0  1  0  0  0  0  0  0  0  0  0
   -6.0890    2.3426    1.1100 C   0  0  0  0  0  0  0  0  0  0  0  0
   -4.9098    0.7970   -1.9052 O   0  0  0  0  0  0  0  0  0  0  0  0
   -3.5430    1.1933   -1.7432 C   0  0  0  0  0  0  0  0  0  0  0  0
   -2.8870    1.5403    1.6740 C   0  0  0  0  0  0  0  0  0  0  0  0
   -3.1839   -0.6005   -0.3083 C   0  0  0  0  0  0  0  0  0  0  0  0
   -3.6653    0.7907    2.7320 C   0  0  0  0  0  0  0  0  0  0  0  0
   -4.1611   -0.5851    2.6254 N   0  0  0  0  0  0  0  0  0  0  0  0
   -4.7384   -1.0682    3.8354 C   0  0  0  0  0  0  0  0  0  0  0  0
   -5.2139   -0.8266    1.6000 C   0  0  0  0  0  0  0  0  0  0  0  0
   -2.6563   -1.4209    0.6032 C   0  0  0  0  0  0  0  0  0  0  0  0
   -3.1721   -2.6664    0.2796 C   0  0  0  0  0  0  0  0  0  0  0  0
   -3.6607   -3.1041   -1.1757 C   0  0  0  0  0  0  0  0  0  0  0  0
   -3.6714   -2.3961   -2.6731 C   0  0  0  0  0  0  0  0  0  0  0  0
   -3.6056   -1.2069   -1.9218 C   0  0  0  0  0  0  0  0  0  0  0  0
   -3.8318   -2.0685   -4.4636 C   0  0  0  0  0  0  0  0  0  0  0  0
   -4.3283   -0.8327   -5.0187 C   0  0  0  0  0  0  0  0  0  0  0  0
   -5.0254   -0.8180   -3.9330 C   0  0  0  0  0  0  0  0  0  0  0  0
   -3.9536   -0.5355   -3.1002 C   0  0  0  0  0  0  0  0  0  0  0  0
   -5.7621    2.7321    2.4072 C   0  0  0  0  0  0  0  0  0  0  0  0
   -6.5183    2.2544    3.4608 C   0  0  0  0  0  0  0  0  0  0  0  0
   -7.8157    1.8816    3.1983 C   0  0  0  0  0  0  0  0  0  0  0  0
   -8.2755    1.8588    1.8867 C   0  0  0  0  0  0  0  0  0  0  0  0
   -7.3740    1.8878    0.8466 C   0  0  0  0  0  0  0  0  0  0  0  0
   -2.5792    2.5944   -0.3252 O   0  0  0  0  0  0  0  0  0  0  0  0
  -10.7920    4.4842   -4.8843 Br  0  0  0  0  0  0  0  0  0  0  0  0
   -6.9547    1.4256   -5.8535 H   0  0  0  0  0  0  0  0  0  0  0  0
   -8.9969    2.6926   -6.4592 H   0  0  0  0  0  0  0  0  0  0  0  0
   -9.0444    4.4677   -2.4957 H   0  0  0  0  0  0  0  0  0  0  0  0
   -7.1567    4.0985   -0.9395 H   0  0  0  0  0  0  0  0  0  0  0  0
   -4.5785    3.4077    0.1759 H   0  0  0  0  0  0  0  0  0  0  0  0
   -2.6154    0.9630   -1.0961 H   0  0  0  0  0  0  0  0  0  0  0  0
   -4.2287    0.6615   -0.9834 H   0  0  0  0  0  0  0  0  0  0  0  0
   -2.6355    0.5063   -2.0454 H   0  0  0  0  0  0  0  0  0  0  0  0
   -1.8371    1.2935    1.5119 H   0  0  0  0  0  0  0  0  0  0  0  0
   -2.9178    2.6508    1.7763 H   0  0  0  0  0  0  0  0  0  0  0  0
   -3.2942    1.1620    3.6882 H   0  0  0  0  0  0  0  0  0  0  0  0
   -4.6383    1.1463    2.6748 H   0  0  0  0  0  0  0  0  0  0  0  0
   -5.7670   -0.7034    3.8920 H   0  0  0  0  0  0  0  0  0  0  0  0
   -4.7076   -2.1527    3.7271 H   0  0  0  0  0  0  0  0  0  0  0  0
   -4.1475   -0.7415    4.6871 H   0  0  0  0  0  0  0  0  0  0  0  0
   -6.1979   -0.3743    1.4697 H   0  0  0  0  0  0  0  0  0  0  0  0
   -4.8440   -0.2312    0.8312 H   0  0  0  0  0  0  0  0  0  0  0  0
   -5.2545   -1.8608    1.2471 H   0  0  0  0  0  0  0  0  0  0  0  0
   -2.2986   -1.0606    1.5527 H   0  0  0  0  0  0  0  0  0  0  0  0
   -3.4111   -3.2513    1.1950 H   0  0  0  0  0  0  0  0  0  0  0  0
   -4.1761   -4.0689   -1.0560 H   0  0  0  0  0  0  0  0  0  0  0  0
   -4.3731   -2.6875   -5.2426 H   0  0  0  0  0  0  0  0  0  0  0  0
   -4.0754    0.2869   -5.1297 H   0  0  0  0  0  0  0  0  0  0  0  0
   -5.6819   -1.6861   -3.6969 H   0  0  0  0  0  0  0  0  0  0  0  0
   -3.3648    0.3536   -3.4540 H   0  0  0  0  0  0  0  0  0  0  0  0
   -4.7505    3.0711    2.6220 H   0  0  0  0  0  0  0  0  0  0  0  0
   -6.0631    2.1437    4.4428 H   0  0  0  0  0  0  0  0  0  0  0  0
   -8.4768    1.6480    4.0182 H   0  0  0  0  0  0  0  0  0  0  0  0
   -9.3297    1.8105    1.6644 H   0  0  0  0  0  0  0  0  0  0  0  0
   -7.6944    1.6054   -0.1550 H   0  0  0  0  0  0  0  0  0  0  0  0
   -1.9813    2.3413   -1.0608 H   0  0  0  0  0  0  0  0  0  0  0  0
  1  2  2  0  0  0  0
  1  6  1  0  0  0  0
  1 38  1  0  0  0  0
  2  3  1  0  0  0  0
  2 39  1  0  0  0  0
  3  4  2  0  0  0  0
  3 37  1  0  0  0  0
  4  5  1  0  0  0  0
  4 40  1  0  0  0  0
  5  6  2  0  0  0  0
  5  7  1  0  0  0  0
  6 10  1  0  0  0  0
  7  8  2  0  0  0  0
  7 41  1  0  0  0  0
  8  9  1  0  0  0  0
  9 10  2  0  0  0  0
  9 14  1  0  0  0  0
 11 13  1  0  0  0  0
 11 42  1  1  0  0  0
 11 12  1  0  0  0  0
 11  8  1  0  0  0  0
 12 16  1  0  0  0  0
 12 17  1  0  0  0  0
 12 36  1  6  0  0  0
 13 31  2  0  0  0  0
 13 35  1  0  0  0  0
 14 15  1  0  0  0  0
 15 43  1  0  0  0  0
 15 44  1  0  0  0  0
 15 45  1  0  0  0  0
 16 18  1  0  0  0  0
 16 46  1  0  0  0  0
 16 47  1  0  0  0  0
 17 22  2  0  0  0  0
 17 26  1  0  0  0  0
 18 19  1  0  0  0  0
 18 48  1  0  0  0  0
 18 49  1  0  0  0  0
 19 20  1  0  0  0  0
 19 21  1  0  0  0  0
 20 50  1  0  0  0  0
 20 51  1  0  0  0  0
 20 52  1  0  0  0  0
 21 53  1  0  0  0  0
 21 54  1  0  0  0  0
 21 55  1  0  0  0  0
 22 23  1  0  0  0  0
 22 56  1  0  0  0  0
 23 24  2  0  0  0  0
 23 57  1  0  0  0  0
 24 25  1  0  0  0  0
 24 58  1  0  0  0  0
 25 26  2  0  0  0  0
 25 27  1  0  0  0  0
 26 30  1  0  0  0  0
 27 28  2  0  0  0  0
 27 59  1  0  0  0  0
 28 29  1  0  0  0  0
 28 60  1  0  0  0  0
 29 30  2  0  0  0  0
 29 61  1  0  0  0  0
 30 62  1  0  0  0  0
 31 32  1  0  0  0  0
 31 63  1  0  0  0  0
 32 33  2  0  0  0  0
 32 64  1  0  0  0  0
 33 34  1  0  0  0  0
 33 65  1  0  0  0  0
 34 35  2  0  0  0  0
 34 66  1  0  0  0  0
 35 67  1  0  0  0  0
 36 68  1  0  0  0  0
M  END
>  <DRUGBANK_ID>
DB08903

>  <COMMON_NAME>
Bedaquiline

>  <CAS_NUMBER>
843663-66-1

>  <UNII>
78846I289Y

>  <SYNONYMS>
1-(6-Bromo-2-methoxy-quinolin-3-yl)-4-dimethylamino-2-naphthalen-1-yl-1-phenyl-butan-2-ol; Bedaquilina; Bedaquiline; BÃ©daquiline; Bedaquilinum

$$$$
