
 OpenBabel10282417223D

 33 35  0  0  0  0  0  0  0  0999 V2000
    0.9004   -0.0214    0.0893 C   0  0  0  0  0  0  0  0  0  0  0  0
    0.2938   -0.6178    1.2406 O   0  0  0  0  0  0  0  0  0  0  0  0
    0.6721   -1.9161    1.4415 C   0  0  0  0  0  0  0  0  0  0  0  0
    1.9307   -2.3737    1.1126 C   0  0  0  0  0  0  0  0  0  0  0  0
    2.2366   -3.7083    1.2821 C   0  0  0  0  0  0  0  0  0  0  0  0
    1.4702   -4.5261    2.1273 C   0  0  0  0  0  0  0  0  0  0  0  0
    0.1859   -4.0766    2.4578 C   0  0  0  0  0  0  0  0  0  0  0  0
   -0.2313   -2.7950    2.0475 C   0  0  0  0  0  0  0  0  0  0  0  0
    2.2325   -5.4791    3.0172 C   0  0  0  0  0  0  0  0  0  0  0  0
    2.8040   -4.7085    3.9736 C   0  0  0  0  0  0  0  0  0  0  0  0
    4.0696   -4.0912    3.7736 O   0  0  0  0  0  0  0  0  0  0  0  0
    4.8060   -4.5032    2.6728 C   0  0  0  0  0  0  0  0  0  0  0  0
    4.5336   -5.7367    2.0775 C   0  0  0  0  0  0  0  0  0  0  0  0
    3.3105   -6.3970    2.5315 C   0  0  0  0  0  0  0  0  0  0  0  0
    3.2354   -7.6231    2.5361 O   0  0  0  0  0  0  0  0  0  0  0  0
    5.2364   -6.1814    0.9591 C   0  0  0  0  0  0  0  0  0  0  0  0
    4.9576   -7.3624    0.3311 O   0  0  0  0  0  0  0  0  0  0  0  0
    6.2005   -5.3594    0.3884 C   0  0  0  0  0  0  0  0  0  0  0  0
    6.3763   -4.0694    0.8947 C   0  0  0  0  0  0  0  0  0  0  0  0
    7.1840   -3.1787    0.2454 O   0  0  0  0  0  0  0  0  0  0  0  0
    5.7026   -3.6350    2.0447 C   0  0  0  0  0  0  0  0  0  0  0  0
    0.5449    1.0072    0.0100 H   0  0  0  0  0  0  0  0  0  0  0  0
    0.6053   -0.5687   -0.8126 H   0  0  0  0  0  0  0  0  0  0  0  0
    1.9933    0.0369    0.1561 H   0  0  0  0  0  0  0  0  0  0  0  0
    2.7314   -1.7237    0.7759 H   0  0  0  0  0  0  0  0  0  0  0  0
    3.2110   -3.9909    0.9200 H   0  0  0  0  0  0  0  0  0  0  0  0
   -0.4589   -4.6599    3.1119 H   0  0  0  0  0  0  0  0  0  0  0  0
   -1.2397   -2.4562    2.2676 H   0  0  0  0  0  0  0  0  0  0  0  0
    2.2176   -3.9580    4.5051 H   0  0  0  0  0  0  0  0  0  0  0  0
    4.2750   -7.8394    0.8528 H   0  0  0  0  0  0  0  0  0  0  0  0
    6.7649   -5.7180   -0.4671 H   0  0  0  0  0  0  0  0  0  0  0  0
    7.5293   -3.5955   -0.5645 H   0  0  0  0  0  0  0  0  0  0  0  0
    5.8261   -2.6108    2.3869 H   0  0  0  0  0  0  0  0  0  0  0  0
  1  2  1  0  0  0  0
  1 22  1  0  0  0  0
  1 23  1  0  0  0  0
  1 24  1  0  0  0  0
  2  3  1  0  0  0  0
  3  4  2  0  0  0  0
  3  8  1  0  0  0  0
  4  5  1  0  0  0  0
  4 25  1  0  0  0  0
  5  6  2  0  0  0  0
  5 26  1  0  0  0  0
  6  7  1  0  0  0  0
  6  9  1  0  0  0  0
  7  8  2  0  0  0  0
  7 27  1  0  0  0  0
  8 28  1  0  0  0  0
  9 10  2  0  0  0  0
  9 14  1  0  0  0  0
 10 11  1  0  0  0  0
 10 29  1  0  0  0  0
 11 12  1  0  0  0  0
 12 13  2  0  0  0  0
 12 21  1  0  0  0  0
 13 14  1  0  0  0  0
 13 16  1  0  0  0  0
 14 15  2  0  0  0  0
 16 17  1  0  0  0  0
 16 18  2  0  0  0  0
 17 30  1  0  0  0  0
 18 19  1  0  0  0  0
 18 31  1  0  0  0  0
 19 20  1  0  0  0  0
 19 21  2  0  0  0  0
 20 32  1  0  0  0  0
 21 33  1  0  0  0  0
M  END
>  <DRUGBANK_ID>
DB15334

>  <COMMON_NAME>
Biochanin A

>  <CAS_NUMBER>
491-80-5

>  <UNII>
U13J6U390T

$$$$
