
 OpenBabel10282417123D

 34 37  0  0  0  0  0  0  0  0999 V2000
    0.9809   -0.2184   -0.0824 S   0  0  0  0  0  0  0  0  0  0  0  0
    7.9161    2.5915   -0.0704 O   0  0  0  0  0  0  0  0  0  0  0  0
    2.4273    3.6801    0.0023 O   0  0  0  0  0  0  0  0  0  0  0  0
    0.5850    0.6477    1.2286 O   0  0  0  0  0  0  0  0  0  0  0  0
    0.5931    0.5555   -1.2500 O   0  0  0  0  0  0  0  0  0  0  0  0
    0.5121   -1.5578    0.1449 O   0  0  0  0  0  0  0  0  0  0  0  0
    5.7710    4.7847   -0.0570 N   0  0  0  0  0  0  0  0  0  0  0  0
    6.8639    0.4804   -0.0643 N   0  0  0  0  0  0  0  0  0  0  0  0
    5.4674    2.3641   -0.0569 C   0  0  0  0  0  0  0  0  0  0  0  0
    4.6958    1.1354   -0.0480 C   0  0  0  0  0  0  0  0  0  0  0  0
    5.0018    3.6359   -0.0533 C   0  0  0  0  0  0  0  0  0  0  0  0
    5.5345    0.0291   -0.0529 C   0  0  0  0  0  0  0  0  0  0  0  0
    6.9188    1.8921   -0.0666 C   0  0  0  0  0  0  0  0  0  0  0  0
    3.6229    5.6408   -0.0498 C   0  0  0  0  0  0  0  0  0  0  0  0
    4.9818    5.9252   -0.0573 C   0  0  0  0  0  0  0  0  0  0  0  0
    3.5275    4.1880   -0.0386 C   0  0  0  0  0  0  0  0  0  0  0  0
    3.3429    0.9819   -0.0476 C   0  0  0  0  0  0  0  0  0  0  0  0
    2.7594   -0.2575   -0.0484 C   0  0  0  0  0  0  0  0  0  0  0  0
    4.9870   -1.2561   -0.0505 C   0  0  0  0  0  0  0  0  0  0  0  0
    3.5683   -1.3937   -0.0444 C   0  0  0  0  0  0  0  0  0  0  0  0
    2.6200    6.6039   -0.0405 C   0  0  0  0  0  0  0  0  0  0  0  0
    5.3828    7.2360   -0.0561 C   0  0  0  0  0  0  0  0  0  0  0  0
    3.0331    7.9332   -0.0383 C   0  0  0  0  0  0  0  0  0  0  0  0
    4.4056    8.2424   -0.0476 C   0  0  0  0  0  0  0  0  0  0  0  0
    6.7795    4.7597   -0.0693 H   0  0  0  0  0  0  0  0  0  0  0  0
    7.6969   -0.0980   -0.0730 H   0  0  0  0  0  0  0  0  0  0  0  0
    0.7314    0.1308    2.0441 H   0  0  0  0  0  0  0  0  0  0  0  0
    2.6862    1.8125   -0.0762 H   0  0  0  0  0  0  0  0  0  0  0  0
    5.5979   -2.1551   -0.0621 H   0  0  0  0  0  0  0  0  0  0  0  0
    3.0965   -2.3727   -0.0518 H   0  0  0  0  0  0  0  0  0  0  0  0
    1.5646    6.3411   -0.0345 H   0  0  0  0  0  0  0  0  0  0  0  0
    6.4361    7.4800   -0.0615 H   0  0  0  0  0  0  0  0  0  0  0  0
    2.2991    8.7370   -0.0293 H   0  0  0  0  0  0  0  0  0  0  0  0
    4.7206    9.2825   -0.0485 H   0  0  0  0  0  0  0  0  0  0  0  0
  1  4  1  0  0  0  0
  1  5  2  0  0  0  0
  1  6  2  0  0  0  0
  1 18  1  0  0  0  0
  2 13  2  0  0  0  0
  3 16  2  0  0  0  0
  4 27  1  0  0  0  0
  7 11  1  0  0  0  0
  7 15  1  0  0  0  0
  7 25  1  0  0  0  0
  8 12  1  0  0  0  0
  8 13  1  0  0  0  0
  8 26  1  0  0  0  0
  9 10  1  0  0  0  0
  9 11  2  0  0  0  0
  9 13  1  0  0  0  0
 10 12  2  0  0  0  0
 10 17  1  0  0  0  0
 11 16  1  0  0  0  0
 12 19  1  0  0  0  0
 14 15  1  0  0  0  0
 14 16  1  0  0  0  0
 14 21  2  0  0  0  0
 15 22  2  0  0  0  0
 17 18  2  0  0  0  0
 17 28  1  0  0  0  0
 18 20  1  0  0  0  0
 19 20  2  0  0  0  0
 19 29  1  0  0  0  0
 20 30  1  0  0  0  0
 21 23  1  0  0  0  0
 21 31  1  0  0  0  0
 22 24  1  0  0  0  0
 22 32  1  0  0  0  0
 23 24  2  0  0  0  0
 23 33  1  0  0  0  0
 24 34  1  0  0  0  0
M  END
>  <DRUGBANK_ID>
DB02519

>  <SECONDARY_ACCESSION_NUMBERS>
EXPT01891

>  <COMMON_NAME>
Indirubin-5-sulphonate

>  <CAS_NUMBER>
244021-67-8

$$$$
