
 OpenBabel10282417133D

 81 83  0  0  0  0  0  0  0  0999 V2000
    3.1427   -5.5549    0.3241 P   0  0  0  0  0  0  0  0  0  0  0  0
    7.5954   -7.4838   -1.9791 O   0  0  0  0  0  0  0  0  0  0  0  0
    6.5709   -3.3634    4.8365 O   0  0  0  0  0  0  0  0  0  0  0  0
   10.9603   -4.6537   -2.4340 O   0  0  0  0  0  0  0  0  0  0  0  0
    5.4396   -6.3532   -0.9991 O   0  0  0  0  0  0  0  0  0  0  0  0
    2.9962   -5.5972    1.9673 O   0  0  0  0  0  0  0  0  0  0  0  0
    2.4467   -4.0786    0.0680 O   0  0  0  0  0  0  0  0  0  0  0  0
    9.4129    0.9644    2.7461 O   0  0  0  0  0  0  0  0  0  0  0  0
    1.7849   -6.2528    0.0657 O   0  0  0  0  0  0  0  0  0  0  0  0
    2.9624   -8.1330    1.1741 O   0  0  0  0  0  0  0  0  0  0  0  0
    5.1115   -8.2420    1.6851 O   0  0  0  0  0  0  0  0  0  0  0  0
    8.0479   -3.7092    3.1856 N   0  0  0  0  0  0  0  0  0  0  0  0
    7.9993   -0.6929    3.1647 N   0  0  0  0  0  0  0  0  0  0  0  0
   10.8047   -6.7531   -3.1552 N   0  0  0  0  0  0  0  0  0  0  0  0
    7.9796   -6.2317   -4.2097 C   0  0  0  0  0  0  0  0  0  0  0  0
    7.1127   -6.5736   -5.4343 C   0  0  0  0  0  0  0  0  0  0  0  0
    9.1858   -5.4580   -4.8909 C   0  0  0  0  0  0  0  0  0  0  0  0
    6.7666   -5.3293   -6.2711 C   0  0  0  0  0  0  0  0  0  0  0  0
    8.8373   -4.1717   -5.6246 C   0  0  0  0  0  0  0  0  0  0  0  0
    7.9797   -4.5582   -6.7880 C   0  0  0  0  0  0  0  0  0  0  0  0
    8.1074   -7.5920   -3.3086 C   0  0  0  0  0  0  0  0  0  0  0  0
    8.3805   -6.8371   -1.0276 C   0  0  0  0  0  0  0  0  0  0  0  0
    9.3309   -5.8452   -1.2434 C   0  0  0  0  0  0  0  0  0  0  0  0
    7.8328   -6.9314    0.2703 C   0  0  0  0  0  0  0  0  0  0  0  0
    8.7142   -4.7548    0.9638 C   0  0  0  0  0  0  0  0  0  0  0  0
    8.7199   -3.5156    1.8949 C   0  0  2  0  0  0  0  0  0  0  0  0
    9.3699   -4.7599   -0.2982 C   0  0  0  0  0  0  0  0  0  0  0  0
    7.9564   -5.8940    1.2259 C   0  0  0  0  0  0  0  0  0  0  0  0
    6.7626   -1.4706    3.3182 C   0  0  1  0  0  0  0  0  0  0  0  0
    5.8761   -1.4273    2.0414 C   0  0  0  0  0  0  0  0  0  0  0  0
    7.1323   -2.9034    3.8358 C   0  0  0  0  0  0  0  0  0  0  0  0
   10.1304   -2.9621    1.9367 C   0  0  0  0  0  0  0  0  0  0  0  0
   10.3869   -5.7384   -2.2993 C   0  0  0  0  0  0  0  0  0  0  0  0
    5.7337   -2.6429    1.1648 C   0  0  0  0  0  0  0  0  0  0  0  0
    4.7592   -3.5504    1.4134 C   0  0  0  0  0  0  0  0  0  0  0  0
    6.5137   -2.9319    0.0335 C   0  0  0  0  0  0  0  0  0  0  0  0
    4.7475   -4.7301    0.6295 C   0  0  0  0  0  0  0  0  0  0  0  0
    5.5407   -5.1463   -0.3756 C   0  0  0  0  0  0  0  0  0  0  0  0
    6.4053   -4.1476   -0.7215 C   0  0  0  0  0  0  0  0  0  0  0  0
    8.2438    0.6158    2.9031 C   0  0  0  0  0  0  0  0  0  0  0  0
    7.1145    1.6011    2.8029 C   0  0  0  0  0  0  0  0  0  0  0  0
    4.6140   -7.4992   -0.6305 C   0  0  0  0  0  0  0  0  0  0  0  0
    4.2893   -8.0425    0.8361 C   0  0  0  0  0  0  0  0  0  0  0  0
    8.0455   -4.6503    3.5624 H   0  0  0  0  0  0  0  0  0  0  0  0
    8.8538   -1.1898    3.3575 H   0  0  0  0  0  0  0  0  0  0  0  0
   10.1720   -7.3140   -3.6920 H   0  0  0  0  0  0  0  0  0  0  0  0
   11.4052   -6.3946   -3.8907 H   0  0  0  0  0  0  0  0  0  0  0  0
    3.1524   -6.4855    2.3567 H   0  0  0  0  0  0  0  0  0  0  0  0
    3.0336   -3.3402   -0.1702 H   0  0  0  0  0  0  0  0  0  0  0  0
    2.2180   -7.7156    0.6513 H   0  0  0  0  0  0  0  0  0  0  0  0
    7.4402   -5.5023   -3.5913 H   0  0  0  0  0  0  0  0  0  0  0  0
    7.6683   -7.2899   -6.0560 H   0  0  0  0  0  0  0  0  0  0  0  0
    6.1920   -7.0673   -5.1106 H   0  0  0  0  0  0  0  0  0  0  0  0
    9.8904   -5.0072   -4.2318 H   0  0  0  0  0  0  0  0  0  0  0  0
    9.7401   -6.1174   -5.5724 H   0  0  0  0  0  0  0  0  0  0  0  0
    6.1617   -5.6318   -7.1260 H   0  0  0  0  0  0  0  0  0  0  0  0
    6.1720   -4.6541   -5.6444 H   0  0  0  0  0  0  0  0  0  0  0  0
    9.7619   -3.6797   -5.9665 H   0  0  0  0  0  0  0  0  0  0  0  0
    8.3497   -3.4585   -4.9455 H   0  0  0  0  0  0  0  0  0  0  0  0
    8.5777   -5.1858   -7.4612 H   0  0  0  0  0  0  0  0  0  0  0  0
    7.6915   -3.6611   -7.3425 H   0  0  0  0  0  0  0  0  0  0  0  0
    9.0192   -8.1289   -3.0776 H   0  0  0  0  0  0  0  0  0  0  0  0
    7.5987   -8.4154   -3.8337 H   0  0  0  0  0  0  0  0  0  0  0  0
    7.0953   -7.7024    0.4773 H   0  0  0  0  0  0  0  0  0  0  0  0
    8.2044   -2.6629    1.4884 H   0  0  0  0  0  0  0  0  0  0  0  0
    9.8157   -3.8260   -0.6566 H   0  0  0  0  0  0  0  0  0  0  0  0
    7.2258   -5.8842    2.0367 H   0  0  0  0  0  0  0  0  0  0  0  0
    6.2187   -0.9649    4.1336 H   0  0  0  0  0  0  0  0  0  0  0  0
    6.2192   -0.6314    1.3793 H   0  0  0  0  0  0  0  0  0  0  0  0
    4.8685   -1.1122    2.3575 H   0  0  0  0  0  0  0  0  0  0  0  0
   10.3571   -2.5425    0.9455 H   0  0  0  0  0  0  0  0  0  0  0  0
   10.2674   -2.1425    2.6358 H   0  0  0  0  0  0  0  0  0  0  0  0
   10.8424   -3.7530    2.1597 H   0  0  0  0  0  0  0  0  0  0  0  0
    3.9049   -3.3167    2.0553 H   0  0  0  0  0  0  0  0  0  0  0  0
    7.3622   -2.2947   -0.2064 H   0  0  0  0  0  0  0  0  0  0  0  0
    7.1432   -4.3501   -1.4813 H   0  0  0  0  0  0  0  0  0  0  0  0
    6.4605    1.3726    1.9621 H   0  0  0  0  0  0  0  0  0  0  0  0
    6.5499    1.6264    3.7369 H   0  0  0  0  0  0  0  0  0  0  0  0
    7.5330    2.5995    2.6282 H   0  0  0  0  0  0  0  0  0  0  0  0
    3.6800   -7.3647   -1.1873 H   0  0  0  0  0  0  0  0  0  0  0  0
    5.0551   -8.3757   -1.1158 H   0  0  0  0  0  0  0  0  0  0  0  0
  1  6  1  0  0  0  0
  1  7  1  0  0  0  0
  1  9  2  0  0  0  0
  1 37  1  0  0  0  0
  2 21  1  0  0  0  0
  2 22  1  0  0  0  0
  3 31  2  0  0  0  0
  4 33  2  0  0  0  0
  5 38  1  0  0  0  0
  5 42  1  0  0  0  0
  6 48  1  0  0  0  0
  7 49  1  0  0  0  0
  8 40  2  0  0  0  0
 10 43  1  0  0  0  0
 10 50  1  0  0  0  0
 11 43  2  0  0  0  0
 12 31  1  0  0  0  0
 12 44  1  0  0  0  0
 13 40  1  0  0  0  0
 13 45  1  0  0  0  0
 14 33  1  0  0  0  0
 14 46  1  0  0  0  0
 14 47  1  0  0  0  0
 15 16  1  0  0  0  0
 15 17  1  0  0  0  0
 15 21  1  0  0  0  0
 15 51  1  0  0  0  0
 16 18  1  0  0  0  0
 16 52  1  0  0  0  0
 16 53  1  0  0  0  0
 17 19  1  0  0  0  0
 17 54  1  0  0  0  0
 17 55  1  0  0  0  0
 18 20  1  0  0  0  0
 18 56  1  0  0  0  0
 18 57  1  0  0  0  0
 19 20  1  0  0  0  0
 19 58  1  0  0  0  0
 19 59  1  0  0  0  0
 20 60  1  0  0  0  0
 20 61  1  0  0  0  0
 21 62  1  0  0  0  0
 21 63  1  0  0  0  0
 22 23  2  0  0  0  0
 22 24  1  0  0  0  0
 23 27  1  0  0  0  0
 23 33  1  0  0  0  0
 24 28  2  0  0  0  0
 24 64  1  0  0  0  0
 25 27  2  0  0  0  0
 25 28  1  0  0  0  0
 26 32  1  0  0  0  0
 26 65  1  6  0  0  0
 26 25  1  0  0  0  0
 26 12  1  0  0  0  0
 27 66  1  0  0  0  0
 28 67  1  0  0  0  0
 29 31  1  0  0  0  0
 29 68  1  1  0  0  0
 29 30  1  0  0  0  0
 29 13  1  0  0  0  0
 30 34  1  0  0  0  0
 30 69  1  0  0  0  0
 30 70  1  0  0  0  0
 32 71  1  0  0  0  0
 32 72  1  0  0  0  0
 32 73  1  0  0  0  0
 34 35  2  0  0  0  0
 34 36  1  0  0  0  0
 35 37  1  0  0  0  0
 35 74  1  0  0  0  0
 36 39  2  0  0  0  0
 36 75  1  0  0  0  0
 37 38  2  0  0  0  0
 38 39  1  0  0  0  0
 39 76  1  0  0  0  0
 40 41  1  0  0  0  0
 41 77  1  0  0  0  0
 41 78  1  0  0  0  0
 41 79  1  0  0  0  0
 42 43  1  0  0  0  0
 42 80  1  0  0  0  0
 42 81  1  0  0  0  0
M  END
>  <DRUGBANK_ID>
DB04003

>  <SECONDARY_ACCESSION_NUMBERS>
EXPT00855

>  <COMMON_NAME>
{4-[(2S)-2-Acetamido-3-({(1S)-1-[3-carbamoyl-4-(cyclohexylmethoxy)phenyl]ethyl}amino)-3-oxopropyl]-2-phosphonophenoxy}acetic acid

$$$$
