NGH
 OpenBabel10282417173D

 41 41  0  0  0  0  0  0  0  0999 V2000
    1.3797   -0.2087    0.1452 C   0  0  0  0  0  0  0  0  0  0  0  0
    0.5224   -1.3022    0.0663 C   0  0  0  0  0  0  0  0  0  0  0  0
   -0.8615   -1.1217    0.0152 C   0  0  0  0  0  0  0  0  0  0  0  0
   -1.3856    0.1723    0.0167 C   0  0  0  0  0  0  0  0  0  0  0  0
   -0.5305    1.2695    0.0694 C   0  0  0  0  0  0  0  0  0  0  0  0
    0.8550    1.0712    0.0845 C   0  0  0  0  0  0  0  0  0  0  0  0
   -1.7782   -2.1374   -0.0064 O   0  0  0  0  0  0  0  0  0  0  0  0
   -1.2401   -3.4539    0.0868 C   0  0  0  0  0  0  0  0  0  0  0  0
    1.8319    2.4950   -0.2337 S   0  0  0  0  0  0  0  0  0  0  0  0
    1.2206    3.0706   -1.4213 O   0  0  0  0  0  0  0  0  0  0  0  0
    1.8940    3.2755    0.9749 O   0  0  0  0  0  0  0  0  0  0  0  0
    3.4574    2.0416   -0.5906 N   0  0  0  0  0  0  0  0  0  0  0  0
    3.7833    0.9962   -1.6568 C   0  0  0  0  0  0  0  0  0  0  0  0
    4.2932    3.3171   -0.6796 C   0  0  0  0  0  0  0  0  0  0  0  0
    3.7428    4.3128   -1.7704 C   0  0  0  0  0  0  0  0  0  0  0  0
    4.0667    5.6425   -1.7447 N   0  0  0  0  0  0  0  0  0  0  0  0
    3.5952    6.2431   -2.9810 O   0  0  0  0  0  0  0  0  0  0  0  0
    3.0823    3.9867   -2.7624 O   0  0  0  0  0  0  0  0  0  0  0  0
    3.5836    1.4548   -3.0931 C   0  0  0  0  0  0  0  0  0  0  0  0
    4.7682    2.3099   -3.5687 C   0  0  0  0  0  0  0  0  0  0  0  0
    3.4663    0.3852   -4.1541 C   0  0  0  0  0  0  0  0  0  0  0  0
    2.4427   -0.3903    0.2320 H   0  0  0  0  0  0  0  0  0  0  0  0
    0.9726   -2.2879    0.0403 H   0  0  0  0  0  0  0  0  0  0  0  0
   -2.4585    0.3359   -0.0392 H   0  0  0  0  0  0  0  0  0  0  0  0
   -0.9375    2.2809    0.0749 H   0  0  0  0  0  0  0  0  0  0  0  0
   -0.6458   -3.6889   -0.8030 H   0  0  0  0  0  0  0  0  0  0  0  0
   -0.6447   -3.5807    0.9993 H   0  0  0  0  0  0  0  0  0  0  0  0
   -2.0695   -4.1634    0.1339 H   0  0  0  0  0  0  0  0  0  0  0  0
    4.8156    0.6501   -1.5093 H   0  0  0  0  0  0  0  0  0  0  0  0
    3.1868    0.0980   -1.5056 H   0  0  0  0  0  0  0  0  0  0  0  0
    4.3473    3.8101    0.2967 H   0  0  0  0  0  0  0  0  0  0  0  0
    5.3370    3.0155   -0.8677 H   0  0  0  0  0  0  0  0  0  0  0  0
    3.6826    6.1236   -0.9389 H   0  0  0  0  0  0  0  0  0  0  0  0
    3.3444    5.4452   -3.5222 H   0  0  0  0  0  0  0  0  0  0  0  0
    2.6035    1.9414   -3.1201 H   0  0  0  0  0  0  0  0  0  0  0  0
    5.6661    1.7479   -3.8182 H   0  0  0  0  0  0  0  0  0  0  0  0
    4.4614    2.9342   -4.4130 H   0  0  0  0  0  0  0  0  0  0  0  0
    5.1564    2.9578   -2.8028 H   0  0  0  0  0  0  0  0  0  0  0  0
    2.7288   -0.3790   -3.9117 H   0  0  0  0  0  0  0  0  0  0  0  0
    3.1548    0.8852   -5.0824 H   0  0  0  0  0  0  0  0  0  0  0  0
    4.4431   -0.0713   -4.3236 H   0  0  0  0  0  0  0  0  0  0  0  0
  1  2  2  0  0  0  0
  1  6  1  0  0  0  0
  1 22  1  0  0  0  0
  2  3  1  0  0  0  0
  2 23  1  0  0  0  0
  3  4  2  0  0  0  0
  3  7  1  0  0  0  0
  4  5  1  0  0  0  0
  4 24  1  0  0  0  0
  5  6  2  0  0  0  0
  5 25  1  0  0  0  0
  6  9  1  0  0  0  0
  7  8  1  0  0  0  0
  8 26  1  0  0  0  0
  8 27  1  0  0  0  0
  8 28  1  0  0  0  0
  9 10  2  0  0  0  0
  9 11  2  0  0  0  0
  9 12  1  0  0  0  0
 12 13  1  0  0  0  0
 12 14  1  0  0  0  0
 13 19  1  0  0  0  0
 13 29  1  0  0  0  0
 13 30  1  0  0  0  0
 14 15  1  0  0  0  0
 14 31  1  0  0  0  0
 14 32  1  0  0  0  0
 15 16  1  0  0  0  0
 15 18  2  0  0  0  0
 16 17  1  0  0  0  0
 16 33  1  0  0  0  0
 17 34  1  0  0  0  0
 19 20  1  0  0  0  0
 19 21  1  0  0  0  0
 19 35  1  0  0  0  0
 20 36  1  0  0  0  0
 20 37  1  0  0  0  0
 20 38  1  0  0  0  0
 21 39  1  0  0  0  0
 21 40  1  0  0  0  0
 21 41  1  0  0  0  0
M  END
>  <DRUGBANK_ID>
DB08271

>  <COMMON_NAME>
N-ISOBUTYL-N-[4-METHOXYPHENYLSULFONYL]GLYCYL HYDROXAMIC ACID

>  <UNII>
9P3H27MP46

$$$$
