
 OpenBabel10282417183D

  4  3  0  0  0  0  0  0  0  0999 V2000
    0.9925   -0.0326    0.0630 N   0  0  0  0  0  0  0  0  0  0  0  0
    0.6809   -0.7228   -0.6188 H   0  0  0  0  0  0  0  0  0  0  0  0
    0.6809   -0.3743    0.9710 H   0  0  0  0  0  0  0  0  0  0  0  0
    2.0098   -0.0896    0.0755 H   0  0  0  0  0  0  0  0  0  0  0  0
  1  2  1  0  0  0  0
  1  3  1  0  0  0  0
  1  4  1  0  0  0  0
M  ISO  1   1  13
M  END
>  <DRUGBANK_ID>
DB09326

>  <COMMON_NAME>
Ammonia N-13

>  <CAS_NUMBER>
34819-78-8

>  <UNII>
9OQO0E343Z

>  <SYNONYMS>
(13N)Ammonia; Ammonia N 13

$$$$
