
 OpenBabel10282417103D

103105  0  0  0  0  0  0  0  0999 V2000
   -7.3723   -3.3043    3.7493 C   0  0  0  0  0  0  0  0  0  0  0  0
  -12.6700   -7.7981    8.5551 C   0  0  0  0  0  0  0  0  0  0  0  0
   -9.0279   -5.9568    3.9067 C   0  0  0  0  0  0  0  0  0  0  0  0
  -10.3625   -8.7078    6.0742 C   0  0  0  0  0  0  0  0  0  0  0  0
   -5.2558   -3.8422    3.2770 N   0  0  0  0  0  0  0  0  0  0  0  0
  -10.5654   -7.9507    7.1979 N   0  0  0  0  0  0  0  0  0  0  0  0
  -13.4186   -7.9024    7.4152 N   0  0  0  0  0  0  0  0  0  0  0  0
  -11.1814   -8.2204    8.5183 C   0  0  1  0  0  0  0  0  0  0  0  0
   -6.3614   -4.2154    3.9875 C   0  0  0  0  0  0  0  0  0  0  0  0
   -9.6964   -6.6417    4.9192 N   0  0  0  0  0  0  0  0  0  0  0  0
  -10.3441   -7.3500    9.4807 C   0  0  0  0  0  0  0  0  0  0  0  0
   -9.5963   -4.5609    3.5699 C   0  0  2  0  0  0  0  0  0  0  0  0
  -15.4432   -2.8901    1.0075 C   0  0  0  0  0  0  0  0  0  0  0  0
  -14.8250   -7.4728    7.4630 C   0  0  2  0  0  0  0  0  0  0  0  0
  -15.6285   -8.3005    6.4512 C   0  0  0  0  0  0  0  0  0  0  0  0
   -6.7600   -2.2190    3.0421 C   0  0  0  0  0  0  0  0  0  0  0  0
   -8.7995   -3.4089    4.2087 C   0  0  0  0  0  0  0  0  0  0  0  0
  -11.0227   -4.5119    3.9825 N   0  0  0  0  0  0  0  0  0  0  0  0
  -12.0159   -4.3901    3.0416 C   0  0  0  0  0  0  0  0  0  0  0  0
   -9.2794   -8.0250    5.1844 C   0  0  1  0  0  0  0  0  0  0  0  0
  -10.6495   -7.3665   10.9485 C   0  0  0  0  0  0  0  0  0  0  0  0
   -5.4361   -2.5779    2.7762 C   0  0  0  0  0  0  0  0  0  0  0  0
  -15.3221   -2.7493   -0.3482 O   0  0  0  0  0  0  0  0  0  0  0  0
   -8.0213   -6.4184    3.3774 O   0  0  0  0  0  0  0  0  0  0  0  0
  -13.2436   -7.4648    9.5892 O   0  0  0  0  0  0  0  0  0  0  0  0
  -10.8739   -9.7925    5.8472 O   0  0  0  0  0  0  0  0  0  0  0  0
  -13.4481   -4.4268    3.5463 C   0  0  0  0  0  0  0  0  0  0  0  0
  -14.9062   -5.9529    7.1958 C   0  0  0  0  0  0  0  0  0  0  0  0
  -16.5565   -2.9386    1.5327 O   0  0  0  0  0  0  0  0  0  0  0  0
  -15.1399   -8.7191    5.4043 O   0  0  0  0  0  0  0  0  0  0  0  0
  -11.7558   -4.2554    1.8501 O   0  0  0  0  0  0  0  0  0  0  0  0
   -9.9471   -7.8857   11.8065 O   0  0  0  0  0  0  0  0  0  0  0  0
  -14.2898   -2.9747    1.7377 N   0  0  0  0  0  0  0  0  0  0  0  0
  -14.0829   -2.6907   -1.1132 C   0  0  0  0  0  0  0  0  0  0  0  0
  -16.9492   -8.5124    6.7467 N   0  0  0  0  0  0  0  0  0  0  0  0
  -14.2097   -3.1556    3.1702 C   0  0  0  0  0  0  0  0  0  0  0  0
   -7.9090   -8.0998    5.8802 C   0  0  0  0  0  0  0  0  0  0  0  0
  -11.7360   -6.6622   11.2826 O   0  0  0  0  0  0  0  0  0  0  0  0
  -16.3130   -5.4165    7.2471 C   0  0  0  0  0  0  0  0  0  0  0  0
   -6.9836  -10.5353    4.7265 S   0  0  0  0  0  0  0  0  0  0  0  0
   -7.2047   -0.9504    2.6232 C   0  0  0  0  0  0  0  0  0  0  0  0
   -7.4701   -9.5312    6.1877 C   0  0  0  0  0  0  0  0  0  0  0  0
   -4.5323   -1.7343    2.1228 C   0  0  0  0  0  0  0  0  0  0  0  0
  -13.2750   -1.4500   -0.7095 C   0  0  0  0  0  0  0  0  0  0  0  0
  -13.3369   -4.0233   -1.0027 C   0  0  0  0  0  0  0  0  0  0  0  0
  -14.4358   -2.5226   -2.6077 C   0  0  0  0  0  0  0  0  0  0  0  0
   -8.5329  -10.8047    3.7994 C   0  0  0  0  0  0  0  0  0  0  0  0
  -17.1547   -5.6009    6.1407 C   0  0  0  0  0  0  0  0  0  0  0  0
  -16.8354   -4.8648    8.4216 C   0  0  0  0  0  0  0  0  0  0  0  0
   -6.3016   -0.0738    2.0127 C   0  0  0  0  0  0  0  0  0  0  0  0
   -4.9855   -0.4612    1.7702 C   0  0  0  0  0  0  0  0  0  0  0  0
  -18.2020   -4.5983    8.5143 C   0  0  0  0  0  0  0  0  0  0  0  0
  -18.5151   -5.3300    6.2345 C   0  0  0  0  0  0  0  0  0  0  0  0
  -19.0382   -4.8250    7.4206 C   0  0  0  0  0  0  0  0  0  0  0  0
   -4.4107   -4.3903    3.1910 H   0  0  0  0  0  0  0  0  0  0  0  0
  -10.0916   -7.0603    7.1388 H   0  0  0  0  0  0  0  0  0  0  0  0
  -13.0718   -8.3843    6.5880 H   0  0  0  0  0  0  0  0  0  0  0  0
  -11.1164   -9.2877    8.7714 H   0  0  0  0  0  0  0  0  0  0  0  0
   -6.3509   -5.1496    4.5311 H   0  0  0  0  0  0  0  0  0  0  0  0
  -10.6982   -6.5347    4.8077 H   0  0  0  0  0  0  0  0  0  0  0  0
   -9.2888   -7.6474    9.3836 H   0  0  0  0  0  0  0  0  0  0  0  0
  -10.3713   -6.3020    9.1496 H   0  0  0  0  0  0  0  0  0  0  0  0
   -9.5371   -4.4734    2.4782 H   0  0  0  0  0  0  0  0  0  0  0  0
  -15.2378   -7.6887    8.4588 H   0  0  0  0  0  0  0  0  0  0  0  0
   -8.8166   -3.4875    5.3021 H   0  0  0  0  0  0  0  0  0  0  0  0
   -9.3174   -2.4695    3.9681 H   0  0  0  0  0  0  0  0  0  0  0  0
  -11.2436   -4.5525    4.9688 H   0  0  0  0  0  0  0  0  0  0  0  0
   -9.2435   -8.4710    4.2064 H   0  0  0  0  0  0  0  0  0  0  0  0
  -13.9336   -5.3062    3.1053 H   0  0  0  0  0  0  0  0  0  0  0  0
  -13.4589   -4.5485    4.6316 H   0  0  0  0  0  0  0  0  0  0  0  0
  -14.2826   -5.4059    7.9177 H   0  0  0  0  0  0  0  0  0  0  0  0
  -14.4750   -5.7298    6.2144 H   0  0  0  0  0  0  0  0  0  0  0  0
  -13.3955   -2.9800    1.2738 H   0  0  0  0  0  0  0  0  0  0  0  0
  -17.4324   -7.9622    7.4509 H   0  0  0  0  0  0  0  0  0  0  0  0
  -17.5267   -8.8980    6.0101 H   0  0  0  0  0  0  0  0  0  0  0  0
  -15.2163   -3.1752    3.5965 H   0  0  0  0  0  0  0  0  0  0  0  0
  -13.6834   -2.2793    3.5642 H   0  0  0  0  0  0  0  0  0  0  0  0
   -7.1235   -7.6017    5.3000 H   0  0  0  0  0  0  0  0  0  0  0  0
   -7.9483   -7.5318    6.8225 H   0  0  0  0  0  0  0  0  0  0  0  0
  -12.0335   -6.9596   12.1659 H   0  0  0  0  0  0  0  0  0  0  0  0
   -8.2254   -0.6342    2.8106 H   0  0  0  0  0  0  0  0  0  0  0  0
   -6.5642   -9.4588    6.8063 H   0  0  0  0  0  0  0  0  0  0  0  0
   -8.1986  -10.0616    6.8097 H   0  0  0  0  0  0  0  0  0  0  0  0
   -3.5089   -2.0387    1.9278 H   0  0  0  0  0  0  0  0  0  0  0  0
  -13.0202   -1.4040    0.3488 H   0  0  0  0  0  0  0  0  0  0  0  0
  -12.3383   -1.3863   -1.2683 H   0  0  0  0  0  0  0  0  0  0  0  0
  -13.8631   -0.5421   -0.8931 H   0  0  0  0  0  0  0  0  0  0  0  0
  -13.9526   -4.8431   -1.3907 H   0  0  0  0  0  0  0  0  0  0  0  0
  -12.3866   -3.9981   -1.5413 H   0  0  0  0  0  0  0  0  0  0  0  0
  -13.1277   -4.3218    0.0169 H   0  0  0  0  0  0  0  0  0  0  0  0
  -15.0399   -3.3578   -2.9796 H   0  0  0  0  0  0  0  0  0  0  0  0
  -15.0099   -1.6088   -2.7930 H   0  0  0  0  0  0  0  0  0  0  0  0
  -13.5209   -2.4756   -3.2138 H   0  0  0  0  0  0  0  0  0  0  0  0
   -9.3339  -11.1937    4.4306 H   0  0  0  0  0  0  0  0  0  0  0  0
   -8.8662   -9.9287    3.2436 H   0  0  0  0  0  0  0  0  0  0  0  0
   -8.3368  -11.5318    3.0088 H   0  0  0  0  0  0  0  0  0  0  0  0
  -16.7677   -6.0390    5.2212 H   0  0  0  0  0  0  0  0  0  0  0  0
  -16.1933   -4.6608    9.2768 H   0  0  0  0  0  0  0  0  0  0  0  0
   -6.6316    0.9238    1.7362 H   0  0  0  0  0  0  0  0  0  0  0  0
   -4.2968    0.2396    1.3051 H   0  0  0  0  0  0  0  0  0  0  0  0
  -18.6227   -4.2335    9.4483 H   0  0  0  0  0  0  0  0  0  0  0  0
  -19.1654   -5.5431    5.3900 H   0  0  0  0  0  0  0  0  0  0  0  0
  -20.0994   -4.6022    7.4898 H   0  0  0  0  0  0  0  0  0  0  0  0
  3 12  1  0  0  0  0
  5  9  1  0  0  0  0
  5 22  1  0  0  0  0
  5 55  1  0  0  0  0
  6  4  1  0  0  0  0
  6 56  1  0  0  0  0
  7  2  1  0  0  0  0
  7 57  1  0  0  0  0
  8 11  1  0  0  0  0
  8 58  1  1  0  0  0
  8  6  1  0  0  0  0
  8  2  1  0  0  0  0
  9  1  2  0  0  0  0
  9 59  1  0  0  0  0
 10  3  1  0  0  0  0
 10 60  1  0  0  0  0
 11 61  1  0  0  0  0
 11 62  1  0  0  0  0
 12 17  1  0  0  0  0
 12 63  1  6  0  0  0
 13 33  1  0  0  0  0
 14 28  1  0  0  0  0
 14 64  1  1  0  0  0
 14 15  1  0  0  0  0
 14  7  1  0  0  0  0
 16  1  1  0  0  0  0
 17  1  1  0  0  0  0
 17 65  1  0  0  0  0
 17 66  1  0  0  0  0
 18 12  1  0  0  0  0
 18 67  1  0  0  0  0
 19 18  1  0  0  0  0
 20 37  1  0  0  0  0
 20 68  1  6  0  0  0
 20 10  1  0  0  0  0
 20  4  1  0  0  0  0
 21 11  1  0  0  0  0
 22 16  2  0  0  0  0
 23 13  1  0  0  0  0
 24  3  2  0  0  0  0
 25  2  2  0  0  0  0
 26  4  2  0  0  0  0
 27 19  1  0  0  0  0
 27 69  1  0  0  0  0
 27 70  1  0  0  0  0
 28 71  1  0  0  0  0
 28 72  1  0  0  0  0
 29 13  2  0  0  0  0
 30 15  2  0  0  0  0
 31 19  2  0  0  0  0
 32 21  2  0  0  0  0
 33 36  1  0  0  0  0
 33 73  1  0  0  0  0
 34 23  1  0  0  0  0
 35 15  1  0  0  0  0
 35 74  1  0  0  0  0
 35 75  1  0  0  0  0
 36 27  1  0  0  0  0
 36 76  1  0  0  0  0
 36 77  1  0  0  0  0
 37 78  1  0  0  0  0
 37 79  1  0  0  0  0
 38 21  1  0  0  0  0
 38 80  1  0  0  0  0
 39 28  1  0  0  0  0
 40 42  1  0  0  0  0
 41 16  1  0  0  0  0
 41 81  1  0  0  0  0
 42 37  1  0  0  0  0
 42 82  1  0  0  0  0
 42 83  1  0  0  0  0
 43 22  1  0  0  0  0
 43 84  1  0  0  0  0
 44 34  1  0  0  0  0
 44 85  1  0  0  0  0
 44 86  1  0  0  0  0
 44 87  1  0  0  0  0
 45 34  1  0  0  0  0
 45 88  1  0  0  0  0
 45 89  1  0  0  0  0
 45 90  1  0  0  0  0
 46 34  1  0  0  0  0
 46 91  1  0  0  0  0
 46 92  1  0  0  0  0
 46 93  1  0  0  0  0
 47 40  1  0  0  0  0
 47 94  1  0  0  0  0
 47 95  1  0  0  0  0
 47 96  1  0  0  0  0
 48 39  1  0  0  0  0
 48 97  1  0  0  0  0
 49 39  2  0  0  0  0
 49 98  1  0  0  0  0
 50 41  2  0  0  0  0
 50 99  1  0  0  0  0
 51 50  1  0  0  0  0
 51 43  2  0  0  0  0
 51100  1  0  0  0  0
 52 49  1  0  0  0  0
 52101  1  0  0  0  0
 53 48  2  0  0  0  0
 53102  1  0  0  0  0
 54 52  2  0  0  0  0
 54 53  1  0  0  0  0
 54103  1  0  0  0  0
M  END
>  <DRUGBANK_ID>
DB00183

>  <SECONDARY_ACCESSION_NUMBERS>
APRD01172

>  <COMMON_NAME>
Pentagastrin

>  <CAS_NUMBER>
5534-95-2

>  <UNII>
EF0NX91490

>  <SYNONYMS>
Pentagastrin

$$$$
