
 OpenBabel10282417133D

 17 17  0  0  0  0  0  0  0  0999 V2000
    0.9934    0.0699    0.0826 N   0  0  0  0  0  0  0  0  0  0  0  0
    0.4070    1.6058   -0.2689 S   0  0  0  0  0  0  0  0  0  0  0  0
    1.0871    1.9755   -1.4845 O   0  0  0  0  0  0  0  0  0  0  0  0
   -1.0356    1.4942   -0.1919 O   0  0  0  0  0  0  0  0  0  0  0  0
    0.9234    2.6744    1.0084 C   0  0  0  0  0  0  0  0  0  0  0  0
    0.6598    4.0309    0.8465 C   0  0  0  0  0  0  0  0  0  0  0  0
    0.1009    4.4955   -0.2788 F   0  0  0  0  0  0  0  0  0  0  0  0
    0.9600    4.9459    1.8560 C   0  0  0  0  0  0  0  0  0  0  0  0
    1.5453    4.5037    3.0396 C   0  0  0  0  0  0  0  0  0  0  0  0
    1.8496    3.1505    3.1884 C   0  0  0  0  0  0  0  0  0  0  0  0
    1.5399    2.2413    2.1716 C   0  0  0  0  0  0  0  0  0  0  0  0
    1.8632    0.9579    2.3708 F   0  0  0  0  0  0  0  0  0  0  0  0
    0.5458   -0.6035   -0.5432 H   0  0  0  0  0  0  0  0  0  0  0  0
    2.0094    0.0245    0.0185 H   0  0  0  0  0  0  0  0  0  0  0  0
    0.7212    5.9967    1.7149 H   0  0  0  0  0  0  0  0  0  0  0  0
    1.7614    5.2079    3.8402 H   0  0  0  0  0  0  0  0  0  0  0  0
    2.3182    2.7934    4.1021 H   0  0  0  0  0  0  0  0  0  0  0  0
  1  2  1  0  0  0  0
  1 13  1  0  0  0  0
  1 14  1  0  0  0  0
  2  3  2  0  0  0  0
  2  4  2  0  0  0  0
  2  5  1  0  0  0  0
  5  6  2  0  0  0  0
  5 11  1  0  0  0  0
  6  7  1  0  0  0  0
  6  8  1  0  0  0  0
  8  9  2  0  0  0  0
  8 15  1  0  0  0  0
  9 10  1  0  0  0  0
  9 16  1  0  0  0  0
 10 11  2  0  0  0  0
 10 17  1  0  0  0  0
 11 12  1  0  0  0  0
M  END
>  <DRUGBANK_ID>
DB03270

>  <SECONDARY_ACCESSION_NUMBERS>
EXPT01397

>  <COMMON_NAME>
2,6-Difluorobenzenesulfonamide

>  <UNII>
XUJ3WJ7RKA

$$$$
