
 OpenBabel10282417133D

 18 19  0  0  0  0  0  0  0  0999 V2000
    3.3524    0.6364    0.0114 C   0  0  0  0  0  0  0  0  0  0  0  0
    1.9180    0.1899   -0.0009 C   0  0  0  0  0  0  0  0  0  0  0  0
    0.8856    1.1457    0.0040 C   0  0  0  0  0  0  0  0  0  0  0  0
   -0.4261    0.6609    0.0007 C   0  0  0  0  0  0  0  0  0  0  0  0
   -0.7394   -0.6945    0.0017 C   0  0  0  0  0  0  0  0  0  0  0  0
    0.2960   -1.6369   -0.0019 C   0  0  0  0  0  0  0  0  0  0  0  0
    1.6193   -1.1805   -0.0083 C   0  0  0  0  0  0  0  0  0  0  0  0
   -2.0993   -0.8862    0.0064 N   0  0  0  0  0  0  0  0  0  0  0  0
   -2.6159    0.3210    0.0033 C   0  0  0  0  0  0  0  0  0  0  0  0
   -1.6477    1.2851   -0.0034 N   0  0  0  0  0  0  0  0  0  0  0  0
    3.5662    1.2549   -0.8655 H   0  0  0  0  0  0  0  0  0  0  0  0
    3.5624    1.2048    0.9226 H   0  0  0  0  0  0  0  0  0  0  0  0
    4.0334   -0.2214   -0.0113 H   0  0  0  0  0  0  0  0  0  0  0  0
    1.0975    2.2101    0.0116 H   0  0  0  0  0  0  0  0  0  0  0  0
    0.0695   -2.6968    0.0003 H   0  0  0  0  0  0  0  0  0  0  0  0
    2.4224   -1.9144   -0.0166 H   0  0  0  0  0  0  0  0  0  0  0  0
   -3.6716    0.5554    0.0047 H   0  0  0  0  0  0  0  0  0  0  0  0
   -1.8061    2.2823   -0.0121 H   0  0  0  0  0  0  0  0  0  0  0  0
  1  2  1  0  0  0  0
  1 11  1  0  0  0  0
  1 12  1  0  0  0  0
  1 13  1  0  0  0  0
  2  3  2  0  0  0  0
  2  7  1  0  0  0  0
  3  4  1  0  0  0  0
  3 14  1  0  0  0  0
  4  5  2  0  0  0  0
  4 10  1  0  0  0  0
  5  6  1  0  0  0  0
  5  8  1  0  0  0  0
  6  7  2  0  0  0  0
  6 15  1  0  0  0  0
  7 16  1  0  0  0  0
  8  9  2  0  0  0  0
  9 10  1  0  0  0  0
  9 17  1  0  0  0  0
 10 18  1  0  0  0  0
M  END
>  <DRUGBANK_ID>
DB03177

>  <SECONDARY_ACCESSION_NUMBERS>
EXPT00250

>  <COMMON_NAME>
5-methylbenzimidazole

>  <CAS_NUMBER>
614-97-1

>  <UNII>
R56855UC8Y

>  <SYNONYMS>
5-methyl-1H-benzimidazole; 6-methyl-1H-benzimidazole

$$$$
