
 OpenBabel10282417223D

 54 57  0  0  0  0  0  0  0  0999 V2000
    0.7559    0.2878   -0.1850 N   0  0  0  0  0  0  0  0  0  0  0  0
    0.0142    0.2694    1.0155 C   0  0  0  0  0  0  0  0  0  0  0  0
    0.4640    1.0859    2.1087 C   0  0  0  0  0  0  0  0  0  0  0  0
   -0.2467    1.1203    3.2986 C   0  0  0  0  0  0  0  0  0  0  0  0
   -1.4552    0.4379    3.3660 C   0  0  0  0  0  0  0  0  0  0  0  0
   -1.8065   -0.4513    2.3467 C   0  0  0  0  0  0  0  0  0  0  0  0
   -1.0578   -0.5745    1.2211 N   0  3  0  0  0  0  0  0  0  0  0  0
   -1.1810   -1.8731    0.4398 C   0  0  0  0  0  0  0  0  0  0  0  0
   -1.0705   -3.0916    1.1965 O   0  0  0  0  0  0  0  0  0  0  0  0
    0.4788   -3.2749    1.9440 P   0  0  3  0  0  0  0  0  0  0  0  0
    0.6950   -1.7140    2.1772 O   0  0  0  0  0  0  0  0  0  0  0  0
   -0.3325   -3.8040    3.1247 O   0  5  0  0  0  0  0  0  0  0  0  0
    1.8655   -3.4391    2.6130 O   0  0  0  0  0  0  0  0  0  0  0  0
    1.6017    1.9751    1.9032 C   0  0  0  0  0  0  0  0  0  0  0  0
    1.8174    2.9250    0.9590 C   0  0  0  0  0  0  0  0  0  0  0  0
    3.1012    3.4317    1.2122 C   0  0  0  0  0  0  0  0  0  0  0  0
    3.7833    4.4976    0.4084 C   0  0  0  0  0  0  0  0  0  0  0  0
    4.0691    5.6775    1.3002 C   0  0  0  0  0  0  0  0  0  0  0  0
    4.9200    5.5261    2.4029 C   0  0  0  0  0  0  0  0  0  0  0  0
    5.0811    6.5521    3.3214 C   0  0  0  0  0  0  0  0  0  0  0  0
    4.4842    7.7925    3.0950 C   0  0  0  0  0  0  0  0  0  0  0  0
    4.4641    8.8098    4.2072 C   0  0  0  0  0  0  0  0  0  0  0  0
    3.8697    8.3345    5.4319 O   0  0  0  0  0  0  0  0  0  0  0  0
    2.5063    8.1367    5.3531 C   0  0  0  0  0  0  0  0  0  0  0  0
    2.0110    7.3365    4.3902 N   0  0  0  0  0  0  0  0  0  0  0  0
    0.6777    7.1440    4.3578 C   0  0  0  0  0  0  0  0  0  0  0  0
   -0.2015    7.7638    5.2257 C   0  0  0  0  0  0  0  0  0  0  0  0
    0.3345    8.5401    6.2470 C   0  0  0  0  0  0  0  0  0  0  0  0
    1.7172    8.6874    6.3466 C   0  0  0  0  0  0  0  0  0  0  0  0
    3.7873    8.0154    1.8995 C   0  0  0  0  0  0  0  0  0  0  0  0
    3.5334    6.9484    1.0338 C   0  0  0  0  0  0  0  0  0  0  0  0
    3.6770    2.7443    2.2181 N   0  0  0  0  0  0  0  0  0  0  0  0
    2.7072    1.8585    2.6914 O   0  0  0  0  0  0  0  0  0  0  0  0
    0.4382   -0.2078   -0.9999 H   0  0  0  0  0  0  0  0  0  0  0  0
    1.7589    0.1540   -0.0123 H   0  0  0  0  0  0  0  0  0  0  0  0
    0.1185    1.6766    4.1628 H   0  0  0  0  0  0  0  0  0  0  0  0
   -2.0806    0.5335    4.2488 H   0  0  0  0  0  0  0  0  0  0  0  0
   -2.6305   -1.1480    2.4722 H   0  0  0  0  0  0  0  0  0  0  0  0
   -2.1713   -1.8326   -0.0237 H   0  0  0  0  0  0  0  0  0  0  0  0
   -0.4302   -1.9013   -0.3509 H   0  0  0  0  0  0  0  0  0  0  0  0
    1.6737   -1.6731    2.2086 H   0  0  0  0  0  0  0  0  0  0  0  0
    1.1309    3.2001    0.1677 H   0  0  0  0  0  0  0  0  0  0  0  0
    4.7036    4.1344   -0.0549 H   0  0  0  0  0  0  0  0  0  0  0  0
    3.1067    4.8038   -0.4022 H   0  0  0  0  0  0  0  0  0  0  0  0
    5.4031    4.5729    2.6010 H   0  0  0  0  0  0  0  0  0  0  0  0
    5.6061    6.3528    4.2518 H   0  0  0  0  0  0  0  0  0  0  0  0
    5.5089    9.0517    4.4435 H   0  0  0  0  0  0  0  0  0  0  0  0
    3.9990    9.7546    3.8984 H   0  0  0  0  0  0  0  0  0  0  0  0
    0.3294    6.4538    3.5956 H   0  0  0  0  0  0  0  0  0  0  0  0
   -1.2715    7.6259    5.1230 H   0  0  0  0  0  0  0  0  0  0  0  0
   -0.3197    9.0201    6.9687 H   0  0  0  0  0  0  0  0  0  0  0  0
    2.1661    9.2274    7.1702 H   0  0  0  0  0  0  0  0  0  0  0  0
    3.3648    8.9946    1.6859 H   0  0  0  0  0  0  0  0  0  0  0  0
    2.8865    7.1190    0.1761 H   0  0  0  0  0  0  0  0  0  0  0  0
  1  2  1  0  0  0  0
  1 34  1  0  0  0  0
  1 35  1  0  0  0  0
  2  3  2  0  0  0  0
  2  7  1  0  0  0  0
  3  4  1  0  0  0  0
  3 14  1  0  0  0  0
  4  5  2  0  0  0  0
  4 36  1  0  0  0  0
  5  6  1  0  0  0  0
  5 37  1  0  0  0  0
  6  7  2  0  0  0  0
  6 38  1  0  0  0  0
  7  8  1  0  0  0  0
  8  9  1  0  0  0  0
  8 39  1  0  0  0  0
  8 40  1  0  0  0  0
  9 10  1  0  0  0  0
 10 11  1  0  0  0  0
 10 12  1  0  0  0  0
 10 13  2  0  0  0  0
 11 41  1  0  0  0  0
 14 15  2  0  0  0  0
 14 33  1  0  0  0  0
 15 16  1  0  0  0  0
 15 42  1  0  0  0  0
 16 17  1  0  0  0  0
 16 32  2  0  0  0  0
 17 18  1  0  0  0  0
 17 43  1  0  0  0  0
 17 44  1  0  0  0  0
 18 19  2  0  0  0  0
 18 31  1  0  0  0  0
 19 20  1  0  0  0  0
 19 45  1  0  0  0  0
 20 21  2  0  0  0  0
 20 46  1  0  0  0  0
 21 22  1  0  0  0  0
 21 30  1  0  0  0  0
 22 23  1  0  0  0  0
 22 47  1  0  0  0  0
 22 48  1  0  0  0  0
 23 24  1  0  0  0  0
 24 25  2  0  0  0  0
 24 29  1  0  0  0  0
 25 26  1  0  0  0  0
 26 27  2  0  0  0  0
 26 49  1  0  0  0  0
 27 28  1  0  0  0  0
 27 50  1  0  0  0  0
 28 29  2  0  0  0  0
 28 51  1  0  0  0  0
 29 52  1  0  0  0  0
 30 31  2  0  0  0  0
 30 53  1  0  0  0  0
 31 54  1  0  0  0  0
 32 33  1  0  0  0  0
M  CHG  2   7   1  12  -1
M  END
>  <DRUGBANK_ID>
DB15183

>  <COMMON_NAME>
Fosmanogepix

>  <CAS_NUMBER>
2091769-17-2

>  <UNII>
1XQ871489P

>  <SYNONYMS>
[2-amino-3-[3-[[4-(2-pyridyloxymethyl)phenyl]methyl]isoxazol-5-yl]pyridin-1-ium-1-yl]methyl hydrogen phosphate; Fosmanogepix

$$$$
