
 OpenBabel10282417173D

 42 42  0  0  0  0  0  0  0  0999 V2000
   -1.6607   -0.2401   -0.0079 Br  0  0  0  0  0  0  0  0  0  0  0  0
    4.2696    0.0744    0.6646 O   0  0  0  0  0  0  0  0  0  0  0  0
    2.2850   -3.7322   -0.0514 O   0  0  0  0  0  0  0  0  0  0  0  0
    4.3299   -2.9413   -0.2981 N   0  0  0  0  0  0  0  0  0  0  0  0
    0.2546    2.3001    0.0900 N   0  0  0  0  0  0  0  0  0  0  0  0
    7.1192   -2.9839    1.3012 N   0  0  0  0  0  0  0  0  0  0  0  0
    2.3727   -1.3499    0.0401 C   0  0  0  0  0  0  0  0  0  0  0  0
    3.0093   -0.0867    0.1481 C   0  0  0  0  0  0  0  0  0  0  0  0
    0.2365   -0.1632   -0.0412 C   0  0  0  0  0  0  0  0  0  0  0  0
    3.0059   -2.7138   -0.0673 C   0  0  0  0  0  0  0  0  0  0  0  0
    0.9611   -1.3607   -0.0302 C   0  0  0  0  0  0  0  0  0  0  0  0
    0.8931    1.0730   -0.0745 C   0  0  0  0  0  0  0  0  0  0  0  0
    2.2766    1.0850    0.0062 C   0  0  0  0  0  0  0  0  0  0  0  0
    5.4554   -2.0240   -0.3034 C   0  0  0  0  0  0  0  0  0  0  0  0
    6.1974   -1.8620    1.0622 C   0  0  0  0  0  0  0  0  0  0  0  0
    5.1123    1.1370    0.1799 C   0  0  0  0  0  0  0  0  0  0  0  0
    8.0000   -2.8025    2.4576 C   0  0  0  0  0  0  0  0  0  0  0  0
    6.4438   -4.2825    1.2786 C   0  0  0  0  0  0  0  0  0  0  0  0
    7.3182   -2.7488    3.8177 C   0  0  0  0  0  0  0  0  0  0  0  0
    5.2635   -4.4422    2.2433 C   0  0  0  0  0  0  0  0  0  0  0  0
    4.5076   -3.9235   -0.4676 H   0  0  0  0  0  0  0  0  0  0  0  0
   -0.7321    2.3453   -0.1309 H   0  0  0  0  0  0  0  0  0  0  0  0
    0.8023    3.1345   -0.0887 H   0  0  0  0  0  0  0  0  0  0  0  0
    0.4198   -2.3102   -0.0427 H   0  0  0  0  0  0  0  0  0  0  0  0
    2.7848    2.0396    0.0738 H   0  0  0  0  0  0  0  0  0  0  0  0
    6.1622   -2.2448   -1.1042 H   0  0  0  0  0  0  0  0  0  0  0  0
    5.0311   -1.1258   -0.6978 H   0  0  0  0  0  0  0  0  0  0  0  0
    6.7964   -0.9434    1.0487 H   0  0  0  0  0  0  0  0  0  0  0  0
    5.4942   -1.7219    1.8949 H   0  0  0  0  0  0  0  0  0  0  0  0
    4.8407    1.5497   -0.7992 H   0  0  0  0  0  0  0  0  0  0  0  0
    5.1616    1.9036    0.9518 H   0  0  0  0  0  0  0  0  0  0  0  0
    6.1281    0.7432    0.0563 H   0  0  0  0  0  0  0  0  0  0  0  0
    8.7285   -3.6235    2.4545 H   0  0  0  0  0  0  0  0  0  0  0  0
    8.5972   -1.8910    2.3258 H   0  0  0  0  0  0  0  0  0  0  0  0
    6.1227   -4.4648    0.2515 H   0  0  0  0  0  0  0  0  0  0  0  0
    7.1694   -5.0870    1.4208 H   0  0  0  0  0  0  0  0  0  0  0  0
    6.9174   -3.7194    4.0974 H   0  0  0  0  0  0  0  0  0  0  0  0
    8.0326   -2.5105    4.6068 H   0  0  0  0  0  0  0  0  0  0  0  0
    6.5110   -2.0112    3.8437 H   0  0  0  0  0  0  0  0  0  0  0  0
    4.6584   -3.5370    2.3666 H   0  0  0  0  0  0  0  0  0  0  0  0
    4.5904   -5.2352    1.9180 H   0  0  0  0  0  0  0  0  0  0  0  0
    5.6048   -4.7343    3.2327 H   0  0  0  0  0  0  0  0  0  0  0  0
  1  9  1  0  0  0  0
  2  8  1  0  0  0  0
  2 16  1  0  0  0  0
  3 10  2  0  0  0  0
  4 10  1  0  0  0  0
  4 14  1  0  0  0  0
  4 21  1  0  0  0  0
  5 12  1  0  0  0  0
  5 22  1  0  0  0  0
  5 23  1  0  0  0  0
  6 15  1  0  0  0  0
  6 17  1  0  0  0  0
  6 18  1  0  0  0  0
  7  8  1  0  0  0  0
  7 10  1  0  0  0  0
  7 11  2  0  0  0  0
  8 13  2  0  0  0  0
  9 11  1  0  0  0  0
  9 12  2  0  0  0  0
 11 24  1  0  0  0  0
 12 13  1  0  0  0  0
 13 25  1  0  0  0  0
 14 15  1  0  0  0  0
 14 26  1  0  0  0  0
 14 27  1  0  0  0  0
 15 28  1  0  0  0  0
 15 29  1  0  0  0  0
 16 30  1  0  0  0  0
 16 31  1  0  0  0  0
 16 32  1  0  0  0  0
 17 19  1  0  0  0  0
 17 33  1  0  0  0  0
 17 34  1  0  0  0  0
 18 20  1  0  0  0  0
 18 35  1  0  0  0  0
 18 36  1  0  0  0  0
 19 37  1  0  0  0  0
 19 38  1  0  0  0  0
 19 39  1  0  0  0  0
 20 40  1  0  0  0  0
 20 41  1  0  0  0  0
 20 42  1  0  0  0  0
M  END
>  <DRUGBANK_ID>
DB09018

>  <COMMON_NAME>
Bromopride

>  <CAS_NUMBER>
4093-35-0

>  <UNII>
75473V2YZK

>  <SYNONYMS>
4-amino-5-bromo-N-[2-(diethylamino)ethyl]-2-methoxybenzamide; Bromoprid; Bromoprida; Bromopride; Bromopridum

$$$$
