
 OpenBabel10282417113D

 42 44  0  0  0  0  0  0  0  0999 V2000
    1.3759   -0.2252   -0.0063 C   0  0  0  0  0  0  0  0  0  0  0  0
    3.1309   -0.4972    0.2324 S   0  0  0  0  0  0  0  0  0  0  0  0
    0.4952   -1.3102   -0.0160 C   0  0  0  0  0  0  0  0  0  0  0  0
    0.8632    1.0722   -0.0196 C   0  0  0  0  0  0  0  0  0  0  0  0
    3.8372    0.2689   -1.0744 N   0  0  0  0  0  0  0  0  0  0  0  0
    3.4644    0.1876    1.4630 O   0  0  0  0  0  0  0  0  0  0  0  0
    3.3757   -1.9172    0.0800 O   0  0  0  0  0  0  0  0  0  0  0  0
   -0.8996   -1.0949   -0.0424 C   0  0  0  0  0  0  0  0  0  0  0  0
   -0.5354    1.2704   -0.0054 C   0  0  0  0  0  0  0  0  0  0  0  0
    4.9427    1.1303   -0.8673 C   0  0  0  0  0  0  0  0  0  0  0  0
   -1.4520    0.1995   -0.0499 C   0  0  0  0  0  0  0  0  0  0  0  0
    5.9260    0.9466    0.0965 C   0  0  0  0  0  0  0  0  0  0  0  0
    4.9714    2.1407   -1.7566 N   0  0  0  0  0  0  0  0  0  0  0  0
   -2.8522    0.5030   -0.1281 N   0  0  0  0  0  0  0  0  0  0  0  0
    6.8941    1.9363    0.2637 C   0  0  0  0  0  0  0  0  0  0  0  0
    5.9339    3.0802   -1.5816 C   0  0  0  0  0  0  0  0  0  0  0  0
   -3.5919   -0.5059   -0.2244 N   0  0  0  0  0  0  0  0  0  0  0  0
    6.8918    3.0367   -0.5812 C   0  0  0  0  0  0  0  0  0  0  0  0
   -4.9714   -0.2179   -0.4440 C   0  0  0  0  0  0  0  0  0  0  0  0
   -5.4450    0.7116   -1.3882 C   0  0  0  0  0  0  0  0  0  0  0  0
   -5.9339   -1.0131    0.1945 C   0  0  0  0  0  0  0  0  0  0  0  0
   -6.8283    0.8612   -1.6917 C   0  0  0  0  0  0  0  0  0  0  0  0
   -7.3031   -0.9064   -0.1153 C   0  0  0  0  0  0  0  0  0  0  0  0
   -7.7518    0.0492   -1.0297 C   0  0  0  0  0  0  0  0  0  0  0  0
   -7.1866    1.8691   -2.7351 C   0  0  0  0  0  0  0  0  0  0  0  0
   -9.1028    0.1183   -1.2427 O   0  0  0  0  0  0  0  0  0  0  0  0
   -8.4966    2.0379   -3.0198 O   0  0  0  0  0  0  0  0  0  0  0  0
   -6.3286    2.5604   -3.2725 O   0  0  0  0  0  0  0  0  0  0  0  0
    0.8763   -2.3292    0.0243 H   0  0  0  0  0  0  0  0  0  0  0  0
    1.5350    1.9297   -0.0169 H   0  0  0  0  0  0  0  0  0  0  0  0
    3.8204   -0.1999   -1.9764 H   0  0  0  0  0  0  0  0  0  0  0  0
   -1.5518   -1.9647   -0.0373 H   0  0  0  0  0  0  0  0  0  0  0  0
   -0.9153    2.2886    0.0587 H   0  0  0  0  0  0  0  0  0  0  0  0
    5.9321    0.0839    0.7524 H   0  0  0  0  0  0  0  0  0  0  0  0
    7.6276    1.8549    1.0618 H   0  0  0  0  0  0  0  0  0  0  0  0
    5.9075    3.9116   -2.2814 H   0  0  0  0  0  0  0  0  0  0  0  0
    7.6183    3.8344   -0.4650 H   0  0  0  0  0  0  0  0  0  0  0  0
   -4.7181    1.3198   -1.9242 H   0  0  0  0  0  0  0  0  0  0  0  0
   -5.6156   -1.7450    0.9354 H   0  0  0  0  0  0  0  0  0  0  0  0
   -8.0120   -1.5855    0.3558 H   0  0  0  0  0  0  0  0  0  0  0  0
   -9.3883    1.0400   -1.0850 H   0  0  0  0  0  0  0  0  0  0  0  0
   -9.0539    1.2388   -2.9421 H   0  0  0  0  0  0  0  0  0  0  0  0
  1  2  1  0  0  0  0
  1  3  1  0  0  0  0
  1  4  2  0  0  0  0
  2  5  1  0  0  0  0
  2  6  2  0  0  0  0
  2  7  2  0  0  0  0
  3  8  2  0  0  0  0
  3 29  1  0  0  0  0
  4  9  1  0  0  0  0
  4 30  1  0  0  0  0
  5 10  1  0  0  0  0
  5 31  1  0  0  0  0
  8 11  1  0  0  0  0
  8 32  1  0  0  0  0
  9 11  2  0  0  0  0
  9 33  1  0  0  0  0
 10 12  1  0  0  0  0
 10 13  2  0  0  0  0
 11 14  1  0  0  0  0
 12 15  2  0  0  0  0
 12 34  1  0  0  0  0
 13 16  1  0  0  0  0
 14 17  2  0  0  0  0
 15 18  1  0  0  0  0
 15 35  1  0  0  0  0
 16 18  2  0  0  0  0
 16 36  1  0  0  0  0
 17 19  1  0  0  0  0
 18 37  1  0  0  0  0
 19 20  1  0  0  0  0
 19 21  2  0  0  0  0
 20 22  2  0  0  0  0
 20 38  1  0  0  0  0
 21 23  1  0  0  0  0
 21 39  1  0  0  0  0
 22 24  1  0  0  0  0
 22 25  1  0  0  0  0
 23 24  2  0  0  0  0
 23 40  1  0  0  0  0
 24 26  1  0  0  0  0
 25 27  1  0  0  0  0
 25 28  2  0  0  0  0
 26 41  1  0  0  0  0
 27 42  1  0  0  0  0
M  END
>  <DRUGBANK_ID>
DB00795

>  <SECONDARY_ACCESSION_NUMBERS>
APRD00152; DB08518

>  <COMMON_NAME>
Sulfasalazine

>  <CAS_NUMBER>
599-79-1

>  <UNII>
3XC8GUZ6CB

>  <SYNONYMS>
2-Hydroxy-5-((4-((2-pyridinylamino)sulfonyl)phenyl)azo)benzoic acid; 2-Hydroxy-5-[4-(pyridin-2-ylsulfamoyl)-phenylazo]-benzoic acid; 4-(Pyridyl-2-amidosulfonyl)-3'-carboxy-4'-hydroxyazobenzene; 5-((p-(2-Pyridylsulfamoyl)phenyl)azo)salicylic acid; 5-(4-(2-Pyridylsulfamoyl)phenylazo)-2-hydroxybenzoic acid; 5-(p-(2-Pyridylsulfamyl)phenylazo)salicylic acid; Azopyrin; Salazosulfapiridina; Salazosulfapyridine; Salazosulfapyridinum; Salicylazosulfapyridine; Sulfasalazin; Sulfasalazina; Sulfasalazine; Sulfasalazinum

$$$$
