
 OpenBabel10282417223D

 37 38  0  0  0  0  0  0  0  0999 V2000
    0.9067    0.0465    0.1168 C   0  0  3  0  0  0  0  0  0  0  0  0
    0.4523   -1.3389    0.2011 N   0  0  0  0  0  0  0  0  0  0  0  0
    0.4057    0.8249    1.2182 O   0  0  0  0  0  0  0  0  0  0  0  0
    0.4190    0.6663   -1.2026 C   0  0  0  0  0  0  0  0  0  0  0  0
    1.2153   -2.4566   -0.0128 C   0  0  0  0  0  0  0  0  0  0  0  0
   -0.8078   -1.7518    0.5265 C   0  0  0  0  0  0  0  0  0  0  0  0
    0.8323    0.4313    2.4602 C   0  0  0  0  0  0  0  0  0  0  0  0
    1.4488    1.1334   -2.2566 C   0  0  0  0  0  0  0  0  0  0  0  0
   -0.7924    0.7998   -1.4327 O   0  0  0  0  0  0  0  0  0  0  0  0
    0.3635   -3.5105    0.2241 C   0  0  0  0  0  0  0  0  0  0  0  0
   -0.8868   -3.0620    0.5588 N   0  0  0  0  0  0  0  0  0  0  0  0
    2.1546    0.1067    2.7689 C   0  0  0  0  0  0  0  0  0  0  0  0
   -0.1502    0.3658    3.4506 C   0  0  0  0  0  0  0  0  0  0  0  0
    1.2110    0.3541   -3.5594 C   0  0  0  0  0  0  0  0  0  0  0  0
    1.2160    2.6297   -2.5164 C   0  0  0  0  0  0  0  0  0  0  0  0
    2.9054    0.9328   -1.8271 C   0  0  0  0  0  0  0  0  0  0  0  0
    2.4759   -0.3581    4.0469 C   0  0  0  0  0  0  0  0  0  0  0  0
    0.1710   -0.0980    4.7280 C   0  0  0  0  0  0  0  0  0  0  0  0
    1.4811   -0.4725    5.0163 C   0  0  0  0  0  0  0  0  0  0  0  0
    1.8781   -1.0775    6.5765 Cl  0  0  0  0  0  0  0  0  0  0  0  0
    1.9920    0.0213    0.1578 H   0  0  0  0  0  0  0  0  0  0  0  0
    2.2585   -2.4234   -0.2953 H   0  0  0  0  0  0  0  0  0  0  0  0
   -1.6122   -1.0571    0.7356 H   0  0  0  0  0  0  0  0  0  0  0  0
    0.5820   -4.5690    0.1707 H   0  0  0  0  0  0  0  0  0  0  0  0
    2.9552    0.2057    2.0441 H   0  0  0  0  0  0  0  0  0  0  0  0
   -1.1769    0.6411    3.2204 H   0  0  0  0  0  0  0  0  0  0  0  0
    0.1941    0.5021   -3.9405 H   0  0  0  0  0  0  0  0  0  0  0  0
    1.9064    0.6782   -4.3429 H   0  0  0  0  0  0  0  0  0  0  0  0
    1.3510   -0.7219   -3.4081 H   0  0  0  0  0  0  0  0  0  0  0  0
    1.3548    3.2139   -1.6000 H   0  0  0  0  0  0  0  0  0  0  0  0
    1.9122    3.0119   -3.2717 H   0  0  0  0  0  0  0  0  0  0  0  0
    0.1990    2.8234   -2.8768 H   0  0  0  0  0  0  0  0  0  0  0  0
    3.1235    1.4856   -0.9058 H   0  0  0  0  0  0  0  0  0  0  0  0
    3.1221   -0.1276   -1.6528 H   0  0  0  0  0  0  0  0  0  0  0  0
    3.6056    1.2849   -2.5907 H   0  0  0  0  0  0  0  0  0  0  0  0
    3.5014   -0.6334    4.2789 H   0  0  0  0  0  0  0  0  0  0  0  0
   -0.6051   -0.1773    5.4844 H   0  0  0  0  0  0  0  0  0  0  0  0
  1  2  1  0  0  0  0
  1  3  1  0  0  0  0
  1  4  1  0  0  0  0
  1 21  1  0  0  0  0
  2  5  1  0  0  0  0
  2  6  1  0  0  0  0
  3  7  1  0  0  0  0
  4  8  1  0  0  0  0
  4  9  2  0  0  0  0
  5 10  2  0  0  0  0
  5 22  1  0  0  0  0
  6 11  2  0  0  0  0
  6 23  1  0  0  0  0
  7 12  1  0  0  0  0
  7 13  2  0  0  0  0
  8 14  1  0  0  0  0
  8 15  1  0  0  0  0
  8 16  1  0  0  0  0
 10 11  1  0  0  0  0
 10 24  1  0  0  0  0
 12 17  2  0  0  0  0
 12 25  1  0  0  0  0
 13 18  1  0  0  0  0
 13 26  1  0  0  0  0
 14 27  1  0  0  0  0
 14 28  1  0  0  0  0
 14 29  1  0  0  0  0
 15 30  1  0  0  0  0
 15 31  1  0  0  0  0
 15 32  1  0  0  0  0
 16 33  1  0  0  0  0
 16 34  1  0  0  0  0
 16 35  1  0  0  0  0
 17 19  1  0  0  0  0
 17 36  1  0  0  0  0
 18 19  2  0  0  0  0
 18 37  1  0  0  0  0
 19 20  1  0  0  0  0
M  END
>  <DRUGBANK_ID>
DB15580

>  <COMMON_NAME>
Climbazole

>  <CAS_NUMBER>
38083-17-9

>  <UNII>
9N42CW7I54

>  <SYNONYMS>
Climbazol; Climbazole; Climbazolum

$$$$
