
 OpenBabel10282417183D

181186  0  0  1  0  0  0  0  0999 V2000
    1.0292   -0.0568   -0.0770 C   0  5  0  0  0  0  0  0  0  0  0  0
    2.2902   -0.0568   -0.0770 N   0  0  0  0  0  0  0  0  0  0  0  0
    1.0382    0.0922    0.0068 Co  0  1  0  0  0  0  0  0  0  0  0  0
    8.1452    0.4082   -6.1649 C   0  0  1  0  0  0  0  0  0  0  0  0
    5.4294   -0.6027   -7.8542 C   0  0  2  0  0  0  0  0  0  0  0  0
    6.3526   -0.9110   -6.7475 C   0  0  2  0  0  0  0  0  0  0  0  0
    1.5685   -3.2360   -9.3019 C   0  0  1  0  0  0  0  0  0  0  0  0
    1.3208   -4.7558   -9.2076 C   0  0  1  0  0  0  0  0  0  0  0  0
    2.0460   -5.2419   -7.9403 C   0  0  1  0  0  0  0  0  0  0  0  0
   -0.1207   -2.6301   -8.5773 C   0  0  1  0  0  0  0  0  0  0  0  0
    2.7090   -3.9999   -7.3086 C   0  0  2  0  0  0  0  0  0  0  0  0
    8.1829    0.0599  -11.6130 C   0  0  2  0  0  0  0  0  0  0  0  0
    8.2312    5.2005  -10.9212 C   0  0  1  0  0  0  0  0  0  0  0  0
    8.0118    6.7312  -10.9624 C   0  0  1  0  0  0  0  0  0  0  0  0
    7.4519    2.1083   -4.6287 C   0  0  1  0  0  0  0  0  0  0  0  0
    7.3289    1.7214   -6.1212 C   0  0  2  0  0  0  0  0  0  0  0  0
    8.0933   -0.1234   -4.7508 N   0  0  0  0  0  0  0  0  0  0  0  0
    7.7152    0.8040   -3.9141 C   0  0  0  0  0  0  0  0  0  0  0  0
    6.6431    7.9299  -12.8340 C   0  0  0  0  0  0  0  0  0  0  0  0
    6.2282    9.0465  -11.8898 C   0  0  0  0  0  0  0  0  0  0  0  0
    7.4356    6.9192  -12.3856 C   0  0  0  0  0  0  0  0  0  0  0  0
    7.9476    5.7326  -13.1672 N   0  0  0  0  0  0  0  0  0  0  0  0
    8.3814    4.7950  -12.3697 C   0  0  0  0  0  0  0  0  0  0  0  0
    8.9589    3.4623  -12.8178 C   0  0  0  0  0  0  0  0  0  0  0  0
    8.3626    2.3003  -12.4374 C   0  0  0  0  0  0  0  0  0  0  0  0
    7.1310    2.1335  -11.5792 N   0  0  0  0  0  0  0  0  0  0  0  0
    7.0323    0.9125  -11.1292 C   0  0  0  0  0  0  0  0  0  0  0  0
    5.9768    0.3905  -10.1681 C   0  0  0  0  0  0  0  0  0  0  0  0
    6.3399   -0.0525   -8.9342 C   0  0  0  0  0  0  0  0  0  0  0  0
    7.5862   -0.5830   -7.1726 C   0  0  3  0  0  0  0  0  0  0  0  0
    7.5844   -0.0936   -8.4175 N   0  5  0  0  0  0  0  0  0  0  0  0
   -1.6607   -1.8147  -10.0162 N   0  0  0  0  0  0  0  0  0  0  0  0
   -0.8366   -2.5225   -9.2688 C   0  0  0  0  0  0  0  0  0  0  0  0
    0.3746   -2.5444   -9.8090 N   0  0  0  0  0  0  0  0  0  0  0  0
    1.1236   -5.8246   -7.0314 O   0  0  0  0  0  0  0  0  0  0  0  0
   -0.1368   -4.6751   -6.7433 P   0  0  3  0  0  0  0  0  0  0  0  0
    0.6363   -3.5588   -7.8152 O   0  0  0  0  0  0  0  0  0  0  0  0
    0.7579   -2.0299   -9.6628 C   0  0  0  0  0  0  0  0  0  0  0  0
    1.3624   -0.7784   -9.1841 N   0  0  0  0  0  0  0  0  0  0  0  0
    2.8249   -0.6333   -9.1531 C   0  0  0  0  0  0  0  0  0  0  0  0
    3.4499    0.6608   -8.6581 C   0  0  0  0  0  0  0  0  0  0  0  0
    4.3316    0.3698   -7.4547 C   0  0  0  0  0  0  0  0  0  0  0  0
    3.5667   -1.5899   -9.5401 O   0  0  0  0  0  0  0  0  0  0  0  0
   -1.3010   -3.3427   -9.2172 C   0  0  0  0  0  0  0  0  0  0  0  0
    0.0107   -3.5356   -5.4500 O   0  5  0  0  0  0  0  0  0  0  0  0
   -0.8288   -5.6743   -5.7840 O   0  0  0  0  0  0  0  0  0  0  0  0
    1.8738   -2.8072   -7.8457 O   0  0  0  0  0  0  0  0  0  0  0  0
    4.1599   -3.8823   -7.7462 C   0  0  0  0  0  0  0  0  0  0  0  0
    4.2497   -3.0922   -8.9227 O   0  0  0  0  0  0  0  0  0  0  0  0
   -0.0679   -5.0453   -9.1456 O   0  0  0  0  0  0  0  0  0  0  0  0
    0.3505   -1.8468  -10.9399 C   0  0  0  0  0  0  0  0  0  0  0  0
   -0.9797   -1.3624  -11.0793 C   0  0  0  0  0  0  0  0  0  0  0  0
   -1.3029   -0.5767  -12.1964 C   0  0  0  0  0  0  0  0  0  0  0  0
   -0.2982   -0.3009  -13.1317 C   0  0  0  0  0  0  0  0  0  0  0  0
    0.9614   -0.7899  -12.9508 C   0  0  0  0  0  0  0  0  0  0  0  0
    1.2803   -1.5425  -11.8872 C   0  0  0  0  0  0  0  0  0  0  0  0
    2.0328   -0.4738  -13.9816 C   0  0  0  0  0  0  0  0  0  0  0  0
   -0.6130    0.5468  -14.3534 C   0  0  0  0  0  0  0  0  0  0  0  0
    6.2906   -2.3918   -6.4101 C   0  0  0  0  0  0  0  0  0  0  0  0
    4.9678   -2.9337   -6.9265 C   0  0  0  0  0  0  0  0  0  0  0  0
    4.9568   -3.8467   -7.8106 O   0  0  0  0  0  0  0  0  0  0  0  0
    3.7011   -2.4017   -6.4035 N   0  0  0  0  0  0  0  0  0  0  0  0
    4.7167   -1.8573   -8.3322 C   0  0  0  0  0  0  0  0  0  0  0  0
    4.5155    0.3634  -10.5856 C   0  0  0  0  0  0  0  0  0  0  0  0
    8.7960    0.8574  -12.7881 C   0  0  0  0  0  0  0  0  0  0  0  0
   10.2977    0.6801  -12.9425 C   0  0  0  0  0  0  0  0  0  0  0  0
    8.2196    0.4126  -14.1224 C   0  0  0  0  0  0  0  0  0  0  0  0
    7.7318   -1.3292  -12.0343 C   0  0  0  0  0  0  0  0  0  0  0  0
    8.9289   -2.1203  -12.5357 C   0  0  0  0  0  0  0  0  0  0  0  0
    9.9600   -2.2375  -11.4250 C   0  0  0  0  0  0  0  0  0  0  0  0
   10.3086   -3.3834  -10.9999 O   0  0  0  0  0  0  0  0  0  0  0  0
   10.5540   -1.0256  -10.8427 N   0  0  0  0  0  0  0  0  0  0  0  0
    7.1156    7.2602   -9.8546 C   0  0  0  0  0  0  0  0  0  0  0  0
    7.7567    6.9775   -8.5057 C   0  0  0  0  0  0  0  0  0  0  0  0
    8.0478    7.9385   -7.7266 O   0  0  0  0  0  0  0  0  0  0  0  0
    8.0401    5.5926   -8.1024 N   0  0  0  0  0  0  0  0  0  0  0  0
    9.3201    7.4851  -10.7883 C   0  0  0  0  0  0  0  0  0  0  0  0
    9.4427    4.8156  -10.0878 C   0  0  0  0  0  0  0  0  0  0  0  0
    9.2388    5.2771   -8.6540 C   0  0  0  0  0  0  0  0  0  0  0  0
    7.9974    4.6139   -8.0800 C   0  0  0  0  0  0  0  0  0  0  0  0
    8.0911    3.8712   -7.0529 O   0  0  0  0  0  0  0  0  0  0  0  0
    6.6885    4.8316   -8.7127 N   0  0  0  0  0  0  0  0  0  0  0  0
    5.8800    1.4886   -6.5174 C   0  0  0  0  0  0  0  0  0  0  0  0
    5.7384    1.5303   -8.0303 C   0  0  0  0  0  0  0  0  0  0  0  0
    5.2928    0.5171   -8.6549 O   0  0  0  0  0  0  0  0  0  0  0  0
    6.1168    2.7424   -8.7708 N   0  0  0  0  0  0  0  0  0  0  0  0
    7.8209    2.7908   -7.0828 C   0  0  0  0  0  0  0  0  0  0  0  0
    8.5534    3.1278   -4.3882 C   0  0  0  0  0  0  0  0  0  0  0  0
    8.2414    4.4016   -5.1568 C   0  0  0  0  0  0  0  0  0  0  0  0
    6.9138    4.9683   -4.6806 C   0  0  0  0  0  0  0  0  0  0  0  0
    6.8648    6.1332   -4.1750 O   0  0  0  0  0  0  0  0  0  0  0  0
    5.6864    4.1688   -4.8050 N   0  0  0  0  0  0  0  0  0  0  0  0
    9.5808    0.6831   -6.5819 C   0  0  0  0  0  0  0  0  0  0  0  0
    6.0915   -0.3662   -5.8643 H   0  0  0  0  0  0  0  0  0  0  0  0
    2.3636   -2.9923   -9.9752 H   0  0  0  0  0  0  0  0  0  0  0  0
    1.7163   -5.2485  -10.0711 H   0  0  0  0  0  0  0  0  0  0  0  0
    2.7428   -6.0289   -8.1400 H   0  0  0  0  0  0  0  0  0  0  0  0
   -0.4788   -1.8512   -7.9370 H   0  0  0  0  0  0  0  0  0  0  0  0
    2.7226   -4.0420   -6.2395 H   0  0  0  0  0  0  0  0  0  0  0  0
    8.9035   -0.0784  -10.8343 H   0  0  0  0  0  0  0  0  0  0  0  0
    7.3898    4.7106  -10.4775 H   0  0  0  0  0  0  0  0  0  0  0  0
    6.5443    2.5538   -4.2784 H   0  0  0  0  0  0  0  0  0  0  0  0
    5.6809    8.6339  -11.0682 H   0  0  0  0  0  0  0  0  0  0  0  0
    7.1006    9.5456  -11.5225 H   0  0  0  0  0  0  0  0  0  0  0  0
    5.6113    9.7461  -12.4140 H   0  0  0  0  0  0  0  0  0  0  0  0
    9.8343    3.4382  -13.4325 H   0  0  0  0  0  0  0  0  0  0  0  0
    8.2054   -1.4540   -7.2269 H   0  0  0  0  0  0  0  0  0  0  0  0
   -1.1068   -3.0101   -8.3555 H   0  0  0  0  0  0  0  0  0  0  0  0
    0.1372   -1.8251  -10.5099 H   0  0  0  0  0  0  0  0  0  0  0  0
    1.5306   -2.7145   -9.9440 H   0  0  0  0  0  0  0  0  0  0  0  0
    0.7670   -0.0106   -8.8735 H   0  0  0  0  0  0  0  0  0  0  0  0
    2.6771    1.3454   -8.3769 H   0  0  0  0  0  0  0  0  0  0  0  0
    4.0420    1.0921   -9.4381 H   0  0  0  0  0  0  0  0  0  0  0  0
    3.7395   -0.0615   -6.6747 H   0  0  0  0  0  0  0  0  0  0  0  0
    4.7716    1.2808   -7.1063 H   0  0  0  0  0  0  0  0  0  0  0  0
   -1.9195   -3.7652   -8.4531 H   0  0  0  0  0  0  0  0  0  0  0  0
   -1.8715   -2.6430   -9.7915 H   0  0  0  0  0  0  0  0  0  0  0  0
   -0.9429   -4.1216   -9.8575 H   0  0  0  0  0  0  0  0  0  0  0  0
    4.7245   -3.4212   -6.9629 H   0  0  0  0  0  0  0  0  0  0  0  0
    4.5520   -4.8585   -7.9414 H   0  0  0  0  0  0  0  0  0  0  0  0
    3.7221   -3.5231   -9.6547 H   0  0  0  0  0  0  0  0  0  0  0  0
   -0.4666   -4.5966   -8.3458 H   0  0  0  0  0  0  0  0  0  0  0  0
   -2.2943   -0.1972  -12.3302 H   0  0  0  0  0  0  0  0  0  0  0  0
    2.2800   -1.9092  -11.7816 H   0  0  0  0  0  0  0  0  0  0  0  0
    2.8353    0.0550  -13.5112 H   0  0  0  0  0  0  0  0  0  0  0  0
    2.4040   -1.3854  -14.4013 H   0  0  0  0  0  0  0  0  0  0  0  0
    1.6134    0.1314  -14.7579 H   0  0  0  0  0  0  0  0  0  0  0  0
   -1.3803    0.0722  -14.9287 H   0  0  0  0  0  0  0  0  0  0  0  0
   -0.9485    1.5133  -14.0400 H   0  0  0  0  0  0  0  0  0  0  0  0
    0.2680    0.6517  -14.9515 H   0  0  0  0  0  0  0  0  0  0  0  0
    7.0979   -2.8938   -6.9013 H   0  0  0  0  0  0  0  0  0  0  0  0
    6.3566   -2.5578   -5.3551 H   0  0  0  0  0  0  0  0  0  0  0  0
    3.7100   -1.6690   -5.6940 H   0  0  0  0  0  0  0  0  0  0  0  0
    2.8134   -2.7654   -6.7501 H   0  0  0  0  0  0  0  0  0  0  0  0
    5.4386   -2.5689   -8.6748 H   0  0  0  0  0  0  0  0  0  0  0  0
    4.1560   -2.2788   -7.5241 H   0  0  0  0  0  0  0  0  0  0  0  0
    4.0538   -1.6074   -9.1341 H   0  0  0  0  0  0  0  0  0  0  0  0
    4.1546   -0.6434  -10.5559 H   0  0  0  0  0  0  0  0  0  0  0  0
    3.9416    0.9679   -9.9147 H   0  0  0  0  0  0  0  0  0  0  0  0
    4.4216    0.7468  -11.5802 H   0  0  0  0  0  0  0  0  0  0  0  0
   10.5163   -0.3468  -13.1487 H   0  0  0  0  0  0  0  0  0  0  0  0
   10.6475    1.2884  -13.7504 H   0  0  0  0  0  0  0  0  0  0  0  0
   10.7865    0.9741  -12.0372 H   0  0  0  0  0  0  0  0  0  0  0  0
    7.1510    0.4442  -14.0776 H   0  0  0  0  0  0  0  0  0  0  0  0
    8.5636    1.0674  -14.8956 H   0  0  0  0  0  0  0  0  0  0  0  0
    8.5383   -0.5868  -14.3333 H   0  0  0  0  0  0  0  0  0  0  0  0
    7.2974   -1.8326  -11.1960 H   0  0  0  0  0  0  0  0  0  0  0  0
    7.0060   -1.2467  -12.8161 H   0  0  0  0  0  0  0  0  0  0  0  0
    8.6114   -3.0981  -12.8322 H   0  0  0  0  0  0  0  0  0  0  0  0
    9.3634   -1.6169  -13.3740 H   0  0  0  0  0  0  0  0  0  0  0  0
   10.2743   -0.1059  -11.1839 H   0  0  0  0  0  0  0  0  0  0  0  0
   11.2459   -1.1042  -10.0973 H   0  0  0  0  0  0  0  0  0  0  0  0
    6.9863    8.3156   -9.9738 H   0  0  0  0  0  0  0  0  0  0  0  0
    6.1627    6.7761   -9.9050 H   0  0  0  0  0  0  0  0  0  0  0  0
    7.8065    4.8214   -8.7277 H   0  0  0  0  0  0  0  0  0  0  0  0
    8.4704    5.4029   -7.1972 H   0  0  0  0  0  0  0  0  0  0  0  0
   10.0373    7.1229  -11.4950 H   0  0  0  0  0  0  0  0  0  0  0  0
    9.1544    8.5295  -10.9517 H   0  0  0  0  0  0  0  0  0  0  0  0
    9.6897    7.3336   -9.7956 H   0  0  0  0  0  0  0  0  0  0  0  0
    9.5652    3.7528  -10.1064 H   0  0  0  0  0  0  0  0  0  0  0  0
   10.3165    5.2824  -10.4919 H   0  0  0  0  0  0  0  0  0  0  0  0
   10.0916    5.0062   -8.0674 H   0  0  0  0  0  0  0  0  0  0  0  0
    9.1162    6.3399   -8.6355 H   0  0  0  0  0  0  0  0  0  0  0  0
    6.6133    5.4277   -9.5370 H   0  0  0  0  0  0  0  0  0  0  0  0
    5.8555    4.3865   -8.3274 H   0  0  0  0  0  0  0  0  0  0  0  0
    5.5591    0.5343   -6.1553 H   0  0  0  0  0  0  0  0  0  0  0  0
    5.2763    2.2569   -6.0814 H   0  0  0  0  0  0  0  0  0  0  0  0
    6.4743    3.5556   -8.2695 H   0  0  0  0  0  0  0  0  0  0  0  0
    6.0217    2.7704   -9.7860 H   0  0  0  0  0  0  0  0  0  0  0  0
    7.7429    3.7416   -6.5982 H   0  0  0  0  0  0  0  0  0  0  0  0
    8.8186    2.6559   -7.4449 H   0  0  0  0  0  0  0  0  0  0  0  0
    7.1352    2.7514   -7.9033 H   0  0  0  0  0  0  0  0  0  0  0  0
    8.6138    3.3478   -3.3428 H   0  0  0  0  0  0  0  0  0  0  0  0
    9.4880    2.7289   -4.7234 H   0  0  0  0  0  0  0  0  0  0  0  0
    9.0167    5.1193   -4.9875 H   0  0  0  0  0  0  0  0  0  0  0  0
    8.1809    4.1816   -6.2022 H   0  0  0  0  0  0  0  0  0  0  0  0
    5.7257    3.2338   -5.2107 H   0  0  0  0  0  0  0  0  0  0  0  0
    4.7955    4.5491   -4.4855 H   0  0  0  0  0  0  0  0  0  0  0  0
   10.0107    1.4086   -5.9233 H   0  0  0  0  0  0  0  0  0  0  0  0
   10.1466   -0.2236   -6.5318 H   0  0  0  0  0  0  0  0  0  0  0  0
    9.5956    1.0580   -7.5839 H   0  0  0  0  0  0  0  0  0  0  0  0
  1  2  3  0  0  0  0
  4 93  1  6  0  0  0
  5  6  1  0  0  0  0
  5 42  1  1  0  0  0
  5 63  1  0  0  0  0
  6 30  1  0  0  0  0
  6 94  1  1  0  0  0
  6 59  1  0  0  0  0
  7  8  1  0  0  0  0
  7 47  1  0  0  0  0
  7 95  1  6  0  0  0
  7 34  1  0  0  0  0
  8  9  1  0  0  0  0
  8 50  1  0  0  0  0
  8 96  1  6  0  0  0
  9 97  1  6  0  0  0
  9 35  1  0  0  0  0
 10 44  1  0  0  0  0
 10 98  1  1  0  0  0
 10 38  1  0  0  0  0
 10 37  1  0  0  0  0
 11  9  1  0  0  0  0
 11 99  1  1  0  0  0
 11 48  1  0  0  0  0
 12 27  1  0  0  0  0
 12 68  1  0  0  0  0
 12100  1  1  0  0  0
 13 14  1  0  0  0  0
 13 78  1  0  0  0  0
 13101  1  1  0  0  0
 14 21  1  0  0  0  0
 14 73  1  1  0  0  0
 14 77  1  0  0  0  0
 15 16  1  0  0  0  0
 15 88  1  0  0  0  0
 15102  1  1  0  0  0
 16  4  1  0  0  0  0
 16 87  1  6  0  0  0
 16 83  1  0  0  0  0
 17  4  1  0  0  0  0
 18 17  2  0  0  0  0
 18 15  1  0  0  0  0
 19 18  1  0  0  0  0
 20 19  1  0  0  0  0
 20103  1  0  0  0  0
 20104  1  0  0  0  0
 20105  1  0  0  0  0
 21 19  2  0  0  0  0
 22 21  1  0  0  0  0
 23 22  2  0  0  0  0
 23 13  1  0  0  0  0
 24 23  1  0  0  0  0
 24 25  2  0  0  0  0
 24106  1  0  0  0  0
 25 26  1  0  0  0  0
 25 65  1  0  0  0  0
 26 27  2  0  0  0  0
 27 28  1  0  0  0  0
 28 29  2  0  0  0  0
 29  5  1  0  0  0  0
 29 31  1  0  0  0  0
 30  4  1  0  0  0  0
 30107  1  0  0  0  0
 31 30  1  0  0  0  0
 32 33  2  0  0  0  0
 32 52  1  0  0  0  0
 33 34  1  0  0  0  0
 33108  1  0  0  0  0
 35 36  1  0  0  0  0
 36 37  1  0  0  0  0
 38 39  1  0  0  0  0
 38109  1  0  0  0  0
 38110  1  0  0  0  0
 39 40  1  0  0  0  0
 39111  1  0  0  0  0
 40 41  1  0  0  0  0
 41 42  1  0  0  0  0
 41112  1  0  0  0  0
 41113  1  0  0  0  0
 42114  1  0  0  0  0
 42115  1  0  0  0  0
 43 40  2  0  0  0  0
 44116  1  0  0  0  0
 44117  1  0  0  0  0
 44118  1  0  0  0  0
 45 36  1  0  0  0  0
 46 36  2  0  0  0  0
 47 11  1  0  0  0  0
 48119  1  0  0  0  0
 48120  1  0  0  0  0
 49 48  1  0  0  0  0
 49121  1  0  0  0  0
 50122  1  0  0  0  0
 51 34  1  0  0  0  0
 52 51  2  0  0  0  0
 53 52  1  0  0  0  0
 53 54  2  0  0  0  0
 53123  1  0  0  0  0
 54 55  1  0  0  0  0
 55 56  2  0  0  0  0
 56 51  1  0  0  0  0
 56124  1  0  0  0  0
 57 55  1  0  0  0  0
 57125  1  0  0  0  0
 57126  1  0  0  0  0
 57127  1  0  0  0  0
 58 54  1  0  0  0  0
 58128  1  0  0  0  0
 58129  1  0  0  0  0
 58130  1  0  0  0  0
 59131  1  0  0  0  0
 59132  1  0  0  0  0
 60 59  1  0  0  0  0
 61 60  2  0  0  0  0
 62 60  1  0  0  0  0
 62133  1  0  0  0  0
 62134  1  0  0  0  0
 63135  1  0  0  0  0
 63136  1  0  0  0  0
 63137  1  0  0  0  0
 64 28  1  0  0  0  0
 64138  1  0  0  0  0
 64139  1  0  0  0  0
 64140  1  0  0  0  0
 65 12  1  0  0  0  0
 66 65  1  0  0  0  0
 66141  1  0  0  0  0
 66142  1  0  0  0  0
 66143  1  0  0  0  0
 67 65  1  0  0  0  0
 67144  1  0  0  0  0
 67145  1  0  0  0  0
 67146  1  0  0  0  0
 68147  1  0  0  0  0
 68148  1  0  0  0  0
 69 68  1  0  0  0  0
 69149  1  0  0  0  0
 69150  1  0  0  0  0
 70 69  1  0  0  0  0
 71 70  2  0  0  0  0
 72 70  1  0  0  0  0
 72151  1  0  0  0  0
 72152  1  0  0  0  0
 73153  1  0  0  0  0
 73154  1  0  0  0  0
 74 73  1  0  0  0  0
 75 74  2  0  0  0  0
 76 74  1  0  0  0  0
 76155  1  0  0  0  0
 76156  1  0  0  0  0
 77157  1  0  0  0  0
 77158  1  0  0  0  0
 77159  1  0  0  0  0
 78160  1  0  0  0  0
 78161  1  0  0  0  0
 79 78  1  0  0  0  0
 79162  1  0  0  0  0
 79163  1  0  0  0  0
 80 79  1  0  0  0  0
 81 80  2  0  0  0  0
 82 80  1  0  0  0  0
 82164  1  0  0  0  0
 82165  1  0  0  0  0
 83166  1  0  0  0  0
 83167  1  0  0  0  0
 84 83  1  0  0  0  0
 85 84  2  0  0  0  0
 86 84  1  0  0  0  0
 86168  1  0  0  0  0
 86169  1  0  0  0  0
 87170  1  0  0  0  0
 87171  1  0  0  0  0
 87172  1  0  0  0  0
 88173  1  0  0  0  0
 88174  1  0  0  0  0
 89 88  1  0  0  0  0
 89175  1  0  0  0  0
 89176  1  0  0  0  0
 90 89  1  0  0  0  0
 91 90  2  0  0  0  0
 92 90  1  0  0  0  0
 92177  1  0  0  0  0
 92178  1  0  0  0  0
 93179  1  0  0  0  0
 93180  1  0  0  0  0
 93181  1  0  0  0  0
M  ISO  1   3  60
M  CHG  4   1  -1   3   3  31  -1  45  -1
M  END
>  <DRUGBANK_ID>
DB09387

>  <COMMON_NAME>
Cyanocobalamin Co-60

>  <CAS_NUMBER>
13422-53-2

>  <UNII>
562RS6MC22

>  <SYNONYMS>
Cyanocobalamin (60Co); Cyanocobalamin Co 60; Cyanocobalamine (60 Co); Cyanocobalaminum (60 Co); Vitamin B12 - 60Co

$$$$
