
 OpenBabel10282417183D

 38 41  0  0  0  0  0  0  0  0999 V2000
    1.1248   -0.0542   -0.0529 O   0  0  0  0  0  0  0  0  0  0  0  0
    3.7314    0.9912   -3.2309 N   0  0  0  0  0  0  0  0  0  0  0  0
    4.8641   -2.9944    3.2676 N   0  0  0  0  0  0  0  0  0  0  0  0
    5.8407   -1.2435    4.2400 N   0  0  0  0  0  0  0  0  0  0  0  0
    3.1271    0.0733   -1.2764 C   0  0  0  0  0  0  0  0  0  0  0  0
    4.2971   -0.6068   -1.7745 C   0  0  0  0  0  0  0  0  0  0  0  0
    4.6393   -0.0175   -2.9961 C   0  0  0  0  0  0  0  0  0  0  0  0
    2.3515   -0.1112   -0.0351 C   0  0  0  0  0  0  0  0  0  0  0  0
    3.0583   -0.2819    1.3088 C   0  0  1  0  0  0  0  0  0  0  0  0
    2.8076    1.0418   -2.2220 C   0  0  0  0  0  0  0  0  0  0  0  0
    4.4115   -1.8367    2.7035 C   0  0  0  0  0  0  0  0  0  0  0  0
    5.0484   -0.7463    3.2491 C   0  0  0  0  0  0  0  0  0  0  0  0
    3.4045   -1.7506    1.6176 C   0  0  0  0  0  0  0  0  0  0  0  0
    5.1254   -1.6681   -1.3463 C   0  0  0  0  0  0  0  0  0  0  0  0
    4.2626    0.6901    1.4389 C   0  0  0  0  0  0  0  0  0  0  0  0
    5.7408   -0.4588   -3.7567 C   0  0  0  0  0  0  0  0  0  0  0  0
    4.8609    0.6666    2.8554 C   0  0  0  0  0  0  0  0  0  0  0  0
    6.2238   -2.1071   -2.0732 C   0  0  0  0  0  0  0  0  0  0  0  0
    6.5264   -1.5082   -3.2732 C   0  0  0  0  0  0  0  0  0  0  0  0
    5.7052   -2.6070    4.2041 C   0  0  0  0  0  0  0  0  0  0  0  0
    3.7831    1.8787   -4.3728 C   0  0  0  0  0  0  0  0  0  0  0  0
    6.4048   -0.7170    4.8930 H   0  0  0  0  0  0  0  0  0  0  0  0
    2.3319    0.0276    2.0766 H   0  0  0  0  0  0  0  0  0  0  0  0
    2.0078    1.7749   -2.2309 H   0  0  0  0  0  0  0  0  0  0  0  0
    2.5145   -2.3478    1.8328 H   0  0  0  0  0  0  0  0  0  0  0  0
    3.7949   -2.2442    0.7513 H   0  0  0  0  0  0  0  0  0  0  0  0
    4.9939   -2.2216   -0.4395 H   0  0  0  0  0  0  0  0  0  0  0  0
    5.0494    0.4085    0.7286 H   0  0  0  0  0  0  0  0  0  0  0  0
    3.9605    1.7118    1.1788 H   0  0  0  0  0  0  0  0  0  0  0  0
    5.9877   -0.0011   -4.7074 H   0  0  0  0  0  0  0  0  0  0  0  0
    5.8059    1.2192    2.8691 H   0  0  0  0  0  0  0  0  0  0  0  0
    4.1693    1.1510    3.5528 H   0  0  0  0  0  0  0  0  0  0  0  0
    6.8176   -2.9238   -1.6706 H   0  0  0  0  0  0  0  0  0  0  0  0
    7.3819   -1.8672   -3.8350 H   0  0  0  0  0  0  0  0  0  0  0  0
    6.2319   -3.2566    4.8900 H   0  0  0  0  0  0  0  0  0  0  0  0
    4.7372    2.4137   -4.3459 H   0  0  0  0  0  0  0  0  0  0  0  0
    3.7116    1.2764   -5.2825 H   0  0  0  0  0  0  0  0  0  0  0  0
    2.9580    2.5932   -4.3326 H   0  0  0  0  0  0  0  0  0  0  0  0
  1  8  2  0  0  0  0
  2  7  1  0  0  0  0
  2 10  1  0  0  0  0
  2 21  1  0  0  0  0
  3 11  1  0  0  0  0
  3 20  2  0  0  0  0
  4 12  1  0  0  0  0
  4 20  1  0  0  0  0
  4 22  1  0  0  0  0
  5  6  1  0  0  0  0
  5  8  1  0  0  0  0
  5 10  2  0  0  0  0
  6  7  2  0  0  0  0
  6 14  1  0  0  0  0
  7 16  1  0  0  0  0
  9  8  1  0  0  0  0
  9 13  1  0  0  0  0
  9 15  1  0  0  0  0
  9 23  1  1  0  0  0
 10 24  1  0  0  0  0
 11 12  2  0  0  0  0
 11 13  1  0  0  0  0
 12 17  1  0  0  0  0
 13 25  1  0  0  0  0
 13 26  1  0  0  0  0
 14 18  2  0  0  0  0
 14 27  1  0  0  0  0
 15 17  1  0  0  0  0
 15 28  1  0  0  0  0
 15 29  1  0  0  0  0
 16 19  2  0  0  0  0
 16 30  1  0  0  0  0
 17 31  1  0  0  0  0
 17 32  1  0  0  0  0
 18 19  1  0  0  0  0
 18 33  1  0  0  0  0
 19 34  1  0  0  0  0
 20 35  1  0  0  0  0
 21 36  1  0  0  0  0
 21 37  1  0  0  0  0
 21 38  1  0  0  0  0
M  END
>  <DRUGBANK_ID>
DB09290

>  <COMMON_NAME>
Ramosetron

>  <CAS_NUMBER>
132036-88-5

>  <UNII>
7ZRO0SC54Y

>  <SYNONYMS>
Ramosetron

$$$$
