
 OpenBabel10282417173D

 60 62  0  0  0  0  0  0  0  0999 V2000
   -1.5945    0.8081    0.2119 C   0  0  2  0  0  0  0  0  0  0  0  0
   -2.8080    1.4766   -0.3621 C   0  0  0  0  0  0  0  0  0  0  0  0
   -0.3061    1.4458   -0.3323 C   0  0  0  0  0  0  0  0  0  0  0  0
   -1.8005   -0.9882   -0.0854 S   0  0  0  0  0  0  0  0  0  0  0  0
   -3.2488    1.5375   -1.6731 C   0  0  0  0  0  0  0  0  0  0  0  0
   -3.9000    2.2387    0.7141 S   0  0  0  0  0  0  0  0  0  0  0  0
    0.8979    1.1279    0.4387 N   0  0  0  0  0  0  0  0  0  0  0  0
   -0.2497   -1.5871    0.6487 C   0  0  0  0  0  0  0  0  0  0  0  0
   -4.4931    2.2199   -1.7818 C   0  0  0  0  0  0  0  0  0  0  0  0
   -4.9532    2.6498   -0.5585 C   0  0  0  0  0  0  0  0  0  0  0  0
    1.6905    0.0283    0.1536 C   0  0  0  0  0  0  0  0  0  0  0  0
    1.2799    1.9650    1.5779 C   0  0  0  0  0  0  0  0  0  0  0  0
    0.9231   -1.2516   -0.2757 C   0  0  1  0  0  0  0  0  0  0  0  0
    2.9139    0.1032    0.2738 O   0  0  0  0  0  0  0  0  0  0  0  0
    1.1894    1.1653    2.8842 C   0  0  0  0  0  0  0  0  0  0  0  0
    1.8635   -2.3866   -0.3894 N   0  0  0  0  0  0  0  0  0  0  0  0
    2.3208    1.1306    3.6210 O   0  0  0  0  0  0  0  0  0  0  0  0
    0.1758    0.5789    3.2432 O   0  0  0  0  0  0  0  0  0  0  0  0
    2.1806   -2.6783   -1.8189 C   0  0  1  0  0  0  0  0  0  0  0  0
    3.3091   -3.7166   -1.8217 C   0  0  0  0  0  0  0  0  0  0  0  0
    0.8502   -3.0372   -2.5627 C   0  0  0  0  0  0  0  0  0  0  0  0
    2.9633   -5.0612   -1.1730 C   0  0  0  0  0  0  0  0  0  0  0  0
    0.6386   -2.5708   -3.8110 O   0  0  0  0  0  0  0  0  0  0  0  0
   -0.0650   -3.6471   -1.9953 O   0  0  0  0  0  0  0  0  0  0  0  0
    1.8766   -5.7937   -1.9150 C   0  0  0  0  0  0  0  0  0  0  0  0
    1.1808   -1.3364   -4.3104 C   0  0  0  0  0  0  0  0  0  0  0  0
    1.9004   -5.8701   -3.3174 C   0  0  0  0  0  0  0  0  0  0  0  0
    0.7583   -6.2875   -1.2273 C   0  0  0  0  0  0  0  0  0  0  0  0
    0.9607   -0.1542   -3.3927 C   0  0  0  0  0  0  0  0  0  0  0  0
    0.8134   -6.3818   -4.0187 C   0  0  0  0  0  0  0  0  0  0  0  0
   -0.3019   -6.8606   -1.9316 C   0  0  0  0  0  0  0  0  0  0  0  0
   -0.2823   -6.8864   -3.3257 C   0  0  0  0  0  0  0  0  0  0  0  0
   -1.5840    0.9175    1.2987 H   0  0  0  0  0  0  0  0  0  0  0  0
   -0.1327    1.1489   -1.3695 H   0  0  0  0  0  0  0  0  0  0  0  0
   -0.3843    2.5409   -0.3758 H   0  0  0  0  0  0  0  0  0  0  0  0
   -2.7299    1.0818   -2.5107 H   0  0  0  0  0  0  0  0  0  0  0  0
   -0.3982   -2.6669    0.7306 H   0  0  0  0  0  0  0  0  0  0  0  0
   -0.1293   -1.1929    1.6538 H   0  0  0  0  0  0  0  0  0  0  0  0
   -5.0331    2.3719   -2.7074 H   0  0  0  0  0  0  0  0  0  0  0  0
   -5.8664    3.1803   -0.3373 H   0  0  0  0  0  0  0  0  0  0  0  0
    2.2815    2.3774    1.4312 H   0  0  0  0  0  0  0  0  0  0  0  0
    0.5719    2.7951    1.6748 H   0  0  0  0  0  0  0  0  0  0  0  0
    0.4777   -1.0699   -1.2406 H   0  0  0  0  0  0  0  0  0  0  0  0
    1.3881   -3.2228   -0.0390 H   0  0  0  0  0  0  0  0  0  0  0  0
    3.1074    1.5347    3.2071 H   0  0  0  0  0  0  0  0  0  0  0  0
    2.6421   -1.8019   -2.2671 H   0  0  0  0  0  0  0  0  0  0  0  0
    3.6815   -3.8497   -2.8434 H   0  0  0  0  0  0  0  0  0  0  0  0
    4.1607   -3.2890   -1.2704 H   0  0  0  0  0  0  0  0  0  0  0  0
    3.8569   -5.6934   -1.1417 H   0  0  0  0  0  0  0  0  0  0  0  0
    2.6768   -4.9004   -0.1255 H   0  0  0  0  0  0  0  0  0  0  0  0
    2.2311   -1.4896   -4.5570 H   0  0  0  0  0  0  0  0  0  0  0  0
    0.6321   -1.1233   -5.2330 H   0  0  0  0  0  0  0  0  0  0  0  0
    2.7166   -5.4346   -3.8867 H   0  0  0  0  0  0  0  0  0  0  0  0
    0.6472   -6.1259   -0.1566 H   0  0  0  0  0  0  0  0  0  0  0  0
    1.6017   -0.2173   -2.5198 H   0  0  0  0  0  0  0  0  0  0  0  0
    1.2416    0.7989   -3.8354 H   0  0  0  0  0  0  0  0  0  0  0  0
   -0.0832   -0.1230   -3.0632 H   0  0  0  0  0  0  0  0  0  0  0  0
    0.8083   -6.3444   -5.1037 H   0  0  0  0  0  0  0  0  0  0  0  0
   -1.1736   -7.2249   -1.3957 H   0  0  0  0  0  0  0  0  0  0  0  0
   -1.1431   -7.2567   -3.8735 H   0  0  0  0  0  0  0  0  0  0  0  0
  1  3  1  0  0  0  0
  1  4  1  0  0  0  0
  1 33  1  1  0  0  0
  1  2  1  0  0  0  0
  2  5  2  0  0  0  0
  2  6  1  0  0  0  0
  3  7  1  0  0  0  0
  3 34  1  0  0  0  0
  3 35  1  0  0  0  0
  4  8  1  0  0  0  0
  5  9  1  0  0  0  0
  5 36  1  0  0  0  0
  6 10  1  0  0  0  0
  7 11  1  0  0  0  0
  7 12  1  0  0  0  0
  8 13  1  0  0  0  0
  8 37  1  0  0  0  0
  8 38  1  0  0  0  0
  9 10  2  0  0  0  0
  9 39  1  0  0  0  0
 10 40  1  0  0  0  0
 11 14  2  0  0  0  0
 11 13  1  0  0  0  0
 12 15  1  0  0  0  0
 12 41  1  0  0  0  0
 12 42  1  0  0  0  0
 13 43  1  6  0  0  0
 13 16  1  0  0  0  0
 15 17  1  0  0  0  0
 15 18  2  0  0  0  0
 16 19  1  0  0  0  0
 16 44  1  0  0  0  0
 17 45  1  0  0  0  0
 19 20  1  0  0  0  0
 19 21  1  0  0  0  0
 19 46  1  6  0  0  0
 20 22  1  0  0  0  0
 20 47  1  0  0  0  0
 20 48  1  0  0  0  0
 21 23  1  0  0  0  0
 21 24  2  0  0  0  0
 22 25  1  0  0  0  0
 22 49  1  0  0  0  0
 22 50  1  0  0  0  0
 23 26  1  0  0  0  0
 25 27  2  0  0  0  0
 25 28  1  0  0  0  0
 26 29  1  0  0  0  0
 26 51  1  0  0  0  0
 26 52  1  0  0  0  0
 27 30  1  0  0  0  0
 27 53  1  0  0  0  0
 28 31  2  0  0  0  0
 28 54  1  0  0  0  0
 29 55  1  0  0  0  0
 29 56  1  0  0  0  0
 29 57  1  0  0  0  0
 30 32  2  0  0  0  0
 30 58  1  0  0  0  0
 31 32  1  0  0  0  0
 31 59  1  0  0  0  0
 32 60  1  0  0  0  0
M  END
>  <DRUGBANK_ID>
DB08836

>  <COMMON_NAME>
Temocapril

>  <CAS_NUMBER>
111902-57-9

>  <UNII>
18IZ008EU6

>  <SYNONYMS>
Temocapril; Temocaprilum

$$$$
