
 OpenBabel10282417183D

 68 71  0  0  0  0  0  0  0  0999 V2000
   -1.2825    1.6801    0.2882 C   0  0  0  0  0  0  0  0  0  0  0  0
   -1.1865    3.9357    0.6214 C   0  0  0  0  0  0  0  0  0  0  0  0
    0.4030    4.4284    0.5231 C   0  0  2  0  0  0  0  0  0  0  0  0
    0.5155    3.5021   -0.5636 C   0  0  0  0  0  0  0  0  0  0  0  0
   -0.5159    2.4160   -0.0263 C   0  0  2  0  0  0  0  0  0  0  0  0
   -0.4160    1.2990   -0.8417 C   0  0  1  0  0  0  0  0  0  0  0  0
    0.9117    0.5824   -0.5292 C   0  0  2  0  0  0  0  0  0  0  0  0
   -0.1129    2.2236    1.8741 C   0  0  2  0  0  0  0  0  0  0  0  0
    1.2285    1.5982    1.9111 C   0  0  0  0  0  0  0  0  0  0  0  0
    1.2499    0.3248    1.0666 C   0  0  1  0  0  0  0  0  0  0  0  0
    2.6459   -1.0152   -0.9816 C   0  0  0  0  0  0  0  0  0  0  0  0
    1.0430   -0.7751   -1.1431 C   0  0  0  0  0  0  0  0  0  0  0  0
    2.6564   -0.1443    1.3269 C   0  0  1  0  0  0  0  0  0  0  0  0
    3.2219   -1.4146    0.7156 C   0  0  1  0  0  0  0  0  0  0  0  0
    4.8942   -0.8712    1.6080 C   0  0  2  0  0  0  0  0  0  0  0  0
    3.7747    0.8880    0.7109 C   0  0  0  0  0  0  0  0  0  0  0  0
    5.0489    0.1009    0.4951 C   0  0  0  0  0  0  0  0  0  0  0  0
    1.5257    4.0360    1.2910 O   0  0  0  0  0  0  0  0  0  0  0  0
   -1.0809    1.4163    2.5809 O   0  0  0  0  0  0  0  0  0  0  0  0
    1.6912    1.1682   -1.0253 H   0  0  0  0  0  0  0  0  0  0  0  0
   -2.1315    2.8485   -0.0214 H   0  0  0  0  0  0  0  0  0  0  0  0
    0.5480   -0.4272    1.4652 H   0  0  0  0  0  0  0  0  0  0  0  0
   -1.0534    1.7498   -2.1204 C   0  0  0  0  0  0  0  0  0  0  0  0
    2.4017   -2.8424    0.6287 C   0  0  0  0  0  0  0  0  0  0  0  0
    2.6802   -0.3242    2.4125 H   0  0  0  0  0  0  0  0  0  0  0  0
    6.1127   -0.3539    2.9915 C   0  0  1  0  0  0  0  0  0  0  0  0
    6.1590   -1.3851    4.1484 C   0  0  0  0  0  0  0  0  0  0  0  0
    6.3695   -2.7438    3.5026 C   0  0  0  0  0  0  0  0  0  0  0  0
    7.7342   -3.0256    2.8329 C   0  0  0  0  0  0  0  0  0  0  0  0
    8.5297   -3.9064    3.4553 O   0  0  0  0  0  0  0  0  0  0  0  0
    8.1278   -2.5964    1.7614 O   0  0  0  0  0  0  0  0  0  0  0  0
    7.6006   -0.0477    2.5933 C   0  0  0  0  0  0  0  0  0  0  0  0
    4.3827   -0.2925    2.4490 H   0  0  0  0  0  0  0  0  0  0  0  0
   -2.2725    1.1251    0.0641 H   0  0  0  0  0  0  0  0  0  0  0  0
   -0.9913    0.7279    0.8309 H   0  0  0  0  0  0  0  0  0  0  0  0
   -1.4563    4.6679    1.3004 H   0  0  0  0  0  0  0  0  0  0  0  0
   -1.8486    4.4162   -0.2271 H   0  0  0  0  0  0  0  0  0  0  0  0
    0.5353    5.5088    0.5409 H   0  0  0  0  0  0  0  0  0  0  0  0
    1.0818    3.9225   -1.3842 H   0  0  0  0  0  0  0  0  0  0  0  0
    1.3164    2.8092   -0.5358 H   0  0  0  0  0  0  0  0  0  0  0  0
   -0.3014    3.1629    2.3957 H   0  0  0  0  0  0  0  0  0  0  0  0
    1.6377    1.7545    2.9181 H   0  0  0  0  0  0  0  0  0  0  0  0
    2.0119    2.1262    1.4022 H   0  0  0  0  0  0  0  0  0  0  0  0
    3.3552   -1.7700   -1.3750 H   0  0  0  0  0  0  0  0  0  0  0  0
    2.6460   -1.1232   -2.0913 H   0  0  0  0  0  0  0  0  0  0  0  0
    0.7369   -0.8280   -2.2108 H   0  0  0  0  0  0  0  0  0  0  0  0
    0.2181   -1.3339   -0.6834 H   0  0  0  0  0  0  0  0  0  0  0  0
    4.0010    1.9528    0.7399 H   0  0  0  0  0  0  0  0  0  0  0  0
    3.2362    1.0615   -0.1932 H   0  0  0  0  0  0  0  0  0  0  0  0
    6.0886    0.3656    0.3393 H   0  0  0  0  0  0  0  0  0  0  0  0
    4.8457   -0.3404   -0.4712 H   0  0  0  0  0  0  0  0  0  0  0  0
    1.3573    4.1089    2.2346 H   0  0  0  0  0  0  0  0  0  0  0  0
   -0.6645    1.3075    3.4351 H   0  0  0  0  0  0  0  0  0  0  0  0
   -0.3191    1.9769   -2.8790 H   0  0  0  0  0  0  0  0  0  0  0  0
   -1.8351    1.0422   -2.3834 H   0  0  0  0  0  0  0  0  0  0  0  0
   -1.6083    2.7005   -1.9475 H   0  0  0  0  0  0  0  0  0  0  0  0
    1.4888   -2.9184    1.2308 H   0  0  0  0  0  0  0  0  0  0  0  0
    1.9170   -2.9969   -0.3898 H   0  0  0  0  0  0  0  0  0  0  0  0
    2.9981   -3.7617    0.6181 H   0  0  0  0  0  0  0  0  0  0  0  0
    5.9145    0.6209    3.5192 H   0  0  0  0  0  0  0  0  0  0  0  0
    6.9156   -1.1999    4.9410 H   0  0  0  0  0  0  0  0  0  0  0  0
    5.1975   -1.3086    4.6832 H   0  0  0  0  0  0  0  0  0  0  0  0
    6.1464   -3.5153    4.2360 H   0  0  0  0  0  0  0  0  0  0  0  0
    5.5992   -2.8357    2.7334 H   0  0  0  0  0  0  0  0  0  0  0  0
    8.0893   -4.4888    4.0880 H   0  0  0  0  0  0  0  0  0  0  0  0
    7.8188    0.8798    2.0622 H   0  0  0  0  0  0  0  0  0  0  0  0
    8.3639   -0.1619    3.4021 H   0  0  0  0  0  0  0  0  0  0  0  0
    7.7997   -0.7364    1.8183 H   0  0  0  0  0  0  0  0  0  0  0  0
  1  2  1  0  0  0  0
  1  6  1  0  0  0  0
  1 34  1  0  0  0  0
  1 35  1  0  0  0  0
  2  3  1  0  0  0  0
  2 36  1  0  0  0  0
  2 37  1  0  0  0  0
  3  4  1  0  0  0  0
  3 38  1  6  0  0  0
  3 18  1  0  0  0  0
  4  5  1  0  0  0  0
  4 39  1  0  0  0  0
  4 40  1  0  0  0  0
  5  8  1  0  0  0  0
  5 21  1  1  0  0  0
  6  5  1  0  0  0  0
  6 23  1  6  0  0  0
  7  6  1  0  0  0  0
  7 10  1  0  0  0  0
  7 20  1  1  0  0  0
  8  9  1  0  0  0  0
  8 41  1  1  0  0  0
  8 19  1  0  0  0  0
  9 10  1  0  0  0  0
  9 42  1  0  0  0  0
  9 43  1  0  0  0  0
 10 13  1  0  0  0  0
 10 22  1  6  0  0  0
 11 12  1  0  0  0  0
 11 14  1  0  0  0  0
 11 44  1  0  0  0  0
 11 45  1  0  0  0  0
 12  7  1  0  0  0  0
 12 46  1  0  0  0  0
 12 47  1  0  0  0  0
 13 16  1  0  0  0  0
 13 25  1  1  0  0  0
 14 13  1  0  0  0  0
 14 24  1  6  0  0  0
 15 14  1  0  0  0  0
 15 17  1  0  0  0  0
 15 26  1  0  0  0  0
 15 33  1  1  0  0  0
 16 17  1  0  0  0  0
 16 48  1  0  0  0  0
 16 49  1  0  0  0  0
 17 50  1  0  0  0  0
 17 51  1  0  0  0  0
 18 52  1  0  0  0  0
 19 53  1  0  0  0  0
 23 54  1  0  0  0  0
 23 55  1  0  0  0  0
 23 56  1  0  0  0  0
 24 57  1  0  0  0  0
 24 58  1  0  0  0  0
 24 59  1  0  0  0  0
 26 27  1  0  0  0  0
 26 32  1  0  0  0  0
 26 60  1  1  0  0  0
 27 28  1  0  0  0  0
 27 61  1  0  0  0  0
 27 62  1  0  0  0  0
 28 29  1  0  0  0  0
 28 63  1  0  0  0  0
 28 64  1  0  0  0  0
 29 30  1  0  0  0  0
 29 31  2  0  0  0  0
 30 65  1  0  0  0  0
 32 66  1  0  0  0  0
 32 67  1  0  0  0  0
 32 68  1  0  0  0  0
M  END
>  <DRUGBANK_ID>
DB11789

>  <COMMON_NAME>
Hyodeoxycholic Acid

>  <CAS_NUMBER>
83-49-8

>  <UNII>
7A33Y6EHYK

$$$$
