
 OpenBabel10282417133D

 39 38  0  0  0  0  0  0  0  0999 V2000
    4.6994    1.4374   -2.6159 O   0  0  0  0  0  0  0  0  0  0  0  0
    4.6433    1.0766   -0.3344 O   0  0  0  0  0  0  0  0  0  0  0  0
    5.5880    3.7390   -2.2456 O   0  0  0  0  0  0  0  0  0  0  0  0
    2.4961    4.4023    1.5787 O   0  0  0  0  0  0  0  0  0  0  0  0
    3.4121    3.4133   -1.6930 N   0  0  0  0  0  0  0  0  0  0  0  0
    2.7716    1.2944    0.7155 N   0  0  0  0  0  0  0  0  0  0  0  0
    2.8436    2.7431    3.1009 N   0  0  0  0  0  0  0  0  0  0  0  0
    3.6522    0.0094   -2.8094 C   0  0  0  0  0  0  0  0  0  0  0  0
    2.6100    2.3244   -1.6837 C   0  0  2  0  0  0  0  0  0  0  0  0
    2.7135   -0.5474   -1.5437 C   0  0  0  0  0  0  0  0  0  0  0  0
    2.7235   -0.0856   -4.2723 C   0  0  0  0  0  0  0  0  0  0  0  0
    4.6774   -1.0993   -2.9970 C   0  0  0  0  0  0  0  0  0  0  0  0
    1.7232    2.1967    1.0396 C   0  0  1  0  0  0  0  0  0  0  0  0
    3.4971    1.5274   -0.3997 C   0  0  0  0  0  0  0  0  0  0  0  0
    2.4305    2.1617   -3.1784 C   0  0  0  0  0  0  0  0  0  0  0  0
    4.6260    2.9251   -2.1828 C   0  0  0  0  0  0  0  0  0  0  0  0
    0.5551    1.4190    1.5431 C   0  0  0  0  0  0  0  0  0  0  0  0
    2.3651    3.2335    1.9248 C   0  0  0  0  0  0  0  0  0  0  0  0
    3.0168    4.3462   -1.6184 H   0  0  0  0  0  0  0  0  0  0  0  0
    3.2687    0.7270    1.3966 H   0  0  0  0  0  0  0  0  0  0  0  0
    2.9317    1.7467    3.2451 H   0  0  0  0  0  0  0  0  0  0  0  0
    3.4160    3.3639    3.6522 H   0  0  0  0  0  0  0  0  0  0  0  0
    1.5580    2.3424   -1.4240 H   0  0  0  0  0  0  0  0  0  0  0  0
    1.9370    0.1438   -1.1908 H   0  0  0  0  0  0  0  0  0  0  0  0
    2.0880   -1.4107   -1.7848 H   0  0  0  0  0  0  0  0  0  0  0  0
    3.2924   -0.8573   -0.6507 H   0  0  0  0  0  0  0  0  0  0  0  0
    3.3044    0.2418   -5.1390 H   0  0  0  0  0  0  0  0  0  0  0  0
    2.1807   -1.0333   -4.3331 H   0  0  0  0  0  0  0  0  0  0  0  0
    1.8192    0.5349   -4.4599 H   0  0  0  0  0  0  0  0  0  0  0  0
    5.2472   -0.9172   -3.9085 H   0  0  0  0  0  0  0  0  0  0  0  0
    5.3743   -1.1827   -2.1583 H   0  0  0  0  0  0  0  0  0  0  0  0
    4.1240   -2.0394   -3.0919 H   0  0  0  0  0  0  0  0  0  0  0  0
    1.3771    2.7710    0.1932 H   0  0  0  0  0  0  0  0  0  0  0  0
    1.7936    1.3132   -3.0517 H   0  0  0  0  0  0  0  0  0  0  0  0
    1.8881    2.8500   -3.8181 H   0  0  0  0  0  0  0  0  0  0  0  0
    3.3243    2.0474   -3.8340 H   0  0  0  0  0  0  0  0  0  0  0  0
    0.8286    0.8359    2.4224 H   0  0  0  0  0  0  0  0  0  0  0  0
   -0.2427    2.1187    1.7793 H   0  0  0  0  0  0  0  0  0  0  0  0
    0.1981    0.7215    0.7711 H   0  0  0  0  0  0  0  0  0  0  0  0
  1  8  1  0  0  0  0
  1 16  1  0  0  0  0
  2 14  2  0  0  0  0
  3 16  2  0  0  0  0
  4 18  2  0  0  0  0
  5 16  1  0  0  0  0
  5 19  1  0  0  0  0
  6 14  1  0  0  0  0
  6 20  1  0  0  0  0
  7 18  1  0  0  0  0
  7 21  1  0  0  0  0
  7 22  1  0  0  0  0
  8 10  1  0  0  0  0
  8 11  1  0  0  0  0
  8 12  1  0  0  0  0
  9 15  1  0  0  0  0
  9 23  1  1  0  0  0
  9 14  1  0  0  0  0
  9  5  1  0  0  0  0
 10 24  1  0  0  0  0
 10 25  1  0  0  0  0
 10 26  1  0  0  0  0
 11 27  1  0  0  0  0
 11 28  1  0  0  0  0
 11 29  1  0  0  0  0
 12 30  1  0  0  0  0
 12 31  1  0  0  0  0
 12 32  1  0  0  0  0
 13  6  1  0  0  0  0
 13 17  1  0  0  0  0
 13 18  1  0  0  0  0
 13 33  1  6  0  0  0
 15 34  1  0  0  0  0
 15 35  1  0  0  0  0
 15 36  1  0  0  0  0
 17 37  1  0  0  0  0
 17 38  1  0  0  0  0
 17 39  1  0  0  0  0
M  END
>  <DRUGBANK_ID>
DB03757

>  <SECONDARY_ACCESSION_NUMBERS>
EXPT00619

>  <COMMON_NAME>
N-{[(2-Methyl-2-propanyl)oxy]carbonyl}-L-alanyl-L-alaninamide

>  <CAS_NUMBER>
41036-24-2

>  <SYNONYMS>
(Tert-butyloxycarbonyl)-alanyl-alanyl-amine

$$$$
