
 OpenBabel10282417213D

 37 38  0  0  0  0  0  0  0  0999 V2000
   -0.4535   -0.2158    2.3753 Na  0  3  0  0  0  0  0  0  0  0  0  0
    2.5596    0.1653   -2.3556 Na  0  3  0  0  0  0  0  0  0  0  0  0
   -2.4752   -1.4410   -0.1109 C   0  0  0  0  0  0  0  0  0  0  0  0
   -3.7556   -0.7990   -0.0173 C   0  0  0  0  0  0  0  0  0  0  0  0
   -3.7062    0.6114   -0.0673 C   0  0  0  0  0  0  0  0  0  0  0  0
   -2.4986    1.3138   -0.1516 C   0  0  0  0  0  0  0  0  0  0  0  0
   -1.2556    0.6567   -0.1620 C   0  0  0  0  0  0  0  0  0  0  0  0
   -1.2434   -0.7332   -0.1807 C   0  0  0  0  0  0  0  0  0  0  0  0
   -0.0424   -1.4307   -0.1221 O   0  0  0  0  0  0  0  0  0  0  0  0
    0.0230    1.4166    0.0050 C   0  0  0  0  0  0  0  0  0  0  0  0
    1.1887    0.7107    0.1700 C   0  0  0  0  0  0  0  0  0  0  0  0
    1.1882   -0.7721    0.0673 C   0  0  0  0  0  0  0  0  0  0  0  0
    2.3517   -1.4700    0.1306 C   0  0  0  0  0  0  0  0  0  0  0  0
    2.5020    1.3974    0.2814 C   0  0  0  0  0  0  0  0  0  0  0  0
    3.6762    0.7485    0.2799 C   0  0  0  0  0  0  0  0  0  0  0  0
    3.7115   -0.7618    0.2067 C   0  0  0  0  0  0  0  0  0  0  0  0
    0.0239    2.9316   -0.0588 C   0  0  0  0  0  0  0  0  0  0  0  0
   -0.5477    3.6700    1.0249 C   0  0  0  0  0  0  0  0  0  0  0  0
   -0.5867    5.0717    1.0033 C   0  0  0  0  0  0  0  0  0  0  0  0
   -0.0029    5.7540   -0.0712 C   0  0  0  0  0  0  0  0  0  0  0  0
    0.5854    5.0411   -1.1489 C   0  0  0  0  0  0  0  0  0  0  0  0
    0.5809    3.6192   -1.1890 C   0  0  0  0  0  0  0  0  0  0  0  0
    4.7516   -1.3546    0.0732 O   0  0  0  0  0  0  0  0  0  0  0  0
   -4.8525   -1.4395    0.1148 O   0  5  0  0  0  0  0  0  0  0  0  0
    1.2231    2.8418   -2.3437 C   0  0  0  0  0  0  0  0  0  0  0  0
    1.9313    3.4119   -3.2106 O   0  0  0  0  0  0  0  0  0  0  0  0
    2.4278   -3.3512    0.0118 Br  0  0  0  0  0  0  0  0  0  0  0  0
    5.2934    1.6898    0.0939 Br  0  0  0  0  0  0  0  0  0  0  0  0
   -2.3873   -3.3672   -0.0011 Br  0  0  0  0  0  0  0  0  0  0  0  0
   -5.2859    1.7055    0.0439 Br  0  0  0  0  0  0  0  0  0  0  0  0
    1.1945    1.5609   -2.3158 O   0  5  0  0  0  0  0  0  0  0  0  0
   -1.1692    2.8192    2.4313 Cl  0  0  0  0  0  0  0  0  0  0  0  0
   -1.3283    5.9527    2.3142 Cl  0  0  0  0  0  0  0  0  0  0  0  0
    0.0211    7.5023   -0.0528 Cl  0  0  0  0  0  0  0  0  0  0  0  0
    1.3627    5.9929   -2.3853 Cl  0  0  0  0  0  0  0  0  0  0  0  0
   -2.5787    2.3986   -0.1468 H   0  0  0  0  0  0  0  0  0  0  0  0
    2.5426    2.4878    0.1974 H   0  0  0  0  0  0  0  0  0  0  0  0
  3  4  2  0  0  0  0
  3  8  1  0  0  0  0
  3 29  1  0  0  0  0
  4  5  1  0  0  0  0
  4 24  1  0  0  0  0
  5  6  2  0  0  0  0
  5 30  1  0  0  0  0
  6  7  1  0  0  0  0
  6 36  1  0  0  0  0
  7 10  1  0  0  0  0
  8  7  2  0  0  0  0
  9  8  1  0  0  0  0
  9 12  1  0  0  0  0
 10 11  2  0  0  0  0
 10 17  1  0  0  0  0
 11 14  1  0  0  0  0
 12 11  1  0  0  0  0
 13 12  2  0  0  0  0
 13 16  1  0  0  0  0
 13 27  1  0  0  0  0
 14 15  2  0  0  0  0
 14 37  1  0  0  0  0
 15 16  1  0  0  0  0
 15 28  1  0  0  0  0
 16 23  2  0  0  0  0
 17 18  2  0  0  0  0
 17 22  1  0  0  0  0
 18 19  1  0  0  0  0
 18 32  1  0  0  0  0
 19 20  2  0  0  0  0
 19 33  1  0  0  0  0
 20 21  1  0  0  0  0
 20 34  1  0  0  0  0
 21 22  2  0  0  0  0
 21 35  1  0  0  0  0
 22 25  1  0  0  0  0
 25 26  2  0  0  0  0
 25 31  1  0  0  0  0
M  CHG  4   1   1   2   1  24  -1  31  -1
M  END
>  <DRUGBANK_ID>
DB13911

>  <COMMON_NAME>
Phloxine B

>  <CAS_NUMBER>
18472-87-2

>  <UNII>
767IP0Y5NH

>  <SYNONYMS>
CI Acid Red 92; Cyanosin; D&C Red No. 28; Disodium 2',4',5',7'-tetrabromo-4,5,6,7-tetrachlorofluorescein; Phloxine

$$$$
