FRT
 OpenBabel10282417163D

 56 58  0  0  0  0  0  0  0  0999 V2000
    1.0865   -0.8157    0.0005 C   0  0  0  0  0  0  0  0  0  0  0  0
    1.2373    0.5139    0.0178 N   0  0  0  0  0  0  0  0  0  0  0  0
    0.1266    1.2663    0.0172 C   0  0  0  0  0  0  0  0  0  0  0  0
   -1.1152    0.7548   -0.0045 N   0  0  0  0  0  0  0  0  0  0  0  0
   -1.2168   -0.5909   -0.0210 C   0  0  0  0  0  0  0  0  0  0  0  0
   -0.1363   -1.4351   -0.0154 C   0  0  0  0  0  0  0  0  0  0  0  0
    0.2613    2.6470    0.1280 N   0  0  0  0  0  0  0  0  0  0  0  0
    1.4431    3.3869    0.0240 C   0  0  0  0  0  0  0  0  0  0  0  0
    2.3296    3.1969   -1.0432 C   0  0  0  0  0  0  0  0  0  0  0  0
    3.5372    3.8942   -1.0990 C   0  0  0  0  0  0  0  0  0  0  0  0
    3.8652    4.7895   -0.0728 C   0  0  0  0  0  0  0  0  0  0  0  0
    2.9657    5.0460    0.9575 C   0  0  0  0  0  0  0  0  0  0  0  0
    1.7735    4.3185    1.0174 C   0  0  0  0  0  0  0  0  0  0  0  0
    5.5276    5.3934    0.0730 S   0  0  0  0  0  0  0  0  0  0  0  0
    5.3836    7.0714   -0.0059 N   0  0  0  0  0  0  0  0  0  0  0  0
    6.6210    7.8735   -0.1745 C   0  0  0  0  0  0  0  0  0  0  0  0
    7.3942    7.5340   -1.4580 C   0  0  0  0  0  0  0  0  0  0  0  0
    6.7204    7.9177   -2.6661 O   0  0  0  0  0  0  0  0  0  0  0  0
    5.4738    7.2823   -2.9129 C   0  0  0  0  0  0  0  0  0  0  0  0
    2.3204   -1.5776   -0.0030 C   0  0  0  0  0  0  0  0  0  0  0  0
    3.3146   -1.5458    0.9594 N   0  0  0  0  0  0  0  0  0  0  0  0
    4.2802   -2.4682    0.5937 C   0  0  0  0  0  0  0  0  0  0  0  0
    3.9476   -3.0666   -0.5328 N   0  0  0  0  0  0  0  0  0  0  0  0
    2.7563   -2.5192   -0.9115 C   0  0  0  0  0  0  0  0  0  0  0  0
    3.3221   -0.7260    2.1703 C   0  0  0  0  0  0  0  0  0  0  0  0
    3.2615   -1.5874    3.4369 C   0  0  0  0  0  0  0  0  0  0  0  0
    4.4883    0.2642    2.1612 C   0  0  0  0  0  0  0  0  0  0  0  0
    5.5249   -2.7657    1.3548 C   0  0  0  0  0  0  0  0  0  0  0  0
    6.0231    5.0776    1.3869 O   0  0  0  0  0  0  0  0  0  0  0  0
    6.2177    4.9113   -1.1069 O   0  0  0  0  0  0  0  0  0  0  0  0
   -2.2275   -0.9891   -0.0306 H   0  0  0  0  0  0  0  0  0  0  0  0
   -0.2355   -2.5110   -0.0087 H   0  0  0  0  0  0  0  0  0  0  0  0
   -0.6173    3.1400    0.1064 H   0  0  0  0  0  0  0  0  0  0  0  0
    2.1023    2.4614   -1.8139 H   0  0  0  0  0  0  0  0  0  0  0  0
    4.2261    3.6807   -1.9149 H   0  0  0  0  0  0  0  0  0  0  0  0
    3.2147    5.7582    1.7388 H   0  0  0  0  0  0  0  0  0  0  0  0
    1.1422    4.4141    1.8976 H   0  0  0  0  0  0  0  0  0  0  0  0
    4.5235    7.4687   -0.3760 H   0  0  0  0  0  0  0  0  0  0  0  0
    6.3475    8.9368   -0.2007 H   0  0  0  0  0  0  0  0  0  0  0  0
    7.2500    7.7261    0.7111 H   0  0  0  0  0  0  0  0  0  0  0  0
    8.3398    8.0897   -1.4435 H   0  0  0  0  0  0  0  0  0  0  0  0
    7.7061    6.4896   -1.5010 H   0  0  0  0  0  0  0  0  0  0  0  0
    5.5369    6.1956   -2.8605 H   0  0  0  0  0  0  0  0  0  0  0  0
    4.7085    7.6695   -2.2415 H   0  0  0  0  0  0  0  0  0  0  0  0
    5.1214    7.5339   -3.9135 H   0  0  0  0  0  0  0  0  0  0  0  0
    2.2590   -2.8337   -1.8201 H   0  0  0  0  0  0  0  0  0  0  0  0
    2.4037   -0.1296    2.1722 H   0  0  0  0  0  0  0  0  0  0  0  0
    4.1188   -2.2521    3.5533 H   0  0  0  0  0  0  0  0  0  0  0  0
    3.2240   -0.9608    4.3320 H   0  0  0  0  0  0  0  0  0  0  0  0
    2.3750   -2.2317    3.4237 H   0  0  0  0  0  0  0  0  0  0  0  0
    4.4519    0.8933    1.2650 H   0  0  0  0  0  0  0  0  0  0  0  0
    4.4615    0.9070    3.0446 H   0  0  0  0  0  0  0  0  0  0  0  0
    5.4655   -0.2216    2.1533 H   0  0  0  0  0  0  0  0  0  0  0  0
    5.5448   -3.8197    1.6432 H   0  0  0  0  0  0  0  0  0  0  0  0
    6.4011   -2.5361    0.7440 H   0  0  0  0  0  0  0  0  0  0  0  0
    5.6434   -2.2006    2.2761 H   0  0  0  0  0  0  0  0  0  0  0  0
  1  2  1  0  0  0  0
  1  6  2  0  0  0  0
  1 20  1  0  0  0  0
  2  3  2  0  0  0  0
  3  4  1  0  0  0  0
  3  7  1  0  0  0  0
  4  5  2  0  0  0  0
  5  6  1  0  0  0  0
  5 31  1  0  0  0  0
  6 32  1  0  0  0  0
  7  8  1  0  0  0  0
  7 33  1  0  0  0  0
  8  9  1  0  0  0  0
  8 13  2  0  0  0  0
  9 10  2  0  0  0  0
  9 34  1  0  0  0  0
 10 11  1  0  0  0  0
 10 35  1  0  0  0  0
 11 12  2  0  0  0  0
 11 14  1  0  0  0  0
 12 13  1  0  0  0  0
 12 36  1  0  0  0  0
 13 37  1  0  0  0  0
 14 15  1  0  0  0  0
 14 29  2  0  0  0  0
 14 30  2  0  0  0  0
 15 16  1  0  0  0  0
 15 38  1  0  0  0  0
 16 17  1  0  0  0  0
 16 39  1  0  0  0  0
 16 40  1  0  0  0  0
 17 18  1  0  0  0  0
 17 41  1  0  0  0  0
 17 42  1  0  0  0  0
 18 19  1  0  0  0  0
 19 43  1  0  0  0  0
 19 44  1  0  0  0  0
 19 45  1  0  0  0  0
 20 21  1  0  0  0  0
 20 24  2  0  0  0  0
 21 22  1  0  0  0  0
 21 25  1  0  0  0  0
 22 23  2  0  0  0  0
 22 28  1  0  0  0  0
 23 24  1  0  0  0  0
 24 46  1  0  0  0  0
 25 26  1  0  0  0  0
 25 27  1  0  0  0  0
 25 47  1  0  0  0  0
 26 48  1  0  0  0  0
 26 49  1  0  0  0  0
 26 50  1  0  0  0  0
 27 51  1  0  0  0  0
 27 52  1  0  0  0  0
 27 53  1  0  0  0  0
 28 54  1  0  0  0  0
 28 55  1  0  0  0  0
 28 56  1  0  0  0  0
M  END
>  <DRUGBANK_ID>
DB07790

>  <COMMON_NAME>
N-(2-METHOXYETHYL)-4-({4-[2-METHYL-1-(1-METHYLETHYL)-1H-IMIDAZOL-5-YL]PYRIMIDIN-2-YL}AMINO)BENZENESULFONAMIDE

$$$$
