
 OpenBabel10282417133D

 54 58  0  0  0  0  0  0  0  0999 V2000
    0.9943   -0.0007   -0.0140 S   0  0  0  0  0  0  0  0  0  0  0  0
    0.9557   -5.0810    0.3419 O   0  0  0  0  0  0  0  0  0  0  0  0
    2.7511    3.8917    1.2371 O   0  0  0  0  0  0  0  0  0  0  0  0
    0.6282    0.7006    1.1945 O   0  0  0  0  0  0  0  0  0  0  0  0
    0.6134    0.5356   -1.3104 O   0  0  0  0  0  0  0  0  0  0  0  0
    7.9267    2.7599    0.0060 O   0  0  0  0  0  0  0  0  0  0  0  0
    0.4317   -1.5740    0.1258 N   0  0  0  0  0  0  0  0  0  0  0  0
    5.6910    4.9198   -0.0379 N   0  0  0  0  0  0  0  0  0  0  0  0
    6.8851    0.6481    0.0025 N   0  0  0  0  0  0  0  0  0  0  0  0
   -0.2449   -4.3247    0.5131 C   0  0  1  0  0  0  0  0  0  0  0  0
    0.8504   -2.2531    1.3646 C   0  0  0  0  0  0  0  0  0  0  0  0
    0.3607   -2.4364   -1.0716 C   0  0  0  0  0  0  0  0  0  0  0  0
   -0.1079   -3.3679    1.6931 C   0  0  0  0  0  0  0  0  0  0  0  0
   -0.6005   -3.5920   -0.7821 C   0  0  0  0  0  0  0  0  0  0  0  0
    3.3782    4.2172   -0.0150 C   0  0  2  0  0  0  0  0  0  0  0  0
    4.9401    3.7561   -0.0025 C   0  0  0  0  0  0  0  0  0  0  0  0
    5.4738    2.5108    0.0477 C   0  0  0  0  0  0  0  0  0  0  0  0
    2.7780   -0.1114    0.0067 C   0  0  0  0  0  0  0  0  0  0  0  0
    3.5265    5.7356    0.0017 C   0  0  0  0  0  0  0  0  0  0  0  0
    4.7175    1.2777    0.0826 C   0  0  0  0  0  0  0  0  0  0  0  0
    4.8935    6.0544    0.0113 C   0  0  0  0  0  0  0  0  0  0  0  0
    3.3711    1.1067    0.1951 C   0  0  0  0  0  0  0  0  0  0  0  0
    5.5629    0.1896    0.0088 C   0  0  0  0  0  0  0  0  0  0  0  0
    2.4962    3.7605   -1.2112 C   0  0  0  0  0  0  0  0  0  0  0  0
    6.9310    2.0601    0.0211 C   0  0  0  0  0  0  0  0  0  0  0  0
    3.6082   -1.2265   -0.0819 C   0  0  0  0  0  0  0  0  0  0  0  0
    5.0234   -1.0889   -0.0276 C   0  0  0  0  0  0  0  0  0  0  0  0
    2.5672    6.7441    0.0265 C   0  0  0  0  0  0  0  0  0  0  0  0
    5.3250    7.3652    0.0172 C   0  0  0  0  0  0  0  0  0  0  0  0
    3.0028    8.0764    0.0367 C   0  0  0  0  0  0  0  0  0  0  0  0
    4.3720    8.3839    0.0284 C   0  0  0  0  0  0  0  0  0  0  0  0
    6.6981    4.9218    0.0487 H   0  0  0  0  0  0  0  0  0  0  0  0
    7.7211    0.0774   -0.0117 H   0  0  0  0  0  0  0  0  0  0  0  0
    1.6764   -4.4997    0.0538 H   0  0  0  0  0  0  0  0  0  0  0  0
    1.8500    3.5600    1.0681 H   0  0  0  0  0  0  0  0  0  0  0  0
   -1.0287   -5.0505    0.7478 H   0  0  0  0  0  0  0  0  0  0  0  0
    0.9068   -1.5503    2.2005 H   0  0  0  0  0  0  0  0  0  0  0  0
    1.8436   -2.6815    1.2411 H   0  0  0  0  0  0  0  0  0  0  0  0
   -0.0087   -1.8856   -1.9454 H   0  0  0  0  0  0  0  0  0  0  0  0
    1.3519   -2.8215   -1.3255 H   0  0  0  0  0  0  0  0  0  0  0  0
   -1.0831   -2.9424    1.9539 H   0  0  0  0  0  0  0  0  0  0  0  0
    0.2871   -3.8940    2.5682 H   0  0  0  0  0  0  0  0  0  0  0  0
   -0.5844   -4.2946   -1.6230 H   0  0  0  0  0  0  0  0  0  0  0  0
   -1.6212   -3.1973   -0.6975 H   0  0  0  0  0  0  0  0  0  0  0  0
    2.7364    1.9297    0.4112 H   0  0  0  0  0  0  0  0  0  0  0  0
    1.4375    3.9960   -1.0281 H   0  0  0  0  0  0  0  0  0  0  0  0
    2.8015    4.1981   -2.1625 H   0  0  0  0  0  0  0  0  0  0  0  0
    2.4868    2.6838   -1.3944 H   0  0  0  0  0  0  0  0  0  0  0  0
    3.1904   -2.2169   -0.1690 H   0  0  0  0  0  0  0  0  0  0  0  0
    5.6362   -1.9843   -0.0316 H   0  0  0  0  0  0  0  0  0  0  0  0
    1.5045    6.5232    0.0447 H   0  0  0  0  0  0  0  0  0  0  0  0
    6.3829    7.5973    0.0146 H   0  0  0  0  0  0  0  0  0  0  0  0
    2.2794    8.8890    0.0533 H   0  0  0  0  0  0  0  0  0  0  0  0
    4.6983    9.4213    0.0317 H   0  0  0  0  0  0  0  0  0  0  0  0
  1  4  2  0  0  0  0
  1  5  2  0  0  0  0
  1  7  1  0  0  0  0
  1 18  1  0  0  0  0
  2 34  1  0  0  0  0
  3 35  1  0  0  0  0
  6 25  2  0  0  0  0
  7 11  1  0  0  0  0
  7 12  1  0  0  0  0
  8 16  1  0  0  0  0
  8 21  1  0  0  0  0
  8 32  1  0  0  0  0
  9 23  1  0  0  0  0
  9 25  1  0  0  0  0
  9 33  1  0  0  0  0
 10  2  1  0  0  0  0
 10 13  1  0  0  0  0
 10 14  1  0  0  0  0
 10 36  1  1  0  0  0
 11 13  1  0  0  0  0
 11 37  1  0  0  0  0
 11 38  1  0  0  0  0
 12 14  1  0  0  0  0
 12 39  1  0  0  0  0
 12 40  1  0  0  0  0
 13 41  1  0  0  0  0
 13 42  1  0  0  0  0
 14 43  1  0  0  0  0
 14 44  1  0  0  0  0
 15 16  1  0  0  0  0
 15 19  1  0  0  0  0
 15 24  1  0  0  0  0
 15  3  1  1  0  0  0
 16 17  2  0  0  0  0
 17 20  1  0  0  0  0
 17 25  1  0  0  0  0
 18 22  2  0  0  0  0
 18 26  1  0  0  0  0
 19 21  1  0  0  0  0
 19 28  2  0  0  0  0
 20 22  1  0  0  0  0
 20 23  2  0  0  0  0
 21 29  2  0  0  0  0
 22 45  1  0  0  0  0
 23 27  1  0  0  0  0
 24 46  1  0  0  0  0
 24 47  1  0  0  0  0
 24 48  1  0  0  0  0
 26 27  2  0  0  0  0
 26 49  1  0  0  0  0
 27 50  1  0  0  0  0
 28 30  1  0  0  0  0
 28 51  1  0  0  0  0
 29 31  1  0  0  0  0
 29 52  1  0  0  0  0
 30 31  2  0  0  0  0
 30 53  1  0  0  0  0
 31 54  1  0  0  0  0
M  END
>  <DRUGBANK_ID>
DB03583

>  <SECONDARY_ACCESSION_NUMBERS>
EXPT02828

>  <COMMON_NAME>
(2E,3S)-3-hydroxy-5'-[(4-hydroxypiperidin-1-yl)sulfonyl]-3-methyl-1,3-dihydro-2,3'-biindol-2'(1'H)-one

$$$$
