978
 OpenBabel10282417113D

 44 46  0  0  1  0  0  0  0  0999 V2000
    0.9378   -0.1084    0.3845 F   0  0  0  0  0  0  0  0  0  0  0  0
    4.9888   -2.4625    0.0532 F   0  0  0  0  0  0  0  0  0  0  0  0
    6.3441    2.2814    0.0207 O   0  0  0  0  0  0  0  0  0  0  0  0
    4.4584    6.0998    0.0356 O   0  0  0  0  0  0  0  0  0  0  0  0
    6.3911    5.0046    0.0344 O   0  0  0  0  0  0  0  0  0  0  0  0
    2.1378   -2.4790    0.0048 N   0  0  0  0  0  0  0  0  0  0  0  0
    1.0133   -5.0041   -0.8532 N   0  0  0  0  0  0  0  0  0  0  0  0
    2.2849    2.4193    0.0329 N   0  0  0  0  0  0  0  0  0  0  0  0
    2.1412   -4.9374    0.1233 C   0  0  3  0  0  0  0  0  0  0  0  0
    2.1686   -3.6086    0.9376 C   0  0  0  0  0  0  0  0  0  0  0  0
    1.0170   -2.4934   -0.9470 C   0  0  0  0  0  0  0  0  0  0  0  0
    1.0482   -3.8168   -1.7359 C   0  0  0  0  0  0  0  0  0  0  0  0
    2.8992   -1.3316    0.1366 C   0  0  0  0  0  0  0  0  0  0  0  0
    3.4838   -5.1274   -0.5886 C   0  0  0  0  0  0  0  0  0  0  0  0
    2.2698   -0.0774    0.1997 C   0  0  0  0  0  0  0  0  0  0  0  0
    2.9359    1.1636    0.1027 C   0  0  0  0  0  0  0  0  0  0  0  0
    4.2959   -1.3152    0.1068 C   0  0  0  0  0  0  0  0  0  0  0  0
    4.3334    1.1101    0.0607 C   0  0  0  0  0  0  0  0  0  0  0  0
    5.0117   -0.1178    0.0737 C   0  0  0  0  0  0  0  0  0  0  0  0
    0.8055    2.4454    0.0014 C   0  0  0  0  0  0  0  0  0  0  0  0
    5.1209    2.3663    0.0299 C   0  0  0  0  0  0  0  0  0  0  0  0
    3.0515    3.5837    0.0260 C   0  0  0  0  0  0  0  0  0  0  0  0
    4.3955    3.6752    0.0294 C   0  0  0  0  0  0  0  0  0  0  0  0
    0.2325    1.8519   -1.2878 C   0  0  0  0  0  0  0  0  0  0  0  0
    5.1672    4.9502    0.0327 C   0  0  0  0  0  0  0  0  0  0  0  0
    3.4912    6.0631    0.0370 H   0  0  0  0  0  0  0  0  0  0  0  0
    0.1417   -4.9604   -0.3225 H   0  0  0  0  0  0  0  0  0  0  0  0
    2.0080   -5.7736    0.8213 H   0  0  0  0  0  0  0  0  0  0  0  0
    3.0291   -3.5818    1.6151 H   0  0  0  0  0  0  0  0  0  0  0  0
    1.2667   -3.5665    1.5664 H   0  0  0  0  0  0  0  0  0  0  0  0
    0.0674   -2.4014   -0.4051 H   0  0  0  0  0  0  0  0  0  0  0  0
    1.0799   -1.6700   -1.6672 H   0  0  0  0  0  0  0  0  0  0  0  0
    1.9492   -3.8469   -2.3595 H   0  0  0  0  0  0  0  0  0  0  0  0
    0.2039   -3.8525   -2.4310 H   0  0  0  0  0  0  0  0  0  0  0  0
    4.2960   -5.1768    0.1426 H   0  0  0  0  0  0  0  0  0  0  0  0
    3.4913   -6.0451   -1.1829 H   0  0  0  0  0  0  0  0  0  0  0  0
    3.7161   -4.2935   -1.2592 H   0  0  0  0  0  0  0  0  0  0  0  0
    6.0989   -0.1475    0.0367 H   0  0  0  0  0  0  0  0  0  0  0  0
    0.4017    1.9582    0.8978 H   0  0  0  0  0  0  0  0  0  0  0  0
    0.4480    3.4808    0.0648 H   0  0  0  0  0  0  0  0  0  0  0  0
    2.4165    4.4611    0.0257 H   0  0  0  0  0  0  0  0  0  0  0  0
    0.5145    0.8126   -1.4714 H   0  0  0  0  0  0  0  0  0  0  0  0
   -0.8608    1.8712   -1.2532 H   0  0  0  0  0  0  0  0  0  0  0  0
    0.5795    2.4075   -2.1615 H   0  0  0  0  0  0  0  0  0  0  0  0
  1 15  1  0  0  0  0
  2 17  1  0  0  0  0
  3 21  2  0  0  0  0
  4 25  1  0  0  0  0
  4 26  1  0  0  0  0
  5 25  2  0  0  0  0
  6 10  1  0  0  0  0
  6 11  1  0  0  0  0
  6 13  1  0  0  0  0
  7  9  1  0  0  0  0
  7 12  1  0  0  0  0
  7 27  1  0  0  0  0
  8 16  1  0  0  0  0
  8 20  1  0  0  0  0
  8 22  1  0  0  0  0
  9 10  1  0  0  0  0
  9 14  1  0  0  0  0
  9 28  1  0  0  0  0
 10 29  1  0  0  0  0
 10 30  1  0  0  0  0
 11 12  1  0  0  0  0
 11 31  1  0  0  0  0
 11 32  1  0  0  0  0
 12 33  1  0  0  0  0
 12 34  1  0  0  0  0
 13 15  1  0  0  0  0
 13 17  2  0  0  0  0
 14 35  1  0  0  0  0
 14 36  1  0  0  0  0
 14 37  1  0  0  0  0
 15 16  2  0  0  0  0
 16 18  1  0  0  0  0
 17 19  1  0  0  0  0
 18 19  2  0  0  0  0
 18 21  1  0  0  0  0
 19 38  1  0  0  0  0
 20 24  1  0  0  0  0
 20 39  1  0  0  0  0
 20 40  1  0  0  0  0
 21 23  1  0  0  0  0
 22 23  2  0  0  0  0
 22 41  1  0  0  0  0
 23 25  1  0  0  0  0
 24 42  1  0  0  0  0
 24 43  1  0  0  0  0
 24 44  1  0  0  0  0
M  END
>  <DRUGBANK_ID>
DB00978

>  <SECONDARY_ACCESSION_NUMBERS>
APRD01076

>  <COMMON_NAME>
Lomefloxacin

>  <CAS_NUMBER>
98079-51-7

>  <UNII>
L6BR2WJD8V

>  <SYNONYMS>
(Â±)-1-ethyl-6,8-difluoro-1,4-dihydro-7-(3-methyl-1-piperazinyl)-4-oxo-3-quinolinecarboxylic acid; 1,4-Dihydro-6,8-difluoro-1-ethyl-7-(3-methyl-1-piperazinyl)-4-oxo-3-quinolinecarboxylic acid; LFLX; Lomefloxacin; Lomefloxacine; Lomefloxacino; Lomefloxacinum

$$$$
