
 OpenBabel10282417123D

 79 83  0  0  0  0  0  0  0  0999 V2000
    1.0952    0.0001   -0.0306 P   0  0  1  0  0  0  0  0  0  0  0  0
    1.6210   -2.2043   -1.7099 P   0  0  3  0  0  0  0  0  0  0  0  0
   -0.3936   -2.7230   -1.1884 O   0  0  0  0  0  0  0  0  0  0  0  0
    0.5698   -4.2556   -1.8619 O   0  0  0  0  0  0  0  0  0  0  0  0
   -2.1375   -3.3610    1.0742 O   0  0  0  0  0  0  0  0  0  0  0  0
   -2.0504   -6.8055   -1.1241 O   0  0  0  0  0  0  0  0  0  0  0  0
   -2.6115   -5.9807   -2.8788 O   0  0  0  0  0  0  0  0  0  0  0  0
   -1.9715   -6.3542    1.0454 O   0  0  0  0  0  0  0  0  0  0  0  0
    0.4254   -0.8685    1.1615 O   0  0  0  0  0  0  0  0  0  0  0  0
    1.0207   -2.2072   -3.3068 O   0  0  0  0  0  0  0  0  0  0  0  0
    1.0952   -0.5567   -1.6685 O   0  0  0  0  0  0  0  0  0  0  0  0
   -0.6348    0.0001   -0.0306 O   0  0  0  0  0  0  0  0  0  0  0  0
    2.6436    0.0001   -0.0306 O   0  0  0  0  0  0  0  0  0  0  0  0
    3.0678   -1.7299   -1.7043 O   0  5  0  0  0  0  0  0  0  0  0  0
    2.0915   -3.6790   -1.7469 O   0  0  0  0  0  0  0  0  0  0  0  0
    3.4772   -1.2592    3.5791 O   0  0  0  0  0  0  0  0  0  0  0  0
    4.4058   -5.3365    5.4356 O   0  0  0  0  0  0  0  0  0  0  0  0
   -0.1713   -5.4572   -2.8557 N   0  0  0  0  0  0  0  0  0  0  0  0
    1.6550   -5.0177    0.7493 N   0  3  0  0  0  0  0  0  0  0  0  0
    0.8438   -5.6754   -5.1272 N   0  0  0  0  0  0  0  0  0  0  0  0
    2.4133   -5.9463   -1.9261 N   0  0  0  0  0  0  0  0  0  0  0  0
    4.1722   -5.7481   -3.4617 N   0  0  0  0  0  0  0  0  0  0  0  0
    3.6749   -6.5163   -5.6108 N   0  0  0  0  0  0  0  0  0  0  0  0
    2.3193   -0.5241    2.1614 N   0  0  0  0  0  0  0  0  0  0  0  0
   -0.7586   -3.9505    0.3165 C   0  0  1  0  0  0  0  0  0  0  0  0
   -0.7863   -5.5020   -1.2559 C   0  0  2  0  0  0  0  0  0  0  0  0
   -0.5032   -2.5587    0.1093 C   0  0  1  0  0  0  0  0  0  0  0  0
   -0.9863   -4.0911   -1.4225 C   0  0  1  0  0  0  0  0  0  0  0  0
   -2.4439   -4.9040   -1.9249 C   0  0  1  0  0  0  0  0  0  0  0  0
   -1.6790   -5.4026    0.0801 C   0  0  2  0  0  0  0  0  0  0  0  0
   -0.9865   -3.7779   -3.0907 C   0  0  1  0  0  0  0  0  0  0  0  0
    0.5080   -5.2696   -0.1839 C   0  0  1  0  0  0  0  0  0  0  0  0
    0.5704   -2.1757    0.9635 C   0  0  0  0  0  0  0  0  0  0  0  0
   -0.4096   -2.4100   -3.5285 C   0  0  0  0  0  0  0  0  0  0  0  0
    1.4871   -5.7931   -2.9460 C   0  0  0  0  0  0  0  0  0  0  0  0
    2.2836   -3.8323    0.7630 C   0  0  0  0  0  0  0  0  0  0  0  0
   -0.2583   -5.5544   -4.4220 C   0  0  0  0  0  0  0  0  0  0  0  0
    2.3700   -6.0127    1.2331 C   0  0  0  0  0  0  0  0  0  0  0  0
    1.8903   -5.6921   -4.2582 C   0  0  0  0  0  0  0  0  0  0  0  0
    2.8970   -3.1959    1.8109 C   0  0  0  0  0  0  0  0  0  0  0  0
    3.3649   -4.2195    2.5429 C   0  0  0  0  0  0  0  0  0  0  0  0
    3.2440   -5.6077    2.2013 C   0  0  0  0  0  0  0  0  0  0  0  0
    3.2660   -5.9215   -4.4489 C   0  0  0  0  0  0  0  0  0  0  0  0
    4.1736   -3.8514    3.6852 C   0  0  0  0  0  0  0  0  0  0  0  0
    3.0067   -1.6066    2.5061 C   0  0  0  0  0  0  0  0  0  0  0  0
    3.6679   -5.5678   -2.2574 C   0  0  0  0  0  0  0  0  0  0  0  0
    3.6662   -4.5249    4.8889 C   0  0  0  0  0  0  0  0  0  0  0  0
    2.2415   -4.2634    5.3469 C   0  0  0  0  0  0  0  0  0  0  0  0
    2.9633   -6.6319   -6.3161 H   0  0  0  0  0  0  0  0  0  0  0  0
    4.6317   -6.8077   -5.6602 H   0  0  0  0  0  0  0  0  0  0  0  0
    1.5409   -0.8085    1.7058 H   0  0  0  0  0  0  0  0  0  0  0  0
    2.1125    0.4439    2.3786 H   0  0  0  0  0  0  0  0  0  0  0  0
   -2.7788   -3.0703    0.3761 H   0  0  0  0  0  0  0  0  0  0  0  0
   -2.9207   -6.3942   -0.7924 H   0  0  0  0  0  0  0  0  0  0  0  0
   -1.9522   -6.6777   -2.5655 H   0  0  0  0  0  0  0  0  0  0  0  0
   -1.7628   -7.1422    0.5111 H   0  0  0  0  0  0  0  0  0  0  0  0
   -0.9447   -0.4027   -0.8634 H   0  0  0  0  0  0  0  0  0  0  0  0
   -0.3593   -4.3036    1.3434 H   0  0  0  0  0  0  0  0  0  0  0  0
   -0.4193   -6.5207   -0.8244 H   0  0  0  0  0  0  0  0  0  0  0  0
   -1.2969   -1.8511    0.2338 H   0  0  0  0  0  0  0  0  0  0  0  0
   -1.9231   -3.2873   -1.8229 H   0  0  0  0  0  0  0  0  0  0  0  0
   -3.3012   -4.2384   -1.7836 H   0  0  0  0  0  0  0  0  0  0  0  0
   -2.4758   -4.6778    0.1031 H   0  0  0  0  0  0  0  0  0  0  0  0
   -1.5574   -4.1988   -3.8780 H   0  0  0  0  0  0  0  0  0  0  0  0
    1.0075   -6.2230   -0.5960 H   0  0  0  0  0  0  0  0  0  0  0  0
    1.5254   -2.0256    0.4810 H   0  0  0  0  0  0  0  0  0  0  0  0
    0.6133   -2.7039    1.9180 H   0  0  0  0  0  0  0  0  0  0  0  0
   -0.9706   -1.6268   -3.0349 H   0  0  0  0  0  0  0  0  0  0  0  0
   -0.5880   -2.4390   -4.6072 H   0  0  0  0  0  0  0  0  0  0  0  0
    1.7957   -3.4498   -0.0370 H   0  0  0  0  0  0  0  0  0  0  0  0
   -1.1891   -5.3436   -4.9471 H   0  0  0  0  0  0  0  0  0  0  0  0
    2.2346   -6.9980    0.8052 H   0  0  0  0  0  0  0  0  0  0  0  0
    3.8267   -6.3457    2.7076 H   0  0  0  0  0  0  0  0  0  0  0  0
    5.1799   -4.0536    3.3551 H   0  0  0  0  0  0  0  0  0  0  0  0
    4.2090   -2.8324    3.9461 H   0  0  0  0  0  0  0  0  0  0  0  0
    4.2981   -5.1576   -1.4528 H   0  0  0  0  0  0  0  0  0  0  0  0
    2.0869   -3.2090    5.5914 H   0  0  0  0  0  0  0  0  0  0  0  0
    1.4977   -4.5711    4.6006 H   0  0  0  0  0  0  0  0  0  0  0  0
    2.0796   -4.8652    6.2429 H   0  0  0  0  0  0  0  0  0  0  0  0
  1 12  1  0  0  0  0
  1 13  2  1  0  0  0
  1 11  1  0  0  0  0
  1  9  1  0  0  0  0
  2 10  1  0  0  0  0
  2 11  1  0  0  0  0
  2 14  1  0  0  0  0
  2 15  2  0  0  0  0
  3 27  1  0  0  0  0
  3 28  1  0  0  0  0
  4 31  1  0  0  0  0
  4 32  1  0  0  0  0
  5 53  1  0  0  0  0
  6 54  1  0  0  0  0
  7 55  1  0  0  0  0
  8 56  1  0  0  0  0
  9 33  1  0  0  0  0
 10 34  1  0  0  0  0
 12 57  1  0  0  0  0
 16 45  2  0  0  0  0
 17 47  2  0  0  0  0
 18 35  1  0  0  0  0
 18 37  1  0  0  0  0
 19 36  2  0  0  0  0
 19 38  1  0  0  0  0
 20 37  2  0  0  0  0
 20 39  1  0  0  0  0
 21 35  2  0  0  0  0
 21 46  1  0  0  0  0
 22 43  1  0  0  0  0
 22 46  2  0  0  0  0
 23 43  1  0  0  0  0
 23 49  1  0  0  0  0
 23 50  1  0  0  0  0
 24 45  1  0  0  0  0
 24 51  1  0  0  0  0
 24 52  1  0  0  0  0
 25  5  1  0  0  0  0
 25 26  1  0  0  0  0
 25 27  1  0  0  0  0
 25 58  1  1  0  0  0
 26  6  1  0  0  0  0
 26 28  1  0  0  0  0
 26 59  1  6  0  0  0
 27 33  1  0  0  0  0
 27 60  1  1  0  0  0
 28 61  1  6  0  0  0
 28 18  1  0  0  0  0
 29  7  1  0  0  0  0
 29 30  1  0  0  0  0
 29 31  1  0  0  0  0
 29 62  1  1  0  0  0
 30  8  1  0  0  0  0
 30 32  1  0  0  0  0
 30 63  1  1  0  0  0
 31 34  1  0  0  0  0
 31 64  1  6  0  0  0
 32 65  1  6  0  0  0
 32 19  1  0  0  0  0
 33 66  1  0  0  0  0
 33 67  1  0  0  0  0
 34 68  1  0  0  0  0
 34 69  1  0  0  0  0
 35 39  1  0  0  0  0
 36 40  1  0  0  0  0
 36 70  1  0  0  0  0
 37 71  1  0  0  0  0
 38 42  2  0  0  0  0
 38 72  1  0  0  0  0
 39 43  2  0  0  0  0
 40 41  2  0  0  0  0
 40 45  1  0  0  0  0
 41 42  1  0  0  0  0
 41 44  1  0  0  0  0
 42 73  1  0  0  0  0
 44 47  1  0  0  0  0
 44 74  1  0  0  0  0
 44 75  1  0  0  0  0
 46 76  1  0  0  0  0
 47 48  1  0  0  0  0
 48 77  1  0  0  0  0
 48 78  1  0  0  0  0
 48 79  1  0  0  0  0
M  CHG  2  14  -1  19   1
M  END
>  <DRUGBANK_ID>
DB02732

>  <SECONDARY_ACCESSION_NUMBERS>
EXPT02284

>  <COMMON_NAME>
[(2R,3S,4R,5R)-5-(4-acetonyl-3-carbamoyl-pyridin-1-ium-1-yl)-3,4-dihydroxy-tetrahydrofuran-2-yl]methyl [[(2R,3S,4R,5R)-5-(6-aminopurin-9-yl)-3,4-dihydroxy-tetrahydrofuran-2-yl]methoxy-hydroxy-phosphoryl] phosphate

>  <SYNONYMS>
Nicotinamide adenine dinucleotide acetone adduct

$$$$
