
 OpenBabel10282417193D

 24 24  0  0  0  0  0  0  0  0999 V2000
    1.1397    0.0737    0.0265 C   0  0  0  0  0  0  0  0  0  0  0  0
    0.5710   -1.1523    0.7368 C   0  0  1  0  0  0  0  0  0  0  0  0
   -0.7994   -1.2290    0.3163 N   0  0  0  0  0  0  0  0  0  0  0  0
   -1.2088   -2.2687   -0.3330 C   0  0  0  0  0  0  0  0  0  0  0  0
   -2.4944   -2.2364   -0.8426 N   0  0  0  0  0  0  0  0  0  0  0  0
   -3.3382   -1.0553   -0.7227 C   0  0  0  0  0  0  0  0  0  0  0  0
   -3.0662   -3.3687   -1.5409 C   0  0  0  0  0  0  0  0  0  0  0  0
   -0.4310   -3.3887   -0.5180 N   0  0  0  0  0  0  0  0  0  0  0  0
    0.7887   -3.3571   -0.1064 C   0  0  0  0  0  0  0  0  0  0  0  0
    1.6226   -4.4134   -0.2035 N   0  0  0  0  0  0  0  0  0  0  0  0
    1.3833   -2.2840    0.4350 N   0  0  0  0  0  0  0  0  0  0  0  0
    0.7419    0.9883    0.4796 H   0  0  0  0  0  0  0  0  0  0  0  0
    0.8367    0.0848   -1.0291 H   0  0  0  0  0  0  0  0  0  0  0  0
    2.2316    0.1085    0.0622 H   0  0  0  0  0  0  0  0  0  0  0  0
    0.5950   -0.9868    1.8200 H   0  0  0  0  0  0  0  0  0  0  0  0
   -3.6373   -0.6928   -1.7123 H   0  0  0  0  0  0  0  0  0  0  0  0
   -4.2416   -1.2948   -0.1529 H   0  0  0  0  0  0  0  0  0  0  0  0
   -2.8520   -0.2154   -0.2145 H   0  0  0  0  0  0  0  0  0  0  0  0
   -2.4879   -3.6086   -2.4387 H   0  0  0  0  0  0  0  0  0  0  0  0
   -3.0955   -4.2443   -0.8858 H   0  0  0  0  0  0  0  0  0  0  0  0
   -4.0956   -3.1639   -1.8593 H   0  0  0  0  0  0  0  0  0  0  0  0
    1.2790   -5.2594   -0.6352 H   0  0  0  0  0  0  0  0  0  0  0  0
    2.5668   -4.4034    0.1450 H   0  0  0  0  0  0  0  0  0  0  0  0
    2.2541   -2.3703    0.9314 H   0  0  0  0  0  0  0  0  0  0  0  0
  1 12  1  0  0  0  0
  1 13  1  0  0  0  0
  1 14  1  0  0  0  0
  2  1  1  0  0  0  0
  2 11  1  0  0  0  0
  2 15  1  1  0  0  0
  3  2  1  0  0  0  0
  4  3  2  0  0  0  0
  4  5  1  0  0  0  0
  5  6  1  0  0  0  0
  5  7  1  0  0  0  0
  6 16  1  0  0  0  0
  6 17  1  0  0  0  0
  6 18  1  0  0  0  0
  7 19  1  0  0  0  0
  7 20  1  0  0  0  0
  7 21  1  0  0  0  0
  8  4  1  0  0  0  0
  9  8  2  0  0  0  0
  9 10  1  0  0  0  0
 10 22  1  0  0  0  0
 10 23  1  0  0  0  0
 11  9  1  0  0  0  0
 11 24  1  0  0  0  0
M  END
>  <DRUGBANK_ID>
DB12509

>  <COMMON_NAME>
Imeglimin

>  <CAS_NUMBER>
775351-65-0

>  <UNII>
UU226QGU97

>  <SYNONYMS>
Imeglimin; Imeglimina; ImÃ©glimine; Imegliminum

$$$$
