QYT
 OpenBabel10282417143D

 25 27  0  0  0  0  0  0  0  0999 V2000
   -1.2139    1.3788    0.0247 C   0  0  0  0  0  0  0  0  0  0  0  0
   -2.4223    0.6854    0.0276 C   0  0  0  0  0  0  0  0  0  0  0  0
   -2.4283   -0.7097   -0.0030 C   0  0  0  0  0  0  0  0  0  0  0  0
   -5.8911   -2.0636   -1.0135 C   0  0  0  0  0  0  0  0  0  0  0  0
   -6.1354   -0.7732   -2.9442 C   0  0  0  0  0  0  0  0  0  0  0  0
    0.0017   -0.7126    0.0122 C   0  0  0  0  0  0  0  0  0  0  0  0
   -0.0026    0.7064    0.0106 C   0  0  0  0  0  0  0  0  0  0  0  0
    2.2863    0.7038   -0.0066 C   0  0  0  0  0  0  0  0  0  0  0  0
    1.1580   -1.4057    0.0130 N   0  0  0  0  0  0  0  0  0  0  0  0
   -1.2102   -1.3952    0.0076 C   0  0  0  0  0  0  0  0  0  0  0  0
   -3.6918   -1.4509   -0.0547 C   0  0  0  0  0  0  0  0  0  0  0  0
   -4.6028   -1.3255   -1.0296 C   0  0  0  0  0  0  0  0  0  0  0  0
   -4.5238   -0.3275   -2.4375 S   0  0  0  0  0  0  0  0  0  0  0  0
   -6.6607   -1.6644   -2.0654 N   0  0  0  0  0  0  0  0  0  0  0  0
   -6.2174   -2.8985   -0.1859 O   0  0  0  0  0  0  0  0  0  0  0  0
   -6.6846   -0.3393   -3.9405 O   0  0  0  0  0  0  0  0  0  0  0  0
    1.1408    1.4164   -0.0023 N   0  0  0  0  0  0  0  0  0  0  0  0
    2.2949   -0.6757    0.0068 C   0  0  0  0  0  0  0  0  0  0  0  0
   -1.2192    2.4657    0.0267 H   0  0  0  0  0  0  0  0  0  0  0  0
   -3.3525    1.2494    0.0292 H   0  0  0  0  0  0  0  0  0  0  0  0
    3.2042    1.2795   -0.0195 H   0  0  0  0  0  0  0  0  0  0  0  0
   -1.1902   -2.4829   -0.0083 H   0  0  0  0  0  0  0  0  0  0  0  0
   -3.8699   -2.1364    0.7732 H   0  0  0  0  0  0  0  0  0  0  0  0
   -7.5801   -2.0455   -2.2117 H   0  0  0  0  0  0  0  0  0  0  0  0
    3.2225   -1.2360    0.0148 H   0  0  0  0  0  0  0  0  0  0  0  0
  1  2  2  0  0  0  0
  1  7  1  0  0  0  0
  1 19  1  0  0  0  0
  2  3  1  0  0  0  0
  2 20  1  0  0  0  0
  3 10  2  0  0  0  0
  3 11  1  0  0  0  0
  4 12  1  0  0  0  0
  4 14  1  0  0  0  0
  4 15  2  0  0  0  0
  5 13  1  0  0  0  0
  5 14  1  0  0  0  0
  5 16  2  0  0  0  0
  6  7  2  0  0  0  0
  6  9  1  0  0  0  0
  6 10  1  0  0  0  0
  7 17  1  0  0  0  0
  8 17  2  0  0  0  0
  8 18  1  0  0  0  0
  8 21  1  0  0  0  0
  9 18  2  0  0  0  0
 10 22  1  0  0  0  0
 11 12  2  0  0  0  0
 11 23  1  0  0  0  0
 12 13  1  0  0  0  0
 14 24  1  0  0  0  0
 18 25  1  0  0  0  0
M  END
>  <DRUGBANK_ID>
DB04769

>  <COMMON_NAME>
5-QUINOXALIN-6-YLMETHYLENE-THIAZOLIDINE-2,4-DIONE

$$$$
