
 OpenBabel10282417153D

 41 44  0  0  1  0  0  0  0  0999 V2000
   -6.9743   -6.5810    1.0021 C   0  0  0  0  0  0  0  0  0  0  0  0
   -7.1319   -5.6633    2.0356 C   0  0  0  0  0  0  0  0  0  0  0  0
   -6.9091   -4.3042    1.8006 C   0  0  0  0  0  0  0  0  0  0  0  0
   -6.5024   -3.8392    0.5354 C   0  0  0  0  0  0  0  0  0  0  0  0
   -6.3053   -4.7806   -0.4828 C   0  0  0  0  0  0  0  0  0  0  0  0
   -6.5819   -6.1373   -0.2606 C   0  0  0  0  0  0  0  0  0  0  0  0
   -6.4466   -2.3423    0.2778 C   0  0  0  0  0  0  0  0  0  0  0  0
   -5.1206   -1.7882    0.0098 N   0  0  0  0  0  0  0  0  0  0  0  0
   -5.0940   -0.2972   -0.0778 C   0  0  0  0  0  0  0  0  0  0  0  0
   -5.6341    0.7156    1.1338 C   0  0  1  0  0  0  0  0  0  0  0  0
   -5.6030    2.2799    1.6981 C   0  0  0  0  0  0  0  0  0  0  0  0
   -6.9113    2.7913    1.4886 O   0  0  0  0  0  0  0  0  0  0  0  0
   -7.6977    2.0493    2.3407 C   0  0  0  0  0  0  0  0  0  0  0  0
   -8.2370    2.7649    3.3731 C   0  0  0  0  0  0  0  0  0  0  0  0
   -9.4609    2.3410    3.8215 C   0  0  0  0  0  0  0  0  0  0  0  0
   -9.9788    1.1817    3.2713 C   0  0  0  0  0  0  0  0  0  0  0  0
   -9.1953    0.1323    2.7962 C   0  0  0  0  0  0  0  0  0  0  0  0
   -8.0161    0.6843    2.1118 C   0  0  0  0  0  0  0  0  0  0  0  0
   -7.1593    0.2294    1.1109 O   0  0  0  0  0  0  0  0  0  0  0  0
  -10.3620   -1.0097    3.0274 C   0  0  0  0  0  0  0  0  0  0  0  0
  -11.3315   -0.3099    2.1444 C   0  0  0  0  0  0  0  0  0  0  0  0
  -11.4318   -0.6045    0.9951 O   0  0  0  0  0  0  0  0  0  0  0  0
  -11.3531    0.9663    2.8838 N   0  0  0  0  0  0  0  0  0  0  0  0
   -7.1572   -7.6380    1.1803 H   0  0  0  0  0  0  0  0  0  0  0  0
   -7.4533   -6.0006    3.0175 H   0  0  0  0  0  0  0  0  0  0  0  0
   -7.0822   -3.5988    2.6105 H   0  0  0  0  0  0  0  0  0  0  0  0
   -5.9654   -4.4598   -1.4643 H   0  0  0  0  0  0  0  0  0  0  0  0
   -6.5094   -6.8491   -1.0797 H   0  0  0  0  0  0  0  0  0  0  0  0
   -7.1395   -2.1163   -0.5438 H   0  0  0  0  0  0  0  0  0  0  0  0
   -6.8342   -1.8854    1.1842 H   0  0  0  0  0  0  0  0  0  0  0  0
   -4.4426   -2.1446    0.6733 H   0  0  0  0  0  0  0  0  0  0  0  0
   -4.0644   -0.0554   -0.3886 H   0  0  0  0  0  0  0  0  0  0  0  0
   -5.7222   -0.0649   -0.9625 H   0  0  0  0  0  0  0  0  0  0  0  0
   -5.3120    1.3692    0.2897 H   0  0  0  0  0  0  0  0  0  0  0  0
   -5.3649    2.4557    2.7640 H   0  0  0  0  0  0  0  0  0  0  0  0
   -4.9077    3.0091    1.2132 H   0  0  0  0  0  0  0  0  0  0  0  0
   -7.7707    3.6985    3.6639 H   0  0  0  0  0  0  0  0  0  0  0  0
  -10.0137    2.9812    4.4838 H   0  0  0  0  0  0  0  0  0  0  0  0
  -10.4264   -2.0975    2.8757 H   0  0  0  0  0  0  0  0  0  0  0  0
  -11.0091   -0.9293    3.9859 H   0  0  0  0  0  0  0  0  0  0  0  0
  -11.8520    0.9635    3.7711 H   0  0  0  0  0  0  0  0  0  0  0  0
  1  2  2  0  0  0  0
  1  6  1  0  0  0  0
  1 24  1  0  0  0  0
  2  3  1  0  0  0  0
  2 25  1  0  0  0  0
  3  4  2  0  0  0  0
  3 26  1  0  0  0  0
  4  5  1  0  0  0  0
  4  7  1  0  0  0  0
  5  6  2  0  0  0  0
  5 27  1  0  0  0  0
  6 28  1  0  0  0  0
  7  8  1  0  0  0  0
  7 29  1  0  0  0  0
  7 30  1  0  0  0  0
  8  9  1  0  0  0  0
  8 31  1  0  0  0  0
  9 32  1  0  0  0  0
  9 33  1  0  0  0  0
 10 11  1  0  0  0  0
 10 19  1  0  0  0  0
 10 34  1  1  0  0  0
 10  9  1  0  0  0  0
 11 12  1  0  0  0  0
 11 35  1  0  0  0  0
 11 36  1  0  0  0  0
 12 13  1  0  0  0  0
 13 14  2  0  0  0  0
 13 18  1  0  0  0  0
 14 15  1  0  0  0  0
 14 37  1  0  0  0  0
 15 16  2  0  0  0  0
 15 38  1  0  0  0  0
 16 17  1  0  0  0  0
 16 23  1  0  0  0  0
 17 18  2  0  0  0  0
 17 20  1  0  0  0  0
 18 19  1  0  0  0  0
 20 21  1  0  0  0  0
 20 39  1  0  0  0  0
 20 40  1  0  0  0  0
 21 22  2  0  0  0  0
 21 23  1  0  0  0  0
 23 41  1  0  0  0  0
M  END
>  <DRUGBANK_ID>
DB06620

>  <COMMON_NAME>
Aplindore

>  <CAS_NUMBER>
189681-70-7

>  <UNII>
Q5O76TA0ML

>  <SYNONYMS>
Aplindore; Palindore

$$$$
