
 OpenBabel10282417143D

 21 22  0  0  0  0  0  0  0  0999 V2000
   -0.6250    1.8833    0.6191 C   0  0  0  0  0  0  0  0  0  0  0  0
    0.6993    1.8702    0.0062 N   0  0  0  0  0  0  0  0  0  0  0  0
    1.4294    0.6950   -0.0627 C   0  0  0  0  0  0  0  0  0  0  0  0
   -1.4236    0.6980    0.0576 C   0  0  0  0  0  0  0  0  0  0  0  0
   -0.6883   -0.4727    0.0790 N   0  0  0  0  0  0  0  0  0  0  0  0
    0.6912   -0.4980    0.5632 C   0  0  1  0  0  0  0  0  0  0  0  0
    1.1984   -1.8783    0.1779 C   0  0  0  0  0  0  0  0  0  0  0  0
   -0.0785   -2.7219    0.1403 C   0  0  0  0  0  0  0  0  0  0  0  0
   -1.1349   -1.7623   -0.3937 C   0  0  0  0  0  0  0  0  0  0  0  0
   -2.5949    0.7737   -0.2978 O   0  0  0  0  0  0  0  0  0  0  0  0
    2.5796    0.6720   -0.4856 O   0  0  0  0  0  0  0  0  0  0  0  0
    0.6832   -0.3714    1.6526 H   0  0  0  0  0  0  0  0  0  0  0  0
   -1.1154    2.8315    0.3925 H   0  0  0  0  0  0  0  0  0  0  0  0
   -0.5229    1.7602    1.7035 H   0  0  0  0  0  0  0  0  0  0  0  0
    1.1401    2.7197   -0.3227 H   0  0  0  0  0  0  0  0  0  0  0  0
    1.6785   -1.8722   -0.8067 H   0  0  0  0  0  0  0  0  0  0  0  0
    1.9226   -2.2600    0.9046 H   0  0  0  0  0  0  0  0  0  0  0  0
   -0.3414   -3.0343    1.1588 H   0  0  0  0  0  0  0  0  0  0  0  0
    0.0264   -3.6194   -0.4748 H   0  0  0  0  0  0  0  0  0  0  0  0
   -2.1449   -1.9838   -0.0369 H   0  0  0  0  0  0  0  0  0  0  0  0
   -1.1391   -1.7395   -1.4884 H   0  0  0  0  0  0  0  0  0  0  0  0
  1  2  1  0  0  0  0
  1  4  1  0  0  0  0
  1 13  1  0  0  0  0
  1 14  1  0  0  0  0
  2  3  1  0  0  0  0
  2 15  1  0  0  0  0
  3  6  1  0  0  0  0
  3 11  2  0  0  0  0
  4 10  2  0  0  0  0
  5  4  1  0  0  0  0
  5  6  1  0  0  0  0
  6  7  1  0  0  0  0
  6 12  1  1  0  0  0
  7  8  1  0  0  0  0
  7 16  1  0  0  0  0
  7 17  1  0  0  0  0
  8  9  1  0  0  0  0
  8 18  1  0  0  0  0
  8 19  1  0  0  0  0
  9  5  1  0  0  0  0
  9 20  1  0  0  0  0
  9 21  1  0  0  0  0
M  END
>  <DRUGBANK_ID>
DB04541

>  <SECONDARY_ACCESSION_NUMBERS>
EXPT01592

>  <COMMON_NAME>
Cyclo(prolylglycyl)

>  <CAS_NUMBER>
97011-16-0

>  <UNII>
W7O69J5F2B

>  <SYNONYMS>
(S)-Hexahydropyrrolo(1,2-a)pyrazine-1,4-dione-4-17O; Cyclo(pro-gly); Cyclo(pro-O-gly)

$$$$
