
 OpenBabel10282417183D

 41 42  0  0  0  0  0  0  0  0999 V2000
    1.0362   -0.0144    0.2980 C   0  0  0  0  0  0  0  0  0  0  0  0
    1.8278   -7.1534   -0.2198 C   0  0  0  0  0  0  0  0  0  0  0  0
    0.6127   -1.2919   -0.3525 C   0  0  0  0  0  0  0  0  0  0  0  0
    0.5953   -6.3419    0.1382 C   0  0  0  0  0  0  0  0  0  0  0  0
    2.3735   -5.1605    2.3498 C   0  0  0  0  0  0  0  0  0  0  0  0
    3.9002   -5.2225    2.2719 C   0  0  0  0  0  0  0  0  0  0  0  0
   -1.6202   -1.0691   -4.1147 C   0  0  0  0  0  0  0  0  0  0  0  0
    0.1294   -2.3934   -3.1016 C   0  0  0  0  0  0  0  0  0  0  0  0
   -2.1791   -2.8159   -2.5242 C   0  0  0  0  0  0  0  0  0  0  0  0
    0.7319   -0.5311   -4.5801 C   0  0  0  0  0  0  0  0  0  0  0  0
   -3.9724   -1.5900   -3.6865 C   0  0  0  0  0  0  0  0  0  0  0  0
   -0.2627   -1.3438   -3.9386 C   0  0  0  0  0  0  0  0  0  0  0  0
   -2.5799   -1.8253   -3.4301 C   0  0  0  0  0  0  0  0  0  0  0  0
   -0.8205   -3.0791   -2.3423 C   0  0  0  0  0  0  0  0  0  0  0  0
    0.9704   -2.6687    0.1644 C   0  0  0  0  0  0  0  0  0  0  0  0
    0.9004   -4.8991    0.3130 C   0  0  0  0  0  0  0  0  0  0  0  0
    0.4225   -3.8420   -0.4209 C   0  0  0  0  0  0  0  0  0  0  0  0
    1.5378    0.1306   -5.0808 N   0  0  0  0  0  0  0  0  0  0  0  0
   -5.0868   -1.4000   -3.9329 N   0  0  0  0  0  0  0  0  0  0  0  0
    1.7976   -2.9919    1.1950 N   0  0  0  0  0  0  0  0  0  0  0  0
    1.7106   -4.3717    1.2944 N   0  0  0  0  0  0  0  0  0  0  0  0
    4.4703   -3.9603    2.5782 O   0  0  0  0  0  0  0  0  0  0  0  0
   -0.4666   -4.0416   -1.4306 O   0  0  0  0  0  0  0  0  0  0  0  0
    0.6571    0.0553    1.3138 H   0  0  0  0  0  0  0  0  0  0  0  0
    0.6196    0.8251   -0.2847 H   0  0  0  0  0  0  0  0  0  0  0  0
    2.1219    0.0810    0.2615 H   0  0  0  0  0  0  0  0  0  0  0  0
    2.5626   -7.1928    0.5868 H   0  0  0  0  0  0  0  0  0  0  0  0
    1.5394   -8.1836   -0.4357 H   0  0  0  0  0  0  0  0  0  0  0  0
    2.3370   -6.7288   -1.0905 H   0  0  0  0  0  0  0  0  0  0  0  0
   -0.4819   -1.2487   -0.4618 H   0  0  0  0  0  0  0  0  0  0  0  0
    1.0389   -1.1868   -1.3504 H   0  0  0  0  0  0  0  0  0  0  0  0
    0.0969   -6.7296    1.0335 H   0  0  0  0  0  0  0  0  0  0  0  0
   -0.1233   -6.4441   -0.6830 H   0  0  0  0  0  0  0  0  0  0  0  0
    2.0295   -4.8098    3.3272 H   0  0  0  0  0  0  0  0  0  0  0  0
    2.0102   -6.1920    2.2798 H   0  0  0  0  0  0  0  0  0  0  0  0
    4.2956   -5.9467    3.0007 H   0  0  0  0  0  0  0  0  0  0  0  0
    4.2586   -5.5440    1.2884 H   0  0  0  0  0  0  0  0  0  0  0  0
   -1.9317   -0.2748   -4.7939 H   0  0  0  0  0  0  0  0  0  0  0  0
    1.1888   -2.6018   -2.9523 H   0  0  0  0  0  0  0  0  0  0  0  0
   -2.9181   -3.3785   -1.9557 H   0  0  0  0  0  0  0  0  0  0  0  0
    3.9808   -3.3053    2.0385 H   0  0  0  0  0  0  0  0  0  0  0  0
  1 24  1  0  0  0  0
  1 25  1  0  0  0  0
  1 26  1  0  0  0  0
  2 27  1  0  0  0  0
  2 28  1  0  0  0  0
  2 29  1  0  0  0  0
  3  1  1  0  0  0  0
  3 30  1  0  0  0  0
  3 31  1  0  0  0  0
  4  2  1  0  0  0  0
  4 32  1  0  0  0  0
  4 33  1  0  0  0  0
  5 34  1  0  0  0  0
  5 35  1  0  0  0  0
  6  5  1  0  0  0  0
  6 36  1  0  0  0  0
  6 37  1  0  0  0  0
  7 38  1  0  0  0  0
  8 39  1  0  0  0  0
  9 40  1  0  0  0  0
 12  7  2  0  0  0  0
 12  8  1  0  0  0  0
 12 10  1  0  0  0  0
 13  7  1  0  0  0  0
 13  9  2  0  0  0  0
 13 11  1  0  0  0  0
 14  8  2  0  0  0  0
 14  9  1  0  0  0  0
 15  3  1  0  0  0  0
 16  4  1  0  0  0  0
 17 15  1  0  0  0  0
 17 16  2  0  0  0  0
 18 10  3  0  0  0  0
 19 11  3  0  0  0  0
 20 15  2  0  0  0  0
 21  5  1  0  0  0  0
 21 16  1  0  0  0  0
 21 20  1  0  0  0  0
 22  6  1  0  0  0  0
 22 41  1  0  0  0  0
 23 14  1  0  0  0  0
 23 17  1  0  0  0  0
M  END
>  <DRUGBANK_ID>
DB11649

>  <COMMON_NAME>
Lersivirine

>  <CAS_NUMBER>
473921-12-9

>  <UNII>
R3ZGC15A9A

>  <SYNONYMS>
Lersivirine

$$$$
