MNY
 OpenBabel10282417133D

 30 32  0  0  0  0  0  0  0  0999 V2000
    2.5266   -1.3872   -0.0026 C   0  0  0  0  0  0  0  0  0  0  0  0
    1.2881   -0.7247   -0.0013 C   0  0  0  0  0  0  0  0  0  0  0  0
    1.2796    0.6742   -0.0003 C   0  0  0  0  0  0  0  0  0  0  0  0
    2.4852    1.3972   -0.0000 C   0  0  0  0  0  0  0  0  0  0  0  0
    3.7010    0.7325    0.0007 C   0  0  0  0  0  0  0  0  0  0  0  0
    3.7221   -0.6619    0.0000 C   0  0  0  0  0  0  0  0  0  0  0  0
    0.0079    1.4040    0.0004 C   0  0  0  0  0  0  0  0  0  0  0  0
   -1.2719    0.6799    0.0001 C   0  0  0  0  0  0  0  0  0  0  0  0
   -1.2860   -0.7200   -0.0002 C   0  0  0  0  0  0  0  0  0  0  0  0
    0.0004   -1.4682   -0.0001 C   0  0  0  0  0  0  0  0  0  0  0  0
   -2.5209   -1.4031    0.0005 C   0  0  0  0  0  0  0  0  0  0  0  0
   -3.7012   -0.6529    0.0000 C   0  0  0  0  0  0  0  0  0  0  0  0
   -3.6760    0.7429    0.0002 C   0  0  0  0  0  0  0  0  0  0  0  0
   -2.4698    1.4283    0.0011 C   0  0  0  0  0  0  0  0  0  0  0  0
   -0.0199   -2.6984    0.0022 O   0  0  0  0  0  0  0  0  0  0  0  0
   -0.0015    2.6360    0.0017 O   0  0  0  0  0  0  0  0  0  0  0  0
    2.5877   -2.7520   -0.0074 O   0  0  0  0  0  0  0  0  0  0  0  0
   -2.6127   -2.7874   -0.0027 N   0  0  0  0  0  0  0  0  0  0  0  0
   -2.4765    2.8156   -0.0028 N   0  0  0  0  0  0  0  0  0  0  0  0
    2.4736    2.7631   -0.0004 O   0  0  0  0  0  0  0  0  0  0  0  0
    4.6313    1.2909    0.0014 H   0  0  0  0  0  0  0  0  0  0  0  0
    4.6819   -1.1691    0.0017 H   0  0  0  0  0  0  0  0  0  0  0  0
   -4.6642   -1.1553   -0.0004 H   0  0  0  0  0  0  0  0  0  0  0  0
   -4.6089    1.2980   -0.0002 H   0  0  0  0  0  0  0  0  0  0  0  0
    3.5016   -3.0735   -0.0134 H   0  0  0  0  0  0  0  0  0  0  0  0
   -3.4858   -3.2899    0.0012 H   0  0  0  0  0  0  0  0  0  0  0  0
   -1.7341   -3.3157    0.0009 H   0  0  0  0  0  0  0  0  0  0  0  0
   -1.5561    3.2750    0.0016 H   0  0  0  0  0  0  0  0  0  0  0  0
   -3.2996    3.3918    0.0033 H   0  0  0  0  0  0  0  0  0  0  0  0
    3.3575    3.1537    0.0002 H   0  0  0  0  0  0  0  0  0  0  0  0
  1  2  2  0  0  0  0
  1  6  1  0  0  0  0
  1 17  1  0  0  0  0
  2  3  1  0  0  0  0
  2 10  1  0  0  0  0
  3  4  2  0  0  0  0
  3  7  1  0  0  0  0
  4  5  1  0  0  0  0
  4 20  1  0  0  0  0
  5  6  2  0  0  0  0
  5 21  1  0  0  0  0
  6 22  1  0  0  0  0
  7  8  1  0  0  0  0
  7 16  2  0  0  0  0
  8  9  2  0  0  0  0
  8 14  1  0  0  0  0
  9 10  1  0  0  0  0
  9 11  1  0  0  0  0
 10 15  2  0  0  0  0
 11 12  2  0  0  0  0
 11 18  1  0  0  0  0
 12 13  1  0  0  0  0
 12 23  1  0  0  0  0
 13 14  2  0  0  0  0
 13 24  1  0  0  0  0
 14 19  1  0  0  0  0
 17 25  1  0  0  0  0
 18 26  1  0  0  0  0
 18 27  1  0  0  0  0
 19 28  1  0  0  0  0
 19 29  1  0  0  0  0
 20 30  1  0  0  0  0
M  END
>  <DRUGBANK_ID>
DB03924

>  <SECONDARY_ACCESSION_NUMBERS>
EXPT02206

>  <COMMON_NAME>
5,8-Di-Amino-1,4-Dihydroxy-Anthraquinone

>  <UNII>
58SUQ7J26N

$$$$
