
 OpenBabel10282417163D

 37 39  0  0  0  0  0  0  0  0999 V2000
    1.3901    2.2852   -1.5782 N   0  0  0  0  0  0  0  0  0  0  0  0
    0.4931    2.7714   -0.5100 C   0  0  0  0  0  0  0  0  0  0  0  0
    0.9084    2.2894    0.9172 C   0  0  2  0  0  0  0  0  0  0  0  0
    0.8376    0.7653    0.9754 C   0  0  0  0  0  0  0  0  0  0  0  0
   -0.3047   -0.0259    1.1817 C   0  0  0  0  0  0  0  0  0  0  0  0
   -0.2566   -1.3954    0.8657 C   0  0  0  0  0  0  0  0  0  0  0  0
    0.9022   -1.9479    0.3110 C   0  0  0  0  0  0  0  0  0  0  0  0
    0.9411   -3.5850   -0.2093 Cl  0  0  0  0  0  0  0  0  0  0  0  0
    2.0417   -1.1774    0.1484 C   0  0  0  0  0  0  0  0  0  0  0  0
    2.0227    0.1447    0.5433 C   0  0  0  0  0  0  0  0  0  0  0  0
    0.4550    3.1320    2.0874 C   0  0  0  0  0  0  0  0  0  0  0  0
    0.1911    2.5890    3.3511 C   0  0  0  0  0  0  0  0  0  0  0  0
    0.0386    3.4226    4.4610 C   0  0  0  0  0  0  0  0  0  0  0  0
    0.1707    4.8029    4.3108 C   0  0  0  0  0  0  0  0  0  0  0  0
    0.4896    5.3517    3.0742 C   0  0  0  0  0  0  0  0  0  0  0  0
    0.5956    4.5284    1.9681 C   0  0  0  0  0  0  0  0  0  0  0  0
   -0.1027    5.7134    5.3880 C   0  0  0  0  0  0  0  0  0  0  0  0
   -0.9660    6.8290    5.3829 C   0  0  0  0  0  0  0  0  0  0  0  0
   -0.9241    7.4975    6.5345 N   0  0  0  0  0  0  0  0  0  0  0  0
   -0.0317    6.8064    7.2683 N   0  0  0  0  0  0  0  0  0  0  0  0
    0.4753    5.7121    6.6261 C   0  0  0  0  0  0  0  0  0  0  0  0
    2.3563    2.4877   -1.3166 H   0  0  0  0  0  0  0  0  0  0  0  0
    1.3320    1.2652   -1.6111 H   0  0  0  0  0  0  0  0  0  0  0  0
    0.5230    3.8585   -0.5946 H   0  0  0  0  0  0  0  0  0  0  0  0
   -0.5344    2.4693   -0.7373 H   0  0  0  0  0  0  0  0  0  0  0  0
    1.9854    2.5117    0.9859 H   0  0  0  0  0  0  0  0  0  0  0  0
   -1.2432    0.3926    1.5453 H   0  0  0  0  0  0  0  0  0  0  0  0
   -1.1350   -2.0231    1.0038 H   0  0  0  0  0  0  0  0  0  0  0  0
    2.9384   -1.5626   -0.3238 H   0  0  0  0  0  0  0  0  0  0  0  0
    2.9166    0.7454    0.3874 H   0  0  0  0  0  0  0  0  0  0  0  0
    0.1414    1.5144    3.5033 H   0  0  0  0  0  0  0  0  0  0  0  0
   -0.1792    2.9835    5.4303 H   0  0  0  0  0  0  0  0  0  0  0  0
    0.6771    6.4176    2.9614 H   0  0  0  0  0  0  0  0  0  0  0  0
    0.8601    5.0048    1.0286 H   0  0  0  0  0  0  0  0  0  0  0  0
   -1.6082    7.1694    4.5803 H   0  0  0  0  0  0  0  0  0  0  0  0
    0.1888    7.1488    8.1926 H   0  0  0  0  0  0  0  0  0  0  0  0
    1.2114    5.0684    7.0947 H   0  0  0  0  0  0  0  0  0  0  0  0
  1 22  1  0  0  0  0
  1 23  1  0  0  0  0
  2  1  1  0  0  0  0
  2 24  1  0  0  0  0
  2 25  1  0  0  0  0
  3 11  1  0  0  0  0
  3 26  1  6  0  0  0
  3  4  1  0  0  0  0
  3  2  1  0  0  0  0
  4  5  1  0  0  0  0
  5  6  2  0  0  0  0
  5 27  1  0  0  0  0
  6  7  1  0  0  0  0
  6 28  1  0  0  0  0
  7  8  1  0  0  0  0
  7  9  2  0  0  0  0
  9 29  1  0  0  0  0
 10  4  2  0  0  0  0
 10  9  1  0  0  0  0
 10 30  1  0  0  0  0
 11 12  1  0  0  0  0
 11 16  2  0  0  0  0
 12 13  2  0  0  0  0
 12 31  1  0  0  0  0
 13 14  1  0  0  0  0
 13 32  1  0  0  0  0
 14 15  2  0  0  0  0
 14 17  1  0  0  0  0
 15 16  1  0  0  0  0
 15 33  1  0  0  0  0
 16 34  1  0  0  0  0
 17 18  1  0  0  0  0
 17 21  2  0  0  0  0
 18 19  2  0  0  0  0
 18 35  1  0  0  0  0
 19 20  1  0  0  0  0
 20 36  1  0  0  0  0
 21 20  1  0  0  0  0
 21 37  1  0  0  0  0
M  END
>  <DRUGBANK_ID>
DB07858

>  <COMMON_NAME>
(2S)-2-(4-chlorophenyl)-2-[4-(1H-pyrazol-4-yl)phenyl]ethanamine

$$$$
