
 OpenBabel10282417133D

 21 21  0  0  1  0  0  0  0  0999 V2000
   -1.0977    0.0473    1.2494 C   0  0  0  0  0  0  0  0  0  0  0  0
    0.5372   -0.8932    3.7673 C   0  0  0  0  0  0  0  0  0  0  0  0
    0.9131    0.4909    4.2972 C   0  0  0  0  0  0  0  0  0  0  0  0
    0.4167    0.1135    1.4534 C   0  0  2  0  0  0  0  0  0  0  0  0
    0.9523   -1.0505    2.3047 C   0  0  1  0  0  0  0  0  0  0  0  0
    0.4802    1.6178    3.3591 C   0  0  2  0  0  0  0  0  0  0  0  0
    2.3830   -1.0851    2.2470 O   0  0  0  0  0  0  0  0  0  0  0  0
   -0.8906    1.9429    3.4896 O   0  0  0  0  0  0  0  0  0  0  0  0
    0.8344    1.3711    2.0048 O   0  0  0  0  0  0  0  0  0  0  0  0
    0.8875    0.0737    0.4635 H   0  0  0  0  0  0  0  0  0  0  0  0
    0.5979   -2.0081    1.9094 H   0  0  0  0  0  0  0  0  0  0  0  0
    1.0193    2.5249    3.6520 H   0  0  0  0  0  0  0  0  0  0  0  0
   -1.3492   -0.6549    0.4493 H   0  0  0  0  0  0  0  0  0  0  0  0
   -1.5107    1.0303    1.0037 H   0  0  0  0  0  0  0  0  0  0  0  0
   -1.6215   -0.3103    2.1405 H   0  0  0  0  0  0  0  0  0  0  0  0
    1.0259   -1.6569    4.3827 H   0  0  0  0  0  0  0  0  0  0  0  0
   -0.5422   -1.0440    3.8732 H   0  0  0  0  0  0  0  0  0  0  0  0
    0.4825    0.6318    5.2942 H   0  0  0  0  0  0  0  0  0  0  0  0
    2.0045    0.5265    4.4015 H   0  0  0  0  0  0  0  0  0  0  0  0
    2.7052   -0.1743    2.3785 H   0  0  0  0  0  0  0  0  0  0  0  0
   -1.3916    1.1224    3.6078 H   0  0  0  0  0  0  0  0  0  0  0  0
  1 13  1  0  0  0  0
  1 14  1  0  0  0  0
  1 15  1  0  0  0  0
  2 16  1  0  0  0  0
  2 17  1  0  0  0  0
  3  2  1  0  0  0  0
  3 18  1  0  0  0  0
  3 19  1  0  0  0  0
  4 10  1  6  0  0  0
  4  1  1  0  0  0  0
  5  2  1  0  0  0  0
  5  4  1  0  0  0  0
  5  7  1  0  0  0  0
  5 11  1  6  0  0  0
  6  3  1  0  0  0  0
  6  8  1  0  0  0  0
  6 12  1  1  0  0  0
  7 20  1  0  0  0  0
  8 21  1  0  0  0  0
  9  4  1  0  0  0  0
  9  6  1  0  0  0  0
M  END
>  <DRUGBANK_ID>
DB03872

>  <SECONDARY_ACCESSION_NUMBERS>
EXPT00876

>  <COMMON_NAME>
2,3-Dideoxyfucose

$$$$
