4822
 OpenBabel10282417143D

 57 57  0  0  0  0  0  0  0  0999 V2000
    1.0891   -0.0815   -0.2268 O   0  0  0  0  0  0  0  0  0  0  0  0
    1.0836   -0.7007   -2.4077 O   0  0  0  0  0  0  0  0  0  0  0  0
    2.6314   -1.0656    2.4047 O   0  0  0  0  0  0  0  0  0  0  0  0
    1.2281    2.0598    1.7538 N   0  0  0  0  0  0  0  0  0  0  0  0
   -1.1412   -0.2866   -1.3192 C   0  0  0  0  0  0  0  0  0  0  0  0
   -1.8089   -1.3065   -0.3076 C   0  0  0  0  0  0  0  0  0  0  0  0
   -1.5777    1.1598   -0.9376 C   0  0  0  0  0  0  0  0  0  0  0  0
   -1.7212   -0.7266   -2.6918 C   0  0  0  0  0  0  0  0  0  0  0  0
    0.4434   -0.3785   -1.3829 C   0  0  0  0  0  0  0  0  0  0  0  0
   -1.5710   -1.0193    1.1395 C   0  0  0  0  0  0  0  0  0  0  0  0
   -0.9777    2.2807   -1.7850 C   0  0  0  0  0  0  0  0  0  0  0  0
   -1.5498   -2.0597   -3.1085 C   0  0  0  0  0  0  0  0  0  0  0  0
   -2.4324    0.1267   -3.5472 C   0  0  0  0  0  0  0  0  0  0  0  0
    2.5316   -0.3410   -0.1686 C   0  0  0  0  0  0  0  0  0  0  0  0
   -2.0435   -2.4990   -4.3319 C   0  0  0  0  0  0  0  0  0  0  0  0
   -2.8824   -0.2951   -4.7914 C   0  0  0  0  0  0  0  0  0  0  0  0
    0.8222    0.8962    2.6655 C   0  0  0  0  0  0  0  0  0  0  0  0
    3.1647   -0.3896    1.2720 C   0  0  0  0  0  0  0  0  0  0  0  0
    1.2696   -0.6591    2.5343 C   0  0  0  0  0  0  0  0  0  0  0  0
   -2.6790   -1.6069   -5.1875 C   0  0  0  0  0  0  0  0  0  0  0  0
    0.4554    3.2844    2.0635 C   0  0  0  0  0  0  0  0  0  0  0  0
    2.6582    2.4959    1.6830 C   0  0  0  0  0  0  0  0  0  0  0  0
    0.7656    3.8443    3.4477 C   0  0  0  0  0  0  0  0  0  0  0  0
    3.4282    2.3582    3.0055 C   0  0  0  0  0  0  0  0  0  0  0  0
   -2.8936   -1.3570   -0.4426 H   0  0  0  0  0  0  0  0  0  0  0  0
   -1.4050   -2.3148   -0.4710 H   0  0  0  0  0  0  0  0  0  0  0  0
   -2.6773    1.2185   -0.9461 H   0  0  0  0  0  0  0  0  0  0  0  0
   -1.2835    1.3928    0.0897 H   0  0  0  0  0  0  0  0  0  0  0  0
   -1.8498   -0.0254    1.4774 H   0  0  0  0  0  0  0  0  0  0  0  0
   -1.8992   -1.7752    1.8535 H   0  0  0  0  0  0  0  0  0  0  0  0
   -0.5278   -1.0965    1.1460 H   0  0  0  0  0  0  0  0  0  0  0  0
   -1.1433    2.1942   -2.8580 H   0  0  0  0  0  0  0  0  0  0  0  0
   -1.4123    3.2372   -1.4810 H   0  0  0  0  0  0  0  0  0  0  0  0
    0.1042    2.3183   -1.6571 H   0  0  0  0  0  0  0  0  0  0  0  0
   -1.0203   -2.7767   -2.4841 H   0  0  0  0  0  0  0  0  0  0  0  0
   -2.6737    1.1506   -3.2955 H   0  0  0  0  0  0  0  0  0  0  0  0
    2.7637   -1.2689   -0.6870 H   0  0  0  0  0  0  0  0  0  0  0  0
    3.0009    0.4987   -0.7054 H   0  0  0  0  0  0  0  0  0  0  0  0
   -1.9185   -3.5391   -4.6126 H   0  0  0  0  0  0  0  0  0  0  0  0
   -3.4005    0.4125   -5.4313 H   0  0  0  0  0  0  0  0  0  0  0  0
   -0.2785    0.8721    2.6135 H   0  0  0  0  0  0  0  0  0  0  0  0
    1.0106    1.1533    3.7090 H   0  0  0  0  0  0  0  0  0  0  0  0
    4.2556   -0.3257    1.2981 H   0  0  0  0  0  0  0  0  0  0  0  0
    2.9096    0.5301    1.6586 H   0  0  0  0  0  0  0  0  0  0  0  0
    0.9547   -1.1011    1.6241 H   0  0  0  0  0  0  0  0  0  0  0  0
    0.7593   -1.2558    3.3013 H   0  0  0  0  0  0  0  0  0  0  0  0
   -3.0249   -1.9324   -6.1610 H   0  0  0  0  0  0  0  0  0  0  0  0
    0.7089    4.0473    1.3115 H   0  0  0  0  0  0  0  0  0  0  0  0
   -0.6199    3.1208    1.9429 H   0  0  0  0  0  0  0  0  0  0  0  0
    3.2288    1.9739    0.9027 H   0  0  0  0  0  0  0  0  0  0  0  0
    2.7580    3.4710    1.1923 H   0  0  0  0  0  0  0  0  0  0  0  0
    1.7984    4.1803    3.5086 H   0  0  0  0  0  0  0  0  0  0  0  0
    0.1778    4.7311    3.6713 H   0  0  0  0  0  0  0  0  0  0  0  0
    0.5989    3.1034    4.2335 H   0  0  0  0  0  0  0  0  0  0  0  0
    2.9826    1.6182    3.6785 H   0  0  0  0  0  0  0  0  0  0  0  0
    4.4484    2.0109    2.8353 H   0  0  0  0  0  0  0  0  0  0  0  0
    3.4871    3.2967    3.5484 H   0  0  0  0  0  0  0  0  0  0  0  0
  1  9  1  0  0  0  0
  1 14  1  0  0  0  0
  2  9  2  0  0  0  0
  3 18  1  0  0  0  0
  3 19  1  0  0  0  0
  4 17  1  0  0  0  0
  4 21  1  0  0  0  0
  4 22  1  0  0  0  0
  5  6  1  0  0  0  0
  5  7  1  0  0  0  0
  5  8  1  0  0  0  0
  5  9  1  0  0  0  0
  6 10  1  0  0  0  0
  6 25  1  0  0  0  0
  6 26  1  0  0  0  0
  7 11  1  0  0  0  0
  7 27  1  0  0  0  0
  7 28  1  0  0  0  0
  8 12  2  0  0  0  0
  8 13  1  0  0  0  0
 10 29  1  0  0  0  0
 10 30  1  0  0  0  0
 10 31  1  0  0  0  0
 11 32  1  0  0  0  0
 11 33  1  0  0  0  0
 11 34  1  0  0  0  0
 12 15  1  0  0  0  0
 12 35  1  0  0  0  0
 13 16  2  0  0  0  0
 13 36  1  0  0  0  0
 14 18  1  0  0  0  0
 14 37  1  0  0  0  0
 14 38  1  0  0  0  0
 15 20  2  0  0  0  0
 15 39  1  0  0  0  0
 16 20  1  0  0  0  0
 16 40  1  0  0  0  0
 17 19  1  0  0  0  0
 17 41  1  0  0  0  0
 17 42  1  0  0  0  0
 18 43  1  0  0  0  0
 18 44  1  0  0  0  0
 19 45  1  0  0  0  0
 19 46  1  0  0  0  0
 20 47  1  0  0  0  0
 21 23  1  0  0  0  0
 21 48  1  0  0  0  0
 21 49  1  0  0  0  0
 22 24  1  0  0  0  0
 22 50  1  0  0  0  0
 22 51  1  0  0  0  0
 23 52  1  0  0  0  0
 23 53  1  0  0  0  0
 23 54  1  0  0  0  0
 24 55  1  0  0  0  0
 24 56  1  0  0  0  0
 24 57  1  0  0  0  0
M  END
>  <DRUGBANK_ID>
DB04822

>  <COMMON_NAME>
Oxeladin

>  <CAS_NUMBER>
468-61-1

>  <UNII>
SNC1080T5Y

>  <SYNONYMS>
2-(2-Diethylaminoethoxy)ethyl 2-ethyl-2-phenylbutyrate; Oxeladin; Oxeladina; Oxeladine; Oxeladinum

$$$$
