
 OpenBabel10282417183D

 48 49  0  0  0  0  0  0  0  0999 V2000
   -0.0742   -1.5280    0.5918 C   0  0  3  0  0  0  0  0  0  0  0  0
   -0.4132   -2.8292    1.7520 C   0  0  0  0  0  0  0  0  0  0  0  0
   -1.2874   -0.6739    0.5330 C   0  0  0  0  0  0  0  0  0  0  0  0
    1.3085   -0.7697    0.3805 C   0  0  0  0  0  0  0  0  0  0  0  0
   -1.6724   -3.9708    1.7553 C   0  0  0  0  0  0  0  0  0  0  0  0
    0.8394   -3.1077    2.3800 C   0  0  0  0  0  0  0  0  0  0  0  0
   -1.3148    0.5781    0.0795 C   0  0  0  0  0  0  0  0  0  0  0  0
   -2.4579   -1.4221    0.4257 C   0  0  0  0  0  0  0  0  0  0  0  0
    1.0590    0.5328   -0.0088 C   0  0  0  0  0  0  0  0  0  0  0  0
    2.6857   -1.5984    0.3936 C   0  0  0  0  0  0  0  0  0  0  0  0
   -1.2646   -5.1995    2.3023 C   0  0  0  0  0  0  0  0  0  0  0  0
   -3.1773   -4.3355    0.7248 N   0  3  0  0  0  0  0  0  0  0  0  0
    1.0589   -4.3744    2.8820 C   0  0  0  0  0  0  0  0  0  0  0  0
   -0.1462    1.0927   -0.3181 N   0  0  0  0  0  0  0  0  0  0  0  0
   -2.4963    1.4525    0.0692 C   0  0  0  0  0  0  0  0  0  0  0  0
   -2.0542   -2.5640   -0.1100 O   0  0  0  0  0  0  0  0  0  0  0  0
   -3.6356   -1.1135    0.7647 O   0  0  0  0  0  0  0  0  0  0  0  0
    1.9991    1.6326   -0.0597 C   0  0  0  0  0  0  0  0  0  0  0  0
    3.9444   -1.1187    0.6412 O   0  0  0  0  0  0  0  0  0  0  0  0
    2.6850   -2.8244    0.2632 O   0  0  0  0  0  0  0  0  0  0  0  0
    0.0301   -5.3449    2.8837 C   0  0  0  0  0  0  0  0  0  0  0  0
   -3.7031   -5.4298    0.9456 O   0  0  0  0  0  0  0  0  0  0  0  0
   -3.5952   -3.7620   -0.3242 O   0  5  0  0  0  0  0  0  0  0  0  0
   -1.1163   -3.7285   -0.6005 C   0  0  0  0  0  0  0  0  0  0  0  0
    4.3097    0.2373    0.6170 C   0  0  0  0  0  0  0  0  0  0  0  0
   -0.6092   -3.7710   -1.9433 C   0  0  0  0  0  0  0  0  0  0  0  0
    0.8382   -3.4113   -1.9408 C   0  0  0  0  0  0  0  0  0  0  0  0
   -1.2948   -4.1352   -2.8807 O   0  0  0  0  0  0  0  0  0  0  0  0
   -0.1027   -1.8567   -0.4523 H   0  0  0  0  0  0  0  0  0  0  0  0
    1.6988   -2.4312    2.3705 H   0  0  0  0  0  0  0  0  0  0  0  0
   -1.8524   -6.1088    2.1330 H   0  0  0  0  0  0  0  0  0  0  0  0
    2.0600   -4.6253    3.2520 H   0  0  0  0  0  0  0  0  0  0  0  0
   -0.1547    2.0831   -0.5559 H   0  0  0  0  0  0  0  0  0  0  0  0
   -2.3450    2.1017    0.9346 H   0  0  0  0  0  0  0  0  0  0  0  0
   -2.5503    2.0035   -0.8680 H   0  0  0  0  0  0  0  0  0  0  0  0
   -3.4440    0.9463    0.2062 H   0  0  0  0  0  0  0  0  0  0  0  0
    2.2120    2.1761   -0.9733 H   0  0  0  0  0  0  0  0  0  0  0  0
    2.0456    2.1834    0.8823 H   0  0  0  0  0  0  0  0  0  0  0  0
    2.7519    0.9639   -0.1157 H   0  0  0  0  0  0  0  0  0  0  0  0
    0.2587   -6.2723    3.4043 H   0  0  0  0  0  0  0  0  0  0  0  0
   -0.2241   -3.6508   -0.0278 H   0  0  0  0  0  0  0  0  0  0  0  0
   -1.2938   -4.7788   -0.2730 H   0  0  0  0  0  0  0  0  0  0  0  0
    4.2358    0.5143   -0.4504 H   0  0  0  0  0  0  0  0  0  0  0  0
    3.6876    0.7013    1.3953 H   0  0  0  0  0  0  0  0  0  0  0  0
    5.3168    0.5691    0.8338 H   0  0  0  0  0  0  0  0  0  0  0  0
    1.4671   -4.2010   -2.3078 H   0  0  0  0  0  0  0  0  0  0  0  0
    0.9231   -2.3944   -2.3010 H   0  0  0  0  0  0  0  0  0  0  0  0
    1.1855   -3.3777   -0.9101 H   0  0  0  0  0  0  0  0  0  0  0  0
  1  4  1  0  0  0  0
  1  2  1  0  0  0  0
  1  3  1  0  0  0  0
  1 29  1  0  0  0  0
  2  5  1  0  0  0  0
  2  6  2  0  0  0  0
  3  7  2  0  0  0  0
  3  8  1  0  0  0  0
  4  9  2  0  0  0  0
  4 10  1  0  0  0  0
  5 11  2  0  0  0  0
  5 12  1  0  0  0  0
  6 13  1  0  0  0  0
  6 30  1  0  0  0  0
  7 14  1  0  0  0  0
  7 15  1  0  0  0  0
  8 16  1  0  0  0  0
  8 17  2  0  0  0  0
  9 18  1  0  0  0  0
  9 14  1  0  0  0  0
 10 19  1  0  0  0  0
 10 20  2  0  0  0  0
 11 21  1  0  0  0  0
 11 31  1  0  0  0  0
 12 22  2  0  0  0  0
 12 23  1  0  0  0  0
 13 21  2  0  0  0  0
 13 32  1  0  0  0  0
 14 33  1  0  0  0  0
 15 34  1  0  0  0  0
 15 35  1  0  0  0  0
 15 36  1  0  0  0  0
 16 24  1  0  0  0  0
 18 37  1  0  0  0  0
 18 38  1  0  0  0  0
 18 39  1  0  0  0  0
 19 25  1  0  0  0  0
 21 40  1  0  0  0  0
 24 26  1  0  0  0  0
 24 41  1  0  0  0  0
 24 42  1  0  0  0  0
 25 43  1  0  0  0  0
 25 44  1  0  0  0  0
 25 45  1  0  0  0  0
 26 27  1  0  0  0  0
 26 28  2  0  0  0  0
 27 46  1  0  0  0  0
 27 47  1  0  0  0  0
 27 48  1  0  0  0  0
M  CHG  2  12   1  23  -1
M  END
>  <DRUGBANK_ID>
DB09229

>  <COMMON_NAME>
Aranidipine

>  <CAS_NUMBER>
86780-90-7

>  <UNII>
4Y7UR6X2PO

>  <SYNONYMS>
Aranidipine

$$$$
