8CA
 OpenBabel10282417163D

 42 45  0  0  0  0  0  0  0  0999 V2000
    1.0841   -0.0703    0.0320 O   0  0  0  0  0  0  0  0  0  0  0  0
    2.2972   -0.1016    0.0153 C   0  0  0  0  0  0  0  0  0  0  0  0
    3.0201    0.1666   -1.0961 O   0  0  0  0  0  0  0  0  0  0  0  0
    3.0923   -0.5526    1.1802 C   0  0  0  0  0  0  0  0  0  0  0  0
    2.6706   -1.7788    1.7500 C   0  0  0  0  0  0  0  0  0  0  0  0
    3.2568   -2.3056    2.8933 C   0  0  0  0  0  0  0  0  0  0  0  0
    4.2884   -1.6175    3.5068 C   0  0  0  0  0  0  0  0  0  0  0  0
    4.7432   -0.4008    2.9643 C   0  0  0  0  0  0  0  0  0  0  0  0
    5.7663    0.4560    3.4011 C   0  0  0  0  0  0  0  0  0  0  0  0
    6.6637    0.3228    4.5934 C   0  0  0  0  0  0  0  0  0  0  0  0
    7.8787    1.2526    4.4747 C   0  0  0  0  0  0  0  0  0  0  0  0
    7.4083    2.6433    4.1060 C   0  0  0  0  0  0  0  0  0  0  0  0
    6.7810    2.6319    2.7182 C   0  0  0  0  0  0  0  0  0  0  0  0
    5.8030    1.5259    2.5417 C   0  0  0  0  0  0  0  0  0  0  0  0
    4.7957    1.3942    1.5934 N   0  0  0  0  0  0  0  0  0  0  0  0
    4.1539    0.1567    1.8046 C   0  0  0  0  0  0  0  0  0  0  0  0
    4.5369    2.3443    0.4889 C   0  0  0  0  0  0  0  0  0  0  0  0
    4.0139    3.6998    0.8790 C   0  0  0  0  0  0  0  0  0  0  0  0
    4.8089    4.6426    1.5146 C   0  0  0  0  0  0  0  0  0  0  0  0
    4.2613    5.6878    2.2373 C   0  0  0  0  0  0  0  0  0  0  0  0
    2.9689    6.0653    1.9412 C   0  0  0  0  0  0  0  0  0  0  0  0
    2.2478    5.3399    0.9946 C   0  0  0  0  0  0  0  0  0  0  0  0
    2.7242    4.1069    0.5455 C   0  0  0  0  0  0  0  0  0  0  0  0
    3.9845    0.0786   -0.9923 H   0  0  0  0  0  0  0  0  0  0  0  0
    1.8442   -2.3265    1.2979 H   0  0  0  0  0  0  0  0  0  0  0  0
    2.9096   -3.2410    3.3234 H   0  0  0  0  0  0  0  0  0  0  0  0
    4.7469   -2.0065    4.4136 H   0  0  0  0  0  0  0  0  0  0  0  0
    7.0065   -0.7087    4.7060 H   0  0  0  0  0  0  0  0  0  0  0  0
    6.0888    0.5897    5.4903 H   0  0  0  0  0  0  0  0  0  0  0  0
    8.5522    0.8912    3.6881 H   0  0  0  0  0  0  0  0  0  0  0  0
    8.4361    1.2865    5.4136 H   0  0  0  0  0  0  0  0  0  0  0  0
    8.2137    3.3838    4.1337 H   0  0  0  0  0  0  0  0  0  0  0  0
    6.6477    2.9811    4.8280 H   0  0  0  0  0  0  0  0  0  0  0  0
    7.5293    2.6291    1.9192 H   0  0  0  0  0  0  0  0  0  0  0  0
    6.2733    3.5657    2.7793 H   0  0  0  0  0  0  0  0  0  0  0  0
    5.4358    2.3907   -0.1337 H   0  0  0  0  0  0  0  0  0  0  0  0
    3.7574    1.9187   -0.1209 H   0  0  0  0  0  0  0  0  0  0  0  0
    5.8853    4.5779    1.4463 H   0  0  0  0  0  0  0  0  0  0  0  0
    4.8660    6.2296    2.9589 H   0  0  0  0  0  0  0  0  0  0  0  0
    2.5570    6.9593    2.3944 H   0  0  0  0  0  0  0  0  0  0  0  0
    1.3059    5.7240    0.6198 H   0  0  0  0  0  0  0  0  0  0  0  0
    2.0975    3.4939   -0.0997 H   0  0  0  0  0  0  0  0  0  0  0  0
  1  2  2  0  0  0  0
  2  4  1  0  0  0  0
  3  2  1  0  0  0  0
  3 24  1  0  0  0  0
  4  5  1  0  0  0  0
  5  6  2  0  0  0  0
  5 25  1  0  0  0  0
  6 26  1  0  0  0  0
  7  6  1  0  0  0  0
  7 27  1  0  0  0  0
  8  7  2  0  0  0  0
  9  8  1  0  0  0  0
  9 10  1  0  0  0  0
 10 28  1  0  0  0  0
 10 29  1  0  0  0  0
 11 10  1  0  0  0  0
 11 30  1  0  0  0  0
 11 31  1  0  0  0  0
 12 11  1  0  0  0  0
 12 32  1  0  0  0  0
 12 33  1  0  0  0  0
 13 12  1  0  0  0  0
 13 14  1  0  0  0  0
 13 34  1  0  0  0  0
 13 35  1  0  0  0  0
 14  9  2  0  0  0  0
 15 14  1  0  0  0  0
 15 16  1  0  0  0  0
 16  4  2  0  0  0  0
 16  8  1  0  0  0  0
 17 15  1  0  0  0  0
 17 36  1  0  0  0  0
 17 37  1  0  0  0  0
 18 17  1  0  0  0  0
 18 19  1  0  0  0  0
 19 38  1  0  0  0  0
 20 19  2  0  0  0  0
 20 39  1  0  0  0  0
 21 20  1  0  0  0  0
 21 40  1  0  0  0  0
 22 21  2  0  0  0  0
 22 23  1  0  0  0  0
 22 41  1  0  0  0  0
 23 18  2  0  0  0  0
 23 42  1  0  0  0  0
M  END
>  <DRUGBANK_ID>
DB07283

>  <COMMON_NAME>
9-benzyl-2,3,4,9-tetrahydro-1H-carbazole-8-carboxylic acid

$$$$
