11M
 OpenBabel10282417163D

 53 57  0  0  0  0  0  0  0  0999 V2000
    2.8906   -0.7487    0.0180 C   0  0  0  0  0  0  0  0  0  0  0  0
    3.5180    0.4944   -0.0169 C   0  0  0  0  0  0  0  0  0  0  0  0
    2.7461    1.6719   -0.0498 C   0  0  0  0  0  0  0  0  0  0  0  0
   -0.5834   -1.5915    0.0438 C   0  0  0  0  0  0  0  0  0  0  0  0
   -1.6233    0.4219   -1.1600 C   0  0  0  0  0  0  0  0  0  0  0  0
   -2.9575    0.0166    1.4756 C   0  0  0  0  0  0  0  0  0  0  0  0
   -0.7668   -0.0404    0.0572 C   0  0  0  0  0  0  0  0  0  0  0  0
   -4.7449    1.5728    0.5990 C   0  0  0  0  0  0  0  0  0  0  0  0
   -7.1889    4.1593    2.6446 C   0  0  0  0  0  0  0  0  0  0  0  0
   -6.8749    3.9835    5.0281 C   0  0  0  0  0  0  0  0  0  0  0  0
   -5.3202    2.3787    5.8660 C   0  0  0  0  0  0  0  0  0  0  0  0
    1.3267    1.5858   -0.0333 C   0  0  0  0  0  0  0  0  0  0  0  0
    0.6993    0.3425    0.0028 C   0  0  0  0  0  0  0  0  0  0  0  0
    1.5011   -0.7910    0.0240 C   0  0  0  0  0  0  0  0  0  0  0  0
    0.8121   -1.9674    0.0627 O   0  0  0  0  0  0  0  0  0  0  0  0
   -3.1538    0.1411   -0.9545 C   0  0  0  0  0  0  0  0  0  0  0  0
   -3.6819    0.6214    0.4083 N   0  0  0  0  0  0  0  0  0  0  0  0
   -1.4777    0.4232    1.3702 C   0  0  0  0  0  0  0  0  0  0  0  0
   -5.1940    1.9250   -0.5371 O   0  0  0  0  0  0  0  0  0  0  0  0
    3.4405    3.0150   -0.0977 C   0  0  0  0  0  0  0  0  0  0  0  0
    3.0693    3.7565   -1.2961 N   0  0  0  0  0  0  0  0  0  0  0  0
   -5.4227    2.2753    1.9103 C   0  0  0  0  0  0  0  0  0  0  0  0
   -5.5715    2.4526    3.3530 C   0  0  0  0  0  0  0  0  0  0  0  0
   -6.5689    3.5678    3.7109 C   0  0  0  0  0  0  0  0  0  0  0  0
   -6.6005    3.4827    1.2056 S   0  0  0  0  0  0  0  0  0  0  0  0
   -6.1928    3.4452    6.0946 C   0  0  0  0  0  0  0  0  0  0  0  0
   -5.0020    1.8090    4.5411 C   0  0  0  0  0  0  0  0  0  0  0  0
   -8.4067    5.4583    2.4824 S   0  0  0  0  0  0  0  0  0  0  0  0
   -8.9118    6.0261    4.1190 C   0  0  0  0  0  0  0  0  0  0  0  0
    3.4789   -1.6614    0.0398 H   0  0  0  0  0  0  0  0  0  0  0  0
    4.6068    0.5412   -0.0225 H   0  0  0  0  0  0  0  0  0  0  0  0
   -1.0370   -2.0613    0.9211 H   0  0  0  0  0  0  0  0  0  0  0  0
   -1.0218   -2.0591   -0.8449 H   0  0  0  0  0  0  0  0  0  0  0  0
   -1.4836    1.4938   -1.3478 H   0  0  0  0  0  0  0  0  0  0  0  0
   -1.2582   -0.0732   -2.0788 H   0  0  0  0  0  0  0  0  0  0  0  0
   -3.4182    0.3090    2.4121 H   0  0  0  0  0  0  0  0  0  0  0  0
   -3.0791   -1.0688    1.3572 H   0  0  0  0  0  0  0  0  0  0  0  0
   -7.6215    4.6894    5.3192 H   0  0  0  0  0  0  0  0  0  0  0  0
   -4.8996    1.9659    6.7903 H   0  0  0  0  0  0  0  0  0  0  0  0
    0.7443    2.5027   -0.0578 H   0  0  0  0  0  0  0  0  0  0  0  0
   -3.2748   -0.9553   -0.9896 H   0  0  0  0  0  0  0  0  0  0  0  0
   -3.7267    0.5184   -1.8134 H   0  0  0  0  0  0  0  0  0  0  0  0
   -1.4238    1.5185    1.4272 H   0  0  0  0  0  0  0  0  0  0  0  0
   -0.9595    0.0203    2.2430 H   0  0  0  0  0  0  0  0  0  0  0  0
    3.1777    3.5884    0.7978 H   0  0  0  0  0  0  0  0  0  0  0  0
    4.5318    2.8923   -0.0837 H   0  0  0  0  0  0  0  0  0  0  0  0
    3.5816    4.6351   -1.3232 H   0  0  0  0  0  0  0  0  0  0  0  0
    3.3654    3.2230   -2.1127 H   0  0  0  0  0  0  0  0  0  0  0  0
   -6.4118    3.8529    7.0893 H   0  0  0  0  0  0  0  0  0  0  0  0
   -4.3990    0.9112    4.5557 H   0  0  0  0  0  0  0  0  0  0  0  0
   -9.3966    5.2175    4.6802 H   0  0  0  0  0  0  0  0  0  0  0  0
   -8.0614    6.4475    4.6692 H   0  0  0  0  0  0  0  0  0  0  0  0
   -9.6475    6.8308    4.0595 H   0  0  0  0  0  0  0  0  0  0  0  0
  1  2  2  0  0  0  0
  1 14  1  0  0  0  0
  1 30  1  0  0  0  0
  2  3  1  0  0  0  0
  2 31  1  0  0  0  0
  3 12  2  0  0  0  0
  3 20  1  0  0  0  0
  4  7  1  0  0  0  0
  4 15  1  0  0  0  0
  4 32  1  0  0  0  0
  4 33  1  0  0  0  0
  5  7  1  0  0  0  0
  5 16  1  0  0  0  0
  5 34  1  0  0  0  0
  5 35  1  0  0  0  0
  6 17  1  0  0  0  0
  6 18  1  0  0  0  0
  6 36  1  0  0  0  0
  6 37  1  0  0  0  0
  7 13  1  0  0  0  0
  7 18  1  0  0  0  0
  8 17  1  0  0  0  0
  8 19  2  0  0  0  0
  8 22  1  0  0  0  0
  9 24  2  0  0  0  0
  9 25  1  0  0  0  0
  9 28  1  0  0  0  0
 10 24  1  0  0  0  0
 10 26  2  0  0  0  0
 10 38  1  0  0  0  0
 11 26  1  0  0  0  0
 11 27  2  0  0  0  0
 11 39  1  0  0  0  0
 12 13  1  0  0  0  0
 12 40  1  0  0  0  0
 13 14  2  0  0  0  0
 14 15  1  0  0  0  0
 16 17  1  0  0  0  0
 16 41  1  0  0  0  0
 16 42  1  0  0  0  0
 18 43  1  0  0  0  0
 18 44  1  0  0  0  0
 20 21  1  0  0  0  0
 20 45  1  0  0  0  0
 20 46  1  0  0  0  0
 21 47  1  0  0  0  0
 21 48  1  0  0  0  0
 22 23  2  0  0  0  0
 22 25  1  0  0  0  0
 23 24  1  0  0  0  0
 23 27  1  0  0  0  0
 26 49  1  0  0  0  0
 27 50  1  0  0  0  0
 28 29  1  0  0  0  0
 29 51  1  0  0  0  0
 29 52  1  0  0  0  0
 29 53  1  0  0  0  0
M  END
>  <DRUGBANK_ID>
DB06848

>  <COMMON_NAME>
1-(1'-{[3-(methylsulfanyl)-2-benzothiophen-1-yl]carbonyl}spiro[1-benzofuran-3,4'-piperidin]-5-yl)methanamine

$$$$
