
 OpenBabel10282417173D

 32 34  0  0  0  0  0  0  0  0999 V2000
    0.0999    1.2618    0.0003 C   0  0  0  0  0  0  0  0  0  0  0  0
    1.3780    0.7260    0.0086 C   0  0  0  0  0  0  0  0  0  0  0  0
   -1.6369    3.1567   -0.0046 C   0  0  0  0  0  0  0  0  0  0  0  0
   -0.2283    2.6865   -0.0171 C   0  0  0  0  0  0  0  0  0  0  0  0
   -2.4930    2.8326    1.0574 C   0  0  0  0  0  0  0  0  0  0  0  0
   -2.0788    3.9631   -1.0612 C   0  0  0  0  0  0  0  0  0  0  0  0
   -3.4176    4.3734   -1.0627 C   0  0  0  0  0  0  0  0  0  0  0  0
   -4.2653    4.0056   -0.0260 C   0  0  0  0  0  0  0  0  0  0  0  0
   -3.8361    3.2428    1.0648 C   0  0  0  0  0  0  0  0  0  0  0  0
   -4.0819    5.1239   -1.9865 N   0  0  0  0  0  0  0  0  0  0  0  0
   -5.3201    5.2343   -1.5695 C   0  0  0  0  0  0  0  0  0  0  0  0
   -5.4791    4.5592   -0.3769 N   0  0  0  0  0  0  0  0  0  0  0  0
    0.6351    3.5638   -0.0603 O   0  0  0  0  0  0  0  0  0  0  0  0
   -1.0739    0.0124   -0.0414 S   0  0  0  0  0  0  0  0  0  0  0  0
    0.1128   -1.2165   -0.0083 C   0  0  0  0  0  0  0  0  0  0  0  0
    1.3868   -0.6986    0.0065 C   0  0  0  0  0  0  0  0  0  0  0  0
   -6.3467    5.9081   -2.1878 N   0  0  0  0  0  0  0  0  0  0  0  0
   -6.2123    6.5950   -3.3765 C   0  0  0  0  0  0  0  0  0  0  0  0
   -7.1749    7.1814   -3.8704 O   0  0  0  0  0  0  0  0  0  0  0  0
   -4.9756    6.5682   -3.9321 O   0  0  0  0  0  0  0  0  0  0  0  0
   -4.7925    7.2674   -5.1628 C   0  0  0  0  0  0  0  0  0  0  0  0
    2.2710    1.3418    0.0099 H   0  0  0  0  0  0  0  0  0  0  0  0
   -2.1144    2.2479    1.8940 H   0  0  0  0  0  0  0  0  0  0  0  0
   -1.4239    4.2604   -1.8734 H   0  0  0  0  0  0  0  0  0  0  0  0
   -4.4959    2.9696    1.8812 H   0  0  0  0  0  0  0  0  0  0  0  0
   -6.3344    4.4756    0.1517 H   0  0  0  0  0  0  0  0  0  0  0  0
   -0.1762   -2.2591   -0.0135 H   0  0  0  0  0  0  0  0  0  0  0  0
    2.2814   -1.3097    0.0109 H   0  0  0  0  0  0  0  0  0  0  0  0
   -7.2703    5.9373   -1.7852 H   0  0  0  0  0  0  0  0  0  0  0  0
   -5.4248    6.8448   -5.9489 H   0  0  0  0  0  0  0  0  0  0  0  0
   -4.9839    8.3369   -5.0363 H   0  0  0  0  0  0  0  0  0  0  0  0
   -3.7467    7.1416   -5.4626 H   0  0  0  0  0  0  0  0  0  0  0  0
  1 14  1  0  0  0  0
  1  2  2  0  0  0  0
  2 22  1  0  0  0  0
  3  6  1  0  0  0  0
  3  4  1  0  0  0  0
  4  1  1  0  0  0  0
  4 13  2  0  0  0  0
  5  3  2  0  0  0  0
  5  9  1  0  0  0  0
  5 23  1  0  0  0  0
  6  7  2  0  0  0  0
  6 24  1  0  0  0  0
  7  8  1  0  0  0  0
  7 10  1  0  0  0  0
  8  9  2  0  0  0  0
  8 12  1  0  0  0  0
  9 25  1  0  0  0  0
 10 11  2  0  0  0  0
 11 12  1  0  0  0  0
 11 17  1  0  0  0  0
 12 26  1  0  0  0  0
 14 15  1  0  0  0  0
 15 16  2  0  0  0  0
 15 27  1  0  0  0  0
 16  2  1  0  0  0  0
 16 28  1  0  0  0  0
 17 18  1  0  0  0  0
 17 29  1  0  0  0  0
 18 19  2  0  0  0  0
 18 20  1  0  0  0  0
 20 21  1  0  0  0  0
 21 30  1  0  0  0  0
 21 31  1  0  0  0  0
 21 32  1  0  0  0  0
M  END
>  <DRUGBANK_ID>
DB08313

>  <COMMON_NAME>
Nocodazole

>  <CAS_NUMBER>
31430-18-9

>  <UNII>
SH1WY3R615

>  <SYNONYMS>
Nocodazol; Nocodazole; Nocodazolum; Oncodazole

$$$$
