
 OpenBabel10282417193D

 48 51  0  0  0  0  0  0  0  0999 V2000
   -1.3349   -0.7063    0.4644 C   0  0  0  0  0  0  0  0  0  0  0  0
   -1.3959    0.6778    0.2241 N   0  0  0  0  0  0  0  0  0  0  0  0
   -0.1533    1.1185    0.1343 C   0  0  0  0  0  0  0  0  0  0  0  0
    0.7326    0.1008    0.2771 N   0  0  0  0  0  0  0  0  0  0  0  0
    0.0123   -1.0160    0.6150 C   0  0  0  0  0  0  0  0  0  0  0  0
   -3.5546   -4.7797   -1.2737 C   0  0  1  0  0  0  0  0  0  0  0  0
   -3.5689   -3.9163   -0.0267 C   0  0  0  0  0  0  0  0  0  0  0  0
   -2.3898   -3.0257    0.0489 N   0  0  0  0  0  0  0  0  0  0  0  0
   -1.1053   -3.6712   -0.1358 C   0  0  0  0  0  0  0  0  0  0  0  0
   -0.4295   -3.3167   -1.4630 C   0  0  0  0  0  0  0  0  0  0  0  0
   -2.5544   -1.6178    0.2647 C   0  0  0  0  0  0  0  0  0  0  0  0
   -2.5127   -6.8795   -2.5043 C   0  0  0  0  0  0  0  0  0  0  0  0
   -3.7413   -7.5014   -3.0152 N   0  0  0  0  0  0  0  0  0  0  0  0
   -4.8542   -6.5772   -2.7346 C   0  0  0  0  0  0  0  0  0  0  0  0
   -2.9963   -6.1964   -1.2564 C   0  0  2  0  0  0  0  0  0  0  0  0
   -4.4661   -5.9913   -1.4036 C   0  0  1  0  0  0  0  0  0  0  0  0
   -3.6728   -1.1315    0.1655 O   0  0  0  0  0  0  0  0  0  0  0  0
   -0.5130   -2.0309   -2.0449 C   0  0  0  0  0  0  0  0  0  0  0  0
    0.3128   -1.5873   -3.0642 C   0  0  0  0  0  0  0  0  0  0  0  0
    1.0803   -2.5166   -3.7157 C   0  0  0  0  0  0  0  0  0  0  0  0
    1.0756   -3.8454   -3.2864 C   0  0  0  0  0  0  0  0  0  0  0  0
    0.3757   -4.2359   -2.1307 C   0  0  0  0  0  0  0  0  0  0  0  0
    0.3648    0.0918   -3.4415 Cl  0  0  0  0  0  0  0  0  0  0  0  0
    1.7976   -2.1613   -4.7885 F   0  0  0  0  0  0  0  0  0  0  0  0
    2.1595    0.0982    0.0519 C   0  0  0  0  0  0  0  0  0  0  0  0
   -5.1485   -6.2400   -0.6040 H   0  0  0  0  0  0  0  0  0  0  0  0
   -2.5967   -6.6230   -0.3476 H   0  0  0  0  0  0  0  0  0  0  0  0
   -3.6394   -7.8125   -4.4359 C   0  0  0  0  0  0  0  0  0  0  0  0
    0.1528    2.1387   -0.0640 H   0  0  0  0  0  0  0  0  0  0  0  0
    0.5660   -1.9322    0.6946 H   0  0  0  0  0  0  0  0  0  0  0  0
   -3.4153   -4.1751   -2.1615 H   0  0  0  0  0  0  0  0  0  0  0  0
   -3.5526   -4.5433    0.8767 H   0  0  0  0  0  0  0  0  0  0  0  0
   -4.4991   -3.3426    0.0032 H   0  0  0  0  0  0  0  0  0  0  0  0
   -0.5039   -3.4595    0.7515 H   0  0  0  0  0  0  0  0  0  0  0  0
   -1.2211   -4.7563   -0.0512 H   0  0  0  0  0  0  0  0  0  0  0  0
   -1.7503   -7.6369   -2.2938 H   0  0  0  0  0  0  0  0  0  0  0  0
   -2.1044   -6.1412   -3.2037 H   0  0  0  0  0  0  0  0  0  0  0  0
   -4.9277   -5.7834   -3.4864 H   0  0  0  0  0  0  0  0  0  0  0  0
   -5.8032   -7.1207   -2.6865 H   0  0  0  0  0  0  0  0  0  0  0  0
   -1.2084   -1.2826   -1.7016 H   0  0  0  0  0  0  0  0  0  0  0  0
    1.6319   -4.5737   -3.8634 H   0  0  0  0  0  0  0  0  0  0  0  0
    0.4399   -5.2659   -1.7863 H   0  0  0  0  0  0  0  0  0  0  0  0
    2.6278   -0.4551    0.8712 H   0  0  0  0  0  0  0  0  0  0  0  0
    2.3794   -0.4164   -0.8913 H   0  0  0  0  0  0  0  0  0  0  0  0
    2.5407    1.1189    0.0184 H   0  0  0  0  0  0  0  0  0  0  0  0
   -3.4905   -6.9112   -5.0409 H   0  0  0  0  0  0  0  0  0  0  0  0
   -2.8007   -8.4922   -4.6265 H   0  0  0  0  0  0  0  0  0  0  0  0
   -4.5451   -8.3175   -4.7900 H   0  0  0  0  0  0  0  0  0  0  0  0
  1  2  1  0  0  0  0
  2  3  2  0  0  0  0
  3  4  1  0  0  0  0
  3 29  1  0  0  0  0
  4  5  1  0  0  0  0
  4 25  1  0  0  0  0
  5  1  2  0  0  0  0
  5 30  1  0  0  0  0
  6 16  1  0  0  0  0
  6  7  1  0  0  0  0
  6 31  1  6  0  0  0
  7  8  1  0  0  0  0
  7 32  1  0  0  0  0
  7 33  1  0  0  0  0
  8 11  1  0  0  0  0
  8  9  1  0  0  0  0
  9 10  1  0  0  0  0
  9 34  1  0  0  0  0
  9 35  1  0  0  0  0
 10 18  2  0  0  0  0
 11 17  2  0  0  0  0
 11  1  1  0  0  0  0
 12 13  1  0  0  0  0
 12 36  1  0  0  0  0
 12 37  1  0  0  0  0
 13 14  1  0  0  0  0
 13 28  1  0  0  0  0
 14 38  1  0  0  0  0
 14 39  1  0  0  0  0
 15  6  1  0  0  0  0
 15 12  1  0  0  0  0
 15 27  1  1  0  0  0
 16 14  1  0  0  0  0
 16 15  1  0  0  0  0
 16 26  1  1  0  0  0
 18 19  1  0  0  0  0
 18 40  1  0  0  0  0
 19 20  2  0  0  0  0
 19 23  1  0  0  0  0
 20 21  1  0  0  0  0
 20 24  1  0  0  0  0
 21 22  2  0  0  0  0
 21 41  1  0  0  0  0
 22 10  1  0  0  0  0
 22 42  1  0  0  0  0
 25 43  1  0  0  0  0
 25 44  1  0  0  0  0
 25 45  1  0  0  0  0
 28 46  1  0  0  0  0
 28 47  1  0  0  0  0
 28 48  1  0  0  0  0
M  END
>  <DRUGBANK_ID>
DB11993

>  <COMMON_NAME>
PF-03463275

>  <CAS_NUMBER>
1173239-39-8

>  <UNII>
3U6T9EE6UX

$$$$
