439
 OpenBabel10282417103D

 67 68  0  0  1  0  0  0  0  0999 V2000
    2.1798   -0.0179   -0.0057 F   0  0  0  0  0  0  0  0  0  0  0  0
   -3.7512    0.6369   -3.4340 O   0  0  0  0  0  0  0  0  0  0  0  0
   -3.6674   -1.9151    5.6424 O   0  0  0  0  0  0  0  0  0  0  0  0
   -2.0931   -4.7005    2.7964 O   0  0  0  0  0  0  0  0  0  0  0  0
   -6.1274   -6.9011    2.3371 O   0  0  0  0  0  0  0  0  0  0  0  0
   -6.0256   -5.9074    4.3347 O   0  0  0  0  0  0  0  0  0  0  0  0
   -6.2400    0.0666   -0.0586 N   0  0  0  0  0  0  0  0  0  0  0  0
   -5.5344    0.6522   -1.0404 C   0  0  0  0  0  0  0  0  0  0  0  0
   -5.6056   -0.5180    0.9858 C   0  0  0  0  0  0  0  0  0  0  0  0
   -4.1383    0.6710   -1.0281 C   0  0  0  0  0  0  0  0  0  0  0  0
   -4.1985   -0.5865    1.1066 C   0  0  0  0  0  0  0  0  0  0  0  0
   -3.4490    0.0307    0.0488 C   0  0  0  0  0  0  0  0  0  0  0  0
   -6.5936   -1.0504    1.9801 C   0  0  0  0  0  0  0  0  0  0  0  0
   -6.3729    1.2541   -2.1529 C   0  0  0  0  0  0  0  0  0  0  0  0
   -3.4132    1.2884   -2.2063 C   0  0  0  0  0  0  0  0  0  0  0  0
   -1.9609    0.0113    0.0349 C   0  0  0  0  0  0  0  0  0  0  0  0
   -3.4576   -1.2102    2.2624 C   0  0  0  0  0  0  0  0  0  0  0  0
   -3.2201   -2.5482    4.4499 C   0  0  1  0  0  0  0  0  0  0  0  0
   -7.3803    0.0123    2.7184 C   0  0  0  0  0  0  0  0  0  0  0  0
   -7.3588   -2.2700    1.4991 C   0  0  0  0  0  0  0  0  0  0  0  0
   -7.2126    0.1788   -2.8440 C   0  0  0  0  0  0  0  0  0  0  0  0
   -7.2518    2.3700   -1.5983 C   0  0  0  0  0  0  0  0  0  0  0  0
   -3.7349   -3.9955    4.4351 C   0  0  0  0  0  0  0  0  0  0  0  0
   -3.9125   -1.8683    3.3359 C   0  0  0  0  0  0  0  0  0  0  0  0
   -3.4931   -4.7205    3.0975 C   0  0  2  0  0  0  0  0  0  0  0  0
   -1.2265    1.2128    0.0751 C   0  0  0  0  0  0  0  0  0  0  0  0
   -1.2473   -1.2015   -0.0362 C   0  0  0  0  0  0  0  0  0  0  0  0
   -3.9570   -6.1752    3.1185 C   0  0  0  0  0  0  0  0  0  0  0  0
    0.1675    1.2045    0.0274 C   0  0  0  0  0  0  0  0  0  0  0  0
    0.1484   -1.2119   -0.0193 C   0  0  0  0  0  0  0  0  0  0  0  0
    0.8413   -0.0084    0.0005 C   0  0  0  0  0  0  0  0  0  0  0  0
   -3.3925   -0.7394   -3.4247 C   0  0  0  0  0  0  0  0  0  0  0  0
   -5.4507   -6.3000    3.3414 C   0  0  0  0  0  0  0  0  0  0  0  0
   -3.5572   -0.9553    5.5221 H   0  0  0  0  0  0  0  0  0  0  0  0
   -1.8093   -3.7707    2.7398 H   0  0  0  0  0  0  0  0  0  0  0  0
   -5.5962   -7.2325    1.5925 H   0  0  0  0  0  0  0  0  0  0  0  0
   -6.0932   -1.4251    2.8146 H   0  0  0  0  0  0  0  0  0  0  0  0
   -5.7529    1.7180   -2.9215 H   0  0  0  0  0  0  0  0  0  0  0  0
   -3.6979    2.3472   -2.2737 H   0  0  0  0  0  0  0  0  0  0  0  0
   -2.3273    1.2853   -2.1356 H   0  0  0  0  0  0  0  0  0  0  0  0
   -2.3765   -1.1283    2.2235 H   0  0  0  0  0  0  0  0  0  0  0  0
   -2.1366   -2.4689    4.3888 H   0  0  0  0  0  0  0  0  0  0  0  0
   -8.1118    0.5065    2.0848 H   0  0  0  0  0  0  0  0  0  0  0  0
   -7.8840   -0.4513    3.5761 H   0  0  0  0  0  0  0  0  0  0  0  0
   -6.6874    0.7591    3.1314 H   0  0  0  0  0  0  0  0  0  0  0  0
   -6.6715   -3.0194    1.0824 H   0  0  0  0  0  0  0  0  0  0  0  0
   -7.8643   -2.7452    2.3481 H   0  0  0  0  0  0  0  0  0  0  0  0
   -8.0988   -2.0119    0.7419 H   0  0  0  0  0  0  0  0  0  0  0  0
   -7.9363   -0.2749   -2.1581 H   0  0  0  0  0  0  0  0  0  0  0  0
   -7.7688    0.6114   -3.6819 H   0  0  0  0  0  0  0  0  0  0  0  0
   -6.5795   -0.6238   -3.2392 H   0  0  0  0  0  0  0  0  0  0  0  0
   -6.6379    3.1323   -1.1055 H   0  0  0  0  0  0  0  0  0  0  0  0
   -7.8060    2.8522   -2.4094 H   0  0  0  0  0  0  0  0  0  0  0  0
   -7.9738    1.9919   -0.8674 H   0  0  0  0  0  0  0  0  0  0  0  0
   -3.2871   -4.5417    5.2691 H   0  0  0  0  0  0  0  0  0  0  0  0
   -4.8141   -3.9749    4.6468 H   0  0  0  0  0  0  0  0  0  0  0  0
   -4.9262   -2.1174    3.5476 H   0  0  0  0  0  0  0  0  0  0  0  0
   -4.0057   -4.2182    2.2661 H   0  0  0  0  0  0  0  0  0  0  0  0
   -1.7454    2.1703    0.1010 H   0  0  0  0  0  0  0  0  0  0  0  0
   -1.7814   -2.1500   -0.0718 H   0  0  0  0  0  0  0  0  0  0  0  0
   -3.6650   -6.6612    2.1798 H   0  0  0  0  0  0  0  0  0  0  0  0
   -3.4382   -6.7263    3.9095 H   0  0  0  0  0  0  0  0  0  0  0  0
    0.7264    2.1347    0.0124 H   0  0  0  0  0  0  0  0  0  0  0  0
    0.6969   -2.1485   -0.0236 H   0  0  0  0  0  0  0  0  0  0  0  0
   -2.3167   -0.8460   -3.2664 H   0  0  0  0  0  0  0  0  0  0  0  0
   -3.9408   -1.2862   -2.6508 H   0  0  0  0  0  0  0  0  0  0  0  0
   -3.6687   -1.1711   -4.3874 H   0  0  0  0  0  0  0  0  0  0  0  0
  1 31  1  0  0  0  0
  2 15  1  0  0  0  0
  2 32  1  0  0  0  0
  3 34  1  0  0  0  0
  4 35  1  0  0  0  0
  5 33  1  0  0  0  0
  5 36  1  0  0  0  0
  6 33  2  0  0  0  0
  7  8  2  0  0  0  0
  7  9  1  0  0  0  0
  8 10  1  0  0  0  0
  8 14  1  0  0  0  0
  9 11  2  0  0  0  0
  9 13  1  0  0  0  0
 10 12  2  0  0  0  0
 10 15  1  0  0  0  0
 11 12  1  0  0  0  0
 11 17  1  0  0  0  0
 12 16  1  0  0  0  0
 13 19  1  0  0  0  0
 13 20  1  0  0  0  0
 13 37  1  0  0  0  0
 14 21  1  0  0  0  0
 14 22  1  0  0  0  0
 14 38  1  0  0  0  0
 15 39  1  0  0  0  0
 15 40  1  0  0  0  0
 16 26  2  0  0  0  0
 16 27  1  0  0  0  0
 17 24  2  0  0  0  0
 17 41  1  0  0  0  0
 18  3  1  0  0  0  0
 18 23  1  0  0  0  0
 18 24  1  0  0  0  0
 18 42  1  6  0  0  0
 19 43  1  0  0  0  0
 19 44  1  0  0  0  0
 19 45  1  0  0  0  0
 20 46  1  0  0  0  0
 20 47  1  0  0  0  0
 20 48  1  0  0  0  0
 21 49  1  0  0  0  0
 21 50  1  0  0  0  0
 21 51  1  0  0  0  0
 22 52  1  0  0  0  0
 22 53  1  0  0  0  0
 22 54  1  0  0  0  0
 23 25  1  0  0  0  0
 23 55  1  0  0  0  0
 23 56  1  0  0  0  0
 24 57  1  0  0  0  0
 25  4  1  0  0  0  0
 25 28  1  0  0  0  0
 25 58  1  6  0  0  0
 26 29  1  0  0  0  0
 26 59  1  0  0  0  0
 27 30  2  0  0  0  0
 27 60  1  0  0  0  0
 28 33  1  0  0  0  0
 28 61  1  0  0  0  0
 28 62  1  0  0  0  0
 29 31  2  0  0  0  0
 29 63  1  0  0  0  0
 30 31  1  0  0  0  0
 30 64  1  0  0  0  0
 32 65  1  0  0  0  0
 32 66  1  0  0  0  0
 32 67  1  0  0  0  0
M  END
>  <DRUGBANK_ID>
DB00439

>  <SECONDARY_ACCESSION_NUMBERS>
APRD00102

>  <COMMON_NAME>
Cerivastatin

>  <CAS_NUMBER>
145599-86-6

>  <UNII>
AM91H2KS67

>  <SYNONYMS>
Cerivastatin

$$$$
