
 OpenBabel10282417133D

 32 34  0  0  0  0  0  0  0  0999 V2000
    0.9050   -0.0685    0.1017 C   0  0  0  0  0  0  0  0  0  0  0  0
    0.3934   -0.0670    1.4384 O   0  0  0  0  0  0  0  0  0  0  0  0
    0.8161   -1.1402    2.1783 C   0  0  0  0  0  0  0  0  0  0  0  0
    2.1554   -1.5303    2.2299 C   0  0  0  0  0  0  0  0  0  0  0  0
    2.5269   -2.6529    2.9650 C   0  0  0  0  0  0  0  0  0  0  0  0
    1.5608   -3.3641    3.6799 C   0  0  0  0  0  0  0  0  0  0  0  0
    1.9433   -4.5667    4.4331 C   0  0  0  0  0  0  0  0  0  0  0  0
    3.1059   -4.9607    4.4306 O   0  0  0  0  0  0  0  0  0  0  0  0
    0.8613   -5.2627    5.1780 C   0  0  0  0  0  0  0  0  0  0  0  0
   -0.3654   -4.7196    5.1197 C   0  0  0  0  0  0  0  0  0  0  0  0
   -0.7361   -3.5944    4.4117 O   0  0  0  0  0  0  0  0  0  0  0  0
    0.2342   -2.9418    3.6895 C   0  0  0  0  0  0  0  0  0  0  0  0
   -0.1407   -1.8196    2.9422 C   0  0  0  0  0  0  0  0  0  0  0  0
    1.1465   -6.4834    5.9523 C   0  0  0  0  0  0  0  0  0  0  0  0
    2.0718   -6.4455    7.0073 C   0  0  0  0  0  0  0  0  0  0  0  0
    2.4244   -7.6118    7.6961 C   0  0  0  0  0  0  0  0  0  0  0  0
    1.8447   -8.8210    7.3295 C   0  0  0  0  0  0  0  0  0  0  0  0
    2.1546   -9.9900    7.9596 O   0  0  0  0  0  0  0  0  0  0  0  0
    0.9229   -8.8783    6.2909 C   0  0  0  0  0  0  0  0  0  0  0  0
    0.5680   -7.7122    5.6055 C   0  0  0  0  0  0  0  0  0  0  0  0
    0.5195    0.8172   -0.4122 H   0  0  0  0  0  0  0  0  0  0  0  0
    0.5584   -0.9556   -0.4399 H   0  0  0  0  0  0  0  0  0  0  0  0
    1.9972   -0.0048    0.0659 H   0  0  0  0  0  0  0  0  0  0  0  0
    2.9276   -0.9677    1.7155 H   0  0  0  0  0  0  0  0  0  0  0  0
    3.5672   -2.9695    2.9792 H   0  0  0  0  0  0  0  0  0  0  0  0
   -1.2250   -5.1183    5.6459 H   0  0  0  0  0  0  0  0  0  0  0  0
   -1.1747   -1.4844    2.9400 H   0  0  0  0  0  0  0  0  0  0  0  0
    2.5472   -5.5050    7.2802 H   0  0  0  0  0  0  0  0  0  0  0  0
    3.1606   -7.5533    8.4915 H   0  0  0  0  0  0  0  0  0  0  0  0
    2.7987   -9.8105    8.6637 H   0  0  0  0  0  0  0  0  0  0  0  0
    0.4954   -9.8348    6.0035 H   0  0  0  0  0  0  0  0  0  0  0  0
   -0.1353   -7.7835    4.7796 H   0  0  0  0  0  0  0  0  0  0  0  0
  1  2  1  0  0  0  0
  1 21  1  0  0  0  0
  1 22  1  0  0  0  0
  1 23  1  0  0  0  0
  2  3  1  0  0  0  0
  3  4  2  0  0  0  0
  3 13  1  0  0  0  0
  4  5  1  0  0  0  0
  4 24  1  0  0  0  0
  5  6  2  0  0  0  0
  5 25  1  0  0  0  0
  6  7  1  0  0  0  0
  6 12  1  0  0  0  0
  7  8  2  0  0  0  0
  7  9  1  0  0  0  0
  9 10  2  0  0  0  0
  9 14  1  0  0  0  0
 10 11  1  0  0  0  0
 10 26  1  0  0  0  0
 11 12  1  0  0  0  0
 12 13  2  0  0  0  0
 13 27  1  0  0  0  0
 14 15  2  0  0  0  0
 14 20  1  0  0  0  0
 15 16  1  0  0  0  0
 15 28  1  0  0  0  0
 16 17  2  0  0  0  0
 16 29  1  0  0  0  0
 17 18  1  0  0  0  0
 17 19  1  0  0  0  0
 18 30  1  0  0  0  0
 19 20  2  0  0  0  0
 19 31  1  0  0  0  0
 20 32  1  0  0  0  0
M  END
>  <DRUGBANK_ID>
DB04202

>  <SECONDARY_ACCESSION_NUMBERS>
EXPT01760

>  <COMMON_NAME>
Isoformononetin

$$$$
