
 OpenBabel10282417193D

 57 60  0  0  1  0  0  0  0  0999 V2000
    3.0949    1.2726    0.7410 C   0  0  0  0  0  0  0  0  0  0  0  0
    3.7318   -0.1110    0.7258 C   0  0  2  0  0  0  0  0  0  0  0  0
    2.7178   -1.1963    0.3893 C   0  0  0  0  0  0  0  0  0  0  0  0
    2.0414   -0.9283   -0.9712 C   0  0  2  0  0  0  0  0  0  0  0  0
    1.3825    0.4942   -1.0293 C   0  0  2  0  0  0  0  0  0  0  0  0
    2.4147    1.5690   -0.5861 C   0  0  0  0  0  0  0  0  0  0  0  0
    1.0593   -2.0685   -1.2925 C   0  0  0  0  0  0  0  0  0  0  0  0
   -0.1930   -2.0177   -0.4363 C   0  0  0  0  0  0  0  0  0  0  0  0
   -0.8669   -0.6484   -0.5139 C   0  0  2  0  0  0  0  0  0  0  0  0
    0.1077    0.5033   -0.1233 C   0  0  2  0  0  0  0  0  0  0  0  0
   -2.0521   -0.5918    0.4386 C   0  0  1  0  0  0  0  0  0  0  0  0
   -2.8164    0.7370    0.3079 C   0  0  2  0  0  0  0  0  0  0  0  0
   -1.8922    1.8490    0.8228 C   0  0  0  0  0  0  0  0  0  0  0  0
   -0.5965    1.8863   -0.0129 C   0  0  0  0  0  0  0  0  0  0  0  0
   -3.1052   -1.6778    0.2976 C   0  0  0  0  0  0  0  0  0  0  0  0
   -4.3524   -1.0752    0.9430 C   0  0  0  0  0  0  0  0  0  0  0  0
   -4.0747    0.4293    1.1528 C   0  0  2  0  0  0  0  0  0  0  0  0
   -5.3241    1.2820    0.9017 C   0  0  0  0  0  0  0  0  0  0  0  0
   -3.1988    1.0898   -1.1351 C   0  0  0  0  0  0  0  0  0  0  0  0
   -1.2176   -0.5209   -1.5457 H   0  0  0  0  0  0  0  0  0  0  0  0
    1.0228    0.8406   -2.4931 C   0  0  0  0  0  0  0  0  0  0  0  0
    2.8302   -0.9701   -1.7346 H   0  0  0  0  0  0  0  0  0  0  0  0
    4.3315   -0.3811    1.9861 O   0  0  0  0  0  0  0  0  0  0  0  0
    0.4284    0.2834    0.9032 H   0  0  0  0  0  0  0  0  0  0  0  0
   -1.6533   -0.6821    1.4628 H   0  0  0  0  0  0  0  0  0  0  0  0
   -6.0546    1.2818   -0.4301 C   0  0  0  0  0  0  0  0  0  0  0  0
   -5.7869    1.9650    1.8292 O   0  0  0  0  0  0  0  0  0  0  0  0
    2.3858    1.3700    1.5722 H   0  0  0  0  0  0  0  0  0  0  0  0
    3.8708    2.0245    0.9292 H   0  0  0  0  0  0  0  0  0  0  0  0
    4.5294   -0.1349   -0.0249 H   0  0  0  0  0  0  0  0  0  0  0  0
    3.2246   -2.1693    0.3666 H   0  0  0  0  0  0  0  0  0  0  0  0
    1.9860   -1.2794    1.2025 H   0  0  0  0  0  0  0  0  0  0  0  0
    1.9568    2.5633   -0.5440 H   0  0  0  0  0  0  0  0  0  0  0  0
    3.1993    1.6488   -1.3500 H   0  0  0  0  0  0  0  0  0  0  0  0
    0.7724   -2.0298   -2.3501 H   0  0  0  0  0  0  0  0  0  0  0  0
    1.5444   -3.0416   -1.1484 H   0  0  0  0  0  0  0  0  0  0  0  0
   -0.8808   -2.8039   -0.7709 H   0  0  0  0  0  0  0  0  0  0  0  0
    0.0503   -2.2476    0.6070 H   0  0  0  0  0  0  0  0  0  0  0  0
   -1.6304    1.6939    1.8773 H   0  0  0  0  0  0  0  0  0  0  0  0
   -2.3926    2.8228    0.7637 H   0  0  0  0  0  0  0  0  0  0  0  0
    0.0732    2.6206    0.4429 H   0  0  0  0  0  0  0  0  0  0  0  0
   -0.8248    2.2814   -1.0067 H   0  0  0  0  0  0  0  0  0  0  0  0
   -3.2922   -1.9318   -0.7509 H   0  0  0  0  0  0  0  0  0  0  0  0
   -2.7963   -2.5981    0.8082 H   0  0  0  0  0  0  0  0  0  0  0  0
   -5.2243   -1.2615    0.3109 H   0  0  0  0  0  0  0  0  0  0  0  0
   -4.5448   -1.5613    1.9076 H   0  0  0  0  0  0  0  0  0  0  0  0
   -3.8119    0.5660    2.2148 H   0  0  0  0  0  0  0  0  0  0  0  0
   -3.7479    0.2658   -1.5916 H   0  0  0  0  0  0  0  0  0  0  0  0
   -3.7788    2.0191   -1.1251 H   0  0  0  0  0  0  0  0  0  0  0  0
   -2.3777    1.2919   -1.8200 H   0  0  0  0  0  0  0  0  0  0  0  0
    0.3495    0.1125   -2.9497 H   0  0  0  0  0  0  0  0  0  0  0  0
    0.5492    1.8242   -2.5667 H   0  0  0  0  0  0  0  0  0  0  0  0
    1.9256    0.8799   -3.1130 H   0  0  0  0  0  0  0  0  0  0  0  0
    3.6697   -0.2169    2.6790 H   0  0  0  0  0  0  0  0  0  0  0  0
   -6.9922    0.7359   -0.3447 H   0  0  0  0  0  0  0  0  0  0  0  0
   -6.2301    2.3220   -0.7254 H   0  0  0  0  0  0  0  0  0  0  0  0
   -5.5337    0.8140   -1.2583 H   0  0  0  0  0  0  0  0  0  0  0  0
  1  2  1  0  0  0  0
  1  6  1  0  0  0  0
  1 28  1  0  0  0  0
  1 29  1  0  0  0  0
  2  3  1  0  0  0  0
  2 23  1  0  0  0  0
  2 30  1  6  0  0  0
  3  4  1  0  0  0  0
  3 31  1  0  0  0  0
  3 32  1  0  0  0  0
  4  5  1  0  0  0  0
  4  7  1  0  0  0  0
  4 22  1  6  0  0  0
  5  6  1  0  0  0  0
  5 10  1  0  0  0  0
  5 21  1  6  0  0  0
  6 33  1  0  0  0  0
  6 34  1  0  0  0  0
  7  8  1  0  0  0  0
  7 35  1  0  0  0  0
  7 36  1  0  0  0  0
  8  9  1  0  0  0  0
  8 37  1  0  0  0  0
  8 38  1  0  0  0  0
  9 10  1  0  0  0  0
  9 11  1  0  0  0  0
  9 20  1  6  0  0  0
 10 14  1  0  0  0  0
 10 24  1  1  0  0  0
 11 12  1  0  0  0  0
 11 15  1  0  0  0  0
 11 25  1  1  0  0  0
 12 13  1  0  0  0  0
 12 17  1  0  0  0  0
 12 19  1  6  0  0  0
 13 14  1  0  0  0  0
 13 39  1  0  0  0  0
 13 40  1  0  0  0  0
 14 41  1  0  0  0  0
 14 42  1  0  0  0  0
 15 16  1  0  0  0  0
 15 43  1  0  0  0  0
 15 44  1  0  0  0  0
 16 17  1  0  0  0  0
 16 45  1  0  0  0  0
 16 46  1  0  0  0  0
 17 47  1  1  0  0  0
 17 18  1  0  0  0  0
 18 26  1  0  0  0  0
 18 27  2  0  0  0  0
 19 48  1  0  0  0  0
 19 49  1  0  0  0  0
 19 50  1  0  0  0  0
 21 51  1  0  0  0  0
 21 52  1  0  0  0  0
 21 53  1  0  0  0  0
 23 54  1  0  0  0  0
 26 55  1  0  0  0  0
 26 56  1  0  0  0  0
 26 57  1  0  0  0  0
M  END
>  <DRUGBANK_ID>
DB12308

>  <COMMON_NAME>
Eltanolone

>  <CAS_NUMBER>
128-20-1

>  <UNII>
BXO86P3XXW

>  <SYNONYMS>
eltanolona; Eltanolone; Pregnanolone

$$$$
