CBP
 OpenBabel10282417123D

 48 50  0  0  0  0  0  0  0  0999 V2000
    0.8754    0.5397    0.2614 O   0  0  0  0  0  0  0  0  0  0  0  0
    0.6322   -0.0686    1.5003 N   0  0  0  0  0  0  0  0  0  0  0  0
    1.5671   -0.5936    2.3440 C   0  0  0  0  0  0  0  0  0  0  0  0
    1.1957   -1.1002    3.4043 O   0  0  0  0  0  0  0  0  0  0  0  0
    3.0527   -0.6062    1.9477 C   0  0  0  0  0  0  0  0  0  0  0  0
    3.4484   -1.6742    0.8456 C   0  0  0  0  0  0  0  0  0  0  0  0
    2.3460   -1.7463   -0.2150 C   0  0  0  0  0  0  0  0  0  0  0  0
    2.2481   -2.9840   -1.0467 C   0  0  0  0  0  0  0  0  0  0  0  0
    2.3651   -4.1458   -0.2555 O   0  0  0  0  0  0  0  0  0  0  0  0
    3.5827   -4.1780    0.4867 C   0  0  0  0  0  0  0  0  0  0  0  0
    3.6092   -3.0539    1.5109 C   0  0  0  0  0  0  0  0  0  0  0  0
    5.0498   -1.1109    0.0772 S   0  0  0  0  0  0  0  0  0  0  0  0
    4.8042    0.1664   -0.5522 O   0  0  0  0  0  0  0  0  0  0  0  0
    6.0853   -1.2236    1.1000 O   0  0  0  0  0  0  0  0  0  0  0  0
    5.5576   -2.2188   -1.2569 C   0  0  0  0  0  0  0  0  0  0  0  0
    4.8619   -2.2265   -2.4640 C   0  0  0  0  0  0  0  0  0  0  0  0
    4.9645   -3.3424   -3.3077 C   0  0  0  0  0  0  0  0  0  0  0  0
    5.9889   -4.2693   -3.1502 C   0  0  0  0  0  0  0  0  0  0  0  0
    6.8737   -4.0891   -2.0797 C   0  0  0  0  0  0  0  0  0  0  0  0
    6.6122   -3.1213   -1.0884 C   0  0  0  0  0  0  0  0  0  0  0  0
    6.1716   -5.3873   -3.9419 O   0  0  0  0  0  0  0  0  0  0  0  0
    5.3514   -5.6046   -5.0324 C   0  0  0  0  0  0  0  0  0  0  0  0
    5.1672   -4.6486   -6.0383 C   0  0  0  0  0  0  0  0  0  0  0  0
    4.3218   -4.9120   -7.1186 C   0  0  0  0  0  0  0  0  0  0  0  0
    3.7317   -6.1670   -7.2419 C   0  0  0  0  0  0  0  0  0  0  0  0
    3.9818   -7.1582   -6.2935 C   0  0  0  0  0  0  0  0  0  0  0  0
    4.7581   -6.8640   -5.1650 C   0  0  0  0  0  0  0  0  0  0  0  0
    2.6644   -6.4819   -8.5542 Cl  0  0  0  0  0  0  0  0  0  0  0  0
    1.8295    0.7244    0.2284 H   0  0  0  0  0  0  0  0  0  0  0  0
   -0.3386   -0.3305    1.6649 H   0  0  0  0  0  0  0  0  0  0  0  0
    3.3330    0.4161    1.6713 H   0  0  0  0  0  0  0  0  0  0  0  0
    3.6169   -0.8117    2.8713 H   0  0  0  0  0  0  0  0  0  0  0  0
    1.3886   -1.8068    0.2988 H   0  0  0  0  0  0  0  0  0  0  0  0
    2.3828   -0.8728   -0.8682 H   0  0  0  0  0  0  0  0  0  0  0  0
    1.3115   -2.9643   -1.6134 H   0  0  0  0  0  0  0  0  0  0  0  0
    2.9984   -3.0134   -1.7942 H   0  0  0  0  0  0  0  0  0  0  0  0
    4.4307   -4.1288   -0.1881 H   0  0  0  0  0  0  0  0  0  0  0  0
    3.6518   -5.1500    0.9751 H   0  0  0  0  0  0  0  0  0  0  0  0
    4.5182   -3.1038    2.1199 H   0  0  0  0  0  0  0  0  0  0  0  0
    2.7598   -3.2172    2.1872 H   0  0  0  0  0  0  0  0  0  0  0  0
    4.0784   -1.5026   -2.6777 H   0  0  0  0  0  0  0  0  0  0  0  0
    4.1811   -3.4890   -4.0475 H   0  0  0  0  0  0  0  0  0  0  0  0
    7.7455   -4.7322   -1.9809 H   0  0  0  0  0  0  0  0  0  0  0  0
    7.2063   -3.1166   -0.1769 H   0  0  0  0  0  0  0  0  0  0  0  0
    5.6420   -3.6742   -5.9643 H   0  0  0  0  0  0  0  0  0  0  0  0
    4.1347   -4.1375   -7.8576 H   0  0  0  0  0  0  0  0  0  0  0  0
    3.5715   -8.1562   -6.4270 H   0  0  0  0  0  0  0  0  0  0  0  0
    4.8857   -7.6178   -4.3920 H   0  0  0  0  0  0  0  0  0  0  0  0
  1  2  1  0  0  0  0
  1 29  1  0  0  0  0
  2  3  1  0  0  0  0
  2 30  1  0  0  0  0
  3  4  2  0  0  0  0
  3  5  1  0  0  0  0
  5  6  1  0  0  0  0
  5 31  1  0  0  0  0
  5 32  1  0  0  0  0
  6  7  1  0  0  0  0
  6 11  1  0  0  0  0
  6 12  1  0  0  0  0
  7  8  1  0  0  0  0
  7 33  1  0  0  0  0
  7 34  1  0  0  0  0
  8  9  1  0  0  0  0
  8 35  1  0  0  0  0
  8 36  1  0  0  0  0
  9 10  1  0  0  0  0
 10 11  1  0  0  0  0
 10 37  1  0  0  0  0
 10 38  1  0  0  0  0
 11 39  1  0  0  0  0
 11 40  1  0  0  0  0
 12 13  2  0  0  0  0
 12 14  2  0  0  0  0
 12 15  1  0  0  0  0
 15 16  2  0  0  0  0
 15 20  1  0  0  0  0
 16 17  1  0  0  0  0
 16 41  1  0  0  0  0
 17 18  2  0  0  0  0
 17 42  1  0  0  0  0
 18 19  1  0  0  0  0
 18 21  1  0  0  0  0
 19 20  2  0  0  0  0
 19 43  1  0  0  0  0
 20 44  1  0  0  0  0
 21 22  1  0  0  0  0
 22 23  2  0  0  0  0
 22 27  1  0  0  0  0
 23 24  1  0  0  0  0
 23 45  1  0  0  0  0
 24 25  2  0  0  0  0
 24 46  1  0  0  0  0
 25 26  1  0  0  0  0
 25 28  1  0  0  0  0
 26 27  2  0  0  0  0
 26 47  1  0  0  0  0
 27 48  1  0  0  0  0
M  END
>  <DRUGBANK_ID>
DB02049

>  <SECONDARY_ACCESSION_NUMBERS>
EXPT00849

>  <COMMON_NAME>
2-{4-[4-(4-Chloro-Phenoxy)-Benzenesulfonyl]-Tetrahydro-Pyran-4-Yl}-N-Hydroxy-Acetamide

$$$$
