
 OpenBabel10282417173D

 56 59  0  0  0  0  0  0  0  0999 V2000
    2.6462   -2.5927   -9.1253 C   0  0  0  0  0  0  0  0  0  0  0  0
    6.1953   -8.1970   -8.6491 C   0  0  0  0  0  0  0  0  0  0  0  0
    2.2274   -3.5330   -6.0765 C   0  0  0  0  0  0  0  0  0  0  0  0
    3.1266   -4.7256   -5.8290 C   0  0  0  0  0  0  0  0  0  0  0  0
    5.1905   -6.0334   -7.5665 C   0  0  0  0  0  0  0  0  0  0  0  0
    3.7819   -6.2567   -8.9979 C   0  0  0  0  0  0  0  0  0  0  0  0
    4.4708   -0.2135   -5.9778 C   0  0  0  0  0  0  0  0  0  0  0  0
    5.3059   -4.2331   -9.5105 C   0  0  0  0  0  0  0  0  0  0  0  0
    4.5234   -0.8784   -7.6932 C   0  0  0  0  0  0  0  0  0  0  0  0
    6.0827   -5.6649   -9.5628 C   0  0  0  0  0  0  0  0  0  0  0  0
    4.3122   -2.4561   -5.5886 C   0  0  0  0  0  0  0  0  0  0  0  0
    3.9607   -9.8728   -9.0420 C   0  0  0  0  0  0  0  0  0  0  0  0
    3.1509   -2.4917   -6.6245 C   0  0  2  0  0  0  0  0  0  0  0  0
    3.8446   -1.2198   -5.1073 C   0  0  0  0  0  0  0  0  0  0  0  0
    3.4850   -5.0545   -7.2444 C   0  0  1  0  0  0  0  0  0  0  0  0
    4.0292   -6.7075   -7.4043 C   0  0  1  0  0  0  0  0  0  0  0  0
    4.6046   -3.7834   -8.0894 C   0  0  1  0  0  0  0  0  0  0  0  0
    4.1349   -7.3552   -9.9347 C   0  0  2  0  0  0  0  0  0  0  0  0
    3.5363   -8.7536   -9.9955 C   0  0  0  0  0  0  0  0  0  0  0  0
    3.7717   -2.4544   -8.0180 C   0  0  2  0  0  0  0  0  0  0  0  0
    5.1564   -7.1050   -8.9354 C   0  0  2  0  0  0  0  0  0  0  0  0
    2.9141  -10.7178   -8.6352 O   0  0  0  0  0  0  0  0  0  0  0  0
    2.9508   -1.1399   -4.2193 O   0  0  0  0  0  0  0  0  0  0  0  0
    2.8190   -9.0333  -10.9652 O   0  0  0  0  0  0  0  0  0  0  0  0
    2.5021   -1.5890   -6.7126 H   0  0  0  0  0  0  0  0  0  0  0  0
    2.5125   -4.9908   -7.7495 H   0  0  0  0  0  0  0  0  0  0  0  0
    3.9422   -7.4045   -6.5712 H   0  0  0  0  0  0  0  0  0  0  0  0
    5.5163   -3.6354   -7.4976 H   0  0  0  0  0  0  0  0  0  0  0  0
    3.7139   -6.8369  -10.8091 H   0  0  0  0  0  0  0  0  0  0  0  0
    2.1452   -1.6654   -9.3881 H   0  0  0  0  0  0  0  0  0  0  0  0
    1.8656   -3.3042   -8.8131 H   0  0  0  0  0  0  0  0  0  0  0  0
    2.9549   -3.0333  -10.0836 H   0  0  0  0  0  0  0  0  0  0  0  0
    6.0512   -8.5995   -7.6357 H   0  0  0  0  0  0  0  0  0  0  0  0
    6.1271   -8.9720   -9.3960 H   0  0  0  0  0  0  0  0  0  0  0  0
    7.2159   -7.8267   -8.6939 H   0  0  0  0  0  0  0  0  0  0  0  0
    1.7467   -3.2158   -5.1516 H   0  0  0  0  0  0  0  0  0  0  0  0
    1.4038   -3.6603   -6.7907 H   0  0  0  0  0  0  0  0  0  0  0  0
    2.6439   -5.5004   -5.2409 H   0  0  0  0  0  0  0  0  0  0  0  0
    4.0635   -4.5451   -5.2880 H   0  0  0  0  0  0  0  0  0  0  0  0
    5.7954   -6.7847   -7.0101 H   0  0  0  0  0  0  0  0  0  0  0  0
    5.3930   -5.2464   -6.8250 H   0  0  0  0  0  0  0  0  0  0  0  0
    2.6851   -6.4479   -8.7743 H   0  0  0  0  0  0  0  0  0  0  0  0
    3.5470   -5.3569   -9.5612 H   0  0  0  0  0  0  0  0  0  0  0  0
    5.4499   -0.2610   -5.4522 H   0  0  0  0  0  0  0  0  0  0  0  0
    4.0513    0.7697   -5.7643 H   0  0  0  0  0  0  0  0  0  0  0  0
    5.8174   -3.6049  -10.2531 H   0  0  0  0  0  0  0  0  0  0  0  0
    4.4431   -4.1590  -10.1454 H   0  0  0  0  0  0  0  0  0  0  0  0
    5.5862   -0.8614   -7.9916 H   0  0  0  0  0  0  0  0  0  0  0  0
    3.9985   -0.2160   -8.3811 H   0  0  0  0  0  0  0  0  0  0  0  0
    7.0064   -5.6891   -8.9584 H   0  0  0  0  0  0  0  0  0  0  0  0
    6.4939   -5.7716  -10.5711 H   0  0  0  0  0  0  0  0  0  0  0  0
    5.2979   -2.6091   -5.1086 H   0  0  0  0  0  0  0  0  0  0  0  0
    5.0932   -2.3420   -6.3499 H   0  0  0  0  0  0  0  0  0  0  0  0
    4.7237  -10.4682   -9.5648 H   0  0  0  0  0  0  0  0  0  0  0  0
    4.3724   -9.5018   -8.1115 H   0  0  0  0  0  0  0  0  0  0  0  0
    2.3390  -10.1514   -8.0943 H   0  0  0  0  0  0  0  0  0  0  0  0
  1 30  1  0  0  0  0
  1 31  1  0  0  0  0
  1 32  1  0  0  0  0
  2 33  1  0  0  0  0
  2 34  1  0  0  0  0
  2 35  1  0  0  0  0
  3 36  1  0  0  0  0
  3 37  1  0  0  0  0
  4  3  1  0  0  0  0
  4 38  1  0  0  0  0
  4 39  1  0  0  0  0
  5 40  1  0  0  0  0
  5 41  1  0  0  0  0
  6  5  1  0  0  0  0
  6 42  1  0  0  0  0
  6 43  1  0  0  0  0
  7 44  1  0  0  0  0
  7 45  1  0  0  0  0
  8 46  1  0  0  0  0
  8 47  1  0  0  0  0
  9  7  1  0  0  0  0
  9 48  1  0  0  0  0
  9 49  1  0  0  0  0
 10  8  1  0  0  0  0
 10 50  1  0  0  0  0
 10 51  1  0  0  0  0
 11 52  1  0  0  0  0
 11 53  1  0  0  0  0
 12 54  1  0  0  0  0
 12 55  1  0  0  0  0
 13  3  1  0  0  0  0
 13 11  1  0  0  0  0
 13 25  1  6  0  0  0
 14  7  1  0  0  0  0
 14 11  1  0  0  0  0
 15  4  1  0  0  0  0
 15 26  1  1  0  0  0
 16  5  1  0  0  0  0
 16 15  1  0  0  0  0
 16 27  1  1  0  0  0
 17  8  1  0  0  0  0
 17 15  1  0  0  0  0
 17 28  1  6  0  0  0
 18  6  1  0  0  0  0
 18 19  1  0  0  0  0
 18 29  1  6  0  0  0
 19 12  1  0  0  0  0
 20  9  1  0  0  0  0
 20 13  1  0  0  0  0
 20 17  1  0  0  0  0
 20  1  1  1  0  0  0
 21 10  1  0  0  0  0
 21 16  1  0  0  0  0
 21 18  1  0  0  0  0
 21  2  1  1  0  0  0
 22 12  1  0  0  0  0
 22 56  1  0  0  0  0
 23 14  2  0  0  0  0
 24 19  2  0  0  0  0
M  END
>  <DRUGBANK_ID>
DB08956

>  <COMMON_NAME>
Hydroxydione

>  <CAS_NUMBER>
303-01-5

>  <UNII>
B7VFN88375

>  <SYNONYMS>
21-hydroxy-5β-pregnane-3,20-dione; 5beta-dihydrodeoxycorticosterone; 5β-dihydrodeoxycorticosterone

$$$$
