
 OpenBabel10282417133D

 57 58  0  0  0  0  0  0  0  0999 V2000
    1.4736    1.5405    0.2704 O   0  0  0  0  0  0  0  0  0  0  0  0
    1.4850    1.6571    1.7211 C   0  0  1  0  0  0  0  0  0  0  0  0
    0.1992    2.3284    2.2309 C   0  0  1  0  0  0  0  0  0  0  0  0
    1.7376    0.4079    2.3382 O   0  0  0  0  0  0  0  0  0  0  0  0
    0.0643    2.3525    3.7331 C   0  0  2  0  0  0  0  0  0  0  0  0
   -0.0242    3.6387    1.5856 N   0  0  0  0  0  0  0  0  0  0  0  0
    0.5150    0.6597   -0.3787 C   0  0  2  0  0  0  0  0  0  0  0  0
    1.5902    0.3121    3.7470 C   0  0  1  0  0  0  0  0  0  0  0  0
    0.2966    0.9430    4.2916 C   0  0  1  0  0  0  0  0  0  0  0  0
   -1.2603    2.7840    4.0919 O   0  0  0  0  0  0  0  0  0  0  0  0
   -1.2553    4.0610    1.1387 C   0  0  0  0  0  0  0  0  0  0  0  0
   -0.9377    1.2058   -0.4324 C   0  0  2  0  0  0  0  0  0  0  0  0
    0.6033   -0.7795    0.1617 C   0  0  1  0  0  0  0  0  0  0  0  0
    1.6525   -1.1872    4.1287 C   0  0  0  0  0  0  0  0  0  0  0  0
    0.3724    1.0506    5.7116 O   0  0  0  0  0  0  0  0  0  0  0  0
   -1.2461    5.2880    0.2393 C   0  0  0  0  0  0  0  0  0  0  0  0
   -2.2739    3.3953    1.3246 O   0  0  0  0  0  0  0  0  0  0  0  0
   -1.9552    0.2348   -0.6520 O   0  0  0  0  0  0  0  0  0  0  0  0
   -1.1011    2.3890   -1.3861 C   0  0  0  0  0  0  0  0  0  0  0  0
   -0.6215   -1.6234   -0.1296 C   0  0  2  0  0  0  0  0  0  0  0  0
    1.8138   -1.4111   -0.2692 O   0  0  0  0  0  0  0  0  0  0  0  0
    1.6782   -1.3979    5.5315 O   0  0  0  0  0  0  0  0  0  0  0  0
   -1.8574   -0.8263    0.2881 C   0  0  2  0  0  0  0  0  0  0  0  0
   -2.3929    3.0008   -1.2733 O   0  0  0  0  0  0  0  0  0  0  0  0
   -0.5199   -2.9095    0.5446 N   0  0  0  0  0  0  0  0  0  0  0  0
   -3.0354   -1.5866    0.1628 O   0  0  0  0  0  0  0  0  0  0  0  0
   -0.4634   -4.1264   -0.0726 C   0  0  0  0  0  0  0  0  0  0  0  0
   -0.3492   -5.1464    0.5739 O   0  0  0  0  0  0  0  0  0  0  0  0
   -0.5552   -4.1069   -1.5774 C   0  0  0  0  0  0  0  0  0  0  0  0
    2.3414    2.2969    1.9593 H   0  0  0  0  0  0  0  0  0  0  0  0
   -0.6151    1.6455    2.0287 H   0  0  0  0  0  0  0  0  0  0  0  0
    0.7580    3.0745    4.1659 H   0  0  0  0  0  0  0  0  0  0  0  0
    0.7108    4.3318    1.6475 H   0  0  0  0  0  0  0  0  0  0  0  0
    0.8523    0.6215   -1.4255 H   0  0  0  0  0  0  0  0  0  0  0  0
    2.4477    0.8154    4.2014 H   0  0  0  0  0  0  0  0  0  0  0  0
   -0.5671    0.3021    4.0520 H   0  0  0  0  0  0  0  0  0  0  0  0
   -1.9216    2.2492    3.6054 H   0  0  0  0  0  0  0  0  0  0  0  0
   -1.2291    1.5795    0.5118 H   0  0  0  0  0  0  0  0  0  0  0  0
    0.6298   -0.8000    1.2395 H   0  0  0  0  0  0  0  0  0  0  0  0
    0.7899   -1.7326    3.7222 H   0  0  0  0  0  0  0  0  0  0  0  0
    2.5413   -1.6606    3.7006 H   0  0  0  0  0  0  0  0  0  0  0  0
    1.0467    1.7179    5.9207 H   0  0  0  0  0  0  0  0  0  0  0  0
   -1.1070    5.0404   -0.8204 H   0  0  0  0  0  0  0  0  0  0  0  0
   -2.2165    5.7820    0.3194 H   0  0  0  0  0  0  0  0  0  0  0  0
   -0.4444    5.9748    0.5053 H   0  0  0  0  0  0  0  0  0  0  0  0
   -0.3207    3.1320   -1.1839 H   0  0  0  0  0  0  0  0  0  0  0  0
   -1.0141    2.0917   -2.4258 H   0  0  0  0  0  0  0  0  0  0  0  0
   -0.6662   -1.7628   -1.2100 H   0  0  0  0  0  0  0  0  0  0  0  0
    1.8202   -1.4618   -1.2388 H   0  0  0  0  0  0  0  0  0  0  0  0
    2.3161   -0.7773    5.9204 H   0  0  0  0  0  0  0  0  0  0  0  0
   -1.7962   -0.4782    1.3333 H   0  0  0  0  0  0  0  0  0  0  0  0
   -2.7518    2.8437   -0.3701 H   0  0  0  0  0  0  0  0  0  0  0  0
   -0.4190   -2.9521    1.5543 H   0  0  0  0  0  0  0  0  0  0  0  0
   -3.1402   -1.6930   -0.7958 H   0  0  0  0  0  0  0  0  0  0  0  0
   -1.4956   -3.6378   -1.8848 H   0  0  0  0  0  0  0  0  0  0  0  0
    0.2937   -3.5547   -1.9945 H   0  0  0  0  0  0  0  0  0  0  0  0
   -0.5324   -5.1257   -1.9600 H   0  0  0  0  0  0  0  0  0  0  0  0
  2  1  1  0  0  0  0
  2  3  1  0  0  0  0
  2  4  1  0  0  0  0
  2 30  1  1  0  0  0
  3  5  1  0  0  0  0
  3  6  1  0  0  0  0
  3 31  1  6  0  0  0
  4  8  1  0  0  0  0
  5  9  1  0  0  0  0
  5 10  1  0  0  0  0
  5 32  1  1  0  0  0
  6 11  1  0  0  0  0
  6 33  1  0  0  0  0
  7  1  1  0  0  0  0
  7 12  1  0  0  0  0
  7 13  1  0  0  0  0
  7 34  1  6  0  0  0
  8  9  1  0  0  0  0
  8 35  1  1  0  0  0
  8 14  1  0  0  0  0
  9 15  1  0  0  0  0
  9 36  1  6  0  0  0
 10 37  1  0  0  0  0
 11 16  1  0  0  0  0
 11 17  2  0  0  0  0
 12 18  1  0  0  0  0
 12 38  1  1  0  0  0
 12 19  1  0  0  0  0
 13 20  1  0  0  0  0
 13 21  1  0  0  0  0
 13 39  1  1  0  0  0
 14 22  1  0  0  0  0
 14 40  1  0  0  0  0
 14 41  1  0  0  0  0
 15 42  1  0  0  0  0
 16 43  1  0  0  0  0
 16 44  1  0  0  0  0
 16 45  1  0  0  0  0
 18 23  1  0  0  0  0
 19 24  1  0  0  0  0
 19 46  1  0  0  0  0
 19 47  1  0  0  0  0
 20 25  1  0  0  0  0
 20 23  1  0  0  0  0
 20 48  1  6  0  0  0
 21 49  1  0  0  0  0
 22 50  1  0  0  0  0
 23 51  1  1  0  0  0
 23 26  1  0  0  0  0
 24 52  1  0  0  0  0
 25 27  1  0  0  0  0
 25 53  1  0  0  0  0
 26 54  1  0  0  0  0
 27 28  2  0  0  0  0
 27 29  1  0  0  0  0
 29 55  1  0  0  0  0
 29 56  1  0  0  0  0
 29 57  1  0  0  0  0
M  END
>  <DRUGBANK_ID>
DB03013

>  <SECONDARY_ACCESSION_NUMBERS>
EXPT00851

>  <COMMON_NAME>
N-acetyl-beta-D-glucosaminyl-(1->4)-N-acetyl-beta-D-glucosamine

>  <CAS_NUMBER>
35061-50-8

>  <SYNONYMS>
Chitodextrin; β-D-GlcNAc-(1→4)-β-D-GlcNAc; β-D-GlcpNAc-(1→4)-β-D-GlcpNAc; βGlcNAc(1→4)βGlcNAc

$$$$
