
 OpenBabel10282417143D

 33 34  0  0  0  0  0  0  0  0999 V2000
    0.8769   -0.0428    0.0369 O   0  0  0  0  0  0  0  0  0  0  0  0
   -4.8966   -7.4523    1.2170 O   0  0  0  0  0  0  0  0  0  0  0  0
   -3.2564   -6.6834    2.4909 O   0  0  0  0  0  0  0  0  0  0  0  0
   -2.5363   -3.5428   -0.1918 N   0  0  0  0  0  0  0  0  0  0  0  0
   -1.9220   -4.4795    1.7047 N   0  0  0  0  0  0  0  0  0  0  0  0
   -3.7445   -5.5314    0.5225 N   0  0  0  0  0  0  0  0  0  0  0  0
   -1.4802   -2.7848    0.2697 C   0  0  0  0  0  0  0  0  0  0  0  0
   -1.1283   -3.3947    1.4648 C   0  0  0  0  0  0  0  0  0  0  0  0
    0.2615   -1.1597    0.5403 C   0  0  0  0  0  0  0  0  0  0  0  0
   -0.8127   -1.6546   -0.2205 C   0  0  0  0  0  0  0  0  0  0  0  0
   -0.0831   -2.8650    2.2350 C   0  0  0  0  0  0  0  0  0  0  0  0
   -2.7634   -4.5712    0.7015 C   0  0  0  0  0  0  0  0  0  0  0  0
    2.3099   -0.0640    0.0785 C   0  0  0  0  0  0  0  0  0  0  0  0
    0.6008   -1.7341    1.7670 C   0  0  0  0  0  0  0  0  0  0  0  0
    2.8296    1.2353   -0.5407 C   0  0  0  0  0  0  0  0  0  0  0  0
    2.3506    2.4513    0.2406 C   0  0  0  0  0  0  0  0  0  0  0  0
   -3.9097   -6.5369    1.4628 C   0  0  0  0  0  0  0  0  0  0  0  0
   -5.7613   -7.4547    0.0793 C   0  0  0  0  0  0  0  0  0  0  0  0
   -3.0445   -3.3668   -1.0441 H   0  0  0  0  0  0  0  0  0  0  0  0
   -4.3302   -5.4965   -0.2923 H   0  0  0  0  0  0  0  0  0  0  0  0
   -1.0917   -1.1761   -1.1524 H   0  0  0  0  0  0  0  0  0  0  0  0
    0.1762   -3.3295    3.1805 H   0  0  0  0  0  0  0  0  0  0  0  0
    2.6845   -0.1356    1.1054 H   0  0  0  0  0  0  0  0  0  0  0  0
    2.6830   -0.9158   -0.5029 H   0  0  0  0  0  0  0  0  0  0  0  0
    1.3762   -1.3078    2.3960 H   0  0  0  0  0  0  0  0  0  0  0  0
    3.9255    1.2254   -0.5642 H   0  0  0  0  0  0  0  0  0  0  0  0
    2.4763    1.3220   -1.5749 H   0  0  0  0  0  0  0  0  0  0  0  0
    2.7041    2.4079    1.2758 H   0  0  0  0  0  0  0  0  0  0  0  0
    2.7268    3.3735   -0.2118 H   0  0  0  0  0  0  0  0  0  0  0  0
    1.2574    2.5052    0.2547 H   0  0  0  0  0  0  0  0  0  0  0  0
   -6.3630   -6.5438    0.0608 H   0  0  0  0  0  0  0  0  0  0  0  0
   -5.1797   -7.5802   -0.8362 H   0  0  0  0  0  0  0  0  0  0  0  0
   -6.4365   -8.3119    0.1789 H   0  0  0  0  0  0  0  0  0  0  0  0
  1  9  1  0  0  0  0
  1 13  1  0  0  0  0
  2 17  1  0  0  0  0
  2 18  1  0  0  0  0
  3 17  2  0  0  0  0
  4  7  1  0  0  0  0
  4 12  1  0  0  0  0
  4 19  1  0  0  0  0
  5  8  1  0  0  0  0
  5 12  2  0  0  0  0
  6 12  1  0  0  0  0
  6 17  1  0  0  0  0
  6 20  1  0  0  0  0
  7  8  2  0  0  0  0
  7 10  1  0  0  0  0
  8 11  1  0  0  0  0
  9 10  2  0  0  0  0
  9 14  1  0  0  0  0
 10 21  1  0  0  0  0
 11 14  2  0  0  0  0
 11 22  1  0  0  0  0
 13 15  1  0  0  0  0
 13 23  1  0  0  0  0
 13 24  1  0  0  0  0
 14 25  1  0  0  0  0
 15 16  1  0  0  0  0
 15 26  1  0  0  0  0
 15 27  1  0  0  0  0
 16 28  1  0  0  0  0
 16 29  1  0  0  0  0
 16 30  1  0  0  0  0
 18 31  1  0  0  0  0
 18 32  1  0  0  0  0
 18 33  1  0  0  0  0
M  END
>  <DRUGBANK_ID>
DB04910

>  <COMMON_NAME>
Oxibendazole

>  <CAS_NUMBER>
20559-55-1

>  <UNII>
022N12KJ0X

>  <SYNONYMS>
5-Propoxy-2-benzimidazolecarbamic acid methyl ester; Methyl 5-n-propoxy-2-benzimidazole carbamate; Methyl 5-propoxy-2-benzimidazolecarbamate; Oxibendazole; Oxibendazolo; Oxibendazolum

$$$$
