
 OpenBabel10282417223D

 78 83  0  0  1  0  0  0  0  0999 V2000
  -14.1124  -12.2363   11.0541 C   0  0  0  0  0  0  0  0  0  0  0  0
   -7.6630   -0.0257    8.0722 C   0  0  0  0  0  0  0  0  0  0  0  0
   -3.8330   -5.8445   18.7435 C   0  0  0  0  0  0  0  0  0  0  0  0
   -7.0669   -3.0091   16.4926 C   0  0  0  0  0  0  0  0  0  0  0  0
   -8.6890   -1.4936   11.2544 C   0  0  0  0  0  0  0  0  0  0  0  0
   -4.6921   -4.7575   18.6917 C   0  0  0  0  0  0  0  0  0  0  0  0
   -6.2870   -3.3544   17.5850 C   0  0  0  0  0  0  0  0  0  0  0  0
   -7.8885   -2.5987   10.6386 C   0  0  0  0  0  0  0  0  0  0  0  0
   -3.6988   -6.6432   17.6265 C   0  0  0  0  0  0  0  0  0  0  0  0
   -7.0163   -3.7855   15.3335 C   0  0  0  0  0  0  0  0  0  0  0  0
  -13.1553   -7.7365   13.0380 C   0  0  0  0  0  0  0  0  0  0  0  0
   -7.9261   -7.2085   13.2290 C   0  0  0  0  0  0  0  0  0  0  0  0
  -13.5358   -9.1974   13.2157 C   0  0  0  0  0  0  0  0  0  0  0  0
   -8.4595   -0.3453   10.3121 C   0  0  0  0  0  0  0  0  0  0  0  0
   -6.6233   -7.0625   13.9902 C   0  0  0  0  0  0  0  0  0  0  0  0
   -9.9910   -8.8333   10.2542 C   0  0  0  0  0  0  0  0  0  0  0  0
  -11.4305   -8.9473    9.7452 C   0  0  0  0  0  0  0  0  0  0  0  0
  -10.7810   -7.6373   12.2637 C   0  0  0  0  0  0  0  0  0  0  0  0
   -5.9212   -5.0939   12.7120 C   0  0  0  0  0  0  0  0  0  0  0  0
   -7.0642   -3.2854    8.2978 C   0  0  0  0  0  0  0  0  0  0  0  0
  -13.2200  -11.2942   10.7074 C   0  0  0  0  0  0  0  0  0  0  0  0
   -5.4516   -4.4766   17.5387 C   0  0  0  0  0  0  0  0  0  0  0  0
  -12.2637   -7.7530   11.7704 C   0  0  1  0  0  0  0  0  0  0  0  0
   -7.2903   -2.1206    9.3244 C   0  0  1  0  0  0  0  0  0  0  0  0
   -7.9055   -6.4869   11.9078 C   0  0  0  0  0  0  0  0  0  0  0  0
   -4.4042   -6.3581   16.4488 C   0  0  0  0  0  0  0  0  0  0  0  0
   -6.8938   -5.5690   11.6117 C   0  0  0  0  0  0  0  0  0  0  0  0
   -6.1880   -4.9281   15.2185 C   0  0  0  0  0  0  0  0  0  0  0  0
   -5.3595   -5.2914   16.3557 C   0  0  0  0  0  0  0  0  0  0  0  0
   -8.8380   -6.7613   10.9124 C   0  0  0  0  0  0  0  0  0  0  0  0
  -13.5207   -9.7864   10.6765 C   0  0  0  0  0  0  0  0  0  0  0  0
   -7.7303   -5.3035    9.4859 C   0  0  0  0  0  0  0  0  0  0  0  0
   -3.8757   -7.3500   15.1287 Cl  0  0  0  0  0  0  0  0  0  0  0  0
  -11.9238  -11.6531   10.5758 F   0  0  0  0  0  0  0  0  0  0  0  0
  -13.8514  -10.4093   13.3630 N   0  0  0  0  0  0  0  0  0  0  0  0
   -6.7493   -5.0392   10.3691 N   0  0  0  0  0  0  0  0  0  0  0  0
   -8.7548   -6.1554    9.7066 N   0  0  0  0  0  0  0  0  0  0  0  0
   -8.2141   -1.0015    9.0086 N   0  0  0  0  0  0  0  0  0  0  0  0
   -6.2613   -5.6529   14.0330 N   0  0  0  0  0  0  0  0  0  0  0  0
   -9.8723   -7.6530   11.1155 N   0  0  0  0  0  0  0  0  0  0  0  0
  -12.3741   -8.9770   10.8537 N   0  0  0  0  0  0  0  0  0  0  0  0
  -14.6560   -9.3530   10.7538 O   0  0  0  0  0  0  0  0  0  0  0  0
   -7.9080   -4.4541    8.3938 O   0  0  0  0  0  0  0  0  0  0  0  0
  -12.4899   -6.8666   11.1651 H   0  0  0  0  0  0  0  0  0  0  0  0
   -6.2991   -1.6764    9.5123 H   0  0  0  0  0  0  0  0  0  0  0  0
  -15.1251  -11.9792   11.3519 H   0  0  0  0  0  0  0  0  0  0  0  0
  -13.8199  -13.2763   11.1708 H   0  0  0  0  0  0  0  0  0  0  0  0
   -6.7299    0.4224    8.4349 H   0  0  0  0  0  0  0  0  0  0  0  0
   -7.4742   -0.4741    7.0933 H   0  0  0  0  0  0  0  0  0  0  0  0
   -8.3832    0.7874    7.9167 H   0  0  0  0  0  0  0  0  0  0  0  0
   -3.2458   -6.0548   19.6325 H   0  0  0  0  0  0  0  0  0  0  0  0
   -7.7195   -2.1400   16.5495 H   0  0  0  0  0  0  0  0  0  0  0  0
   -8.3622   -1.3138   12.2820 H   0  0  0  0  0  0  0  0  0  0  0  0
   -9.7429   -1.7965   11.2795 H   0  0  0  0  0  0  0  0  0  0  0  0
   -4.7558   -4.1214   19.5750 H   0  0  0  0  0  0  0  0  0  0  0  0
   -6.3355   -2.7283   18.4775 H   0  0  0  0  0  0  0  0  0  0  0  0
   -7.0893   -2.8938   11.3143 H   0  0  0  0  0  0  0  0  0  0  0  0
   -8.6158   -3.3946   10.4898 H   0  0  0  0  0  0  0  0  0  0  0  0
   -3.0066   -7.4812   17.6502 H   0  0  0  0  0  0  0  0  0  0  0  0
   -7.6707   -3.5055   14.5102 H   0  0  0  0  0  0  0  0  0  0  0  0
  -12.6677   -7.3378   13.9318 H   0  0  0  0  0  0  0  0  0  0  0  0
  -14.0683   -7.1618   12.8492 H   0  0  0  0  0  0  0  0  0  0  0  0
   -8.0745   -8.2791   13.0453 H   0  0  0  0  0  0  0  0  0  0  0  0
   -8.7380   -6.8304   13.8552 H   0  0  0  0  0  0  0  0  0  0  0  0
   -7.5798    0.2161   10.6529 H   0  0  0  0  0  0  0  0  0  0  0  0
   -9.3266    0.3187   10.2959 H   0  0  0  0  0  0  0  0  0  0  0  0
   -5.8589   -7.6125   13.4255 H   0  0  0  0  0  0  0  0  0  0  0  0
   -6.7251   -7.5216   14.9777 H   0  0  0  0  0  0  0  0  0  0  0  0
   -9.2930   -8.8205    9.4145 H   0  0  0  0  0  0  0  0  0  0  0  0
   -9.7652   -9.7223   10.8615 H   0  0  0  0  0  0  0  0  0  0  0  0
  -11.6933   -8.0647    9.1505 H   0  0  0  0  0  0  0  0  0  0  0  0
  -11.5666   -9.8252    9.1092 H   0  0  0  0  0  0  0  0  0  0  0  0
  -10.5519   -8.4978   12.9121 H   0  0  0  0  0  0  0  0  0  0  0  0
  -10.6696   -6.7310   12.8703 H   0  0  0  0  0  0  0  0  0  0  0  0
   -5.8781   -3.9994   12.7429 H   0  0  0  0  0  0  0  0  0  0  0  0
   -4.9217   -5.4487   12.4351 H   0  0  0  0  0  0  0  0  0  0  0  0
   -6.0115   -3.6018    8.3127 H   0  0  0  0  0  0  0  0  0  0  0  0
   -7.2057   -2.8802    7.2849 H   0  0  0  0  0  0  0  0  0  0  0  0
  1 46  1  0  0  0  0
  1 47  1  0  0  0  0
  2 48  1  0  0  0  0
  2 49  1  0  0  0  0
  2 50  1  0  0  0  0
  3 51  1  0  0  0  0
  4 52  1  0  0  0  0
  5 53  1  0  0  0  0
  5 54  1  0  0  0  0
  6  3  2  0  0  0  0
  6 55  1  0  0  0  0
  7  4  2  0  0  0  0
  7 56  1  0  0  0  0
  8  5  1  0  0  0  0
  8 57  1  0  0  0  0
  8 58  1  0  0  0  0
  9  3  1  0  0  0  0
  9 59  1  0  0  0  0
 10  4  1  0  0  0  0
 10 60  1  0  0  0  0
 11 61  1  0  0  0  0
 11 62  1  0  0  0  0
 12 63  1  0  0  0  0
 12 64  1  0  0  0  0
 13 11  1  0  0  0  0
 14  5  1  0  0  0  0
 14 65  1  0  0  0  0
 14 66  1  0  0  0  0
 15 12  1  0  0  0  0
 15 67  1  0  0  0  0
 15 68  1  0  0  0  0
 16 69  1  0  0  0  0
 16 70  1  0  0  0  0
 17 16  1  0  0  0  0
 17 71  1  0  0  0  0
 17 72  1  0  0  0  0
 18 73  1  0  0  0  0
 18 74  1  0  0  0  0
 19 75  1  0  0  0  0
 19 76  1  0  0  0  0
 20 77  1  0  0  0  0
 20 78  1  0  0  0  0
 21  1  2  0  0  0  0
 22  6  1  0  0  0  0
 22  7  1  0  0  0  0
 23 18  1  0  0  0  0
 23 41  1  0  0  0  0
 23 44  1  6  0  0  0
 23 11  1  0  0  0  0
 24  8  1  0  0  0  0
 24 38  1  0  0  0  0
 24 45  1  1  0  0  0
 24 20  1  0  0  0  0
 25 12  1  0  0  0  0
 26  9  2  0  0  0  0
 27 19  1  0  0  0  0
 27 25  2  0  0  0  0
 28 10  2  0  0  0  0
 29 22  2  0  0  0  0
 29 26  1  0  0  0  0
 29 28  1  0  0  0  0
 30 25  1  0  0  0  0
 31 21  1  0  0  0  0
 33 26  1  0  0  0  0
 34 21  1  0  0  0  0
 35 13  3  0  0  0  0
 36 27  1  0  0  0  0
 36 32  2  0  0  0  0
 37 30  2  0  0  0  0
 37 32  1  0  0  0  0
 38  2  1  0  0  0  0
 38 14  1  0  0  0  0
 39 15  1  0  0  0  0
 39 19  1  0  0  0  0
 39 28  1  0  0  0  0
 40 16  1  0  0  0  0
 40 18  1  0  0  0  0
 40 30  1  0  0  0  0
 41 17  1  0  0  0  0
 41 31  1  0  0  0  0
 42 31  2  0  0  0  0
 43 20  1  0  0  0  0
 43 32  1  0  0  0  0
M  END
>  <DRUGBANK_ID>
DB15568

>  <COMMON_NAME>
Adagrasib

>  <CAS_NUMBER>
2326521-71-3

>  <UNII>
8EOO6HQF8Y

>  <SYNONYMS>
((2s)-4-(7-(8-chloronaphthalen-1-yl)-2-(((2s)-1- methylpyrrolidin-2-yl)methoxy)-5,6,7,8- tetrahydropyrido(3,4-d)pyrimidin-4-yl)-1-(2-fluoroprop2-enoyl)piperazin-2-yl)acetonitrile; 2-piperazineacetonitrile, 4-(7-(8-chloro-1-naphthalenyl)-5,6,7,8-tetrahydro-2-(((2s)-1-methyl-2-pyrrolidinyl)methoxy)pyrido(3,4-d)pyrimidin-4-yl)-1-(2-fluoro-1-oxo-2-propen-1-yl)-, (2s)-; KRAS G12C inhibitor MRTX849

$$$$
