
 OpenBabel10282417193D

 60 59  0  0  1  0  0  0  0  0999 V2000
    1.8489   18.6381   -4.3368 C   0  0  0  0  0  0  0  0  0  0  0  0
    1.1763   17.6917   -3.3557 C   0  0  0  0  0  0  0  0  0  0  0  0
   -0.3458   17.8110   -3.4428 C   0  0  0  0  0  0  0  0  0  0  0  0
   -0.8644   17.4629   -4.8420 C   0  0  0  0  0  0  0  0  0  0  0  0
   -0.4694   16.0362   -5.2378 C   0  0  0  0  0  0  0  0  0  0  0  0
   -1.0833   15.0243   -4.2667 C   0  0  0  0  0  0  0  0  0  0  0  0
   -2.6099   15.1373   -4.2942 C   0  0  0  0  0  0  0  0  0  0  0  0
   -3.1215   14.8586   -5.7120 C   0  0  0  0  0  0  0  0  0  0  0  0
   -2.7212   13.4396   -6.1268 C   0  0  0  0  0  0  0  0  0  0  0  0
   -3.3189   12.4420   -5.1295 C   0  0  0  0  0  0  0  0  0  0  0  0
   -4.8437   12.6181   -5.0925 C   0  0  0  0  0  0  0  0  0  0  0  0
   -5.4189   12.3541   -6.4814 C   0  0  0  0  0  0  0  0  0  0  0  0
   -5.0283   10.9513   -6.9137 C   0  0  0  0  0  0  0  0  0  0  0  0
   -5.5906    9.9313   -5.9128 C   0  0  0  0  0  0  0  0  0  0  0  0
   -7.1042    9.8376   -6.0291 C   0  0  0  0  0  0  0  0  0  0  0  0
   -7.5813    9.5283   -7.4541 C   0  0  1  0  0  0  0  0  0  0  0  0
   -7.0985    8.1468   -8.0107 C   0  0  2  0  0  0  0  0  0  0  0  0
   -5.5580    7.9585   -8.1302 C   0  0  0  0  0  0  0  0  0  0  0  0
   -5.1328    7.1102   -9.1900 O   0  0  0  0  0  0  0  0  0  0  0  0
   -7.7407    7.8838   -9.3110 N   0  0  0  0  0  0  0  0  0  0  0  0
   -9.0157    9.5962   -7.4724 O   0  0  0  0  0  0  0  0  0  0  0  0
    1.5756   18.4173   -5.3738 H   0  0  0  0  0  0  0  0  0  0  0  0
    2.9346   18.5555   -4.2700 H   0  0  0  0  0  0  0  0  0  0  0  0
    1.5530   19.6692   -4.1223 H   0  0  0  0  0  0  0  0  0  0  0  0
    1.5038   16.6637   -3.5517 H   0  0  0  0  0  0  0  0  0  0  0  0
    1.5012   17.9138   -2.3353 H   0  0  0  0  0  0  0  0  0  0  0  0
   -0.8033   17.1611   -2.6866 H   0  0  0  0  0  0  0  0  0  0  0  0
   -0.6629   18.8247   -3.1797 H   0  0  0  0  0  0  0  0  0  0  0  0
   -1.9508   17.6006   -4.8696 H   0  0  0  0  0  0  0  0  0  0  0  0
   -0.4964   18.1672   -5.5921 H   0  0  0  0  0  0  0  0  0  0  0  0
   -0.7795   15.8455   -6.2705 H   0  0  0  0  0  0  0  0  0  0  0  0
    0.6148   15.9041   -5.2715 H   0  0  0  0  0  0  0  0  0  0  0  0
   -0.7435   14.0157   -4.5245 H   0  0  0  0  0  0  0  0  0  0  0  0
   -0.7203   15.1616   -3.2449 H   0  0  0  0  0  0  0  0  0  0  0  0
   -3.0414   14.4564   -3.5541 H   0  0  0  0  0  0  0  0  0  0  0  0
   -2.9614   16.1159   -3.9590 H   0  0  0  0  0  0  0  0  0  0  0  0
   -4.2036   15.0129   -5.7511 H   0  0  0  0  0  0  0  0  0  0  0  0
   -2.7507   15.5798   -6.4438 H   0  0  0  0  0  0  0  0  0  0  0  0
   -3.0455   13.2470   -7.1541 H   0  0  0  0  0  0  0  0  0  0  0  0
   -1.6368   13.3091   -6.1802 H   0  0  0  0  0  0  0  0  0  0  0  0
   -3.0097   11.4264   -5.3935 H   0  0  0  0  0  0  0  0  0  0  0  0
   -2.9103   12.5584   -4.1227 H   0  0  0  0  0  0  0  0  0  0  0  0
   -5.2744   11.9676   -4.3296 H   0  0  0  0  0  0  0  0  0  0  0  0
   -5.1528   13.6085   -4.7530 H   0  0  0  0  0  0  0  0  0  0  0  0
   -6.5041   12.4838   -6.4815 H   0  0  0  0  0  0  0  0  0  0  0  0
   -5.0635   13.0752   -7.2257 H   0  0  0  0  0  0  0  0  0  0  0  0
   -5.3748   10.8226   -7.9400 H   0  0  0  0  0  0  0  0  0  0  0  0
   -3.9457   10.8155   -7.0099 H   0  0  0  0  0  0  0  0  0  0  0  0
   -5.1092    8.9670   -6.0255 H   0  0  0  0  0  0  0  0  0  0  0  0
   -5.3204   10.1557   -4.8793 H   0  0  0  0  0  0  0  0  0  0  0  0
   -7.4867    9.0915   -5.3243 H   0  0  0  0  0  0  0  0  0  0  0  0
   -7.5581   10.7809   -5.6913 H   0  0  0  0  0  0  0  0  0  0  0  0
   -7.2805   10.3276   -8.1411 H   0  0  0  0  0  0  0  0  0  0  0  0
   -7.4778    7.3818   -7.3229 H   0  0  0  0  0  0  0  0  0  0  0  0
   -5.0394    8.8951   -8.3100 H   0  0  0  0  0  0  0  0  0  0  0  0
   -5.1736    7.4915   -7.2192 H   0  0  0  0  0  0  0  0  0  0  0  0
   -5.6839    6.3143   -9.1327 H   0  0  0  0  0  0  0  0  0  0  0  0
   -8.7196    8.1714   -9.2356 H   0  0  0  0  0  0  0  0  0  0  0  0
   -7.3315    8.5299   -9.9907 H   0  0  0  0  0  0  0  0  0  0  0  0
   -9.3556    9.0114   -6.7637 H   0  0  0  0  0  0  0  0  0  0  0  0
  1  2  1  0  0  0  0
  1 22  1  0  0  0  0
  1 23  1  0  0  0  0
  1 24  1  0  0  0  0
  2  3  1  0  0  0  0
  2 25  1  0  0  0  0
  2 26  1  0  0  0  0
  3  4  1  0  0  0  0
  3 27  1  0  0  0  0
  3 28  1  0  0  0  0
  4  5  1  0  0  0  0
  4 29  1  0  0  0  0
  4 30  1  0  0  0  0
  5  6  1  0  0  0  0
  5 31  1  0  0  0  0
  5 32  1  0  0  0  0
  6  7  1  0  0  0  0
  6 33  1  0  0  0  0
  6 34  1  0  0  0  0
  7  8  1  0  0  0  0
  7 35  1  0  0  0  0
  7 36  1  0  0  0  0
  8  9  1  0  0  0  0
  8 37  1  0  0  0  0
  8 38  1  0  0  0  0
  9 10  1  0  0  0  0
  9 39  1  0  0  0  0
  9 40  1  0  0  0  0
 10 11  1  0  0  0  0
 10 41  1  0  0  0  0
 10 42  1  0  0  0  0
 11 12  1  0  0  0  0
 11 43  1  0  0  0  0
 11 44  1  0  0  0  0
 12 13  1  0  0  0  0
 12 45  1  0  0  0  0
 12 46  1  0  0  0  0
 13 14  1  0  0  0  0
 13 47  1  0  0  0  0
 13 48  1  0  0  0  0
 14 15  1  0  0  0  0
 14 49  1  0  0  0  0
 14 50  1  0  0  0  0
 15 16  1  0  0  0  0
 15 51  1  0  0  0  0
 15 52  1  0  0  0  0
 16 21  1  0  0  0  0
 16 53  1  6  0  0  0
 17 20  1  0  0  0  0
 17 54  1  1  0  0  0
 17 18  1  0  0  0  0
 17 16  1  0  0  0  0
 18 19  1  0  0  0  0
 18 55  1  0  0  0  0
 18 56  1  0  0  0  0
 19 57  1  0  0  0  0
 20 58  1  0  0  0  0
 20 59  1  0  0  0  0
 21 60  1  0  0  0  0
M  END
>  <DRUGBANK_ID>
DB11924

>  <COMMON_NAME>
Safingol

>  <CAS_NUMBER>
15639-50-6

>  <UNII>
OWA98U788S

>  <SYNONYMS>
Safingol

$$$$
