
 OpenBabel10282417243D

178187  0  0  1  0  0  0  0  0999 V2000
    1.1225   -0.0957    0.1561 H   0  0  0  0  0  0  0  0  0  0  0  0
    1.5678   -0.7029    1.0100 C   0  0  1  0  0  0  0  0  0  0  0  0
    0.4586   -1.5489    2.6862 C   0  0  0  0  0  0  0  0  0  0  0  0
    1.4874   -0.7958    2.5481 C   0  0  1  0  0  0  0  0  0  0  0  0
    1.7839   -0.7437    3.5264 H   0  0  0  0  0  0  0  0  0  0  0  0
    0.3512    0.0538    2.1378 C   0  0  2  0  0  0  0  0  0  0  0  0
    0.9741    0.7828    1.6795 H   0  0  0  0  0  0  0  0  0  0  0  0
   -0.1500    0.3446    3.2979 C   0  0  0  0  0  0  0  0  0  0  0  0
   -1.4638    1.7083    2.4054 C   0  0  0  0  0  0  0  0  0  0  0  0
   -2.3659    1.6928    1.4899 C   0  0  1  0  0  0  0  0  0  0  0  0
   -2.7308    1.3086    2.4711 H   0  0  0  0  0  0  0  0  0  0  0  0
   -2.3110    3.0924    0.6812 C   0  0  0  0  0  0  0  0  0  0  0  0
   -1.3986    3.6815   -0.2432 C   0  0  2  0  0  0  0  0  0  0  0  0
   -1.6384    2.6855   -1.2354 C   0  0  0  0  0  0  0  0  0  0  0  0
   -2.5847    1.0763   -0.2976 C   0  0  0  0  0  0  0  0  0  0  0  0
   -1.6040    0.7675    0.7827 C   0  0  1  0  0  0  0  0  0  0  0  0
   -0.5597    1.0368   -0.0637 C   0  0  0  0  0  0  0  0  0  0  0  0
   -0.9121   -0.3332    1.3784 C   0  0  1  0  0  0  0  0  0  0  0  0
   -1.5751   -0.7200    2.1148 H   0  0  0  0  0  0  0  0  0  0  0  0
   -0.5720   -1.2695    0.2597 C   0  0  0  0  0  0  0  0  0  0  0  0
    0.1913   -2.4556    0.7468 C   0  0  0  0  0  0  0  0  0  0  0  0
    1.6130   -2.0866    1.5532 C   0  0  1  0  0  0  0  0  0  0  0  0
    2.0807   -3.3546    2.0616 C   0  0  0  0  0  0  0  0  0  0  0  0
    2.6507   -1.5083    0.7351 C   0  0  1  0  0  0  0  0  0  0  0  0
    2.7482   -2.0878   -0.1285 H   0  0  0  0  0  0  0  0  0  0  0  0
    3.8586   -0.9474    1.4420 C   0  0  2  0  0  0  0  0  0  0  0  0
    3.8700   -1.2228    2.8918 C   0  0  0  0  0  0  0  0  0  0  0  0
    3.9753    0.5302    1.2492 C   0  0  1  0  0  0  0  0  0  0  0  0
    4.5579    1.2222    2.3526 O   0  0  0  0  0  0  0  0  0  0  0  0
    4.9499    0.8966    0.1656 C   0  0  0  0  0  0  0  0  0  0  0  0
    4.5175    0.2495   -1.0299 C   0  0  0  0  0  0  0  0  0  0  0  0
    3.1316    0.6389   -1.3730 C   0  0  1  0  0  0  0  0  0  0  0  0
    3.1824    2.2344   -1.6838 C   0  0  0  0  0  0  0  0  0  0  0  0
    2.4336   -0.2947   -2.3411 C   0  0  0  0  0  0  0  0  0  0  0  0
    2.5322   -1.6643   -2.4639 O   0  0  0  0  0  0  0  0  0  0  0  0
    3.8844   -2.0231   -2.3088 C   0  0  2  0  0  0  0  0  0  0  0  0
    4.8306   -1.0091   -2.7553 O   0  0  0  0  0  0  0  0  0  0  0  0
    4.6563   -0.2739   -4.0543 C   0  0  2  0  0  0  0  0  0  0  0  0
    3.1612    0.2941   -4.5772 C   0  0  0  0  0  0  0  0  0  0  0  0
    2.7124    1.5018   -3.8954 O   0  0  0  0  0  0  0  0  0  0  0  0
    5.0629   -1.3770   -4.8968 C   0  0  1  0  0  0  0  0  0  0  0  0
    6.4101   -1.6488   -4.6189 O   0  0  0  0  0  0  0  0  0  0  0  0
    4.1956   -2.5825   -4.5918 C   0  0  2  0  0  0  0  0  0  0  0  0
    2.8538   -2.2869   -4.8533 O   0  0  0  0  0  0  0  0  0  0  0  0
    4.3374   -3.0948   -3.1806 C   0  0  1  0  0  0  0  0  0  0  0  0
    5.7070   -3.4057   -2.9001 O   0  0  0  0  0  0  0  0  0  0  0  0
    2.6100    0.7833    0.9972 O   0  0  0  0  0  0  0  0  0  0  0  0
    0.2434    3.4897   -0.0205 O   0  0  0  0  0  0  0  0  0  0  0  0
    0.9832    2.8777    1.2782 C   0  0  2  0  0  0  0  0  0  0  0  0
    1.2485    2.0881    0.7670 H   0  0  0  0  0  0  0  0  0  0  0  0
    0.0896    2.0221    2.2146 O   0  0  0  0  0  0  0  0  0  0  0  0
   -0.9015    2.8181    4.2464 C   0  0  2  0  0  0  0  0  0  0  0  0
   -2.2560    4.2110    3.4641 C   0  0  0  0  0  0  0  0  0  0  0  0
   -4.0710    4.2322    2.9228 O   0  0  0  0  0  0  0  0  0  0  0  0
    1.3442    3.1430    4.9344 C   0  0  2  0  0  0  0  0  0  0  0  0
    0.5559    4.1730    6.3655 O   0  0  0  0  0  0  0  0  0  0  0  0
   -0.4277    6.1758    5.6921 C   0  0  2  0  0  0  0  0  0  0  0  0
   -1.0424    6.7247    6.3618 H   0  0  0  0  0  0  0  0  0  0  0  0
   -1.9744    5.3851    4.1393 O   0  0  0  0  0  0  0  0  0  0  0  0
   -1.0770    4.1621    2.2603 C   0  0  2  0  0  0  0  0  0  0  0  0
    0.0943    2.3868    3.4849 C   0  0  0  0  0  0  0  0  0  0  0  0
   -1.5478    1.5430    4.7002 O   0  0  0  0  0  0  0  0  0  0  0  0
    0.6251    5.1984    0.9031 C   0  0  1  0  0  0  0  0  0  0  0  0
    0.5311    6.6379    0.9393 O   0  0  0  0  0  0  0  0  0  0  0  0
    2.0403    5.6788    2.5412 C   0  0  2  0  0  0  0  0  0  0  0  0
    1.1964    3.8559    3.3763 O   0  0  0  0  0  0  0  0  0  0  0  0
   -0.0909    3.9478    5.0775 C   0  0  2  0  0  0  0  0  0  0  0  0
    0.2404    2.4866    5.6172 H   0  0  0  0  0  0  0  0  0  0  0  0
   -2.2654    4.0092    4.6170 O   0  0  0  0  0  0  0  0  0  0  0  0
   -2.6340    5.5205    2.9632 C   0  0  0  0  0  0  0  0  0  0  0  0
   -1.4443    6.7211    3.7703 C   0  0  1  0  0  0  0  0  0  0  0  0
   -2.6534    6.1455    5.4545 O   0  0  0  0  0  0  0  0  0  0  0  0
   -0.1208    6.8426    4.5369 C   0  0  2  0  0  0  0  0  0  0  0  0
    0.2133    6.6907    3.1349 O   0  0  0  0  0  0  0  0  0  0  0  0
    0.2607    5.5383    6.6753 C   0  0  1  0  0  0  0  0  0  0  0  0
   -0.9966    4.3864    7.2708 O   0  0  0  0  0  0  0  0  0  0  0  0
    1.4288    6.9619    4.2965 C   0  0  1  0  0  0  0  0  0  0  0  0
    0.7181    8.3807    3.3286 O   0  0  0  0  0  0  0  0  0  0  0  0
   -1.0270    8.1868    3.1412 C   0  0  2  0  0  0  0  0  0  0  0  0
   -1.4553    8.6593    2.3177 H   0  0  0  0  0  0  0  0  0  0  0  0
   -1.7173    7.3592    4.9964 O   0  0  0  0  0  0  0  0  0  0  0  0
   -0.9952    5.1730    5.0163 C   0  0  2  0  0  0  0  0  0  0  0  0
    1.1360    5.7190    5.3660 C   0  0  0  0  0  0  0  0  0  0  0  0
    0.8612    7.1841    6.5917 O   0  0  0  0  0  0  0  0  0  0  0  0
   -0.7683    4.1644    3.6251 C   0  0  1  0  0  0  0  0  0  0  0  0
   -2.6462    3.2718    2.4440 O   0  0  0  0  0  0  0  0  0  0  0  0
   -0.4432    5.4546    1.9296 C   0  0  2  0  0  0  0  0  0  0  0  0
    0.6643    4.9652    2.4222 O   0  0  0  0  0  0  0  0  0  0  0  0
   -1.3288    6.9748    1.4069 C   0  0  1  0  0  0  0  0  0  0  0  0
   -2.4917    6.4195    0.6579 O   0  0  0  0  0  0  0  0  0  0  0  0
    2.7912    3.8351    3.7249 C   0  0  2  0  0  0  0  0  0  0  0  0
    2.1180    4.9809    4.0076 O   0  0  0  0  0  0  0  0  0  0  0  0
    2.3499    3.0446    2.0834 C   0  0  1  0  0  0  0  0  0  0  0  0
    2.6528    1.9160    2.8035 O   0  0  0  0  0  0  0  0  0  0  0  0
    0.2017   -1.2242    4.0785 H   0  0  0  0  0  0  0  0  0  0  0  0
   -0.6015   -1.9902    2.9820 H   0  0  0  0  0  0  0  0  0  0  0  0
   -0.6831    0.1964    4.1706 H   0  0  0  0  0  0  0  0  0  0  0  0
    0.8408    0.8095    4.0516 H   0  0  0  0  0  0  0  0  0  0  0  0
   -1.9708    2.1479    3.2607 H   0  0  0  0  0  0  0  0  0  0  0  0
   -0.5985    2.9563    1.6900 H   0  0  0  0  0  0  0  0  0  0  0  0
   -3.3187    3.0776    0.5384 H   0  0  0  0  0  0  0  0  0  0  0  0
   -2.2691    4.1123    0.9576 H   0  0  0  0  0  0  0  0  0  0  0  0
   -1.6088    4.7725   -0.3065 H   0  0  0  0  0  0  0  0  0  0  0  0
   -0.5202    3.1534   -1.7068 H   0  0  0  0  0  0  0  0  0  0  0  0
   -0.5262    2.4565   -1.1082 H   0  0  0  0  0  0  0  0  0  0  0  0
   -2.6361    0.1057   -0.7154 H   0  0  0  0  0  0  0  0  0  0  0  0
   -3.3925    0.5390    0.7305 H   0  0  0  0  0  0  0  0  0  0  0  0
    0.2942    1.5442   -0.0603 H   0  0  0  0  0  0  0  0  0  0  0  0
   -0.5059    0.8259   -1.0908 H   0  0  0  0  0  0  0  0  0  0  0  0
   -1.0704    1.8661    0.1442 H   0  0  0  0  0  0  0  0  0  0  0  0
   -0.0002   -0.8289   -0.5653 H   0  0  0  0  0  0  0  0  0  0  0  0
   -1.4509   -1.4692   -0.2669 H   0  0  0  0  0  0  0  0  0  0  0  0
    0.4624   -3.0807   -0.0518 H   0  0  0  0  0  0  0  0  0  0  0  0
   -0.4655   -2.9477    1.4575 H   0  0  0  0  0  0  0  0  0  0  0  0
    2.3724   -3.9567    1.2349 H   0  0  0  0  0  0  0  0  0  0  0  0
    2.9756   -3.2768    2.5629 H   0  0  0  0  0  0  0  0  0  0  0  0
    1.4140   -3.7834    2.7717 H   0  0  0  0  0  0  0  0  0  0  0  0
    4.6992   -1.4702    1.0536 H   0  0  0  0  0  0  0  0  0  0  0  0
    3.7251   -2.1977    3.2127 H   0  0  0  0  0  0  0  0  0  0  0  0
    4.6873   -0.9216    3.4519 H   0  0  0  0  0  0  0  0  0  0  0  0
    3.2210   -0.6312    3.4468 H   0  0  0  0  0  0  0  0  0  0  0  0
    3.9074    1.1236    3.0843 H   0  0  0  0  0  0  0  0  0  0  0  0
    5.0175    1.9499   -0.0725 H   0  0  0  0  0  0  0  0  0  0  0  0
    5.9493    0.5259    0.3703 H   0  0  0  0  0  0  0  0  0  0  0  0
    5.2256    0.5361   -1.8247 H   0  0  0  0  0  0  0  0  0  0  0  0
    4.5190   -0.8044   -0.8236 H   0  0  0  0  0  0  0  0  0  0  0  0
    2.3483    0.4742   -0.7453 H   0  0  0  0  0  0  0  0  0  0  0  0
    3.8984    2.4174   -2.5355 H   0  0  0  0  0  0  0  0  0  0  0  0
    2.1684    2.5621   -2.0174 H   0  0  0  0  0  0  0  0  0  0  0  0
    3.4965    2.7645   -0.8323 H   0  0  0  0  0  0  0  0  0  0  0  0
    1.5352    0.1359   -2.9204 H   0  0  0  0  0  0  0  0  0  0  0  0
    3.2982   -0.0502   -2.8662 H   0  0  0  0  0  0  0  0  0  0  0  0
    3.9814   -2.3898   -1.2787 H   0  0  0  0  0  0  0  0  0  0  0  0
    5.2749    0.6274   -4.0394 H   0  0  0  0  0  0  0  0  0  0  0  0
    3.0705    0.5768   -5.5693 H   0  0  0  0  0  0  0  0  0  0  0  0
    2.3411   -0.3897   -4.3737 H   0  0  0  0  0  0  0  0  0  0  0  0
    2.6468    1.3145   -2.9617 H   0  0  0  0  0  0  0  0  0  0  0  0
    4.9137   -1.0765   -5.8970 H   0  0  0  0  0  0  0  0  0  0  0  0
    6.2813   -2.4743   -4.1405 H   0  0  0  0  0  0  0  0  0  0  0  0
    4.5128   -3.3625   -5.2397 H   0  0  0  0  0  0  0  0  0  0  0  0
    2.6055   -1.8262   -4.0258 H   0  0  0  0  0  0  0  0  0  0  0  0
    3.6940   -3.9408   -3.0560 H   0  0  0  0  0  0  0  0  0  0  0  0
    6.2325   -2.5852   -2.7174 H   0  0  0  0  0  0  0  0  0  0  0  0
   -0.9745    2.6993    5.4663 H   0  0  0  0  0  0  0  0  0  0  0  0
   -0.9956    5.4194    3.3080 H   0  0  0  0  0  0  0  0  0  0  0  0
   -1.1146    5.4476    3.1192 H   0  0  0  0  0  0  0  0  0  0  0  0
   -3.8291    3.3871    2.2589 H   0  0  0  0  0  0  0  0  0  0  0  0
    1.8292    2.1836    5.0786 H   0  0  0  0  0  0  0  0  0  0  0  0
   -1.3439    3.2648    2.5358 H   0  0  0  0  0  0  0  0  0  0  0  0
   -0.5481    1.5899    3.6444 H   0  0  0  0  0  0  0  0  0  0  0  0
    0.8358    2.2477    3.9314 H   0  0  0  0  0  0  0  0  0  0  0  0
   -2.2188    2.5780    5.2844 H   0  0  0  0  0  0  0  0  0  0  0  0
    1.3022    4.5998    0.5958 H   0  0  0  0  0  0  0  0  0  0  0  0
    0.1996    7.3957    1.5234 H   0  0  0  0  0  0  0  0  0  0  0  0
    2.2353    6.0124    1.5644 H   0  0  0  0  0  0  0  0  0  0  0  0
   -1.9695    5.4868    1.9373 H   0  0  0  0  0  0  0  0  0  0  0  0
   -3.3897    5.5037    2.4662 H   0  0  0  0  0  0  0  0  0  0  0  0
   -2.1170    6.9723    3.1137 H   0  0  0  0  0  0  0  0  0  0  0  0
   -3.1701    5.2775    4.9993 H   0  0  0  0  0  0  0  0  0  0  0  0
   -0.0242    7.7900    4.9445 H   0  0  0  0  0  0  0  0  0  0  0  0
    0.5735    6.3433    2.3227 H   0  0  0  0  0  0  0  0  0  0  0  0
    1.7657    5.0837    6.6879 H   0  0  0  0  0  0  0  0  0  0  0  0
   -1.4415    3.9699    6.5156 H   0  0  0  0  0  0  0  0  0  0  0  0
    2.4520    6.6408    4.5142 H   0  0  0  0  0  0  0  0  0  0  0  0
   -1.7731    4.7903    5.6572 H   0  0  0  0  0  0  0  0  0  0  0  0
    1.2966    4.8158    5.2762 H   0  0  0  0  0  0  0  0  0  0  0  0
    0.7644    5.5772    4.5208 H   0  0  0  0  0  0  0  0  0  0  0  0
   -0.0384    7.7745    6.4130 H   0  0  0  0  0  0  0  0  0  0  0  0
   -0.1109    3.7036    3.0924 H   0  0  0  0  0  0  0  0  0  0  0  0
   -3.2310    4.3112    1.7824 H   0  0  0  0  0  0  0  0  0  0  0  0
   -0.6034    4.4372    1.0053 H   0  0  0  0  0  0  0  0  0  0  0  0
    0.8935    5.7677    3.2870 H   0  0  0  0  0  0  0  0  0  0  0  0
   -0.6251    7.3327    0.1756 H   0  0  0  0  0  0  0  0  0  0  0  0
   -3.1035    6.1347    1.3116 H   0  0  0  0  0  0  0  0  0  0  0  0
    3.2312    4.3786    4.4441 H   0  0  0  0  0  0  0  0  0  0  0  0
    0.9014    4.7166    3.4784 H   0  0  0  0  0  0  0  0  0  0  0  0
    2.7847    3.7278    1.4555 H   0  0  0  0  0  0  0  0  0  0  0  0
    1.9116    1.5637    3.2549 H   0  0  0  0  0  0  0  0  0  0  0  0
  2  1  1  1  0  0  0
  2  3  1  0  0  0  0
  2 47  1  0  0  0  0
  3 95  1  0  0  0  0
  3 96  1  0  0  0  0
  4  3  1  0  0  0  0
  4  5  1  6  0  0  0
  4  6  1  0  0  0  0
  6  7  1  6  0  0  0
  6  8  1  0  0  0  0
  6 18  1  0  0  0  0
  8  9  1  0  0  0  0
  8 97  1  0  0  0  0
  8 98  1  0  0  0  0
  9 99  1  0  0  0  0
  9100  1  0  0  0  0
 10  9  1  0  0  0  0
 10 11  1  1  0  0  0
 10 12  1  0  0  0  0
 12101  1  0  0  0  0
 12102  1  0  0  0  0
 13 12  1  0  0  0  0
 13 14  1  0  0  0  0
 13103  1  6  0  0  0
 13 48  1  0  0  0  0
 14 15  1  0  0  0  0
 14104  1  0  0  0  0
 14105  1  0  0  0  0
 15106  1  0  0  0  0
 15107  1  0  0  0  0
 16 15  1  0  0  0  0
 16 10  1  0  0  0  0
 16 17  1  6  0  0  0
 17108  1  0  0  0  0
 17109  1  0  0  0  0
 17110  1  0  0  0  0
 18 16  1  0  0  0  0
 18 19  1  1  0  0  0
 18 20  1  0  0  0  0
 20 21  1  0  0  0  0
 20111  1  0  0  0  0
 20112  1  0  0  0  0
 21113  1  0  0  0  0
 21114  1  0  0  0  0
 22 21  1  0  0  0  0
 22  4  1  0  0  0  0
 22 23  1  6  0  0  0
 23115  1  0  0  0  0
 23116  1  0  0  0  0
 23117  1  0  0  0  0
 24 22  1  0  0  0  0
 24  2  1  0  0  0  0
 24 25  1  1  0  0  0
 24 26  1  0  0  0  0
 26 27  1  0  0  0  0
 26 28  1  0  0  0  0
 26118  1  6  0  0  0
 27119  1  0  0  0  0
 27120  1  0  0  0  0
 27121  1  0  0  0  0
 28 29  1  1  0  0  0
 28 30  1  0  0  0  0
 28 47  1  0  0  0  0
 29122  1  0  0  0  0
 30 31  1  0  0  0  0
 30123  1  0  0  0  0
 30124  1  0  0  0  0
 31125  1  0  0  0  0
 31126  1  0  0  0  0
 32 31  1  0  0  0  0
 32 33  1  0  0  0  0
 32 34  1  0  0  0  0
 32127  1  1  0  0  0
 33128  1  0  0  0  0
 33129  1  0  0  0  0
 33130  1  0  0  0  0
 34 35  1  0  0  0  0
 34131  1  0  0  0  0
 34132  1  0  0  0  0
 36 35  1  0  0  0  0
 36 37  1  0  0  0  0
 36133  1  1  0  0  0
 38 37  1  0  0  0  0
 38 39  1  0  0  0  0
 38134  1  6  0  0  0
 39 40  1  0  0  0  0
 39135  1  0  0  0  0
 39136  1  0  0  0  0
 40137  1  0  0  0  0
 41 38  1  0  0  0  0
 41 43  1  0  0  0  0
 41138  1  6  0  0  0
 41 42  1  0  0  0  0
 42139  1  0  0  0  0
 43 44  1  0  0  0  0
 43 45  1  0  0  0  0
 43140  1  6  0  0  0
 44141  1  0  0  0  0
 45 36  1  0  0  0  0
 45 46  1  0  0  0  0
 45142  1  1  0  0  0
 46143  1  0  0  0  0
 49 48  1  0  0  0  0
 49 50  1  6  0  0  0
 49 51  1  0  0  0  0
 52 51  1  0  0  0  0
 52 53  1  0  0  0  0
 52144  1  1  0  0  0
 53 54  1  0  0  0  0
 53145  1  0  0  0  0
 53146  1  0  0  0  0
 54147  1  0  0  0  0
 55 52  1  0  0  0  0
 55 56  1  0  0  0  0
 55 91  1  0  0  0  0
 55148  1  1  0  0  0
 57 56  1  0  0  0  0
 57 58  1  1  0  0  0
 57 59  1  0  0  0  0
 60 59  1  0  0  0  0
 60 61  1  0  0  0  0
 60149  1  6  0  0  0
 61 62  1  0  0  0  0
 61150  1  0  0  0  0
 61151  1  0  0  0  0
 62152  1  0  0  0  0
 63 60  1  0  0  0  0
 63 65  1  0  0  0  0
 63153  1  6  0  0  0
 63 64  1  0  0  0  0
 64154  1  0  0  0  0
 65 66  1  0  0  0  0
 65 77  1  0  0  0  0
 65155  1  6  0  0  0
 67 66  1  0  0  0  0
 67 68  1  1  0  0  0
 67 69  1  0  0  0  0
 69 70  1  0  0  0  0
 70156  1  0  0  0  0
 70157  1  0  0  0  0
 71 70  1  0  0  0  0
 71158  1  6  0  0  0
 71 72  1  0  0  0  0
 72159  1  0  0  0  0
 73 71  1  0  0  0  0
 73 74  1  0  0  0  0
 73 75  1  0  0  0  0
 73160  1  1  0  0  0
 74161  1  0  0  0  0
 75 67  1  0  0  0  0
 75 76  1  0  0  0  0
 75162  1  1  0  0  0
 76163  1  0  0  0  0
 77 57  1  0  0  0  0
 77 78  1  0  0  0  0
 77164  1  1  0  0  0
 79 78  1  0  0  0  0
 79 80  1  6  0  0  0
 79 81  1  0  0  0  0
 82 81  1  0  0  0  0
 82 83  1  0  0  0  0
 82165  1  1  0  0  0
 83 84  1  0  0  0  0
 83166  1  0  0  0  0
 83167  1  0  0  0  0
 84168  1  0  0  0  0
 85 82  1  0  0  0  0
 85 87  1  0  0  0  0
 85169  1  1  0  0  0
 85 86  1  0  0  0  0
 86170  1  0  0  0  0
 87 88  1  0  0  0  0
 87 89  1  0  0  0  0
 87171  1  6  0  0  0
 88172  1  0  0  0  0
 89 79  1  0  0  0  0
 89 90  1  0  0  0  0
 89173  1  6  0  0  0
 90174  1  0  0  0  0
 91 92  1  0  0  0  0
 91 93  1  0  0  0  0
 91175  1  1  0  0  0
 92176  1  0  0  0  0
 93 49  1  0  0  0  0
 93 94  1  0  0  0  0
 93177  1  6  0  0  0
 94178  1  0  0  0  0
M  END
>  <DRUGBANK_ID>
DB18633

>  <COMMON_NAME>
Uttroside B

>  <CAS_NUMBER>
88048-09-3

>  <UNII>
QK6VN86E3T

>  <SYNONYMS>
.beta.-d-galactopyranoside, (3.beta.,5.alpha.,22.alpha.,25r)-26-(.beta.-d-glucopyranosyloxy)-22-hydroxyfurostan-3-yl o-.beta.-d-glucopyranosyl-(1->2)-o-(.beta.-d-xylopyranosyl-(1->3))-o-.beta.-d-glucopyranosyl-(1->4)-

$$$$
