
 OpenBabel10282417183D

 84 88  0  0  0  0  0  0  0  0999 V2000
    1.1547   -0.2013   -0.2233 O   0  0  0  0  0  0  0  0  0  0  0  0
    3.0540   -0.1326   -1.4518 O   0  0  0  0  0  0  0  0  0  0  0  0
    8.0449    0.8754    3.6252 O   0  0  0  0  0  0  0  0  0  0  0  0
    7.3251    1.8133    1.7097 O   0  0  0  0  0  0  0  0  0  0  0  0
    0.6383    3.3169    5.7320 O   0  5  0  0  0  0  0  0  0  0  0  0
    2.2931    1.9176    5.5651 O   0  0  0  0  0  0  0  0  0  0  0  0
    2.0383    0.0524    3.4659 N   0  0  0  0  0  0  0  0  0  0  0  0
    4.2042   -1.9544    3.2743 N   0  0  0  0  0  0  0  0  0  0  0  0
    1.6905    3.0000    5.1662 N   0  3  0  0  0  0  0  0  0  0  0  0
    3.7390    2.8775    3.6906 C   0  0  0  0  0  0  0  0  0  0  0  0
    4.4417    1.6389    4.1357 C   0  0  0  0  0  0  0  0  0  0  0  0
    1.6531    1.9623    3.5302 C   0  0  0  0  0  0  0  0  0  0  0  0
    3.5074    0.3009    3.5429 C   0  0  0  0  0  0  0  0  0  0  0  0
    1.3449    0.9305    2.6839 C   0  0  0  0  0  0  0  0  0  0  0  0
    3.9232    4.1424    4.6397 C   0  0  0  0  0  0  0  0  0  0  0  0
    4.7795    3.3733    1.9612 C   0  0  0  0  0  0  0  0  0  0  0  0
    1.5492   -0.8778    2.5383 C   0  0  0  0  0  0  0  0  0  0  0  0
    0.1237   -1.0056    2.0210 C   0  0  0  0  0  0  0  0  0  0  0  0
    5.1483    4.6808    4.5728 C   0  0  0  0  0  0  0  0  0  0  0  0
    4.7194    2.6705    0.2378 C   0  0  0  0  0  0  0  0  0  0  0  0
    2.8259    4.9648    5.1823 C   0  0  0  0  0  0  0  0  0  0  0  0
    5.0328    4.7140    1.5775 C   0  0  0  0  0  0  0  0  0  0  0  0
    0.0222   -0.0234    0.8210 C   0  0  0  0  0  0  0  0  0  0  0  0
    5.1869    5.9555    5.0620 C   0  0  0  0  0  0  0  0  0  0  0  0
    4.7189    2.7453   -1.1551 C   0  0  0  0  0  0  0  0  0  0  0  0
    2.7886    6.2551    5.4196 C   0  0  0  0  0  0  0  0  0  0  0  0
    5.1005    4.9894    0.0628 C   0  0  0  0  0  0  0  0  0  0  0  0
    4.0449    6.6786    5.5274 C   0  0  0  0  0  0  0  0  0  0  0  0
    4.9861    4.0371   -1.2063 C   0  0  0  0  0  0  0  0  0  0  0  0
    4.6964    0.5646    1.1261 C   0  0  2  0  0  0  0  0  0  0  0  0
    3.7145   -0.8961    0.8225 C   0  0  0  0  0  0  0  0  0  0  0  0
    2.5762   -0.3803   -0.3395 C   0  0  0  0  0  0  0  0  0  0  0  0
    5.8782   -0.0047    2.5155 C   0  0  0  0  0  0  0  0  0  0  0  0
    3.5547   -2.0000    1.8340 C   0  0  0  0  0  0  0  0  0  0  0  0
    3.1994    1.8770    1.2496 C   0  0  0  0  0  0  0  0  0  0  0  0
    5.3988   -1.0730    3.4801 C   0  0  0  0  0  0  0  0  0  0  0  0
    2.0225   -2.9626    1.9541 C   0  0  0  0  0  0  0  0  0  0  0  0
    2.7160    2.6072    2.1441 C   0  0  0  0  0  0  0  0  0  0  0  0
    2.6177    3.3101    0.8261 C   0  0  0  0  0  0  0  0  0  0  0  0
    7.1303    0.9757    2.5899 C   0  0  0  0  0  0  0  0  0  0  0  0
    5.4069   -1.1230    5.0225 C   0  0  0  0  0  0  0  0  0  0  0  0
    1.9813    3.8225    3.3567 C   0  0  0  0  0  0  0  0  0  0  0  0
    2.0202    4.7227    1.5058 C   0  0  0  0  0  0  0  0  0  0  0  0
    1.5558    4.8677    2.7753 C   0  0  0  0  0  0  0  0  0  0  0  0
    7.7517    0.0484    4.7187 C   0  0  0  0  0  0  0  0  0  0  0  0
    3.4584   -1.5997    4.0918 H   0  0  0  0  0  0  0  0  0  0  0  0
    5.4821    1.8791    3.8314 H   0  0  0  0  0  0  0  0  0  0  0  0
    4.3671    1.5234    5.1935 H   0  0  0  0  0  0  0  0  0  0  0  0
    0.7440    1.8610    4.1603 H   0  0  0  0  0  0  0  0  0  0  0  0
    0.8439    2.6206    2.6555 H   0  0  0  0  0  0  0  0  0  0  0  0
    3.5241    0.4598    2.5125 H   0  0  0  0  0  0  0  0  0  0  0  0
    4.0059   -0.2332    2.8127 H   0  0  0  0  0  0  0  0  0  0  0  0
    0.2751    0.8754    2.8097 H   0  0  0  0  0  0  0  0  0  0  0  0
    1.5781    1.0526    1.5975 H   0  0  0  0  0  0  0  0  0  0  0  0
    1.9845   -1.5236    3.2359 H   0  0  0  0  0  0  0  0  0  0  0  0
    1.9299   -0.9115    1.5413 H   0  0  0  0  0  0  0  0  0  0  0  0
   -0.4434   -0.8948    2.9378 H   0  0  0  0  0  0  0  0  0  0  0  0
   -0.1920   -1.9548    1.5966 H   0  0  0  0  0  0  0  0  0  0  0  0
    5.9444    4.1606    4.0456 H   0  0  0  0  0  0  0  0  0  0  0  0
    3.6670    1.9257   -0.2830 H   0  0  0  0  0  0  0  0  0  0  0  0
    1.7425    4.8304    5.1021 H   0  0  0  0  0  0  0  0  0  0  0  0
    4.8382    5.5482    2.2508 H   0  0  0  0  0  0  0  0  0  0  0  0
    0.0090    1.0647    1.0088 H   0  0  0  0  0  0  0  0  0  0  0  0
   -1.0119   -0.0734    0.5096 H   0  0  0  0  0  0  0  0  0  0  0  0
    6.1469    6.4206    5.0599 H   0  0  0  0  0  0  0  0  0  0  0  0
    4.1536    1.9711   -1.7978 H   0  0  0  0  0  0  0  0  0  0  0  0
    1.8062    6.7075    5.5311 H   0  0  0  0  0  0  0  0  0  0  0  0
    4.8761    6.0101   -0.2493 H   0  0  0  0  0  0  0  0  0  0  0  0
    4.1225    7.5951    6.0544 H   0  0  0  0  0  0  0  0  0  0  0  0
    4.9949    4.3899   -2.2117 H   0  0  0  0  0  0  0  0  0  0  0  0
    5.3621    0.7001    0.2204 H   0  0  0  0  0  0  0  0  0  0  0  0
    2.2997   -3.9079    2.3190 H   0  0  0  0  0  0  0  0  0  0  0  0
    1.1969   -2.7855    2.8907 H   0  0  0  0  0  0  0  0  0  0  0  0
    1.4421   -2.7474    1.0257 H   0  0  0  0  0  0  0  0  0  0  0  0
    3.0882    1.7907    2.7346 H   0  0  0  0  0  0  0  0  0  0  0  0
    2.9554    3.8444   -0.0432 H   0  0  0  0  0  0  0  0  0  0  0  0
    4.8297   -0.6093    5.8363 H   0  0  0  0  0  0  0  0  0  0  0  0
    5.7310   -2.1384    5.1595 H   0  0  0  0  0  0  0  0  0  0  0  0
    5.9632   -0.2906    4.9707 H   0  0  0  0  0  0  0  0  0  0  0  0
    2.5648    5.6161    1.1469 H   0  0  0  0  0  0  0  0  0  0  0  0
    0.7838    5.3976    3.2240 H   0  0  0  0  0  0  0  0  0  0  0  0
    7.0538    0.6934    5.3244 H   0  0  0  0  0  0  0  0  0  0  0  0
    7.5334   -0.9612    4.2896 H   0  0  0  0  0  0  0  0  0  0  0  0
    8.3718   -0.2648    5.5539 H   0  0  0  0  0  0  0  0  0  0  0  0
  1 23  1  0  0  0  0
  1 32  1  0  0  0  0
  2 32  2  0  0  0  0
  3 40  1  0  0  0  0
  3 45  1  0  0  0  0
  4 40  2  0  0  0  0
  5  9  1  0  0  0  0
  6  9  2  0  0  0  0
  7 13  1  0  0  0  0
  7 14  1  0  0  0  0
  7 17  1  0  0  0  0
  8 34  1  0  0  0  0
  8 36  1  0  0  0  0
  8 46  1  0  0  0  0
  9 42  1  0  0  0  0
 10 11  1  0  0  0  0
 10 12  1  0  0  0  0
 10 15  1  0  0  0  0
 10 16  1  0  0  0  0
 11 13  1  0  0  0  0
 11 47  1  0  0  0  0
 11 48  1  0  0  0  0
 12 14  1  0  0  0  0
 12 49  1  0  0  0  0
 12 50  1  0  0  0  0
 13 51  1  0  0  0  0
 13 52  1  0  0  0  0
 14 53  1  0  0  0  0
 14 54  1  0  0  0  0
 15 19  2  0  0  0  0
 15 21  1  0  0  0  0
 16 20  2  0  0  0  0
 16 22  1  0  0  0  0
 17 18  1  0  0  0  0
 17 55  1  0  0  0  0
 17 56  1  0  0  0  0
 18 23  1  0  0  0  0
 18 57  1  0  0  0  0
 18 58  1  0  0  0  0
 19 24  1  0  0  0  0
 19 59  1  0  0  0  0
 20 25  1  0  0  0  0
 20 60  1  0  0  0  0
 21 26  2  0  0  0  0
 21 61  1  0  0  0  0
 22 27  2  0  0  0  0
 22 62  1  0  0  0  0
 23 63  1  0  0  0  0
 23 64  1  0  0  0  0
 24 28  2  0  0  0  0
 24 65  1  0  0  0  0
 25 29  2  0  0  0  0
 25 66  1  0  0  0  0
 26 28  1  0  0  0  0
 26 67  1  0  0  0  0
 27 29  1  0  0  0  0
 27 68  1  0  0  0  0
 28 69  1  0  0  0  0
 29 70  1  0  0  0  0
 30 31  1  0  0  0  0
 30 33  1  0  0  0  0
 30 71  1  6  0  0  0
 30 35  1  0  0  0  0
 31 32  1  0  0  0  0
 31 34  2  0  0  0  0
 33 36  2  0  0  0  0
 33 40  1  0  0  0  0
 34 37  1  0  0  0  0
 35 38  2  0  0  0  0
 35 39  1  0  0  0  0
 36 41  1  0  0  0  0
 37 72  1  0  0  0  0
 37 73  1  0  0  0  0
 37 74  1  0  0  0  0
 38 42  1  0  0  0  0
 38 75  1  0  0  0  0
 39 43  2  0  0  0  0
 39 76  1  0  0  0  0
 41 77  1  0  0  0  0
 41 78  1  0  0  0  0
 41 79  1  0  0  0  0
 42 44  2  0  0  0  0
 43 44  1  0  0  0  0
 43 80  1  0  0  0  0
 44 81  1  0  0  0  0
 45 82  1  0  0  0  0
 45 83  1  0  0  0  0
 45 84  1  0  0  0  0
M  CHG  2   5  -1   9   1
M  END
>  <DRUGBANK_ID>
DB09239

>  <COMMON_NAME>
Niguldipine

>  <CAS_NUMBER>
113165-32-5

>  <UNII>
Z81N45O25Z

>  <SYNONYMS>
Niguldipine

$$$$
