
 OpenBabel10282417163D

 37 40  0  0  0  0  0  0  0  0999 V2000
    1.5838    1.1403   -0.0017 N   0  0  0  0  0  0  0  0  0  0  0  0
    2.4162    0.0498   -0.0356 C   0  0  0  0  0  0  0  0  0  0  0  0
    1.6461   -1.0951   -0.0567 C   0  0  0  0  0  0  0  0  0  0  0  0
    0.2728   -0.6583   -0.1082 C   0  0  0  0  0  0  0  0  0  0  0  0
   -0.9777   -1.3144   -0.1914 C   0  0  0  0  0  0  0  0  0  0  0  0
   -2.1777   -0.6221   -0.0717 C   0  0  0  0  0  0  0  0  0  0  0  0
   -2.1594    0.7572   -0.0017 C   0  0  0  0  0  0  0  0  0  0  0  0
   -0.9467    1.4613   -0.0047 C   0  0  0  0  0  0  0  0  0  0  0  0
    0.2638    0.7387   -0.0319 C   0  0  0  0  0  0  0  0  0  0  0  0
    2.8715    2.7711    1.2985 C   0  0  0  0  0  0  0  0  0  0  0  0
    2.0764    2.5067    0.0393 C   0  0  0  0  0  0  0  0  0  0  0  0
    4.1543    3.1631    1.0881 O   0  0  0  0  0  0  0  0  0  0  0  0
    2.4202    2.6651    2.4243 O   0  0  0  0  0  0  0  0  0  0  0  0
    2.1874   -2.5027   -0.0159 C   0  0  0  0  0  0  0  0  0  0  0  0
    0.1747   -3.8663    1.2744 S   0  0  0  0  0  0  0  0  0  0  0  0
    1.7684   -3.2505    1.2195 C   0  0  0  0  0  0  0  0  0  0  0  0
    2.4963   -3.5495    2.2809 N   0  0  0  0  0  0  0  0  0  0  0  0
    1.6617   -4.0629    3.2860 C   0  0  0  0  0  0  0  0  0  0  0  0
    0.3142   -4.1109    2.9363 C   0  0  0  0  0  0  0  0  0  0  0  0
    1.9958   -4.5254    4.5742 C   0  0  0  0  0  0  0  0  0  0  0  0
    0.9743   -4.9407    5.4415 C   0  0  0  0  0  0  0  0  0  0  0  0
   -0.3667   -4.8699    5.0891 C   0  0  0  0  0  0  0  0  0  0  0  0
   -0.7061   -4.4283    3.8274 C   0  0  0  0  0  0  0  0  0  0  0  0
   -1.9906   -4.3690    3.4501 F   0  0  0  0  0  0  0  0  0  0  0  0
    1.2865   -5.4271    6.6497 F   0  0  0  0  0  0  0  0  0  0  0  0
    3.2756   -4.6090    4.9661 F   0  0  0  0  0  0  0  0  0  0  0  0
    3.4932    0.1604    0.0023 H   0  0  0  0  0  0  0  0  0  0  0  0
   -1.0508   -2.3827   -0.3373 H   0  0  0  0  0  0  0  0  0  0  0  0
   -3.1125   -1.1776   -0.0494 H   0  0  0  0  0  0  0  0  0  0  0  0
   -3.1040    1.2928    0.0392 H   0  0  0  0  0  0  0  0  0  0  0  0
   -0.9646    2.5443    0.0340 H   0  0  0  0  0  0  0  0  0  0  0  0
    2.6790    2.6563   -0.8631 H   0  0  0  0  0  0  0  0  0  0  0  0
    1.2392    3.2074    0.0021 H   0  0  0  0  0  0  0  0  0  0  0  0
    4.4614    3.2080    0.1643 H   0  0  0  0  0  0  0  0  0  0  0  0
    1.8393   -3.0348   -0.9099 H   0  0  0  0  0  0  0  0  0  0  0  0
    3.2830   -2.4842   -0.0709 H   0  0  0  0  0  0  0  0  0  0  0  0
   -1.1485   -5.1913    5.7662 H   0  0  0  0  0  0  0  0  0  0  0  0
  1  2  1  0  0  0  0
  1  9  1  0  0  0  0
  1 11  1  0  0  0  0
  2  3  2  0  0  0  0
  2 27  1  0  0  0  0
  3  4  1  0  0  0  0
  3 14  1  0  0  0  0
  4  5  1  0  0  0  0
  4  9  2  0  0  0  0
  5  6  2  0  0  0  0
  5 28  1  0  0  0  0
  6  7  1  0  0  0  0
  6 29  1  0  0  0  0
  7  8  2  0  0  0  0
  7 30  1  0  0  0  0
  8  9  1  0  0  0  0
  8 31  1  0  0  0  0
 10 11  1  0  0  0  0
 10 12  1  0  0  0  0
 10 13  2  0  0  0  0
 11 32  1  0  0  0  0
 11 33  1  0  0  0  0
 12 34  1  0  0  0  0
 14 16  1  0  0  0  0
 14 35  1  0  0  0  0
 14 36  1  0  0  0  0
 15 16  1  0  0  0  0
 15 19  1  0  0  0  0
 16 17  2  0  0  0  0
 17 18  1  0  0  0  0
 18 19  1  0  0  0  0
 18 20  2  0  0  0  0
 19 23  2  0  0  0  0
 20 21  1  0  0  0  0
 20 26  1  0  0  0  0
 21 22  2  0  0  0  0
 21 25  1  0  0  0  0
 22 23  1  0  0  0  0
 22 37  1  0  0  0  0
 23 24  1  0  0  0  0
M  END
>  <DRUGBANK_ID>
DB07063

>  <COMMON_NAME>
Lidorestat

>  <CAS_NUMBER>
245116-90-9

>  <UNII>
R3734K0M7L

>  <SYNONYMS>
Lidorestat

$$$$
