TQ5
 OpenBabel10282417123D

 43 45  0  0  0  0  0  0  0  0999 V2000
    0.0653    0.6382    0.0834 C   0  0  0  0  0  0  0  0  0  0  0  0
    0.0396   -0.7689    0.0644 C   0  0  0  0  0  0  0  0  0  0  0  0
    1.3222   -1.3535   -0.0101 C   0  0  0  0  0  0  0  0  0  0  0  0
    2.4566   -0.6495   -0.0405 N   0  0  0  0  0  0  0  0  0  0  0  0
    2.3475    0.6791    0.0001 C   0  0  0  0  0  0  0  0  0  0  0  0
    1.1941    1.3460    0.0822 N   0  0  0  0  0  0  0  0  0  0  0  0
    1.4840   -2.7142   -0.2736 N   0  0  0  0  0  0  0  0  0  0  0  0
   -1.1378    1.3297    0.0402 C   0  0  0  0  0  0  0  0  0  0  0  0
   -2.3513    0.6777   -0.1358 C   0  0  0  0  0  0  0  0  0  0  0  0
   -2.3990   -0.7049   -0.0331 C   0  0  0  0  0  0  0  0  0  0  0  0
   -1.2218   -1.4475    0.1117 C   0  0  0  0  0  0  0  0  0  0  0  0
    3.4994    1.3952   -0.0801 N   0  0  0  0  0  0  0  0  0  0  0  0
   -1.2416   -3.2277    0.4072 S   0  0  0  0  0  0  0  0  0  0  0  0
   -2.9089   -3.7486    0.4048 C   0  0  0  0  0  0  0  0  0  0  0  0
   -3.7288   -3.5710   -0.7043 C   0  0  0  0  0  0  0  0  0  0  0  0
   -5.0876   -3.8243   -0.5940 C   0  0  0  0  0  0  0  0  0  0  0  0
   -5.6153   -4.4020    0.5726 C   0  0  0  0  0  0  0  0  0  0  0  0
   -4.7268   -4.7549    1.5998 C   0  0  0  0  0  0  0  0  0  0  0  0
   -3.3964   -4.3766    1.5435 C   0  0  0  0  0  0  0  0  0  0  0  0
   -7.1245   -4.5926    0.7158 C   0  0  0  0  0  0  0  0  0  0  0  0
   -7.8155   -3.2124    0.6785 C   0  0  0  0  0  0  0  0  0  0  0  0
   -7.6491   -5.4616   -0.4394 C   0  0  0  0  0  0  0  0  0  0  0  0
   -7.4951   -5.2715    2.0494 C   0  0  0  0  0  0  0  0  0  0  0  0
    0.7347   -3.3065    0.0691 H   0  0  0  0  0  0  0  0  0  0  0  0
    2.4202   -3.0629   -0.1308 H   0  0  0  0  0  0  0  0  0  0  0  0
   -1.1319    2.4174    0.1059 H   0  0  0  0  0  0  0  0  0  0  0  0
   -3.2605    1.2400   -0.3329 H   0  0  0  0  0  0  0  0  0  0  0  0
   -3.3785   -1.1651   -0.0593 H   0  0  0  0  0  0  0  0  0  0  0  0
    3.4445    2.3991   -0.0948 H   0  0  0  0  0  0  0  0  0  0  0  0
    4.3562    0.8804   -0.1907 H   0  0  0  0  0  0  0  0  0  0  0  0
   -3.3303   -3.1616   -1.6292 H   0  0  0  0  0  0  0  0  0  0  0  0
   -5.7310   -3.5415   -1.4234 H   0  0  0  0  0  0  0  0  0  0  0  0
   -5.0443   -5.2966    2.4852 H   0  0  0  0  0  0  0  0  0  0  0  0
   -2.7552   -4.5661    2.4014 H   0  0  0  0  0  0  0  0  0  0  0  0
   -7.6419   -2.6868   -0.2678 H   0  0  0  0  0  0  0  0  0  0  0  0
   -8.8996   -3.3137    0.7975 H   0  0  0  0  0  0  0  0  0  0  0  0
   -7.4485   -2.5617    1.4819 H   0  0  0  0  0  0  0  0  0  0  0  0
   -7.1533   -6.4390   -0.4516 H   0  0  0  0  0  0  0  0  0  0  0  0
   -8.7274   -5.6255   -0.3471 H   0  0  0  0  0  0  0  0  0  0  0  0
   -7.4772   -4.9967   -1.4169 H   0  0  0  0  0  0  0  0  0  0  0  0
   -7.0369   -6.2654    2.1261 H   0  0  0  0  0  0  0  0  0  0  0  0
   -7.1527   -4.6752    2.9057 H   0  0  0  0  0  0  0  0  0  0  0  0
   -8.5756   -5.3977    2.1540 H   0  0  0  0  0  0  0  0  0  0  0  0
  1  2  2  0  0  0  0
  1  6  1  0  0  0  0
  1  8  1  0  0  0  0
  2  3  1  0  0  0  0
  2 11  1  0  0  0  0
  3  4  2  0  0  0  0
  3  7  1  0  0  0  0
  4  5  1  0  0  0  0
  5  6  2  0  0  0  0
  5 12  1  0  0  0  0
  7 24  1  0  0  0  0
  7 25  1  0  0  0  0
  8  9  2  0  0  0  0
  8 26  1  0  0  0  0
  9 10  1  0  0  0  0
  9 27  1  0  0  0  0
 10 11  2  0  0  0  0
 10 28  1  0  0  0  0
 11 13  1  0  0  0  0
 12 29  1  0  0  0  0
 12 30  1  0  0  0  0
 13 14  1  0  0  0  0
 14 15  2  0  0  0  0
 14 19  1  0  0  0  0
 15 16  1  0  0  0  0
 15 31  1  0  0  0  0
 16 17  2  0  0  0  0
 16 32  1  0  0  0  0
 17 18  1  0  0  0  0
 17 20  1  0  0  0  0
 18 19  2  0  0  0  0
 18 33  1  0  0  0  0
 19 34  1  0  0  0  0
 20 21  1  0  0  0  0
 20 22  1  0  0  0  0
 20 23  1  0  0  0  0
 21 35  1  0  0  0  0
 21 36  1  0  0  0  0
 21 37  1  0  0  0  0
 22 38  1  0  0  0  0
 22 39  1  0  0  0  0
 22 40  1  0  0  0  0
 23 41  1  0  0  0  0
 23 42  1  0  0  0  0
 23 43  1  0  0  0  0
M  END
>  <DRUGBANK_ID>
DB01958

>  <SECONDARY_ACCESSION_NUMBERS>
EXPT03101

>  <COMMON_NAME>
5-[4-Tert-Butylphenylsulfanyl]-2,4-Quinazolinediamine

$$$$
