
 OpenBabel10282417203D

 52 55  0  0  0  0  0  0  0  0999 V2000
    1.2665   -0.1445   -0.2107 C   0  0  0  0  0  0  0  0  0  0  0  0
    0.6863   -0.4468   -1.6057 C   0  0  0  0  0  0  0  0  0  0  0  0
    1.2024   -1.8149   -2.0294 C   0  0  0  0  0  0  0  0  0  0  0  0
   -0.8573   -0.3840   -1.7562 C   0  0  0  0  0  0  0  0  0  0  0  0
   -1.6393   -1.5646   -1.6369 C   0  0  0  0  0  0  0  0  0  0  0  0
   -3.0387   -1.5551   -1.5645 C   0  0  0  0  0  0  0  0  0  0  0  0
   -3.7161   -0.3569   -1.5313 C   0  0  0  0  0  0  0  0  0  0  0  0
   -2.9869    0.8158   -1.7223 C   0  0  0  0  0  0  0  0  0  0  0  0
   -1.5737    0.8065   -1.9521 C   0  0  0  0  0  0  0  0  0  0  0  0
   -0.9290    2.0775   -2.2867 C   0  0  0  0  0  0  0  0  0  0  0  0
   -0.3112    2.5314   -3.4224 C   0  0  0  0  0  0  0  0  0  0  0  0
    0.3973    3.8322   -3.3614 C   0  0  0  0  0  0  0  0  0  0  0  0
    0.0386    4.7680   -2.2820 C   0  0  0  0  0  0  0  0  0  0  0  0
   -1.2032    4.2997   -1.8626 C   0  0  0  0  0  0  0  0  0  0  0  0
   -0.8467    3.0075   -1.3750 C   0  0  0  0  0  0  0  0  0  0  0  0
   -1.5517    5.5061   -1.1809 N   0  0  0  0  0  0  0  0  0  0  0  0
   -0.7522    5.2847   -0.0694 C   0  0  0  0  0  0  0  0  0  0  0  0
    0.4398    5.1712   -0.8344 N   0  0  0  0  0  0  0  0  0  0  0  0
   -1.4499    4.4718    1.0324 C   0  0  0  0  0  0  0  0  0  0  0  0
   -2.1848    3.3403    0.7919 C   0  0  0  0  0  0  0  0  0  0  0  0
   -2.4407    2.0160    1.4510 C   0  0  0  0  0  0  0  0  0  0  0  0
   -3.7572    1.6764    1.7093 C   0  0  0  0  0  0  0  0  0  0  0  0
   -4.1499    0.3354    1.8828 C   0  0  0  0  0  0  0  0  0  0  0  0
   -3.2441   -0.7324    1.7771 C   0  0  0  0  0  0  0  0  0  0  0  0
   -1.9272   -0.4218    1.4576 C   0  0  0  0  0  0  0  0  0  0  0  0
   -1.5382    0.9334    1.3205 C   0  0  0  0  0  0  0  0  0  0  0  0
   -3.6808   -2.1635    1.9879 C   0  0  0  0  0  0  0  0  0  0  0  0
   -3.6551   -2.9433    0.8704 F   0  0  0  0  0  0  0  0  0  0  0  0
   -2.8964   -2.8108    2.8952 F   0  0  0  0  0  0  0  0  0  0  0  0
   -4.9544   -2.2584    2.4643 F   0  0  0  0  0  0  0  0  0  0  0  0
    1.3649    0.4482   -2.4845 O   0  0  0  0  0  0  0  0  0  0  0  0
    0.8441   -0.7775    0.5744 H   0  0  0  0  0  0  0  0  0  0  0  0
    1.1689    0.9109    0.0621 H   0  0  0  0  0  0  0  0  0  0  0  0
    2.3527   -0.3027   -0.1957 H   0  0  0  0  0  0  0  0  0  0  0  0
    0.8948   -2.6003   -1.3341 H   0  0  0  0  0  0  0  0  0  0  0  0
    0.8352   -2.0467   -3.0351 H   0  0  0  0  0  0  0  0  0  0  0  0
    2.2942   -1.8106   -2.0776 H   0  0  0  0  0  0  0  0  0  0  0  0
   -1.1762   -2.5408   -1.5546 H   0  0  0  0  0  0  0  0  0  0  0  0
   -3.5797   -2.4906   -1.4322 H   0  0  0  0  0  0  0  0  0  0  0  0
   -4.7836   -0.3279   -1.3250 H   0  0  0  0  0  0  0  0  0  0  0  0
   -3.5399    1.7514   -1.6301 H   0  0  0  0  0  0  0  0  0  0  0  0
   -0.3552    1.9041   -4.2988 H   0  0  0  0  0  0  0  0  0  0  0  0
    0.7625    4.1724   -4.3338 H   0  0  0  0  0  0  0  0  0  0  0  0
   -0.1937    2.8588   -0.4833 H   0  0  0  0  0  0  0  0  0  0  0  0
   -1.3731    6.3753   -1.6606 H   0  0  0  0  0  0  0  0  0  0  0  0
   -1.4382    4.8254    2.0543 H   0  0  0  0  0  0  0  0  0  0  0  0
   -2.5552    3.1549   -0.2144 H   0  0  0  0  0  0  0  0  0  0  0  0
   -4.5067    2.4585    1.6798 H   0  0  0  0  0  0  0  0  0  0  0  0
   -5.2027    0.1286    2.0478 H   0  0  0  0  0  0  0  0  0  0  0  0
   -1.2394   -1.2360    1.2081 H   0  0  0  0  0  0  0  0  0  0  0  0
   -0.5418    1.1227    0.9524 H   0  0  0  0  0  0  0  0  0  0  0  0
    0.8978    0.4033   -3.3310 H   0  0  0  0  0  0  0  0  0  0  0  0
  1  2  1  0  0  0  0
  1 32  1  0  0  0  0
  1 33  1  0  0  0  0
  1 34  1  0  0  0  0
  2  3  1  0  0  0  0
  2  4  1  0  0  0  0
  2 31  1  0  0  0  0
  3 35  1  0  0  0  0
  3 36  1  0  0  0  0
  3 37  1  0  0  0  0
  4  5  2  0  0  0  0
  4  9  1  0  0  0  0
  5  6  1  0  0  0  0
  5 38  1  0  0  0  0
  6  7  2  0  0  0  0
  6 39  1  0  0  0  0
  7  8  1  0  0  0  0
  7 40  1  0  0  0  0
  8  9  2  0  0  0  0
  8 41  1  0  0  0  0
  9 10  1  0  0  0  0
 10 11  2  0  0  0  0
 10 15  1  0  0  0  0
 11 12  1  0  0  0  0
 11 42  1  0  0  0  0
 12 13  2  0  0  0  0
 12 43  1  0  0  0  0
 13 14  1  0  0  0  0
 13 18  1  0  0  0  0
 14 15  2  0  0  0  0
 14 16  1  0  0  0  0
 15 44  1  0  0  0  0
 16 17  1  0  0  0  0
 16 45  1  0  0  0  0
 17 18  2  0  0  0  0
 17 19  1  0  0  0  0
 19 20  2  0  0  0  0
 19 46  1  0  0  0  0
 20 21  1  0  0  0  0
 20 47  1  0  0  0  0
 21 22  2  0  0  0  0
 21 26  1  0  0  0  0
 22 23  1  0  0  0  0
 22 48  1  0  0  0  0
 23 24  2  0  0  0  0
 23 49  1  0  0  0  0
 24 25  1  0  0  0  0
 24 27  1  0  0  0  0
 25 26  2  0  0  0  0
 25 50  1  0  0  0  0
 26 51  1  0  0  0  0
 27 28  1  0  0  0  0
 27 29  1  0  0  0  0
 27 30  1  0  0  0  0
 31 52  1  0  0  0  0
M  END
>  <DRUGBANK_ID>
DB12875

>  <COMMON_NAME>
Mavatrep

>  <CAS_NUMBER>
956274-94-5

>  <UNII>
F197218T99

>  <SYNONYMS>
Mavatrep

$$$$
