177
 OpenBabel10282417163D

 68 70  0  0  0  0  0  0  0  0999 V2000
   -2.3799   -0.7476   -2.2925 C   0  0  0  0  0  0  0  0  0  0  0  0
   -2.2096   -1.7312   -3.4716 C   0  0  0  0  0  0  0  0  0  0  0  0
   -2.5969   -1.7012   -1.1654 C   0  0  0  0  0  0  0  0  0  0  0  0
   -1.3919   -3.0192   -3.1485 C   0  0  0  0  0  0  0  0  0  0  0  0
   -1.7729   -2.8924   -0.8310 C   0  0  0  0  0  0  0  0  0  0  0  0
   -1.8921   -3.8210   -1.9591 C   0  0  0  0  0  0  0  0  0  0  0  0
   -1.1803    0.7097   -0.2901 C   0  0  0  0  0  0  0  0  0  0  0  0
   -0.2679    0.0858    0.2830 O   0  0  0  0  0  0  0  0  0  0  0  0
   -1.7311    1.6898   -2.5196 N   0  0  0  0  0  0  0  0  0  0  0  0
   -1.3941    0.4041   -1.8706 C   0  0  2  0  0  0  0  0  0  0  0  0
   -1.9892    1.5788    0.4572 N   0  0  0  0  0  0  0  0  0  0  0  0
   -3.2442    2.2363    0.1355 C   0  0  0  0  0  0  0  0  0  0  0  0
   -1.4627    2.1833    1.7048 C   0  0  1  0  0  0  0  0  0  0  0  0
   -2.1559    3.5523    1.8255 C   0  0  0  0  0  0  0  0  0  0  0  0
   -3.0516    3.6605    0.5878 C   0  0  0  0  0  0  0  0  0  0  0  0
   -1.5784    1.3845    3.0237 C   0  0  0  0  0  0  0  0  0  0  0  0
   -0.5297    0.8854    3.5138 O   0  0  0  0  0  0  0  0  0  0  0  0
   -2.7412    1.1846    3.7178 N   0  0  0  0  0  0  0  0  0  0  0  0
   -4.0769    1.7554    3.5496 C   0  0  0  0  0  0  0  0  0  0  0  0
   -5.2264    0.7883    3.4072 C   0  0  0  0  0  0  0  0  0  0  0  0
   -5.2745   -0.0771    2.3374 C   0  0  0  0  0  0  0  0  0  0  0  0
   -6.3575   -0.9054    2.0129 C   0  0  0  0  0  0  0  0  0  0  0  0
   -7.4414   -0.9272    2.8165 C   0  0  0  0  0  0  0  0  0  0  0  0
   -7.4495   -0.0500    3.8845 C   0  0  0  0  0  0  0  0  0  0  0  0
   -6.3735    0.8185    4.1697 C   0  0  0  0  0  0  0  0  0  0  0  0
   -8.8455   -0.0293    4.8662 Cl  0  0  0  0  0  0  0  0  0  0  0  0
   -4.1577   -0.0373    1.6081 O   0  0  0  0  0  0  0  0  0  0  0  0
   -4.3383   -0.7835    0.4686 C   0  0  0  0  0  0  0  0  0  0  0  0
   -4.0917   -2.2808    0.9171 C   0  0  0  0  0  0  0  0  0  0  0  0
   -4.7814   -3.1858    0.4615 O   0  0  0  0  0  0  0  0  0  0  0  0
   -3.1041   -2.6187    1.8216 N   0  0  0  0  0  0  0  0  0  0  0  0
   -1.8930   -1.8906    2.1875 C   0  0  0  0  0  0  0  0  0  0  0  0
   -1.7776   -1.8630    3.6840 C   0  0  0  0  0  0  0  0  0  0  0  0
   -0.4008    0.1281   -2.2393 H   0  0  0  0  0  0  0  0  0  0  0  0
   -0.3892    2.3603    1.5474 H   0  0  0  0  0  0  0  0  0  0  0  0
   -3.3295   -0.2153   -2.4966 H   0  0  0  0  0  0  0  0  0  0  0  0
   -3.2298   -2.0861   -3.7125 H   0  0  0  0  0  0  0  0  0  0  0  0
   -1.8342   -1.2375   -4.3648 H   0  0  0  0  0  0  0  0  0  0  0  0
   -2.3734   -1.1580   -0.2761 H   0  0  0  0  0  0  0  0  0  0  0  0
   -3.6384   -2.0254   -1.3266 H   0  0  0  0  0  0  0  0  0  0  0  0
   -1.3901   -3.7003   -3.9944 H   0  0  0  0  0  0  0  0  0  0  0  0
   -0.3701   -2.7023   -2.9163 H   0  0  0  0  0  0  0  0  0  0  0  0
   -2.1592   -3.4461    0.0163 H   0  0  0  0  0  0  0  0  0  0  0  0
   -0.7653   -2.5718   -0.5598 H   0  0  0  0  0  0  0  0  0  0  0  0
   -2.9427   -4.1416   -2.0455 H   0  0  0  0  0  0  0  0  0  0  0  0
   -1.2956   -4.6955   -1.6901 H   0  0  0  0  0  0  0  0  0  0  0  0
   -1.8417    1.5674   -3.5191 H   0  0  0  0  0  0  0  0  0  0  0  0
   -2.6461    1.9844   -2.2088 H   0  0  0  0  0  0  0  0  0  0  0  0
   -4.0363    1.8581    0.7660 H   0  0  0  0  0  0  0  0  0  0  0  0
   -3.6634    2.0711   -0.8468 H   0  0  0  0  0  0  0  0  0  0  0  0
   -1.4377    4.3734    1.8678 H   0  0  0  0  0  0  0  0  0  0  0  0
   -2.7159    3.6726    2.7569 H   0  0  0  0  0  0  0  0  0  0  0  0
   -2.5457    4.2205   -0.1982 H   0  0  0  0  0  0  0  0  0  0  0  0
   -4.0163    4.1266    0.8133 H   0  0  0  0  0  0  0  0  0  0  0  0
   -2.6107    0.6122    4.5426 H   0  0  0  0  0  0  0  0  0  0  0  0
   -4.2358    2.4452    4.3803 H   0  0  0  0  0  0  0  0  0  0  0  0
   -4.1111    2.3597    2.6566 H   0  0  0  0  0  0  0  0  0  0  0  0
   -6.3975   -1.5704    1.1518 H   0  0  0  0  0  0  0  0  0  0  0  0
   -8.2257   -1.6284    2.5640 H   0  0  0  0  0  0  0  0  0  0  0  0
   -6.4400    1.5299    4.9798 H   0  0  0  0  0  0  0  0  0  0  0  0
   -5.2675   -0.6533   -0.1074 H   0  0  0  0  0  0  0  0  0  0  0  0
   -3.7426   -0.2171   -0.2257 H   0  0  0  0  0  0  0  0  0  0  0  0
   -3.0394   -3.6211    1.9452 H   0  0  0  0  0  0  0  0  0  0  0  0
   -1.0144   -2.3970    1.7651 H   0  0  0  0  0  0  0  0  0  0  0  0
   -1.9186   -0.8916    1.7736 H   0  0  0  0  0  0  0  0  0  0  0  0
   -1.6617   -2.8674    4.0909 H   0  0  0  0  0  0  0  0  0  0  0  0
   -0.9135   -1.2829    4.0050 H   0  0  0  0  0  0  0  0  0  0  0  0
   -2.6926   -1.4321    4.0933 H   0  0  0  0  0  0  0  0  0  0  0  0
  1  2  1  0  0  0  0
  1  3  1  0  0  0  0
  1 36  1  0  0  0  0
  2  4  1  0  0  0  0
  2 37  1  0  0  0  0
  2 38  1  0  0  0  0
  3  5  1  0  0  0  0
  3 39  1  0  0  0  0
  3 40  1  0  0  0  0
  4  6  1  0  0  0  0
  4 41  1  0  0  0  0
  4 42  1  0  0  0  0
  5  6  1  0  0  0  0
  5 43  1  0  0  0  0
  5 44  1  0  0  0  0
  6 45  1  0  0  0  0
  6 46  1  0  0  0  0
  7  8  2  0  0  0  0
  7 11  1  0  0  0  0
  9 47  1  0  0  0  0
  9 48  1  0  0  0  0
 10  9  1  0  0  0  0
 10 34  1  6  0  0  0
 10  7  1  0  0  0  0
 10  1  1  0  0  0  0
 11 12  1  0  0  0  0
 11 13  1  0  0  0  0
 12 15  1  0  0  0  0
 12 49  1  0  0  0  0
 12 50  1  0  0  0  0
 13 14  1  0  0  0  0
 13 35  1  6  0  0  0
 13 16  1  0  0  0  0
 14 15  1  0  0  0  0
 14 51  1  0  0  0  0
 14 52  1  0  0  0  0
 15 53  1  0  0  0  0
 15 54  1  0  0  0  0
 16 17  2  0  0  0  0
 16 18  1  0  0  0  0
 18 19  1  0  0  0  0
 18 55  1  0  0  0  0
 19 20  1  0  0  0  0
 19 56  1  0  0  0  0
 19 57  1  0  0  0  0
 20 21  2  0  0  0  0
 20 25  1  0  0  0  0
 21 22  1  0  0  0  0
 21 27  1  0  0  0  0
 22 23  2  0  0  0  0
 22 58  1  0  0  0  0
 23 24  1  0  0  0  0
 23 59  1  0  0  0  0
 24 25  2  0  0  0  0
 24 26  1  0  0  0  0
 25 60  1  0  0  0  0
 27 28  1  0  0  0  0
 28 29  1  0  0  0  0
 28 61  1  0  0  0  0
 28 62  1  0  0  0  0
 29 30  2  0  0  0  0
 29 31  1  0  0  0  0
 31 32  1  0  0  0  0
 31 63  1  0  0  0  0
 32 33  1  0  0  0  0
 32 64  1  0  0  0  0
 32 65  1  0  0  0  0
 33 66  1  0  0  0  0
 33 67  1  0  0  0  0
 33 68  1  0  0  0  0
M  END
>  <DRUGBANK_ID>
DB06869

>  <COMMON_NAME>
1-[2-AMINO-2-CYCLOHEXYL-ACETYL]-PYRROLIDINE-3-CARBOXYLIC ACID 5-CHLORO-2-(2-ETHYLCARBAMOYL-ETHOXY)-BENZYLAMIDE

$$$$
