Myristic acid.mol
 OpenBabel10282417173D

 44 43  0  0  0  0  0  0  0  0999 V2000
    1.1274    0.0433   -0.1381 C   0  0  0  0  0  0  0  0  0  0  0  0
    0.3966   -0.6776    0.9745 C   0  0  0  0  0  0  0  0  0  0  0  0
   -0.5031    0.2780    1.7586 C   0  0  0  0  0  0  0  0  0  0  0  0
   -1.5644    0.9321    0.8670 C   0  0  0  0  0  0  0  0  0  0  0  0
   -2.4462   -0.1261    0.1951 C   0  0  0  0  0  0  0  0  0  0  0  0
   -3.2174   -0.9181    1.2541 C   0  0  0  0  0  0  0  0  0  0  0  0
   -4.1071    0.0285    2.0660 C   0  0  0  0  0  0  0  0  0  0  0  0
   -5.1026    0.7316    1.1369 C   0  0  0  0  0  0  0  0  0  0  0  0
   -5.9888   -0.3085    0.4452 C   0  0  0  0  0  0  0  0  0  0  0  0
   -6.7592   -1.1141    1.4956 C   0  0  0  0  0  0  0  0  0  0  0  0
   -7.6458   -0.1819    2.3291 C   0  0  0  0  0  0  0  0  0  0  0  0
   -8.6743    0.5264    1.4402 C   0  0  0  0  0  0  0  0  0  0  0  0
   -9.5679   -0.4807    0.7150 C   0  0  0  0  0  0  0  0  0  0  0  0
  -10.3268   -1.3334    1.7187 C   0  0  0  0  0  0  0  0  0  0  0  0
    0.5784    0.6067   -1.0793 O   0  0  0  0  0  0  0  0  0  0  0  0
    2.4677    0.0208   -0.0271 O   0  0  0  0  0  0  0  0  0  0  0  0
   -0.1706   -1.5021    0.5270 H   0  0  0  0  0  0  0  0  0  0  0  0
    1.0980   -1.1604    1.6609 H   0  0  0  0  0  0  0  0  0  0  0  0
   -0.9859   -0.2726    2.5774 H   0  0  0  0  0  0  0  0  0  0  0  0
    0.0908    1.0552    2.2481 H   0  0  0  0  0  0  0  0  0  0  0  0
   -2.1576    1.6360    1.4598 H   0  0  0  0  0  0  0  0  0  0  0  0
   -1.1134    1.5751    0.1098 H   0  0  0  0  0  0  0  0  0  0  0  0
   -3.1190    0.3586   -0.5199 H   0  0  0  0  0  0  0  0  0  0  0  0
   -1.8685   -0.8118   -0.4297 H   0  0  0  0  0  0  0  0  0  0  0  0
   -3.7974   -1.7109    0.7711 H   0  0  0  0  0  0  0  0  0  0  0  0
   -2.5483   -1.4641    1.9244 H   0  0  0  0  0  0  0  0  0  0  0  0
   -4.6072   -0.5282    2.8634 H   0  0  0  0  0  0  0  0  0  0  0  0
   -3.5251    0.7731    2.6150 H   0  0  0  0  0  0  0  0  0  0  0  0
   -5.6875    1.4597    1.7053 H   0  0  0  0  0  0  0  0  0  0  0  0
   -4.6031    1.3496    0.3853 H   0  0  0  0  0  0  0  0  0  0  0  0
   -6.6568    0.1872   -0.2644 H   0  0  0  0  0  0  0  0  0  0  0  0
   -5.4080   -0.9872   -0.1872 H   0  0  0  0  0  0  0  0  0  0  0  0
   -7.3358   -1.9031    1.0061 H   0  0  0  0  0  0  0  0  0  0  0  0
   -6.0871   -1.6697    2.1574 H   0  0  0  0  0  0  0  0  0  0  0  0
   -8.1277   -0.7491    3.1291 H   0  0  0  0  0  0  0  0  0  0  0  0
   -7.0533    0.5644    2.8687 H   0  0  0  0  0  0  0  0  0  0  0  0
   -9.2791    1.2055    2.0484 H   0  0  0  0  0  0  0  0  0  0  0  0
   -8.1777    1.1694    0.7030 H   0  0  0  0  0  0  0  0  0  0  0  0
  -10.2654    0.0502    0.0616 H   0  0  0  0  0  0  0  0  0  0  0  0
   -8.9808   -1.1268    0.0513 H   0  0  0  0  0  0  0  0  0  0  0  0
  -10.9409   -0.6929    2.3584 H   0  0  0  0  0  0  0  0  0  0  0  0
  -10.9647   -2.0560    1.2094 H   0  0  0  0  0  0  0  0  0  0  0  0
   -9.6541   -1.9071    2.3646 H   0  0  0  0  0  0  0  0  0  0  0  0
    2.8039   -0.4905    0.7298 H   0  0  0  0  0  0  0  0  0  0  0  0
  1  2  1  0  0  0  0
  1 15  2  0  0  0  0
  1 16  1  0  0  0  0
  2  3  1  0  0  0  0
  2 17  1  0  0  0  0
  2 18  1  0  0  0  0
  3  4  1  0  0  0  0
  3 19  1  0  0  0  0
  3 20  1  0  0  0  0
  4  5  1  0  0  0  0
  4 21  1  0  0  0  0
  4 22  1  0  0  0  0
  5  6  1  0  0  0  0
  5 23  1  0  0  0  0
  5 24  1  0  0  0  0
  6  7  1  0  0  0  0
  6 25  1  0  0  0  0
  6 26  1  0  0  0  0
  7  8  1  0  0  0  0
  7 27  1  0  0  0  0
  7 28  1  0  0  0  0
  8  9  1  0  0  0  0
  8 29  1  0  0  0  0
  8 30  1  0  0  0  0
  9 10  1  0  0  0  0
  9 31  1  0  0  0  0
  9 32  1  0  0  0  0
 10 11  1  0  0  0  0
 10 33  1  0  0  0  0
 10 34  1  0  0  0  0
 11 12  1  0  0  0  0
 11 35  1  0  0  0  0
 11 36  1  0  0  0  0
 12 13  1  0  0  0  0
 12 37  1  0  0  0  0
 12 38  1  0  0  0  0
 13 14  1  0  0  0  0
 13 39  1  0  0  0  0
 13 40  1  0  0  0  0
 14 41  1  0  0  0  0
 14 42  1  0  0  0  0
 14 43  1  0  0  0  0
 16 44  1  0  0  0  0
M  END
>  <DRUGBANK_ID>
DB08231

>  <COMMON_NAME>
Myristic acid

>  <CAS_NUMBER>
544-63-8

>  <UNII>
0I3V7S25AW

>  <SYNONYMS>
1-tridecanecarboxylic acid; N-tetradecan-1-oic acid; N-tetradecanoic acid; Tetradecanoic acid

$$$$
