
 OpenBabel10282417153D

 52 55  0  0  1  0  0  0  0  0999 V2000
    2.4936   -0.6552    0.0368 C   0  0  0  0  0  0  0  0  0  0  0  0
    2.4323    0.7347   -0.0696 C   0  0  0  0  0  0  0  0  0  0  0  0
    1.1988    1.3780   -0.0836 C   0  0  0  0  0  0  0  0  0  0  0  0
    0.0331    0.6252   -0.0033 C   0  0  0  0  0  0  0  0  0  0  0  0
    0.0821   -0.7756    0.0399 C   0  0  0  0  0  0  0  0  0  0  0  0
    1.3230   -1.4093    0.0966 C   0  0  0  0  0  0  0  0  0  0  0  0
   -1.1727   -1.5986    0.0219 C   0  0  0  0  0  0  0  0  0  0  0  0
   -2.3439   -0.7303   -0.3798 C   0  0  0  0  0  0  0  0  0  0  0  0
   -2.2487    0.5498    0.4555 C   0  0  1  0  0  0  0  0  0  0  0  0
   -1.1364    1.3338    0.0022 O   0  0  0  0  0  0  0  0  0  0  0  0
   -3.4821    1.4016    0.2803 C   0  0  0  0  0  0  0  0  0  0  0  0
   -4.6855    0.7131    0.7652 N   0  0  0  0  0  0  0  0  0  0  0  0
   -5.8492    1.5287    0.4769 C   0  0  0  0  0  0  0  0  0  0  0  0
   -5.9139    1.7859   -1.0268 C   0  0  0  0  0  0  0  0  0  0  0  0
   -6.2227    0.5250   -1.8478 C   0  0  0  0  0  0  0  0  0  0  0  0
   -7.4680   -0.2381   -1.3944 C   0  0  0  0  0  0  0  0  0  0  0  0
   -8.7224    0.5037   -1.5935 N   0  0  0  0  0  0  0  0  0  0  0  0
   -9.9907   -0.0901   -1.7656 C   0  0  0  0  0  0  0  0  0  0  0  0
  -10.2070   -1.2917   -1.7917 O   0  0  0  0  0  0  0  0  0  0  0  0
  -11.0063    0.9713   -1.9234 C   0  0  0  0  0  0  0  0  0  0  0  0
  -12.3559    0.8276   -2.1241 C   0  0  0  0  0  0  0  0  0  0  0  0
  -13.1239    1.9967   -2.2527 C   0  0  0  0  0  0  0  0  0  0  0  0
  -12.5500    3.2836   -2.1750 C   0  0  0  0  0  0  0  0  0  0  0  0
  -11.1937    3.4231   -1.9676 C   0  0  0  0  0  0  0  0  0  0  0  0
  -10.4842    2.2474   -1.8569 C   0  0  0  0  0  0  0  0  0  0  0  0
   -8.8101    2.1835   -1.5902 S   0  0  0  0  0  0  0  0  0  0  0  0
   -8.6038    2.6916   -0.2525 O   0  0  0  0  0  0  0  0  0  0  0  0
   -8.1799    2.7102   -2.7798 O   0  0  0  0  0  0  0  0  0  0  0  0
    3.4568   -1.1557    0.0598 H   0  0  0  0  0  0  0  0  0  0  0  0
    3.3452    1.3180   -0.1367 H   0  0  0  0  0  0  0  0  0  0  0  0
    1.1411    2.4607   -0.1532 H   0  0  0  0  0  0  0  0  0  0  0  0
    1.3791   -2.4920    0.1711 H   0  0  0  0  0  0  0  0  0  0  0  0
   -1.3555   -2.0148    1.0199 H   0  0  0  0  0  0  0  0  0  0  0  0
   -1.0840   -2.4276   -0.6874 H   0  0  0  0  0  0  0  0  0  0  0  0
   -3.2688   -1.2918   -0.2269 H   0  0  0  0  0  0  0  0  0  0  0  0
   -2.2825   -0.4879   -1.4513 H   0  0  0  0  0  0  0  0  0  0  0  0
   -2.1339    0.3442    1.5260 H   0  0  0  0  0  0  0  0  0  0  0  0
   -3.3816    2.3680    0.7880 H   0  0  0  0  0  0  0  0  0  0  0  0
   -3.5019    1.6251   -0.7900 H   0  0  0  0  0  0  0  0  0  0  0  0
   -4.7956   -0.1766    0.2832 H   0  0  0  0  0  0  0  0  0  0  0  0
   -6.7430    1.0109    0.8470 H   0  0  0  0  0  0  0  0  0  0  0  0
   -5.8177    2.4675    1.0381 H   0  0  0  0  0  0  0  0  0  0  0  0
   -6.5820    2.6138   -1.1656 H   0  0  0  0  0  0  0  0  0  0  0  0
   -5.0410    2.2792   -1.4525 H   0  0  0  0  0  0  0  0  0  0  0  0
   -6.3127    0.7834   -2.9086 H   0  0  0  0  0  0  0  0  0  0  0  0
   -5.3598   -0.1543   -1.7929 H   0  0  0  0  0  0  0  0  0  0  0  0
   -7.5136   -1.1682   -1.9770 H   0  0  0  0  0  0  0  0  0  0  0  0
   -7.3885   -0.5653   -0.3515 H   0  0  0  0  0  0  0  0  0  0  0  0
  -12.7985   -0.1600   -2.1819 H   0  0  0  0  0  0  0  0  0  0  0  0
  -14.1932    1.9117   -2.4184 H   0  0  0  0  0  0  0  0  0  0  0  0
  -13.1644    4.1736   -2.2772 H   0  0  0  0  0  0  0  0  0  0  0  0
  -10.6997    4.3892   -1.8926 H   0  0  0  0  0  0  0  0  0  0  0  0
  1  2  2  0  0  0  0
  1  6  1  0  0  0  0
  1 29  1  0  0  0  0
  2  3  1  0  0  0  0
  2 30  1  0  0  0  0
  3  4  2  0  0  0  0
  3 31  1  0  0  0  0
  4  5  1  0  0  0  0
  4 10  1  0  0  0  0
  5  6  2  0  0  0  0
  5  7  1  0  0  0  0
  6 32  1  0  0  0  0
  7  8  1  0  0  0  0
  7 33  1  0  0  0  0
  7 34  1  0  0  0  0
  8  9  1  0  0  0  0
  8 35  1  0  0  0  0
  8 36  1  0  0  0  0
  9 10  1  0  0  0  0
  9 11  1  0  0  0  0
  9 37  1  1  0  0  0
 11 12  1  0  0  0  0
 11 38  1  0  0  0  0
 11 39  1  0  0  0  0
 12 13  1  0  0  0  0
 12 40  1  0  0  0  0
 13 14  1  0  0  0  0
 13 41  1  0  0  0  0
 13 42  1  0  0  0  0
 14 15  1  0  0  0  0
 14 43  1  0  0  0  0
 14 44  1  0  0  0  0
 15 16  1  0  0  0  0
 15 45  1  0  0  0  0
 15 46  1  0  0  0  0
 16 17  1  0  0  0  0
 16 47  1  0  0  0  0
 16 48  1  0  0  0  0
 17 18  1  0  0  0  0
 17 26  1  0  0  0  0
 18 19  2  0  0  0  0
 18 20  1  0  0  0  0
 20 21  2  0  0  0  0
 20 25  1  0  0  0  0
 21 22  1  0  0  0  0
 21 49  1  0  0  0  0
 22 23  2  0  0  0  0
 22 50  1  0  0  0  0
 23 24  1  0  0  0  0
 23 51  1  0  0  0  0
 24 25  2  0  0  0  0
 24 52  1  0  0  0  0
 25 26  1  0  0  0  0
 26 27  2  0  0  0  0
 26 28  2  0  0  0  0
M  END
>  <DRUGBANK_ID>
DB06506

>  <COMMON_NAME>
Repinotan

>  <CAS_NUMBER>
144980-29-0

>  <UNII>
05PB82Z52L

>  <SYNONYMS>
Repinotan

$$$$
