
 OpenBabel10282417123D

 29 29  0  0  1  0  0  0  0  0999 V2000
   -1.2974    1.3333   -0.1068 C   0  0  1  0  0  0  0  0  0  0  0  0
   -0.1065    2.0034    0.3423 O   0  0  0  0  0  0  0  0  0  0  0  0
    1.0816    1.3772   -0.1615 C   0  0  1  0  0  0  0  0  0  0  0  0
    1.1727   -0.0638    0.4666 C   0  0  1  0  0  0  0  0  0  0  0  0
   -0.0891   -0.9114    0.1280 C   0  0  2  0  0  0  0  0  0  0  0  0
   -1.3728   -0.1192    0.4137 C   0  0  2  0  0  0  0  0  0  0  0  0
    2.4046   -0.7509    0.2342 O   0  0  0  0  0  0  0  0  0  0  0  0
   -0.0601   -2.1963    0.7352 O   0  0  0  0  0  0  0  0  0  0  0  0
   -2.4999   -0.7778   -0.1710 O   0  0  0  0  0  0  0  0  0  0  0  0
   -2.5205    2.1160    0.3844 C   0  0  0  0  0  0  0  0  0  0  0  0
   -2.4602    3.4714   -0.0499 O   0  0  0  0  0  0  0  0  0  0  0  0
    1.1089    1.4870   -1.5956 O   0  0  0  0  0  0  0  0  0  0  0  0
    0.7258    0.4770   -3.6571 O   0  0  0  0  0  0  0  0  0  0  0  0
    2.7114   -0.1008   -2.2050 O   0  0  0  0  0  0  0  0  0  0  0  0
    1.0883   -0.0945   -2.2966 P   0  0  0  0  0  0  0  0  0  0  0  0
    1.0678   -1.6760   -2.9976 O   0  0  0  0  0  0  0  0  0  0  0  0
   -1.3162    1.3669   -1.2052 H   0  0  0  0  0  0  0  0  0  0  0  0
    1.9388    1.9611    0.1922 H   0  0  0  0  0  0  0  0  0  0  0  0
    1.1654    0.0632    1.5545 H   0  0  0  0  0  0  0  0  0  0  0  0
   -0.1673   -1.2105   -0.9105 H   0  0  0  0  0  0  0  0  0  0  0  0
   -1.5210   -0.1245    1.4974 H   0  0  0  0  0  0  0  0  0  0  0  0
    2.6674   -0.8309   -0.7117 H   0  0  0  0  0  0  0  0  0  0  0  0
    0.1463   -2.1064    1.6859 H   0  0  0  0  0  0  0  0  0  0  0  0
   -2.3929   -0.8269   -1.1395 H   0  0  0  0  0  0  0  0  0  0  0  0
   -3.4422    1.6775   -0.0097 H   0  0  0  0  0  0  0  0  0  0  0  0
   -2.5669    2.1167    1.4772 H   0  0  0  0  0  0  0  0  0  0  0  0
   -1.6012    3.8178    0.2559 H   0  0  0  0  0  0  0  0  0  0  0  0
    3.0373    0.7165   -2.6422 H   0  0  0  0  0  0  0  0  0  0  0  0
    1.6038   -1.6144   -3.8116 H   0  0  0  0  0  0  0  0  0  0  0  0
  1 10  1  0  0  0  0
  1  6  1  0  0  0  0
  1 17  1  6  0  0  0
  2  1  1  0  0  0  0
  3  2  1  0  0  0  0
  3  4  1  0  0  0  0
  3 18  1  1  0  0  0
  3 12  1  0  0  0  0
  4  7  1  0  0  0  0
  4  5  1  0  0  0  0
  4 19  1  1  0  0  0
  5  8  1  0  0  0  0
  5  6  1  0  0  0  0
  5 20  1  6  0  0  0
  6  9  1  0  0  0  0
  6 21  1  1  0  0  0
  7 22  1  0  0  0  0
  8 23  1  0  0  0  0
  9 24  1  0  0  0  0
 10 11  1  0  0  0  0
 10 25  1  0  0  0  0
 10 26  1  0  0  0  0
 11 27  1  0  0  0  0
 13 15  2  0  0  0  0
 14 28  1  0  0  0  0
 15 12  1  0  0  0  0
 15 14  1  0  0  0  0
 15 16  1  0  0  0  0
 16 29  1  0  0  0  0
M  END
>  <DRUGBANK_ID>
DB02843

>  <SECONDARY_ACCESSION_NUMBERS>
EXPT01520

>  <COMMON_NAME>
alpha-D-glucose-1-phosphate

>  <CAS_NUMBER>
59-56-3

>  <UNII>
CIX3U01VAU

>  <SYNONYMS>
glucose-1-phosphate

$$$$
