380
 OpenBabel10282417103D

 35 36  0  0  1  0  0  0  0  0999 V2000
   -2.5912    0.5327    4.5303 O   0  0  0  0  0  0  0  0  0  0  0  0
    1.9101    0.5398    5.1784 O   0  0  0  0  0  0  0  0  0  0  0  0
    3.4335    3.5447    2.1650 O   0  0  0  0  0  0  0  0  0  0  0  0
    1.4047    5.1965   -1.4103 O   0  0  0  0  0  0  0  0  0  0  0  0
    0.0429    0.0274    2.1591 N   0  0  0  0  0  0  0  0  0  0  0  0
    1.4889    1.7450   -0.3472 N   0  0  0  0  0  0  0  0  0  0  0  0
   -0.3424    0.5176    4.8469 N   0  0  0  0  0  0  0  0  0  0  0  0
    2.0488    4.2684    0.5425 N   0  0  0  0  0  0  0  0  0  0  0  0
   -0.0286    1.4937    1.8642 C   0  0  2  0  0  0  0  0  0  0  0  0
    0.1469    1.7837    0.3060 C   0  0  0  0  0  0  0  0  0  0  0  0
   -1.2444   -0.4160    2.7454 C   0  0  0  0  0  0  0  0  0  0  0  0
    1.1120   -0.4170    3.0956 C   0  0  0  0  0  0  0  0  0  0  0  0
    0.8228    2.3901    2.7674 C   0  0  0  0  0  0  0  0  0  0  0  0
    2.6439    1.8453    0.5576 C   0  0  0  0  0  0  0  0  0  0  0  0
    1.6974    2.7868   -1.3762 C   0  0  0  0  0  0  0  0  0  0  0  0
   -1.4724    0.2539    4.1057 C   0  0  0  0  0  0  0  0  0  0  0  0
    0.9532    0.2210    4.4773 C   0  0  0  0  0  0  0  0  0  0  0  0
    2.7787    3.2809    1.1556 C   0  0  0  0  0  0  0  0  0  0  0  0
    1.6587    4.1980   -0.7734 C   0  0  0  0  0  0  0  0  0  0  0  0
   -0.4541    1.1024    5.6628 H   0  0  0  0  0  0  0  0  0  0  0  0
    2.0368    5.1792    0.9782 H   0  0  0  0  0  0  0  0  0  0  0  0
   -1.0489    1.8511    2.0710 H   0  0  0  0  0  0  0  0  0  0  0  0
   -0.4944    1.0652   -0.2321 H   0  0  0  0  0  0  0  0  0  0  0  0
   -0.3513    2.7469    0.1136 H   0  0  0  0  0  0  0  0  0  0  0  0
   -1.2520   -1.5024    2.8767 H   0  0  0  0  0  0  0  0  0  0  0  0
   -2.0643   -0.1590    2.0643 H   0  0  0  0  0  0  0  0  0  0  0  0
    1.0998   -1.5058    3.2127 H   0  0  0  0  0  0  0  0  0  0  0  0
    2.1080   -0.1867    2.7123 H   0  0  0  0  0  0  0  0  0  0  0  0
    0.7541    3.4236    2.4423 H   0  0  0  0  0  0  0  0  0  0  0  0
    0.5681    2.4532    3.8192 H   0  0  0  0  0  0  0  0  0  0  0  0
    1.8443    2.0178    2.8134 H   0  0  0  0  0  0  0  0  0  0  0  0
    3.5887    1.5878    0.0747 H   0  0  0  0  0  0  0  0  0  0  0  0
    2.5204    1.0522    1.2830 H   0  0  0  0  0  0  0  0  0  0  0  0
    2.7024    2.6519   -1.7991 H   0  0  0  0  0  0  0  0  0  0  0  0
    0.9757    2.7049   -2.1893 H   0  0  0  0  0  0  0  0  0  0  0  0
  1 16  2  0  0  0  0
  2 17  2  0  0  0  0
  3 18  2  0  0  0  0
  4 19  2  0  0  0  0
  5 11  1  0  0  0  0
  5 12  1  0  0  0  0
  6 10  1  0  0  0  0
  6 14  1  0  0  0  0
  6 15  1  0  0  0  0
  7 16  1  0  0  0  0
  7 17  1  0  0  0  0
  7 20  1  0  0  0  0
  8 18  1  0  0  0  0
  8 19  1  0  0  0  0
  8 21  1  0  0  0  0
  9 13  1  0  0  0  0
  9 22  1  1  0  0  0
  9 10  1  0  0  0  0
  9  5  1  0  0  0  0
 10 23  1  0  0  0  0
 10 24  1  0  0  0  0
 11 16  1  0  0  0  0
 11 25  1  0  0  0  0
 11 26  1  0  0  0  0
 12 17  1  0  0  0  0
 12 27  1  0  0  0  0
 12 28  1  0  0  0  0
 13 29  1  0  0  0  0
 13 30  1  0  0  0  0
 13 31  1  0  0  0  0
 14 18  1  0  0  0  0
 14 32  1  0  0  0  0
 14 33  1  0  0  0  0
 15 19  1  0  0  0  0
 15 34  1  0  0  0  0
 15 35  1  0  0  0  0
M  END
>  <DRUGBANK_ID>
DB00380

>  <SECONDARY_ACCESSION_NUMBERS>
APRD00090; DB02444

>  <COMMON_NAME>
Dexrazoxane

>  <CAS_NUMBER>
24584-09-6

>  <UNII>
048L81261F

>  <SYNONYMS>
(+)-(S)-4,4'-Propylenedi-2,6-piperazinedione; (+)-1,2-Bis(3,5-dioxo-1-piperazinyl)propane; 4-[(2S)-2-(3,5-dioxopiperazin-1-yl)propyl]piperazine-2,6-dione; Dexrazoxan; Dexrazoxane; Dexrazoxano; Dexrazoxanum; Dextrorazoxane

$$$$
