
 OpenBabel10282417163D

 43 47  0  0  0  0  0  0  0  0999 V2000
    1.7734    1.5308    0.0371 S   0  0  0  0  0  0  0  0  0  0  0  0
    2.5422   -0.0592    0.0068 C   0  0  0  0  0  0  0  0  0  0  0  0
    1.5829   -1.0697   -0.0465 N   0  0  0  0  0  0  0  0  0  0  0  0
    0.2393   -0.5832   -0.1142 C   0  0  0  0  0  0  0  0  0  0  0  0
    0.1695    0.8012   -0.0046 C   0  0  0  0  0  0  0  0  0  0  0  0
   -0.9601   -1.2677   -0.2862 C   0  0  0  0  0  0  0  0  0  0  0  0
   -2.1897   -0.6263   -0.1017 C   0  0  0  0  0  0  0  0  0  0  0  0
   -2.2303    0.7567    0.0168 C   0  0  0  0  0  0  0  0  0  0  0  0
   -1.0415    1.4825    0.0198 C   0  0  0  0  0  0  0  0  0  0  0  0
    3.7626   -0.1870    0.0234 O   0  0  0  0  0  0  0  0  0  0  0  0
    2.0140   -2.4702    0.0131 C   0  0  0  0  0  0  0  0  0  0  0  0
    1.5728   -3.2333    1.2507 C   0  0  0  0  0  0  0  0  0  0  0  0
    0.2126   -3.4206    1.4874 C   0  0  0  0  0  0  0  0  0  0  0  0
   -0.3193   -3.8700    2.6680 C   0  0  0  0  0  0  0  0  0  0  0  0
    0.5518   -4.4563    3.5468 C   0  0  0  0  0  0  0  0  0  0  0  0
    1.9245   -4.5147    3.2735 C   0  0  0  0  0  0  0  0  0  0  0  0
    2.4445   -3.8371    2.1588 C   0  0  0  0  0  0  0  0  0  0  0  0
   -0.2210   -5.3613    8.1828 C   0  0  0  0  0  0  0  0  0  0  0  0
   -0.3894   -5.4753    6.8012 C   0  0  0  0  0  0  0  0  0  0  0  0
    0.3620   -4.6460    5.9802 C   0  0  0  0  0  0  0  0  0  0  0  0
    1.2048   -3.6493    6.4739 C   0  0  0  0  0  0  0  0  0  0  0  0
    1.2913   -3.6042    7.8534 C   0  0  0  0  0  0  0  0  0  0  0  0
    0.6268   -4.4268    8.6979 N   0  0  0  0  0  0  0  0  0  0  0  0
   -0.9867   -5.9743    4.7930 C   0  0  0  0  0  0  0  0  0  0  0  0
   -1.2142   -6.2900    6.0557 N   0  0  0  0  0  0  0  0  0  0  0  0
    0.0193   -5.0268    4.7056 N   0  0  0  0  0  0  0  0  0  0  0  0
   -1.6270   -6.6285    3.6154 C   0  0  0  0  0  0  0  0  0  0  0  0
   -1.0189   -2.2968   -0.6057 H   0  0  0  0  0  0  0  0  0  0  0  0
   -3.1110   -1.2072   -0.0980 H   0  0  0  0  0  0  0  0  0  0  0  0
   -3.1882    1.2673    0.0566 H   0  0  0  0  0  0  0  0  0  0  0  0
   -1.0592    2.5657    0.0446 H   0  0  0  0  0  0  0  0  0  0  0  0
    1.6760   -2.9819   -0.8930 H   0  0  0  0  0  0  0  0  0  0  0  0
    3.1132   -2.4934   -0.0199 H   0  0  0  0  0  0  0  0  0  0  0  0
   -0.5073   -3.2797    0.7207 H   0  0  0  0  0  0  0  0  0  0  0  0
   -1.3912   -3.7976    2.8314 H   0  0  0  0  0  0  0  0  0  0  0  0
    2.5788   -5.1194    3.8967 H   0  0  0  0  0  0  0  0  0  0  0  0
    3.5200   -3.8329    1.9936 H   0  0  0  0  0  0  0  0  0  0  0  0
   -0.7466   -5.9915    8.8874 H   0  0  0  0  0  0  0  0  0  0  0  0
    1.7410   -2.9592    5.8343 H   0  0  0  0  0  0  0  0  0  0  0  0
    1.9334   -2.8699    8.3334 H   0  0  0  0  0  0  0  0  0  0  0  0
   -1.3789   -7.6931    3.6001 H   0  0  0  0  0  0  0  0  0  0  0  0
   -2.7144   -6.5201    3.6683 H   0  0  0  0  0  0  0  0  0  0  0  0
   -1.3078   -6.2211    2.6534 H   0  0  0  0  0  0  0  0  0  0  0  0
  1  2  1  0  0  0  0
  1  5  1  0  0  0  0
  2  3  1  0  0  0  0
  2 10  2  0  0  0  0
  3  4  1  0  0  0  0
  3 11  1  0  0  0  0
  4  5  1  0  0  0  0
  6  7  1  0  0  0  0
  6  4  2  0  0  0  0
  6 28  1  0  0  0  0
  7  8  2  0  0  0  0
  7 29  1  0  0  0  0
  8  9  1  0  0  0  0
  8 30  1  0  0  0  0
  9  5  2  0  0  0  0
  9 31  1  0  0  0  0
 11 12  1  0  0  0  0
 11 32  1  0  0  0  0
 11 33  1  0  0  0  0
 12 13  1  0  0  0  0
 12 17  2  0  0  0  0
 13 14  2  0  0  0  0
 13 34  1  0  0  0  0
 14 15  1  0  0  0  0
 14 35  1  0  0  0  0
 15 16  2  0  0  0  0
 15 26  1  0  0  0  0
 16 17  1  0  0  0  0
 16 36  1  0  0  0  0
 17 37  1  0  0  0  0
 18 19  1  0  0  0  0
 18 23  2  0  0  0  0
 18 38  1  0  0  0  0
 19 20  2  0  0  0  0
 20 21  1  0  0  0  0
 21 22  2  0  0  0  0
 21 39  1  0  0  0  0
 22 23  1  0  0  0  0
 22 40  1  0  0  0  0
 24 25  2  0  0  0  0
 24 26  1  0  0  0  0
 24 27  1  0  0  0  0
 25 19  1  0  0  0  0
 26 20  1  0  0  0  0
 27 41  1  0  0  0  0
 27 42  1  0  0  0  0
 27 43  1  0  0  0  0
M  END
>  <DRUGBANK_ID>
DB07578

>  <COMMON_NAME>
CP-94707

>  <CAS_NUMBER>
343250-05-5

>  <UNII>
YGC6408B5O

$$$$
