
 OpenBabel10282417153D

 50 54  0  0  0  0  0  0  0  0999 V2000
    2.3788   -0.5620   -0.1393 C   0  0  0  0  0  0  0  0  0  0  0  0
    3.6212   -0.5635    0.6175 C   0  0  0  0  0  0  0  0  0  0  0  0
    1.3423   -1.4206    0.0368 C   0  0  0  0  0  0  0  0  0  0  0  0
    2.0342    0.8278   -0.5909 C   0  0  0  0  0  0  0  0  0  0  0  0
   -0.0253   -0.7701    0.0768 C   0  0  0  0  0  0  0  0  0  0  0  0
    3.8155    0.3870    1.5492 N   0  0  0  0  0  0  0  0  0  0  0  0
    1.0288    1.4095    0.1008 N   0  0  0  0  0  0  0  0  0  0  0  0
    4.8201   -0.5377   -0.0888 N   0  0  0  0  0  0  0  0  0  0  0  0
   -0.1243    0.6383    0.1709 C   0  0  0  0  0  0  0  0  0  0  0  0
    5.1289    0.7960   -0.2354 C   0  0  0  0  0  0  0  0  0  0  0  0
    6.3445    3.6272   -2.1825 N   0  0  0  0  0  0  0  0  0  0  0  0
    4.4451    1.3867    0.8202 C   0  0  0  0  0  0  0  0  0  0  0  0
    5.7369    1.5077   -1.2639 C   0  0  0  0  0  0  0  0  0  0  0  0
    5.7245    2.9056   -1.1884 C   0  0  0  0  0  0  0  0  0  0  0  0
    8.1737    4.4859   -4.2405 N   0  0  0  0  0  0  0  0  0  0  0  0
   -1.2395   -1.4489    0.0947 C   0  0  0  0  0  0  0  0  0  0  0  0
    2.6317    1.4420   -1.4791 O   0  0  0  0  0  0  0  0  0  0  0  0
    1.3917   -2.7939    0.2448 N   0  0  0  0  0  0  0  0  0  0  0  0
    7.4238    4.5444   -1.8440 C   0  0  0  0  0  0  0  0  0  0  0  0
    5.9332    3.5704   -3.5932 C   0  0  0  0  0  0  0  0  0  0  0  0
    4.3113    2.7857    0.8193 C   0  0  0  0  0  0  0  0  0  0  0  0
    5.0597    3.5290   -0.1170 C   0  0  0  0  0  0  0  0  0  0  0  0
    7.1710    3.4291   -4.5149 C   0  0  0  0  0  0  0  0  0  0  0  0
    8.6008    4.3503   -2.8284 C   0  0  0  0  0  0  0  0  0  0  0  0
   -1.2822   -2.7830    0.2301 F   0  0  0  0  0  0  0  0  0  0  0  0
   -1.3261    1.3357    0.1278 C   0  0  0  0  0  0  0  0  0  0  0  0
    9.3130    4.3841   -5.1427 C   0  0  0  0  0  0  0  0  0  0  0  0
   -2.4778    0.6263   -0.1420 C   0  0  0  0  0  0  0  0  0  0  0  0
   -2.4498   -0.7645   -0.0606 C   0  0  0  0  0  0  0  0  0  0  0  0
    0.9562    2.4077   -0.0319 H   0  0  0  0  0  0  0  0  0  0  0  0
    5.4138   -1.3077   -0.3574 H   0  0  0  0  0  0  0  0  0  0  0  0
    6.1192    1.0052   -2.1415 H   0  0  0  0  0  0  0  0  0  0  0  0
    0.5200   -3.2778    0.0035 H   0  0  0  0  0  0  0  0  0  0  0  0
    2.2042   -3.2715   -0.1364 H   0  0  0  0  0  0  0  0  0  0  0  0
    7.0533    5.5736   -1.8921 H   0  0  0  0  0  0  0  0  0  0  0  0
    7.7914    4.3583   -0.8280 H   0  0  0  0  0  0  0  0  0  0  0  0
    5.4146    4.5048   -3.8452 H   0  0  0  0  0  0  0  0  0  0  0  0
    5.2346    2.7503   -3.7976 H   0  0  0  0  0  0  0  0  0  0  0  0
    3.5205    3.2712    1.3868 H   0  0  0  0  0  0  0  0  0  0  0  0
    5.0364    4.6149   -0.0528 H   0  0  0  0  0  0  0  0  0  0  0  0
    6.8452    3.4846   -5.5608 H   0  0  0  0  0  0  0  0  0  0  0  0
    7.6188    2.4362   -4.3665 H   0  0  0  0  0  0  0  0  0  0  0  0
    9.0404    3.3544   -2.6708 H   0  0  0  0  0  0  0  0  0  0  0  0
    9.3716    5.0908   -2.5922 H   0  0  0  0  0  0  0  0  0  0  0  0
   -1.3428    2.4195    0.2077 H   0  0  0  0  0  0  0  0  0  0  0  0
   10.0354    5.1804   -4.9305 H   0  0  0  0  0  0  0  0  0  0  0  0
    9.8249    3.4198   -5.0614 H   0  0  0  0  0  0  0  0  0  0  0  0
    8.9914    4.5228   -6.1808 H   0  0  0  0  0  0  0  0  0  0  0  0
   -3.3851    1.1572   -0.4116 H   0  0  0  0  0  0  0  0  0  0  0  0
   -3.3738   -1.3278   -0.1198 H   0  0  0  0  0  0  0  0  0  0  0  0
  2  1  1  0  0  0  0
  3  1  2  0  0  0  0
  4  1  1  0  0  0  0
  5  3  1  0  0  0  0
  6  2  2  0  0  0  0
  7  4  1  0  0  0  0
  7  9  1  0  0  0  0
  7 30  1  0  0  0  0
  8  2  1  0  0  0  0
  8 31  1  0  0  0  0
  9  5  2  0  0  0  0
 10  8  1  0  0  0  0
 10 12  1  0  0  0  0
 11 14  1  0  0  0  0
 12  6  1  0  0  0  0
 13 10  2  0  0  0  0
 13 32  1  0  0  0  0
 14 13  1  0  0  0  0
 15 23  1  0  0  0  0
 16  5  1  0  0  0  0
 17  4  2  0  0  0  0
 18  3  1  0  0  0  0
 18 33  1  0  0  0  0
 18 34  1  0  0  0  0
 19 11  1  0  0  0  0
 19 35  1  0  0  0  0
 19 36  1  0  0  0  0
 20 11  1  0  0  0  0
 20 37  1  0  0  0  0
 20 38  1  0  0  0  0
 21 12  2  0  0  0  0
 21 39  1  0  0  0  0
 22 21  1  0  0  0  0
 22 14  2  0  0  0  0
 22 40  1  0  0  0  0
 23 20  1  0  0  0  0
 23 41  1  0  0  0  0
 23 42  1  0  0  0  0
 24 19  1  0  0  0  0
 24 15  1  0  0  0  0
 24 43  1  0  0  0  0
 24 44  1  0  0  0  0
 25 16  1  0  0  0  0
 26  9  1  0  0  0  0
 26 45  1  0  0  0  0
 27 15  1  0  0  0  0
 27 46  1  0  0  0  0
 27 47  1  0  0  0  0
 27 48  1  0  0  0  0
 28 29  1  0  0  0  0
 28 26  2  0  0  0  0
 28 49  1  0  0  0  0
 29 16  2  0  0  0  0
 29 50  1  0  0  0  0
M  END
>  <DRUGBANK_ID>
DB05928

>  <COMMON_NAME>
Dovitinib

>  <CAS_NUMBER>
405169-16-6

>  <UNII>
I35H55G906

>  <SYNONYMS>
Dovitinib

$$$$
