
 OpenBabel10282417143D

 80 87  0  0  0  0  0  0  0  0999 V2000
   -7.3015    2.7297   -4.2543 Fe  0  0  3  0  0  0  0  0  0  0  0  0
   -6.9806    2.1536   -5.4369 N   0  0  0  0  0  0  0  0  0  0  0  0
   -5.7305    1.6513   -5.6164 C   0  0  0  0  0  0  0  0  0  0  0  0
   -5.3920    1.0154   -6.9549 C   0  0  3  0  0  0  0  0  0  0  0  0
   -4.2350    1.7658   -7.5942 C   0  0  0  0  0  0  0  0  0  0  0  0
   -3.1520    1.1563   -7.8605 O   0  0  0  0  0  0  0  0  0  0  0  0
   -4.3732    3.2451   -7.9149 C   0  0  0  0  0  0  0  0  0  0  0  0
   -3.3376    3.9167   -8.4870 C   0  0  0  0  0  0  0  0  0  0  0  0
   -2.0424    3.1878   -8.8056 C   0  0  0  0  0  0  0  0  0  0  0  0
   -1.8373    1.9503   -9.4006 N   0  0  0  0  0  0  0  0  0  0  0  0
   -0.5369    1.5420   -9.5601 C   0  0  0  0  0  0  0  0  0  0  0  0
   -0.2252    0.2057  -10.2139 C   0  0  0  0  0  0  0  0  0  0  0  0
    1.0669   -0.1912  -10.3680 C   0  0  0  0  0  0  0  0  0  0  0  0
    1.5651   -1.3581  -10.9314 N   0  0  0  0  0  0  0  0  0  0  0  0
    2.9297   -1.4902  -10.9897 C   0  0  0  0  0  0  0  0  0  0  0  0
   -7.3052    4.0835   -0.7449 C   0  0  0  0  0  0  0  0  0  0  0  0
   -6.2548    3.3898   -1.5967 C   0  0  0  0  0  0  0  0  0  0  0  0
   -6.3275    2.7721   -3.2572 N   0  0  0  0  0  0  0  0  0  0  0  0
   -5.0407    2.2449   -3.4679 C   0  0  0  0  0  0  0  0  0  0  0  0
   -4.8138    1.6881   -4.7026 C   0  0  0  0  0  0  0  0  0  0  0  0
   -4.1580    2.3588   -2.3854 C   0  0  0  0  0  0  0  0  0  0  0  0
   -4.5636    2.9435   -1.2363 C   0  0  0  0  0  0  0  0  0  0  0  0
   -3.7760    3.1658    0.0446 C   0  0  0  0  0  0  0  0  0  0  0  0
   -2.7404    1.8233   -2.5040 C   0  0  0  0  0  0  0  0  0  0  0  0
   -1.7510    2.9589   -2.2991 C   0  0  0  0  0  0  0  0  0  0  0  0
    3.7148   -0.4969  -10.4922 C   0  0  0  0  0  0  0  0  0  0  0  0
    2.5650    0.6717   -9.9282 C   0  0  0  0  0  0  0  0  0  0  0  0
    2.7709    2.0220   -9.2613 C   0  0  0  0  0  0  0  0  0  0  0  0
    3.5384    1.8339   -7.9628 C   0  0  0  0  0  0  0  0  0  0  0  0
    4.8896    1.2040   -8.2596 C   0  0  0  0  0  0  0  0  0  0  0  0
    5.9585    1.8165   -7.9474 O   0  0  0  0  0  0  0  0  0  0  0  0
    4.9575   -0.0687   -8.8856 O   0  0  0  0  0  0  0  0  0  0  0  0
    5.2324   -0.4281  -10.4428 C   0  0  0  0  0  0  0  0  0  0  0  0
    0.4698    2.3473   -9.1259 C   0  0  0  0  0  0  0  0  0  0  0  0
   -0.3709    3.7199   -8.4818 C   0  0  0  0  0  0  0  0  0  0  0  0
    0.1565    4.9912   -7.8367 C   0  0  0  0  0  0  0  0  0  0  0  0
    1.9686    2.1029   -9.1901 C   0  0  0  0  0  0  0  0  0  0  0  0
    2.6266    3.2018  -10.0086 C   0  0  0  0  0  0  0  0  0  0  0  0
    2.3603    4.5484   -9.3558 C   0  0  0  0  0  0  0  0  0  0  0  0
    3.3319    5.2684   -8.9650 O   0  0  0  0  0  0  0  0  0  0  0  0
    1.0258    5.0019   -9.1825 O   0  0  0  0  0  0  0  0  0  0  0  0
   -4.9974   -0.4368   -6.7407 C   0  0  0  0  0  0  0  0  0  0  0  0
   -6.1544   -1.1871   -6.1014 C   0  0  0  0  0  0  0  0  0  0  0  0
   -6.6051    1.0814   -7.8684 C   0  0  0  0  0  0  0  0  0  0  0  0
   -3.4349    4.9581   -8.7128 H   0  0  0  0  0  0  0  0  0  0  0  0
   -0.4447    1.1464   -9.7536 H   0  0  0  0  0  0  0  0  0  0  0  0
   -7.0689    4.3881    0.2532 H   0  0  0  0  0  0  0  0  0  0  0  0
   -3.8512    1.2724   -4.9158 H   0  0  0  0  0  0  0  0  0  0  0  0
   -3.7253    4.2138    0.2547 H   0  0  0  0  0  0  0  0  0  0  0  0
   -4.2623    2.6629    0.8542 H   0  0  0  0  0  0  0  0  0  0  0  0
   -2.7861    2.7774   -0.0734 H   0  0  0  0  0  0  0  0  0  0  0  0
   -2.5797    1.0716   -1.7597 H   0  0  0  0  0  0  0  0  0  0  0  0
   -2.5997    1.3987   -3.4760 H   0  0  0  0  0  0  0  0  0  0  0  0
   -1.8918    3.3836   -1.3271 H   0  0  0  0  0  0  0  0  0  0  0  0
   -0.7531    2.5820   -2.3826 H   0  0  0  0  0  0  0  0  0  0  0  0
   -1.9118    3.7107   -3.0434 H   0  0  0  0  0  0  0  0  0  0  0  0
    3.3268    2.6614   -9.9148 H   0  0  0  0  0  0  0  0  0  0  0  0
    1.8198    2.4654   -9.0524 H   0  0  0  0  0  0  0  0  0  0  0  0
    3.6834    2.7844   -7.4934 H   0  0  0  0  0  0  0  0  0  0  0  0
    2.9826    1.1945   -7.3094 H   0  0  0  0  0  0  0  0  0  0  0  0
    5.8464   -0.4831   -9.0808 H   0  0  0  0  0  0  0  0  0  0  0  0
    5.5688    0.4260  -10.9925 H   0  0  0  0  0  0  0  0  0  0  0  0
    5.5528   -0.3462   -9.4252 H   0  0  0  0  0  0  0  0  0  0  0  0
    5.6439   -1.3158  -10.8759 H   0  0  0  0  0  0  0  0  0  0  0  0
    0.7240    4.7400   -6.9651 H   0  0  0  0  0  0  0  0  0  0  0  0
    0.7821    5.5110   -8.5320 H   0  0  0  0  0  0  0  0  0  0  0  0
   -0.6653    5.6176   -7.5590 H   0  0  0  0  0  0  0  0  0  0  0  0
    2.3731    2.1053   -8.1995 H   0  0  0  0  0  0  0  0  0  0  0  0
    2.1561    1.1550   -9.6497 H   0  0  0  0  0  0  0  0  0  0  0  0
    3.6817    3.0298  -10.0538 H   0  0  0  0  0  0  0  0  0  0  0  0
    2.2221    3.1995  -10.9992 H   0  0  0  0  0  0  0  0  0  0  0  0
    0.8506    5.8878   -8.7530 H   0  0  0  0  0  0  0  0  0  0  0  0
   -4.7592   -0.8844   -7.6829 H   0  0  0  0  0  0  0  0  0  0  0  0
   -4.1435   -0.4832   -6.0976 H   0  0  0  0  0  0  0  0  0  0  0  0
   -7.0084   -1.1407   -6.7444 H   0  0  0  0  0  0  0  0  0  0  0  0
   -5.8767   -2.2094   -5.9506 H   0  0  0  0  0  0  0  0  0  0  0  0
   -6.3927   -0.7395   -5.1592 H   0  0  0  0  0  0  0  0  0  0  0  0
   -7.4196    0.5532   -7.4184 H   0  0  0  0  0  0  0  0  0  0  0  0
   -6.8828    2.1036   -8.0192 H   0  0  0  0  0  0  0  0  0  0  0  0
   -6.3668    0.6338   -8.8106 H   0  0  0  0  0  0  0  0  0  0  0  0
  1  2  1  0  0  0  0
  1 10  1  0  0  0  0
  1 14  1  0  0  0  0
  1 18  1  0  0  0  0
  2  3  1  0  0  0  0
  2  7  1  0  0  0  0
  3  4  1  0  0  0  0
  3 20  2  0  0  0  0
  4  5  1  0  0  0  0
  4 42  1  0  0  0  0
  4 44  1  0  0  0  0
  5  6  2  0  0  0  0
  5  7  1  0  0  0  0
  7  8  2  0  0  0  0
  8  9  1  0  0  0  0
  8 45  1  0  0  0  0
  9 10  1  0  0  0  0
  9 35  2  0  0  0  0
 10 11  1  0  0  0  0
 11 12  1  0  0  0  0
 11 34  2  0  0  0  0
 12 13  2  0  0  0  0
 12 46  1  0  0  0  0
 13 14  1  0  0  0  0
 13 27  1  0  0  0  0
 14 15  1  0  0  0  0
 15 16  2  0  0  0  0
 15 26  1  0  0  0  0
 16 17  1  0  0  0  0
 16 47  1  0  0  0  0
 17 18  1  0  0  0  0
 17 22  2  0  0  0  0
 18 19  1  0  0  0  0
 19 20  1  0  0  0  0
 19 21  2  0  0  0  0
 20 48  1  0  0  0  0
 21 22  1  0  0  0  0
 21 24  1  0  0  0  0
 22 23  1  0  0  0  0
 23 49  1  0  0  0  0
 23 50  1  0  0  0  0
 23 51  1  0  0  0  0
 24 25  1  0  0  0  0
 24 52  1  0  0  0  0
 24 53  1  0  0  0  0
 25 54  1  0  0  0  0
 25 55  1  0  0  0  0
 25 56  1  0  0  0  0
 26 27  2  0  0  0  0
 26 33  1  0  0  0  0
 27 28  1  0  0  0  0
 28 29  1  0  0  0  0
 28 57  1  0  0  0  0
 28 58  1  0  0  0  0
 29 30  1  0  0  0  0
 29 59  1  0  0  0  0
 29 60  1  0  0  0  0
 30 31  2  0  0  0  0
 30 32  1  0  0  0  0
 32 61  1  0  0  0  0
 33 62  1  0  0  0  0
 33 63  1  0  0  0  0
 33 64  1  0  0  0  0
 34 35  1  0  0  0  0
 34 37  1  0  0  0  0
 35 36  1  0  0  0  0
 36 65  1  0  0  0  0
 36 66  1  0  0  0  0
 36 67  1  0  0  0  0
 37 38  1  0  0  0  0
 37 68  1  0  0  0  0
 37 69  1  0  0  0  0
 38 39  1  0  0  0  0
 38 70  1  0  0  0  0
 38 71  1  0  0  0  0
 39 40  2  0  0  0  0
 39 41  1  0  0  0  0
 41 72  1  0  0  0  0
 42 43  1  0  0  0  0
 42 73  1  0  0  0  0
 42 74  1  0  0  0  0
 43 75  1  0  0  0  0
 43 76  1  0  0  0  0
 43 77  1  0  0  0  0
 44 78  1  0  0  0  0
 44 79  1  0  0  0  0
 44 80  1  0  0  0  0
M  END
>  <DRUGBANK_ID>
DB04384

>  <SECONDARY_ACCESSION_NUMBERS>
EXPT01749

>  <COMMON_NAME>
Fe-Mesopone

$$$$
