
 OpenBabel10282417223D

 50 51  0  0  1  0  0  0  0  0999 V2000
    3.2724    2.4836   -2.2010 C   0  0  0  0  0  0  0  0  0  0  0  0
    3.3011    2.9480   -0.6757 C   0  0  0  0  0  0  0  0  0  0  0  0
    4.4696    3.3000    0.0423 C   0  0  0  0  0  0  0  0  0  0  0  0
    4.4953    3.6746    1.3794 C   0  0  0  0  0  0  0  0  0  0  0  0
    3.3199    3.6770    2.0918 C   0  0  0  0  0  0  0  0  0  0  0  0
    2.1305    3.3443    1.4463 C   0  0  0  0  0  0  0  0  0  0  0  0
    2.1134    2.9898    0.0844 C   0  0  0  0  0  0  0  0  0  0  0  0
    4.6138    2.4249   -3.0898 C   0  0  0  0  0  0  0  0  0  0  0  0
    4.6523    1.6722   -4.2818 C   0  0  0  0  0  0  0  0  0  0  0  0
    5.8785    1.2373   -4.8220 C   0  0  0  0  0  0  0  0  0  0  0  0
    7.0828    1.6936   -4.3033 C   0  0  0  0  0  0  0  0  0  0  0  0
    7.0549    2.6541   -3.3107 C   0  0  0  0  0  0  0  0  0  0  0  0
    5.8332    3.0419   -2.7502 C   0  0  0  0  0  0  0  0  0  0  0  0
    2.4042    3.5260   -2.9892 C   0  0  0  0  0  0  0  0  0  0  0  0
    1.3616    3.2346   -3.5450 O   0  0  0  0  0  0  0  0  0  0  0  0
    3.0044    4.9329   -3.1328 C   0  0  0  0  0  0  0  0  0  0  0  0
    3.1747    5.6538   -1.8139 C   0  0  0  0  0  0  0  0  0  0  0  0
    2.5108    1.0540   -2.1930 C   0  0  0  0  0  0  0  0  0  0  0  0
    3.0054   -0.1639   -1.2796 C   0  0  2  0  0  0  0  0  0  0  0  0
    2.4011   -0.1147    0.1296 C   0  0  0  0  0  0  0  0  0  0  0  0
    4.4496   -0.5372   -1.1676 N   0  0  0  0  0  0  0  0  0  0  0  0
    4.9848   -0.8097   -2.4903 C   0  0  0  0  0  0  0  0  0  0  0  0
    5.2214    0.5217   -0.5439 C   0  0  0  0  0  0  0  0  0  0  0  0
    5.4631    3.2188   -0.3621 H   0  0  0  0  0  0  0  0  0  0  0  0
    5.4528    3.9111    1.8368 H   0  0  0  0  0  0  0  0  0  0  0  0
    3.3456    3.9020    3.1520 H   0  0  0  0  0  0  0  0  0  0  0  0
    1.2078    3.3244    2.0186 H   0  0  0  0  0  0  0  0  0  0  0  0
    1.1625    2.6560   -0.3307 H   0  0  0  0  0  0  0  0  0  0  0  0
    3.7502    1.2149   -4.6885 H   0  0  0  0  0  0  0  0  0  0  0  0
    5.8833    0.4387   -5.5618 H   0  0  0  0  0  0  0  0  0  0  0  0
    8.0310    1.3035   -4.6610 H   0  0  0  0  0  0  0  0  0  0  0  0
    7.9794    3.0725   -2.9198 H   0  0  0  0  0  0  0  0  0  0  0  0
    5.9124    3.8063   -1.9938 H   0  0  0  0  0  0  0  0  0  0  0  0
    3.9670    4.8618   -3.6468 H   0  0  0  0  0  0  0  0  0  0  0  0
    2.3481    5.5120   -3.7853 H   0  0  0  0  0  0  0  0  0  0  0  0
    3.9810    5.2169   -1.2334 H   0  0  0  0  0  0  0  0  0  0  0  0
    3.4915    6.6860   -1.9481 H   0  0  0  0  0  0  0  0  0  0  0  0
    2.2553    5.6167   -1.2216 H   0  0  0  0  0  0  0  0  0  0  0  0
    1.4552    1.2215   -1.9224 H   0  0  0  0  0  0  0  0  0  0  0  0
    2.3986    0.6779   -3.2195 H   0  0  0  0  0  0  0  0  0  0  0  0
    2.5295   -1.0472   -1.7356 H   0  0  0  0  0  0  0  0  0  0  0  0
    2.8476    0.6632    0.7458 H   0  0  0  0  0  0  0  0  0  0  0  0
    1.3223    0.0629    0.0921 H   0  0  0  0  0  0  0  0  0  0  0  0
    2.5759   -1.0537    0.6622 H   0  0  0  0  0  0  0  0  0  0  0  0
    4.4867   -0.1671   -3.1822 H   0  0  0  0  0  0  0  0  0  0  0  0
    6.0640   -0.6363   -2.5721 H   0  0  0  0  0  0  0  0  0  0  0  0
    4.7376   -1.7983   -2.8703 H   0  0  0  0  0  0  0  0  0  0  0  0
    5.0150    1.3837   -1.1210 H   0  0  0  0  0  0  0  0  0  0  0  0
    4.9374    0.7292    0.4903 H   0  0  0  0  0  0  0  0  0  0  0  0
    6.3114    0.4792   -0.6024 H   0  0  0  0  0  0  0  0  0  0  0  0
  1  2  1  0  0  0  0
  1  8  1  0  0  0  0
  1 14  1  0  0  0  0
  1 18  1  0  0  0  0
  2  3  1  0  0  0  0
  2  7  2  0  0  0  0
  3  4  2  0  0  0  0
  3 24  1  0  0  0  0
  4  5  1  0  0  0  0
  4 25  1  0  0  0  0
  5 26  1  0  0  0  0
  6  5  2  0  0  0  0
  6 27  1  0  0  0  0
  7  6  1  0  0  0  0
  7 28  1  0  0  0  0
  8  9  1  0  0  0  0
  8 13  2  0  0  0  0
  9 10  2  0  0  0  0
  9 29  1  0  0  0  0
 10 11  1  0  0  0  0
 10 30  1  0  0  0  0
 11 31  1  0  0  0  0
 12 11  2  0  0  0  0
 12 32  1  0  0  0  0
 13 12  1  0  0  0  0
 13 33  1  0  0  0  0
 14 15  2  0  0  0  0
 14 16  1  0  0  0  0
 16 17  1  0  0  0  0
 16 34  1  0  0  0  0
 16 35  1  0  0  0  0
 17 36  1  0  0  0  0
 17 37  1  0  0  0  0
 17 38  1  0  0  0  0
 18 39  1  0  0  0  0
 18 40  1  0  0  0  0
 19 21  1  0  0  0  0
 19 41  1  6  0  0  0
 19 20  1  0  0  0  0
 19 18  1  0  0  0  0
 20 42  1  0  0  0  0
 20 43  1  0  0  0  0
 20 44  1  0  0  0  0
 21 22  1  0  0  0  0
 21 23  1  0  0  0  0
 22 45  1  0  0  0  0
 22 46  1  0  0  0  0
 22 47  1  0  0  0  0
 23 48  1  0  0  0  0
 23 49  1  0  0  0  0
 23 50  1  0  0  0  0
M  END
>  <DRUGBANK_ID>
DB15198

>  <COMMON_NAME>
Dextromethadone

>  <CAS_NUMBER>
5653-80-5

>  <UNII>
S95RZH8AMH

>  <SYNONYMS>
D-methadone

$$$$
