
 OpenBabel10282417113D

 64 68  0  0  0  0  0  0  0  0999 V2000
   -1.3817   -0.0461    0.0841 C   0  0  0  0  0  0  0  0  0  0  0  0
   -0.2509    0.7132    0.3299 C   0  0  0  0  0  0  0  0  0  0  0  0
    1.0999   -1.2876    0.3889 C   0  0  0  0  0  0  0  0  0  0  0  0
   -0.0720   -2.0471    0.1451 C   0  0  0  0  0  0  0  0  0  0  0  0
   -1.3116   -1.4309    0.0433 C   0  0  0  0  0  0  0  0  0  0  0  0
    0.9565    0.0938    0.6280 C   0  0  0  0  0  0  0  0  0  0  0  0
    3.8450   -7.1312    0.2833 C   0  0  0  0  0  0  0  0  0  0  0  0
    4.1782   -6.3910   -0.8203 C   0  0  0  0  0  0  0  0  0  0  0  0
    3.7411   -8.4877    0.0503 C   0  0  0  0  0  0  0  0  0  0  0  0
    3.7358   -8.9676   -1.2928 C   0  0  0  0  0  0  0  0  0  0  0  0
    3.9123   -6.7826   -2.1340 C   0  0  0  0  0  0  0  0  0  0  0  0
    3.6975   -8.1124   -2.4118 C   0  0  0  0  0  0  0  0  0  0  0  0
    4.3292   -8.2088   -4.8640 C   0  0  0  0  0  0  0  0  0  0  0  0
    2.3682   -9.4518   -3.9882 C   0  0  0  0  0  0  0  0  0  0  0  0
    1.5165   -8.8809   -5.1439 C   0  0  0  0  0  0  0  0  0  0  0  0
    3.4678   -7.7112   -6.0553 C   0  0  0  0  0  0  0  0  0  0  0  0
    3.4832   -8.5487   -3.6973 N   0  0  0  0  0  0  0  0  0  0  0  0
    2.3380   -8.6231   -6.3346 N   0  0  0  0  0  0  0  0  0  0  0  0
    1.0003  -10.0922   -7.8722 C   0  0  0  0  0  0  0  0  0  0  0  0
    2.1559   -9.1574   -7.5923 C   0  0  0  0  0  0  0  0  0  0  0  0
    2.9363   -8.8942   -8.5323 O   0  0  0  0  0  0  0  0  0  0  0  0
    3.8666   -6.5419    1.5150 O   0  0  0  0  0  0  0  0  0  0  0  0
    2.7581   -4.1011   -0.5937 C   0  0  0  0  0  0  0  0  0  0  0  0
    3.0702   -5.3200    1.7175 C   0  0  0  0  0  0  0  0  0  0  0  0
    3.3019   -4.0359    0.8343 C   0  0  3  0  0  0  0  0  0  0  0  0
    2.2111   -2.8566   -0.9443 O   0  0  0  0  0  0  0  0  0  0  0  0
    2.6676   -2.8396    1.3347 O   0  0  0  0  0  0  0  0  0  0  0  0
    2.4195   -1.9990    0.1788 C   0  0  3  0  0  0  0  0  0  0  0  0
   -2.8817    0.7587   -0.1090 Cl  0  0  0  0  0  0  0  0  0  0  0  0
    2.1967    1.2118    1.1029 Cl  0  0  0  0  0  0  0  0  0  0  0  0
    3.6243   -1.1243   -0.2397 C   0  0  0  0  0  0  0  0  0  0  0  0
    2.3887    0.2626   -2.0336 C   0  0  0  0  0  0  0  0  0  0  0  0
    2.7362    0.6871   -3.2843 C   0  0  0  0  0  0  0  0  0  0  0  0
    4.3778   -0.4391   -2.5364 C   0  0  0  0  0  0  0  0  0  0  0  0
    3.4565   -0.4214   -1.5205 N   0  0  0  0  0  0  0  0  0  0  0  0
    3.9760    0.2320   -3.5961 N   0  0  0  0  0  0  0  0  0  0  0  0
   -0.2826    1.7969    0.2501 H   0  0  0  0  0  0  0  0  0  0  0  0
   -0.0096   -3.1255   -0.0197 H   0  0  0  0  0  0  0  0  0  0  0  0
   -2.2017   -2.0323   -0.1061 H   0  0  0  0  0  0  0  0  0  0  0  0
    4.6835   -5.4605   -0.6326 H   0  0  0  0  0  0  0  0  0  0  0  0
    3.7303   -9.1943    0.8760 H   0  0  0  0  0  0  0  0  0  0  0  0
    3.8168  -10.0373   -1.4672 H   0  0  0  0  0  0  0  0  0  0  0  0
    3.8865   -6.0284   -2.9163 H   0  0  0  0  0  0  0  0  0  0  0  0
    5.1088   -7.4769   -4.6243 H   0  0  0  0  0  0  0  0  0  0  0  0
    4.8399   -9.1298   -5.1756 H   0  0  0  0  0  0  0  0  0  0  0  0
    2.7796  -10.4236   -4.2813 H   0  0  0  0  0  0  0  0  0  0  0  0
    1.7218   -9.5967   -3.1170 H   0  0  0  0  0  0  0  0  0  0  0  0
    1.0815   -7.9148   -4.8573 H   0  0  0  0  0  0  0  0  0  0  0  0
    0.6908   -9.5580   -5.3376 H   0  0  0  0  0  0  0  0  0  0  0  0
    3.0302   -6.7378   -5.8014 H   0  0  0  0  0  0  0  0  0  0  0  0
    4.0939   -7.5660   -6.9429 H   0  0  0  0  0  0  0  0  0  0  0  0
    0.3739   -9.6648   -8.6620 H   0  0  0  0  0  0  0  0  0  0  0  0
    1.3934  -11.0549   -8.2152 H   0  0  0  0  0  0  0  0  0  0  0  0
    0.3517  -10.2951   -7.0258 H   0  0  0  0  0  0  0  0  0  0  0  0
    1.9862   -4.8615   -0.7274 H   0  0  0  0  0  0  0  0  0  0  0  0
    3.5437   -4.2035   -1.3404 H   0  0  0  0  0  0  0  0  0  0  0  0
    3.2965   -5.0230    2.7545 H   0  0  0  0  0  0  0  0  0  0  0  0
    2.0088   -5.5956    1.7476 H   0  0  0  0  0  0  0  0  0  0  0  0
    4.3767   -3.8192    0.8510 H   0  0  0  0  0  0  0  0  0  0  0  0
    3.9004   -0.4325    0.5546 H   0  0  0  0  0  0  0  0  0  0  0  0
    4.5293   -1.7403   -0.3402 H   0  0  0  0  0  0  0  0  0  0  0  0
    1.4427    0.4370   -1.5710 H   0  0  0  0  0  0  0  0  0  0  0  0
    2.1136    1.2785   -3.9442 H   0  0  0  0  0  0  0  0  0  0  0  0
    5.3183   -0.9612   -2.4567 H   0  0  0  0  0  0  0  0  0  0  0  0
  1 29  1  0  0  0  0
  2  1  1  0  0  0  0
  2  6  2  0  0  0  0
  2 37  1  0  0  0  0
  3  4  2  0  0  0  0
  4  5  1  0  0  0  0
  4 38  1  0  0  0  0
  5  1  2  0  0  0  0
  5 39  1  0  0  0  0
  6  3  1  0  0  0  0
  6 30  1  0  0  0  0
  7 22  1  0  0  0  0
  7  9  2  0  0  0  0
  8  7  1  0  0  0  0
  8 11  2  0  0  0  0
  8 40  1  0  0  0  0
  9 10  1  0  0  0  0
  9 41  1  0  0  0  0
 10 12  2  0  0  0  0
 10 42  1  0  0  0  0
 11 43  1  0  0  0  0
 12 11  1  0  0  0  0
 12 17  1  0  0  0  0
 13 17  1  0  0  0  0
 13 16  1  0  0  0  0
 13 44  1  0  0  0  0
 13 45  1  0  0  0  0
 14 15  1  0  0  0  0
 14 46  1  0  0  0  0
 14 47  1  0  0  0  0
 15 18  1  0  0  0  0
 15 48  1  0  0  0  0
 15 49  1  0  0  0  0
 16 50  1  0  0  0  0
 16 51  1  0  0  0  0
 17 14  1  0  0  0  0
 18 16  1  0  0  0  0
 18 20  1  0  0  0  0
 19 52  1  0  0  0  0
 19 53  1  0  0  0  0
 19 54  1  0  0  0  0
 20 19  1  0  0  0  0
 20 21  2  0  0  0  0
 22 24  1  0  0  0  0
 23 55  1  0  0  0  0
 23 56  1  0  0  0  0
 24 57  1  0  0  0  0
 24 58  1  0  0  0  0
 25 23  1  0  0  0  0
 25 24  1  0  0  0  0
 25 59  1  0  0  0  0
 26 23  1  0  0  0  0
 26 28  1  0  0  0  0
 27 25  1  0  0  0  0
 28  3  1  0  0  0  0
 28 27  1  0  0  0  0
 28 31  1  0  0  0  0
 31 35  1  0  0  0  0
 31 60  1  0  0  0  0
 31 61  1  0  0  0  0
 32 35  1  0  0  0  0
 32 33  2  0  0  0  0
 32 62  1  0  0  0  0
 33 36  1  0  0  0  0
 33 63  1  0  0  0  0
 34 35  1  0  0  0  0
 34 64  1  0  0  0  0
 36 34  2  0  0  0  0
M  END
>  <DRUGBANK_ID>
DB01026

>  <SECONDARY_ACCESSION_NUMBERS>
APRD00401

>  <COMMON_NAME>
Ketoconazole

>  <CAS_NUMBER>
65277-42-1

>  <UNII>
R9400W927I

>  <SYNONYMS>
Ketoconazol; Ketoconazole; Ketoconazolum; Ketozole

$$$$
