M05
 OpenBabel10282417173D

 45 48  0  0  0  0  0  0  0  0999 V2000
   -1.7691   -0.0319    0.4063 N   0  0  0  0  0  0  0  0  0  0  0  0
   -1.2747    1.2335   -0.1326 C   0  0  0  0  0  0  0  0  0  0  0  0
    1.1055   -0.0705   -1.9712 C   0  0  0  0  0  0  0  0  0  0  0  0
    0.9728    0.0088   -0.4203 C   0  0  0  0  0  0  0  0  0  0  0  0
    2.3761    0.0200    0.1728 N   0  3  0  0  0  0  0  0  0  0  0  0
   -1.1980   -1.2305   -0.1439 C   0  0  0  0  0  0  0  0  0  0  0  0
    1.7926   -1.3285   -2.4755 C   0  0  0  0  0  0  0  0  0  0  0  0
    1.2238   -2.5964   -2.2681 C   0  0  0  0  0  0  0  0  0  0  0  0
    1.9208   -3.7673   -2.5443 C   0  0  0  0  0  0  0  0  0  0  0  0
    3.1358   -3.6880   -3.2018 C   0  0  0  0  0  0  0  0  0  0  0  0
    3.9552   -5.1337   -3.6280 Cl  0  0  0  0  0  0  0  0  0  0  0  0
    3.6647   -2.4436   -3.5423 C   0  0  0  0  0  0  0  0  0  0  0  0
    3.0124   -1.2647   -3.1564 C   0  0  0  0  0  0  0  0  0  0  0  0
   -2.3868   -0.0601    1.6494 C   0  0  0  0  0  0  0  0  0  0  0  0
   -3.5647    0.6108    1.7351 N   0  0  0  0  0  0  0  0  0  0  0  0
   -4.2674    0.5835    2.8839 C   0  0  0  0  0  0  0  0  0  0  0  0
   -3.9089    0.0445    4.0541 N   0  0  0  0  0  0  0  0  0  0  0  0
   -2.7329   -0.5875    3.9616 C   0  0  0  0  0  0  0  0  0  0  0  0
   -2.1292   -1.2005    5.0284 N   0  0  0  0  0  0  0  0  0  0  0  0
   -0.9761   -1.8028    4.6158 C   0  0  0  0  0  0  0  0  0  0  0  0
   -0.8704   -1.5854    3.2621 C   0  0  0  0  0  0  0  0  0  0  0  0
    0.2564    1.3013    0.0612 C   0  0  0  0  0  0  0  0  0  0  0  0
    0.2788   -1.1958    0.2126 C   0  0  0  0  0  0  0  0  0  0  0  0
   -1.9445   -0.7385    2.8286 C   0  0  0  0  0  0  0  0  0  0  0  0
   -1.7584    2.1075    0.3182 H   0  0  0  0  0  0  0  0  0  0  0  0
   -1.4944    1.2751   -1.2072 H   0  0  0  0  0  0  0  0  0  0  0  0
    0.1256    0.0010   -2.4548 H   0  0  0  0  0  0  0  0  0  0  0  0
    1.6665    0.8110   -2.3127 H   0  0  0  0  0  0  0  0  0  0  0  0
    2.3527    0.0366    1.2035 H   0  0  0  0  0  0  0  0  0  0  0  0
    2.8960   -0.8299   -0.0964 H   0  0  0  0  0  0  0  0  0  0  0  0
    2.9309    0.8287   -0.1328 H   0  0  0  0  0  0  0  0  0  0  0  0
   -1.7031   -2.1378    0.2027 H   0  0  0  0  0  0  0  0  0  0  0  0
   -1.3449   -1.2117   -1.2327 H   0  0  0  0  0  0  0  0  0  0  0  0
    0.2228   -2.7211   -1.8675 H   0  0  0  0  0  0  0  0  0  0  0  0
    1.4908   -4.7280   -2.2682 H   0  0  0  0  0  0  0  0  0  0  0  0
    4.5850   -2.3901   -4.1193 H   0  0  0  0  0  0  0  0  0  0  0  0
    3.4586   -0.3098   -3.4296 H   0  0  0  0  0  0  0  0  0  0  0  0
   -5.2464    1.0538    2.8599 H   0  0  0  0  0  0  0  0  0  0  0  0
   -2.5069   -1.2101    5.9616 H   0  0  0  0  0  0  0  0  0  0  0  0
   -0.3478   -2.3600    5.3005 H   0  0  0  0  0  0  0  0  0  0  0  0
   -0.0646   -2.0317    2.7095 H   0  0  0  0  0  0  0  0  0  0  0  0
    0.4491    1.4460    1.1343 H   0  0  0  0  0  0  0  0  0  0  0  0
    0.6645    2.1811   -0.4492 H   0  0  0  0  0  0  0  0  0  0  0  0
    0.7633   -2.1567    0.0456 H   0  0  0  0  0  0  0  0  0  0  0  0
    0.4054   -1.0323    1.2719 H   0  0  0  0  0  0  0  0  0  0  0  0
  1  2  1  0  0  0  0
  1  6  1  0  0  0  0
  1 14  1  0  0  0  0
  2 22  1  0  0  0  0
  2 25  1  0  0  0  0
  2 26  1  0  0  0  0
  3  4  1  0  0  0  0
  3  7  1  0  0  0  0
  3 27  1  0  0  0  0
  3 28  1  0  0  0  0
  4  5  1  0  0  0  0
  4 22  1  0  0  0  0
  4 23  1  0  0  0  0
  5 29  1  0  0  0  0
  5 30  1  0  0  0  0
  5 31  1  0  0  0  0
  6 23  1  0  0  0  0
  6 32  1  0  0  0  0
  6 33  1  0  0  0  0
  7  8  1  0  0  0  0
  7 13  2  0  0  0  0
  8  9  2  0  0  0  0
  8 34  1  0  0  0  0
  9 10  1  0  0  0  0
  9 35  1  0  0  0  0
 10 11  1  0  0  0  0
 10 12  2  0  0  0  0
 12 13  1  0  0  0  0
 12 36  1  0  0  0  0
 13 37  1  0  0  0  0
 14 15  1  0  0  0  0
 14 24  2  0  0  0  0
 15 16  2  0  0  0  0
 16 17  1  0  0  0  0
 16 38  1  0  0  0  0
 17 18  2  0  0  0  0
 18 19  1  0  0  0  0
 18 24  1  0  0  0  0
 19 20  1  0  0  0  0
 19 39  1  0  0  0  0
 20 21  2  0  0  0  0
 20 40  1  0  0  0  0
 21 24  1  0  0  0  0
 21 41  1  0  0  0  0
 22 42  1  0  0  0  0
 22 43  1  0  0  0  0
 23 44  1  0  0  0  0
 23 45  1  0  0  0  0
M  CHG  1   5   1
M  END
>  <DRUGBANK_ID>
DB08150

>  <COMMON_NAME>
4-(4-chlorobenzyl)-1-(7H-pyrrolo[2,3-d]pyrimidin-4-yl)piperidin-4-aminium

$$$$
