
 OpenBabel10282417163D

 23 23  0  0  0  0  0  0  0  0999 V2000
    1.4008   -0.2457    0.0084 C   0  0  0  0  0  0  0  0  0  0  0  0
    0.4449   -1.2883    0.0427 C   0  0  0  0  0  0  0  0  0  0  0  0
   -0.9343   -1.0087   -0.0128 C   0  0  0  0  0  0  0  0  0  0  0  0
   -1.2775    0.3387   -0.0932 C   0  0  0  0  0  0  0  0  0  0  0  0
   -0.3611    1.3698    0.0069 C   0  0  0  0  0  0  0  0  0  0  0  0
    0.9930    1.0927   -0.0408 C   0  0  0  0  0  0  0  0  0  0  0  0
    1.9168    2.2525   -0.2701 C   0  0  0  0  0  0  0  0  0  0  0  0
    1.5581    2.9053   -1.4901 O   0  0  0  0  0  0  0  0  0  0  0  0
   -1.9045   -2.0387    0.0066 N   0  0  0  0  0  0  0  0  0  0  0  0
   -3.2705   -1.9919    0.0163 C   0  0  0  0  0  0  0  0  0  0  0  0
   -4.0322   -3.0405    0.1096 N   0  0  0  0  0  0  0  0  0  0  0  0
   -3.9448   -0.8304   -0.1071 N   0  0  0  0  0  0  0  0  0  0  0  0
    2.4620   -0.4885    0.0007 H   0  0  0  0  0  0  0  0  0  0  0  0
    0.8122   -2.3140    0.0640 H   0  0  0  0  0  0  0  0  0  0  0  0
   -2.2691    0.6756   -0.3325 H   0  0  0  0  0  0  0  0  0  0  0  0
   -0.7287    2.3929    0.0140 H   0  0  0  0  0  0  0  0  0  0  0  0
    1.8222    2.9804    0.5413 H   0  0  0  0  0  0  0  0  0  0  0  0
    2.9568    1.9365   -0.3566 H   0  0  0  0  0  0  0  0  0  0  0  0
    1.4809    2.2157   -2.1732 H   0  0  0  0  0  0  0  0  0  0  0  0
   -1.5031   -2.9642    0.0778 H   0  0  0  0  0  0  0  0  0  0  0  0
   -3.4767   -3.8894    0.1686 H   0  0  0  0  0  0  0  0  0  0  0  0
   -3.6381   -0.0812    0.4949 H   0  0  0  0  0  0  0  0  0  0  0  0
   -4.9388   -0.9732    0.0312 H   0  0  0  0  0  0  0  0  0  0  0  0
  1  2  1  0  0  0  0
  1  6  2  0  0  0  0
  1 13  1  0  0  0  0
  2  3  2  0  0  0  0
  2 14  1  0  0  0  0
  3  4  1  0  0  0  0
  3  9  1  0  0  0  0
  4  5  2  0  0  0  0
  4 15  1  0  0  0  0
  5  6  1  0  0  0  0
  5 16  1  0  0  0  0
  6  7  1  0  0  0  0
  7  8  1  0  0  0  0
  7 17  1  0  0  0  0
  7 18  1  0  0  0  0
  8 19  1  0  0  0  0
  9 10  1  0  0  0  0
  9 20  1  0  0  0  0
 10 11  2  0  0  0  0
 10 12  1  0  0  0  0
 11 21  1  0  0  0  0
 12 22  1  0  0  0  0
 12 23  1  0  0  0  0
M  END
>  <DRUGBANK_ID>
DB06900

>  <COMMON_NAME>
1-[4-(hydroxymethyl)phenyl]guanidine

$$$$
