M1C
 OpenBabel10282417123D

 36 36  0  0  0  0  0  0  0  0999 V2000
   -0.2670    1.0294   -0.1736 C   0  0  0  0  0  0  0  0  0  0  0  0
    0.5942   -0.1772   -0.2195 C   0  0  0  0  0  0  0  0  0  0  0  0
   -0.8987   -0.3308   -0.3083 C   0  0  0  0  0  0  0  0  0  0  0  0
   -1.0948   -3.6996    3.2190 N   0  0  0  0  0  0  0  0  0  0  0  0
   -0.0983   -3.0871    2.2948 C   0  0  2  0  0  0  0  0  0  0  0  0
   -0.5465   -3.2518    0.7905 C   0  0  0  0  0  0  0  0  0  0  0  0
   -1.8439   -2.4257    0.5300 C   0  0  0  0  0  0  0  0  0  0  0  0
   -1.7179   -0.9569    0.7460 N   0  0  0  0  0  0  0  0  0  0  0  0
   -0.7792   -4.6287    0.5158 O   0  0  0  0  0  0  0  0  0  0  0  0
    0.4013   -2.8354   -0.1653 O   0  0  0  0  0  0  0  0  0  0  0  0
    1.2915   -3.6800    2.6269 C   0  0  0  0  0  0  0  0  0  0  0  0
    2.4973   -2.9774    1.9808 C   0  0  0  0  0  0  0  0  0  0  0  0
    2.5399   -1.4874    2.2877 C   0  0  0  0  0  0  0  0  0  0  0  0
    2.9024   -1.1614    3.7112 C   0  0  0  0  0  0  0  0  0  0  0  0
   -0.0871   -2.0291    2.5597 H   0  0  0  0  0  0  0  0  0  0  0  0
   -0.2546    1.5546    0.7744 H   0  0  0  0  0  0  0  0  0  0  0  0
   -0.1900    1.6641   -1.0453 H   0  0  0  0  0  0  0  0  0  0  0  0
    1.1603   -0.4566   -1.0994 H   0  0  0  0  0  0  0  0  0  0  0  0
    1.1680   -0.2917    0.6670 H   0  0  0  0  0  0  0  0  0  0  0  0
   -1.2577   -0.5832   -1.3032 H   0  0  0  0  0  0  0  0  0  0  0  0
   -0.8189   -3.4829    4.1806 H   0  0  0  0  0  0  0  0  0  0  0  0
   -1.9900   -3.2144    3.1109 H   0  0  0  0  0  0  0  0  0  0  0  0
   -2.6612   -2.8193    1.1494 H   0  0  0  0  0  0  0  0  0  0  0  0
   -2.1772   -2.6091   -0.4993 H   0  0  0  0  0  0  0  0  0  0  0  0
   -1.3903   -0.7509    1.6862 H   0  0  0  0  0  0  0  0  0  0  0  0
   -1.1720   -4.9860    1.3332 H   0  0  0  0  0  0  0  0  0  0  0  0
    1.0880   -3.5248   -0.2041 H   0  0  0  0  0  0  0  0  0  0  0  0
    1.4416   -3.6263    3.7135 H   0  0  0  0  0  0  0  0  0  0  0  0
    1.3117   -4.7449    2.3721 H   0  0  0  0  0  0  0  0  0  0  0  0
    3.4241   -3.4506    2.3211 H   0  0  0  0  0  0  0  0  0  0  0  0
    2.5091   -3.1180    0.8993 H   0  0  0  0  0  0  0  0  0  0  0  0
    3.2012   -0.9730    1.5804 H   0  0  0  0  0  0  0  0  0  0  0  0
    1.5503   -1.0642    2.1859 H   0  0  0  0  0  0  0  0  0  0  0  0
    3.8747   -1.5789    3.9688 H   0  0  0  0  0  0  0  0  0  0  0  0
    2.9197   -0.0745    3.8360 H   0  0  0  0  0  0  0  0  0  0  0  0
    2.1392   -1.5555    4.3885 H   0  0  0  0  0  0  0  0  0  0  0  0
  1  2  1  0  0  0  0
  1  3  1  0  0  0  0
  1 16  1  0  0  0  0
  1 17  1  0  0  0  0
  2  3  1  0  0  0  0
  2 18  1  0  0  0  0
  2 19  1  0  0  0  0
  3  8  1  0  0  0  0
  3 20  1  0  0  0  0
  4 21  1  0  0  0  0
  4 22  1  0  0  0  0
  5  4  1  0  0  0  0
  5  6  1  0  0  0  0
  5 11  1  0  0  0  0
  5 15  1  1  0  0  0
  6  7  1  0  0  0  0
  6  9  1  0  0  0  0
  6 10  1  0  0  0  0
  7  8  1  0  0  0  0
  7 23  1  0  0  0  0
  7 24  1  0  0  0  0
  8 25  1  0  0  0  0
  9 26  1  0  0  0  0
 10 27  1  0  0  0  0
 11 12  1  0  0  0  0
 11 28  1  0  0  0  0
 11 29  1  0  0  0  0
 12 13  1  0  0  0  0
 12 30  1  0  0  0  0
 12 31  1  0  0  0  0
 13 14  1  0  0  0  0
 13 32  1  0  0  0  0
 13 33  1  0  0  0  0
 14 34  1  0  0  0  0
 14 35  1  0  0  0  0
 14 36  1  0  0  0  0
M  END
>  <DRUGBANK_ID>
DB02408

>  <SECONDARY_ACCESSION_NUMBERS>
EXPT02083

>  <COMMON_NAME>
(3s)-3-Amino-1-(Cyclopropylamino)Heptane-2,2-Diol

$$$$
