AZX
 OpenBabel10282417163D

 49 50  0  0  0  0  0  0  0  0999 V2000
    2.2215    2.5051    0.7016 F   0  0  0  0  0  0  0  0  0  0  0  0
    2.2133    1.5896    1.6924 C   0  0  0  0  0  0  0  0  0  0  0  0
    2.7524    2.1794    2.7726 F   0  0  0  0  0  0  0  0  0  0  0  0
    0.9045    1.3677    2.0188 F   0  0  0  0  0  0  0  0  0  0  0  0
    2.8259    0.2370    1.2731 C   0  0  1  0  0  0  0  0  0  0  0  0
    2.1581   -0.8593    1.9170 O   0  0  0  0  0  0  0  0  0  0  0  0
    2.4218   -0.0307   -0.1816 C   0  0  0  0  0  0  0  0  0  0  0  0
    4.3818    0.2190    1.4473 C   0  0  0  0  0  0  0  0  0  0  0  0
    5.1285    0.0665    0.4706 O   0  0  0  0  0  0  0  0  0  0  0  0
    5.0105    0.4269    2.6599 N   0  0  0  0  0  0  0  0  0  0  0  0
    4.4215    0.5997    3.9245 C   0  0  0  0  0  0  0  0  0  0  0  0
    4.7925    1.7190    4.6801 C   0  0  0  0  0  0  0  0  0  0  0  0
    4.0825    2.0338    5.8422 C   0  0  0  0  0  0  0  0  0  0  0  0
    3.4369   -0.2608    4.4313 C   0  0  0  0  0  0  0  0  0  0  0  0
    3.4222   -1.9476    4.0330 Cl  0  0  0  0  0  0  0  0  0  0  0  0
    2.6318    0.1226    5.4925 C   0  0  0  0  0  0  0  0  0  0  0  0
    2.9757    1.2614    6.2096 C   0  0  0  0  0  0  0  0  0  0  0  0
    2.0421    1.5724    7.6754 S   0  0  0  0  0  0  0  0  0  0  0  0
    0.6832    1.8903    7.2562 O   0  0  0  0  0  0  0  0  0  0  0  0
    2.3047    0.4565    8.5552 O   0  0  0  0  0  0  0  0  0  0  0  0
    2.6518    3.0291    8.4581 C   0  0  0  0  0  0  0  0  0  0  0  0
    3.0330    2.9520    9.7785 C   0  0  0  0  0  0  0  0  0  0  0  0
    3.2745    4.1342   10.4587 C   0  0  0  0  0  0  0  0  0  0  0  0
    2.6277    4.2582    7.7942 C   0  0  0  0  0  0  0  0  0  0  0  0
    2.9973    5.4281    8.4733 C   0  0  0  0  0  0  0  0  0  0  0  0
    3.3305    5.3887    9.8400 C   0  0  0  0  0  0  0  0  0  0  0  0
    3.7474    6.6723   10.5319 C   0  0  0  0  0  0  0  0  0  0  0  0
    3.7697    7.6919    9.8368 O   0  0  0  0  0  0  0  0  0  0  0  0
    4.1319    6.7128   11.8852 N   0  0  0  0  0  0  0  0  0  0  0  0
    4.5567    7.9703   12.4775 C   0  0  0  0  0  0  0  0  0  0  0  0
    4.1418    5.6014   12.8112 C   0  0  0  0  0  0  0  0  0  0  0  0
    1.2966   -0.5516    2.2531 H   0  0  0  0  0  0  0  0  0  0  0  0
    2.4549   -1.1061   -0.3972 H   0  0  0  0  0  0  0  0  0  0  0  0
    1.3784    0.2726   -0.3347 H   0  0  0  0  0  0  0  0  0  0  0  0
    3.0466    0.4908   -0.9091 H   0  0  0  0  0  0  0  0  0  0  0  0
    6.0035    0.6224    2.5658 H   0  0  0  0  0  0  0  0  0  0  0  0
    5.5853    2.3921    4.3577 H   0  0  0  0  0  0  0  0  0  0  0  0
    4.4057    2.8925    6.4218 H   0  0  0  0  0  0  0  0  0  0  0  0
    1.8043   -0.5076    5.8105 H   0  0  0  0  0  0  0  0  0  0  0  0
    3.0875    2.0134   10.3265 H   0  0  0  0  0  0  0  0  0  0  0  0
    3.3594    3.9729   11.5124 H   0  0  0  0  0  0  0  0  0  0  0  0
    2.3256    4.3086    6.7503 H   0  0  0  0  0  0  0  0  0  0  0  0
    2.9836    6.3722    7.9279 H   0  0  0  0  0  0  0  0  0  0  0  0
    3.8849    8.1995   13.3117 H   0  0  0  0  0  0  0  0  0  0  0  0
    5.5713    7.8367   12.8697 H   0  0  0  0  0  0  0  0  0  0  0  0
    4.5529    8.8019   11.7729 H   0  0  0  0  0  0  0  0  0  0  0  0
    3.1116    5.2512   12.9317 H   0  0  0  0  0  0  0  0  0  0  0  0
    4.8233    4.8359   12.4273 H   0  0  0  0  0  0  0  0  0  0  0  0
    4.5043    5.8832   13.8004 H   0  0  0  0  0  0  0  0  0  0  0  0
  1  2  1  0  0  0  0
  2  3  1  0  0  0  0
  2  4  1  0  0  0  0
  5  6  1  1  0  0  0
  5  8  1  0  0  0  0
  5  7  1  0  0  0  0
  5  2  1  0  0  0  0
  6 32  1  0  0  0  0
  7 33  1  0  0  0  0
  7 34  1  0  0  0  0
  7 35  1  0  0  0  0
  8  9  2  0  0  0  0
  8 10  1  0  0  0  0
 10 11  1  0  0  0  0
 10 36  1  0  0  0  0
 11 12  2  0  0  0  0
 11 14  1  0  0  0  0
 12 13  1  0  0  0  0
 12 37  1  0  0  0  0
 13 17  2  0  0  0  0
 13 38  1  0  0  0  0
 14 15  1  0  0  0  0
 14 16  2  0  0  0  0
 16 17  1  0  0  0  0
 16 39  1  0  0  0  0
 17 18  1  0  0  0  0
 18 19  2  0  0  0  0
 18 20  2  0  0  0  0
 18 21  1  0  0  0  0
 21 24  2  0  0  0  0
 21 22  1  0  0  0  0
 22 23  2  0  0  0  0
 22 40  1  0  0  0  0
 23 26  1  0  0  0  0
 23 41  1  0  0  0  0
 24 25  1  0  0  0  0
 24 42  1  0  0  0  0
 25 26  2  0  0  0  0
 25 43  1  0  0  0  0
 26 27  1  0  0  0  0
 27 29  1  0  0  0  0
 27 28  2  0  0  0  0
 29 30  1  0  0  0  0
 29 31  1  0  0  0  0
 30 44  1  0  0  0  0
 30 45  1  0  0  0  0
 30 46  1  0  0  0  0
 31 47  1  0  0  0  0
 31 48  1  0  0  0  0
 31 49  1  0  0  0  0
M  END
>  <DRUGBANK_ID>
DB07403

>  <COMMON_NAME>
4-[(3-CHLORO-4-{[(2R)-3,3,3-TRIFLUORO-2-HYDROXY-2-METHYLPROPANOYL]AMINO}PHENYL)SULFONYL]-N,N-DIMETHYLBENZAMIDE

$$$$
