007
 OpenBabel10282417143D

 30 31  0  0  0  0  0  0  0  0999 V2000
    1.2311   -0.1269    0.2672 C   0  0  0  0  0  0  0  0  0  0  0  0
    0.2977   -1.3101    0.0151 C   0  0  0  0  0  0  0  0  0  0  0  0
    0.4792    1.1187   -0.2556 C   0  0  0  0  0  0  0  0  0  0  0  0
   -1.1135   -0.7427    0.0982 C   0  0  0  0  0  0  0  0  0  0  0  0
   -0.9756    0.7784    0.1446 C   0  0  0  0  0  0  0  0  0  0  0  0
    1.0178    2.4286    0.3497 C   0  0  0  0  0  0  0  0  0  0  0  0
    2.3719    2.7648    0.1700 C   0  0  0  0  0  0  0  0  0  0  0  0
    0.1811    3.3914    0.9431 C   0  0  0  0  0  0  0  0  0  0  0  0
    2.8547    4.0356    0.4884 C   0  0  0  0  0  0  0  0  0  0  0  0
    0.6637    4.6666    1.2551 C   0  0  0  0  0  0  0  0  0  0  0  0
    1.9933    4.9915    1.0195 C   0  0  0  0  0  0  0  0  0  0  0  0
    0.6116    1.2904   -1.8131 C   0  0  0  0  0  0  0  0  0  0  0  0
    0.2284    0.1517   -2.6458 N   0  0  0  0  0  0  0  0  0  0  0  0
    1.4074   -0.0466    1.3481 H   0  0  0  0  0  0  0  0  0  0  0  0
    2.2053   -0.2713   -0.2120 H   0  0  0  0  0  0  0  0  0  0  0  0
    0.4655   -1.7558   -0.9697 H   0  0  0  0  0  0  0  0  0  0  0  0
    0.4609   -2.1232    0.7276 H   0  0  0  0  0  0  0  0  0  0  0  0
   -1.7218   -1.0557   -0.7572 H   0  0  0  0  0  0  0  0  0  0  0  0
   -1.6172   -1.1017    1.0020 H   0  0  0  0  0  0  0  0  0  0  0  0
   -1.7104    1.2766   -0.4988 H   0  0  0  0  0  0  0  0  0  0  0  0
   -1.1958    1.0834    1.1749 H   0  0  0  0  0  0  0  0  0  0  0  0
    3.0606    2.0526   -0.2818 H   0  0  0  0  0  0  0  0  0  0  0  0
   -0.8673    3.1935    1.1408 H   0  0  0  0  0  0  0  0  0  0  0  0
    3.8914    4.2862    0.2885 H   0  0  0  0  0  0  0  0  0  0  0  0
   -0.0172    5.4162    1.6539 H   0  0  0  0  0  0  0  0  0  0  0  0
    2.3596    5.9901    1.2416 H   0  0  0  0  0  0  0  0  0  0  0  0
    0.0137    2.1553   -2.1278 H   0  0  0  0  0  0  0  0  0  0  0  0
    1.6499    1.5266   -2.0769 H   0  0  0  0  0  0  0  0  0  0  0  0
    0.3262    0.4030   -3.6277 H   0  0  0  0  0  0  0  0  0  0  0  0
    0.9051   -0.5960   -2.4991 H   0  0  0  0  0  0  0  0  0  0  0  0
  1  2  1  0  0  0  0
  1  3  1  0  0  0  0
  1 14  1  0  0  0  0
  1 15  1  0  0  0  0
  2  4  1  0  0  0  0
  2 16  1  0  0  0  0
  2 17  1  0  0  0  0
  3  5  1  0  0  0  0
  3  6  1  0  0  0  0
  3 12  1  0  0  0  0
  4  5  1  0  0  0  0
  4 18  1  0  0  0  0
  4 19  1  0  0  0  0
  5 20  1  0  0  0  0
  5 21  1  0  0  0  0
  6  7  1  0  0  0  0
  6  8  2  0  0  0  0
  7  9  2  0  0  0  0
  7 22  1  0  0  0  0
  8 10  1  0  0  0  0
  8 23  1  0  0  0  0
  9 11  1  0  0  0  0
  9 24  1  0  0  0  0
 10 11  2  0  0  0  0
 10 25  1  0  0  0  0
 11 26  1  0  0  0  0
 12 13  1  0  0  0  0
 12 27  1  0  0  0  0
 12 28  1  0  0  0  0
 13 29  1  0  0  0  0
 13 30  1  0  0  0  0
M  END
>  <DRUGBANK_ID>
DB04577

>  <COMMON_NAME>
1-(1-phenylcyclopentyl)methylamine

>  <CAS_NUMBER>
17511-89-6

>  <UNII>
03L0BL8FBI

>  <SYNONYMS>
1-(1-phenylcyclopentyl)methanamine; 1-Phenylcyclopentanemethylamine; C-(1-Phenyl-cyclopentyl)-methylamine

$$$$
