
 OpenBabel10282417183D

  2  1  0  0  0  0  0  0  0  0999 V2000
    1.0175    0.0972    0.0154 Tl  0  0  0  0  0  0  0  0  0  0  0  0
    3.4875    0.0972    0.0154 Cl  0  0  0  0  0  0  0  0  0  0  0  0
  2  1  1  0  0  0  0
M  END
>  <DRUGBANK_ID>
DB09316

>  <COMMON_NAME>
Thallous chloride

>  <CAS_NUMBER>
7791-12-0

>  <UNII>
37CB58V15B

>  <SYNONYMS>
Thallium chloride; thallium monochloride; Thallium(I) chloride

$$$$
