676
 OpenBabel10282417103D

 28 29  0  0  0  0  0  0  0  0999 V2000
    1.1358   -0.0516   -0.0709 O   0  0  0  0  0  0  0  0  0  0  0  0
    3.0483    0.6052    0.9283 O   0  0  0  0  0  0  0  0  0  0  0  0
    0.3488   -0.5058   -2.3561 C   0  0  0  0  0  0  0  0  0  0  0  0
    0.2997   -0.9152   -0.8998 C   0  0  0  0  0  0  0  0  0  0  0  0
    3.3289   -0.9555   -0.7857 C   0  0  0  0  0  0  0  0  0  0  0  0
    0.2668    0.8566   -2.6925 C   0  0  0  0  0  0  0  0  0  0  0  0
    0.7356   -1.4295   -3.3451 C   0  0  0  0  0  0  0  0  0  0  0  0
    2.4868   -0.0896    0.0736 C   0  0  0  0  0  0  0  0  0  0  0  0
    0.6887    1.3027   -3.9484 C   0  0  0  0  0  0  0  0  0  0  0  0
    1.1959   -0.9673   -4.5882 C   0  0  0  0  0  0  0  0  0  0  0  0
    3.2961   -0.8166   -2.1621 C   0  0  0  0  0  0  0  0  0  0  0  0
    4.3171   -1.7838   -0.2652 C   0  0  0  0  0  0  0  0  0  0  0  0
    1.1822    0.3954   -4.8847 C   0  0  0  0  0  0  0  0  0  0  0  0
    3.9305   -1.7202   -3.0151 C   0  0  0  0  0  0  0  0  0  0  0  0
    5.1153   -2.5528   -1.1310 C   0  0  0  0  0  0  0  0  0  0  0  0
    4.8433   -2.6077   -2.4950 C   0  0  0  0  0  0  0  0  0  0  0  0
    0.5785   -1.9594   -0.7247 H   0  0  0  0  0  0  0  0  0  0  0  0
   -0.7324   -0.7884   -0.5491 H   0  0  0  0  0  0  0  0  0  0  0  0
    0.0051    1.5884   -1.9297 H   0  0  0  0  0  0  0  0  0  0  0  0
    0.9114   -2.4732   -3.0799 H   0  0  0  0  0  0  0  0  0  0  0  0
    0.7177    2.3685   -4.1602 H   0  0  0  0  0  0  0  0  0  0  0  0
    1.7200   -1.6476   -5.2589 H   0  0  0  0  0  0  0  0  0  0  0  0
    2.7389    0.0038   -2.5862 H   0  0  0  0  0  0  0  0  0  0  0  0
    4.5080   -1.7941    0.8035 H   0  0  0  0  0  0  0  0  0  0  0  0
    1.6152    0.7530   -5.8161 H   0  0  0  0  0  0  0  0  0  0  0  0
    3.7365   -1.7067   -4.0830 H   0  0  0  0  0  0  0  0  0  0  0  0
    5.9723   -3.0966   -0.7487 H   0  0  0  0  0  0  0  0  0  0  0  0
    5.3802   -3.2715   -3.1662 H   0  0  0  0  0  0  0  0  0  0  0  0
  1  4  1  0  0  0  0
  1  8  1  0  0  0  0
  2  8  2  0  0  0  0
  3  4  1  0  0  0  0
  3  6  2  0  0  0  0
  3  7  1  0  0  0  0
  4 17  1  0  0  0  0
  4 18  1  0  0  0  0
  5  8  1  0  0  0  0
  5 11  2  0  0  0  0
  5 12  1  0  0  0  0
  6  9  1  0  0  0  0
  6 19  1  0  0  0  0
  7 10  2  0  0  0  0
  7 20  1  0  0  0  0
  9 13  2  0  0  0  0
  9 21  1  0  0  0  0
 10 13  1  0  0  0  0
 10 22  1  0  0  0  0
 11 14  1  0  0  0  0
 11 23  1  0  0  0  0
 12 15  2  0  0  0  0
 12 24  1  0  0  0  0
 13 25  1  0  0  0  0
 14 16  2  0  0  0  0
 14 26  1  0  0  0  0
 15 16  1  0  0  0  0
 15 27  1  0  0  0  0
 16 28  1  0  0  0  0
M  END
>  <DRUGBANK_ID>
DB00676

>  <SECONDARY_ACCESSION_NUMBERS>
APRD00821; EXPT00792; DB02775

>  <COMMON_NAME>
Benzyl benzoate

>  <CAS_NUMBER>
120-51-4

>  <UNII>
N863NB338G

>  <SYNONYMS>
Acarobenzyl; Benylate; Benzevan; Benzoate de benzyle; BenzoesÃ¤urebenzylester; Benzoic acid phenylmethylester; Benzoic acid, benzyl ester; Benzoic acid, phenylmethyl ester; Benzyl benzoat; Benzyl benzoate; Benzylis benzoas; Phenylmethyl benzoate

$$$$
