
 OpenBabel10282417213D

 42 42  0  0  0  0  0  0  0  0999 V2000
    1.0364   -0.5054   -0.0162 S   0  0  0  0  0  0  0  0  0  0  0  0
    1.1663   -2.7187   -1.3292 O   0  0  0  0  0  0  0  0  0  0  0  0
    3.9223    1.1495    1.4657 O   0  0  0  0  0  0  0  0  0  0  0  0
    0.4599    4.3830   -1.5472 O   0  0  0  0  0  0  0  0  0  0  0  0
   -0.4406    1.5635    3.4144 O   0  0  0  0  0  0  0  0  0  0  0  0
    2.9139    6.0719    2.1623 O   0  0  0  0  0  0  0  0  0  0  0  0
    0.7320    5.6651    1.8317 O   0  0  0  0  0  0  0  0  0  0  0  0
    3.0552    2.2427   -0.2721 N   0  0  0  0  0  0  0  0  0  0  0  0
   -0.1257    3.0124    0.1012 N   0  0  0  0  0  0  0  0  0  0  0  0
    1.1739    3.0720    3.0080 N   0  0  0  0  0  0  0  0  0  0  0  0
   -1.0616   -1.9270   -0.9655 C   0  0  0  0  0  0  0  0  0  0  0  0
    0.4429   -1.8553   -0.8901 C   0  0  0  0  0  0  0  0  0  0  0  0
    3.2856    1.0715    0.4110 C   0  0  0  0  0  0  0  0  0  0  0  0
   -1.8828   -0.8603   -1.3834 C   0  0  0  0  0  0  0  0  0  0  0  0
   -1.6495   -3.1609   -0.6779 C   0  0  0  0  0  0  0  0  0  0  0  0
    2.8068   -0.2823   -0.1613 C   0  0  0  0  0  0  0  0  0  0  0  0
    0.7486    3.3775   -0.8910 C   0  0  0  0  0  0  0  0  0  0  0  0
    2.0258    2.5351   -1.2721 C   0  0  0  0  0  0  0  0  0  0  0  0
    0.1733    2.2414    2.5902 C   0  0  0  0  0  0  0  0  0  0  0  0
    0.0240    1.9847    1.0999 C   0  0  0  0  0  0  0  0  0  0  0  0
   -3.2562   -1.0660   -1.5903 C   0  0  0  0  0  0  0  0  0  0  0  0
   -3.0073   -3.3729   -0.9312 C   0  0  0  0  0  0  0  0  0  0  0  0
   -3.8122   -2.3271   -1.3799 C   0  0  0  0  0  0  0  0  0  0  0  0
    2.1236    3.7831    2.1826 C   0  0  0  0  0  0  0  0  0  0  0  0
    1.9883    5.2777    2.1370 C   0  0  0  0  0  0  0  0  0  0  0  0
    0.7876    6.6317    1.6893 H   0  0  0  0  0  0  0  0  0  0  0  0
    3.5416    3.0443    0.1236 H   0  0  0  0  0  0  0  0  0  0  0  0
   -0.9313    3.6155    0.2123 H   0  0  0  0  0  0  0  0  0  0  0  0
    1.3148    3.0895    4.0078 H   0  0  0  0  0  0  0  0  0  0  0  0
   -1.4793    0.1290   -1.5851 H   0  0  0  0  0  0  0  0  0  0  0  0
   -1.0459   -3.9654   -0.2658 H   0  0  0  0  0  0  0  0  0  0  0  0
    3.2779   -1.0550    0.4500 H   0  0  0  0  0  0  0  0  0  0  0  0
    3.1724   -0.3340   -1.1863 H   0  0  0  0  0  0  0  0  0  0  0  0
    2.5538    3.1143   -2.0385 H   0  0  0  0  0  0  0  0  0  0  0  0
    1.7002    1.6059   -1.7308 H   0  0  0  0  0  0  0  0  0  0  0  0
   -0.7537    1.2313    0.9358 H   0  0  0  0  0  0  0  0  0  0  0  0
    0.9983    1.5901    0.9077 H   0  0  0  0  0  0  0  0  0  0  0  0
   -3.8905   -0.2578   -1.9529 H   0  0  0  0  0  0  0  0  0  0  0  0
   -3.4291   -4.3668   -0.8059 H   0  0  0  0  0  0  0  0  0  0  0  0
   -4.8708   -2.5000   -1.5667 H   0  0  0  0  0  0  0  0  0  0  0  0
    3.1454    3.4711    2.4068 H   0  0  0  0  0  0  0  0  0  0  0  0
    1.9333    3.5267    1.1625 H   0  0  0  0  0  0  0  0  0  0  0  0
  1 12  1  0  0  0  0
  1 16  1  0  0  0  0
  2 12  2  0  0  0  0
  3 13  2  0  0  0  0
  4 17  2  0  0  0  0
  5 19  2  0  0  0  0
  6 25  2  0  0  0  0
  7 25  1  0  0  0  0
  7 26  1  0  0  0  0
  8 13  1  0  0  0  0
  8 18  1  0  0  0  0
  8 27  1  0  0  0  0
  9 17  1  0  0  0  0
  9 20  1  0  0  0  0
  9 28  1  0  0  0  0
 10 19  1  0  0  0  0
 10 24  1  0  0  0  0
 10 29  1  0  0  0  0
 11 12  1  0  0  0  0
 11 14  2  0  0  0  0
 11 15  1  0  0  0  0
 13 16  1  0  0  0  0
 14 21  1  0  0  0  0
 14 30  1  0  0  0  0
 15 22  2  0  0  0  0
 15 31  1  0  0  0  0
 16 32  1  0  0  0  0
 16 33  1  0  0  0  0
 17 18  1  0  0  0  0
 18 34  1  0  0  0  0
 18 35  1  0  0  0  0
 19 20  1  0  0  0  0
 20 36  1  0  0  0  0
 20 37  1  0  0  0  0
 21 23  2  0  0  0  0
 21 38  1  0  0  0  0
 22 23  1  0  0  0  0
 22 39  1  0  0  0  0
 23 40  1  0  0  0  0
 24 25  1  0  0  0  0
 24 41  1  0  0  0  0
 24 42  1  0  0  0  0
M  END
>  <DRUGBANK_ID>
DB14082

>  <COMMON_NAME>
Betiatide

>  <CAS_NUMBER>
103725-47-9

>  <UNII>
9NV2SR34P8

>  <SYNONYMS>
Betiatida; Betiatide

$$$$
