
 OpenBabel10282417123D

 38 38  0  0  0  0  0  0  0  0999 V2000
    1.0385    1.1099    2.2167 C   0  0  0  0  0  0  0  0  0  0  0  0
    3.6352    1.4819    1.8753 C   0  0  0  0  0  0  0  0  0  0  0  0
    2.2914   -1.8969    2.5723 C   0  0  0  0  0  0  0  0  0  0  0  0
   -0.4095    0.7778   -1.1832 C   0  0  0  0  0  0  0  0  0  0  0  0
    2.7015   -0.6719    1.7428 C   0  0  2  0  0  0  0  0  0  0  0  0
    0.1581    0.2597    1.2760 C   0  0  2  0  0  0  0  0  0  0  0  0
    4.3204    0.7534    0.6655 C   0  0  2  0  0  0  0  0  0  0  0  0
    0.6494    0.4415   -0.1995 C   0  0  3  0  0  0  0  0  0  0  0  0
    4.0432   -0.7090    0.9979 C   0  0  2  0  0  0  0  0  0  0  0  0
    2.4722    0.6554    2.3579 N   0  0  0  0  0  0  0  0  0  0  0  0
    1.0110   -1.8529    3.2229 O   0  0  0  0  0  0  0  0  0  0  0  0
   -1.0260    1.9846   -0.7806 O   0  0  0  0  0  0  0  0  0  0  0  0
   -1.2445    0.3640    1.5157 O   0  0  0  0  0  0  0  0  0  0  0  0
    5.7156    0.9765    0.4702 O   0  0  0  0  0  0  0  0  0  0  0  0
    3.9182   -1.4958   -0.2089 O   0  0  0  0  0  0  0  0  0  0  0  0
    1.1630    3.3849   -1.4779 O   0  5  0  0  0  0  0  0  0  0  0  0
    1.6528    3.4581    0.8794 O   0  5  0  0  0  0  0  0  0  0  0  0
    3.4564    3.1022   -0.6910 O   0  5  0  0  0  0  0  0  0  0  0  0
    1.8267    1.2659   -0.3967 O   0  0  0  0  0  0  0  0  0  0  0  0
    2.0167    2.9288   -0.4371 S   0  0  0  0  0  0  0  0  0  0  0  0
    2.0824   -0.8050    0.8858 H   0  0  0  0  0  0  0  0  0  0  0  0
    0.2743   -0.7889    1.5203 H   0  0  0  0  0  0  0  0  0  0  0  0
    3.9123    0.9471   -0.3235 H   0  0  0  0  0  0  0  0  0  0  0  0
    0.9306   -0.5877   -0.5152 H   0  0  0  0  0  0  0  0  0  0  0  0
    4.8487   -1.1238    1.5979 H   0  0  0  0  0  0  0  0  0  0  0  0
    0.6088    1.2757    3.2139 H   0  0  0  0  0  0  0  0  0  0  0  0
    0.7863    2.0754    1.8238 H   0  0  0  0  0  0  0  0  0  0  0  0
    4.3708    1.4796    2.6907 H   0  0  0  0  0  0  0  0  0  0  0  0
    3.5134    2.5623    1.7634 H   0  0  0  0  0  0  0  0  0  0  0  0
    2.2130   -2.7354    1.8724 H   0  0  0  0  0  0  0  0  0  0  0  0
    3.0232   -2.0927    3.3446 H   0  0  0  0  0  0  0  0  0  0  0  0
    0.0619    0.8017   -2.1738 H   0  0  0  0  0  0  0  0  0  0  0  0
   -1.1868    0.0113   -1.1748 H   0  0  0  0  0  0  0  0  0  0  0  0
    0.8282   -0.9421    3.5169 H   0  0  0  0  0  0  0  0  0  0  0  0
   -0.4257    2.4423   -0.1502 H   0  0  0  0  0  0  0  0  0  0  0  0
   -1.6212    1.0079    0.8911 H   0  0  0  0  0  0  0  0  0  0  0  0
    6.1027    1.2229    1.3170 H   0  0  0  0  0  0  0  0  0  0  0  0
    3.3620   -0.9915   -0.8400 H   0  0  0  0  0  0  0  0  0  0  0  0
  1 26  1  0  0  0  0
  1 27  1  0  0  0  0
  2 28  1  0  0  0  0
  2 29  1  0  0  0  0
  3 30  1  0  0  0  0
  3 31  1  0  0  0  0
  4 32  1  0  0  0  0
  4 33  1  0  0  0  0
  5  3  1  0  0  0  0
  5 10  1  0  0  0  0
  5 21  1  6  0  0  0
  6 13  1  0  0  0  0
  6 22  1  1  0  0  0
  6  8  1  0  0  0  0
  6  1  1  0  0  0  0
  7  2  1  0  0  0  0
  7 14  1  0  0  0  0
  7 23  1  6  0  0  0
  8  4  1  0  0  0  0
  9  5  1  0  0  0  0
  9  7  1  0  0  0  0
  9 15  1  0  0  0  0
  9 25  1  1  0  0  0
 10  1  1  0  0  0  0
 10  2  1  0  0  0  0
 11  3  1  0  0  0  0
 11 34  1  0  0  0  0
 12  4  1  0  0  0  0
 12 35  1  0  0  0  0
 13 36  1  0  0  0  0
 14 37  1  0  0  0  0
 15 38  1  0  0  0  0
 19  8  1  0  0  0  0
 20 16  1  0  0  0  0
 20 17  1  0  0  0  0
 20 18  1  0  0  0  0
 20 19  1  0  0  0  0
 24  8  1  0  0  0  0
M  CHG  3  16  -1  17  -1  18  -1
M  END
>  <DRUGBANK_ID>
DB02492

>  <SECONDARY_ACCESSION_NUMBERS>
EXPT01590

>  <COMMON_NAME>
Ghavamiol

$$$$
