599
 OpenBabel10282417103D

 34 34  0  0  1  0  0  0  0  0999 V2000
    1.0712    0.1123   -0.5151 S   0  0  0  0  0  0  0  0  0  0  0  0
    4.4723    2.1947    1.7109 O   0  0  0  0  0  0  0  0  0  0  0  0
    4.2121   -2.3031    1.5941 O   0  0  0  0  0  0  0  0  0  0  0  0
    3.4436    1.1846   -0.0321 N   0  0  0  0  0  0  0  0  0  0  0  0
    3.3716   -1.1235   -0.1350 N   0  0  0  0  0  0  0  0  0  0  0  0
    5.1395   -0.0922    1.1516 C   0  0  0  0  0  0  0  0  0  0  0  0
    6.1320   -0.0927   -0.0804 C   0  0  3  0  0  0  0  0  0  0  0  0
    7.1354    1.0940   -0.0872 C   0  0  0  0  0  0  0  0  0  0  0  0
    5.8532   -0.2269    2.5060 C   0  0  0  0  0  0  0  0  0  0  0  0
    4.3382    1.2038    1.0136 C   0  0  0  0  0  0  0  0  0  0  0  0
    4.2121   -1.2830    0.9374 C   0  0  0  0  0  0  0  0  0  0  0  0
    6.7668   -1.4709   -0.3292 C   0  0  0  0  0  0  0  0  0  0  0  0
    8.1876    1.1979    1.0212 C   0  0  0  0  0  0  0  0  0  0  0  0
    5.0059   -0.2179    3.7561 C   0  0  0  0  0  0  0  0  0  0  0  0
    2.7030    0.0565   -0.2179 C   0  0  0  0  0  0  0  0  0  0  0  0
    9.0161   -0.0550    1.2293 C   0  0  0  0  0  0  0  0  0  0  0  0
    2.9985    2.0709   -0.2286 H   0  0  0  0  0  0  0  0  0  0  0  0
    2.8659   -1.9610   -0.3853 H   0  0  0  0  0  0  0  0  0  0  0  0
    5.5377    0.0733   -0.9959 H   0  0  0  0  0  0  0  0  0  0  0  0
    7.6587    1.0928   -1.0513 H   0  0  0  0  0  0  0  0  0  0  0  0
    6.5616    2.0331   -0.0902 H   0  0  0  0  0  0  0  0  0  0  0  0
    6.4975   -1.1120    2.5190 H   0  0  0  0  0  0  0  0  0  0  0  0
    6.4707    0.6346    2.6905 H   0  0  0  0  0  0  0  0  0  0  0  0
    6.0207   -2.2164   -0.6224 H   0  0  0  0  0  0  0  0  0  0  0  0
    7.5143   -1.4208   -1.1244 H   0  0  0  0  0  0  0  0  0  0  0  0
    7.2160   -1.8987    0.5614 H   0  0  0  0  0  0  0  0  0  0  0  0
    8.8561    2.0331    0.7990 H   0  0  0  0  0  0  0  0  0  0  0  0
    7.7499    1.5308    1.9582 H   0  0  0  0  0  0  0  0  0  0  0  0
    4.3231   -1.0628    3.8024 H   0  0  0  0  0  0  0  0  0  0  0  0
    5.6807   -0.2600    4.6197 H   0  0  0  0  0  0  0  0  0  0  0  0
    4.4490    0.7189    3.8252 H   0  0  0  0  0  0  0  0  0  0  0  0
    9.5539   -0.3030    0.3108 H   0  0  0  0  0  0  0  0  0  0  0  0
    9.7197    0.0703    2.0524 H   0  0  0  0  0  0  0  0  0  0  0  0
    8.4329   -0.9192    1.5306 H   0  0  0  0  0  0  0  0  0  0  0  0
  1 15  2  0  0  0  0
  2 10  2  0  0  0  0
  3 11  2  0  0  0  0
  4 10  1  0  0  0  0
  4 15  1  0  0  0  0
  4 17  1  0  0  0  0
  5 11  1  0  0  0  0
  5 15  1  0  0  0  0
  5 18  1  0  0  0  0
  6  7  1  0  0  0  0
  6  9  1  0  0  0  0
  6 10  1  0  0  0  0
  6 11  1  0  0  0  0
  7  8  1  0  0  0  0
  7 12  1  0  0  0  0
  7 19  1  0  0  0  0
  8 13  1  0  0  0  0
  8 20  1  0  0  0  0
  8 21  1  0  0  0  0
  9 14  1  0  0  0  0
  9 22  1  0  0  0  0
  9 23  1  0  0  0  0
 12 24  1  0  0  0  0
 12 25  1  0  0  0  0
 12 26  1  0  0  0  0
 13 16  1  0  0  0  0
 13 27  1  0  0  0  0
 13 28  1  0  0  0  0
 14 29  1  0  0  0  0
 14 30  1  0  0  0  0
 14 31  1  0  0  0  0
 16 32  1  0  0  0  0
 16 33  1  0  0  0  0
 16 34  1  0  0  0  0
M  END
>  <DRUGBANK_ID>
DB00599

>  <SECONDARY_ACCESSION_NUMBERS>
APRD00660

>  <COMMON_NAME>
Thiopental

>  <CAS_NUMBER>
76-75-5

>  <UNII>
JI8Z5M7NA3

>  <SYNONYMS>
(Â±)-thiopental; 2-Thio-5-ethyl-5-sec-pentylbarbituric acid; 5-Ethyl-5-(1-methyl-butyl)-2-thioxo-dihydro-pyrimidine-4,6-dione; Penthiobarbital; Pentothiobarbital; Thiopental; Thiopentobarbital; Thiopentobarbitone; Thiopentobarbituric acid; Thiopentone; Tiopentale

$$$$
