POF
 OpenBabel10282417173D

 60 64  0  0  0  0  0  0  0  0999 V2000
    1.0787    0.1577   -0.0176 O   0  0  0  0  0  0  0  0  0  0  0  0
    3.1103   -0.4020    1.4100 O   0  0  0  0  0  0  0  0  0  0  0  0
    3.5576    2.1876   12.3813 O   0  0  0  0  0  0  0  0  0  0  0  0
    3.1994   -0.6965   -1.0605 O   0  0  0  0  0  0  0  0  0  0  0  0
    2.7167    0.1492    2.6025 C   0  0  0  0  0  0  0  0  0  0  0  0
    3.6745    0.2270    3.6196 C   0  0  0  0  0  0  0  0  0  0  0  0
    3.0897    1.6412   -0.2101 N   0  0  0  0  0  0  0  0  0  0  0  0
    3.3447    0.7386    4.8930 C   0  0  0  0  0  0  0  0  0  0  0  0
    2.0207    1.1336    5.1633 C   0  0  0  0  0  0  0  0  0  0  0  0
    1.0828    1.0609    4.1258 C   0  0  0  0  0  0  0  0  0  0  0  0
    2.5236    0.0683   -0.0416 S   0  0  0  0  0  0  0  0  0  0  0  0
    1.4204    0.5605    2.8712 C   0  0  0  0  0  0  0  0  0  0  0  0
    4.4156    0.7964    5.9560 C   0  0  0  0  0  0  0  0  0  0  0  0
    4.0350    1.6491    7.1659 C   0  0  0  0  0  0  0  0  0  0  0  0
    2.6225    1.2852    7.6336 C   0  0  2  0  0  0  0  0  0  0  0  0
    1.6210    1.6966    6.5212 C   0  0  2  0  0  0  0  0  0  0  0  0
    2.2328    1.9319    8.9845 C   0  0  1  0  0  0  0  0  0  0  0  0
    0.8151    1.4996    9.4027 C   0  0  1  0  0  0  0  0  0  0  0  0
   -0.1790    1.9175    8.3007 C   0  0  0  0  0  0  0  0  0  0  0  0
    0.1842    1.3338    6.9410 C   0  0  0  0  0  0  0  0  0  0  0  0
    0.6599   -0.0004    9.7199 C   0  0  0  0  0  0  0  0  0  0  0  0
    3.2011    1.5973   10.1131 C   0  0  0  0  0  0  0  0  0  0  0  0
    2.7581    2.1636   11.4444 C   0  0  0  0  0  0  0  0  0  0  0  0
    1.4362    2.5787   11.5526 N   0  0  0  0  0  0  0  0  0  0  0  0
    0.4166    2.1700   10.6998 C   0  0  0  0  0  0  0  0  0  0  0  0
   -0.7756    2.1800   11.0152 O   0  0  0  0  0  0  0  0  0  0  0  0
    1.0386    3.2814   12.7734 C   0  0  0  0  0  0  0  0  0  0  0  0
    0.5611    4.6861   12.4760 C   0  0  0  0  0  0  0  0  0  0  0  0
   -0.6012    4.9565   11.7411 C   0  0  0  0  0  0  0  0  0  0  0  0
   -0.9499    6.2520   11.4005 C   0  0  0  0  0  0  0  0  0  0  0  0
   -0.1557    7.2698   11.8770 C   0  0  0  0  0  0  0  0  0  0  0  0
    0.9502    7.0703   12.6280 N   0  0  0  0  0  0  0  0  0  0  0  0
    1.2884    5.7881   12.9023 C   0  0  0  0  0  0  0  0  0  0  0  0
    2.5929    0.1938    7.7573 H   0  0  0  0  0  0  0  0  0  0  0  0
    1.6644    2.7907    6.4112 H   0  0  0  0  0  0  0  0  0  0  0  0
    2.2474    3.0265    8.8542 H   0  0  0  0  0  0  0  0  0  0  0  0
    4.6909   -0.1151    3.4290 H   0  0  0  0  0  0  0  0  0  0  0  0
    2.7062    2.2629    0.4974 H   0  0  0  0  0  0  0  0  0  0  0  0
    4.1034    1.6538   -0.2967 H   0  0  0  0  0  0  0  0  0  0  0  0
    0.0545    1.3807    4.2666 H   0  0  0  0  0  0  0  0  0  0  0  0
    0.6194    0.4852    2.1456 H   0  0  0  0  0  0  0  0  0  0  0  0
    5.3427    1.1965    5.5306 H   0  0  0  0  0  0  0  0  0  0  0  0
    4.6183   -0.2278    6.2956 H   0  0  0  0  0  0  0  0  0  0  0  0
    4.0794    2.7155    6.9101 H   0  0  0  0  0  0  0  0  0  0  0  0
    4.7792    1.4756    7.9482 H   0  0  0  0  0  0  0  0  0  0  0  0
   -1.2012    1.6102    8.5542 H   0  0  0  0  0  0  0  0  0  0  0  0
   -0.2098    3.0144    8.2195 H   0  0  0  0  0  0  0  0  0  0  0  0
   -0.5470    1.7184    6.2225 H   0  0  0  0  0  0  0  0  0  0  0  0
    0.0598    0.2444    6.9537 H   0  0  0  0  0  0  0  0  0  0  0  0
   -0.3647   -0.2136   10.0513 H   0  0  0  0  0  0  0  0  0  0  0  0
    0.8648   -0.6401    8.8617 H   0  0  0  0  0  0  0  0  0  0  0  0
    1.3111   -0.3098   10.5434 H   0  0  0  0  0  0  0  0  0  0  0  0
    4.1805    2.0423    9.9092 H   0  0  0  0  0  0  0  0  0  0  0  0
    3.3418    0.5164   10.2159 H   0  0  0  0  0  0  0  0  0  0  0  0
    0.2567    2.7147   13.2930 H   0  0  0  0  0  0  0  0  0  0  0  0
    1.8853    3.3368   13.4693 H   0  0  0  0  0  0  0  0  0  0  0  0
   -1.2756    4.1790   11.4070 H   0  0  0  0  0  0  0  0  0  0  0  0
   -1.8252    6.4399   10.7894 H   0  0  0  0  0  0  0  0  0  0  0  0
   -0.4052    8.3040   11.6674 H   0  0  0  0  0  0  0  0  0  0  0  0
    2.1923    5.6755   13.4962 H   0  0  0  0  0  0  0  0  0  0  0  0
  1 11  2  0  0  0  0
  2  5  1  0  0  0  0
  2 11  1  0  0  0  0
  3 23  2  0  0  0  0
  4 11  2  0  0  0  0
  5  6  2  0  0  0  0
  5 12  1  0  0  0  0
  6  8  1  0  0  0  0
  6 37  1  0  0  0  0
  7 11  1  0  0  0  0
  7 38  1  0  0  0  0
  7 39  1  0  0  0  0
  8  9  2  0  0  0  0
  8 13  1  0  0  0  0
  9 10  1  0  0  0  0
  9 16  1  0  0  0  0
 10 12  2  0  0  0  0
 10 40  1  0  0  0  0
 12 41  1  0  0  0  0
 13 14  1  0  0  0  0
 13 42  1  0  0  0  0
 13 43  1  0  0  0  0
 14 15  1  0  0  0  0
 14 44  1  0  0  0  0
 14 45  1  0  0  0  0
 15 16  1  0  0  0  0
 15 17  1  0  0  0  0
 15 34  1  1  0  0  0
 16 20  1  0  0  0  0
 16 35  1  6  0  0  0
 17 18  1  0  0  0  0
 17 22  1  0  0  0  0
 17 36  1  6  0  0  0
 18 19  1  0  0  0  0
 18 21  1  1  0  0  0
 18 25  1  0  0  0  0
 19 20  1  0  0  0  0
 19 46  1  0  0  0  0
 19 47  1  0  0  0  0
 20 48  1  0  0  0  0
 20 49  1  0  0  0  0
 21 50  1  0  0  0  0
 21 51  1  0  0  0  0
 21 52  1  0  0  0  0
 22 23  1  0  0  0  0
 22 53  1  0  0  0  0
 22 54  1  0  0  0  0
 23 24  1  0  0  0  0
 24 25  1  0  0  0  0
 24 27  1  0  0  0  0
 25 26  2  0  0  0  0
 27 28  1  0  0  0  0
 27 55  1  0  0  0  0
 27 56  1  0  0  0  0
 28 29  2  0  0  0  0
 28 33  1  0  0  0  0
 29 30  1  0  0  0  0
 29 57  1  0  0  0  0
 30 31  2  0  0  0  0
 30 58  1  0  0  0  0
 31 32  1  0  0  0  0
 31 59  1  0  0  0  0
 32 33  2  0  0  0  0
 33 60  1  0  0  0  0
M  END
>  <DRUGBANK_ID>
DB08418

>  <COMMON_NAME>
(4aS,4bR,10bS,12aS)-12a-methyl-1,3-dioxo-2-(pyridin-3-ylmethyl)-1,2,3,4,4a,4b,5,6,10b,11,12,12a-dodecahydronaphtho[2,1-f]isoquinolin-8-yl sulfamate

$$$$
