
 OpenBabel10282417233D

 47 49  0  0  0  0  0  0  0  0999 V2000
   -1.8923    0.0098    0.0525 C   0  0  0  0  0  0  0  0  0  0  0  0
   -1.2129   -1.2085    0.0414 C   0  0  0  0  0  0  0  0  0  0  0  0
   -1.1736    1.1999    0.1079 C   0  0  0  0  0  0  0  0  0  0  0  0
    0.1849   -1.2433    0.0870 C   0  0  0  0  0  0  0  0  0  0  0  0
    0.5435    1.3811   -2.9126 C   0  0  0  0  0  0  0  0  0  0  0  0
    2.5796    7.7287   -2.7975 C   0  0  0  0  0  0  0  0  0  0  0  0
    0.7071    0.8702   -4.2061 C   0  0  0  0  0  0  0  0  0  0  0  0
    3.0847    6.4345   -2.7895 C   0  0  0  0  0  0  0  0  0  0  0  0
    0.7327    7.0057   -1.4203 C   0  0  0  0  0  0  0  0  0  0  0  0
    1.0161    3.5265   -3.7124 C   0  0  0  0  0  0  0  0  0  0  0  0
    0.9913    2.4701   -0.0681 C   0  0  0  0  0  0  0  0  0  0  0  0
    0.2235    4.6171   -1.0120 C   0  0  0  0  0  0  0  0  0  0  0  0
    0.2335    1.1800    0.1211 C   0  0  0  0  0  0  0  0  0  0  0  0
    1.2117    5.6843   -1.4382 C   0  0  0  0  0  0  0  0  0  0  0  0
    0.7036    2.7264   -2.5901 C   0  0  0  0  0  0  0  0  0  0  0  0
    1.4407    8.0166   -2.0563 C   0  0  0  0  0  0  0  0  0  0  0  0
    1.3728    3.0284   -4.9834 C   0  0  0  0  0  0  0  0  0  0  0  0
    0.9021   -0.0506    0.1354 C   0  0  0  0  0  0  0  0  0  0  0  0
    2.4780    5.4614   -2.0014 C   0  0  0  0  0  0  0  0  0  0  0  0
    1.1500    1.6872   -5.2351 C   0  0  0  0  0  0  0  0  0  0  0  0
    2.0070    3.9751   -5.9466 C   0  0  0  0  0  0  0  0  0  0  0  0
    0.5559    3.2147   -1.2862 N   0  0  0  0  0  0  0  0  0  0  0  0
    0.9578    9.2853   -1.9505 O   0  0  0  0  0  0  0  0  0  0  0  0
    2.2674   -0.0513    0.0899 O   0  0  0  0  0  0  0  0  0  0  0  0
    3.1155    4.2571   -1.9083 O   0  0  0  0  0  0  0  0  0  0  0  0
    1.3189    1.1611   -6.4775 O   0  0  0  0  0  0  0  0  0  0  0  0
    2.4154    5.0977   -5.6650 O   0  0  0  0  0  0  0  0  0  0  0  0
    2.1519    3.5036   -7.1924 O   0  0  0  0  0  0  0  0  0  0  0  0
   -2.9763    0.0387   -0.0220 H   0  0  0  0  0  0  0  0  0  0  0  0
   -1.7785   -2.1341   -0.0202 H   0  0  0  0  0  0  0  0  0  0  0  0
   -1.6989    2.1510    0.0410 H   0  0  0  0  0  0  0  0  0  0  0  0
    0.6930   -2.2009    0.0437 H   0  0  0  0  0  0  0  0  0  0  0  0
    0.2007    0.6673   -2.1840 H   0  0  0  0  0  0  0  0  0  0  0  0
    3.0993    8.4865   -3.3711 H   0  0  0  0  0  0  0  0  0  0  0  0
    0.4789   -0.1774   -4.3656 H   0  0  0  0  0  0  0  0  0  0  0  0
    3.9299    6.1720   -3.4202 H   0  0  0  0  0  0  0  0  0  0  0  0
   -0.2107    7.2461   -0.9340 H   0  0  0  0  0  0  0  0  0  0  0  0
    1.0621    4.6023   -3.6348 H   0  0  0  0  0  0  0  0  0  0  0  0
    0.7892    3.0520    0.8464 H   0  0  0  0  0  0  0  0  0  0  0  0
    2.0789    2.3374   -0.0656 H   0  0  0  0  0  0  0  0  0  0  0  0
   -0.7442    4.7942   -1.5049 H   0  0  0  0  0  0  0  0  0  0  0  0
    0.0167    4.7756    0.0560 H   0  0  0  0  0  0  0  0  0  0  0  0
    1.5844    9.8846   -2.3874 H   0  0  0  0  0  0  0  0  0  0  0  0
    2.5974   -0.9563   -0.0209 H   0  0  0  0  0  0  0  0  0  0  0  0
    3.3241    3.9650   -2.8147 H   0  0  0  0  0  0  0  0  0  0  0  0
    0.9146    0.2823   -6.5153 H   0  0  0  0  0  0  0  0  0  0  0  0
    2.5703    4.2163   -7.7129 H   0  0  0  0  0  0  0  0  0  0  0  0
  1 29  1  0  0  0  0
  2  1  2  0  0  0  0
  2 30  1  0  0  0  0
  3  1  1  0  0  0  0
  3 31  1  0  0  0  0
  4  2  1  0  0  0  0
  4 32  1  0  0  0  0
  5 33  1  0  0  0  0
  6 34  1  0  0  0  0
  7  5  2  0  0  0  0
  7 35  1  0  0  0  0
  8  6  1  0  0  0  0
  8 36  1  0  0  0  0
  9 37  1  0  0  0  0
 10 38  1  0  0  0  0
 11 39  1  0  0  0  0
 11 40  1  0  0  0  0
 12 41  1  0  0  0  0
 12 42  1  0  0  0  0
 13  3  2  0  0  0  0
 13 11  1  0  0  0  0
 14  9  2  0  0  0  0
 14 12  1  0  0  0  0
 15  5  1  0  0  0  0
 15 10  2  0  0  0  0
 16  6  2  0  0  0  0
 16  9  1  0  0  0  0
 17 10  1  0  0  0  0
 18  4  2  0  0  0  0
 18 13  1  0  0  0  0
 19  8  2  0  0  0  0
 19 14  1  0  0  0  0
 20  7  1  0  0  0  0
 20 17  2  0  0  0  0
 21 17  1  0  0  0  0
 22 11  1  0  0  0  0
 22 12  1  0  0  0  0
 22 15  1  0  0  0  0
 23 16  1  0  0  0  0
 23 43  1  0  0  0  0
 24 18  1  0  0  0  0
 24 44  1  0  0  0  0
 25 19  1  0  0  0  0
 25 45  1  0  0  0  0
 26 20  1  0  0  0  0
 26 46  1  0  0  0  0
 27 21  2  0  0  0  0
 28 21  1  0  0  0  0
 28 47  1  0  0  0  0
M  END
>  <DRUGBANK_ID>
DB16768

>  <COMMON_NAME>
Lavendustin A

>  <CAS_NUMBER>
125697-92-9

>  <UNII>
3Y0G32G2RV

$$$$
