
 OpenBabel10282417193D

 54 55  0  0  0  0  0  0  0  0999 V2000
    1.2224    0.0781    0.0990 C   0  0  0  0  0  0  0  0  0  0  0  0
    0.8645   -1.3071    0.1383 O   0  0  0  0  0  0  0  0  0  0  0  0
    0.8580   -1.9790   -1.0548 C   0  0  0  0  0  0  0  0  0  0  0  0
    2.1044   -2.0756   -1.6605 C   0  0  0  0  0  0  0  0  0  0  0  0
    2.2800   -2.9603   -2.7064 C   0  0  0  0  0  0  0  0  0  0  0  0
    1.2182   -3.7993   -3.1029 C   0  0  0  0  0  0  0  0  0  0  0  0
   -0.0655   -3.6699   -2.5012 C   0  0  0  0  0  0  0  0  0  0  0  0
   -0.2841   -2.7188   -1.5044 C   0  0  0  0  0  0  0  0  0  0  0  0
   -1.6255   -2.4411   -1.0849 O   0  0  0  0  0  0  0  0  0  0  0  0
   -1.7564   -1.3517    0.1265 P   0  0  0  0  0  0  0  0  0  0  0  0
   -1.1585   -1.8740    1.3934 O   0  0  0  0  0  0  0  0  0  0  0  0
   -1.1111   -0.1629   -0.7348 O   0  0  0  0  0  0  0  0  0  0  0  0
   -3.0633   -0.4566    0.3239 O   0  0  0  0  0  0  0  0  0  0  0  0
    1.4964   -4.8004   -4.1942 C   0  0  0  0  0  0  0  0  0  0  0  0
    1.1085   -6.4704   -3.7286 S   0  0  0  0  0  0  0  0  0  0  0  0
   -0.3411   -6.5668   -3.4796 O   0  0  0  0  0  0  0  0  0  0  0  0
    1.6821   -7.3256   -4.7320 O   0  0  0  0  0  0  0  0  0  0  0  0
    1.9030   -6.7670   -2.2069 C   0  0  0  0  0  0  0  0  0  0  0  0
    3.1326   -6.2893   -1.9361 C   0  0  0  0  0  0  0  0  0  0  0  0
    3.9868   -6.7769   -0.8259 C   0  0  0  0  0  0  0  0  0  0  0  0
    4.6579   -8.0147   -0.9289 C   0  0  0  0  0  0  0  0  0  0  0  0
    5.6091   -8.3700    0.0480 C   0  0  0  0  0  0  0  0  0  0  0  0
    5.9559   -7.5193    1.0940 C   0  0  0  0  0  0  0  0  0  0  0  0
    5.3319   -6.2895    1.1791 C   0  0  0  0  0  0  0  0  0  0  0  0
    4.2942   -5.9592    0.2996 C   0  0  0  0  0  0  0  0  0  0  0  0
    3.6596   -4.8281    0.7471 O   0  0  0  0  0  0  0  0  0  0  0  0
    2.4502   -4.5198    0.1108 C   0  0  0  0  0  0  0  0  0  0  0  0
    6.8498   -7.7908    2.0915 O   0  0  0  0  0  0  0  0  0  0  0  0
    7.3722   -9.1140    2.1216 C   0  0  0  0  0  0  0  0  0  0  0  0
    4.5636   -8.9977   -1.8892 O   0  0  0  0  0  0  0  0  0  0  0  0
    3.6340   -8.8850   -2.9501 C   0  0  0  0  0  0  0  0  0  0  0  0
    0.7327    0.5627    0.9543 H   0  0  0  0  0  0  0  0  0  0  0  0
    0.8864    0.5894   -0.8122 H   0  0  0  0  0  0  0  0  0  0  0  0
    2.2970    0.1786    0.1879 H   0  0  0  0  0  0  0  0  0  0  0  0
    2.9646   -1.6042   -1.1864 H   0  0  0  0  0  0  0  0  0  0  0  0
    3.3012   -3.1127   -3.0597 H   0  0  0  0  0  0  0  0  0  0  0  0
   -0.8739   -4.3399   -2.7872 H   0  0  0  0  0  0  0  0  0  0  0  0
   -0.8603   -0.5123   -1.6151 H   0  0  0  0  0  0  0  0  0  0  0  0
   -3.4838   -0.3594    1.2009 H   0  0  0  0  0  0  0  0  0  0  0  0
    0.9176   -4.5427   -5.0827 H   0  0  0  0  0  0  0  0  0  0  0  0
    2.5572   -4.8036   -4.4855 H   0  0  0  0  0  0  0  0  0  0  0  0
    1.4498   -7.5335   -1.5924 H   0  0  0  0  0  0  0  0  0  0  0  0
    3.6228   -5.5375   -2.5465 H   0  0  0  0  0  0  0  0  0  0  0  0
    6.0928   -9.3347   -0.0594 H   0  0  0  0  0  0  0  0  0  0  0  0
    5.6170   -5.5840    1.9598 H   0  0  0  0  0  0  0  0  0  0  0  0
    2.7482   -4.2372   -0.8811 H   0  0  0  0  0  0  0  0  0  0  0  0
    1.7195   -5.3330    0.0818 H   0  0  0  0  0  0  0  0  0  0  0  0
    1.9866   -3.6623    0.5891 H   0  0  0  0  0  0  0  0  0  0  0  0
    6.5736   -9.8625    2.1812 H   0  0  0  0  0  0  0  0  0  0  0  0
    8.0124   -9.2881    1.2515 H   0  0  0  0  0  0  0  0  0  0  0  0
    7.9890   -9.2187    3.0189 H   0  0  0  0  0  0  0  0  0  0  0  0
    2.6188   -8.9905   -2.5609 H   0  0  0  0  0  0  0  0  0  0  0  0
    3.8219   -7.9731   -3.5238 H   0  0  0  0  0  0  0  0  0  0  0  0
    3.7348   -9.7040   -3.6618 H   0  0  0  0  0  0  0  0  0  0  0  0
  1  2  1  0  0  0  0
  1 32  1  0  0  0  0
  1 33  1  0  0  0  0
  1 34  1  0  0  0  0
  2  3  1  0  0  0  0
  3  4  2  0  0  0  0
  3  8  1  0  0  0  0
  4  5  1  0  0  0  0
  4 35  1  0  0  0  0
  5  6  2  0  0  0  0
  5 36  1  0  0  0  0
  6  7  1  0  0  0  0
  6 14  1  0  0  0  0
  7  8  2  0  0  0  0
  7 37  1  0  0  0  0
  8  9  1  0  0  0  0
  9 10  1  0  0  0  0
 10 11  2  0  0  0  0
 10 12  1  0  0  0  0
 10 13  1  0  0  0  0
 12 38  1  0  0  0  0
 13 39  1  0  0  0  0
 14 15  1  0  0  0  0
 14 40  1  0  0  0  0
 14 41  1  0  0  0  0
 15 16  2  0  0  0  0
 15 17  2  0  0  0  0
 15 18  1  0  0  0  0
 18 19  2  0  0  0  0
 18 42  1  0  0  0  0
 19 20  1  0  0  0  0
 19 43  1  0  0  0  0
 20 21  2  0  0  0  0
 20 25  1  0  0  0  0
 21 22  1  0  0  0  0
 21 30  1  0  0  0  0
 22 23  2  0  0  0  0
 22 44  1  0  0  0  0
 23 24  1  0  0  0  0
 23 28  1  0  0  0  0
 24 25  2  0  0  0  0
 24 45  1  0  0  0  0
 25 26  1  0  0  0  0
 26 27  1  0  0  0  0
 27 46  1  0  0  0  0
 27 47  1  0  0  0  0
 27 48  1  0  0  0  0
 28 29  1  0  0  0  0
 29 49  1  0  0  0  0
 29 50  1  0  0  0  0
 29 51  1  0  0  0  0
 30 31  1  0  0  0  0
 31 52  1  0  0  0  0
 31 53  1  0  0  0  0
 31 54  1  0  0  0  0
M  END
>  <DRUGBANK_ID>
DB12004

>  <COMMON_NAME>
Briciclib

>  <CAS_NUMBER>
865783-99-9

>  <UNII>
WG93X96336

>  <SYNONYMS>
Briciclib

$$$$
