
 OpenBabel10282417233D

 55 59  0  0  0  0  0  0  0  0999 V2000
   -0.0104   -0.2683   -0.3214 C   0  0  0  0  0  0  0  0  0  0  0  0
   -0.2661   -0.0316    1.1491 C   0  0  0  0  0  0  0  0  0  0  0  0
   -0.4417   -1.0865    1.9705 N   0  0  0  0  0  0  0  0  0  0  0  0
   -0.4371   -0.5597    3.2248 N   0  0  0  0  0  0  0  0  0  0  0  0
   -0.3486    0.8109    3.1980 C   0  0  0  0  0  0  0  0  0  0  0  0
   -0.0844    1.1827    1.8996 C   0  0  0  0  0  0  0  0  0  0  0  0
    0.4080    2.5278    1.4785 C   0  0  0  0  0  0  0  0  0  0  0  0
    1.8707    2.5731    1.2908 N   0  0  0  0  0  0  0  0  0  0  0  0
    2.3734    1.6043    0.3184 C   0  0  0  0  0  0  0  0  0  0  0  0
    2.7044    0.1945    0.9246 C   0  0  0  0  0  0  0  0  0  0  0  0
    3.5207    0.2200    2.2135 C   0  0  0  0  0  0  0  0  0  0  0  0
    2.9380    1.2553    3.1603 C   0  0  0  0  0  0  0  0  0  0  0  0
    2.6692    2.6102    2.5185 C   0  0  0  0  0  0  0  0  0  0  0  0
    3.3644   -1.0505    2.9464 O   0  0  0  0  0  0  0  0  0  0  0  0
    4.5645   -1.7506    3.3516 C   0  0  0  0  0  0  0  0  0  0  0  0
    5.4236   -2.0215    2.1117 C   0  0  0  0  0  0  0  0  0  0  0  0
    4.6654   -2.7143    1.2130 F   0  0  0  0  0  0  0  0  0  0  0  0
    6.4900   -2.7986    2.3996 F   0  0  0  0  0  0  0  0  0  0  0  0
    5.8153   -0.6647    1.5930 C   0  0  0  0  0  0  0  0  0  0  0  0
    4.9283    0.3757    1.7385 C   0  0  0  0  0  0  0  0  0  0  0  0
    5.5097    1.8231    1.0633 S   0  0  0  0  0  0  0  0  0  0  0  0
    6.9476    1.1204    0.6383 C   0  0  0  0  0  0  0  0  0  0  0  0
    8.0856    2.1245   -0.1340 Cl  0  0  0  0  0  0  0  0  0  0  0  0
    7.0513   -0.2096    1.0307 C   0  0  0  0  0  0  0  0  0  0  0  0
   -0.7297   -1.3256    4.3936 C   0  0  0  0  0  0  0  0  0  0  0  0
    0.2546   -2.0940    4.9507 N   0  0  0  0  0  0  0  0  0  0  0  0
   -0.0394   -2.7325    6.1091 C   0  0  0  0  0  0  0  0  0  0  0  0
   -1.2637   -2.6408    6.7486 C   0  0  0  0  0  0  0  0  0  0  0  0
   -2.2515   -1.8540    6.1649 C   0  0  0  0  0  0  0  0  0  0  0  0
   -1.9968   -1.1682    4.9696 C   0  0  0  0  0  0  0  0  0  0  0  0
   -3.0998   -0.3964    4.2962 C   0  0  0  0  0  0  0  0  0  0  0  0
   -2.8948    1.0081    4.3079 O   0  0  0  0  0  0  0  0  0  0  0  0
   -0.4631    0.5173   -0.9278 H   0  0  0  0  0  0  0  0  0  0  0  0
   -0.2959   -1.2684   -0.6439 H   0  0  0  0  0  0  0  0  0  0  0  0
    1.0428   -0.2563   -0.6107 H   0  0  0  0  0  0  0  0  0  0  0  0
   -0.3470    1.3831    4.1150 H   0  0  0  0  0  0  0  0  0  0  0  0
   -0.1014    2.8403    0.5601 H   0  0  0  0  0  0  0  0  0  0  0  0
    0.1360    3.2822    2.2305 H   0  0  0  0  0  0  0  0  0  0  0  0
    1.6779    1.5849   -0.5292 H   0  0  0  0  0  0  0  0  0  0  0  0
    3.2441    2.0210   -0.1965 H   0  0  0  0  0  0  0  0  0  0  0  0
    1.8508   -0.3683    1.2417 H   0  0  0  0  0  0  0  0  0  0  0  0
    3.1251   -0.4602    0.1472 H   0  0  0  0  0  0  0  0  0  0  0  0
    1.9951    0.8624    3.5398 H   0  0  0  0  0  0  0  0  0  0  0  0
    3.5397    1.3416    4.0686 H   0  0  0  0  0  0  0  0  0  0  0  0
    3.6248    3.0861    2.2921 H   0  0  0  0  0  0  0  0  0  0  0  0
    2.2276    3.2901    3.2525 H   0  0  0  0  0  0  0  0  0  0  0  0
    4.2837   -2.6869    3.8509 H   0  0  0  0  0  0  0  0  0  0  0  0
    5.1126   -1.1577    4.0992 H   0  0  0  0  0  0  0  0  0  0  0  0
    7.9340   -0.7926    0.9192 H   0  0  0  0  0  0  0  0  0  0  0  0
    0.7572   -3.3419    6.5318 H   0  0  0  0  0  0  0  0  0  0  0  0
   -1.4544   -3.1794    7.6718 H   0  0  0  0  0  0  0  0  0  0  0  0
   -3.2319   -1.7989    6.6319 H   0  0  0  0  0  0  0  0  0  0  0  0
   -3.2252   -0.7452    3.2652 H   0  0  0  0  0  0  0  0  0  0  0  0
   -4.0470   -0.5637    4.8121 H   0  0  0  0  0  0  0  0  0  0  0  0
   -2.4334    1.2446    5.1282 H   0  0  0  0  0  0  0  0  0  0  0  0
  1  2  1  0  0  0  0
  1 33  1  0  0  0  0
  1 34  1  0  0  0  0
  1 35  1  0  0  0  0
  2  3  2  0  0  0  0
  2  6  1  0  0  0  0
  3  4  1  0  0  0  0
  4  5  1  0  0  0  0
  4 25  1  0  0  0  0
  5  6  2  0  0  0  0
  5 36  1  0  0  0  0
  6  7  1  0  0  0  0
  7  8  1  0  0  0  0
  7 37  1  0  0  0  0
  7 38  1  0  0  0  0
  8  9  1  0  0  0  0
  8 13  1  0  0  0  0
  9 10  1  0  0  0  0
  9 39  1  0  0  0  0
  9 40  1  0  0  0  0
 10 11  1  0  0  0  0
 10 41  1  0  0  0  0
 10 42  1  0  0  0  0
 11 12  1  0  0  0  0
 11 14  1  0  0  0  0
 11 20  1  0  0  0  0
 12 13  1  0  0  0  0
 12 43  1  0  0  0  0
 12 44  1  0  0  0  0
 13 45  1  0  0  0  0
 13 46  1  0  0  0  0
 14 15  1  0  0  0  0
 15 16  1  0  0  0  0
 15 47  1  0  0  0  0
 15 48  1  0  0  0  0
 16 17  1  0  0  0  0
 16 18  1  0  0  0  0
 16 19  1  0  0  0  0
 19 20  2  0  0  0  0
 19 24  1  0  0  0  0
 20 21  1  0  0  0  0
 21 22  1  0  0  0  0
 22 23  1  0  0  0  0
 22 24  2  0  0  0  0
 24 49  1  0  0  0  0
 25 26  2  0  0  0  0
 25 30  1  0  0  0  0
 26 27  1  0  0  0  0
 27 28  2  0  0  0  0
 27 50  1  0  0  0  0
 28 29  1  0  0  0  0
 28 51  1  0  0  0  0
 29 30  2  0  0  0  0
 29 52  1  0  0  0  0
 30 31  1  0  0  0  0
 31 32  1  0  0  0  0
 31 53  1  0  0  0  0
 31 54  1  0  0  0  0
 32 55  1  0  0  0  0
M  END
>  <DRUGBANK_ID>
DB16048

>  <COMMON_NAME>
BTRX-246040

>  <CAS_NUMBER>
1307245-86-8

>  <UNII>
4I67US2V8Q

$$$$
