RXD
 OpenBabel10282417173D

 49 51  0  0  0  0  0  0  0  0999 V2000
    1.2358    0.6333    0.0115 F   0  0  0  0  0  0  0  0  0  0  0  0
    2.5088    0.1543    0.0600 C   0  0  0  0  0  0  0  0  0  0  0  0
    2.8121   -0.4047    1.4389 C   0  0  0  0  0  0  0  0  0  0  0  0
    2.1980   -1.6440    1.7584 O   0  0  0  0  0  0  0  0  0  0  0  0
    0.8288   -1.6714    1.8137 C   0  0  0  0  0  0  0  0  0  0  0  0
    0.0168   -1.5238    0.7108 C   0  0  0  0  0  0  0  0  0  0  0  0
   -1.3233   -1.8785    0.7773 C   0  0  0  0  0  0  0  0  0  0  0  0
   -1.8077   -2.5933    1.8971 C   0  0  0  0  0  0  0  0  0  0  0  0
    0.3185   -2.3014    2.9374 C   0  0  0  0  0  0  0  0  0  0  0  0
   -0.9395   -2.8844    2.9822 C   0  0  0  0  0  0  0  0  0  0  0  0
   -1.2077   -3.8867    3.9865 N   0  0  0  0  0  0  0  0  0  0  0  0
   -0.2748   -4.6515    4.7600 C   0  0  0  0  0  0  0  0  0  0  0  0
   -0.5955   -5.5341    5.5764 O   0  0  0  0  0  0  0  0  0  0  0  0
    1.2093   -4.6607    4.4053 C   0  0  0  0  0  0  0  0  0  0  0  0
    1.7452   -5.0422    2.9808 C   0  0  0  0  0  0  0  0  0  0  0  0
    1.1386   -4.6929    1.6052 C   0  0  0  0  0  0  0  0  0  0  0  0
    1.8639   -4.1030    0.7860 O   0  0  0  0  0  0  0  0  0  0  0  0
   -0.1226   -5.0889    1.1735 N   0  0  0  0  0  0  0  0  0  0  0  0
   -1.1356   -5.9505    1.7276 C   0  0  0  0  0  0  0  0  0  0  0  0
   -1.1465   -6.3997    3.0232 C   0  0  0  0  0  0  0  0  0  0  0  0
   -2.2878   -6.8502    3.8913 C   0  0  0  0  0  0  0  0  0  0  0  0
   -3.4763   -7.1956    3.3255 C   0  0  0  0  0  0  0  0  0  0  0  0
   -3.3417   -7.0238    1.9264 C   0  0  0  0  0  0  0  0  0  0  0  0
   -4.3286   -7.6940    1.1445 C   0  0  0  0  0  0  0  0  0  0  0  0
   -4.4132   -7.4234   -0.0533 O   0  0  0  0  0  0  0  0  0  0  0  0
   -2.2753   -6.3641    1.1327 C   0  0  0  0  0  0  0  0  0  0  0  0
   -4.7033   -8.1520    3.9283 C   0  0  0  0  0  0  0  0  0  0  0  0
   -5.3726   -8.2996    4.9378 O   0  0  0  0  0  0  0  0  0  0  0  0
   -4.7708   -9.1774    3.0560 N   0  0  0  0  0  0  0  0  0  0  0  0
   -5.1977   -8.6989    1.8510 C   0  0  0  0  0  0  0  0  0  0  0  0
   -6.3372   -8.8930    1.3767 O   0  0  0  0  0  0  0  0  0  0  0  0
    2.6419   -0.5985   -0.7263 H   0  0  0  0  0  0  0  0  0  0  0  0
    3.1334    1.0199   -0.1425 H   0  0  0  0  0  0  0  0  0  0  0  0
    3.8930   -0.5988    1.4790 H   0  0  0  0  0  0  0  0  0  0  0  0
    2.5735    0.3048    2.2322 H   0  0  0  0  0  0  0  0  0  0  0  0
    0.4282   -1.2489   -0.2518 H   0  0  0  0  0  0  0  0  0  0  0  0
   -1.9159   -1.6906   -0.1183 H   0  0  0  0  0  0  0  0  0  0  0  0
   -2.8063   -3.0128    1.7779 H   0  0  0  0  0  0  0  0  0  0  0  0
    1.0692   -2.5255    3.6600 H   0  0  0  0  0  0  0  0  0  0  0  0
   -2.1269   -4.3223    3.8822 H   0  0  0  0  0  0  0  0  0  0  0  0
    1.5590   -3.7337    4.8573 H   0  0  0  0  0  0  0  0  0  0  0  0
    1.7017   -5.3978    5.0648 H   0  0  0  0  0  0  0  0  0  0  0  0
    2.7713   -4.6403    2.9769 H   0  0  0  0  0  0  0  0  0  0  0  0
    1.8759   -6.1279    2.8905 H   0  0  0  0  0  0  0  0  0  0  0  0
   -0.4030   -4.4618    0.4100 H   0  0  0  0  0  0  0  0  0  0  0  0
   -0.1912   -6.1888    3.4231 H   0  0  0  0  0  0  0  0  0  0  0  0
   -2.1901   -6.8407    4.9792 H   0  0  0  0  0  0  0  0  0  0  0  0
   -2.3434   -6.3022    0.0479 H   0  0  0  0  0  0  0  0  0  0  0  0
   -3.8089   -9.4788    3.1794 H   0  0  0  0  0  0  0  0  0  0  0  0
  1  2  1  0  0  0  0
  2  3  1  0  0  0  0
  2 32  1  0  0  0  0
  2 33  1  0  0  0  0
  3  4  1  0  0  0  0
  3 34  1  0  0  0  0
  3 35  1  0  0  0  0
  4  5  1  0  0  0  0
  5  6  2  0  0  0  0
  5  9  1  0  0  0  0
  6  7  1  0  0  0  0
  6 36  1  0  0  0  0
  7  8  2  0  0  0  0
  7 37  1  0  0  0  0
  8 10  1  0  0  0  0
  8 38  1  0  0  0  0
  9 10  2  0  0  0  0
  9 39  1  0  0  0  0
 10 11  1  0  0  0  0
 11 12  1  0  0  0  0
 11 40  1  0  0  0  0
 12 13  2  0  0  0  0
 12 14  1  0  0  0  0
 14 15  1  0  0  0  0
 14 41  1  0  0  0  0
 14 42  1  0  0  0  0
 15 16  1  0  0  0  0
 15 43  1  0  0  0  0
 15 44  1  0  0  0  0
 16 17  2  0  0  0  0
 16 18  1  0  0  0  0
 18 19  1  0  0  0  0
 18 45  1  0  0  0  0
 19 20  2  0  0  0  0
 19 26  1  0  0  0  0
 20 21  1  0  0  0  0
 20 46  1  0  0  0  0
 21 22  2  0  0  0  0
 21 47  1  0  0  0  0
 22 23  1  0  0  0  0
 22 27  1  0  0  0  0
 23 24  1  0  0  0  0
 23 26  2  0  0  0  0
 24 25  2  0  0  0  0
 24 30  1  0  0  0  0
 26 48  1  0  0  0  0
 27 28  2  0  0  0  0
 27 29  1  0  0  0  0
 29 30  1  0  0  0  0
 29 49  1  0  0  0  0
 30 31  2  0  0  0  0
M  END
>  <DRUGBANK_ID>
DB08499

>  <COMMON_NAME>
N-[3-(2-fluoroethoxy)phenyl]-N'-(1,3,4-trioxo-1,2,3,4-tetrahydroisoquinolin-6-yl)butanediamide

$$$$
