23C
 OpenBabel10282417163D

 44 47  0  0  0  0  0  0  0  0999 V2000
   -4.9854   -3.1444    3.4359 C   0  0  0  0  0  0  0  0  0  0  0  0
   -5.0973   -1.7602    3.6240 C   0  0  0  0  0  0  0  0  0  0  0  0
   -5.8540   -1.2668    4.6787 C   0  0  0  0  0  0  0  0  0  0  0  0
   -6.4788   -2.1400    5.5673 C   0  0  0  0  0  0  0  0  0  0  0  0
   -6.3651   -3.5149    5.4179 C   0  0  0  0  0  0  0  0  0  0  0  0
   -5.6458   -4.0314    4.3617 C   0  0  0  0  0  0  0  0  0  0  0  0
   -5.6129   -5.4252    4.2491 C   0  0  0  0  0  0  0  0  0  0  0  0
   -4.9705   -5.9719    3.1909 C   0  0  0  0  0  0  0  0  0  0  0  0
   -4.4424   -5.0911    2.2759 C   0  0  0  0  0  0  0  0  0  0  0  0
   -4.2995   -3.7029    2.3653 C   0  0  0  0  0  0  0  0  0  0  0  0
   -3.4906   -2.9624    1.2935 C   0  0  0  0  0  0  0  0  0  0  0  0
   -2.0127   -3.4481    1.1601 C   0  0  2  0  0  0  0  0  0  0  0  0
   -1.2742   -2.8908   -0.0636 C   0  0  0  0  0  0  0  0  0  0  0  0
   -1.3195   -1.5531   -0.2444 O   0  0  0  0  0  0  0  0  0  0  0  0
   -0.6138   -3.5884   -0.8275 O   0  0  0  0  0  0  0  0  0  0  0  0
   -1.8733   -4.9102    1.0097 N   0  0  0  0  0  0  0  0  0  0  0  0
   -2.6278   -5.6668    0.1415 C   0  0  0  0  0  0  0  0  0  0  0  0
   -3.4742   -5.3020   -0.6541 O   0  0  0  0  0  0  0  0  0  0  0  0
   -2.4688   -7.0644    0.5645 C   0  0  0  0  0  0  0  0  0  0  0  0
   -3.2474   -8.1817    0.2830 C   0  0  0  0  0  0  0  0  0  0  0  0
   -2.7976   -9.4123    0.7761 C   0  0  0  0  0  0  0  0  0  0  0  0
   -3.4365  -10.6999    0.3840 C   0  0  0  0  0  0  0  0  0  0  0  0
   -3.0194  -11.8070    0.6671 O   0  0  0  0  0  0  0  0  0  0  0  0
   -4.5399  -10.5332   -0.3675 O   0  0  0  0  0  0  0  0  0  0  0  0
   -1.6546   -9.4547    1.6133 C   0  0  0  0  0  0  0  0  0  0  0  0
   -1.0047   -8.2794    2.0273 C   0  0  0  0  0  0  0  0  0  0  0  0
   -1.4471   -7.0878    1.4945 C   0  0  0  0  0  0  0  0  0  0  0  0
   -1.0827   -5.6973    1.7907 C   0  0  0  0  0  0  0  0  0  0  0  0
   -0.2677   -5.3587    2.6422 O   0  0  0  0  0  0  0  0  0  0  0  0
   -1.4626   -3.1319    2.0598 H   0  0  0  0  0  0  0  0  0  0  0  0
   -4.6337   -1.0445    2.9529 H   0  0  0  0  0  0  0  0  0  0  0  0
   -5.9579   -0.1941    4.8036 H   0  0  0  0  0  0  0  0  0  0  0  0
   -7.0665   -1.7531    6.3899 H   0  0  0  0  0  0  0  0  0  0  0  0
   -6.8457   -4.1869    6.1231 H   0  0  0  0  0  0  0  0  0  0  0  0
   -6.1249   -6.0991    4.9274 H   0  0  0  0  0  0  0  0  0  0  0  0
   -4.9169   -7.0374    2.9912 H   0  0  0  0  0  0  0  0  0  0  0  0
   -4.2187   -5.6048    1.3866 H   0  0  0  0  0  0  0  0  0  0  0  0
   -4.0048   -3.0325    0.3271 H   0  0  0  0  0  0  0  0  0  0  0  0
   -3.4645   -1.8830    1.4930 H   0  0  0  0  0  0  0  0  0  0  0  0
   -1.8021   -1.0112    0.4027 H   0  0  0  0  0  0  0  0  0  0  0  0
   -4.1653   -8.0971   -0.2938 H   0  0  0  0  0  0  0  0  0  0  0  0
   -4.8347  -11.4412   -0.5994 H   0  0  0  0  0  0  0  0  0  0  0  0
   -1.2646  -10.4177    1.9420 H   0  0  0  0  0  0  0  0  0  0  0  0
   -0.1621   -8.3043    2.7103 H   0  0  0  0  0  0  0  0  0  0  0  0
  1  2  2  0  0  0  0
  1  6  1  0  0  0  0
  1 10  1  0  0  0  0
  2  3  1  0  0  0  0
  2 31  1  0  0  0  0
  3  4  2  0  0  0  0
  3 32  1  0  0  0  0
  4  5  1  0  0  0  0
  4 33  1  0  0  0  0
  5  6  2  0  0  0  0
  5 34  1  0  0  0  0
  6  7  1  0  0  0  0
  7  8  2  0  0  0  0
  7 35  1  0  0  0  0
  8  9  1  0  0  0  0
  8 36  1  0  0  0  0
  9 10  2  0  0  0  0
  9 37  1  0  0  0  0
 10 11  1  0  0  0  0
 11 38  1  0  0  0  0
 11 39  1  0  0  0  0
 12 16  1  0  0  0  0
 12 30  1  1  0  0  0
 12 13  1  0  0  0  0
 12 11  1  0  0  0  0
 13 14  1  0  0  0  0
 13 15  2  0  0  0  0
 14 40  1  0  0  0  0
 16 17  1  0  0  0  0
 16 28  1  0  0  0  0
 17 18  2  0  0  0  0
 17 19  1  0  0  0  0
 19 20  2  0  0  0  0
 19 27  1  0  0  0  0
 20 21  1  0  0  0  0
 20 41  1  0  0  0  0
 21 22  1  0  0  0  0
 21 25  2  0  0  0  0
 22 23  2  0  0  0  0
 22 24  1  0  0  0  0
 24 42  1  0  0  0  0
 25 26  1  0  0  0  0
 25 43  1  0  0  0  0
 26 27  2  0  0  0  0
 26 44  1  0  0  0  0
 27 28  1  0  0  0  0
 28 29  2  0  0  0  0
M  END
>  <DRUGBANK_ID>
DB06922

>  <COMMON_NAME>
2-[(1R)-1-carboxy-2-naphthalen-1-ylethyl]-1,3-dioxo-2,3-dihydro-1H-isoindole-5-carboxylic acid

$$$$
