
 OpenBabel10282417203D

 61 65  0  0  1  0  0  0  0  0999 V2000
   -1.1704   -3.8679    7.8859 C   0  0  0  0  0  0  0  0  0  0  0  0
   -0.0765   -5.3758    7.4647 C   0  0  2  0  0  0  0  0  0  0  0  0
    0.6749   -5.3480    6.1464 C   0  0  0  0  0  0  0  0  0  0  0  0
    0.0691   -4.3773    5.0721 C   0  0  0  0  0  0  0  0  0  0  0  0
   -1.3117   -4.9151    4.4322 C   0  0  2  0  0  0  0  0  0  0  0  0
   -2.1836   -4.1686    2.8486 C   0  0  1  0  0  0  0  0  0  0  0  0
   -3.2289   -3.8847    1.2105 C   0  0  0  0  0  0  0  0  0  0  0  0
   -4.3110   -2.3589    1.1709 C   0  0  0  0  0  0  0  0  0  0  0  0
   -5.1276   -3.1709    2.0544 C   0  0  0  0  0  0  0  0  0  0  0  0
   -4.3454   -3.1634    3.1598 C   0  0  0  0  0  0  0  0  0  0  0  0
   -3.5049   -4.2320    3.6167 C   0  0  0  0  0  0  0  0  0  0  0  0
   -3.9605   -5.3328    4.2416 C   0  0  0  0  0  0  0  0  0  0  0  0
   -3.2905   -6.1313    5.3973 C   0  0  0  0  0  0  0  0  0  0  0  0
   -2.1273   -5.3119    6.0449 C   0  0  1  0  0  0  0  0  0  0  0  0
   -1.3026   -5.7233    7.8217 C   0  0  2  0  0  0  0  0  0  0  0  0
    0.0320   -4.9977    9.1569 C   0  0  0  0  0  0  0  0  0  0  0  0
    1.4331   -5.7379    9.2684 C   0  0  0  0  0  0  0  0  0  0  0  0
    0.5222   -6.6343    8.6631 C   0  0  1  0  0  0  0  0  0  0  0  0
   -0.4014   -7.1757    9.7421 C   0  0  0  0  0  0  0  0  0  0  0  0
   -1.1936   -7.6401   10.6677 C   0  0  0  0  0  0  0  0  0  0  0  0
    1.1754   -7.7049    8.0025 O   0  0  0  0  0  0  0  0  0  0  0  0
   -5.7013   -4.0966    1.2732 O   0  0  0  0  0  0  0  0  0  0  0  0
   -6.8149   -3.7828    0.4224 C   0  0  0  0  0  0  0  0  0  0  0  0
   -7.8496   -2.6823    0.7370 C   0  0  0  0  0  0  0  0  0  0  0  0
   -9.1636   -3.4416    0.9282 C   0  0  0  0  0  0  0  0  0  0  0  0
   -8.8871   -4.9106    0.6217 C   0  0  0  0  0  0  0  0  0  0  0  0
   -7.4393   -5.0748    0.8504 C   0  0  0  0  0  0  0  0  0  0  0  0
   -2.1642   -4.1639    8.4110 H   0  0  0  0  0  0  0  0  0  0  0  0
   -1.3707   -3.2847    7.0152 H   0  0  0  0  0  0  0  0  0  0  0  0
   -0.8707   -3.1681    8.6781 H   0  0  0  0  0  0  0  0  0  0  0  0
    1.6697   -4.9791    6.4445 H   0  0  0  0  0  0  0  0  0  0  0  0
    0.8677   -6.3584    5.7645 H   0  0  0  0  0  0  0  0  0  0  0  0
   -0.0538   -3.4298    5.6107 H   0  0  0  0  0  0  0  0  0  0  0  0
    0.8630   -4.2125    4.3458 H   0  0  0  0  0  0  0  0  0  0  0  0
   -1.0309   -5.8918    4.0279 H   0  0  0  0  0  0  0  0  0  0  0  0
   -1.5668   -3.2890    2.6891 H   0  0  0  0  0  0  0  0  0  0  0  0
   -2.8450   -3.5991    0.2060 H   0  0  0  0  0  0  0  0  0  0  0  0
   -3.6861   -4.8408    0.8008 H   0  0  0  0  0  0  0  0  0  0  0  0
   -5.3300   -1.8349    1.2839 H   0  0  0  0  0  0  0  0  0  0  0  0
   -4.4588   -2.1607    0.1034 H   0  0  0  0  0  0  0  0  0  0  0  0
   -3.5901   -2.3292    3.0870 H   0  0  0  0  0  0  0  0  0  0  0  0
   -4.9460   -5.6484    3.9120 H   0  0  0  0  0  0  0  0  0  0  0  0
   -4.0853   -6.3176    6.1249 H   0  0  0  0  0  0  0  0  0  0  0  0
   -2.9341   -7.0778    4.9854 H   0  0  0  0  0  0  0  0  0  0  0  0
   -2.6971   -4.4172    6.3221 H   0  0  0  0  0  0  0  0  0  0  0  0
   -1.7017   -6.7462    8.0569 H   0  0  0  0  0  0  0  0  0  0  0  0
   -0.1886   -4.6923   10.2152 H   0  0  0  0  0  0  0  0  0  0  0  0
    0.5810   -4.0337    8.8615 H   0  0  0  0  0  0  0  0  0  0  0  0
    1.8786   -6.1618   10.1750 H   0  0  0  0  0  0  0  0  0  0  0  0
    2.2371   -5.3841    8.6008 H   0  0  0  0  0  0  0  0  0  0  0  0
   -1.8433   -8.0205   11.4218 H   0  0  0  0  0  0  0  0  0  0  0  0
    1.6444   -8.2144    8.6862 H   0  0  0  0  0  0  0  0  0  0  0  0
   -6.6380   -3.7763   -0.6769 H   0  0  0  0  0  0  0  0  0  0  0  0
   -7.6236   -2.0688    1.6137 H   0  0  0  0  0  0  0  0  0  0  0  0
   -7.9660   -1.9604   -0.0937 H   0  0  0  0  0  0  0  0  0  0  0  0
   -9.4804   -3.3096    1.9676 H   0  0  0  0  0  0  0  0  0  0  0  0
   -9.9582   -3.0656    0.2773 H   0  0  0  0  0  0  0  0  0  0  0  0
   -9.4089   -5.5945    1.2918 H   0  0  0  0  0  0  0  0  0  0  0  0
   -9.0870   -5.1543   -0.4213 H   0  0  0  0  0  0  0  0  0  0  0  0
   -6.9361   -5.9072    0.3437 H   0  0  0  0  0  0  0  0  0  0  0  0
   -7.2555   -5.2131    1.9318 H   0  0  0  0  0  0  0  0  0  0  0  0
  1 28  1  0  0  0  0
  1 29  1  0  0  0  0
  1 30  1  0  0  0  0
  2  1  1  1  0  0  0
  2  3  1  0  0  0  0
  2 15  1  0  0  0  0
  2 18  1  0  0  0  0
  3  4  1  0  0  0  0
  3 31  1  0  0  0  0
  3 32  1  0  0  0  0
  4 33  1  0  0  0  0
  4 34  1  0  0  0  0
  5  4  1  0  0  0  0
  5  6  1  0  0  0  0
  5 14  1  0  0  0  0
  5 35  1  6  0  0  0
  6  7  1  0  0  0  0
  6 11  1  0  0  0  0
  6 36  1  1  0  0  0
  7  8  1  0  0  0  0
  7 37  1  0  0  0  0
  7 38  1  0  0  0  0
  8  9  1  0  0  0  0
  8 39  1  0  0  0  0
  8 40  1  0  0  0  0
  9 10  2  0  0  0  0
  9 22  1  0  0  0  0
 10 11  1  0  0  0  0
 10 41  1  0  0  0  0
 11 12  2  0  0  0  0
 12 13  1  0  0  0  0
 12 42  1  0  0  0  0
 13 43  1  0  0  0  0
 13 44  1  0  0  0  0
 14 13  1  0  0  0  0
 14 15  1  0  0  0  0
 14 45  1  1  0  0  0
 15 16  1  0  0  0  0
 15 46  1  1  0  0  0
 16 17  1  0  0  0  0
 16 47  1  0  0  0  0
 16 48  1  0  0  0  0
 17 18  1  0  0  0  0
 17 49  1  0  0  0  0
 17 50  1  0  0  0  0
 18 19  1  1  0  0  0
 18 21  1  0  0  0  0
 19 20  3  0  0  0  0
 20 51  1  0  0  0  0
 21 52  1  0  0  0  0
 22 23  1  0  0  0  0
 23 24  1  0  0  0  0
 23 27  1  0  0  0  0
 23 53  1  0  0  0  0
 24 25  1  0  0  0  0
 24 54  1  0  0  0  0
 24 55  1  0  0  0  0
 25 26  1  0  0  0  0
 25 56  1  0  0  0  0
 25 57  1  0  0  0  0
 26 27  1  0  0  0  0
 26 58  1  0  0  0  0
 26 59  1  0  0  0  0
 27 60  1  0  0  0  0
 27 61  1  0  0  0  0
M  END
>  <DRUGBANK_ID>
DB13685

>  <COMMON_NAME>
Quingestanol

>  <CAS_NUMBER>
10592-65-1

>  <UNII>
1A635076CE

>  <SYNONYMS>
Quingestanol

$$$$
