
 OpenBabel10282417123D

 84 86  0  0  0  0  0  0  0  0999 V2000
    1.3597   -5.5131    1.4599 F   0  0  0  0  0  0  0  0  0  0  0  0
    7.6339    3.6252    4.3377 O   0  0  0  0  0  0  0  0  0  0  0  0
    3.3612    2.6704    4.0443 O   0  0  0  0  0  0  0  0  0  0  0  0
    0.9497    2.5539    1.1072 O   0  0  0  0  0  0  0  0  0  0  0  0
    5.9190   -2.4980    5.0651 O   0  0  0  0  0  0  0  0  0  0  0  0
    5.3199   -1.4225    3.2528 O   0  0  0  0  0  0  0  0  0  0  0  0
   -0.9297   -2.8659    2.5781 O   0  0  0  0  0  0  0  0  0  0  0  0
    1.6873   -2.2884    6.1234 O   0  0  0  0  0  0  0  0  0  0  0  0
    5.2763    2.1020    3.3136 N   0  0  0  0  0  0  0  0  0  0  0  0
    9.4170    2.7103    3.1822 N   0  0  0  0  0  0  0  0  0  0  0  0
   -0.3840   -0.6818    2.3667 N   0  0  0  0  0  0  0  0  0  0  0  0
    1.0479   -2.9262    5.0338 N   0  0  0  0  0  0  0  0  0  0  0  0
    7.5135    3.2178    1.9248 C   0  0  2  0  0  0  0  0  0  0  0  0
    6.7969    1.9335    1.5586 C   0  0  0  0  0  0  0  0  0  0  0  0
    6.2247    1.2282    2.7355 C   0  0  1  0  0  0  0  0  0  0  0  0
    8.7332    3.2512    1.0293 C   0  0  0  0  0  0  0  0  0  0  0  0
    9.7560    2.4401    1.8195 C   0  0  0  0  0  0  0  0  0  0  0  0
    7.0964    0.6035    3.8023 C   0  0  0  0  0  0  0  0  0  0  0  0
    8.1632    3.2754    3.2955 C   0  0  0  0  0  0  0  0  0  0  0  0
    3.4497    0.6210    2.6174 C   0  0  2  0  0  0  0  0  0  0  0  0
    3.9682    1.8590    3.3650 C   0  0  0  0  0  0  0  0  0  0  0  0
    2.6230    0.9548    1.4085 C   0  0  0  0  0  0  0  0  0  0  0  0
    6.3116   -0.0614    4.9428 C   0  0  0  0  0  0  0  0  0  0  0  0
    2.9423   -0.4572    3.5204 C   0  0  0  0  0  0  0  0  0  0  0  0
    0.0922    0.7467    2.5629 C   0  0  2  0  0  0  0  0  0  0  0  0
    1.2153    1.4658    1.6444 C   0  0  0  0  0  0  0  0  0  0  0  0
    0.2015    0.9556    4.0503 C   0  0  0  0  0  0  0  0  0  0  0  0
    2.6602   -1.8005    2.8463 C   0  0  0  0  0  0  0  0  0  0  0  0
    5.8076   -1.3592    4.4009 C   0  0  0  0  0  0  0  0  0  0  0  0
    0.8515    2.1882    4.5783 C   0  0  0  0  0  0  0  0  0  0  0  0
   -1.1011    0.7925    4.7451 C   0  0  0  0  0  0  0  0  0  0  0  0
    3.0395   -2.9916    3.4771 C   0  0  0  0  0  0  0  0  0  0  0  0
    1.9619   -1.9706    1.6430 C   0  0  0  0  0  0  0  0  0  0  0  0
   -0.4389   -1.9022    3.1804 C   0  0  0  0  0  0  0  0  0  0  0  0
    2.5959   -4.2446    3.0231 C   0  0  0  0  0  0  0  0  0  0  0  0
    1.5715   -3.2072    1.1374 C   0  0  0  0  0  0  0  0  0  0  0  0
    1.8644   -4.3399    1.8546 C   0  0  0  0  0  0  0  0  0  0  0  0
    7.0464   -2.6923    5.9010 C   0  0  0  0  0  0  0  0  0  0  0  0
    0.0742   -2.0765    4.6397 C   0  0  0  0  0  0  0  0  0  0  0  0
    8.3579   -2.3196    5.2229 C   0  0  0  0  0  0  0  0  0  0  0  0
   -0.3694   -1.5931    5.8997 C   0  0  0  0  0  0  0  0  0  0  0  0
    0.7902   -1.4017    6.6199 C   0  0  0  0  0  0  0  0  0  0  0  0
    1.1283   -0.5166    7.7540 C   0  0  0  0  0  0  0  0  0  0  0  0
    5.5612    2.9369    3.8291 H   0  0  0  0  0  0  0  0  0  0  0  0
    9.9775    2.4961    3.9995 H   0  0  0  0  0  0  0  0  0  0  0  0
   -0.7179   -0.8468    1.4185 H   0  0  0  0  0  0  0  0  0  0  0  0
    6.8352    4.0713    1.8320 H   0  0  0  0  0  0  0  0  0  0  0  0
    7.4015    1.2037    1.0077 H   0  0  0  0  0  0  0  0  0  0  0  0
    5.9819    2.1918    0.8557 H   0  0  0  0  0  0  0  0  0  0  0  0
    5.8145    0.3847    2.2143 H   0  0  0  0  0  0  0  0  0  0  0  0
    8.5416    2.8240    0.0392 H   0  0  0  0  0  0  0  0  0  0  0  0
    9.0467    4.2881    0.9140 H   0  0  0  0  0  0  0  0  0  0  0  0
    9.6759    1.3590    1.6477 H   0  0  0  0  0  0  0  0  0  0  0  0
   10.7737    2.7719    1.6284 H   0  0  0  0  0  0  0  0  0  0  0  0
    7.7525   -0.1021    3.2825 H   0  0  0  0  0  0  0  0  0  0  0  0
    7.7177    1.3179    4.3093 H   0  0  0  0  0  0  0  0  0  0  0  0
    4.2292    0.0968    2.1181 H   0  0  0  0  0  0  0  0  0  0  0  0
    3.1934    1.6765    0.8080 H   0  0  0  0  0  0  0  0  0  0  0  0
    2.6308    0.1219    0.7081 H   0  0  0  0  0  0  0  0  0  0  0  0
    6.9912   -0.1910    5.7863 H   0  0  0  0  0  0  0  0  0  0  0  0
    5.5148    0.5748    5.3453 H   0  0  0  0  0  0  0  0  0  0  0  0
    2.1204    0.0982    3.8108 H   0  0  0  0  0  0  0  0  0  0  0  0
    3.3672   -0.5598    4.5321 H   0  0  0  0  0  0  0  0  0  0  0  0
   -0.7794    1.3540    2.2688 H   0  0  0  0  0  0  0  0  0  0  0  0
    0.7198    0.1099    4.4570 H   0  0  0  0  0  0  0  0  0  0  0  0
    0.1124    2.9199    4.8781 H   0  0  0  0  0  0  0  0  0  0  0  0
    1.4779    1.9310    5.4484 H   0  0  0  0  0  0  0  0  0  0  0  0
    1.4177    2.6570    3.7944 H   0  0  0  0  0  0  0  0  0  0  0  0
   -1.5619   -0.1457    4.4400 H   0  0  0  0  0  0  0  0  0  0  0  0
   -0.8250    0.7954    5.8028 H   0  0  0  0  0  0  0  0  0  0  0  0
   -1.8183    1.5608    4.5395 H   0  0  0  0  0  0  0  0  0  0  0  0
    3.5017   -2.9522    4.4625 H   0  0  0  0  0  0  0  0  0  0  0  0
    1.4928   -1.1623    1.1125 H   0  0  0  0  0  0  0  0  0  0  0  0
    2.6985   -5.1123    3.6640 H   0  0  0  0  0  0  0  0  0  0  0  0
    0.8954   -3.2438    0.2898 H   0  0  0  0  0  0  0  0  0  0  0  0
    6.8528   -2.1526    6.8285 H   0  0  0  0  0  0  0  0  0  0  0  0
    7.0604   -3.7626    6.1200 H   0  0  0  0  0  0  0  0  0  0  0  0
    8.4245   -1.2761    4.9230 H   0  0  0  0  0  0  0  0  0  0  0  0
    9.1872   -2.4786    5.9079 H   0  0  0  0  0  0  0  0  0  0  0  0
    8.4943   -2.8776    4.2918 H   0  0  0  0  0  0  0  0  0  0  0  0
   -1.2868   -1.1167    6.1692 H   0  0  0  0  0  0  0  0  0  0  0  0
    0.9299   -1.0557    8.6790 H   0  0  0  0  0  0  0  0  0  0  0  0
    2.1539   -0.1269    7.7654 H   0  0  0  0  0  0  0  0  0  0  0  0
    0.4706    0.3645    7.7401 H   0  0  0  0  0  0  0  0  0  0  0  0
  1 37  1  0  0  0  0
  2 19  2  0  0  0  0
  3 21  2  0  0  0  0
  4 26  2  0  0  0  0
  5 29  1  0  0  0  0
  5 38  1  0  0  0  0
  6 29  2  0  0  0  0
  7 34  2  0  0  0  0
  8 12  1  0  0  0  0
  8 42  1  0  0  0  0
  9 21  1  0  0  0  0
  9 44  1  0  0  0  0
 10 17  1  0  0  0  0
 10 19  1  0  0  0  0
 10 45  1  0  0  0  0
 11 34  1  0  0  0  0
 11 46  1  0  0  0  0
 12 39  2  0  0  0  0
 13 16  1  0  0  0  0
 13 19  1  0  0  0  0
 13 47  1  6  0  0  0
 13 14  1  0  0  0  0
 14 15  1  0  0  0  0
 14 48  1  0  0  0  0
 14 49  1  0  0  0  0
 15  9  1  0  0  0  0
 15 18  1  0  0  0  0
 15 50  1  6  0  0  0
 16 17  1  0  0  0  0
 16 51  1  0  0  0  0
 16 52  1  0  0  0  0
 17 53  1  0  0  0  0
 17 54  1  0  0  0  0
 18 23  1  0  0  0  0
 18 55  1  0  0  0  0
 18 56  1  0  0  0  0
 20 24  1  0  0  0  0
 20 57  1  6  0  0  0
 20 22  1  0  0  0  0
 20 21  1  0  0  0  0
 22 26  1  0  0  0  0
 22 58  1  0  0  0  0
 22 59  1  0  0  0  0
 23 29  1  0  0  0  0
 23 60  1  0  0  0  0
 23 61  1  0  0  0  0
 24 28  1  0  0  0  0
 24 62  1  0  0  0  0
 24 63  1  0  0  0  0
 25 11  1  0  0  0  0
 25 26  1  0  0  0  0
 25 27  1  0  0  0  0
 25 64  1  6  0  0  0
 27 30  1  0  0  0  0
 27 31  1  0  0  0  0
 27 65  1  0  0  0  0
 28 32  2  0  0  0  0
 28 33  1  0  0  0  0
 30 66  1  0  0  0  0
 30 67  1  0  0  0  0
 30 68  1  0  0  0  0
 31 69  1  0  0  0  0
 31 70  1  0  0  0  0
 31 71  1  0  0  0  0
 32 35  1  0  0  0  0
 32 72  1  0  0  0  0
 33 36  2  0  0  0  0
 33 73  1  0  0  0  0
 34 39  1  0  0  0  0
 35 37  2  0  0  0  0
 35 74  1  0  0  0  0
 36 37  1  0  0  0  0
 36 75  1  0  0  0  0
 38 40  1  0  0  0  0
 38 76  1  0  0  0  0
 38 77  1  0  0  0  0
 39 41  1  0  0  0  0
 40 78  1  0  0  0  0
 40 79  1  0  0  0  0
 40 80  1  0  0  0  0
 41 42  2  0  0  0  0
 41 81  1  0  0  0  0
 42 43  1  0  0  0  0
 43 82  1  0  0  0  0
 43 83  1  0  0  0  0
 43 84  1  0  0  0  0
M  END
>  <DRUGBANK_ID>
DB02313

>  <SECONDARY_ACCESSION_NUMBERS>
EXPT00453

>  <COMMON_NAME>
Ethyl (4R)-4-{[(2R,5S)-2-(4-fluorobenzyl)-6-methyl-5-{[(5-methyl-1,2-oxazol-3-yl)carbonyl]amino}-4-oxoheptanoyl]amino}-5-[(3S)-2-oxo-3-pyrrolidinyl]pentanoate

$$$$
