
 OpenBabel10282417183D

 56 60  0  0  1  0  0  0  0  0999 V2000
   12.8003   -3.2714   -8.8914 C   0  0  0  0  0  0  0  0  0  0  0  0
   11.4062   -3.2625   -8.7373 C   0  0  0  0  0  0  0  0  0  0  0  0
   13.6305   -3.6685   -7.8396 C   0  0  0  0  0  0  0  0  0  0  0  0
   10.8242   -3.6352   -7.5256 C   0  0  0  0  0  0  0  0  0  0  0  0
   13.7088   -4.5470   -5.3993 C   0  0  0  0  0  0  0  0  0  0  0  0
   12.5232   -5.2342   -4.6793 C   0  0  0  0  0  0  0  0  0  0  0  0
    8.9532   -7.2241   -3.0061 C   0  0  0  0  0  0  0  0  0  0  0  0
    8.1149   -7.6786   -2.0257 C   0  0  0  0  0  0  0  0  0  0  0  0
    6.5069   -7.2319    0.6329 C   0  0  0  0  0  0  0  0  0  0  0  0
    5.2028   -8.0106   -1.2337 C   0  0  0  0  0  0  0  0  0  0  0  0
    4.7212   -8.6204    1.9179 C   0  0  0  0  0  0  0  0  0  0  0  0
    7.1958   -3.6562   -3.5860 C   0  0  0  0  0  0  0  0  0  0  0  0
   13.0408   -4.0682   -6.6494 C   0  0  0  0  0  0  0  0  0  0  0  0
    5.9251   -8.6628    0.9517 C   0  0  1  0  0  0  0  0  0  0  0  0
    6.0713   -6.8649   -0.8120 C   0  0  2  0  0  0  0  0  0  0  0  0
   11.6493   -4.0393   -6.4873 C   0  0  0  0  0  0  0  0  0  0  0  0
    8.5055   -5.9407   -3.3815 C   0  0  0  0  0  0  0  0  0  0  0  0
   11.2436   -4.4506   -5.0952 C   0  0  1  0  0  0  0  0  0  0  0  0
    5.7283   -9.2083   -0.5008 C   0  0  1  0  0  0  0  0  0  0  0  0
    8.9794   -4.9776   -4.2837 C   0  0  0  0  0  0  0  0  0  0  0  0
    7.3788   -5.6465   -2.6162 C   0  0  0  0  0  0  0  0  0  0  0  0
    2.7605  -10.2215    0.4159 N   0  0  0  0  0  0  0  0  0  0  0  0
    8.3085   -3.8048   -4.3468 N   0  0  0  0  0  0  0  0  0  0  0  0
    6.6551   -4.5149   -2.6924 N   0  0  0  0  0  0  0  0  0  0  0  0
   10.0329   -5.2527   -5.1441 N   0  0  0  0  0  0  0  0  0  0  0  0
    7.1648   -6.7153   -1.7691 N   0  0  0  0  0  0  0  0  0  0  0  0
    4.7947  -10.1350   -1.0070 O   0  0  0  0  0  0  0  0  0  0  0  0
    4.9771  -11.5687    0.7495 O   0  0  0  0  0  0  0  0  0  0  0  0
    2.9551  -12.0098    2.1179 O   0  0  0  0  0  0  0  0  0  0  0  0
    4.2912   -9.8877    2.4325 O   0  0  0  0  0  0  0  0  0  0  0  0
    3.8075  -11.0641    1.4244 S   0  0  0  0  0  0  0  0  0  0  0  0
    6.7126   -9.2178    1.4871 H   0  0  0  0  0  0  0  0  0  0  0  0
    5.4612   -5.9562   -0.8288 H   0  0  0  0  0  0  0  0  0  0  0  0
   11.1382   -3.5649   -4.4588 H   0  0  0  0  0  0  0  0  0  0  0  0
    6.6949   -9.6093   -0.8028 H   0  0  0  0  0  0  0  0  0  0  0  0
   13.2343   -2.9669   -9.8409 H   0  0  0  0  0  0  0  0  0  0  0  0
   10.7718   -2.9580   -9.5653 H   0  0  0  0  0  0  0  0  0  0  0  0
   14.7087   -3.6679   -7.9660 H   0  0  0  0  0  0  0  0  0  0  0  0
    9.7460   -3.6194   -7.3944 H   0  0  0  0  0  0  0  0  0  0  0  0
   14.0982   -3.7011   -4.8217 H   0  0  0  0  0  0  0  0  0  0  0  0
   14.5248   -5.2469   -5.6101 H   0  0  0  0  0  0  0  0  0  0  0  0
   12.4809   -6.2857   -5.0001 H   0  0  0  0  0  0  0  0  0  0  0  0
   12.6769   -5.2453   -3.5941 H   0  0  0  0  0  0  0  0  0  0  0  0
    9.8172   -7.7451   -3.3885 H   0  0  0  0  0  0  0  0  0  0  0  0
    8.1569   -8.6146   -1.4978 H   0  0  0  0  0  0  0  0  0  0  0  0
    7.6030   -7.2535    0.7009 H   0  0  0  0  0  0  0  0  0  0  0  0
    6.1694   -6.4690    1.3445 H   0  0  0  0  0  0  0  0  0  0  0  0
    5.1682   -8.2175   -2.3075 H   0  0  0  0  0  0  0  0  0  0  0  0
    4.1642   -7.8453   -0.9105 H   0  0  0  0  0  0  0  0  0  0  0  0
    5.0113   -8.0483    2.8145 H   0  0  0  0  0  0  0  0  0  0  0  0
    3.8801   -8.0688    1.4892 H   0  0  0  0  0  0  0  0  0  0  0  0
    6.6646   -2.7158   -3.7159 H   0  0  0  0  0  0  0  0  0  0  0  0
    2.7328  -10.5289   -0.5583 H   0  0  0  0  0  0  0  0  0  0  0  0
    1.8783   -9.9724    0.8474 H   0  0  0  0  0  0  0  0  0  0  0  0
   10.1242   -6.2128   -5.4442 H   0  0  0  0  0  0  0  0  0  0  0  0
    5.1257  -11.0320   -0.8006 H   0  0  0  0  0  0  0  0  0  0  0  0
  1 36  1  0  0  0  0
  2  1  2  0  0  0  0
  2 37  1  0  0  0  0
  3  1  1  0  0  0  0
  3 38  1  0  0  0  0
  4  2  1  0  0  0  0
  4 39  1  0  0  0  0
  5 40  1  0  0  0  0
  5 41  1  0  0  0  0
  6  5  1  0  0  0  0
  6 42  1  0  0  0  0
  6 43  1  0  0  0  0
  7 44  1  0  0  0  0
  8  7  2  0  0  0  0
  8 45  1  0  0  0  0
  9 46  1  0  0  0  0
  9 47  1  0  0  0  0
 10 48  1  0  0  0  0
 10 49  1  0  0  0  0
 11 50  1  0  0  0  0
 11 51  1  0  0  0  0
 12 52  1  0  0  0  0
 13  3  2  0  0  0  0
 13  5  1  0  0  0  0
 14  9  1  0  0  0  0
 14 11  1  0  0  0  0
 14 32  1  1  0  0  0
 15  9  1  0  0  0  0
 15 10  1  0  0  0  0
 15 33  1  1  0  0  0
 15 26  1  0  0  0  0
 16  4  2  0  0  0  0
 16 13  1  0  0  0  0
 17  7  1  0  0  0  0
 18  6  1  0  0  0  0
 18 16  1  0  0  0  0
 18 25  1  0  0  0  0
 18 34  1  1  0  0  0
 19 10  1  0  0  0  0
 19 14  1  0  0  0  0
 19 35  1  6  0  0  0
 19 27  1  0  0  0  0
 20 17  2  0  0  0  0
 21 17  1  0  0  0  0
 22 53  1  0  0  0  0
 22 54  1  0  0  0  0
 23 12  2  0  0  0  0
 23 20  1  0  0  0  0
 24 12  1  0  0  0  0
 24 21  2  0  0  0  0
 25 20  1  0  0  0  0
 25 55  1  0  0  0  0
 26  8  1  0  0  0  0
 26 21  1  0  0  0  0
 27 56  1  0  0  0  0
 30 11  1  0  0  0  0
 31 22  1  0  0  0  0
 31 28  2  0  0  0  0
 31 29  2  0  0  0  0
 31 30  1  0  0  0  0
M  END
>  <DRUGBANK_ID>
DB11759

>  <COMMON_NAME>
Pevonedistat

>  <CAS_NUMBER>
905579-51-3

>  <UNII>
S3AZD8D215

>  <SYNONYMS>
Pevonedistat

$$$$
