
 OpenBabel10282417183D

 28 29  0  0  0  0  0  0  0  0999 V2000
    1.1156    0.0133    0.0747 C   0  0  0  0  0  0  0  0  0  0  0  0
    6.5957   -2.1998    3.1184 C   0  0  0  0  0  0  0  0  0  0  0  0
   -1.1242   -2.9007   -0.8863 C   0  0  0  0  0  0  0  0  0  0  0  0
    5.2208   -2.1862    2.7531 C   0  0  0  0  0  0  0  0  0  0  0  0
    3.6504   -3.3395    1.1275 C   0  0  0  0  0  0  0  0  0  0  0  0
    2.8397   -2.3122    0.8240 C   0  0  0  0  0  0  0  0  0  0  0  0
   -0.2038   -4.0359   -0.5128 C   0  0  0  0  0  0  0  0  0  0  0  0
   -0.6099   -1.4952   -0.7203 C   0  0  0  0  0  0  0  0  0  0  0  0
    7.3099   -3.1131    2.3793 C   0  0  0  0  0  0  0  0  0  0  0  0
    4.9100   -3.0870    1.7465 C   0  0  0  0  0  0  0  0  0  0  0  0
    1.4745   -2.4719    0.2063 C   0  0  0  0  0  0  0  0  0  0  0  0
    1.0881   -3.6923    0.0387 N   0  0  0  0  0  0  0  0  0  0  0  0
    0.7107   -1.3716   -0.1352 N   0  0  0  0  0  0  0  0  0  0  0  0
    6.3156   -3.9595    1.2723 S   0  0  0  0  0  0  0  0  0  0  0  0
    3.3605   -4.3656    0.9144 H   0  0  0  0  0  0  0  0  0  0  0  0
    3.1690   -1.3037    1.0235 H   0  0  0  0  0  0  0  0  0  0  0  0
    0.7518    0.3712    1.0433 H   0  0  0  0  0  0  0  0  0  0  0  0
    0.6947    0.6591   -0.7046 H   0  0  0  0  0  0  0  0  0  0  0  0
    2.1961    0.1574    0.0196 H   0  0  0  0  0  0  0  0  0  0  0  0
    7.0328   -1.5733    3.8859 H   0  0  0  0  0  0  0  0  0  0  0  0
   -2.0556   -3.0017   -0.3131 H   0  0  0  0  0  0  0  0  0  0  0  0
   -1.4446   -3.0319   -1.9291 H   0  0  0  0  0  0  0  0  0  0  0  0
    4.4796   -1.5478    3.2180 H   0  0  0  0  0  0  0  0  0  0  0  0
   -0.7208   -4.6687    0.2187 H   0  0  0  0  0  0  0  0  0  0  0  0
   -0.0488   -4.6710   -1.3930 H   0  0  0  0  0  0  0  0  0  0  0  0
   -0.6001   -1.0095   -1.7040 H   0  0  0  0  0  0  0  0  0  0  0  0
   -1.3289   -0.9316   -0.1106 H   0  0  0  0  0  0  0  0  0  0  0  0
    8.3675   -3.3307    2.4447 H   0  0  0  0  0  0  0  0  0  0  0  0
  1 17  1  0  0  0  0
  1 18  1  0  0  0  0
  1 19  1  0  0  0  0
  2 20  1  0  0  0  0
  3 21  1  0  0  0  0
  3 22  1  0  0  0  0
  4  2  1  0  0  0  0
  4 23  1  0  0  0  0
  6  5  2  0  0  0  0
  7  3  1  0  0  0  0
  7 24  1  0  0  0  0
  7 25  1  0  0  0  0
  8  3  1  0  0  0  0
  8 26  1  0  0  0  0
  8 27  1  0  0  0  0
  9  2  2  0  0  0  0
  9 28  1  0  0  0  0
 10  4  2  0  0  0  0
 10  5  1  0  0  0  0
 11  6  1  0  0  0  0
 12  7  1  0  0  0  0
 12 11  2  0  0  0  0
 13  1  1  0  0  0  0
 13  8  1  0  0  0  0
 13 11  1  0  0  0  0
 14  9  1  0  0  0  0
 14 10  1  0  0  0  0
 15  5  1  0  0  0  0
 16  6  1  0  0  0  0
M  END
>  <DRUGBANK_ID>
DB11156

>  <COMMON_NAME>
Pyrantel

>  <CAS_NUMBER>
15686-83-6

>  <UNII>
4QIH0N49E7

>  <SYNONYMS>
Pirantel; Pyrantel; Pyrantelum

$$$$
