44U
 OpenBabel10282417163D

 57 59  0  0  0  0  0  0  0  0999 V2000
   -0.0883  -13.1202   -0.6608 C   0  0  0  0  0  0  0  0  0  0  0  0
    0.8836  -12.0638   -0.1951 C   0  0  0  0  0  0  0  0  0  0  0  0
    0.5487  -10.7521   -0.8726 C   0  0  0  0  0  0  0  0  0  0  0  0
   -2.4453   -8.6433    0.2497 C   0  0  1  0  0  0  0  0  0  0  0  0
   -3.6138   -9.4031   -0.3038 C   0  0  0  0  0  0  0  0  0  0  0  0
   -4.7583   -8.4381    0.0022 C   0  0  0  0  0  0  0  0  0  0  0  0
   -4.1222   -7.0283   -0.0367 C   0  0  0  0  0  0  0  0  0  0  0  0
   -1.7910   -6.1950    0.0940 C   0  0  0  0  0  0  0  0  0  0  0  0
   -0.2984   -6.4367    0.4754 C   0  0  1  0  0  0  0  0  0  0  0  0
    2.3787   -7.4936    2.3949 C   0  0  0  0  0  0  0  0  0  0  0  0
    3.6410   -7.3296    2.9301 C   0  0  0  0  0  0  0  0  0  0  0  0
    4.0830   -6.0460    3.1723 C   0  0  0  0  0  0  0  0  0  0  0  0
    3.2542   -4.9633    2.8645 C   0  0  0  0  0  0  0  0  0  0  0  0
   -0.5478   -8.1105    2.9923 C   0  0  0  0  0  0  0  0  0  0  0  0
   -1.4112  -10.8519    2.8864 C   0  0  0  0  0  0  0  0  0  0  0  0
   -0.8521  -10.3551   -0.7064 N   0  0  0  0  0  0  0  0  0  0  0  0
   -1.1081   -9.3562    0.1436 C   0  0  0  0  0  0  0  0  0  0  0  0
   -0.0957   -8.9615    0.7388 O   0  0  0  0  0  0  0  0  0  0  0  0
   -2.6711   -7.2549   -0.0752 N   0  0  0  0  0  0  0  0  0  0  0  0
   -2.1693   -5.0407   -0.1461 O   0  0  0  0  0  0  0  0  0  0  0  0
   -0.0454   -6.7801    2.1231 C   0  0  0  0  0  0  0  0  0  0  0  0
    1.4331   -6.4651    2.3811 C   0  0  0  0  0  0  0  0  0  0  0  0
    1.9124   -5.1648    2.5255 C   0  0  0  0  0  0  0  0  0  0  0  0
    0.2838   -9.2058    3.3409 C   0  0  0  0  0  0  0  0  0  0  0  0
   -0.0922  -10.5452    3.1156 C   0  0  0  0  0  0  0  0  0  0  0  0
   -2.3214   -9.8062    3.0160 C   0  0  0  0  0  0  0  0  0  0  0  0
   -1.8942   -8.4264    3.1059 C   0  0  0  0  0  0  0  0  0  0  0  0
    0.4243   -7.0948   -0.6807 N   0  0  0  0  0  0  0  0  0  0  0  0
   -2.7603   -8.6230    1.2572 H   0  0  0  0  0  0  0  0  0  0  0  0
    0.1605   -5.4419    0.3489 H   0  0  0  0  0  0  0  0  0  0  0  0
   -1.1078  -12.8751   -0.3458 H   0  0  0  0  0  0  0  0  0  0  0  0
    0.1619  -14.0902   -0.2360 H   0  0  0  0  0  0  0  0  0  0  0  0
   -0.0693  -13.1738   -1.7532 H   0  0  0  0  0  0  0  0  0  0  0  0
    0.8449  -11.9814    0.8944 H   0  0  0  0  0  0  0  0  0  0  0  0
    1.9151  -12.3370   -0.4455 H   0  0  0  0  0  0  0  0  0  0  0  0
    1.2615  -10.0098   -0.4790 H   0  0  0  0  0  0  0  0  0  0  0  0
    0.7187  -10.7739   -1.9462 H   0  0  0  0  0  0  0  0  0  0  0  0
   -3.4591   -9.5711   -1.3676 H   0  0  0  0  0  0  0  0  0  0  0  0
   -3.7280  -10.3644    0.2140 H   0  0  0  0  0  0  0  0  0  0  0  0
   -5.5797   -8.5679   -0.7009 H   0  0  0  0  0  0  0  0  0  0  0  0
   -5.1528   -8.6419    1.0116 H   0  0  0  0  0  0  0  0  0  0  0  0
   -4.4289   -6.4467   -0.9047 H   0  0  0  0  0  0  0  0  0  0  0  0
   -4.3963   -6.4711    0.8756 H   0  0  0  0  0  0  0  0  0  0  0  0
    2.1155   -8.4777    2.0241 H   0  0  0  0  0  0  0  0  0  0  0  0
    4.2590   -8.2049    3.1023 H   0  0  0  0  0  0  0  0  0  0  0  0
    5.0923   -5.8939    3.5353 H   0  0  0  0  0  0  0  0  0  0  0  0
    3.6605   -3.9581    2.8862 H   0  0  0  0  0  0  0  0  0  0  0  0
   -1.7051  -11.8524    2.5718 H   0  0  0  0  0  0  0  0  0  0  0  0
   -1.6098  -10.9793   -0.9393 H   0  0  0  0  0  0  0  0  0  0  0  0
   -0.6369   -5.9825    2.6013 H   0  0  0  0  0  0  0  0  0  0  0  0
    1.2686   -4.3095    2.3310 H   0  0  0  0  0  0  0  0  0  0  0  0
    1.3116   -9.0906    3.6456 H   0  0  0  0  0  0  0  0  0  0  0  0
    0.6860  -11.2977    2.9984 H   0  0  0  0  0  0  0  0  0  0  0  0
   -3.3580  -10.0338    2.7563 H   0  0  0  0  0  0  0  0  0  0  0  0
   -2.6178   -7.6284    2.9312 H   0  0  0  0  0  0  0  0  0  0  0  0
    0.5254   -8.0732   -0.4027 H   0  0  0  0  0  0  0  0  0  0  0  0
   -0.1658   -7.1139   -1.5148 H   0  0  0  0  0  0  0  0  0  0  0  0
  1  2  1  0  0  0  0
  1 31  1  0  0  0  0
  1 32  1  0  0  0  0
  1 33  1  0  0  0  0
  2  3  1  0  0  0  0
  2 34  1  0  0  0  0
  2 35  1  0  0  0  0
  3 16  1  0  0  0  0
  3 36  1  0  0  0  0
  3 37  1  0  0  0  0
  4 19  1  0  0  0  0
  4 29  1  1  0  0  0
  4 17  1  0  0  0  0
  5  4  1  0  0  0  0
  5  6  1  0  0  0  0
  5 38  1  0  0  0  0
  5 39  1  0  0  0  0
  6  7  1  0  0  0  0
  6 40  1  0  0  0  0
  6 41  1  0  0  0  0
  7 19  1  0  0  0  0
  7 42  1  0  0  0  0
  7 43  1  0  0  0  0
  8 20  2  0  0  0  0
  9 30  1  6  0  0  0
  9 28  1  0  0  0  0
  9 21  1  0  0  0  0
  9  8  1  0  0  0  0
 10 22  2  0  0  0  0
 10 11  1  0  0  0  0
 10 44  1  0  0  0  0
 11 12  2  0  0  0  0
 11 45  1  0  0  0  0
 12 13  1  0  0  0  0
 12 46  1  0  0  0  0
 13 47  1  0  0  0  0
 14 27  1  0  0  0  0
 15 26  1  0  0  0  0
 15 48  1  0  0  0  0
 16 49  1  0  0  0  0
 17 16  1  0  0  0  0
 18 17  2  0  0  0  0
 19  8  1  0  0  0  0
 21 14  1  0  0  0  0
 21 22  1  0  0  0  0
 21 50  1  0  0  0  0
 22 23  1  0  0  0  0
 23 13  2  0  0  0  0
 23 51  1  0  0  0  0
 24 14  2  0  0  0  0
 24 25  1  0  0  0  0
 24 52  1  0  0  0  0
 25 15  2  0  0  0  0
 25 53  1  0  0  0  0
 26 54  1  0  0  0  0
 27 26  2  0  0  0  0
 27 55  1  0  0  0  0
 28 56  1  0  0  0  0
 28 57  1  0  0  0  0
M  END
>  <DRUGBANK_ID>
DB07083

>  <COMMON_NAME>
beta-phenyl-D-phenylalanyl-N-propyl-L-prolinamide

$$$$
