
 OpenBabel10282417203D

 57 60  0  0  0  0  0  0  0  0999 V2000
    1.2886    5.5675    0.0010 C   0  0  0  0  0  0  0  0  0  0  0  0
    2.0938    5.3861    1.1199 C   0  0  0  0  0  0  0  0  0  0  0  0
    2.0300    4.1851    1.8381 C   0  0  0  0  0  0  0  0  0  0  0  0
    1.1052    3.2133    1.4928 C   0  0  0  0  0  0  0  0  0  0  0  0
    0.2282    3.4417    0.4291 C   0  0  0  0  0  0  0  0  0  0  0  0
    0.4377    4.5575   -0.3919 C   0  0  0  0  0  0  0  0  0  0  0  0
   -1.0368    2.6021    0.3283 C   0  0  1  0  0  0  0  0  0  0  0  0
   -1.7856    2.6492    1.6867 C   0  0  0  0  0  0  0  0  0  0  0  0
   -2.3135    4.0613    1.9705 C   0  0  0  0  0  0  0  0  0  0  0  0
   -3.3103    4.5025    0.8856 C   0  0  1  0  0  0  0  0  0  0  0  0
   -2.6225    4.4656   -0.4853 C   0  0  0  0  0  0  0  0  0  0  0  0
   -1.9861    3.0885   -0.7901 C   0  0  0  0  0  0  0  0  0  0  0  0
   -4.5695    3.6290    0.8349 C   0  0  0  0  0  0  0  0  0  0  0  0
   -5.3758    3.6699    2.0979 C   0  0  0  0  0  0  0  0  0  0  0  0
   -6.5080    4.1273    2.2072 O   0  0  0  0  0  0  0  0  0  0  0  0
   -4.7493    3.1256    3.1543 O   0  0  0  0  0  0  0  0  0  0  0  0
    3.0557    6.4035    1.4682 C   0  0  0  0  0  0  0  0  0  0  0  0
    4.3301    5.9845    1.4008 N   0  0  0  0  0  0  0  0  0  0  0  0
    5.2690    6.9072    1.6458 C   0  0  0  0  0  0  0  0  0  0  0  0
    5.0238    8.2487    1.9632 C   0  0  0  0  0  0  0  0  0  0  0  0
    3.6891    8.6418    2.0279 C   0  0  0  0  0  0  0  0  0  0  0  0
    2.6878    7.7079    1.7795 C   0  0  0  0  0  0  0  0  0  0  0  0
    6.0663    9.1797    2.1236 N   0  0  0  0  0  0  0  0  0  0  0  0
    7.4250    8.8377    2.0664 C   0  0  0  0  0  0  0  0  0  0  0  0
    8.2445    8.7792    3.1877 C   0  0  0  0  0  0  0  0  0  0  0  0
    9.5035    8.2751    3.1776 N   0  0  0  0  0  0  0  0  0  0  0  0
    9.9829    7.7817    1.9952 C   0  0  0  0  0  0  0  0  0  0  0  0
    9.2231    7.8019    0.8282 C   0  0  0  0  0  0  0  0  0  0  0  0
    7.9479    8.3437    0.8696 C   0  0  0  0  0  0  0  0  0  0  0  0
   11.3905    7.2064    1.9423 C   0  0  0  0  0  0  0  0  0  0  0  0
   12.3452    8.1168    2.2839 F   0  0  0  0  0  0  0  0  0  0  0  0
   11.5688    6.1344    2.7644 F   0  0  0  0  0  0  0  0  0  0  0  0
   11.7408    6.7672    0.6946 F   0  0  0  0  0  0  0  0  0  0  0  0
    1.3159    6.4910   -0.5720 H   0  0  0  0  0  0  0  0  0  0  0  0
    2.6808    4.0269    2.6943 H   0  0  0  0  0  0  0  0  0  0  0  0
    1.0260    2.3141    2.0982 H   0  0  0  0  0  0  0  0  0  0  0  0
   -0.1245    4.7285   -1.3032 H   0  0  0  0  0  0  0  0  0  0  0  0
   -0.7358    1.5674    0.1210 H   0  0  0  0  0  0  0  0  0  0  0  0
   -2.6087    1.9257    1.6731 H   0  0  0  0  0  0  0  0  0  0  0  0
   -1.1554    2.3320    2.5249 H   0  0  0  0  0  0  0  0  0  0  0  0
   -2.7557    4.1086    2.9675 H   0  0  0  0  0  0  0  0  0  0  0  0
   -1.4843    4.7779    2.0291 H   0  0  0  0  0  0  0  0  0  0  0  0
   -3.6019    5.5411    1.0930 H   0  0  0  0  0  0  0  0  0  0  0  0
   -3.3079    4.7373   -1.2946 H   0  0  0  0  0  0  0  0  0  0  0  0
   -1.8863    5.2743   -0.4775 H   0  0  0  0  0  0  0  0  0  0  0  0
   -1.4574    3.1152   -1.7510 H   0  0  0  0  0  0  0  0  0  0  0  0
   -2.7828    2.3494   -0.9278 H   0  0  0  0  0  0  0  0  0  0  0  0
   -5.2058    3.9788    0.0130 H   0  0  0  0  0  0  0  0  0  0  0  0
   -4.3464    2.5824    0.6084 H   0  0  0  0  0  0  0  0  0  0  0  0
   -5.3006    3.3231    3.9377 H   0  0  0  0  0  0  0  0  0  0  0  0
    6.2723    6.5020    1.5800 H   0  0  0  0  0  0  0  0  0  0  0  0
    3.4096    9.6614    2.2707 H   0  0  0  0  0  0  0  0  0  0  0  0
    1.6394    7.9849    1.8216 H   0  0  0  0  0  0  0  0  0  0  0  0
    5.8322   10.0426    2.5983 H   0  0  0  0  0  0  0  0  0  0  0  0
    7.8899    9.0901    4.1672 H   0  0  0  0  0  0  0  0  0  0  0  0
    9.6005    7.3905   -0.1034 H   0  0  0  0  0  0  0  0  0  0  0  0
    7.3303    8.3388   -0.0266 H   0  0  0  0  0  0  0  0  0  0  0  0
  1  2  2  0  0  0  0
  1  6  1  0  0  0  0
  1 34  1  0  0  0  0
  2  3  1  0  0  0  0
  2 17  1  0  0  0  0
  3  4  2  0  0  0  0
  3 35  1  0  0  0  0
  4  5  1  0  0  0  0
  4 36  1  0  0  0  0
  5  6  2  0  0  0  0
  6 37  1  0  0  0  0
  7  8  1  0  0  0  0
  7 12  1  0  0  0  0
  7 38  1  6  0  0  0
  7  5  1  0  0  0  0
  8  9  1  0  0  0  0
  8 39  1  0  0  0  0
  8 40  1  0  0  0  0
  9 10  1  0  0  0  0
  9 41  1  0  0  0  0
  9 42  1  0  0  0  0
 10 11  1  0  0  0  0
 10 13  1  0  0  0  0
 10 43  1  1  0  0  0
 11 12  1  0  0  0  0
 11 44  1  0  0  0  0
 11 45  1  0  0  0  0
 12 46  1  0  0  0  0
 12 47  1  0  0  0  0
 13 14  1  0  0  0  0
 13 48  1  0  0  0  0
 13 49  1  0  0  0  0
 14 15  2  0  0  0  0
 14 16  1  0  0  0  0
 16 50  1  0  0  0  0
 17 18  2  0  0  0  0
 17 22  1  0  0  0  0
 18 19  1  0  0  0  0
 19 20  2  0  0  0  0
 19 51  1  0  0  0  0
 20 21  1  0  0  0  0
 20 23  1  0  0  0  0
 21 22  2  0  0  0  0
 21 52  1  0  0  0  0
 22 53  1  0  0  0  0
 23 24  1  0  0  0  0
 23 54  1  0  0  0  0
 24 25  2  0  0  0  0
 24 29  1  0  0  0  0
 25 26  1  0  0  0  0
 25 55  1  0  0  0  0
 26 27  2  0  0  0  0
 27 28  1  0  0  0  0
 27 30  1  0  0  0  0
 28 29  2  0  0  0  0
 28 56  1  0  0  0  0
 29 57  1  0  0  0  0
 30 31  1  0  0  0  0
 30 32  1  0  0  0  0
 30 33  1  0  0  0  0
M  END
>  <DRUGBANK_ID>
DB12866

>  <COMMON_NAME>
Pradigastat

>  <CAS_NUMBER>
956136-95-1

>  <UNII>
2U23G6VNUZ

>  <SYNONYMS>
Pradigastat

$$$$
