
 OpenBabel10282417213D

149149  0  0  1  0  0  0  0  0999 V2000
    3.4660  -11.1333   20.5061 C   0  0  0  0  0  0  0  0  0  0  0  0
    4.3764  -10.2786   19.7477 C   0  0  1  0  0  0  0  0  0  0  0  0
    5.8020  -10.7530   19.9439 O   0  0  0  0  0  0  0  0  0  0  0  0
    3.5280  -10.3880   18.4466 C   0  0  2  0  0  0  0  0  0  0  0  0
    2.2197  -11.7594   18.4114 N   0  0  0  0  0  0  0  0  0  0  0  0
    2.3315  -13.0763   17.4456 C   0  0  0  0  0  0  0  0  0  0  0  0
    1.4879  -13.9019   17.0959 O   0  0  0  0  0  0  0  0  0  0  0  0
    4.1365  -13.1012   17.2877 C   0  0  2  0  0  0  0  0  0  0  0  0
    4.7135  -14.2519   16.7938 C   0  0  0  0  0  0  0  0  0  0  0  0
    4.1789  -14.5372   18.8323 C   0  0  0  0  0  0  0  0  0  0  0  0
    2.9079  -15.2817   18.8387 C   0  0  0  0  0  0  0  0  0  0  0  0
    2.7423  -16.4308   17.5210 C   0  0  0  0  0  0  0  0  0  0  0  0
    3.6765  -17.5701   17.7191 N   0  0  0  0  0  0  0  0  0  0  0  0
    5.4169  -11.5043   18.2550 N   0  0  0  0  0  0  0  0  0  0  0  0
    6.3535  -10.0373   17.1390 C   0  0  0  0  0  0  0  0  0  0  0  0
    6.1470   -8.7885   17.5175 O   0  0  0  0  0  0  0  0  0  0  0  0
    5.9786  -10.0389   15.0054 C   0  0  2  0  0  0  0  0  0  0  0  0
    6.3521  -11.4878   13.4719 C   0  0  0  0  0  0  0  0  0  0  0  0
    5.6902  -13.3385   13.8366 O   0  0  0  0  0  0  0  0  0  0  0  0
    5.4617   -8.9146   14.3869 N   0  0  0  0  0  0  0  0  0  0  0  0
    4.3280   -8.4973   13.8315 C   0  0  0  0  0  0  0  0  0  0  0  0
    4.6940   -7.4414   13.3578 O   0  0  0  0  0  0  0  0  0  0  0  0
    2.9480   -9.2140   13.5009 C   0  0  2  0  0  0  0  0  0  0  0  0
    2.2961   -9.7513   14.6777 C   0  0  0  0  0  0  0  0  0  0  0  0
    2.9585  -10.9487   14.9358 C   0  0  0  0  0  0  0  0  0  0  0  0
    2.5492  -11.1105   16.1793 C   0  0  0  0  0  0  0  0  0  0  0  0
    3.7125  -11.6282   16.4216 C   0  0  0  0  0  0  0  0  0  0  0  0
    5.6178  -11.5102   15.9779 C   0  0  0  0  0  0  0  0  0  0  0  0
    5.6064  -12.0216   14.9968 C   0  0  0  0  0  0  0  0  0  0  0  0
    4.2618  -11.4642   14.0756 C   0  0  0  0  0  0  0  0  0  0  0  0
    2.8624  -10.1541   12.3938 N   0  0  0  0  0  0  0  0  0  0  0  0
    1.9380   -9.9881   11.4517 C   0  0  0  0  0  0  0  0  0  0  0  0
    1.1327  -10.8568   11.1611 O   0  0  0  0  0  0  0  0  0  0  0  0
    1.7719   -8.5949   10.9992 C   0  0  2  0  0  0  0  0  0  0  0  0
    1.2037   -8.4830    9.6140 C   0  0  0  0  0  0  0  0  0  0  0  0
    1.9245   -9.4406    8.6537 C   0  0  0  0  0  0  0  0  0  0  0  0
    1.8502  -10.9824    8.8608 C   0  0  0  0  0  0  0  0  0  0  0  0
    0.9220  -11.6918    8.1847 N   0  0  0  0  0  0  0  0  0  0  0  0
    2.6137  -11.6377    9.5713 O   0  0  0  0  0  0  0  0  0  0  0  0
    2.9904   -7.7949   11.1198 N   0  0  0  0  0  0  0  0  0  0  0  0
    3.1495   -6.6827   11.9424 C   0  0  0  0  0  0  0  0  0  0  0  0
    4.1644   -5.9829   11.8598 O   0  0  0  0  0  0  0  0  0  0  0  0
    2.0476   -6.3391   13.0035 C   0  0  2  0  0  0  0  0  0  0  0  0
    0.8017   -6.0517   12.2345 C   0  0  0  0  0  0  0  0  0  0  0  0
    2.3803   -5.2685   13.9128 N   0  0  0  0  0  0  0  0  0  0  0  0
    2.4207   -5.3353   15.2910 C   0  0  0  0  0  0  0  0  0  0  0  0
    2.7577   -4.3572   15.9605 O   0  0  0  0  0  0  0  0  0  0  0  0
    1.9955   -6.6420   15.9989 C   0  0  0  0  0  0  0  0  0  0  0  0
    0.5605   -7.0604   15.7498 N   0  0  0  0  0  0  0  0  0  0  0  0
    0.0795   -8.0859   15.0385 C   0  0  0  0  0  0  0  0  0  0  0  0
   -1.2157   -8.6071   14.7091 C   0  0  0  0  0  0  0  0  0  0  0  0
    0.6720   -8.7209   14.2048 O   0  0  0  0  0  0  0  0  0  0  0  0
    4.7107  -10.5832   17.2189 C   0  0  0  0  0  0  0  0  0  0  0  0
    4.4092   -9.4909   16.4516 O   0  0  0  0  0  0  0  0  0  0  0  0
    5.7376  -12.5665   17.1839 N   0  0  0  0  0  0  0  0  0  0  0  0
    5.8385  -13.6757   18.3779 C   0  0  1  0  0  0  0  0  0  0  0  0
    5.2855  -15.6404   17.9177 C   0  0  0  0  0  0  0  0  0  0  0  0
    6.9451  -13.5843   19.1963 C   0  0  0  0  0  0  0  0  0  0  0  0
    6.8649  -13.1378   20.3243 O   0  0  0  0  0  0  0  0  0  0  0  0
    7.9124  -14.1679   18.5015 N   0  0  0  0  0  0  0  0  0  0  0  0
    7.9468  -14.7950   17.1589 C   0  0  1  0  0  0  0  0  0  0  0  0
    8.7534  -13.9841   16.2122 C   0  0  0  0  0  0  0  0  0  0  0  0
    8.0963  -16.2943   17.1581 C   0  0  0  0  0  0  0  0  0  0  0  0
    7.2566  -17.0858   16.7345 O   0  0  0  0  0  0  0  0  0  0  0  0
    9.2759  -16.6916   17.6410 N   0  0  0  0  0  0  0  0  0  0  0  0
   10.3448  -15.8052   18.0869 C   0  0  1  0  0  0  0  0  0  0  0  0
   10.6011  -16.0775   19.5615 C   0  0  0  0  0  0  0  0  0  0  0  0
   11.1089  -17.4947   19.7570 C   0  0  0  0  0  0  0  0  0  0  0  0
   12.4236  -17.7223   19.0634 C   0  0  0  0  0  0  0  0  0  0  0  0
   13.4703  -16.6752   19.3815 C   0  0  0  0  0  0  0  0  0  0  0  0
   13.7873  -16.9194   20.7731 N   0  0  0  0  0  0  0  0  0  0  0  0
   11.5394  -15.8142   17.0755 C   0  0  0  0  0  0  0  0  0  0  0  0
   12.0112  -14.6734   16.5812 O   0  0  0  0  0  0  0  0  0  0  0  0
   12.0735  -16.7939   16.5894 O   0  0  0  0  0  0  0  0  0  0  0  0
    3.3343  -12.1968   20.1812 H   0  0  0  0  0  0  0  0  0  0  0  0
    2.5088  -10.6309   20.3747 H   0  0  0  0  0  0  0  0  0  0  0  0
    3.8956  -11.1769   21.4628 H   0  0  0  0  0  0  0  0  0  0  0  0
    4.6904   -9.2681   19.6904 H   0  0  0  0  0  0  0  0  0  0  0  0
    6.1096  -11.4191   20.5774 H   0  0  0  0  0  0  0  0  0  0  0  0
    3.1986   -9.4356   17.9599 H   0  0  0  0  0  0  0  0  0  0  0  0
    1.4362  -11.6820   19.0009 H   0  0  0  0  0  0  0  0  0  0  0  0
    3.8962  -13.1027   15.8069 H   0  0  0  0  0  0  0  0  0  0  0  0
    4.6275  -15.0412   15.8955 H   0  0  0  0  0  0  0  0  0  0  0  0
    5.7616  -14.3629   16.5924 H   0  0  0  0  0  0  0  0  0  0  0  0
    5.3993  -15.0862   19.4295 H   0  0  0  0  0  0  0  0  0  0  0  0
    4.5420  -14.1411   19.8727 H   0  0  0  0  0  0  0  0  0  0  0  0
    2.8482  -15.6540   19.8204 H   0  0  0  0  0  0  0  0  0  0  0  0
    2.4288  -14.3470   18.7807 H   0  0  0  0  0  0  0  0  0  0  0  0
    1.7135  -16.5943   17.4708 H   0  0  0  0  0  0  0  0  0  0  0  0
    2.9740  -16.0139   16.4352 H   0  0  0  0  0  0  0  0  0  0  0  0
    3.6275  -18.1585   16.9143 H   0  0  0  0  0  0  0  0  0  0  0  0
    4.6916  -17.3681   17.6163 H   0  0  0  0  0  0  0  0  0  0  0  0
    5.3067  -11.5991   19.1509 H   0  0  0  0  0  0  0  0  0  0  0  0
    4.7219  -10.4410   15.2599 H   0  0  0  0  0  0  0  0  0  0  0  0
    5.7385  -11.5993   12.5618 H   0  0  0  0  0  0  0  0  0  0  0  0
    7.3620  -11.4452   13.8062 H   0  0  0  0  0  0  0  0  0  0  0  0
    5.3748  -13.5451   14.9181 H   0  0  0  0  0  0  0  0  0  0  0  0
    6.3046   -8.4437   14.2884 H   0  0  0  0  0  0  0  0  0  0  0  0
    2.2272   -8.5310   13.1636 H   0  0  0  0  0  0  0  0  0  0  0  0
    2.2001   -9.0560   15.5486 H   0  0  0  0  0  0  0  0  0  0  0  0
    1.4180  -10.4280   14.5755 H   0  0  0  0  0  0  0  0  0  0  0  0
    1.9526  -10.5081   16.9448 H   0  0  0  0  0  0  0  0  0  0  0  0
    3.7667  -11.9212   17.9970 H   0  0  0  0  0  0  0  0  0  0  0  0
    6.9154  -11.6099   16.8806 H   0  0  0  0  0  0  0  0  0  0  0  0
    6.7831  -12.2922   15.0700 H   0  0  0  0  0  0  0  0  0  0  0  0
    4.6832  -10.4941   13.2672 H   0  0  0  0  0  0  0  0  0  0  0  0
    3.1683  -11.1079   12.4916 H   0  0  0  0  0  0  0  0  0  0  0  0
    1.0236   -8.3394   11.7384 H   0  0  0  0  0  0  0  0  0  0  0  0
    0.1250   -8.6641    9.6223 H   0  0  0  0  0  0  0  0  0  0  0  0
    1.3403   -7.4306    9.3024 H   0  0  0  0  0  0  0  0  0  0  0  0
    1.5504   -9.2215    7.6556 H   0  0  0  0  0  0  0  0  0  0  0  0
    2.9871   -9.1780    8.6816 H   0  0  0  0  0  0  0  0  0  0  0  0
    0.9020  -12.6745    8.4534 H   0  0  0  0  0  0  0  0  0  0  0  0
    0.7025  -11.4387    7.2382 H   0  0  0  0  0  0  0  0  0  0  0  0
    3.8063   -8.1502   10.6217 H   0  0  0  0  0  0  0  0  0  0  0  0
    1.8310   -7.0972   13.7116 H   0  0  0  0  0  0  0  0  0  0  0  0
    0.5080   -6.7953   11.5144 H   0  0  0  0  0  0  0  0  0  0  0  0
   -0.0561   -5.9503   12.8850 H   0  0  0  0  0  0  0  0  0  0  0  0
    0.9987   -5.1912   11.6173 H   0  0  0  0  0  0  0  0  0  0  0  0
    2.7207   -4.4407   13.4511 H   0  0  0  0  0  0  0  0  0  0  0  0
    2.7482   -7.3856   15.7395 H   0  0  0  0  0  0  0  0  0  0  0  0
    2.0938   -6.5165   17.0872 H   0  0  0  0  0  0  0  0  0  0  0  0
   -0.1154   -6.3421   15.9249 H   0  0  0  0  0  0  0  0  0  0  0  0
   -1.1708   -8.7979   13.5926 H   0  0  0  0  0  0  0  0  0  0  0  0
   -1.3208   -9.6015   15.1554 H   0  0  0  0  0  0  0  0  0  0  0  0
   -1.8808   -7.8321   14.9470 H   0  0  0  0  0  0  0  0  0  0  0  0
    6.4313  -13.0017   16.5455 H   0  0  0  0  0  0  0  0  0  0  0  0
    5.0381  -13.0598   19.0191 H   0  0  0  0  0  0  0  0  0  0  0  0
    5.9289  -15.9621   17.2222 H   0  0  0  0  0  0  0  0  0  0  0  0
    4.8081  -16.3059   18.8344 H   0  0  0  0  0  0  0  0  0  0  0  0
    3.9879  -15.3894   17.3972 H   0  0  0  0  0  0  0  0  0  0  0  0
    8.6748  -14.2479   19.1234 H   0  0  0  0  0  0  0  0  0  0  0  0
    7.1494  -14.8160   16.4843 H   0  0  0  0  0  0  0  0  0  0  0  0
    9.7576  -14.0780   16.5038 H   0  0  0  0  0  0  0  0  0  0  0  0
    8.6529  -14.3836   15.2042 H   0  0  0  0  0  0  0  0  0  0  0  0
    8.5168  -12.9228   16.2287 H   0  0  0  0  0  0  0  0  0  0  0  0
    9.4170  -17.6916   17.6112 H   0  0  0  0  0  0  0  0  0  0  0  0
   10.0138  -14.7790   18.1078 H   0  0  0  0  0  0  0  0  0  0  0  0
   11.3060  -15.3372   19.9451 H   0  0  0  0  0  0  0  0  0  0  0  0
    9.6878  -15.9484   20.1635 H   0  0  0  0  0  0  0  0  0  0  0  0
   11.2685  -17.7083   20.8016 H   0  0  0  0  0  0  0  0  0  0  0  0
   10.3690  -18.2014   19.3708 H   0  0  0  0  0  0  0  0  0  0  0  0
   12.8081  -18.7328   19.0787 H   0  0  0  0  0  0  0  0  0  0  0  0
   12.1374  -17.7855   18.0594 H   0  0  0  0  0  0  0  0  0  0  0  0
   14.3471  -16.7694   18.7400 H   0  0  0  0  0  0  0  0  0  0  0  0
   13.1147  -15.6431   19.2534 H   0  0  0  0  0  0  0  0  0  0  0  0
   14.4720  -16.2536   21.1016 H   0  0  0  0  0  0  0  0  0  0  0  0
   12.9497  -16.8154   21.3435 H   0  0  0  0  0  0  0  0  0  0  0  0
   11.5223  -13.8493   16.6238 H   0  0  0  0  0  0  0  0  0  0  0  0
  1 75  1  0  0  0  0
  1 76  1  0  0  0  0
  1 77  1  0  0  0  0
  2  1  1  0  0  0  0
  2  3  1  0  0  0  0
  2 78  1  1  0  0  0
  3 79  1  0  0  0  0
  4 53  1  0  0  0  0
  4 80  1  6  0  0  0
  4  5  1  0  0  0  0
  4  2  1  0  0  0  0
  5  6  1  0  0  0  0
  5 81  1  0  0  0  0
  6  7  2  0  0  0  0
  8 14  1  0  0  0  0
  8 82  1  6  0  0  0
  8  9  1  0  0  0  0
  8  6  1  0  0  0  0
  9 10  1  0  0  0  0
  9 83  1  0  0  0  0
  9 84  1  0  0  0  0
 10 11  1  0  0  0  0
 10 85  1  0  0  0  0
 10 86  1  0  0  0  0
 11 12  1  0  0  0  0
 11 87  1  0  0  0  0
 11 88  1  0  0  0  0
 12 13  1  0  0  0  0
 12 89  1  0  0  0  0
 12 90  1  0  0  0  0
 13 91  1  0  0  0  0
 13 92  1  0  0  0  0
 14 15  1  0  0  0  0
 14 93  1  0  0  0  0
 15 16  2  0  0  0  0
 17 20  1  0  0  0  0
 17 94  1  1  0  0  0
 17 18  1  0  0  0  0
 17 15  1  0  0  0  0
 18 19  1  0  0  0  0
 18 95  1  0  0  0  0
 18 96  1  0  0  0  0
 19 97  1  0  0  0  0
 20 21  1  0  0  0  0
 20 98  1  0  0  0  0
 21 22  2  0  0  0  0
 23 31  1  0  0  0  0
 23 99  1  6  0  0  0
 23 24  1  0  0  0  0
 23 21  1  0  0  0  0
 24 25  1  0  0  0  0
 24100  1  0  0  0  0
 24101  1  0  0  0  0
 25 26  2  0  0  0  0
 25 30  1  0  0  0  0
 26 27  1  0  0  0  0
 26102  1  0  0  0  0
 27 28  2  0  0  0  0
 27103  1  0  0  0  0
 28 29  1  0  0  0  0
 28104  1  0  0  0  0
 29 30  2  0  0  0  0
 29105  1  0  0  0  0
 30106  1  0  0  0  0
 31 32  1  0  0  0  0
 31107  1  0  0  0  0
 32 33  2  0  0  0  0
 34 40  1  0  0  0  0
 34108  1  1  0  0  0
 34 35  1  0  0  0  0
 34 32  1  0  0  0  0
 35 36  1  0  0  0  0
 35109  1  0  0  0  0
 35110  1  0  0  0  0
 36 37  1  0  0  0  0
 36111  1  0  0  0  0
 36112  1  0  0  0  0
 37 38  1  0  0  0  0
 37 39  2  0  0  0  0
 38113  1  0  0  0  0
 38114  1  0  0  0  0
 40 41  1  0  0  0  0
 40115  1  0  0  0  0
 41 42  2  0  0  0  0
 43 45  1  0  0  0  0
 43116  1  1  0  0  0
 43 44  1  0  0  0  0
 43 41  1  0  0  0  0
 44117  1  0  0  0  0
 44118  1  0  0  0  0
 44119  1  0  0  0  0
 45 46  1  0  0  0  0
 45120  1  0  0  0  0
 46 47  2  0  0  0  0
 46 48  1  0  0  0  0
 48 49  1  0  0  0  0
 48121  1  0  0  0  0
 48122  1  0  0  0  0
 49 50  1  0  0  0  0
 49123  1  0  0  0  0
 50 51  1  0  0  0  0
 50 52  2  0  0  0  0
 51124  1  0  0  0  0
 51125  1  0  0  0  0
 51126  1  0  0  0  0
 53 54  2  0  0  0  0
 53 55  1  0  0  0  0
 55127  1  0  0  0  0
 56 55  1  0  0  0  0
 56 57  1  0  0  0  0
 56 58  1  0  0  0  0
 56128  1  1  0  0  0
 57129  1  0  0  0  0
 57130  1  0  0  0  0
 57131  1  0  0  0  0
 58 59  2  0  0  0  0
 58 60  1  0  0  0  0
 60132  1  0  0  0  0
 61 60  1  0  0  0  0
 61 62  1  0  0  0  0
 61 63  1  0  0  0  0
 61133  1  6  0  0  0
 62134  1  0  0  0  0
 62135  1  0  0  0  0
 62136  1  0  0  0  0
 63 64  2  0  0  0  0
 63 65  1  0  0  0  0
 65137  1  0  0  0  0
 66 65  1  0  0  0  0
 66 67  1  0  0  0  0
 66 72  1  0  0  0  0
 66138  1  6  0  0  0
 67 68  1  0  0  0  0
 67139  1  0  0  0  0
 67140  1  0  0  0  0
 68 69  1  0  0  0  0
 68141  1  0  0  0  0
 68142  1  0  0  0  0
 69 70  1  0  0  0  0
 69143  1  0  0  0  0
 69144  1  0  0  0  0
 70 71  1  0  0  0  0
 70145  1  0  0  0  0
 70146  1  0  0  0  0
 71147  1  0  0  0  0
 71148  1  0  0  0  0
 72 73  1  0  0  0  0
 72 74  2  0  0  0  0
 73149  1  0  0  0  0
M  END
>  <DRUGBANK_ID>
DB14886

>  <COMMON_NAME>
BIO-11006

>  <CAS_NUMBER>
901117-03-1

>  <UNII>
609AWV0US2

$$$$
