
 OpenBabel10282417123D

 33 35  0  0  0  0  0  0  0  0999 V2000
   -3.9590    0.7459   -0.0402 O   0  0  0  0  0  0  0  0  0  0  0  0
   -2.6495    0.3614   -0.0076 C   0  0  0  0  0  0  0  0  0  0  0  0
   -2.2877   -0.9825   -0.0188 C   0  0  0  0  0  0  0  0  0  0  0  0
   -0.9313   -1.3152    0.0035 C   0  0  0  0  0  0  0  0  0  0  0  0
   -0.5730   -2.6343   -0.0087 O   0  0  0  0  0  0  0  0  0  0  0  0
    0.0556   -0.3112    0.0286 C   0  0  0  0  0  0  0  0  0  0  0  0
    1.4978   -0.6247    0.0290 C   0  0  0  0  0  0  0  0  0  0  0  0
    1.9310   -1.7735    0.0566 O   0  0  0  0  0  0  0  0  0  0  0  0
    2.4400    0.5277   -0.0224 C   0  0  0  0  0  0  0  0  0  0  0  0
    3.7888    0.2141   -0.0725 O   0  0  0  0  0  0  0  0  0  0  0  0
    1.9382    1.7805   -0.0247 C   0  0  0  0  0  0  0  0  0  0  0  0
    0.5813    2.0759    0.0526 O   0  0  0  0  0  0  0  0  0  0  0  0
   -0.3234    1.0333    0.0408 C   0  0  0  0  0  0  0  0  0  0  0  0
   -1.6826    1.3676    0.0301 C   0  0  0  0  0  0  0  0  0  0  0  0
    2.8278    2.9655   -0.1306 C   0  0  0  0  0  0  0  0  0  0  0  0
    2.9068    3.9332    0.8846 C   0  0  0  0  0  0  0  0  0  0  0  0
    3.8236    4.9969    0.7982 C   0  0  0  0  0  0  0  0  0  0  0  0
    3.8201    5.8736    1.8460 O   0  0  0  0  0  0  0  0  0  0  0  0
    4.6771    5.1026   -0.2989 C   0  0  0  0  0  0  0  0  0  0  0  0
    5.6176    6.0806   -0.4768 O   0  0  0  0  0  0  0  0  0  0  0  0
    4.5941    4.1449   -1.3076 C   0  0  0  0  0  0  0  0  0  0  0  0
    5.4310    4.1981   -2.3884 O   0  0  0  0  0  0  0  0  0  0  0  0
    3.6777    3.0998   -1.2413 C   0  0  0  0  0  0  0  0  0  0  0  0
   -4.5327   -0.0375   -0.0874 H   0  0  0  0  0  0  0  0  0  0  0  0
   -3.0434   -1.7610   -0.0484 H   0  0  0  0  0  0  0  0  0  0  0  0
   -1.3415   -3.2229   -0.0255 H   0  0  0  0  0  0  0  0  0  0  0  0
    4.3206    1.0236   -0.0571 H   0  0  0  0  0  0  0  0  0  0  0  0
   -1.9964    2.4081    0.0407 H   0  0  0  0  0  0  0  0  0  0  0  0
    2.2710    3.8567    1.7649 H   0  0  0  0  0  0  0  0  0  0  0  0
    4.4375    6.6020    1.7028 H   0  0  0  0  0  0  0  0  0  0  0  0
    5.6184    6.7048    0.2612 H   0  0  0  0  0  0  0  0  0  0  0  0
    5.9847    4.9923   -2.2545 H   0  0  0  0  0  0  0  0  0  0  0  0
    3.6560    2.3741   -2.0517 H   0  0  0  0  0  0  0  0  0  0  0  0
  1  2  1  0  0  0  0
  1 24  1  0  0  0  0
  2  3  2  0  0  0  0
  2 14  1  0  0  0  0
  3  4  1  0  0  0  0
  3 25  1  0  0  0  0
  4  5  1  0  0  0  0
  4  6  2  0  0  0  0
  5 26  1  0  0  0  0
  6  7  1  0  0  0  0
  6 13  1  0  0  0  0
  7  8  2  0  0  0  0
  7  9  1  0  0  0  0
  9 10  1  0  0  0  0
  9 11  2  0  0  0  0
 10 27  1  0  0  0  0
 11 12  1  0  0  0  0
 11 15  1  0  0  0  0
 12 13  1  0  0  0  0
 13 14  2  0  0  0  0
 14 28  1  0  0  0  0
 15 16  2  0  0  0  0
 15 23  1  0  0  0  0
 16 17  1  0  0  0  0
 16 29  1  0  0  0  0
 17 18  1  0  0  0  0
 17 19  2  0  0  0  0
 18 30  1  0  0  0  0
 19 20  1  0  0  0  0
 19 21  1  0  0  0  0
 20 31  1  0  0  0  0
 21 22  1  0  0  0  0
 21 23  2  0  0  0  0
 22 32  1  0  0  0  0
 23 33  1  0  0  0  0
M  END
>  <DRUGBANK_ID>
DB02375

>  <SECONDARY_ACCESSION_NUMBERS>
EXPT02265

>  <COMMON_NAME>
Myricetin

>  <CAS_NUMBER>
529-44-2

>  <UNII>
76XC01FTOJ

>  <SYNONYMS>
3,3',4,4',5',7-Hexahydro-2-phenyl-4H-chromen-4-one; 3,3',4',5,5',7-Hexahydroxyflavone; 3,5,7-Trihydroxy-2-(3,4,5-trihydroxyphenyl)-4H-chromen-4-one; 3,5,7,3',4',5'-Hexahydroxyflavone; Cannabiscetin; MYC; Myricetin; Myricetol; Myricitin

$$$$
