
 OpenBabel10282417213D

 29 30  0  0  1  0  0  0  0  0999 V2000
   -0.7172    1.1373    0.0091 C   0  0  0  0  0  0  0  0  0  0  0  0
   -1.4500    0.0268    0.0066 C   0  0  0  0  0  0  0  0  0  0  0  0
   -0.6624   -1.2359   -0.0029 C   0  0  0  0  0  0  0  0  0  0  0  0
    0.6393   -1.2555   -0.0065 N   0  0  0  0  0  0  0  0  0  0  0  0
    1.3580   -0.0788   -0.0091 C   0  0  0  0  0  0  0  0  0  0  0  0
    2.5908   -0.1005   -0.0276 O   0  0  0  0  0  0  0  0  0  0  0  0
    0.6609    1.1311   -0.0152 N   0  0  0  0  0  0  0  0  0  0  0  0
    1.4151    2.3856   -0.0087 C   0  0  1  0  0  0  0  0  0  0  0  0
    1.1646    3.3000   -1.2079 C   0  0  0  0  0  0  0  0  0  0  0  0
    1.3564    4.6807   -0.6193 C   0  0  1  0  0  0  0  0  0  0  0  0
    0.9172    4.5310    0.8341 C   0  0  2  0  0  0  0  0  0  0  0  0
    1.0903    3.1397    1.1763 O   0  0  0  0  0  0  0  0  0  0  0  0
   -0.5443    4.9492    1.0667 C   0  0  0  0  0  0  0  0  0  0  0  0
   -1.4889    4.2055    0.3070 O   0  0  0  0  0  0  0  0  0  0  0  0
    2.7330    5.0504   -0.7057 O   0  0  0  0  0  0  0  0  0  0  0  0
   -1.3044   -2.4429   -0.0145 N   0  0  0  0  0  0  0  0  0  0  0  0
   -3.4853    0.0304   -0.0008 I   0  0  0  0  0  0  0  0  0  0  0  0
   -1.2062    2.0932    0.0285 H   0  0  0  0  0  0  0  0  0  0  0  0
    2.4917    2.1867    0.0415 H   0  0  0  0  0  0  0  0  0  0  0  0
    0.1483    3.1850   -1.5950 H   0  0  0  0  0  0  0  0  0  0  0  0
    1.8469    3.0838   -2.0352 H   0  0  0  0  0  0  0  0  0  0  0  0
    0.7929    5.4550   -1.1492 H   0  0  0  0  0  0  0  0  0  0  0  0
    1.5545    5.1215    1.5046 H   0  0  0  0  0  0  0  0  0  0  0  0
   -0.8082    4.8125    2.1199 H   0  0  0  0  0  0  0  0  0  0  0  0
   -0.6862    6.0014    0.8064 H   0  0  0  0  0  0  0  0  0  0  0  0
   -1.2669    4.2829   -0.6336 H   0  0  0  0  0  0  0  0  0  0  0  0
    3.2687    4.4240   -0.1865 H   0  0  0  0  0  0  0  0  0  0  0  0
   -0.7620   -3.2954    0.0135 H   0  0  0  0  0  0  0  0  0  0  0  0
   -2.3144   -2.5022    0.0161 H   0  0  0  0  0  0  0  0  0  0  0  0
  1  2  2  0  0  0  0
  1  7  1  0  0  0  0
  1 18  1  0  0  0  0
  2  3  1  0  0  0  0
  2 17  1  0  0  0  0
  3  4  2  0  0  0  0
  3 16  1  0  0  0  0
  4  5  1  0  0  0  0
  5  6  2  0  0  0  0
  5  7  1  0  0  0  0
  8  7  1  0  0  0  0
  8  9  1  0  0  0  0
  8 12  1  0  0  0  0
  8 19  1  1  0  0  0
  9 10  1  0  0  0  0
  9 20  1  0  0  0  0
  9 21  1  0  0  0  0
 10 11  1  0  0  0  0
 10 15  1  0  0  0  0
 10 22  1  6  0  0  0
 11 12  1  0  0  0  0
 11 23  1  1  0  0  0
 11 13  1  0  0  0  0
 13 14  1  0  0  0  0
 13 24  1  0  0  0  0
 13 25  1  0  0  0  0
 14 26  1  0  0  0  0
 15 27  1  0  0  0  0
 16 28  1  0  0  0  0
 16 29  1  0  0  0  0
M  END
>  <DRUGBANK_ID>
DB13776

>  <COMMON_NAME>
Ibacitabine

>  <CAS_NUMBER>
611-53-0

>  <UNII>
3EK8532DZV

>  <SYNONYMS>
Ibacitabine

$$$$
