
 OpenBabel10282417113D

 65 64  0  0  0  0  0  0  0  0999 V2000
    1.3440   -0.2250    0.0360 C   0  0  0  0  0  0  0  0  0  0  0  0
    0.5020   -1.2510   -0.0040 C   0  0  0  0  0  0  0  0  0  0  0  0
    0.8920    1.0800   -0.0700 C   0  0  0  0  0  0  0  0  0  0  0  0
   -0.8560   -1.0420    0.0030 C   0  0  0  0  0  0  0  0  0  0  0  0
   -0.5090    1.2150    0.0750 C   0  0  0  0  0  0  0  0  0  0  0  0
   -1.8682   -4.7177    0.9181 C   0  0  0  0  0  0  0  0  0  0  0  0
   -2.1021   -3.9106   -0.3484 C   0  0  0  0  0  0  0  0  0  0  0  0
   -3.8171   -3.7270    1.9094 C   0  0  0  0  0  0  0  0  0  0  0  0
   -4.3432   -2.9535    3.1075 C   0  0  0  0  0  0  0  0  0  0  0  0
   -1.6719   -2.6839    2.1780 C   0  0  0  0  0  0  0  0  0  0  0  0
   -1.6231   -1.8441   -1.4722 C   0  0  0  0  0  0  0  0  0  0  0  0
   -1.9057   -1.8767    0.9114 C   0  0  0  0  0  0  0  0  0  0  0  0
   -2.1979   -1.9104    3.3761 C   0  0  0  0  0  0  0  0  0  0  0  0
   -2.8621    0.4740   -0.2141 C   0  0  0  0  0  0  0  0  0  0  0  0
   -3.1351    0.4425    2.0884 C   0  0  0  0  0  0  0  0  0  0  0  0
   -1.3730    0.2230   -0.0410 C   0  0  0  0  0  0  0  0  0  0  0  0
   -3.8642   -0.8870    1.9838 C   0  0  3  0  0  0  0  0  0  0  0  0
   -1.9057   -1.8767    0.9114 C   0  0  0  0  0  0  0  0  0  0  0  0
   -3.1122   -1.5931   -1.6453 C   0  0  0  0  0  0  0  0  0  0  0  0
   -3.3948   -1.6257    0.7383 C   0  0  0  0  0  0  0  0  0  0  0  0
   -1.6719   -2.6839    2.1780 C   0  0  0  0  0  0  0  0  0  0  0  0
   -3.3381   -1.6605    0.7857 C   0  0  0  0  0  0  0  0  0  0  0  0
   -2.3770   -3.9697    2.0768 N   0  0  0  0  0  0  0  0  0  0  0  0
   -1.3970   -2.6247   -0.2473 N   0  0  0  0  0  0  0  0  0  0  0  0
   -3.6381   -1.6676    3.2087 N   0  0  0  0  0  0  0  0  0  0  0  0
   -2.4674   -0.7386    0.9778 O   0  0  0  0  0  0  0  0  0  0  0  0
   -1.4966   -2.3943   -0.3460 O   0  5  0  0  0  0  0  0  0  0  0  0
   -3.5560   -0.4028   -1.6816 O   0  0  0  0  0  0  0  0  0  0  0  0
   -4.0076   -2.6886   -1.7664 O   0  5  0  0  0  0  0  0  0  0  0  0
   -4.2190   -2.0764    1.5944 O   0  0  0  0  0  0  0  0  0  0  0  0
   -3.8651   -0.8876   -0.3799 O   0  5  0  0  0  0  0  0  0  0  0  0
   -0.7572   -2.1841    1.4508 O   0  0  0  0  0  0  0  0  0  0  0  0
   -2.2023   -3.9649    1.8713 O   0  0  0  0  0  0  0  0  0  0  0  0
   -2.8039   -2.8018    0.9509 O   0  0  0  0  0  0  0  0  0  0  0  0
   -3.4436   -1.1079   -0.5181 O   0  0  0  0  0  0  0  0  0  0  0  0
   -3.3536    1.1966    0.9051 O   0  0  0  0  0  0  0  0  0  0  0  0
    0.9191   -0.0154   -0.0567 Gd  0  1  0  0  0  0  0  0  0  0  0  0
    2.3915   -0.4099    0.1523 H   0  0  0  0  0  0  0  0  0  0  0  0
    0.8845   -2.2496   -0.0420 H   0  0  0  0  0  0  0  0  0  0  0  0
    1.5432    1.9107   -0.2456 H   0  0  0  0  0  0  0  0  0  0  0  0
   -1.5185   -1.8813    0.0435 H   0  0  0  0  0  0  0  0  0  0  0  0
   -0.8953    2.1885    0.2939 H   0  0  0  0  0  0  0  0  0  0  0  0
   -0.8200   -4.8944    1.0400 H   0  0  0  0  0  0  0  0  0  0  0  0
   -2.3815   -5.6537    0.8445 H   0  0  0  0  0  0  0  0  0  0  0  0
   -1.7318   -4.4551   -1.1918 H   0  0  0  0  0  0  0  0  0  0  0  0
   -3.1504   -3.7339   -0.4703 H   0  0  0  0  0  0  0  0  0  0  0  0
   -4.3304   -4.6629    1.8358 H   0  0  0  0  0  0  0  0  0  0  0  0
   -3.9818   -3.1588    1.0178 H   0  0  0  0  0  0  0  0  0  0  0  0
   -4.1786   -3.5217    3.9991 H   0  0  0  0  0  0  0  0  0  0  0  0
   -5.3915   -2.7768    2.9856 H   0  0  0  0  0  0  0  0  0  0  0  0
   -2.0422   -2.1394    3.0214 H   0  0  0  0  0  0  0  0  0  0  0  0
   -0.6236   -2.8606    2.2999 H   0  0  0  0  0  0  0  0  0  0  0  0
   -1.1099   -0.9082   -1.3985 H   0  0  0  0  0  0  0  0  0  0  0  0
   -1.2528   -2.3886   -2.3155 H   0  0  0  0  0  0  0  0  0  0  0  0
   -1.7411   -2.4449    1.8030 H   0  0  0  0  0  0  0  0  0  0  0  0
   -1.3924   -0.9408    0.9851 H   0  0  0  0  0  0  0  0  0  0  0  0
   -1.6847   -0.9744    3.4497 H   0  0  0  0  0  0  0  0  0  0  0  0
   -2.0333   -2.4786    4.2677 H   0  0  0  0  0  0  0  0  0  0  0  0
   -3.0267    1.0422   -1.1057 H   0  0  0  0  0  0  0  0  0  0  0  0
   -3.3754   -0.4619   -0.2878 H   0  0  0  0  0  0  0  0  0  0  0  0
   -2.0868    0.2658    2.2103 H   0  0  0  0  0  0  0  0  0  0  0  0
   -3.5054    0.9870    2.9318 H   0  0  0  0  0  0  0  0  0  0  0  0
   -4.9125   -0.7103    1.8619 H   0  0  0  0  0  0  0  0  0  0  0  0
   -1.8562   -4.4737    1.0831 H   0  0  0  0  0  0  0  0  0  0  0  0
   -3.0975   -1.6168   -1.3063 H   0  0  0  0  0  0  0  0  0  0  0  0
  1 38  1  0  0  0  0
  2  1  2  0  0  0  0
  2 39  1  0  0  0  0
  3  1  1  0  0  0  0
  3 40  1  0  0  0  0
  4  2  1  0  0  0  0
  4 41  1  0  0  0  0
  5  3  2  0  0  0  0
  5 42  1  0  0  0  0
  6 43  1  0  0  0  0
  6 44  1  0  0  0  0
  7  6  1  0  0  0  0
  7 45  1  0  0  0  0
  7 46  1  0  0  0  0
  8 47  1  0  0  0  0
  8 48  1  0  0  0  0
  9  8  1  0  0  0  0
  9 49  1  0  0  0  0
  9 50  1  0  0  0  0
 10 51  1  0  0  0  0
 10 52  1  0  0  0  0
 11 53  1  0  0  0  0
 11 54  1  0  0  0  0
 12 55  1  0  0  0  0
 12 56  1  0  0  0  0
 13 57  1  0  0  0  0
 13 58  1  0  0  0  0
 14 59  1  0  0  0  0
 14 60  1  0  0  0  0
 15 61  1  0  0  0  0
 15 62  1  0  0  0  0
 16  4  2  0  0  0  0
 16  5  1  0  0  0  0
 16 14  1  0  0  0  0
 17 15  1  0  0  0  0
 17 63  1  0  0  0  0
 18 10  1  0  0  0  0
 19 11  1  0  0  0  0
 20 12  1  0  0  0  0
 21 13  1  0  0  0  0
 22 17  1  0  0  0  0
 23  6  1  0  0  0  0
 23  8  1  0  0  0  0
 23 10  1  0  0  0  0
 24  7  1  0  0  0  0
 24 11  1  0  0  0  0
 24 12  1  0  0  0  0
 25  9  1  0  0  0  0
 25 13  1  0  0  0  0
 25 17  1  0  0  0  0
 26 18  2  0  0  0  0
 27 18  1  0  0  0  0
 28 19  2  0  0  0  0
 29 19  1  0  0  0  0
 30 20  2  0  0  0  0
 31 20  1  0  0  0  0
 32 21  2  0  0  0  0
 33 21  1  0  0  0  0
 33 64  1  0  0  0  0
 34 22  2  0  0  0  0
 35 22  1  0  0  0  0
 35 65  1  0  0  0  0
 36 14  1  0  0  0  0
 36 15  1  0  0  0  0
M  CHG  4  27  -1  29  -1  31  -1  37   3
M  END
>  <DRUGBANK_ID>
DB00743

>  <SECONDARY_ACCESSION_NUMBERS>
APRD00989

>  <COMMON_NAME>
Gadobenic acid

>  <CAS_NUMBER>
113662-23-0

>  <UNII>
15G12L5X8K

>  <SYNONYMS>
Acide gadobenique; Acido gadobenico; Acidum gadobenicum; Gadobenate; Gadobenic acid; Gadobens√§ure

$$$$
