1007
 OpenBabel10282417113D

 36 38  0  0  1  0  0  0  0  0999 V2000
   -2.4286    1.1561   -0.0425 Cl  0  0  0  0  0  0  0  0  0  0  0  0
    2.8208    0.7876    0.0122 Cl  0  0  0  0  0  0  0  0  0  0  0  0
   -5.7022   -3.2080   -2.2128 Cl  0  0  0  0  0  0  0  0  0  0  0  0
   -6.0792   -0.2916   -2.2467 S   0  0  0  0  0  0  0  0  0  0  0  0
   -2.5340   -2.9856   -1.1592 O   0  0  0  0  0  0  0  0  0  0  0  0
   -2.5823   -2.2315    2.5442 N   0  0  0  0  0  0  0  0  0  0  0  0
   -2.4449   -1.7477    4.7118 N   0  0  0  0  0  0  0  0  0  0  0  0
   -2.4613   -2.1381    0.0104 C   0  0  3  0  0  0  0  0  0  0  0  0
   -2.5908   -2.9990    1.3054 C   0  0  0  0  0  0  0  0  0  0  0  0
   -1.1568   -1.3506   -0.0258 C   0  0  0  0  0  0  0  0  0  0  0  0
   -2.5630   -2.2475   -2.4042 C   0  0  0  0  0  0  0  0  0  0  0  0
   -1.0834    0.0620   -0.0538 C   0  0  0  0  0  0  0  0  0  0  0  0
    0.0482   -2.0822   -0.0206 C   0  0  0  0  0  0  0  0  0  0  0  0
   -2.6627   -0.8810    2.6794 C   0  0  0  0  0  0  0  0  0  0  0  0
   -3.7152   -1.2945   -2.4990 C   0  0  0  0  0  0  0  0  0  0  0  0
   -2.4985   -2.7165    3.8191 C   0  0  0  0  0  0  0  0  0  0  0  0
    0.1469    0.7057   -0.0401 C   0  0  0  0  0  0  0  0  0  0  0  0
    1.2759   -1.4257   -0.0084 C   0  0  0  0  0  0  0  0  0  0  0  0
    1.3161   -0.0360   -0.0139 C   0  0  0  0  0  0  0  0  0  0  0  0
   -2.5221   -0.5907    3.9950 C   0  0  0  0  0  0  0  0  0  0  0  0
   -3.5872    0.1276   -2.6610 C   0  0  0  0  0  0  0  0  0  0  0  0
   -5.0439   -1.6264   -2.3642 C   0  0  0  0  0  0  0  0  0  0  0  0
   -4.7750    0.7953   -2.4398 C   0  0  0  0  0  0  0  0  0  0  0  0
   -3.3369   -1.4849    0.0023 H   0  0  0  0  0  0  0  0  0  0  0  0
   -3.5318   -3.5647    1.2885 H   0  0  0  0  0  0  0  0  0  0  0  0
   -1.7888   -3.7466    1.3717 H   0  0  0  0  0  0  0  0  0  0  0  0
   -1.6078   -1.7223   -2.5277 H   0  0  0  0  0  0  0  0  0  0  0  0
   -2.6111   -2.9714   -3.2240 H   0  0  0  0  0  0  0  0  0  0  0  0
    0.0358   -3.1728   -0.0215 H   0  0  0  0  0  0  0  0  0  0  0  0
   -2.8061   -0.2185    1.8561 H   0  0  0  0  0  0  0  0  0  0  0  0
   -2.4802   -3.7728    4.0517 H   0  0  0  0  0  0  0  0  0  0  0  0
    0.1804    1.7917   -0.0291 H   0  0  0  0  0  0  0  0  0  0  0  0
    2.1951   -2.0035    0.0139 H   0  0  0  0  0  0  0  0  0  0  0  0
   -2.5012    0.4007    4.4382 H   0  0  0  0  0  0  0  0  0  0  0  0
   -2.6431    0.6501   -2.7810 H   0  0  0  0  0  0  0  0  0  0  0  0
   -4.9277    1.8645   -2.3590 H   0  0  0  0  0  0  0  0  0  0  0  0
  1 12  1  0  0  0  0
  2 19  1  0  0  0  0
  3 22  1  0  0  0  0
  4 22  1  0  0  0  0
  4 23  1  0  0  0  0
  5  8  1  0  0  0  0
  5 11  1  0  0  0  0
  6  9  1  0  0  0  0
  6 14  1  0  0  0  0
  6 16  1  0  0  0  0
  7 16  2  0  0  0  0
  7 20  1  0  0  0  0
  8  9  1  0  0  0  0
  8 10  1  0  0  0  0
  8 24  1  0  0  0  0
  9 25  1  0  0  0  0
  9 26  1  0  0  0  0
 10 12  2  0  0  0  0
 10 13  1  0  0  0  0
 11 15  1  0  0  0  0
 11 27  1  0  0  0  0
 11 28  1  0  0  0  0
 12 17  1  0  0  0  0
 13 18  2  0  0  0  0
 13 29  1  0  0  0  0
 14 20  2  0  0  0  0
 14 30  1  0  0  0  0
 15 21  1  0  0  0  0
 15 22  2  0  0  0  0
 16 31  1  0  0  0  0
 17 19  2  0  0  0  0
 17 32  1  0  0  0  0
 18 19  1  0  0  0  0
 18 33  1  0  0  0  0
 20 34  1  0  0  0  0
 21 23  2  0  0  0  0
 21 35  1  0  0  0  0
 23 36  1  0  0  0  0
M  END
>  <DRUGBANK_ID>
DB01007

>  <SECONDARY_ACCESSION_NUMBERS>
APRD01262

>  <COMMON_NAME>
Tioconazole

>  <CAS_NUMBER>
65899-73-2

>  <UNII>
S57Y5X1117

>  <SYNONYMS>
Tioconazol; Tioconazole; Tioconazolum

$$$$
