
 OpenBabel10282417143D

 40 41  0  0  0  0  0  0  0  0999 V2000
   -0.2313    0.8039   -0.1310 C   0  0  3  0  0  0  0  0  0  0  0  0
    0.7728   -0.3891    0.1915 C   0  0  3  0  0  0  0  0  0  0  0  0
   -0.7291   -0.6043    0.1256 C   0  0  0  0  0  0  0  0  0  0  0  0
   -0.1718    2.1264    1.0450 C   0  0  0  0  0  0  0  0  0  0  0  0
   -0.0331    3.5834    0.6228 N   0  0  0  0  0  0  0  0  0  0  0  0
   -0.5048    1.1854   -1.6138 C   0  0  0  0  0  0  0  0  0  0  0  0
   -0.1621    1.8432    2.2118 O   0  0  0  0  0  0  0  0  0  0  0  0
    1.7664   -0.9360   -0.8167 C   0  0  0  0  0  0  0  0  0  0  0  0
    3.0705   -0.3159   -0.5702 N   0  0  0  0  0  0  0  0  0  0  0  0
   -0.0978    4.7327    1.5012 C   0  0  0  0  0  0  0  0  0  0  0  0
    0.1775    4.1806   -0.6928 C   0  0  0  0  0  0  0  0  0  0  0  0
   -0.9600    0.8051   -2.8103 C   0  0  0  0  0  0  0  0  0  0  0  0
    0.1173    2.3070   -1.9394 C   0  0  0  0  0  0  0  0  0  0  0  0
    1.1204    5.6215    1.1233 C   0  0  0  0  0  0  0  0  0  0  0  0
    1.8689    3.8176   -1.4552 C   0  0  0  0  0  0  0  0  0  0  0  0
   -0.1249    3.3439   -2.9728 C   0  0  0  0  0  0  0  0  0  0  0  0
   -1.0587    1.7022   -4.0098 C   0  0  0  0  0  0  0  0  0  0  0  0
   -0.7298    3.0432   -4.0692 C   0  0  0  0  0  0  0  0  0  0  0  0
    1.1692   -0.5673    1.1933 H   0  0  0  0  0  0  0  0  0  0  0  0
   -1.3197   -0.8233    1.0036 H   0  0  0  0  0  0  0  0  0  0  0  0
   -1.1857   -1.0532   -0.7568 H   0  0  0  0  0  0  0  0  0  0  0  0
    1.8947   -2.0176   -0.6782 H   0  0  0  0  0  0  0  0  0  0  0  0
    1.4865   -0.7862   -1.8645 H   0  0  0  0  0  0  0  0  0  0  0  0
    3.7784   -0.7194   -1.1857 H   0  0  0  0  0  0  0  0  0  0  0  0
    3.0321    0.6737   -0.8012 H   0  0  0  0  0  0  0  0  0  0  0  0
   -1.0247    5.2878    1.2460 H   0  0  0  0  0  0  0  0  0  0  0  0
   -0.1312    4.4461    2.5432 H   0  0  0  0  0  0  0  0  0  0  0  0
   -0.8450    3.8768   -1.0695 H   0  0  0  0  0  0  0  0  0  0  0  0
   -0.1184    5.2337   -0.8876 H   0  0  0  0  0  0  0  0  0  0  0  0
   -1.1556   -0.2457   -2.9291 H   0  0  0  0  0  0  0  0  0  0  0  0
    0.7117    2.3531   -1.0371 H   0  0  0  0  0  0  0  0  0  0  0  0
    1.1578    5.9808    0.0773 H   0  0  0  0  0  0  0  0  0  0  0  0
    1.1455    6.5426    1.6806 H   0  0  0  0  0  0  0  0  0  0  0  0
    2.0285    5.0169    1.2021 H   0  0  0  0  0  0  0  0  0  0  0  0
    2.2195    2.7417   -1.4378 H   0  0  0  0  0  0  0  0  0  0  0  0
    1.9644    3.8804   -2.5728 H   0  0  0  0  0  0  0  0  0  0  0  0
    2.7082    4.2488   -0.9487 H   0  0  0  0  0  0  0  0  0  0  0  0
    0.1883    4.4131   -2.8864 H   0  0  0  0  0  0  0  0  0  0  0  0
   -1.3614    1.2719   -4.9301 H   0  0  0  0  0  0  0  0  0  0  0  0
   -0.7368    3.8016   -4.8515 H   0  0  0  0  0  0  0  0  0  0  0  0
  1  4  1  0  0  0  0
  2  1  1  0  0  0  0
  2  8  1  0  0  0  0
  2 19  1  0  0  0  0
  3  1  1  0  0  0  0
  3  2  1  0  0  0  0
  3 20  1  0  0  0  0
  3 21  1  0  0  0  0
  5  4  1  0  0  0  0
  6  1  1  0  0  0  0
  7  4  2  0  0  0  0
  8 22  1  0  0  0  0
  8 23  1  0  0  0  0
  9  8  1  0  0  0  0
  9 24  1  0  0  0  0
  9 25  1  0  0  0  0
 10  5  1  0  0  0  0
 10 26  1  0  0  0  0
 10 27  1  0  0  0  0
 11  5  1  0  0  0  0
 11 28  1  0  0  0  0
 11 29  1  0  0  0  0
 12  6  2  0  0  0  0
 12 30  1  0  0  0  0
 13  6  1  0  0  0  0
 13 31  1  0  0  0  0
 14 10  1  0  0  0  0
 14 32  1  0  0  0  0
 14 33  1  0  0  0  0
 14 34  1  0  0  0  0
 15 11  1  0  0  0  0
 15 35  1  0  0  0  0
 15 36  1  0  0  0  0
 15 37  1  0  0  0  0
 16 13  2  0  0  0  0
 16 38  1  0  0  0  0
 17 12  1  0  0  0  0
 17 18  2  0  0  0  0
 17 39  1  0  0  0  0
 18 16  1  0  0  0  0
 18 40  1  0  0  0  0
M  END
>  <DRUGBANK_ID>
DB04896

>  <COMMON_NAME>
Milnacipran

>  <CAS_NUMBER>
92623-85-3

>  <UNII>
G56VK1HF36

>  <SYNONYMS>
(+-)-Milnacipran; Midalcipran; Milnacipran; Milnacipranum

$$$$
