MXA
 OpenBabel10282417133D

 43 45  0  0  0  0  0  0  0  0999 V2000
    1.3340   -1.2534    0.0168 N   0  0  0  0  0  0  0  0  0  0  0  0
    2.4835   -0.5985    0.0573 C   0  0  0  0  0  0  0  0  0  0  0  0
    3.6217   -1.3343    0.0621 N   0  0  0  0  0  0  0  0  0  0  0  0
    2.5889    0.7281    0.0645 N   0  0  0  0  0  0  0  0  0  0  0  0
    1.4672    1.4511    0.0222 C   0  0  0  0  0  0  0  0  0  0  0  0
    1.6821    2.8110   -0.1600 N   0  0  0  0  0  0  0  0  0  0  0  0
    0.1936    0.8737   -0.0288 C   0  0  0  0  0  0  0  0  0  0  0  0
   -1.0697    1.5380   -0.0915 C   0  0  0  0  0  0  0  0  0  0  0  0
   -1.3320    3.0161   -0.0146 C   0  0  0  0  0  0  0  0  0  0  0  0
   -2.2113    0.7602   -0.2662 C   0  0  0  0  0  0  0  0  0  0  0  0
   -1.9863   -0.6096   -0.4662 C   0  0  0  0  0  0  0  0  0  0  0  0
   -0.8306   -1.2533   -0.2811 N   0  0  0  0  0  0  0  0  0  0  0  0
    0.2519   -0.5307   -0.0663 C   0  0  0  0  0  0  0  0  0  0  0  0
   -3.5798    1.4262   -0.1226 C   0  0  0  0  0  0  0  0  0  0  0  0
   -4.5409    1.0599   -1.1815 C   0  0  0  0  0  0  0  0  0  0  0  0
   -5.0612   -0.2225   -1.2637 C   0  0  0  0  0  0  0  0  0  0  0  0
   -4.8987   -1.2385   -0.3541 O   0  0  0  0  0  0  0  0  0  0  0  0
   -4.5091   -1.0383    1.0219 C   0  0  0  0  0  0  0  0  0  0  0  0
   -5.7648   -0.5218   -2.4282 C   0  0  0  0  0  0  0  0  0  0  0  0
   -6.1917    0.4992   -3.3054 C   0  0  0  0  0  0  0  0  0  0  0  0
   -5.7157    1.8017   -3.1811 C   0  0  0  0  0  0  0  0  0  0  0  0
   -6.1253    2.7229   -4.1056 O   0  0  0  0  0  0  0  0  0  0  0  0
   -5.4940    4.0058   -4.0510 C   0  0  0  0  0  0  0  0  0  0  0  0
   -4.8393    2.0557   -2.1456 C   0  0  0  0  0  0  0  0  0  0  0  0
    3.5410   -2.3358   -0.0117 H   0  0  0  0  0  0  0  0  0  0  0  0
    4.4930   -0.8375   -0.0094 H   0  0  0  0  0  0  0  0  0  0  0  0
    1.1012    3.4323    0.3725 H   0  0  0  0  0  0  0  0  0  0  0  0
    2.6632    3.0155   -0.0128 H   0  0  0  0  0  0  0  0  0  0  0  0
   -1.9219    3.3049   -0.8945 H   0  0  0  0  0  0  0  0  0  0  0  0
   -1.8806    3.2425    0.9095 H   0  0  0  0  0  0  0  0  0  0  0  0
   -0.5106    3.7024   -0.0635 H   0  0  0  0  0  0  0  0  0  0  0  0
   -2.7479   -1.3336   -0.7354 H   0  0  0  0  0  0  0  0  0  0  0  0
   -4.0260    1.3068    0.8684 H   0  0  0  0  0  0  0  0  0  0  0  0
   -3.5410    2.5162   -0.1393 H   0  0  0  0  0  0  0  0  0  0  0  0
   -3.5596   -0.5374    1.2105 H   0  0  0  0  0  0  0  0  0  0  0  0
   -5.2615   -0.4906    1.5884 H   0  0  0  0  0  0  0  0  0  0  0  0
   -4.2950   -2.0153    1.4614 H   0  0  0  0  0  0  0  0  0  0  0  0
   -5.9926   -1.5566   -2.6692 H   0  0  0  0  0  0  0  0  0  0  0  0
   -6.9112    0.2622   -4.0839 H   0  0  0  0  0  0  0  0  0  0  0  0
   -5.7399    4.5301   -3.1199 H   0  0  0  0  0  0  0  0  0  0  0  0
   -4.4072    3.9215   -4.1723 H   0  0  0  0  0  0  0  0  0  0  0  0
   -5.8675    4.6155   -4.8797 H   0  0  0  0  0  0  0  0  0  0  0  0
   -4.3789    3.0353   -2.0435 H   0  0  0  0  0  0  0  0  0  0  0  0
  1  2  2  0  0  0  0
  1 13  1  0  0  0  0
  2  3  1  0  0  0  0
  2  4  1  0  0  0  0
  3 25  1  0  0  0  0
  3 26  1  0  0  0  0
  4  5  2  0  0  0  0
  5  6  1  0  0  0  0
  5  7  1  0  0  0  0
  6 27  1  0  0  0  0
  6 28  1  0  0  0  0
  7  8  1  0  0  0  0
  7 13  2  0  0  0  0
  8  9  1  0  0  0  0
  8 10  2  0  0  0  0
  9 29  1  0  0  0  0
  9 30  1  0  0  0  0
  9 31  1  0  0  0  0
 10 11  1  0  0  0  0
 10 14  1  0  0  0  0
 11 12  2  0  0  0  0
 11 32  1  0  0  0  0
 12 13  1  0  0  0  0
 14 15  1  0  0  0  0
 14 33  1  0  0  0  0
 14 34  1  0  0  0  0
 15 16  2  0  0  0  0
 15 24  1  0  0  0  0
 16 17  1  0  0  0  0
 16 19  1  0  0  0  0
 17 18  1  0  0  0  0
 18 35  1  0  0  0  0
 18 36  1  0  0  0  0
 18 37  1  0  0  0  0
 19 20  2  0  0  0  0
 19 38  1  0  0  0  0
 20 21  1  0  0  0  0
 20 39  1  0  0  0  0
 21 22  1  0  0  0  0
 21 24  2  0  0  0  0
 22 23  1  0  0  0  0
 23 40  1  0  0  0  0
 23 41  1  0  0  0  0
 23 42  1  0  0  0  0
 24 43  1  0  0  0  0
M  END
>  <DRUGBANK_ID>
DB03695

>  <SECONDARY_ACCESSION_NUMBERS>
EXPT02259; DB12918

>  <COMMON_NAME>
Piritrexim

>  <CAS_NUMBER>
72732-56-0

>  <UNII>
MK2A783ZUT

>  <SYNONYMS>
Piritrexim

$$$$
