
 OpenBabel10282417153D

 48 50  0  0  0  0  0  0  0  0999 V2000
    0.6267    1.2719    0.0040 C   0  0  0  0  0  0  0  0  0  0  0  0
    1.3069    0.0682    0.0020 C   0  0  0  0  0  0  0  0  0  0  0  0
    0.5831   -1.1378    0.0078 C   0  0  0  0  0  0  0  0  0  0  0  0
   -0.7959   -1.0779    0.0111 C   0  0  0  0  0  0  0  0  0  0  0  0
   -1.4830    0.0795    0.0056 N   0  0  0  0  0  0  0  0  0  0  0  0
   -0.7554    1.2203    0.0018 C   0  0  0  0  0  0  0  0  0  0  0  0
    1.3296   -2.3852    0.0182 C   0  0  0  0  0  0  0  0  0  0  0  0
    0.9091   -3.6542   -0.0286 C   0  0  0  0  0  0  0  0  0  0  0  0
    1.6920   -4.9264   -0.0623 C   0  0  0  0  0  0  0  0  0  0  0  0
    1.0788   -5.9829   -0.0183 O   0  0  0  0  0  0  0  0  0  0  0  0
    3.0430   -4.9744   -0.1833 N   0  0  0  0  0  0  0  0  0  0  0  0
    4.0500   -3.9544   -0.2092 C   0  0  0  0  0  0  0  0  0  0  0  0
    4.7614   -3.8238    1.0955 C   0  0  0  0  0  0  0  0  0  0  0  0
    5.0740   -2.5512    1.5324 C   0  0  0  0  0  0  0  0  0  0  0  0
    5.8992   -2.4150    2.6265 C   0  0  0  0  0  0  0  0  0  0  0  0
    6.1905   -3.4565    3.5029 C   0  0  0  0  0  0  0  0  0  0  0  0
    5.8201   -4.7387    3.0891 C   0  0  0  0  0  0  0  0  0  0  0  0
    5.1937   -4.9219    1.8481 C   0  0  0  0  0  0  0  0  0  0  0  0
    6.9622   -3.2637    4.7771 C   0  0  0  0  0  0  0  0  0  0  0  0
    7.3828   -4.2729    5.3608 O   0  0  0  0  0  0  0  0  0  0  0  0
    7.3155   -2.0204    5.2878 N   0  0  0  0  0  0  0  0  0  0  0  0
    6.9642   -0.7294    4.8422 C   0  0  0  0  0  0  0  0  0  0  0  0
    5.6156   -0.4083    4.5974 C   0  0  0  0  0  0  0  0  0  0  0  0
    5.2962    0.7273    3.8530 C   0  0  0  0  0  0  0  0  0  0  0  0
    6.3025    1.6259    3.5320 C   0  0  0  0  0  0  0  0  0  0  0  0
    7.6236    1.4015    3.9216 C   0  0  0  0  0  0  0  0  0  0  0  0
    7.9916    0.1753    4.4890 C   0  0  0  0  0  0  0  0  0  0  0  0
    9.3419   -0.0838    4.7830 N   0  0  0  0  0  0  0  0  0  0  0  0
    6.0033    2.7062    2.7982 F   0  0  0  0  0  0  0  0  0  0  0  0
    1.1589    2.2161    0.0060 H   0  0  0  0  0  0  0  0  0  0  0  0
    2.3971    0.0836   -0.0047 H   0  0  0  0  0  0  0  0  0  0  0  0
   -1.3981   -1.9801    0.0205 H   0  0  0  0  0  0  0  0  0  0  0  0
   -1.3423    2.1306   -0.0043 H   0  0  0  0  0  0  0  0  0  0  0  0
    2.3542   -2.1047    0.0857 H   0  0  0  0  0  0  0  0  0  0  0  0
   -0.1556   -3.8766   -0.0360 H   0  0  0  0  0  0  0  0  0  0  0  0
    3.3829   -5.9260   -0.1460 H   0  0  0  0  0  0  0  0  0  0  0  0
    4.7272   -4.0968   -1.0517 H   0  0  0  0  0  0  0  0  0  0  0  0
    3.6271   -3.0016   -0.4421 H   0  0  0  0  0  0  0  0  0  0  0  0
    4.7602   -1.6504    1.0090 H   0  0  0  0  0  0  0  0  0  0  0  0
    6.3236   -1.4360    2.7211 H   0  0  0  0  0  0  0  0  0  0  0  0
    6.0584   -5.6121    3.6932 H   0  0  0  0  0  0  0  0  0  0  0  0
    5.0388   -5.9286    1.4718 H   0  0  0  0  0  0  0  0  0  0  0  0
    8.0860   -2.0693    5.9446 H   0  0  0  0  0  0  0  0  0  0  0  0
    4.8316   -1.1286    4.8248 H   0  0  0  0  0  0  0  0  0  0  0  0
    4.2883    0.8766    3.4766 H   0  0  0  0  0  0  0  0  0  0  0  0
    8.3609    2.1683    3.7100 H   0  0  0  0  0  0  0  0  0  0  0  0
   10.0128    0.4803    4.2663 H   0  0  0  0  0  0  0  0  0  0  0  0
    9.5946   -1.0690    4.7797 H   0  0  0  0  0  0  0  0  0  0  0  0
  1  2  2  0  0  0  0
  1  6  1  0  0  0  0
  1 30  1  0  0  0  0
  2  3  1  0  0  0  0
  2 31  1  0  0  0  0
  3  4  2  0  0  0  0
  3  7  1  0  0  0  0
  4  5  1  0  0  0  0
  4 32  1  0  0  0  0
  5  6  2  0  0  0  0
  6 33  1  0  0  0  0
  7  8  2  0  0  0  0
  7 34  1  0  0  0  0
  8  9  1  0  0  0  0
  8 35  1  0  0  0  0
  9 10  2  0  0  0  0
  9 11  1  0  0  0  0
 11 12  1  0  0  0  0
 11 36  1  0  0  0  0
 12 13  1  0  0  0  0
 12 37  1  0  0  0  0
 12 38  1  0  0  0  0
 13 14  2  0  0  0  0
 13 18  1  0  0  0  0
 14 15  1  0  0  0  0
 14 39  1  0  0  0  0
 15 16  2  0  0  0  0
 15 40  1  0  0  0  0
 16 17  1  0  0  0  0
 16 19  1  0  0  0  0
 17 18  2  0  0  0  0
 17 41  1  0  0  0  0
 18 42  1  0  0  0  0
 19 20  2  0  0  0  0
 19 21  1  0  0  0  0
 21 22  1  0  0  0  0
 21 43  1  0  0  0  0
 22 23  2  0  0  0  0
 22 27  1  0  0  0  0
 23 24  1  0  0  0  0
 23 44  1  0  0  0  0
 24 25  2  0  0  0  0
 24 45  1  0  0  0  0
 25 26  1  0  0  0  0
 25 29  1  0  0  0  0
 26 27  2  0  0  0  0
 26 46  1  0  0  0  0
 27 28  1  0  0  0  0
 28 47  1  0  0  0  0
 28 48  1  0  0  0  0
M  END
>  <DRUGBANK_ID>
DB06334

>  <COMMON_NAME>
Tucidinostat

>  <CAS_NUMBER>
1616493-44-7

>  <UNII>
87CIC980Y0

>  <SYNONYMS>
Chidamide; Tucidinostat

$$$$
