
 OpenBabel10282417133D

 18 18  0  0  0  0  0  0  0  0999 V2000
   -2.6008   -0.3548   -0.0157 C   0  0  0  0  0  0  0  0  0  0  0  0
   -1.1331   -0.1236    0.0046 C   0  0  0  0  0  0  0  0  0  0  0  0
   -0.1315   -1.0812    0.0384 C   0  0  0  0  0  0  0  0  0  0  0  0
   -0.2432   -2.5816    0.0384 C   0  0  0  0  0  0  0  0  0  0  0  0
    0.3194   -3.2196   -1.2323 C   0  0  0  0  0  0  0  0  0  0  0  0
    1.7315   -3.0699   -1.3227 O   0  0  0  0  0  0  0  0  0  0  0  0
    1.4018   -0.3005    0.1252 S   0  0  0  0  0  0  0  0  0  0  0  0
    0.6245    1.2176    0.0298 C   0  0  0  0  0  0  0  0  0  0  0  0
   -0.6843    1.1905   -0.0154 N   0  0  0  0  0  0  0  0  0  0  0  0
   -3.0637    0.0989    0.8656 H   0  0  0  0  0  0  0  0  0  0  0  0
   -3.0392    0.0863   -0.9150 H   0  0  0  0  0  0  0  0  0  0  0  0
   -2.8527   -1.4180   -0.0107 H   0  0  0  0  0  0  0  0  0  0  0  0
    0.2535   -2.9836    0.9285 H   0  0  0  0  0  0  0  0  0  0  0  0
   -1.2972   -2.8717    0.1107 H   0  0  0  0  0  0  0  0  0  0  0  0
    0.1134   -4.2943   -1.2232 H   0  0  0  0  0  0  0  0  0  0  0  0
   -0.1358   -2.7943   -2.1329 H   0  0  0  0  0  0  0  0  0  0  0  0
    1.9155   -2.1130   -1.2782 H   0  0  0  0  0  0  0  0  0  0  0  0
    1.1896    2.1428    0.0145 H   0  0  0  0  0  0  0  0  0  0  0  0
  1  2  1  0  0  0  0
  1 10  1  0  0  0  0
  1 11  1  0  0  0  0
  1 12  1  0  0  0  0
  2  3  2  0  0  0  0
  2  9  1  0  0  0  0
  3  4  1  0  0  0  0
  3  7  1  0  0  0  0
  4  5  1  0  0  0  0
  4 13  1  0  0  0  0
  4 14  1  0  0  0  0
  5  6  1  0  0  0  0
  5 15  1  0  0  0  0
  5 16  1  0  0  0  0
  6 17  1  0  0  0  0
  7  8  1  0  0  0  0
  8  9  2  0  0  0  0
  8 18  1  0  0  0  0
M  END
>  <DRUGBANK_ID>
DB02969

>  <SECONDARY_ACCESSION_NUMBERS>
EXPT03151

>  <COMMON_NAME>
5-(2-hydroxyethyl)-4-methylthiazole

>  <CAS_NUMBER>
137-00-8

>  <UNII>
3XYV4I47I8

>  <SYNONYMS>
4-Methyl-5-(2-hydroxyethyl)thiazole; 4-Methyl-5-hydroxethylthiazole; 4-Methyl-5-thiazoleethanol; 4-Methyl-5-thiazolethanol; Hemineurine; Sulfurol

$$$$
