
 OpenBabel10282417213D

 43 44  0  0  0  0  0  0  0  0999 V2000
    1.3229    0.0331    0.5661 C   0  0  0  0  0  0  0  0  0  0  0  0
    0.8724   -3.0355   -3.5826 C   0  0  0  0  0  0  0  0  0  0  0  0
   -5.7027    1.5281   -3.4908 C   0  0  0  0  0  0  0  0  0  0  0  0
   -4.8002    2.8688   -5.4240 C   0  0  0  0  0  0  0  0  0  0  0  0
    0.8578   -1.2298   -0.1913 C   0  0  0  0  0  0  0  0  0  0  0  0
    0.6890   -3.3393   -2.0004 C   0  0  0  0  0  0  0  0  0  0  0  0
   -0.2497   -0.6918   -2.3903 C   0  0  0  0  0  0  0  0  0  0  0  0
   -1.4813   -0.2536   -2.0121 C   0  0  0  0  0  0  0  0  0  0  0  0
    2.7353   -2.3092   -1.0680 C   0  0  0  0  0  0  0  0  0  0  0  0
    3.0047   -1.4991   -2.3829 C   0  0  0  0  0  0  0  0  0  0  0  0
    0.4481    0.9991   -3.7734 C   0  0  0  0  0  0  0  0  0  0  0  0
    0.8489   -0.0580   -3.0002 C   0  0  0  0  0  0  0  0  0  0  0  0
   -1.8488    0.7089   -2.8711 C   0  0  0  0  0  0  0  0  0  0  0  0
   -0.9456    1.2689   -3.7796 C   0  0  0  0  0  0  0  0  0  0  0  0
   -3.3424    1.7129   -3.9774 C   0  0  0  0  0  0  0  0  0  0  0  0
   -3.1354    1.0036   -2.9003 N   0  0  0  0  0  0  0  0  0  0  0  0
   -4.5947    1.9992   -4.3088 N   0  0  0  0  0  0  0  0  0  0  0  0
    1.3470   -2.5706   -0.7403 N   0  0  0  0  0  0  0  0  0  0  0  0
    2.2026   -0.3559   -2.9025 O   0  0  0  0  0  0  0  0  0  0  0  0
   -1.9072    2.1982   -4.8293 S   0  0  0  0  0  0  0  0  0  0  0  0
    1.0026   -0.0015    1.5971 H   0  0  0  0  0  0  0  0  0  0  0  0
    0.8163    0.9176    0.1021 H   0  0  0  0  0  0  0  0  0  0  0  0
    2.3868    0.2572    0.4360 H   0  0  0  0  0  0  0  0  0  0  0  0
    1.8819   -3.2052   -3.9423 H   0  0  0  0  0  0  0  0  0  0  0  0
    0.2445   -3.6770   -4.2073 H   0  0  0  0  0  0  0  0  0  0  0  0
    0.5829   -2.0601   -3.9741 H   0  0  0  0  0  0  0  0  0  0  0  0
   -6.2224    2.3752   -3.0372 H   0  0  0  0  0  0  0  0  0  0  0  0
   -6.4017    0.9574   -4.1065 H   0  0  0  0  0  0  0  0  0  0  0  0
   -5.4175    0.8600   -2.6608 H   0  0  0  0  0  0  0  0  0  0  0  0
   -4.2485    3.8012   -5.2575 H   0  0  0  0  0  0  0  0  0  0  0  0
   -4.4132    2.3822   -6.3258 H   0  0  0  0  0  0  0  0  0  0  0  0
   -5.8520    3.0958   -5.5562 H   0  0  0  0  0  0  0  0  0  0  0  0
   -0.2218   -1.2295   -0.0340 H   0  0  0  0  0  0  0  0  0  0  0  0
    1.2148   -0.6740   -1.0172 H   0  0  0  0  0  0  0  0  0  0  0  0
    1.0235   -4.3722   -1.9111 H   0  0  0  0  0  0  0  0  0  0  0  0
   -0.4041   -3.4323   -1.8473 H   0  0  0  0  0  0  0  0  0  0  0  0
   -0.2552   -1.6413   -1.9561 H   0  0  0  0  0  0  0  0  0  0  0  0
   -2.1494   -0.7933   -1.3478 H   0  0  0  0  0  0  0  0  0  0  0  0
    3.1866   -1.7904   -0.2115 H   0  0  0  0  0  0  0  0  0  0  0  0
    3.2342   -3.2861   -1.0706 H   0  0  0  0  0  0  0  0  0  0  0  0
    4.0374   -1.1358   -2.2575 H   0  0  0  0  0  0  0  0  0  0  0  0
    3.1647   -2.1967   -3.1999 H   0  0  0  0  0  0  0  0  0  0  0  0
    1.1458    1.4861   -4.4399 H   0  0  0  0  0  0  0  0  0  0  0  0
  1 21  1  0  0  0  0
  1 22  1  0  0  0  0
  1 23  1  0  0  0  0
  2 24  1  0  0  0  0
  2 25  1  0  0  0  0
  2 26  1  0  0  0  0
  3 27  1  0  0  0  0
  3 28  1  0  0  0  0
  3 29  1  0  0  0  0
  4 30  1  0  0  0  0
  4 31  1  0  0  0  0
  4 32  1  0  0  0  0
  5  1  1  0  0  0  0
  5 33  1  0  0  0  0
  5 34  1  0  0  0  0
  6  2  1  0  0  0  0
  6 35  1  0  0  0  0
  6 36  1  0  0  0  0
  7 37  1  0  0  0  0
  8  7  2  0  0  0  0
  8 38  1  0  0  0  0
  9 39  1  0  0  0  0
  9 40  1  0  0  0  0
 10  9  1  0  0  0  0
 10 41  1  0  0  0  0
 10 42  1  0  0  0  0
 11 43  1  0  0  0  0
 12  7  1  0  0  0  0
 12 11  2  0  0  0  0
 13  8  1  0  0  0  0
 14 11  1  0  0  0  0
 14 13  2  0  0  0  0
 16 13  1  0  0  0  0
 16 15  2  0  0  0  0
 17  3  1  0  0  0  0
 17  4  1  0  0  0  0
 17 15  1  0  0  0  0
 18  5  1  0  0  0  0
 18  6  1  0  0  0  0
 18  9  1  0  0  0  0
 19 10  1  0  0  0  0
 19 12  1  0  0  0  0
 20 14  1  0  0  0  0
 20 15  1  0  0  0  0
M  END
>  <DRUGBANK_ID>
DB13858

>  <COMMON_NAME>
Dimazole

>  <CAS_NUMBER>
95-27-2

>  <UNII>
2KL01R8ZV1

>  <SYNONYMS>
Diamthazole; Dimazole

$$$$
