
 OpenBabel10282417243D

123123  0  0  1  0  0  0  0  0999 V2000
    1.0579   -0.0152   -0.0801 Al  0  1  0  0  0  0  0  0  0  0  0  0
    1.0647    0.0383    0.0659 C   0  0  0  0  0  0  0  0  0  0  0  0
    0.5580   -0.3571   -1.3115 C   0  0  0  0  0  0  0  0  0  0  0  0
    1.0647   -1.7477   -1.6578 C   0  0  0  0  0  0  0  0  0  0  0  0
   -0.9620   -0.3571   -1.3115 C   0  0  0  0  0  0  0  0  0  0  0  0
   -1.4687    1.0335   -0.9652 C   0  0  2  0  0  0  0  0  0  0  0  0
   -0.8259    2.3375   -0.7669 N   0  0  0  0  0  0  0  0  0  0  0  0
   -1.6282    3.4204   -0.7521 C   0  0  0  0  0  0  0  0  0  0  0  0
   -2.8527    3.3025   -0.7897 O   0  0  0  0  0  0  0  0  0  0  0  0
   -0.9561    4.7938   -0.7532 C   0  0  2  0  0  0  0  0  0  0  0  0
   -0.5636    5.1355    0.6749 C   0  0  0  0  0  0  0  0  0  0  0  0
    0.3908    4.0779    1.2049 C   0  0  0  0  0  0  0  0  0  0  0  0
    1.7414    4.4594    1.6420 N   0  0  0  0  0  0  0  0  0  0  0  0
    0.0210    2.8637    1.2703 O   0  0  0  0  0  0  0  0  0  0  0  0
   -1.8621    5.8301   -1.2414 N   0  0  0  0  0  0  0  0  0  0  0  0
   -2.1512    5.9651   -2.5627 C   0  0  0  0  0  0  0  0  0  0  0  0
   -2.9677    6.7783   -2.9812 O   0  0  0  0  0  0  0  0  0  0  0  0
   -1.3869    5.0626   -3.5165 C   0  0  2  0  0  0  0  0  0  0  0  0
    0.0278    5.5999   -3.6600 C   0  0  0  0  0  0  0  0  0  0  0  0
    0.0851    6.6931   -4.7144 C   0  0  0  0  0  0  0  0  0  0  0  0
   -0.8182    7.8436   -4.3011 C   0  0  0  0  0  0  0  0  0  0  0  0
   -0.3653    8.3831   -3.0109 N   0  0  0  0  0  0  0  0  0  0  0  0
    0.0224    9.6935   -2.9145 O   0  5  0  0  0  0  0  0  0  0  0  0
   -0.3285    7.5165   -1.8241 C   0  0  0  0  0  0  0  0  0  0  0  0
   -0.7587    6.0625   -1.9310 C   0  0  0  0  0  0  0  0  0  0  0  0
    0.0631    7.9829   -0.7086 O   0  0  0  0  0  0  0  0  0  0  0  0
   -1.9909    4.9834   -4.8472 N   0  0  0  0  0  0  0  0  0  0  0  0
   -3.0413    4.1831   -5.1224 C   0  0  0  0  0  0  0  0  0  0  0  0
   -3.3866    3.9043   -6.2678 O   0  0  0  0  0  0  0  0  0  0  0  0
   -3.8668    3.7286   -3.9356 C   0  0  2  0  0  0  0  0  0  0  0  0
   -2.9551    3.6359   -2.7229 C   0  0  0  0  0  0  0  0  0  0  0  0
   -3.5050    4.5137   -1.6105 C   0  0  0  0  0  0  0  0  0  0  0  0
   -4.9009    4.0425   -1.2363 C   0  0  0  0  0  0  0  0  0  0  0  0
   -4.8401    2.6479   -0.7753 N   0  0  0  0  0  0  0  0  0  0  0  0
   -5.2497    2.3270    0.4920 O   0  5  0  0  0  0  0  0  0  0  0  0
   -4.3398    1.5978   -1.6741 C   0  0  0  0  0  0  0  0  0  0  0  0
   -3.8854    1.9540   -3.0802 C   0  0  0  0  0  0  0  0  0  0  0  0
   -4.2872    0.3922   -1.2756 O   0  0  0  0  0  0  0  0  0  0  0  0
   -4.5096    2.4246   -4.1339 N   0  0  0  0  0  0  0  0  0  0  0  0
   -3.7073    1.3417   -4.1487 C   0  0  0  0  0  0  0  0  0  0  0  0
   -2.4828    1.4606   -4.1115 O   0  0  0  0  0  0  0  0  0  0  0  0
   -4.3794   -0.0317   -4.1476 C   0  0  2  0  0  0  0  0  0  0  0  0
   -5.6042    0.0179   -3.2488 C   0  0  0  0  0  0  0  0  0  0  0  0
   -5.2297   -0.4564   -1.8541 C   0  0  0  0  0  0  0  0  0  0  0  0
   -4.1477    0.4470   -1.2852 C   0  0  0  0  0  0  0  0  0  0  0  0
   -4.6485    1.8273   -1.2153 N   0  0  0  0  0  0  0  0  0  0  0  0
   -4.7148    2.4716   -0.0081 O   0  5  0  0  0  0  0  0  0  0  0  0
   -5.0783    2.5161   -2.4407 C   0  0  0  0  0  0  0  0  0  0  0  0
   -5.0048    1.8012   -3.7801 C   0  0  0  0  0  0  0  0  0  0  0  0
   -5.5113    3.7095   -2.3803 O   0  0  0  0  0  0  0  0  0  0  0  0
   -3.4734   -1.0680   -3.6594 N   0  0  0  0  0  0  0  0  0  0  0  0
   -3.1843   -1.2030   -2.3381 C   0  0  0  0  0  0  0  0  0  0  0  0
   -2.3678   -2.0162   -1.9196 O   0  0  0  0  0  0  0  0  0  0  0  0
   -3.9486   -0.3005   -1.3843 C   0  0  1  0  0  0  0  0  0  0  0  0
   -5.3362   -0.8971   -1.2142 C   0  0  0  0  0  0  0  0  0  0  0  0
   -6.1558   -0.0170   -0.2846 C   0  0  0  0  0  0  0  0  0  0  0  0
   -6.4076    1.2544   -0.5733 C   0  0  0  0  0  0  0  0  0  0  0  0
   -7.3657    1.9528    0.1210 C   0  0  0  0  0  0  0  0  0  0  0  0
   -8.0170    1.3877    1.1822 C   0  0  0  0  0  0  0  0  0  0  0  0
   -7.7947    0.1028    1.3911 C   0  0  0  0  0  0  0  0  0  0  0  0
   -6.7314   -0.6318    0.8151 C   0  0  0  0  0  0  0  0  0  0  0  0
   -3.3446   -0.2213   -0.0536 N   0  0  0  0  0  0  0  0  0  0  0  0
   -2.2942    0.5790    0.2216 C   0  0  0  0  0  0  0  0  0  0  0  0
   -1.9488    0.8579    1.3670 O   0  0  0  0  0  0  0  0  0  0  0  0
    0.7080   -0.6622    0.7918 H   0  0  0  0  0  0  0  0  0  0  0  0
    0.7080    1.0173    0.3097 H   0  0  0  0  0  0  0  0  0  0  0  0
    2.1347    0.0383    0.0659 H   0  0  0  0  0  0  0  0  0  0  0  0
    0.9147    0.3435   -2.0374 H   0  0  0  0  0  0  0  0  0  0  0  0
    0.7080   -2.4482   -0.9319 H   0  0  0  0  0  0  0  0  0  0  0  0
    0.7080   -2.0261   -2.6274 H   0  0  0  0  0  0  0  0  0  0  0  0
    2.1347   -1.7477   -1.6578 H   0  0  0  0  0  0  0  0  0  0  0  0
   -1.3187   -0.6354   -2.2811 H   0  0  0  0  0  0  0  0  0  0  0  0
   -1.3187   -1.0576   -0.5856 H   0  0  0  0  0  0  0  0  0  0  0  0
   -1.7732    1.4716   -1.8928 H   0  0  0  0  0  0  0  0  0  0  0  0
    0.1835    2.4207   -0.6457 H   0  0  0  0  0  0  0  0  0  0  0  0
   -0.0939    4.7589   -1.3860 H   0  0  0  0  0  0  0  0  0  0  0  0
   -0.0830    6.0913    0.6937 H   0  0  0  0  0  0  0  0  0  0  0  0
   -1.4399    5.1648    1.2883 H   0  0  0  0  0  0  0  0  0  0  0  0
    2.3819    3.7497    1.9976 H   0  0  0  0  0  0  0  0  0  0  0  0
    2.0382    5.4339    1.5895 H   0  0  0  0  0  0  0  0  0  0  0  0
   -2.2898    6.4702   -0.5723 H   0  0  0  0  0  0  0  0  0  0  0  0
   -1.4033    4.0764   -3.1017 H   0  0  0  0  0  0  0  0  0  0  0  0
    0.3574    5.9926   -2.7208 H   0  0  0  0  0  0  0  0  0  0  0  0
    0.6636    4.7900   -3.9509 H   0  0  0  0  0  0  0  0  0  0  0  0
    1.0910    7.0455   -4.8085 H   0  0  0  0  0  0  0  0  0  0  0  0
   -0.2446    6.3004   -5.6536 H   0  0  0  0  0  0  0  0  0  0  0  0
   -0.7779    8.6132   -5.0434 H   0  0  0  0  0  0  0  0  0  0  0  0
   -1.8242    7.4912   -4.2070 H   0  0  0  0  0  0  0  0  0  0  0  0
    0.0583    5.4278   -1.6579 H   0  0  0  0  0  0  0  0  0  0  0  0
   -1.5835    5.8853   -1.2729 H   0  0  0  0  0  0  0  0  0  0  0  0
   -1.0537    5.8510   -2.9376 H   0  0  0  0  0  0  0  0  0  0  0  0
   -1.6021    5.5562   -5.5963 H   0  0  0  0  0  0  0  0  0  0  0  0
   -4.6482    4.4473   -3.8023 H   0  0  0  0  0  0  0  0  0  0  0  0
   -2.9109    2.6208   -2.3873 H   0  0  0  0  0  0  0  0  0  0  0  0
   -1.9726    3.9676   -2.9863 H   0  0  0  0  0  0  0  0  0  0  0  0
   -2.8653    4.4483   -0.7553 H   0  0  0  0  0  0  0  0  0  0  0  0
   -3.5493    5.5288   -1.9460 H   0  0  0  0  0  0  0  0  0  0  0  0
   -5.2880    4.6604   -0.4532 H   0  0  0  0  0  0  0  0  0  0  0  0
   -5.5406    4.1078   -2.0915 H   0  0  0  0  0  0  0  0  0  0  0  0
   -2.8564    1.6864   -3.2010 H   0  0  0  0  0  0  0  0  0  0  0  0
   -4.4787    1.4201   -3.7928 H   0  0  0  0  0  0  0  0  0  0  0  0
   -4.0010    3.0061   -3.2366 H   0  0  0  0  0  0  0  0  0  0  0  0
   -5.5190    2.3414   -4.2551 H   0  0  0  0  0  0  0  0  0  0  0  0
   -4.6557   -0.2722   -5.1529 H   0  0  0  0  0  0  0  0  0  0  0  0
   -5.9687    1.0226   -3.1979 H   0  0  0  0  0  0  0  0  0  0  0  0
   -6.3658   -0.6181   -3.6492 H   0  0  0  0  0  0  0  0  0  0  0  0
   -6.0922   -0.4216   -1.2219 H   0  0  0  0  0  0  0  0  0  0  0  0
   -4.8651   -1.4611   -1.9049 H   0  0  0  0  0  0  0  0  0  0  0  0
   -3.8841    0.1131   -0.3034 H   0  0  0  0  0  0  0  0  0  0  0  0
   -3.2851    0.4121   -1.9174 H   0  0  0  0  0  0  0  0  0  0  0  0
   -5.9840    1.7428   -4.2074 H   0  0  0  0  0  0  0  0  0  0  0  0
   -4.3598    2.3439   -4.4391 H   0  0  0  0  0  0  0  0  0  0  0  0
   -4.6189    0.8136   -3.6365 H   0  0  0  0  0  0  0  0  0  0  0  0
   -3.0457   -1.7081   -4.3285 H   0  0  0  0  0  0  0  0  0  0  0  0
   -3.9817    0.6843   -1.8014 H   0  0  0  0  0  0  0  0  0  0  0  0
   -5.8187   -0.9555   -2.1675 H   0  0  0  0  0  0  0  0  0  0  0  0
   -5.2537   -1.8784   -0.7956 H   0  0  0  0  0  0  0  0  0  0  0  0
   -5.8594    1.7394   -1.3538 H   0  0  0  0  0  0  0  0  0  0  0  0
   -7.6056    2.9532   -0.1729 H   0  0  0  0  0  0  0  0  0  0  0  0
   -8.6715    1.9559    1.8095 H   0  0  0  0  0  0  0  0  0  0  0  0
   -8.4654   -0.4191    2.0413 H   0  0  0  0  0  0  0  0  0  0  0  0
   -6.4019   -1.5764    1.1945 H   0  0  0  0  0  0  0  0  0  0  0  0
   -3.7334   -0.7941    0.6955 H   0  0  0  0  0  0  0  0  0  0  0  0
  2  3  1  0  0  0  0
  2 65  1  0  0  0  0
  2 66  1  0  0  0  0
  2 67  1  0  0  0  0
  3  4  1  0  0  0  0
  3  5  1  0  0  0  0
  3 68  1  0  0  0  0
  4 69  1  0  0  0  0
  4 70  1  0  0  0  0
  4 71  1  0  0  0  0
  5 72  1  0  0  0  0
  5 73  1  0  0  0  0
  6  5  1  0  0  0  0
  6  7  1  0  0  0  0
  6 63  1  0  0  0  0
  6 74  1  6  0  0  0
  7  8  1  0  0  0  0
  7 75  1  0  0  0  0
  8  9  2  0  0  0  0
 10  8  1  0  0  0  0
 10 11  1  0  0  0  0
 10 15  1  0  0  0  0
 10 76  1  6  0  0  0
 11 12  1  0  0  0  0
 11 77  1  0  0  0  0
 11 78  1  0  0  0  0
 12 13  1  0  0  0  0
 12 14  2  0  0  0  0
 13 79  1  0  0  0  0
 13 80  1  0  0  0  0
 15 16  1  0  0  0  0
 15 81  1  0  0  0  0
 16 17  2  0  0  0  0
 18 16  1  0  0  0  0
 18 27  1  0  0  0  0
 18 82  1  1  0  0  0
 18 19  1  0  0  0  0
 19 20  1  0  0  0  0
 19 83  1  0  0  0  0
 19 84  1  0  0  0  0
 20 21  1  0  0  0  0
 20 85  1  0  0  0  0
 20 86  1  0  0  0  0
 21 22  1  0  0  0  0
 21 87  1  0  0  0  0
 21 88  1  0  0  0  0
 22 23  1  0  0  0  0
 22 24  1  0  0  0  0
 24 25  1  0  0  0  0
 24 26  2  0  0  0  0
 25 89  1  0  0  0  0
 25 90  1  0  0  0  0
 25 91  1  0  0  0  0
 27 28  1  0  0  0  0
 27 92  1  0  0  0  0
 28 29  2  0  0  0  0
 30 28  1  0  0  0  0
 30 39  1  0  0  0  0
 30 93  1  1  0  0  0
 30 31  1  0  0  0  0
 31 32  1  0  0  0  0
 31 94  1  0  0  0  0
 31 95  1  0  0  0  0
 32 33  1  0  0  0  0
 32 96  1  0  0  0  0
 32 97  1  0  0  0  0
 33 34  1  0  0  0  0
 33 98  1  0  0  0  0
 33 99  1  0  0  0  0
 34 35  1  0  0  0  0
 34 36  1  0  0  0  0
 36 37  1  0  0  0  0
 36 38  2  0  0  0  0
 37100  1  0  0  0  0
 37101  1  0  0  0  0
 37102  1  0  0  0  0
 39 40  1  0  0  0  0
 39103  1  0  0  0  0
 40 41  2  0  0  0  0
 42 40  1  0  0  0  0
 42 51  1  0  0  0  0
 42104  1  6  0  0  0
 42 43  1  0  0  0  0
 43 44  1  0  0  0  0
 43105  1  0  0  0  0
 43106  1  0  0  0  0
 44 45  1  0  0  0  0
 44107  1  0  0  0  0
 44108  1  0  0  0  0
 45 46  1  0  0  0  0
 45109  1  0  0  0  0
 45110  1  0  0  0  0
 46 47  1  0  0  0  0
 46 48  1  0  0  0  0
 48 49  1  0  0  0  0
 48 50  2  0  0  0  0
 49111  1  0  0  0  0
 49112  1  0  0  0  0
 49113  1  0  0  0  0
 51 52  1  0  0  0  0
 51114  1  0  0  0  0
 52 53  2  0  0  0  0
 54 52  1  0  0  0  0
 54 55  1  0  0  0  0
 54 62  1  0  0  0  0
 54115  1  6  0  0  0
 55 56  1  0  0  0  0
 55116  1  0  0  0  0
 55117  1  0  0  0  0
 56 57  2  0  0  0  0
 56 61  1  0  0  0  0
 57 58  1  0  0  0  0
 57118  1  0  0  0  0
 58 59  2  0  0  0  0
 58119  1  0  0  0  0
 59 60  1  0  0  0  0
 59120  1  0  0  0  0
 60 61  2  0  0  0  0
 60121  1  0  0  0  0
 61122  1  0  0  0  0
 62 63  1  0  0  0  0
 62123  1  0  0  0  0
 63 64  2  0  0  0  0
M  CHG  4   1   3  23  -1  35  -1  47  -1
M  END
>  <DRUGBANK_ID>
DB17796

>  <COMMON_NAME>
VL-2397

>  <CAS_NUMBER>
1186200-57-6

>  <UNII>
E39B3691TD

>  <SYNONYMS>
ASP-2397; ASP2397; Cyclo(-asn-leu-d-phe-al((n5-acetyl-n5-hydroxy-orn)-(n5-acetyl-n5-hydroxy-orn)-(n5-hydroxy-orn))-) . al(iii); Cyclo(l-asparaginyl-l-leucyl-d-phenylalanyl-n5-acetyl-n5-hydroxy-l-ornithyl-n5-acetyl-n5-hydroxy-l-ornithyl-n5-acetyl-n5-hydroxy-l-ornithyl), aluminum salt (1:1); Cyclo{-asn-leu-d-phe-al[(N5-acetyl-N5-hydroxy-orn)-(N5-acetyl-N5-hydroxy-orn)-(N5-hydroxy-orn)]-} . Al(III); VL-2397

$$$$
