
 OpenBabel10282417233D

 46 46  0  0  0  0  0  0  0  0999 V2000
    1.9204    5.3766    4.6633 C   0  0  0  0  0  0  0  0  0  0  0  0
    2.0523    3.5502    3.0196 C   0  0  0  0  0  0  0  0  0  0  0  0
    4.2039    4.5145    3.8201 C   0  0  0  0  0  0  0  0  0  0  0  0
    3.4414    2.5972   10.1591 C   0  0  0  0  0  0  0  0  0  0  0  0
    5.7271    2.2419    9.1343 C   0  0  0  0  0  0  0  0  0  0  0  0
    4.7179    4.4953    9.2100 C   0  0  0  0  0  0  0  0  0  0  0  0
    2.5412   -0.6339    6.0666 C   0  0  0  0  0  0  0  0  0  0  0  0
    2.5858    1.7573    5.2211 C   0  0  0  0  0  0  0  0  0  0  0  0
    3.4255    1.3878    7.3594 C   0  0  0  0  0  0  0  0  0  0  0  0
    3.3910   -1.1845    8.2941 C   0  0  0  0  0  0  0  0  0  0  0  0
    2.8424    0.8333    6.2206 C   0  0  0  0  0  0  0  0  0  0  0  0
    2.7632   -1.6193    6.9798 C   0  0  0  0  0  0  0  0  0  0  0  0
    2.8879    3.1428    5.4003 C   0  0  0  0  0  0  0  0  0  0  0  0
    3.7219    2.7104    7.6441 C   0  0  0  0  0  0  0  0  0  0  0  0
    3.4039    3.5873    6.6427 C   0  0  0  0  0  0  0  0  0  0  0  0
    2.4248   -3.0512    6.7404 C   0  0  0  0  0  0  0  0  0  0  0  0
    2.7612    4.1434    4.2506 C   0  0  0  0  0  0  0  0  0  0  0  0
    4.3843    3.0131    9.0033 C   0  0  0  0  0  0  0  0  0  0  0  0
    3.9118   -0.8238    9.3844 N   0  0  0  0  0  0  0  0  0  0  0  0
    1.8926   -3.5775    5.6873 N   0  0  0  0  0  0  0  0  0  0  0  0
    3.5922    4.9009    6.9248 O   0  0  0  0  0  0  0  0  0  0  0  0
    2.7853   -4.1764    8.0341 S   0  0  0  0  0  0  0  0  0  0  0  0
    2.0932   -0.8825    5.1077 H   0  0  0  0  0  0  0  0  0  0  0  0
    1.8308    6.0806    3.8329 H   0  0  0  0  0  0  0  0  0  0  0  0
    2.3110    5.9711    5.4895 H   0  0  0  0  0  0  0  0  0  0  0  0
    0.9163    5.0652    4.9767 H   0  0  0  0  0  0  0  0  0  0  0  0
    1.9805    4.2934    2.2202 H   0  0  0  0  0  0  0  0  0  0  0  0
    2.5923    2.6887    2.6115 H   0  0  0  0  0  0  0  0  0  0  0  0
    1.0349    3.2289    3.2738 H   0  0  0  0  0  0  0  0  0  0  0  0
    4.8260    4.9234    4.6217 H   0  0  0  0  0  0  0  0  0  0  0  0
    4.7456    3.6244    3.4727 H   0  0  0  0  0  0  0  0  0  0  0  0
    4.2024    5.2546    3.0174 H   0  0  0  0  0  0  0  0  0  0  0  0
    3.2512    1.5213   10.1979 H   0  0  0  0  0  0  0  0  0  0  0  0
    3.8690    2.8683   11.1303 H   0  0  0  0  0  0  0  0  0  0  0  0
    2.4652    3.0859   10.0654 H   0  0  0  0  0  0  0  0  0  0  0  0
    6.4011    2.4773    8.3025 H   0  0  0  0  0  0  0  0  0  0  0  0
    6.2375    2.5001   10.0689 H   0  0  0  0  0  0  0  0  0  0  0  0
    5.6090    1.1545    9.1441 H   0  0  0  0  0  0  0  0  0  0  0  0
    5.4076    4.8469    8.4333 H   0  0  0  0  0  0  0  0  0  0  0  0
    3.8057    5.1021    9.1950 H   0  0  0  0  0  0  0  0  0  0  0  0
    5.1989    4.6766   10.1737 H   0  0  0  0  0  0  0  0  0  0  0  0
    2.1600    1.3912    4.2911 H   0  0  0  0  0  0  0  0  0  0  0  0
    3.7294    0.8139    8.1851 H   0  0  0  0  0  0  0  0  0  0  0  0
    1.6988   -2.8890    4.9619 H   0  0  0  0  0  0  0  0  0  0  0  0
    3.9755    5.3633    6.1727 H   0  0  0  0  0  0  0  0  0  0  0  0
    2.3334   -5.2672    7.4001 H   0  0  0  0  0  0  0  0  0  0  0  0
  1 24  1  0  0  0  0
  1 25  1  0  0  0  0
  1 26  1  0  0  0  0
  2 27  1  0  0  0  0
  2 28  1  0  0  0  0
  2 29  1  0  0  0  0
  3 30  1  0  0  0  0
  3 31  1  0  0  0  0
  3 32  1  0  0  0  0
  4 33  1  0  0  0  0
  4 34  1  0  0  0  0
  4 35  1  0  0  0  0
  5 36  1  0  0  0  0
  5 37  1  0  0  0  0
  5 38  1  0  0  0  0
  6 39  1  0  0  0  0
  6 40  1  0  0  0  0
  6 41  1  0  0  0  0
  8 42  1  0  0  0  0
  9 43  1  0  0  0  0
 11  7  1  0  0  0  0
 11  8  2  0  0  0  0
 11  9  1  0  0  0  0
 12  7  2  0  0  0  0
 12 10  1  0  0  0  0
 13  8  1  0  0  0  0
 14  9  2  0  0  0  0
 15 13  2  0  0  0  0
 15 14  1  0  0  0  0
 16 12  1  0  0  0  0
 17  1  1  0  0  0  0
 17  2  1  0  0  0  0
 17  3  1  0  0  0  0
 17 13  1  0  0  0  0
 18  4  1  0  0  0  0
 18  5  1  0  0  0  0
 18  6  1  0  0  0  0
 18 14  1  0  0  0  0
 19 10  3  0  0  0  0
 20 16  2  0  0  0  0
 20 44  1  0  0  0  0
 21 15  1  0  0  0  0
 21 45  1  0  0  0  0
 22 16  1  0  0  0  0
 22 46  1  0  0  0  0
 23  7  1  0  0  0  0
M  END
>  <DRUGBANK_ID>
DB16776

>  <COMMON_NAME>
Tyrphostin AG 879

>  <CAS_NUMBER>
148741-30-4

>  <SYNONYMS>
AG 879; AG-879; AG879; Tyrphostin AG-879; Tyrphostin AG879

$$$$
