
 OpenBabel10282417183D

 26 26  0  0  0  0  0  0  0  0999 V2000
    1.0476   -0.0917   -0.0186 O   0  0  0  0  0  0  0  0  0  0  0  0
    1.9880    2.2116    1.7473 N   0  0  0  0  0  0  0  0  0  0  0  0
    2.3158    3.0720    2.8385 N   0  0  0  0  0  0  0  0  0  0  0  0
    0.5599    1.9465    1.4955 C   0  0  3  0  0  0  0  0  0  0  0  0
    0.3531    1.1644    0.1371 C   0  0  0  0  0  0  0  0  0  0  0  0
   -0.2403    3.2524    1.4166 C   0  0  0  0  0  0  0  0  0  0  0  0
    2.4103   -0.0738   -0.1887 C   0  0  0  0  0  0  0  0  0  0  0  0
    3.1681    1.0828   -0.3936 C   0  0  0  0  0  0  0  0  0  0  0  0
    3.0719   -1.2773    0.0356 C   0  0  0  0  0  0  0  0  0  0  0  0
    4.5247    1.0912   -0.0625 C   0  0  0  0  0  0  0  0  0  0  0  0
    4.4559   -1.2913    0.2476 C   0  0  0  0  0  0  0  0  0  0  0  0
    5.1711   -0.0920    0.2524 C   0  0  0  0  0  0  0  0  0  0  0  0
    2.4349    1.2930    1.8763 H   0  0  0  0  0  0  0  0  0  0  0  0
    3.3353    3.2105    2.8336 H   0  0  0  0  0  0  0  0  0  0  0  0
    1.9587    4.0186    2.6895 H   0  0  0  0  0  0  0  0  0  0  0  0
    0.1822    1.3230    2.3142 H   0  0  0  0  0  0  0  0  0  0  0  0
    0.5349    1.7963   -0.7415 H   0  0  0  0  0  0  0  0  0  0  0  0
   -0.7137    0.9052    0.0802 H   0  0  0  0  0  0  0  0  0  0  0  0
   -1.3111    3.0467    1.3269 H   0  0  0  0  0  0  0  0  0  0  0  0
   -0.1128    3.8672    2.3131 H   0  0  0  0  0  0  0  0  0  0  0  0
    0.0663    3.8530    0.5519 H   0  0  0  0  0  0  0  0  0  0  0  0
    2.6997    2.0347   -0.6134 H   0  0  0  0  0  0  0  0  0  0  0  0
    2.5098   -2.2071    0.1029 H   0  0  0  0  0  0  0  0  0  0  0  0
    5.0431    2.0459    0.0147 H   0  0  0  0  0  0  0  0  0  0  0  0
    4.9655   -2.2227    0.4666 H   0  0  0  0  0  0  0  0  0  0  0  0
    6.2287   -0.0819    0.5036 H   0  0  0  0  0  0  0  0  0  0  0  0
  1  5  1  0  0  0  0
  1  7  1  0  0  0  0
  2  3  1  0  0  0  0
  2  4  1  0  0  0  0
  2 13  1  0  0  0  0
  3 14  1  0  0  0  0
  3 15  1  0  0  0  0
  4  5  1  0  0  0  0
  4  6  1  0  0  0  0
  4 16  1  0  0  0  0
  5 17  1  0  0  0  0
  5 18  1  0  0  0  0
  6 19  1  0  0  0  0
  6 20  1  0  0  0  0
  6 21  1  0  0  0  0
  7  8  2  0  0  0  0
  7  9  1  0  0  0  0
  8 10  1  0  0  0  0
  8 22  1  0  0  0  0
  9 11  2  0  0  0  0
  9 23  1  0  0  0  0
 10 12  2  0  0  0  0
 10 24  1  0  0  0  0
 11 12  1  0  0  0  0
 11 25  1  0  0  0  0
 12 26  1  0  0  0  0
M  END
>  <DRUGBANK_ID>
DB09251

>  <COMMON_NAME>
Phenoxypropazine

>  <CAS_NUMBER>
3818-37-9

>  <UNII>
8E92V52324

$$$$
