
 OpenBabel10282417233D

 43 45  0  0  1  0  0  0  0  0999 V2000
    1.0493    0.1227    0.1696 C   0  0  0  0  0  0  0  0  0  0  0  0
    0.4642    0.9259   -0.8509 O   0  0  0  0  0  0  0  0  0  0  0  0
    0.9411    2.1919   -1.0215 C   0  0  0  0  0  0  0  0  0  0  0  0
    1.7580    2.7201   -0.2651 O   0  0  0  0  0  0  0  0  0  0  0  0
    0.4030    2.8507   -2.3224 C   0  0  1  0  0  0  0  0  0  0  0  0
    0.9160    2.2262   -3.5716 N   0  0  0  0  0  0  0  0  0  0  0  0
    1.2000    0.7880   -3.4224 C   0  0  0  0  0  0  0  0  0  0  0  0
    1.2830    0.1055   -4.7620 C   0  0  0  0  0  0  0  0  0  0  0  0
    2.1973    0.9074   -5.5798 C   0  0  0  0  0  0  0  0  0  0  0  0
    2.5801    2.2055   -5.3489 C   0  0  0  0  0  0  0  0  0  0  0  0
    2.0737    2.9590   -4.1471 C   0  0  0  0  0  0  0  0  0  0  0  0
    3.5133    2.6215   -6.3644 C   0  0  0  0  0  0  0  0  0  0  0  0
    3.7900    1.6174   -7.2912 C   0  0  0  0  0  0  0  0  0  0  0  0
    4.6160    1.6766   -8.3179 O   0  0  0  0  0  0  0  0  0  0  0  0
    4.9875    0.8096   -9.2681 C   0  0  0  0  0  0  0  0  0  0  0  0
    4.4544   -0.5982   -9.3422 C   0  0  0  0  0  0  0  0  0  0  0  0
    5.8009    1.1586  -10.1288 O   0  0  0  0  0  0  0  0  0  0  0  0
    2.8761    0.2401   -6.9131 S   0  0  0  0  0  0  0  0  0  0  0  0
   -1.1239    2.9169   -2.3674 C   0  0  0  0  0  0  0  0  0  0  0  0
   -1.8223    4.1333   -2.4059 C   0  0  0  0  0  0  0  0  0  0  0  0
   -1.0287    5.6699   -2.3978 Cl  0  0  0  0  0  0  0  0  0  0  0  0
   -3.2220    4.1469   -2.4497 C   0  0  0  0  0  0  0  0  0  0  0  0
   -3.9480    2.9562   -2.4497 C   0  0  0  0  0  0  0  0  0  0  0  0
   -3.2798    1.7439   -2.4230 C   0  0  0  0  0  0  0  0  0  0  0  0
   -1.8899    1.7300   -2.3951 C   0  0  0  0  0  0  0  0  0  0  0  0
    0.6821   -0.9013    0.0349 H   0  0  0  0  0  0  0  0  0  0  0  0
    0.7200    0.4909    1.1403 H   0  0  0  0  0  0  0  0  0  0  0  0
    2.1404    0.1004    0.0875 H   0  0  0  0  0  0  0  0  0  0  0  0
    0.7985    3.8708   -2.2866 H   0  0  0  0  0  0  0  0  0  0  0  0
    2.1351    0.6458   -2.8637 H   0  0  0  0  0  0  0  0  0  0  0  0
    0.4099    0.2373   -2.9228 H   0  0  0  0  0  0  0  0  0  0  0  0
    1.6464   -0.9188   -4.6147 H   0  0  0  0  0  0  0  0  0  0  0  0
    0.2940    0.0483   -5.2322 H   0  0  0  0  0  0  0  0  0  0  0  0
    1.7753    3.9662   -4.4635 H   0  0  0  0  0  0  0  0  0  0  0  0
    2.8848    3.0415   -3.4146 H   0  0  0  0  0  0  0  0  0  0  0  0
    3.9710    3.6042   -6.4033 H   0  0  0  0  0  0  0  0  0  0  0  0
    3.9085   -0.7285  -10.2778 H   0  0  0  0  0  0  0  0  0  0  0  0
    5.2799   -1.3031   -9.2337 H   0  0  0  0  0  0  0  0  0  0  0  0
    3.7567   -0.9329   -8.6018 H   0  0  0  0  0  0  0  0  0  0  0  0
   -3.7566    5.0924   -2.4818 H   0  0  0  0  0  0  0  0  0  0  0  0
   -5.0329    2.9733   -2.4733 H   0  0  0  0  0  0  0  0  0  0  0  0
   -3.8251    0.8036   -2.4238 H   0  0  0  0  0  0  0  0  0  0  0  0
   -1.4211    0.7529   -2.3880 H   0  0  0  0  0  0  0  0  0  0  0  0
  1  2  1  0  0  0  0
  1 26  1  0  0  0  0
  1 27  1  0  0  0  0
  1 28  1  0  0  0  0
  2  3  1  0  0  0  0
  3  4  2  0  0  0  0
  5  3  1  0  0  0  0
  5  6  1  0  0  0  0
  5 19  1  0  0  0  0
  5 29  1  1  0  0  0
  6  7  1  0  0  0  0
  6 11  1  0  0  0  0
  7  8  1  0  0  0  0
  7 30  1  0  0  0  0
  7 31  1  0  0  0  0
  8  9  1  0  0  0  0
  8 32  1  0  0  0  0
  8 33  1  0  0  0  0
  9 10  2  0  0  0  0
  9 18  1  0  0  0  0
 10 11  1  0  0  0  0
 10 12  1  0  0  0  0
 11 34  1  0  0  0  0
 11 35  1  0  0  0  0
 12 13  2  0  0  0  0
 12 36  1  0  0  0  0
 13 14  1  0  0  0  0
 13 18  1  0  0  0  0
 14 15  1  0  0  0  0
 15 16  1  0  0  0  0
 15 17  2  0  0  0  0
 16 37  1  0  0  0  0
 16 38  1  0  0  0  0
 16 39  1  0  0  0  0
 19 20  2  0  0  0  0
 19 25  1  0  0  0  0
 20 21  1  0  0  0  0
 20 22  1  0  0  0  0
 22 23  2  0  0  0  0
 22 40  1  0  0  0  0
 23 24  1  0  0  0  0
 23 41  1  0  0  0  0
 24 25  2  0  0  0  0
 24 42  1  0  0  0  0
 25 43  1  0  0  0  0
M  END
>  <DRUGBANK_ID>
DB16349

>  <COMMON_NAME>
Vicagrel

>  <CAS_NUMBER>
1314081-53-2

>  <UNII>
8A63K3TN0U

$$$$
