FDI
 OpenBabel10282417163D

 41 41  0  0  0  0  0  0  0  0999 V2000
    1.3326   -0.3181   -0.0133 C   0  0  0  0  0  0  0  0  0  0  0  0
    0.3936   -1.3818    0.0019 C   0  0  0  0  0  0  0  0  0  0  0  0
   -0.9746   -1.0193    0.0336 C   0  0  0  0  0  0  0  0  0  0  0  0
   -1.3396    0.3315   -0.0062 C   0  0  0  0  0  0  0  0  0  0  0  0
   -0.4208    1.3689    0.0536 C   0  0  0  0  0  0  0  0  0  0  0  0
    0.9300    1.0424   -0.0135 C   0  0  0  0  0  0  0  0  0  0  0  0
   -1.0262    2.7165    0.3211 C   0  0  0  0  0  0  0  0  0  0  0  0
   -0.1556    3.7324    0.4827 O   0  0  0  0  0  0  0  0  0  0  0  0
   -2.2202    2.8845    0.4608 O   0  0  0  0  0  0  0  0  0  0  0  0
   -1.9988   -1.9672    0.2058 N   0  0  0  0  0  0  0  0  0  0  0  0
   -3.3453   -1.8113    0.0221 C   0  0  0  0  0  0  0  0  0  0  0  0
   -4.1636   -3.0992    0.1228 C   0  0  0  0  0  0  0  0  0  0  0  0
   -3.9030   -0.7531   -0.2552 O   0  0  0  0  0  0  0  0  0  0  0  0
   -5.0345   -3.0471    1.3897 C   0  0  0  0  0  0  0  0  0  0  0  0
   -5.9320   -1.8132    1.4528 C   0  0  0  0  0  0  0  0  0  0  0  0
   -5.0247   -3.1969   -1.1474 C   0  0  0  0  0  0  0  0  0  0  0  0
   -4.1780   -3.3085   -2.4051 C   0  0  0  0  0  0  0  0  0  0  0  0
    0.9100   -2.7344   -0.0306 N   0  0  0  0  0  0  0  0  0  0  0  0
    0.1916   -3.9045   -0.2092 C   0  0  0  0  0  0  0  0  0  0  0  0
    0.8952   -5.2176   -0.1570 C   0  0  0  0  0  0  0  0  0  0  0  0
   -1.0206   -4.0026   -0.3917 O   0  0  0  0  0  0  0  0  0  0  0  0
    2.4050   -0.5112   -0.0005 H   0  0  0  0  0  0  0  0  0  0  0  0
   -2.3840    0.6181   -0.0215 H   0  0  0  0  0  0  0  0  0  0  0  0
    1.6920    1.8131   -0.0618 H   0  0  0  0  0  0  0  0  0  0  0  0
    0.7841    3.5222    0.4100 H   0  0  0  0  0  0  0  0  0  0  0  0
   -1.6994   -2.9301    0.2831 H   0  0  0  0  0  0  0  0  0  0  0  0
   -3.5223   -3.9895    0.1819 H   0  0  0  0  0  0  0  0  0  0  0  0
   -5.6643   -3.9445    1.4337 H   0  0  0  0  0  0  0  0  0  0  0  0
   -4.3908   -3.0668    2.2778 H   0  0  0  0  0  0  0  0  0  0  0  0
   -6.5881   -1.7531    0.5797 H   0  0  0  0  0  0  0  0  0  0  0  0
   -6.5563   -1.8234    2.3457 H   0  0  0  0  0  0  0  0  0  0  0  0
   -5.3443   -0.8927    1.5007 H   0  0  0  0  0  0  0  0  0  0  0  0
   -5.7045   -4.0531   -1.0792 H   0  0  0  0  0  0  0  0  0  0  0  0
   -5.6470   -2.3022   -1.2555 H   0  0  0  0  0  0  0  0  0  0  0  0
   -3.5793   -4.2226   -2.3918 H   0  0  0  0  0  0  0  0  0  0  0  0
   -4.8246   -3.3184   -3.2864 H   0  0  0  0  0  0  0  0  0  0  0  0
   -3.5012   -2.4536   -2.5057 H   0  0  0  0  0  0  0  0  0  0  0  0
    1.9215   -2.8173   -0.0276 H   0  0  0  0  0  0  0  0  0  0  0  0
    0.5184   -5.7537    0.7228 H   0  0  0  0  0  0  0  0  0  0  0  0
    0.5667   -5.7702   -1.0469 H   0  0  0  0  0  0  0  0  0  0  0  0
    1.9774   -5.1511   -0.1379 H   0  0  0  0  0  0  0  0  0  0  0  0
  1  2  2  0  0  0  0
  1  6  1  0  0  0  0
  1 22  1  0  0  0  0
  2  3  1  0  0  0  0
  2 18  1  0  0  0  0
  3  4  2  0  0  0  0
  3 10  1  0  0  0  0
  4  5  1  0  0  0  0
  4 23  1  0  0  0  0
  5  6  2  0  0  0  0
  5  7  1  0  0  0  0
  6 24  1  0  0  0  0
  7  8  1  0  0  0  0
  7  9  2  0  0  0  0
  8 25  1  0  0  0  0
 10 11  1  0  0  0  0
 10 26  1  0  0  0  0
 11 12  1  0  0  0  0
 11 13  2  0  0  0  0
 12 14  1  0  0  0  0
 12 16  1  0  0  0  0
 12 27  1  0  0  0  0
 14 15  1  0  0  0  0
 14 28  1  0  0  0  0
 14 29  1  0  0  0  0
 15 30  1  0  0  0  0
 15 31  1  0  0  0  0
 15 32  1  0  0  0  0
 16 17  1  0  0  0  0
 16 33  1  0  0  0  0
 16 34  1  0  0  0  0
 17 35  1  0  0  0  0
 17 36  1  0  0  0  0
 17 37  1  0  0  0  0
 18 19  1  0  0  0  0
 18 38  1  0  0  0  0
 19 20  1  0  0  0  0
 19 21  2  0  0  0  0
 20 39  1  0  0  0  0
 20 40  1  0  0  0  0
 20 41  1  0  0  0  0
M  END
>  <DRUGBANK_ID>
DB07762

>  <COMMON_NAME>
4-(N-ACETYLAMINO)-3-[N-(2-ETHYLBUTANOYLAMINO)]BENZOIC ACID

$$$$
