
 OpenBabel10282417223D

 35 32  0  0  0  0  0  0  0  0999 V2000
    0.6113   -1.8221   -1.8718 Ca  0  2  0  0  0  0  0  0  0  0  0  0
    0.7877   -0.1617    1.6887 C   0  0  0  0  0  0  0  0  0  0  0  0
    0.0595    0.8553    1.6660 O   0  0  0  0  0  0  0  0  0  0  0  0
    0.5797   -1.3366    1.1690 O   0  5  0  0  0  0  0  0  0  0  0  0
    2.2829    0.0914    1.9998 C   0  0  0  0  0  0  0  0  0  0  0  0
    3.2439    0.9995    1.7218 C   0  0  0  0  0  0  0  0  0  0  0  0
    4.8128    1.0507    1.5721 C   0  0  0  0  0  0  0  0  0  0  0  0
    5.0959    2.2144    1.2269 O   0  0  0  0  0  0  0  0  0  0  0  0
    5.8741   -0.2445    1.3467 O   0  0  0  0  0  0  0  0  0  0  0  0
    7.3189   -0.7691    0.2936 C   0  0  0  0  0  0  0  0  0  0  0  0
    8.2516    0.2217   -1.1006 C   0  0  0  0  0  0  0  0  0  0  0  0
    0.7057    0.6414   -1.1340 C   0  0  0  0  0  0  0  0  0  0  0  0
   -0.1927   -0.2667   -0.9759 O   0  0  0  0  0  0  0  0  0  0  0  0
    0.7169    1.3892   -2.1505 O   0  5  0  0  0  0  0  0  0  0  0  0
    2.3127   -0.0431   -0.9815 C   0  0  0  0  0  0  0  0  0  0  0  0
    3.0129   -1.1193   -0.5041 C   0  0  0  0  0  0  0  0  0  0  0  0
    4.4554   -1.0995   -0.1869 C   0  0  0  0  0  0  0  0  0  0  0  0
    4.8882   -2.0411    0.5500 O   0  0  0  0  0  0  0  0  0  0  0  0
    4.9272    0.1350   -0.5581 O   0  0  0  0  0  0  0  0  0  0  0  0
    6.2344    1.0855   -0.3007 C   0  0  0  0  0  0  0  0  0  0  0  0
    7.4182    1.2542    1.2284 C   0  0  0  0  0  0  0  0  0  0  0  0
    2.5091   -0.8152    1.5245 H   0  0  0  0  0  0  0  0  0  0  0  0
    2.8350    1.8072    1.0626 H   0  0  0  0  0  0  0  0  0  0  0  0
    8.0683   -1.0442    1.0496 H   0  0  0  0  0  0  0  0  0  0  0  0
    7.0454   -1.7275   -0.1846 H   0  0  0  0  0  0  0  0  0  0  0  0
    7.9941    1.3202   -1.2588 H   0  0  0  0  0  0  0  0  0  0  0  0
    9.3100    0.4438   -0.9860 H   0  0  0  0  0  0  0  0  0  0  0  0
    7.9164   -0.0666   -2.1372 H   0  0  0  0  0  0  0  0  0  0  0  0
    2.9581    0.7957   -1.2878 H   0  0  0  0  0  0  0  0  0  0  0  0
    2.6545   -1.9473    0.1303 H   0  0  0  0  0  0  0  0  0  0  0  0
    6.4741    0.4880   -1.1602 H   0  0  0  0  0  0  0  0  0  0  0  0
    6.2028    2.0799   -0.7325 H   0  0  0  0  0  0  0  0  0  0  0  0
    7.3554    0.5435    2.1311 H   0  0  0  0  0  0  0  0  0  0  0  0
    8.5039    1.1284    1.0433 H   0  0  0  0  0  0  0  0  0  0  0  0
    7.2261    2.1744    1.7695 H   0  0  0  0  0  0  0  0  0  0  0  0
  2  3  2  0  0  0  0
  2  4  1  0  0  0  0
  2  5  1  0  0  0  0
  5  6  2  0  0  0  0
  5 22  1  0  0  0  0
  6  7  1  0  0  0  0
  6 23  1  0  0  0  0
  7  8  2  0  0  0  0
  7  9  1  0  0  0  0
  9 10  1  0  0  0  0
 10 11  1  0  0  0  0
 10 24  1  0  0  0  0
 10 25  1  0  0  0  0
 11 26  1  0  0  0  0
 11 27  1  0  0  0  0
 11 28  1  0  0  0  0
 12 13  2  0  0  0  0
 12 14  1  0  0  0  0
 12 15  1  0  0  0  0
 15 16  2  0  0  0  0
 15 29  1  0  0  0  0
 16 17  1  0  0  0  0
 16 30  1  0  0  0  0
 17 18  2  0  0  0  0
 17 19  1  0  0  0  0
 19 20  1  0  0  0  0
 20 21  1  0  0  0  0
 20 31  1  0  0  0  0
 20 32  1  0  0  0  0
 21 33  1  0  0  0  0
 21 34  1  0  0  0  0
 21 35  1  0  0  0  0
M  CHG  3   1   2   4  -1  14  -1
M  END
>  <DRUGBANK_ID>
DB15816

>  <COMMON_NAME>
Calcium monoethylfumarate

>  <CAS_NUMBER>
62008-22-4

>  <UNII>
37SBE2S23Q

>  <SYNONYMS>
Calcium diethyl difumarate; Calcium monoethyl fumarate

$$$$
