
 OpenBabel10282417183D

 44 47  0  0  0  0  0  0  0  0999 V2000
    3.8130   -0.6295    0.3522 C   0  0  2  0  0  0  0  0  0  0  0  0
    1.3212   -0.8347   -0.0493 C   0  0  0  0  0  0  0  0  0  0  0  0
    6.3061   -0.4652   -0.6496 C   0  0  0  0  0  0  0  0  0  0  0  0
    2.5258   -1.4575    0.1318 C   0  0  0  0  0  0  0  0  0  0  0  0
    5.3519   -1.0431    0.3391 C   0  0  0  0  0  0  0  0  0  0  0  0
   -0.0051   -1.5667    0.0430 C   0  0  0  0  0  0  0  0  0  0  0  0
    6.1250    0.8717   -0.7574 C   0  0  0  0  0  0  0  0  0  0  0  0
   -1.2739   -0.7743    0.0068 C   0  0  0  0  0  0  0  0  0  0  0  0
    3.6924    0.7419   -0.3436 C   0  0  2  0  0  0  0  0  0  0  0  0
    1.2152    0.6648   -0.2996 C   0  0  2  0  0  0  0  0  0  0  0  0
   -1.2572    0.6241    0.0896 C   0  0  0  0  0  0  0  0  0  0  0  0
    7.5897   -1.1395   -1.0478 C   0  0  0  0  0  0  0  0  0  0  0  0
    4.9504    1.5725   -0.1040 C   0  0  0  0  0  0  0  0  0  0  0  0
    2.4476    1.4411    0.1737 C   0  0  0  0  0  0  0  0  0  0  0  0
    0.0143    1.3597    0.3301 C   0  0  0  0  0  0  0  0  0  0  0  0
    5.8738   -1.4805    1.3788 O   0  0  0  0  0  0  0  0  0  0  0  0
   -0.1084   -2.7867    0.1494 O   0  0  0  0  0  0  0  0  0  0  0  0
   -2.5150   -1.4213   -0.1029 C   0  0  0  0  0  0  0  0  0  0  0  0
    8.4898   -0.5985   -1.6974 O   0  0  0  0  0  0  0  0  0  0  0  0
    2.5734   -2.8274    0.3380 O   0  0  0  0  0  0  0  0  0  0  0  0
    7.0334    1.6900   -1.3943 O   0  0  0  0  0  0  0  0  0  0  0  0
    7.7885   -2.4273   -0.6462 N   0  0  0  0  0  0  0  0  0  0  0  0
   -2.4546    1.3560    0.0362 C   0  0  0  0  0  0  0  0  0  0  0  0
   -2.6443   -2.7841   -0.1643 O   0  0  0  0  0  0  0  0  0  0  0  0
   -3.6724    0.7002   -0.0966 C   0  0  0  0  0  0  0  0  0  0  0  0
   -3.7031   -0.6906   -0.1576 C   0  0  0  0  0  0  0  0  0  0  0  0
    1.1320    0.7774   -1.3925 H   0  0  0  0  0  0  0  0  0  0  0  0
    3.5855    0.6084   -1.4321 H   0  0  0  0  0  0  0  0  0  0  0  0
    3.6748   -0.4097    1.8019 O   0  0  0  0  0  0  0  0  0  0  0  0
    4.8195    2.5839   -0.5005 H   0  0  0  0  0  0  0  0  0  0  0  0
    5.1403    1.6828    0.9726 H   0  0  0  0  0  0  0  0  0  0  0  0
    2.4562    1.4879    1.2719 H   0  0  0  0  0  0  0  0  0  0  0  0
    2.3999    2.4786   -0.1706 H   0  0  0  0  0  0  0  0  0  0  0  0
   -0.0602    2.3679   -0.1017 H   0  0  0  0  0  0  0  0  0  0  0  0
    0.1448    1.4795    1.4125 H   0  0  0  0  0  0  0  0  0  0  0  0
    3.3608   -3.0864    0.8415 H   0  0  0  0  0  0  0  0  0  0  0  0
    6.7063    2.6029   -1.4530 H   0  0  0  0  0  0  0  0  0  0  0  0
    7.2432   -2.8920    0.0691 H   0  0  0  0  0  0  0  0  0  0  0  0
    8.7090   -2.8089   -0.8400 H   0  0  0  0  0  0  0  0  0  0  0  0
   -2.4383    2.4429    0.1039 H   0  0  0  0  0  0  0  0  0  0  0  0
   -1.7448   -3.1707   -0.0496 H   0  0  0  0  0  0  0  0  0  0  0  0
   -4.5949    1.2728   -0.1407 H   0  0  0  0  0  0  0  0  0  0  0  0
   -4.6533   -1.2097   -0.2466 H   0  0  0  0  0  0  0  0  0  0  0  0
    4.5735   -0.3890    2.1870 H   0  0  0  0  0  0  0  0  0  0  0  0
  1 29  1  6  0  0  0
  2 10  1  0  0  0  0
  2  4  2  0  0  0  0
  3  5  1  0  0  0  0
  4  1  1  0  0  0  0
  5  1  1  0  0  0  0
  6  2  1  0  0  0  0
  7 13  1  0  0  0  0
  7  3  2  0  0  0  0
  8  6  1  0  0  0  0
  8 11  2  0  0  0  0
  9  1  1  0  0  0  0
  9 28  1  6  0  0  0
 10 14  1  0  0  0  0
 10 27  1  6  0  0  0
 11 15  1  0  0  0  0
 12  3  1  0  0  0  0
 13  9  1  0  0  0  0
 13 30  1  0  0  0  0
 13 31  1  0  0  0  0
 14  9  1  0  0  0  0
 14 32  1  0  0  0  0
 14 33  1  0  0  0  0
 15 10  1  0  0  0  0
 15 34  1  0  0  0  0
 15 35  1  0  0  0  0
 16  5  2  0  0  0  0
 17  6  2  0  0  0  0
 18  8  1  0  0  0  0
 19 12  2  0  0  0  0
 20  4  1  0  0  0  0
 20 36  1  0  0  0  0
 21  7  1  0  0  0  0
 21 37  1  0  0  0  0
 22 12  1  0  0  0  0
 22 38  1  0  0  0  0
 22 39  1  0  0  0  0
 23 11  1  0  0  0  0
 23 40  1  0  0  0  0
 24 18  1  0  0  0  0
 24 41  1  0  0  0  0
 25 23  2  0  0  0  0
 25 42  1  0  0  0  0
 26 18  2  0  0  0  0
 26 25  1  0  0  0  0
 26 43  1  0  0  0  0
 29 44  1  0  0  0  0
M  END
>  <DRUGBANK_ID>
DB11647

>  <COMMON_NAME>
Incyclinide

>  <CAS_NUMBER>
15866-90-7

>  <UNII>
21G64WZQ4I

>  <SYNONYMS>
Incyclinide

$$$$
