1237
 OpenBabel10282417113D

 40 41  0  0  1  0  0  0  0  0999 V2000
   -1.7389   -0.0444    0.0025 Br  0  0  0  0  0  0  0  0  0  0  0  0
    4.8665    1.0365   -1.3389 O   0  0  0  0  0  0  0  0  0  0  0  0
    4.8416   -2.4250   -0.9384 N   0  0  0  0  0  0  0  0  0  0  0  0
    4.4136    0.5610   -0.0657 C   0  0  3  0  0  0  0  0  0  0  0  0
    2.9247    0.3075   -0.0293 C   0  0  0  0  0  0  0  0  0  0  0  0
    5.0158    1.0570    1.2552 C   0  0  0  0  0  0  0  0  0  0  0  0
    4.6656   -0.0191   -2.3260 C   0  0  0  0  0  0  0  0  0  0  0  0
    5.2635   -1.4984   -2.0634 C   0  0  0  0  0  0  0  0  0  0  0  0
    2.2933   -0.9557    0.0100 C   0  0  0  0  0  0  0  0  0  0  0  0
    2.1257    1.4491   -0.0347 C   0  0  0  0  0  0  0  0  0  0  0  0
    4.6172    0.4434    2.4808 C   0  0  0  0  0  0  0  0  0  0  0  0
    6.1115    1.8973    1.2626 C   0  0  0  0  0  0  0  0  0  0  0  0
    5.1871   -3.8147   -1.2239 C   0  0  0  0  0  0  0  0  0  0  0  0
    5.4034   -2.2355    0.4213 C   0  0  0  0  0  0  0  0  0  0  0  0
    0.9101   -1.0777    0.0072 C   0  0  0  0  0  0  0  0  0  0  0  0
    0.7490    1.3338   -0.0121 C   0  0  0  0  0  0  0  0  0  0  0  0
    5.2926    0.7130    3.6751 C   0  0  0  0  0  0  0  0  0  0  0  0
    6.7902    2.1634    2.4608 C   0  0  0  0  0  0  0  0  0  0  0  0
    0.1410    0.0811   -0.0025 C   0  0  0  0  0  0  0  0  0  0  0  0
    6.3562    1.5871    3.6632 C   0  0  0  0  0  0  0  0  0  0  0  0
    4.9898   -0.3075   -0.1186 H   0  0  0  0  0  0  0  0  0  0  0  0
    3.5921   -0.0821   -2.5422 H   0  0  0  0  0  0  0  0  0  0  0  0
    5.1158    0.3630   -3.2545 H   0  0  0  0  0  0  0  0  0  0  0  0
    4.9490   -2.0149   -2.9861 H   0  0  0  0  0  0  0  0  0  0  0  0
    6.3558   -1.4424   -2.1044 H   0  0  0  0  0  0  0  0  0  0  0  0
    2.8415   -1.8934    0.0406 H   0  0  0  0  0  0  0  0  0  0  0  0
    2.6131    2.4203   -0.0507 H   0  0  0  0  0  0  0  0  0  0  0  0
    3.8262   -0.2995    2.5102 H   0  0  0  0  0  0  0  0  0  0  0  0
    6.4765    2.3221    0.3284 H   0  0  0  0  0  0  0  0  0  0  0  0
    6.2743   -3.9419   -1.2157 H   0  0  0  0  0  0  0  0  0  0  0  0
    4.7640   -4.4463   -0.4294 H   0  0  0  0  0  0  0  0  0  0  0  0
    4.7595   -4.1732   -2.1577 H   0  0  0  0  0  0  0  0  0  0  0  0
    6.4629   -1.9720    0.4170 H   0  0  0  0  0  0  0  0  0  0  0  0
    4.8480   -1.5348    1.0293 H   0  0  0  0  0  0  0  0  0  0  0  0
    5.2111   -3.0924    1.0734 H   0  0  0  0  0  0  0  0  0  0  0  0
    0.4539   -2.0648    0.0137 H   0  0  0  0  0  0  0  0  0  0  0  0
    0.1601    2.2459   -0.0047 H   0  0  0  0  0  0  0  0  0  0  0  0
    4.9862    0.2130    4.5951 H   0  0  0  0  0  0  0  0  0  0  0  0
    7.6624    2.7983    2.4495 H   0  0  0  0  0  0  0  0  0  0  0  0
    6.8742    1.8261    4.5924 H   0  0  0  0  0  0  0  0  0  0  0  0
  1 19  1  0  0  0  0
  2  4  1  0  0  0  0
  2  7  1  0  0  0  0
  3  8  1  0  0  0  0
  3 13  1  0  0  0  0
  3 14  1  0  0  0  0
  4  5  1  0  0  0  0
  4  6  1  0  0  0  0
  4 21  1  0  0  0  0
  5  9  2  0  0  0  0
  5 10  1  0  0  0  0
  6 11  2  0  0  0  0
  6 12  1  0  0  0  0
  7  8  1  0  0  0  0
  7 22  1  0  0  0  0
  7 23  1  0  0  0  0
  8 24  1  0  0  0  0
  8 25  1  0  0  0  0
  9 15  1  0  0  0  0
  9 26  1  0  0  0  0
 10 16  2  0  0  0  0
 10 27  1  0  0  0  0
 11 17  1  0  0  0  0
 11 28  1  0  0  0  0
 12 18  2  0  0  0  0
 12 29  1  0  0  0  0
 13 30  1  0  0  0  0
 13 31  1  0  0  0  0
 13 32  1  0  0  0  0
 14 33  1  0  0  0  0
 14 34  1  0  0  0  0
 14 35  1  0  0  0  0
 15 19  2  0  0  0  0
 15 36  1  0  0  0  0
 16 19  1  0  0  0  0
 16 37  1  0  0  0  0
 17 20  2  0  0  0  0
 17 38  1  0  0  0  0
 18 20  1  0  0  0  0
 18 39  1  0  0  0  0
 20 40  1  0  0  0  0
M  END
>  <DRUGBANK_ID>
DB01237

>  <SECONDARY_ACCESSION_NUMBERS>
APRD00710

>  <COMMON_NAME>
Bromodiphenhydramine

>  <CAS_NUMBER>
118-23-0

>  <UNII>
T032BI7727

>  <SYNONYMS>
2-(p-bromo-α-phenylbenzyloxy)-N,N-dimethylethylamine; Bromazina; Bromazine; Bromazinum; β-(p-bromobenzhydryloxy)ethyldimethylamine; β-dimethylaminoethyl p-bromobenzhydryl ether

$$$$
