
 OpenBabel10282417203D

 27 29  0  0  0  0  0  0  0  0999 V2000
    1.1824   -0.2142    0.0043 C   0  0  0  0  0  0  0  0  0  0  0  0
    0.2972   -1.2880   -0.0053 C   0  0  0  0  0  0  0  0  0  0  0  0
   -1.1174   -1.0972   -0.0620 C   0  0  0  0  0  0  0  0  0  0  0  0
   -1.7083    0.1914   -0.0975 C   0  0  0  0  0  0  0  0  0  0  0  0
   -0.7601    1.2564    0.0208 C   0  0  0  0  0  0  0  0  0  0  0  0
    0.6480    1.0628    0.0040 C   0  0  0  0  0  0  0  0  0  0  0  0
   -3.3390    0.5428   -0.3008 C   0  0  3  0  0  0  0  0  0  0  0  0
   -4.8043    0.0597   -0.8221 C   0  0  0  0  0  0  0  0  0  0  0  0
   -5.8240   -0.1227   -0.1762 O   0  0  0  0  0  0  0  0  0  0  0  0
   -4.8654   -0.0176   -2.2928 C   0  0  0  0  0  0  0  0  0  0  0  0
   -5.6780   -0.7113   -3.1881 C   0  0  0  0  0  0  0  0  0  0  0  0
   -5.2465   -0.7747   -4.5256 C   0  0  0  0  0  0  0  0  0  0  0  0
   -4.0940   -0.0734   -4.9286 C   0  0  0  0  0  0  0  0  0  0  0  0
   -3.4200    0.7707   -4.0518 C   0  0  0  0  0  0  0  0  0  0  0  0
   -3.8170    0.7428   -2.7377 C   0  0  0  0  0  0  0  0  0  0  0  0
   -3.1592    1.3868   -1.6125 C   0  0  0  0  0  0  0  0  0  0  0  0
   -2.6311    2.4681   -1.7340 O   0  0  0  0  0  0  0  0  0  0  0  0
   -3.3381   -0.3794   -6.6334 Br  0  0  0  0  0  0  0  0  0  0  0  0
    2.2636   -0.3682    0.0293 H   0  0  0  0  0  0  0  0  0  0  0  0
    0.7222   -2.2917    0.0188 H   0  0  0  0  0  0  0  0  0  0  0  0
   -1.7209   -2.0003   -0.0622 H   0  0  0  0  0  0  0  0  0  0  0  0
   -1.0869    2.2932    0.0923 H   0  0  0  0  0  0  0  0  0  0  0  0
    1.3292    1.9153   -0.0201 H   0  0  0  0  0  0  0  0  0  0  0  0
   -3.3335   -0.5645   -0.2548 H   0  0  0  0  0  0  0  0  0  0  0  0
   -6.5695   -1.2539   -2.8800 H   0  0  0  0  0  0  0  0  0  0  0  0
   -5.7722   -1.4083   -5.2417 H   0  0  0  0  0  0  0  0  0  0  0  0
   -2.5537    1.3541   -4.3376 H   0  0  0  0  0  0  0  0  0  0  0  0
  1  2  2  0  0  0  0
  1  6  1  0  0  0  0
  1 19  1  0  0  0  0
  2  3  1  0  0  0  0
  2 20  1  0  0  0  0
  3  4  2  0  0  0  0
  3 21  1  0  0  0  0
  4  5  1  0  0  0  0
  4  7  1  0  0  0  0
  5  6  2  0  0  0  0
  5 22  1  0  0  0  0
  6 23  1  0  0  0  0
  7  8  1  0  0  0  0
  7 16  1  0  0  0  0
  7 24  1  0  0  0  0
  8  9  2  0  0  0  0
  8 10  1  0  0  0  0
 10 11  2  0  0  0  0
 10 15  1  0  0  0  0
 11 12  1  0  0  0  0
 11 25  1  0  0  0  0
 12 13  2  0  0  0  0
 12 26  1  0  0  0  0
 13 14  1  0  0  0  0
 13 18  1  0  0  0  0
 14 15  2  0  0  0  0
 14 27  1  0  0  0  0
 15 16  1  0  0  0  0
 16 17  2  0  0  0  0
M  END
>  <DRUGBANK_ID>
DB13545

>  <COMMON_NAME>
Isobromindione

>  <CAS_NUMBER>
1470-35-5

>  <UNII>
J1J87P409K

>  <SYNONYMS>
Isobromindione

$$$$
