
 OpenBabel10282417243D

137143  0  0  1  0  0  0  0  0999 V2000
    2.5365    1.5448   -1.8699 H   0  0  0  0  0  0  0  0  0  0  0  0
    3.5275    1.1164   -1.7934 C   0  0  2  0  0  0  0  0  0  0  0  0
    4.4210    2.2110   -1.2147 O   0  0  0  0  0  0  0  0  0  0  0  0
    5.0625    3.2970   -2.0421 C   0  0  1  0  0  0  0  0  0  0  0  0
    6.3229    4.2685   -1.3185 C   0  0  2  0  0  0  0  0  0  0  0  0
    6.0184    4.9791   -0.1232 O   0  0  0  0  0  0  0  0  0  0  0  0
    7.0577    5.0939   -2.4171 C   0  0  1  0  0  0  0  0  0  0  0  0
    8.4508    5.5691   -1.8772 C   0  0  0  0  0  0  0  0  0  0  0  0
    9.0914    6.3912   -2.8479 O   0  0  0  0  0  0  0  0  0  0  0  0
    7.4107    4.3437   -3.5889 O   0  0  0  0  0  0  0  0  0  0  0  0
    6.4412    3.6358   -4.3213 C   0  0  1  0  0  0  0  0  0  0  0  0
    5.8733    4.3615   -4.9027 H   0  0  0  0  0  0  0  0  0  0  0  0
    6.9746    2.7457   -5.3365 O   0  0  0  0  0  0  0  0  0  0  0  0
    8.0339    1.8058   -5.0645 C   0  0  2  0  0  0  0  0  0  0  0  0
    7.8771    0.4277   -4.3860 C   0  0  1  0  0  0  0  0  0  0  0  0
    6.8743   -0.5431   -4.9384 C   0  0  0  0  0  0  0  0  0  0  0  0
    6.6703   -1.6850   -4.0258 O   0  0  0  0  0  0  0  0  0  0  0  0
    6.4461   -1.3943   -2.6354 C   0  0  2  0  0  0  0  0  0  0  0  0
    7.1886   -0.3240   -2.1449 O   0  0  0  0  0  0  0  0  0  0  0  0
    6.6702    0.4836   -1.1415 C   0  0  2  0  0  0  0  0  0  0  0  0
    7.4575    1.7194   -0.9772 C   0  0  0  0  0  0  0  0  0  0  0  0
    7.3473    2.2740   -2.2393 O   0  0  0  0  0  0  0  0  0  0  0  0
    6.5973   -0.1979    0.1385 C   0  0  1  0  0  0  0  0  0  0  0  0
    5.8845    0.5600    1.1277 O   0  0  0  0  0  0  0  0  0  0  0  0
    6.0703   -1.5995   -0.1438 C   0  0  2  0  0  0  0  0  0  0  0  0
    6.4845   -2.3701    0.9639 O   0  0  0  0  0  0  0  0  0  0  0  0
    6.5796   -2.3412   -1.4718 C   0  0  1  0  0  0  0  0  0  0  0  0
    5.8807   -3.5575   -1.6982 O   0  0  0  0  0  0  0  0  0  0  0  0
    9.0168   -0.4002   -4.0137 O   0  0  0  0  0  0  0  0  0  0  0  0
    9.8763    0.1526   -3.0167 C   0  0  1  0  0  0  0  0  0  0  0  0
   11.1317   -0.6461   -2.8565 O   0  0  0  0  0  0  0  0  0  0  0  0
   11.7666   -1.2264   -3.9612 C   0  0  0  0  0  0  0  0  0  0  0  0
   11.6565   -2.6314   -4.0042 C   0  0  0  0  0  0  0  0  0  0  0  0
   12.3694   -3.3554   -4.9657 C   0  0  0  0  0  0  0  0  0  0  0  0
   12.3090   -4.8741   -4.9731 C   0  0  0  0  0  0  0  0  0  0  0  0
   11.7191   -5.4550   -6.2704 C   0  0  0  0  0  0  0  0  0  0  0  0
   12.5363   -5.1180   -7.5250 C   0  0  0  0  0  0  0  0  0  0  0  0
   14.0098   -5.5323   -7.3781 C   0  0  0  0  0  0  0  0  0  0  0  0
   14.1098   -7.0410   -7.2973 C   0  0  0  0  0  0  0  0  0  0  0  0
   13.1602   -2.6392   -5.9032 C   0  0  0  0  0  0  0  0  0  0  0  0
   13.2226   -1.2549   -5.9637 C   0  0  0  0  0  0  0  0  0  0  0  0
   13.8987   -0.6945   -7.0551 O   0  0  0  0  0  0  0  0  0  0  0  0
   13.4995    0.6661   -7.4065 C   0  0  0  0  0  0  0  0  0  0  0  0
   12.1892    0.4890   -8.2585 C   0  0  0  0  0  0  0  0  0  0  0  0
   14.3966    1.3963   -8.3993 C   0  0  0  0  0  0  0  0  0  0  0  0
   13.7205    1.5205   -6.0832 C   0  0  2  0  0  0  0  0  0  0  0  0
   14.7407    1.3863   -5.6970 H   0  0  0  0  0  0  0  0  0  0  0  0
   13.3902    3.0748   -6.2250 C   0  0  0  0  0  0  0  0  0  0  0  0
   11.9655    3.2517   -6.9485 C   0  0  0  0  0  0  0  0  0  0  0  0
   10.9873    2.1236   -6.5394 C   0  0  0  0  0  0  0  0  0  0  0  0
   10.2351    0.7639   -6.5861 C   0  0  0  0  0  0  0  0  0  0  0  0
   11.6425    1.5890   -5.4710 C   0  0  0  0  0  0  0  0  0  0  0  0
   12.8384    0.9573   -5.0089 C   0  0  1  0  0  0  0  0  0  0  0  0
   13.0504    1.3177   -3.9899 H   0  0  0  0  0  0  0  0  0  0  0  0
   12.6222   -0.5369   -4.9260 C   0  0  0  0  0  0  0  0  0  0  0  0
   10.1936    1.5873   -3.4137 C   0  0  2  0  0  0  0  0  0  0  0  0
   11.2313    2.3396   -2.7678 O   0  0  0  0  0  0  0  0  0  0  0  0
    9.2094    2.4914   -4.3233 C   0  0  1  0  0  0  0  0  0  0  0  0
    9.5867    3.6605   -5.1008 O   0  0  0  0  0  0  0  0  0  0  0  0
    5.4406    2.8436   -3.5152 C   0  0  2  0  0  0  0  0  0  0  0  0
    4.2987    2.8177   -4.4033 O   0  0  0  0  0  0  0  0  0  0  0  0
    3.4734    0.0315   -0.7607 O   0  0  0  0  0  0  0  0  0  0  0  0
    2.6021   -1.0939   -1.1148 C   0  0  2  0  0  0  0  0  0  0  0  0
    2.5341   -2.1680   -0.0077 C   0  0  0  0  0  0  0  0  0  0  0  0
    2.2458   -1.5519    1.2329 O   0  0  0  0  0  0  0  0  0  0  0  0
    2.9469   -1.8451   -2.4008 C   0  0  1  0  0  0  0  0  0  0  0  0
    1.9333   -2.7686   -2.7724 O   0  0  0  0  0  0  0  0  0  0  0  0
    3.1950   -0.9017   -3.5188 C   0  0  2  0  0  0  0  0  0  0  0  0
    3.8028   -1.6576   -4.6094 O   0  0  0  0  0  0  0  0  0  0  0  0
    3.9698    0.3086   -3.0745 C   0  0  1  0  0  0  0  0  0  0  0  0
    4.3941    0.6711   -4.3351 O   0  0  0  0  0  0  0  0  0  0  0  0
    4.2244    3.9779   -2.1180 H   0  0  0  0  0  0  0  0  0  0  0  0
    7.2082    3.8105   -0.8739 H   0  0  0  0  0  0  0  0  0  0  0  0
    5.0671    5.0509   -0.0123 H   0  0  0  0  0  0  0  0  0  0  0  0
    6.4323    5.9189   -2.7301 H   0  0  0  0  0  0  0  0  0  0  0  0
    8.3471    6.1146   -0.9380 H   0  0  0  0  0  0  0  0  0  0  0  0
    9.1578    4.7398   -1.6863 H   0  0  0  0  0  0  0  0  0  0  0  0
    9.1996    5.8298   -3.6453 H   0  0  0  0  0  0  0  0  0  0  0  0
    8.1949    1.5636   -6.1207 H   0  0  0  0  0  0  0  0  0  0  0  0
    7.5720    0.8376   -3.4863 H   0  0  0  0  0  0  0  0  0  0  0  0
    5.9927   -0.0085   -5.2713 H   0  0  0  0  0  0  0  0  0  0  0  0
    7.2276   -0.9654   -5.8846 H   0  0  0  0  0  0  0  0  0  0  0  0
    5.3892   -1.3835   -2.6128 H   0  0  0  0  0  0  0  0  0  0  0  0
    5.7251    0.8158   -1.4384 H   0  0  0  0  0  0  0  0  0  0  0  0
    6.9366    2.2727   -0.1898 H   0  0  0  0  0  0  0  0  0  0  0  0
    8.5194    1.6730   -0.8468 H   0  0  0  0  0  0  0  0  0  0  0  0
    7.8654    3.0621   -2.4101 H   0  0  0  0  0  0  0  0  0  0  0  0
    7.6330   -0.2231    0.4668 H   0  0  0  0  0  0  0  0  0  0  0  0
    4.9786    0.7892    0.8357 H   0  0  0  0  0  0  0  0  0  0  0  0
    4.9900   -1.5516   -0.1110 H   0  0  0  0  0  0  0  0  0  0  0  0
    7.4566   -2.3398    0.8954 H   0  0  0  0  0  0  0  0  0  0  0  0
    7.6392   -2.5549   -1.3804 H   0  0  0  0  0  0  0  0  0  0  0  0
    4.9744   -3.4967   -1.3590 H   0  0  0  0  0  0  0  0  0  0  0  0
    9.4394    0.1921   -2.0248 H   0  0  0  0  0  0  0  0  0  0  0  0
   11.0486   -3.1668   -3.2719 H   0  0  0  0  0  0  0  0  0  0  0  0
   13.3143   -5.2669   -4.7748 H   0  0  0  0  0  0  0  0  0  0  0  0
   11.7097   -5.2499   -4.1314 H   0  0  0  0  0  0  0  0  0  0  0  0
   11.6475   -6.5460   -6.1757 H   0  0  0  0  0  0  0  0  0  0  0  0
   10.6894   -5.1040   -6.3999 H   0  0  0  0  0  0  0  0  0  0  0  0
   12.1011   -5.5936   -8.4085 H   0  0  0  0  0  0  0  0  0  0  0  0
   12.4330   -4.0537   -7.7553 H   0  0  0  0  0  0  0  0  0  0  0  0
   14.5930   -5.1465   -8.2203 H   0  0  0  0  0  0  0  0  0  0  0  0
   14.4869   -5.1132   -6.4837 H   0  0  0  0  0  0  0  0  0  0  0  0
   13.6768   -7.4816   -8.1982 H   0  0  0  0  0  0  0  0  0  0  0  0
   15.1491   -7.3562   -7.1973 H   0  0  0  0  0  0  0  0  0  0  0  0
   13.5689   -7.4304   -6.4290 H   0  0  0  0  0  0  0  0  0  0  0  0
   13.7691   -3.1449   -6.6371 H   0  0  0  0  0  0  0  0  0  0  0  0
   11.6119    1.3945   -8.4776 H   0  0  0  0  0  0  0  0  0  0  0  0
   12.3003    0.0854   -9.2614 H   0  0  0  0  0  0  0  0  0  0  0  0
   11.5728   -0.2900   -7.8210 H   0  0  0  0  0  0  0  0  0  0  0  0
   15.4082    1.4748   -8.0086 H   0  0  0  0  0  0  0  0  0  0  0  0
   14.3994    0.9192   -9.3763 H   0  0  0  0  0  0  0  0  0  0  0  0
   14.0179    2.4173   -8.5642 H   0  0  0  0  0  0  0  0  0  0  0  0
   13.3512    3.5189   -5.2027 H   0  0  0  0  0  0  0  0  0  0  0  0
   14.1786    3.6264   -6.7351 H   0  0  0  0  0  0  0  0  0  0  0  0
   11.6225    4.2785   -6.6807 H   0  0  0  0  0  0  0  0  0  0  0  0
   12.0664    3.2881   -8.0252 H   0  0  0  0  0  0  0  0  0  0  0  0
    9.6824    0.4230   -7.4380 H   0  0  0  0  0  0  0  0  0  0  0  0
   10.6954   -0.1512   -6.1487 H   0  0  0  0  0  0  0  0  0  0  0  0
    9.5893    0.7067   -5.7478 H   0  0  0  0  0  0  0  0  0  0  0  0
   11.5380    2.4480   -4.8608 H   0  0  0  0  0  0  0  0  0  0  0  0
   10.7897    1.0418   -4.0461 H   0  0  0  0  0  0  0  0  0  0  0  0
   10.9407    2.7681   -1.9629 H   0  0  0  0  0  0  0  0  0  0  0  0
    8.9698    3.0710   -3.4859 H   0  0  0  0  0  0  0  0  0  0  0  0
    9.2724    3.5134   -6.0215 H   0  0  0  0  0  0  0  0  0  0  0  0
    5.8467    1.8294   -3.5126 H   0  0  0  0  0  0  0  0  0  0  0  0
    3.5534    3.2096   -3.9532 H   0  0  0  0  0  0  0  0  0  0  0  0
    1.6149   -0.6503   -1.2218 H   0  0  0  0  0  0  0  0  0  0  0  0
    1.7503   -2.8940   -0.2486 H   0  0  0  0  0  0  0  0  0  0  0  0
    3.4511   -2.7598    0.1108 H   0  0  0  0  0  0  0  0  0  0  0  0
    3.0162   -0.9918    1.4402 H   0  0  0  0  0  0  0  0  0  0  0  0
    3.8296   -2.4608   -2.2952 H   0  0  0  0  0  0  0  0  0  0  0  0
    1.2780   -2.2808   -3.2990 H   0  0  0  0  0  0  0  0  0  0  0  0
    2.2888   -0.5007   -3.9694 H   0  0  0  0  0  0  0  0  0  0  0  0
    4.7640   -1.8032   -4.4721 H   0  0  0  0  0  0  0  0  0  0  0  0
    4.9255    0.1029   -2.7289 H   0  0  0  0  0  0  0  0  0  0  0  0
    3.8816    1.3850   -4.7189 H   0  0  0  0  0  0  0  0  0  0  0  0
  2  1  1  6  0  0  0
  2  3  1  0  0  0  0
  2 62  1  0  0  0  0
  4  3  1  0  0  0  0
  4  5  1  0  0  0  0
  4 60  1  0  0  0  0
  4 72  1  6  0  0  0
  5  6  1  0  0  0  0
  5  7  1  0  0  0  0
  5 73  1  1  0  0  0
  6 74  1  0  0  0  0
  7  8  1  0  0  0  0
  7 10  1  0  0  0  0
  7 75  1  6  0  0  0
  8  9  1  0  0  0  0
  8 76  1  0  0  0  0
  8 77  1  0  0  0  0
  9 78  1  0  0  0  0
 11 10  1  0  0  0  0
 11 13  1  0  0  0  0
 11 12  1  6  0  0  0
 14 13  1  0  0  0  0
 14 15  1  0  0  0  0
 14 58  1  0  0  0  0
 14 79  1  6  0  0  0
 15 16  1  0  0  0  0
 15 29  1  0  0  0  0
 15 80  1  1  0  0  0
 16 17  1  0  0  0  0
 16 81  1  0  0  0  0
 16 82  1  0  0  0  0
 18 19  1  0  0  0  0
 18 83  1  1  0  0  0
 18 17  1  0  0  0  0
 20 19  1  0  0  0  0
 20 21  1  0  0  0  0
 20 84  1  6  0  0  0
 21 22  1  0  0  0  0
 21 85  1  0  0  0  0
 21 86  1  0  0  0  0
 22 87  1  0  0  0  0
 23 20  1  0  0  0  0
 23 24  1  0  0  0  0
 23 25  1  0  0  0  0
 23 88  1  1  0  0  0
 24 89  1  0  0  0  0
 25 26  1  0  0  0  0
 25 27  1  0  0  0  0
 25 90  1  6  0  0  0
 26 91  1  0  0  0  0
 27 18  1  0  0  0  0
 27 28  1  0  0  0  0
 27 92  1  1  0  0  0
 28 93  1  0  0  0  0
 30 29  1  0  0  0  0
 30 31  1  0  0  0  0
 30 94  1  1  0  0  0
 31 32  1  0  0  0  0
 32 33  2  0  0  0  0
 32 55  1  0  0  0  0
 33 34  1  0  0  0  0
 33 95  1  0  0  0  0
 34 35  1  0  0  0  0
 34 40  2  0  0  0  0
 35 36  1  0  0  0  0
 35 96  1  0  0  0  0
 35 97  1  0  0  0  0
 36 37  1  0  0  0  0
 36 98  1  0  0  0  0
 36 99  1  0  0  0  0
 37 38  1  0  0  0  0
 37100  1  0  0  0  0
 37101  1  0  0  0  0
 38 39  1  0  0  0  0
 38102  1  0  0  0  0
 38103  1  0  0  0  0
 39104  1  0  0  0  0
 39105  1  0  0  0  0
 39106  1  0  0  0  0
 40 41  1  0  0  0  0
 40107  1  0  0  0  0
 41 42  1  0  0  0  0
 41 55  2  0  0  0  0
 42 43  1  0  0  0  0
 43 44  1  0  0  0  0
 43 45  1  0  0  0  0
 44108  1  0  0  0  0
 44109  1  0  0  0  0
 44110  1  0  0  0  0
 45111  1  0  0  0  0
 45112  1  0  0  0  0
 45113  1  0  0  0  0
 46 43  1  0  0  0  0
 46 47  1  6  0  0  0
 46 48  1  0  0  0  0
 46 53  1  0  0  0  0
 48 49  1  0  0  0  0
 48114  1  0  0  0  0
 48115  1  0  0  0  0
 49 50  1  0  0  0  0
 49116  1  0  0  0  0
 49117  1  0  0  0  0
 50 51  1  0  0  0  0
 50 52  2  0  0  0  0
 51118  1  0  0  0  0
 51119  1  0  0  0  0
 51120  1  0  0  0  0
 52121  1  0  0  0  0
 53 52  1  0  0  0  0
 53 54  1  1  0  0  0
 53 55  1  0  0  0  0
 56 30  1  0  0  0  0
 56 57  1  0  0  0  0
 56122  1  6  0  0  0
 57123  1  0  0  0  0
 58 56  1  0  0  0  0
 58 59  1  0  0  0  0
 58124  1  1  0  0  0
 59125  1  0  0  0  0
 60 11  1  0  0  0  0
 60 61  1  0  0  0  0
 60126  1  1  0  0  0
 61127  1  0  0  0  0
 63 62  1  0  0  0  0
 63 64  1  0  0  0  0
 63128  1  6  0  0  0
 64 65  1  0  0  0  0
 64129  1  0  0  0  0
 64130  1  0  0  0  0
 65131  1  0  0  0  0
 66 63  1  0  0  0  0
 66 67  1  0  0  0  0
 66 68  1  0  0  0  0
 66132  1  1  0  0  0
 67133  1  0  0  0  0
 68 69  1  0  0  0  0
 68 70  1  0  0  0  0
 68134  1  6  0  0  0
 69135  1  0  0  0  0
 70  2  1  0  0  0  0
 70 71  1  0  0  0  0
 70136  1  1  0  0  0
 71137  1  0  0  0  0
M  END
>  <DRUGBANK_ID>
DB18541

>  <COMMON_NAME>
VB-313

>  <CAS_NUMBER>
2699021-79-7

>  <UNII>
VFD5BFU5ZG

$$$$
