
 OpenBabel10282417203D

 35 37  0  0  0  0  0  0  0  0999 V2000
    1.2654   -0.1801    0.0133 C   0  0  0  0  0  0  0  0  0  0  0  0
    0.3317   -1.2085    0.0249 C   0  0  0  0  0  0  0  0  0  0  0  0
   -1.0664   -0.9154    0.0514 C   0  0  0  0  0  0  0  0  0  0  0  0
   -1.5730    0.4231    0.1113 C   0  0  0  0  0  0  0  0  0  0  0  0
   -0.5869    1.4223    0.0939 C   0  0  0  0  0  0  0  0  0  0  0  0
    0.7983    1.1304    0.0170 C   0  0  0  0  0  0  0  0  0  0  0  0
   -3.1151    0.8310    0.0450 C   0  0  0  0  0  0  0  0  0  0  0  0
   -3.7649    1.4466    1.2700 N   0  0  0  0  0  0  0  0  0  0  0  0
   -4.3667    2.7002    1.6850 C   0  0  0  0  0  0  0  0  0  0  0  0
   -5.1671    3.8673    1.3038 C   0  0  0  0  0  0  0  0  0  0  0  0
   -5.2069    5.0511    2.1578 C   0  0  0  0  0  0  0  0  0  0  0  0
   -4.4371    5.1312    3.2902 C   0  0  0  0  0  0  0  0  0  0  0  0
   -3.8205    3.9721    3.6688 C   0  0  0  0  0  0  0  0  0  0  0  0
   -3.9462    2.7376    3.0232 C   0  0  0  0  0  0  0  0  0  0  0  0
   -3.7083    1.4141    3.3973 C   0  0  0  0  0  0  0  0  0  0  0  0
   -3.6609    0.6061    2.3507 N   0  0  0  0  0  0  0  0  0  0  0  0
   -3.4662    0.8539    4.6048 O   0  0  0  0  0  0  0  0  0  0  0  0
   -4.0505    1.5224    5.7206 C   0  0  0  0  0  0  0  0  0  0  0  0
   -3.3693    2.7715    6.2544 C   0  0  0  0  0  0  0  0  0  0  0  0
   -3.9465    3.7870    6.6838 O   0  0  0  0  0  0  0  0  0  0  0  0
   -2.0318    2.7732    6.1013 O   0  0  0  0  0  0  0  0  0  0  0  0
    2.3369   -0.3894    0.0035 H   0  0  0  0  0  0  0  0  0  0  0  0
    0.7019   -2.2374    0.0058 H   0  0  0  0  0  0  0  0  0  0  0  0
   -1.7264   -1.7822    0.0222 H   0  0  0  0  0  0  0  0  0  0  0  0
   -0.8846    2.4636    0.1291 H   0  0  0  0  0  0  0  0  0  0  0  0
    1.5206    1.9423   -0.0436 H   0  0  0  0  0  0  0  0  0  0  0  0
   -3.2990    1.4529   -0.8364 H   0  0  0  0  0  0  0  0  0  0  0  0
   -3.6596   -0.1161   -0.0972 H   0  0  0  0  0  0  0  0  0  0  0  0
   -5.8382    3.9056    0.4453 H   0  0  0  0  0  0  0  0  0  0  0  0
   -5.7830    5.9538    1.9267 H   0  0  0  0  0  0  0  0  0  0  0  0
   -4.2905    6.0169    3.9082 H   0  0  0  0  0  0  0  0  0  0  0  0
   -3.1227    4.0400    4.4716 H   0  0  0  0  0  0  0  0  0  0  0  0
   -5.1157    1.7330    5.5426 H   0  0  0  0  0  0  0  0  0  0  0  0
   -4.0108    0.8219    6.5608 H   0  0  0  0  0  0  0  0  0  0  0  0
   -1.7338    3.7007    6.2163 H   0  0  0  0  0  0  0  0  0  0  0  0
  1  2  2  0  0  0  0
  1  6  1  0  0  0  0
  1 22  1  0  0  0  0
  2  3  1  0  0  0  0
  2 23  1  0  0  0  0
  3  4  2  0  0  0  0
  3 24  1  0  0  0  0
  4  5  1  0  0  0  0
  4  7  1  0  0  0  0
  5  6  2  0  0  0  0
  5 25  1  0  0  0  0
  6 26  1  0  0  0  0
  7  8  1  0  0  0  0
  7 27  1  0  0  0  0
  7 28  1  0  0  0  0
  8  9  1  0  0  0  0
  8 16  1  0  0  0  0
  9 10  2  0  0  0  0
  9 14  1  0  0  0  0
 10 11  1  0  0  0  0
 10 29  1  0  0  0  0
 11 12  2  0  0  0  0
 11 30  1  0  0  0  0
 12 13  1  0  0  0  0
 12 31  1  0  0  0  0
 13 14  2  0  0  0  0
 13 32  1  0  0  0  0
 14 15  1  0  0  0  0
 15 16  2  0  0  0  0
 15 17  1  0  0  0  0
 17 18  1  0  0  0  0
 18 19  1  0  0  0  0
 18 33  1  0  0  0  0
 18 34  1  0  0  0  0
 19 20  2  0  0  0  0
 19 21  1  0  0  0  0
 21 35  1  0  0  0  0
M  END
>  <DRUGBANK_ID>
DB13501

>  <COMMON_NAME>
Bendazac

>  <CAS_NUMBER>
20187-55-7

>  <UNII>
G4AG71204O

>  <SYNONYMS>
Bendazac; bendazaco

$$$$
