817
 OpenBabel10282417163D

 29 29  0  0  0  0  0  0  0  0999 V2000
    1.2824    0.1408    0.0823 N   0  0  0  0  0  0  0  0  0  0  0  0
   -1.6960   -0.0588   -0.2033 C   0  0  0  0  0  0  0  0  0  0  0  0
    1.0016    2.3836    0.1542 N   0  0  0  0  0  0  0  0  0  0  0  0
   -0.8844    1.0334    0.0319 N   0  0  0  0  0  0  0  0  0  0  0  0
   -2.9481   -2.9244    1.3032 C   0  0  0  0  0  0  0  0  0  0  0  0
   -3.9857   -1.7712    3.2022 C   0  0  0  0  0  0  0  0  0  0  0  0
   -4.3614   -2.9780    3.7469 C   0  0  0  0  0  0  0  0  0  0  0  0
   -4.3695   -5.4723    3.7668 C   0  0  0  0  0  0  0  0  0  0  0  0
   -3.3346   -4.1448    1.8691 C   0  0  0  0  0  0  0  0  0  0  0  0
    0.4817    1.1386    0.0965 C   0  0  0  0  0  0  0  0  0  0  0  0
   -2.9764    0.0213   -0.3856 N   0  0  0  0  0  0  0  0  0  0  0  0
   -0.9449   -1.6519   -0.2531 S   0  0  0  0  0  0  0  0  0  0  0  0
   -2.2014   -2.8962   -0.0109 C   0  0  0  0  0  0  0  0  0  0  0  0
   -3.3135   -1.7630    1.9925 C   0  0  0  0  0  0  0  0  0  0  0  0
   -4.0260   -4.1751    3.0955 C   0  0  0  0  0  0  0  0  0  0  0  0
   -3.7956   -5.5699    4.9985 F   0  0  0  0  0  0  0  0  0  0  0  0
   -5.7083   -5.6172    3.9640 F   0  0  0  0  0  0  0  0  0  0  0  0
   -3.9656   -6.5724    3.0760 F   0  0  0  0  0  0  0  0  0  0  0  0
    2.2626    0.4023    0.1050 H   0  0  0  0  0  0  0  0  0  0  0  0
    0.4824    3.2429    0.0934 H   0  0  0  0  0  0  0  0  0  0  0  0
    2.0095    2.4684    0.1058 H   0  0  0  0  0  0  0  0  0  0  0  0
   -1.3760    1.9097    0.0606 H   0  0  0  0  0  0  0  0  0  0  0  0
   -4.1836   -0.8267    3.6987 H   0  0  0  0  0  0  0  0  0  0  0  0
   -4.8997   -2.9835    4.6905 H   0  0  0  0  0  0  0  0  0  0  0  0
   -3.0788   -5.0826    1.3735 H   0  0  0  0  0  0  0  0  0  0  0  0
   -3.3304    0.9653   -0.2384 H   0  0  0  0  0  0  0  0  0  0  0  0
   -2.8793   -2.9136   -0.8675 H   0  0  0  0  0  0  0  0  0  0  0  0
   -1.6230   -3.8319   -0.0624 H   0  0  0  0  0  0  0  0  0  0  0  0
   -3.0754   -0.7834    1.6267 H   0  0  0  0  0  0  0  0  0  0  0  0
  1 10  2  0  0  0  0
  1 19  1  0  0  0  0
  2  4  1  0  0  0  0
  2 11  2  0  0  0  0
  2 12  1  0  0  0  0
  3 10  1  0  0  0  0
  3 20  1  0  0  0  0
  3 21  1  0  0  0  0
  4 10  1  0  0  0  0
  4 22  1  0  0  0  0
  5  9  1  0  0  0  0
  5 13  1  0  0  0  0
  5 14  2  0  0  0  0
  6  7  2  0  0  0  0
  6 14  1  0  0  0  0
  6 23  1  0  0  0  0
  7 15  1  0  0  0  0
  7 24  1  0  0  0  0
  8 15  1  0  0  0  0
  8 16  1  0  0  0  0
  8 17  1  0  0  0  0
  8 18  1  0  0  0  0
  9 15  2  0  0  0  0
  9 25  1  0  0  0  0
 11 26  1  0  0  0  0
 12 13  1  0  0  0  0
 13 27  1  0  0  0  0
 13 28  1  0  0  0  0
 14 29  1  0  0  0  0
M  END
>  <DRUGBANK_ID>
DB07262

>  <COMMON_NAME>
1-{[N-(1-Imino-guanidino-methyl)]sulfanylmethyl}-3-trifluoromethyl-benzene

$$$$
