
 OpenBabel10282417243D

126129  0  0  1  0  0  0  0  0999 V2000
    1.4783   -0.3551   -3.9556 H   0  0  0  0  0  0  0  0  0  0  0  0
    2.0438   -0.9842   -3.2667 C   0  0  1  0  0  0  0  0  0  0  0  0
    2.4219   -3.0503   -3.5620 C   0  0  0  0  0  0  0  0  0  0  0  0
    3.6409   -3.4476   -2.9035 C   0  0  0  0  0  0  0  0  0  0  0  0
    3.2744   -2.1206   -3.3378 C   0  0  1  0  0  0  0  0  0  0  0  0
    3.6021   -1.7996   -4.4495 H   0  0  0  0  0  0  0  0  0  0  0  0
    4.1404   -1.4660   -2.3753 C   0  0  2  0  0  0  0  0  0  0  0  0
    4.1229   -0.5645   -2.9757 H   0  0  0  0  0  0  0  0  0  0  0  0
    5.5936   -1.9730   -2.4925 C   0  0  1  0  0  0  0  0  0  0  0  0
    6.1352   -1.6169   -3.8529 O   0  0  0  0  0  0  0  0  0  0  0  0
    6.1661   -1.4328   -1.1475 C   0  0  0  0  0  0  0  0  0  0  0  0
    5.5521   -0.1016   -0.3791 C   0  0  0  0  0  0  0  0  0  0  0  0
    6.7309    1.5306    0.3537 C   0  0  0  0  0  0  0  0  0  0  0  0
    6.0224    2.6598    0.5952 C   0  0  2  0  0  0  0  0  0  0  0  0
    4.6729    2.2420    1.7609 C   0  0  0  0  0  0  0  0  0  0  0  0
    3.6848    0.6618    1.5480 C   0  0  0  0  0  0  0  0  0  0  0  0
    4.0245   -0.0370   -0.0705 C   0  0  1  0  0  0  0  0  0  0  0  0
    3.4830    1.2019   -0.4922 C   0  0  0  0  0  0  0  0  0  0  0  0
    3.4044   -1.4374   -0.8919 C   0  0  1  0  0  0  0  0  0  0  0  0
    3.8502   -2.3204   -0.4298 H   0  0  0  0  0  0  0  0  0  0  0  0
    1.6578   -1.8349   -0.8187 C   0  0  0  0  0  0  0  0  0  0  0  0
    0.9315   -2.6323   -1.7559 C   0  0  0  0  0  0  0  0  0  0  0  0
    1.3215   -2.1104   -3.0891 C   0  0  2  0  0  0  0  0  0  0  0  0
    0.4942   -2.2391   -4.4226 C   0  0  0  0  0  0  0  0  0  0  0  0
    6.2434    2.6406   -1.0591 O   0  0  0  0  0  0  0  0  0  0  0  0
    5.9639    2.2774   -2.4638 C   0  0  0  0  0  0  0  0  0  0  0  0
    6.1040    2.7345   -3.5984 O   0  0  0  0  0  0  0  0  0  0  0  0
    5.2611    1.1616   -2.4427 C   0  0  0  0  0  0  0  0  0  0  0  0
    6.5570    0.4468   -2.0884 C   0  0  0  0  0  0  0  0  0  0  0  0
    7.5333   -0.0836   -0.3519 C   0  0  0  0  0  0  0  0  0  0  0  0
    6.4236   -0.1150    1.4468 C   0  0  0  0  0  0  0  0  0  0  0  0
    5.3115   -1.1058    1.7382 C   0  0  0  0  0  0  0  0  0  0  0  0
    5.9996   -2.2358    2.1359 C   0  0  0  0  0  0  0  0  0  0  0  0
    6.5691   -1.4529    3.3181 C   0  0  0  0  0  0  0  0  0  0  0  0
    5.5274   -0.9272    4.3440 C   0  0  0  0  0  0  0  0  0  0  0  0
    5.3770   -1.6425    5.4251 C   0  0  0  0  0  0  0  0  0  0  0  0
    6.3723   -2.7147    5.6069 C   0  0  0  0  0  0  0  0  0  0  0  0
    7.3022   -2.2627    6.6933 C   0  0  0  0  0  0  0  0  0  0  0  0
    6.4760   -2.1318    7.9576 C   0  0  0  0  0  0  0  0  0  0  0  0
    5.7529   -3.4568    8.2251 C   0  0  0  0  0  0  0  0  0  0  0  0
    6.7778   -4.5824    8.3889 C   0  0  0  0  0  0  0  0  0  0  0  0
    7.7052   -4.2737    9.5658 C   0  0  0  0  0  0  0  0  0  0  0  0
    6.9010   -4.1178   10.8550 C   0  0  0  0  0  0  0  0  0  0  0  0
    6.1496   -5.4031   11.1545 C   0  0  0  0  0  0  0  0  0  0  0  0
    1.8248    0.3360   -1.8071 C   0  0  2  0  0  0  0  0  0  0  0  0
    1.4524    0.1164    0.1052 C   0  0  0  0  0  0  0  0  0  0  0  0
    1.5486    2.1233   -1.8297 C   0  0  0  0  0  0  0  0  0  0  0  0
    2.1999    3.3099   -0.5825 C   0  0  0  0  0  0  0  0  0  0  0  0
    3.7772    3.7926   -0.5947 C   0  0  0  0  0  0  0  0  0  0  0  0
    4.5127    4.1130   -1.8863 C   0  0  0  0  0  0  0  0  0  0  0  0
    3.9050    5.4024   -2.0276 C   0  0  0  0  0  0  0  0  0  0  0  0
    6.2915    4.4901   -1.9753 C   0  0  0  0  0  0  0  0  0  0  0  0
    2.8157   -3.8289   -4.3359 H   0  0  0  0  0  0  0  0  0  0  0  0
    1.6222   -3.8829   -3.3977 H   0  0  0  0  0  0  0  0  0  0  0  0
    4.5368   -3.8005   -3.4359 H   0  0  0  0  0  0  0  0  0  0  0  0
    3.5153   -3.7515   -1.8766 H   0  0  0  0  0  0  0  0  0  0  0  0
    5.8877   -3.0095   -2.4578 H   0  0  0  0  0  0  0  0  0  0  0  0
    6.5740   -0.7710   -4.0750 H   0  0  0  0  0  0  0  0  0  0  0  0
    7.2935   -1.4552   -1.5950 H   0  0  0  0  0  0  0  0  0  0  0  0
    7.4950    1.3272    1.3177 H   0  0  0  0  0  0  0  0  0  0  0  0
    7.8302    1.8534    0.0822 H   0  0  0  0  0  0  0  0  0  0  0  0
    6.7669    3.3889    1.0212 H   0  0  0  0  0  0  0  0  0  0  0  0
    4.6100    3.3140    2.0643 H   0  0  0  0  0  0  0  0  0  0  0  0
    3.6957    2.6580    1.4827 H   0  0  0  0  0  0  0  0  0  0  0  0
    2.7765    0.8004    2.1659 H   0  0  0  0  0  0  0  0  0  0  0  0
    3.4289   -0.3005    2.0231 H   0  0  0  0  0  0  0  0  0  0  0  0
    3.4380    1.7146   -1.4340 H   0  0  0  0  0  0  0  0  0  0  0  0
    2.6044    1.5019   -0.0757 H   0  0  0  0  0  0  0  0  0  0  0  0
    4.0473    1.8014    0.0611 H   0  0  0  0  0  0  0  0  0  0  0  0
    0.9332   -1.0614   -1.1482 H   0  0  0  0  0  0  0  0  0  0  0  0
    1.2220   -2.0432    0.1715 H   0  0  0  0  0  0  0  0  0  0  0  0
   -0.1219   -2.3720   -1.5720 H   0  0  0  0  0  0  0  0  0  0  0  0
    1.3501   -3.5518   -1.3880 H   0  0  0  0  0  0  0  0  0  0  0  0
   -0.5092   -1.9257   -4.1946 H   0  0  0  0  0  0  0  0  0  0  0  0
    0.9730   -1.6401   -5.2266 H   0  0  0  0  0  0  0  0  0  0  0  0
    0.5239   -3.2539   -4.8180 H   0  0  0  0  0  0  0  0  0  0  0  0
    4.8918    1.4121   -1.5455 H   0  0  0  0  0  0  0  0  0  0  0  0
    4.4132    1.1523   -3.1883 H   0  0  0  0  0  0  0  0  0  0  0  0
    5.6435   -0.1198   -2.2158 H   0  0  0  0  0  0  0  0  0  0  0  0
    7.1041    0.2872   -2.9737 H   0  0  0  0  0  0  0  0  0  0  0  0
    8.0128   -0.9940   -0.0632 H   0  0  0  0  0  0  0  0  0  0  0  0
    8.1186    0.6967   -0.8720 H   0  0  0  0  0  0  0  0  0  0  0  0
    6.4497    0.6995    2.3217 H   0  0  0  0  0  0  0  0  0  0  0  0
    5.5854    0.5987    1.3211 H   0  0  0  0  0  0  0  0  0  0  0  0
    4.8030   -0.6326    2.5570 H   0  0  0  0  0  0  0  0  0  0  0  0
    4.5352   -1.5011    1.1117 H   0  0  0  0  0  0  0  0  0  0  0  0
    5.1878   -2.9601    2.2310 H   0  0  0  0  0  0  0  0  0  0  0  0
    6.5526   -2.3767    1.1988 H   0  0  0  0  0  0  0  0  0  0  0  0
    7.3919   -2.0857    3.4969 H   0  0  0  0  0  0  0  0  0  0  0  0
    7.1842   -0.5610    3.1642 H   0  0  0  0  0  0  0  0  0  0  0  0
    4.8040   -0.0883    4.2360 H   0  0  0  0  0  0  0  0  0  0  0  0
    4.6265   -1.3368    6.1423 H   0  0  0  0  0  0  0  0  0  0  0  0
    5.8445   -3.6520    5.6994 H   0  0  0  0  0  0  0  0  0  0  0  0
    7.0243   -2.9696    4.7906 H   0  0  0  0  0  0  0  0  0  0  0  0
    8.1004   -3.0040    6.7700 H   0  0  0  0  0  0  0  0  0  0  0  0
    7.8100   -1.3188    6.4490 H   0  0  0  0  0  0  0  0  0  0  0  0
    7.1238   -1.8275    8.7759 H   0  0  0  0  0  0  0  0  0  0  0  0
    5.7440   -1.3229    7.8756 H   0  0  0  0  0  0  0  0  0  0  0  0
    5.1066   -3.3453    9.0947 H   0  0  0  0  0  0  0  0  0  0  0  0
    5.0450   -3.7221    7.4329 H   0  0  0  0  0  0  0  0  0  0  0  0
    6.2605   -5.5347    8.5194 H   0  0  0  0  0  0  0  0  0  0  0  0
    7.3699   -4.7367    7.4808 H   0  0  0  0  0  0  0  0  0  0  0  0
    8.4483   -5.0681    9.6691 H   0  0  0  0  0  0  0  0  0  0  0  0
    8.2829   -3.3600    9.3817 H   0  0  0  0  0  0  0  0  0  0  0  0
    7.5692   -3.8613   11.6796 H   0  0  0  0  0  0  0  0  0  0  0  0
    6.1910   -3.2853   10.7836 H   0  0  0  0  0  0  0  0  0  0  0  0
    6.8603   -6.2279   11.2583 H   0  0  0  0  0  0  0  0  0  0  0  0
    5.5637   -5.3037   12.0670 H   0  0  0  0  0  0  0  0  0  0  0  0
    5.4452   -5.6642   10.3580 H   0  0  0  0  0  0  0  0  0  0  0  0
    2.8740    0.3544   -2.0419 H   0  0  0  0  0  0  0  0  0  0  0  0
    1.5929    0.8513    0.8985 H   0  0  0  0  0  0  0  0  0  0  0  0
    0.3988    0.1524    0.2316 H   0  0  0  0  0  0  0  0  0  0  0  0
    2.0626   -0.6740    0.6725 H   0  0  0  0  0  0  0  0  0  0  0  0
    1.9332    2.5195   -2.7651 H   0  0  0  0  0  0  0  0  0  0  0  0
    0.4837    2.1263   -1.6303 H   0  0  0  0  0  0  0  0  0  0  0  0
    1.6480    4.2379   -0.5803 H   0  0  0  0  0  0  0  0  0  0  0  0
    1.9412    2.9577    0.4556 H   0  0  0  0  0  0  0  0  0  0  0  0
    3.9591    4.3929    0.2960 H   0  0  0  0  0  0  0  0  0  0  0  0
    4.5011    3.1039   -0.3975 H   0  0  0  0  0  0  0  0  0  0  0  0
    4.0977    3.4087   -2.6361 H   0  0  0  0  0  0  0  0  0  0  0  0
    4.2827    5.9071   -1.1305 H   0  0  0  0  0  0  0  0  0  0  0  0
    4.2918    5.6900   -2.9800 H   0  0  0  0  0  0  0  0  0  0  0  0
    2.8303    5.2213   -2.0099 H   0  0  0  0  0  0  0  0  0  0  0  0
    7.2062    3.7260   -2.0692 H   0  0  0  0  0  0  0  0  0  0  0  0
    6.5558    4.7916   -2.9783 H   0  0  0  0  0  0  0  0  0  0  0  0
    6.6001    4.8244   -0.9925 H   0  0  0  0  0  0  0  0  0  0  0  0
  2  1  1  6  0  0  0
  2  3  1  0  0  0  0
  3  4  1  0  0  0  0
  3 53  1  0  0  0  0
  3 54  1  0  0  0  0
  4 55  1  0  0  0  0
  4 56  1  0  0  0  0
  5  4  1  0  0  0  0
  5  6  1  1  0  0  0
  5 23  1  0  0  0  0
  7  5  1  0  0  0  0
  7  8  1  6  0  0  0
  7  9  1  0  0  0  0
  7 19  1  0  0  0  0
  9 11  1  0  0  0  0
  9 57  1  1  0  0  0
  9 10  1  0  0  0  0
 10 58  1  0  0  0  0
 11 12  2  0  0  0  0
 11 59  1  0  0  0  0
 12 13  1  0  0  0  0
 13 60  1  0  0  0  0
 13 61  1  0  0  0  0
 14 13  1  0  0  0  0
 14 15  1  0  0  0  0
 14 62  1  1  0  0  0
 14 25  1  0  0  0  0
 15 16  1  0  0  0  0
 15 63  1  0  0  0  0
 15 64  1  0  0  0  0
 16 65  1  0  0  0  0
 16 66  1  0  0  0  0
 17 16  1  0  0  0  0
 17 12  1  0  0  0  0
 17 18  1  6  0  0  0
 18 67  1  0  0  0  0
 18 68  1  0  0  0  0
 18 69  1  0  0  0  0
 19 17  1  0  0  0  0
 19 20  1  1  0  0  0
 19 21  1  0  0  0  0
 21 22  1  0  0  0  0
 21 70  1  0  0  0  0
 21 71  1  0  0  0  0
 22 72  1  0  0  0  0
 22 73  1  0  0  0  0
 23 22  1  0  0  0  0
 23  2  1  0  0  0  0
 23 24  1  1  0  0  0
 24 74  1  0  0  0  0
 24 75  1  0  0  0  0
 24 76  1  0  0  0  0
 25 26  1  0  0  0  0
 26 27  2  0  0  0  0
 26 28  1  0  0  0  0
 28 29  1  0  0  0  0
 28 77  1  0  0  0  0
 28 78  1  0  0  0  0
 29 30  1  0  0  0  0
 29 79  1  0  0  0  0
 29 80  1  0  0  0  0
 30 31  1  0  0  0  0
 30 81  1  0  0  0  0
 30 82  1  0  0  0  0
 31 32  1  0  0  0  0
 31 83  1  0  0  0  0
 31 84  1  0  0  0  0
 32 33  1  0  0  0  0
 32 85  1  0  0  0  0
 32 86  1  0  0  0  0
 33 34  1  0  0  0  0
 33 87  1  0  0  0  0
 33 88  1  0  0  0  0
 34 35  1  0  0  0  0
 34 89  1  0  0  0  0
 34 90  1  0  0  0  0
 35 36  2  0  0  0  0
 35 91  1  0  0  0  0
 36 37  1  0  0  0  0
 36 92  1  0  0  0  0
 37 38  1  0  0  0  0
 37 93  1  0  0  0  0
 37 94  1  0  0  0  0
 38 39  1  0  0  0  0
 38 95  1  0  0  0  0
 38 96  1  0  0  0  0
 39 40  1  0  0  0  0
 39 97  1  0  0  0  0
 39 98  1  0  0  0  0
 40 41  1  0  0  0  0
 40 99  1  0  0  0  0
 40100  1  0  0  0  0
 41 42  1  0  0  0  0
 41101  1  0  0  0  0
 41102  1  0  0  0  0
 42 43  1  0  0  0  0
 42103  1  0  0  0  0
 42104  1  0  0  0  0
 43 44  1  0  0  0  0
 43105  1  0  0  0  0
 43106  1  0  0  0  0
 44107  1  0  0  0  0
 44108  1  0  0  0  0
 44109  1  0  0  0  0
 45 47  1  0  0  0  0
 45110  1  1  0  0  0
 45 46  1  0  0  0  0
 45  2  1  0  0  0  0
 46111  1  0  0  0  0
 46112  1  0  0  0  0
 46113  1  0  0  0  0
 47 48  1  0  0  0  0
 47114  1  0  0  0  0
 47115  1  0  0  0  0
 48 49  1  0  0  0  0
 48116  1  0  0  0  0
 48117  1  0  0  0  0
 49 50  1  0  0  0  0
 49118  1  0  0  0  0
 49119  1  0  0  0  0
 50 51  1  0  0  0  0
 50 52  1  0  0  0  0
 50120  1  0  0  0  0
 51121  1  0  0  0  0
 51122  1  0  0  0  0
 51123  1  0  0  0  0
 52124  1  0  0  0  0
 52125  1  0  0  0  0
 52126  1  0  0  0  0
M  END
>  <DRUGBANK_ID>
DB18113

>  <COMMON_NAME>
7.beta.-hydroxycholesteryl-3-oleate

>  <CAS_NUMBER>
141099-60-7

>  <UNII>
A59FMD985O

>  <SYNONYMS>
7.beta.-hydroxycholesterol 3-oleate; 7.beta.-hydroxycholesteryl 3-oleate; Cholest-5-ene-3,7-diol, 3-(9z)-9-octadecenoate, (3.beta.,7.beta.)-

$$$$
