
 OpenBabel10282417173D

 18 18  0  0  0  0  0  0  0  0999 V2000
    1.1491    0.1352    0.0637 O   0  0  0  0  0  0  0  0  0  0  0  0
    3.1111    0.4548    1.1429 N   0  0  0  0  0  0  0  0  0  0  0  0
    4.7821   -1.9114   -2.0631 N   0  0  0  0  0  0  0  0  0  0  0  0
    4.5491    0.5765    1.2739 C   0  0  0  0  0  0  0  0  0  0  0  0
    2.3763    0.0510    0.0540 C   0  0  0  0  0  0  0  0  0  0  0  0
    3.0613   -0.4760   -1.1410 C   0  0  0  0  0  0  0  0  0  0  0  0
    4.0638   -1.4289   -1.0228 C   0  0  0  0  0  0  0  0  0  0  0  0
    4.4373   -1.4613   -3.2878 C   0  0  0  0  0  0  0  0  0  0  0  0
    2.7084   -0.0516   -2.4215 C   0  0  0  0  0  0  0  0  0  0  0  0
    3.4102   -0.5559   -3.5168 C   0  0  0  0  0  0  0  0  0  0  0  0
    2.5409    0.7919    1.9120 H   0  0  0  0  0  0  0  0  0  0  0  0
    4.7970    1.6118    1.5131 H   0  0  0  0  0  0  0  0  0  0  0  0
    4.8683   -0.0816    2.0856 H   0  0  0  0  0  0  0  0  0  0  0  0
    5.0785    0.3142    0.3602 H   0  0  0  0  0  0  0  0  0  0  0  0
    4.3483   -1.8280   -0.0537 H   0  0  0  0  0  0  0  0  0  0  0  0
    5.0213   -1.8698   -4.1077 H   0  0  0  0  0  0  0  0  0  0  0  0
    1.9039    0.6650   -2.5673 H   0  0  0  0  0  0  0  0  0  0  0  0
    3.1644   -0.2533   -4.5289 H   0  0  0  0  0  0  0  0  0  0  0  0
  1  5  2  0  0  0  0
  2  4  1  0  0  0  0
  2  5  1  0  0  0  0
  2 11  1  0  0  0  0
  3  7  1  0  0  0  0
  3  8  2  0  0  0  0
  4 12  1  0  0  0  0
  4 13  1  0  0  0  0
  4 14  1  0  0  0  0
  5  6  1  0  0  0  0
  6  7  2  0  0  0  0
  6  9  1  0  0  0  0
  7 15  1  0  0  0  0
  8 10  1  0  0  0  0
  8 16  1  0  0  0  0
  9 10  2  0  0  0  0
  9 17  1  0  0  0  0
 10 18  1  0  0  0  0
M  END
>  <DRUGBANK_ID>
DB08840

>  <COMMON_NAME>
N-methylnicotinamide

>  <CAS_NUMBER>
114-33-0

>  <UNII>
X3I82S5L8I

>  <SYNONYMS>
3-(Methylcarbamoyl)pyridine; 3-(N-Methylcarbamoyl)pyridine; N-Methyl nicotineamide; N-Methyl-3-pyridinecarboxamide; N-methylpyridine-3-carboxamide; Nicotinic acid methylamide; Nicotinyl methylamide

$$$$
