BI3
 OpenBabel10282417163D

 49 53  0  0  0  0  0  0  0  0999 V2000
    1.0498    0.0044   -0.0535 N   0  0  0  0  0  0  0  0  0  0  0  0
    0.5563   -0.8851   -1.1035 C   0  0  0  0  0  0  0  0  0  0  0  0
    0.6142   -2.3411   -0.6939 C   0  0  0  0  0  0  0  0  0  0  0  0
   -0.5606   -2.5889    0.3391 C   0  0  0  0  0  0  0  0  0  0  0  0
   -2.0133   -2.1062   -0.0758 N   0  0  0  0  0  0  0  0  0  0  0  0
   -2.4993   -0.6388    0.0941 C   0  0  0  0  0  0  0  0  0  0  0  0
   -3.3827   -2.6676   -0.2183 C   0  0  0  0  0  0  0  0  0  0  0  0
   -4.5258   -3.7908   -0.4002 C   0  0  0  0  0  0  0  0  0  0  0  0
   -5.2184   -4.2903    0.7569 C   0  0  0  0  0  0  0  0  0  0  0  0
   -5.2216   -3.3190    1.6768 C   0  0  0  0  0  0  0  0  0  0  0  0
   -3.9225   -2.9935    1.9540 C   0  0  0  0  0  0  0  0  0  0  0  0
   -3.5545   -2.0125    1.0426 C   0  0  0  0  0  0  0  0  0  0  0  0
   -3.8521   -0.7866    0.4438 C   0  0  0  0  0  0  0  0  0  0  0  0
   -5.1816   -0.1491    0.3976 C   0  0  0  0  0  0  0  0  0  0  0  0
   -6.2521   -0.4834    1.4137 C   0  0  0  0  0  0  0  0  0  0  0  0
   -6.0767   -0.7819    2.6186 O   0  0  0  0  0  0  0  0  0  0  0  0
   -7.4406   -0.5894    0.8270 N   0  0  0  0  0  0  0  0  0  0  0  0
   -7.3938    0.0569   -0.3529 C   0  0  0  0  0  0  0  0  0  0  0  0
   -8.3605    0.3109   -1.0279 O   0  0  0  0  0  0  0  0  0  0  0  0
   -5.9252    0.3385   -0.6334 C   0  0  0  0  0  0  0  0  0  0  0  0
   -5.5879    0.9025   -1.8970 C   0  0  0  0  0  0  0  0  0  0  0  0
   -4.8274    0.3941   -2.9884 C   0  0  0  0  0  0  0  0  0  0  0  0
   -4.1680   -0.8187   -3.2569 C   0  0  0  0  0  0  0  0  0  0  0  0
   -3.5088   -1.0081   -4.4747 C   0  0  0  0  0  0  0  0  0  0  0  0
   -3.4909   -0.0004   -5.4325 C   0  0  0  0  0  0  0  0  0  0  0  0
   -4.1219    1.2251   -5.1967 C   0  0  0  0  0  0  0  0  0  0  0  0
   -4.7933    1.3883   -3.9750 C   0  0  0  0  0  0  0  0  0  0  0  0
   -5.5185    2.4559   -3.4966 N   0  0  0  0  0  0  0  0  0  0  0  0
   -6.0468    2.1513   -2.2717 C   0  0  0  0  0  0  0  0  0  0  0  0
    0.6750   -0.2370    0.8650 H   0  0  0  0  0  0  0  0  0  0  0  0
    2.0612   -0.0811    0.0360 H   0  0  0  0  0  0  0  0  0  0  0  0
   -0.4834   -0.6783   -1.3177 H   0  0  0  0  0  0  0  0  0  0  0  0
    1.0650   -0.6825   -2.0455 H   0  0  0  0  0  0  0  0  0  0  0  0
    0.4976   -3.0185   -1.5472 H   0  0  0  0  0  0  0  0  0  0  0  0
    1.6539   -2.5441   -0.3422 H   0  0  0  0  0  0  0  0  0  0  0  0
   -0.5297   -3.6456    0.6598 H   0  0  0  0  0  0  0  0  0  0  0  0
   -0.2602   -2.0336    1.2558 H   0  0  0  0  0  0  0  0  0  0  0  0
   -1.8168    0.1889   -0.0912 H   0  0  0  0  0  0  0  0  0  0  0  0
   -5.5096   -3.2526   -0.8152 H   0  0  0  0  0  0  0  0  0  0  0  0
   -5.1725   -5.2997    1.1533 H   0  0  0  0  0  0  0  0  0  0  0  0
   -5.7648   -2.4902    1.2254 H   0  0  0  0  0  0  0  0  0  0  0  0
   -3.2128   -3.8546    1.8871 H   0  0  0  0  0  0  0  0  0  0  0  0
   -8.2821   -0.9534    1.2526 H   0  0  0  0  0  0  0  0  0  0  0  0
   -4.1843   -1.6176   -2.5295 H   0  0  0  0  0  0  0  0  0  0  0  0
   -3.0176   -1.9574   -4.6696 H   0  0  0  0  0  0  0  0  0  0  0  0
   -2.9873   -0.1748   -6.3806 H   0  0  0  0  0  0  0  0  0  0  0  0
   -4.1003    2.0086   -5.9485 H   0  0  0  0  0  0  0  0  0  0  0  0
   -5.6580    3.3283   -3.9886 H   0  0  0  0  0  0  0  0  0  0  0  0
   -6.6936    2.8539   -1.7606 H   0  0  0  0  0  0  0  0  0  0  0  0
  1  2  1  0  0  0  0
  1 30  1  0  0  0  0
  1 31  1  0  0  0  0
  2  3  1  0  0  0  0
  2 32  1  0  0  0  0
  2 33  1  0  0  0  0
  3  4  1  0  0  0  0
  3 34  1  0  0  0  0
  3 35  1  0  0  0  0
  4  5  1  0  0  0  0
  4 36  1  0  0  0  0
  4 37  1  0  0  0  0
  5  6  1  0  0  0  0
  5  7  1  0  0  0  0
  6 13  2  0  0  0  0
  6 38  1  0  0  0  0
  7  8  1  0  0  0  0
  7 12  2  0  0  0  0
  8  9  2  0  0  0  0
  8 39  1  0  0  0  0
  9 10  1  0  0  0  0
  9 40  1  0  0  0  0
 10 11  2  0  0  0  0
 10 41  1  0  0  0  0
 11 12  1  0  0  0  0
 11 42  1  0  0  0  0
 12 13  1  0  0  0  0
 13 14  1  0  0  0  0
 14 15  1  0  0  0  0
 14 20  2  0  0  0  0
 15 16  2  0  0  0  0
 15 17  1  0  0  0  0
 17 18  1  0  0  0  0
 17 43  1  0  0  0  0
 18 19  2  0  0  0  0
 18 20  1  0  0  0  0
 20 21  1  0  0  0  0
 21 22  1  0  0  0  0
 21 29  2  0  0  0  0
 22 23  1  0  0  0  0
 22 27  2  0  0  0  0
 23 24  2  0  0  0  0
 23 44  1  0  0  0  0
 24 25  1  0  0  0  0
 24 45  1  0  0  0  0
 25 26  2  0  0  0  0
 25 46  1  0  0  0  0
 26 27  1  0  0  0  0
 26 47  1  0  0  0  0
 27 28  1  0  0  0  0
 28 29  1  0  0  0  0
 28 48  1  0  0  0  0
 29 49  1  0  0  0  0
M  END
>  <DRUGBANK_ID>
DB07457

>  <COMMON_NAME>
3-[1-(3-AMINOPROPYL)-1H-INDOL-3-YL]-4-(1H-INDOL-3-YL)-1H-PYRROLE-2,5-DIONE

$$$$
