ZZ2
 OpenBabel10282417173D

 26 26  0  0  0  0  0  0  0  0999 V2000
    2.1992   -1.1071   -0.1687 N   0  0  0  0  0  0  0  0  0  0  0  0
    1.0988   -0.3639    0.1732 C   0  0  0  0  0  0  0  0  0  0  0  0
    1.2339    0.9547    0.3851 N   0  0  0  0  0  0  0  0  0  0  0  0
    0.1112    1.6619    0.6258 C   0  0  0  0  0  0  0  0  0  0  0  0
   -1.1247    1.0567    0.7778 C   0  0  0  0  0  0  0  0  0  0  0  0
   -1.1738   -0.2942    0.4692 C   0  0  0  0  0  0  0  0  0  0  0  0
   -2.4947   -0.9633    0.1963 C   0  0  0  0  0  0  0  0  0  0  0  0
   -0.0743   -1.0127    0.1958 N   0  0  0  0  0  0  0  0  0  0  0  0
    0.2508    3.0062    0.3324 O   0  0  0  0  0  0  0  0  0  0  0  0
   -0.9047    3.8200    0.0501 C   0  0  0  0  0  0  0  0  0  0  0  0
   -1.6369    3.6866   -1.3195 C   0  0  0  0  0  0  0  0  0  0  0  0
   -2.1344    2.3895   -1.6470 O   0  0  0  0  0  0  0  0  0  0  0  0
   -1.1066    1.5484   -2.1593 C   0  0  0  0  0  0  0  0  0  0  0  0
    2.0542   -2.0860    0.0428 H   0  0  0  0  0  0  0  0  0  0  0  0
    3.0645   -0.6759    0.1247 H   0  0  0  0  0  0  0  0  0  0  0  0
   -2.0368    1.6225    0.8591 H   0  0  0  0  0  0  0  0  0  0  0  0
   -2.4539   -1.5055   -0.7581 H   0  0  0  0  0  0  0  0  0  0  0  0
   -2.7304   -1.6717    0.9916 H   0  0  0  0  0  0  0  0  0  0  0  0
   -3.3096   -0.2366    0.1071 H   0  0  0  0  0  0  0  0  0  0  0  0
   -1.6051    3.7617    0.8883 H   0  0  0  0  0  0  0  0  0  0  0  0
   -0.5296    4.8527    0.0585 H   0  0  0  0  0  0  0  0  0  0  0  0
   -2.5179    4.3443   -1.2816 H   0  0  0  0  0  0  0  0  0  0  0  0
   -1.0224    4.0474   -2.1511 H   0  0  0  0  0  0  0  0  0  0  0  0
   -0.7947    1.8024   -3.1676 H   0  0  0  0  0  0  0  0  0  0  0  0
   -0.2060    1.6665   -1.5818 H   0  0  0  0  0  0  0  0  0  0  0  0
   -1.4355    0.5094   -2.0948 H   0  0  0  0  0  0  0  0  0  0  0  0
  1  2  1  0  0  0  0
  1 14  1  0  0  0  0
  1 15  1  0  0  0  0
  2  3  1  0  0  0  0
  2  8  2  0  0  0  0
  3  4  2  0  0  0  0
  4  5  1  0  0  0  0
  4  9  1  0  0  0  0
  5  6  2  0  0  0  0
  5 16  1  0  0  0  0
  6  7  1  0  0  0  0
  6  8  1  0  0  0  0
  7 17  1  0  0  0  0
  7 18  1  0  0  0  0
  7 19  1  0  0  0  0
  9 10  1  0  0  0  0
 10 11  1  0  0  0  0
 10 20  1  0  0  0  0
 10 21  1  0  0  0  0
 11 12  1  0  0  0  0
 11 22  1  0  0  0  0
 11 23  1  0  0  0  0
 12 13  1  0  0  0  0
 13 24  1  0  0  0  0
 13 25  1  0  0  0  0
 13 26  1  0  0  0  0
M  END
>  <DRUGBANK_ID>
DB08786

>  <COMMON_NAME>
4-(2-methoxyethoxy)-6-methylpyrimidin-2-amine

$$$$
