
 OpenBabel10282417193D

 29 30  0  0  0  0  0  0  0  0999 V2000
    1.3691   -0.2278    0.0043 C   0  0  0  0  0  0  0  0  0  0  0  0
    0.4809   -1.3140    0.0251 C   0  0  0  0  0  0  0  0  0  0  0  0
   -0.9074   -1.1115    0.0157 C   0  0  0  0  0  0  0  0  0  0  0  0
   -1.3784    0.2016    0.0392 C   0  0  0  0  0  0  0  0  0  0  0  0
   -0.4991    1.2721    0.1041 C   0  0  0  0  0  0  0  0  0  0  0  0
    0.8785    1.0815   -0.0247 C   0  0  0  0  0  0  0  0  0  0  0  0
    1.7749    2.2671   -0.2963 C   0  0  0  0  0  0  0  0  0  0  0  0
    1.4194    2.9067   -1.5640 N   0  0  0  0  0  0  0  0  0  0  0  0
    0.2606    3.5734   -1.8701 C   0  0  0  0  0  0  0  0  0  0  0  0
    0.3427    3.8530   -3.2116 C   0  0  0  0  0  0  0  0  0  0  0  0
    1.5535    3.4597   -3.7105 N   0  0  0  0  0  0  0  0  0  0  0  0
    2.1828    2.9028   -2.6987 C   0  0  0  0  0  0  0  0  0  0  0  0
   -1.8251   -2.2631    0.0369 C   0  0  0  0  0  0  0  0  0  0  0  0
   -3.1645   -2.1562    0.0570 C   0  0  0  0  0  0  0  0  0  0  0  0
   -4.0925   -3.2862    0.1214 C   0  0  0  0  0  0  0  0  0  0  0  0
   -5.3083   -3.1668    0.1398 O   0  0  0  0  0  0  0  0  0  0  0  0
   -3.4917   -4.4812    0.1662 O   0  0  0  0  0  0  0  0  0  0  0  0
    2.4399   -0.4209   -0.0026 H   0  0  0  0  0  0  0  0  0  0  0  0
    0.8911   -2.3220    0.0233 H   0  0  0  0  0  0  0  0  0  0  0  0
   -2.4351    0.4422   -0.0069 H   0  0  0  0  0  0  0  0  0  0  0  0
   -0.9249    2.2649    0.1994 H   0  0  0  0  0  0  0  0  0  0  0  0
    1.7012    3.0172    0.4977 H   0  0  0  0  0  0  0  0  0  0  0  0
    2.8227    1.9511   -0.3721 H   0  0  0  0  0  0  0  0  0  0  0  0
   -0.5370    3.7495   -1.1662 H   0  0  0  0  0  0  0  0  0  0  0  0
   -0.4106    4.3195   -3.8333 H   0  0  0  0  0  0  0  0  0  0  0  0
    3.1747    2.4743   -2.7418 H   0  0  0  0  0  0  0  0  0  0  0  0
   -1.3587   -3.2451    0.0672 H   0  0  0  0  0  0  0  0  0  0  0  0
   -3.6794   -1.2043    0.0380 H   0  0  0  0  0  0  0  0  0  0  0  0
   -4.2303   -5.1226    0.2026 H   0  0  0  0  0  0  0  0  0  0  0  0
  1  2  2  0  0  0  0
  1  6  1  0  0  0  0
  1 18  1  0  0  0  0
  2  3  1  0  0  0  0
  2 19  1  0  0  0  0
  3  4  2  0  0  0  0
  3 13  1  0  0  0  0
  4  5  1  0  0  0  0
  4 20  1  0  0  0  0
  5  6  2  0  0  0  0
  5 21  1  0  0  0  0
  6  7  1  0  0  0  0
  7  8  1  0  0  0  0
  7 22  1  0  0  0  0
  7 23  1  0  0  0  0
  8  9  1  0  0  0  0
  8 12  1  0  0  0  0
  9 10  2  0  0  0  0
  9 24  1  0  0  0  0
 10 11  1  0  0  0  0
 10 25  1  0  0  0  0
 11 12  2  0  0  0  0
 12 26  1  0  0  0  0
 13 14  2  0  0  0  0
 13 27  1  0  0  0  0
 14 15  1  0  0  0  0
 14 28  1  0  0  0  0
 15 16  2  0  0  0  0
 15 17  1  0  0  0  0
 17 29  1  0  0  0  0
M  END
>  <DRUGBANK_ID>
DB12017

>  <COMMON_NAME>
Ozagrel

>  <CAS_NUMBER>
82571-53-7

>  <UNII>
L256JB984D

>  <SYNONYMS>
Ozagrel

$$$$
