
 OpenBabel10282417203D

 56 58  0  0  0  0  0  0  0  0999 V2000
    0.9199   -0.2868    0.3218 C   0  0  0  0  0  0  0  0  0  0  0  0
    0.4803   -1.3535   -0.5169 O   0  0  0  0  0  0  0  0  0  0  0  0
    0.9116   -1.2910   -1.8954 C   0  0  3  0  0  0  0  0  0  0  0  0
    0.0456   -0.2505   -2.6969 C   0  0  0  0  0  0  0  0  0  0  0  0
    0.3812    1.0721   -2.3045 N   0  0  0  0  0  0  0  0  0  0  0  0
   -0.4620    2.0798   -1.6803 C   0  0  0  0  0  0  0  0  0  0  0  0
   -0.9150    3.1165   -2.7202 C   0  0  0  0  0  0  0  0  0  0  0  0
    0.1392    3.6975   -3.5959 N   0  0  0  0  0  0  0  0  0  0  0  0
    0.8570    2.6132   -4.2730 C   0  0  0  0  0  0  0  0  0  0  0  0
    1.2971    1.6226   -3.2412 C   0  0  0  0  0  0  0  0  0  0  0  0
    1.0614    4.6509   -2.9293 C   0  0  0  0  0  0  0  0  0  0  0  0
    2.0744    4.2999   -1.7691 C   0  0  0  0  0  0  0  0  0  0  0  0
    3.3260    3.4126   -2.0686 C   0  0  3  0  0  0  0  0  0  0  0  0
    4.2637    3.8500   -3.1199 C   0  0  0  0  0  0  0  0  0  0  0  0
    4.2480    5.1820   -3.5184 C   0  0  0  0  0  0  0  0  0  0  0  0
    5.0251    5.5854   -4.5499 C   0  0  0  0  0  0  0  0  0  0  0  0
    5.8919    4.6837   -5.1751 C   0  0  0  0  0  0  0  0  0  0  0  0
    5.8640    3.3239   -4.8397 C   0  0  0  0  0  0  0  0  0  0  0  0
    4.9961    2.9013   -3.8767 C   0  0  0  0  0  0  0  0  0  0  0  0
    3.8402    2.8335   -0.8763 O   0  0  0  0  0  0  0  0  0  0  0  0
    2.4584   -1.3043   -1.9729 C   0  0  0  0  0  0  0  0  0  0  0  0
    3.2358   -0.1551   -1.7814 C   0  0  0  0  0  0  0  0  0  0  0  0
    4.6290   -0.1207   -1.7696 C   0  0  0  0  0  0  0  0  0  0  0  0
    5.3164   -1.3072   -1.7886 C   0  0  0  0  0  0  0  0  0  0  0  0
    4.5879   -2.4936   -1.8558 C   0  0  0  0  0  0  0  0  0  0  0  0
    3.1840   -2.4951   -2.0103 C   0  0  0  0  0  0  0  0  0  0  0  0
    0.5477   -0.4602    1.3301 H   0  0  0  0  0  0  0  0  0  0  0  0
    0.5237    0.6800    0.0343 H   0  0  0  0  0  0  0  0  0  0  0  0
    2.0065   -0.2202    0.3842 H   0  0  0  0  0  0  0  0  0  0  0  0
    0.5879   -2.2355   -2.3525 H   0  0  0  0  0  0  0  0  0  0  0  0
    0.2692   -0.3708   -3.7690 H   0  0  0  0  0  0  0  0  0  0  0  0
   -1.0303   -0.3863   -2.5865 H   0  0  0  0  0  0  0  0  0  0  0  0
   -1.2751    1.6649   -1.0813 H   0  0  0  0  0  0  0  0  0  0  0  0
    0.1302    2.6139   -0.9210 H   0  0  0  0  0  0  0  0  0  0  0  0
   -1.6142    2.5718   -3.3650 H   0  0  0  0  0  0  0  0  0  0  0  0
   -1.4759    3.9211   -2.2406 H   0  0  0  0  0  0  0  0  0  0  0  0
    0.2338    2.0821   -4.9979 H   0  0  0  0  0  0  0  0  0  0  0  0
    1.7316    2.9906   -4.8198 H   0  0  0  0  0  0  0  0  0  0  0  0
    1.6746    2.1817   -2.4375 H   0  0  0  0  0  0  0  0  0  0  0  0
    2.0803    0.9713   -3.6380 H   0  0  0  0  0  0  0  0  0  0  0  0
    1.6157    5.1240   -3.7473 H   0  0  0  0  0  0  0  0  0  0  0  0
    0.4274    5.4620   -2.5491 H   0  0  0  0  0  0  0  0  0  0  0  0
    2.4544    5.2487   -1.3655 H   0  0  0  0  0  0  0  0  0  0  0  0
    1.5345    3.9107   -0.9043 H   0  0  0  0  0  0  0  0  0  0  0  0
    3.1466    2.5234   -2.6188 H   0  0  0  0  0  0  0  0  0  0  0  0
    3.5672    5.8856   -3.0461 H   0  0  0  0  0  0  0  0  0  0  0  0
    4.9692    6.6312   -4.8456 H   0  0  0  0  0  0  0  0  0  0  0  0
    6.5758    5.0400   -5.9193 H   0  0  0  0  0  0  0  0  0  0  0  0
    6.5229    2.6105   -5.3318 H   0  0  0  0  0  0  0  0  0  0  0  0
    4.8478    1.8212   -3.7345 H   0  0  0  0  0  0  0  0  0  0  0  0
    4.3758    3.4705   -0.3973 H   0  0  0  0  0  0  0  0  0  0  0  0
    2.7482    0.7664   -1.5160 H   0  0  0  0  0  0  0  0  0  0  0  0
    5.1475    0.8277   -1.6556 H   0  0  0  0  0  0  0  0  0  0  0  0
    6.3966   -1.2952   -1.6848 H   0  0  0  0  0  0  0  0  0  0  0  0
    5.1181   -3.4327   -1.7384 H   0  0  0  0  0  0  0  0  0  0  0  0
    2.6631   -3.4449   -2.0818 H   0  0  0  0  0  0  0  0  0  0  0  0
  1  2  1  0  0  0  0
  1 27  1  0  0  0  0
  1 28  1  0  0  0  0
  1 29  1  0  0  0  0
  2  3  1  0  0  0  0
  3  4  1  0  0  0  0
  3 21  1  0  0  0  0
  3 30  1  0  0  0  0
  4  5  1  0  0  0  0
  4 31  1  0  0  0  0
  4 32  1  0  0  0  0
  5  6  1  0  0  0  0
  5 10  1  0  0  0  0
  6  7  1  0  0  0  0
  6 33  1  0  0  0  0
  6 34  1  0  0  0  0
  7  8  1  0  0  0  0
  7 35  1  0  0  0  0
  7 36  1  0  0  0  0
  8  9  1  0  0  0  0
  8 11  1  0  0  0  0
  9 10  1  0  0  0  0
  9 37  1  0  0  0  0
  9 38  1  0  0  0  0
 10 39  1  0  0  0  0
 10 40  1  0  0  0  0
 11 12  1  0  0  0  0
 11 41  1  0  0  0  0
 11 42  1  0  0  0  0
 12 13  1  0  0  0  0
 12 43  1  0  0  0  0
 12 44  1  0  0  0  0
 13 14  1  0  0  0  0
 13 20  1  0  0  0  0
 13 45  1  0  0  0  0
 14 15  2  0  0  0  0
 14 19  1  0  0  0  0
 15 16  1  0  0  0  0
 15 46  1  0  0  0  0
 16 17  2  0  0  0  0
 16 47  1  0  0  0  0
 17 18  1  0  0  0  0
 17 48  1  0  0  0  0
 18 19  2  0  0  0  0
 18 49  1  0  0  0  0
 19 50  1  0  0  0  0
 20 51  1  0  0  0  0
 21 22  2  0  0  0  0
 21 26  1  0  0  0  0
 22 23  1  0  0  0  0
 22 52  1  0  0  0  0
 23 24  2  0  0  0  0
 23 53  1  0  0  0  0
 24 25  1  0  0  0  0
 24 54  1  0  0  0  0
 25 26  2  0  0  0  0
 25 55  1  0  0  0  0
 26 56  1  0  0  0  0
M  END
>  <DRUGBANK_ID>
DB13395

>  <COMMON_NAME>
Eprozinol

>  <CAS_NUMBER>
32665-36-4

>  <UNII>
IJ21AK8IVJ

>  <SYNONYMS>
Eprozinol

$$$$
