
 OpenBabel10282417193D

 73 74  0  0  0  0  0  0  0  0999 V2000
    0.4257    0.5358    0.1540 C   0  0  0  0  0  0  0  0  0  0  0  0
   -0.8814    0.7046    2.3029 C   0  0  0  0  0  0  0  0  0  0  0  0
    3.3330   -5.1836    3.9461 C   0  0  0  0  0  0  0  0  0  0  0  0
    0.4265   -0.6153    7.9256 C   0  0  0  0  0  0  0  0  0  0  0  0
    2.9283    2.8927    2.7620 C   0  0  0  0  0  0  0  0  0  0  0  0
    1.9690   -0.4392    2.8623 C   0  0  0  0  0  0  0  0  0  0  0  0
    1.6304   -3.5273   -2.7885 C   0  0  0  0  0  0  0  0  0  0  0  0
    2.9247   -3.1164   -3.0816 C   0  0  0  0  0  0  0  0  0  0  0  0
    1.4408   -3.1229    1.9130 C   0  0  0  0  0  0  0  0  0  0  0  0
    1.4603   -3.5471    5.9253 C   0  0  0  0  0  0  0  0  0  0  0  0
    1.1016    1.1543    5.5640 C   0  0  0  0  0  0  0  0  0  0  0  0
    0.1164   -1.8085    2.2067 C   0  0  0  0  0  0  0  0  0  0  0  0
    2.9454   -3.2647    2.4689 C   0  0  0  0  0  0  0  0  0  0  0  0
    1.9595   -3.2032    4.6037 C   0  0  0  0  0  0  0  0  0  0  0  0
    1.9632   -2.4800    6.9094 C   0  0  0  0  0  0  0  0  0  0  0  0
    1.6358   -0.2115    5.8896 C   0  0  0  0  0  0  0  0  0  0  0  0
    2.2307    2.1653    5.1803 C   0  0  0  0  0  0  0  0  0  0  0  0
    1.1518   -3.0373   -1.6472 C   0  0  0  0  0  0  0  0  0  0  0  0
    3.7419   -2.2795   -2.2352 C   0  0  0  0  0  0  0  0  0  0  0  0
    3.9898    0.9058    3.7082 C   0  0  0  0  0  0  0  0  0  0  0  0
    4.5381    0.3818    2.2893 C   0  0  0  0  0  0  0  0  0  0  0  0
   -0.1790   -0.3999    1.6011 C   0  0  0  0  0  0  0  0  0  0  0  0
    2.7905   -3.8359    3.7838 C   0  0  0  0  0  0  0  0  0  0  0  0
    1.3087   -1.0950    6.8394 C   0  0  0  0  0  0  0  0  0  0  0  0
    3.1514    1.9621    3.9263 C   0  0  0  0  0  0  0  0  0  0  0  0
    2.3404   -0.7465    1.4116 C   0  0  0  0  0  0  0  0  0  0  0  0
    3.6104   -0.3783    1.2072 C   0  0  0  0  0  0  0  0  0  0  0  0
    1.9847   -2.1026   -0.9216 C   0  0  0  0  0  0  0  0  0  0  0  0
    3.2797   -1.7342   -1.0766 C   0  0  0  0  0  0  0  0  0  0  0  0
    1.3725   -1.5350    0.1618 C   0  0  0  0  0  0  0  0  0  0  0  0
    4.1000   -0.8992   -0.0959 C   0  0  0  0  0  0  0  0  0  0  0  0
    0.1771   -1.8807    0.0299 O   0  0  0  0  0  0  0  0  0  0  0  0
    5.3165   -0.6944   -0.3632 O   0  0  0  0  0  0  0  0  0  0  0  0
    1.4797   -2.3062    4.2795 H   0  0  0  0  0  0  0  0  0  0  0  0
    2.4167   -0.5624    5.2547 H   0  0  0  0  0  0  0  0  0  0  0  0
    4.1403    0.2047    4.5351 H   0  0  0  0  0  0  0  0  0  0  0  0
    0.1639    1.5875    0.0888 H   0  0  0  0  0  0  0  0  0  0  0  0
    0.0820    0.0835   -0.7920 H   0  0  0  0  0  0  0  0  0  0  0  0
    1.5249    0.6403    0.0250 H   0  0  0  0  0  0  0  0  0  0  0  0
   -1.8367    0.3757    2.6637 H   0  0  0  0  0  0  0  0  0  0  0  0
   -0.2352    1.1125    3.0669 H   0  0  0  0  0  0  0  0  0  0  0  0
   -0.9915    1.5707    1.6406 H   0  0  0  0  0  0  0  0  0  0  0  0
    3.9891   -5.1843    4.8096 H   0  0  0  0  0  0  0  0  0  0  0  0
    2.4702   -5.8439    4.0383 H   0  0  0  0  0  0  0  0  0  0  0  0
    3.8948   -5.5000    3.0589 H   0  0  0  0  0  0  0  0  0  0  0  0
    0.8523    0.3215    8.3097 H   0  0  0  0  0  0  0  0  0  0  0  0
   -0.5744   -0.4150    7.5347 H   0  0  0  0  0  0  0  0  0  0  0  0
    0.3832   -1.3227    8.7496 H   0  0  0  0  0  0  0  0  0  0  0  0
    3.9003    3.2699    2.4315 H   0  0  0  0  0  0  0  0  0  0  0  0
    2.4621    2.3730    1.9167 H   0  0  0  0  0  0  0  0  0  0  0  0
    2.2966    3.7445    3.0120 H   0  0  0  0  0  0  0  0  0  0  0  0
    2.7279   -0.9145    3.4781 H   0  0  0  0  0  0  0  0  0  0  0  0
    1.8255    0.6185    2.9381 H   0  0  0  0  0  0  0  0  0  0  0  0
    1.1042   -0.6681    3.4827 H   0  0  0  0  0  0  0  0  0  0  0  0
    0.9783   -4.1612   -3.3766 H   0  0  0  0  0  0  0  0  0  0  0  0
    3.3323   -3.4615   -4.0137 H   0  0  0  0  0  0  0  0  0  0  0  0
    0.9656   -4.0729    1.6491 H   0  0  0  0  0  0  0  0  0  0  0  0
    1.9646   -3.0807    0.9796 H   0  0  0  0  0  0  0  0  0  0  0  0
    0.3684   -3.5713    5.8501 H   0  0  0  0  0  0  0  0  0  0  0  0
    1.8311   -4.5445    6.1618 H   0  0  0  0  0  0  0  0  0  0  0  0
    0.3618    1.0674    4.7721 H   0  0  0  0  0  0  0  0  0  0  0  0
    0.4957    1.5548    6.3874 H   0  0  0  0  0  0  0  0  0  0  0  0
   -0.3707   -2.0881    3.1453 H   0  0  0  0  0  0  0  0  0  0  0  0
    3.5625   -3.8914    1.7831 H   0  0  0  0  0  0  0  0  0  0  0  0
    3.6318   -2.4097    2.5313 H   0  0  0  0  0  0  0  0  0  0  0  0
    1.8322   -2.9012    7.9038 H   0  0  0  0  0  0  0  0  0  0  0  0
    3.0477   -2.3510    6.7580 H   0  0  0  0  0  0  0  0  0  0  0  0
    1.7135    3.1293    5.0665 H   0  0  0  0  0  0  0  0  0  0  0  0
    2.8654    2.2523    6.0640 H   0  0  0  0  0  0  0  0  0  0  0  0
    0.1365   -3.3393   -1.3240 H   0  0  0  0  0  0  0  0  0  0  0  0
    4.7580   -2.0423   -2.5006 H   0  0  0  0  0  0  0  0  0  0  0  0
    5.3485   -0.3052    2.5586 H   0  0  0  0  0  0  0  0  0  0  0  0
    4.9494    1.2591    1.7971 H   0  0  0  0  0  0  0  0  0  0  0  0
  1 37  1  0  0  0  0
  1 38  1  0  0  0  0
  1 39  1  0  0  0  0
  2 40  1  0  0  0  0
  2 41  1  0  0  0  0
  2 42  1  0  0  0  0
  3 43  1  0  0  0  0
  3 44  1  0  0  0  0
  3 45  1  0  0  0  0
  4 46  1  0  0  0  0
  4 47  1  0  0  0  0
  4 48  1  0  0  0  0
  5 49  1  0  0  0  0
  5 50  1  0  0  0  0
  5 51  1  0  0  0  0
  6 52  1  0  0  0  0
  6 53  1  0  0  0  0
  6 54  1  0  0  0  0
  7 55  1  0  0  0  0
  8  7  2  0  0  0  0
  8 56  1  0  0  0  0
  9 57  1  0  0  0  0
  9 58  1  0  0  0  0
 10 59  1  0  0  0  0
 10 60  1  0  0  0  0
 11 61  1  0  0  0  0
 11 62  1  0  0  0  0
 12  9  1  0  0  0  0
 12 63  1  0  0  0  0
 13  9  1  0  0  0  0
 13 64  1  0  0  0  0
 13 65  1  0  0  0  0
 14 10  1  0  0  0  0
 15 10  1  0  0  0  0
 15 66  1  0  0  0  0
 15 67  1  0  0  0  0
 16 11  1  0  0  0  0
 17 11  1  0  0  0  0
 17 68  1  0  0  0  0
 17 69  1  0  0  0  0
 18  7  1  0  0  0  0
 18 70  1  0  0  0  0
 19  8  1  0  0  0  0
 19 71  1  0  0  0  0
 21 20  1  0  0  0  0
 21 72  1  0  0  0  0
 21 73  1  0  0  0  0
 22  1  1  0  0  0  0
 22  2  1  0  0  0  0
 22 12  2  0  0  0  0
 23  3  1  0  0  0  0
 23 13  1  0  0  0  0
 23 14  2  0  0  0  0
 24  4  1  0  0  0  0
 24 15  1  0  0  0  0
 24 16  2  0  0  0  0
 25  5  1  0  0  0  0
 25 17  1  0  0  0  0
 25 20  2  0  0  0  0
 26  6  1  0  0  0  0
 27 21  1  0  0  0  0
 27 26  2  0  0  0  0
 28 18  2  0  0  0  0
 29 19  2  0  0  0  0
 29 28  1  0  0  0  0
 30 26  1  0  0  0  0
 30 28  1  0  0  0  0
 31 27  1  0  0  0  0
 31 29  1  0  0  0  0
 32 30  2  0  0  0  0
 33 31  2  0  0  0  0
 34 14  1  0  0  0  0
 35 16  1  0  0  0  0
 36 20  1  0  0  0  0
M  END
>  <DRUGBANK_ID>
DB12148

>  <COMMON_NAME>
Menatetrenone

>  <CAS_NUMBER>
863-61-6

>  <UNII>
27Y876D139

>  <SYNONYMS>
menatetrenona; Menatetrenone

$$$$
