
 OpenBabel10282417183D

 56 57  0  0  0  0  0  0  0  0999 V2000
    1.5543    3.5535   -0.2801 C   0  0  0  0  0  0  0  0  0  0  0  0
    6.2409   -0.1575    1.3562 C   0  0  0  0  0  0  0  0  0  0  0  0
    7.2561   -3.8054    7.1196 C   0  0  0  0  0  0  0  0  0  0  0  0
    3.0290    3.7852   -0.0229 C   0  0  0  0  0  0  0  0  0  0  0  0
    5.4247    5.6823    3.8908 C   0  0  0  0  0  0  0  0  0  0  0  0
    5.3369    5.0871    2.6562 C   0  0  0  0  0  0  0  0  0  0  0  0
    4.6713    5.1656    4.9447 C   0  0  0  0  0  0  0  0  0  0  0  0
    4.5669    3.9305    2.5431 C   0  0  0  0  0  0  0  0  0  0  0  0
    3.7632    4.1196    4.7505 C   0  0  0  0  0  0  0  0  0  0  0  0
    2.4472    2.5459    3.3662 C   0  0  0  0  0  0  0  0  0  0  0  0
    2.2547    1.7078    2.1125 C   0  0  0  0  0  0  0  0  0  0  0  0
    6.0759   -4.1699    4.8880 C   0  0  0  0  0  0  0  0  0  0  0  0
    5.2306   -0.4409    2.4422 C   0  0  1  0  0  0  0  0  0  0  0  0
    3.6293    3.5162    3.5119 C   0  0  0  0  0  0  0  0  0  0  0  0
    3.3350    0.8661    1.4965 C   0  0  1  0  0  0  0  0  0  0  0  0
    5.9464   -3.1649    3.7471 C   0  0  1  0  0  0  0  0  0  0  0  0
    5.9439   -0.6513    3.8004 C   0  0  0  0  0  0  0  0  0  0  0  0
    4.8355   -3.5543    2.7899 C   0  0  0  0  0  0  0  0  0  0  0  0
    3.8049    1.3521    0.0686 C   0  0  0  0  0  0  0  0  0  0  0  0
    6.0050   -2.0326    5.8050 C   0  0  0  0  0  0  0  0  0  0  0  0
    4.3192    0.6771    2.5666 N   0  0  0  0  0  0  0  0  0  0  0  0
    6.4784   -3.3420    5.9885 N   0  0  0  0  0  0  0  0  0  0  0  0
    5.7334   -1.8791    4.4203 N   0  0  0  0  0  0  0  0  0  0  0  0
    6.6580    0.2394    4.2638 O   0  0  0  0  0  0  0  0  0  0  0  0
    4.8741   -3.4069    1.5801 O   0  0  0  0  0  0  0  0  0  0  0  0
    3.6978   -3.9643    3.3796 O   0  0  0  0  0  0  0  0  0  0  0  0
    4.1353    0.5250   -0.7869 O   0  0  0  0  0  0  0  0  0  0  0  0
    5.7856   -1.2462    6.6939 O   0  0  0  0  0  0  0  0  0  0  0  0
    3.9034    2.6575   -0.2889 O   0  0  0  0  0  0  0  0  0  0  0  0
    4.6018   -1.2881    2.2207 H   0  0  0  0  0  0  0  0  0  0  0  0
    2.8725   -0.1127    1.2839 H   0  0  0  0  0  0  0  0  0  0  0  0
    6.8905   -3.1274    3.1856 H   0  0  0  0  0  0  0  0  0  0  0  0
    1.3059    3.6825   -1.3215 H   0  0  0  0  0  0  0  0  0  0  0  0
    1.0056    4.2441    0.3762 H   0  0  0  0  0  0  0  0  0  0  0  0
    1.1999    2.5455   -0.0349 H   0  0  0  0  0  0  0  0  0  0  0  0
    6.6851    0.8392    1.4715 H   0  0  0  0  0  0  0  0  0  0  0  0
    7.0265   -0.9086    1.3192 H   0  0  0  0  0  0  0  0  0  0  0  0
    5.7666   -0.1957    0.3846 H   0  0  0  0  0  0  0  0  0  0  0  0
    8.1710   -3.2035    7.1641 H   0  0  0  0  0  0  0  0  0  0  0  0
    6.7127   -3.6750    8.0575 H   0  0  0  0  0  0  0  0  0  0  0  0
    7.5389   -4.8538    6.9827 H   0  0  0  0  0  0  0  0  0  0  0  0
    3.4467    4.6650   -0.5210 H   0  0  0  0  0  0  0  0  0  0  0  0
    3.0686    4.0939    1.0080 H   0  0  0  0  0  0  0  0  0  0  0  0
    6.1274    6.4940    4.0421 H   0  0  0  0  0  0  0  0  0  0  0  0
    5.8832    5.4730    1.7955 H   0  0  0  0  0  0  0  0  0  0  0  0
    4.7825    5.5812    5.9372 H   0  0  0  0  0  0  0  0  0  0  0  0
    4.7546    3.3949    1.6258 H   0  0  0  0  0  0  0  0  0  0  0  0
    3.1820    3.7346    5.5829 H   0  0  0  0  0  0  0  0  0  0  0  0
    1.5471    3.1904    3.3715 H   0  0  0  0  0  0  0  0  0  0  0  0
    2.3548    1.8995    4.2421 H   0  0  0  0  0  0  0  0  0  0  0  0
    2.1676    2.4999    1.4484 H   0  0  0  0  0  0  0  0  0  0  0  0
    1.2762    1.2133    2.0476 H   0  0  0  0  0  0  0  0  0  0  0  0
    5.1201   -4.6274    5.1701 H   0  0  0  0  0  0  0  0  0  0  0  0
    6.7988   -4.9634    4.6868 H   0  0  0  0  0  0  0  0  0  0  0  0
    4.8236    1.5211    2.8311 H   0  0  0  0  0  0  0  0  0  0  0  0
    3.0433   -4.0504    2.6526 H   0  0  0  0  0  0  0  0  0  0  0  0
  1 33  1  0  0  0  0
  1 34  1  0  0  0  0
  1 35  1  0  0  0  0
  2 36  1  0  0  0  0
  2 37  1  0  0  0  0
  2 38  1  0  0  0  0
  3 39  1  0  0  0  0
  3 40  1  0  0  0  0
  3 41  1  0  0  0  0
  4  1  1  0  0  0  0
  4 42  1  0  0  0  0
  4 43  1  0  0  0  0
  5 44  1  0  0  0  0
  6  5  2  0  0  0  0
  6 45  1  0  0  0  0
  7  5  1  0  0  0  0
  7 46  1  0  0  0  0
  8  6  1  0  0  0  0
  8 47  1  0  0  0  0
  9  7  2  0  0  0  0
  9 48  1  0  0  0  0
 10 49  1  0  0  0  0
 10 50  1  0  0  0  0
 11 10  1  0  0  0  0
 11 51  1  0  0  0  0
 11 52  1  0  0  0  0
 12 53  1  0  0  0  0
 12 54  1  0  0  0  0
 13  2  1  0  0  0  0
 13 30  1  6  0  0  0
 14  8  2  0  0  0  0
 14  9  1  0  0  0  0
 14 10  1  0  0  0  0
 15 21  1  0  0  0  0
 15 31  1  6  0  0  0
 15 19  1  0  0  0  0
 15 11  1  0  0  0  0
 16 12  1  0  0  0  0
 16 32  1  6  0  0  0
 16 18  1  0  0  0  0
 17 13  1  0  0  0  0
 21 13  1  0  0  0  0
 21 55  1  0  0  0  0
 22  3  1  0  0  0  0
 22 12  1  0  0  0  0
 22 20  1  0  0  0  0
 23 16  1  0  0  0  0
 23 17  1  0  0  0  0
 23 20  1  0  0  0  0
 24 17  2  0  0  0  0
 25 18  2  0  0  0  0
 26 18  1  0  0  0  0
 26 56  1  0  0  0  0
 27 19  2  0  0  0  0
 28 20  2  0  0  0  0
 29  4  1  0  0  0  0
 29 19  1  0  0  0  0
M  END
>  <DRUGBANK_ID>
DB11783

>  <COMMON_NAME>
Imidapril

>  <CAS_NUMBER>
89371-37-9

>  <UNII>
BW7H1TJS22

>  <SYNONYMS>
Imidapril

$$$$
