LIB
 OpenBabel10282417173D

 58 60  0  0  0  0  0  0  0  0999 V2000
    1.0307   -0.0757    0.0289 N   0  0  0  0  0  0  0  0  0  0  0  0
   -1.2327    3.5208   -0.0645 C   0  0  0  0  0  0  0  0  0  0  0  0
   -0.5964    1.4570    1.0574 C   0  0  0  0  0  0  0  0  0  0  0  0
    0.4586    2.0729   -1.0181 C   0  0  0  0  0  0  0  0  0  0  0  0
   -0.2973    3.2473   -1.0601 C   0  0  0  0  0  0  0  0  0  0  0  0
   -1.3974    2.6056    0.9802 C   0  0  0  0  0  0  0  0  0  0  0  0
   -1.7620   -2.5591    0.0796 C   0  0  0  0  0  0  0  0  0  0  0  0
   -3.3718   -4.8845    0.1869 C   0  0  0  0  0  0  0  0  0  0  0  0
   -1.4307   -3.6340    0.9328 C   0  0  0  0  0  0  0  0  0  0  0  0
   -3.7345   -3.8198   -0.6332 C   0  0  0  0  0  0  0  0  0  0  0  0
   -0.1751   -3.5660    2.1289 Cl  0  0  0  0  0  0  0  0  0  0  0  0
   -2.2234   -4.7884    0.9661 C   0  0  0  0  0  0  0  0  0  0  0  0
   -2.9244   -2.6732   -0.7069 C   0  0  0  0  0  0  0  0  0  0  0  0
   -1.0136   -1.3403    0.0335 N   0  0  0  0  0  0  0  0  0  0  0  0
    0.3829   -1.3353   -0.0543 C   0  0  0  0  0  0  0  0  0  0  0  0
    0.9736   -2.4045   -0.2640 O   0  0  0  0  0  0  0  0  0  0  0  0
    0.3150    1.1608    0.0384 C   0  0  0  0  0  0  0  0  0  0  0  0
   -2.0155    4.6435   -0.0149 O   0  0  0  0  0  0  0  0  0  0  0  0
   -1.7486    5.6364   -1.0056 C   0  0  0  0  0  0  0  0  0  0  0  0
    2.4895   -0.0212    0.0247 C   0  0  0  0  0  0  0  0  0  0  0  0
    3.1931    1.1661    0.0762 C   0  0  0  0  0  0  0  0  0  0  0  0
    4.5672    1.0816    0.0630 C   0  0  0  0  0  0  0  0  0  0  0  0
    5.2482   -0.0744    0.0474 N   0  0  0  0  0  0  0  0  0  0  0  0
    4.5182   -1.1897    0.0265 C   0  0  0  0  0  0  0  0  0  0  0  0
    3.1805   -1.1775    0.0170 N   0  0  0  0  0  0  0  0  0  0  0  0
    5.1942   -2.3796   -0.0062 N   0  0  0  0  0  0  0  0  0  0  0  0
    4.5137   -3.6704    0.0366 C   0  0  1  0  0  0  0  0  0  0  0  0
    4.9296   -4.4468   -1.2176 C   0  0  0  0  0  0  0  0  0  0  0  0
    4.8591   -4.4633    1.3390 C   0  0  0  0  0  0  0  0  0  0  0  0
    4.4685   -3.6694    2.5893 C   0  0  0  0  0  0  0  0  0  0  0  0
    4.1215   -5.8132    1.3640 C   0  0  0  0  0  0  0  0  0  0  0  0
    6.2728   -4.7264    1.3927 O   0  0  0  0  0  0  0  0  0  0  0  0
    3.4257   -3.5491    0.0005 H   0  0  0  0  0  0  0  0  0  0  0  0
   -0.6770    0.8050    1.9255 H   0  0  0  0  0  0  0  0  0  0  0  0
    1.1607    1.8857   -1.8282 H   0  0  0  0  0  0  0  0  0  0  0  0
   -0.1407    3.9201   -1.8967 H   0  0  0  0  0  0  0  0  0  0  0  0
   -2.1501    2.7846    1.7459 H   0  0  0  0  0  0  0  0  0  0  0  0
   -3.9822   -5.7835    0.2348 H   0  0  0  0  0  0  0  0  0  0  0  0
   -4.6524   -3.8889   -1.2151 H   0  0  0  0  0  0  0  0  0  0  0  0
   -1.9622   -5.6020    1.6379 H   0  0  0  0  0  0  0  0  0  0  0  0
   -3.1998   -1.9024   -1.4238 H   0  0  0  0  0  0  0  0  0  0  0  0
   -1.5055   -0.5107   -0.2679 H   0  0  0  0  0  0  0  0  0  0  0  0
   -0.7056    5.9729   -0.9638 H   0  0  0  0  0  0  0  0  0  0  0  0
   -1.9983    5.2625   -2.0046 H   0  0  0  0  0  0  0  0  0  0  0  0
   -2.3819    6.5060   -0.8082 H   0  0  0  0  0  0  0  0  0  0  0  0
    2.7366    2.1424    0.1216 H   0  0  0  0  0  0  0  0  0  0  0  0
    5.1761    1.9811    0.0619 H   0  0  0  0  0  0  0  0  0  0  0  0
    6.1910   -2.3389    0.1445 H   0  0  0  0  0  0  0  0  0  0  0  0
    6.0022   -4.6697   -1.2146 H   0  0  0  0  0  0  0  0  0  0  0  0
    4.3864   -5.3926   -1.2970 H   0  0  0  0  0  0  0  0  0  0  0  0
    4.7068   -3.8739   -2.1225 H   0  0  0  0  0  0  0  0  0  0  0  0
    3.3957   -3.4511    2.5960 H   0  0  0  0  0  0  0  0  0  0  0  0
    4.7144   -4.2285    3.4994 H   0  0  0  0  0  0  0  0  0  0  0  0
    5.0204   -2.7265    2.6536 H   0  0  0  0  0  0  0  0  0  0  0  0
    4.4262   -6.4626    0.5373 H   0  0  0  0  0  0  0  0  0  0  0  0
    4.3546   -6.3761    2.2742 H   0  0  0  0  0  0  0  0  0  0  0  0
    3.0368   -5.6694    1.3115 H   0  0  0  0  0  0  0  0  0  0  0  0
    6.4497   -5.2333    2.2033 H   0  0  0  0  0  0  0  0  0  0  0  0
  1 15  1  0  0  0  0
  1 17  1  0  0  0  0
  1 20  1  0  0  0  0
  2  5  2  0  0  0  0
  2  6  1  0  0  0  0
  2 18  1  0  0  0  0
  3  6  2  0  0  0  0
  3 17  1  0  0  0  0
  3 34  1  0  0  0  0
  4  5  1  0  0  0  0
  4 17  2  0  0  0  0
  4 35  1  0  0  0  0
  5 36  1  0  0  0  0
  6 37  1  0  0  0  0
  7  9  1  0  0  0  0
  7 13  2  0  0  0  0
  7 14  1  0  0  0  0
  8 10  2  0  0  0  0
  8 12  1  0  0  0  0
  8 38  1  0  0  0  0
  9 11  1  0  0  0  0
  9 12  2  0  0  0  0
 10 13  1  0  0  0  0
 10 39  1  0  0  0  0
 12 40  1  0  0  0  0
 13 41  1  0  0  0  0
 14 15  1  0  0  0  0
 14 42  1  0  0  0  0
 15 16  2  0  0  0  0
 18 19  1  0  0  0  0
 19 43  1  0  0  0  0
 19 44  1  0  0  0  0
 19 45  1  0  0  0  0
 20 21  1  0  0  0  0
 20 25  2  0  0  0  0
 21 22  2  0  0  0  0
 21 46  1  0  0  0  0
 22 23  1  0  0  0  0
 22 47  1  0  0  0  0
 23 24  2  0  0  0  0
 24 25  1  0  0  0  0
 24 26  1  0  0  0  0
 26 27  1  0  0  0  0
 26 48  1  0  0  0  0
 27 28  1  0  0  0  0
 27 29  1  0  0  0  0
 27 33  1  6  0  0  0
 28 49  1  0  0  0  0
 28 50  1  0  0  0  0
 28 51  1  0  0  0  0
 29 30  1  0  0  0  0
 29 31  1  0  0  0  0
 29 32  1  0  0  0  0
 30 52  1  0  0  0  0
 30 53  1  0  0  0  0
 30 54  1  0  0  0  0
 31 55  1  0  0  0  0
 31 56  1  0  0  0  0
 31 57  1  0  0  0  0
 32 58  1  0  0  0  0
M  END
>  <DRUGBANK_ID>
DB08095

>  <COMMON_NAME>
3-(2-CHLOROPHENYL)-1-(2-{[(1S)-2-HYDROXY-1,2-DIMETHYLPROPYL]AMINO}PYRIMIDIN-4-YL)-1-(4-METHOXYPHENYL)UREA

$$$$
