748
 OpenBabel10282417113D

 39 40  0  0  1  0  0  0  0  0999 V2000
   -2.2371    0.0304   -0.0259 Cl  0  0  0  0  0  0  0  0  0  0  0  0
    4.0852   -1.0319    1.4816 O   0  0  0  0  0  0  0  0  0  0  0  0
    4.1146    2.4143    1.0697 N   0  0  0  0  0  0  0  0  0  0  0  0
    5.1289   -2.2229   -0.9823 N   0  0  0  0  0  0  0  0  0  0  0  0
    3.7525   -0.5397    0.1766 C   0  0  3  0  0  0  0  0  0  0  0  0
    3.8445    0.0190    2.4525 C   0  0  0  0  0  0  0  0  0  0  0  0
    4.4679    1.4879    2.2206 C   0  0  0  0  0  0  0  0  0  0  0  0
    2.2621   -0.2811    0.0505 C   0  0  0  0  0  0  0  0  0  0  0  0
    4.3559   -1.1405   -1.1000 C   0  0  0  0  0  0  0  0  0  0  0  0
    1.6278    0.9780   -0.0186 C   0  0  0  0  0  0  0  0  0  0  0  0
    1.4689   -1.4264    0.0221 C   0  0  0  0  0  0  0  0  0  0  0  0
    4.1034   -0.5170   -2.3499 C   0  0  0  0  0  0  0  0  0  0  0  0
    4.4579    3.8003    1.3775 C   0  0  0  0  0  0  0  0  0  0  0  0
    4.7544    2.2280   -0.2543 C   0  0  0  0  0  0  0  0  0  0  0  0
    0.2386    1.0839   -0.0407 C   0  0  0  0  0  0  0  0  0  0  0  0
    0.0878   -1.3262   -0.0257 C   0  0  0  0  0  0  0  0  0  0  0  0
   -0.5241   -0.0753   -0.0336 C   0  0  0  0  0  0  0  0  0  0  0  0
    4.5667   -1.1270   -3.5145 C   0  0  0  0  0  0  0  0  0  0  0  0
    5.5619   -2.7924   -2.1320 C   0  0  0  0  0  0  0  0  0  0  0  0
    5.2689   -2.3002   -3.3971 C   0  0  0  0  0  0  0  0  0  0  0  0
    4.3907    0.2848    0.2450 H   0  0  0  0  0  0  0  0  0  0  0  0
    2.7617    0.0896    2.6097 H   0  0  0  0  0  0  0  0  0  0  0  0
    4.2406   -0.3699    3.4027 H   0  0  0  0  0  0  0  0  0  0  0  0
    4.1077    2.0084    3.1240 H   0  0  0  0  0  0  0  0  0  0  0  0
    5.5561    1.4234    2.3213 H   0  0  0  0  0  0  0  0  0  0  0  0
    2.1659    1.9186   -0.0376 H   0  0  0  0  0  0  0  0  0  0  0  0
    1.9580   -2.3989    0.0494 H   0  0  0  0  0  0  0  0  0  0  0  0
    3.5354    0.3985   -2.4485 H   0  0  0  0  0  0  0  0  0  0  0  0
    5.5455    3.9143    1.4306 H   0  0  0  0  0  0  0  0  0  0  0  0
    4.0875    4.4365    0.5608 H   0  0  0  0  0  0  0  0  0  0  0  0
    3.9826    4.1617    2.2864 H   0  0  0  0  0  0  0  0  0  0  0  0
    5.8131    1.9671   -0.1905 H   0  0  0  0  0  0  0  0  0  0  0  0
    4.2388    1.5224   -0.8897 H   0  0  0  0  0  0  0  0  0  0  0  0
    4.5937    3.0810   -0.9198 H   0  0  0  0  0  0  0  0  0  0  0  0
   -0.2284    2.0668   -0.0517 H   0  0  0  0  0  0  0  0  0  0  0  0
   -0.4949   -2.2386   -0.0403 H   0  0  0  0  0  0  0  0  0  0  0  0
    4.3364   -0.6916   -4.4856 H   0  0  0  0  0  0  0  0  0  0  0  0
    6.1365   -3.6912   -1.9889 H   0  0  0  0  0  0  0  0  0  0  0  0
    5.5844   -2.8530   -4.2796 H   0  0  0  0  0  0  0  0  0  0  0  0
  1 17  1  0  0  0  0
  2  5  1  0  0  0  0
  2  6  1  0  0  0  0
  3  7  1  0  0  0  0
  3 13  1  0  0  0  0
  3 14  1  0  0  0  0
  4  9  1  0  0  0  0
  4 19  2  0  0  0  0
  5  8  1  0  0  0  0
  5  9  1  0  0  0  0
  5 21  1  0  0  0  0
  6  7  1  0  0  0  0
  6 22  1  0  0  0  0
  6 23  1  0  0  0  0
  7 24  1  0  0  0  0
  7 25  1  0  0  0  0
  8 10  2  0  0  0  0
  8 11  1  0  0  0  0
  9 12  2  0  0  0  0
 10 15  1  0  0  0  0
 10 26  1  0  0  0  0
 11 16  2  0  0  0  0
 11 27  1  0  0  0  0
 12 18  1  0  0  0  0
 12 28  1  0  0  0  0
 13 29  1  0  0  0  0
 13 30  1  0  0  0  0
 13 31  1  0  0  0  0
 14 32  1  0  0  0  0
 14 33  1  0  0  0  0
 14 34  1  0  0  0  0
 15 17  2  0  0  0  0
 15 35  1  0  0  0  0
 16 17  1  0  0  0  0
 16 36  1  0  0  0  0
 18 20  2  0  0  0  0
 18 37  1  0  0  0  0
 19 20  1  0  0  0  0
 19 38  1  0  0  0  0
 20 39  1  0  0  0  0
M  END
>  <DRUGBANK_ID>
DB00748

>  <SECONDARY_ACCESSION_NUMBERS>
APRD00765

>  <COMMON_NAME>
Carbinoxamine

>  <CAS_NUMBER>
486-16-8

>  <UNII>
982A7M02H5

>  <SYNONYMS>
(±)-carbinoxamine; {2-[(4-Chloro-phenyl)-pyridin-2-yl-methoxy]-ethyl}-dimethyl-amine; 2-(p-chloro-α-(2-(dimethylamino)ethoxy)benzyl)pyridine; Carbinoxamin; Carbinoxamina; Carbinoxamine; Carbinoxamine base; Carbinoxaminum; Paracarbinoxamine

$$$$
