
 OpenBabel10282417143D

 27 28  0  0  0  0  0  0  0  0999 V2000
    0.7925    1.4201    0.8627 C   0  0  0  0  0  0  0  0  0  0  0  0
   -0.3701    0.5374    0.4803 C   0  0  0  0  0  0  0  0  0  0  0  0
   -0.1789   -0.8415    0.2501 C   0  0  0  0  0  0  0  0  0  0  0  0
    1.2271   -1.4330    0.4043 C   0  0  2  0  0  0  0  0  0  0  0  0
    2.1941   -0.8490   -0.6699 C   0  0  0  0  0  0  0  0  0  0  0  0
    2.7501    0.4859   -0.3702 N   0  0  0  0  0  0  0  0  0  0  0  0
    1.7462    1.5546   -0.3252 C   0  0  0  0  0  0  0  0  0  0  0  0
   -1.6241    1.1351    0.2637 C   0  0  0  0  0  0  0  0  0  0  0  0
   -2.7035    0.3702   -0.1645 C   0  0  0  0  0  0  0  0  0  0  0  0
   -2.5349   -0.9917   -0.3675 C   0  0  0  0  0  0  0  0  0  0  0  0
   -1.2895   -1.5996   -0.1649 C   0  0  0  0  0  0  0  0  0  0  0  0
    1.2697   -2.9705    0.4099 C   0  0  0  0  0  0  0  0  0  0  0  0
   -3.8733   -1.9382   -0.8963 Cl  0  0  0  0  0  0  0  0  0  0  0  0
    0.4293    2.4106    1.1610 H   0  0  0  0  0  0  0  0  0  0  0  0
    1.3009    1.0228    1.7504 H   0  0  0  0  0  0  0  0  0  0  0  0
    1.6010   -1.1525    1.3985 H   0  0  0  0  0  0  0  0  0  0  0  0
    1.7165   -0.8335   -1.6581 H   0  0  0  0  0  0  0  0  0  0  0  0
    3.0639   -1.5115   -0.7604 H   0  0  0  0  0  0  0  0  0  0  0  0
    3.4323    0.7235   -1.0911 H   0  0  0  0  0  0  0  0  0  0  0  0
    2.2821    2.5049   -0.2169 H   0  0  0  0  0  0  0  0  0  0  0  0
    1.2040    1.6150   -1.2786 H   0  0  0  0  0  0  0  0  0  0  0  0
   -1.7545    2.2047    0.4049 H   0  0  0  0  0  0  0  0  0  0  0  0
   -3.6635    0.8475   -0.3441 H   0  0  0  0  0  0  0  0  0  0  0  0
   -1.2052   -2.6644   -0.3537 H   0  0  0  0  0  0  0  0  0  0  0  0
    2.2864   -3.3332    0.6003 H   0  0  0  0  0  0  0  0  0  0  0  0
    0.6347   -3.3683    1.2112 H   0  0  0  0  0  0  0  0  0  0  0  0
    0.9359   -3.4037   -0.5383 H   0  0  0  0  0  0  0  0  0  0  0  0
  1  2  1  0  0  0  0
  1 14  1  0  0  0  0
  1 15  1  0  0  0  0
  2  8  2  0  0  0  0
  3  4  1  0  0  0  0
  3  2  1  0  0  0  0
  4  5  1  0  0  0  0
  4 12  1  0  0  0  0
  4 16  1  1  0  0  0
  5  6  1  0  0  0  0
  5 17  1  0  0  0  0
  5 18  1  0  0  0  0
  6  7  1  0  0  0  0
  6 19  1  0  0  0  0
  7  1  1  0  0  0  0
  7 20  1  0  0  0  0
  7 21  1  0  0  0  0
  8  9  1  0  0  0  0
  8 22  1  0  0  0  0
  9 10  2  0  0  0  0
  9 23  1  0  0  0  0
 10 11  1  0  0  0  0
 10 13  1  0  0  0  0
 11  3  2  0  0  0  0
 11 24  1  0  0  0  0
 12 25  1  0  0  0  0
 12 26  1  0  0  0  0
 12 27  1  0  0  0  0
M  END
>  <DRUGBANK_ID>
DB04871

>  <COMMON_NAME>
Lorcaserin

>  <CAS_NUMBER>
616202-92-7

>  <UNII>
637E494O0Z

>  <SYNONYMS>
Lorcaserin; Lorqess

$$$$
