
 OpenBabel10282417233D

 31 29  0  0  0  0  0  0  0  0999 V2000
   -0.8810   -1.3992    1.1090 Cu  0  2  0  0  0  0  0  0  0  0  0  0
    1.2700    0.3983    0.0611 C   0  0  0  0  0  0  0  0  0  0  0  0
    0.5696   -0.0482    1.2714 N   0  0  0  0  0  0  0  0  0  0  0  0
   -0.2599    0.8426    1.9084 C   0  0  0  0  0  0  0  0  0  0  0  0
   -0.8317   -0.0430    3.2168 S   0  5  0  0  0  0  0  0  0  0  0  0
   -0.6765    1.9698    1.3981 N   0  0  0  0  0  0  0  0  0  0  0  0
   -1.5136    2.8236    2.1108 N   0  0  0  0  0  0  0  0  0  0  0  0
   -1.7610    3.9564    1.4781 C   0  0  0  0  0  0  0  0  0  0  0  0
   -1.2712    4.2730    0.0775 C   0  0  0  0  0  0  0  0  0  0  0  0
   -2.6305    5.0436    2.1368 C   0  0  0  0  0  0  0  0  0  0  0  0
   -3.1270    4.8129    3.5398 C   0  0  0  0  0  0  0  0  0  0  0  0
   -2.9056    6.1106    1.4392 N   0  0  0  0  0  0  0  0  0  0  0  0
   -3.7141    7.0337    2.1271 N   0  0  0  0  0  0  0  0  0  0  0  0
   -4.0670    8.1529    1.5518 C   0  0  0  0  0  0  0  0  0  0  0  0
   -3.6032    8.5981   -0.0430 S   0  5  0  0  0  0  0  0  0  0  0  0
   -4.8498    9.0934    2.1560 N   0  0  0  0  0  0  0  0  0  0  0  0
   -5.3897    9.0037    3.4778 C   0  0  0  0  0  0  0  0  0  0  0  0
    0.9397    1.3830   -0.2738 H   0  0  0  0  0  0  0  0  0  0  0  0
    1.0032   -0.3097   -0.7288 H   0  0  0  0  0  0  0  0  0  0  0  0
    2.3465    0.3682    0.2134 H   0  0  0  0  0  0  0  0  0  0  0  0
    1.2406   -0.2775    2.0403 H   0  0  0  0  0  0  0  0  0  0  0  0
   -2.1324    4.3953   -0.5871 H   0  0  0  0  0  0  0  0  0  0  0  0
   -0.6796    5.1927    0.0800 H   0  0  0  0  0  0  0  0  0  0  0  0
   -0.6489    3.4794   -0.3389 H   0  0  0  0  0  0  0  0  0  0  0  0
   -2.7669    5.6126    4.1946 H   0  0  0  0  0  0  0  0  0  0  0  0
   -4.2217    4.8156    3.5432 H   0  0  0  0  0  0  0  0  0  0  0  0
   -2.7861    3.8599    3.9441 H   0  0  0  0  0  0  0  0  0  0  0  0
   -5.0299    9.9084    1.5830 H   0  0  0  0  0  0  0  0  0  0  0  0
   -5.0352    9.8350    4.0954 H   0  0  0  0  0  0  0  0  0  0  0  0
   -6.4832    9.0447    3.4482 H   0  0  0  0  0  0  0  0  0  0  0  0
   -5.1050    8.0727    3.9763 H   0  0  0  0  0  0  0  0  0  0  0  0
  2  3  1  0  0  0  0
  2 18  1  0  0  0  0
  2 19  1  0  0  0  0
  2 20  1  0  0  0  0
  3  4  1  0  0  0  0
  3 21  1  0  0  0  0
  4  5  1  0  0  0  0
  4  6  2  0  0  0  0
  6  7  1  0  0  0  0
  7  8  2  0  0  0  0
  8  9  1  0  0  0  0
  8 10  1  0  0  0  0
  9 22  1  0  0  0  0
  9 23  1  0  0  0  0
  9 24  1  0  0  0  0
 10 11  1  0  0  0  0
 10 12  2  0  0  0  0
 11 25  1  0  0  0  0
 11 26  1  0  0  0  0
 11 27  1  0  0  0  0
 12 13  1  0  0  0  0
 13 14  2  0  0  0  0
 14 15  1  0  0  0  0
 14 16  1  0  0  0  0
 16 17  1  0  0  0  0
 16 28  1  0  0  0  0
 17 29  1  0  0  0  0
 17 30  1  0  0  0  0
 17 31  1  0  0  0  0
M  CHG  3   1   2   5  -1  15  -1
M  END
>  <DRUGBANK_ID>
DB16963

>  <COMMON_NAME>
Copper(II) dithiosemicarbazone

>  <CAS_NUMBER>
68341-09-3

>  <UNII>
0YDK1H9L3A

>  <SYNONYMS>
Atsm copper (ii); Copper, ((2,2'-(1,2-dimethyl-1,2-ethanediylidene)bis(n-methylhydrazinecarbothioamidato-.kappa.n2,.kappa.s))(2-))-, (sp-4-2)-; Copper(ii) diacetyl-di(n4-methyl)thiosemicarbazone; Cu-atsm; Cu(ii)atsm; Diacetyl(n(4)-methylthiosemicarbazonato) copper (ii)

$$$$
