
 OpenBabel10282417223D

 42 45  0  0  0  0  0  0  0  0999 V2000
    3.1218   -1.3636   -0.0334 O   0  0  0  0  0  0  0  0  0  0  0  0
    2.1782   -0.3386   -0.0437 C   0  0  0  0  0  0  0  0  0  0  0  0
    2.6917    0.8816   -0.0590 C   0  0  0  0  0  0  0  0  0  0  0  0
    4.1562    0.8296   -0.0747 C   0  0  2  0  0  0  0  0  0  0  0  0
    4.3484   -0.6456    0.3020 C   0  0  0  0  0  0  0  0  0  0  0  0
    1.8875    2.0838   -0.0338 C   0  0  0  0  0  0  0  0  0  0  0  0
    0.4128    1.9073    0.0545 C   0  0  0  0  0  0  0  0  0  0  0  0
   -0.1511    0.5322    0.0040 C   0  0  0  0  0  0  0  0  0  0  0  0
   -1.5488    0.3725    0.0080 C   0  0  0  0  0  0  0  0  0  0  0  0
   -2.4771    1.5742    0.0666 C   0  0  0  0  0  0  0  0  0  0  0  0
   -3.9210    1.2980   -0.2905 C   0  0  0  0  0  0  0  0  0  0  0  0
   -4.3648    0.0543    0.4444 C   0  0  0  0  0  0  0  0  0  0  0  0
   -3.5555   -1.1773   -0.0250 C   0  0  0  0  0  0  0  0  0  0  0  0
   -2.0527   -0.9344   -0.0066 C   0  0  0  0  0  0  0  0  0  0  0  0
   -1.1650   -2.0334   -0.0876 C   0  0  0  0  0  0  0  0  0  0  0  0
    0.2144   -1.8675   -0.0921 C   0  0  0  0  0  0  0  0  0  0  0  0
    0.7389   -0.5795   -0.0437 C   0  0  0  0  0  0  0  0  0  0  0  0
   -0.2535    2.9296    0.1799 O   0  0  0  0  0  0  0  0  0  0  0  0
    2.3696    3.2116   -0.0568 O   0  0  0  0  0  0  0  0  0  0  0  0
   -3.9174   -1.4842   -1.4905 C   0  0  0  0  0  0  0  0  0  0  0  0
   -3.9041   -2.3201    0.9425 C   0  0  0  0  0  0  0  0  0  0  0  0
    4.7883    1.7993    0.9068 C   0  0  0  0  0  0  0  0  0  0  0  0
    4.5054    1.0224   -1.0955 H   0  0  0  0  0  0  0  0  0  0  0  0
    5.1976   -1.0826   -0.2354 H   0  0  0  0  0  0  0  0  0  0  0  0
    4.5271   -0.7787    1.3773 H   0  0  0  0  0  0  0  0  0  0  0  0
   -2.1658    2.3359   -0.6532 H   0  0  0  0  0  0  0  0  0  0  0  0
   -2.4350    1.9891    1.0828 H   0  0  0  0  0  0  0  0  0  0  0  0
   -4.0066    1.1857   -1.3759 H   0  0  0  0  0  0  0  0  0  0  0  0
   -4.5479    2.1568   -0.0303 H   0  0  0  0  0  0  0  0  0  0  0  0
   -5.4355   -0.1097    0.2811 H   0  0  0  0  0  0  0  0  0  0  0  0
   -4.2287    0.2176    1.5235 H   0  0  0  0  0  0  0  0  0  0  0  0
   -1.5484   -3.0493   -0.1661 H   0  0  0  0  0  0  0  0  0  0  0  0
    0.8469   -2.7528   -0.1402 H   0  0  0  0  0  0  0  0  0  0  0  0
   -3.3922   -2.3645   -1.8710 H   0  0  0  0  0  0  0  0  0  0  0  0
   -4.9936   -1.6278   -1.6096 H   0  0  0  0  0  0  0  0  0  0  0  0
   -3.6210   -0.6630   -2.1579 H   0  0  0  0  0  0  0  0  0  0  0  0
   -3.6040   -2.0489    1.9651 H   0  0  0  0  0  0  0  0  0  0  0  0
   -4.9759   -2.5280    0.9436 H   0  0  0  0  0  0  0  0  0  0  0  0
   -3.3950   -3.2577    0.7062 H   0  0  0  0  0  0  0  0  0  0  0  0
    5.8743    1.7080    0.8998 H   0  0  0  0  0  0  0  0  0  0  0  0
    4.5531    2.8353    0.6414 H   0  0  0  0  0  0  0  0  0  0  0  0
    4.4181    1.6356    1.9258 H   0  0  0  0  0  0  0  0  0  0  0  0
  1  2  1  0  0  0  0
  1  5  1  0  0  0  0
  2  3  2  0  0  0  0
  2 17  1  0  0  0  0
  3  4  1  0  0  0  0
  3  6  1  0  0  0  0
  4  5  1  0  0  0  0
  4 22  1  0  0  0  0
  4 23  1  6  0  0  0
  5 24  1  0  0  0  0
  5 25  1  0  0  0  0
  6  7  1  0  0  0  0
  6 19  2  0  0  0  0
  7  8  1  0  0  0  0
  7 18  2  0  0  0  0
  8  9  1  0  0  0  0
  8 17  2  0  0  0  0
  9 10  1  0  0  0  0
  9 14  2  0  0  0  0
 10 11  1  0  0  0  0
 10 26  1  0  0  0  0
 10 27  1  0  0  0  0
 11 12  1  0  0  0  0
 11 28  1  0  0  0  0
 11 29  1  0  0  0  0
 12 13  1  0  0  0  0
 12 30  1  0  0  0  0
 12 31  1  0  0  0  0
 13 14  1  0  0  0  0
 13 20  1  0  0  0  0
 13 21  1  0  0  0  0
 14 15  1  0  0  0  0
 15 16  2  0  0  0  0
 15 32  1  0  0  0  0
 16 17  1  0  0  0  0
 16 33  1  0  0  0  0
 20 34  1  0  0  0  0
 20 35  1  0  0  0  0
 20 36  1  0  0  0  0
 21 37  1  0  0  0  0
 21 38  1  0  0  0  0
 21 39  1  0  0  0  0
 22 40  1  0  0  0  0
 22 41  1  0  0  0  0
 22 42  1  0  0  0  0
M  END
>  <DRUGBANK_ID>
DB15579

>  <COMMON_NAME>
Cryptotanshinone

>  <CAS_NUMBER>
35825-57-1

>  <UNII>
5E9SXT166N

>  <SYNONYMS>
Cryptotanshinon; Cryptotanshinone; Tanshinone C

$$$$
