
 OpenBabel10282417193D

 66 66  0  0  1  0  0  0  0  0999 V2000
    1.0009    0.2000    0.1414 C   0  0  0  0  0  0  0  0  0  0  0  0
    0.5477    0.0441   -1.3023 C   0  0  2  0  0  0  0  0  0  0  0  0
    0.5518   -1.4410   -1.7030 C   0  0  2  0  0  0  0  0  0  0  0  0
    1.4404   -1.8481   -2.8691 C   0  0  2  0  0  0  0  0  0  0  0  0
    2.0747   -0.7398   -3.6653 C   0  0  0  0  0  0  0  0  0  0  0  0
    1.9558    0.5829   -3.3799 C   0  0  0  0  0  0  0  0  0  0  0  0
    1.1975    1.0314   -2.1939 C   0  0  0  0  0  0  0  0  0  0  0  0
    1.0621    2.2435   -1.9460 O   0  0  0  0  0  0  0  0  0  0  0  0
    2.4929    1.6471   -4.0699 O   0  0  0  0  0  0  0  0  0  0  0  0
    3.2875    1.3772   -5.2002 C   0  0  0  0  0  0  0  0  0  0  0  0
    2.8529   -1.1223   -4.7510 O   0  0  0  0  0  0  0  0  0  0  0  0
    3.0395   -2.4927   -5.0694 C   0  0  0  0  0  0  0  0  0  0  0  0
    0.7133   -2.6814   -3.7846 O   0  0  0  0  0  0  0  0  0  0  0  0
   -0.8742   -1.9359   -1.9352 C   0  0  0  0  0  0  0  0  0  0  0  0
   -1.8008   -1.2453   -1.0373 C   0  0  0  0  0  0  0  0  0  0  0  0
   -2.7873   -0.4138   -1.4036 C   0  0  0  0  0  0  0  0  0  0  0  0
   -3.0928   -0.0885   -2.8344 C   0  0  0  0  0  0  0  0  0  0  0  0
   -3.5579    0.3402   -0.3464 C   0  0  0  0  0  0  0  0  0  0  0  0
   -4.3453   -0.6053    0.5677 C   0  0  0  0  0  0  0  0  0  0  0  0
   -3.4422   -1.4111    1.4436 C   0  0  0  0  0  0  0  0  0  0  0  0
   -3.2752   -1.4887    2.7651 C   0  0  0  0  0  0  0  0  0  0  0  0
   -4.1361   -0.7003    3.6825 C   0  0  0  0  0  0  0  0  0  0  0  0
   -2.2172   -2.4149    3.3522 C   0  0  0  0  0  0  0  0  0  0  0  0
   -2.3876   -3.9128    2.9969 C   0  0  0  0  0  0  0  0  0  0  0  0
   -2.1861   -4.2670    1.5406 C   0  0  0  0  0  0  0  0  0  0  0  0
   -1.1810   -4.9793    1.0087 C   0  0  0  0  0  0  0  0  0  0  0  0
   -1.0458   -5.1445   -0.4751 C   0  0  0  0  0  0  0  0  0  0  0  0
   -0.1929   -5.6785    1.8779 C   0  0  0  0  0  0  0  0  0  0  0  0
    0.5958   -0.5933    0.7806 H   0  0  0  0  0  0  0  0  0  0  0  0
    0.6481    1.1509    0.5511 H   0  0  0  0  0  0  0  0  0  0  0  0
    2.0902    0.1658    0.1960 H   0  0  0  0  0  0  0  0  0  0  0  0
   -0.4623    0.4538   -1.3606 H   0  0  0  0  0  0  0  0  0  0  0  0
    0.9316   -2.0172   -0.8421 H   0  0  0  0  0  0  0  0  0  0  0  0
    2.2453   -2.4696   -2.4586 H   0  0  0  0  0  0  0  0  0  0  0  0
    4.1705    0.8034   -4.9035 H   0  0  0  0  0  0  0  0  0  0  0  0
    2.6921    0.8745   -5.9682 H   0  0  0  0  0  0  0  0  0  0  0  0
    3.6301    2.3267   -5.6099 H   0  0  0  0  0  0  0  0  0  0  0  0
    3.4814   -3.0382   -4.2304 H   0  0  0  0  0  0  0  0  0  0  0  0
    2.1150   -2.9586   -5.4167 H   0  0  0  0  0  0  0  0  0  0  0  0
    3.7302   -2.5379   -5.9116 H   0  0  0  0  0  0  0  0  0  0  0  0
    0.2702   -3.4016   -3.3091 H   0  0  0  0  0  0  0  0  0  0  0  0
   -1.1660   -1.8045   -2.9705 H   0  0  0  0  0  0  0  0  0  0  0  0
   -0.9299   -2.9998   -1.7472 H   0  0  0  0  0  0  0  0  0  0  0  0
   -1.4586   -1.2746   -0.0049 H   0  0  0  0  0  0  0  0  0  0  0  0
   -4.1181   -0.3735   -3.0682 H   0  0  0  0  0  0  0  0  0  0  0  0
   -2.9366    0.9791   -3.0099 H   0  0  0  0  0  0  0  0  0  0  0  0
   -2.4552   -0.5965   -3.5592 H   0  0  0  0  0  0  0  0  0  0  0  0
   -2.8724    0.9707    0.2391 H   0  0  0  0  0  0  0  0  0  0  0  0
   -4.2640    1.0217   -0.8318 H   0  0  0  0  0  0  0  0  0  0  0  0
   -5.0567   -0.0195    1.1447 H   0  0  0  0  0  0  0  0  0  0  0  0
   -4.9237   -1.3086   -0.0437 H   0  0  0  0  0  0  0  0  0  0  0  0
   -2.8103   -2.0633    0.8806 H   0  0  0  0  0  0  0  0  0  0  0  0
   -4.7097   -1.3864    4.3076 H   0  0  0  0  0  0  0  0  0  0  0  0
   -3.5336   -0.0231    4.2882 H   0  0  0  0  0  0  0  0  0  0  0  0
   -4.8594   -0.0885    3.1391 H   0  0  0  0  0  0  0  0  0  0  0  0
   -1.2121   -2.0726    3.0582 H   0  0  0  0  0  0  0  0  0  0  0  0
   -2.2407   -2.3274    4.4464 H   0  0  0  0  0  0  0  0  0  0  0  0
   -1.6837   -4.4751    3.6194 H   0  0  0  0  0  0  0  0  0  0  0  0
   -3.3898   -4.2410    3.2880 H   0  0  0  0  0  0  0  0  0  0  0  0
   -2.9561   -3.9267    0.8527 H   0  0  0  0  0  0  0  0  0  0  0  0
   -0.0693   -4.7689   -0.8073 H   0  0  0  0  0  0  0  0  0  0  0  0
   -1.1423   -6.1868   -0.7786 H   0  0  0  0  0  0  0  0  0  0  0  0
   -1.8274   -4.5917   -1.0079 H   0  0  0  0  0  0  0  0  0  0  0  0
    0.3699   -4.9639    2.4851 H   0  0  0  0  0  0  0  0  0  0  0  0
   -0.7379   -6.3635    2.5374 H   0  0  0  0  0  0  0  0  0  0  0  0
    0.5094   -6.2741    1.2917 H   0  0  0  0  0  0  0  0  0  0  0  0
  1 29  1  0  0  0  0
  1 30  1  0  0  0  0
  1 31  1  0  0  0  0
  2  1  1  0  0  0  0
  2  3  1  0  0  0  0
  2  7  1  0  0  0  0
  2 32  1  1  0  0  0
  3  4  1  0  0  0  0
  3 33  1  1  0  0  0
  3 14  1  0  0  0  0
  4  5  1  0  0  0  0
  4 34  1  1  0  0  0
  4 13  1  0  0  0  0
  5  6  2  0  0  0  0
  5 11  1  0  0  0  0
  6  7  1  0  0  0  0
  6  9  1  0  0  0  0
  7  8  2  0  0  0  0
  9 10  1  0  0  0  0
 10 35  1  0  0  0  0
 10 36  1  0  0  0  0
 10 37  1  0  0  0  0
 11 12  1  0  0  0  0
 12 38  1  0  0  0  0
 12 39  1  0  0  0  0
 12 40  1  0  0  0  0
 13 41  1  0  0  0  0
 14 15  1  0  0  0  0
 14 42  1  0  0  0  0
 14 43  1  0  0  0  0
 15 16  2  0  0  0  0
 15 44  1  0  0  0  0
 16 17  1  0  0  0  0
 16 18  1  0  0  0  0
 17 45  1  0  0  0  0
 17 46  1  0  0  0  0
 17 47  1  0  0  0  0
 18 19  1  0  0  0  0
 18 48  1  0  0  0  0
 18 49  1  0  0  0  0
 19 20  1  0  0  0  0
 19 50  1  0  0  0  0
 19 51  1  0  0  0  0
 20 21  2  0  0  0  0
 20 52  1  0  0  0  0
 21 22  1  0  0  0  0
 21 23  1  0  0  0  0
 22 53  1  0  0  0  0
 22 54  1  0  0  0  0
 22 55  1  0  0  0  0
 23 24  1  0  0  0  0
 23 56  1  0  0  0  0
 23 57  1  0  0  0  0
 24 25  1  0  0  0  0
 24 58  1  0  0  0  0
 24 59  1  0  0  0  0
 25 26  2  0  0  0  0
 25 60  1  0  0  0  0
 26 27  1  0  0  0  0
 26 28  1  0  0  0  0
 27 61  1  0  0  0  0
 27 62  1  0  0  0  0
 27 63  1  0  0  0  0
 28 64  1  0  0  0  0
 28 65  1  0  0  0  0
 28 66  1  0  0  0  0
M  END
>  <DRUGBANK_ID>
DB12326

>  <COMMON_NAME>
Antroquinonol

>  <CAS_NUMBER>
1010081-09-0

>  <UNII>
AX9P92T7JZ

>  <SYNONYMS>
HOCENA

$$$$
