
 OpenBabel10282417133D

 15 15  0  0  0  0  0  0  0  0999 V2000
    0.9550   -0.1191   -0.0301 O   0  0  0  0  0  0  0  0  0  0  0  0
    0.4858    1.1085   -0.5693 C   0  0  0  0  0  0  0  0  0  0  0  0
    0.9141    2.3062    0.2299 C   0  0  0  0  0  0  0  0  0  0  0  0
    0.5467    3.5888   -0.1916 C   0  0  0  0  0  0  0  0  0  0  0  0
    0.8654    4.6967    0.5909 C   0  0  0  0  0  0  0  0  0  0  0  0
    1.5601    4.4868    1.7685 C   0  0  0  0  0  0  0  0  0  0  0  0
    1.9630    3.2732    2.1941 N   0  0  0  0  0  0  0  0  0  0  0  0
    1.6241    2.2129    1.4219 C   0  0  0  0  0  0  0  0  0  0  0  0
    1.9258   -0.1006   -0.0738 H   0  0  0  0  0  0  0  0  0  0  0  0
    0.8461    1.1872   -1.6005 H   0  0  0  0  0  0  0  0  0  0  0  0
   -0.6083    1.0631   -0.5860 H   0  0  0  0  0  0  0  0  0  0  0  0
   -0.0082    3.7298   -1.1158 H   0  0  0  0  0  0  0  0  0  0  0  0
    0.5650    5.6951    0.2959 H   0  0  0  0  0  0  0  0  0  0  0  0
    1.8114    5.3144    2.4265 H   0  0  0  0  0  0  0  0  0  0  0  0
    1.9469    1.2555    1.8213 H   0  0  0  0  0  0  0  0  0  0  0  0
  1  2  1  0  0  0  0
  1  9  1  0  0  0  0
  2  3  1  0  0  0  0
  2 10  1  0  0  0  0
  2 11  1  0  0  0  0
  3  4  2  0  0  0  0
  3  8  1  0  0  0  0
  4  5  1  0  0  0  0
  4 12  1  0  0  0  0
  5  6  2  0  0  0  0
  5 13  1  0  0  0  0
  6  7  1  0  0  0  0
  6 14  1  0  0  0  0
  7  8  2  0  0  0  0
  8 15  1  0  0  0  0
M  END
>  <DRUGBANK_ID>
DB04145

>  <SECONDARY_ACCESSION_NUMBERS>
EXPT02720

>  <COMMON_NAME>
Nicotinyl alcohol

>  <CAS_NUMBER>
100-55-0

>  <UNII>
9TF312056Y

>  <SYNONYMS>
3-pyridinemethanol; beta-pyridylcarbinol; Nicotinic alcohol; Nicotinyl alcohol; Pyridylcarbinol; Pyridylmethanol

$$$$
