KIM
 OpenBabel10282417173D

 55 58  0  0  0  0  0  0  0  0999 V2000
    0.8727   -0.1729   -0.1241 N   0  0  0  0  0  0  0  0  0  0  0  0
    0.7674    0.1921   -2.4223 N   0  0  0  0  0  0  0  0  0  0  0  0
    0.2391   -0.6364    1.0335 C   0  0  0  0  0  0  0  0  0  0  0  0
    0.2499    0.4203   -1.2064 C   0  0  0  0  0  0  0  0  0  0  0  0
   -1.4801    1.6238   -2.0766 C   0  0  0  0  0  0  0  0  0  0  0  0
   -1.0656    1.3535   -3.3635 C   0  0  0  0  0  0  0  0  0  0  0  0
    0.1013    0.6038   -3.5149 C   0  0  0  0  0  0  0  0  0  0  0  0
    1.6650   -0.6966   -5.0160 C   0  0  0  0  0  0  0  0  0  0  0  0
    3.7210   -2.7949   -5.4050 C   0  0  0  0  0  0  0  0  0  0  0  0
    5.6127   -4.8891   -5.6670 C   0  0  0  0  0  0  0  0  0  0  0  0
    1.5881   -1.9412   -4.4025 C   0  0  0  0  0  0  0  0  0  0  0  0
   -3.9458   -2.1573    2.8498 C   0  0  0  0  0  0  0  0  0  0  0  0
   -1.2328   -1.2705    3.3607 C   0  0  0  0  0  0  0  0  0  0  0  0
   -1.5518   -1.4779    5.7551 C   0  0  0  0  0  0  0  0  0  0  0  0
    1.5853    0.5769    4.8190 C   0  0  0  0  0  0  0  0  0  0  0  0
    0.4025   -0.1875    4.6941 O   0  0  0  0  0  0  0  0  0  0  0  0
   -0.0026   -0.5842    3.4496 C   0  0  0  0  0  0  0  0  0  0  0  0
    0.7258   -0.2897    2.2887 C   0  0  0  0  0  0  0  0  0  0  0  0
   -0.8589    1.1556   -1.0017 N   0  0  0  0  0  0  0  0  0  0  0  0
    0.6516    0.2849   -4.7919 N   0  0  0  0  0  0  0  0  0  0  0  0
   -0.1824    0.5997   -5.9580 C   0  0  0  0  0  0  0  0  0  0  0  0
    2.7945   -0.4901   -5.8238 C   0  0  0  0  0  0  0  0  0  0  0  0
    3.8180   -1.5090   -6.0404 C   0  0  0  0  0  0  0  0  0  0  0  0
    4.3826   -4.1185   -5.2382 C   0  0  0  0  0  0  0  0  0  0  0  0
    3.6424   -4.9054   -4.4396 N   0  0  0  0  0  0  0  0  0  0  0  0
    2.6027   -4.1714   -4.0934 N   0  0  0  0  0  0  0  0  0  0  0  0
    2.5784   -2.9191   -4.6125 C   0  0  0  0  0  0  0  0  0  0  0  0
   -0.9896   -1.3045    0.9508 C   0  0  0  0  0  0  0  0  0  0  0  0
   -1.7524   -1.5820    2.0901 C   0  0  0  0  0  0  0  0  0  0  0  0
   -2.9854   -2.1233    1.7981 O   0  0  0  0  0  0  0  0  0  0  0  0
   -1.9856   -1.6852    4.4264 O   0  0  0  0  0  0  0  0  0  0  0  0
    1.8802   -0.1371   -0.1788 H   0  0  0  0  0  0  0  0  0  0  0  0
   -2.3588    2.2334   -1.8753 H   0  0  0  0  0  0  0  0  0  0  0  0
   -1.6551    1.7339   -4.1798 H   0  0  0  0  0  0  0  0  0  0  0  0
    6.1320   -5.2701   -4.7663 H   0  0  0  0  0  0  0  0  0  0  0  0
    5.3026   -5.8202   -6.1769 H   0  0  0  0  0  0  0  0  0  0  0  0
    6.3608   -4.4016   -6.2884 H   0  0  0  0  0  0  0  0  0  0  0  0
    0.7528   -2.1731   -3.7506 H   0  0  0  0  0  0  0  0  0  0  0  0
   -3.6925   -2.9516    3.5588 H   0  0  0  0  0  0  0  0  0  0  0  0
   -4.0550   -1.1818    3.3412 H   0  0  0  0  0  0  0  0  0  0  0  0
   -4.9231   -2.4116    2.4316 H   0  0  0  0  0  0  0  0  0  0  0  0
   -0.5908   -1.9669    5.9399 H   0  0  0  0  0  0  0  0  0  0  0  0
   -1.5416   -0.4108    5.9949 H   0  0  0  0  0  0  0  0  0  0  0  0
   -2.2857   -1.9458    6.4166 H   0  0  0  0  0  0  0  0  0  0  0  0
    2.4516   -0.0119    4.5070 H   0  0  0  0  0  0  0  0  0  0  0  0
    1.5101    1.5183    4.2663 H   0  0  0  0  0  0  0  0  0  0  0  0
    1.7023    0.8187    5.8788 H   0  0  0  0  0  0  0  0  0  0  0  0
    1.6583    0.2620    2.3359 H   0  0  0  0  0  0  0  0  0  0  0  0
   -1.1975    0.1826   -5.8642 H   0  0  0  0  0  0  0  0  0  0  0  0
   -0.2778    1.6880   -6.0667 H   0  0  0  0  0  0  0  0  0  0  0  0
    0.2231    0.2179   -6.8996 H   0  0  0  0  0  0  0  0  0  0  0  0
    2.9207    0.5003   -6.2669 H   0  0  0  0  0  0  0  0  0  0  0  0
    4.6431   -1.2422   -6.7005 H   0  0  0  0  0  0  0  0  0  0  0  0
    1.9047   -4.5821   -3.4951 H   0  0  0  0  0  0  0  0  0  0  0  0
   -1.3692   -1.6017   -0.0253 H   0  0  0  0  0  0  0  0  0  0  0  0
  1  3  1  0  0  0  0
  1  4  1  0  0  0  0
  1 32  1  0  0  0  0
  2  4  2  0  0  0  0
  2  7  1  0  0  0  0
  3 18  2  0  0  0  0
  3 28  1  0  0  0  0
  4 19  1  0  0  0  0
  5  6  1  0  0  0  0
  5 19  2  0  0  0  0
  5 33  1  0  0  0  0
  6  7  2  0  0  0  0
  6 34  1  0  0  0  0
  7 20  1  0  0  0  0
  8 11  2  0  0  0  0
  8 20  1  0  0  0  0
  8 22  1  0  0  0  0
  9 23  1  0  0  0  0
  9 24  1  0  0  0  0
  9 27  2  0  0  0  0
 10 24  1  0  0  0  0
 10 35  1  0  0  0  0
 10 36  1  0  0  0  0
 10 37  1  0  0  0  0
 11 27  1  0  0  0  0
 11 38  1  0  0  0  0
 12 30  1  0  0  0  0
 12 39  1  0  0  0  0
 12 40  1  0  0  0  0
 12 41  1  0  0  0  0
 13 17  2  0  0  0  0
 13 29  1  0  0  0  0
 13 31  1  0  0  0  0
 14 31  1  0  0  0  0
 14 42  1  0  0  0  0
 14 43  1  0  0  0  0
 14 44  1  0  0  0  0
 15 16  1  0  0  0  0
 15 45  1  0  0  0  0
 15 46  1  0  0  0  0
 15 47  1  0  0  0  0
 16 17  1  0  0  0  0
 17 18  1  0  0  0  0
 18 48  1  0  0  0  0
 20 21  1  0  0  0  0
 21 49  1  0  0  0  0
 21 50  1  0  0  0  0
 21 51  1  0  0  0  0
 22 23  2  0  0  0  0
 22 52  1  0  0  0  0
 23 53  1  0  0  0  0
 24 25  2  0  0  0  0
 25 26  1  0  0  0  0
 26 27  1  0  0  0  0
 26 54  1  0  0  0  0
 28 29  2  0  0  0  0
 28 55  1  0  0  0  0
 29 30  1  0  0  0  0
M  END
>  <DRUGBANK_ID>
DB08042

>  <COMMON_NAME>
N~4~-methyl-N~4~-(3-methyl-1H-indazol-6-yl)-N~2~-(3,4,5-trimethoxyphenyl)pyrimidine-2,4-diamine

$$$$
