
 OpenBabel10282417133D

 52 54  0  0  0  0  0  0  0  0999 V2000
   -1.5414    0.7590    0.2449 S   0  0  0  0  0  0  0  0  0  0  0  0
   -4.5519    2.3932    2.1901 O   0  0  0  0  0  0  0  0  0  0  0  0
   -3.3870   -2.6816   -0.0356 O   0  0  0  0  0  0  0  0  0  0  0  0
   -4.5388    0.4919    1.0196 N   0  0  0  0  0  0  0  0  0  0  0  0
   -0.7784   -1.6755    0.0256 N   0  0  0  0  0  0  0  0  0  0  0  0
   -7.0426   -0.2849   -2.6638 N   0  0  0  0  0  0  0  0  0  0  0  0
   -7.2122    0.2535   -0.3609 N   0  0  0  0  0  0  0  0  0  0  0  0
   -8.4578    1.3081   -1.7709 N   0  0  0  0  0  0  0  0  0  0  0  0
   -4.4578    2.7243   -0.1887 C   0  0  0  0  0  0  0  0  0  0  0  0
   -3.4582    3.8485   -0.2919 C   0  0  0  0  0  0  0  0  0  0  0  0
   -5.7786    3.3650   -0.5802 C   0  0  0  0  0  0  0  0  0  0  0  0
   -3.9489    4.6346   -1.5163 C   0  0  0  0  0  0  0  0  0  0  0  0
   -5.4054    4.2423   -1.7585 C   0  0  0  0  0  0  0  0  0  0  0  0
   -4.4926    1.8707    1.0790 C   0  0  0  0  0  0  0  0  0  0  0  0
   -4.3200   -0.5141   -0.0712 C   0  0  1  0  0  0  0  0  0  0  0  0
   -4.3112    0.1040   -1.4779 C   0  0  0  0  0  0  0  0  0  0  0  0
   -4.5844   -0.7175   -2.6952 C   0  0  0  0  0  0  0  0  0  0  0  0
   -3.1561   -1.4825    0.0569 C   0  0  0  0  0  0  0  0  0  0  0  0
   -5.9829   -1.3172   -2.6233 C   0  0  0  0  0  0  0  0  0  0  0  0
   -1.8351   -0.9128    0.1172 C   0  0  0  0  0  0  0  0  0  0  0  0
    0.1101    0.4957    0.0591 C   0  0  0  0  0  0  0  0  0  0  0  0
    0.3350   -0.8766    0.0211 C   0  0  0  0  0  0  0  0  0  0  0  0
    1.1274    1.4443    0.0005 C   0  0  0  0  0  0  0  0  0  0  0  0
    1.6444   -1.3477   -0.0076 C   0  0  0  0  0  0  0  0  0  0  0  0
   -7.5222    0.3496   -1.6699 C   0  0  0  0  0  0  0  0  0  0  0  0
    2.4274    0.9529   -0.0209 C   0  0  0  0  0  0  0  0  0  0  0  0
    2.6825   -0.4196   -0.0116 C   0  0  0  0  0  0  0  0  0  0  0  0
   -4.6034    0.0988    1.9590 H   0  0  0  0  0  0  0  0  0  0  0  0
   -6.9925    1.1206    0.1146 H   0  0  0  0  0  0  0  0  0  0  0  0
   -6.4159   -0.3208   -0.2932 H   0  0  0  0  0  0  0  0  0  0  0  0
   -9.0194    1.3577   -2.6036 H   0  0  0  0  0  0  0  0  0  0  0  0
   -8.7207    1.8475   -0.9606 H   0  0  0  0  0  0  0  0  0  0  0  0
   -4.1023    2.1617   -1.0174 H   0  0  0  0  0  0  0  0  0  0  0  0
   -3.4162    4.4447    0.6178 H   0  0  0  0  0  0  0  0  0  0  0  0
   -2.4562    3.4513   -0.4928 H   0  0  0  0  0  0  0  0  0  0  0  0
   -6.5272    2.6633   -0.9198 H   0  0  0  0  0  0  0  0  0  0  0  0
   -6.2141    3.9363    0.2438 H   0  0  0  0  0  0  0  0  0  0  0  0
   -3.8476    5.7053   -1.3440 H   0  0  0  0  0  0  0  0  0  0  0  0
   -3.3591    4.3749   -2.4059 H   0  0  0  0  0  0  0  0  0  0  0  0
   -6.0738    5.1011   -1.8506 H   0  0  0  0  0  0  0  0  0  0  0  0
   -5.4934    3.6647   -2.6919 H   0  0  0  0  0  0  0  0  0  0  0  0
   -5.1300   -1.2326    0.0968 H   0  0  0  0  0  0  0  0  0  0  0  0
   -5.0942    0.8515   -1.5475 H   0  0  0  0  0  0  0  0  0  0  0  0
   -3.3542    0.5923   -1.6760 H   0  0  0  0  0  0  0  0  0  0  0  0
   -4.5114   -0.0333   -3.5553 H   0  0  0  0  0  0  0  0  0  0  0  0
   -3.7843   -1.4549   -2.8099 H   0  0  0  0  0  0  0  0  0  0  0  0
   -6.0806   -1.9431   -3.5148 H   0  0  0  0  0  0  0  0  0  0  0  0
   -6.0678   -1.9822   -1.7598 H   0  0  0  0  0  0  0  0  0  0  0  0
    0.9091    2.5082    0.0089 H   0  0  0  0  0  0  0  0  0  0  0  0
    1.8119   -2.4177   -0.0035 H   0  0  0  0  0  0  0  0  0  0  0  0
    3.2530    1.6573   -0.0269 H   0  0  0  0  0  0  0  0  0  0  0  0
    3.7030   -0.7836   -0.0064 H   0  0  0  0  0  0  0  0  0  0  0  0
  1 20  1  0  0  0  0
  1 21  1  0  0  0  0
  2 14  2  0  0  0  0
  3 18  2  0  0  0  0
  4 14  1  0  0  0  0
  4 28  1  0  0  0  0
  5 20  2  0  0  0  0
  5 22  1  0  0  0  0
  6 19  1  0  0  0  0
  6 25  2  0  0  0  0
  7 25  1  0  0  0  0
  7 29  1  0  0  0  0
  7 30  1  0  0  0  0
  8 25  1  0  0  0  0
  8 31  1  0  0  0  0
  8 32  1  0  0  0  0
  9 10  1  0  0  0  0
  9 11  1  0  0  0  0
  9 14  1  0  0  0  0
  9 33  1  0  0  0  0
 10 12  1  0  0  0  0
 10 34  1  0  0  0  0
 10 35  1  0  0  0  0
 11 13  1  0  0  0  0
 11 36  1  0  0  0  0
 11 37  1  0  0  0  0
 12 13  1  0  0  0  0
 12 38  1  0  0  0  0
 12 39  1  0  0  0  0
 13 40  1  0  0  0  0
 13 41  1  0  0  0  0
 15  4  1  0  0  0  0
 15 16  1  0  0  0  0
 15 18  1  0  0  0  0
 15 42  1  1  0  0  0
 16 17  1  0  0  0  0
 16 43  1  0  0  0  0
 16 44  1  0  0  0  0
 17 19  1  0  0  0  0
 17 45  1  0  0  0  0
 17 46  1  0  0  0  0
 18 20  1  0  0  0  0
 19 47  1  0  0  0  0
 19 48  1  0  0  0  0
 21 22  1  0  0  0  0
 21 23  2  0  0  0  0
 22 24  2  0  0  0  0
 23 26  1  0  0  0  0
 23 49  1  0  0  0  0
 24 27  1  0  0  0  0
 24 50  1  0  0  0  0
 26 27  2  0  0  0  0
 26 51  1  0  0  0  0
 27 52  1  0  0  0  0
M  END
>  <DRUGBANK_ID>
DB03251

>  <SECONDARY_ACCESSION_NUMBERS>
EXPT02826

>  <COMMON_NAME>
RWJ-51084

$$$$
