
 OpenBabel10282417233D

 66 68  0  0  0  0  0  0  0  0999 V2000
   -2.1928    0.1122    0.0035 Cl  0  0  0  0  0  0  0  0  0  0  0  0
    6.2901   -0.7954    4.7938 S   0  0  0  0  0  0  0  0  0  0  0  0
    4.2339    1.4609    6.3216 O   0  0  0  0  0  0  0  0  0  0  0  0
    3.3564   -0.0033    5.0120 O   0  0  0  0  0  0  0  0  0  0  0  0
    4.3904   -0.7271    1.2293 N   0  0  0  0  0  0  0  0  0  0  0  0
    4.7382   -2.2281    2.8434 C   0  0  0  0  0  0  0  0  0  0  0  0
    4.9898   -0.0813    2.2969 C   0  0  0  0  0  0  0  0  0  0  0  0
    5.3924   -1.0045    3.2441 C   0  0  0  0  0  0  0  0  0  0  0  0
    4.2929   -2.0718    1.5258 C   0  0  0  0  0  0  0  0  0  0  0  0
    5.0608    1.3714    2.3554 C   0  0  0  0  0  0  0  0  0  0  0  0
    4.4891   -3.4750    3.4502 C   0  0  0  0  0  0  0  0  0  0  0  0
    3.7978   -3.1496    0.7716 C   0  0  0  0  0  0  0  0  0  0  0  0
    3.8565   -0.0920    0.0079 C   0  0  0  0  0  0  0  0  0  0  0  0
    3.8327   -4.5114    2.7440 C   0  0  0  0  0  0  0  0  0  0  0  0
    4.2158    2.0271    3.5404 C   0  0  0  0  0  0  0  0  0  0  0  0
    3.4746   -4.3321    1.4156 C   0  0  0  0  0  0  0  0  0  0  0  0
    6.9775    0.9446    5.1274 C   0  0  0  0  0  0  0  0  0  0  0  0
    2.3433    0.0122   -0.0252 C   0  0  0  0  0  0  0  0  0  0  0  0
    3.9244    1.0717    5.0402 C   0  0  0  0  0  0  0  0  0  0  0  0
    3.6218   -5.8654    3.3752 C   0  0  0  0  0  0  0  0  0  0  0  0
    4.7046    3.5990    3.3353 C   0  0  0  0  0  0  0  0  0  0  0  0
    2.7543    2.0458    3.1483 C   0  0  0  0  0  0  0  0  0  0  0  0
    1.6687    1.2381   -0.0281 C   0  0  0  0  0  0  0  0  0  0  0  0
    1.5518   -1.1390   -0.0800 C   0  0  0  0  0  0  0  0  0  0  0  0
    8.0728    1.0829    4.0608 C   0  0  0  0  0  0  0  0  0  0  0  0
    6.3432    2.3185    5.0099 C   0  0  0  0  0  0  0  0  0  0  0  0
    7.4792    1.0051    6.5627 C   0  0  0  0  0  0  0  0  0  0  0  0
    0.2632    1.2739   -0.0213 C   0  0  0  0  0  0  0  0  0  0  0  0
    0.1687   -1.1227   -0.0464 C   0  0  0  0  0  0  0  0  0  0  0  0
    4.9876   -6.4643    3.7051 C   0  0  0  0  0  0  0  0  0  0  0  0
    2.7319   -5.7540    4.6063 C   0  0  0  0  0  0  0  0  0  0  0  0
   -0.4778    0.0916   -0.0154 C   0  0  0  0  0  0  0  0  0  0  0  0
    4.8151    2.1309    6.7205 H   0  0  0  0  0  0  0  0  0  0  0  0
    6.1275    1.6180    2.3179 H   0  0  0  0  0  0  0  0  0  0  0  0
    4.7857    1.8655    1.4198 H   0  0  0  0  0  0  0  0  0  0  0  0
    4.7915   -3.6209    4.4823 H   0  0  0  0  0  0  0  0  0  0  0  0
    3.5901   -3.0625   -0.2890 H   0  0  0  0  0  0  0  0  0  0  0  0
    4.2474   -0.6456   -0.8522 H   0  0  0  0  0  0  0  0  0  0  0  0
    4.2883    0.9052   -0.0959 H   0  0  0  0  0  0  0  0  0  0  0  0
    2.9634   -5.1156    0.8586 H   0  0  0  0  0  0  0  0  0  0  0  0
    3.1243   -6.5328    2.6569 H   0  0  0  0  0  0  0  0  0  0  0  0
    4.4517    3.9961    2.3408 H   0  0  0  0  0  0  0  0  0  0  0  0
    4.3728    4.2637    4.1275 H   0  0  0  0  0  0  0  0  0  0  0  0
    5.8033    3.7633    3.2585 H   0  0  0  0  0  0  0  0  0  0  0  0
    2.6028    2.5776    2.2152 H   0  0  0  0  0  0  0  0  0  0  0  0
    2.3713    1.0239    3.0593 H   0  0  0  0  0  0  0  0  0  0  0  0
    2.2217    2.5525    3.9562 H   0  0  0  0  0  0  0  0  0  0  0  0
    2.2164    2.1784   -0.0240 H   0  0  0  0  0  0  0  0  0  0  0  0
    1.9718   -2.1199   -0.1422 H   0  0  0  0  0  0  0  0  0  0  0  0
    7.7111    0.7554    3.0798 H   0  0  0  0  0  0  0  0  0  0  0  0
    8.3334    2.1432    3.9134 H   0  0  0  0  0  0  0  0  0  0  0  0
    8.9618    0.5226    4.2993 H   0  0  0  0  0  0  0  0  0  0  0  0
    5.3904    2.7036    5.3330 H   0  0  0  0  0  0  0  0  0  0  0  0
    6.9309    3.2053    5.2443 H   0  0  0  0  0  0  0  0  0  0  0  0
    6.2860    2.3042    3.9651 H   0  0  0  0  0  0  0  0  0  0  0  0
    6.6906    0.7701    7.2903 H   0  0  0  0  0  0  0  0  0  0  0  0
    8.3339    0.3539    6.7082 H   0  0  0  0  0  0  0  0  0  0  0  0
    7.7983    2.0317    6.7968 H   0  0  0  0  0  0  0  0  0  0  0  0
   -0.2534    2.2284   -0.0152 H   0  0  0  0  0  0  0  0  0  0  0  0
   -0.3584   -2.0721   -0.0452 H   0  0  0  0  0  0  0  0  0  0  0  0
    5.5321   -5.8492    4.4301 H   0  0  0  0  0  0  0  0  0  0  0  0
    4.8816   -7.4660    4.1261 H   0  0  0  0  0  0  0  0  0  0  0  0
    5.6098   -6.5305    2.8037 H   0  0  0  0  0  0  0  0  0  0  0  0
    1.7572   -5.3272    4.3424 H   0  0  0  0  0  0  0  0  0  0  0  0
    2.5683   -6.7393    5.0507 H   0  0  0  0  0  0  0  0  0  0  0  0
    3.1791   -5.1089    5.3693 H   0  0  0  0  0  0  0  0  0  0  0  0
  1 32  1  0  0  0  0
  2 17  1  0  0  0  0
  3 33  1  0  0  0  0
  5  9  1  0  0  0  0
  6  8  1  0  0  0  0
  6  9  1  0  0  0  0
  7  5  1  0  0  0  0
  7 10  1  0  0  0  0
  8  2  1  0  0  0  0
  8  7  2  0  0  0  0
  9 12  2  0  0  0  0
 10 15  1  0  0  0  0
 10 34  1  0  0  0  0
 10 35  1  0  0  0  0
 11  6  2  0  0  0  0
 11 36  1  0  0  0  0
 12 16  1  0  0  0  0
 12 37  1  0  0  0  0
 13  5  1  0  0  0  0
 13 38  1  0  0  0  0
 13 39  1  0  0  0  0
 14 11  1  0  0  0  0
 14 20  1  0  0  0  0
 15 19  1  0  0  0  0
 15 21  1  0  0  0  0
 15 22  1  0  0  0  0
 16 14  2  0  0  0  0
 16 40  1  0  0  0  0
 17 25  1  0  0  0  0
 17 26  1  0  0  0  0
 17 27  1  0  0  0  0
 18 13  1  0  0  0  0
 18 23  2  0  0  0  0
 19  3  1  0  0  0  0
 19  4  2  0  0  0  0
 20 30  1  0  0  0  0
 20 31  1  0  0  0  0
 20 41  1  0  0  0  0
 21 42  1  0  0  0  0
 21 43  1  0  0  0  0
 21 44  1  0  0  0  0
 22 45  1  0  0  0  0
 22 46  1  0  0  0  0
 22 47  1  0  0  0  0
 23 28  1  0  0  0  0
 23 48  1  0  0  0  0
 24 18  1  0  0  0  0
 24 49  1  0  0  0  0
 25 50  1  0  0  0  0
 25 51  1  0  0  0  0
 25 52  1  0  0  0  0
 26 53  1  0  0  0  0
 26 54  1  0  0  0  0
 26 55  1  0  0  0  0
 27 56  1  0  0  0  0
 27 57  1  0  0  0  0
 27 58  1  0  0  0  0
 28 32  2  0  0  0  0
 28 59  1  0  0  0  0
 29 24  2  0  0  0  0
 29 60  1  0  0  0  0
 30 61  1  0  0  0  0
 30 62  1  0  0  0  0
 30 63  1  0  0  0  0
 31 64  1  0  0  0  0
 31 65  1  0  0  0  0
 31 66  1  0  0  0  0
 32 29  1  0  0  0  0
M  END
>  <DRUGBANK_ID>
DB16739

>  <COMMON_NAME>
MK-886

>  <CAS_NUMBER>
118414-82-7

>  <UNII>
080626SQ8C

$$$$
