
 OpenBabel10282417163D

 40 41  0  0  0  0  0  0  0  0999 V2000
   -0.0656   -0.5854    0.0306 C   0  0  0  0  0  0  0  0  0  0  0  0
   -0.0671    0.8207    0.1068 C   0  0  0  0  0  0  0  0  0  0  0  0
    1.1249   -1.2404   -0.2379 N   0  3  0  0  0  0  0  0  0  0  0  0
   -1.2638   -1.3220    0.0991 C   0  0  0  0  0  0  0  0  0  0  0  0
    1.1594    1.5015    0.0826 C   0  0  0  0  0  0  0  0  0  0  0  0
   -1.3120    1.4501    0.0886 C   0  0  0  0  0  0  0  0  0  0  0  0
    2.3497   -0.5632   -0.1474 C   0  0  0  0  0  0  0  0  0  0  0  0
    1.0336   -2.4339   -0.6732 O   0  5  0  0  0  0  0  0  0  0  0  0
   -2.4740   -0.6760   -0.0277 C   0  0  0  0  0  0  0  0  0  0  0  0
    2.3615    0.8254   -0.0105 C   0  0  0  0  0  0  0  0  0  0  0  0
    1.1615    2.8696    0.1080 O   0  0  0  0  0  0  0  0  0  0  0  0
   -2.4851    0.7139   -0.1072 C   0  0  0  0  0  0  0  0  0  0  0  0
    3.6537   -1.3156   -0.1832 C   0  0  0  0  0  0  0  0  0  0  0  0
    3.8672   -2.1842    1.0669 C   0  0  0  0  0  0  0  0  0  0  0  0
    2.8634   -3.3304    1.1737 C   0  0  0  0  0  0  0  0  0  0  0  0
    2.8803   -4.1981   -0.1045 C   0  0  0  0  0  0  0  0  0  0  0  0
    4.1840   -4.9565   -0.2583 C   0  0  0  0  0  0  0  0  0  0  0  0
    4.4058   -5.8731    0.9319 C   0  0  0  0  0  0  0  0  0  0  0  0
    3.2658   -6.8739    1.0509 C   0  0  0  0  0  0  0  0  0  0  0  0
   -1.2293   -2.4135    0.1620 H   0  0  0  0  0  0  0  0  0  0  0  0
   -1.3632    2.5357    0.1445 H   0  0  0  0  0  0  0  0  0  0  0  0
   -3.3882   -1.2545   -0.1117 H   0  0  0  0  0  0  0  0  0  0  0  0
    3.3112    1.3504   -0.0322 H   0  0  0  0  0  0  0  0  0  0  0  0
    2.0720    3.1910    0.0016 H   0  0  0  0  0  0  0  0  0  0  0  0
   -3.4082    1.2288   -0.3456 H   0  0  0  0  0  0  0  0  0  0  0  0
    3.7454   -1.8757   -1.1182 H   0  0  0  0  0  0  0  0  0  0  0  0
    4.4872   -0.6022   -0.2185 H   0  0  0  0  0  0  0  0  0  0  0  0
    4.8839   -2.5960    1.0487 H   0  0  0  0  0  0  0  0  0  0  0  0
    3.8145   -1.5705    1.9741 H   0  0  0  0  0  0  0  0  0  0  0  0
    3.0593   -3.9246    2.0696 H   0  0  0  0  0  0  0  0  0  0  0  0
    1.8677   -2.9357    1.3970 H   0  0  0  0  0  0  0  0  0  0  0  0
    2.0064   -4.8579   -0.1160 H   0  0  0  0  0  0  0  0  0  0  0  0
    2.7838   -3.6275   -1.0306 H   0  0  0  0  0  0  0  0  0  0  0  0
    4.1572   -5.5273   -1.1933 H   0  0  0  0  0  0  0  0  0  0  0  0
    5.0156   -4.2498   -0.3645 H   0  0  0  0  0  0  0  0  0  0  0  0
    5.3630   -6.3840    0.8187 H   0  0  0  0  0  0  0  0  0  0  0  0
    4.4880   -5.2944    1.8580 H   0  0  0  0  0  0  0  0  0  0  0  0
    3.2024   -7.4746    0.1387 H   0  0  0  0  0  0  0  0  0  0  0  0
    3.4188   -7.5260    1.9098 H   0  0  0  0  0  0  0  0  0  0  0  0
    2.2932   -6.3904    1.1970 H   0  0  0  0  0  0  0  0  0  0  0  0
  1  2  1  0  0  0  0
  1  3  1  0  0  0  0
  1  4  2  0  0  0  0
  2  5  1  0  0  0  0
  2  6  2  0  0  0  0
  3  7  2  0  0  0  0
  3  8  1  0  0  0  0
  4  9  1  0  0  0  0
  4 20  1  0  0  0  0
  5 10  2  0  0  0  0
  5 11  1  0  0  0  0
  6 12  1  0  0  0  0
  6 21  1  0  0  0  0
  7 13  1  0  0  0  0
  7 10  1  0  0  0  0
  9 12  2  0  0  0  0
  9 22  1  0  0  0  0
 10 23  1  0  0  0  0
 11 24  1  0  0  0  0
 12 25  1  0  0  0  0
 13 14  1  0  0  0  0
 13 26  1  0  0  0  0
 13 27  1  0  0  0  0
 14 15  1  0  0  0  0
 14 28  1  0  0  0  0
 14 29  1  0  0  0  0
 15 16  1  0  0  0  0
 15 30  1  0  0  0  0
 15 31  1  0  0  0  0
 16 17  1  0  0  0  0
 16 32  1  0  0  0  0
 16 33  1  0  0  0  0
 17 18  1  0  0  0  0
 17 34  1  0  0  0  0
 17 35  1  0  0  0  0
 18 19  1  0  0  0  0
 18 36  1  0  0  0  0
 18 37  1  0  0  0  0
 19 38  1  0  0  0  0
 19 39  1  0  0  0  0
 19 40  1  0  0  0  0
M  CHG  2   3   1   8  -1
M  END
>  <DRUGBANK_ID>
DB07918

>  <COMMON_NAME>
2-heptyl-4-hydroxyquinoline N-oxide

>  <CAS_NUMBER>
341-88-8

>  <UNII>
1FU5S5CG6A

>  <SYNONYMS>
2-(n-heptyl)-4-hydroxyquinoline N-oxide; 2-heptyl-4-hydroxyquinoline N-oxide; 2-heptyl-4-hydroxyquinoline-N-oxide; 2-heptyl-4-quinolinol 1-oxide; HOQNO; HQNO

$$$$
