
 OpenBabel10282417173D

 97100  0  0  1  0  0  0  0  0999 V2000
   -0.8089   -0.5417    7.8568 O   0  0  0  0  0  0  0  0  0  0  0  0
    0.2648   -2.6061    7.9534 O   0  0  0  0  0  0  0  0  0  0  0  0
   -1.1703   -3.5447    4.0222 O   0  0  0  0  0  0  0  0  0  0  0  0
    3.5672    1.0539    4.7233 O   0  0  0  0  0  0  0  0  0  0  0  0
    1.2651    0.9309    5.2108 O   0  0  0  0  0  0  0  0  0  0  0  0
    1.8382    3.7833    6.7338 O   0  0  0  0  0  0  0  0  0  0  0  0
    0.4532   -5.4729    5.6297 O   0  0  0  0  0  0  0  0  0  0  0  0
    0.9667   -2.8120    3.3729 O   0  0  0  0  0  0  0  0  0  0  0  0
    2.0094   -0.4863    8.8786 O   0  0  0  0  0  0  0  0  0  0  0  0
    3.9943   -1.1097    6.6127 O   0  0  0  0  0  0  0  0  0  0  0  0
    5.1195    1.9491    6.4224 O   0  0  0  0  0  0  0  0  0  0  0  0
   -2.1533   -0.2274    3.1425 O   0  0  0  0  0  0  0  0  0  0  0  0
   -0.0237    3.8376    5.0224 O   0  0  0  0  0  0  0  0  0  0  0  0
    2.9825   -3.3027    8.1300 O   0  0  0  0  0  0  0  0  0  0  0  0
   -0.3592    1.2937    2.9019 O   0  0  0  0  0  0  0  0  0  0  0  0
    1.8156    0.4645    2.6135 O   0  0  0  0  0  0  0  0  0  0  0  0
   -2.0873    1.7415    6.8496 O   0  0  0  0  0  0  0  0  0  0  0  0
    3.2921    3.7467    9.2141 O   0  0  0  0  0  0  0  0  0  0  0  0
   -1.9874    1.6444    4.6807 O   0  0  0  0  0  0  0  0  0  0  0  0
   -4.4895   -0.7849    4.6637 O   0  0  0  0  0  0  0  0  0  0  0  0
    4.3834   -1.2770    3.4848 O   0  0  0  0  0  0  0  0  0  0  0  0
    3.5986   -3.2434    4.0093 O   0  0  0  0  0  0  0  0  0  0  0  0
    2.1109    2.1806    0.6797 O   0  0  0  0  0  0  0  0  0  0  0  0
   -2.7343   -1.7128    5.6105 N   0  0  0  0  0  0  0  0  0  0  0  0
    2.0297    2.9778    2.7999 N   0  0  0  0  0  0  0  0  0  0  0  0
   -1.0668   -3.6177    5.4786 C   0  0  3  0  0  0  0  0  0  0  0  0
   -1.3973   -2.2958    6.0938 C   0  0  2  0  0  0  0  0  0  0  0  0
   -0.9540   -1.9871    7.5788 C   0  0  2  0  0  0  0  0  0  0  0  0
    0.3236   -4.0862    5.9413 C   0  0  1  0  0  0  0  0  0  0  0  0
    0.3414    0.1961    7.3359 C   0  0  1  0  0  0  0  0  0  0  0  0
    0.5879   -3.8864    7.4410 C   0  0  1  0  0  0  0  0  0  0  0  0
    1.7159   -0.5313    7.4966 C   0  0  1  0  0  0  0  0  0  0  0  0
    2.9695   -0.1075    6.7622 C   0  0  2  0  0  0  0  0  0  0  0  0
    3.5602    2.4997    4.7601 C   0  0  3  0  0  0  0  0  0  0  0  0
    2.5418    0.3380    5.4053 C   0  0  2  0  0  0  0  0  0  0  0  0
    0.0751    0.6003    5.9337 C   0  0  1  0  0  0  0  0  0  0  0  0
    2.3278    3.2511    4.2610 C   0  0  2  0  0  0  0  0  0  0  0  0
    4.0084    2.8298    6.1522 C   0  0  1  0  0  0  0  0  0  0  0  0
   -0.4597   -2.5483    3.2381 C   0  0  2  0  0  0  0  0  0  0  0  0
    2.8071    2.7451    7.1110 C   0  0  1  0  0  0  0  0  0  0  0  0
   -0.9753   -0.9733    3.4289 C   0  0  1  0  0  0  0  0  0  0  0  0
    1.2490    3.3987    5.4347 C   0  0  1  0  0  0  0  0  0  0  0  0
    2.0793   -4.3101    7.6990 C   0  0  0  0  0  0  0  0  0  0  0  0
   -0.1154   -0.1385    2.6596 C   0  0  2  0  0  0  0  0  0  0  0  0
    1.2050   -0.6048    3.0848 C   0  0  1  0  0  0  0  0  0  0  0  0
    1.8979   -1.8756    2.7892 C   0  0  1  0  0  0  0  0  0  0  0  0
   -1.4594    1.3661    5.7029 C   0  0  0  0  0  0  0  0  0  0  0  0
    3.3061    2.5232    8.5551 C   0  0  0  0  0  0  0  0  0  0  0  0
   -3.5195   -1.5426    4.4534 C   0  0  0  0  0  0  0  0  0  0  0  0
    3.3571   -2.1713    3.4792 C   0  0  0  0  0  0  0  0  0  0  0  0
    2.7066    2.3067    1.7653 C   0  0  0  0  0  0  0  0  0  0  0  0
   -3.3320   -2.0789    2.8728 C   0  0  0  0  0  0  0  0  0  0  0  0
    3.8765    1.3185    2.0031 C   0  0  0  0  0  0  0  0  0  0  0  0
   -0.3365   -5.9257    5.9700 H   0  0  0  0  0  0  0  0  0  0  0  0
    1.5247    0.2654    9.2601 H   0  0  0  0  0  0  0  0  0  0  0  0
    4.8154   -0.6178    6.3889 H   0  0  0  0  0  0  0  0  0  0  0  0
    5.2963    1.4164    5.6148 H   0  0  0  0  0  0  0  0  0  0  0  0
   -2.0089    0.7467    3.2560 H   0  0  0  0  0  0  0  0  0  0  0  0
   -0.2027    4.7194    5.3557 H   0  0  0  0  0  0  0  0  0  0  0  0
    3.3609   -2.8295    7.3598 H   0  0  0  0  0  0  0  0  0  0  0  0
   -0.0795    1.6028    3.7851 H   0  0  0  0  0  0  0  0  0  0  0  0
    1.4017    0.7229    1.7508 H   0  0  0  0  0  0  0  0  0  0  0  0
   -1.5799    1.6385    7.6551 H   0  0  0  0  0  0  0  0  0  0  0  0
    3.4673    4.3881    8.5065 H   0  0  0  0  0  0  0  0  0  0  0  0
    4.2871   -0.3687    3.8362 H   0  0  0  0  0  0  0  0  0  0  0  0
   -3.1394   -1.0835    6.3052 H   0  0  0  0  0  0  0  0  0  0  0  0
    1.1176    3.2915    2.4638 H   0  0  0  0  0  0  0  0  0  0  0  0
   -1.8231   -4.3328    5.8102 H   0  0  0  0  0  0  0  0  0  0  0  0
   -0.5520   -1.8504    5.6451 H   0  0  0  0  0  0  0  0  0  0  0  0
   -1.7174   -2.3353    8.2735 H   0  0  0  0  0  0  0  0  0  0  0  0
    1.1212   -3.5569    5.4142 H   0  0  0  0  0  0  0  0  0  0  0  0
    0.3565    1.1510    7.8721 H   0  0  0  0  0  0  0  0  0  0  0  0
   -0.0489   -4.5730    7.9970 H   0  0  0  0  0  0  0  0  0  0  0  0
    1.6470   -1.5293    7.0954 H   0  0  0  0  0  0  0  0  0  0  0  0
    3.5332    0.5991    7.3171 H   0  0  0  0  0  0  0  0  0  0  0  0
    4.3719    2.8117    4.0957 H   0  0  0  0  0  0  0  0  0  0  0  0
    2.5805   -0.6252    4.9361 H   0  0  0  0  0  0  0  0  0  0  0  0
   -0.0230   -0.3557    5.5755 H   0  0  0  0  0  0  0  0  0  0  0  0
    2.5905    4.3071    4.1908 H   0  0  0  0  0  0  0  0  0  0  0  0
    4.3805    3.8483    6.2016 H   0  0  0  0  0  0  0  0  0  0  0  0
   -0.6352   -2.7837    2.1909 H   0  0  0  0  0  0  0  0  0  0  0  0
    2.1990    1.8731    7.0217 H   0  0  0  0  0  0  0  0  0  0  0  0
   -1.0072   -0.8085    4.4460 H   0  0  0  0  0  0  0  0  0  0  0  0
    0.8292    2.5328    5.8396 H   0  0  0  0  0  0  0  0  0  0  0  0
    2.0643   -5.0680    8.4840 H   0  0  0  0  0  0  0  0  0  0  0  0
    2.5220   -4.7957    6.8199 H   0  0  0  0  0  0  0  0  0  0  0  0
   -0.3451   -0.2194    1.6055 H   0  0  0  0  0  0  0  0  0  0  0  0
    1.1029   -0.7268    4.1395 H   0  0  0  0  0  0  0  0  0  0  0  0
    2.0027   -1.9860    1.7117 H   0  0  0  0  0  0  0  0  0  0  0  0
    2.7121    1.7983    9.1228 H   0  0  0  0  0  0  0  0  0  0  0  0
    4.3099    2.0651    8.5750 H   0  0  0  0  0  0  0  0  0  0  0  0
   -2.4627   -1.8287    2.2321 H   0  0  0  0  0  0  0  0  0  0  0  0
   -3.2595   -3.1440    2.7505 H   0  0  0  0  0  0  0  0  0  0  0  0
   -4.0060   -1.4852    2.2229 H   0  0  0  0  0  0  0  0  0  0  0  0
    4.8100    1.6842    2.3844 H   0  0  0  0  0  0  0  0  0  0  0  0
    3.5855    0.6976    2.8098 H   0  0  0  0  0  0  0  0  0  0  0  0
    3.9270    0.4844    1.2791 H   0  0  0  0  0  0  0  0  0  0  0  0
  2 28  1  0  0  0  0
  2 31  1  0  0  0  0
  3 26  1  0  0  0  0
  4 34  1  0  0  0  0
  5 35  1  0  0  0  0
  5 36  1  0  0  0  0
  6 40  1  0  0  0  0
  6 42  1  0  0  0  0
  7 54  1  0  0  0  0
  8 39  1  0  0  0  0
  8 46  1  0  0  0  0
  9 55  1  0  0  0  0
 10 56  1  0  0  0  0
 11 57  1  0  0  0  0
 12 58  1  0  0  0  0
 13 59  1  0  0  0  0
 14 43  1  0  0  0  0
 14 60  1  0  0  0  0
 15 61  1  0  0  0  0
 16 62  1  0  0  0  0
 17 47  1  0  0  0  0
 17 63  1  0  0  0  0
 18 48  1  0  0  0  0
 18 64  1  0  0  0  0
 19 47  2  0  0  0  0
 20 49  2  0  0  0  0
 21 50  1  0  0  0  0
 21 65  1  0  0  0  0
 22 50  2  0  0  0  0
 23 51  2  0  0  0  0
 24 49  1  0  0  0  0
 24 66  1  0  0  0  0
 25 51  1  0  0  0  0
 25 67  1  0  0  0  0
 26 27  1  0  0  0  0
 26 29  1  0  0  0  0
 26 68  1  0  0  0  0
 27 28  1  0  0  0  0
 27 69  1  6  0  0  0
 27 24  1  0  0  0  0
 28 70  1  1  0  0  0
 28  1  1  0  0  0  0
 29  7  1  0  0  0  0
 29 31  1  0  0  0  0
 29 71  1  6  0  0  0
 30  1  1  0  0  0  0
 30 32  1  0  0  0  0
 30 36  1  0  0  0  0
 30 72  1  1  0  0  0
 31 73  1  1  0  0  0
 31 43  1  0  0  0  0
 32  9  1  0  0  0  0
 32 33  1  0  0  0  0
 32 74  1  6  0  0  0
 33 35  1  0  0  0  0
 33 75  1  1  0  0  0
 33 10  1  0  0  0  0
 34 37  1  0  0  0  0
 34 38  1  0  0  0  0
 34 76  1  0  0  0  0
 35  4  1  0  0  0  0
 35 77  1  6  0  0  0
 36 78  1  6  0  0  0
 36 47  1  0  0  0  0
 37 42  1  0  0  0  0
 37 79  1  6  0  0  0
 37 25  1  0  0  0  0
 38 11  1  0  0  0  0
 38 40  1  0  0  0  0
 38 80  1  1  0  0  0
 39 41  1  0  0  0  0
 39 81  1  6  0  0  0
 39  3  1  0  0  0  0
 40 82  1  6  0  0  0
 40 48  1  0  0  0  0
 41 44  1  0  0  0  0
 41 83  1  1  0  0  0
 41 12  1  0  0  0  0
 42 13  1  0  0  0  0
 42 84  1  1  0  0  0
 43 85  1  0  0  0  0
 43 86  1  0  0  0  0
 44 15  1  0  0  0  0
 44 45  1  0  0  0  0
 44 87  1  6  0  0  0
 45 16  1  0  0  0  0
 45 46  1  0  0  0  0
 45 88  1  1  0  0  0
 46 89  1  6  0  0  0
 46 50  1  0  0  0  0
 48 90  1  0  0  0  0
 48 91  1  0  0  0  0
 49 52  1  0  0  0  0
 51 53  1  0  0  0  0
 52 92  1  0  0  0  0
 52 93  1  0  0  0  0
 52 94  1  0  0  0  0
 53 95  1  0  0  0  0
 53 96  1  0  0  0  0
 53 97  1  0  0  0  0
M  END
>  <DRUGBANK_ID>
DB08818

>  <COMMON_NAME>
Hyaluronic acid

>  <CAS_NUMBER>
9004-61-9

>  <UNII>
S270N0TRQY

>  <SYNONYMS>
Hyaluronan; Hyaluronate

$$$$
