SX2
 OpenBabel10282417173D

 24 24  0  0  0  0  0  0  0  0999 V2000
   -1.6036    0.0147   -0.0191 Br  0  0  0  0  0  0  0  0  0  0  0  0
    0.2788    0.0605   -0.0218 C   0  0  0  0  0  0  0  0  0  0  0  0
    1.0076   -1.1061   -0.0320 C   0  0  0  0  0  0  0  0  0  0  0  0
    2.3542   -1.1264   -0.0013 N   0  0  0  0  0  0  0  0  0  0  0  0
    0.9779    1.2624   -0.0067 C   0  0  0  0  0  0  0  0  0  0  0  0
    2.3829    1.2506    0.0053 C   0  0  0  0  0  0  0  0  0  0  0  0
    3.0444    0.0270    0.0187 C   0  0  0  0  0  0  0  0  0  0  0  0
    4.4577   -0.0252    0.0800 N   0  0  0  0  0  0  0  0  0  0  0  0
    5.1386   -1.2311    0.0013 C   0  0  0  0  0  0  0  0  0  0  0  0
    4.6287   -2.3141   -0.2692 O   0  0  0  0  0  0  0  0  0  0  0  0
    6.6481   -1.1880    0.1773 C   0  0  0  0  0  0  0  0  0  0  0  0
    7.1464   -1.9514    1.4103 C   0  0  0  0  0  0  0  0  0  0  0  0
    6.7007   -3.4028    1.5180 C   0  0  0  0  0  0  0  0  0  0  0  0
    7.6953   -4.3155    1.4666 O   0  0  0  0  0  0  0  0  0  0  0  0
    5.5501   -3.7566    1.7395 O   0  0  0  0  0  0  0  0  0  0  0  0
    0.5460   -2.0884   -0.0628 H   0  0  0  0  0  0  0  0  0  0  0  0
    0.4389    2.2056   -0.0017 H   0  0  0  0  0  0  0  0  0  0  0  0
    2.9205    2.1917    0.0044 H   0  0  0  0  0  0  0  0  0  0  0  0
    4.9606    0.8488    0.1155 H   0  0  0  0  0  0  0  0  0  0  0  0
    7.0678   -1.6503   -0.7259 H   0  0  0  0  0  0  0  0  0  0  0  0
    7.0140   -0.1548    0.1961 H   0  0  0  0  0  0  0  0  0  0  0  0
    8.2433   -1.9112    1.4333 H   0  0  0  0  0  0  0  0  0  0  0  0
    6.8092   -1.4490    2.3243 H   0  0  0  0  0  0  0  0  0  0  0  0
    8.6062   -3.9780    1.4314 H   0  0  0  0  0  0  0  0  0  0  0  0
  1  2  1  0  0  0  0
  2  5  2  0  0  0  0
  2  3  1  0  0  0  0
  3  4  2  0  0  0  0
  3 16  1  0  0  0  0
  4  7  1  0  0  0  0
  5  6  1  0  0  0  0
  5 17  1  0  0  0  0
  6  7  2  0  0  0  0
  6 18  1  0  0  0  0
  7  8  1  0  0  0  0
  8 19  1  0  0  0  0
  9  8  1  0  0  0  0
  9 11  1  0  0  0  0
 10  9  2  0  0  0  0
 11 12  1  0  0  0  0
 11 20  1  0  0  0  0
 11 21  1  0  0  0  0
 12 22  1  0  0  0  0
 12 23  1  0  0  0  0
 13 12  1  0  0  0  0
 13 14  1  0  0  0  0
 14 24  1  0  0  0  0
 15 13  2  0  0  0  0
M  END
>  <DRUGBANK_ID>
DB08578

>  <COMMON_NAME>
4-[(5-bromopyridin-2-yl)amino]-4-oxobutanoic acid

$$$$
