
 OpenBabel10282417123D

 85 87  0  0  0  0  0  0  0  0999 V2000
   11.1117   -9.8382    4.4110 S   0  0  0  0  0  0  0  0  0  0  0  0
    9.0157   -4.7210   -4.6438 P   0  0  0  0  0  0  0  0  0  0  0  0
   11.8138   -4.5475   -0.6032 P   0  0  1  0  0  0  0  0  0  0  0  0
   10.9588   -2.5672   -2.4792 P   0  0  1  0  0  0  0  0  0  0  0  0
    9.6682   -7.8794   -1.8827 O   0  0  0  0  0  0  0  0  0  0  0  0
    9.8336   -4.0513   -3.2743 O   0  0  0  0  0  0  0  0  0  0  0  0
    7.0666   -6.1725   -3.3313 O   0  0  0  0  0  0  0  0  0  0  0  0
   12.3585   -6.1236   -1.0638 O   0  0  0  0  0  0  0  0  0  0  0  0
    8.1660   -3.3460   -4.6110 O   0  0  0  0  0  0  0  0  0  0  0  0
   10.3364   -4.2976   -5.4883 O   0  0  0  0  0  0  0  0  0  0  0  0
   11.7880   -4.0705   -2.2659 O   0  0  0  0  0  0  0  0  0  0  0  0
   10.7461   -1.6475   -0.9327 O   0  0  0  0  0  0  0  0  0  0  0  0
    8.2836   -5.3204   -5.8694 O   0  0  0  0  0  0  0  0  0  0  0  0
   12.9018   -3.3212    1.4400 O   0  0  0  0  0  0  0  0  0  0  0  0
   10.9304   -5.8686   -0.0792 O   0  0  0  0  0  0  0  0  0  0  0  0
   11.3264   -3.1369   -0.1908 O   0  0  0  0  0  0  0  0  0  0  0  0
   12.3286   -2.0181   -3.1941 O   0  0  0  0  0  0  0  0  0  0  0  0
   12.6146   -6.8871    1.3857 O   0  0  0  0  0  0  0  0  0  0  0  0
   10.2167   -1.2217   -2.6700 O   0  0  0  0  0  0  0  0  0  0  0  0
    8.3902   -6.1172    5.3798 O   0  0  0  0  0  0  0  0  0  0  0  0
   12.6904   -9.9411    4.7699 O   0  0  0  0  0  0  0  0  0  0  0  0
    8.1591   -7.3180    0.2244 N   0  0  0  0  0  0  0  0  0  0  0  0
    9.2949   -6.5841    1.9625 N   0  0  0  0  0  0  0  0  0  0  0  0
    6.0412   -6.0401    0.8522 N   0  0  0  0  0  0  0  0  0  0  0  0
    5.9963   -4.7368    3.1088 N   0  0  0  0  0  0  0  0  0  0  0  0
   11.4736   -5.6476    3.0018 N   0  0  0  0  0  0  0  0  0  0  0  0
    7.8359   -4.1266    4.7089 N   0  0  0  0  0  0  0  0  0  0  0  0
    9.3050   -7.4901    4.2824 N   0  0  0  0  0  0  0  0  0  0  0  0
    9.2516   -5.7805   -2.9299 C   0  0  1  0  0  0  0  0  0  0  0  0
    7.8765   -6.0035   -2.2207 C   0  0  2  0  0  0  0  0  0  0  0  0
   10.3400   -6.9077   -2.8776 C   0  0  1  0  0  0  0  0  0  0  0  0
    8.1996   -7.3628   -1.3083 C   0  0  1  0  0  0  0  0  0  0  0  0
   11.9977   -6.6038   -2.4844 C   0  0  0  0  0  0  0  0  0  0  0  0
    7.2137   -6.6073    1.1376 C   0  0  0  0  0  0  0  0  0  0  0  0
    9.3558   -7.3813    0.8923 C   0  0  0  0  0  0  0  0  0  0  0  0
   10.0071   -4.0161    0.5908 C   0  0  0  0  0  0  0  0  0  0  0  0
    7.8560   -6.2092    2.3188 C   0  0  0  0  0  0  0  0  0  0  0  0
   12.0154   -4.4658    1.3629 C   0  0  2  0  0  0  0  0  0  0  0  0
    9.6273   -2.3086    0.1464 C   0  0  0  0  0  0  0  0  0  0  0  0
    9.8041   -4.1998   -1.2101 C   0  0  0  0  0  0  0  0  0  0  0  0
    8.8434   -4.7143    0.2936 C   0  0  0  0  0  0  0  0  0  0  0  0
    7.2025   -5.1018    3.4689 C   0  0  0  0  0  0  0  0  0  0  0  0
   12.2153   -5.8385    1.9207 C   0  0  0  0  0  0  0  0  0  0  0  0
    5.5698   -5.2235    1.9075 C   0  0  0  0  0  0  0  0  0  0  0  0
   10.8742   -4.3381    3.1848 C   0  0  0  0  0  0  0  0  0  0  0  0
    9.4965   -4.6059    3.2844 C   0  0  0  0  0  0  0  0  0  0  0  0
    9.1632   -6.1418    4.3890 C   0  0  0  0  0  0  0  0  0  0  0  0
    9.7128   -8.4507    3.2911 C   0  0  0  0  0  0  0  0  0  0  0  0
   11.1830   -8.4939    3.2486 C   0  0  0  0  0  0  0  0  0  0  0  0
   10.7622   -6.3479    2.8135 H   0  0  0  0  0  0  0  0  0  0  0  0
    8.8622   -4.2717    4.9742 H   0  0  0  0  0  0  0  0  0  0  0  0
    7.5698   -4.5905    5.5793 H   0  0  0  0  0  0  0  0  0  0  0  0
    8.6668   -7.8996    4.9471 H   0  0  0  0  0  0  0  0  0  0  0  0
    7.5679   -6.7837   -3.8997 H   0  0  0  0  0  0  0  0  0  0  0  0
    7.2792   -3.5116   -4.2311 H   0  0  0  0  0  0  0  0  0  0  0  0
   11.1506   -4.1273   -4.9963 H   0  0  0  0  0  0  0  0  0  0  0  0
   12.7935   -2.8073    0.6005 H   0  0  0  0  0  0  0  0  0  0  0  0
   11.1953   -6.6808   -0.5615 H   0  0  0  0  0  0  0  0  0  0  0  0
   12.8929   -2.7217   -3.5503 H   0  0  0  0  0  0  0  0  0  0  0  0
   12.7063  -10.6427    5.4504 H   0  0  0  0  0  0  0  0  0  0  0  0
    9.3389   -5.9663   -1.9223 H   0  0  0  0  0  0  0  0  0  0  0  0
    7.5024   -5.1258   -1.6633 H   0  0  0  0  0  0  0  0  0  0  0  0
   10.3496   -7.2492   -3.9168 H   0  0  0  0  0  0  0  0  0  0  0  0
    7.5143   -8.1522   -1.5391 H   0  0  0  0  0  0  0  0  0  0  0  0
   12.4596   -5.8818   -3.1769 H   0  0  0  0  0  0  0  0  0  0  0  0
   12.5782   -7.5266   -2.6425 H   0  0  0  0  0  0  0  0  0  0  0  0
   10.3063   -7.8265    0.5614 H   0  0  0  0  0  0  0  0  0  0  0  0
   12.9780   -4.9160    0.7552 H   0  0  0  0  0  0  0  0  0  0  0  0
    8.6711   -2.3158   -0.4002 H   0  0  0  0  0  0  0  0  0  0  0  0
    9.7334   -1.8579    1.1121 H   0  0  0  0  0  0  0  0  0  0  0  0
   10.2609   -5.1472   -1.3641 H   0  0  0  0  0  0  0  0  0  0  0  0
    8.9111   -3.7789   -1.6624 H   0  0  0  0  0  0  0  0  0  0  0  0
   10.4370   -4.8165   -2.0321 H   0  0  0  0  0  0  0  0  0  0  0  0
    8.9666   -5.5935   -0.2835 H   0  0  0  0  0  0  0  0  0  0  0  0
    8.9808   -5.0860    1.1682 H   0  0  0  0  0  0  0  0  0  0  0  0
    7.8505   -4.3021    0.1505 H   0  0  0  0  0  0  0  0  0  0  0  0
    4.5626   -4.8941    1.7427 H   0  0  0  0  0  0  0  0  0  0  0  0
   10.8706   -3.5200    2.4277 H   0  0  0  0  0  0  0  0  0  0  0  0
   11.2662   -3.8196    4.0115 H   0  0  0  0  0  0  0  0  0  0  0  0
    8.8253   -4.3341    2.4448 H   0  0  0  0  0  0  0  0  0  0  0  0
    9.1501   -3.5333    3.4282 H   0  0  0  0  0  0  0  0  0  0  0  0
    8.9594   -8.1155    2.6653 H   0  0  0  0  0  0  0  0  0  0  0  0
    9.2665   -9.3382    2.7844 H   0  0  0  0  0  0  0  0  0  0  0  0
   11.7155   -7.6644    3.7268 H   0  0  0  0  0  0  0  0  0  0  0  0
   11.6089   -8.7133    2.2701 H   0  0  0  0  0  0  0  0  0  0  0  0
  1 21  1  0  0  0  0
  1 49  1  0  0  0  0
  2  6  1  0  0  0  0
  2  9  1  0  0  0  0
  2 10  1  0  0  0  0
  2 13  2  0  0  0  0
  3 15  1  0  0  0  0
  3 16  2  1  0  0  0
  3 11  1  0  0  0  0
  3  8  1  0  0  0  0
  4 17  1  0  0  0  0
  4 19  2  6  0  0  0
  4 12  1  0  0  0  0
  4 11  1  0  0  0  0
  5 31  1  0  0  0  0
  5 32  1  0  0  0  0
  7 54  1  0  0  0  0
  8 33  1  0  0  0  0
  9 55  1  0  0  0  0
 10 56  1  0  0  0  0
 12 39  1  0  0  0  0
 14 57  1  0  0  0  0
 15 58  1  0  0  0  0
 17 59  1  0  0  0  0
 18 43  2  0  0  0  0
 20 47  2  0  0  0  0
 21 60  1  0  0  0  0
 22 34  1  0  0  0  0
 22 35  1  0  0  0  0
 23 35  2  0  0  0  0
 23 37  1  0  0  0  0
 24 34  2  0  0  0  0
 24 44  1  0  0  0  0
 25 42  1  0  0  0  0
 25 44  2  0  0  0  0
 26 43  1  0  0  0  0
 26 45  1  0  0  0  0
 26 50  1  0  0  0  0
 27 42  1  0  0  0  0
 27 51  1  0  0  0  0
 27 52  1  0  0  0  0
 28 47  1  0  0  0  0
 28 48  1  0  0  0  0
 28 53  1  0  0  0  0
 29  6  1  0  0  0  0
 29 30  1  0  0  0  0
 29 31  1  0  0  0  0
 29 61  1  1  0  0  0
 30  7  1  0  0  0  0
 30 32  1  0  0  0  0
 30 62  1  1  0  0  0
 31 63  1  6  0  0  0
 31 33  1  0  0  0  0
 32 22  1  0  0  0  0
 32 64  1  6  0  0  0
 33 65  1  0  0  0  0
 33 66  1  0  0  0  0
 34 37  1  0  0  0  0
 35 67  1  0  0  0  0
 36 39  1  0  0  0  0
 36 40  1  0  0  0  0
 36 41  1  0  0  0  0
 37 42  2  0  0  0  0
 38 43  1  0  0  0  0
 38 68  1  6  0  0  0
 38 36  1  0  0  0  0
 38 14  1  0  0  0  0
 39 69  1  0  0  0  0
 39 70  1  0  0  0  0
 40 71  1  0  0  0  0
 40 72  1  0  0  0  0
 40 73  1  0  0  0  0
 41 74  1  0  0  0  0
 41 75  1  0  0  0  0
 41 76  1  0  0  0  0
 44 77  1  0  0  0  0
 45 46  1  0  0  0  0
 45 78  1  0  0  0  0
 45 79  1  0  0  0  0
 46 47  1  0  0  0  0
 46 80  1  0  0  0  0
 46 81  1  0  0  0  0
 48 49  1  0  0  0  0
 48 82  1  0  0  0  0
 48 83  1  0  0  0  0
 49 84  1  0  0  0  0
 49 85  1  0  0  0  0
M  END
>  <DRUGBANK_ID>
DB01846

>  <SECONDARY_ACCESSION_NUMBERS>
EXPT00829

>  <COMMON_NAME>
Oxidized coenzyme A

$$$$
