
 OpenBabel10282417213D

 20 20  0  0  0  0  0  0  0  0999 V2000
   -1.1669   -1.2070   -0.0211 C   0  0  0  0  0  0  0  0  0  0  0  0
   -1.1449    1.2163   -0.0267 C   0  0  0  0  0  0  0  0  0  0  0  0
    0.2524    1.2065   -0.0146 C   0  0  0  0  0  0  0  0  0  0  0  0
    0.2357   -1.2085   -0.0117 C   0  0  0  0  0  0  0  0  0  0  0  0
    0.9556   -0.0034   -0.0134 C   0  0  0  0  0  0  0  0  0  0  0  0
    2.4591   -0.0095   -0.0145 C   0  0  0  0  0  0  0  0  0  0  0  0
   -1.8534    0.0101   -0.0403 C   0  0  0  0  0  0  0  0  0  0  0  0
   -3.6356    0.0494    0.0216 S   0  0  0  0  0  0  0  0  0  0  0  0
   -4.0994   -0.7440   -1.4158 N   0  0  0  0  0  0  0  0  0  0  0  0
   -5.8209   -0.9018   -1.5661 Cl  0  0  0  0  0  0  0  0  0  0  0  0
   -4.0386   -0.7522    1.1594 O   0  0  0  0  0  0  0  0  0  0  0  0
   -4.0395    1.4314   -0.1221 O   0  0  0  0  0  0  0  0  0  0  0  0
   -1.7057   -2.1517    0.0086 H   0  0  0  0  0  0  0  0  0  0  0  0
   -1.6658    2.1711   -0.0011 H   0  0  0  0  0  0  0  0  0  0  0  0
    0.7888    2.1535    0.0045 H   0  0  0  0  0  0  0  0  0  0  0  0
    0.7701   -2.1573    0.0089 H   0  0  0  0  0  0  0  0  0  0  0  0
    2.8451   -0.5318    0.8668 H   0  0  0  0  0  0  0  0  0  0  0  0
    2.8340   -0.5001   -0.9185 H   0  0  0  0  0  0  0  0  0  0  0  0
    2.8639    1.0090    0.0007 H   0  0  0  0  0  0  0  0  0  0  0  0
   -3.7205   -0.2583   -2.2290 H   0  0  0  0  0  0  0  0  0  0  0  0
  1  7  1  0  0  0  0
  1  4  2  0  0  0  0
  1 13  1  0  0  0  0
  2  3  1  0  0  0  0
  2 14  1  0  0  0  0
  3  5  2  0  0  0  0
  3 15  1  0  0  0  0
  4 16  1  0  0  0  0
  5  4  1  0  0  0  0
  5  6  1  0  0  0  0
  6 17  1  0  0  0  0
  6 18  1  0  0  0  0
  6 19  1  0  0  0  0
  7  2  2  0  0  0  0
  7  8  1  0  0  0  0
  8  9  1  0  0  0  0
  9 10  1  0  0  0  0
  9 20  1  0  0  0  0
 11  8  2  0  0  0  0
 12  8  2  0  0  0  0
M  END
>  <DRUGBANK_ID>
DB14708

>  <COMMON_NAME>
Tosylchloramide

>  <CAS_NUMBER>
144-86-5

>  <UNII>
UF17KA8AC5

>  <SYNONYMS>
N-chloro-p-toluenesulfonamide; N-chlorotoluene-p-sulfonamide

$$$$
