SX5
 OpenBabel10282417173D

 48 49  0  0  0  0  0  0  0  0999 V2000
    2.6214    1.5170   -0.9196 O   0  0  0  0  0  0  0  0  0  0  0  0
    3.3629    0.5505   -0.7858 C   0  0  0  0  0  0  0  0  0  0  0  0
    4.1930    0.3320    0.2689 O   0  0  0  0  0  0  0  0  0  0  0  0
    3.3719   -0.6963   -1.6402 C   0  0  0  0  0  0  0  0  0  0  0  0
    2.7089   -2.0468   -1.2560 C   0  0  0  0  0  0  0  0  0  0  0  0
    1.1752   -2.2634   -1.4143 C   0  0  0  0  0  0  0  0  0  0  0  0
    0.7493   -2.7593   -2.4636 O   0  0  0  0  0  0  0  0  0  0  0  0
    0.2814   -2.0137   -0.3704 N   0  0  0  0  0  0  0  0  0  0  0  0
    0.5032   -1.3276    0.8565 C   0  0  0  0  0  0  0  0  0  0  0  0
    1.4013   -0.3187    0.8103 C   0  0  0  0  0  0  0  0  0  0  0  0
    1.7854    0.6233    1.7726 C   0  0  0  0  0  0  0  0  0  0  0  0
    1.2733    0.5006    3.0001 C   0  0  0  0  0  0  0  0  0  0  0  0
    1.8377    1.6445    4.3808 Br  0  0  0  0  0  0  0  0  0  0  0  0
    0.3232   -0.4864    3.1117 C   0  0  0  0  0  0  0  0  0  0  0  0
   -0.1516   -1.3357    2.0461 C   0  0  0  0  0  0  0  0  0  0  0  0
   -1.2262   -2.3289    2.2425 C   0  0  0  0  0  0  0  0  0  0  0  0
   -1.5011   -3.1410    1.4075 O   0  0  0  0  0  0  0  0  0  0  0  0
   -1.7310   -2.3210    3.5264 N   0  0  0  0  0  0  0  0  0  0  0  0
   -1.7178   -3.5451    4.2751 C   0  0  0  0  0  0  0  0  0  0  0  0
   -1.0860   -3.2526    5.6397 C   0  0  2  0  0  0  0  0  0  0  0  0
   -1.1307   -4.4989    6.5064 C   0  0  0  0  0  0  0  0  0  0  0  0
   -1.8067   -2.0818    6.3530 C   0  0  0  0  0  0  0  0  0  0  0  0
   -2.4453   -1.1935    4.0904 C   0  0  0  0  0  0  0  0  0  0  0  0
   -1.9034   -0.8317    5.4813 C   0  0  1  0  0  0  0  0  0  0  0  0
   -2.7067    0.3102    6.0611 C   0  0  0  0  0  0  0  0  0  0  0  0
   -0.0317   -2.9732    5.4833 H   0  0  0  0  0  0  0  0  0  0  0  0
   -0.8947   -0.4284    5.5003 H   0  0  0  0  0  0  0  0  0  0  0  0
    4.3609    1.1012    0.8447 H   0  0  0  0  0  0  0  0  0  0  0  0
    3.0668   -0.3776   -2.6348 H   0  0  0  0  0  0  0  0  0  0  0  0
    4.4509   -0.8849   -1.6388 H   0  0  0  0  0  0  0  0  0  0  0  0
    3.1566   -2.7475   -1.9838 H   0  0  0  0  0  0  0  0  0  0  0  0
    3.0228   -2.4524   -0.2862 H   0  0  0  0  0  0  0  0  0  0  0  0
   -0.6812   -2.2903   -0.5663 H   0  0  0  0  0  0  0  0  0  0  0  0
    1.6586   -0.2261   -0.1969 H   0  0  0  0  0  0  0  0  0  0  0  0
    2.4413    1.4488    1.5427 H   0  0  0  0  0  0  0  0  0  0  0  0
   -0.0306   -0.6081    4.0940 H   0  0  0  0  0  0  0  0  0  0  0  0
   -2.7515   -3.8883    4.3573 H   0  0  0  0  0  0  0  0  0  0  0  0
   -1.1402   -4.3082    3.7360 H   0  0  0  0  0  0  0  0  0  0  0  0
   -0.6358   -4.3152    7.4640 H   0  0  0  0  0  0  0  0  0  0  0  0
   -2.1675   -4.7895    6.7028 H   0  0  0  0  0  0  0  0  0  0  0  0
   -0.6270   -5.3360    6.0132 H   0  0  0  0  0  0  0  0  0  0  0  0
   -1.2550   -1.8288    7.2660 H   0  0  0  0  0  0  0  0  0  0  0  0
   -2.8162   -2.3860    6.6386 H   0  0  0  0  0  0  0  0  0  0  0  0
   -3.4888   -1.5151    4.1657 H   0  0  0  0  0  0  0  0  0  0  0  0
   -2.4277   -0.3428    3.3962 H   0  0  0  0  0  0  0  0  0  0  0  0
   -2.2717    0.6244    7.0134 H   0  0  0  0  0  0  0  0  0  0  0  0
   -2.6719    1.1724    5.3816 H   0  0  0  0  0  0  0  0  0  0  0  0
   -3.7450    0.0159    6.2065 H   0  0  0  0  0  0  0  0  0  0  0  0
  1  2  2  0  0  0  0
  2  3  1  0  0  0  0
  2  4  1  0  0  0  0
  3 28  1  0  0  0  0
  4 29  1  0  0  0  0
  4 30  1  0  0  0  0
  5  4  1  0  0  0  0
  5 31  1  0  0  0  0
  5 32  1  0  0  0  0
  6  5  1  0  0  0  0
  7  6  2  0  0  0  0
  8  6  1  0  0  0  0
  8 33  1  0  0  0  0
  9  8  1  0  0  0  0
 10  9  2  0  0  0  0
 10 34  1  0  0  0  0
 11 10  1  0  0  0  0
 11 35  1  0  0  0  0
 12 11  2  0  0  0  0
 12 14  1  0  0  0  0
 13 12  1  0  0  0  0
 14 15  2  0  0  0  0
 14 36  1  0  0  0  0
 15  9  1  0  0  0  0
 15 16  1  0  0  0  0
 16 18  1  0  0  0  0
 16 17  2  0  0  0  0
 18 23  1  0  0  0  0
 19 18  1  0  0  0  0
 19 37  1  0  0  0  0
 19 38  1  0  0  0  0
 20 19  1  0  0  0  0
 20 22  1  0  0  0  0
 20 26  1  6  0  0  0
 20 21  1  0  0  0  0
 21 39  1  0  0  0  0
 21 40  1  0  0  0  0
 21 41  1  0  0  0  0
 22 24  1  0  0  0  0
 22 42  1  0  0  0  0
 22 43  1  0  0  0  0
 23 44  1  0  0  0  0
 23 45  1  0  0  0  0
 24 23  1  0  0  0  0
 24 25  1  0  0  0  0
 24 27  1  6  0  0  0
 25 46  1  0  0  0  0
 25 47  1  0  0  0  0
 25 48  1  0  0  0  0
M  END
>  <DRUGBANK_ID>
DB08581

>  <COMMON_NAME>
4-[(4-bromo-2-{[(3R,5S)-3,5-dimethylpiperidin-1-yl]carbonyl}phenyl)amino]-4-oxobutanoic acid

$$$$
