
 OpenBabel10282417223D

 23 22  0  0  1  0  0  0  0  0999 V2000
    5.1310   -6.1095   -0.5168 O   0  0  0  0  0  0  0  0  0  0  0  0
    4.6855   -5.3788    0.6224 C   0  0  0  0  0  0  0  0  0  0  0  0
    3.1574   -5.3367    0.6440 C   0  0  1  0  0  0  0  0  0  0  0  0
    2.6603   -6.6796    0.6926 O   0  0  0  0  0  0  0  0  0  0  0  0
    2.6403   -4.5273    1.8512 C   0  0  1  0  0  0  0  0  0  0  0  0
    3.1290   -3.1831    1.7944 O   0  0  0  0  0  0  0  0  0  0  0  0
    1.0843   -4.5510    1.8908 C   0  0  2  0  0  0  0  0  0  0  0  0
    0.5696   -3.2072    1.9917 O   0  0  0  0  0  0  0  0  0  0  0  0
    0.5706   -5.4436    3.0324 C   0  0  1  0  0  0  0  0  0  0  0  0
   -0.7979   -5.4088    3.0093 F   0  0  0  0  0  0  0  0  0  0  0  0
    1.0522   -6.8687    2.9073 C   0  0  0  0  0  0  0  0  0  0  0  0
    1.8131   -7.4016    3.7195 O   0  0  0  0  0  0  0  0  0  0  0  0
    4.9376   -7.0473   -0.3522 H   0  0  0  0  0  0  0  0  0  0  0  0
    5.0784   -5.8648    1.5226 H   0  0  0  0  0  0  0  0  0  0  0  0
    5.1079   -4.3733    0.5544 H   0  0  0  0  0  0  0  0  0  0  0  0
    2.7921   -4.8919   -0.2892 H   0  0  0  0  0  0  0  0  0  0  0  0
    2.9252   -7.1141   -0.1383 H   0  0  0  0  0  0  0  0  0  0  0  0
    3.0299   -4.9708    2.7763 H   0  0  0  0  0  0  0  0  0  0  0  0
    4.0909   -3.1789    1.9205 H   0  0  0  0  0  0  0  0  0  0  0  0
    0.6801   -4.9336    0.9462 H   0  0  0  0  0  0  0  0  0  0  0  0
   -0.0455   -3.1396    2.7396 H   0  0  0  0  0  0  0  0  0  0  0  0
    0.8777   -5.0442    4.0042 H   0  0  0  0  0  0  0  0  0  0  0  0
    0.7093   -7.4147    2.0134 H   0  0  0  0  0  0  0  0  0  0  0  0
  1  2  1  0  0  0  0
  1 13  1  0  0  0  0
  2 14  1  0  0  0  0
  2 15  1  0  0  0  0
  3  2  1  0  0  0  0
  3  4  1  0  0  0  0
  3 16  1  6  0  0  0
  4 17  1  0  0  0  0
  5  3  1  0  0  0  0
  5  6  1  0  0  0  0
  5 18  1  1  0  0  0
  6 19  1  0  0  0  0
  7  9  1  0  0  0  0
  7 20  1  6  0  0  0
  7  8  1  0  0  0  0
  7  5  1  0  0  0  0
  8 21  1  0  0  0  0
  9 10  1  0  0  0  0
  9 11  1  0  0  0  0
  9 22  1  1  0  0  0
 11 12  2  0  0  0  0
 11 23  1  0  0  0  0
M  END
>  <DRUGBANK_ID>
DB15107

>  <COMMON_NAME>
Fludeoxyglucose

>  <CAS_NUMBER>
29702-43-0

>  <UNII>
ZO2JV75L55

$$$$
