PR2
 OpenBabel10282417173D

 46 50  0  0  0  0  0  0  0  0999 V2000
   -0.1421   -0.7395    0.0036 C   0  0  0  0  0  0  0  0  0  0  0  0
    1.0686   -1.4258    0.0023 C   0  0  0  0  0  0  0  0  0  0  0  0
    2.2154   -0.6567    0.0004 C   0  0  0  0  0  0  0  0  0  0  0  0
    2.0912    0.7236    0.0047 C   0  0  0  0  0  0  0  0  0  0  0  0
    0.9282    1.4176    0.0097 N   0  0  0  0  0  0  0  0  0  0  0  0
   -0.1972    0.6520    0.0053 C   0  0  0  0  0  0  0  0  0  0  0  0
   -1.5462    1.1214   -0.0017 C   0  0  0  0  0  0  0  0  0  0  0  0
   -2.4456    0.0744   -0.0297 C   0  0  0  0  0  0  0  0  0  0  0  0
   -1.6786   -1.4418    0.0029 S   0  0  0  0  0  0  0  0  0  0  0  0
   -7.9947   -0.1172    0.1595 N   0  0  0  0  0  0  0  0  0  0  0  0
   -6.9742   -0.4685    1.0179 C   0  0  0  0  0  0  0  0  0  0  0  0
   -6.2524    0.8053    1.4175 C   0  0  2  0  0  0  0  0  0  0  0  0
   -6.8283    1.8804    0.4964 C   0  0  0  0  0  0  0  0  0  0  0  0
   -8.1577    1.3102    0.0519 C   0  0  0  0  0  0  0  0  0  0  0  0
   -4.7732    0.7300    1.3174 N   0  0  0  0  0  0  0  0  0  0  0  0
   -4.1979   -0.0164   -0.1071 S   0  0  0  0  0  0  0  0  0  0  0  0
   -4.5546    0.7901   -1.2449 O   0  0  0  0  0  0  0  0  0  0  0  0
   -4.5196   -1.4250   -0.0504 O   0  0  0  0  0  0  0  0  0  0  0  0
   -6.6990   -1.5913    1.4099 O   0  0  0  0  0  0  0  0  0  0  0  0
   -8.8761   -1.0971   -0.4301 C   0  0  0  0  0  0  0  0  0  0  0  0
  -12.2197   -0.2083    0.8341 C   0  0  0  0  0  0  0  0  0  0  0  0
  -12.1282   -1.5102    1.3200 C   0  0  0  0  0  0  0  0  0  0  0  0
  -13.1951   -2.0390    2.0495 C   0  0  0  0  0  0  0  0  0  0  0  0
  -14.2792   -1.2013    2.2443 C   0  0  0  0  0  0  0  0  0  0  0  0
  -14.3672    0.0673    1.7834 N   0  0  0  0  0  0  0  0  0  0  0  0
  -13.3378    0.5826    1.0695 C   0  0  0  0  0  0  0  0  0  0  0  0
  -10.8710   -2.0226    0.9233 C   0  0  0  0  0  0  0  0  0  0  0  0
  -10.2158   -1.0431    0.2076 C   0  0  0  0  0  0  0  0  0  0  0  0
  -11.0583    0.0430    0.1403 N   0  0  0  0  0  0  0  0  0  0  0  0
   -6.5377    1.0046    2.4576 H   0  0  0  0  0  0  0  0  0  0  0  0
    1.0888   -2.5098   -0.0011 H   0  0  0  0  0  0  0  0  0  0  0  0
    3.1850   -1.1393   -0.0043 H   0  0  0  0  0  0  0  0  0  0  0  0
    2.9877    1.3384    0.0048 H   0  0  0  0  0  0  0  0  0  0  0  0
   -1.8438    2.1639   -0.0114 H   0  0  0  0  0  0  0  0  0  0  0  0
   -6.9273    2.8507    0.9932 H   0  0  0  0  0  0  0  0  0  0  0  0
   -6.2138    2.0679   -0.3847 H   0  0  0  0  0  0  0  0  0  0  0  0
   -8.9481    1.6331    0.7359 H   0  0  0  0  0  0  0  0  0  0  0  0
   -8.4061    1.5903   -0.9751 H   0  0  0  0  0  0  0  0  0  0  0  0
   -4.3984    0.2279    2.1276 H   0  0  0  0  0  0  0  0  0  0  0  0
   -8.9243   -0.9319   -1.5096 H   0  0  0  0  0  0  0  0  0  0  0  0
   -8.4490   -2.0961   -0.2709 H   0  0  0  0  0  0  0  0  0  0  0  0
  -13.1715   -3.0478    2.4399 H   0  0  0  0  0  0  0  0  0  0  0  0
  -15.1416   -1.5516    2.8045 H   0  0  0  0  0  0  0  0  0  0  0  0
  -13.4479    1.6000    0.7149 H   0  0  0  0  0  0  0  0  0  0  0  0
  -10.4815   -3.0094    1.1391 H   0  0  0  0  0  0  0  0  0  0  0  0
  -10.8470    0.9131   -0.3280 H   0  0  0  0  0  0  0  0  0  0  0  0
  1  2  1  0  0  0  0
  1  6  2  0  0  0  0
  1  9  1  0  0  0  0
  2  3  2  0  0  0  0
  2 31  1  0  0  0  0
  3  4  1  0  0  0  0
  3 32  1  0  0  0  0
  4  5  2  0  0  0  0
  4 33  1  0  0  0  0
  5  6  1  0  0  0  0
  6  7  1  0  0  0  0
  7  8  2  0  0  0  0
  7 34  1  0  0  0  0
  8  9  1  0  0  0  0
  8 16  1  0  0  0  0
 10 11  1  0  0  0  0
 10 14  1  0  0  0  0
 10 20  1  0  0  0  0
 11 12  1  0  0  0  0
 11 19  2  0  0  0  0
 12 13  1  0  0  0  0
 12 15  1  0  0  0  0
 12 30  1  1  0  0  0
 13 14  1  0  0  0  0
 13 35  1  0  0  0  0
 13 36  1  0  0  0  0
 14 37  1  0  0  0  0
 14 38  1  0  0  0  0
 15 16  1  0  0  0  0
 15 39  1  0  0  0  0
 16 17  2  0  0  0  0
 16 18  2  0  0  0  0
 20 28  1  0  0  0  0
 20 40  1  0  0  0  0
 20 41  1  0  0  0  0
 21 22  2  0  0  0  0
 21 26  1  0  0  0  0
 21 29  1  0  0  0  0
 22 23  1  0  0  0  0
 22 27  1  0  0  0  0
 23 24  2  0  0  0  0
 23 42  1  0  0  0  0
 24 25  1  0  0  0  0
 24 43  1  0  0  0  0
 25 26  2  0  0  0  0
 26 44  1  0  0  0  0
 27 28  2  0  0  0  0
 27 45  1  0  0  0  0
 28 29  1  0  0  0  0
 29 46  1  0  0  0  0
M  END
>  <DRUGBANK_ID>
DB08426

>  <COMMON_NAME>
THIENO[3,2-B]PYRIDINE-2-SULFONIC ACID [2-OXO-1-(1H-PYRROLO[2,3-C]PYRIDIN-2-YLMETHYL)-PYRROLIDIN-3-YL]-AMIDE

$$$$
