
 OpenBabel10282417233D

 62 63  0  0  0  0  0  0  0  0999 V2000
    1.5189    0.4360    0.0833 C   0  0  0  0  0  0  0  0  0  0  0  0
    1.3774   -0.9899   -0.3711 C   0  0  0  0  0  0  0  0  0  0  0  0
    1.6653   -2.0901    0.7082 C   0  0  0  0  0  0  0  0  0  0  0  0
    0.6264   -2.0411    1.9181 C   0  0  0  0  0  0  0  0  0  0  0  0
   -0.8308   -2.2812    1.7164 O   0  0  0  0  0  0  0  0  0  0  0  0
   -1.6703   -1.3898    1.0740 C   0  0  0  0  0  0  0  0  0  0  0  0
   -1.8218   -1.4010   -0.3187 C   0  0  0  0  0  0  0  0  0  0  0  0
   -1.4430   -2.3057   -1.2926 O   0  0  0  0  0  0  0  0  0  0  0  0
   -0.4880   -3.2279   -0.8826 C   0  0  0  0  0  0  0  0  0  0  0  0
   -2.4045   -0.3263   -0.9546 C   0  0  0  0  0  0  0  0  0  0  0  0
   -3.2026    0.5746   -0.3167 C   0  0  0  0  0  0  0  0  0  0  0  0
   -3.4396    0.3306    1.0307 C   0  0  0  0  0  0  0  0  0  0  0  0
   -2.6165   -0.5850    1.7509 C   0  0  0  0  0  0  0  0  0  0  0  0
   -2.8981   -0.5841    3.0955 O   0  0  0  0  0  0  0  0  0  0  0  0
   -2.0523   -1.3769    3.9101 C   0  0  0  0  0  0  0  0  0  0  0  0
   -3.8271    1.7100   -1.0395 C   0  0  0  0  0  0  0  0  0  0  0  0
   -4.7377    2.3272   -0.5317 O   0  0  0  0  0  0  0  0  0  0  0  0
   -3.3469    2.1449   -2.2545 N   0  0  0  0  0  0  0  0  0  0  0  0
   -2.3673    1.6975   -3.2530 C   0  0  0  0  0  0  0  0  0  0  0  0
   -2.9286    0.9026   -4.5454 C   0  0  0  0  0  0  0  0  0  0  0  0
   -2.6128   -0.6322   -4.4183 C   0  0  0  0  0  0  0  0  0  0  0  0
   -2.5771   -1.4048   -5.7419 C   0  0  0  0  0  0  0  0  0  0  0  0
   -1.7522   -0.7662   -6.7137 O   0  0  0  0  0  0  0  0  0  0  0  0
   -2.0733    0.5978   -6.9622 C   0  0  0  0  0  0  0  0  0  0  0  0
   -2.0153    1.4149   -5.6905 C   0  0  0  0  0  0  0  0  0  0  0  0
   -4.4003    1.1591   -4.7484 N   0  0  0  0  0  0  0  0  0  0  0  0
   -4.7453    2.5668   -4.9534 C   0  0  0  0  0  0  0  0  0  0  0  0
   -5.0851    0.4275   -5.8151 C   0  0  0  0  0  0  0  0  0  0  0  0
    0.9792    0.5717    1.0247 H   0  0  0  0  0  0  0  0  0  0  0  0
    1.0190    1.0939   -0.6421 H   0  0  0  0  0  0  0  0  0  0  0  0
    2.5612    0.7200    0.1795 H   0  0  0  0  0  0  0  0  0  0  0  0
    0.3320   -0.9420   -0.5999 H   0  0  0  0  0  0  0  0  0  0  0  0
    1.7905   -1.2050   -1.3669 H   0  0  0  0  0  0  0  0  0  0  0  0
    1.6344   -3.1206    0.2944 H   0  0  0  0  0  0  0  0  0  0  0  0
    2.7192   -2.0638    1.0094 H   0  0  0  0  0  0  0  0  0  0  0  0
    0.9066   -2.8748    2.5845 H   0  0  0  0  0  0  0  0  0  0  0  0
    0.7815   -1.1276    2.4897 H   0  0  0  0  0  0  0  0  0  0  0  0
   -0.0538   -2.7398   -0.0817 H   0  0  0  0  0  0  0  0  0  0  0  0
   -0.8487   -4.1122   -0.3745 H   0  0  0  0  0  0  0  0  0  0  0  0
    0.3626   -3.3217   -1.5658 H   0  0  0  0  0  0  0  0  0  0  0  0
   -2.1990   -0.2920   -1.9980 H   0  0  0  0  0  0  0  0  0  0  0  0
   -4.2506    0.8637    1.5255 H   0  0  0  0  0  0  0  0  0  0  0  0
   -2.1438   -2.4376    3.6562 H   0  0  0  0  0  0  0  0  0  0  0  0
   -1.0218   -1.0177    3.8447 H   0  0  0  0  0  0  0  0  0  0  0  0
   -2.3613   -1.2667    4.9506 H   0  0  0  0  0  0  0  0  0  0  0  0
   -3.8429    2.9933   -2.4839 H   0  0  0  0  0  0  0  0  0  0  0  0
   -1.8791    2.6250   -3.5788 H   0  0  0  0  0  0  0  0  0  0  0  0
   -1.5313    1.1735   -2.7908 H   0  0  0  0  0  0  0  0  0  0  0  0
   -1.5983   -0.7466   -4.0064 H   0  0  0  0  0  0  0  0  0  0  0  0
   -3.2893   -1.1268   -3.7090 H   0  0  0  0  0  0  0  0  0  0  0  0
   -2.1588   -2.4027   -5.5632 H   0  0  0  0  0  0  0  0  0  0  0  0
   -3.5525   -1.6153   -6.1774 H   0  0  0  0  0  0  0  0  0  0  0  0
   -3.0136    0.6872   -7.5012 H   0  0  0  0  0  0  0  0  0  0  0  0
   -1.3271    0.9916   -7.6577 H   0  0  0  0  0  0  0  0  0  0  0  0
   -2.2001    2.4740   -5.8936 H   0  0  0  0  0  0  0  0  0  0  0  0
   -0.9740    1.3636   -5.3367 H   0  0  0  0  0  0  0  0  0  0  0  0
   -4.2719    2.9714   -5.8488 H   0  0  0  0  0  0  0  0  0  0  0  0
   -5.8303    2.6738   -5.0567 H   0  0  0  0  0  0  0  0  0  0  0  0
   -4.4866    3.2199   -4.1290 H   0  0  0  0  0  0  0  0  0  0  0  0
   -4.7294    0.7186   -6.8013 H   0  0  0  0  0  0  0  0  0  0  0  0
   -5.0565   -0.6497   -5.6864 H   0  0  0  0  0  0  0  0  0  0  0  0
   -6.1573    0.6482   -5.8369 H   0  0  0  0  0  0  0  0  0  0  0  0
  1  2  1  0  0  0  0
  1 29  1  0  0  0  0
  1 30  1  0  0  0  0
  1 31  1  0  0  0  0
  2  3  1  0  0  0  0
  2 32  1  0  0  0  0
  2 33  1  0  0  0  0
  3  4  1  0  0  0  0
  3 34  1  0  0  0  0
  3 35  1  0  0  0  0
  4  5  1  0  0  0  0
  4 36  1  0  0  0  0
  4 37  1  0  0  0  0
  5  6  1  0  0  0  0
  6  7  2  0  0  0  0
  6 13  1  0  0  0  0
  7  8  1  0  0  0  0
  7 10  1  0  0  0  0
  8  9  1  0  0  0  0
  9 38  1  0  0  0  0
  9 39  1  0  0  0  0
  9 40  1  0  0  0  0
 10 11  2  0  0  0  0
 10 41  1  0  0  0  0
 11 12  1  0  0  0  0
 11 16  1  0  0  0  0
 12 13  2  0  0  0  0
 12 42  1  0  0  0  0
 13 14  1  0  0  0  0
 14 15  1  0  0  0  0
 15 43  1  0  0  0  0
 15 44  1  0  0  0  0
 15 45  1  0  0  0  0
 16 17  2  0  0  0  0
 16 18  1  0  0  0  0
 18 19  1  0  0  0  0
 18 46  1  0  0  0  0
 19 20  1  0  0  0  0
 19 47  1  0  0  0  0
 19 48  1  0  0  0  0
 20 21  1  0  0  0  0
 20 25  1  0  0  0  0
 20 26  1  0  0  0  0
 21 22  1  0  0  0  0
 21 49  1  0  0  0  0
 21 50  1  0  0  0  0
 22 23  1  0  0  0  0
 22 51  1  0  0  0  0
 22 52  1  0  0  0  0
 23 24  1  0  0  0  0
 24 25  1  0  0  0  0
 24 53  1  0  0  0  0
 24 54  1  0  0  0  0
 25 55  1  0  0  0  0
 25 56  1  0  0  0  0
 26 27  1  0  0  0  0
 26 28  1  0  0  0  0
 27 57  1  0  0  0  0
 27 58  1  0  0  0  0
 27 59  1  0  0  0  0
 28 60  1  0  0  0  0
 28 61  1  0  0  0  0
 28 62  1  0  0  0  0
M  END
>  <DRUGBANK_ID>
DB16271

>  <COMMON_NAME>
Opiranserin

>  <CAS_NUMBER>
1441000-45-8

>  <UNII>
AP031EC2NI

>  <SYNONYMS>
Opiranserin; Vvz-149 free base

$$$$
