181
 OpenBabel10282417163D

 34 35  0  0  0  0  0  0  0  0999 V2000
    0.6453   -0.1302   -0.1579 O   0  0  0  0  0  0  0  0  0  0  0  0
    0.5206    0.8086   -1.2082 C   0  0  0  0  0  0  0  0  0  0  0  0
    1.1172    2.1826   -0.8958 C   0  0  0  0  0  0  0  0  0  0  0  0
    2.5481    2.2184   -0.8519 O   0  0  0  0  0  0  0  0  0  0  0  0
    3.1601    1.5220    0.2400 C   0  0  0  0  0  0  0  0  0  0  0  0
    2.6903    2.0214    1.5246 N   0  0  0  0  0  0  0  0  0  0  0  0
    2.0208    1.1872    2.4050 C   0  0  0  0  0  0  0  0  0  0  0  0
    1.8303   -0.0110    2.2292 O   0  0  0  0  0  0  0  0  0  0  0  0
    1.5836    1.7917    3.5555 N   0  0  0  0  0  0  0  0  0  0  0  0
    1.5965    3.1384    3.8265 C   0  0  0  0  0  0  0  0  0  0  0  0
    1.0429    3.5768    4.8244 O   0  0  0  0  0  0  0  0  0  0  0  0
    2.8913    3.3577    1.8016 C   0  0  0  0  0  0  0  0  0  0  0  0
    2.3361    3.9925    2.8404 C   0  0  0  0  0  0  0  0  0  0  0  0
    2.3764    5.7059    3.1385 S   0  0  0  0  0  0  0  0  0  0  0  0
    3.2565    6.3624    1.7308 C   0  0  0  0  0  0  0  0  0  0  0  0
    2.7869    6.1941    0.4219 C   0  0  0  0  0  0  0  0  0  0  0  0
    3.6245    6.4667   -0.6608 C   0  0  0  0  0  0  0  0  0  0  0  0
    4.8615    7.0699   -0.4475 C   0  0  0  0  0  0  0  0  0  0  0  0
    5.2506    7.4155    0.8448 C   0  0  0  0  0  0  0  0  0  0  0  0
    4.4749    7.0166    1.9350 C   0  0  0  0  0  0  0  0  0  0  0  0
    1.5283   -0.5347   -0.1675 H   0  0  0  0  0  0  0  0  0  0  0  0
    0.9605    0.3847   -2.1139 H   0  0  0  0  0  0  0  0  0  0  0  0
   -0.5560    0.9236   -1.3518 H   0  0  0  0  0  0  0  0  0  0  0  0
    0.8229    2.8612   -1.7073 H   0  0  0  0  0  0  0  0  0  0  0  0
    0.7001    2.6078    0.0226 H   0  0  0  0  0  0  0  0  0  0  0  0
    3.0556    0.4464    0.1206 H   0  0  0  0  0  0  0  0  0  0  0  0
    4.2373    1.7142    0.1805 H   0  0  0  0  0  0  0  0  0  0  0  0
    1.1052    1.2011    4.2181 H   0  0  0  0  0  0  0  0  0  0  0  0
    3.4984    3.8631    1.0613 H   0  0  0  0  0  0  0  0  0  0  0  0
    1.7999    5.7769    0.2366 H   0  0  0  0  0  0  0  0  0  0  0  0
    3.3166    6.1968   -1.6680 H   0  0  0  0  0  0  0  0  0  0  0  0
    5.5168    7.2810   -1.2889 H   0  0  0  0  0  0  0  0  0  0  0  0
    6.1699    7.9726    1.0060 H   0  0  0  0  0  0  0  0  0  0  0  0
    4.8371    7.2080    2.9426 H   0  0  0  0  0  0  0  0  0  0  0  0
  1  2  1  0  0  0  0
  1 21  1  0  0  0  0
  2  3  1  0  0  0  0
  2 22  1  0  0  0  0
  2 23  1  0  0  0  0
  3  4  1  0  0  0  0
  3 24  1  0  0  0  0
  3 25  1  0  0  0  0
  4  5  1  0  0  0  0
  5  6  1  0  0  0  0
  5 26  1  0  0  0  0
  5 27  1  0  0  0  0
  6  7  1  0  0  0  0
  6 12  1  0  0  0  0
  7  8  2  0  0  0  0
  7  9  1  0  0  0  0
  9 10  1  0  0  0  0
  9 28  1  0  0  0  0
 10 11  2  0  0  0  0
 10 13  1  0  0  0  0
 12 13  2  0  0  0  0
 12 29  1  0  0  0  0
 13 14  1  0  0  0  0
 14 15  1  0  0  0  0
 15 16  2  0  0  0  0
 15 20  1  0  0  0  0
 16 17  1  0  0  0  0
 16 30  1  0  0  0  0
 17 18  2  0  0  0  0
 17 31  1  0  0  0  0
 18 19  1  0  0  0  0
 18 32  1  0  0  0  0
 19 20  2  0  0  0  0
 19 33  1  0  0  0  0
 20 34  1  0  0  0  0
M  END
>  <DRUGBANK_ID>
DB06872

>  <COMMON_NAME>
1-((2-HYDROXYETHOXY)METHYL)-5-(PHENYLTHIO)PYRIMIDINE-2,4(1H,3H)-DIONE

$$$$
