451
 OpenBabel10282417163D

 57 59  0  0  0  0  0  0  0  0999 V2000
    6.2071   -0.5661   -0.3185 C   0  0  0  0  0  0  0  0  0  0  0  0
    6.1519    0.6850    0.3067 C   0  0  0  0  0  0  0  0  0  0  0  0
    4.8904    1.1984    0.5795 C   0  0  0  0  0  0  0  0  0  0  0  0
    3.7129    0.5632    0.2329 C   0  0  0  0  0  0  0  0  0  0  0  0
    3.7687   -0.6865   -0.3457 C   0  0  0  0  0  0  0  0  0  0  0  0
    5.0159   -1.2470   -0.6444 C   0  0  0  0  0  0  0  0  0  0  0  0
    2.5886   -1.2827   -0.6738 O   0  0  0  0  0  0  0  0  0  0  0  0
    2.4353   -2.5825   -0.0952 C   0  0  0  0  0  0  0  0  0  0  0  0
    1.2302   -2.5906    0.8437 C   0  0  0  0  0  0  0  0  0  0  0  0
    0.0288   -2.5559    0.0697 O   0  0  0  0  0  0  0  0  0  0  0  0
   -1.1295   -2.3673    0.8889 C   0  0  0  0  0  0  0  0  0  0  0  0
   -2.3829   -2.4901    0.0219 C   0  0  0  0  0  0  0  0  0  0  0  0
   -2.6149   -1.2513   -0.6683 O   0  0  0  0  0  0  0  0  0  0  0  0
   -3.8010   -0.6634   -0.3133 C   0  0  0  0  0  0  0  0  0  0  0  0
   -3.7875    0.6041    0.2786 C   0  0  0  0  0  0  0  0  0  0  0  0
   -2.5801    1.1713    0.5852 O   0  0  0  0  0  0  0  0  0  0  0  0
   -2.4365    2.5199    0.1127 C   0  0  0  0  0  0  0  0  0  0  0  0
   -1.2346    2.5898   -0.8242 C   0  0  0  0  0  0  0  0  0  0  0  0
   -0.0334    2.5619   -0.0526 O   0  0  0  0  0  0  0  0  0  0  0  0
    1.1190    2.4227   -0.8852 C   0  0  0  0  0  0  0  0  0  0  0  0
    2.3598    2.4598   -0.0073 C   0  0  0  0  0  0  0  0  0  0  0  0
    2.5243    1.1486    0.5720 O   0  0  0  0  0  0  0  0  0  0  0  0
   -5.0169   -1.2735   -0.6315 C   0  0  0  0  0  0  0  0  0  0  0  0
   -6.2186   -0.6384   -0.3133 C   0  0  0  0  0  0  0  0  0  0  0  0
   -6.2063    0.6070    0.3150 C   0  0  0  0  0  0  0  0  0  0  0  0
   -4.9926    1.2240    0.6197 C   0  0  0  0  0  0  0  0  0  0  0  0
    7.3437    1.3740    0.6333 N   0  0  0  0  0  0  0  0  0  0  0  0
    7.5407    2.6001    1.2261 C   0  0  0  0  0  0  0  0  0  0  0  0
    8.6959    3.0080    1.4064 O   0  0  0  0  0  0  0  0  0  0  0  0
    6.3777    3.4510    1.6554 C   0  0  0  0  0  0  0  0  0  0  0  0
    7.1561   -1.0391   -0.5638 H   0  0  0  0  0  0  0  0  0  0  0  0
    4.7103    2.1172    1.0907 H   0  0  0  0  0  0  0  0  0  0  0  0
    5.0634   -2.2124   -1.1411 H   0  0  0  0  0  0  0  0  0  0  0  0
    3.3209   -2.9044    0.4654 H   0  0  0  0  0  0  0  0  0  0  0  0
    2.2770   -3.2710   -0.9303 H   0  0  0  0  0  0  0  0  0  0  0  0
    1.2650   -1.7336    1.5265 H   0  0  0  0  0  0  0  0  0  0  0  0
    1.2362   -3.5200    1.4246 H   0  0  0  0  0  0  0  0  0  0  0  0
   -1.1438   -3.1470    1.6587 H   0  0  0  0  0  0  0  0  0  0  0  0
   -1.0810   -1.3814    1.3645 H   0  0  0  0  0  0  0  0  0  0  0  0
   -3.2296   -2.7830    0.6548 H   0  0  0  0  0  0  0  0  0  0  0  0
   -2.2406   -3.2642   -0.7413 H   0  0  0  0  0  0  0  0  0  0  0  0
   -2.2803    3.1589    0.9892 H   0  0  0  0  0  0  0  0  0  0  0  0
   -3.3189    2.8772   -0.4308 H   0  0  0  0  0  0  0  0  0  0  0  0
   -1.2578    3.5332   -1.3807 H   0  0  0  0  0  0  0  0  0  0  0  0
   -1.2499    1.7483   -1.5259 H   0  0  0  0  0  0  0  0  0  0  0  0
    1.1448    3.2513   -1.6002 H   0  0  0  0  0  0  0  0  0  0  0  0
    1.0697    1.4685   -1.4220 H   0  0  0  0  0  0  0  0  0  0  0  0
    2.2413    3.1843    0.8092 H   0  0  0  0  0  0  0  0  0  0  0  0
    3.2187    2.7722   -0.6167 H   0  0  0  0  0  0  0  0  0  0  0  0
   -5.0313   -2.2353   -1.1354 H   0  0  0  0  0  0  0  0  0  0  0  0
   -7.1651   -1.1138   -0.5569 H   0  0  0  0  0  0  0  0  0  0  0  0
   -7.1417    1.0994    0.5677 H   0  0  0  0  0  0  0  0  0  0  0  0
   -4.9939    2.1845    1.1262 H   0  0  0  0  0  0  0  0  0  0  0  0
    8.2222    0.9227    0.3974 H   0  0  0  0  0  0  0  0  0  0  0  0
    5.7778    3.7156    0.7764 H   0  0  0  0  0  0  0  0  0  0  0  0
    5.8093    2.9209    2.4284 H   0  0  0  0  0  0  0  0  0  0  0  0
    6.6930    4.3915    2.1053 H   0  0  0  0  0  0  0  0  0  0  0  0
  1  6  1  0  0  0  0
  1 31  1  0  0  0  0
  2  1  2  0  0  0  0
  2  3  1  0  0  0  0
  3  4  2  0  0  0  0
  3 32  1  0  0  0  0
  4  5  1  0  0  0  0
  4 22  1  0  0  0  0
  5  7  1  0  0  0  0
  6  5  2  0  0  0  0
  6 33  1  0  0  0  0
  8  7  1  0  0  0  0
  8  9  1  0  0  0  0
  8 34  1  0  0  0  0
  8 35  1  0  0  0  0
  9 10  1  0  0  0  0
  9 36  1  0  0  0  0
  9 37  1  0  0  0  0
 10 11  1  0  0  0  0
 11 12  1  0  0  0  0
 11 38  1  0  0  0  0
 11 39  1  0  0  0  0
 12 40  1  0  0  0  0
 12 41  1  0  0  0  0
 13 12  1  0  0  0  0
 13 14  1  0  0  0  0
 14 23  1  0  0  0  0
 15 14  2  0  0  0  0
 15 26  1  0  0  0  0
 16 15  1  0  0  0  0
 16 17  1  0  0  0  0
 17 18  1  0  0  0  0
 17 42  1  0  0  0  0
 17 43  1  0  0  0  0
 18 44  1  0  0  0  0
 18 45  1  0  0  0  0
 19 18  1  0  0  0  0
 20 19  1  0  0  0  0
 20 46  1  0  0  0  0
 20 47  1  0  0  0  0
 21 20  1  0  0  0  0
 21 48  1  0  0  0  0
 21 49  1  0  0  0  0
 22 21  1  0  0  0  0
 23 24  2  0  0  0  0
 23 50  1  0  0  0  0
 24 51  1  0  0  0  0
 25 24  1  0  0  0  0
 25 52  1  0  0  0  0
 26 25  2  0  0  0  0
 26 53  1  0  0  0  0
 27  2  1  0  0  0  0
 27 28  1  0  0  0  0
 27 54  1  0  0  0  0
 28 29  2  0  0  0  0
 30 28  1  0  0  0  0
 30 55  1  0  0  0  0
 30 56  1  0  0  0  0
 30 57  1  0  0  0  0
M  END
>  <DRUGBANK_ID>
DB07084

>  <COMMON_NAME>
N-(6,7,9,10,17,18,20,21-octahydrodibenzo[b,k][1,4,7,10,13,16]hexaoxacyclooctadecin-2-yl)acetamide

$$$$
