PFZ
 OpenBabel10282417123D

 44 45  0  0  0  0  0  0  0  0999 V2000
    0.9774   -0.0575   -0.0828 C   0  0  1  0  0  0  0  0  0  0  0  0
    0.5872   -0.9962   -1.1157 O   0  0  0  0  0  0  0  0  0  0  0  0
    0.2246    1.2787   -0.2025 C   0  0  0  0  0  0  0  0  0  0  0  0
    0.5062   -0.8084    1.1918 C   0  0  0  0  0  0  0  0  0  0  0  0
    2.5044    0.1494   -0.1907 C   0  0  0  0  0  0  0  0  0  0  0  0
    1.0102   -2.2325    1.3982 C   0  0  0  0  0  0  0  0  0  0  0  0
    2.5217   -2.3311    1.6022 C   0  0  0  0  0  0  0  0  0  0  0  0
    3.0643   -1.3494    2.6620 C   0  0  0  0  0  0  0  0  0  0  0  0
    2.5808   -1.7526    4.0503 C   0  0  0  0  0  0  0  0  0  0  0  0
    3.0356   -3.1695    4.3542 C   0  0  0  0  0  0  0  0  0  0  0  0
    2.9796    0.6459   -1.4588 N   0  0  0  0  0  0  0  0  0  0  0  0
   -0.1406    1.7322   -1.4866 C   0  0  0  0  0  0  0  0  0  0  0  0
   -1.0825    2.7383   -1.6566 C   0  0  0  0  0  0  0  0  0  0  0  0
   -1.6701    3.3166   -0.5427 C   0  0  0  0  0  0  0  0  0  0  0  0
   -1.2157    3.0063    0.7289 C   0  0  0  0  0  0  0  0  0  0  0  0
   -0.2102    2.0579    0.8939 C   0  0  0  0  0  0  0  0  0  0  0  0
    3.0344    1.9464   -1.8477 C   0  0  0  0  0  0  0  0  0  0  0  0
    3.4422    1.8939   -3.1523 C   0  0  0  0  0  0  0  0  0  0  0  0
    3.7328    0.6023   -3.5270 N   0  0  0  0  0  0  0  0  0  0  0  0
    3.4794   -0.1218   -2.4755 C   0  0  0  0  0  0  0  0  0  0  0  0
    0.4889    2.0445    2.4802 Cl  0  0  0  0  0  0  0  0  0  0  0  0
   -2.9432    4.4481   -0.7355 Cl  0  0  0  0  0  0  0  0  0  0  0  0
    0.3557   -0.5443   -1.9388 H   0  0  0  0  0  0  0  0  0  0  0  0
    0.7689   -0.2798    2.0981 H   0  0  0  0  0  0  0  0  0  0  0  0
   -0.5944   -0.8443    1.1940 H   0  0  0  0  0  0  0  0  0  0  0  0
    2.9137    0.7790    0.6027 H   0  0  0  0  0  0  0  0  0  0  0  0
    3.0215   -0.7916   -0.1720 H   0  0  0  0  0  0  0  0  0  0  0  0
    0.5108   -2.6208    2.2958 H   0  0  0  0  0  0  0  0  0  0  0  0
    0.6880   -2.8801    0.5784 H   0  0  0  0  0  0  0  0  0  0  0  0
    2.7719   -3.3618    1.8419 H   0  0  0  0  0  0  0  0  0  0  0  0
    3.0656   -2.2568    0.6686 H   0  0  0  0  0  0  0  0  0  0  0  0
    4.1595   -1.3314    2.6271 H   0  0  0  0  0  0  0  0  0  0  0  0
    2.7728   -0.3071    2.4872 H   0  0  0  0  0  0  0  0  0  0  0  0
    2.9736   -1.0575    4.7998 H   0  0  0  0  0  0  0  0  0  0  0  0
    1.4879   -1.6833    4.1073 H   0  0  0  0  0  0  0  0  0  0  0  0
    4.1256   -3.2313    4.2748 H   0  0  0  0  0  0  0  0  0  0  0  0
    2.7131   -3.4834    5.3440 H   0  0  0  0  0  0  0  0  0  0  0  0
    2.6095   -3.8974    3.6584 H   0  0  0  0  0  0  0  0  0  0  0  0
    0.2969    1.3066   -2.3887 H   0  0  0  0  0  0  0  0  0  0  0  0
   -1.3745    3.0266   -2.6618 H   0  0  0  0  0  0  0  0  0  0  0  0
   -1.6380    3.4993    1.6003 H   0  0  0  0  0  0  0  0  0  0  0  0
    2.7165    2.7559   -1.1999 H   0  0  0  0  0  0  0  0  0  0  0  0
    3.5353    2.7160   -3.8462 H   0  0  0  0  0  0  0  0  0  0  0  0
    3.6128   -1.2032   -2.3898 H   0  0  0  0  0  0  0  0  0  0  0  0
  1  4  1  0  0  0  0
  1  5  1  0  0  0  0
  1  3  1  0  0  0  0
  1  2  1  6  0  0  0
  2 23  1  0  0  0  0
  3 12  2  0  0  0  0
  3 16  1  0  0  0  0
  4  6  1  0  0  0  0
  4 24  1  0  0  0  0
  4 25  1  0  0  0  0
  5 11  1  0  0  0  0
  5 26  1  0  0  0  0
  5 27  1  0  0  0  0
  6  7  1  0  0  0  0
  6 28  1  0  0  0  0
  6 29  1  0  0  0  0
  7  8  1  0  0  0  0
  7 30  1  0  0  0  0
  7 31  1  0  0  0  0
  8  9  1  0  0  0  0
  8 32  1  0  0  0  0
  8 33  1  0  0  0  0
  9 10  1  0  0  0  0
  9 34  1  0  0  0  0
  9 35  1  0  0  0  0
 10 36  1  0  0  0  0
 10 37  1  0  0  0  0
 10 38  1  0  0  0  0
 11 17  1  0  0  0  0
 11 20  1  0  0  0  0
 12 13  1  0  0  0  0
 12 39  1  0  0  0  0
 13 14  2  0  0  0  0
 13 40  1  0  0  0  0
 14 15  1  0  0  0  0
 14 22  1  0  0  0  0
 15 16  2  0  0  0  0
 15 41  1  0  0  0  0
 16 21  1  0  0  0  0
 17 18  2  0  0  0  0
 17 42  1  0  0  0  0
 18 19  1  0  0  0  0
 18 43  1  0  0  0  0
 19 20  2  0  0  0  0
 20 44  1  0  0  0  0
M  END
>  <DRUGBANK_ID>
DB02617

>  <SECONDARY_ACCESSION_NUMBERS>
EXPT02560

>  <COMMON_NAME>
1-(N-Imidazolyl)-2-Hydroxy-2-(2,3-Dichlorophenyl)Octane

$$$$
