
 OpenBabel10282417213D

  1  0  0  0  0  0  0  0  0  0999 V2000
    0.9259   -0.0393    0.0545 I   0  0  0  0  0 15  0  0  0  0  0  0
M  RAD  1   1   2
M  ISO  1   1 125
M  END
>  <DRUGBANK_ID>
DB14804

>  <COMMON_NAME>
Iodine I-125

>  <CAS_NUMBER>
14158-31-7

>  <UNII>
GVO776611R

>  <SYNONYMS>
125-IODINE

$$$$
