
 OpenBabel10282417213D

 27 27  0  0  0  0  0  0  0  0999 V2000
    1.0833   -0.0593    0.0623 C   0  0  1  0  0  0  0  0  0  0  0  0
    0.6055   -0.3866   -1.3535 C   0  0  0  0  0  0  0  0  0  0  0  0
    0.4272    1.2831    0.5541 C   0  0  2  0  0  0  0  0  0  0  0  0
    0.4803    2.4123   -0.4037 N   0  0  0  0  0  0  0  0  0  0  0  0
    0.7357   -1.1247    0.9540 O   0  0  0  0  0  0  0  0  0  0  0  0
   -0.6452   -0.9699   -1.5949 C   0  0  0  0  0  0  0  0  0  0  0  0
    1.3432    0.0949   -2.4549 C   0  0  0  0  0  0  0  0  0  0  0  0
   -0.8684    2.9275   -0.6225 C   0  0  0  0  0  0  0  0  0  0  0  0
    0.9901    1.7948    1.8845 C   0  0  0  0  0  0  0  0  0  0  0  0
   -1.1671   -1.0397   -2.8882 C   0  0  0  0  0  0  0  0  0  0  0  0
    0.7900    0.0817   -3.7376 C   0  0  0  0  0  0  0  0  0  0  0  0
   -0.4534   -0.4968   -3.9563 C   0  0  0  0  0  0  0  0  0  0  0  0
    2.1779    0.0051    0.0752 H   0  0  0  0  0  0  0  0  0  0  0  0
   -0.6229    1.0331    0.7582 H   0  0  0  0  0  0  0  0  0  0  0  0
    0.8268    2.0958   -1.3073 H   0  0  0  0  0  0  0  0  0  0  0  0
   -0.2320   -1.1356    1.0313 H   0  0  0  0  0  0  0  0  0  0  0  0
   -1.2582   -1.3456   -0.7795 H   0  0  0  0  0  0  0  0  0  0  0  0
    2.3125    0.5641   -2.3043 H   0  0  0  0  0  0  0  0  0  0  0  0
   -0.8478    3.7129   -1.3813 H   0  0  0  0  0  0  0  0  0  0  0  0
   -1.5417    2.1378   -0.9760 H   0  0  0  0  0  0  0  0  0  0  0  0
   -1.2672    3.3516    0.3033 H   0  0  0  0  0  0  0  0  0  0  0  0
    2.0598    1.5975    1.9983 H   0  0  0  0  0  0  0  0  0  0  0  0
    0.8422    2.8788    1.9859 H   0  0  0  0  0  0  0  0  0  0  0  0
    0.4534    1.3379    2.7223 H   0  0  0  0  0  0  0  0  0  0  0  0
   -2.1423   -1.4842   -3.0547 H   0  0  0  0  0  0  0  0  0  0  0  0
    1.3223    0.5541   -4.5618 H   0  0  0  0  0  0  0  0  0  0  0  0
   -0.8772   -0.5221   -4.9571 H   0  0  0  0  0  0  0  0  0  0  0  0
  1  5  1  0  0  0  0
  1 13  1  6  0  0  0
  1  3  1  0  0  0  0
  1  2  1  0  0  0  0
  3 14  1  1  0  0  0
  3  9  1  0  0  0  0
  3  4  1  0  0  0  0
  4 15  1  0  0  0  0
  5 16  1  0  0  0  0
  6  2  1  0  0  0  0
  6 17  1  0  0  0  0
  7  2  2  0  0  0  0
  7 18  1  0  0  0  0
  8  4  1  0  0  0  0
  8 19  1  0  0  0  0
  8 20  1  0  0  0  0
  8 21  1  0  0  0  0
  9 22  1  0  0  0  0
  9 23  1  0  0  0  0
  9 24  1  0  0  0  0
 10  6  2  0  0  0  0
 10 12  1  0  0  0  0
 10 25  1  0  0  0  0
 11  7  1  0  0  0  0
 11 26  1  0  0  0  0
 12 11  2  0  0  0  0
 12 27  1  0  0  0  0
M  END
>  <DRUGBANK_ID>
DB14752

>  <COMMON_NAME>
Racephedrine

>  <CAS_NUMBER>
90-81-3

>  <UNII>
03VRY66076

>  <SYNONYMS>
(+-)-Ephedrine; Ephedrine DL-form; Racephedrine

$$$$
