L18
 OpenBabel10282417173D

 48 49  0  0  0  0  0  0  0  0999 V2000
   -1.3556    0.1247   -3.8830 C   0  0  1  0  0  0  0  0  0  0  0  0
   -1.6036    1.6245   -4.0773 C   0  0  0  0  0  0  0  0  0  0  0  0
   -1.8935   -0.5809   -5.1592 C   0  0  0  0  0  0  0  0  0  0  0  0
   -1.3148   -0.0930   -6.5204 C   0  0  1  0  0  0  0  0  0  0  0  0
    0.1880   -0.3043   -6.7675 C   0  0  0  0  0  0  0  0  0  0  0  0
   -1.7930   -2.0367   -8.0401 C   0  0  0  0  0  0  0  0  0  0  0  0
   -2.3368   -2.5449   -9.2181 C   0  0  0  0  0  0  0  0  0  0  0  0
   -3.1953   -1.7513   -9.9711 C   0  0  0  0  0  0  0  0  0  0  0  0
   -3.5545   -0.4772   -9.5471 C   0  0  0  0  0  0  0  0  0  0  0  0
   -3.0140    0.0343   -8.3655 C   0  0  0  0  0  0  0  0  0  0  0  0
   -2.0847   -0.7306   -7.6536 C   0  0  0  0  0  0  0  0  0  0  0  0
    2.9533    0.8011   -3.8379 C   0  0  0  0  0  0  0  0  0  0  0  0
    2.6947    2.2991   -3.6588 C   0  0  0  0  0  0  0  0  0  0  0  0
    1.2340    2.5398   -3.3611 C   0  0  0  0  0  0  0  0  0  0  0  0
    0.7983    1.6825   -2.1595 C   0  0  0  0  0  0  0  0  0  0  0  0
    0.9740    0.1941   -2.4598 C   0  0  1  0  0  0  0  0  0  0  0  0
    0.0840   -0.3647   -3.5988 C   0  0  0  0  0  0  0  0  0  0  0  0
    2.7599   -1.4260   -2.9343 C   0  0  0  0  0  0  0  0  0  0  0  0
    2.4287   -0.0175   -2.7241 N   0  0  0  0  0  0  0  0  0  0  0  0
   -1.9615   -0.2027   -3.0272 H   0  0  0  0  0  0  0  0  0  0  0  0
   -1.4740    0.9814   -6.6392 H   0  0  0  0  0  0  0  0  0  0  0  0
    0.7085   -0.3511   -1.5430 H   0  0  0  0  0  0  0  0  0  0  0  0
   -1.2945    1.9898   -5.0562 H   0  0  0  0  0  0  0  0  0  0  0  0
   -2.6491    1.8900   -3.9198 H   0  0  0  0  0  0  0  0  0  0  0  0
   -1.0918    2.2627   -3.3855 H   0  0  0  0  0  0  0  0  0  0  0  0
   -1.7718   -1.6679   -5.0633 H   0  0  0  0  0  0  0  0  0  0  0  0
   -2.9811   -0.4111   -5.1758 H   0  0  0  0  0  0  0  0  0  0  0  0
    0.5067   -1.3202   -6.5046 H   0  0  0  0  0  0  0  0  0  0  0  0
    0.4590   -0.1276   -7.8140 H   0  0  0  0  0  0  0  0  0  0  0  0
    0.7893    0.4202   -6.2169 H   0  0  0  0  0  0  0  0  0  0  0  0
   -1.1076   -2.6468   -7.4616 H   0  0  0  0  0  0  0  0  0  0  0  0
   -2.0577   -3.5385   -9.5405 H   0  0  0  0  0  0  0  0  0  0  0  0
   -3.5928   -2.1394  -10.9088 H   0  0  0  0  0  0  0  0  0  0  0  0
   -4.2273    0.1365  -10.1351 H   0  0  0  0  0  0  0  0  0  0  0  0
   -3.2903    1.0309   -8.0366 H   0  0  0  0  0  0  0  0  0  0  0  0
    4.0344    0.6598   -3.9341 H   0  0  0  0  0  0  0  0  0  0  0  0
    2.5309    0.4799   -4.7967 H   0  0  0  0  0  0  0  0  0  0  0  0
    3.3037    2.7107   -2.8497 H   0  0  0  0  0  0  0  0  0  0  0  0
    2.9586    2.8301   -4.5820 H   0  0  0  0  0  0  0  0  0  0  0  0
    1.0109    3.5969   -3.1872 H   0  0  0  0  0  0  0  0  0  0  0  0
    0.7255    2.2686   -4.2911 H   0  0  0  0  0  0  0  0  0  0  0  0
    1.3964    1.9683   -1.2862 H   0  0  0  0  0  0  0  0  0  0  0  0
   -0.2274    1.8618   -1.8209 H   0  0  0  0  0  0  0  0  0  0  0  0
    0.0472   -1.4615   -3.4940 H   0  0  0  0  0  0  0  0  0  0  0  0
    0.6499   -0.2184   -4.4959 H   0  0  0  0  0  0  0  0  0  0  0  0
    2.4629   -2.0226   -2.0661 H   0  0  0  0  0  0  0  0  0  0  0  0
    2.2832   -1.8468   -3.8266 H   0  0  0  0  0  0  0  0  0  0  0  0
    3.8412   -1.5492   -3.0543 H   0  0  0  0  0  0  0  0  0  0  0  0
  1 17  1  0  0  0  0
  1 20  1  1  0  0  0
  1  3  1  0  0  0  0
  1  2  1  0  0  0  0
  2 23  1  0  0  0  0
  2 24  1  0  0  0  0
  2 25  1  0  0  0  0
  3  4  1  0  0  0  0
  3 26  1  0  0  0  0
  3 27  1  0  0  0  0
  4  5  1  0  0  0  0
  4 11  1  0  0  0  0
  4 21  1  6  0  0  0
  5 28  1  0  0  0  0
  5 29  1  0  0  0  0
  5 30  1  0  0  0  0
  6  7  2  0  0  0  0
  6 11  1  0  0  0  0
  6 31  1  0  0  0  0
  7  8  1  0  0  0  0
  7 32  1  0  0  0  0
  8  9  2  0  0  0  0
  8 33  1  0  0  0  0
  9 10  1  0  0  0  0
  9 34  1  0  0  0  0
 10 11  2  0  0  0  0
 10 35  1  0  0  0  0
 12 13  1  0  0  0  0
 12 19  1  0  0  0  0
 12 36  1  0  0  0  0
 12 37  1  0  0  0  0
 13 14  1  0  0  0  0
 13 38  1  0  0  0  0
 13 39  1  0  0  0  0
 14 15  1  0  0  0  0
 14 40  1  0  0  0  0
 14 41  1  0  0  0  0
 15 16  1  0  0  0  0
 15 42  1  0  0  0  0
 15 43  1  0  0  0  0
 16 19  1  0  0  0  0
 16 22  1  1  0  0  0
 16 17  1  0  0  0  0
 17 44  1  0  0  0  0
 17 45  1  0  0  0  0
 18 19  1  0  0  0  0
 18 46  1  0  0  0  0
 18 47  1  0  0  0  0
 18 48  1  0  0  0  0
M  END
>  <DRUGBANK_ID>
DB08071

>  <COMMON_NAME>
(2S)-1-methyl-2-[(2S,4R)-2-methyl-4-phenylpentyl]piperidine

$$$$
