
 OpenBabel10282417233D

 46 48  0  0  1  0  0  0  0  0999 V2000
    4.0154   -7.6259   -2.8860 N   0  0  0  0  0  0  0  0  0  0  0  0
    4.9960   -6.7221   -3.1513 C   0  0  0  0  0  0  0  0  0  0  0  0
    5.1027   -6.2457   -4.2768 O   0  0  0  0  0  0  0  0  0  0  0  0
    5.8230   -6.3458   -2.1219 N   0  0  0  0  0  0  0  0  0  0  0  0
    5.6552   -6.7765   -0.8136 C   0  0  0  0  0  0  0  0  0  0  0  0
    5.4891   -5.9151    0.2710 C   0  0  0  0  0  0  0  0  0  0  0  0
    4.1726   -6.7721    1.0771 S   0  0  0  0  0  0  0  0  0  0  0  0
    5.0939   -8.2564    0.9285 C   0  0  0  0  0  0  0  0  0  0  0  0
    5.4989   -8.1702   -0.3942 C   0  0  0  0  0  0  0  0  0  0  0  0
    4.9788   -9.3678    1.8405 C   0  0  0  0  0  0  0  0  0  0  0  0
    4.8183  -10.2571    2.6657 C   0  0  0  0  0  0  0  0  0  0  0  0
    4.5503  -11.3613    3.5672 C   0  0  0  0  0  0  0  0  0  0  0  0
    4.7991  -12.6710    3.1305 C   0  0  0  0  0  0  0  0  0  0  0  0
    4.4922  -13.7819    3.9324 C   0  0  0  0  0  0  0  0  0  0  0  0
    3.8053  -13.6056    5.1282 C   0  0  0  0  0  0  0  0  0  0  0  0
    3.5674  -12.3125    5.5764 C   0  0  0  0  0  0  0  0  0  0  0  0
    2.8991  -12.1429    6.7270 F   0  0  0  0  0  0  0  0  0  0  0  0
    3.9977  -11.1936    4.8464 C   0  0  0  0  0  0  0  0  0  0  0  0
    5.7213   -4.4854    0.4873 C   0  0  0  0  0  0  0  0  0  0  0  0
    5.9777   -3.7075   -0.4374 O   0  0  0  0  0  0  0  0  0  0  0  0
    5.7192   -3.9373    1.7683 N   0  0  0  0  0  0  0  0  0  0  0  0
    5.3304   -4.5142    3.0750 C   0  0  1  0  0  0  0  0  0  0  0  0
    5.9773   -5.8698    3.3777 C   0  0  0  0  0  0  0  0  0  0  0  0
    5.6168   -6.4385    4.7236 C   0  0  0  0  0  0  0  0  0  0  0  0
    6.0316   -5.4683    5.7847 C   0  0  0  0  0  0  0  0  0  0  0  0
    5.3719   -4.1780    5.5592 N   0  0  0  0  0  0  0  0  0  0  0  0
    5.7354   -3.5971    4.2525 C   0  0  0  0  0  0  0  0  0  0  0  0
    3.3742   -7.8602   -3.6303 H   0  0  0  0  0  0  0  0  0  0  0  0
    3.7245   -7.8603   -1.9491 H   0  0  0  0  0  0  0  0  0  0  0  0
    6.2788   -5.4500   -2.2831 H   0  0  0  0  0  0  0  0  0  0  0  0
    5.5978   -9.0231   -1.0553 H   0  0  0  0  0  0  0  0  0  0  0  0
    5.2315  -12.8394    2.1476 H   0  0  0  0  0  0  0  0  0  0  0  0
    4.7724  -14.7827    3.6122 H   0  0  0  0  0  0  0  0  0  0  0  0
    3.4637  -14.4581    5.7103 H   0  0  0  0  0  0  0  0  0  0  0  0
    3.8735  -10.2140    5.2962 H   0  0  0  0  0  0  0  0  0  0  0  0
    5.7657   -2.9215    1.7255 H   0  0  0  0  0  0  0  0  0  0  0  0
    4.2346   -4.5934    3.0546 H   0  0  0  0  0  0  0  0  0  0  0  0
    5.5745   -6.6621    2.8083 H   0  0  0  0  0  0  0  0  0  0  0  0
    7.0451   -5.8747    3.1402 H   0  0  0  0  0  0  0  0  0  0  0  0
    4.5344   -6.6350    4.7628 H   0  0  0  0  0  0  0  0  0  0  0  0
    6.1088   -7.4135    4.8264 H   0  0  0  0  0  0  0  0  0  0  0  0
    5.7504   -5.8869    6.7542 H   0  0  0  0  0  0  0  0  0  0  0  0
    7.1211   -5.3591    5.7531 H   0  0  0  0  0  0  0  0  0  0  0  0
    5.6491   -3.5408    6.3022 H   0  0  0  0  0  0  0  0  0  0  0  0
    6.8193   -3.4301    4.2147 H   0  0  0  0  0  0  0  0  0  0  0  0
    5.2620   -2.6137    4.1465 H   0  0  0  0  0  0  0  0  0  0  0  0
  1  2  1  0  0  0  0
  1 28  1  0  0  0  0
  1 29  1  0  0  0  0
  2  3  2  0  0  0  0
  2  4  1  0  0  0  0
  4  5  1  0  0  0  0
  4 30  1  0  0  0  0
  5  6  2  0  0  0  0
  5  9  1  0  0  0  0
  6  7  1  0  0  0  0
  6 19  1  0  0  0  0
  7  8  1  0  0  0  0
  8  9  2  0  0  0  0
  8 10  1  0  0  0  0
  9 31  1  0  0  0  0
 10 11  3  0  0  0  0
 11 12  1  0  0  0  0
 12 13  2  0  0  0  0
 12 18  1  0  0  0  0
 13 14  1  0  0  0  0
 13 32  1  0  0  0  0
 14 15  2  0  0  0  0
 14 33  1  0  0  0  0
 15 16  1  0  0  0  0
 15 34  1  0  0  0  0
 16 17  1  0  0  0  0
 16 18  2  0  0  0  0
 18 35  1  0  0  0  0
 19 20  2  0  0  0  0
 19 21  1  0  0  0  0
 21 36  1  0  0  0  0
 22 23  1  0  0  0  0
 22 27  1  0  0  0  0
 22 37  1  1  0  0  0
 22 21  1  0  0  0  0
 23 24  1  0  0  0  0
 23 38  1  0  0  0  0
 23 39  1  0  0  0  0
 24 25  1  0  0  0  0
 24 40  1  0  0  0  0
 24 41  1  0  0  0  0
 25 26  1  0  0  0  0
 25 42  1  0  0  0  0
 25 43  1  0  0  0  0
 26 27  1  0  0  0  0
 26 44  1  0  0  0  0
 27 45  1  0  0  0  0
 27 46  1  0  0  0  0
M  END
>  <DRUGBANK_ID>
DB17237

>  <COMMON_NAME>
PHI-101

>  <CAS_NUMBER>
2127107-15-5

>  <UNII>
U2UY9TBQ8Z

>  <SYNONYMS>
2-thiophenecarboxamide, 3-((aminocarbonyl)amino)-5-(2-(3-fluorophenyl)ethynyl)-n-(3s)-3-piperidinyl-; N-(2-(n-((3s)(3-piperidyl))carbamoyl)-5-(2-(3-fluorophenyl)ethynyl)(3-thienyl))aminamide; PHI101

$$$$
