
 OpenBabel10282417173D

 35 36  0  0  0  0  0  0  0  0999 V2000
    0.9629   -0.0846   -0.2060 C   0  0  0  0  0  0  0  0  0  0  0  0
    0.1938   -1.3759   -0.3323 C   0  0  0  0  0  0  0  0  0  0  0  0
    0.3701    1.0054   -0.1763 O   0  0  0  0  0  0  0  0  0  0  0  0
    2.3154   -0.0936   -0.1200 N   0  0  0  0  0  0  0  0  0  0  0  0
    3.1699   -1.1596   -0.4167 O   0  0  0  0  0  0  0  0  0  0  0  0
   -0.9551   -1.7191    1.0290 S   0  0  3  0  0  0  0  0  0  0  0  0
   -1.6311   -3.0309    0.7452 O   0  0  0  0  0  0  0  0  0  0  0  0
    0.2268   -1.9413    2.4558 C   0  0  0  0  0  0  0  0  0  0  0  0
    1.1894   -3.1091    2.2181 C   0  0  0  0  0  0  0  0  0  0  0  0
    2.5594   -2.9001    1.9972 C   0  0  0  0  0  0  0  0  0  0  0  0
    3.4765   -3.9403    1.9903 C   0  0  0  0  0  0  0  0  0  0  0  0
    3.0244   -5.2428    2.1122 C   0  0  0  0  0  0  0  0  0  0  0  0
    1.6598   -5.4935    2.2563 C   0  0  0  0  0  0  0  0  0  0  0  0
    0.7433   -4.4373    2.2921 C   0  0  0  0  0  0  0  0  0  0  0  0
    0.8522   -0.6232    2.9591 C   0  0  0  0  0  0  0  0  0  0  0  0
    0.2692    0.6138    2.6583 C   0  0  0  0  0  0  0  0  0  0  0  0
    0.9288    1.8126    2.9221 C   0  0  0  0  0  0  0  0  0  0  0  0
    2.1386    1.8107    3.6008 C   0  0  0  0  0  0  0  0  0  0  0  0
    2.6670    0.6101    4.0522 C   0  0  0  0  0  0  0  0  0  0  0  0
    2.0205   -0.5899    3.7507 C   0  0  0  0  0  0  0  0  0  0  0  0
   -0.4303   -1.2593   -1.2254 H   0  0  0  0  0  0  0  0  0  0  0  0
    0.8104   -2.2538   -0.4957 H   0  0  0  0  0  0  0  0  0  0  0  0
    2.7790    0.7968    0.0488 H   0  0  0  0  0  0  0  0  0  0  0  0
    2.6312   -1.9634   -0.4870 H   0  0  0  0  0  0  0  0  0  0  0  0
   -0.4304   -2.2437    3.2859 H   0  0  0  0  0  0  0  0  0  0  0  0
    2.9625   -1.8976    1.8909 H   0  0  0  0  0  0  0  0  0  0  0  0
    4.5359   -3.7104    1.9172 H   0  0  0  0  0  0  0  0  0  0  0  0
    3.7376   -6.0602    2.0871 H   0  0  0  0  0  0  0  0  0  0  0  0
    1.3103   -6.5169    2.3647 H   0  0  0  0  0  0  0  0  0  0  0  0
   -0.3196   -4.6642    2.3841 H   0  0  0  0  0  0  0  0  0  0  0  0
   -0.6717    0.6855    2.1174 H   0  0  0  0  0  0  0  0  0  0  0  0
    0.4939    2.7401    2.5598 H   0  0  0  0  0  0  0  0  0  0  0  0
    2.6555    2.7452    3.7914 H   0  0  0  0  0  0  0  0  0  0  0  0
    3.5915    0.5970    4.6236 H   0  0  0  0  0  0  0  0  0  0  0  0
    2.5042   -1.5042    4.0941 H   0  0  0  0  0  0  0  0  0  0  0  0
  1  2  1  0  0  0  0
  1  3  2  0  0  0  0
  1  4  1  0  0  0  0
  2  6  1  0  0  0  0
  2 21  1  0  0  0  0
  2 22  1  0  0  0  0
  4  5  1  0  0  0  0
  4 23  1  0  0  0  0
  5 24  1  0  0  0  0
  6  7  2  0  0  0  0
  6  8  1  0  0  0  0
  8  9  1  0  0  0  0
  8 15  1  0  0  0  0
  8 25  1  0  0  0  0
  9 10  1  0  0  0  0
  9 14  2  0  0  0  0
 10 11  2  0  0  0  0
 10 26  1  0  0  0  0
 11 12  1  0  0  0  0
 11 27  1  0  0  0  0
 12 13  2  0  0  0  0
 12 28  1  0  0  0  0
 13 14  1  0  0  0  0
 13 29  1  0  0  0  0
 14 30  1  0  0  0  0
 15 16  1  0  0  0  0
 15 20  2  0  0  0  0
 16 17  2  0  0  0  0
 16 31  1  0  0  0  0
 17 18  1  0  0  0  0
 17 32  1  0  0  0  0
 18 19  2  0  0  0  0
 18 33  1  0  0  0  0
 19 20  1  0  0  0  0
 19 34  1  0  0  0  0
 20 35  1  0  0  0  0
M  END
>  <DRUGBANK_ID>
DB08925

>  <COMMON_NAME>
Adrafinil

>  <CAS_NUMBER>
63547-13-7

>  <UNII>
BI81Z4542G

>  <SYNONYMS>
Adrafinil; Adrafinilum

$$$$
