ZPR
 OpenBabel10282417133D

 46 48  0  0  0  0  0  0  0  0999 V2000
    1.2420    0.3060   -0.4463 C   0  0  0  0  0  0  0  0  0  0  0  0
    0.8426   -0.5422   -1.2392 O   0  0  0  0  0  0  0  0  0  0  0  0
    0.3425    1.3201    0.2197 C   0  0  2  0  0  0  0  0  0  0  0  0
    1.0145    2.6688   -0.0363 C   0  0  0  0  0  0  0  0  0  0  0  0
    0.1144    3.6349    0.7125 C   0  0  0  0  0  0  0  0  0  0  0  0
   -0.3732    2.8165    1.9080 C   0  0  0  0  0  0  0  0  0  0  0  0
    0.1163    1.4556    1.6620 N   0  0  0  0  0  0  0  0  0  0  0  0
   -0.1367    0.4913    2.6216 C   0  0  0  0  0  0  0  0  0  0  0  0
   -0.4907    0.8167    3.7629 O   0  0  0  0  0  0  0  0  0  0  0  0
    0.0809   -1.0065    2.3246 C   0  0  2  0  0  0  0  0  0  0  0  0
    1.5403   -1.3995    2.0481 C   0  0  0  0  0  0  0  0  0  0  0  0
    1.4489   -2.6507    1.1673 C   0  0  0  0  0  0  0  0  0  0  0  0
    0.0294   -2.6697    0.5944 C   0  0  0  0  0  0  0  0  0  0  0  0
   -0.6492   -1.5191    1.1702 N   0  0  0  0  0  0  0  0  0  0  0  0
   -1.9355   -1.1728    0.7906 C   0  0  0  0  0  0  0  0  0  0  0  0
   -2.5909   -1.8259   -0.0171 O   0  0  0  0  0  0  0  0  0  0  0  0
   -2.3450    0.0180    1.3051 O   0  0  0  0  0  0  0  0  0  0  0  0
   -3.5443    0.6840    0.8239 C   0  0  0  0  0  0  0  0  0  0  0  0
   -3.3814    1.4188   -0.5011 C   0  0  0  0  0  0  0  0  0  0  0  0
   -3.7873    2.7551   -0.6671 C   0  0  0  0  0  0  0  0  0  0  0  0
   -3.6151    3.4094   -1.8981 C   0  0  0  0  0  0  0  0  0  0  0  0
   -3.0044    2.7549   -2.9663 C   0  0  0  0  0  0  0  0  0  0  0  0
   -2.6005    1.4381   -2.8174 C   0  0  0  0  0  0  0  0  0  0  0  0
   -2.8497    0.7682   -1.6224 C   0  0  0  0  0  0  0  0  0  0  0  0
   -0.6246    1.2895   -0.2807 H   0  0  0  0  0  0  0  0  0  0  0  0
   -0.2469   -1.5838    3.2000 H   0  0  0  0  0  0  0  0  0  0  0  0
    2.3139    0.3718   -0.2084 H   0  0  0  0  0  0  0  0  0  0  0  0
    2.0152    2.6758    0.4242 H   0  0  0  0  0  0  0  0  0  0  0  0
    1.1315    2.8971   -1.0973 H   0  0  0  0  0  0  0  0  0  0  0  0
    0.6396    4.5435    1.0161 H   0  0  0  0  0  0  0  0  0  0  0  0
   -0.7229    3.9237    0.0667 H   0  0  0  0  0  0  0  0  0  0  0  0
   -0.0164    3.1935    2.8694 H   0  0  0  0  0  0  0  0  0  0  0  0
   -1.4733    2.8162    1.9311 H   0  0  0  0  0  0  0  0  0  0  0  0
    2.1040   -0.6095    1.5540 H   0  0  0  0  0  0  0  0  0  0  0  0
    2.1198   -1.5894    2.9571 H   0  0  0  0  0  0  0  0  0  0  0  0
    2.2079   -2.6537    0.3744 H   0  0  0  0  0  0  0  0  0  0  0  0
    1.6227   -3.5462    1.7731 H   0  0  0  0  0  0  0  0  0  0  0  0
    0.0064   -2.6174   -0.4980 H   0  0  0  0  0  0  0  0  0  0  0  0
   -0.4903   -3.5934    0.8715 H   0  0  0  0  0  0  0  0  0  0  0  0
   -4.3927   -0.0055    0.8047 H   0  0  0  0  0  0  0  0  0  0  0  0
   -3.7689    1.4364    1.5943 H   0  0  0  0  0  0  0  0  0  0  0  0
   -4.2542    3.3045    0.1486 H   0  0  0  0  0  0  0  0  0  0  0  0
   -3.9558    4.4340   -2.0285 H   0  0  0  0  0  0  0  0  0  0  0  0
   -2.8624    3.2536   -3.9207 H   0  0  0  0  0  0  0  0  0  0  0  0
   -2.0998    0.9079   -3.6231 H   0  0  0  0  0  0  0  0  0  0  0  0
   -2.5981   -0.2842   -1.5992 H   0  0  0  0  0  0  0  0  0  0  0  0
  1  2  2  0  0  0  0
  1 27  1  0  0  0  0
  3  1  1  0  0  0  0
  3  4  1  0  0  0  0
  3  7  1  0  0  0  0
  3 25  1  6  0  0  0
  4  5  1  0  0  0  0
  4 28  1  0  0  0  0
  4 29  1  0  0  0  0
  5  6  1  0  0  0  0
  5 30  1  0  0  0  0
  5 31  1  0  0  0  0
  6  7  1  0  0  0  0
  6 32  1  0  0  0  0
  6 33  1  0  0  0  0
  7  8  1  0  0  0  0
  8  9  2  0  0  0  0
 10  8  1  0  0  0  0
 10 11  1  0  0  0  0
 10 14  1  0  0  0  0
 10 26  1  1  0  0  0
 11 12  1  0  0  0  0
 11 34  1  0  0  0  0
 11 35  1  0  0  0  0
 12 13  1  0  0  0  0
 12 36  1  0  0  0  0
 12 37  1  0  0  0  0
 13 14  1  0  0  0  0
 13 38  1  0  0  0  0
 13 39  1  0  0  0  0
 14 15  1  0  0  0  0
 15 16  2  0  0  0  0
 15 17  1  0  0  0  0
 17 18  1  0  0  0  0
 18 19  1  0  0  0  0
 18 40  1  0  0  0  0
 18 41  1  0  0  0  0
 19 20  2  0  0  0  0
 19 24  1  0  0  0  0
 20 21  1  0  0  0  0
 20 42  1  0  0  0  0
 21 22  2  0  0  0  0
 21 43  1  0  0  0  0
 22 23  1  0  0  0  0
 22 44  1  0  0  0  0
 23 24  2  0  0  0  0
 23 45  1  0  0  0  0
 24 46  1  0  0  0  0
M  END
>  <DRUGBANK_ID>
DB03535

>  <SECONDARY_ACCESSION_NUMBERS>
EXPT03293

>  <COMMON_NAME>
Z-Pro-Prolinal

>  <UNII>
4YM8D0GKX6

$$$$
