
 OpenBabel10282417143D

 80 83  0  0  1  0  0  0  0  0999 V2000
   -2.4762    1.5636    0.9891 C   0  0  0  0  0  0  0  0  0  0  0  0
   -3.0898    1.5671   -0.4051 C   0  0  0  0  0  0  0  0  0  0  0  0
   -2.9647   -0.9364   -0.4579 C   0  0  0  0  0  0  0  0  0  0  0  0
   -1.3414   -2.1987    1.0335 C   0  0  0  0  0  0  0  0  0  0  0  0
   -1.5124    0.3727    1.2427 C   0  0  2  0  0  0  0  0  0  0  0  0
    0.5443    1.8272    0.5480 C   0  0  0  0  0  0  0  0  0  0  0  0
    2.9243   -1.7257   -0.3397 C   0  0  0  0  0  0  0  0  0  0  0  0
    4.0969   -1.0702   -1.0467 C   0  0  0  0  0  0  0  0  0  0  0  0
   -1.1646    0.4009    2.7557 C   0  0  0  0  0  0  0  0  0  0  0  0
   -0.2214    0.4798    0.3656 C   0  0  1  0  0  0  0  0  0  0  0  0
   -0.5279    0.4769   -0.6866 H   0  0  0  0  0  0  0  0  0  0  0  0
    0.6891   -0.7740    0.5548 C   0  0  2  0  0  0  0  0  0  0  0  0
    1.0074   -0.8327    1.6012 H   0  0  0  0  0  0  0  0  0  0  0  0
    1.9113   -0.6046   -0.3300 C   0  0  1  0  0  0  0  0  0  0  0  0
    2.7144    0.6528    0.0533 C   0  0  1  0  0  0  0  0  0  0  0  0
    3.0253    0.7214    1.5650 C   0  0  0  0  0  0  0  0  0  0  0  0
    1.5730   -0.5242   -1.3710 H   0  0  0  0  0  0  0  0  0  0  0  0
    3.7524    0.8536   -1.8407 H   0  0  0  0  0  0  0  0  0  0  0  0
   -3.8593    0.2769   -0.6568 C   0  0  2  0  0  0  0  0  0  0  0  0
   -4.3523    0.2732   -1.9934 O   0  0  0  0  0  0  0  0  0  0  0  0
   -0.0253   -2.0994    0.2722 C   0  0  2  0  0  0  0  0  0  0  0  0
   -0.2180   -2.3235   -1.1182 O   0  0  0  0  0  0  0  0  0  0  0  0
   -2.2563   -0.9620    0.9106 C   0  0  1  0  0  0  0  0  0  0  0  0
   -3.0511   -1.0897    1.6588 H   0  0  0  0  0  0  0  0  0  0  0  0
    6.1197   -0.6966    1.2469 C   0  0  0  0  0  0  0  0  0  0  0  0
    5.8943    0.7975    0.9991 C   0  0  0  0  0  0  0  0  0  0  0  0
    7.1486   -1.3384    0.3364 C   0  0  0  0  0  0  0  0  0  0  0  0
    7.0227   -1.5992   -0.8529 O   0  0  0  0  0  0  0  0  0  0  0  0
    3.9834    0.4662   -0.8347 C   0  0  1  0  0  0  0  0  0  0  0  0
    1.8642    1.9039   -0.2426 C   0  0  1  0  0  0  0  0  0  0  0  0
    1.5782    2.0757   -1.6253 O   0  0  0  0  0  0  0  0  0  0  0  0
    5.2654    1.2213   -0.3667 C   0  0  2  0  0  0  0  0  0  0  0  0
    6.3473    1.1533   -1.4490 C   0  0  0  0  0  0  0  0  0  0  0  0
    8.3216   -1.6298    0.9301 N   0  0  0  0  0  0  0  0  0  0  0  0
    9.4627   -1.9586    0.1111 C   0  0  0  0  0  0  0  0  0  0  0  0
   10.6620   -1.1815    0.5777 C   0  0  0  0  0  0  0  0  0  0  0  0
   11.2979   -3.1393    2.1051 O   0  0  0  0  0  0  0  0  0  0  0  0
   12.2569   -0.9029    2.6566 O   0  0  0  0  0  0  0  0  0  0  0  0
   11.0150   -1.5572    2.2844 S   0  0  0  0  0  0  0  0  0  0  0  0
    9.8168   -1.4355    3.0759 O   0  0  0  0  0  0  0  0  0  0  0  0
   -1.9751    2.5205    1.1679 H   0  0  0  0  0  0  0  0  0  0  0  0
   -3.2940    1.5223    1.7199 H   0  0  0  0  0  0  0  0  0  0  0  0
   -2.3180    1.7096   -1.1721 H   0  0  0  0  0  0  0  0  0  0  0  0
   -3.7654    2.4227   -0.5141 H   0  0  0  0  0  0  0  0  0  0  0  0
   -3.5470   -1.8560   -0.5925 H   0  0  0  0  0  0  0  0  0  0  0  0
   -2.2599   -0.9279   -1.2863 H   0  0  0  0  0  0  0  0  0  0  0  0
   -1.1031   -2.3507    2.0937 H   0  0  0  0  0  0  0  0  0  0  0  0
   -1.8838   -3.0916    0.7047 H   0  0  0  0  0  0  0  0  0  0  0  0
   -0.0844    2.6626    0.2309 H   0  0  0  0  0  0  0  0  0  0  0  0
    0.7531    1.9979    1.6082 H   0  0  0  0  0  0  0  0  0  0  0  0
    3.1831   -2.0530    0.6751 H   0  0  0  0  0  0  0  0  0  0  0  0
    2.5961   -2.6111   -0.8904 H   0  0  0  0  0  0  0  0  0  0  0  0
    4.9767   -1.5373   -0.6671 H   0  0  0  0  0  0  0  0  0  0  0  0
    4.1300   -1.3235   -2.1114 H   0  0  0  0  0  0  0  0  0  0  0  0
   -0.5023   -0.4137    3.0593 H   0  0  0  0  0  0  0  0  0  0  0  0
   -0.6815    1.3387    3.0466 H   0  0  0  0  0  0  0  0  0  0  0  0
   -2.0725    0.3120    3.3627 H   0  0  0  0  0  0  0  0  0  0  0  0
    3.6127   -0.1279    1.9051 H   0  0  0  0  0  0  0  0  0  0  0  0
    3.5096    1.6792    1.7807 H   0  0  0  0  0  0  0  0  0  0  0  0
    2.1665    0.7265    2.2351 H   0  0  0  0  0  0  0  0  0  0  0  0
   -4.7219    0.2133    0.0142 H   0  0  0  0  0  0  0  0  0  0  0  0
   -3.5939    0.3238   -2.6010 H   0  0  0  0  0  0  0  0  0  0  0  0
    0.6183   -2.9225    0.6042 H   0  0  0  0  0  0  0  0  0  0  0  0
   -0.5844   -1.5260   -1.5232 H   0  0  0  0  0  0  0  0  0  0  0  0
    6.4028   -0.8343    2.2959 H   0  0  0  0  0  0  0  0  0  0  0  0
    5.2001   -1.2743    1.1967 H   0  0  0  0  0  0  0  0  0  0  0  0
    6.8124    1.3694    1.1729 H   0  0  0  0  0  0  0  0  0  0  0  0
    5.2916    1.1492    1.8352 H   0  0  0  0  0  0  0  0  0  0  0  0
    2.4093    2.8053    0.0623 H   0  0  0  0  0  0  0  0  0  0  0  0
    1.1128    1.2928   -1.9552 H   0  0  0  0  0  0  0  0  0  0  0  0
    4.9945    2.2876   -0.2875 H   0  0  0  0  0  0  0  0  0  0  0  0
    6.0941    1.6913   -2.3642 H   0  0  0  0  0  0  0  0  0  0  0  0
    7.3091    1.5174   -1.0710 H   0  0  0  0  0  0  0  0  0  0  0  0
    6.4683    0.1363   -1.7887 H   0  0  0  0  0  0  0  0  0  0  0  0
    8.3451   -1.6928    1.9497 H   0  0  0  0  0  0  0  0  0  0  0  0
    9.5906   -3.0436    0.1404 H   0  0  0  0  0  0  0  0  0  0  0  0
    9.2777   -1.6906   -0.9378 H   0  0  0  0  0  0  0  0  0  0  0  0
   11.5371   -1.4166   -0.0307 H   0  0  0  0  0  0  0  0  0  0  0  0
   10.4652   -0.1053    0.5135 H   0  0  0  0  0  0  0  0  0  0  0  0
   10.4557   -3.6445    2.1273 H   0  0  0  0  0  0  0  0  0  0  0  0
  1 41  1  0  0  0  0
  1 42  1  0  0  0  0
  2  1  1  0  0  0  0
  2 43  1  0  0  0  0
  2 44  1  0  0  0  0
  3 45  1  0  0  0  0
  3 46  1  0  0  0  0
  4 21  1  0  0  0  0
  4 47  1  0  0  0  0
  4 48  1  0  0  0  0
  5 10  1  0  0  0  0
  5  9  1  1  0  0  0
  5  1  1  0  0  0  0
  6 30  1  0  0  0  0
  6 49  1  0  0  0  0
  6 50  1  0  0  0  0
  7 51  1  0  0  0  0
  7 52  1  0  0  0  0
  8  7  1  0  0  0  0
  8 53  1  0  0  0  0
  8 54  1  0  0  0  0
  9 55  1  0  0  0  0
  9 56  1  0  0  0  0
  9 57  1  0  0  0  0
 10  6  1  0  0  0  0
 10 12  1  0  0  0  0
 10 11  1  6  0  0  0
 12 14  1  0  0  0  0
 12 21  1  0  0  0  0
 12 13  1  1  0  0  0
 14 15  1  0  0  0  0
 14  7  1  0  0  0  0
 14 17  1  6  0  0  0
 15 29  1  0  0  0  0
 15 30  1  0  0  0  0
 15 16  1  1  0  0  0
 16 58  1  0  0  0  0
 16 59  1  0  0  0  0
 16 60  1  0  0  0  0
 19  3  1  0  0  0  0
 19  2  1  0  0  0  0
 19 20  1  0  0  0  0
 19 61  1  1  0  0  0
 20 62  1  0  0  0  0
 21 22  1  0  0  0  0
 21 63  1  1  0  0  0
 22 64  1  0  0  0  0
 23  5  1  0  0  0  0
 23  3  1  0  0  0  0
 23  4  1  0  0  0  0
 23 24  1  1  0  0  0
 25 26  1  0  0  0  0
 25 27  1  0  0  0  0
 25 65  1  0  0  0  0
 25 66  1  0  0  0  0
 26 67  1  0  0  0  0
 26 68  1  0  0  0  0
 27 34  1  0  0  0  0
 27 28  2  0  0  0  0
 29  8  1  0  0  0  0
 29 18  1  6  0  0  0
 29 32  1  0  0  0  0
 30 31  1  0  0  0  0
 30 69  1  1  0  0  0
 31 70  1  0  0  0  0
 32 26  1  0  0  0  0
 32 33  1  0  0  0  0
 32 71  1  1  0  0  0
 33 72  1  0  0  0  0
 33 73  1  0  0  0  0
 33 74  1  0  0  0  0
 34 35  1  0  0  0  0
 34 75  1  0  0  0  0
 35 36  1  0  0  0  0
 35 76  1  0  0  0  0
 35 77  1  0  0  0  0
 36 39  1  0  0  0  0
 36 78  1  0  0  0  0
 36 79  1  0  0  0  0
 37 80  1  0  0  0  0
 39 37  1  0  0  0  0
 39 38  2  0  0  0  0
 39 40  2  0  0  0  0
M  END
>  <DRUGBANK_ID>
DB04348

>  <SECONDARY_ACCESSION_NUMBERS>
EXPT03023

>  <COMMON_NAME>
Taurocholic acid

>  <CAS_NUMBER>
81-24-3

>  <UNII>
5E090O0G3Z

$$$$
