PU0
 OpenBabel10282417133D

 48 50  0  0  0  0  0  0  0  0999 V2000
    0.9339    0.0588    0.0630 C   0  0  0  0  0  0  0  0  0  0  0  0
    2.0646    2.5803   -0.8719 C   0  0  0  0  0  0  0  0  0  0  0  0
    0.3954    0.8149   -1.0123 O   0  0  0  0  0  0  0  0  0  0  0  0
    0.7416    2.1382   -1.0093 C   0  0  0  0  0  0  0  0  0  0  0  0
    2.3760    3.9420   -0.9796 C   0  0  0  0  0  0  0  0  0  0  0  0
    1.3747    4.8702   -1.2441 C   0  0  0  0  0  0  0  0  0  0  0  0
    1.7475    6.1884   -1.2287 O   0  0  0  0  0  0  0  0  0  0  0  0
    0.6781    7.1351   -1.2379 C   0  0  0  0  0  0  0  0  0  0  0  0
    0.0796    4.4084   -1.4714 C   0  0  0  0  0  0  0  0  0  0  0  0
   -0.2775    3.0547   -1.2791 C   0  0  0  0  0  0  0  0  0  0  0  0
   -1.7519    2.6476   -1.3127 C   0  0  0  0  0  0  0  0  0  0  0  0
   -2.5821    3.4790   -0.3576 C   0  0  0  0  0  0  0  0  0  0  0  0
   -2.6632    4.7799   -0.5659 N   0  0  0  0  0  0  0  0  0  0  0  0
   -3.3507    5.3002    0.4672 C   0  0  0  0  0  0  0  0  0  0  0  0
   -3.6000    6.6395    0.7818 C   0  0  0  0  0  0  0  0  0  0  0  0
   -3.0622    7.6506    0.0085 N   0  0  0  0  0  0  0  0  0  0  0  0
   -3.8613    4.3094    1.2868 C   0  0  0  0  0  0  0  0  0  0  0  0
   -4.6636    4.5588    2.3365 N   0  0  0  0  0  0  0  0  0  0  0  0
   -4.8231    5.8927    2.5723 C   0  0  0  0  0  0  0  0  0  0  0  0
   -4.3339    6.9309    1.8596 N   0  0  0  0  0  0  0  0  0  0  0  0
   -3.3150    3.1187    0.7825 N   0  0  0  0  0  0  0  0  0  0  0  0
   -3.5298    1.7615    1.2841 C   0  0  0  0  0  0  0  0  0  0  0  0
   -3.0327    1.4201    2.7077 C   0  0  0  0  0  0  0  0  0  0  0  0
   -3.7190    2.1989    3.8267 C   0  0  0  0  0  0  0  0  0  0  0  0
   -5.2282    1.9782    3.8501 C   0  0  0  0  0  0  0  0  0  0  0  0
   -5.5269    6.2315    3.6631 F   0  0  0  0  0  0  0  0  0  0  0  0
    0.5558   -0.9624   -0.0425 H   0  0  0  0  0  0  0  0  0  0  0  0
    0.5829    0.4542    1.0213 H   0  0  0  0  0  0  0  0  0  0  0  0
    2.0251    0.0084    0.0328 H   0  0  0  0  0  0  0  0  0  0  0  0
    2.8756    1.8842   -0.6854 H   0  0  0  0  0  0  0  0  0  0  0  0
    3.4047    4.2751   -0.8632 H   0  0  0  0  0  0  0  0  0  0  0  0
    0.2142    7.1645   -2.2290 H   0  0  0  0  0  0  0  0  0  0  0  0
   -0.0682    6.9251   -0.4618 H   0  0  0  0  0  0  0  0  0  0  0  0
    1.0884    8.1283   -1.0316 H   0  0  0  0  0  0  0  0  0  0  0  0
   -0.6948    5.1082   -1.7691 H   0  0  0  0  0  0  0  0  0  0  0  0
   -2.1094    2.8770   -2.3279 H   0  0  0  0  0  0  0  0  0  0  0  0
   -1.8975    1.5738   -1.1843 H   0  0  0  0  0  0  0  0  0  0  0  0
   -2.6132    7.3696   -0.8528 H   0  0  0  0  0  0  0  0  0  0  0  0
   -3.3539    8.5988    0.1755 H   0  0  0  0  0  0  0  0  0  0  0  0
   -4.5964    1.5350    1.1785 H   0  0  0  0  0  0  0  0  0  0  0  0
   -3.0258    1.0691    0.6001 H   0  0  0  0  0  0  0  0  0  0  0  0
   -3.1958    0.3488    2.9033 H   0  0  0  0  0  0  0  0  0  0  0  0
   -1.9489    1.5748    2.7699 H   0  0  0  0  0  0  0  0  0  0  0  0
   -3.3020    1.9264    4.8019 H   0  0  0  0  0  0  0  0  0  0  0  0
   -3.4647    3.2526    3.7228 H   0  0  0  0  0  0  0  0  0  0  0  0
   -5.4571    0.9560    4.1651 H   0  0  0  0  0  0  0  0  0  0  0  0
   -5.7085    2.6734    4.5439 H   0  0  0  0  0  0  0  0  0  0  0  0
   -5.6985    2.1306    2.8741 H   0  0  0  0  0  0  0  0  0  0  0  0
  1  3  1  0  0  0  0
  1 27  1  0  0  0  0
  1 28  1  0  0  0  0
  1 29  1  0  0  0  0
  2  4  1  0  0  0  0
  2  5  2  0  0  0  0
  2 30  1  0  0  0  0
  3  4  1  0  0  0  0
  4 10  2  0  0  0  0
  5  6  1  0  0  0  0
  5 31  1  0  0  0  0
  6  7  1  0  0  0  0
  6  9  2  0  0  0  0
  7  8  1  0  0  0  0
  8 32  1  0  0  0  0
  8 33  1  0  0  0  0
  8 34  1  0  0  0  0
  9 10  1  0  0  0  0
  9 35  1  0  0  0  0
 10 11  1  0  0  0  0
 11 12  1  0  0  0  0
 11 36  1  0  0  0  0
 11 37  1  0  0  0  0
 12 13  2  0  0  0  0
 12 21  1  0  0  0  0
 13 14  1  0  0  0  0
 14 15  2  0  0  0  0
 14 17  1  0  0  0  0
 15 16  1  0  0  0  0
 15 20  1  0  0  0  0
 16 38  1  0  0  0  0
 16 39  1  0  0  0  0
 17 18  2  0  0  0  0
 17 21  1  0  0  0  0
 18 19  1  0  0  0  0
 19 20  2  0  0  0  0
 19 26  1  0  0  0  0
 21 22  1  0  0  0  0
 22 23  1  0  0  0  0
 22 40  1  0  0  0  0
 22 41  1  0  0  0  0
 23 24  1  0  0  0  0
 23 42  1  0  0  0  0
 23 43  1  0  0  0  0
 24 25  1  0  0  0  0
 24 44  1  0  0  0  0
 24 45  1  0  0  0  0
 25 46  1  0  0  0  0
 25 47  1  0  0  0  0
 25 48  1  0  0  0  0
M  END
>  <DRUGBANK_ID>
DB04054

>  <SECONDARY_ACCESSION_NUMBERS>
EXPT02691

>  <COMMON_NAME>
9-Butyl-8-(2,5-Dimethoxy-Benzyl)-2-Fluoro-9h-Purin-6-Ylamine

$$$$
