
 OpenBabel10282417193D

 56 58  0  0  1  0  0  0  0  0999 V2000
    0.8043    0.1330   -0.3840 C   0  0  0  0  0  0  0  0  0  0  0  0
    0.4334   -1.3267   -0.5403 C   0  0  0  0  0  0  0  0  0  0  0  0
    0.9969   -2.1949    0.5889 C   0  0  0  0  0  0  0  0  0  0  0  0
    0.4474   -1.7829    1.8763 N   0  0  0  0  0  0  0  0  0  0  0  0
    0.9358   -0.8442    2.6060 C   0  0  0  0  0  0  0  0  0  0  0  0
    0.3943   -0.4751    3.8158 N   0  0  0  0  0  0  0  0  0  0  0  0
    0.8245    0.7479    4.3461 C   0  0  0  0  0  0  0  0  0  0  0  0
    0.6002    1.2193    5.4408 O   0  0  0  0  0  0  0  0  0  0  0  0
    1.7147    1.4155    3.3411 C   0  0  0  0  0  0  0  0  0  0  0  0
    2.0321    2.7212    3.3146 C   0  0  0  0  0  0  0  0  0  0  0  0
    2.6803    3.3860    2.1623 C   0  0  0  0  0  0  0  0  0  0  0  0
    1.9575    3.8037    1.0309 C   0  0  0  0  0  0  0  0  0  0  0  0
    2.6002    4.4610   -0.0450 C   0  0  0  0  0  0  0  0  0  0  0  0
    3.9895    4.5563   -0.0763 C   0  0  0  0  0  0  0  0  0  0  0  0
    4.6594    3.7927    0.8676 C   0  0  0  0  0  0  0  0  0  0  0  0
    4.0596    3.4432    2.0847 C   0  0  0  0  0  0  0  0  0  0  0  0
    6.1586    3.0135    0.4876 Cl  0  0  0  0  0  0  0  0  0  0  0  0
    4.5613    5.3876   -1.0000 O   0  0  0  0  0  0  0  0  0  0  0  0
    5.9342    5.8175   -0.8465 C   0  0  0  0  0  0  0  0  0  0  0  0
    6.3405    6.6625    0.4007 C   0  0  1  0  0  0  0  0  0  0  0  0
    6.0534    6.1827    1.8395 C   0  0  0  0  0  0  0  0  0  0  0  0
    6.9176    5.1449    2.3099 O   0  0  0  0  0  0  0  0  0  0  0  0
    7.7486    6.9422    0.3080 O   0  0  0  0  0  0  0  0  0  0  0  0
    2.2911    0.2043    2.2662 S   0  0  0  0  0  0  0  0  0  0  0  0
   -0.3819   -1.3743    4.5919 C   0  0  0  0  0  0  0  0  0  0  0  0
   -1.5848   -0.9262    5.1597 C   0  0  0  0  0  0  0  0  0  0  0  0
   -2.3318   -1.7642    5.9872 C   0  0  0  0  0  0  0  0  0  0  0  0
   -1.8781   -3.0503    6.2639 C   0  0  0  0  0  0  0  0  0  0  0  0
   -0.6862   -3.5081    5.7041 C   0  0  0  0  0  0  0  0  0  0  0  0
    0.0763   -2.6872    4.8606 C   0  0  0  0  0  0  0  0  0  0  0  0
    1.3990   -3.2189    4.3682 C   0  0  0  0  0  0  0  0  0  0  0  0
    0.2986    0.5342    0.5001 H   0  0  0  0  0  0  0  0  0  0  0  0
    0.4988    0.7736   -1.2075 H   0  0  0  0  0  0  0  0  0  0  0  0
    1.8925    0.2176   -0.3026 H   0  0  0  0  0  0  0  0  0  0  0  0
   -0.6586   -1.4072   -0.5492 H   0  0  0  0  0  0  0  0  0  0  0  0
    0.8076   -1.6873   -1.5039 H   0  0  0  0  0  0  0  0  0  0  0  0
    0.6752   -3.2309    0.4035 H   0  0  0  0  0  0  0  0  0  0  0  0
    2.0925   -2.2327    0.5934 H   0  0  0  0  0  0  0  0  0  0  0  0
    1.7965    3.3542    4.1696 H   0  0  0  0  0  0  0  0  0  0  0  0
    0.8871    3.6185    0.9690 H   0  0  0  0  0  0  0  0  0  0  0  0
    2.0090    4.8378   -0.8788 H   0  0  0  0  0  0  0  0  0  0  0  0
    4.6772    3.1506    2.9296 H   0  0  0  0  0  0  0  0  0  0  0  0
    6.6362    5.0062   -1.0659 H   0  0  0  0  0  0  0  0  0  0  0  0
    6.1220    6.4792   -1.7119 H   0  0  0  0  0  0  0  0  0  0  0  0
    5.8165    7.6191    0.3035 H   0  0  0  0  0  0  0  0  0  0  0  0
    6.2389    6.9953    2.5438 H   0  0  0  0  0  0  0  0  0  0  0  0
    4.9983    5.9454    1.9839 H   0  0  0  0  0  0  0  0  0  0  0  0
    6.8220    4.3391    1.7724 H   0  0  0  0  0  0  0  0  0  0  0  0
    8.2141    6.1486    0.6373 H   0  0  0  0  0  0  0  0  0  0  0  0
   -1.9590    0.0732    4.9488 H   0  0  0  0  0  0  0  0  0  0  0  0
   -3.2614   -1.4097    6.4245 H   0  0  0  0  0  0  0  0  0  0  0  0
   -2.4459   -3.6984    6.9260 H   0  0  0  0  0  0  0  0  0  0  0  0
   -0.3367   -4.5079    5.9522 H   0  0  0  0  0  0  0  0  0  0  0  0
    1.4155   -3.3428    3.2858 H   0  0  0  0  0  0  0  0  0  0  0  0
    2.2127   -2.5530    4.6736 H   0  0  0  0  0  0  0  0  0  0  0  0
    1.6119   -4.2144    4.7665 H   0  0  0  0  0  0  0  0  0  0  0  0
  1  2  1  0  0  0  0
  1 32  1  0  0  0  0
  1 33  1  0  0  0  0
  1 34  1  0  0  0  0
  2  3  1  0  0  0  0
  2 35  1  0  0  0  0
  2 36  1  0  0  0  0
  3  4  1  0  0  0  0
  3 37  1  0  0  0  0
  3 38  1  0  0  0  0
  4  5  2  0  0  0  0
  5  6  1  0  0  0  0
  5 24  1  0  0  0  0
  6  7  1  0  0  0  0
  6 25  1  0  0  0  0
  7  8  2  0  0  0  0
  7  9  1  0  0  0  0
  9 10  2  0  0  0  0
  9 24  1  0  0  0  0
 10 11  1  0  0  0  0
 10 39  1  0  0  0  0
 11 12  2  0  0  0  0
 11 16  1  0  0  0  0
 12 13  1  0  0  0  0
 12 40  1  0  0  0  0
 13 14  2  0  0  0  0
 13 41  1  0  0  0  0
 14 15  1  0  0  0  0
 14 18  1  0  0  0  0
 15 16  2  0  0  0  0
 15 17  1  0  0  0  0
 16 42  1  0  0  0  0
 18 19  1  0  0  0  0
 19 20  1  0  0  0  0
 19 43  1  0  0  0  0
 19 44  1  0  0  0  0
 20 21  1  0  0  0  0
 20 23  1  0  0  0  0
 20 45  1  6  0  0  0
 21 22  1  0  0  0  0
 21 46  1  0  0  0  0
 21 47  1  0  0  0  0
 22 48  1  0  0  0  0
 23 49  1  0  0  0  0
 25 26  2  0  0  0  0
 25 30  1  0  0  0  0
 26 27  1  0  0  0  0
 26 50  1  0  0  0  0
 27 28  2  0  0  0  0
 27 51  1  0  0  0  0
 28 29  1  0  0  0  0
 28 52  1  0  0  0  0
 29 30  2  0  0  0  0
 29 53  1  0  0  0  0
 30 31  1  0  0  0  0
 31 54  1  0  0  0  0
 31 55  1  0  0  0  0
 31 56  1  0  0  0  0
M  END
>  <DRUGBANK_ID>
DB12016

>  <COMMON_NAME>
Ponesimod

>  <CAS_NUMBER>
854107-55-4

>  <UNII>
5G7AKV2MKP

>  <SYNONYMS>
Ponesimod

$$$$
