
 OpenBabel10282417123D

 46 47  0  0  0  0  0  0  0  0999 V2000
    1.1534   -0.8636   -0.3596 C   0  0  2  0  0  0  0  0  0  0  0  0
    2.3763   -1.6360   -0.2176 N   0  0  0  0  0  0  0  0  0  0  0  0
    1.3988    0.5193   -0.1810 O   0  0  0  0  0  0  0  0  0  0  0  0
   -0.0113   -1.2721    0.5282 C   0  0  0  0  0  0  0  0  0  0  0  0
    3.0906   -1.6880    0.9785 C   0  0  0  0  0  0  0  0  0  0  0  0
    2.6835   -2.4578   -1.2738 C   0  0  0  0  0  0  0  0  0  0  0  0
    0.2005    1.0824    0.3650 C   0  0  1  0  0  0  0  0  0  0  0  0
   -0.8460   -0.0179    0.5137 C   0  0  1  0  0  0  0  0  0  0  0  0
    4.1556   -2.5704    0.9722 N   0  0  0  0  0  0  0  0  0  0  0  0
    2.8116   -1.0648    1.9960 O   0  0  0  0  0  0  0  0  0  0  0  0
   -1.7298   -0.0446   -0.6104 O   0  0  0  0  0  0  0  0  0  0  0  0
    4.3243   -3.5805    0.0733 C   0  0  0  0  0  0  0  0  0  0  0  0
   -1.2548    9.4966    2.6386 O   0  0  0  0  0  0  0  0  0  0  0  0
   -0.3631    7.5784    1.5325 O   0  0  0  0  0  0  0  0  0  0  0  0
    0.1724    5.2806    2.1377 O   0  0  0  0  0  0  0  0  0  0  0  0
   -0.6996    7.3301    3.9196 O   0  0  0  0  0  0  0  0  0  0  0  0
    0.1355    9.2399    4.5262 O   0  0  0  0  0  0  0  0  0  0  0  0
   -1.4931    5.7254    0.1350 O   0  0  0  0  0  0  0  0  0  0  0  0
   -2.3150    6.1186    2.4116 O   0  0  0  0  0  0  0  0  0  0  0  0
    2.4087    3.9969    1.5373 O   0  0  0  0  0  0  0  0  0  0  0  0
    0.7376    4.7272   -0.2222 O   0  0  0  0  0  0  0  0  0  0  0  0
   -0.1138    8.4091    3.0293 P   0  0  0  0  0  0  0  0  0  0  0  0
   -1.0109    6.1230    1.4925 P   0  0  3  0  0  0  0  0  0  0  0  0
    0.9584    4.2084    1.2721 P   0  0  3  0  0  0  0  0  0  0  0  0
   -0.0334    2.9950    1.5668 O   0  0  0  0  0  0  0  0  0  0  0  0
    0.5300    1.7099    1.6946 C   0  0  0  0  0  0  0  0  0  0  0  0
    5.0773   -4.5418    0.2797 O   0  0  0  0  0  0  0  0  0  0  0  0
    3.5484   -3.4688   -1.1718 C   0  0  0  0  0  0  0  0  0  0  0  0
    3.6804   -4.5011   -2.2322 C   0  0  0  0  0  0  0  0  0  0  0  0
    0.8100   -0.9465   -1.3987 H   0  0  0  0  0  0  0  0  0  0  0  0
    0.3128   -1.5005    1.5472 H   0  0  0  0  0  0  0  0  0  0  0  0
   -0.5382   -2.1395    0.1206 H   0  0  0  0  0  0  0  0  0  0  0  0
    2.1243   -2.3070   -2.1913 H   0  0  0  0  0  0  0  0  0  0  0  0
   -0.1476    1.8410   -0.3468 H   0  0  0  0  0  0  0  0  0  0  0  0
   -1.4768    0.0887    1.4024 H   0  0  0  0  0  0  0  0  0  0  0  0
    4.6798   -2.6454    1.8315 H   0  0  0  0  0  0  0  0  0  0  0  0
   -1.2191    0.1060   -1.4241 H   0  0  0  0  0  0  0  0  0  0  0  0
   -0.8664   10.2818    2.2101 H   0  0  0  0  0  0  0  0  0  0  0  0
   -0.2875    8.6281    5.1688 H   0  0  0  0  0  0  0  0  0  0  0  0
   -3.0850    6.1040    1.8087 H   0  0  0  0  0  0  0  0  0  0  0  0
    1.0729    5.6395   -0.3400 H   0  0  0  0  0  0  0  0  0  0  0  0
    0.0662    1.2010    2.5485 H   0  0  0  0  0  0  0  0  0  0  0  0
    1.6029    1.7490    1.9073 H   0  0  0  0  0  0  0  0  0  0  0  0
    4.7045   -4.5487   -2.6051 H   0  0  0  0  0  0  0  0  0  0  0  0
    3.3874   -5.4795   -1.8373 H   0  0  0  0  0  0  0  0  0  0  0  0
    3.0165   -4.2861   -3.0784 H   0  0  0  0  0  0  0  0  0  0  0  0
  1  3  1  0  0  0  0
  1  4  1  0  0  0  0
  1 30  1  6  0  0  0
  1  2  1  0  0  0  0
  2  5  1  0  0  0  0
  2  6  1  0  0  0  0
  3  7  1  0  0  0  0
  4  8  1  0  0  0  0
  4 31  1  0  0  0  0
  4 32  1  0  0  0  0
  5  9  1  0  0  0  0
  5 10  2  0  0  0  0
  6 28  2  0  0  0  0
  6 33  1  0  0  0  0
  7  8  1  0  0  0  0
  7 34  1  6  0  0  0
  7 26  1  0  0  0  0
  8 11  1  0  0  0  0
  8 35  1  1  0  0  0
  9 12  1  0  0  0  0
  9 36  1  0  0  0  0
 11 37  1  0  0  0  0
 12 27  2  0  0  0  0
 13 22  1  0  0  0  0
 13 38  1  0  0  0  0
 14 23  1  0  0  0  0
 15 24  1  0  0  0  0
 17 39  1  0  0  0  0
 19 40  1  0  0  0  0
 21 41  1  0  0  0  0
 22 14  1  0  0  0  0
 22 16  2  0  0  0  0
 22 17  1  0  0  0  0
 23 15  1  0  0  0  0
 23 18  2  0  0  0  0
 23 19  1  0  0  0  0
 24 25  1  0  0  0  0
 24 20  2  0  0  0  0
 24 21  1  0  0  0  0
 26 25  1  0  0  0  0
 26 42  1  0  0  0  0
 26 43  1  0  0  0  0
 28 12  1  0  0  0  0
 28 29  1  0  0  0  0
 29 44  1  0  0  0  0
 29 45  1  0  0  0  0
 29 46  1  0  0  0  0
M  END
>  <DRUGBANK_ID>
DB02452

>  <SECONDARY_ACCESSION_NUMBERS>
EXPT03131

>  <COMMON_NAME>
Thymidine 5'-triphosphate

>  <CAS_NUMBER>
365-08-2

>  <UNII>
QOP4K539MU

>  <SYNONYMS>
2'-deoxythymidine triphosphate; 5'-TTP; deoxy-TTP; dTTP; pppdT; Thymidine-5'-triphosphate

$$$$
