
 OpenBabel10282417123D

 22 21  0  0  0  0  0  0  0  0999 V2000
    3.5579    0.8304    0.4809 O   0  0  0  0  0  0  0  0  0  0  0  0
    1.1240    3.2619    1.4292 N   0  0  0  0  0  0  0  0  0  0  0  0
    3.0133    2.0360    0.9181 N   0  0  0  0  0  0  0  0  0  0  0  0
    1.0642    0.9198    1.1199 N   0  0  0  0  0  0  0  0  0  0  0  0
   -1.1040    3.5217    0.3138 C   0  0  0  0  0  0  0  0  0  0  0  0
   -1.1566    2.1862   -0.4269 C   0  0  0  0  0  0  0  0  0  0  0  0
   -0.3193    3.4857    1.6393 C   0  0  0  0  0  0  0  0  0  0  0  0
   -1.8553    1.0865    0.3848 C   0  0  0  0  0  0  0  0  0  0  0  0
    1.6743    2.1415    1.1778 C   0  0  0  0  0  0  0  0  0  0  0  0
    2.7858    0.2437    0.3864 H   0  0  0  0  0  0  0  0  0  0  0  0
    3.6393    2.7726    1.2176 H   0  0  0  0  0  0  0  0  0  0  0  0
    1.0340    0.5265    0.1863 H   0  0  0  0  0  0  0  0  0  0  0  0
    0.1152    1.0770    1.3872 H   0  0  0  0  0  0  0  0  0  0  0  0
   -2.1370    3.8424    0.5008 H   0  0  0  0  0  0  0  0  0  0  0  0
   -0.6587    4.2800   -0.3435 H   0  0  0  0  0  0  0  0  0  0  0  0
   -1.6732    2.2898   -1.3861 H   0  0  0  0  0  0  0  0  0  0  0  0
   -0.1371    1.9229   -0.7246 H   0  0  0  0  0  0  0  0  0  0  0  0
   -0.7571    2.7910    2.3631 H   0  0  0  0  0  0  0  0  0  0  0  0
   -0.4377    4.4747    2.1042 H   0  0  0  0  0  0  0  0  0  0  0  0
   -2.9351    1.2255    0.3759 H   0  0  0  0  0  0  0  0  0  0  0  0
   -1.6009    0.1006   -0.0183 H   0  0  0  0  0  0  0  0  0  0  0  0
   -1.6109    1.0639    1.4525 H   0  0  0  0  0  0  0  0  0  0  0  0
  1  3  1  0  0  0  0
  1 10  1  0  0  0  0
  2  7  1  0  0  0  0
  2  9  2  0  0  0  0
  3  9  1  0  0  0  0
  3 11  1  0  0  0  0
  4  9  1  0  0  0  0
  4 12  1  0  0  0  0
  4 13  1  0  0  0  0
  5  6  1  0  0  0  0
  5  7  1  0  0  0  0
  5 14  1  0  0  0  0
  5 15  1  0  0  0  0
  6  8  1  0  0  0  0
  6 16  1  0  0  0  0
  6 17  1  0  0  0  0
  7 18  1  0  0  0  0
  7 19  1  0  0  0  0
  8 20  1  0  0  0  0
  8 21  1  0  0  0  0
  8 22  1  0  0  0  0
M  END
>  <DRUGBANK_ID>
DB02727

>  <SECONDARY_ACCESSION_NUMBERS>
EXPT00698

>  <COMMON_NAME>
2-butyl-1-hydroxyguanidine

>  <CAS_NUMBER>
140215-98-1

>  <SYNONYMS>
N-butyl-N'-hydroxyguanidine

$$$$
