
 OpenBabel10282417173D

 51 54  0  0  1  0  0  0  0  0999 V2000
   -4.8068  -12.4457    2.4974 C   0  0  0  0  0  0  0  0  0  0  0  0
    1.0230  -11.9651    6.9175 C   0  0  0  0  0  0  0  0  0  0  0  0
   -2.3186  -15.0034    4.9027 C   0  0  0  0  0  0  0  0  0  0  0  0
   -4.3388  -12.5775    3.6162 C   0  0  0  0  0  0  0  0  0  0  0  0
    0.4909   -7.7012    2.0898 C   0  0  0  0  0  0  0  0  0  0  0  0
   -0.0358   -9.0875    2.3591 C   0  0  0  0  0  0  0  0  0  0  0  0
   -1.2384  -11.5964    3.0106 C   0  0  0  0  0  0  0  0  0  0  0  0
   -1.0656  -13.4013    5.7245 C   0  0  0  0  0  0  0  0  0  0  0  0
   -1.5731  -13.0814    3.2127 C   0  0  0  0  0  0  0  0  0  0  0  0
   -2.6948  -12.1882    5.5031 C   0  0  0  0  0  0  0  0  0  0  0  0
    0.5128   -9.1049    6.2708 C   0  0  0  0  0  0  0  0  0  0  0  0
    0.4654   -7.1950    4.6073 C   0  0  0  0  0  0  0  0  0  0  0  0
    0.7876  -10.6104    6.2846 C   0  0  2  0  0  0  0  0  0  0  0  0
    0.5025   -8.6864    4.7891 C   0  0  0  0  0  0  0  0  0  0  0  0
   -0.1596   -6.9458    3.2337 C   0  0  0  0  0  0  0  0  0  0  0  0
    0.2378   -9.5575    3.7605 C   0  0  0  0  0  0  0  0  0  0  0  0
   -0.1633  -11.0060    4.0098 C   0  0  2  0  0  0  0  0  0  0  0  0
   -1.3194  -12.1278    5.9922 C   0  0  1  0  0  0  0  0  0  0  0  0
   -0.5339  -10.9658    5.5059 C   0  0  2  0  0  0  0  0  0  0  0  0
   -2.2266  -13.3312    4.6567 C   0  0  2  0  0  0  0  0  0  0  0  0
   -3.6561  -12.9675    4.8123 C   0  0  2  0  0  0  0  0  0  0  0  0
   -1.2453   -6.3817    3.1065 O   0  0  0  0  0  0  0  0  0  0  0  0
   -4.4749  -13.4053    5.8495 O   0  0  0  0  0  0  0  0  0  0  0  0
    1.1078  -10.3568    7.3076 H   0  0  0  0  0  0  0  0  0  0  0  0
    0.7304  -11.6214    3.8725 H   0  0  0  0  0  0  0  0  0  0  0  0
   -1.6024  -12.2406    7.1120 H   0  0  0  0  0  0  0  0  0  0  0  0
   -1.2990  -10.1685    5.6252 H   0  0  0  0  0  0  0  0  0  0  0  0
   -5.1420  -12.4438    1.4978 H   0  0  0  0  0  0  0  0  0  0  0  0
    1.0261  -12.5662    6.0154 H   0  0  0  0  0  0  0  0  0  0  0  0
    1.9395  -12.3912    7.2970 H   0  0  0  0  0  0  0  0  0  0  0  0
    0.2465  -12.1867    7.6730 H   0  0  0  0  0  0  0  0  0  0  0  0
   -1.3571  -15.4627    5.1799 H   0  0  0  0  0  0  0  0  0  0  0  0
   -2.9949  -15.2231    5.7381 H   0  0  0  0  0  0  0  0  0  0  0  0
   -2.6437  -15.4637    3.9757 H   0  0  0  0  0  0  0  0  0  0  0  0
    1.5719   -7.5161    2.1161 H   0  0  0  0  0  0  0  0  0  0  0  0
    0.1888   -7.4793    1.0639 H   0  0  0  0  0  0  0  0  0  0  0  0
    0.2624   -9.7709    1.5590 H   0  0  0  0  0  0  0  0  0  0  0  0
   -1.1379   -9.0545    2.3064 H   0  0  0  0  0  0  0  0  0  0  0  0
   -0.9017  -11.4770    1.9796 H   0  0  0  0  0  0  0  0  0  0  0  0
   -2.1770  -11.0316    3.0252 H   0  0  0  0  0  0  0  0  0  0  0  0
   -0.6394  -13.8040    6.6453 H   0  0  0  0  0  0  0  0  0  0  0  0
   -0.2265  -13.4635    4.9543 H   0  0  0  0  0  0  0  0  0  0  0  0
   -0.6707  -13.6919    3.0502 H   0  0  0  0  0  0  0  0  0  0  0  0
   -2.2682  -13.4497    2.4554 H   0  0  0  0  0  0  0  0  0  0  0  0
   -3.1042  -11.5618    6.3794 H   0  0  0  0  0  0  0  0  0  0  0  0
   -2.6426  -11.2570    4.8120 H   0  0  0  0  0  0  0  0  0  0  0  0
    1.2316   -8.5199    6.8521 H   0  0  0  0  0  0  0  0  0  0  0  0
   -0.4701   -8.8568    6.7367 H   0  0  0  0  0  0  0  0  0  0  0  0
    1.4274   -6.6884    4.7325 H   0  0  0  0  0  0  0  0  0  0  0  0
   -0.1914   -6.8178    5.3995 H   0  0  0  0  0  0  0  0  0  0  0  0
   -4.8587  -14.2220    5.5145 H   0  0  0  0  0  0  0  0  0  0  0  0
  1 28  1  0  0  0  0
  2 29  1  0  0  0  0
  2 30  1  0  0  0  0
  2 31  1  0  0  0  0
  3 32  1  0  0  0  0
  3 33  1  0  0  0  0
  3 34  1  0  0  0  0
  4  1  3  0  0  0  0
  5 35  1  0  0  0  0
  5 36  1  0  0  0  0
  6  5  1  0  0  0  0
  6 37  1  0  0  0  0
  6 38  1  0  0  0  0
  7 39  1  0  0  0  0
  7 40  1  0  0  0  0
  8 41  1  0  0  0  0
  8 42  1  0  0  0  0
  9  7  1  0  0  0  0
  9 43  1  0  0  0  0
  9 44  1  0  0  0  0
 10  8  1  0  0  0  0
 10 45  1  0  0  0  0
 10 46  1  0  0  0  0
 11 47  1  0  0  0  0
 11 48  1  0  0  0  0
 12 49  1  0  0  0  0
 12 50  1  0  0  0  0
 13 11  1  0  0  0  0
 13 24  1  6  0  0  0
 13  2  1  0  0  0  0
 14 11  1  0  0  0  0
 14 12  1  0  0  0  0
 15  5  1  0  0  0  0
 15 12  1  0  0  0  0
 16  6  1  0  0  0  0
 16 14  2  0  0  0  0
 17  7  1  0  0  0  0
 17 16  1  0  0  0  0
 17 25  1  1  0  0  0
 18  8  1  0  0  0  0
 18 26  1  1  0  0  0
 19 13  1  0  0  0  0
 19 17  1  0  0  0  0
 19 18  1  0  0  0  0
 19 27  1  6  0  0  0
 20  9  1  0  0  0  0
 20 18  1  0  0  0  0
 20  3  1  1  0  0  0
 21 10  1  0  0  0  0
 21 20  1  0  0  0  0
 21 23  1  0  0  0  0
 21  4  1  6  0  0  0
 22 15  2  0  0  0  0
 23 51  1  0  0  0  0
M  END
>  <DRUGBANK_ID>
DB09070

>  <COMMON_NAME>
Tibolone

>  <CAS_NUMBER>
5630-53-5

>  <UNII>
FF9X0205V2

>  <SYNONYMS>
17-hydroxy-7alpha-methyl-19-nor-17alpha-pregn-5(10)-en-20-yn-3-one; tibolona; Tibolone; tibolonum

$$$$
