
 OpenBabel10282417163D

 40 41  0  0  0  0  0  0  0  0999 V2000
   -1.9924   -0.3949   -0.7262 Cl  0  0  0  0  0  0  0  0  0  0  0  0
   -0.5365    2.7327   -0.1312 S   0  0  0  0  0  0  0  0  0  0  0  0
    5.0010   -0.6783   -1.0998 S   0  0  0  0  0  0  0  0  0  0  0  0
   -0.0609    3.4539    1.0230 O   0  0  0  0  0  0  0  0  0  0  0  0
   -0.3897    3.3158   -1.4521 O   0  0  0  0  0  0  0  0  0  0  0  0
   -3.1334    3.8418    2.4604 O   0  0  0  0  0  0  0  0  0  0  0  0
    9.8436   -0.3613   -0.3214 O   0  0  0  0  0  0  0  0  0  0  0  0
   -2.1760    2.4828    0.1039 N   0  0  0  0  0  0  0  0  0  0  0  0
    6.0158    0.4897    0.9331 N   0  0  0  0  0  0  0  0  0  0  0  0
    7.6025   -0.4417   -0.5727 N   0  0  0  0  0  0  0  0  0  0  0  0
    0.2777    1.1543   -0.1684 C   0  0  0  0  0  0  0  0  0  0  0  0
    2.4548    0.0043   -0.0722 C   0  0  0  0  0  0  0  0  0  0  0  0
    1.6892    1.1896   -0.0773 C   0  0  0  0  0  0  0  0  0  0  0  0
    3.9155    0.0464    0.0454 C   0  0  0  0  0  0  0  0  0  0  0  0
   -0.3579   -0.0860   -0.2527 C   0  0  0  0  0  0  0  0  0  0  0  0
    1.7846   -1.2168   -0.0332 C   0  0  0  0  0  0  0  0  0  0  0  0
   -2.6748    1.7972    1.3142 C   0  0  0  0  0  0  0  0  0  0  0  0
    4.6577    0.6165    1.0625 C   0  0  0  0  0  0  0  0  0  0  0  0
    0.3939   -1.2554   -0.0947 C   0  0  0  0  0  0  0  0  0  0  0  0
   -2.4486    2.6062    2.5678 C   0  0  0  0  0  0  0  0  0  0  0  0
    6.3285   -0.1573   -0.1543 C   0  0  0  0  0  0  0  0  0  0  0  0
    4.1620    1.3209    2.2667 C   0  0  0  0  0  0  0  0  0  0  0  0
    8.7293   -0.0691    0.1212 C   0  0  0  0  0  0  0  0  0  0  0  0
    8.6015    0.6934    1.4227 C   0  0  0  0  0  0  0  0  0  0  0  0
   -2.7621    3.2220   -0.2889 H   0  0  0  0  0  0  0  0  0  0  0  0
    7.7521   -0.9467   -1.4344 H   0  0  0  0  0  0  0  0  0  0  0  0
   -2.7532    4.2907    1.6836 H   0  0  0  0  0  0  0  0  0  0  0  0
    2.1978    2.1554   -0.0272 H   0  0  0  0  0  0  0  0  0  0  0  0
    2.3294   -2.1555    0.0332 H   0  0  0  0  0  0  0  0  0  0  0  0
   -3.7412    1.5870    1.1589 H   0  0  0  0  0  0  0  0  0  0  0  0
   -2.1776    0.8427    1.4735 H   0  0  0  0  0  0  0  0  0  0  0  0
   -0.1083   -2.2210   -0.0763 H   0  0  0  0  0  0  0  0  0  0  0  0
   -2.8128    2.0480    3.4330 H   0  0  0  0  0  0  0  0  0  0  0  0
   -1.3858    2.7805    2.7388 H   0  0  0  0  0  0  0  0  0  0  0  0
    4.5253    0.8177    3.1668 H   0  0  0  0  0  0  0  0  0  0  0  0
    4.5279    2.3511    2.2603 H   0  0  0  0  0  0  0  0  0  0  0  0
    3.0719    1.3430    2.3135 H   0  0  0  0  0  0  0  0  0  0  0  0
    8.1047    1.6530    1.2489 H   0  0  0  0  0  0  0  0  0  0  0  0
    8.0582    0.0921    2.1583 H   0  0  0  0  0  0  0  0  0  0  0  0
    9.5874    0.9084    1.8420 H   0  0  0  0  0  0  0  0  0  0  0  0
  1 15  1  0  0  0  0
  2  4  2  0  0  0  0
  2  5  2  0  0  0  0
  2  8  1  0  0  0  0
  2 11  1  0  0  0  0
  3 14  1  0  0  0  0
  3 21  1  0  0  0  0
  6 20  1  0  0  0  0
  6 27  1  0  0  0  0
  7 23  2  0  0  0  0
  8 17  1  0  0  0  0
  8 25  1  0  0  0  0
  9 18  1  0  0  0  0
  9 21  2  0  0  0  0
 10 21  1  0  0  0  0
 10 23  1  0  0  0  0
 10 26  1  0  0  0  0
 11 13  1  0  0  0  0
 11 15  2  0  0  0  0
 12 13  2  0  0  0  0
 12 14  1  0  0  0  0
 12 16  1  0  0  0  0
 13 28  1  0  0  0  0
 14 18  2  0  0  0  0
 15 19  1  0  0  0  0
 16 19  2  0  0  0  0
 16 29  1  0  0  0  0
 17 20  1  0  0  0  0
 17 30  1  0  0  0  0
 17 31  1  0  0  0  0
 18 22  1  0  0  0  0
 19 32  1  0  0  0  0
 20 33  1  0  0  0  0
 20 34  1  0  0  0  0
 22 35  1  0  0  0  0
 22 36  1  0  0  0  0
 22 37  1  0  0  0  0
 23 24  1  0  0  0  0
 24 38  1  0  0  0  0
 24 39  1  0  0  0  0
 24 40  1  0  0  0  0
M  END
>  <DRUGBANK_ID>
DB06836

>  <COMMON_NAME>
N-(5-{4-Chloro-3-[(2-hydroxyethyl)sulfamoyl]phenyl}-4-methyl-1,3-thiazol-2-yl)acetamide

>  <CAS_NUMBER>
593960-11-3

>  <UNII>
QS3XFL5JRX

$$$$
