
 OpenBabel10282417153D

 83 83  0  0  0  0  0  0  0  0999 V2000
    0.9913   -0.2035   -0.0447 C   0  0  0  0  0  0  0  0  0  0  0  0
    0.5479    0.0960    1.3780 C   0  0  0  0  0  0  0  0  0  0  0  0
    1.0454    1.4755    1.8120 C   0  0  0  0  0  0  0  0  0  0  0  0
    0.4900    2.5786    0.9044 C   0  0  0  0  0  0  0  0  0  0  0  0
   -1.0426    2.5793    0.9278 C   0  0  0  0  0  0  0  0  0  0  0  0
   -1.5459    2.8471    2.3491 C   0  0  0  0  0  0  0  0  0  0  0  0
   -1.0382    4.2104    2.8275 C   0  0  0  0  0  0  0  0  0  0  0  0
   -1.5512    5.3058    1.8881 C   0  0  0  0  0  0  0  0  0  0  0  0
   -3.0822    5.2970    1.8898 C   0  0  0  0  0  0  0  0  0  0  0  0
   -3.5839    5.5484    3.3150 C   0  0  0  0  0  0  0  0  0  0  0  0
   -3.0692    6.9083    3.7950 C   0  0  0  0  0  0  0  0  0  0  0  0
   -3.5868    7.9926    2.8473 C   0  0  0  0  0  0  0  0  0  0  0  0
   -5.1204    7.9448    2.8354 C   0  0  0  0  0  0  0  0  0  0  0  0
   -5.6453    8.1953    4.2532 C   0  0  0  0  0  0  0  0  0  0  0  0
   -5.1265    9.5490    4.7277 C   0  0  0  0  0  0  0  0  0  0  0  0
   -5.5967   10.6180    3.7373 C   0  0  0  0  0  0  0  0  0  0  0  0
   -7.1065   10.7804    3.7932 C   0  0  0  0  0  0  0  0  0  0  0  0
   -7.5795   10.9970    5.2181 C   0  0  0  0  0  0  0  0  0  0  0  0
   -6.8719   11.9223    6.0126 O   0  0  0  0  0  0  0  0  0  0  0  0
   -5.9454   13.1922    5.6565 P   0  0  3  0  0  0  0  0  0  0  0  0
   -6.0864   13.6969    4.2397 O   0  0  0  0  0  0  0  0  0  0  0  0
   -6.0455   14.1051    6.8339 O   0  5  0  0  0  0  0  0  0  0  0  0
   -4.4571   12.5629    5.7747 O   0  0  0  0  0  0  0  0  0  0  0  0
   -3.2947   13.3698    5.5779 C   0  0  0  0  0  0  0  0  0  0  0  0
   -2.2044   12.5018    6.1896 C   0  0  0  0  0  0  0  0  0  0  0  0
   -2.5832   12.3063    7.6601 C   0  0  0  0  0  0  0  0  0  0  0  0
   -2.5363   13.6326    8.4372 N   0  3  0  0  0  0  0  0  0  0  0  0
   -3.4357   14.6930    7.7764 C   0  0  0  0  0  0  0  0  0  0  0  0
   -3.2316   14.7422    6.2719 C   0  0  0  0  0  0  0  0  0  0  0  0
   -3.1336   13.3842    9.8214 C   0  0  0  0  0  0  0  0  0  0  0  0
   -1.1224   14.1331    8.5677 C   0  0  0  0  0  0  0  0  0  0  0  0
    0.5931    0.5216   -0.7621 H   0  0  0  0  0  0  0  0  0  0  0  0
    0.6386   -1.1851   -0.3620 H   0  0  0  0  0  0  0  0  0  0  0  0
    2.0830   -0.1718   -0.1064 H   0  0  0  0  0  0  0  0  0  0  0  0
   -0.5445    0.0284    1.4459 H   0  0  0  0  0  0  0  0  0  0  0  0
    0.9297   -0.6649    2.0640 H   0  0  0  0  0  0  0  0  0  0  0  0
    0.7648    1.6509    2.8580 H   0  0  0  0  0  0  0  0  0  0  0  0
    2.1388    1.5082    1.8016 H   0  0  0  0  0  0  0  0  0  0  0  0
    0.8997    3.5462    1.2129 H   0  0  0  0  0  0  0  0  0  0  0  0
    0.8429    2.4704   -0.1239 H   0  0  0  0  0  0  0  0  0  0  0  0
   -1.4198    3.3191    0.2142 H   0  0  0  0  0  0  0  0  0  0  0  0
   -1.4621    1.6403    0.5584 H   0  0  0  0  0  0  0  0  0  0  0  0
   -2.6384    2.7827    2.3713 H   0  0  0  0  0  0  0  0  0  0  0  0
   -1.2355    2.0694    3.0513 H   0  0  0  0  0  0  0  0  0  0  0  0
   -1.3436    4.3749    3.8649 H   0  0  0  0  0  0  0  0  0  0  0  0
    0.0520    4.2526    2.8845 H   0  0  0  0  0  0  0  0  0  0  0  0
   -1.1380    6.2731    2.1877 H   0  0  0  0  0  0  0  0  0  0  0  0
   -1.1817    5.1899    0.8663 H   0  0  0  0  0  0  0  0  0  0  0  0
   -3.4565    6.0346    1.1742 H   0  0  0  0  0  0  0  0  0  0  0  0
   -3.4988    4.3607    1.5107 H   0  0  0  0  0  0  0  0  0  0  0  0
   -4.6744    5.4777    3.3403 H   0  0  0  0  0  0  0  0  0  0  0  0
   -3.2795    4.7677    4.0157 H   0  0  0  0  0  0  0  0  0  0  0  0
   -3.3740    7.0765    4.8315 H   0  0  0  0  0  0  0  0  0  0  0  0
   -1.9785    6.9524    3.8521 H   0  0  0  0  0  0  0  0  0  0  0  0
   -3.1869    8.9662    3.1454 H   0  0  0  0  0  0  0  0  0  0  0  0
   -3.2049    7.8841    1.8290 H   0  0  0  0  0  0  0  0  0  0  0  0
   -5.5055    8.6610    2.1071 H   0  0  0  0  0  0  0  0  0  0  0  0
   -5.5186    7.0031    2.4533 H   0  0  0  0  0  0  0  0  0  0  0  0
   -6.7376    8.1495    4.2623 H   0  0  0  0  0  0  0  0  0  0  0  0
   -5.3452    7.4139    4.9589 H   0  0  0  0  0  0  0  0  0  0  0  0
   -5.4452    9.7351    5.7572 H   0  0  0  0  0  0  0  0  0  0  0  0
   -4.0359    9.5774    4.8125 H   0  0  0  0  0  0  0  0  0  0  0  0
   -5.0741   11.5395    3.9310 H   0  0  0  0  0  0  0  0  0  0  0  0
   -5.2898   10.4348    2.7061 H   0  0  0  0  0  0  0  0  0  0  0  0
   -7.4223   11.6039    3.1501 H   0  0  0  0  0  0  0  0  0  0  0  0
   -7.6049    9.8873    3.3840 H   0  0  0  0  0  0  0  0  0  0  0  0
   -8.6564   11.1936    5.2330 H   0  0  0  0  0  0  0  0  0  0  0  0
   -7.4977   10.0459    5.7661 H   0  0  0  0  0  0  0  0  0  0  0  0
   -3.1340   13.5161    4.5026 H   0  0  0  0  0  0  0  0  0  0  0  0
   -1.2042   12.9317    6.0614 H   0  0  0  0  0  0  0  0  0  0  0  0
   -2.1848   11.5232    5.6940 H   0  0  0  0  0  0  0  0  0  0  0  0
   -1.9030   11.6075    8.1543 H   0  0  0  0  0  0  0  0  0  0  0  0
   -3.5994   11.9086    7.7744 H   0  0  0  0  0  0  0  0  0  0  0  0
   -4.4462   14.4727    8.0941 H   0  0  0  0  0  0  0  0  0  0  0  0
   -3.1935   15.6607    8.2367 H   0  0  0  0  0  0  0  0  0  0  0  0
   -2.2423   15.1863    6.0843 H   0  0  0  0  0  0  0  0  0  0  0  0
   -3.9454   15.4446    5.8296 H   0  0  0  0  0  0  0  0  0  0  0  0
   -3.1187   14.3272   10.3767 H   0  0  0  0  0  0  0  0  0  0  0  0
   -4.1644   13.0291    9.7088 H   0  0  0  0  0  0  0  0  0  0  0  0
   -2.5266   12.6282   10.3243 H   0  0  0  0  0  0  0  0  0  0  0  0
   -0.7184   14.3466    7.5762 H   0  0  0  0  0  0  0  0  0  0  0  0
   -1.1273   15.0483    9.1644 H   0  0  0  0  0  0  0  0  0  0  0  0
   -0.5314   13.3533    9.0538 H   0  0  0  0  0  0  0  0  0  0  0  0
  1  2  1  0  0  0  0
  1 32  1  0  0  0  0
  1 33  1  0  0  0  0
  1 34  1  0  0  0  0
  2  3  1  0  0  0  0
  2 35  1  0  0  0  0
  2 36  1  0  0  0  0
  3  4  1  0  0  0  0
  3 37  1  0  0  0  0
  3 38  1  0  0  0  0
  4  5  1  0  0  0  0
  4 39  1  0  0  0  0
  4 40  1  0  0  0  0
  5  6  1  0  0  0  0
  5 41  1  0  0  0  0
  5 42  1  0  0  0  0
  6  7  1  0  0  0  0
  6 43  1  0  0  0  0
  6 44  1  0  0  0  0
  7  8  1  0  0  0  0
  7 45  1  0  0  0  0
  7 46  1  0  0  0  0
  8  9  1  0  0  0  0
  8 47  1  0  0  0  0
  8 48  1  0  0  0  0
  9 10  1  0  0  0  0
  9 49  1  0  0  0  0
  9 50  1  0  0  0  0
 10 11  1  0  0  0  0
 10 51  1  0  0  0  0
 10 52  1  0  0  0  0
 11 12  1  0  0  0  0
 11 53  1  0  0  0  0
 11 54  1  0  0  0  0
 12 13  1  0  0  0  0
 12 55  1  0  0  0  0
 12 56  1  0  0  0  0
 13 14  1  0  0  0  0
 13 57  1  0  0  0  0
 13 58  1  0  0  0  0
 14 15  1  0  0  0  0
 14 59  1  0  0  0  0
 14 60  1  0  0  0  0
 15 16  1  0  0  0  0
 15 61  1  0  0  0  0
 15 62  1  0  0  0  0
 16 17  1  0  0  0  0
 16 63  1  0  0  0  0
 16 64  1  0  0  0  0
 17 18  1  0  0  0  0
 17 65  1  0  0  0  0
 17 66  1  0  0  0  0
 18 19  1  0  0  0  0
 18 67  1  0  0  0  0
 18 68  1  0  0  0  0
 19 20  1  0  0  0  0
 20 21  2  0  0  0  0
 20 22  1  0  0  0  0
 20 23  1  0  0  0  0
 23 24  1  0  0  0  0
 24 25  1  0  0  0  0
 24 29  1  0  0  0  0
 24 69  1  0  0  0  0
 25 26  1  0  0  0  0
 25 70  1  0  0  0  0
 25 71  1  0  0  0  0
 26 27  1  0  0  0  0
 26 72  1  0  0  0  0
 26 73  1  0  0  0  0
 27 28  1  0  0  0  0
 27 30  1  0  0  0  0
 27 31  1  0  0  0  0
 28 29  1  0  0  0  0
 28 74  1  0  0  0  0
 28 75  1  0  0  0  0
 29 76  1  0  0  0  0
 29 77  1  0  0  0  0
 30 78  1  0  0  0  0
 30 79  1  0  0  0  0
 30 80  1  0  0  0  0
 31 81  1  0  0  0  0
 31 82  1  0  0  0  0
 31 83  1  0  0  0  0
M  CHG  2  22  -1  27   1
M  END
>  <DRUGBANK_ID>
DB06641

>  <COMMON_NAME>
Perifosine

>  <CAS_NUMBER>
157716-52-4

>  <UNII>
2GWV496552

>  <SYNONYMS>
Perifosine

$$$$
