1ZN
 OpenBabel10282417163D

 53 53  0  0  0  0  0  0  0  0999 V2000
    2.4021    8.8757   -9.6801 C   0  0  0  0  0  0  0  0  0  0  0  0
    3.5709    8.0813   -9.7198 O   0  0  0  0  0  0  0  0  0  0  0  0
    3.4524    6.7431   -9.1688 C   0  0  1  0  0  0  0  0  0  0  0  0
    3.0604    6.6574   -7.6486 C   0  0  0  0  0  0  0  0  0  0  0  0
    1.6318    6.9885   -7.2088 C   0  0  0  0  0  0  0  0  0  0  0  0
    1.2667    6.9390   -5.8728 C   0  0  0  0  0  0  0  0  0  0  0  0
    0.0770    7.5608   -5.4584 C   0  0  0  0  0  0  0  0  0  0  0  0
   -0.6819    8.3351   -6.3409 C   0  0  0  0  0  0  0  0  0  0  0  0
   -0.3502    8.3406   -7.6658 C   0  0  0  0  0  0  0  0  0  0  0  0
    0.6498    7.4837   -8.0683 C   0  0  0  0  0  0  0  0  0  0  0  0
    2.6026    5.7723  -10.0177 C   0  0  1  0  0  0  0  0  0  0  0  0
    2.8752    5.8167  -11.5046 C   0  0  0  0  0  0  0  0  0  0  0  0
    2.6693    4.3797   -9.4674 C   0  0  0  0  0  0  0  0  0  0  0  0
    1.6531    3.7584   -8.8438 C   0  0  0  0  0  0  0  0  0  0  0  0
    0.2501    4.2896   -8.6454 C   0  0  0  0  0  0  0  0  0  0  0  0
    1.7610    2.4109   -8.3638 C   0  0  0  0  0  0  0  0  0  0  0  0
    2.7647    1.5304   -8.4996 C   0  0  0  0  0  0  0  0  0  0  0  0
    2.3628    0.0906   -8.3749 C   0  0  2  0  0  0  0  0  0  0  0  0
    1.7740   -0.0994   -7.0408 N   0  0  0  0  0  0  0  0  0  0  0  0
    3.3689   -1.0220   -8.6882 C   0  0  2  0  0  0  0  0  0  0  0  0
    4.5478   -1.0405   -7.7233 C   0  0  0  0  0  0  0  0  0  0  0  0
    3.8381   -0.9456  -10.1265 C   0  0  0  0  0  0  0  0  0  0  0  0
    3.4405   -1.9633  -10.9166 O   0  0  0  0  0  0  0  0  0  0  0  0
    4.5463   -0.0356  -10.5768 O   0  0  0  0  0  0  0  0  0  0  0  0
    4.4909    6.3817   -9.2308 H   0  0  0  0  0  0  0  0  0  0  0  0
    1.5731    6.0765  -10.0000 H   0  0  0  0  0  0  0  0  0  0  0  0
    1.5651   -0.0304   -9.1232 H   0  0  0  0  0  0  0  0  0  0  0  0
    2.8181   -1.9663   -8.5678 H   0  0  0  0  0  0  0  0  0  0  0  0
    2.4967    9.8686  -10.1164 H   0  0  0  0  0  0  0  0  0  0  0  0
    2.1682    9.0780   -8.6362 H   0  0  0  0  0  0  0  0  0  0  0  0
    1.6168    8.3945  -10.2690 H   0  0  0  0  0  0  0  0  0  0  0  0
    3.3087    5.6532   -7.2744 H   0  0  0  0  0  0  0  0  0  0  0  0
    3.7345    7.3423   -7.1142 H   0  0  0  0  0  0  0  0  0  0  0  0
    1.8965    6.4206   -5.1551 H   0  0  0  0  0  0  0  0  0  0  0  0
   -0.2384    7.4843   -4.4259 H   0  0  0  0  0  0  0  0  0  0  0  0
   -1.5546    8.8932   -6.0280 H   0  0  0  0  0  0  0  0  0  0  0  0
   -0.8360    8.9676   -8.4089 H   0  0  0  0  0  0  0  0  0  0  0  0
    0.6609    7.3311   -9.1274 H   0  0  0  0  0  0  0  0  0  0  0  0
    3.8896    5.4983  -11.7413 H   0  0  0  0  0  0  0  0  0  0  0  0
    2.1593    5.1655  -12.0216 H   0  0  0  0  0  0  0  0  0  0  0  0
    2.7104    6.8317  -11.8785 H   0  0  0  0  0  0  0  0  0  0  0  0
    3.6389    3.8944   -9.5638 H   0  0  0  0  0  0  0  0  0  0  0  0
   -0.4828    3.6463   -9.1436 H   0  0  0  0  0  0  0  0  0  0  0  0
   -0.0005    4.3480   -7.5792 H   0  0  0  0  0  0  0  0  0  0  0  0
    0.0777    5.2672   -9.0753 H   0  0  0  0  0  0  0  0  0  0  0  0
    0.8217    2.0309   -7.9643 H   0  0  0  0  0  0  0  0  0  0  0  0
    3.7331    1.8085   -8.9081 H   0  0  0  0  0  0  0  0  0  0  0  0
    1.9896   -1.0088   -6.6512 H   0  0  0  0  0  0  0  0  0  0  0  0
    0.7630   -0.0148   -7.1035 H   0  0  0  0  0  0  0  0  0  0  0  0
    4.9774   -2.0460   -7.6840 H   0  0  0  0  0  0  0  0  0  0  0  0
    5.3313   -0.3432   -8.0300 H   0  0  0  0  0  0  0  0  0  0  0  0
    4.2496   -0.7781   -6.7030 H   0  0  0  0  0  0  0  0  0  0  0  0
    2.8952   -2.6570  -10.4991 H   0  0  0  0  0  0  0  0  0  0  0  0
  1  2  1  0  0  0  0
  1 29  1  0  0  0  0
  1 30  1  0  0  0  0
  1 31  1  0  0  0  0
  3  2  1  0  0  0  0
  3  4  1  0  0  0  0
  3 11  1  0  0  0  0
  3 25  1  6  0  0  0
  4  5  1  0  0  0  0
  4 32  1  0  0  0  0
  4 33  1  0  0  0  0
  5  6  2  0  0  0  0
  5 10  1  0  0  0  0
  6  7  1  0  0  0  0
  6 34  1  0  0  0  0
  7  8  2  0  0  0  0
  7 35  1  0  0  0  0
  8  9  1  0  0  0  0
  8 36  1  0  0  0  0
  9 10  2  0  0  0  0
  9 37  1  0  0  0  0
 10 38  1  0  0  0  0
 11 12  1  0  0  0  0
 11 13  1  0  0  0  0
 11 26  1  1  0  0  0
 12 39  1  0  0  0  0
 12 40  1  0  0  0  0
 12 41  1  0  0  0  0
 13 14  2  0  0  0  0
 13 42  1  0  0  0  0
 14 15  1  0  0  0  0
 14 16  1  0  0  0  0
 15 43  1  0  0  0  0
 15 44  1  0  0  0  0
 15 45  1  0  0  0  0
 16 17  2  0  0  0  0
 16 46  1  0  0  0  0
 17 47  1  0  0  0  0
 18 27  1  6  0  0  0
 18 19  1  0  0  0  0
 18 17  1  0  0  0  0
 19 48  1  0  0  0  0
 19 49  1  0  0  0  0
 20 22  1  0  0  0  0
 20 28  1  1  0  0  0
 20 21  1  0  0  0  0
 20 18  1  0  0  0  0
 21 50  1  0  0  0  0
 21 51  1  0  0  0  0
 21 52  1  0  0  0  0
 22 23  1  0  0  0  0
 22 24  2  0  0  0  0
 23 53  1  0  0  0  0
M  END
>  <DRUGBANK_ID>
DB06905

>  <COMMON_NAME>
(2S,3S,4E,6E,8S,9S)-3-amino-9-methoxy-2,6,8-trimethyl-10-phenyldeca-4,6-dienoic acid

>  <UNII>
VKL2NS279Z

$$$$
