
 OpenBabel10282417133D

 23 23  0  0  1  0  0  0  0  0999 V2000
    0.6821    1.2838   -0.1907 C   0  0  0  0  0  0  0  0  0  0  0  0
   -1.4914    0.0274   -0.2127 C   0  0  0  0  0  0  0  0  0  0  0  0
    1.4670    0.0022    0.1436 C   0  0  2  0  0  0  0  0  0  0  0  0
   -0.7182   -1.2125    0.1838 C   0  0  0  0  0  0  0  0  0  0  0  0
    0.7286   -1.2736   -0.2995 C   0  0  1  0  0  0  0  0  0  0  0  0
   -0.8895    1.2939    1.8646 C   0  0  0  0  0  0  0  0  0  0  0  0
   -0.7804    1.2718    0.3204 C   0  0  1  0  0  0  0  0  0  0  0  0
    1.8121   -0.0089    1.5226 O   0  0  0  0  0  0  0  0  0  0  0  0
   -1.2436   -2.1132    0.8342 O   0  0  0  0  0  0  0  0  0  0  0  0
    0.7489   -1.4017   -1.7222 O   0  0  0  0  0  0  0  0  0  0  0  0
   -1.4849    2.3861    2.3847 O   0  0  0  0  0  0  0  0  0  0  0  0
   -0.4547    0.3998    2.5837 O   0  0  0  0  0  0  0  0  0  0  0  0
   -1.4576    2.4315   -0.1975 O   0  0  0  0  0  0  0  0  0  0  0  0
    1.2116    2.1604    0.2007 H   0  0  0  0  0  0  0  0  0  0  0  0
    0.6730    1.4096   -1.2844 H   0  0  0  0  0  0  0  0  0  0  0  0
   -1.5528    0.0496   -1.3080 H   0  0  0  0  0  0  0  0  0  0  0  0
   -2.5209   -0.0404    0.1514 H   0  0  0  0  0  0  0  0  0  0  0  0
    2.4267    0.0427   -0.3870 H   0  0  0  0  0  0  0  0  0  0  0  0
    1.2029   -2.1643    0.1272 H   0  0  0  0  0  0  0  0  0  0  0  0
    1.0097   -0.1032    2.0843 H   0  0  0  0  0  0  0  0  0  0  0  0
    0.3754   -0.6075   -2.1375 H   0  0  0  0  0  0  0  0  0  0  0  0
   -1.9272    2.9386    1.7099 H   0  0  0  0  0  0  0  0  0  0  0  0
   -0.8877    3.2108   -0.0545 H   0  0  0  0  0  0  0  0  0  0  0  0
  1  3  1  0  0  0  0
  1  7  1  0  0  0  0
  1 14  1  0  0  0  0
  1 15  1  0  0  0  0
  2  7  1  0  0  0  0
  2  4  1  0  0  0  0
  2 16  1  0  0  0  0
  2 17  1  0  0  0  0
  3  5  1  0  0  0  0
  3 18  1  6  0  0  0
  3  8  1  0  0  0  0
  4  9  2  0  0  0  0
  4  5  1  0  0  0  0
  5 10  1  0  0  0  0
  5 19  1  1  0  0  0
  6 11  1  0  0  0  0
  6 12  2  0  0  0  0
  7  6  1  1  0  0  0
  7 13  1  0  0  0  0
  8 20  1  0  0  0  0
 10 21  1  0  0  0  0
 11 22  1  0  0  0  0
 13 23  1  0  0  0  0
M  END
>  <DRUGBANK_ID>
DB03868

>  <SECONDARY_ACCESSION_NUMBERS>
EXPT01264

>  <COMMON_NAME>
3-Dehydroquinic Acid

>  <UNII>
Q8HL497GUU

$$$$
