
 OpenBabel10282417123D

 91 92  0  0  0  0  0  0  0  0999 V2000
    1.1723    0.6669    0.7310 C   0  0  1  0  0  0  0  0  0  0  0  0
    0.5018    1.6760   -0.1553 C   0  0  0  0  0  0  0  0  0  0  0  0
   -0.7857    1.5997   -0.5744 C   0  0  0  0  0  0  0  0  0  0  0  0
    0.5835   -1.1626   -0.9744 C   0  0  2  0  0  0  0  0  0  0  0  0
   -1.6323    0.3372   -0.3191 C   0  0  0  0  0  0  0  0  0  0  0  0
   -1.1534   -0.6420    0.7432 C   0  0  2  0  0  0  0  0  0  0  0  0
   -0.3474   -1.7824    0.0873 C   0  0  0  0  0  0  0  0  0  0  0  0
    2.2883    1.1641    1.7278 C   0  0  0  0  0  0  0  0  0  0  0  0
    1.4013    2.4932   -0.7970 O   0  0  0  0  0  0  0  0  0  0  0  0
    2.4755    0.5633    2.7999 O   0  0  0  0  0  0  0  0  0  0  0  0
    3.2861    2.2769    1.3667 C   0  0  0  0  0  0  0  0  0  0  0  0
   -2.4961   -0.0335   -1.1287 O   0  0  0  0  0  0  0  0  0  0  0  0
   -2.4404   -1.2560    1.3459 C   0  0  0  0  0  0  0  0  0  0  0  0
   -2.2907   -1.9079    2.6823 C   0  0  0  0  0  0  0  0  0  0  0  0
   -3.0069   -1.5475    3.7624 C   0  0  0  0  0  0  0  0  0  0  0  0
   -2.7457   -2.1627    5.1032 C   0  0  0  0  0  0  0  0  0  0  0  0
   -4.0711   -0.4846    3.6962 C   0  0  0  0  0  0  0  0  0  0  0  0
   -1.1904    2.5527   -1.6285 C   0  0  0  0  0  0  0  0  0  0  0  0
   -2.6422    2.6366   -1.8168 C   0  0  0  0  0  0  0  0  0  0  0  0
   -3.3727    3.6765   -1.4067 C   0  0  0  0  0  0  0  0  0  0  0  0
   -4.8507    3.6034   -1.5546 C   0  0  0  0  0  0  0  0  0  0  0  0
   -2.7415    4.8990   -0.8085 C   0  0  0  0  0  0  0  0  0  0  0  0
    0.6264   -1.8233   -2.3681 C   0  0  0  0  0  0  0  0  0  0  0  0
    0.0172   -0.8479   -3.3966 C   0  0  0  0  0  0  0  0  0  0  0  0
    0.6669   -0.1377   -4.3398 C   0  0  0  0  0  0  0  0  0  0  0  0
   -0.0381    0.8722   -5.2077 C   0  0  0  0  0  0  0  0  0  0  0  0
    2.1316   -0.3014   -4.5960 C   0  0  0  0  0  0  0  0  0  0  0  0
   -0.1561    0.2061    1.5742 C   0  0  0  0  0  0  0  0  0  0  0  0
   -0.5367    0.7830    2.5998 O   0  0  0  0  0  0  0  0  0  0  0  0
    4.0785    2.1577    0.0706 C   0  0  0  0  0  0  0  0  0  0  0  0
    2.5973    3.6216    1.5009 C   0  0  0  0  0  0  0  0  0  0  0  0
    1.7800   -0.4854   -0.2197 C   0  0  1  0  0  0  0  0  0  0  0  0
    3.1605   -0.5109   -1.1331 C   0  0  0  0  0  0  0  0  0  0  0  0
    4.4346   -1.4556   -0.5905 C   0  0  0  0  0  0  0  0  0  0  0  0
    4.1157   -2.9799   -0.4124 C   0  0  0  0  0  0  0  0  0  0  0  0
    4.5466   -3.9589   -1.1559 C   0  0  0  0  0  0  0  0  0  0  0  0
    3.8957   -5.3231   -1.1465 C   0  0  0  0  0  0  0  0  0  0  0  0
    5.7276   -3.6375   -1.9897 C   0  0  0  0  0  0  0  0  0  0  0  0
    2.3095   -1.3864    0.8187 C   0  0  0  0  0  0  0  0  0  0  0  0
    0.0857   -0.2927   -1.3378 H   0  0  0  0  0  0  0  0  0  0  0  0
   -0.9523   -2.6022   -0.3061 H   0  0  0  0  0  0  0  0  0  0  0  0
    0.2122   -2.2698    0.8947 H   0  0  0  0  0  0  0  0  0  0  0  0
    1.0222    3.1309   -1.4158 H   0  0  0  0  0  0  0  0  0  0  0  0
    4.0629    2.2349    2.1446 H   0  0  0  0  0  0  0  0  0  0  0  0
   -3.2480   -0.5143    1.3472 H   0  0  0  0  0  0  0  0  0  0  0  0
   -2.8352   -2.0325    0.6653 H   0  0  0  0  0  0  0  0  0  0  0  0
   -1.5566   -2.7068    2.7608 H   0  0  0  0  0  0  0  0  0  0  0  0
   -2.4263   -1.3894    5.8092 H   0  0  0  0  0  0  0  0  0  0  0  0
   -3.6472   -2.6466    5.4885 H   0  0  0  0  0  0  0  0  0  0  0  0
   -1.9513   -2.9157    5.0581 H   0  0  0  0  0  0  0  0  0  0  0  0
   -3.6486    0.4628    3.3429 H   0  0  0  0  0  0  0  0  0  0  0  0
   -4.8716   -0.7906    3.0112 H   0  0  0  0  0  0  0  0  0  0  0  0
   -4.5277   -0.2985    4.6711 H   0  0  0  0  0  0  0  0  0  0  0  0
   -0.8059    3.5310   -1.3207 H   0  0  0  0  0  0  0  0  0  0  0  0
   -0.6858    2.2995   -2.5640 H   0  0  0  0  0  0  0  0  0  0  0  0
   -3.1221    1.7670   -2.2592 H   0  0  0  0  0  0  0  0  0  0  0  0
   -5.3351    3.7501   -0.5873 H   0  0  0  0  0  0  0  0  0  0  0  0
   -5.1777    4.3608   -2.2676 H   0  0  0  0  0  0  0  0  0  0  0  0
   -5.1664    2.6229   -1.9345 H   0  0  0  0  0  0  0  0  0  0  0  0
   -2.2277    4.6568    0.1308 H   0  0  0  0  0  0  0  0  0  0  0  0
   -2.0015    5.3136   -1.5061 H   0  0  0  0  0  0  0  0  0  0  0  0
   -3.4749    5.6789   -0.6097 H   0  0  0  0  0  0  0  0  0  0  0  0
    1.6279   -2.1189   -2.6579 H   0  0  0  0  0  0  0  0  0  0  0  0
    0.0292   -2.7383   -2.3895 H   0  0  0  0  0  0  0  0  0  0  0  0
   -1.0503   -0.6451   -3.2599 H   0  0  0  0  0  0  0  0  0  0  0  0
    0.4371    1.8571   -5.1251 H   0  0  0  0  0  0  0  0  0  0  0  0
    0.0062    0.5540   -6.2537 H   0  0  0  0  0  0  0  0  0  0  0  0
   -1.0925    0.9956   -4.9380 H   0  0  0  0  0  0  0  0  0  0  0  0
    2.7080    0.1287   -3.7771 H   0  0  0  0  0  0  0  0  0  0  0  0
    2.3756   -1.3615   -4.7142 H   0  0  0  0  0  0  0  0  0  0  0  0
    2.4553    0.2198   -5.4997 H   0  0  0  0  0  0  0  0  0  0  0  0
    3.4488    2.1732   -0.8100 H   0  0  0  0  0  0  0  0  0  0  0  0
    4.7563    2.9967   -0.0978 H   0  0  0  0  0  0  0  0  0  0  0  0
    4.6890    1.2501    0.0568 H   0  0  0  0  0  0  0  0  0  0  0  0
    2.2849    3.7734    2.5348 H   0  0  0  0  0  0  0  0  0  0  0  0
    3.2595    4.4243    1.1745 H   0  0  0  0  0  0  0  0  0  0  0  0
    1.6813    3.7176    0.9244 H   0  0  0  0  0  0  0  0  0  0  0  0
    2.9575   -0.9552   -2.1009 H   0  0  0  0  0  0  0  0  0  0  0  0
    3.5028    0.4635   -1.4631 H   0  0  0  0  0  0  0  0  0  0  0  0
    5.2707   -1.2913   -1.2746 H   0  0  0  0  0  0  0  0  0  0  0  0
    4.8611   -1.1063    0.3615 H   0  0  0  0  0  0  0  0  0  0  0  0
    3.4377   -3.3531    0.3718 H   0  0  0  0  0  0  0  0  0  0  0  0
    3.6171   -5.6100   -2.1643 H   0  0  0  0  0  0  0  0  0  0  0  0
    4.5487   -6.0771   -0.7084 H   0  0  0  0  0  0  0  0  0  0  0  0
    2.9550   -5.3284   -0.5701 H   0  0  0  0  0  0  0  0  0  0  0  0
    5.4415   -2.8800   -2.7248 H   0  0  0  0  0  0  0  0  0  0  0  0
    6.4813   -3.2045   -1.3119 H   0  0  0  0  0  0  0  0  0  0  0  0
    6.1581   -4.5031   -2.4695 H   0  0  0  0  0  0  0  0  0  0  0  0
    2.2391   -2.2418    0.1811 H   0  0  0  0  0  0  0  0  0  0  0  0
    3.2379   -0.9026    1.1121 H   0  0  0  0  0  0  0  0  0  0  0  0
    1.9414   -1.7458    1.7622 H   0  0  0  0  0  0  0  0  0  0  0  0
  1 28  1  0  0  0  0
  1  2  1  0  0  0  0
  1 32  1  0  0  0  0
  1  8  1  1  0  0  0
  2  3  2  0  0  0  0
  2  9  1  0  0  0  0
  3  5  1  0  0  0  0
  3 18  1  0  0  0  0
  4  7  1  0  0  0  0
  4 23  1  0  0  0  0
  4 40  1  6  0  0  0
  5 12  2  0  0  0  0
  6 28  1  0  0  0  0
  6  5  1  0  0  0  0
  6  7  1  0  0  0  0
  6 13  1  1  0  0  0
  7 41  1  0  0  0  0
  7 42  1  0  0  0  0
  8 10  2  0  0  0  0
  8 11  1  0  0  0  0
  9 43  1  0  0  0  0
 11 30  1  0  0  0  0
 11 31  1  0  0  0  0
 11 44  1  0  0  0  0
 13 14  1  0  0  0  0
 13 45  1  0  0  0  0
 13 46  1  0  0  0  0
 14 15  2  0  0  0  0
 14 47  1  0  0  0  0
 15 16  1  0  0  0  0
 15 17  1  0  0  0  0
 16 48  1  0  0  0  0
 16 49  1  0  0  0  0
 16 50  1  0  0  0  0
 17 51  1  0  0  0  0
 17 52  1  0  0  0  0
 17 53  1  0  0  0  0
 18 19  1  0  0  0  0
 18 54  1  0  0  0  0
 18 55  1  0  0  0  0
 19 20  2  0  0  0  0
 19 56  1  0  0  0  0
 20 21  1  0  0  0  0
 20 22  1  0  0  0  0
 21 57  1  0  0  0  0
 21 58  1  0  0  0  0
 21 59  1  0  0  0  0
 22 60  1  0  0  0  0
 22 61  1  0  0  0  0
 22 62  1  0  0  0  0
 23 24  1  0  0  0  0
 23 63  1  0  0  0  0
 23 64  1  0  0  0  0
 24 25  2  0  0  0  0
 24 65  1  0  0  0  0
 25 26  1  0  0  0  0
 25 27  1  0  0  0  0
 26 66  1  0  0  0  0
 26 67  1  0  0  0  0
 26 68  1  0  0  0  0
 27 69  1  0  0  0  0
 27 70  1  0  0  0  0
 27 71  1  0  0  0  0
 28 29  2  0  0  0  0
 30 72  1  0  0  0  0
 30 73  1  0  0  0  0
 30 74  1  0  0  0  0
 31 75  1  0  0  0  0
 31 76  1  0  0  0  0
 31 77  1  0  0  0  0
 32  4  1  0  0  0  0
 32 39  1  1  0  0  0
 32 33  1  0  0  0  0
 33 34  1  0  0  0  0
 33 78  1  0  0  0  0
 33 79  1  0  0  0  0
 34 35  1  0  0  0  0
 34 80  1  0  0  0  0
 34 81  1  0  0  0  0
 35 36  2  0  0  0  0
 35 82  1  0  0  0  0
 36 37  1  0  0  0  0
 36 38  1  0  0  0  0
 37 83  1  0  0  0  0
 37 84  1  0  0  0  0
 37 85  1  0  0  0  0
 38 86  1  0  0  0  0
 38 87  1  0  0  0  0
 38 88  1  0  0  0  0
 39 89  1  0  0  0  0
 39 90  1  0  0  0  0
 39 91  1  0  0  0  0
M  END
>  <DRUGBANK_ID>
DB01892

>  <SECONDARY_ACCESSION_NUMBERS>
EXPT01804

>  <COMMON_NAME>
Hyperforin

>  <CAS_NUMBER>
11079-53-1

>  <UNII>
RM741E34FP

>  <SYNONYMS>
Hiperforina; Hyperforine

$$$$
