
 OpenBabel10282417223D

 51 54  0  0  0  0  0  0  0  0999 V2000
    1.2094   -0.3968   -0.1908 C   0  0  0  0  0  0  0  0  0  0  0  0
    0.3912   -1.5450    0.1757 N   0  0  0  0  0  0  0  0  0  0  0  0
   -1.2812   -1.3915    0.2434 S   0  0  0  0  0  0  0  0  0  0  0  0
   -1.6938   -0.7530   -0.9937 O   0  0  0  0  0  0  0  0  0  0  0  0
   -1.7559   -2.7174    0.5373 O   0  0  0  0  0  0  0  0  0  0  0  0
   -1.7655   -0.4327    1.4963 N   0  0  0  0  0  0  0  0  0  0  0  0
   -1.0045    0.5016    2.2174 C   0  0  0  0  0  0  0  0  0  0  0  0
   -0.1614    1.4347    1.6499 C   0  0  0  0  0  0  0  0  0  0  0  0
   -0.2169    1.7040    0.3384 F   0  0  0  0  0  0  0  0  0  0  0  0
    0.8725    1.9453    2.4338 C   0  0  0  0  0  0  0  0  0  0  0  0
    2.1225    2.5273    1.8196 C   0  0  0  0  0  0  0  0  0  0  0  0
    2.1038    4.0218    1.7756 C   0  0  0  0  0  0  0  0  0  0  0  0
    2.0100    4.7385    0.6360 C   0  0  0  0  0  0  0  0  0  0  0  0
    1.9996    4.1377   -0.7485 C   0  0  0  0  0  0  0  0  0  0  0  0
    1.8831    6.2003    0.7558 C   0  0  0  0  0  0  0  0  0  0  0  0
    1.8170    6.7588    2.0254 C   0  0  0  0  0  0  0  0  0  0  0  0
    1.9152    6.0072    3.1906 O   0  0  0  0  0  0  0  0  0  0  0  0
    2.2123    4.6756    3.1135 C   0  0  0  0  0  0  0  0  0  0  0  0
    2.5327    4.0733    4.1299 O   0  0  0  0  0  0  0  0  0  0  0  0
    1.6572    8.1168    2.2555 C   0  0  0  0  0  0  0  0  0  0  0  0
    1.5711    8.9940    1.1878 C   0  0  0  0  0  0  0  0  0  0  0  0
    1.4007   10.3564    1.3219 O   0  0  0  0  0  0  0  0  0  0  0  0
    1.3816   10.8779    2.6136 C   0  0  0  0  0  0  0  0  0  0  0  0
    0.2447   11.4857    2.9911 N   0  0  0  0  0  0  0  0  0  0  0  0
    0.2113   11.9330    4.2624 C   0  0  0  0  0  0  0  0  0  0  0  0
    1.2519   11.7925    5.1515 C   0  0  0  0  0  0  0  0  0  0  0  0
    2.3744   11.1751    4.6542 C   0  0  0  0  0  0  0  0  0  0  0  0
    2.4760   10.7238    3.3885 N   0  0  0  0  0  0  0  0  0  0  0  0
    1.6244    8.4651   -0.1090 C   0  0  0  0  0  0  0  0  0  0  0  0
    1.7773    7.0807   -0.3236 C   0  0  0  0  0  0  0  0  0  0  0  0
    0.7460    1.8216    3.8111 C   0  0  0  0  0  0  0  0  0  0  0  0
   -0.3569    1.1691    4.3167 C   0  0  0  0  0  0  0  0  0  0  0  0
   -1.2046    0.4467    3.5504 N   0  0  0  0  0  0  0  0  0  0  0  0
    1.3716    0.1373    0.7265 H   0  0  0  0  0  0  0  0  0  0  0  0
    0.7576    0.2072   -0.9826 H   0  0  0  0  0  0  0  0  0  0  0  0
    2.2310   -0.6356   -0.4849 H   0  0  0  0  0  0  0  0  0  0  0  0
    0.5826   -2.3187   -0.4665 H   0  0  0  0  0  0  0  0  0  0  0  0
   -2.7699   -0.3362    1.6018 H   0  0  0  0  0  0  0  0  0  0  0  0
    3.0278    2.1610    2.3239 H   0  0  0  0  0  0  0  0  0  0  0  0
    2.2384    2.0878    0.8267 H   0  0  0  0  0  0  0  0  0  0  0  0
    1.0625    4.3660   -1.2634 H   0  0  0  0  0  0  0  0  0  0  0  0
    2.8472    4.5163   -1.3289 H   0  0  0  0  0  0  0  0  0  0  0  0
    2.0962    3.0514   -0.7827 H   0  0  0  0  0  0  0  0  0  0  0  0
    1.6136    8.4432    3.2884 H   0  0  0  0  0  0  0  0  0  0  0  0
   -0.7123   12.4219    4.5598 H   0  0  0  0  0  0  0  0  0  0  0  0
    1.1927   12.1486    6.1712 H   0  0  0  0  0  0  0  0  0  0  0  0
    3.2484   11.0145    5.2799 H   0  0  0  0  0  0  0  0  0  0  0  0
    1.5373    9.1220   -0.9709 H   0  0  0  0  0  0  0  0  0  0  0  0
    1.8024    6.7140   -1.3470 H   0  0  0  0  0  0  0  0  0  0  0  0
    1.4720    2.2354    4.4983 H   0  0  0  0  0  0  0  0  0  0  0  0
   -0.5503    1.2030    5.3844 H   0  0  0  0  0  0  0  0  0  0  0  0
  1  2  1  0  0  0  0
  1 34  1  0  0  0  0
  1 35  1  0  0  0  0
  1 36  1  0  0  0  0
  2  3  1  0  0  0  0
  2 37  1  0  0  0  0
  3  4  2  0  0  0  0
  3  5  2  0  0  0  0
  3  6  1  0  0  0  0
  6  7  1  0  0  0  0
  6 38  1  0  0  0  0
  7  8  2  0  0  0  0
  7 33  1  0  0  0  0
  8  9  1  0  0  0  0
  8 10  1  0  0  0  0
 10 11  1  0  0  0  0
 10 31  2  0  0  0  0
 11 12  1  0  0  0  0
 11 39  1  0  0  0  0
 11 40  1  0  0  0  0
 12 13  2  0  0  0  0
 12 18  1  0  0  0  0
 13 14  1  0  0  0  0
 13 15  1  0  0  0  0
 14 41  1  0  0  0  0
 14 42  1  0  0  0  0
 14 43  1  0  0  0  0
 15 16  2  0  0  0  0
 15 30  1  0  0  0  0
 16 17  1  0  0  0  0
 16 20  1  0  0  0  0
 17 18  1  0  0  0  0
 18 19  2  0  0  0  0
 20 21  2  0  0  0  0
 20 44  1  0  0  0  0
 21 22  1  0  0  0  0
 21 29  1  0  0  0  0
 22 23  1  0  0  0  0
 23 24  2  0  0  0  0
 23 28  1  0  0  0  0
 24 25  1  0  0  0  0
 25 26  2  0  0  0  0
 25 45  1  0  0  0  0
 26 27  1  0  0  0  0
 26 46  1  0  0  0  0
 27 28  2  0  0  0  0
 27 47  1  0  0  0  0
 29 30  2  0  0  0  0
 29 48  1  0  0  0  0
 30 49  1  0  0  0  0
 31 32  1  0  0  0  0
 31 50  1  0  0  0  0
 32 33  2  0  0  0  0
 32 51  1  0  0  0  0
M  END
>  <DRUGBANK_ID>
DB15254

>  <COMMON_NAME>
Avutometinib

>  <CAS_NUMBER>
946128-88-7

>  <UNII>
D0D4252V97

>  <SYNONYMS>
N-(3-fluoro-4-((4-methyl-2-oxo-7-((pyrimidin-2-yl)oxy)-2H-1-benzopyran-3-yl)methyl)pyridin-2-yl)-N'-methylsulfuric diamide; RO-5126766 free base; Sulfamide, N-(3-fluoro-4-((4-methyl-2-oxo-7-(2-pyrimidinyloxy)-2H-1-benzopyran-3-yl)methyl)-2-pyridinyl)-N'-methyl-

$$$$
