
 OpenBabel10282417183D

135137  0  0  0  0  0  0  0  0999 V2000
   -2.5138    4.4035   -0.8964 C   0  0  2  0  0  0  0  0  0  0  0  0
   -5.4142    1.1098    1.8799 C   0  0  2  0  0  0  0  0  0  0  0  0
   -7.1658   -0.3693    1.2133 C   0  0  0  0  0  0  0  0  0  0  0  0
   -8.1573   -1.1680   -1.4030 C   0  0  1  0  0  0  0  0  0  0  0  0
   -5.7195   -0.3112    1.4646 C   0  0  2  0  0  0  0  0  0  0  0  0
   -1.7689    3.8479    0.2483 C   0  0  1  0  0  0  0  0  0  0  0  0
   -4.6438    2.7737   -0.4679 C   0  0  1  0  0  0  0  0  0  0  0  0
   -8.2910   -1.5064   -2.9559 C   0  0  1  0  0  0  0  0  0  0  0  0
   -4.4840    1.9186    0.8662 C   0  0  1  0  0  0  0  0  0  0  0  0
   -6.5904    0.0207   -4.0889 N   0  0  0  0  0  0  0  0  0  0  0  0
   -7.6557   -1.6066    1.0282 O   0  0  0  0  0  0  0  0  0  0  0  0
   -3.9970    4.1199   -0.6689 O   0  0  0  0  0  0  0  0  0  0  0  0
   -2.2126    2.7894    3.7422 C   0  0  2  0  0  0  0  0  0  0  0  0
   -0.2292    3.3832    0.4534 C   0  0  2  0  0  0  0  0  0  0  0  0
   -4.1597    1.9735   -1.6485 C   0  0  1  0  0  0  0  0  0  0  0  0
   -3.7995    0.6104    3.8445 C   0  0  1  0  0  0  0  0  0  0  0  0
   -8.0439   -0.3327   -3.9721 C   0  0  2  0  0  0  0  0  0  0  0  0
   -2.6155    1.2212    3.1828 C   0  0  0  0  0  0  0  0  0  0  0  0
   -1.8581    3.9380   -2.0405 O   0  0  0  0  0  0  0  0  0  0  0  0
   -3.5210    0.6256    5.2420 O   0  0  0  0  0  0  0  0  0  0  0  0
   -7.6238   -2.2084   -0.3225 C   0  0  2  0  0  0  0  0  0  0  0  0
   -1.6755    2.4266    5.1119 C   0  0  2  0  0  0  0  0  0  0  0  0
   -5.0755    1.0721    3.3636 O   0  0  0  0  0  0  0  0  0  0  0  0
   -3.0227    1.8775    5.7039 C   0  0  2  0  0  0  0  0  0  0  0  0
    0.1134    2.7640   -0.8301 C   0  0  0  0  0  0  0  0  0  0  0  0
   -6.2647    1.4385   -4.1250 C   0  0  0  0  0  0  0  0  0  0  0  0
    0.2520    2.2799    1.4387 N   0  0  0  0  0  0  0  0  0  0  0  0
   -4.5777    2.7320   -2.8949 C   0  0  0  0  0  0  0  0  0  0  0  0
   -7.8948    0.6904    1.1518 O   0  0  0  0  0  0  0  0  0  0  0  0
   -0.4259    3.7176   -1.8875 C   0  0  1  0  0  0  0  0  0  0  0  0
   -4.7282    1.7584   -4.0469 C   0  0  1  0  0  0  0  0  0  0  0  0
   -7.2549   -0.1056   -1.3612 O   0  0  0  0  0  0  0  0  0  0  0  0
   -2.1565    4.9499    1.0551 O   0  0  0  0  0  0  0  0  0  0  0  0
   -7.4595   -2.4901   -3.5696 O   0  0  0  0  0  0  0  0  0  0  0  0
   -2.7664    1.7788   -1.6104 O   0  0  0  0  0  0  0  0  0  0  0  0
   -3.3251    3.7924    3.8735 O   0  0  0  0  0  0  0  0  0  0  0  0
   -9.4858   -0.5699   -0.8879 C   0  0  0  0  0  0  0  0  0  0  0  0
   -5.3480   -1.4327    2.4137 C   0  0  0  0  0  0  0  0  0  0  0  0
   -4.2352    3.0167    1.7419 C   0  0  0  0  0  0  0  0  0  0  0  0
   -1.4830    3.6268    2.8053 C   0  0  0  0  0  0  0  0  0  0  0  0
   -4.6867    0.6092   -1.4614 C   0  0  0  0  0  0  0  0  0  0  0  0
   -9.0625    0.7603   -3.8191 C   0  0  0  0  0  0  0  0  0  0  0  0
   -6.2313   -2.9132   -0.4832 C   0  0  0  0  0  0  0  0  0  0  0  0
   -2.7557    1.8163    7.1647 C   0  0  0  0  0  0  0  0  0  0  0  0
    0.5668    2.5850    2.8553 C   0  0  0  0  0  0  0  0  0  0  0  0
   -0.3816    0.9054    1.2867 C   0  0  0  0  0  0  0  0  0  0  0  0
   -0.1429    2.9688   -3.1345 C   0  0  0  0  0  0  0  0  0  0  0  0
   -3.6412    0.6244   -4.0306 C   0  0  0  0  0  0  0  0  0  0  0  0
   -3.1974    5.2399    3.7932 C   0  0  0  0  0  0  0  0  0  0  0  0
   -5.8496   -3.1357   -1.8983 C   0  0  0  0  0  0  0  0  0  0  0  0
   -2.4833    5.5072   -0.9103 H   0  0  0  0  0  0  0  0  0  0  0  0
   -3.7465   -0.4486    3.6754 H   0  0  0  0  0  0  0  0  0  0  0  0
   -1.3656    3.6795    5.7378 O   0  0  0  0  0  0  0  0  0  0  0  0
   -0.3132    1.3346    5.3527 C   0  0  0  0  0  0  0  0  0  0  0  0
    1.1415    1.7926    5.2726 N   0  0  0  0  0  0  0  0  0  0  0  0
    2.2503    0.9180    4.8237 C   0  0  0  0  0  0  0  0  0  0  0  0
    2.0731   -0.2171    3.7984 C   0  0  0  0  0  0  0  0  0  0  0  0
    2.2161    0.1195    2.3249 C   0  0  0  0  0  0  0  0  0  0  0  0
   -6.2826    1.7838    1.8857 H   0  0  0  0  0  0  0  0  0  0  0  0
   -5.1849   -0.5294    0.5616 H   0  0  0  0  0  0  0  0  0  0  0  0
   -2.2229    2.8524    0.2597 H   0  0  0  0  0  0  0  0  0  0  0  0
   -5.7316    2.9574   -0.5045 H   0  0  0  0  0  0  0  0  0  0  0  0
   -9.2840   -1.9351   -3.0500 H   0  0  0  0  0  0  0  0  0  0  0  0
   -3.6386    1.2554    0.6568 H   0  0  0  0  0  0  0  0  0  0  0  0
   -6.1508   -0.3124   -3.2447 H   0  0  0  0  0  0  0  0  0  0  0  0
    0.3690    4.2852    0.6282 H   0  0  0  0  0  0  0  0  0  0  0  0
   -8.2344   -0.7924   -4.9491 H   0  0  0  0  0  0  0  0  0  0  0  0
   -2.7794    1.0301    2.1412 H   0  0  0  0  0  0  0  0  0  0  0  0
   -1.8235    0.4928    3.3807 H   0  0  0  0  0  0  0  0  0  0  0  0
   -8.3791   -2.9912   -0.2605 H   0  0  0  0  0  0  0  0  0  0  0  0
   -3.8715    2.5557    5.5338 H   0  0  0  0  0  0  0  0  0  0  0  0
   -0.3293    1.7615   -0.9064 H   0  0  0  0  0  0  0  0  0  0  0  0
    1.2054    2.6283   -0.8486 H   0  0  0  0  0  0  0  0  0  0  0  0
   -6.7909    1.9327   -3.2922 H   0  0  0  0  0  0  0  0  0  0  0  0
   -6.6494    1.9146   -5.0312 H   0  0  0  0  0  0  0  0  0  0  0  0
   -5.5000    3.3090   -2.6983 H   0  0  0  0  0  0  0  0  0  0  0  0
   -3.8644    3.5144   -3.1693 H   0  0  0  0  0  0  0  0  0  0  0  0
    0.0625    4.6874   -1.7440 H   0  0  0  0  0  0  0  0  0  0  0  0
   -4.4961    2.3248   -4.9510 H   0  0  0  0  0  0  0  0  0  0  0  0
   -6.4214   -0.5732   -1.2249 H   0  0  0  0  0  0  0  0  0  0  0  0
   -2.8621    4.6572    1.6522 H   0  0  0  0  0  0  0  0  0  0  0  0
   -6.6769   -2.0231   -3.9498 H   0  0  0  0  0  0  0  0  0  0  0  0
   -2.4422    2.5971   -2.0291 H   0  0  0  0  0  0  0  0  0  0  0  0
  -10.2743   -1.3132   -0.9370 H   0  0  0  0  0  0  0  0  0  0  0  0
   -9.4762   -0.2333    0.1486 H   0  0  0  0  0  0  0  0  0  0  0  0
   -9.7684    0.3376   -1.4180 H   0  0  0  0  0  0  0  0  0  0  0  0
   -5.8167   -1.2757    3.3899 H   0  0  0  0  0  0  0  0  0  0  0  0
   -5.6539   -2.4093    2.0545 H   0  0  0  0  0  0  0  0  0  0  0  0
   -4.2651   -1.5526    2.4529 H   0  0  0  0  0  0  0  0  0  0  0  0
   -4.3644    2.7360    2.7405 H   0  0  0  0  0  0  0  0  0  0  0  0
   -3.2141    3.0034    1.6041 H   0  0  0  0  0  0  0  0  0  0  0  0
   -4.7060    3.9717    1.6147 H   0  0  0  0  0  0  0  0  0  0  0  0
   -1.4567    4.6800    2.9238 H   0  0  0  0  0  0  0  0  0  0  0  0
   -0.5291    4.0295    2.4631 H   0  0  0  0  0  0  0  0  0  0  0  0
   -1.6098    2.9427    2.0091 H   0  0  0  0  0  0  0  0  0  0  0  0
   -5.6746    0.9033   -1.2032 H   0  0  0  0  0  0  0  0  0  0  0  0
   -4.7175   -0.1491   -2.2250 H   0  0  0  0  0  0  0  0  0  0  0  0
   -4.1056    0.0538   -0.7333 H   0  0  0  0  0  0  0  0  0  0  0  0
   -9.0527    1.3993   -4.7009 H   0  0  0  0  0  0  0  0  0  0  0  0
  -10.0521    0.2984   -3.7381 H   0  0  0  0  0  0  0  0  0  0  0  0
   -8.8794    1.3722   -2.9353 H   0  0  0  0  0  0  0  0  0  0  0  0
   -5.3974   -2.3599   -0.0607 H   0  0  0  0  0  0  0  0  0  0  0  0
   -6.2451   -3.8816    0.0264 H   0  0  0  0  0  0  0  0  0  0  0  0
   -3.2820    2.6542    7.6134 H   0  0  0  0  0  0  0  0  0  0  0  0
   -2.9946    0.8403    7.5670 H   0  0  0  0  0  0  0  0  0  0  0  0
   -1.7024    2.0100    7.3739 H   0  0  0  0  0  0  0  0  0  0  0  0
    0.0286    3.1199    3.6965 H   0  0  0  0  0  0  0  0  0  0  0  0
    0.0663    1.7513    3.3249 H   0  0  0  0  0  0  0  0  0  0  0  0
    1.2592    3.4037    3.0972 H   0  0  0  0  0  0  0  0  0  0  0  0
   -1.4146    0.9553    0.9871 H   0  0  0  0  0  0  0  0  0  0  0  0
    0.1012    0.2853    0.5316 H   0  0  0  0  0  0  0  0  0  0  0  0
   -0.3403    0.2470    2.1823 H   0  0  0  0  0  0  0  0  0  0  0  0
   -0.6183    3.4978   -3.9523 H   0  0  0  0  0  0  0  0  0  0  0  0
    0.9282    2.8394   -3.2376 H   0  0  0  0  0  0  0  0  0  0  0  0
   -0.6203    1.9776   -3.0608 H   0  0  0  0  0  0  0  0  0  0  0  0
   -4.0076   -0.3168   -4.4335 H   0  0  0  0  0  0  0  0  0  0  0  0
   -2.7337    0.9899   -4.5070 H   0  0  0  0  0  0  0  0  0  0  0  0
   -3.1838    0.3039   -3.0857 H   0  0  0  0  0  0  0  0  0  0  0  0
   -2.7323    5.5844    4.7004 H   0  0  0  0  0  0  0  0  0  0  0  0
   -2.6139    5.7924    3.0240 H   0  0  0  0  0  0  0  0  0  0  0  0
   -4.1747    5.6093    3.4887 H   0  0  0  0  0  0  0  0  0  0  0  0
   -5.7713   -2.1290   -2.3023 H   0  0  0  0  0  0  0  0  0  0  0  0
   -4.8935   -3.5759   -2.1617 H   0  0  0  0  0  0  0  0  0  0  0  0
   -6.6215   -3.7910   -2.3054 H   0  0  0  0  0  0  0  0  0  0  0  0
   -0.4048    3.7665    5.6970 H   0  0  0  0  0  0  0  0  0  0  0  0
   -0.3561    0.9797    6.3785 H   0  0  0  0  0  0  0  0  0  0  0  0
   -0.4821    0.4308    4.7587 H   0  0  0  0  0  0  0  0  0  0  0  0
    1.3280    2.5864    4.6900 H   0  0  0  0  0  0  0  0  0  0  0  0
    3.0244    1.5845    4.3902 H   0  0  0  0  0  0  0  0  0  0  0  0
    2.6639    0.5452    5.7565 H   0  0  0  0  0  0  0  0  0  0  0  0
    2.8239   -0.9741    3.9942 H   0  0  0  0  0  0  0  0  0  0  0  0
    1.0815   -0.6507    3.9461 H   0  0  0  0  0  0  0  0  0  0  0  0
    3.0859    0.6215    1.8987 H   0  0  0  0  0  0  0  0  0  0  0  0
    1.8203   -0.6533    1.6538 H   0  0  0  0  0  0  0  0  0  0  0  0
    1.5577    0.9169    2.2475 H   0  0  0  0  0  0  0  0  0  0  0  0
  1 51  1  1  0  0  0
  2 23  1  0  0  0  0
  2  9  1  0  0  0  0
  2 59  1  6  0  0  0
  3  5  1  0  0  0  0
  4 32  1  1  0  0  0
  4 37  1  0  0  0  0
  4 21  1  0  0  0  0
  5  2  1  0  0  0  0
  5 60  1  6  0  0  0
  5 38  1  0  0  0  0
  6 33  1  0  0  0  0
  6  1  1  0  0  0  0
  6 61  1  1  0  0  0
  7 12  1  0  0  0  0
  7 62  1  6  0  0  0
  8 17  1  0  0  0  0
  8  4  1  0  0  0  0
  8 63  1  6  0  0  0
  8 34  1  0  0  0  0
  9  7  1  0  0  0  0
  9 39  1  0  0  0  0
  9 64  1  6  0  0  0
 10 26  1  0  0  0  0
 10 65  1  0  0  0  0
 11  3  1  0  0  0  0
 12  1  1  0  0  0  0
 13 18  1  0  0  0  0
 13 40  1  0  0  0  0
 13 36  1  1  0  0  0
 14  6  1  0  0  0  0
 14 27  1  0  0  0  0
 14 66  1  1  0  0  0
 15  7  1  0  0  0  0
 15 35  1  1  0  0  0
 15 41  1  0  0  0  0
 16 52  1  6  0  0  0
 16 23  1  0  0  0  0
 17 10  1  0  0  0  0
 17 42  1  0  0  0  0
 17 67  1  6  0  0  0
 18 16  1  0  0  0  0
 18 68  1  0  0  0  0
 18 69  1  0  0  0  0
 19  1  1  0  0  0  0
 20 16  1  0  0  0  0
 21 11  1  0  0  0  0
 21 70  1  1  0  0  0
 21 43  1  0  0  0  0
 22 24  1  0  0  0  0
 22 13  1  0  0  0  0
 22 54  1  0  0  0  0
 22 53  1  1  0  0  0
 24 20  1  0  0  0  0
 24 71  1  6  0  0  0
 24 44  1  0  0  0  0
 25 14  1  0  0  0  0
 25 72  1  0  0  0  0
 25 73  1  0  0  0  0
 26 31  1  0  0  0  0
 26 74  1  0  0  0  0
 26 75  1  0  0  0  0
 28 15  1  0  0  0  0
 28 76  1  0  0  0  0
 28 77  1  0  0  0  0
 29  3  2  0  0  0  0
 30 19  1  0  0  0  0
 30 47  1  0  0  0  0
 30 25  1  0  0  0  0
 30 78  1  1  0  0  0
 31 28  1  0  0  0  0
 31 79  1  6  0  0  0
 31 48  1  0  0  0  0
 32 80  1  0  0  0  0
 33 81  1  0  0  0  0
 34 82  1  0  0  0  0
 35 83  1  0  0  0  0
 37 84  1  0  0  0  0
 37 85  1  0  0  0  0
 37 86  1  0  0  0  0
 38 87  1  0  0  0  0
 38 88  1  0  0  0  0
 38 89  1  0  0  0  0
 39 90  1  0  0  0  0
 39 91  1  0  0  0  0
 39 92  1  0  0  0  0
 40 93  1  0  0  0  0
 40 94  1  0  0  0  0
 40 95  1  0  0  0  0
 41 96  1  0  0  0  0
 41 97  1  0  0  0  0
 41 98  1  0  0  0  0
 42 99  1  0  0  0  0
 42100  1  0  0  0  0
 42101  1  0  0  0  0
 43102  1  0  0  0  0
 43103  1  0  0  0  0
 44104  1  0  0  0  0
 44105  1  0  0  0  0
 44106  1  0  0  0  0
 45 27  1  0  0  0  0
 45107  1  0  0  0  0
 45108  1  0  0  0  0
 45109  1  0  0  0  0
 46 27  1  0  0  0  0
 46110  1  0  0  0  0
 46111  1  0  0  0  0
 46112  1  0  0  0  0
 47113  1  0  0  0  0
 47114  1  0  0  0  0
 47115  1  0  0  0  0
 48116  1  0  0  0  0
 48117  1  0  0  0  0
 48118  1  0  0  0  0
 49 36  1  0  0  0  0
 49119  1  0  0  0  0
 49120  1  0  0  0  0
 49121  1  0  0  0  0
 50 43  1  0  0  0  0
 50122  1  0  0  0  0
 50123  1  0  0  0  0
 50124  1  0  0  0  0
 53125  1  0  0  0  0
 54 55  1  0  0  0  0
 54126  1  0  0  0  0
 54127  1  0  0  0  0
 55 56  1  0  0  0  0
 55128  1  0  0  0  0
 56 57  1  0  0  0  0
 56129  1  0  0  0  0
 56130  1  0  0  0  0
 57 58  1  0  0  0  0
 57131  1  0  0  0  0
 57132  1  0  0  0  0
 58133  1  0  0  0  0
 58134  1  0  0  0  0
 58135  1  0  0  0  0
M  END
>  <DRUGBANK_ID>
DB11474

>  <COMMON_NAME>
Tulathromycin A

>  <CAS_NUMBER>
217500-96-4

>  <UNII>
897A3KN7AP

>  <SYNONYMS>
Tulathromycin; Tulathromycin A

$$$$
