
 OpenBabel10282417193D

 33 34  0  0  1  0  0  0  0  0999 V2000
   -0.7622    1.1384    0.1216 C   0  0  0  0  0  0  0  0  0  0  0  0
   -1.4191   -0.0430    0.0025 C   0  0  0  0  0  0  0  0  0  0  0  0
   -0.5587   -1.2740    0.0047 C   0  0  0  0  0  0  0  0  0  0  0  0
   -0.9798   -2.4164   -0.1852 O   0  0  0  0  0  0  0  0  0  0  0  0
    0.7643   -1.0930    0.2219 N   0  0  0  0  0  0  0  0  0  0  0  0
    1.4171    0.0822    0.0301 C   0  0  0  0  0  0  0  0  0  0  0  0
    2.6219    0.0684   -0.2029 O   0  0  0  0  0  0  0  0  0  0  0  0
    0.6340    1.2318    0.0905 N   0  0  0  0  0  0  0  0  0  0  0  0
    1.3831    2.4640   -0.2077 C   0  0  1  0  0  0  0  0  0  0  0  0
    1.2830    2.9517   -1.6766 C   0  0  2  0  0  0  0  0  0  0  0  0
    0.6458    4.3317   -1.5276 C   0  0  1  0  0  0  0  0  0  0  0  0
    1.1901    4.7758   -0.1814 C   0  0  2  0  0  0  0  0  0  0  0  0
    1.0510    3.5831    0.6361 O   0  0  0  0  0  0  0  0  0  0  0  0
    0.4267    5.9295    0.4639 C   0  0  0  0  0  0  0  0  0  0  0  0
   -0.9064    5.5453    0.7957 O   0  0  0  0  0  0  0  0  0  0  0  0
    0.8975    5.2344   -2.5928 O   0  0  0  0  0  0  0  0  0  0  0  0
    0.5110    2.1240   -2.5445 O   0  0  0  0  0  0  0  0  0  0  0  0
   -2.8757   -0.1442   -0.1647 C   0  0  0  0  0  0  0  0  0  0  0  0
   -3.5792   -1.2763   -0.3432 C   0  0  0  0  0  0  0  0  0  0  0  0
   -5.4204   -1.3705   -0.5700 Br  0  0  0  0  0  0  0  0  0  0  0  0
   -1.2994    2.0834    0.1720 H   0  0  0  0  0  0  0  0  0  0  0  0
    1.3302   -1.9239    0.1500 H   0  0  0  0  0  0  0  0  0  0  0  0
    2.4411    2.2884    0.0196 H   0  0  0  0  0  0  0  0  0  0  0  0
    2.2855    3.0190   -2.1135 H   0  0  0  0  0  0  0  0  0  0  0  0
   -0.4401    4.2115   -1.4781 H   0  0  0  0  0  0  0  0  0  0  0  0
    2.2489    5.0695   -0.2792 H   0  0  0  0  0  0  0  0  0  0  0  0
    0.9190    6.2137    1.4000 H   0  0  0  0  0  0  0  0  0  0  0  0
    0.3889    6.8127   -0.1828 H   0  0  0  0  0  0  0  0  0  0  0  0
   -1.3743    5.3445   -0.0298 H   0  0  0  0  0  0  0  0  0  0  0  0
    1.8389    5.2185   -2.8372 H   0  0  0  0  0  0  0  0  0  0  0  0
   -0.3876    2.0599   -2.1784 H   0  0  0  0  0  0  0  0  0  0  0  0
   -3.4309    0.7917   -0.1696 H   0  0  0  0  0  0  0  0  0  0  0  0
   -3.1516   -2.2709   -0.3786 H   0  0  0  0  0  0  0  0  0  0  0  0
  1  2  2  0  0  0  0
  1  8  1  0  0  0  0
  1 21  1  0  0  0  0
  2  3  1  0  0  0  0
  2 18  1  0  0  0  0
  3  4  2  0  0  0  0
  3  5  1  0  0  0  0
  5  6  1  0  0  0  0
  5 22  1  0  0  0  0
  6  7  2  0  0  0  0
  6  8  1  0  0  0  0
  9  8  1  0  0  0  0
  9 10  1  0  0  0  0
  9 13  1  0  0  0  0
  9 23  1  1  0  0  0
 10 11  1  0  0  0  0
 10 17  1  0  0  0  0
 10 24  1  6  0  0  0
 11 12  1  0  0  0  0
 11 16  1  0  0  0  0
 11 25  1  1  0  0  0
 12 13  1  0  0  0  0
 12 26  1  6  0  0  0
 12 14  1  0  0  0  0
 14 15  1  0  0  0  0
 14 27  1  0  0  0  0
 14 28  1  0  0  0  0
 15 29  1  0  0  0  0
 16 30  1  0  0  0  0
 17 31  1  0  0  0  0
 18 19  2  0  0  0  0
 18 32  1  0  0  0  0
 19 20  1  0  0  0  0
 19 33  1  0  0  0  0
M  END
>  <DRUGBANK_ID>
DB11998

>  <COMMON_NAME>
Sorivudine

>  <CAS_NUMBER>
77181-69-2

>  <UNII>
C7VOZ162LV

>  <SYNONYMS>
Sorivudine

$$$$
