186
 OpenBabel10282417103D

 31 33  0  0  1  0  0  0  0  0999 V2000
    1.0737   -0.1118   -0.0023 Cl  0  0  0  0  0  0  0  0  0  0  0  0
    5.2926    1.4202    3.2051 Cl  0  0  0  0  0  0  0  0  0  0  0  0
    6.4540    1.5282   -2.4777 O   0  0  0  0  0  0  0  0  0  0  0  0
    9.0644    0.4793   -0.5377 O   0  0  0  0  0  0  0  0  0  0  0  0
    6.9869   -0.1731    0.0228 N   0  0  0  0  0  0  0  0  0  0  0  0
    6.5893    2.8195   -0.4004 N   0  0  0  0  0  0  0  0  0  0  0  0
    4.8740    1.1157    0.0996 C   0  0  0  0  0  0  0  0  0  0  0  0
    5.5523    2.4342    0.2601 C   0  0  0  0  0  0  0  0  0  0  0  0
    5.5893   -0.0919    0.0312 C   0  0  0  0  0  0  0  0  0  0  0  0
    4.9791    3.3700    1.2729 C   0  0  0  0  0  0  0  0  0  0  0  0
    7.2336    1.9105   -1.3539 C   0  0  3  0  0  0  0  0  0  0  0  0
    3.4714    1.1027    0.0925 C   0  0  0  0  0  0  0  0  0  0  0  0
    7.8486    0.7138   -0.5730 C   0  0  0  0  0  0  0  0  0  0  0  0
    4.8897   -1.2996   -0.0483 C   0  0  0  0  0  0  0  0  0  0  0  0
    2.7919   -0.1058   -0.0003 C   0  0  0  0  0  0  0  0  0  0  0  0
    3.4937   -1.3043   -0.0871 C   0  0  0  0  0  0  0  0  0  0  0  0
    4.7731    2.9541    2.5969 C   0  0  0  0  0  0  0  0  0  0  0  0
    4.6201    4.6713    0.8870 C   0  0  0  0  0  0  0  0  0  0  0  0
    4.1683    3.8164    3.5093 C   0  0  0  0  0  0  0  0  0  0  0  0
    4.1243    5.5645    1.8424 C   0  0  0  0  0  0  0  0  0  0  0  0
    3.8941    5.1340    3.1492 C   0  0  0  0  0  0  0  0  0  0  0  0
    5.6771    1.0596   -2.1464 H   0  0  0  0  0  0  0  0  0  0  0  0
    7.4411   -1.0208    0.3424 H   0  0  0  0  0  0  0  0  0  0  0  0
    8.0888    2.4468   -1.7800 H   0  0  0  0  0  0  0  0  0  0  0  0
    2.9051    2.0279    0.1686 H   0  0  0  0  0  0  0  0  0  0  0  0
    5.4227   -2.2438   -0.1419 H   0  0  0  0  0  0  0  0  0  0  0  0
    2.9611   -2.2461   -0.1919 H   0  0  0  0  0  0  0  0  0  0  0  0
    4.7231    4.9967   -0.1468 H   0  0  0  0  0  0  0  0  0  0  0  0
    3.9325    3.4680    4.5112 H   0  0  0  0  0  0  0  0  0  0  0  0
    3.9112    6.5973    1.5726 H   0  0  0  0  0  0  0  0  0  0  0  0
    3.5106    5.8250    3.8962 H   0  0  0  0  0  0  0  0  0  0  0  0
  1 15  1  0  0  0  0
  2 17  1  0  0  0  0
  3 11  1  0  0  0  0
  3 22  1  0  0  0  0
  4 13  2  0  0  0  0
  5  9  1  0  0  0  0
  5 13  1  0  0  0  0
  5 23  1  0  0  0  0
  6  8  2  0  0  0  0
  6 11  1  0  0  0  0
  7  8  1  0  0  0  0
  7  9  2  0  0  0  0
  7 12  1  0  0  0  0
  8 10  1  0  0  0  0
  9 14  1  0  0  0  0
 10 17  1  0  0  0  0
 10 18  2  0  0  0  0
 11 13  1  0  0  0  0
 11 24  1  0  0  0  0
 12 15  2  0  0  0  0
 12 25  1  0  0  0  0
 14 16  2  0  0  0  0
 14 26  1  0  0  0  0
 15 16  1  0  0  0  0
 16 27  1  0  0  0  0
 17 19  2  0  0  0  0
 18 20  1  0  0  0  0
 18 28  1  0  0  0  0
 19 21  1  0  0  0  0
 19 29  1  0  0  0  0
 20 21  2  0  0  0  0
 20 30  1  0  0  0  0
 21 31  1  0  0  0  0
M  END
>  <DRUGBANK_ID>
DB00186

>  <SECONDARY_ACCESSION_NUMBERS>
APRD00116

>  <COMMON_NAME>
Lorazepam

>  <CAS_NUMBER>
846-49-1

>  <UNII>
O26FZP769L

>  <SYNONYMS>
Loracepam; Lorazepam; o-Chlorooxazepam; o-Chloroxazepam

$$$$
