
 OpenBabel10282417183D

 52 55  0  0  0  0  0  0  0  0999 V2000
    2.1111   12.0736   -6.5515 C   0  0  0  0  0  0  0  0  0  0  0  0
    1.4284    7.6782   -4.3727 C   0  0  1  0  0  0  0  0  0  0  0  0
    0.7792   11.9041   -3.3276 C   0  0  0  0  0  0  0  0  0  0  0  0
    1.1174   11.7539   -7.5262 C   0  0  0  0  0  0  0  0  0  0  0  0
   -0.3518   10.9580   -3.2572 C   0  0  0  0  0  0  0  0  0  0  0  0
   -1.5563    8.7696   -1.6146 C   0  0  0  0  0  0  0  0  0  0  0  0
   -2.8119    6.9962   -3.7355 C   0  0  0  0  0  0  0  0  0  0  0  0
    1.0907    9.2317   -4.5189 C   0  0  2  0  0  0  0  0  0  0  0  0
    0.4351    8.8878   -5.2848 H   0  0  0  0  0  0  0  0  0  0  0  0
    0.2407    9.5271   -3.2651 C   0  0  1  0  0  0  0  0  0  0  0  0
    0.8837    9.3524   -2.3868 H   0  0  0  0  0  0  0  0  0  0  0  0
    1.3815   11.8436   -4.7292 C   0  0  1  0  0  0  0  0  0  0  0  0
    2.9369   12.7173   -4.5110 C   0  0  0  0  0  0  0  0  0  0  0  0
    2.1043   10.6469   -5.2509 C   0  0  1  0  0  0  0  0  0  0  0  0
    3.0391   10.5494   -4.7031 H   0  0  0  0  0  0  0  0  0  0  0  0
   -0.9918    8.6192   -3.0776 C   0  0  2  0  0  0  0  0  0  0  0  0
   -1.5640    9.1756   -3.8255 H   0  0  0  0  0  0  0  0  0  0  0  0
   -2.8791    8.0635   -1.5074 C   0  0  0  0  0  0  0  0  0  0  0  0
   -3.3584    8.2528   -2.9230 C   0  0  0  0  0  0  0  0  0  0  0  0
   -3.7561    9.2632   -3.4315 O   0  0  0  0  0  0  0  0  0  0  0  0
   -1.4524    7.3507   -3.7734 C   0  0  0  0  0  0  0  0  0  0  0  0
   -0.1245    6.7379   -4.4841 C   0  0  0  0  0  0  0  0  0  0  0  0
    0.2561   11.6984   -6.2631 C   0  0  1  0  0  0  0  0  0  0  0  0
   -0.8301   12.5929   -6.2826 O   0  0  0  0  0  0  0  0  0  0  0  0
    2.7460    7.5789   -5.1719 C   0  0  0  0  0  0  0  0  0  0  0  0
   -0.3128   10.3168   -6.4479 C   0  0  0  0  0  0  0  0  0  0  0  0
    2.9838   12.5493   -7.0222 H   0  0  0  0  0  0  0  0  0  0  0  0
    1.6802   13.1341   -6.1811 H   0  0  0  0  0  0  0  0  0  0  0  0
    1.7502    7.3332   -3.3805 H   0  0  0  0  0  0  0  0  0  0  0  0
    0.4832   12.9343   -3.1152 H   0  0  0  0  0  0  0  0  0  0  0  0
    1.5473   11.6385   -2.5956 H   0  0  0  0  0  0  0  0  0  0  0  0
    1.0105   12.5409   -8.2839 H   0  0  0  0  0  0  0  0  0  0  0  0
    1.6181   10.8781   -7.9601 H   0  0  0  0  0  0  0  0  0  0  0  0
   -0.8922   11.3822   -4.0896 H   0  0  0  0  0  0  0  0  0  0  0  0
   -1.3305   10.9618   -2.7634 H   0  0  0  0  0  0  0  0  0  0  0  0
   -1.7308    9.8169   -1.3655 H   0  0  0  0  0  0  0  0  0  0  0  0
   -0.8622    8.3757   -0.8662 H   0  0  0  0  0  0  0  0  0  0  0  0
   -3.9320    6.8925   -3.6464 H   0  0  0  0  0  0  0  0  0  0  0  0
    2.8252   13.7909   -4.4084 H   0  0  0  0  0  0  0  0  0  0  0  0
    3.5304   12.2586   -3.7075 H   0  0  0  0  0  0  0  0  0  0  0  0
    3.6861   12.5537   -5.3257 H   0  0  0  0  0  0  0  0  0  0  0  0
   -3.5924    8.3555   -0.7418 H   0  0  0  0  0  0  0  0  0  0  0  0
   -2.6656    6.9997   -1.3516 H   0  0  0  0  0  0  0  0  0  0  0  0
   -0.3811    6.5295   -5.5297 H   0  0  0  0  0  0  0  0  0  0  0  0
    0.0450    5.7789   -3.9651 H   0  0  0  0  0  0  0  0  0  0  0  0
   -1.5389   12.1498   -5.7793 H   0  0  0  0  0  0  0  0  0  0  0  0
    3.4859    8.2044   -4.6252 H   0  0  0  0  0  0  0  0  0  0  0  0
    3.2166    6.5990   -5.2239 H   0  0  0  0  0  0  0  0  0  0  0  0
    2.7060    8.0464   -6.1641 H   0  0  0  0  0  0  0  0  0  0  0  0
    0.4941    9.6449   -6.8061 H   0  0  0  0  0  0  0  0  0  0  0  0
   -0.6652   10.1709   -5.4515 H   0  0  0  0  0  0  0  0  0  0  0  0
   -1.2083   10.0110   -6.9658 H   0  0  0  0  0  0  0  0  0  0  0  0
  1 27  1  0  0  0  0
  1 28  1  0  0  0  0
  2 22  1  0  0  0  0
  2 25  1  0  0  0  0
  2 29  1  1  0  0  0
  3  5  1  0  0  0  0
  3 30  1  0  0  0  0
  3 31  1  0  0  0  0
  4  1  1  0  0  0  0
  4 32  1  0  0  0  0
  4 33  1  0  0  0  0
  5 34  1  0  0  0  0
  5 35  1  0  0  0  0
  6 18  1  0  0  0  0
  6 36  1  0  0  0  0
  6 37  1  0  0  0  0
  7 19  1  0  0  0  0
  7 38  1  0  0  0  0
  8 10  1  0  0  0  0
  8  2  1  0  0  0  0
  8  9  1  1  0  0  0
 10 16  1  0  0  0  0
 10  5  1  0  0  0  0
 10 11  1  6  0  0  0
 12 23  1  0  0  0  0
 12  3  1  0  0  0  0
 12 13  1  6  0  0  0
 13 39  1  0  0  0  0
 13 40  1  0  0  0  0
 13 41  1  0  0  0  0
 14  8  1  0  0  0  0
 14 12  1  0  0  0  0
 14  1  1  0  0  0  0
 14 15  1  6  0  0  0
 16 21  1  0  0  0  0
 16  6  1  0  0  0  0
 16 17  1  1  0  0  0
 18 19  1  0  0  0  0
 18 42  1  0  0  0  0
 18 43  1  0  0  0  0
 19 20  2  0  0  0  0
 21  7  2  0  0  0  0
 22 21  1  0  0  0  0
 22 44  1  0  0  0  0
 22 45  1  0  0  0  0
 23  4  1  0  0  0  0
 23 24  1  6  0  0  0
 23 26  1  0  0  0  0
 24 46  1  0  0  0  0
 25 47  1  0  0  0  0
 25 48  1  0  0  0  0
 25 49  1  0  0  0  0
 26 50  1  0  0  0  0
 26 51  1  0  0  0  0
 26 52  1  0  0  0  0
M  END
>  <DRUGBANK_ID>
DB11429

>  <COMMON_NAME>
Mibolerone

>  <CAS_NUMBER>
3704-09-4

>  <UNII>
9OGY4BOR8D

>  <SYNONYMS>
(7α,17β)-17-hydroxy-7,17-dimethylestr-4-en-3-one; 17-beta-Hydroxy-7-alpha,17-dimethylestr-4-en-3-one; 7α-17α-dimethyl-19-nortestosterone; Mibolerona; Mibolerone; Miboleronum

$$$$
