
 OpenBabel10282417153D

 56 60  0  0  0  0  0  0  0  0999 V2000
   -0.2181   -0.0594   -0.6976 C   0  0  0  0  0  0  0  0  0  0  0  0
    0.1112   -1.0851    0.1904 N   0  0  0  0  0  0  0  0  0  0  0  0
    1.1681   -0.6472    1.0097 N   0  0  0  0  0  0  0  0  0  0  0  0
    1.3227    0.6310    0.5579 C   0  0  0  0  0  0  0  0  0  0  0  0
    1.1530    0.3057   -0.7111 C   0  0  0  0  0  0  0  0  0  0  0  0
    2.5552    0.4826   -1.7358 C   0  0  0  0  0  0  0  0  0  0  0  0
    2.2942    1.7505    0.4662 C   0  0  0  0  0  0  0  0  0  0  0  0
    2.0023    2.5481   -1.1828 C   0  0  1  0  0  0  0  0  0  0  0  0
    1.8937    1.4895   -2.5380 C   0  0  1  0  0  0  0  0  0  0  0  0
    2.1141    2.2943   -3.8205 C   0  0  2  0  0  0  0  0  0  0  0  0
    0.7912    3.4561   -1.3241 C   0  0  0  0  0  0  0  0  0  0  0  0
    0.6853    4.1325   -2.7880 C   0  0  0  0  0  0  0  0  0  0  0  0
    0.7029    3.0686   -4.0392 C   0  0  1  0  0  0  0  0  0  0  0  0
    2.4350    2.1503   -6.2089 C   0  0  0  0  0  0  0  0  0  0  0  0
    2.5200    1.3874   -4.9608 C   0  0  0  0  0  0  0  0  0  0  0  0
   -0.0348    3.2885   -5.7389 C   0  0  1  0  0  0  0  0  0  0  0  0
    0.8976    3.9709   -7.4970 C   0  0  2  0  0  0  0  0  0  0  0  0
    1.0041    2.6366   -6.3262 C   0  0  1  0  0  0  0  0  0  0  0  0
   -0.2593    2.5236   -7.5748 C   0  0  0  0  0  0  0  0  0  0  0  0
    0.8097    3.0391   -8.5890 C   0  0  0  0  0  0  0  0  0  0  0  0
    0.9135    0.2701   -3.0360 C   0  0  0  0  0  0  0  0  0  0  0  0
    2.9218    3.1626   -1.2832 H   0  0  0  0  0  0  0  0  0  0  0  0
    2.9217    3.0417   -3.7149 H   0  0  0  0  0  0  0  0  0  0  0  0
   -0.0979    2.4664   -3.6201 H   0  0  0  0  0  0  0  0  0  0  0  0
   -0.0527    4.4018   -5.6659 H   0  0  0  0  0  0  0  0  0  0  0  0
   -0.2342    1.3098   -5.8057 C   0  0  0  0  0  0  0  0  0  0  0  0
    2.0151    4.8105   -7.5170 O   0  0  0  0  0  0  0  0  0  0  0  0
   -0.5630    4.8678   -7.6649 C   0  0  0  0  0  0  0  0  0  0  0  0
   -1.1810    0.3878   -0.3864 H   0  0  0  0  0  0  0  0  0  0  0  0
   -0.3988   -1.9608    0.2855 H   0  0  0  0  0  0  0  0  0  0  0  0
    2.9178   -0.4013   -2.2526 H   0  0  0  0  0  0  0  0  0  0  0  0
    3.4786    0.9410   -1.3385 H   0  0  0  0  0  0  0  0  0  0  0  0
    2.2193    2.4752    1.2674 H   0  0  0  0  0  0  0  0  0  0  0  0
    3.3018    1.2885    0.5004 H   0  0  0  0  0  0  0  0  0  0  0  0
    0.8380    4.1997   -0.5169 H   0  0  0  0  0  0  0  0  0  0  0  0
   -0.1090    2.8613   -1.1489 H   0  0  0  0  0  0  0  0  0  0  0  0
    1.5408    4.8205   -2.8527 H   0  0  0  0  0  0  0  0  0  0  0  0
   -0.2377    4.7158   -2.7786 H   0  0  0  0  0  0  0  0  0  0  0  0
    2.6247    1.4500   -7.0311 H   0  0  0  0  0  0  0  0  0  0  0  0
    3.1770    2.9401   -6.2521 H   0  0  0  0  0  0  0  0  0  0  0  0
    1.8226    0.5894   -5.1586 H   0  0  0  0  0  0  0  0  0  0  0  0
    3.4730    0.8822   -4.8067 H   0  0  0  0  0  0  0  0  0  0  0  0
   -1.2427    2.4744   -8.0857 H   0  0  0  0  0  0  0  0  0  0  0  0
   -0.0001    1.4323   -7.7513 H   0  0  0  0  0  0  0  0  0  0  0  0
    0.5090    3.4506   -9.5503 H   0  0  0  0  0  0  0  0  0  0  0  0
    1.7033    2.4094   -8.7378 H   0  0  0  0  0  0  0  0  0  0  0  0
   -0.1296    0.5436   -3.0359 H   0  0  0  0  0  0  0  0  0  0  0  0
    1.2793   -0.2997   -3.8829 H   0  0  0  0  0  0  0  0  0  0  0  0
    0.9681   -0.6898   -2.4801 H   0  0  0  0  0  0  0  0  0  0  0  0
   -0.2319    1.0718   -4.7682 H   0  0  0  0  0  0  0  0  0  0  0  0
   -1.3061    1.6763   -5.9038 H   0  0  0  0  0  0  0  0  0  0  0  0
   -0.1789    0.3612   -6.3322 H   0  0  0  0  0  0  0  0  0  0  0  0
    2.2066    5.0197   -6.5857 H   0  0  0  0  0  0  0  0  0  0  0  0
   -1.3602    4.6136   -6.9340 H   0  0  0  0  0  0  0  0  0  0  0  0
   -0.3964    5.9352   -7.5972 H   0  0  0  0  0  0  0  0  0  0  0  0
   -1.0910    4.6046   -8.5962 H   0  0  0  0  0  0  0  0  0  0  0  0
  1  2  1  0  0  0  0
  1  5  2  0  0  0  0
  1 29  1  0  0  0  0
  2  3  1  0  0  0  0
  2 30  1  0  0  0  0
  3  4  2  0  0  0  0
  4  7  1  0  0  0  0
  5  4  1  0  0  0  0
  6  5  1  0  0  0  0
  6  9  1  0  0  0  0
  6 31  1  0  0  0  0
  6 32  1  0  0  0  0
  7  8  1  0  0  0  0
  7 33  1  0  0  0  0
  7 34  1  0  0  0  0
  8 11  1  0  0  0  0
  8 22  1  6  0  0  0
  9  8  1  0  0  0  0
  9 21  1  6  0  0  0
 10  9  1  0  0  0  0
 10 13  1  0  0  0  0
 10 23  1  1  0  0  0
 11 12  1  0  0  0  0
 11 35  1  0  0  0  0
 11 36  1  0  0  0  0
 12 13  1  0  0  0  0
 12 37  1  0  0  0  0
 12 38  1  0  0  0  0
 13 16  1  0  0  0  0
 13 24  1  1  0  0  0
 14 15  1  0  0  0  0
 14 18  1  0  0  0  0
 14 39  1  0  0  0  0
 14 40  1  0  0  0  0
 15 10  1  0  0  0  0
 15 41  1  0  0  0  0
 15 42  1  0  0  0  0
 16 19  1  0  0  0  0
 16 25  1  6  0  0  0
 17 18  1  0  0  0  0
 17 20  1  0  0  0  0
 17 28  1  0  0  0  0
 17 27  1  6  0  0  0
 18 16  1  0  0  0  0
 18 26  1  6  0  0  0
 19 20  1  0  0  0  0
 19 43  1  0  0  0  0
 19 44  1  0  0  0  0
 20 45  1  0  0  0  0
 20 46  1  0  0  0  0
 21 47  1  0  0  0  0
 21 48  1  0  0  0  0
 21 49  1  0  0  0  0
 26 50  1  0  0  0  0
 26 51  1  0  0  0  0
 26 52  1  0  0  0  0
 27 53  1  0  0  0  0
 28 54  1  0  0  0  0
 28 55  1  0  0  0  0
 28 56  1  0  0  0  0
M  END
>  <DRUGBANK_ID>
DB06718

>  <COMMON_NAME>
Stanozolol

>  <CAS_NUMBER>
10418-03-8

>  <UNII>
4R1VB9P8V3

>  <SYNONYMS>
Androstanazol; Androstanazole; Estanozolol; Stanozolol

$$$$
