198
 OpenBabel10282417133D

 43 44  0  0  0  0  0  0  0  0999 V2000
   -1.1950    1.1544   -0.3153 C   0  0  0  0  0  0  0  0  0  0  0  0
    0.1862    1.1573   -0.1301 C   0  0  0  0  0  0  0  0  0  0  0  0
    0.8483   -0.0511   -0.0133 C   0  0  0  0  0  0  0  0  0  0  0  0
    2.1849   -0.0600    0.0486 F   0  0  0  0  0  0  0  0  0  0  0  0
    0.1423   -1.2508    0.0012 C   0  0  0  0  0  0  0  0  0  0  0  0
   -1.2543   -1.2440   -0.0441 C   0  0  0  0  0  0  0  0  0  0  0  0
   -1.9292   -0.0312   -0.1923 C   0  0  0  0  0  0  0  0  0  0  0  0
   -3.7166   -0.0748   -0.0946 S   0  0  0  0  0  0  0  0  0  0  0  0
   -4.1619   -0.5885   -1.3766 O   0  0  0  0  0  0  0  0  0  0  0  0
   -4.0107   -0.7972    1.1251 O   0  0  0  0  0  0  0  0  0  0  0  0
   -4.3145    1.5834    0.0380 C   0  0  0  0  0  0  0  0  0  0  0  0
   -3.9182    2.3815    1.2822 C   0  0  1  0  0  0  0  0  0  0  0  0
   -2.5082    2.4886    1.4582 O   0  0  0  0  0  0  0  0  0  0  0  0
   -4.3807    3.7964    0.9579 C   0  0  0  0  0  0  0  0  0  0  0  0
   -4.4912    1.8559    2.6349 C   0  0  0  0  0  0  0  0  0  0  0  0
   -5.3247    0.9506    2.6645 O   0  0  0  0  0  0  0  0  0  0  0  0
   -3.9882    2.3280    3.8425 N   0  0  0  0  0  0  0  0  0  0  0  0
   -3.1877    3.4623    4.0958 C   0  0  0  0  0  0  0  0  0  0  0  0
   -2.0783    3.4213    4.9284 C   0  0  0  0  0  0  0  0  0  0  0  0
   -3.5197    4.6968    3.5607 C   0  0  0  0  0  0  0  0  0  0  0  0
   -2.6225    5.7599    3.5073 C   0  0  0  0  0  0  0  0  0  0  0  0
   -1.5094    5.7369    4.3259 C   0  0  0  0  0  0  0  0  0  0  0  0
   -0.7895    6.9638    4.4784 C   0  0  0  0  0  0  0  0  0  0  0  0
   -0.2686    7.9980    4.6416 N   0  0  0  0  0  0  0  0  0  0  0  0
   -1.2527    4.5760    5.0784 C   0  0  0  0  0  0  0  0  0  0  0  0
   -0.1323    4.5367    6.0802 C   0  0  0  0  0  0  0  0  0  0  0  0
   -0.5994    4.2866    7.3322 F   0  0  0  0  0  0  0  0  0  0  0  0
    0.7639    3.5560    5.7983 F   0  0  0  0  0  0  0  0  0  0  0  0
    0.5897    5.6800    6.1784 F   0  0  0  0  0  0  0  0  0  0  0  0
   -1.6615    2.1204   -0.4766 H   0  0  0  0  0  0  0  0  0  0  0  0
    0.7382    2.0926   -0.0911 H   0  0  0  0  0  0  0  0  0  0  0  0
    0.6878   -2.1863    0.0506 H   0  0  0  0  0  0  0  0  0  0  0  0
   -1.8097   -2.1787    0.0157 H   0  0  0  0  0  0  0  0  0  0  0  0
   -3.9589    2.0851   -0.8747 H   0  0  0  0  0  0  0  0  0  0  0  0
   -5.4095    1.5489   -0.0462 H   0  0  0  0  0  0  0  0  0  0  0  0
   -2.1804    1.6351    1.8028 H   0  0  0  0  0  0  0  0  0  0  0  0
   -5.4244    3.9633    1.2387 H   0  0  0  0  0  0  0  0  0  0  0  0
   -3.7082    4.4838    1.4372 H   0  0  0  0  0  0  0  0  0  0  0  0
   -4.2017    4.1364   -0.0651 H   0  0  0  0  0  0  0  0  0  0  0  0
   -4.1916    1.7010    4.6137 H   0  0  0  0  0  0  0  0  0  0  0  0
   -1.8302    2.5094    5.4707 H   0  0  0  0  0  0  0  0  0  0  0  0
   -4.5022    4.8520    3.1285 H   0  0  0  0  0  0  0  0  0  0  0  0
   -2.8392    6.6149    2.8671 H   0  0  0  0  0  0  0  0  0  0  0  0
  1  2  2  0  0  0  0
  1  7  1  0  0  0  0
  1 30  1  0  0  0  0
  2  3  1  0  0  0  0
  2 31  1  0  0  0  0
  3  4  1  0  0  0  0
  3  5  2  0  0  0  0
  5  6  1  0  0  0  0
  5 32  1  0  0  0  0
  6  7  2  0  0  0  0
  6 33  1  0  0  0  0
  7  8  1  0  0  0  0
  8  9  2  0  0  0  0
  8 10  2  0  0  0  0
  8 11  1  0  0  0  0
 11 12  1  0  0  0  0
 11 34  1  0  0  0  0
 11 35  1  0  0  0  0
 12 13  1  1  0  0  0
 12 14  1  0  0  0  0
 12 15  1  0  0  0  0
 13 36  1  0  0  0  0
 14 37  1  0  0  0  0
 14 38  1  0  0  0  0
 14 39  1  0  0  0  0
 15 16  2  0  0  0  0
 15 17  1  0  0  0  0
 17 18  1  0  0  0  0
 17 40  1  0  0  0  0
 18 19  2  0  0  0  0
 18 20  1  0  0  0  0
 19 25  1  0  0  0  0
 19 41  1  0  0  0  0
 20 21  2  0  0  0  0
 20 42  1  0  0  0  0
 21 22  1  0  0  0  0
 21 43  1  0  0  0  0
 22 23  1  0  0  0  0
 22 25  2  0  0  0  0
 23 24  3  0  0  0  0
 25 26  1  0  0  0  0
 26 27  1  0  0  0  0
 26 28  1  0  0  0  0
 26 29  1  0  0  0  0
M  END
>  <DRUGBANK_ID>
DB02932

>  <SECONDARY_ACCESSION_NUMBERS>
EXPT00064

>  <COMMON_NAME>
(R)-Bicalutamide

>  <CAS_NUMBER>
113299-40-4

>  <UNII>
Z9DL98I0AF

>  <SYNONYMS>
(-)-Bicalutamide

$$$$
