
 OpenBabel10282417193D

 26 25  0  0  0  0  0  0  0  0999 V2000
    1.5505    0.5488   -0.2780 S   0  0  0  0  0  0  0  0  0  0  0  0
   -2.7749   -2.3801   -2.5277 S   0  0  0  0  0  0  0  0  0  0  0  0
    2.0529    1.5479   -3.8388 O   0  0  0  0  0  0  0  0  0  0  0  0
    1.2574   -2.3852   -3.8654 O   0  0  0  0  0  0  0  0  0  0  0  0
    0.1463   -3.1764   -2.1046 O   0  0  0  0  0  0  0  0  0  0  0  0
    0.3874    0.1745   -3.3883 N   0  0  0  0  0  0  0  0  0  0  0  0
    2.4741    0.2064   -1.8352 C   0  0  0  0  0  0  0  0  0  0  0  0
    1.6249    0.6759   -3.0708 C   0  0  0  0  0  0  0  0  0  0  0  0
   -0.3758   -0.9235   -2.7661 C   0  0  2  0  0  0  0  0  0  0  0  0
    0.4178   -2.1996   -2.9910 C   0  0  0  0  0  0  0  0  0  0  0  0
   -1.7175   -1.2014   -3.4574 C   0  0  0  0  0  0  0  0  0  0  0  0
    3.7967    0.9880   -1.7888 C   0  0  0  0  0  0  0  0  0  0  0  0
    2.9073   -1.2598   -1.8170 C   0  0  0  0  0  0  0  0  0  0  0  0
    1.3622    1.8610   -0.4722 H   0  0  0  0  0  0  0  0  0  0  0  0
   -1.8350   -3.3343   -2.3446 H   0  0  0  0  0  0  0  0  0  0  0  0
    0.8028   -3.8770   -2.3064 H   0  0  0  0  0  0  0  0  0  0  0  0
    0.0233    0.5798   -4.2459 H   0  0  0  0  0  0  0  0  0  0  0  0
   -0.5137   -0.6638   -1.7134 H   0  0  0  0  0  0  0  0  0  0  0  0
   -2.2952   -0.2865   -3.6048 H   0  0  0  0  0  0  0  0  0  0  0  0
   -1.5328   -1.6403   -4.4454 H   0  0  0  0  0  0  0  0  0  0  0  0
    4.4171    0.6603   -0.9448 H   0  0  0  0  0  0  0  0  0  0  0  0
    4.3809    0.7976   -2.6994 H   0  0  0  0  0  0  0  0  0  0  0  0
    3.6490    2.0678   -1.7101 H   0  0  0  0  0  0  0  0  0  0  0  0
    3.6949   -1.4610   -1.0823 H   0  0  0  0  0  0  0  0  0  0  0  0
    2.1119   -1.9298   -1.5097 H   0  0  0  0  0  0  0  0  0  0  0  0
    3.3020   -1.5633   -2.7935 H   0  0  0  0  0  0  0  0  0  0  0  0
  1  7  1  0  0  0  0
  1 14  1  0  0  0  0
  2 11  1  0  0  0  0
  2 15  1  0  0  0  0
  3  8  2  0  0  0  0
  4 10  2  0  0  0  0
  5 10  1  0  0  0  0
  5 16  1  0  0  0  0
  6  8  1  0  0  0  0
  6 17  1  0  0  0  0
  7  8  1  0  0  0  0
  7 12  1  0  0  0  0
  7 13  1  0  0  0  0
  9 11  1  0  0  0  0
  9 18  1  1  0  0  0
  9 10  1  0  0  0  0
  9  6  1  0  0  0  0
 11 19  1  0  0  0  0
 11 20  1  0  0  0  0
 12 21  1  0  0  0  0
 12 22  1  0  0  0  0
 12 23  1  0  0  0  0
 13 24  1  0  0  0  0
 13 25  1  0  0  0  0
 13 26  1  0  0  0  0
M  END
>  <DRUGBANK_ID>
DB12160

>  <COMMON_NAME>
Bucillamine

>  <CAS_NUMBER>
65002-17-7

>  <UNII>
R80LRA5WTF

>  <SYNONYMS>
Bucilamina; Bucillamine; Bucillaminum

$$$$
