CT1
 OpenBabel10282417163D

 49 49  0  0  0  0  0  0  0  0999 V2000
   -3.1706   -7.8069   -2.1045 C   0  0  0  0  0  0  0  0  0  0  0  0
   -2.5565   -6.4896   -1.9449 C   0  0  0  0  0  0  0  0  0  0  0  0
   -3.3169   -5.5516   -1.0184 C   0  0  0  0  0  0  0  0  0  0  0  0
   -3.1339   -5.3228    0.6222 C   0  0  0  0  0  0  0  0  0  0  0  0
   -1.6323   -3.5021    3.0900 O   0  0  0  0  0  0  0  0  0  0  0  0
   -1.3250   -7.0351    2.2831 N   0  0  0  0  0  0  0  0  0  0  0  0
   -1.8465   -8.3729    2.6393 C   0  0  0  0  0  0  0  0  0  0  0  0
   -1.0650   -9.3268    2.5012 O   0  0  0  0  0  0  0  0  0  0  0  0
   -3.1788   -8.7145    2.9393 O   0  0  0  0  0  0  0  0  0  0  0  0
   -4.4183   -7.9025    2.8405 C   0  0  2  0  0  0  0  0  0  0  0  0
   -4.8205   -7.8324    1.3369 C   0  0  0  0  0  0  0  0  0  0  0  0
   -3.6408   -8.6564    0.5222 C   0  0  0  0  0  0  0  0  0  0  0  0
   -2.1207   -8.1250    0.2793 C   0  0  0  0  0  0  0  0  0  0  0  0
   -0.9327   -8.6516   -0.4586 C   0  0  0  0  0  0  0  0  0  0  0  0
   -1.2197   -9.7904   -1.2709 C   0  0  0  0  0  0  0  0  0  0  0  0
   -2.6741  -10.4225   -1.1913 C   0  0  0  0  0  0  0  0  0  0  0  0
   -3.8939   -9.8386   -0.3128 C   0  0  0  0  0  0  0  0  0  0  0  0
   -4.0062   -6.6681    3.6170 C   0  0  0  0  0  0  0  0  0  0  0  0
   -4.7385   -5.3478    3.5573 C   0  0  0  0  0  0  0  0  0  0  0  0
   -3.4248   -6.9944    5.0028 C   0  0  0  0  0  0  0  0  0  0  0  0
   -1.7658   -4.6495    2.9925 C   0  0  0  0  0  0  0  0  0  0  0  0
   -1.8114   -5.4971    1.6809 C   0  0  2  0  0  0  0  0  0  0  0  0
   -5.2346   -8.3915    3.3880 H   0  0  0  0  0  0  0  0  0  0  0  0
   -0.9699   -5.0956    1.1156 H   0  0  0  0  0  0  0  0  0  0  0  0
   -3.3048   -8.1959   -1.1980 H   0  0  0  0  0  0  0  0  0  0  0  0
   -2.3282   -8.4210   -2.1439 H   0  0  0  0  0  0  0  0  0  0  0  0
   -4.1971   -8.0924   -2.2850 H   0  0  0  0  0  0  0  0  0  0  0  0
   -1.4829   -6.4516   -1.7178 H   0  0  0  0  0  0  0  0  0  0  0  0
   -2.5813   -6.3674   -3.0201 H   0  0  0  0  0  0  0  0  0  0  0  0
   -3.1007   -4.5986   -1.4834 H   0  0  0  0  0  0  0  0  0  0  0  0
   -4.3843   -5.7908   -1.2066 H   0  0  0  0  0  0  0  0  0  0  0  0
   -3.8020   -4.4688    0.8391 H   0  0  0  0  0  0  0  0  0  0  0  0
   -3.6902   -6.1133    1.0226 H   0  0  0  0  0  0  0  0  0  0  0  0
   -0.4033   -7.2440    1.9011 H   0  0  0  0  0  0  0  0  0  0  0  0
   -5.8148   -8.2673    1.1074 H   0  0  0  0  0  0  0  0  0  0  0  0
   -5.1990   -6.7862    1.1379 H   0  0  0  0  0  0  0  0  0  0  0  0
   -1.9195   -7.0434    0.3173 H   0  0  0  0  0  0  0  0  0  0  0  0
   -0.1109   -7.8965   -0.6834 H   0  0  0  0  0  0  0  0  0  0  0  0
   -0.6828   -9.7443   -2.2915 H   0  0  0  0  0  0  0  0  0  0  0  0
   -2.9230  -11.1435   -2.0246 H   0  0  0  0  0  0  0  0  0  0  0  0
   -4.9541   -9.9125   -0.7303 H   0  0  0  0  0  0  0  0  0  0  0  0
   -3.1466   -6.4600    3.0611 H   0  0  0  0  0  0  0  0  0  0  0  0
   -5.7058   -5.4178    4.0305 H   0  0  0  0  0  0  0  0  0  0  0  0
   -4.1496   -4.5624    4.0545 H   0  0  0  0  0  0  0  0  0  0  0  0
   -4.8742   -4.9814    2.5390 H   0  0  0  0  0  0  0  0  0  0  0  0
   -2.6558   -7.7791    4.9602 H   0  0  0  0  0  0  0  0  0  0  0  0
   -2.9093   -6.1372    5.4444 H   0  0  0  0  0  0  0  0  0  0  0  0
   -4.2159   -7.3170    5.6693 H   0  0  0  0  0  0  0  0  0  0  0  0
   -1.9227   -5.2722    3.9204 H   0  0  0  0  0  0  0  0  0  0  0  0
  1  2  1  0  0  0  0
  1 25  1  0  0  0  0
  1 26  1  0  0  0  0
  1 27  1  0  0  0  0
  2  3  1  0  0  0  0
  2 28  1  0  0  0  0
  2 29  1  0  0  0  0
  3  4  1  0  0  0  0
  3 30  1  0  0  0  0
  3 31  1  0  0  0  0
  4 32  1  0  0  0  0
  4 33  1  0  0  0  0
  5 21  2  0  0  0  0
  6  7  1  0  0  0  0
  6 34  1  0  0  0  0
  7  8  2  0  0  0  0
  7  9  1  0  0  0  0
 10 18  1  0  0  0  0
 10 23  1  1  0  0  0
 10 11  1  0  0  0  0
 10  9  1  0  0  0  0
 11 12  1  0  0  0  0
 11 35  1  0  0  0  0
 11 36  1  0  0  0  0
 12 13  1  0  0  0  0
 12 17  2  0  0  0  0
 13 14  2  0  0  0  0
 13 37  1  0  0  0  0
 14 15  1  0  0  0  0
 14 38  1  0  0  0  0
 15 16  2  0  0  0  0
 15 39  1  0  0  0  0
 16 17  1  0  0  0  0
 16 40  1  0  0  0  0
 17 41  1  0  0  0  0
 18 19  1  0  0  0  0
 18 20  1  0  0  0  0
 18 42  1  0  0  0  0
 19 43  1  0  0  0  0
 19 44  1  0  0  0  0
 19 45  1  0  0  0  0
 20 46  1  0  0  0  0
 20 47  1  0  0  0  0
 20 48  1  0  0  0  0
 21 22  1  0  0  0  0
 21 49  1  0  0  0  0
 22 24  1  6  0  0  0
 22  6  1  0  0  0  0
 22  4  1  0  0  0  0
M  END
>  <DRUGBANK_ID>
DB07592

>  <COMMON_NAME>
(2R)-3-Methyl-1-phenyl-2-butanyl [(2S)-1-oxo-2-hexanyl]carbamate

$$$$
