
 OpenBabel10282417153D

 44 48  0  0  0  0  0  0  0  0999 V2000
    1.0043    0.0941   -0.0535 N   0  3  0  0  0  0  0  0  0  0  0  0
    0.3095   -0.9282   -0.0515 O   0  0  0  0  0  0  0  0  0  0  0  0
    0.5197    1.2337   -0.0537 O   0  5  0  0  0  0  0  0  0  0  0  0
    8.2850   -7.2811   -1.3492 C   0  0  0  0  0  0  0  0  0  0  0  0
    7.2727   -7.9983   -2.0198 O   0  0  0  0  0  0  0  0  0  0  0  0
    6.1105   -8.5726   -1.2376 C   0  0  0  0  0  0  0  0  0  0  0  0
    8.1151   -7.3895    0.1629 C   0  0  2  0  0  0  0  0  0  0  0  0
    6.7004   -6.7804    0.2112 C   0  0  0  0  0  0  0  0  0  0  0  0
    5.6914   -7.5393   -0.2630 C   0  0  0  0  0  0  0  0  0  0  0  0
    4.2711   -7.1282   -0.1487 C   0  0  0  0  0  0  0  0  0  0  0  0
    6.4655   -5.3313    0.1812 C   0  0  0  0  0  0  0  0  0  0  0  0
    5.2078   -4.8873    0.0530 C   0  0  0  0  0  0  0  0  0  0  0  0
    4.1378   -5.7667   -0.0220 N   0  0  0  0  0  0  0  0  0  0  0  0
    2.8600   -5.0709   -0.0435 C   0  0  0  0  0  0  0  0  0  0  0  0
    3.3084   -3.6521   -0.0591 C   0  0  0  0  0  0  0  0  0  0  0  0
    4.6818   -3.5340   -0.0363 C   0  0  0  0  0  0  0  0  0  0  0  0
    5.3606   -2.3820   -0.0397 N   0  0  0  0  0  0  0  0  0  0  0  0
    2.5450   -2.5220   -0.0626 C   0  0  0  0  0  0  0  0  0  0  0  0
    3.1724   -1.2614   -0.0579 C   0  0  0  0  0  0  0  0  0  0  0  0
    4.6084   -1.2612   -0.0537 C   0  0  0  0  0  0  0  0  0  0  0  0
    5.2782   -0.0456   -0.0534 C   0  0  0  0  0  0  0  0  0  0  0  0
    4.5964    1.1712   -0.0534 C   0  0  0  0  0  0  0  0  0  0  0  0
    3.2066    1.1874   -0.0533 C   0  0  0  0  0  0  0  0  0  0  0  0
    2.4852   -0.0161   -0.0550 C   0  0  0  0  0  0  0  0  0  0  0  0
    9.1865   -6.6458   -1.8833 O   0  0  0  0  0  0  0  0  0  0  0  0
    3.3673   -7.9296   -0.1787 O   0  0  0  0  0  0  0  0  0  0  0  0
    8.9050   -6.8018    1.1695 O   0  0  0  0  0  0  0  0  0  0  0  0
    8.3852   -8.9287    0.3431 C   0  0  0  0  0  0  0  0  0  0  0  0
    7.5623   -9.5058    1.4801 C   0  0  0  0  0  0  0  0  0  0  0  0
    5.3490   -8.9329   -1.9281 H   0  0  0  0  0  0  0  0  0  0  0  0
    6.3788   -9.4848   -0.7057 H   0  0  0  0  0  0  0  0  0  0  0  0
    7.2954   -4.6355    0.0956 H   0  0  0  0  0  0  0  0  0  0  0  0
    2.2891   -5.3325   -0.9399 H   0  0  0  0  0  0  0  0  0  0  0  0
    2.2915   -5.3091    0.8610 H   0  0  0  0  0  0  0  0  0  0  0  0
    1.4762   -2.6769   -0.0568 H   0  0  0  0  0  0  0  0  0  0  0  0
    6.3686   -0.0380   -0.0518 H   0  0  0  0  0  0  0  0  0  0  0  0
    5.1511    2.1070   -0.0529 H   0  0  0  0  0  0  0  0  0  0  0  0
    2.6960    2.1486   -0.0533 H   0  0  0  0  0  0  0  0  0  0  0  0
    8.8902   -5.8383    1.0820 H   0  0  0  0  0  0  0  0  0  0  0  0
    8.2273   -9.5172   -0.5757 H   0  0  0  0  0  0  0  0  0  0  0  0
    9.4544   -9.1307    0.4834 H   0  0  0  0  0  0  0  0  0  0  0  0
    6.5308   -9.1416    1.4960 H   0  0  0  0  0  0  0  0  0  0  0  0
    7.4940  -10.5924    1.3888 H   0  0  0  0  0  0  0  0  0  0  0  0
    8.0109   -9.2154    2.4265 H   0  0  0  0  0  0  0  0  0  0  0  0
  2  1  2  0  0  0  0
  3  1  1  0  0  0  0
  5  4  1  0  0  0  0
  6  5  1  0  0  0  0
  6 30  1  0  0  0  0
  6 31  1  0  0  0  0
  7  4  1  0  0  0  0
  7 27  1  1  0  0  0
  8  7  1  0  0  0  0
  9  6  1  0  0  0  0
  9  8  2  0  0  0  0
 10  9  1  0  0  0  0
 11  8  1  0  0  0  0
 11 32  1  0  0  0  0
 12 11  2  0  0  0  0
 13 10  1  0  0  0  0
 13 12  1  0  0  0  0
 14 13  1  0  0  0  0
 14 33  1  0  0  0  0
 14 34  1  0  0  0  0
 15 14  1  0  0  0  0
 16 12  1  0  0  0  0
 16 15  2  0  0  0  0
 17 16  1  0  0  0  0
 18 15  1  0  0  0  0
 18 35  1  0  0  0  0
 19 18  2  0  0  0  0
 20 17  2  0  0  0  0
 20 19  1  0  0  0  0
 21 20  1  0  0  0  0
 21 36  1  0  0  0  0
 22 21  2  0  0  0  0
 22 37  1  0  0  0  0
 23 22  1  0  0  0  0
 23 38  1  0  0  0  0
 24  1  1  0  0  0  0
 24 19  1  0  0  0  0
 24 23  2  0  0  0  0
 25  4  2  0  0  0  0
 26 10  2  0  0  0  0
 27 39  1  0  0  0  0
 28  7  1  0  0  0  0
 28 29  1  0  0  0  0
 28 40  1  0  0  0  0
 28 41  1  0  0  0  0
 29 42  1  0  0  0  0
 29 43  1  0  0  0  0
 29 44  1  0  0  0  0
M  CHG  2   1   1   3  -1
M  END
>  <DRUGBANK_ID>
DB06159

>  <COMMON_NAME>
Rubitecan

>  <CAS_NUMBER>
91421-42-0

>  <UNII>
H19C446XXB

>  <SYNONYMS>
1H-PYRANO(3',4':6,7)INDOLIZINO(1,2-B)QUINOLINE-3,14(4H,12H)-DIONE, 4-ETHYL-4-HYDROXY-10-NITRO-, (4S)-; 9-NC; 9-nitro-(20S)-camptothecin; 9-nitro-20-(S)-camptothecin; 9-nitro-20(S)-camptothecin; 9-nitrocamptothecin; 9NC; Rubitecán; Rubitécan; Rubitecan; Rubitecanum

$$$$
