
 OpenBabel10282417213D

 37 34  0  0  1  0  0  0  0  0999 V2000
   -0.2129   -0.7730   -0.6242 C   0  0  0  0  0  0  0  0  0  0  0  0
   -0.1953   -0.3376   -2.0869 C   0  0  0  0  0  0  0  0  0  0  0  0
   -0.5881   -1.2319   -2.8421 O   0  0  0  0  0  0  0  0  0  0  0  0
    0.7364    0.6508   -2.6735 N   0  0  0  0  0  0  0  0  0  0  0  0
    1.5369    2.1869   -2.5441 C   0  0  1  0  0  0  0  0  0  0  0  0
    2.9029    2.1546   -3.2929 C   0  0  0  0  0  0  0  0  0  0  0  0
    2.7733    1.9741   -5.0578 S   0  0  0  0  0  0  0  0  0  0  0  0
    0.7031    3.4905   -2.7285 C   0  0  0  0  0  0  0  0  0  0  0  0
    0.7271    4.2381   -1.7250 O   0  0  0  0  0  0  0  0  0  0  0  0
    0.1729    3.5845   -3.8647 O   0  5  0  0  0  0  0  0  0  0  0  0
    1.5467    0.3181    0.9800 C   0  0  0  0  0  0  0  0  0  0  0  0
    0.5830    1.5680    0.3109 C   0  0  0  0  0  0  0  0  0  0  0  0
   -0.2748    1.5774   -0.5173 O   0  0  0  0  0  0  0  0  0  0  0  0
    1.1853    2.7604    0.3871 N   0  0  0  0  0  0  0  0  0  0  0  0
    1.9174    3.0151    1.5653 C   0  0  1  0  0  0  0  0  0  0  0  0
    3.1744    3.6683    1.1206 C   0  0  0  0  0  0  0  0  0  0  0  0
    2.9527    5.3349    0.4750 S   0  0  0  0  0  0  0  0  0  0  0  0
    0.9762    3.3934    2.7090 C   0  0  0  0  0  0  0  0  0  0  0  0
    0.7868    2.4249    3.5066 O   0  0  0  0  0  0  0  0  0  0  0  0
    0.4213    4.5070    2.5971 O   0  5  0  0  0  0  0  0  0  0  0  0
    2.4178    0.3088   -1.3914 Zn  0  2  0  0  0  0  0  0  0  0  0  0
   -0.4020   -1.7424   -0.1633 H   0  0  0  0  0  0  0  0  0  0  0  0
   -0.6471   -0.1573    0.1729 H   0  0  0  0  0  0  0  0  0  0  0  0
    0.8454   -0.9209   -0.7038 H   0  0  0  0  0  0  0  0  0  0  0  0
    0.3010    0.7516   -3.6061 H   0  0  0  0  0  0  0  0  0  0  0  0
    1.9421    2.3154   -1.5477 H   0  0  0  0  0  0  0  0  0  0  0  0
    3.5789    2.9605   -2.9657 H   0  0  0  0  0  0  0  0  0  0  0  0
    3.4465    1.2477   -2.9805 H   0  0  0  0  0  0  0  0  0  0  0  0
    1.7126    1.1558   -5.0563 H   0  0  0  0  0  0  0  0  0  0  0  0
    1.6197   -0.7307    0.6651 H   0  0  0  0  0  0  0  0  0  0  0  0
    1.2469    0.1518    2.0026 H   0  0  0  0  0  0  0  0  0  0  0  0
    2.6153    0.5316    0.7951 H   0  0  0  0  0  0  0  0  0  0  0  0
    0.6167    3.5487   -0.0134 H   0  0  0  0  0  0  0  0  0  0  0  0
    2.2746    2.0467    1.9066 H   0  0  0  0  0  0  0  0  0  0  0  0
    3.8644    3.6007    1.9560 H   0  0  0  0  0  0  0  0  0  0  0  0
    3.5978    3.0662    0.2939 H   0  0  0  0  0  0  0  0  0  0  0  0
    1.8927    5.0903   -0.3461 H   0  0  0  0  0  0  0  0  0  0  0  0
  1  2  1  0  0  0  0
  1 22  1  0  0  0  0
  1 23  1  0  0  0  0
  1 24  1  0  0  0  0
  2  3  2  0  0  0  0
  2  4  1  0  0  0  0
  4 25  1  0  0  0  0
  5  4  1  0  0  0  0
  5  6  1  0  0  0  0
  5  8  1  0  0  0  0
  5 26  1  1  0  0  0
  6  7  1  0  0  0  0
  6 27  1  0  0  0  0
  6 28  1  0  0  0  0
  7 29  1  0  0  0  0
  8  9  2  0  0  0  0
  8 10  1  0  0  0  0
 11 12  1  0  0  0  0
 11 30  1  0  0  0  0
 11 31  1  0  0  0  0
 11 32  1  0  0  0  0
 12 13  2  0  0  0  0
 12 14  1  0  0  0  0
 14 33  1  0  0  0  0
 15 14  1  0  0  0  0
 15 16  1  0  0  0  0
 15 18  1  0  0  0  0
 15 34  1  1  0  0  0
 16 17  1  0  0  0  0
 16 35  1  0  0  0  0
 16 36  1  0  0  0  0
 17 37  1  0  0  0  0
 18 19  2  0  0  0  0
 18 20  1  0  0  0  0
M  CHG  3  10  -1  20  -1  21   2
M  END
>  <DRUGBANK_ID>
DB14479

>  <SECONDARY_ACCESSION_NUMBERS>
DBSALT001548

>  <COMMON_NAME>
Acetylcysteine zinc

>  <CAS_NUMBER>
49793-39-7

>  <UNII>
LP811J9FA1

>  <SYNONYMS>
N-acetyl-L-cysteine zinc salt; Zinc acetylcysteine

$$$$
