
 OpenBabel10282417123D

 42 44  0  0  1  0  0  0  0  0999 V2000
    0.8109   -0.0317    0.0577 C   0  0  0  0  0  0  0  0  0  0  0  0
   -0.2855   -4.5166   -3.1592 C   0  0  0  0  0  0  0  0  0  0  0  0
   -3.5538   -1.9684   -1.8059 C   0  0  0  0  0  0  0  0  0  0  0  0
    0.4032    0.4920   -1.3211 C   0  0  2  0  0  0  0  0  0  0  0  0
   -2.5936   -3.8673   -2.0445 C   0  0  0  0  0  0  0  0  0  0  0  0
   -0.5417    1.5986   -1.1436 C   0  0  2  0  0  0  0  0  0  0  0  0
   -1.8604    0.8261   -1.3620 C   0  0  2  0  0  0  0  0  0  0  0  0
   -1.9961   -5.1350   -1.7954 C   0  0  0  0  0  0  0  0  0  0  0  0
   -1.8896   -2.9553   -2.8410 C   0  0  0  0  0  0  0  0  0  0  0  0
   -1.6364   -0.3164   -2.4091 C   0  0  2  0  0  0  0  0  0  0  0  0
   -2.4773   -6.2366   -1.0957 N   0  0  0  0  0  0  0  0  0  0  0  0
   -0.7546   -5.3710   -2.2472 N   0  0  0  0  0  0  0  0  0  0  0  0
   -0.7695   -3.3001   -3.5500 N   0  0  0  0  0  0  0  0  0  0  0  0
   -3.7243   -3.2503   -1.5466 N   0  0  0  0  0  0  0  0  0  0  0  0
   -2.3318   -1.6681   -2.3905 N   0  0  0  0  0  0  0  0  0  0  0  0
   -0.0545    2.5149   -2.1213 O   0  0  0  0  0  0  0  0  0  0  0  0
   -0.4549   -2.5968   -1.0837 O   0  0  0  0  0  0  0  0  0  0  0  0
    1.9140   -1.2154   -1.7327 O   0  0  0  0  0  0  0  0  0  0  0  0
    1.6109   -3.3779   -2.2012 O   0  0  0  0  0  0  0  0  0  0  0  0
   -1.6537    2.6584   -3.4760 O   0  0  0  0  0  0  0  0  0  0  0  0
   -4.0241    2.5356   -3.5114 O   0  0  0  0  0  0  0  0  0  0  0  0
   -2.8431    4.5377   -3.2881 O   0  0  0  0  0  0  0  0  0  0  0  0
    0.5181   -1.3867    0.1628 O   0  0  0  0  0  0  0  0  0  0  0  0
   -0.2076   -0.4124   -2.3195 O   0  0  0  0  0  0  0  0  0  0  0  0
   -2.9054    1.6646   -1.7105 O   0  0  0  0  0  0  0  0  0  0  0  0
    1.0948   -2.4375   -1.0847 P   0  0  0  0  0  0  0  0  0  0  0  0
   -2.8725    3.1808   -2.5430 P   0  0  0  0  0  0  0  0  0  0  0  0
    1.3246    0.8607   -1.7993 H   0  0  0  0  0  0  0  0  0  0  0  0
   -0.4911    2.1372   -0.1937 H   0  0  0  0  0  0  0  0  0  0  0  0
   -2.1269    0.3759   -0.3936 H   0  0  0  0  0  0  0  0  0  0  0  0
   -1.9026    0.0496   -3.4023 H   0  0  0  0  0  0  0  0  0  0  0  0
    0.3428    0.5000    0.8918 H   0  0  0  0  0  0  0  0  0  0  0  0
    1.8869    0.1190    0.2321 H   0  0  0  0  0  0  0  0  0  0  0  0
    0.7116   -4.8156   -3.5136 H   0  0  0  0  0  0  0  0  0  0  0  0
   -4.2863   -1.2108   -1.5442 H   0  0  0  0  0  0  0  0  0  0  0  0
   -3.4344   -6.4226   -1.3779 H   0  0  0  0  0  0  0  0  0  0  0  0
   -1.8351   -6.9884   -1.3596 H   0  0  0  0  0  0  0  0  0  0  0  0
   -0.0854    1.9705   -2.9581 H   0  0  0  0  0  0  0  0  0  0  0  0
   -0.7001   -3.3660   -0.5411 H   0  0  0  0  0  0  0  0  0  0  0  0
    2.7755   -1.0575   -1.3132 H   0  0  0  0  0  0  0  0  0  0  0  0
   -0.9755    3.3385   -3.2024 H   0  0  0  0  0  0  0  0  0  0  0  0
   -4.2973    1.6508   -3.2289 H   0  0  0  0  0  0  0  0  0  0  0  0
  1 32  1  0  0  0  0
  1 33  1  0  0  0  0
  2 34  1  0  0  0  0
  3 35  1  0  0  0  0
  4  1  1  0  0  0  0
  4 28  1  6  0  0  0
  6  4  1  0  0  0  0
  6 16  1  0  0  0  0
  6 29  1  1  0  0  0
  7  6  1  0  0  0  0
  7 30  1  1  0  0  0
  7 25  1  0  0  0  0
  8  5  2  0  0  0  0
  9  5  1  0  0  0  0
 10  7  1  0  0  0  0
 10 31  1  6  0  0  0
 10 15  1  0  0  0  0
 11  8  1  0  0  0  0
 11 36  1  0  0  0  0
 11 37  1  0  0  0  0
 12  2  2  0  0  0  0
 12  8  1  0  0  0  0
 13  2  1  0  0  0  0
 13  9  2  0  0  0  0
 14  3  2  0  0  0  0
 14  5  1  0  0  0  0
 15  3  1  0  0  0  0
 15  9  1  0  0  0  0
 16 38  1  0  0  0  0
 17 39  1  0  0  0  0
 18 40  1  0  0  0  0
 20 41  1  0  0  0  0
 21 42  1  0  0  0  0
 23  1  1  0  0  0  0
 24  4  1  0  0  0  0
 24 10  1  0  0  0  0
 26 17  1  0  0  0  0
 26 18  1  0  0  0  0
 26 19  2  0  0  0  0
 26 23  1  0  0  0  0
 27 20  1  0  0  0  0
 27 21  1  0  0  0  0
 27 22  2  0  0  0  0
 27 25  1  0  0  0  0
M  END
>  <DRUGBANK_ID>
DB02098

>  <SECONDARY_ACCESSION_NUMBERS>
EXPT00366

>  <COMMON_NAME>
Adenosine-2'-5'-Diphosphate

$$$$
