
 OpenBabel10282417193D

 56 59  0  0  1  0  0  0  0  0999 V2000
    2.4553   -0.0351   -0.0270 C   0  0  0  0  0  0  0  0  0  0  0  0
    0.9531    0.0277    0.0003 C   0  0  0  0  0  0  0  0  0  0  0  0
    0.3143    1.2605   -0.0042 C   0  0  0  0  0  0  0  0  0  0  0  0
   -1.0764    1.3618    0.1130 C   0  0  0  0  0  0  0  0  0  0  0  0
   -1.9230    0.2555    0.3043 C   0  0  0  0  0  0  0  0  0  0  0  0
   -1.2823   -1.0272    0.1661 C   0  0  0  0  0  0  0  0  0  0  0  0
    0.1485   -1.1148    0.0373 C   0  0  0  0  0  0  0  0  0  0  0  0
   -1.9316   -2.3961    0.1136 C   0  0  0  0  0  0  0  0  0  0  0  0
   -1.2775   -3.4125    0.1797 O   0  0  0  0  0  0  0  0  0  0  0  0
   -3.3198   -2.4389    0.0627 N   0  0  0  0  0  0  0  0  0  0  0  0
   -3.9602   -3.1342    1.2056 C   0  0  0  0  0  0  0  0  0  0  0  0
   -4.8872   -4.2940    0.8899 C   0  0  1  0  0  0  0  0  0  0  0  0
   -5.5325   -3.9616   -0.3880 C   0  0  0  0  0  0  0  0  0  0  0  0
   -5.5155   -2.6666   -1.1093 C   0  0  0  0  0  0  0  0  0  0  0  0
   -4.0176   -2.2930   -1.2538 C   0  0  1  0  0  0  0  0  0  0  0  0
   -4.0911   -0.9092   -1.7625 C   0  0  0  0  0  0  0  0  0  0  0  0
   -4.1723   -5.6848    0.7271 C   0  0  0  0  0  0  0  0  0  0  0  0
   -3.2970   -5.9015   -0.4228 O   0  0  0  0  0  0  0  0  0  0  0  0
   -3.7092   -6.1867   -1.7175 C   0  0  0  0  0  0  0  0  0  0  0  0
   -4.7653   -5.6007   -2.4319 C   0  0  0  0  0  0  0  0  0  0  0  0
   -4.9712   -5.6158   -3.7874 C   0  0  0  0  0  0  0  0  0  0  0  0
   -4.1454   -6.4096   -4.4842 C   0  0  0  0  0  0  0  0  0  0  0  0
   -3.1396   -7.0637   -3.7805 C   0  0  0  0  0  0  0  0  0  0  0  0
   -2.8751   -6.9487   -2.4325 N   0  0  0  0  0  0  0  0  0  0  0  0
   -4.3497   -6.5352   -5.7947 F   0  0  0  0  0  0  0  0  0  0  0  0
   -3.3752    0.6243    0.5670 C   0  0  0  0  0  0  0  0  0  0  0  0
   -4.0875   -0.0444    1.4908 N   0  0  0  0  0  0  0  0  0  0  0  0
   -5.4485   -0.0292    1.3500 C   0  0  0  0  0  0  0  0  0  0  0  0
   -6.1331    0.6128    0.3383 C   0  0  0  0  0  0  0  0  0  0  0  0
   -5.3373    1.3828   -0.4816 C   0  0  0  0  0  0  0  0  0  0  0  0
   -3.9733    1.4623   -0.3450 N   0  0  0  0  0  0  0  0  0  0  0  0
    2.8402   -0.5568    0.8561 H   0  0  0  0  0  0  0  0  0  0  0  0
    2.8222   -0.5278   -0.9321 H   0  0  0  0  0  0  0  0  0  0  0  0
    2.8840    0.9752   -0.0081 H   0  0  0  0  0  0  0  0  0  0  0  0
    0.8936    2.1769   -0.0666 H   0  0  0  0  0  0  0  0  0  0  0  0
   -1.5210    2.3535    0.0754 H   0  0  0  0  0  0  0  0  0  0  0  0
    0.6417   -2.0917   -0.0196 H   0  0  0  0  0  0  0  0  0  0  0  0
   -4.6155   -2.3930    1.6544 H   0  0  0  0  0  0  0  0  0  0  0  0
   -3.2373   -3.3996    1.9816 H   0  0  0  0  0  0  0  0  0  0  0  0
   -5.6811   -4.3750    1.6433 H   0  0  0  0  0  0  0  0  0  0  0  0
   -6.4080   -4.5797   -0.5888 H   0  0  0  0  0  0  0  0  0  0  0  0
   -4.6441   -4.2700   -0.8901 H   0  0  0  0  0  0  0  0  0  0  0  0
   -6.1543   -1.9701   -0.5722 H   0  0  0  0  0  0  0  0  0  0  0  0
   -5.9219   -2.7474   -2.1309 H   0  0  0  0  0  0  0  0  0  0  0  0
   -3.4628   -2.8393   -2.0284 H   0  0  0  0  0  0  0  0  0  0  0  0
   -3.1467   -0.3961   -1.9053 H   0  0  0  0  0  0  0  0  0  0  0  0
   -4.8017   -0.6736   -2.5550 H   0  0  0  0  0  0  0  0  0  0  0  0
   -4.5866   -0.5625   -0.8996 H   0  0  0  0  0  0  0  0  0  0  0  0
   -3.5533   -5.7901    1.6319 H   0  0  0  0  0  0  0  0  0  0  0  0
   -4.8977   -6.5041    0.7651 H   0  0  0  0  0  0  0  0  0  0  0  0
   -5.5307   -4.9452   -2.1232 H   0  0  0  0  0  0  0  0  0  0  0  0
   -5.7600   -4.9923   -4.1994 H   0  0  0  0  0  0  0  0  0  0  0  0
   -2.4838   -7.7298   -4.3173 H   0  0  0  0  0  0  0  0  0  0  0  0
   -5.9763   -0.7446    1.9790 H   0  0  0  0  0  0  0  0  0  0  0  0
   -7.1492    0.3307    0.0737 H   0  0  0  0  0  0  0  0  0  0  0  0
   -5.7206    1.6822   -1.4630 H   0  0  0  0  0  0  0  0  0  0  0  0
  1  2  1  0  0  0  0
  1 32  1  0  0  0  0
  1 33  1  0  0  0  0
  1 34  1  0  0  0  0
  2  3  2  0  0  0  0
  2  7  1  0  0  0  0
  3  4  1  0  0  0  0
  3 35  1  0  0  0  0
  4  5  2  0  0  0  0
  4 36  1  0  0  0  0
  5  6  1  0  0  0  0
  5 26  1  0  0  0  0
  6  7  2  0  0  0  0
  6  8  1  0  0  0  0
  7 37  1  0  0  0  0
  8  9  2  0  0  0  0
  8 10  1  0  0  0  0
 10 11  1  0  0  0  0
 10 15  1  0  0  0  0
 11 12  1  0  0  0  0
 11 38  1  0  0  0  0
 11 39  1  0  0  0  0
 12 13  1  0  0  0  0
 12 40  1  1  0  0  0
 12 17  1  0  0  0  0
 13 14  1  0  0  0  0
 13 41  1  0  0  0  0
 13 42  1  0  0  0  0
 14 15  1  0  0  0  0
 14 43  1  0  0  0  0
 14 44  1  0  0  0  0
 15 16  1  0  0  0  0
 15 45  1  6  0  0  0
 16 46  1  0  0  0  0
 16 47  1  0  0  0  0
 16 48  1  0  0  0  0
 17 18  1  0  0  0  0
 17 49  1  0  0  0  0
 17 50  1  0  0  0  0
 18 19  1  0  0  0  0
 19 20  2  0  0  0  0
 19 24  1  0  0  0  0
 20 21  1  0  0  0  0
 20 51  1  0  0  0  0
 21 22  2  0  0  0  0
 21 52  1  0  0  0  0
 22 23  1  0  0  0  0
 22 25  1  0  0  0  0
 23 24  2  0  0  0  0
 23 53  1  0  0  0  0
 26 27  2  0  0  0  0
 26 31  1  0  0  0  0
 27 28  1  0  0  0  0
 28 29  2  0  0  0  0
 28 54  1  0  0  0  0
 29 30  1  0  0  0  0
 29 55  1  0  0  0  0
 30 31  2  0  0  0  0
 30 56  1  0  0  0  0
M  END
>  <DRUGBANK_ID>
DB12158

>  <COMMON_NAME>
Filorexant

>  <CAS_NUMBER>
1088991-73-4

>  <UNII>
E6BTT8VA5Z

>  <SYNONYMS>
Filorexant

$$$$
