1568
 OpenBabel10282417113D

 44 48  0  0  1  0  0  0  0  0999 V2000
   -4.1869    4.7777    2.6907 O   0  0  0  0  0  0  0  0  0  0  0  0
   -1.8077    1.3393    7.7208 O   0  5  0  0  0  0  0  0  0  0  0  0
   -1.1029    3.3749    0.8312 O   0  0  0  0  0  0  0  0  0  0  0  0
   -6.9949    5.2632    1.8746 O   0  0  0  0  0  0  0  0  0  0  0  0
   -2.1318    1.1086    6.4114 N   0  3  2  0  0  0  0  0  0  0  0  0
   -3.7770    2.9428    4.4345 C   0  0  1  0  0  0  0  0  0  0  0  0
   -1.9886    3.0967    4.5710 C   0  0  2  0  0  0  0  0  0  0  0  0
   -2.1709    1.7483    4.8748 C   0  0  1  0  0  0  0  0  0  0  0  0
   -3.1665    3.9000    3.1700 C   0  0  2  0  0  0  0  0  0  0  0  0
   -4.2905    1.2544    5.2087 C   0  0  0  0  0  0  0  0  0  0  0  0
   -4.8115    2.7366    3.3607 C   0  0  0  0  0  0  0  0  0  0  0  0
   -3.6343    0.9979    6.5855 C   0  0  0  0  0  0  0  0  0  0  0  0
   -2.9961    1.0731    3.2004 C   0  0  0  0  0  0  0  0  0  0  0  0
   -4.4014    1.8205    2.4270 C   0  0  0  0  0  0  0  0  0  0  0  0
   -1.6441    3.3297    2.1486 C   0  0  2  0  0  0  0  0  0  0  0  0
   -0.6032    2.8344    3.9469 C   0  0  0  0  0  0  0  0  0  0  0  0
   -5.4114    3.9583    2.9739 C   0  0  0  0  0  0  0  0  0  0  0  0
   -0.4196    3.6001    2.9537 C   0  0  0  0  0  0  0  0  0  0  0  0
   -0.7745    0.6850    6.0893 C   0  0  0  0  0  0  0  0  0  0  0  0
   -4.7886    2.2649    1.0563 C   0  0  0  0  0  0  0  0  0  0  0  0
   -6.1707    4.1807    1.8469 C   0  0  0  0  0  0  0  0  0  0  0  0
   -5.7496    3.3807    0.8054 C   0  0  0  0  0  0  0  0  0  0  0  0
   -7.0943    6.0117    0.6703 C   0  0  0  0  0  0  0  0  0  0  0  0
   -1.7726    4.0107    5.1628 H   0  0  0  0  0  0  0  0  0  0  0  0
   -2.5320    2.4654    5.6681 H   0  0  0  0  0  0  0  0  0  0  0  0
   -2.9294    4.6746    3.9292 H   0  0  0  0  0  0  0  0  0  0  0  0
   -0.2019    2.9192    0.9039 H   0  0  0  0  0  0  0  0  0  0  0  0
   -5.3711    1.0808    5.1980 H   0  0  0  0  0  0  0  0  0  0  0  0
   -3.9325    0.3084    4.7416 H   0  0  0  0  0  0  0  0  0  0  0  0
   -4.0641    1.8078    7.2324 H   0  0  0  0  0  0  0  0  0  0  0  0
   -3.7839    0.0900    7.1654 H   0  0  0  0  0  0  0  0  0  0  0  0
   -2.6097    1.2583    2.2064 H   0  0  0  0  0  0  0  0  0  0  0  0
   -2.5470    0.0859    3.0215 H   0  0  0  0  0  0  0  0  0  0  0  0
   -1.5027    2.2512    2.1751 H   0  0  0  0  0  0  0  0  0  0  0  0
   -0.3876    1.7343    3.7494 H   0  0  0  0  0  0  0  0  0  0  0  0
   -0.3711    4.7103    2.9326 H   0  0  0  0  0  0  0  0  0  0  0  0
   -0.0729    0.4132    6.8703 H   0  0  0  0  0  0  0  0  0  0  0  0
   -0.8434    0.0323    5.2381 H   0  0  0  0  0  0  0  0  0  0  0  0
   -0.2654    1.6682    5.8740 H   0  0  0  0  0  0  0  0  0  0  0  0
   -4.3568    1.9181    0.1080 H   0  0  0  0  0  0  0  0  0  0  0  0
   -6.0879    3.6498   -0.1974 H   0  0  0  0  0  0  0  0  0  0  0  0
   -6.1364    6.4932    0.4503 H   0  0  0  0  0  0  0  0  0  0  0  0
   -7.4269    5.3863   -0.1594 H   0  0  0  0  0  0  0  0  0  0  0  0
   -7.8462    6.8027    0.7935 H   0  0  0  0  0  0  0  0  0  0  0  0
  1  9  1  0  0  0  0
  1 17  1  0  0  0  0
  3 27  1  0  0  0  0
  4 23  1  0  0  0  0
  4 21  1  0  0  0  0
  5  8  1  0  0  0  0
  5 12  1  0  0  0  0
  5  2  1  1  0  0  0
  5 19  1  0  0  0  0
  6  7  1  0  0  0  0
  6  9  1  0  0  0  0
  6 10  1  0  0  0  0
  6 11  1  1  0  0  0
  7  8  1  0  0  0  0
  7 16  1  0  0  0  0
  7 24  1  6  0  0  0
  8 13  1  0  0  0  0
  8 25  1  1  0  0  0
  9 15  1  0  0  0  0
  9 26  1  6  0  0  0
 10 12  1  0  0  0  0
 10 28  1  0  0  0  0
 10 29  1  0  0  0  0
 11 14  2  0  0  0  0
 11 17  1  0  0  0  0
 12 30  1  0  0  0  0
 12 31  1  0  0  0  0
 13 14  1  0  0  0  0
 13 32  1  0  0  0  0
 13 33  1  0  0  0  0
 14 20  1  0  0  0  0
 15 18  1  0  0  0  0
 15  3  1  0  0  0  0
 15 34  1  1  0  0  0
 16 18  2  0  0  0  0
 16 35  1  0  0  0  0
 17 21  2  0  0  0  0
 18 36  1  0  0  0  0
 19 37  1  0  0  0  0
 19 38  1  0  0  0  0
 19 39  1  0  0  0  0
 20 22  2  0  0  0  0
 20 40  1  0  0  0  0
 21 22  1  0  0  0  0
 22 41  1  0  0  0  0
 23 42  1  0  0  0  0
 23 43  1  0  0  0  0
 23 44  1  0  0  0  0
M  CHG  2   2  -1   5   1
M  END
>  <DRUGBANK_ID>
DB01568

>  <COMMON_NAME>
Codeine-N-oxide

>  <CAS_NUMBER>
3688-65-1

>  <UNII>
Z32OFX7V17

$$$$
