
 OpenBabel10282417113D

 41 41  0  0  0  0  0  0  0  0999 V2000
    0.9909   -0.1813   -0.1772 C   0  0  0  0  0  0  0  0  0  0  0  0
    0.3876   -0.7712   -1.3477 N   0  0  0  0  0  0  0  0  0  0  0  0
    0.4544    0.1156    0.8712 O   0  0  0  0  0  0  0  0  0  0  0  0
   -3.9668    2.7625    0.6702 N   0  0  0  0  0  0  0  0  0  0  0  0
   -1.0475   -0.9276   -1.5844 C   0  0  0  0  0  0  0  0  0  0  0  0
   -5.3466   -0.3131   -1.6662 O   0  0  0  0  0  0  0  0  0  0  0  0
   -5.7108    0.9050    0.7002 C   0  0  3  0  0  0  0  0  0  0  0  0
   -4.0015   -0.4951   -1.8347 C   0  0  0  0  0  0  0  0  0  0  0  0
   -4.2937    1.3638    1.1640 C   0  0  0  0  0  0  0  0  0  0  0  0
   -5.9377    0.7906   -0.8584 C   0  0  0  0  0  0  0  0  0  0  0  0
   -1.8444   -0.0997   -0.9204 C   0  0  0  0  0  0  0  0  0  0  0  0
   -1.8359   -1.7054   -2.4087 C   0  0  0  0  0  0  0  0  0  0  0  0
   -3.1219    0.3488   -1.3030 C   0  0  0  0  0  0  0  0  0  0  0  0
   -3.3250   -1.5376   -2.4619 C   0  0  0  0  0  0  0  0  0  0  0  0
   -6.6187    1.8933    1.2381 O   0  0  0  0  0  0  0  0  0  0  0  0
   -2.5438    3.2185    0.7499 C   0  0  0  0  0  0  0  0  0  0  0  0
    2.5019   -0.0073   -0.2150 C   0  0  0  0  0  0  0  0  0  0  0  0
   -1.5789    2.3407    0.0534 C   0  0  0  0  0  0  0  0  0  0  0  0
   -2.1980    4.4872    0.0018 C   0  0  0  0  0  0  0  0  0  0  0  0
    0.9705   -0.8132   -2.1709 H   0  0  0  0  0  0  0  0  0  0  0  0
   -4.2888    2.8842   -0.2889 H   0  0  0  0  0  0  0  0  0  0  0  0
   -5.9709   -0.0553    1.1650 H   0  0  0  0  0  0  0  0  0  0  0  0
   -4.2138    1.3542    2.2551 H   0  0  0  0  0  0  0  0  0  0  0  0
   -3.6361    0.5465    0.8765 H   0  0  0  0  0  0  0  0  0  0  0  0
   -5.7648    1.7659   -1.3358 H   0  0  0  0  0  0  0  0  0  0  0  0
   -7.0302    0.6695   -0.9696 H   0  0  0  0  0  0  0  0  0  0  0  0
   -1.3283    0.2343   -0.0679 H   0  0  0  0  0  0  0  0  0  0  0  0
   -1.3890   -2.5631   -2.8861 H   0  0  0  0  0  0  0  0  0  0  0  0
   -3.4925    1.3099   -1.0396 H   0  0  0  0  0  0  0  0  0  0  0  0
   -3.9164   -2.2508   -3.0213 H   0  0  0  0  0  0  0  0  0  0  0  0
   -6.1437    2.7478    1.1625 H   0  0  0  0  0  0  0  0  0  0  0  0
   -2.2359    3.2167    1.7984 H   0  0  0  0  0  0  0  0  0  0  0  0
    2.9313   -0.2093   -1.1909 H   0  0  0  0  0  0  0  0  0  0  0  0
    2.7790    1.0105    0.0998 H   0  0  0  0  0  0  0  0  0  0  0  0
    2.9249   -0.6958    0.5269 H   0  0  0  0  0  0  0  0  0  0  0  0
   -1.7928    2.2914   -1.0304 H   0  0  0  0  0  0  0  0  0  0  0  0
   -0.5030    2.5156    0.0924 H   0  0  0  0  0  0  0  0  0  0  0  0
   -1.7623    1.5094    0.7057 H   0  0  0  0  0  0  0  0  0  0  0  0
   -2.6757    5.3498    0.4366 H   0  0  0  0  0  0  0  0  0  0  0  0
   -1.1018    4.6237    0.0296 H   0  0  0  0  0  0  0  0  0  0  0  0
   -2.4474    4.3927   -1.0670 H   0  0  0  0  0  0  0  0  0  0  0  0
  2  1  1  0  0  0  0
  2 20  1  0  0  0  0
  3  1  2  0  0  0  0
  4  9  1  0  0  0  0
  4 21  1  0  0  0  0
  5  2  1  0  0  0  0
  6  8  1  0  0  0  0
  7 10  1  0  0  0  0
  7 22  1  0  0  0  0
  8 14  2  0  0  0  0
  9  7  1  0  0  0  0
  9 23  1  0  0  0  0
  9 24  1  0  0  0  0
 10  6  1  0  0  0  0
 10 25  1  0  0  0  0
 10 26  1  0  0  0  0
 11  5  1  0  0  0  0
 11 27  1  0  0  0  0
 12  5  2  0  0  0  0
 12 28  1  0  0  0  0
 13 11  2  0  0  0  0
 13  8  1  0  0  0  0
 13 29  1  0  0  0  0
 14 12  1  0  0  0  0
 14 30  1  0  0  0  0
 15  7  1  0  0  0  0
 15 31  1  0  0  0  0
 16  4  1  0  0  0  0
 16 32  1  0  0  0  0
 17  1  1  0  0  0  0
 17 33  1  0  0  0  0
 17 34  1  0  0  0  0
 17 35  1  0  0  0  0
 18 16  1  0  0  0  0
 18 36  1  0  0  0  0
 18 37  1  0  0  0  0
 18 38  1  0  0  0  0
 19 16  1  0  0  0  0
 19 39  1  0  0  0  0
 19 40  1  0  0  0  0
 19 41  1  0  0  0  0
M  END
>  <DRUGBANK_ID>
DB01297

>  <COMMON_NAME>
Practolol

>  <CAS_NUMBER>
6673-35-4

>  <UNII>
SUG9176GRW

>  <SYNONYMS>
(Â±)-practolol; 1-(4-acetamidophenoxy)-3-isopropylamino-2-propanol; 4'-(2-hydroxy-3-(isopropylamino)propoxy)acetanilide; N-(4-(2-hydroxy-3-((1-methylethyl)amino)propoxy)phenyl)acetamide; Practolol; Practololo; Practololum; Praktololu

$$$$
