
 OpenBabel10282417203D

 48 49  0  0  0  0  0  0  0  0999 V2000
    0.6543   -0.1527    0.0024 N   0  0  0  0  0  0  0  0  0  0  0  0
    0.0328   -1.1909   -0.6535 C   0  0  0  0  0  0  0  0  0  0  0  0
   -1.3245   -1.1331   -0.5183 N   0  0  0  0  0  0  0  0  0  0  0  0
    0.8026   -2.0383   -1.2813 N   0  0  0  0  0  0  0  0  0  0  0  0
   -1.3480   -4.0224   -3.5585 C   0  0  0  0  0  0  0  0  0  0  0  0
   -0.7049   -2.9184   -3.0185 C   0  0  0  0  0  0  0  0  0  0  0  0
    0.2689   -3.1095   -2.0349 C   0  0  0  0  0  0  0  0  0  0  0  0
    0.6927   -4.4123   -1.7953 C   0  0  0  0  0  0  0  0  0  0  0  0
    0.0631   -5.4520   -2.4692 C   0  0  0  0  0  0  0  0  0  0  0  0
   -0.9725   -5.2909   -3.3198 N   0  0  0  0  0  0  0  0  0  0  0  0
   -2.2734   -2.1362   -0.8907 C   0  0  0  0  0  0  0  0  0  0  0  0
   -3.1003   -2.8383   -1.2553 N   0  0  0  0  0  0  0  0  0  0  0  0
    0.0405    0.9400    0.7319 C   0  0  0  0  0  0  0  0  0  0  0  0
    0.3779    0.8861    2.2193 C   0  0  0  0  0  0  0  0  0  0  0  0
    1.8254    1.1600    2.3913 C   0  0  0  0  0  0  0  0  0  0  0  0
    2.0565    2.4895    1.7234 C   0  0  0  0  0  0  0  0  0  0  0  0
    1.6427    3.7387    2.4865 C   0  0  0  0  0  0  0  0  0  0  0  0
    2.1805    3.7679    3.9198 C   0  0  0  0  0  0  0  0  0  0  0  0
    3.5992    4.0665    4.0855 O   0  0  0  0  0  0  0  0  0  0  0  0
    4.5534    3.2814    3.4932 C   0  0  0  0  0  0  0  0  0  0  0  0
    4.7145    3.1895    2.1195 C   0  0  0  0  0  0  0  0  0  0  0  0
    5.3150    2.0467    1.5549 C   0  0  0  0  0  0  0  0  0  0  0  0
    6.2368    1.3611    2.3022 C   0  0  0  0  0  0  0  0  0  0  0  0
    6.4335    1.7589    3.6194 C   0  0  0  0  0  0  0  0  0  0  0  0
    5.5386    2.6603    4.2390 C   0  0  0  0  0  0  0  0  0  0  0  0
    7.2060    0.1632    1.5477 Cl  0  0  0  0  0  0  0  0  0  0  0  0
    1.6755   -0.1602   -0.0518 H   0  0  0  0  0  0  0  0  0  0  0  0
   -1.7554   -0.3238   -0.1314 H   0  0  0  0  0  0  0  0  0  0  0  0
   -2.2542   -3.8991   -4.1471 H   0  0  0  0  0  0  0  0  0  0  0  0
   -1.0973   -1.9293   -3.2277 H   0  0  0  0  0  0  0  0  0  0  0  0
    1.4884   -4.6210   -1.0911 H   0  0  0  0  0  0  0  0  0  0  0  0
    0.3770   -6.4817   -2.3301 H   0  0  0  0  0  0  0  0  0  0  0  0
    0.3024    1.8773    0.2325 H   0  0  0  0  0  0  0  0  0  0  0  0
   -1.0379    0.9772    0.6832 H   0  0  0  0  0  0  0  0  0  0  0  0
   -0.1760    1.6698    2.7500 H   0  0  0  0  0  0  0  0  0  0  0  0
    0.1364   -0.0695    2.6827 H   0  0  0  0  0  0  0  0  0  0  0  0
    2.1633    1.1563    3.4341 H   0  0  0  0  0  0  0  0  0  0  0  0
    2.4557    0.3921    1.9170 H   0  0  0  0  0  0  0  0  0  0  0  0
    3.0720    2.3060    1.6518 H   0  0  0  0  0  0  0  0  0  0  0  0
    1.9034    2.6215    0.6490 H   0  0  0  0  0  0  0  0  0  0  0  0
    1.9768    4.6414    1.9612 H   0  0  0  0  0  0  0  0  0  0  0  0
    0.5432    3.7872    2.4811 H   0  0  0  0  0  0  0  0  0  0  0  0
    1.6352    4.5739    4.4353 H   0  0  0  0  0  0  0  0  0  0  0  0
    1.8867    2.8700    4.4793 H   0  0  0  0  0  0  0  0  0  0  0  0
    4.1108    3.8220    1.4705 H   0  0  0  0  0  0  0  0  0  0  0  0
    5.0163    1.6894    0.5663 H   0  0  0  0  0  0  0  0  0  0  0  0
    7.2853    1.3738    4.1657 H   0  0  0  0  0  0  0  0  0  0  0  0
    5.6618    2.9171    5.2847 H   0  0  0  0  0  0  0  0  0  0  0  0
  1  2  1  0  0  0  0
  1 13  1  0  0  0  0
  1 27  1  0  0  0  0
  2  3  1  0  0  0  0
  2  4  2  0  0  0  0
  3 11  1  0  0  0  0
  3 28  1  0  0  0  0
  4  7  1  0  0  0  0
  5  6  2  0  0  0  0
  5 10  1  0  0  0  0
  5 29  1  0  0  0  0
  6  7  1  0  0  0  0
  6 30  1  0  0  0  0
  7  8  2  0  0  0  0
  8  9  1  0  0  0  0
  8 31  1  0  0  0  0
  9 10  2  0  0  0  0
  9 32  1  0  0  0  0
 11 12  3  0  0  0  0
 13 14  1  0  0  0  0
 13 33  1  0  0  0  0
 13 34  1  0  0  0  0
 14 15  1  0  0  0  0
 14 35  1  0  0  0  0
 14 36  1  0  0  0  0
 15 16  1  0  0  0  0
 15 37  1  0  0  0  0
 15 38  1  0  0  0  0
 16 17  1  0  0  0  0
 16 39  1  0  0  0  0
 16 40  1  0  0  0  0
 17 18  1  0  0  0  0
 17 41  1  0  0  0  0
 17 42  1  0  0  0  0
 18 19  1  0  0  0  0
 18 43  1  0  0  0  0
 18 44  1  0  0  0  0
 19 20  1  0  0  0  0
 20 21  1  0  0  0  0
 20 25  2  0  0  0  0
 21 22  2  0  0  0  0
 21 45  1  0  0  0  0
 22 23  1  0  0  0  0
 22 46  1  0  0  0  0
 23 24  2  0  0  0  0
 23 26  1  0  0  0  0
 24 25  1  0  0  0  0
 24 47  1  0  0  0  0
 25 48  1  0  0  0  0
M  END
>  <DRUGBANK_ID>
DB12980

>  <COMMON_NAME>
CHS-828

>  <CAS_NUMBER>
200484-11-3

>  <UNII>
8LAP87DNSZ

$$$$
