
 OpenBabel10282417233D

 46 51  0  0  0  0  0  0  0  0999 V2000
    0.8068    0.3974    0.6574 C   0  0  0  0  0  0  0  0  0  0  0  0
   -0.2194    0.1875    1.5324 F   0  0  0  0  0  0  0  0  0  0  0  0
    0.3810    1.4178   -0.1566 F   0  0  0  0  0  0  0  0  0  0  0  0
    0.7853   -0.9495   -0.4230 C   0  0  0  0  0  0  0  0  0  0  0  0
   -0.0506   -1.0686   -1.6328 N   0  0  0  0  0  0  0  0  0  0  0  0
   -0.0861   -2.4375   -1.9730 C   0  0  0  0  0  0  0  0  0  0  0  0
    0.6594   -3.1004   -1.1175 N   0  0  0  0  0  0  0  0  0  0  0  0
    1.1900   -2.2032   -0.1732 N   0  0  0  0  0  0  0  0  0  0  0  0
   -0.8667   -2.8742   -3.1041 C   0  0  0  0  0  0  0  0  0  0  0  0
   -1.5562   -1.9827   -3.8313 C   0  0  0  0  0  0  0  0  0  0  0  0
   -1.4358   -0.5673   -3.3877 C   0  0  0  0  0  0  0  0  0  0  0  0
   -0.7363   -0.0989   -2.3830 N   0  0  0  0  0  0  0  0  0  0  0  0
   -2.1363    0.3527   -4.2818 C   0  0  0  0  0  0  0  0  0  0  0  0
   -3.4897    0.4774   -4.5861 C   0  0  0  0  0  0  0  0  0  0  0  0
   -3.5950    1.4978   -5.5082 N   0  0  0  0  0  0  0  0  0  0  0  0
   -2.3976    1.9812   -5.8800 N   0  0  0  0  0  0  0  0  0  0  0  0
   -1.5297    1.3219   -5.1114 C   0  0  0  0  0  0  0  0  0  0  0  0
   -4.8018    1.9956   -6.1562 C   0  0  0  0  0  0  0  0  0  0  0  0
   -5.9679    2.6298   -5.4154 C   0  0  0  0  0  0  0  0  0  0  0  0
   -6.1502    1.3026   -6.0728 C   0  0  0  0  0  0  0  0  0  0  0  0
    2.1560    1.0961    1.5539 C   0  0  0  0  0  0  0  0  0  0  0  0
    2.1907    2.2253    2.6933 C   0  0  0  0  0  0  0  0  0  0  0  0
    3.2028    3.3544    2.4283 C   0  0  0  0  0  0  0  0  0  0  0  0
    3.6346    3.4263    1.0441 C   0  0  0  0  0  0  0  0  0  0  0  0
    2.9221    2.6470    0.1090 C   0  0  0  0  0  0  0  0  0  0  0  0
    3.0924    1.3619    0.5896 C   0  0  0  0  0  0  0  0  0  0  0  0
    4.3639    0.9687    0.8241 F   0  0  0  0  0  0  0  0  0  0  0  0
    4.6374    4.2013    0.8339 N   0  0  0  0  0  0  0  0  0  0  0  0
    4.7743    4.9009    1.9621 N   0  0  0  0  0  0  0  0  0  0  0  0
    3.8206    4.5264    2.9316 C   0  0  0  0  0  0  0  0  0  0  0  0
    5.8301    5.8841    1.8346 C   0  0  0  0  0  0  0  0  0  0  0  0
   -0.9064   -3.9277   -3.3959 H   0  0  0  0  0  0  0  0  0  0  0  0
   -2.1343   -2.2508   -4.7191 H   0  0  0  0  0  0  0  0  0  0  0  0
   -4.3663   -0.0555   -4.2481 H   0  0  0  0  0  0  0  0  0  0  0  0
   -0.4739    1.5402   -5.2040 H   0  0  0  0  0  0  0  0  0  0  0  0
   -4.5517    2.5396   -7.0667 H   0  0  0  0  0  0  0  0  0  0  0  0
   -5.9454    2.6938   -4.3354 H   0  0  0  0  0  0  0  0  0  0  0  0
   -6.4475    3.4895   -5.8816 H   0  0  0  0  0  0  0  0  0  0  0  0
   -6.7695    1.2625   -6.9630 H   0  0  0  0  0  0  0  0  0  0  0  0
   -6.2677    0.4364   -5.4343 H   0  0  0  0  0  0  0  0  0  0  0  0
    1.5110    2.3457    3.5381 H   0  0  0  0  0  0  0  0  0  0  0  0
    1.8543    2.9710    0.1995 H   0  0  0  0  0  0  0  0  0  0  0  0
    3.7746    5.1456    3.8329 H   0  0  0  0  0  0  0  0  0  0  0  0
    6.7785    5.3349    1.7367 H   0  0  0  0  0  0  0  0  0  0  0  0
    5.6775    6.4057    0.8734 H   0  0  0  0  0  0  0  0  0  0  0  0
    5.8736    6.6047    2.6435 H   0  0  0  0  0  0  0  0  0  0  0  0
  1  2  1  0  0  0  0
  1  3  1  0  0  0  0
  1  4  1  0  0  0  0
  1 21  1  0  0  0  0
  4  5  1  0  0  0  0
  4  8  2  0  0  0  0
  5  6  1  0  0  0  0
  5 12  1  0  0  0  0
  6  7  2  0  0  0  0
  6  9  1  0  0  0  0
  8  7  1  0  0  0  0
  9 10  2  0  0  0  0
  9 32  1  0  0  0  0
 10 33  1  0  0  0  0
 11 10  1  0  0  0  0
 11 13  1  0  0  0  0
 12 11  2  0  0  0  0
 13 14  2  0  0  0  0
 13 17  1  0  0  0  0
 14 15  1  0  0  0  0
 14 34  1  0  0  0  0
 15 16  1  0  0  0  0
 15 18  1  0  0  0  0
 17 16  2  0  0  0  0
 17 35  1  0  0  0  0
 18 19  1  0  0  0  0
 18 20  1  0  0  0  0
 18 36  1  0  0  0  0
 19 20  1  0  0  0  0
 19 37  1  0  0  0  0
 19 38  1  0  0  0  0
 20 39  1  0  0  0  0
 20 40  1  0  0  0  0
 21 22  2  0  0  0  0
 21 26  1  0  0  0  0
 22 23  1  0  0  0  0
 22 41  1  0  0  0  0
 23 24  1  0  0  0  0
 23 30  2  0  0  0  0
 24 28  2  0  0  0  0
 25 24  1  0  0  0  0
 25 42  1  0  0  0  0
 26 25  2  0  0  0  0
 26 27  1  0  0  0  0
 28 29  1  0  0  0  0
 29 31  1  0  0  0  0
 30 29  1  0  0  0  0
 30 43  1  0  0  0  0
 31 44  1  0  0  0  0
 31 45  1  0  0  0  0
 31 46  1  0  0  0  0
M  END
>  <DRUGBANK_ID>
DB16823

>  <COMMON_NAME>
Vebreltinib

>  <CAS_NUMBER>
1440964-89-5

>  <UNII>
2WZP8A9VFN

>  <SYNONYMS>
Bozitinib; Vebreltinib

$$$$
