RRS
 OpenBabel10282417173D

 69 71  0  0  0  0  0  0  0  0999 V2000
    3.4827    0.9490    3.8710 C   0  0  0  0  0  0  0  0  0  0  0  0
    4.3381    1.8229    3.8004 O   0  0  0  0  0  0  0  0  0  0  0  0
    3.2275    0.4174    5.0732 N   0  0  0  0  0  0  0  0  0  0  0  0
    2.1565   -0.4227    5.3826 O   0  0  0  0  0  0  0  0  0  0  0  0
    2.6817    0.4177    2.7464 C   0  0  0  0  0  0  0  0  0  0  0  0
    3.1607    0.7233    1.3421 C   0  0  2  0  0  0  0  0  0  0  0  0
    2.4851   -0.5355    0.6871 C   0  0  0  0  0  0  0  0  0  0  0  0
    1.3541   -0.8308    1.1559 O   0  0  0  0  0  0  0  0  0  0  0  0
    2.9365   -1.0641   -0.5137 N   0  0  0  0  0  0  0  0  0  0  0  0
    2.3984   -0.2351   -1.5374 C   0  0  2  0  0  0  0  0  0  0  0  0
    0.3699   -0.4482   -1.3736 C   0  0  0  0  0  0  0  0  0  0  0  0
   -0.1545   -0.9198   -0.3738 O   0  0  0  0  0  0  0  0  0  0  0  0
   -0.9141    0.0993   -1.9054 N   0  0  0  0  0  0  0  0  0  0  0  0
   -1.7272    1.5490   -1.6725 C   0  0  0  0  0  0  0  0  0  0  0  0
   -0.9713    2.5063   -0.7649 C   0  0  0  0  0  0  0  0  0  0  0  0
    0.4403    2.1075   -0.9533 C   0  0  0  0  0  0  0  0  0  0  0  0
    0.6950    1.9605   -2.5195 C   0  0  0  0  0  0  0  0  0  0  0  0
    0.8403    3.3483   -3.0605 C   0  0  0  0  0  0  0  0  0  0  0  0
    1.9101    4.1275   -2.3009 C   0  0  0  0  0  0  0  0  0  0  0  0
    3.1583    3.4908   -2.6161 N   0  0  0  0  0  0  0  0  0  0  0  0
    4.6904    0.8311    1.2816 C   0  0  0  0  0  0  0  0  0  0  0  0
    5.2518    1.6057    0.1329 C   0  0  0  0  0  0  0  0  0  0  0  0
    4.7675    3.0396    0.0418 C   0  0  0  0  0  0  0  0  0  0  0  0
    6.7527    1.4995   -0.0126 C   0  0  0  0  0  0  0  0  0  0  0  0
    4.0010    0.0494   -2.4933 C   0  0  0  0  0  0  0  0  0  0  0  0
    4.2574    1.5377   -2.8340 C   0  0  0  0  0  0  0  0  0  0  0  0
    3.3153    2.2553   -2.2149 C   0  0  0  0  0  0  0  0  0  0  0  0
    5.1537    2.6668   -3.1798 C   0  0  0  0  0  0  0  0  0  0  0  0
    4.3306    3.8430   -3.1293 C   0  0  0  0  0  0  0  0  0  0  0  0
    6.5278    2.9505   -3.4279 C   0  0  0  0  0  0  0  0  0  0  0  0
    4.6868    5.1351   -3.4303 C   0  0  0  0  0  0  0  0  0  0  0  0
    6.9000    4.2757   -3.7887 C   0  0  0  0  0  0  0  0  0  0  0  0
    5.9838    5.3278   -3.8205 C   0  0  0  0  0  0  0  0  0  0  0  0
    2.6841    1.6780    1.0599 H   0  0  0  0  0  0  0  0  0  0  0  0
    2.5948    0.5902   -0.9064 H   0  0  0  0  0  0  0  0  0  0  0  0
    3.7969    0.7848    5.8216 H   0  0  0  0  0  0  0  0  0  0  0  0
    1.6833   -0.5960    4.5481 H   0  0  0  0  0  0  0  0  0  0  0  0
    2.7030   -0.6830    2.8452 H   0  0  0  0  0  0  0  0  0  0  0  0
    1.6338    0.7468    2.8445 H   0  0  0  0  0  0  0  0  0  0  0  0
    2.8688   -1.9603   -0.9743 H   0  0  0  0  0  0  0  0  0  0  0  0
   -1.6096   -0.5211   -1.4651 H   0  0  0  0  0  0  0  0  0  0  0  0
   -2.8054    1.5918   -1.3842 H   0  0  0  0  0  0  0  0  0  0  0  0
   -1.8219    1.9131   -2.7025 H   0  0  0  0  0  0  0  0  0  0  0  0
   -1.2534    2.3999    0.2879 H   0  0  0  0  0  0  0  0  0  0  0  0
   -1.0976    3.5626   -1.0300 H   0  0  0  0  0  0  0  0  0  0  0  0
    0.5789    1.2449   -0.3206 H   0  0  0  0  0  0  0  0  0  0  0  0
    1.1479    2.6877   -0.3775 H   0  0  0  0  0  0  0  0  0  0  0  0
   -0.0274    1.4384   -3.1571 H   0  0  0  0  0  0  0  0  0  0  0  0
    1.4900    1.2808   -2.8145 H   0  0  0  0  0  0  0  0  0  0  0  0
   -0.1305    3.8234   -2.9628 H   0  0  0  0  0  0  0  0  0  0  0  0
    1.0985    3.2410   -4.1151 H   0  0  0  0  0  0  0  0  0  0  0  0
    1.7865    4.1066   -1.2079 H   0  0  0  0  0  0  0  0  0  0  0  0
    1.9419    5.1636   -2.5678 H   0  0  0  0  0  0  0  0  0  0  0  0
    5.1297    1.4294    2.0605 H   0  0  0  0  0  0  0  0  0  0  0  0
    5.1022   -0.1750    1.3422 H   0  0  0  0  0  0  0  0  0  0  0  0
    4.8523    1.0563   -0.6592 H   0  0  0  0  0  0  0  0  0  0  0  0
    5.0585    3.6841    0.8570 H   0  0  0  0  0  0  0  0  0  0  0  0
    5.1909    3.4991   -0.8446 H   0  0  0  0  0  0  0  0  0  0  0  0
    3.6782    3.0833   -0.0224 H   0  0  0  0  0  0  0  0  0  0  0  0
    7.0719    0.4553    0.0572 H   0  0  0  0  0  0  0  0  0  0  0  0
    7.0755    1.8604   -0.9921 H   0  0  0  0  0  0  0  0  0  0  0  0
    7.2381    2.0979    0.7569 H   0  0  0  0  0  0  0  0  0  0  0  0
    4.9071   -0.1341   -1.8388 H   0  0  0  0  0  0  0  0  0  0  0  0
    4.3262   -0.7060   -3.2122 H   0  0  0  0  0  0  0  0  0  0  0  0
    2.6528    2.0047   -1.4640 H   0  0  0  0  0  0  0  0  0  0  0  0
    7.3225    2.2119   -3.3319 H   0  0  0  0  0  0  0  0  0  0  0  0
    3.9511    5.9261   -3.3555 H   0  0  0  0  0  0  0  0  0  0  0  0
    7.9229    4.4989   -4.0830 H   0  0  0  0  0  0  0  0  0  0  0  0
    6.2572    6.3235   -4.1421 H   0  0  0  0  0  0  0  0  0  0  0  0
  1  2  2  0  0  0  0
  1  3  1  0  0  0  0
  1  5  1  0  0  0  0
  3  4  1  0  0  0  0
  3 36  1  0  0  0  0
  4 37  1  0  0  0  0
  5 38  1  0  0  0  0
  5 39  1  0  0  0  0
  6 21  1  0  0  0  0
  6 34  1  6  0  0  0
  6  7  1  0  0  0  0
  6  5  1  0  0  0  0
  7  8  2  0  0  0  0
  7  9  1  0  0  0  0
  9 40  1  0  0  0  0
 10  9  1  0  0  0  0
 10 11  1  0  0  0  0
 10 25  1  0  0  0  0
 10 35  1  1  0  0  0
 11 12  2  0  0  0  0
 11 13  1  0  0  0  0
 13 14  1  0  0  0  0
 13 41  1  0  0  0  0
 14 15  1  0  0  0  0
 14 42  1  0  0  0  0
 14 43  1  0  0  0  0
 15 16  1  0  0  0  0
 15 44  1  0  0  0  0
 15 45  1  0  0  0  0
 16 17  1  0  0  0  0
 16 46  1  0  0  0  0
 16 47  1  0  0  0  0
 17 18  1  0  0  0  0
 17 48  1  0  0  0  0
 17 49  1  0  0  0  0
 18 19  1  0  0  0  0
 18 50  1  0  0  0  0
 18 51  1  0  0  0  0
 19 20  1  0  0  0  0
 19 52  1  0  0  0  0
 19 53  1  0  0  0  0
 20 27  1  0  0  0  0
 20 29  1  0  0  0  0
 21 22  1  0  0  0  0
 21 54  1  0  0  0  0
 21 55  1  0  0  0  0
 22 23  1  0  0  0  0
 22 24  1  0  0  0  0
 22 56  1  0  0  0  0
 23 57  1  0  0  0  0
 23 58  1  0  0  0  0
 23 59  1  0  0  0  0
 24 60  1  0  0  0  0
 24 61  1  0  0  0  0
 24 62  1  0  0  0  0
 25 26  1  0  0  0  0
 25 63  1  0  0  0  0
 25 64  1  0  0  0  0
 26 27  2  0  0  0  0
 26 28  1  0  0  0  0
 27 65  1  0  0  0  0
 28 29  2  0  0  0  0
 28 30  1  0  0  0  0
 29 31  1  0  0  0  0
 30 32  2  0  0  0  0
 30 66  1  0  0  0  0
 31 33  2  0  0  0  0
 31 67  1  0  0  0  0
 32 33  1  0  0  0  0
 32 68  1  0  0  0  0
 33 69  1  0  0  0  0
M  END
>  <DRUGBANK_ID>
DB08489

>  <COMMON_NAME>
N4-HYDROXY-2-ISOBUTYL-N1-(9-OXO-1,8-DIAZA-TRICYCLO[10.6.1.013,18]NONADECA-12(19),13,15,17-TETRAEN-10-YL)-SUCCINAMIDE

$$$$
