
 OpenBabel10282417123D

 33 33  0  0  1  0  0  0  0  0999 V2000
    1.2217    0.1168    2.4161 C   0  0  0  0  0  0  0  0  0  0  0  0
    0.9129   -0.8578    1.2179 C   0  0  2  0  0  0  0  0  0  0  0  0
    3.6041    0.2135   -1.4640 C   0  0  1  0  0  0  0  0  0  0  0  0
    2.9925   -0.5027   -0.2423 C   0  0  1  0  0  0  0  0  0  0  0  0
    3.1273    1.6507   -1.6009 C   0  0  1  0  0  0  0  0  0  0  0  0
    1.4782   -0.4510   -0.2519 C   0  0  2  0  0  0  0  0  0  0  0  0
    1.6082    1.6213   -1.7232 C   0  0  1  0  0  0  0  0  0  0  0  0
   -0.5184   -1.1272    1.1794 O   0  0  0  0  0  0  0  0  0  0  0  0
    5.0256    0.2566   -1.3086 O   0  0  0  0  0  0  0  0  0  0  0  0
    3.3613   -1.8861   -0.2089 O   0  0  0  0  0  0  0  0  0  0  0  0
    3.7092    2.3540   -0.4832 O   0  0  0  0  0  0  0  0  0  0  0  0
    1.1344    1.1988   -2.9765 O   0  0  0  0  0  0  0  0  0  0  0  0
    1.7106    3.1330    0.4837 O   0  0  0  0  0  0  0  0  0  0  0  0
   -0.4016    1.1179    0.6892 O   0  0  0  0  0  0  0  0  0  0  0  0
   -0.5389    3.1686    0.3722 O   0  0  0  0  0  0  0  0  0  0  0  0
    1.6846    1.4146    2.0236 O   0  0  0  0  0  0  0  0  0  0  0  0
    0.9710    0.7734   -0.7923 O   0  0  0  0  0  0  0  0  0  0  0  0
    0.5113    2.3402    1.1522 P   0  0  0  0  0  0  0  0  0  0  0  0
    1.3043   -1.8390    1.4954 H   0  0  0  0  0  0  0  0  0  0  0  0
    3.3648   -0.3357   -2.3776 H   0  0  0  0  0  0  0  0  0  0  0  0
    3.3908   -0.0567    0.6764 H   0  0  0  0  0  0  0  0  0  0  0  0
    3.5380    2.1464   -2.4839 H   0  0  0  0  0  0  0  0  0  0  0  0
    1.0504   -1.2027   -0.9226 H   0  0  0  0  0  0  0  0  0  0  0  0
    1.2030    2.6342   -1.5918 H   0  0  0  0  0  0  0  0  0  0  0  0
    2.0061   -0.3188    3.0394 H   0  0  0  0  0  0  0  0  0  0  0  0
    0.3480    0.2622    3.0707 H   0  0  0  0  0  0  0  0  0  0  0  0
   -0.9478   -0.2362    1.1755 H   0  0  0  0  0  0  0  0  0  0  0  0
    5.1744    0.9795   -0.6593 H   0  0  0  0  0  0  0  0  0  0  0  0
    2.8801   -2.3460   -0.9200 H   0  0  0  0  0  0  0  0  0  0  0  0
    2.9827    2.5897    0.1328 H   0  0  0  0  0  0  0  0  0  0  0  0
    0.8420    0.2870   -2.8197 H   0  0  0  0  0  0  0  0  0  0  0  0
    1.6416    4.0476    0.8654 H   0  0  0  0  0  0  0  0  0  0  0  0
   -0.4796    1.1661   -0.2303 H   0  0  0  0  0  0  0  0  0  0  0  0
  1 25  1  0  0  0  0
  1 26  1  0  0  0  0
  2  8  1  0  0  0  0
  2 19  1  1  0  0  0
  2  6  1  0  0  0  0
  2  1  1  0  0  0  0
  3  9  1  0  0  0  0
  3 20  1  6  0  0  0
  4  3  1  0  0  0  0
  4 10  1  0  0  0  0
  4 21  1  1  0  0  0
  5  3  1  0  0  0  0
  5 11  1  0  0  0  0
  5 22  1  6  0  0  0
  6  4  1  0  0  0  0
  6 23  1  6  0  0  0
  7  5  1  0  0  0  0
  7 12  1  0  0  0  0
  7 24  1  1  0  0  0
  8 27  1  0  0  0  0
  9 28  1  0  0  0  0
 10 29  1  0  0  0  0
 11 30  1  0  0  0  0
 12 31  1  0  0  0  0
 13 32  1  0  0  0  0
 14 33  1  0  0  0  0
 16  1  1  0  0  0  0
 17  6  1  0  0  0  0
 17  7  1  0  0  0  0
 18 13  1  0  0  0  0
 18 14  1  0  0  0  0
 18 15  2  0  0  0  0
 18 16  1  0  0  0  0
M  END
>  <DRUGBANK_ID>
DB02470

>  <SECONDARY_ACCESSION_NUMBERS>
EXPT02091

>  <COMMON_NAME>
D-Glycero-D-Mannopyranose-7-Phosphate

$$$$
