
 OpenBabel10282417123D

 34 35  0  0  0  0  0  0  0  0999 V2000
    1.0460    0.0739   -0.0492 P   0  0  0  0  0  0  0  0  0  0  0  0
    3.8734    3.2710   -0.2352 O   0  0  0  0  0  0  0  0  0  0  0  0
    0.9799    1.7152   -0.0947 O   0  0  0  0  0  0  0  0  0  0  0  0
    1.4166    4.5135   -2.1495 O   0  0  0  0  0  0  0  0  0  0  0  0
    3.1557    0.8485   -3.0685 O   0  0  0  0  0  0  0  0  0  0  0  0
    0.9292   -0.3711   -1.6025 O   0  0  0  0  0  0  0  0  0  0  0  0
   -0.6840    0.0739   -0.0492 O   0  0  0  0  0  0  0  0  0  0  0  0
    3.7117    4.5528   -2.6582 O   0  0  0  0  0  0  0  0  0  0  0  0
    2.5944    0.0739   -0.0492 O   0  0  0  0  0  0  0  0  0  0  0  0
    7.0585    6.9581   -1.8628 O   0  0  0  0  0  0  0  0  0  0  0  0
    3.6531    5.4864   -0.5258 N   0  0  0  0  0  0  0  0  0  0  0  0
    4.9604    6.2661   -2.2979 N   0  0  0  0  0  0  0  0  0  0  0  0
    1.7707    2.3967   -1.0725 C   0  0  1  0  0  0  0  0  0  0  0  0
    1.6149    3.9014   -0.8677 C   0  0  1  0  0  0  0  0  0  0  0  0
    3.3098    2.2067   -1.0000 C   0  0  1  0  0  0  0  0  0  0  0  0
    2.9067    4.3151   -0.0734 C   0  0  1  0  0  0  0  0  0  0  0  0
    3.9262    1.8277   -2.3690 C   0  0  0  0  0  0  0  0  0  0  0  0
    4.0582    5.4061   -1.8373 C   0  0  0  0  0  0  0  0  0  0  0  0
    4.3703    6.3064    0.3451 C   0  0  0  0  0  0  0  0  0  0  0  0
    5.5005    6.9022   -0.0705 C   0  0  0  0  0  0  0  0  0  0  0  0
    5.9271    6.7194   -1.4736 C   0  0  0  0  0  0  0  0  0  0  0  0
    5.2541    5.9794   -3.2183 H   0  0  0  0  0  0  0  0  0  0  0  0
    2.1839    4.2473   -2.7092 H   0  0  0  0  0  0  0  0  0  0  0  0
    3.2777    0.0182   -2.5901 H   0  0  0  0  0  0  0  0  0  0  0  0
    1.7501   -0.8284   -1.8455 H   0  0  0  0  0  0  0  0  0  0  0  0
   -1.0268    0.0599    0.8603 H   0  0  0  0  0  0  0  0  0  0  0  0
    1.3563    2.0933   -2.0383 H   0  0  0  0  0  0  0  0  0  0  0  0
    0.7231    4.1767   -0.2988 H   0  0  0  0  0  0  0  0  0  0  0  0
    3.7411    1.4370   -0.3876 H   0  0  0  0  0  0  0  0  0  0  0  0
    2.6658    4.3600    1.0022 H   0  0  0  0  0  0  0  0  0  0  0  0
    4.0374    2.6313   -3.0760 H   0  0  0  0  0  0  0  0  0  0  0  0
    4.9344    1.4269   -2.2256 H   0  0  0  0  0  0  0  0  0  0  0  0
    4.0239    6.4209    1.3711 H   0  0  0  0  0  0  0  0  0  0  0  0
    6.1660    7.4870    0.5480 H   0  0  0  0  0  0  0  0  0  0  0  0
  1  3  1  0  0  0  0
  1  6  1  0  0  0  0
  1  7  1  0  0  0  0
  1  9  2  0  0  0  0
  2 15  1  0  0  0  0
  2 16  1  0  0  0  0
  4 23  1  0  0  0  0
  5 17  1  0  0  0  0
  5 24  1  0  0  0  0
  6 25  1  0  0  0  0
  7 26  1  0  0  0  0
  8 18  2  0  0  0  0
 10 21  2  0  0  0  0
 11 18  1  0  0  0  0
 11 19  1  0  0  0  0
 12 18  1  0  0  0  0
 12 21  1  0  0  0  0
 12 22  1  0  0  0  0
 13  3  1  0  0  0  0
 13 14  1  0  0  0  0
 13 15  1  0  0  0  0
 13 27  1  6  0  0  0
 14  4  1  0  0  0  0
 14 16  1  0  0  0  0
 14 28  1  1  0  0  0
 15 29  1  1  0  0  0
 15 17  1  0  0  0  0
 16 30  1  1  0  0  0
 16 11  1  0  0  0  0
 17 31  1  0  0  0  0
 17 32  1  0  0  0  0
 19 20  2  0  0  0  0
 19 33  1  0  0  0  0
 20 21  1  0  0  0  0
 20 34  1  0  0  0  0
M  END
>  <DRUGBANK_ID>
DB02805

>  <SECONDARY_ACCESSION_NUMBERS>
EXPT03163

>  <COMMON_NAME>
Arabinouridine 3'-phosphate

>  <SYNONYMS>
1-(3-O-phosphono-beta-L-arabinofuranosyl)Pyrimidine-2,4(1H,3H)-Dione; Arabinouridine 3'-Phosphate; Uracil arabinose-3'-phosphate

$$$$
