
 OpenBabel10282417173D

 39 40  0  0  0  0  0  0  0  0999 V2000
    0.9218    0.0537    0.0114 C   0  0  0  0  0  0  0  0  0  0  0  0
    5.7505    1.6159   -1.0655 C   0  0  0  0  0  0  0  0  0  0  0  0
    0.5457    0.1241   -1.4552 C   0  0  0  0  0  0  0  0  0  0  0  0
   10.4459   -3.0366   -3.4440 C   0  0  0  0  0  0  0  0  0  0  0  0
    9.2527   -2.7342   -4.3352 C   0  0  0  0  0  0  0  0  0  0  0  0
   10.0039   -3.7332   -2.1609 C   0  0  0  0  0  0  0  0  0  0  0  0
    8.2092   -1.9472   -3.5635 C   0  0  0  0  0  0  0  0  0  0  0  0
    8.9263   -2.9305   -1.4486 C   0  0  0  0  0  0  0  0  0  0  0  0
    3.3809   -0.2577   -1.9347 C   0  0  0  0  0  0  0  0  0  0  0  0
    4.6936   -0.5291   -1.9469 C   0  0  0  0  0  0  0  0  0  0  0  0
    2.3514   -1.2515   -2.4046 C   0  0  0  0  0  0  0  0  0  0  0  0
    6.9513   -0.5186   -1.2455 C   0  0  0  0  0  0  0  0  0  0  0  0
    6.7312   -1.9987   -1.6266 C   0  0  3  0  0  0  0  0  0  0  0  0
    5.7469    0.2027   -1.4057 N   0  0  0  0  0  0  0  0  0  0  0  0
    7.8110   -2.6635   -2.3462 N   0  0  0  0  0  0  0  0  0  0  0  0
    2.6041   -2.3097   -2.9778 O   0  0  0  0  0  0  0  0  0  0  0  0
    7.9902   -0.0387   -0.7997 O   0  0  0  0  0  0  0  0  0  0  0  0
    1.0520   -1.0046   -2.1587 O   0  0  0  0  0  0  0  0  0  0  0  0
    5.2747   -1.9912   -2.6417 S   0  0  0  0  0  0  0  0  0  0  0  0
    3.0486    0.6541   -1.4675 H   0  0  0  0  0  0  0  0  0  0  0  0
    0.5301   -0.8632    0.4612 H   0  0  0  0  0  0  0  0  0  0  0  0
    0.5390    0.9279    0.5372 H   0  0  0  0  0  0  0  0  0  0  0  0
    1.9999    0.0097    0.1800 H   0  0  0  0  0  0  0  0  0  0  0  0
    6.0507    1.7570   -0.0192 H   0  0  0  0  0  0  0  0  0  0  0  0
    6.5056    2.1265   -1.6794 H   0  0  0  0  0  0  0  0  0  0  0  0
    4.7843    2.0910   -1.2376 H   0  0  0  0  0  0  0  0  0  0  0  0
   -0.5430    0.0672   -1.5517 H   0  0  0  0  0  0  0  0  0  0  0  0
    0.8717    1.0367   -1.9607 H   0  0  0  0  0  0  0  0  0  0  0  0
   11.1642   -3.6585   -3.9831 H   0  0  0  0  0  0  0  0  0  0  0  0
   10.9438   -2.0931   -3.1890 H   0  0  0  0  0  0  0  0  0  0  0  0
    9.5644   -2.1484   -5.2065 H   0  0  0  0  0  0  0  0  0  0  0  0
    8.8123   -3.6666   -4.7123 H   0  0  0  0  0  0  0  0  0  0  0  0
    9.6269   -4.7375   -2.3915 H   0  0  0  0  0  0  0  0  0  0  0  0
   10.8586   -3.8484   -1.4876 H   0  0  0  0  0  0  0  0  0  0  0  0
    8.5918   -0.9510   -3.3191 H   0  0  0  0  0  0  0  0  0  0  0  0
    7.3681   -1.8055   -4.2528 H   0  0  0  0  0  0  0  0  0  0  0  0
    8.5778   -3.5017   -0.5779 H   0  0  0  0  0  0  0  0  0  0  0  0
    9.3620   -1.9996   -1.0773 H   0  0  0  0  0  0  0  0  0  0  0  0
    6.4508   -2.5488   -0.7203 H   0  0  0  0  0  0  0  0  0  0  0  0
  1 21  1  0  0  0  0
  1 22  1  0  0  0  0
  1 23  1  0  0  0  0
  2 24  1  0  0  0  0
  2 25  1  0  0  0  0
  2 26  1  0  0  0  0
  3  1  1  0  0  0  0
  3 27  1  0  0  0  0
  3 28  1  0  0  0  0
  4 29  1  0  0  0  0
  4 30  1  0  0  0  0
  5  4  1  0  0  0  0
  5 31  1  0  0  0  0
  5 32  1  0  0  0  0
  6  4  1  0  0  0  0
  6 33  1  0  0  0  0
  6 34  1  0  0  0  0
  7  5  1  0  0  0  0
  7 35  1  0  0  0  0
  7 36  1  0  0  0  0
  8  6  1  0  0  0  0
  8 37  1  0  0  0  0
  8 38  1  0  0  0  0
 10  9  2  0  0  0  0
 11  9  1  0  0  0  0
 13 12  1  0  0  0  0
 13 39  1  0  0  0  0
 14  2  1  0  0  0  0
 14 10  1  0  0  0  0
 14 12  1  0  0  0  0
 15  7  1  0  0  0  0
 15  8  1  0  0  0  0
 15 13  1  0  0  0  0
 16 11  2  0  0  0  0
 17 12  2  0  0  0  0
 18  3  1  0  0  0  0
 18 11  1  0  0  0  0
 19 10  1  0  0  0  0
 19 13  1  0  0  0  0
 20  9  1  0  0  0  0
M  END
>  <DRUGBANK_ID>
DB08982

>  <COMMON_NAME>
Etozoline

>  <CAS_NUMBER>
73-09-6

>  <UNII>
UEO8UW9V1Z

$$$$
