53R
 OpenBabel10282417163D

 49 51  0  0  0  0  0  0  0  0999 V2000
    1.3805   -0.2252    0.0394 C   0  0  0  0  0  0  0  0  0  0  0  0
    0.5006   -1.3104    0.0345 C   0  0  0  0  0  0  0  0  0  0  0  0
   -0.8750   -1.0922    0.0100 C   0  0  0  0  0  0  0  0  0  0  0  0
   -1.3720    0.2086    0.0330 C   0  0  0  0  0  0  0  0  0  0  0  0
   -0.4921    1.2924    0.0650 C   0  0  0  0  0  0  0  0  0  0  0  0
    0.8973    1.0935    0.0194 C   0  0  0  0  0  0  0  0  0  0  0  0
    1.7956    2.2316   -0.2262 C   0  0  0  0  0  0  0  0  0  0  0  0
    2.5402    2.2499   -1.4177 C   0  0  0  0  0  0  0  0  0  0  0  0
    1.8328    3.3666    0.6040 C   0  0  0  0  0  0  0  0  0  0  0  0
    2.5551    4.5057    0.2329 C   0  0  0  0  0  0  0  0  0  0  0  0
    2.4155    5.6207    1.0175 O   0  0  0  0  0  0  0  0  0  0  0  0
    2.9697    6.8241    0.4775 C   0  0  0  0  0  0  0  0  0  0  0  0
    3.3238    4.4711   -0.9219 C   0  0  0  0  0  0  0  0  0  0  0  0
    3.2953    3.3662   -1.7759 C   0  0  0  0  0  0  0  0  0  0  0  0
    4.0285    3.4233   -3.0872 C   0  0  1  0  0  0  0  0  0  0  0  0
    3.5171    4.5721   -3.9634 C   0  0  0  0  0  0  0  0  0  0  0  0
    5.5148    3.6035   -2.8252 C   0  0  0  0  0  0  0  0  0  0  0  0
    6.7898    3.7582   -2.6005 C   0  0  0  0  0  0  0  0  0  0  0  0
    8.1953    3.9437   -2.3487 C   0  0  0  0  0  0  0  0  0  0  0  0
    9.0733    2.8824   -2.2056 C   0  0  0  0  0  0  0  0  0  0  0  0
    8.6144    1.4546   -2.3035 C   0  0  0  0  0  0  0  0  0  0  0  0
   10.4009    3.0637   -1.9698 N   0  0  0  0  0  0  0  0  0  0  0  0
   10.8411    4.3226   -1.8811 C   0  0  0  0  0  0  0  0  0  0  0  0
   12.1763    4.5220   -1.6464 N   0  0  0  0  0  0  0  0  0  0  0  0
   10.0730    5.4059   -2.0091 N   0  0  0  0  0  0  0  0  0  0  0  0
    8.7600    5.2090   -2.2417 C   0  0  0  0  0  0  0  0  0  0  0  0
    7.9939    6.3550   -2.3336 N   0  0  0  0  0  0  0  0  0  0  0  0
    3.8969    2.4840   -3.6387 H   0  0  0  0  0  0  0  0  0  0  0  0
    2.4523   -0.4133    0.0270 H   0  0  0  0  0  0  0  0  0  0  0  0
    0.8908   -2.3246    0.0224 H   0  0  0  0  0  0  0  0  0  0  0  0
   -1.5600   -1.9350   -0.0283 H   0  0  0  0  0  0  0  0  0  0  0  0
   -2.4440    0.3838   -0.0019 H   0  0  0  0  0  0  0  0  0  0  0  0
   -0.8989    2.3017    0.0694 H   0  0  0  0  0  0  0  0  0  0  0  0
    2.4915    1.3969   -2.0942 H   0  0  0  0  0  0  0  0  0  0  0  0
    1.2693    3.3766    1.5336 H   0  0  0  0  0  0  0  0  0  0  0  0
    4.0643    6.7744    0.4845 H   0  0  0  0  0  0  0  0  0  0  0  0
    2.5988    7.0324   -0.5357 H   0  0  0  0  0  0  0  0  0  0  0  0
    2.6683    7.6618    1.1108 H   0  0  0  0  0  0  0  0  0  0  0  0
    3.9459    5.3139   -1.2045 H   0  0  0  0  0  0  0  0  0  0  0  0
    3.6703    5.5513   -3.4929 H   0  0  0  0  0  0  0  0  0  0  0  0
    4.0424    4.5967   -4.9239 H   0  0  0  0  0  0  0  0  0  0  0  0
    2.4445    4.4663   -4.1599 H   0  0  0  0  0  0  0  0  0  0  0  0
    9.1352    0.9498   -3.1225 H   0  0  0  0  0  0  0  0  0  0  0  0
    8.8187    0.9302   -1.3655 H   0  0  0  0  0  0  0  0  0  0  0  0
    7.5420    1.3649   -2.4983 H   0  0  0  0  0  0  0  0  0  0  0  0
   12.5031    5.4681   -1.5649 H   0  0  0  0  0  0  0  0  0  0  0  0
   12.7712    3.7225   -1.5290 H   0  0  0  0  0  0  0  0  0  0  0  0
    8.4782    7.2380   -2.2802 H   0  0  0  0  0  0  0  0  0  0  0  0
    7.0164    6.3053   -2.5711 H   0  0  0  0  0  0  0  0  0  0  0  0
  1  2  2  0  0  0  0
  1  6  1  0  0  0  0
  1 29  1  0  0  0  0
  2  3  1  0  0  0  0
  2 30  1  0  0  0  0
  3  4  2  0  0  0  0
  3 31  1  0  0  0  0
  4  5  1  0  0  0  0
  4 32  1  0  0  0  0
  5  6  2  0  0  0  0
  5 33  1  0  0  0  0
  6  7  1  0  0  0  0
  7  8  2  0  0  0  0
  7  9  1  0  0  0  0
  8 14  1  0  0  0  0
  8 34  1  0  0  0  0
  9 10  2  0  0  0  0
  9 35  1  0  0  0  0
 10 11  1  0  0  0  0
 10 13  1  0  0  0  0
 11 12  1  0  0  0  0
 12 36  1  0  0  0  0
 12 37  1  0  0  0  0
 12 38  1  0  0  0  0
 13 14  2  0  0  0  0
 13 39  1  0  0  0  0
 14 15  1  0  0  0  0
 15 16  1  0  0  0  0
 15 17  1  0  0  0  0
 15 28  1  6  0  0  0
 16 40  1  0  0  0  0
 16 41  1  0  0  0  0
 16 42  1  0  0  0  0
 17 18  3  0  0  0  0
 18 19  1  0  0  0  0
 19 20  2  0  0  0  0
 19 26  1  0  0  0  0
 20 21  1  0  0  0  0
 20 22  1  0  0  0  0
 21 43  1  0  0  0  0
 21 44  1  0  0  0  0
 21 45  1  0  0  0  0
 22 23  2  0  0  0  0
 23 24  1  0  0  0  0
 23 25  1  0  0  0  0
 24 46  1  0  0  0  0
 24 47  1  0  0  0  0
 25 26  2  0  0  0  0
 26 27  1  0  0  0  0
 27 48  1  0  0  0  0
 27 49  1  0  0  0  0
M  END
>  <DRUGBANK_ID>
DB07140

>  <COMMON_NAME>
5-[(3R)-3-(5-methoxybiphenyl-3-yl)but-1-yn-1-yl]-6-methylpyrimidine-2,4-diamine

$$$$
