
 OpenBabel10282417123D

 22 22  0  0  0  0  0  0  0  0999 V2000
    0.9575    0.0457   -0.0978 N   0  0  0  0  0  0  0  0  0  0  0  0
    0.3818   -0.9058   -0.9684 C   0  0  0  0  0  0  0  0  0  0  0  0
   -0.7252   -0.5965   -1.7707 C   0  0  0  0  0  0  0  0  0  0  0  0
   -1.3928   -1.5826   -2.5104 C   0  0  0  0  0  0  0  0  0  0  0  0
   -0.9114   -2.8944   -2.5360 C   0  0  0  0  0  0  0  0  0  0  0  0
    0.1898   -3.2228   -1.7380 C   0  0  0  0  0  0  0  0  0  0  0  0
    0.8243   -2.2372   -0.9583 C   0  0  0  0  0  0  0  0  0  0  0  0
    0.2830    0.8765    0.7486 C   0  0  0  0  0  0  0  0  0  0  0  0
   -0.9910    0.9702    0.9218 N   0  0  0  0  0  0  0  0  0  0  0  0
    1.0386    1.6858    1.5121 N   0  0  0  0  0  0  0  0  0  0  0  0
   -1.5515   -3.8678   -3.4613 C   0  0  0  0  0  0  0  0  0  0  0  0
   -2.4867   -3.6281   -4.2094 O   0  0  0  0  0  0  0  0  0  0  0  0
   -0.9563   -5.0740   -3.4574 O   0  0  0  0  0  0  0  0  0  0  0  0
    1.9488   -0.0631    0.0582 H   0  0  0  0  0  0  0  0  0  0  0  0
   -1.0715    0.4340   -1.8402 H   0  0  0  0  0  0  0  0  0  0  0  0
   -2.2873   -1.3145   -3.0698 H   0  0  0  0  0  0  0  0  0  0  0  0
    0.5575   -4.2461   -1.7070 H   0  0  0  0  0  0  0  0  0  0  0  0
    1.6583   -2.5328   -0.3260 H   0  0  0  0  0  0  0  0  0  0  0  0
   -1.4515    0.2833    0.3236 H   0  0  0  0  0  0  0  0  0  0  0  0
    2.0419    1.6917    1.5678 H   0  0  0  0  0  0  0  0  0  0  0  0
    0.5221    2.2767    2.1549 H   0  0  0  0  0  0  0  0  0  0  0  0
   -1.4338   -5.5903   -4.1425 H   0  0  0  0  0  0  0  0  0  0  0  0
  1  8  1  0  0  0  0
  1  2  1  0  0  0  0
  1 14  1  0  0  0  0
  2  3  2  0  0  0  0
  3  4  1  0  0  0  0
  3 15  1  0  0  0  0
  4  5  2  0  0  0  0
  4 16  1  0  0  0  0
  5 11  1  0  0  0  0
  5  6  1  0  0  0  0
  6  7  2  0  0  0  0
  6 17  1  0  0  0  0
  7  2  1  0  0  0  0
  7 18  1  0  0  0  0
  8  9  2  0  0  0  0
  8 10  1  0  0  0  0
  9 19  1  0  0  0  0
 10 20  1  0  0  0  0
 10 21  1  0  0  0  0
 11 12  2  0  0  0  0
 11 13  1  0  0  0  0
 13 22  1  0  0  0  0
M  END
>  <DRUGBANK_ID>
DB02459

>  <SECONDARY_ACCESSION_NUMBERS>
EXPT01553

>  <COMMON_NAME>
4-guanidinobenzoic acid

>  <CAS_NUMBER>
16060-65-4

>  <SYNONYMS>
4-Guanidino-benzoic acid; p-guanidinobenzoic acid

$$$$
