45U
 OpenBabel10282417163D

 55 57  0  0  0  0  0  0  0  0999 V2000
    1.0810   -0.1703    0.0284 O   0  0  0  0  0  0  0  0  0  0  0  0
    2.3015   -0.0208    0.0463 C   0  0  0  0  0  0  0  0  0  0  0  0
    3.1279   -1.2924    0.0493 C   0  0  0  0  0  0  0  0  0  0  0  0
    3.8502   -1.5128   -1.1439 O   0  0  0  0  0  0  0  0  0  0  0  0
    2.9765   -1.5295   -2.2709 C   0  0  0  0  0  0  0  0  0  0  0  0
    3.2647   -2.7316   -3.1427 C   0  0  0  0  0  0  0  0  0  0  0  0
    2.7969   -2.3102   -4.5331 C   0  0  0  0  0  0  0  0  0  0  0  0
    2.7106   -0.7887   -4.5308 C   0  0  0  0  0  0  0  0  0  0  0  0
    3.2768   -0.3677   -3.2006 C   0  0  0  0  0  0  0  0  0  0  0  0
    2.9297    1.2061    0.0339 N   0  0  0  0  0  0  0  0  0  0  0  0
    2.4140    2.3592    0.7615 C   0  0  1  0  0  0  0  0  0  0  0  0
    2.8490    3.5219   -0.1397 C   0  0  0  0  0  0  0  0  0  0  0  0
    4.2128    3.0944   -0.6637 C   0  0  0  0  0  0  0  0  0  0  0  0
    4.1554    1.5703   -0.6761 C   0  0  0  0  0  0  0  0  0  0  0  0
    0.9345    2.4711    1.2056 C   0  0  0  0  0  0  0  0  0  0  0  0
   -0.0150    1.7757    0.8453 O   0  0  0  0  0  0  0  0  0  0  0  0
    0.5956    3.4148    2.1138 N   0  0  0  0  0  0  0  0  0  0  0  0
    1.3415    4.5581    2.5410 C   0  0  0  0  0  0  0  0  0  0  0  0
    0.8167    5.8389    1.9499 C   0  0  0  0  0  0  0  0  0  0  0  0
    1.5376    7.0096    2.1938 C   0  0  0  0  0  0  0  0  0  0  0  0
    1.0291    8.2503    1.8098 C   0  0  0  0  0  0  0  0  0  0  0  0
   -0.1660    8.3400    1.0851 C   0  0  0  0  0  0  0  0  0  0  0  0
   -0.6532    9.6527    0.5512 C   0  0  0  0  0  0  0  0  0  0  0  0
   -1.8037    9.7448   -0.1641 N   0  0  0  0  0  0  0  0  0  0  0  0
   -0.0189   10.7729    0.7115 N   0  0  0  0  0  0  0  0  0  0  0  0
   -0.8802    7.1660    0.8215 C   0  0  0  0  0  0  0  0  0  0  0  0
   -0.3939    5.9290    1.2476 C   0  0  0  0  0  0  0  0  0  0  0  0
    3.0189    2.3737    1.6818 H   0  0  0  0  0  0  0  0  0  0  0  0
    3.7846   -1.2928    0.9253 H   0  0  0  0  0  0  0  0  0  0  0  0
    2.4304   -2.1329    0.2020 H   0  0  0  0  0  0  0  0  0  0  0  0
    1.9123   -1.5354   -1.9988 H   0  0  0  0  0  0  0  0  0  0  0  0
    4.3353   -2.9657   -3.1356 H   0  0  0  0  0  0  0  0  0  0  0  0
    2.7370   -3.6184   -2.7772 H   0  0  0  0  0  0  0  0  0  0  0  0
    3.4959   -2.6628   -5.2953 H   0  0  0  0  0  0  0  0  0  0  0  0
    1.8103   -2.7293   -4.7531 H   0  0  0  0  0  0  0  0  0  0  0  0
    3.2564   -0.3235   -5.3563 H   0  0  0  0  0  0  0  0  0  0  0  0
    1.6660   -0.4621   -4.5956 H   0  0  0  0  0  0  0  0  0  0  0  0
    2.7851    0.5543   -2.8821 H   0  0  0  0  0  0  0  0  0  0  0  0
    4.3594   -0.1957   -3.2660 H   0  0  0  0  0  0  0  0  0  0  0  0
    2.1337    3.6432   -0.9621 H   0  0  0  0  0  0  0  0  0  0  0  0
    2.9363    4.4912    0.3520 H   0  0  0  0  0  0  0  0  0  0  0  0
    4.4000    3.5200   -1.6578 H   0  0  0  0  0  0  0  0  0  0  0  0
    5.0168    3.4383   -0.0052 H   0  0  0  0  0  0  0  0  0  0  0  0
    4.1234    1.2635   -1.7092 H   0  0  0  0  0  0  0  0  0  0  0  0
    5.0335    1.1083   -0.2202 H   0  0  0  0  0  0  0  0  0  0  0  0
   -0.3936    3.3734    2.3267 H   0  0  0  0  0  0  0  0  0  0  0  0
    1.2464    4.5941    3.6281 H   0  0  0  0  0  0  0  0  0  0  0  0
    2.4006    4.4394    2.3107 H   0  0  0  0  0  0  0  0  0  0  0  0
    2.5007    6.9640    2.6985 H   0  0  0  0  0  0  0  0  0  0  0  0
    1.5925    9.1270    2.1058 H   0  0  0  0  0  0  0  0  0  0  0  0
   -2.3280    8.9557   -0.5047 H   0  0  0  0  0  0  0  0  0  0  0  0
   -1.9854   10.6431   -0.5944 H   0  0  0  0  0  0  0  0  0  0  0  0
    0.8389   10.6684    1.2499 H   0  0  0  0  0  0  0  0  0  0  0  0
   -1.8276    7.1757    0.2939 H   0  0  0  0  0  0  0  0  0  0  0  0
   -0.9851    5.0455    1.0121 H   0  0  0  0  0  0  0  0  0  0  0  0
  2  1  2  0  0  0  0
  2  3  1  0  0  0  0
  3  4  1  0  0  0  0
  3 29  1  0  0  0  0
  3 30  1  0  0  0  0
  4  5  1  0  0  0  0
  5  6  1  0  0  0  0
  5 31  1  0  0  0  0
  6  7  1  0  0  0  0
  6 32  1  0  0  0  0
  6 33  1  0  0  0  0
  7 34  1  0  0  0  0
  7 35  1  0  0  0  0
  8  7  1  0  0  0  0
  8 36  1  0  0  0  0
  8 37  1  0  0  0  0
  9  5  1  0  0  0  0
  9  8  1  0  0  0  0
  9 38  1  0  0  0  0
  9 39  1  0  0  0  0
 10  2  1  0  0  0  0
 11 10  1  0  0  0  0
 11 28  1  1  0  0  0
 11 15  1  0  0  0  0
 12 13  1  0  0  0  0
 12 11  1  0  0  0  0
 12 40  1  0  0  0  0
 12 41  1  0  0  0  0
 13 14  1  0  0  0  0
 13 42  1  0  0  0  0
 13 43  1  0  0  0  0
 14 10  1  0  0  0  0
 14 44  1  0  0  0  0
 14 45  1  0  0  0  0
 15 16  2  0  0  0  0
 17 15  1  0  0  0  0
 17 46  1  0  0  0  0
 18 17  1  0  0  0  0
 18 19  1  0  0  0  0
 18 47  1  0  0  0  0
 18 48  1  0  0  0  0
 19 27  1  0  0  0  0
 20 19  2  0  0  0  0
 20 21  1  0  0  0  0
 20 49  1  0  0  0  0
 21 22  2  0  0  0  0
 21 50  1  0  0  0  0
 22 26  1  0  0  0  0
 22 23  1  0  0  0  0
 23 25  2  0  0  0  0
 24 23  1  0  0  0  0
 24 51  1  0  0  0  0
 24 52  1  0  0  0  0
 25 53  1  0  0  0  0
 26 54  1  0  0  0  0
 27 26  2  0  0  0  0
 27 55  1  0  0  0  0
M  END
>  <DRUGBANK_ID>
DB07088

>  <COMMON_NAME>
(S)-N-(4-carbamimidoylbenzyl)-1-(2-(cyclopentyloxy)ethanoyl)pyrrolidine-2-carboxamide

$$$$
