BPG
 OpenBabel10282417123D

 39 41  0  0  0  0  0  0  0  0999 V2000
    1.0391   -0.0008   -0.0662 C   0  0  0  0  0  0  0  0  0  0  0  0
    0.5752   -1.3370   -0.0114 O   0  0  0  0  0  0  0  0  0  0  0  0
    0.5585    0.7622    1.1595 C   0  0  0  0  0  0  0  0  0  0  0  0
    1.0440    2.2142    1.1398 C   0  0  0  0  0  0  0  0  0  0  0  0
    0.4656    3.0043   -0.0382 C   0  0  0  0  0  0  0  0  0  0  0  0
   -0.9838    3.0337   -0.0602 N   0  0  0  0  0  0  0  0  0  0  0  0
   -1.8264    3.2868    0.9878 C   0  0  0  0  0  0  0  0  0  0  0  0
   -1.4775    3.6049    2.2530 N   0  0  0  0  0  0  0  0  0  0  0  0
   -2.4717    3.7619    3.0934 C   0  0  0  0  0  0  0  0  0  0  0  0
   -2.2716    4.0747    4.4263 N   0  0  0  0  0  0  0  0  0  0  0  0
   -3.7954    3.6153    2.6784 N   0  0  0  0  0  0  0  0  0  0  0  0
   -4.1965    3.3044    1.3832 C   0  0  0  0  0  0  0  0  0  0  0  0
   -5.3905    3.2210    1.0789 O   0  0  0  0  0  0  0  0  0  0  0  0
   -3.0897    3.1116    0.4793 C   0  0  0  0  0  0  0  0  0  0  0  0
   -3.0541    2.7651   -0.8490 N   0  0  0  0  0  0  0  0  0  0  0  0
   -1.7696    2.7174   -1.1414 C   0  0  0  0  0  0  0  0  0  0  0  0
    1.7096    4.2795    5.7718 C   0  0  0  0  0  0  0  0  0  0  0  0
    1.2128    5.2600    4.9216 C   0  0  0  0  0  0  0  0  0  0  0  0
   -0.1019    5.1723    4.4674 C   0  0  0  0  0  0  0  0  0  0  0  0
   -0.9847    4.2166    4.9852 C   0  0  0  0  0  0  0  0  0  0  0  0
   -0.5132    3.3387    5.9668 C   0  0  0  0  0  0  0  0  0  0  0  0
    0.8572    3.2858    6.2487 C   0  0  0  0  0  0  0  0  0  0  0  0
    0.6571    0.4424   -0.9900 H   0  0  0  0  0  0  0  0  0  0  0  0
    2.1324   -0.0050   -0.1041 H   0  0  0  0  0  0  0  0  0  0  0  0
    0.8632   -1.7650   -0.8360 H   0  0  0  0  0  0  0  0  0  0  0  0
   -0.5362    0.7115    1.2163 H   0  0  0  0  0  0  0  0  0  0  0  0
    0.9110    0.2670    2.0716 H   0  0  0  0  0  0  0  0  0  0  0  0
    0.7781    2.6972    2.0854 H   0  0  0  0  0  0  0  0  0  0  0  0
    2.1392    2.2391    1.0981 H   0  0  0  0  0  0  0  0  0  0  0  0
    0.8170    4.0406   -0.0359 H   0  0  0  0  0  0  0  0  0  0  0  0
    0.8069    2.5671   -0.9850 H   0  0  0  0  0  0  0  0  0  0  0  0
   -3.0342    4.0626    5.0862 H   0  0  0  0  0  0  0  0  0  0  0  0
   -4.5541    3.7602    3.3214 H   0  0  0  0  0  0  0  0  0  0  0  0
   -1.3565    2.4531   -2.1072 H   0  0  0  0  0  0  0  0  0  0  0  0
    2.7583    4.2863    6.0567 H   0  0  0  0  0  0  0  0  0  0  0  0
    1.8547    6.0611    4.5688 H   0  0  0  0  0  0  0  0  0  0  0  0
   -0.4454    5.8509    3.6911 H   0  0  0  0  0  0  0  0  0  0  0  0
   -1.1767    2.6401    6.4678 H   0  0  0  0  0  0  0  0  0  0  0  0
    1.2656    2.4549    6.8196 H   0  0  0  0  0  0  0  0  0  0  0  0
  1  2  1  0  0  0  0
  1  3  1  0  0  0  0
  1 23  1  0  0  0  0
  1 24  1  0  0  0  0
  2 25  1  0  0  0  0
  3  4  1  0  0  0  0
  3 26  1  0  0  0  0
  3 27  1  0  0  0  0
  4  5  1  0  0  0  0
  4 28  1  0  0  0  0
  4 29  1  0  0  0  0
  5  6  1  0  0  0  0
  5 30  1  0  0  0  0
  5 31  1  0  0  0  0
  6  7  1  0  0  0  0
  6 16  1  0  0  0  0
  7  8  1  0  0  0  0
  7 14  2  0  0  0  0
  8  9  2  0  0  0  0
  9 10  1  0  0  0  0
  9 11  1  0  0  0  0
 10 20  1  0  0  0  0
 10 32  1  0  0  0  0
 11 12  1  0  0  0  0
 11 33  1  0  0  0  0
 12 13  2  0  0  0  0
 12 14  1  0  0  0  0
 14 15  1  0  0  0  0
 15 16  2  0  0  0  0
 16 34  1  0  0  0  0
 17 18  2  0  0  0  0
 17 22  1  0  0  0  0
 17 35  1  0  0  0  0
 18 19  1  0  0  0  0
 18 36  1  0  0  0  0
 19 20  2  0  0  0  0
 19 37  1  0  0  0  0
 20 21  1  0  0  0  0
 21 22  2  0  0  0  0
 21 38  1  0  0  0  0
 22 39  1  0  0  0  0
M  END
>  <DRUGBANK_ID>
DB02495

>  <SECONDARY_ACCESSION_NUMBERS>
EXPT00745

>  <COMMON_NAME>
9-(4-hydroxybutyl)-N2-phenylguanine

>  <SYNONYMS>
HBPG

$$$$
