51-83-2
 OpenBabel10282417103D

 25 24  0  0  0  0  0  0  0  0999 V2000
    1.0442   -0.0077    0.0183 C   0  0  0  0  0  0  0  0  0  0  0  0
    0.5579    0.1873    1.4572 N   0  3  0  0  0  0  0  0  0  0  0  0
    1.0851    1.4857    2.0608 C   0  0  0  0  0  0  0  0  0  0  0  0
   -0.9634    0.1683    1.4884 C   0  0  0  0  0  0  0  0  0  0  0  0
    1.0867   -0.9796    2.2941 C   0  0  0  0  0  0  0  0  0  0  0  0
    0.6704    1.1639   -0.9015 C   0  0  0  0  0  0  0  0  0  0  0  0
    1.2124    0.9995   -2.2129 O   0  0  0  0  0  0  0  0  0  0  0  0
    2.5431    1.0011   -2.4636 C   0  0  0  0  0  0  0  0  0  0  0  0
    3.3877    1.1683   -1.4101 N   0  0  0  0  0  0  0  0  0  0  0  0
    2.9818    0.8201   -3.5904 O   0  0  0  0  0  0  0  0  0  0  0  0
    0.6321   -0.9497   -0.3642 H   0  0  0  0  0  0  0  0  0  0  0  0
    2.1221   -0.1643    0.0915 H   0  0  0  0  0  0  0  0  0  0  0  0
    0.6877    2.3326    1.4971 H   0  0  0  0  0  0  0  0  0  0  0  0
    0.7445    1.5526    3.0961 H   0  0  0  0  0  0  0  0  0  0  0  0
    2.1786    1.4707    2.0062 H   0  0  0  0  0  0  0  0  0  0  0  0
   -1.3008   -0.7729    1.0442 H   0  0  0  0  0  0  0  0  0  0  0  0
   -1.2881    0.2536    2.5269 H   0  0  0  0  0  0  0  0  0  0  0  0
   -1.3368    1.0187    0.9129 H   0  0  0  0  0  0  0  0  0  0  0  0
    0.7185   -1.9124    1.8579 H   0  0  0  0  0  0  0  0  0  0  0  0
    2.1813   -0.9527    2.2689 H   0  0  0  0  0  0  0  0  0  0  0  0
    0.7258   -0.8571    3.3181 H   0  0  0  0  0  0  0  0  0  0  0  0
   -0.4177    1.2061   -1.0205 H   0  0  0  0  0  0  0  0  0  0  0  0
    0.9820    2.1416   -0.5253 H   0  0  0  0  0  0  0  0  0  0  0  0
    4.3730    1.1377   -1.6453 H   0  0  0  0  0  0  0  0  0  0  0  0
    3.1588    1.4758   -0.4827 H   0  0  0  0  0  0  0  0  0  0  0  0
  1  2  1  0  0  0  0
  1  6  1  0  0  0  0
  1 11  1  0  0  0  0
  1 12  1  0  0  0  0
  2  3  1  0  0  0  0
  2  4  1  0  0  0  0
  2  5  1  0  0  0  0
  3 13  1  0  0  0  0
  3 14  1  0  0  0  0
  3 15  1  0  0  0  0
  4 16  1  0  0  0  0
  4 17  1  0  0  0  0
  4 18  1  0  0  0  0
  5 19  1  0  0  0  0
  5 20  1  0  0  0  0
  5 21  1  0  0  0  0
  6  7  1  0  0  0  0
  6 22  1  0  0  0  0
  6 23  1  0  0  0  0
  7  8  1  0  0  0  0
  8  9  1  0  0  0  0
  8 10  2  0  0  0  0
  9 24  1  0  0  0  0
  9 25  1  0  0  0  0
M  CHG  1   2   1
M  END
>  <DRUGBANK_ID>
DB00411

>  <SECONDARY_ACCESSION_NUMBERS>
APRD00845; DB02487

>  <COMMON_NAME>
Carbamoylcholine

>  <CAS_NUMBER>
462-58-8

>  <UNII>
54Z8M50D6Q

>  <SYNONYMS>
Carbacholine; carbacol; Carbamylcholine; Choline carbamate

$$$$
