
 OpenBabel10282417173D

 60 62  0  0  0  0  0  0  0  0999 V2000
    6.0956   -0.6687    4.1681 O   0  0  0  0  0  0  0  0  0  0  0  0
    5.2280   -2.1219   -1.8743 N   0  0  0  0  0  0  0  0  0  0  0  0
    4.8694   -0.5467    2.1950 N   0  0  0  0  0  0  0  0  0  0  0  0
    5.1346   -0.1010   -0.3295 C   0  0  2  0  0  0  0  0  0  0  0  0
    4.5371   -1.0016    0.7888 C   0  0  1  0  0  0  0  0  0  0  0  0
    4.7829   -0.7395   -1.6618 C   0  0  0  0  0  0  0  0  0  0  0  0
    4.9062   -2.4359    0.4772 C   0  0  0  0  0  0  0  0  0  0  0  0
    4.6000   -2.9750   -0.8827 C   0  0  0  0  0  0  0  0  0  0  0  0
    6.6337    0.1957   -0.3951 C   0  0  0  0  0  0  0  0  0  0  0  0
    4.9324   -2.6346   -3.2285 C   0  0  0  0  0  0  0  0  0  0  0  0
    3.4276   -2.7097   -3.6160 C   0  0  0  0  0  0  0  0  0  0  0  0
    4.5528    0.8885    2.4070 C   0  0  0  0  0  0  0  0  0  0  0  0
    5.7259   -1.2213    3.1193 C   0  0  0  0  0  0  0  0  0  0  0  0
    7.4281   -0.0743    0.8042 C   0  0  0  0  0  0  0  0  0  0  0  0
    6.1733   -2.7162    2.9929 C   0  0  0  0  0  0  0  0  0  0  0  0
    2.7116   -1.3659   -3.6292 C   0  0  0  0  0  0  0  0  0  0  0  0
    5.5053    1.7803    2.9339 C   0  0  0  0  0  0  0  0  0  0  0  0
    3.3641    1.4666    1.9178 C   0  0  0  0  0  0  0  0  0  0  0  0
    8.4157   -0.9848    0.8601 C   0  0  0  0  0  0  0  0  0  0  0  0
    7.6615   -3.0333    2.9831 C   0  0  0  0  0  0  0  0  0  0  0  0
    5.3214    3.1688    2.9243 C   0  0  0  0  0  0  0  0  0  0  0  0
    3.1738    2.8617    1.9082 C   0  0  0  0  0  0  0  0  0  0  0  0
    1.4918   -1.2303   -2.9470 C   0  0  0  0  0  0  0  0  0  0  0  0
    3.3751   -0.1990   -4.0609 C   0  0  0  0  0  0  0  0  0  0  0  0
    4.1464    3.7107    2.4271 C   0  0  0  0  0  0  0  0  0  0  0  0
    0.9923    0.0400   -2.6423 C   0  0  0  0  0  0  0  0  0  0  0  0
    2.9404    1.0586   -3.6288 C   0  0  0  0  0  0  0  0  0  0  0  0
    1.7283    1.1818   -2.9597 C   0  0  0  0  0  0  0  0  0  0  0  0
    4.6121    0.8680   -0.3277 H   0  0  0  0  0  0  0  0  0  0  0  0
    3.4371   -0.9551    0.7109 H   0  0  0  0  0  0  0  0  0  0  0  0
    3.7005   -0.7048   -1.6467 H   0  0  0  0  0  0  0  0  0  0  0  0
    5.2080   -0.0999   -2.4402 H   0  0  0  0  0  0  0  0  0  0  0  0
    5.9956   -2.5006    0.5335 H   0  0  0  0  0  0  0  0  0  0  0  0
    4.3641   -3.0847    1.1689 H   0  0  0  0  0  0  0  0  0  0  0  0
    5.0196   -3.9872   -0.9453 H   0  0  0  0  0  0  0  0  0  0  0  0
    3.5147   -3.0440   -0.9779 H   0  0  0  0  0  0  0  0  0  0  0  0
    7.0946   -0.3227   -1.2443 H   0  0  0  0  0  0  0  0  0  0  0  0
    6.7528    1.2642   -0.6149 H   0  0  0  0  0  0  0  0  0  0  0  0
    5.4962   -2.0506   -3.9655 H   0  0  0  0  0  0  0  0  0  0  0  0
    5.3651   -3.6437   -3.3009 H   0  0  0  0  0  0  0  0  0  0  0  0
    3.3129   -3.1989   -4.5849 H   0  0  0  0  0  0  0  0  0  0  0  0
    2.9316   -3.3766   -2.8970 H   0  0  0  0  0  0  0  0  0  0  0  0
    7.2179    0.4702    1.6979 H   0  0  0  0  0  0  0  0  0  0  0  0
    5.6953   -3.2432    3.8213 H   0  0  0  0  0  0  0  0  0  0  0  0
    5.8313   -3.2903    2.1630 H   0  0  0  0  0  0  0  0  0  0  0  0
    6.4655    1.4318    3.3001 H   0  0  0  0  0  0  0  0  0  0  0  0
    2.5566    0.8506    1.5331 H   0  0  0  0  0  0  0  0  0  0  0  0
    8.9233   -1.0911    1.8065 H   0  0  0  0  0  0  0  0  0  0  0  0
    8.6031   -1.6651    0.0445 H   0  0  0  0  0  0  0  0  0  0  0  0
    8.2414   -2.4293    3.6813 H   0  0  0  0  0  0  0  0  0  0  0  0
    7.8424   -4.0974    3.1618 H   0  0  0  0  0  0  0  0  0  0  0  0
    8.0604   -2.9287    1.9757 H   0  0  0  0  0  0  0  0  0  0  0  0
    6.1158    3.8159    3.2894 H   0  0  0  0  0  0  0  0  0  0  0  0
    2.2693    3.2892    1.4808 H   0  0  0  0  0  0  0  0  0  0  0  0
    0.9750   -2.1070   -2.5622 H   0  0  0  0  0  0  0  0  0  0  0  0
    4.3646   -0.2626   -4.5127 H   0  0  0  0  0  0  0  0  0  0  0  0
    3.9914    4.7864    2.4522 H   0  0  0  0  0  0  0  0  0  0  0  0
    0.0588    0.1374   -2.0952 H   0  0  0  0  0  0  0  0  0  0  0  0
    3.5989    1.9210   -3.7251 H   0  0  0  0  0  0  0  0  0  0  0  0
    1.3739    2.1653   -2.6642 H   0  0  0  0  0  0  0  0  0  0  0  0
  1 13  2  0  0  0  0
  2  6  1  0  0  0  0
  2  8  1  0  0  0  0
  2 10  1  0  0  0  0
  3 12  1  0  0  0  0
  3 13  1  0  0  0  0
  4  5  1  0  0  0  0
  4  6  1  0  0  0  0
  4 29  1  1  0  0  0
  4  9  1  0  0  0  0
  5  7  1  0  0  0  0
  5 30  1  6  0  0  0
  5  3  1  0  0  0  0
  6 31  1  0  0  0  0
  6 32  1  0  0  0  0
  7  8  1  0  0  0  0
  7 33  1  0  0  0  0
  7 34  1  0  0  0  0
  8 35  1  0  0  0  0
  8 36  1  0  0  0  0
  9 14  1  0  0  0  0
  9 37  1  0  0  0  0
  9 38  1  0  0  0  0
 10 11  1  0  0  0  0
 10 39  1  0  0  0  0
 10 40  1  0  0  0  0
 11 16  1  0  0  0  0
 11 41  1  0  0  0  0
 11 42  1  0  0  0  0
 12 17  2  0  0  0  0
 12 18  1  0  0  0  0
 13 15  1  0  0  0  0
 14 19  2  0  0  0  0
 14 43  1  0  0  0  0
 15 20  1  0  0  0  0
 15 44  1  0  0  0  0
 15 45  1  0  0  0  0
 16 23  2  0  0  0  0
 16 24  1  0  0  0  0
 17 21  1  0  0  0  0
 17 46  1  0  0  0  0
 18 22  2  0  0  0  0
 18 47  1  0  0  0  0
 19 48  1  0  0  0  0
 19 49  1  0  0  0  0
 20 50  1  0  0  0  0
 20 51  1  0  0  0  0
 20 52  1  0  0  0  0
 21 25  2  0  0  0  0
 21 53  1  0  0  0  0
 22 25  1  0  0  0  0
 22 54  1  0  0  0  0
 23 26  1  0  0  0  0
 23 55  1  0  0  0  0
 24 27  2  0  0  0  0
 24 56  1  0  0  0  0
 25 57  1  0  0  0  0
 26 28  2  0  0  0  0
 26 58  1  0  0  0  0
 27 28  1  0  0  0  0
 27 59  1  0  0  0  0
 28 60  1  0  0  0  0
M  END
>  <DRUGBANK_ID>
DB09169

>  <COMMON_NAME>
3-Allylfentanyl

>  <CAS_NUMBER>
82208-84-2

>  <UNII>
V990X77S2I

$$$$
