
 OpenBabel10282417233D

 42 43  0  0  0  0  0  0  0  0999 V2000
    0.7524   -0.0752    0.1900 N   0  0  0  0  0  0  0  0  0  0  0  0
    0.1914   -1.0377   -0.6515 C   0  0  0  0  0  0  0  0  0  0  0  0
   -1.6214   -1.0878   -0.7129 S   0  0  0  0  0  0  0  0  0  0  0  0
   -2.1337    0.4229    0.1519 C   0  0  0  0  0  0  0  0  0  0  0  0
   -2.8950    0.2997    1.3240 C   0  0  0  0  0  0  0  0  0  0  0  0
   -3.2278    1.4277    2.0814 C   0  0  0  0  0  0  0  0  0  0  0  0
   -2.8042    2.6914    1.6694 C   0  0  0  0  0  0  0  0  0  0  0  0
   -2.0835    2.8289    0.4854 C   0  0  0  0  0  0  0  0  0  0  0  0
   -1.7753    1.7177   -0.3114 C   0  0  0  0  0  0  0  0  0  0  0  0
   -0.8678    1.8761   -1.3696 N   0  0  0  0  0  0  0  0  0  0  0  0
    0.8982   -1.9780   -1.3887 C   0  0  0  0  0  0  0  0  0  0  0  0
    0.1382   -3.0801   -2.1086 C   0  0  0  0  0  0  0  0  0  0  0  0
   -0.4923   -3.9943   -2.7059 N   0  0  0  0  0  0  0  0  0  0  0  0
    2.4182   -1.9780   -1.3887 C   0  0  0  0  0  0  0  0  0  0  0  0
    3.1782   -0.8760   -0.6687 C   0  0  0  0  0  0  0  0  0  0  0  0
    3.8087    0.0382   -0.0715 N   0  0  0  0  0  0  0  0  0  0  0  0
    3.1206   -2.9266   -2.1177 C   0  0  0  0  0  0  0  0  0  0  0  0
    2.5515   -3.8752   -2.9589 N   0  0  0  0  0  0  0  0  0  0  0  0
    4.9146   -2.9264   -1.9966 S   0  0  0  0  0  0  0  0  0  0  0  0
    5.4990   -4.3804   -2.9057 C   0  0  0  0  0  0  0  0  0  0  0  0
    5.0060   -5.7001   -2.7325 C   0  0  0  0  0  0  0  0  0  0  0  0
    4.0628   -6.0239   -1.7479 N   0  0  0  0  0  0  0  0  0  0  0  0
    5.5854   -6.7516   -3.4575 C   0  0  0  0  0  0  0  0  0  0  0  0
    6.6395   -6.5252   -4.3382 C   0  0  0  0  0  0  0  0  0  0  0  0
    7.1323   -5.2346   -4.5084 C   0  0  0  0  0  0  0  0  0  0  0  0
    6.5588   -4.1703   -3.8052 C   0  0  0  0  0  0  0  0  0  0  0  0
    0.1471    0.7241    0.3565 H   0  0  0  0  0  0  0  0  0  0  0  0
    1.6726    0.3171    0.0301 H   0  0  0  0  0  0  0  0  0  0  0  0
   -3.2197   -0.6789    1.6751 H   0  0  0  0  0  0  0  0  0  0  0  0
   -3.8014    1.3243    2.9983 H   0  0  0  0  0  0  0  0  0  0  0  0
   -3.0296    3.5664    2.2754 H   0  0  0  0  0  0  0  0  0  0  0  0
   -1.7443    3.8213    0.1901 H   0  0  0  0  0  0  0  0  0  0  0  0
   -0.8583    1.1091   -2.0351 H   0  0  0  0  0  0  0  0  0  0  0  0
   -0.7738    2.8013   -1.7808 H   0  0  0  0  0  0  0  0  0  0  0  0
    3.1598   -4.6183   -3.2782 H   0  0  0  0  0  0  0  0  0  0  0  0
    1.6167   -4.2503   -2.8594 H   0  0  0  0  0  0  0  0  0  0  0  0
    3.5416   -6.8868   -1.8698 H   0  0  0  0  0  0  0  0  0  0  0  0
    3.5236   -5.2509   -1.3743 H   0  0  0  0  0  0  0  0  0  0  0  0
    5.2194   -7.7685   -3.3272 H   0  0  0  0  0  0  0  0  0  0  0  0
    7.0899   -7.3584   -4.8721 H   0  0  0  0  0  0  0  0  0  0  0  0
    7.9731   -5.0605   -5.1745 H   0  0  0  0  0  0  0  0  0  0  0  0
    6.9702   -3.1726   -3.9517 H   0  0  0  0  0  0  0  0  0  0  0  0
  1  2  1  0  0  0  0
  1 27  1  0  0  0  0
  1 28  1  0  0  0  0
  2  3  1  0  0  0  0
  2 11  2  0  0  0  0
  3  4  1  0  0  0  0
  4  5  2  0  0  0  0
  4  9  1  0  0  0  0
  5  6  1  0  0  0  0
  5 29  1  0  0  0  0
  6  7  2  0  0  0  0
  6 30  1  0  0  0  0
  7  8  1  0  0  0  0
  7 31  1  0  0  0  0
  8  9  2  0  0  0  0
  8 32  1  0  0  0  0
  9 10  1  0  0  0  0
 10 33  1  0  0  0  0
 10 34  1  0  0  0  0
 11 12  1  0  0  0  0
 11 14  1  0  0  0  0
 12 13  3  0  0  0  0
 14 15  1  0  0  0  0
 14 17  2  0  0  0  0
 15 16  3  0  0  0  0
 17 18  1  0  0  0  0
 17 19  1  0  0  0  0
 18 35  1  0  0  0  0
 18 36  1  0  0  0  0
 19 20  1  0  0  0  0
 20 21  2  0  0  0  0
 20 26  1  0  0  0  0
 21 22  1  0  0  0  0
 21 23  1  0  0  0  0
 22 37  1  0  0  0  0
 22 38  1  0  0  0  0
 23 24  2  0  0  0  0
 23 39  1  0  0  0  0
 24 25  1  0  0  0  0
 24 40  1  0  0  0  0
 25 26  2  0  0  0  0
 25 41  1  0  0  0  0
 26 42  1  0  0  0  0
M  END
>  <DRUGBANK_ID>
DB17060

>  <COMMON_NAME>
U-0126

>  <CAS_NUMBER>
218601-62-8

>  <UNII>
8027P94HLL

>  <SYNONYMS>
1,4-diamino-2,3-dicyano-1,4-bis(2-aminophenylthio)butadiene; Butanedinitrile, bis(amino((2-aminophenyl)thio)methylene)-, (2z,3z)-

$$$$
