
 OpenBabel10282417173D

 69 73  0  0  0  0  0  0  0  0999 V2000
    1.5707   -0.6232   -0.5290 C   0  0  2  0  0  0  0  0  0  0  0  0
    1.5683    0.8584   -0.1851 C   0  0  1  0  0  0  0  0  0  0  0  0
    0.2577    1.6173   -0.3909 C   0  0  0  0  0  0  0  0  0  0  0  0
   -1.0105    0.7920   -0.7543 C   0  0  1  0  0  0  0  0  0  0  0  0
   -0.9697   -0.5836   -0.1165 C   0  0  2  0  0  0  0  0  0  0  0  0
    0.3129   -1.3916   -0.1339 C   0  0  2  0  0  0  0  0  0  0  0  0
   -2.1745    1.5142   -0.0405 C   0  0  0  0  0  0  0  0  0  0  0  0
   -3.4752    0.7162    0.0946 C   0  0  1  0  0  0  0  0  0  0  0  0
   -3.2776   -0.7097    0.6495 C   0  0  0  0  0  0  0  0  0  0  0  0
   -2.2393   -1.4447   -0.1877 C   0  0  0  0  0  0  0  0  0  0  0  0
    1.7126   -0.7500   -1.6125 H   0  0  0  0  0  0  0  0  0  0  0  0
    1.5274    1.0297    0.8897 H   0  0  0  0  0  0  0  0  0  0  0  0
   -1.1763    0.7720   -1.8389 H   0  0  0  0  0  0  0  0  0  0  0  0
    0.4035   -1.7598    1.3212 C   0  0  0  0  0  0  0  0  0  0  0  0
   -1.0223   -0.2388    0.9217 H   0  0  0  0  0  0  0  0  0  0  0  0
   -4.3751    1.4512    0.9598 N   0  0  0  0  0  0  0  0  0  0  0  0
   -4.7707    2.7316    0.6987 C   0  0  0  0  0  0  0  0  0  0  0  0
   -5.7405    3.2499    1.4755 O   0  0  0  0  0  0  0  0  0  0  0  0
   -4.2842    3.4319   -0.2107 O   0  0  0  0  0  0  0  0  0  0  0  0
   -6.4790    2.4822    2.4367 C   0  0  0  0  0  0  0  0  0  0  0  0
   -7.2227    1.3171    1.8026 C   0  0  0  0  0  0  0  0  0  0  0  0
    0.3735   -2.9920    1.8187 C   0  0  0  0  0  0  0  0  0  0  0  0
    0.4711   -3.1667    3.2537 C   0  0  0  0  0  0  0  0  0  0  0  0
   -0.2498   -2.3689    4.1421 C   0  0  0  0  0  0  0  0  0  0  0  0
   -0.1208   -2.6079    5.5010 C   0  0  0  0  0  0  0  0  0  0  0  0
    0.7240   -3.6284    5.9383 C   0  0  0  0  0  0  0  0  0  0  0  0
    1.4067   -4.3568    4.9619 C   0  0  0  0  0  0  0  0  0  0  0  0
    1.2966   -4.1546    3.6345 N   0  0  0  0  0  0  0  0  0  0  0  0
    0.8691   -3.9510    7.3525 C   0  0  0  0  0  0  0  0  0  0  0  0
   -0.2455   -4.3210    8.1175 C   0  0  0  0  0  0  0  0  0  0  0  0
   -0.0815   -4.6966    9.4442 C   0  0  0  0  0  0  0  0  0  0  0  0
    1.1744   -4.6992   10.0384 C   0  0  0  0  0  0  0  0  0  0  0  0
    2.2869   -4.3074    9.2980 C   0  0  0  0  0  0  0  0  0  0  0  0
    2.1342   -3.9355    7.9623 C   0  0  0  0  0  0  0  0  0  0  0  0
   -1.1512   -5.0738   10.1560 F   0  0  0  0  0  0  0  0  0  0  0  0
    2.8247   -1.1250    0.1993 C   0  0  2  0  0  0  0  0  0  0  0  0
    3.7099    0.0009    0.2505 O   0  0  0  0  0  0  0  0  0  0  0  0
    3.0411    1.1741   -0.0375 C   0  0  0  0  0  0  0  0  0  0  0  0
    3.5039   -2.2998   -0.4741 C   0  0  0  0  0  0  0  0  0  0  0  0
    3.5513    2.2727    0.1032 O   0  0  0  0  0  0  0  0  0  0  0  0
    0.0209    1.9514    0.6374 H   0  0  0  0  0  0  0  0  0  0  0  0
    0.3005    2.5537   -0.9480 H   0  0  0  0  0  0  0  0  0  0  0  0
    0.2191   -2.2826   -0.7683 H   0  0  0  0  0  0  0  0  0  0  0  0
   -2.3113    2.4752   -0.5364 H   0  0  0  0  0  0  0  0  0  0  0  0
   -1.8877    1.7705    0.9956 H   0  0  0  0  0  0  0  0  0  0  0  0
   -3.9314    0.6336   -0.8957 H   0  0  0  0  0  0  0  0  0  0  0  0
   -2.9258   -0.6746    1.6964 H   0  0  0  0  0  0  0  0  0  0  0  0
   -4.2154   -1.2732    0.6848 H   0  0  0  0  0  0  0  0  0  0  0  0
   -2.0644   -2.4328    0.2598 H   0  0  0  0  0  0  0  0  0  0  0  0
   -2.5967   -1.6223   -1.2077 H   0  0  0  0  0  0  0  0  0  0  0  0
    0.4984   -0.9057    2.0024 H   0  0  0  0  0  0  0  0  0  0  0  0
   -4.7149    0.9754    1.7827 H   0  0  0  0  0  0  0  0  0  0  0  0
   -5.8068    2.1794    3.2455 H   0  0  0  0  0  0  0  0  0  0  0  0
   -7.2118    3.1729    2.8665 H   0  0  0  0  0  0  0  0  0  0  0  0
   -6.5693    0.5931    1.3113 H   0  0  0  0  0  0  0  0  0  0  0  0
   -7.7848    0.7703    2.5611 H   0  0  0  0  0  0  0  0  0  0  0  0
   -7.8946    1.6761    1.0186 H   0  0  0  0  0  0  0  0  0  0  0  0
    0.3387   -3.8674    1.1860 H   0  0  0  0  0  0  0  0  0  0  0  0
   -0.9046   -1.5771    3.7917 H   0  0  0  0  0  0  0  0  0  0  0  0
   -0.6798   -2.0001    6.2077 H   0  0  0  0  0  0  0  0  0  0  0  0
    2.0719   -5.1723    5.2318 H   0  0  0  0  0  0  0  0  0  0  0  0
   -1.2417   -4.3455    7.6839 H   0  0  0  0  0  0  0  0  0  0  0  0
    1.2777   -5.0073   11.0731 H   0  0  0  0  0  0  0  0  0  0  0  0
    3.2735   -4.2960    9.7533 H   0  0  0  0  0  0  0  0  0  0  0  0
    3.0121   -3.6315    7.3931 H   0  0  0  0  0  0  0  0  0  0  0  0
    2.6468   -1.4322    1.2368 H   0  0  0  0  0  0  0  0  0  0  0  0
    2.8789   -3.1996   -0.4712 H   0  0  0  0  0  0  0  0  0  0  0  0
    3.7652   -2.0504   -1.5045 H   0  0  0  0  0  0  0  0  0  0  0  0
    4.4351   -2.5280    0.0547 H   0  0  0  0  0  0  0  0  0  0  0  0
  1  2  1  0  0  0  0
  1  6  1  0  0  0  0
  1 11  1  6  0  0  0
  1 36  1  0  0  0  0
  2  3  1  0  0  0  0
  2 12  1  6  0  0  0
  2 38  1  0  0  0  0
  3  4  1  0  0  0  0
  3 41  1  0  0  0  0
  3 42  1  0  0  0  0
  4  5  1  0  0  0  0
  4  7  1  0  0  0  0
  4 13  1  6  0  0  0
  5  6  1  0  0  0  0
  5 10  1  0  0  0  0
  5 15  1  1  0  0  0
  6 14  1  0  0  0  0
  6 43  1  6  0  0  0
  7  8  1  0  0  0  0
  7 44  1  0  0  0  0
  7 45  1  0  0  0  0
  8  9  1  0  0  0  0
  8 46  1  6  0  0  0
  8 16  1  0  0  0  0
  9 10  1  0  0  0  0
  9 47  1  0  0  0  0
  9 48  1  0  0  0  0
 10 49  1  0  0  0  0
 10 50  1  0  0  0  0
 14 22  2  0  0  0  0
 14 51  1  0  0  0  0
 16 17  1  0  0  0  0
 16 52  1  0  0  0  0
 17 18  1  0  0  0  0
 17 19  2  0  0  0  0
 18 20  1  0  0  0  0
 20 21  1  0  0  0  0
 20 53  1  0  0  0  0
 20 54  1  0  0  0  0
 21 55  1  0  0  0  0
 21 56  1  0  0  0  0
 21 57  1  0  0  0  0
 22 23  1  0  0  0  0
 22 58  1  0  0  0  0
 23 24  2  0  0  0  0
 23 28  1  0  0  0  0
 24 25  1  0  0  0  0
 24 59  1  0  0  0  0
 25 26  2  0  0  0  0
 25 60  1  0  0  0  0
 26 27  1  0  0  0  0
 26 29  1  0  0  0  0
 27 28  2  0  0  0  0
 27 61  1  0  0  0  0
 29 30  2  0  0  0  0
 29 34  1  0  0  0  0
 30 31  1  0  0  0  0
 30 62  1  0  0  0  0
 31 32  2  0  0  0  0
 31 35  1  0  0  0  0
 32 33  1  0  0  0  0
 32 63  1  0  0  0  0
 33 34  2  0  0  0  0
 33 64  1  0  0  0  0
 34 65  1  0  0  0  0
 36 37  1  0  0  0  0
 36 66  1  1  0  0  0
 36 39  1  0  0  0  0
 37 38  1  0  0  0  0
 38 40  2  0  0  0  0
 39 67  1  0  0  0  0
 39 68  1  0  0  0  0
 39 69  1  0  0  0  0
M  END
>  <DRUGBANK_ID>
DB09030

>  <SECONDARY_ACCESSION_NUMBERS>
DB05692

>  <COMMON_NAME>
Vorapaxar

>  <CAS_NUMBER>
618385-01-6

>  <UNII>
ZCE93644N2

>  <SYNONYMS>
[(1R,3aR,4aR,6R,8aR,9S,9aS)-9-{(E)-2-[5-(3-Fluorophényl)-2-pyridinyl]vinyl}-1-méthyl-3-oxododécahydronaphto[2,3-c]furan-6-yl]carbamate d'éthyle; Carbamic acid, [(1R,3aR,4aR,6R,8aR,9S,9aS)-9-[(1E)-2-[5-(3-fluorophenyl)-2- pyridinyl]ethenyl]dodecahydro-1-methyl-3-oxonaphtho[2,3-c]furan-6-yl]-, ethyl ester; Carbamic acid, N-[(1R,3aR,4aR,6R,8aR,9S,9aS)-9-[(E)-2-[5-(3-fluorophenyl)-2-pyridinyl]ethenyl]dodecahydro-1-methyl-3-oxonaphtho[2,3-c]furan-6-yl]-, ethyl ester; Ethyl N-[(3R,3aS,4S,4aR,7R,8aR,9aR)-4-[(E)-2-[5-(3-fluorophenyl)-2-pyridyl]vinyl]-3-methyl-1-oxo-3a,4,4a,5,6,7,8,8a,9,9a-decahydro-3H-benzo[f]isobenzofuran-7-yl]carbamate; Vorapaxar

$$$$
