A75
 OpenBabel10282417163D

 40 42  0  0  0  0  0  0  0  0999 V2000
    2.5378   -0.6932   -0.3191 C   0  0  0  0  0  0  0  0  0  0  0  0
    1.2865   -1.4996    0.0440 C   0  0  0  0  0  0  0  0  0  0  0  0
   -0.0041   -0.7109    0.0343 C   0  0  0  0  0  0  0  0  0  0  0  0
    0.0197    0.6860    0.0491 C   0  0  0  0  0  0  0  0  0  0  0  0
    1.3233    1.4485   -0.0596 C   0  0  0  0  0  0  0  0  0  0  0  0
    2.5236    0.6481    0.3823 C   0  0  0  0  0  0  0  0  0  0  0  0
   -1.2481   -1.3626    0.0784 C   0  0  0  0  0  0  0  0  0  0  0  0
   -2.4689   -0.6263    0.1492 C   0  0  0  0  0  0  0  0  0  0  0  0
   -2.4786    0.8011    0.2077 C   0  0  0  0  0  0  0  0  0  0  0  0
   -1.1991    1.4109    0.0805 C   0  0  0  0  0  0  0  0  0  0  0  0
   -1.0826    2.7983   -0.4088 C   0  0  0  0  0  0  0  0  0  0  0  0
   -1.9774    2.9032   -1.3948 O   0  0  0  0  0  0  0  0  0  0  0  0
   -0.2186    3.6475   -0.1892 O   0  0  0  0  0  0  0  0  0  0  0  0
   -3.7995    1.5592    0.0818 N   0  0  0  0  0  0  0  0  0  0  0  0
   -4.2504    3.3270    0.2989 S   0  0  0  0  0  0  0  0  0  0  0  0
   -4.9057    3.7029   -1.3756 C   0  0  0  0  0  0  0  0  0  0  0  0
   -5.3544    3.4261    1.2244 O   0  0  0  0  0  0  0  0  0  0  0  0
   -3.0913    4.1681    0.4650 O   0  0  0  0  0  0  0  0  0  0  0  0
   -5.5228    2.7143   -2.1541 C   0  0  0  0  0  0  0  0  0  0  0  0
   -6.1961    3.0722   -3.3325 C   0  0  0  0  0  0  0  0  0  0  0  0
   -6.2407    4.4051   -3.7411 C   0  0  0  0  0  0  0  0  0  0  0  0
   -5.5461    5.3707   -3.0151 C   0  0  0  0  0  0  0  0  0  0  0  0
   -4.8055    5.0057   -1.8831 C   0  0  0  0  0  0  0  0  0  0  0  0
    2.5965   -0.5465   -1.4053 H   0  0  0  0  0  0  0  0  0  0  0  0
    3.4309   -1.2492   -0.0163 H   0  0  0  0  0  0  0  0  0  0  0  0
    1.2164   -2.3501   -0.6420 H   0  0  0  0  0  0  0  0  0  0  0  0
    1.4140   -1.8806    1.0641 H   0  0  0  0  0  0  0  0  0  0  0  0
    1.2941    2.3036    0.6213 H   0  0  0  0  0  0  0  0  0  0  0  0
    1.4483    1.8163   -1.0885 H   0  0  0  0  0  0  0  0  0  0  0  0
    2.4606    0.5016    1.4672 H   0  0  0  0  0  0  0  0  0  0  0  0
    3.4354    1.2195    0.1794 H   0  0  0  0  0  0  0  0  0  0  0  0
   -1.2565   -2.4580    0.0682 H   0  0  0  0  0  0  0  0  0  0  0  0
   -3.3822   -1.2277    0.1312 H   0  0  0  0  0  0  0  0  0  0  0  0
   -2.7344    2.4174   -1.0218 H   0  0  0  0  0  0  0  0  0  0  0  0
   -4.6426    0.9871    0.2157 H   0  0  0  0  0  0  0  0  0  0  0  0
   -5.4944    1.6662   -1.8812 H   0  0  0  0  0  0  0  0  0  0  0  0
   -6.7245    2.3196   -3.9155 H   0  0  0  0  0  0  0  0  0  0  0  0
   -6.8017    4.6918   -4.6293 H   0  0  0  0  0  0  0  0  0  0  0  0
   -5.6079    6.4170   -3.3098 H   0  0  0  0  0  0  0  0  0  0  0  0
   -4.1654    5.7480   -1.4115 H   0  0  0  0  0  0  0  0  0  0  0  0
  1  2  1  0  0  0  0
  1  6  1  0  0  0  0
  1 24  1  0  0  0  0
  1 25  1  0  0  0  0
  2  3  1  0  0  0  0
  2 26  1  0  0  0  0
  2 27  1  0  0  0  0
  3  4  1  0  0  0  0
  3  7  2  0  0  0  0
  4  5  1  0  0  0  0
  4 10  2  0  0  0  0
  5  6  1  0  0  0  0
  5 28  1  0  0  0  0
  5 29  1  0  0  0  0
  6 30  1  0  0  0  0
  6 31  1  0  0  0  0
  7  8  1  0  0  0  0
  7 32  1  0  0  0  0
  8  9  2  0  0  0  0
  8 33  1  0  0  0  0
  9 10  1  0  0  0  0
  9 14  1  0  0  0  0
 10 11  1  0  0  0  0
 11 12  1  0  0  0  0
 11 13  2  0  0  0  0
 12 34  1  0  0  0  0
 14 15  1  0  0  0  0
 14 35  1  0  0  0  0
 15 16  1  0  0  0  0
 15 17  2  0  0  0  0
 15 18  2  0  0  0  0
 16 19  1  0  0  0  0
 16 23  2  0  0  0  0
 19 20  2  0  0  0  0
 19 36  1  0  0  0  0
 20 21  1  0  0  0  0
 20 37  1  0  0  0  0
 21 22  2  0  0  0  0
 21 38  1  0  0  0  0
 22 23  1  0  0  0  0
 22 39  1  0  0  0  0
 23 40  1  0  0  0  0
M  END
>  <DRUGBANK_ID>
DB07322

>  <COMMON_NAME>
2-[(PHENYLSULFONYL)AMINO]-5,6,7,8-TETRAHYDRONAPHTHALENE-1-CARBOXYLIC ACID

$$$$
