
 OpenBabel10282417233D

 47 50  0  0  0  0  0  0  0  0999 V2000
    0.9108   -1.4160    0.0023 C   0  0  0  0  0  0  0  0  0  0  0  0
    2.1241   -0.6927   -0.0035 N   0  0  0  0  0  0  0  0  0  0  0  0
    2.1557    0.7092    0.0084 C   0  0  0  0  0  0  0  0  0  0  0  0
    0.8488    1.4225   -0.0077 C   0  0  0  0  0  0  0  0  0  0  0  0
   -0.2804    0.7146   -0.0411 C   0  0  0  0  0  0  0  0  0  0  0  0
   -0.2471   -0.7328    0.0168 C   0  0  0  0  0  0  0  0  0  0  0  0
   -1.5976    1.0839   -0.1179 N   0  0  0  0  0  0  0  0  0  0  0  0
   -2.4220   -0.0102    0.1352 N   0  0  0  0  0  0  0  0  0  0  0  0
   -1.6704   -1.1961    0.0965 C   0  0  0  0  0  0  0  0  0  0  0  0
   -3.8263    0.0271    0.0538 C   0  0  0  0  0  0  0  0  0  0  0  0
   -6.6232   -0.2491   -0.0911 C   0  0  0  0  0  0  0  0  0  0  0  0
   -5.9202   -0.8628    0.9387 C   0  0  0  0  0  0  0  0  0  0  0  0
   -4.5387   -0.6899    1.0319 C   0  0  0  0  0  0  0  0  0  0  0  0
   -4.5453    0.6549   -0.9722 C   0  0  0  0  0  0  0  0  0  0  0  0
   -5.9440    0.5492   -1.0139 C   0  0  0  0  0  0  0  0  0  0  0  0
    0.9167   -2.8980    0.0216 C   0  0  0  0  0  0  0  0  0  0  0  0
    1.4967   -3.5796    1.0907 C   0  0  0  0  0  0  0  0  0  0  0  0
    1.5131   -4.9643    1.1045 C   0  0  0  0  0  0  0  0  0  0  0  0
    1.0213   -5.6792    0.0117 C   0  0  0  0  0  0  0  0  0  0  0  0
    0.4277   -5.0556   -1.0954 C   0  0  0  0  0  0  0  0  0  0  0  0
    0.3401   -3.6499   -1.0246 C   0  0  0  0  0  0  0  0  0  0  0  0
   -0.0444   -5.7724   -2.1874 N   0  0  0  0  0  0  0  0  0  0  0  0
    0.1292   -7.2127   -2.3399 C   0  0  0  0  0  0  0  0  0  0  0  0
   -0.6617   -5.0799   -3.3159 C   0  0  0  0  0  0  0  0  0  0  0  0
    3.4163   -1.3779   -0.0384 C   0  0  0  0  0  0  0  0  0  0  0  0
    3.1817    1.3869    0.0190 O   0  0  0  0  0  0  0  0  0  0  0  0
   -2.0770   -2.3511    0.0910 O   0  0  0  0  0  0  0  0  0  0  0  0
   -3.7762    1.4330   -2.3112 Cl  0  0  0  0  0  0  0  0  0  0  0  0
    0.8887    2.5023   -0.0231 H   0  0  0  0  0  0  0  0  0  0  0  0
   -1.9162    2.0328    0.0494 H   0  0  0  0  0  0  0  0  0  0  0  0
   -7.6966   -0.4002   -0.1804 H   0  0  0  0  0  0  0  0  0  0  0  0
   -6.4406   -1.4830    1.6651 H   0  0  0  0  0  0  0  0  0  0  0  0
   -4.0115   -1.1233    1.8804 H   0  0  0  0  0  0  0  0  0  0  0  0
   -6.5113    1.0578   -1.7897 H   0  0  0  0  0  0  0  0  0  0  0  0
    1.9421   -3.0407    1.9209 H   0  0  0  0  0  0  0  0  0  0  0  0
    1.9123   -5.5004    1.9598 H   0  0  0  0  0  0  0  0  0  0  0  0
    1.1155   -6.7552    0.0776 H   0  0  0  0  0  0  0  0  0  0  0  0
   -0.2145   -3.1084   -1.7875 H   0  0  0  0  0  0  0  0  0  0  0  0
   -0.8471   -7.6922   -2.4631 H   0  0  0  0  0  0  0  0  0  0  0  0
    0.7399   -7.4281   -3.2234 H   0  0  0  0  0  0  0  0  0  0  0  0
    0.6157   -7.7177   -1.5050 H   0  0  0  0  0  0  0  0  0  0  0  0
   -1.5819   -4.5737   -3.0045 H   0  0  0  0  0  0  0  0  0  0  0  0
    0.0254   -4.3478   -3.7562 H   0  0  0  0  0  0  0  0  0  0  0  0
   -0.9346   -5.7791   -4.1148 H   0  0  0  0  0  0  0  0  0  0  0  0
    3.5545   -1.9682    0.8704 H   0  0  0  0  0  0  0  0  0  0  0  0
    3.4721   -2.0176   -0.9240 H   0  0  0  0  0  0  0  0  0  0  0  0
    4.2545   -0.6758   -0.0731 H   0  0  0  0  0  0  0  0  0  0  0  0
  1  2  1  0  0  0  0
  1  6  2  0  0  0  0
  1 16  1  0  0  0  0
  2  3  1  0  0  0  0
  2 25  1  0  0  0  0
  3  4  1  0  0  0  0
  3 26  2  0  0  0  0
  4  5  2  0  0  0  0
  4 29  1  0  0  0  0
  5  7  1  0  0  0  0
  6  5  1  0  0  0  0
  6  9  1  0  0  0  0
  7  8  1  0  0  0  0
  7 30  1  0  0  0  0
  8  9  1  0  0  0  0
  8 10  1  0  0  0  0
  9 27  2  0  0  0  0
 10 14  1  0  0  0  0
 11 12  2  0  0  0  0
 11 15  1  0  0  0  0
 11 31  1  0  0  0  0
 12 13  1  0  0  0  0
 12 32  1  0  0  0  0
 13 10  2  0  0  0  0
 13 33  1  0  0  0  0
 14 15  2  0  0  0  0
 14 28  1  0  0  0  0
 15 34  1  0  0  0  0
 16 17  2  0  0  0  0
 16 21  1  0  0  0  0
 17 18  1  0  0  0  0
 17 35  1  0  0  0  0
 18 19  2  0  0  0  0
 18 36  1  0  0  0  0
 19 20  1  0  0  0  0
 19 37  1  0  0  0  0
 20 21  2  0  0  0  0
 20 22  1  0  0  0  0
 21 38  1  0  0  0  0
 22 23  1  0  0  0  0
 22 24  1  0  0  0  0
 23 39  1  0  0  0  0
 23 40  1  0  0  0  0
 23 41  1  0  0  0  0
 24 42  1  0  0  0  0
 24 43  1  0  0  0  0
 24 44  1  0  0  0  0
 25 45  1  0  0  0  0
 25 46  1  0  0  0  0
 25 47  1  0  0  0  0
M  END
>  <DRUGBANK_ID>
DB16869

>  <COMMON_NAME>
Setanaxib

>  <CAS_NUMBER>
1218942-37-0

>  <UNII>
45II35329V

>  <SYNONYMS>
2-(2-chlorophenyl)-4-[3-(dimethylamino)phenyl]-5-methyl-1H-pyrazolo[4,3-C]pyridine-3,6(2H,5H)-dione; Setanaxib

$$$$
