
 OpenBabel10282417213D

 62 65  0  0  0  0  0  0  0  0999 V2000
    1.7590    0.8768   -0.7532 C   0  0  0  0  0  0  0  0  0  0  0  0
    0.3728    0.4202   -0.5175 N   0  0  0  0  0  0  0  0  0  0  0  0
   -0.4675    1.4166   -0.0614 C   0  0  0  0  0  0  0  0  0  0  0  0
   -1.7192    1.0380    0.0377 N   0  0  0  0  0  0  0  0  0  0  0  0
   -1.7441   -0.2471   -0.4186 C   0  0  0  0  0  0  0  0  0  0  0  0
   -0.4726   -0.7480   -0.4817 C   0  0  0  0  0  0  0  0  0  0  0  0
   -0.3394   -2.2569   -0.4097 C   0  0  0  0  0  0  0  0  0  0  0  0
   -0.5203   -2.9774    1.3246 N   0  3  0  0  0  0  0  0  0  0  0  0
   -1.9984   -3.1587    1.4991 C   0  0  0  0  0  0  0  0  0  0  0  0
   -0.1757   -4.4021    1.6216 C   0  0  0  0  0  0  0  0  0  0  0  0
    0.1657   -2.2786    2.7995 C   0  0  0  0  0  0  0  0  0  0  0  0
    1.6908   -2.4508    3.1325 C   0  0  0  0  0  0  0  0  0  0  0  0
    2.6597   -1.5111    3.1935 C   0  0  0  0  0  0  0  0  0  0  0  0
    4.1745   -1.6673    2.9688 C   0  0  0  0  0  0  0  0  0  0  0  0
    4.7890   -0.6014    2.8307 O   0  0  0  0  0  0  0  0  0  0  0  0
    4.8610   -2.8543    2.8154 N   0  0  0  0  0  0  0  0  0  0  0  0
    4.4175   -4.1861    2.6997 C   0  0  0  0  0  0  0  0  0  0  0  0
    4.7267   -5.1595    3.5183 N   0  0  0  0  0  0  0  0  0  0  0  0
    3.9136   -6.2840    3.4469 C   0  0  0  0  0  0  0  0  0  0  0  0
    2.8119   -6.5268    2.6052 C   0  0  0  0  0  0  0  0  0  0  0  0
    1.8133   -7.4138    2.8475 N   0  0  0  0  0  0  0  0  0  0  0  0
    0.8142   -7.5073    1.9559 C   0  0  0  0  0  0  0  0  0  0  0  0
    0.7496   -6.8138    0.7933 N   0  0  0  0  0  0  0  0  0  0  0  0
    1.7354   -5.8894    0.5645 C   0  0  0  0  0  0  0  0  0  0  0  0
    1.4644   -4.7948   -0.4029 N   0  0  0  0  0  0  0  0  0  0  0  0
    2.1538   -3.5490   -0.4642 C   0  0  0  0  0  0  0  0  0  0  0  0
    3.3275   -3.4986   -1.1472 C   0  0  0  0  0  0  0  0  0  0  0  0
    4.2428   -2.4316   -0.9458 C   0  0  0  0  0  0  0  0  0  0  0  0
    6.0471   -2.8501   -1.2615 Br  0  0  0  0  0  0  0  0  0  0  0  0
    3.9451   -1.2704   -0.2408 C   0  0  0  0  0  0  0  0  0  0  0  0
    4.9488    0.1148   -0.1500 Cl  0  0  0  0  0  0  0  0  0  0  0  0
    2.7717   -1.2751    0.4206 C   0  0  0  0  0  0  0  0  0  0  0  0
    1.9814   -2.3886    0.3299 C   0  0  0  0  0  0  0  0  0  0  0  0
    2.7681   -5.6755    1.5353 C   0  0  0  0  0  0  0  0  0  0  0  0
    3.5785   -4.5180    1.6844 C   0  0  0  0  0  0  0  0  0  0  0  0
   -2.9823   -1.0348   -0.4625 N   0  3  0  0  0  0  0  0  0  0  0  0
   -2.8629   -2.1896   -1.0032 O   0  5  0  0  0  0  0  0  0  0  0  0
   -3.9465   -0.6645    0.1298 O   0  0  0  0  0  0  0  0  0  0  0  0
    2.3156    0.9413    0.1865 H   0  0  0  0  0  0  0  0  0  0  0  0
    2.2850    0.3323   -1.5422 H   0  0  0  0  0  0  0  0  0  0  0  0
    1.8463    1.9574   -0.9414 H   0  0  0  0  0  0  0  0  0  0  0  0
   -0.0701    2.3973    0.1703 H   0  0  0  0  0  0  0  0  0  0  0  0
   -0.8591   -2.9775   -1.0668 H   0  0  0  0  0  0  0  0  0  0  0  0
    0.5619   -2.3404   -1.0239 H   0  0  0  0  0  0  0  0  0  0  0  0
   -2.3289   -3.7683    0.6467 H   0  0  0  0  0  0  0  0  0  0  0  0
   -2.1929   -3.7263    2.4132 H   0  0  0  0  0  0  0  0  0  0  0  0
   -2.3989   -2.1719    1.5992 H   0  0  0  0  0  0  0  0  0  0  0  0
    0.8759   -4.3628    1.7696 H   0  0  0  0  0  0  0  0  0  0  0  0
   -0.4943   -4.7451    2.6190 H   0  0  0  0  0  0  0  0  0  0  0  0
   -0.6464   -5.0567    0.8904 H   0  0  0  0  0  0  0  0  0  0  0  0
   -0.1964   -1.2600    2.8057 H   0  0  0  0  0  0  0  0  0  0  0  0
   -0.3155   -2.8863    3.5761 H   0  0  0  0  0  0  0  0  0  0  0  0
    2.0373   -3.4651    3.2597 H   0  0  0  0  0  0  0  0  0  0  0  0
    2.3754   -0.4553    3.1116 H   0  0  0  0  0  0  0  0  0  0  0  0
    5.8641   -2.7195    2.7125 H   0  0  0  0  0  0  0  0  0  0  0  0
    4.1870   -7.0482    4.1595 H   0  0  0  0  0  0  0  0  0  0  0  0
   -0.0330   -8.1400    2.2492 H   0  0  0  0  0  0  0  0  0  0  0  0
    0.4797   -4.8267   -0.6812 H   0  0  0  0  0  0  0  0  0  0  0  0
    3.6068   -4.4267   -1.6173 H   0  0  0  0  0  0  0  0  0  0  0  0
    2.3638   -0.5038    1.0799 H   0  0  0  0  0  0  0  0  0  0  0  0
    1.1655   -2.1063    0.9458 H   0  0  0  0  0  0  0  0  0  0  0  0
    3.4783   -3.6688    1.0953 H   0  0  0  0  0  0  0  0  0  0  0  0
  1  2  1  0  0  0  0
  1 39  1  0  0  0  0
  1 40  1  0  0  0  0
  1 41  1  0  0  0  0
  2  3  1  0  0  0  0
  2  6  1  0  0  0  0
  3  4  2  0  0  0  0
  3 42  1  0  0  0  0
  4  5  1  0  0  0  0
  5  6  2  0  0  0  0
  5 36  1  0  0  0  0
  6  7  1  0  0  0  0
  7  8  1  0  0  0  0
  7 43  1  0  0  0  0
  7 44  1  0  0  0  0
  8  9  1  0  0  0  0
  8 10  1  0  0  0  0
  8 11  1  0  0  0  0
  9 45  1  0  0  0  0
  9 46  1  0  0  0  0
  9 47  1  0  0  0  0
 10 48  1  0  0  0  0
 10 49  1  0  0  0  0
 10 50  1  0  0  0  0
 11 12  1  0  0  0  0
 11 51  1  0  0  0  0
 11 52  1  0  0  0  0
 12 13  2  0  0  0  0
 12 53  1  0  0  0  0
 13 14  1  0  0  0  0
 13 54  1  0  0  0  0
 14 15  2  0  0  0  0
 14 16  1  0  0  0  0
 16 17  1  0  0  0  0
 16 55  1  0  0  0  0
 17 18  2  0  0  0  0
 17 35  1  0  0  0  0
 18 19  1  0  0  0  0
 19 20  2  0  0  0  0
 19 56  1  0  0  0  0
 20 21  1  0  0  0  0
 20 34  1  0  0  0  0
 21 22  2  0  0  0  0
 22 23  1  0  0  0  0
 22 57  1  0  0  0  0
 23 24  2  0  0  0  0
 24 25  1  0  0  0  0
 24 34  1  0  0  0  0
 25 26  1  0  0  0  0
 25 58  1  0  0  0  0
 26 27  2  0  0  0  0
 26 33  1  0  0  0  0
 27 28  1  0  0  0  0
 27 59  1  0  0  0  0
 28 29  1  0  0  0  0
 28 30  2  0  0  0  0
 30 31  1  0  0  0  0
 30 32  1  0  0  0  0
 32 33  2  0  0  0  0
 32 60  1  0  0  0  0
 33 61  1  0  0  0  0
 34 35  2  0  0  0  0
 35 62  1  0  0  0  0
 36 37  1  0  0  0  0
 36 38  2  0  0  0  0
M  CHG  3   8   1  36   1  37  -1
M  END
>  <DRUGBANK_ID>
DB14944

>  <COMMON_NAME>
Tarloxotinib

>  <CAS_NUMBER>
1636938-13-0

>  <UNII>
H8768UL06V

$$$$
