
 OpenBabel10282417233D

 45 44  0  0  0  0  0  0  0  0999 V2000
    1.1124   -0.3790   -0.0047 O   0  0  0  0  0  0  0  0  0  0  0  0
    0.6987    0.8882    0.4673 C   0  0  0  0  0  0  0  0  0  0  0  0
    1.3736    1.1535    1.8432 C   0  0  0  0  0  0  0  0  0  0  0  0
    2.7760    1.5549    1.7995 N   0  0  0  0  0  0  0  0  0  0  0  0
    3.3979    2.7585    2.0945 C   0  0  0  0  0  0  0  0  0  0  0  0
    4.6189    2.7529    2.1116 O   0  0  0  0  0  0  0  0  0  0  0  0
    2.6619    4.0904    2.4265 C   0  0  0  0  0  0  0  0  0  0  0  0
    1.9068    4.8012    1.2831 C   0  0  0  0  0  0  0  0  0  0  0  0
    0.7759    3.9598    0.8143 C   0  0  0  0  0  0  0  0  0  0  0  0
   -0.1728    3.7230    1.9506 C   0  0  0  0  0  0  0  0  0  0  0  0
   -1.0139    4.9235    2.2648 C   0  0  0  0  0  0  0  0  0  0  0  0
   -2.0709    5.0695    1.2313 C   0  0  0  0  0  0  0  0  0  0  0  0
   -2.9730    3.8171    1.2108 C   0  0  0  0  0  0  0  0  0  0  0  0
   -3.8311    3.5180    2.4757 C   0  0  0  0  0  0  0  0  0  0  0  0
   -5.0436    3.6377    2.3933 O   0  0  0  0  0  0  0  0  0  0  0  0
   -3.3309    3.0987    3.6989 N   0  0  0  0  0  0  0  0  0  0  0  0
   -1.9881    2.7026    4.1114 C   0  0  0  0  0  0  0  0  0  0  0  0
   -1.2603    3.6749    5.0828 C   0  0  0  0  0  0  0  0  0  0  0  0
   -1.7826    3.4921    6.3843 O   0  0  0  0  0  0  0  0  0  0  0  0
    2.0769   -0.2922   -0.1025 H   0  0  0  0  0  0  0  0  0  0  0  0
    0.9497    1.5746   -0.3481 H   0  0  0  0  0  0  0  0  0  0  0  0
   -0.3971    0.9137    0.5443 H   0  0  0  0  0  0  0  0  0  0  0  0
    0.9374    1.9450    2.3899 H   0  0  0  0  0  0  0  0  0  0  0  0
    1.1937    0.3191    2.5262 H   0  0  0  0  0  0  0  0  0  0  0  0
    3.4483    0.8063    1.6744 H   0  0  0  0  0  0  0  0  0  0  0  0
    2.0676    3.9552    3.3378 H   0  0  0  0  0  0  0  0  0  0  0  0
    3.4238    4.8122    2.7432 H   0  0  0  0  0  0  0  0  0  0  0  0
    1.5117    5.7723    1.5952 H   0  0  0  0  0  0  0  0  0  0  0  0
    2.5600    4.9656    0.4266 H   0  0  0  0  0  0  0  0  0  0  0  0
    0.2278    4.2516   -0.0810 H   0  0  0  0  0  0  0  0  0  0  0  0
    1.2996    3.0888    0.4827 H   0  0  0  0  0  0  0  0  0  0  0  0
   -0.7227    2.8316    1.6429 H   0  0  0  0  0  0  0  0  0  0  0  0
    0.2920    3.4791    2.9078 H   0  0  0  0  0  0  0  0  0  0  0  0
   -1.6098    4.8310    3.1476 H   0  0  0  0  0  0  0  0  0  0  0  0
   -0.3801    5.7765    2.5053 H   0  0  0  0  0  0  0  0  0  0  0  0
   -2.6451    5.9604    1.4842 H   0  0  0  0  0  0  0  0  0  0  0  0
   -1.5900    5.2434    0.2642 H   0  0  0  0  0  0  0  0  0  0  0  0
   -3.6677    3.9922    0.3811 H   0  0  0  0  0  0  0  0  0  0  0  0
   -2.4575    2.9004    0.9011 H   0  0  0  0  0  0  0  0  0  0  0  0
   -4.0735    2.9069    4.3619 H   0  0  0  0  0  0  0  0  0  0  0  0
   -1.9474    1.6784    4.4914 H   0  0  0  0  0  0  0  0  0  0  0  0
   -1.5018    2.5806    3.1817 H   0  0  0  0  0  0  0  0  0  0  0  0
   -0.1758    3.4984    5.0923 H   0  0  0  0  0  0  0  0  0  0  0  0
   -1.3796    4.7467    4.8927 H   0  0  0  0  0  0  0  0  0  0  0  0
   -2.7229    3.7280    6.2975 H   0  0  0  0  0  0  0  0  0  0  0  0
  1  2  1  0  0  0  0
  1 20  1  0  0  0  0
  2  3  1  0  0  0  0
  2 21  1  0  0  0  0
  2 22  1  0  0  0  0
  3  4  1  0  0  0  0
  3 23  1  0  0  0  0
  3 24  1  0  0  0  0
  4  5  1  0  0  0  0
  4 25  1  0  0  0  0
  5  6  2  0  0  0  0
  5  7  1  0  0  0  0
  7  8  1  0  0  0  0
  7 26  1  0  0  0  0
  7 27  1  0  0  0  0
  8  9  1  0  0  0  0
  8 28  1  0  0  0  0
  8 29  1  0  0  0  0
  9 10  1  0  0  0  0
  9 30  1  0  0  0  0
  9 31  1  0  0  0  0
 10 11  1  0  0  0  0
 10 32  1  0  0  0  0
 10 33  1  0  0  0  0
 11 12  1  0  0  0  0
 11 34  1  0  0  0  0
 11 35  1  0  0  0  0
 12 13  1  0  0  0  0
 12 36  1  0  0  0  0
 12 37  1  0  0  0  0
 13 14  1  0  0  0  0
 13 38  1  0  0  0  0
 13 39  1  0  0  0  0
 14 15  2  0  0  0  0
 14 16  1  0  0  0  0
 16 17  1  0  0  0  0
 16 40  1  0  0  0  0
 17 18  1  0  0  0  0
 17 41  1  0  0  0  0
 17 42  1  0  0  0  0
 18 19  1  0  0  0  0
 18 43  1  0  0  0  0
 18 44  1  0  0  0  0
 19 45  1  0  0  0  0
M  END
>  <DRUGBANK_ID>
DB16083

>  <COMMON_NAME>
Adelmidrol

>  <CAS_NUMBER>
1675-66-7

>  <UNII>
1BUC3685QU

>  <SYNONYMS>
Adelmidrol

$$$$
