
 OpenBabel10282417153D

 55 59  0  0  0  0  0  0  0  0999 V2000
    2.5209   -0.2494    0.7969 C   0  0  0  0  0  0  0  0  0  0  0  0
    1.1808   -0.0737    0.3262 C   0  0  0  0  0  0  0  0  0  0  0  0
    0.5069   -1.2672    0.1211 C   0  0  0  0  0  0  0  0  0  0  0  0
   -0.8345   -1.1940   -0.0363 C   0  0  0  0  0  0  0  0  0  0  0  0
   -1.4104    0.0760   -0.0436 C   0  0  0  0  0  0  0  0  0  0  0  0
   -0.6496    1.2817   -0.0514 C   0  0  0  0  0  0  0  0  0  0  0  0
    0.7412    1.2178    0.0223 C   0  0  0  0  0  0  0  0  0  0  0  0
    1.7261    2.4397   -0.1235 C   0  0  0  0  0  0  0  0  0  0  0  0
    1.2044    3.5536    0.0410 O   0  0  0  0  0  0  0  0  0  0  0  0
    3.1735    2.4555   -0.3535 N   0  0  0  0  0  0  0  0  0  0  0  0
    4.2389    1.4640   -0.6404 C   0  0  0  0  0  0  0  0  0  0  0  0
    4.0913    0.3748   -1.5591 C   0  0  0  0  0  0  0  0  0  0  0  0
    4.6568   -0.9251   -1.2909 C   0  0  0  0  0  0  0  0  0  0  0  0
    5.4274   -1.1611   -0.1390 C   0  0  0  0  0  0  0  0  0  0  0  0
    5.5282   -0.0672    0.7467 C   0  0  0  0  0  0  0  0  0  0  0  0
    5.1438    1.2659    0.4148 C   0  0  0  0  0  0  0  0  0  0  0  0
    5.2020   -0.3128    2.4769 Cl  0  0  0  0  0  0  0  0  0  0  0  0
    6.0141   -2.5635    0.0683 C   0  0  0  0  0  0  0  0  0  0  0  0
    5.7027   -3.4724   -0.6559 O   0  0  0  0  0  0  0  0  0  0  0  0
    7.1380   -2.5853    0.9124 N   0  0  0  0  0  0  0  0  0  0  0  0
    8.4244   -2.9886    0.3555 C   0  0  0  0  0  0  0  0  0  0  0  0
    9.4987   -1.9675    0.6441 C   0  0  0  0  0  0  0  0  0  0  0  0
   10.7446   -1.8495    0.0475 C   0  0  0  0  0  0  0  0  0  0  0  0
   11.4028   -0.7240    0.5956 C   0  0  0  0  0  0  0  0  0  0  0  0
   10.5576   -0.1734    1.5204 C   0  0  0  0  0  0  0  0  0  0  0  0
    9.4500   -0.9774    1.6025 N   0  0  0  0  0  0  0  0  0  0  0  0
    8.3620   -0.6199    2.4852 C   0  0  0  0  0  0  0  0  0  0  0  0
    7.6675   -1.7964    3.1137 C   0  0  0  0  0  0  0  0  0  0  0  0
    7.0174   -2.7566    2.3144 C   0  0  0  0  0  0  0  0  0  0  0  0
    6.1615   -3.6974    2.9010 C   0  0  0  0  0  0  0  0  0  0  0  0
    5.9572   -3.6771    4.2862 C   0  0  0  0  0  0  0  0  0  0  0  0
    6.5602   -2.6965    5.0742 C   0  0  0  0  0  0  0  0  0  0  0  0
    7.4037   -1.7574    4.4903 C   0  0  0  0  0  0  0  0  0  0  0  0
   -2.7465    0.1310   -0.0522 F   0  0  0  0  0  0  0  0  0  0  0  0
    2.7901    0.2057   -0.0945 H   0  0  0  0  0  0  0  0  0  0  0  0
    2.8205    0.3817    1.6244 H   0  0  0  0  0  0  0  0  0  0  0  0
    2.9618   -1.2325    0.6975 H   0  0  0  0  0  0  0  0  0  0  0  0
    1.0636   -2.2042    0.1279 H   0  0  0  0  0  0  0  0  0  0  0  0
   -1.3962   -2.1169   -0.0855 H   0  0  0  0  0  0  0  0  0  0  0  0
   -1.1786    2.2291   -0.0924 H   0  0  0  0  0  0  0  0  0  0  0  0
    3.5437    3.3328    0.0184 H   0  0  0  0  0  0  0  0  0  0  0  0
    3.2397    0.3801   -2.2437 H   0  0  0  0  0  0  0  0  0  0  0  0
    4.2457   -1.7972   -1.8172 H   0  0  0  0  0  0  0  0  0  0  0  0
    5.1906    1.9887    1.2326 H   0  0  0  0  0  0  0  0  0  0  0  0
    8.7163   -3.9686    0.7561 H   0  0  0  0  0  0  0  0  0  0  0  0
    8.3261   -3.1031   -0.7322 H   0  0  0  0  0  0  0  0  0  0  0  0
   11.1291   -2.5059   -0.7205 H   0  0  0  0  0  0  0  0  0  0  0  0
   12.3777   -0.3360    0.3410 H   0  0  0  0  0  0  0  0  0  0  0  0
   10.6438    0.7115    2.1398 H   0  0  0  0  0  0  0  0  0  0  0  0
    8.7487    0.0449    3.2645 H   0  0  0  0  0  0  0  0  0  0  0  0
    7.7180    0.0109    1.8722 H   0  0  0  0  0  0  0  0  0  0  0  0
    5.6458   -4.4432    2.3002 H   0  0  0  0  0  0  0  0  0  0  0  0
    5.2962   -4.4027    4.7547 H   0  0  0  0  0  0  0  0  0  0  0  0
    6.3426   -2.6301    6.1371 H   0  0  0  0  0  0  0  0  0  0  0  0
    7.7762   -0.9305    5.0913 H   0  0  0  0  0  0  0  0  0  0  0  0
  1  2  1  0  0  0  0
  1 35  1  0  0  0  0
  1 36  1  0  0  0  0
  1 37  1  0  0  0  0
  2  3  2  0  0  0  0
  2  7  1  0  0  0  0
  3  4  1  0  0  0  0
  3 38  1  0  0  0  0
  4  5  2  0  0  0  0
  4 39  1  0  0  0  0
  5  6  1  0  0  0  0
  5 34  1  0  0  0  0
  6  7  2  0  0  0  0
  6 40  1  0  0  0  0
  7  8  1  0  0  0  0
  8  9  2  0  0  0  0
  8 10  1  0  0  0  0
 10 11  1  0  0  0  0
 10 41  1  0  0  0  0
 11 12  2  0  0  0  0
 11 16  1  0  0  0  0
 12 13  1  0  0  0  0
 12 42  1  0  0  0  0
 13 14  2  0  0  0  0
 13 43  1  0  0  0  0
 14 15  1  0  0  0  0
 14 18  1  0  0  0  0
 15 16  2  0  0  0  0
 15 17  1  0  0  0  0
 16 44  1  0  0  0  0
 18 19  2  0  0  0  0
 18 20  1  0  0  0  0
 20 21  1  0  0  0  0
 20 29  1  0  0  0  0
 21 22  1  0  0  0  0
 21 45  1  0  0  0  0
 21 46  1  0  0  0  0
 22 23  2  0  0  0  0
 22 26  1  0  0  0  0
 23 24  1  0  0  0  0
 23 47  1  0  0  0  0
 24 25  2  0  0  0  0
 24 48  1  0  0  0  0
 25 26  1  0  0  0  0
 25 49  1  0  0  0  0
 26 27  1  0  0  0  0
 27 28  1  0  0  0  0
 27 50  1  0  0  0  0
 27 51  1  0  0  0  0
 28 29  2  0  0  0  0
 28 33  1  0  0  0  0
 29 30  1  0  0  0  0
 30 31  2  0  0  0  0
 30 52  1  0  0  0  0
 31 32  1  0  0  0  0
 31 53  1  0  0  0  0
 32 33  2  0  0  0  0
 32 54  1  0  0  0  0
 33 55  1  0  0  0  0
M  END
>  <DRUGBANK_ID>
DB06666

>  <COMMON_NAME>
Lixivaptan

>  <CAS_NUMBER>
168079-32-1

>  <UNII>
8F5X4B082E

>  <SYNONYMS>
Lixivaptan

$$$$
