
 OpenBabel10282417133D

 18 18  0  0  0  0  0  0  0  0999 V2000
    1.0009    0.0001   -0.0295 N   0  0  0  0  0  0  0  0  0  0  0  0
    0.3513    0.7677   -0.8821 C   0  0  0  0  0  0  0  0  0  0  0  0
   -0.9620    0.7848   -0.9058 N   0  3  0  0  0  0  0  0  0  0  0  0
    1.1122    1.5699   -1.8541 C   0  0  0  0  0  0  0  0  0  0  0  0
    2.1687    0.9727   -2.5608 C   0  0  0  0  0  0  0  0  0  0  0  0
    2.8974    1.6929   -3.5063 C   0  0  0  0  0  0  0  0  0  0  0  0
    2.5649    3.0159   -3.7789 C   0  0  0  0  0  0  0  0  0  0  0  0
    1.5015    3.6183   -3.1095 C   0  0  0  0  0  0  0  0  0  0  0  0
    0.7947    2.9109   -2.1304 C   0  0  0  0  0  0  0  0  0  0  0  0
    0.5313   -0.6049    0.6292 H   0  0  0  0  0  0  0  0  0  0  0  0
    2.0156    0.0077   -0.0128 H   0  0  0  0  0  0  0  0  0  0  0  0
   -1.4496    1.3461   -1.5975 H   0  0  0  0  0  0  0  0  0  0  0  0
   -1.5248    0.2191   -0.2850 H   0  0  0  0  0  0  0  0  0  0  0  0
    2.4250   -0.0724   -2.3993 H   0  0  0  0  0  0  0  0  0  0  0  0
    3.7156    1.2174   -4.0435 H   0  0  0  0  0  0  0  0  0  0  0  0
    3.1363    3.5776   -4.5161 H   0  0  0  0  0  0  0  0  0  0  0  0
    1.2288    4.6435   -3.3573 H   0  0  0  0  0  0  0  0  0  0  0  0
    0.0086    3.4327   -1.5873 H   0  0  0  0  0  0  0  0  0  0  0  0
  1  2  1  0  0  0  0
  1 10  1  0  0  0  0
  1 11  1  0  0  0  0
  2  3  2  0  0  0  0
  2  4  1  0  0  0  0
  3 12  1  0  0  0  0
  3 13  1  0  0  0  0
  4  5  2  0  0  0  0
  4  9  1  0  0  0  0
  5  6  1  0  0  0  0
  5 14  1  0  0  0  0
  6  7  2  0  0  0  0
  6 15  1  0  0  0  0
  7  8  1  0  0  0  0
  7 16  1  0  0  0  0
  8  9  2  0  0  0  0
  8 17  1  0  0  0  0
  9 18  1  0  0  0  0
M  CHG  1   3   1
M  END
>  <DRUGBANK_ID>
DB03127

>  <SECONDARY_ACCESSION_NUMBERS>
EXPT00669

>  <COMMON_NAME>
Benzamidine

>  <CAS_NUMBER>
618-39-3

>  <UNII>
KUE3ZY3J1F

$$$$
