
 OpenBabel10282417193D

 50 53  0  0  1  0  0  0  0  0999 V2000
    1.1487    1.3974   -0.2115 C   0  0  1  0  0  0  0  0  0  0  0  0
    1.2234   -0.0835    0.2497 C   0  0  1  0  0  0  0  0  0  0  0  0
   -0.0302   -0.8400   -0.2003 C   0  0  2  0  0  0  0  0  0  0  0  0
   -1.3069   -0.1206    0.2256 C   0  0  1  0  0  0  0  0  0  0  0  0
   -1.2763    1.3260   -0.2537 C   0  0  2  0  0  0  0  0  0  0  0  0
   -0.0993    1.9679    0.2070 O   0  0  0  0  0  0  0  0  0  0  0  0
    2.3388   -0.8204   -0.2637 O   0  0  0  0  0  0  0  0  0  0  0  0
   -0.0225   -2.1714    0.3327 O   0  0  0  0  0  0  0  0  0  0  0  0
   -2.4639   -0.7818   -0.2831 O   0  0  0  0  0  0  0  0  0  0  0  0
   -2.4897    2.0776    0.3169 C   0  0  0  0  0  0  0  0  0  0  0  0
   -2.4614    3.4518   -0.0640 O   0  0  0  0  0  0  0  0  0  0  0  0
    2.2969    2.2242    0.3698 C   0  0  0  0  0  0  0  0  0  0  0  0
    2.0844    3.2820    1.2809 C   0  0  0  0  0  0  0  0  0  0  0  0
    3.1529    4.0097    1.8073 C   0  0  0  0  0  0  0  0  0  0  0  0
    0.7915    3.5802    1.6262 O   0  0  0  0  0  0  0  0  0  0  0  0
    3.6252    1.9434    0.0066 C   0  0  0  0  0  0  0  0  0  0  0  0
    2.8720    5.1779    2.6722 C   0  0  0  0  0  0  0  0  0  0  0  0
    4.4648    3.6460    1.4942 C   0  0  0  0  0  0  0  0  0  0  0  0
    0.5352    4.6402    2.4325 C   0  0  0  0  0  0  0  0  0  0  0  0
    4.7025    2.6017    0.6000 C   0  0  0  0  0  0  0  0  0  0  0  0
    3.8661    1.0396   -0.9933 O   0  0  0  0  0  0  0  0  0  0  0  0
    1.4466    5.4488    2.9802 C   0  0  0  0  0  0  0  0  0  0  0  0
    3.7855    5.8820    3.0963 O   0  0  0  0  0  0  0  0  0  0  0  0
    0.9641    6.5352    3.8307 C   0  0  0  0  0  0  0  0  0  0  0  0
    0.2406    6.2288    4.9953 C   0  0  0  0  0  0  0  0  0  0  0  0
    1.1258    7.8705    3.4512 C   0  0  0  0  0  0  0  0  0  0  0  0
   -0.3182    7.2432    5.7714 C   0  0  0  0  0  0  0  0  0  0  0  0
    0.5657    8.8852    4.2279 C   0  0  0  0  0  0  0  0  0  0  0  0
   -0.1473    8.5661    5.3793 C   0  0  0  0  0  0  0  0  0  0  0  0
   -0.6701    9.5980    6.1003 O   0  0  0  0  0  0  0  0  0  0  0  0
    1.1997    1.4810   -1.3043 H   0  0  0  0  0  0  0  0  0  0  0  0
    1.3060   -0.1247    1.3434 H   0  0  0  0  0  0  0  0  0  0  0  0
   -0.0110   -0.9599   -1.2905 H   0  0  0  0  0  0  0  0  0  0  0  0
   -1.3678   -0.1560    1.3213 H   0  0  0  0  0  0  0  0  0  0  0  0
   -1.2957    1.4036   -1.3468 H   0  0  0  0  0  0  0  0  0  0  0  0
    2.4744   -0.5402   -1.1883 H   0  0  0  0  0  0  0  0  0  0  0  0
    0.1325   -2.1069    1.2912 H   0  0  0  0  0  0  0  0  0  0  0  0
   -2.3810   -0.8389   -1.2511 H   0  0  0  0  0  0  0  0  0  0  0  0
   -3.4232    1.6435   -0.0519 H   0  0  0  0  0  0  0  0  0  0  0  0
   -2.4971    2.0435    1.4124 H   0  0  0  0  0  0  0  0  0  0  0  0
   -1.6127    3.8007    0.2675 H   0  0  0  0  0  0  0  0  0  0  0  0
    5.3008    4.1931    1.9237 H   0  0  0  0  0  0  0  0  0  0  0  0
   -0.5349    4.7397    2.5755 H   0  0  0  0  0  0  0  0  0  0  0  0
    5.7264    2.3397    0.3477 H   0  0  0  0  0  0  0  0  0  0  0  0
    4.7787    0.7092   -0.9086 H   0  0  0  0  0  0  0  0  0  0  0  0
    0.0998    5.1913    5.2931 H   0  0  0  0  0  0  0  0  0  0  0  0
    1.6708    8.1293    2.5462 H   0  0  0  0  0  0  0  0  0  0  0  0
   -0.8817    6.9782    6.6597 H   0  0  0  0  0  0  0  0  0  0  0  0
    0.6800    9.9239    3.9327 H   0  0  0  0  0  0  0  0  0  0  0  0
   -1.1059    9.2412    6.8909 H   0  0  0  0  0  0  0  0  0  0  0  0
  1 12  1  0  0  0  0
  1  2  1  0  0  0  0
  1 31  1  6  0  0  0
  2  3  1  0  0  0  0
  2  7  1  0  0  0  0
  2 32  1  1  0  0  0
  3  4  1  0  0  0  0
  3  8  1  0  0  0  0
  3 33  1  6  0  0  0
  4  9  1  0  0  0  0
  4  5  1  0  0  0  0
  4 34  1  1  0  0  0
  5 10  1  0  0  0  0
  5  6  1  0  0  0  0
  5 35  1  6  0  0  0
  6  1  1  0  0  0  0
  7 36  1  0  0  0  0
  8 37  1  0  0  0  0
  9 38  1  0  0  0  0
 10 11  1  0  0  0  0
 10 39  1  0  0  0  0
 10 40  1  0  0  0  0
 11 41  1  0  0  0  0
 12 16  2  0  0  0  0
 13 12  1  0  0  0  0
 13 14  2  0  0  0  0
 13 15  1  0  0  0  0
 14 17  1  0  0  0  0
 14 18  1  0  0  0  0
 15 19  1  0  0  0  0
 16 20  1  0  0  0  0
 16 21  1  0  0  0  0
 17 22  1  0  0  0  0
 17 23  2  0  0  0  0
 18 20  2  0  0  0  0
 18 42  1  0  0  0  0
 19 22  2  0  0  0  0
 19 43  1  0  0  0  0
 20 44  1  0  0  0  0
 21 45  1  0  0  0  0
 22 24  1  0  0  0  0
 24 25  2  0  0  0  0
 24 26  1  0  0  0  0
 25 27  1  0  0  0  0
 25 46  1  0  0  0  0
 26 28  2  0  0  0  0
 26 47  1  0  0  0  0
 27 29  2  0  0  0  0
 27 48  1  0  0  0  0
 28 29  1  0  0  0  0
 28 49  1  0  0  0  0
 29 30  1  0  0  0  0
 30 50  1  0  0  0  0
M  END
>  <DRUGBANK_ID>
DB12290

>  <COMMON_NAME>
Puerarin

>  <CAS_NUMBER>
3681-99-0

>  <UNII>
Z9W8997416

$$$$
