
 OpenBabel10282417203D

 25 26  0  0  0  0  0  0  0  0999 V2000
    0.8265   -0.0980    0.1213 C   0  0  0  0  0  0  0  0  0  0  0  0
    0.4383    1.0731    1.0084 C   0  0  3  0  0  0  0  0  0  0  0  0
    0.9556    2.4547    0.5258 C   0  0  0  0  0  0  0  0  0  0  0  0
    0.1898    3.3962    0.2936 O   0  0  0  0  0  0  0  0  0  0  0  0
    2.4264    2.7128    0.4471 C   0  0  0  0  0  0  0  0  0  0  0  0
    3.3006    1.8131   -0.1966 C   0  0  0  0  0  0  0  0  0  0  0  0
    4.6753    2.0390   -0.2549 C   0  0  0  0  0  0  0  0  0  0  0  0
    5.1428    3.2123    0.2764 C   0  0  0  0  0  0  0  0  0  0  0  0
    4.3011    4.1278    0.8660 C   0  0  0  0  0  0  0  0  0  0  0  0
    2.9383    3.9106    0.9712 C   0  0  0  0  0  0  0  0  0  0  0  0
    4.9776    5.2272    1.2978 O   0  0  0  0  0  0  0  0  0  0  0  0
    6.3379    4.8591    0.9751 C   0  0  0  0  0  0  0  0  0  0  0  0
    6.4379    3.6166    0.2544 O   0  0  0  0  0  0  0  0  0  0  0  0
   -1.0434    1.0834    1.0508 N   0  0  0  0  0  0  0  0  0  0  0  0
    0.6122    0.1158   -0.9327 H   0  0  0  0  0  0  0  0  0  0  0  0
    0.3107   -1.0200    0.4049 H   0  0  0  0  0  0  0  0  0  0  0  0
    1.8845   -0.3387    0.2287 H   0  0  0  0  0  0  0  0  0  0  0  0
    0.7990    0.9144    2.0306 H   0  0  0  0  0  0  0  0  0  0  0  0
    2.9429    0.9427   -0.7265 H   0  0  0  0  0  0  0  0  0  0  0  0
    5.3400    1.3271   -0.7307 H   0  0  0  0  0  0  0  0  0  0  0  0
    2.2925    4.6523    1.4317 H   0  0  0  0  0  0  0  0  0  0  0  0
    6.7922    5.6532    0.3720 H   0  0  0  0  0  0  0  0  0  0  0  0
    6.9027    4.7546    1.9083 H   0  0  0  0  0  0  0  0  0  0  0  0
   -1.3448    1.8731    1.6253 H   0  0  0  0  0  0  0  0  0  0  0  0
   -1.3857    1.3231    0.1168 H   0  0  0  0  0  0  0  0  0  0  0  0
  1  2  1  0  0  0  0
  1 15  1  0  0  0  0
  1 16  1  0  0  0  0
  1 17  1  0  0  0  0
  2  3  1  0  0  0  0
  2 14  1  0  0  0  0
  2 18  1  0  0  0  0
  3  4  2  0  0  0  0
  3  5  1  0  0  0  0
  5  6  2  0  0  0  0
  5 10  1  0  0  0  0
  6  7  1  0  0  0  0
  6 19  1  0  0  0  0
  7  8  2  0  0  0  0
  7 20  1  0  0  0  0
  8  9  1  0  0  0  0
  8 13  1  0  0  0  0
  9 10  2  0  0  0  0
  9 11  1  0  0  0  0
 10 21  1  0  0  0  0
 11 12  1  0  0  0  0
 12 13  1  0  0  0  0
 12 22  1  0  0  0  0
 12 23  1  0  0  0  0
 14 24  1  0  0  0  0
 14 25  1  0  0  0  0
M  END
>  <DRUGBANK_ID>
DB12809

>  <COMMON_NAME>
BK-MDA

>  <CAS_NUMBER>
80535-73-5

>  <UNII>
K0XHQ9FYT3

>  <SYNONYMS>
MDC

$$$$
