
 OpenBabel10282417103D

 54 54  0  0  0  0  0  0  0  0999 V2000
    1.6642    0.3307   -0.0538 C   0  0  0  0  0  0  0  0  0  0  0  0
    0.6177   -0.3929   -0.1882 C   0  0  0  0  0  0  0  0  0  0  0  0
   -0.6507    0.1051    0.2474 C   0  0  0  0  0  0  0  0  0  0  0  0
   -1.1793    1.3948    0.0810 C   0  0  0  0  0  0  0  0  0  0  0  0
   -0.0979    2.1953    0.0157 C   0  0  0  0  0  0  0  0  0  0  0  0
    1.3185    1.7022   -0.0231 C   0  0  0  0  0  0  0  0  0  0  0  0
    2.9219   -0.2051    0.1619 O   0  0  0  0  0  0  0  0  0  0  0  0
   -2.7784    1.8698    0.1594 C   0  0  0  0  0  0  0  0  0  0  0  0
    3.1814   -1.6629    0.2971 C   0  0  0  0  0  0  0  0  0  0  0  0
    2.6467   -2.5001    1.5243 C   0  0  3  0  0  0  0  0  0  0  0  0
    1.1408   -2.8467    1.4934 C   0  0  0  0  0  0  0  0  0  0  0  0
    0.8287   -3.7312    0.2954 N   0  0  0  0  0  0  0  0  0  0  0  0
   -0.5987   -3.9034   -0.0209 C   0  0  0  0  0  0  0  0  0  0  0  0
   -1.1871   -2.5998   -0.2589 C   0  0  0  0  0  0  0  0  0  0  0  0
   -1.0150   -4.4931   -1.3618 C   0  0  0  0  0  0  0  0  0  0  0  0
   -3.4292    1.8036    1.4306 O   0  0  0  0  0  0  0  0  0  0  0  0
   -3.2543    0.5670    2.1910 C   0  0  0  0  0  0  0  0  0  0  0  0
   -4.0684   -0.8482    1.9998 C   0  0  0  0  0  0  0  0  0  0  0  0
   -3.9994   -1.8631    0.9350 O   0  0  0  0  0  0  0  0  0  0  0  0
   -4.1860   -1.4660   -0.4579 C   0  0  0  0  0  0  0  0  0  0  0  0
   -5.4470   -0.7272   -0.6324 C   0  0  0  0  0  0  0  0  0  0  0  0
   -3.0035   -0.7190   -0.7997 C   0  0  0  0  0  0  0  0  0  0  0  0
    3.3053   -3.7843    1.5491 O   0  0  0  0  0  0  0  0  0  0  0  0
    0.8077   -1.4553   -0.3591 H   0  0  0  0  0  0  0  0  0  0  0  0
   -1.1439   -0.5129    0.9630 H   0  0  0  0  0  0  0  0  0  0  0  0
   -0.3292    3.2423    0.1759 H   0  0  0  0  0  0  0  0  0  0  0  0
    2.1020    2.4201   -0.0327 H   0  0  0  0  0  0  0  0  0  0  0  0
   -3.0475    2.4574   -0.7607 H   0  0  0  0  0  0  0  0  0  0  0  0
   -3.6564    1.3127   -0.2581 H   0  0  0  0  0  0  0  0  0  0  0  0
    2.9829   -2.1981   -0.6433 H   0  0  0  0  0  0  0  0  0  0  0  0
    4.2792   -1.7363    0.3793 H   0  0  0  0  0  0  0  0  0  0  0  0
    2.8941   -1.9745    2.4545 H   0  0  0  0  0  0  0  0  0  0  0  0
    0.8030   -3.3641    2.3977 H   0  0  0  0  0  0  0  0  0  0  0  0
    0.6533   -1.8773    1.5963 H   0  0  0  0  0  0  0  0  0  0  0  0
    1.2722   -3.3611   -0.5452 H   0  0  0  0  0  0  0  0  0  0  0  0
   -1.1531   -4.3025    0.8344 H   0  0  0  0  0  0  0  0  0  0  0  0
   -0.8156   -2.0528   -1.1472 H   0  0  0  0  0  0  0  0  0  0  0  0
   -2.2339   -2.7346   -0.4329 H   0  0  0  0  0  0  0  0  0  0  0  0
   -1.0901   -2.1635    0.7132 H   0  0  0  0  0  0  0  0  0  0  0  0
   -0.7364   -5.5275   -1.4337 H   0  0  0  0  0  0  0  0  0  0  0  0
   -2.1149   -4.4046   -1.4801 H   0  0  0  0  0  0  0  0  0  0  0  0
   -0.6086   -3.9039   -2.2024 H   0  0  0  0  0  0  0  0  0  0  0  0
   -2.1866    0.4012    2.3242 H   0  0  0  0  0  0  0  0  0  0  0  0
   -3.5687    0.9014    3.1891 H   0  0  0  0  0  0  0  0  0  0  0  0
   -3.7659   -1.4312    2.8908 H   0  0  0  0  0  0  0  0  0  0  0  0
   -5.1303   -0.6572    2.1190 H   0  0  0  0  0  0  0  0  0  0  0  0
   -4.0670   -2.2884   -1.1789 H   0  0  0  0  0  0  0  0  0  0  0  0
   -5.6532   -0.0745    0.2145 H   0  0  0  0  0  0  0  0  0  0  0  0
   -5.4300   -0.1237   -1.5386 H   0  0  0  0  0  0  0  0  0  0  0  0
   -6.1951   -1.5128   -0.6672 H   0  0  0  0  0  0  0  0  0  0  0  0
   -2.8288    0.0835   -0.2276 H   0  0  0  0  0  0  0  0  0  0  0  0
   -2.7398   -0.2133   -1.7266 H   0  0  0  0  0  0  0  0  0  0  0  0
   -2.4811   -0.9958    0.0779 H   0  0  0  0  0  0  0  0  0  0  0  0
    2.7912   -4.3403    0.9231 H   0  0  0  0  0  0  0  0  0  0  0  0
  1  2  1  0  0  0  0
  1  6  2  0  0  0  0
  1  7  1  0  0  0  0
  2  3  2  0  0  0  0
  2 24  1  0  0  0  0
  3  4  1  0  0  0  0
  3 25  1  0  0  0  0
  4  5  2  0  0  0  0
  4  8  1  0  0  0  0
  5  6  1  0  0  0  0
  5 26  1  0  0  0  0
  6 27  1  0  0  0  0
  7  9  1  0  0  0  0
  8 16  1  0  0  0  0
  8 28  1  0  0  0  0
  8 29  1  0  0  0  0
  9 10  1  0  0  0  0
  9 30  1  0  0  0  0
  9 31  1  0  0  0  0
 10 11  1  0  0  0  0
 10 23  1  0  0  0  0
 10 32  1  0  0  0  0
 11 12  1  0  0  0  0
 11 33  1  0  0  0  0
 11 34  1  0  0  0  0
 12 13  1  0  0  0  0
 12 35  1  0  0  0  0
 13 14  1  0  0  0  0
 13 15  1  0  0  0  0
 13 36  1  0  0  0  0
 14 37  1  0  0  0  0
 14 38  1  0  0  0  0
 14 39  1  0  0  0  0
 15 40  1  0  0  0  0
 15 41  1  0  0  0  0
 15 42  1  0  0  0  0
 16 17  1  0  0  0  0
 17 18  1  0  0  0  0
 17 43  1  0  0  0  0
 17 44  1  0  0  0  0
 18 19  1  0  0  0  0
 18 45  1  0  0  0  0
 18 46  1  0  0  0  0
 19 20  1  0  0  0  0
 20 21  1  0  0  0  0
 20 22  1  0  0  0  0
 20 47  1  0  0  0  0
 21 48  1  0  0  0  0
 21 49  1  0  0  0  0
 21 50  1  0  0  0  0
 22 51  1  0  0  0  0
 22 52  1  0  0  0  0
 22 53  1  0  0  0  0
 23 54  1  0  0  0  0
M  END
>  <DRUGBANK_ID>
DB00612

>  <SECONDARY_ACCESSION_NUMBERS>
APRD00257

>  <COMMON_NAME>
Bisoprolol

>  <CAS_NUMBER>
66722-44-9

>  <UNII>
Y41JS2NL6U

>  <SYNONYMS>
(+-)-1-((alpha-(2-Isopropoxyethoxy)-p-tolyl)oxy)-3-(isopropylamino)-2-propanol; (RS)-1-(4-(2-Isopropoxyethoxymethyl)phenoxy)-3-(isopropylamino)-2-propanol; Bisoprolol; Bisoprololum

$$$$
