
 OpenBabel10282417173D

 58 60  0  0  0  0  0  0  0  0999 V2000
    2.2604    0.0520   -0.0255 F   0  0  0  0  0  0  0  0  0  0  0  0
   -5.2735   -1.9319    5.1403 F   0  0  0  0  0  0  0  0  0  0  0  0
   -7.2646   -7.4615    1.0156 O   0  0  0  0  0  0  0  0  0  0  0  0
   -5.5696   -3.1922   -0.4200 N   0  0  0  0  0  0  0  0  0  0  0  0
   -5.9138   -5.6661    1.1205 N   0  0  0  0  0  0  0  0  0  0  0  0
   -7.2082   -6.4632    2.9697 N   0  0  0  0  0  0  0  0  0  0  0  0
   -4.0776   -3.0931   -0.3296 C   0  0  0  0  0  0  0  0  0  0  0  0
   -6.2818   -3.3996    0.8469 C   0  0  0  0  0  0  0  0  0  0  0  0
   -5.9866   -4.3991   -1.1367 C   0  0  0  0  0  0  0  0  0  0  0  0
   -3.5749   -2.1716   -1.4288 C   0  0  0  0  0  0  0  0  0  0  0  0
   -5.5055   -4.4077    1.6726 C   0  0  0  0  0  0  0  0  0  0  0  0
   -5.6017   -5.7107   -0.3490 C   0  0  0  0  0  0  0  0  0  0  0  0
   -3.9305   -0.6856   -1.1945 C   0  0  0  0  0  0  0  0  0  0  0  0
   -3.3720    0.0719    0.1095 C   0  0  0  0  0  0  0  0  0  0  0  0
   -1.8553    0.0611    0.0589 C   0  0  0  0  0  0  0  0  0  0  0  0
   -3.8698   -0.2728    1.5291 C   0  0  0  0  0  0  0  0  0  0  0  0
   -6.8029   -6.5507    1.6703 C   0  0  0  0  0  0  0  0  0  0  0  0
   -1.1598    1.2694   -0.0132 C   0  0  0  0  0  0  0  0  0  0  0  0
   -3.3248    0.1065    2.7613 C   0  0  0  0  0  0  0  0  0  0  0  0
   -1.1274   -1.1401    0.1409 C   0  0  0  0  0  0  0  0  0  0  0  0
   -5.0366   -0.9710    1.6578 C   0  0  0  0  0  0  0  0  0  0  0  0
   -6.9706   -5.6280    4.1450 C   0  0  0  0  0  0  0  0  0  0  0  0
    0.2321    1.2609   -0.0244 C   0  0  0  0  0  0  0  0  0  0  0  0
   -3.8086   -0.4111    4.0011 C   0  0  0  0  0  0  0  0  0  0  0  0
    0.2540   -1.1552    0.0540 C   0  0  0  0  0  0  0  0  0  0  0  0
   -5.4624   -1.5677    2.8664 C   0  0  0  0  0  0  0  0  0  0  0  0
    0.9231    0.0518   -0.0097 C   0  0  0  0  0  0  0  0  0  0  0  0
   -4.8145   -1.3419    4.0291 C   0  0  0  0  0  0  0  0  0  0  0  0
   -8.1906   -4.8397    4.5800 C   0  0  0  0  0  0  0  0  0  0  0  0
   -7.8009   -7.2648    3.1584 H   0  0  0  0  0  0  0  0  0  0  0  0
   -3.5524   -4.0529   -0.4088 H   0  0  0  0  0  0  0  0  0  0  0  0
   -3.7016   -2.7176    0.6292 H   0  0  0  0  0  0  0  0  0  0  0  0
   -6.6361   -2.4563    1.2111 H   0  0  0  0  0  0  0  0  0  0  0  0
   -7.3171   -3.7672    0.7458 H   0  0  0  0  0  0  0  0  0  0  0  0
   -7.0812   -4.3184   -1.2239 H   0  0  0  0  0  0  0  0  0  0  0  0
   -5.5991   -4.3502   -2.1532 H   0  0  0  0  0  0  0  0  0  0  0  0
   -3.9850   -2.5236   -2.3826 H   0  0  0  0  0  0  0  0  0  0  0  0
   -2.4973   -2.2932   -1.5771 H   0  0  0  0  0  0  0  0  0  0  0  0
   -4.4128   -4.3847    1.6131 H   0  0  0  0  0  0  0  0  0  0  0  0
   -5.6352   -4.2220    2.7060 H   0  0  0  0  0  0  0  0  0  0  0  0
   -4.5145   -5.8192   -0.3887 H   0  0  0  0  0  0  0  0  0  0  0  0
   -6.0515   -6.5625   -0.8492 H   0  0  0  0  0  0  0  0  0  0  0  0
   -5.0214   -0.5827   -1.2587 H   0  0  0  0  0  0  0  0  0  0  0  0
   -3.5586   -0.1530   -2.0845 H   0  0  0  0  0  0  0  0  0  0  0  0
   -3.7283    1.1024   -0.0457 H   0  0  0  0  0  0  0  0  0  0  0  0
   -1.6999    2.2137   -0.0273 H   0  0  0  0  0  0  0  0  0  0  0  0
   -2.5319    0.8436    2.7921 H   0  0  0  0  0  0  0  0  0  0  0  0
   -1.6204   -2.0953    0.2766 H   0  0  0  0  0  0  0  0  0  0  0  0
   -5.5671   -1.0966    0.7239 H   0  0  0  0  0  0  0  0  0  0  0  0
   -6.5612   -6.2549    4.9413 H   0  0  0  0  0  0  0  0  0  0  0  0
   -6.2052   -4.8932    4.0324 H   0  0  0  0  0  0  0  0  0  0  0  0
    0.7831    2.1931   -0.0366 H   0  0  0  0  0  0  0  0  0  0  0  0
   -3.4396   -0.0665    4.9553 H   0  0  0  0  0  0  0  0  0  0  0  0
    0.7912   -2.0972    0.0624 H   0  0  0  0  0  0  0  0  0  0  0  0
   -6.3116   -2.2334    2.9685 H   0  0  0  0  0  0  0  0  0  0  0  0
   -8.8990   -5.4684    5.1234 H   0  0  0  0  0  0  0  0  0  0  0  0
   -7.8737   -4.0269    5.2457 H   0  0  0  0  0  0  0  0  0  0  0  0
   -8.6983   -4.3793    3.7259 H   0  0  0  0  0  0  0  0  0  0  0  0
  1 27  1  0  0  0  0
  2 28  1  0  0  0  0
  3 17  2  0  0  0  0
  4  7  1  0  0  0  0
  4  8  1  0  0  0  0
  4  9  1  0  0  0  0
  5 11  1  0  0  0  0
  5 12  1  0  0  0  0
  5 17  1  0  0  0  0
  6 17  1  0  0  0  0
  6 22  1  0  0  0  0
  6 30  1  0  0  0  0
  7 10  1  0  0  0  0
  7 31  1  0  0  0  0
  7 32  1  0  0  0  0
  8 11  1  0  0  0  0
  8 33  1  0  0  0  0
  8 34  1  0  0  0  0
  9 12  1  0  0  0  0
  9 35  1  0  0  0  0
  9 36  1  0  0  0  0
 10 13  1  0  0  0  0
 10 37  1  0  0  0  0
 10 38  1  0  0  0  0
 11 39  1  0  0  0  0
 11 40  1  0  0  0  0
 12 41  1  0  0  0  0
 12 42  1  0  0  0  0
 13 14  1  0  0  0  0
 13 43  1  0  0  0  0
 13 44  1  0  0  0  0
 14 15  1  0  0  0  0
 14 16  1  0  0  0  0
 14 45  1  0  0  0  0
 15 18  2  0  0  0  0
 15 20  1  0  0  0  0
 16 19  2  0  0  0  0
 16 21  1  0  0  0  0
 18 23  1  0  0  0  0
 18 46  1  0  0  0  0
 19 24  1  0  0  0  0
 19 47  1  0  0  0  0
 20 25  2  0  0  0  0
 20 48  1  0  0  0  0
 21 26  2  0  0  0  0
 21 49  1  0  0  0  0
 22 29  1  0  0  0  0
 22 50  1  0  0  0  0
 22 51  1  0  0  0  0
 23 27  2  0  0  0  0
 23 52  1  0  0  0  0
 24 28  2  0  0  0  0
 24 53  1  0  0  0  0
 25 27  1  0  0  0  0
 25 54  1  0  0  0  0
 26 28  1  0  0  0  0
 26 55  1  0  0  0  0
 29 56  1  0  0  0  0
 29 57  1  0  0  0  0
 29 58  1  0  0  0  0
M  END
>  <DRUGBANK_ID>
DB08927

>  <COMMON_NAME>
Amperozide

>  <CAS_NUMBER>
75558-90-6

>  <UNII>
0M2W3TAG39

>  <SYNONYMS>
Amperozide

$$$$
