7X3
 OpenBabel10282417163D

 49 51  0  0  0  0  0  0  0  0999 V2000
    0.9978    0.0208   -0.0752 C   0  0  0  0  0  0  0  0  0  0  0  0
    0.5538    0.3267   -1.3923 O   0  0  0  0  0  0  0  0  0  0  0  0
    0.9967    1.4879   -1.9676 C   0  0  0  0  0  0  0  0  0  0  0  0
    0.0320    2.1419   -2.7561 C   0  0  0  0  0  0  0  0  0  0  0  0
    0.3470    3.2898   -3.5109 C   0  0  0  0  0  0  0  0  0  0  0  0
    1.6413    3.8145   -3.4981 C   0  0  0  0  0  0  0  0  0  0  0  0
    2.0044    4.9108   -4.3095 N   0  0  0  0  0  0  0  0  0  0  0  0
    3.2891    5.4726   -4.3897 C   0  0  0  0  0  0  0  0  0  0  0  0
    4.2574    4.6644   -4.8073 N   0  0  0  0  0  0  0  0  0  0  0  0
    5.4721    5.1774   -4.8111 C   0  0  0  0  0  0  0  0  0  0  0  0
    5.7781    6.3973   -4.4109 N   0  0  0  0  0  0  0  0  0  0  0  0
    4.7670    7.1352   -3.9709 C   0  0  0  0  0  0  0  0  0  0  0  0
    5.0975    8.3630   -3.3736 N   0  0  0  0  0  0  0  0  0  0  0  0
    6.3302    9.0329   -3.4929 C   0  0  0  0  0  0  0  0  0  0  0  0
    6.9375    9.1802   -4.7439 C   0  0  0  0  0  0  0  0  0  0  0  0
    8.1820    9.8005   -4.8979 C   0  0  0  0  0  0  0  0  0  0  0  0
    8.7758    9.9674   -6.1176 O   0  0  0  0  0  0  0  0  0  0  0  0
    8.0960    9.5259   -7.2768 C   0  0  0  0  0  0  0  0  0  0  0  0
    8.8575   10.2973   -3.7700 C   0  0  0  0  0  0  0  0  0  0  0  0
   10.1237   10.8213   -3.7831 O   0  0  0  0  0  0  0  0  0  0  0  0
   10.8841   10.8822   -4.9755 C   0  0  0  0  0  0  0  0  0  0  0  0
    8.2153   10.2420   -2.5120 C   0  0  0  0  0  0  0  0  0  0  0  0
    8.6712   10.7964   -1.3326 O   0  0  0  0  0  0  0  0  0  0  0  0
    9.7608   11.7150   -1.4217 C   0  0  0  0  0  0  0  0  0  0  0  0
    6.9786    9.5753   -2.3803 C   0  0  0  0  0  0  0  0  0  0  0  0
    3.4880    6.7387   -3.9924 N   0  0  0  0  0  0  0  0  0  0  0  0
    2.5907    3.1461   -2.7147 C   0  0  0  0  0  0  0  0  0  0  0  0
    2.2914    2.0082   -1.9553 C   0  0  0  0  0  0  0  0  0  0  0  0
    3.6498    1.3330   -1.1292 Cl  0  0  0  0  0  0  0  0  0  0  0  0
    0.5263   -0.9211    0.2227 H   0  0  0  0  0  0  0  0  0  0  0  0
    0.6948    0.7967    0.6338 H   0  0  0  0  0  0  0  0  0  0  0  0
    2.0658   -0.1754   -0.0119 H   0  0  0  0  0  0  0  0  0  0  0  0
   -0.9827    1.7462   -2.7945 H   0  0  0  0  0  0  0  0  0  0  0  0
   -0.4335    3.7517   -4.1113 H   0  0  0  0  0  0  0  0  0  0  0  0
    1.2737    5.5424   -4.5908 H   0  0  0  0  0  0  0  0  0  0  0  0
    6.2842    4.5493   -5.1461 H   0  0  0  0  0  0  0  0  0  0  0  0
    4.3016    8.8993   -3.0699 H   0  0  0  0  0  0  0  0  0  0  0  0
    6.4157    8.7760   -5.6046 H   0  0  0  0  0  0  0  0  0  0  0  0
    7.9844    8.4383   -7.2641 H   0  0  0  0  0  0  0  0  0  0  0  0
    7.1335   10.0344   -7.3862 H   0  0  0  0  0  0  0  0  0  0  0  0
    8.7160    9.7935   -8.1367 H   0  0  0  0  0  0  0  0  0  0  0  0
   11.0535    9.8845   -5.3925 H   0  0  0  0  0  0  0  0  0  0  0  0
   10.4252   11.5706   -5.6911 H   0  0  0  0  0  0  0  0  0  0  0  0
   11.8643   11.2965   -4.7234 H   0  0  0  0  0  0  0  0  0  0  0  0
   10.6967   11.1744   -1.5989 H   0  0  0  0  0  0  0  0  0  0  0  0
    9.5837   12.4923   -2.1766 H   0  0  0  0  0  0  0  0  0  0  0  0
    9.8764   12.2280   -0.4636 H   0  0  0  0  0  0  0  0  0  0  0  0
    6.5505    9.4434   -1.3887 H   0  0  0  0  0  0  0  0  0  0  0  0
    3.6163    3.5041   -2.6908 H   0  0  0  0  0  0  0  0  0  0  0  0
  1  2  1  0  0  0  0
  1 30  1  0  0  0  0
  1 31  1  0  0  0  0
  1 32  1  0  0  0  0
  2  3  1  0  0  0  0
  3  4  1  0  0  0  0
  3 28  2  0  0  0  0
  4  5  2  0  0  0  0
  4 33  1  0  0  0  0
  5  6  1  0  0  0  0
  5 34  1  0  0  0  0
  6  7  1  0  0  0  0
  6 27  2  0  0  0  0
  7  8  1  0  0  0  0
  7 35  1  0  0  0  0
  8  9  1  0  0  0  0
  8 26  2  0  0  0  0
  9 10  2  0  0  0  0
 10 11  1  0  0  0  0
 10 36  1  0  0  0  0
 11 12  2  0  0  0  0
 12 13  1  0  0  0  0
 12 26  1  0  0  0  0
 13 14  1  0  0  0  0
 13 37  1  0  0  0  0
 14 15  1  0  0  0  0
 14 25  2  0  0  0  0
 15 16  2  0  0  0  0
 15 38  1  0  0  0  0
 16 17  1  0  0  0  0
 16 19  1  0  0  0  0
 17 18  1  0  0  0  0
 18 39  1  0  0  0  0
 18 40  1  0  0  0  0
 18 41  1  0  0  0  0
 19 20  1  0  0  0  0
 19 22  2  0  0  0  0
 20 21  1  0  0  0  0
 21 42  1  0  0  0  0
 21 43  1  0  0  0  0
 21 44  1  0  0  0  0
 22 23  1  0  0  0  0
 22 25  1  0  0  0  0
 23 24  1  0  0  0  0
 24 45  1  0  0  0  0
 24 46  1  0  0  0  0
 24 47  1  0  0  0  0
 25 48  1  0  0  0  0
 27 28  1  0  0  0  0
 27 49  1  0  0  0  0
 28 29  1  0  0  0  0
M  END
>  <DRUGBANK_ID>
DB07251

>  <COMMON_NAME>
N'-(3-CHLORO-4-METHOXY-PHENYL)-N-(3,4,5-TRIMETHOXYPHENYL)-1,3,5-TRIAZINE-2,4-DIAMINE

$$$$
