1527
 OpenBabel10282417113D

 26 26  0  0  0  0  0  0  0  0999 V2000
   -2.1011   -0.1515    0.0053 Cl  0  0  0  0  0  0  0  0  0  0  0  0
    1.3319    3.7544    1.3246 N   0  0  0  0  0  0  0  0  0  0  0  0
   -0.0868    3.3639    1.2194 C   0  0  0  0  0  0  0  0  0  0  0  0
   -0.3789    2.5183   -0.0627 C   0  0  0  0  0  0  0  0  0  0  0  0
   -0.8945    4.6700    1.1556 C   0  0  0  0  0  0  0  0  0  0  0  0
   -0.4770    2.5860    2.4869 C   0  0  0  0  0  0  0  0  0  0  0  0
    0.3120    1.1643   -0.1170 C   0  0  0  0  0  0  0  0  0  0  0  0
   -0.3763   -0.0561   -0.0528 C   0  0  0  0  0  0  0  0  0  0  0  0
    1.7181    1.1238   -0.1923 C   0  0  0  0  0  0  0  0  0  0  0  0
    0.3279   -1.2670   -0.0205 C   0  0  0  0  0  0  0  0  0  0  0  0
    2.4185   -0.0769   -0.0848 C   0  0  0  0  0  0  0  0  0  0  0  0
    1.7226   -1.2736   -0.0098 C   0  0  0  0  0  0  0  0  0  0  0  0
    1.4666    4.3579    2.1349 H   0  0  0  0  0  0  0  0  0  0  0  0
    1.8848    2.9233    1.5343 H   0  0  0  0  0  0  0  0  0  0  0  0
   -0.1009    3.0804   -0.9647 H   0  0  0  0  0  0  0  0  0  0  0  0
   -1.4660    2.3961   -0.1404 H   0  0  0  0  0  0  0  0  0  0  0  0
   -1.9712    4.4689    1.1374 H   0  0  0  0  0  0  0  0  0  0  0  0
   -0.6946    5.3055    2.0270 H   0  0  0  0  0  0  0  0  0  0  0  0
   -0.6470    5.2494    0.2582 H   0  0  0  0  0  0  0  0  0  0  0  0
   -1.5453    2.3437    2.4837 H   0  0  0  0  0  0  0  0  0  0  0  0
    0.0777    1.6451    2.5765 H   0  0  0  0  0  0  0  0  0  0  0  0
   -0.2703    3.1684    3.3918 H   0  0  0  0  0  0  0  0  0  0  0  0
    2.2893    2.0422   -0.3080 H   0  0  0  0  0  0  0  0  0  0  0  0
   -0.2089   -2.2103    0.0109 H   0  0  0  0  0  0  0  0  0  0  0  0
    3.5056   -0.0660   -0.0626 H   0  0  0  0  0  0  0  0  0  0  0  0
    2.2640   -2.2147    0.0459 H   0  0  0  0  0  0  0  0  0  0  0  0
  1  8  1  0  0  0  0
  2  3  1  0  0  0  0
  2 13  1  0  0  0  0
  2 14  1  0  0  0  0
  3  4  1  0  0  0  0
  3  5  1  0  0  0  0
  3  6  1  0  0  0  0
  4  7  1  0  0  0  0
  4 15  1  0  0  0  0
  4 16  1  0  0  0  0
  5 17  1  0  0  0  0
  5 18  1  0  0  0  0
  5 19  1  0  0  0  0
  6 20  1  0  0  0  0
  6 21  1  0  0  0  0
  6 22  1  0  0  0  0
  7  8  1  0  0  0  0
  7  9  2  0  0  0  0
  8 10  2  0  0  0  0
  9 11  1  0  0  0  0
  9 23  1  0  0  0  0
 10 12  1  0  0  0  0
 10 24  1  0  0  0  0
 11 12  2  0  0  0  0
 11 25  1  0  0  0  0
 12 26  1  0  0  0  0
M  END
>  <DRUGBANK_ID>
DB01527

>  <COMMON_NAME>
Clortermine

>  <CAS_NUMBER>
10389-73-8

>  <UNII>
4FA88HM3IX

>  <SYNONYMS>
Clortermine

$$$$
