
 OpenBabel10282417213D

  1  0  0  0  0  0  0  0  0  0999 V2000
    1.0910    0.0144   -0.0390 Cd  0  0  0  0  0  0  0  0  0  0  0  0
M  END
>  <DRUGBANK_ID>
DB14085

>  <COMMON_NAME>
Cadmium

>  <CAS_NUMBER>
7440-43-9

>  <UNII>
00BH33GNGH

>  <SYNONYMS>
cadmio; Cadmium metal; Cadmium metallicum; Cadmium, elemental; Colloidal cadmium; Elemental cadmium; Kadmium

$$$$
