
 OpenBabel10282417193D

 62 65  0  0  0  0  0  0  0  0999 V2000
    0.9210   -0.0199    0.2980 C   0  0  0  0  0  0  0  0  0  0  0  0
    0.5168    1.4192    0.0798 C   0  0  0  0  0  0  0  0  0  0  0  0
    1.0775    2.0464   -1.2176 C   0  0  0  0  0  0  0  0  0  0  0  0
    0.6809    1.4083   -2.4845 N   0  0  0  0  0  0  0  0  0  0  0  0
    0.9530    0.0870   -2.7674 C   0  0  0  0  0  0  0  0  0  0  0  0
    0.3973   -0.5493   -3.8258 C   0  0  0  0  0  0  0  0  0  0  0  0
   -0.3668    0.1102   -4.7909 C   0  0  0  0  0  0  0  0  0  0  0  0
   -0.9881   -0.5298   -5.6507 O   0  0  0  0  0  0  0  0  0  0  0  0
   -0.3092    1.4978   -4.6753 N   0  0  0  0  0  0  0  0  0  0  0  0
    0.0729    2.1773   -3.4923 C   0  0  0  0  0  0  0  0  0  0  0  0
   -0.1242    3.3871   -3.3519 O   0  0  0  0  0  0  0  0  0  0  0  0
   -0.8157    2.2888   -5.7943 C   0  0  0  0  0  0  0  0  0  0  0  0
    0.1138    2.2626   -7.0247 C   0  0  0  0  0  0  0  0  0  0  0  0
    0.3262    0.8773   -7.6170 C   0  0  0  0  0  0  0  0  0  0  0  0
    0.7109   -1.8681   -3.6925 N   0  0  0  0  0  0  0  0  0  0  0  0
    1.3817   -1.9864   -2.4975 C   0  0  0  0  0  0  0  0  0  0  0  0
    1.7008   -0.7840   -2.0564 N   0  0  0  0  0  0  0  0  0  0  0  0
    1.7535   -3.2722   -1.8231 C   0  0  3  0  0  0  0  0  0  0  0  0
    0.8409   -3.6136   -0.6055 C   0  0  0  0  0  0  0  0  0  0  0  0
    1.3202   -4.8894    0.1039 C   0  0  0  0  0  0  0  0  0  0  0  0
    2.5440   -5.4917   -0.6243 C   0  0  3  0  0  0  0  0  0  0  0  0
    3.6758   -4.4533   -0.5971 C   0  0  0  0  0  0  0  0  0  0  0  0
    3.2087   -3.1673   -1.3015 C   0  0  0  0  0  0  0  0  0  0  0  0
    2.1966   -5.6716   -2.1002 C   0  0  0  0  0  0  0  0  0  0  0  0
    1.7015   -4.4372   -2.8041 C   0  0  0  0  0  0  0  0  0  0  0  0
    2.9286   -6.8575   -0.0116 C   0  0  0  0  0  0  0  0  0  0  0  0
    1.8066   -7.9327   -0.0097 C   0  0  0  0  0  0  0  0  0  0  0  0
    1.3669   -8.5363   -1.3399 C   0  0  0  0  0  0  0  0  0  0  0  0
    1.8932   -9.4874   -1.8935 O   0  0  0  0  0  0  0  0  0  0  0  0
    0.3550   -7.8877   -1.9548 O   0  0  0  0  0  0  0  0  0  0  0  0
    0.3094   -0.6295   -0.3696 H   0  0  0  0  0  0  0  0  0  0  0  0
    0.7054   -0.4206    1.2865 H   0  0  0  0  0  0  0  0  0  0  0  0
    1.9958   -0.1444    0.1160 H   0  0  0  0  0  0  0  0  0  0  0  0
   -0.5773    1.4692    0.0746 H   0  0  0  0  0  0  0  0  0  0  0  0
    0.8707    1.9994    0.9397 H   0  0  0  0  0  0  0  0  0  0  0  0
    0.7337    3.0893   -1.2168 H   0  0  0  0  0  0  0  0  0  0  0  0
    2.1716    2.0865   -1.1950 H   0  0  0  0  0  0  0  0  0  0  0  0
   -1.8100    1.9137   -6.0598 H   0  0  0  0  0  0  0  0  0  0  0  0
   -0.9402    3.3371   -5.4994 H   0  0  0  0  0  0  0  0  0  0  0  0
   -0.3191    2.9034   -7.8018 H   0  0  0  0  0  0  0  0  0  0  0  0
    1.0903    2.6845   -6.7608 H   0  0  0  0  0  0  0  0  0  0  0  0
   -0.6381    0.3993   -7.8214 H   0  0  0  0  0  0  0  0  0  0  0  0
    0.8896    0.9047   -8.5504 H   0  0  0  0  0  0  0  0  0  0  0  0
    0.9144    0.2558   -6.9353 H   0  0  0  0  0  0  0  0  0  0  0  0
    0.4656   -2.6035   -4.3446 H   0  0  0  0  0  0  0  0  0  0  0  0
   -0.2063   -3.7577   -0.9092 H   0  0  0  0  0  0  0  0  0  0  0  0
    0.8314   -2.8056    0.1318 H   0  0  0  0  0  0  0  0  0  0  0  0
    1.5613   -4.6830    1.1562 H   0  0  0  0  0  0  0  0  0  0  0  0
    0.4835   -5.5964    0.1274 H   0  0  0  0  0  0  0  0  0  0  0  0
    3.9866   -4.2240    0.4292 H   0  0  0  0  0  0  0  0  0  0  0  0
    4.5619   -4.8414   -1.1152 H   0  0  0  0  0  0  0  0  0  0  0  0
    3.2979   -2.3253   -0.6062 H   0  0  0  0  0  0  0  0  0  0  0  0
    3.8730   -2.9546   -2.1482 H   0  0  0  0  0  0  0  0  0  0  0  0
    2.9596   -6.2170   -2.6646 H   0  0  0  0  0  0  0  0  0  0  0  0
    1.3011   -6.2324   -2.0929 H   0  0  0  0  0  0  0  0  0  0  0  0
    0.6674   -4.6273   -3.1386 H   0  0  0  0  0  0  0  0  0  0  0  0
    2.2835   -4.2638   -3.7143 H   0  0  0  0  0  0  0  0  0  0  0  0
    3.8193   -7.2519   -0.5183 H   0  0  0  0  0  0  0  0  0  0  0  0
    3.2338   -6.6865    1.0324 H   0  0  0  0  0  0  0  0  0  0  0  0
    2.1826   -8.7827    0.5691 H   0  0  0  0  0  0  0  0  0  0  0  0
    0.9291   -7.5865    0.5437 H   0  0  0  0  0  0  0  0  0  0  0  0
    0.5634   -7.9307   -2.9181 H   0  0  0  0  0  0  0  0  0  0  0  0
  1  2  1  0  0  0  0
  1 31  1  0  0  0  0
  1 32  1  0  0  0  0
  1 33  1  0  0  0  0
  2  3  1  0  0  0  0
  2 34  1  0  0  0  0
  2 35  1  0  0  0  0
  3  4  1  0  0  0  0
  3 36  1  0  0  0  0
  3 37  1  0  0  0  0
  4  5  1  0  0  0  0
  4 10  1  0  0  0  0
  5  6  2  0  0  0  0
  5 17  1  0  0  0  0
  6  7  1  0  0  0  0
  6 15  1  0  0  0  0
  7  8  2  0  0  0  0
  7  9  1  0  0  0  0
  9 10  1  0  0  0  0
  9 12  1  0  0  0  0
 10 11  2  0  0  0  0
 12 13  1  0  0  0  0
 12 38  1  0  0  0  0
 12 39  1  0  0  0  0
 13 14  1  0  0  0  0
 13 40  1  0  0  0  0
 13 41  1  0  0  0  0
 14 42  1  0  0  0  0
 14 43  1  0  0  0  0
 14 44  1  0  0  0  0
 15 16  1  0  0  0  0
 15 45  1  0  0  0  0
 16 17  2  0  0  0  0
 16 18  1  0  0  0  0
 18 19  1  0  0  0  0
 18 23  1  0  0  0  0
 18 25  1  0  0  0  0
 19 20  1  0  0  0  0
 19 46  1  0  0  0  0
 19 47  1  0  0  0  0
 20 21  1  0  0  0  0
 20 48  1  0  0  0  0
 20 49  1  0  0  0  0
 21 22  1  0  0  0  0
 21 24  1  0  0  0  0
 21 26  1  0  0  0  0
 22 23  1  0  0  0  0
 22 50  1  0  0  0  0
 22 51  1  0  0  0  0
 23 52  1  0  0  0  0
 23 53  1  0  0  0  0
 24 25  1  0  0  0  0
 24 54  1  0  0  0  0
 24 55  1  0  0  0  0
 25 56  1  0  0  0  0
 25 57  1  0  0  0  0
 26 27  1  0  0  0  0
 26 58  1  0  0  0  0
 26 59  1  0  0  0  0
 27 28  1  0  0  0  0
 27 60  1  0  0  0  0
 27 61  1  0  0  0  0
 28 29  2  0  0  0  0
 28 30  1  0  0  0  0
 30 62  1  0  0  0  0
M  END
>  <DRUGBANK_ID>
DB12569

>  <SECONDARY_ACCESSION_NUMBERS>
DB05640

>  <COMMON_NAME>
Tonapofylline

>  <CAS_NUMBER>
340021-17-2

>  <UNII>
83VNU4U44T

>  <SYNONYMS>
Tonapofylline

$$$$
