GS6
 OpenBabel10282417163D

 52 55  0  0  0  0  0  0  0  0999 V2000
    1.0641   -0.1004    0.1237 Cl  0  0  0  0  0  0  0  0  0  0  0  0
    2.7868   -0.1053    0.1055 C   0  0  0  0  0  0  0  0  0  0  0  0
    3.4671    1.1033   -0.0135 C   0  0  0  0  0  0  0  0  0  0  0  0
    4.8594    1.0530   -0.2051 C   0  0  0  0  0  0  0  0  0  0  0  0
    5.5918   -0.1264   -0.0515 C   0  0  0  0  0  0  0  0  0  0  0  0
    7.0019    0.1438   -0.0457 C   0  0  0  0  0  0  0  0  0  0  0  0
    4.8722   -1.3335    0.0886 C   0  0  0  0  0  0  0  0  0  0  0  0
    3.4720   -1.3137    0.1129 C   0  0  0  0  0  0  0  0  0  0  0  0
    7.2869    1.4789   -0.2442 C   0  0  0  0  0  0  0  0  0  0  0  0
    8.7781    2.4143   -0.0610 S   0  0  0  0  0  0  0  0  0  0  0  0
    9.3689    2.0393    1.2018 O   0  0  0  0  0  0  0  0  0  0  0  0
    9.4927    2.2320   -1.3061 O   0  0  0  0  0  0  0  0  0  0  0  0
    8.4648    4.0628    0.0662 N   0  0  0  0  0  0  0  0  0  0  0  0
    7.8687    4.4698    1.3381 C   0  0  1  0  0  0  0  0  0  0  0  0
    7.4001    5.8800    1.1360 C   0  0  0  0  0  0  0  0  0  0  0  0
    6.2997    5.9289    2.1223 C   0  0  0  0  0  0  0  0  0  0  0  0
    6.6204    3.7240    1.8507 C   0  0  0  0  0  0  0  0  0  0  0  0
    6.5447    2.5684    2.1744 O   0  0  0  0  0  0  0  0  0  0  0  0
    5.5871    4.6534    1.9388 N   0  0  0  0  0  0  0  0  0  0  0  0
    4.1620    4.2170    2.3744 C   0  0  1  0  0  0  0  0  0  0  0  0
    3.9813    4.3695    3.8958 C   0  0  0  0  0  0  0  0  0  0  0  0
    2.8342    4.8507    1.5995 C   0  0  0  0  0  0  0  0  0  0  0  0
    1.9962    4.1285    1.0628 O   0  0  0  0  0  0  0  0  0  0  0  0
    2.6731    6.2457    1.7063 N   0  0  0  0  0  0  0  0  0  0  0  0
    3.8583    6.9656    1.5837 C   0  0  0  0  0  0  0  0  0  0  0  0
    4.0662    8.2006    2.4157 C   0  0  0  0  0  0  0  0  0  0  0  0
    3.0423    9.1001    2.0798 O   0  0  0  0  0  0  0  0  0  0  0  0
    1.7690    8.4310    2.2505 C   0  0  0  0  0  0  0  0  0  0  0  0
    1.5886    7.1398    1.3712 C   0  0  0  0  0  0  0  0  0  0  0  0
    5.8887    2.3070   -0.7909 S   0  0  0  0  0  0  0  0  0  0  0  0
    8.5943    4.4780    2.1492 H   0  0  0  0  0  0  0  0  0  0  0  0
    4.1041    3.1339    2.1809 H   0  0  0  0  0  0  0  0  0  0  0  0
    2.9299    2.0462   -0.0438 H   0  0  0  0  0  0  0  0  0  0  0  0
    7.7733   -0.5857    0.1665 H   0  0  0  0  0  0  0  0  0  0  0  0
    5.4045   -2.2800    0.1218 H   0  0  0  0  0  0  0  0  0  0  0  0
    2.9250   -2.2521    0.1256 H   0  0  0  0  0  0  0  0  0  0  0  0
    9.3280    4.5737   -0.1279 H   0  0  0  0  0  0  0  0  0  0  0  0
    8.1204    6.6794    1.3264 H   0  0  0  0  0  0  0  0  0  0  0  0
    6.9710    6.0650    0.1314 H   0  0  0  0  0  0  0  0  0  0  0  0
    6.5202    6.0926    3.1809 H   0  0  0  0  0  0  0  0  0  0  0  0
    5.9088    6.8522    1.7350 H   0  0  0  0  0  0  0  0  0  0  0  0
    4.0146    5.4216    4.1912 H   0  0  0  0  0  0  0  0  0  0  0  0
    3.0132    3.9723    4.2268 H   0  0  0  0  0  0  0  0  0  0  0  0
    4.7665    3.8455    4.4519 H   0  0  0  0  0  0  0  0  0  0  0  0
    4.1662    7.0277    0.5302 H   0  0  0  0  0  0  0  0  0  0  0  0
    4.3896    6.3074    2.1734 H   0  0  0  0  0  0  0  0  0  0  0  0
    4.0500    7.9230    3.4827 H   0  0  0  0  0  0  0  0  0  0  0  0
    5.0623    8.6314    2.2387 H   0  0  0  0  0  0  0  0  0  0  0  0
    1.0253    9.1804    2.0050 H   0  0  0  0  0  0  0  0  0  0  0  0
    1.7043    8.1646    3.3134 H   0  0  0  0  0  0  0  0  0  0  0  0
    1.7154    7.3908    0.3101 H   0  0  0  0  0  0  0  0  0  0  0  0
    0.6307    6.6533    1.5367 H   0  0  0  0  0  0  0  0  0  0  0  0
  1  2  1  0  0  0  0
  2  3  2  0  0  0  0
  2  8  1  0  0  0  0
  3  4  1  0  0  0  0
  3 33  1  0  0  0  0
  4  5  2  0  0  0  0
  4 30  1  0  0  0  0
  5  6  1  0  0  0  0
  5  7  1  0  0  0  0
  6  9  2  0  0  0  0
  6 34  1  0  0  0  0
  7  8  2  0  0  0  0
  7 35  1  0  0  0  0
  8 36  1  0  0  0  0
  9 10  1  0  0  0  0
  9 30  1  0  0  0  0
 10 11  2  0  0  0  0
 10 12  2  0  0  0  0
 10 13  1  0  0  0  0
 13 37  1  0  0  0  0
 14 13  1  0  0  0  0
 14 15  1  0  0  0  0
 14 17  1  0  0  0  0
 14 31  1  1  0  0  0
 15 16  1  0  0  0  0
 15 38  1  0  0  0  0
 15 39  1  0  0  0  0
 16 19  1  0  0  0  0
 16 40  1  0  0  0  0
 16 41  1  0  0  0  0
 17 18  2  0  0  0  0
 17 19  1  0  0  0  0
 19 20  1  0  0  0  0
 20 21  1  0  0  0  0
 20 22  1  0  0  0  0
 20 32  1  6  0  0  0
 21 42  1  0  0  0  0
 21 43  1  0  0  0  0
 21 44  1  0  0  0  0
 22 23  2  0  0  0  0
 22 24  1  0  0  0  0
 24 25  1  0  0  0  0
 24 29  1  0  0  0  0
 25 26  1  0  0  0  0
 25 45  1  0  0  0  0
 25 46  1  0  0  0  0
 26 27  1  0  0  0  0
 26 47  1  0  0  0  0
 26 48  1  0  0  0  0
 27 28  1  0  0  0  0
 28 29  1  0  0  0  0
 28 49  1  0  0  0  0
 28 50  1  0  0  0  0
 29 51  1  0  0  0  0
 29 52  1  0  0  0  0
M  END
>  <DRUGBANK_ID>
DB07844

>  <COMMON_NAME>
6-CHLORO-N-{(3S)-1-[(1S)-1-METHYL-2-MORPHOLIN-4-YL-2-OXOETHYL]-2-OXOPYRROLIDIN-3-YL}-1-BENZOTHIOPHENE-2-SULFONAMIDE

$$$$
