SB9
 OpenBabel10282417173D

 28 28  0  0  0  0  0  0  0  0999 V2000
    0.8888   -0.1548    0.0355 C   0  0  0  0  0  0  0  0  0  0  0  0
    0.2554    1.0320    0.1002 N   0  0  0  0  0  0  0  0  0  0  0  0
   -1.1021    1.1053    0.0722 C   0  0  0  0  0  0  0  0  0  0  0  0
   -1.8715   -0.0336    0.0018 C   0  0  0  0  0  0  0  0  0  0  0  0
   -1.2227   -1.2642   -0.0090 C   0  0  0  0  0  0  0  0  0  0  0  0
    0.1714   -1.3325    0.0053 C   0  0  0  0  0  0  0  0  0  0  0  0
    2.3902   -0.1266    0.0030 C   0  0  0  0  0  0  0  0  0  0  0  0
   -1.7613    2.4696    0.1415 C   0  0  0  0  0  0  0  0  0  0  0  0
   -1.2107    3.3139    1.2895 C   0  0  0  0  0  0  0  0  0  0  0  0
    0.2988    3.5683    1.2161 C   0  0  0  0  0  0  0  0  0  0  0  0
    0.7142    4.2608   -0.0208 N   0  0  0  0  0  0  0  0  0  0  0  0
    1.2809    5.5412    0.1633 O   0  0  0  0  0  0  0  0  0  0  0  0
    0.6814    3.8644   -1.3417 C   0  0  0  0  0  0  0  0  0  0  0  0
    0.3034    2.8212   -1.8694 O   0  0  0  0  0  0  0  0  0  0  0  0
   -2.9517    0.0351   -0.0249 H   0  0  0  0  0  0  0  0  0  0  0  0
   -1.8101   -2.1742   -0.0321 H   0  0  0  0  0  0  0  0  0  0  0  0
    0.6777   -2.2895   -0.0098 H   0  0  0  0  0  0  0  0  0  0  0  0
    2.7474    0.3959   -0.8919 H   0  0  0  0  0  0  0  0  0  0  0  0
    2.7814    0.3946    0.8837 H   0  0  0  0  0  0  0  0  0  0  0  0
    2.8150   -1.1356   -0.0064 H   0  0  0  0  0  0  0  0  0  0  0  0
   -1.6814    3.0174   -0.8015 H   0  0  0  0  0  0  0  0  0  0  0  0
   -2.8446    2.3589    0.2711 H   0  0  0  0  0  0  0  0  0  0  0  0
   -1.7297    4.2813    1.3013 H   0  0  0  0  0  0  0  0  0  0  0  0
   -1.4547    2.8190    2.2391 H   0  0  0  0  0  0  0  0  0  0  0  0
    0.5733    4.1781    2.0863 H   0  0  0  0  0  0  0  0  0  0  0  0
    0.8984    2.6676    1.3483 H   0  0  0  0  0  0  0  0  0  0  0  0
    1.5155    5.5688    1.1056 H   0  0  0  0  0  0  0  0  0  0  0  0
    1.0128    4.6698   -2.0055 H   0  0  0  0  0  0  0  0  0  0  0  0
  1  2  2  0  0  0  0
  1  6  1  0  0  0  0
  1  7  1  0  0  0  0
  2  3  1  0  0  0  0
  3  4  2  0  0  0  0
  3  8  1  0  0  0  0
  4  5  1  0  0  0  0
  4 15  1  0  0  0  0
  5  6  2  0  0  0  0
  5 16  1  0  0  0  0
  6 17  1  0  0  0  0
  7 18  1  0  0  0  0
  7 19  1  0  0  0  0
  7 20  1  0  0  0  0
  8  9  1  0  0  0  0
  8 21  1  0  0  0  0
  8 22  1  0  0  0  0
  9 10  1  0  0  0  0
  9 23  1  0  0  0  0
  9 24  1  0  0  0  0
 10 11  1  0  0  0  0
 10 25  1  0  0  0  0
 10 26  1  0  0  0  0
 11 12  1  0  0  0  0
 11 13  1  0  0  0  0
 12 27  1  0  0  0  0
 13 14  2  0  0  0  0
 13 28  1  0  0  0  0
M  END
>  <DRUGBANK_ID>
DB08525

>  <COMMON_NAME>
HYDROXY[3-(6-METHYLPYRIDIN-2-YL)PROPYL]FORMAMIDE

$$$$
