830
 OpenBabel10282417113D

 28 29  0  0  1  0  0  0  0  0999 V2000
    0.7355    1.1981   -0.2155 O   0  0  0  0  0  0  0  0  0  0  0  0
   -0.7897   -1.2548    0.2003 N   0  0  0  0  0  0  0  0  0  0  0  0
    0.5940   -1.2501   -0.3463 C   0  0  3  0  0  0  0  0  0  0  0  0
    1.4145   -0.0216    0.1680 C   0  0  3  0  0  0  0  0  0  0  0  0
   -1.4474    0.0064   -0.1794 C   0  0  0  0  0  0  0  0  0  0  0  0
   -0.6250    1.2254    0.2689 C   0  0  0  0  0  0  0  0  0  0  0  0
    2.8830   -0.0200   -0.2735 C   0  0  0  0  0  0  0  0  0  0  0  0
    0.5186   -1.3211   -1.8882 C   0  0  0  0  0  0  0  0  0  0  0  0
    3.7105    1.0707    0.0151 C   0  0  0  0  0  0  0  0  0  0  0  0
    3.4822   -1.1297   -0.9080 C   0  0  0  0  0  0  0  0  0  0  0  0
    5.0623    1.0659   -0.3628 C   0  0  0  0  0  0  0  0  0  0  0  0
    4.8107   -1.1179   -1.3294 C   0  0  0  0  0  0  0  0  0  0  0  0
    5.6013   -0.0187   -1.0569 C   0  0  0  0  0  0  0  0  0  0  0  0
   -0.7255   -1.2819    1.2199 H   0  0  0  0  0  0  0  0  0  0  0  0
    1.0715   -2.1634    0.0304 H   0  0  0  0  0  0  0  0  0  0  0  0
    1.4381   -0.0432    1.2685 H   0  0  0  0  0  0  0  0  0  0  0  0
   -1.6008    0.0340   -1.2631 H   0  0  0  0  0  0  0  0  0  0  0  0
   -2.4524    0.0302    0.2531 H   0  0  0  0  0  0  0  0  0  0  0  0
   -0.6175    1.2949    1.3632 H   0  0  0  0  0  0  0  0  0  0  0  0
   -1.0994    2.1342   -0.1164 H   0  0  0  0  0  0  0  0  0  0  0  0
    1.4900   -1.3738   -2.3801 H   0  0  0  0  0  0  0  0  0  0  0  0
   -0.0339   -2.2126   -2.1969 H   0  0  0  0  0  0  0  0  0  0  0  0
    0.0489   -0.4383   -2.3284 H   0  0  0  0  0  0  0  0  0  0  0  0
    3.3130    1.9333    0.5472 H   0  0  0  0  0  0  0  0  0  0  0  0
    2.9347   -2.0423   -1.1135 H   0  0  0  0  0  0  0  0  0  0  0  0
    5.6975    1.9094   -0.1148 H   0  0  0  0  0  0  0  0  0  0  0  0
    5.2100   -1.9808   -1.8581 H   0  0  0  0  0  0  0  0  0  0  0  0
    6.6413   -0.0128   -1.3725 H   0  0  0  0  0  0  0  0  0  0  0  0
  1  4  1  0  0  0  0
  1  6  1  0  0  0  0
  2  3  1  0  0  0  0
  2  5  1  0  0  0  0
  2 14  1  0  0  0  0
  3  4  1  0  0  0  0
  3  8  1  0  0  0  0
  3 15  1  0  0  0  0
  4  7  1  0  0  0  0
  4 16  1  0  0  0  0
  5  6  1  0  0  0  0
  5 17  1  0  0  0  0
  5 18  1  0  0  0  0
  6 19  1  0  0  0  0
  6 20  1  0  0  0  0
  7  9  2  0  0  0  0
  7 10  1  0  0  0  0
  8 21  1  0  0  0  0
  8 22  1  0  0  0  0
  8 23  1  0  0  0  0
  9 11  1  0  0  0  0
  9 24  1  0  0  0  0
 10 12  2  0  0  0  0
 10 25  1  0  0  0  0
 11 13  2  0  0  0  0
 11 26  1  0  0  0  0
 12 13  1  0  0  0  0
 12 27  1  0  0  0  0
 13 28  1  0  0  0  0
M  END
>  <DRUGBANK_ID>
DB00830

>  <SECONDARY_ACCESSION_NUMBERS>
APRD00262

>  <COMMON_NAME>
Phenmetrazine

>  <CAS_NUMBER>
134-49-6

>  <UNII>
XA501VL3VR

>  <SYNONYMS>
2-phenyl-3-methylmorpholine; Fenmetrazin; Fenmetrazina; Phenmetrazin; Phenmetrazine; Phenmetrazinum

$$$$
