
 OpenBabel10282417193D

 83 88  0  0  1  0  0  0  0  0999 V2000
   -1.0827    5.3610    2.4068 C   0  0  0  0  0  0  0  0  0  0  0  0
    5.0438    4.4623   -1.3433 C   0  0  0  0  0  0  0  0  0  0  0  0
   -0.9344   -4.6987   -4.9935 C   0  0  0  0  0  0  0  0  0  0  0  0
   -0.2059   -3.8932   -5.8710 C   0  0  0  0  0  0  0  0  0  0  0  0
   -1.1980   -4.2754   -3.7027 C   0  0  0  0  0  0  0  0  0  0  0  0
    0.2675   -2.6563   -5.4650 C   0  0  0  0  0  0  0  0  0  0  0  0
    2.7132    6.2986   -0.1859 C   0  0  0  0  0  0  0  0  0  0  0  0
    0.9903    6.0473    0.4182 C   0  0  0  0  0  0  0  0  0  0  0  0
   -0.7299    0.5832    1.7042 C   0  0  0  0  0  0  0  0  0  0  0  0
    0.5633    2.2874    1.1942 C   0  0  0  0  0  0  0  0  0  0  0  0
   -1.7232    3.4363    4.0687 C   0  0  0  0  0  0  0  0  0  0  0  0
    0.3350    5.3129    2.1806 C   0  0  1  0  0  0  0  0  0  0  0  0
    3.7594    4.4511   -0.7405 C   0  0  1  0  0  0  0  0  0  0  0  0
   -0.7258   -3.0418   -3.2968 C   0  0  0  0  0  0  0  0  0  0  0  0
    0.0030   -2.2412   -4.1724 C   0  0  0  0  0  0  0  0  0  0  0  0
   -0.4757    0.2497    0.2174 C   0  0  0  0  0  0  0  0  0  0  0  0
    1.7473    4.5007   -0.5982 C   0  0  1  0  0  0  0  0  0  0  0  0
    2.2101    4.6378    1.4377 C   0  0  1  0  0  0  0  0  0  0  0  0
    0.6383    2.4087   -0.4344 C   0  0  1  0  0  0  0  0  0  0  0  0
   -0.6451    2.4509    3.4806 C   0  0  0  0  0  0  0  0  0  0  0  0
    2.8900    6.6936    1.3959 C   0  0  1  0  0  0  0  0  0  0  0  0
    0.8024    5.6104   -1.4538 C   0  0  1  0  0  0  0  0  0  0  0  0
    0.1415    1.0860   -0.7796 C   0  0  0  0  0  0  0  0  0  0  0  0
   -0.5434   -1.3504   -1.4871 C   0  0  0  0  0  0  0  0  0  0  0  0
    0.1849   -0.5472   -2.3933 C   0  0  0  0  0  0  0  0  0  0  0  0
    0.0096    4.4933    0.4274 C   0  0  2  0  0  0  0  0  0  0  0  0
   -1.0218   -2.6370   -1.9324 C   0  0  0  0  0  0  0  0  0  0  0  0
    0.5042   -0.9509   -3.7504 C   0  0  0  0  0  0  0  0  0  0  0  0
   -0.8451   -0.9804   -0.1800 C   0  0  0  0  0  0  0  0  0  0  0  0
    0.5761    0.6824   -2.0260 C   0  0  0  0  0  0  0  0  0  0  0  0
    3.6672    4.5889    0.9928 C   0  0  2  0  0  0  0  0  0  0  0  0
   -0.7502    2.0308    1.9061 C   0  0  2  0  0  0  0  0  0  0  0  0
    1.7378    3.9849   -2.5018 N   0  0  0  0  0  0  0  0  0  0  0  0
   -2.6118    2.9111    4.9882 O   0  0  0  0  0  0  0  0  0  0  0  0
    2.4348    4.2308    2.9892 O   0  0  0  0  0  0  0  0  0  0  0  0
    0.2968    2.0936    4.1933 O   0  0  0  0  0  0  0  0  0  0  0  0
   -1.2134    5.4252   -0.3586 O   0  0  0  0  0  0  0  0  0  0  0  0
   -1.6661   -3.3782   -1.2038 O   0  0  0  0  0  0  0  0  0  0  0  0
    1.1479   -0.2266   -4.5047 O   0  0  0  0  0  0  0  0  0  0  0  0
   -1.5178   -1.7753    0.6925 O   0  0  0  0  0  0  0  0  0  0  0  0
    1.3854    1.5013   -2.7507 O   0  0  0  0  0  0  0  0  0  0  0  0
   -1.9524    2.4342    1.2514 O   0  0  0  0  0  0  0  0  0  0  0  0
    1.4581    6.6199    2.3652 O   0  0  0  0  0  0  0  0  0  0  0  0
    2.6725    5.5300   -1.8870 O   0  0  0  0  0  0  0  0  0  0  0  0
    0.0308    3.8329   -1.4690 O   0  0  0  0  0  0  0  0  0  0  0  0
    3.9834    5.7961    1.6873 O   0  0  0  0  0  0  0  0  0  0  0  0
    0.7746    4.8602    3.0134 H   0  0  0  0  0  0  0  0  0  0  0  0
    3.6265    3.3128   -0.8565 H   0  0  0  0  0  0  0  0  0  0  0  0
    2.1761    3.5275   -0.6661 H   0  0  0  0  0  0  0  0  0  0  0  0
    2.1198    3.5719    1.2404 H   0  0  0  0  0  0  0  0  0  0  0  0
    1.7099    2.1366   -0.6218 H   0  0  0  0  0  0  0  0  0  0  0  0
    3.1998    7.7270    1.4485 H   0  0  0  0  0  0  0  0  0  0  0  0
    0.2129    6.2858   -2.1291 H   0  0  0  0  0  0  0  0  0  0  0  0
   -0.6464    3.6705    0.2995 H   0  0  0  0  0  0  0  0  0  0  0  0
    4.1185    3.6726    1.4641 H   0  0  0  0  0  0  0  0  0  0  0  0
   -1.3283    5.8602    3.3036 H   0  0  0  0  0  0  0  0  0  0  0  0
   -1.0516    4.2866    2.3732 H   0  0  0  0  0  0  0  0  0  0  0  0
   -1.8002    5.4484    1.6031 H   0  0  0  0  0  0  0  0  0  0  0  0
    5.5474    3.6112   -0.8710 H   0  0  0  0  0  0  0  0  0  0  0  0
    4.6908    4.2727   -2.3579 H   0  0  0  0  0  0  0  0  0  0  0  0
    5.3236    5.4535   -1.0480 H   0  0  0  0  0  0  0  0  0  0  0  0
   -1.3020   -5.6652   -5.3143 H   0  0  0  0  0  0  0  0  0  0  0  0
   -0.0046   -4.2319   -6.8797 H   0  0  0  0  0  0  0  0  0  0  0  0
   -1.7642   -4.8939   -3.0103 H   0  0  0  0  0  0  0  0  0  0  0  0
    0.8354   -2.0223   -6.1412 H   0  0  0  0  0  0  0  0  0  0  0  0
    3.6721    6.6087   -0.6634 H   0  0  0  0  0  0  0  0  0  0  0  0
    2.1169    7.1659   -0.6696 H   0  0  0  0  0  0  0  0  0  0  0  0
   -0.0226    6.2970    0.7710 H   0  0  0  0  0  0  0  0  0  0  0  0
    0.9193    7.1485    0.6282 H   0  0  0  0  0  0  0  0  0  0  0  0
    0.0259    0.1276    2.3610 H   0  0  0  0  0  0  0  0  0  0  0  0
   -1.7391    0.3225    2.0108 H   0  0  0  0  0  0  0  0  0  0  0  0
    0.6818    3.1733    1.7200 H   0  0  0  0  0  0  0  0  0  0  0  0
    1.4256    1.6750    1.5637 H   0  0  0  0  0  0  0  0  0  0  0  0
   -1.2029    4.3083    4.5143 H   0  0  0  0  0  0  0  0  0  0  0  0
   -2.4037    3.8015    3.2830 H   0  0  0  0  0  0  0  0  0  0  0  0
    0.8987    3.4081   -2.6295 H   0  0  0  0  0  0  0  0  0  0  0  0
    1.4485    4.8483   -3.0426 H   0  0  0  0  0  0  0  0  0  0  0  0
   -3.0478    2.2296    4.4547 H   0  0  0  0  0  0  0  0  0  0  0  0
    2.4464    4.9912    3.6073 H   0  0  0  0  0  0  0  0  0  0  0  0
   -1.0090    6.3876   -0.4337 H   0  0  0  0  0  0  0  0  0  0  0  0
   -1.6581   -1.3769    1.5628 H   0  0  0  0  0  0  0  0  0  0  0  0
    1.5488    1.2073   -3.6722 H   0  0  0  0  0  0  0  0  0  0  0  0
   -2.0311    3.3706    0.9964 H   0  0  0  0  0  0  0  0  0  0  0  0
  1 56  1  0  0  0  0
  1 57  1  0  0  0  0
  1 58  1  0  0  0  0
  2 59  1  0  0  0  0
  2 60  1  0  0  0  0
  2 61  1  0  0  0  0
  3 62  1  0  0  0  0
  4  3  2  0  0  0  0
  4 63  1  0  0  0  0
  5  3  1  0  0  0  0
  5 64  1  0  0  0  0
  6  4  1  0  0  0  0
  6 65  1  0  0  0  0
  7 66  1  0  0  0  0
  7 67  1  0  0  0  0
  8 68  1  0  0  0  0
  8 69  1  0  0  0  0
  9 70  1  0  0  0  0
  9 71  1  0  0  0  0
 10 72  1  0  0  0  0
 10 73  1  0  0  0  0
 11 74  1  0  0  0  0
 11 75  1  0  0  0  0
 12 47  1  1  0  0  0
 12  1  1  0  0  0  0
 13  2  1  0  0  0  0
 13 48  1  6  0  0  0
 14  5  2  0  0  0  0
 15  6  2  0  0  0  0
 15 14  1  0  0  0  0
 16  9  1  0  0  0  0
 17  7  1  0  0  0  0
 17 33  1  0  0  0  0
 17 49  1  1  0  0  0
 18  8  1  0  0  0  0
 18 35  1  0  0  0  0
 18 50  1  6  0  0  0
 19 10  1  0  0  0  0
 19 51  1  6  0  0  0
 19 45  1  0  0  0  0
 20 11  1  0  0  0  0
 21  7  1  0  0  0  0
 21 46  1  0  0  0  0
 21 52  1  1  0  0  0
 22  8  1  0  0  0  0
 22 45  1  0  0  0  0
 22 53  1  6  0  0  0
 23 16  1  0  0  0  0
 23 19  1  0  0  0  0
 25 24  2  0  0  0  0
 26 12  1  0  0  0  0
 26 17  1  0  0  0  0
 26 37  1  0  0  0  0
 26 54  1  1  0  0  0
 27 14  1  0  0  0  0
 27 24  1  0  0  0  0
 28 15  1  0  0  0  0
 28 25  1  0  0  0  0
 29 16  2  0  0  0  0
 29 24  1  0  0  0  0
 30 23  2  0  0  0  0
 30 25  1  0  0  0  0
 31 13  1  0  0  0  0
 31 18  1  0  0  0  0
 31 55  1  1  0  0  0
 31 46  1  0  0  0  0
 32  9  1  0  0  0  0
 32 10  1  0  0  0  0
 32 20  1  1  0  0  0
 32 42  1  0  0  0  0
 33 76  1  0  0  0  0
 33 77  1  0  0  0  0
 34 11  1  0  0  0  0
 34 78  1  0  0  0  0
 35 79  1  0  0  0  0
 36 20  2  0  0  0  0
 37 80  1  0  0  0  0
 38 27  2  0  0  0  0
 39 28  2  0  0  0  0
 40 29  1  0  0  0  0
 40 81  1  0  0  0  0
 41 30  1  0  0  0  0
 41 82  1  0  0  0  0
 42 83  1  0  0  0  0
 43 12  1  0  0  0  0
 43 21  1  0  0  0  0
 44 13  1  0  0  0  0
 44 22  1  0  0  0  0
M  END
>  <DRUGBANK_ID>
DB12410

>  <COMMON_NAME>
Sabarubicin

>  <CAS_NUMBER>
211100-13-9

>  <UNII>
XS499WOZ93

>  <SYNONYMS>
Sabarubicin

$$$$
