
 OpenBabel10282417143D

 22 21  0  0  1  0  0  0  0  0999 V2000
   -0.4825    0.2126    2.2519 C   0  0  0  0  0  0  0  0  0  0  0  0
    0.3649   -0.9331    2.7793 C   0  0  0  0  0  0  0  0  0  0  0  0
    0.4870   -1.5180    0.2505 C   0  0  0  0  0  0  0  0  0  0  0  0
    1.3373   -2.1737   -0.8290 C   0  0  0  0  0  0  0  0  0  0  0  0
    0.8759   -1.9017    1.6917 C   0  0  2  0  0  0  0  0  0  0  0  0
    1.2096   -3.6653   -0.8857 C   0  0  0  0  0  0  0  0  0  0  0  0
    0.3634   -3.2456    1.9886 N   0  0  0  0  0  0  0  0  0  0  0  0
    0.5217   -4.2892   -1.6822 O   0  0  0  0  0  0  0  0  0  0  0  0
    1.9096   -4.2947    0.0729 O   0  0  0  0  0  0  0  0  0  0  0  0
    1.9721   -1.9318    1.7560 H   0  0  0  0  0  0  0  0  0  0  0  0
    0.1155    0.8784    1.6212 H   0  0  0  0  0  0  0  0  0  0  0  0
   -0.8853    0.8128    3.0690 H   0  0  0  0  0  0  0  0  0  0  0  0
   -1.3253   -0.1705    1.6673 H   0  0  0  0  0  0  0  0  0  0  0  0
    1.2269   -0.5262    3.3248 H   0  0  0  0  0  0  0  0  0  0  0  0
   -0.2212   -1.4726    3.5350 H   0  0  0  0  0  0  0  0  0  0  0  0
   -0.5774   -1.7312    0.0804 H   0  0  0  0  0  0  0  0  0  0  0  0
    0.6183   -0.4415    0.0965 H   0  0  0  0  0  0  0  0  0  0  0  0
    1.0152   -1.7770   -1.7997 H   0  0  0  0  0  0  0  0  0  0  0  0
    2.3893   -1.8946   -0.7135 H   0  0  0  0  0  0  0  0  0  0  0  0
    0.7043   -3.5531    2.8983 H   0  0  0  0  0  0  0  0  0  0  0  0
   -0.6540   -3.2355    2.0302 H   0  0  0  0  0  0  0  0  0  0  0  0
    1.4106   -5.1217    0.2357 H   0  0  0  0  0  0  0  0  0  0  0  0
  1 11  1  0  0  0  0
  1 12  1  0  0  0  0
  1 13  1  0  0  0  0
  2  1  1  0  0  0  0
  2 14  1  0  0  0  0
  2 15  1  0  0  0  0
  3 16  1  0  0  0  0
  3 17  1  0  0  0  0
  4  3  1  0  0  0  0
  4 18  1  0  0  0  0
  4 19  1  0  0  0  0
  5  7  1  0  0  0  0
  5 10  1  1  0  0  0
  5  3  1  0  0  0  0
  5  2  1  0  0  0  0
  6  4  1  0  0  0  0
  7 20  1  0  0  0  0
  7 21  1  0  0  0  0
  8  6  2  0  0  0  0
  9  6  1  0  0  0  0
  9 22  1  0  0  0  0
M  END
>  <DRUGBANK_ID>
DB04235

>  <SECONDARY_ACCESSION_NUMBERS>
EXPT03223

>  <COMMON_NAME>
4-Amino Hexanoic Acid

>  <UNII>
R907014A4Q

$$$$
