NNI
 OpenBabel10282417173D

 37 39  0  0  0  0  0  0  0  0999 V2000
    2.9186    1.1731   -0.0093 C   0  0  0  0  0  0  0  0  0  0  0  0
    1.5128    1.2142   -0.0094 C   0  0  0  0  0  0  0  0  0  0  0  0
    0.7755    0.0294    0.0002 C   0  0  0  0  0  0  0  0  0  0  0  0
   -1.2959    0.0472    0.0101 I   0  0  0  0  0  0  0  0  0  0  0  0
    1.4274   -1.1909    0.0049 C   0  0  0  0  0  0  0  0  0  0  0  0
    2.8146   -1.2234    0.0190 C   0  0  0  0  0  0  0  0  0  0  0  0
    3.5840   -0.0590    0.0348 C   0  0  0  0  0  0  0  0  0  0  0  0
    4.9863   -0.0871    0.2130 N   0  0  0  0  0  0  0  0  0  0  0  0
    5.7538   -1.1862    0.5411 C   0  0  0  0  0  0  0  0  0  0  0  0
    7.1645   -1.0405    1.4183 S   0  0  0  0  0  0  0  0  0  0  0  0
    5.2977   -2.3671    0.0577 O   0  0  0  0  0  0  0  0  0  0  0  0
    6.0248   -3.6069   -0.0927 C   0  0  0  0  0  0  0  0  0  0  0  0
    6.7541   -3.6754   -1.4474 C   0  0  0  0  0  0  0  0  0  0  0  0
    7.6969   -2.5858   -1.6661 N   0  0  0  0  0  0  0  0  0  0  0  0
    9.0560   -2.7194   -1.6530 C   0  0  0  0  0  0  0  0  0  0  0  0
    9.7205   -3.7349   -1.5464 O   0  0  0  0  0  0  0  0  0  0  0  0
    9.6129   -1.3665   -1.7685 C   0  0  0  0  0  0  0  0  0  0  0  0
   10.9107   -0.9076   -1.8270 C   0  0  0  0  0  0  0  0  0  0  0  0
   11.1024    0.4816   -1.8193 C   0  0  0  0  0  0  0  0  0  0  0  0
   10.0149    1.3671   -1.6730 C   0  0  0  0  0  0  0  0  0  0  0  0
    8.7095    0.8794   -1.6415 C   0  0  0  0  0  0  0  0  0  0  0  0
    8.5511   -0.4874   -1.7791 C   0  0  0  0  0  0  0  0  0  0  0  0
    7.3403   -1.2868   -1.9291 C   0  0  0  0  0  0  0  0  0  0  0  0
    6.2800   -0.8157   -2.2623 O   0  0  0  0  0  0  0  0  0  0  0  0
    3.4640    2.1144    0.0030 H   0  0  0  0  0  0  0  0  0  0  0  0
    1.0029    2.1739    0.0039 H   0  0  0  0  0  0  0  0  0  0  0  0
    0.8980   -2.1385    0.0151 H   0  0  0  0  0  0  0  0  0  0  0  0
    3.2456   -2.2116    0.0279 H   0  0  0  0  0  0  0  0  0  0  0  0
    5.4763    0.7987    0.2141 H   0  0  0  0  0  0  0  0  0  0  0  0
    6.6732   -3.7889    0.7666 H   0  0  0  0  0  0  0  0  0  0  0  0
    5.2620   -4.3988   -0.0762 H   0  0  0  0  0  0  0  0  0  0  0  0
    7.2892   -4.6309   -1.4926 H   0  0  0  0  0  0  0  0  0  0  0  0
    6.0208   -3.6472   -2.2604 H   0  0  0  0  0  0  0  0  0  0  0  0
   11.7443   -1.5970   -1.8965 H   0  0  0  0  0  0  0  0  0  0  0  0
   12.1072    0.8878   -1.9154 H   0  0  0  0  0  0  0  0  0  0  0  0
   10.1931    2.4393   -1.6077 H   0  0  0  0  0  0  0  0  0  0  0  0
    7.8591    1.5386   -1.5014 H   0  0  0  0  0  0  0  0  0  0  0  0
  1  2  1  0  0  0  0
  1  7  2  0  0  0  0
  1 25  1  0  0  0  0
  2  3  2  0  0  0  0
  2 26  1  0  0  0  0
  3  4  1  0  0  0  0
  3  5  1  0  0  0  0
  5  6  2  0  0  0  0
  5 27  1  0  0  0  0
  6  7  1  0  0  0  0
  6 28  1  0  0  0  0
  7  8  1  0  0  0  0
  8  9  1  0  0  0  0
  8 29  1  0  0  0  0
  9 10  2  0  0  0  0
  9 11  1  0  0  0  0
 11 12  1  0  0  0  0
 12 13  1  0  0  0  0
 12 30  1  0  0  0  0
 12 31  1  0  0  0  0
 13 14  1  0  0  0  0
 13 32  1  0  0  0  0
 13 33  1  0  0  0  0
 14 23  1  0  0  0  0
 14 15  1  0  0  0  0
 15 16  2  0  0  0  0
 17 15  1  0  0  0  0
 18 17  1  0  0  0  0
 18 34  1  0  0  0  0
 19 18  2  0  0  0  0
 19 35  1  0  0  0  0
 20 19  1  0  0  0  0
 20 36  1  0  0  0  0
 21 20  2  0  0  0  0
 21 37  1  0  0  0  0
 22 21  1  0  0  0  0
 22 17  2  0  0  0  0
 23 24  2  0  0  0  0
 23 22  1  0  0  0  0
M  END
>  <DRUGBANK_ID>
DB08284

>  <COMMON_NAME>
O-[2-(1,3-dioxo-1,3-dihydro-2H-isoindol-2-yl)ethyl] (4-iodophenyl)thiocarbamate

$$$$
