M1N
 OpenBabel10282417143D

 64 66  0  0  0  0  0  0  0  0999 V2000
    5.8545    5.2822   -0.0080 O   0  0  0  0  0  0  0  0  0  0  0  0
    4.7647    5.2893    0.6458 C   0  0  0  0  0  0  0  0  0  0  0  0
    4.6118    6.1738    1.8099 N   0  0  0  0  0  0  0  0  0  0  0  0
    3.3944    6.0064    2.6167 C   0  0  2  0  0  0  0  0  0  0  0  0
    3.3801    4.5429    3.2633 B   0  0  0  0  0  0  0  0  0  0  0  0
    2.7227    3.4078    2.5357 O   0  0  0  0  0  0  0  0  0  0  0  0
    4.0242    4.3060    4.5971 O   0  0  0  0  0  0  0  0  0  0  0  0
    2.1716    6.1808    1.7309 C   0  0  0  0  0  0  0  0  0  0  0  0
    0.9128    6.0077    2.5650 C   0  0  0  0  0  0  0  0  0  0  0  0
    0.8903    7.0504    3.6708 C   0  0  0  0  0  0  0  0  0  0  0  0
   -0.3100    6.1821    1.6792 C   0  0  0  0  0  0  0  0  0  0  0  0
    3.8807    4.1684    0.1238 C   0  0  2  0  0  0  0  0  0  0  0  0
    4.5271    3.5332   -1.0337 N   0  0  0  0  0  0  0  0  0  0  0  0
    4.6115    4.2714   -2.3021 C   0  0  0  0  0  0  0  0  0  0  0  0
    5.1510    3.6136   -3.5009 N   0  0  0  0  0  0  0  0  0  0  0  0
    4.7491    2.2470   -3.8810 C   0  0  0  0  0  0  0  0  0  0  0  0
    5.9822    1.3846   -4.0313 C   0  0  0  0  0  0  0  0  0  0  0  0
    6.8762    1.9339   -4.9992 O   0  0  0  0  0  0  0  0  0  0  0  0
    7.2829    3.2424   -4.5980 C   0  0  0  0  0  0  0  0  0  0  0  0
    6.0924    4.1764   -4.4899 C   0  0  0  0  0  0  0  0  0  0  0  0
    4.2180    5.4784   -2.3623 O   0  0  0  0  0  0  0  0  0  0  0  0
    2.5355    4.7379   -0.2964 C   0  0  0  0  0  0  0  0  0  0  0  0
    1.6516    3.6169   -0.8184 C   0  0  0  0  0  0  0  0  0  0  0  0
    0.2938    3.6267   -0.6198 C   0  0  0  0  0  0  0  0  0  0  0  0
   -0.5230    2.6445   -1.2237 C   0  0  0  0  0  0  0  0  0  0  0  0
    0.0462    1.6772   -2.0043 C   0  0  0  0  0  0  0  0  0  0  0  0
    1.4362    1.6709   -2.2865 C   0  0  0  0  0  0  0  0  0  0  0  0
    2.0200    0.7390   -3.1521 C   0  0  0  0  0  0  0  0  0  0  0  0
    3.3815    0.7255   -3.4054 C   0  0  0  0  0  0  0  0  0  0  0  0
    4.1821    1.7000   -2.7881 C   0  0  0  0  0  0  0  0  0  0  0  0
    3.6632    2.6249   -1.9406 C   0  0  0  0  0  0  0  0  0  0  0  0
    2.2651    2.6586   -1.6613 C   0  0  0  0  0  0  0  0  0  0  0  0
    3.3786    6.7404    3.3951 H   0  0  0  0  0  0  0  0  0  0  0  0
    3.7349    3.4408    0.8946 H   0  0  0  0  0  0  0  0  0  0  0  0
    5.3803    6.7817    2.0930 H   0  0  0  0  0  0  0  0  0  0  0  0
    2.3477    3.7395    1.6700 H   0  0  0  0  0  0  0  0  0  0  0  0
    3.9239    3.3436    4.8495 H   0  0  0  0  0  0  0  0  0  0  0  0
    2.1811    7.1595    1.2984 H   0  0  0  0  0  0  0  0  0  0  0  0
    2.1874    5.4468    0.9525 H   0  0  0  0  0  0  0  0  0  0  0  0
    0.9032    5.0290    2.9975 H   0  0  0  0  0  0  0  0  0  0  0  0
    0.8998    8.0291    3.2383 H   0  0  0  0  0  0  0  0  0  0  0  0
    0.0042    6.9286    4.2580 H   0  0  0  0  0  0  0  0  0  0  0  0
    1.7511    6.9276    4.2943 H   0  0  0  0  0  0  0  0  0  0  0  0
   -0.2942    5.4481    0.9008 H   0  0  0  0  0  0  0  0  0  0  0  0
   -1.1962    6.0603    2.2664 H   0  0  0  0  0  0  0  0  0  0  0  0
   -0.3005    7.1608    1.2468 H   0  0  0  0  0  0  0  0  0  0  0  0
    4.8429    2.5646   -0.9854 H   0  0  0  0  0  0  0  0  0  0  0  0
    4.2177    2.2758   -4.8092 H   0  0  0  0  0  0  0  0  0  0  0  0
    4.1168    1.8366   -3.1217 H   0  0  0  0  0  0  0  0  0  0  0  0
    6.4854    1.3422   -3.0880 H   0  0  0  0  0  0  0  0  0  0  0  0
    5.6877    0.4045   -4.3436 H   0  0  0  0  0  0  0  0  0  0  0  0
    7.9531    3.6308   -5.3362 H   0  0  0  0  0  0  0  0  0  0  0  0
    7.7664    3.1812   -3.6454 H   0  0  0  0  0  0  0  0  0  0  0  0
    5.6130    4.2749   -5.4414 H   0  0  0  0  0  0  0  0  0  0  0  0
    6.4191    5.1436   -4.1691 H   0  0  0  0  0  0  0  0  0  0  0  0
    2.0651    5.2002    0.5461 H   0  0  0  0  0  0  0  0  0  0  0  0
    2.6813    5.4655   -1.0673 H   0  0  0  0  0  0  0  0  0  0  0  0
   -0.1487    4.3821   -0.0045 H   0  0  0  0  0  0  0  0  0  0  0  0
   -1.5820    2.6577   -1.0708 H   0  0  0  0  0  0  0  0  0  0  0  0
   -0.5724    0.9055   -2.4126 H   0  0  0  0  0  0  0  0  0  0  0  0
    1.3956    0.0151   -3.6328 H   0  0  0  0  0  0  0  0  0  0  0  0
    3.8121   -0.0082   -4.0545 H   0  0  0  0  0  0  0  0  0  0  0  0
    5.2325    1.7139   -2.9916 H   0  0  0  0  0  0  0  0  0  0  0  0
    4.3117    3.3381   -1.4762 H   0  0  0  0  0  0  0  0  0  0  0  0
  1  2  2  0  0  0  0
  2  3  1  0  0  0  0
  3 35  1  0  0  0  0
  4  8  1  0  0  0  0
  4 33  1  1  0  0  0
  4  5  1  0  0  0  0
  4  3  1  0  0  0  0
  5  6  1  0  0  0  0
  5  7  1  0  0  0  0
  6 36  1  0  0  0  0
  7 37  1  0  0  0  0
  8  9  1  0  0  0  0
  8 38  1  0  0  0  0
  8 39  1  0  0  0  0
  9 10  1  0  0  0  0
  9 11  1  0  0  0  0
  9 40  1  0  0  0  0
 10 41  1  0  0  0  0
 10 42  1  0  0  0  0
 10 43  1  0  0  0  0
 11 44  1  0  0  0  0
 11 45  1  0  0  0  0
 11 46  1  0  0  0  0
 12 22  1  0  0  0  0
 12 34  1  1  0  0  0
 12 13  1  0  0  0  0
 12  2  1  0  0  0  0
 13 14  1  0  0  0  0
 13 47  1  0  0  0  0
 14 15  1  0  0  0  0
 14 21  2  0  0  0  0
 15 16  1  0  0  0  0
 15 20  1  0  0  0  0
 16 17  1  0  0  0  0
 16 48  1  0  0  0  0
 16 49  1  0  0  0  0
 17 18  1  0  0  0  0
 17 50  1  0  0  0  0
 17 51  1  0  0  0  0
 18 19  1  0  0  0  0
 19 20  1  0  0  0  0
 19 52  1  0  0  0  0
 19 53  1  0  0  0  0
 20 54  1  0  0  0  0
 20 55  1  0  0  0  0
 22 23  1  0  0  0  0
 22 56  1  0  0  0  0
 22 57  1  0  0  0  0
 23 24  1  0  0  0  0
 23 32  2  0  0  0  0
 24 25  2  0  0  0  0
 24 58  1  0  0  0  0
 25 26  1  0  0  0  0
 25 59  1  0  0  0  0
 26 27  2  0  0  0  0
 26 60  1  0  0  0  0
 27 28  1  0  0  0  0
 27 32  1  0  0  0  0
 28 29  2  0  0  0  0
 28 61  1  0  0  0  0
 29 30  1  0  0  0  0
 29 62  1  0  0  0  0
 30 31  2  0  0  0  0
 30 63  1  0  0  0  0
 31 32  1  0  0  0  0
 31 64  1  0  0  0  0
M  END
>  <DRUGBANK_ID>
DB04732

>  <COMMON_NAME>
N-(4-MORPHOLINE)CARBONYL-B-(1-NAPHTHYL)-L-ALANINE-L-LEUCINE BORONIC ACID

$$$$
