A45
 OpenBabel10282417123D

 28 30  0  0  0  0  0  0  0  0999 V2000
    0.7345   -0.1213   -0.3128 N   0  0  0  0  0  0  0  0  0  0  0  0
    0.0630   -1.2445   -0.8001 C   0  0  0  0  0  0  0  0  0  0  0  0
    0.6318   -2.4261   -0.4259 N   0  0  0  0  0  0  0  0  0  0  0  0
    0.1035   -3.5768   -0.8940 C   0  0  0  0  0  0  0  0  0  0  0  0
    0.6642   -4.7633   -0.5123 O   0  0  0  0  0  0  0  0  0  0  0  0
   -0.9716   -3.5193   -1.7758 C   0  0  0  0  0  0  0  0  0  0  0  0
   -1.6808   -4.5057   -2.3504 N   0  0  0  0  0  0  0  0  0  0  0  0
   -2.5240   -3.8536   -3.1766 N   0  0  0  0  0  0  0  0  0  0  0  0
   -2.4140   -2.4710   -3.1623 N   0  0  0  0  0  0  0  0  0  0  0  0
   -1.4879   -2.2547   -2.1887 C   0  0  0  0  0  0  0  0  0  0  0  0
   -1.0021   -1.0741   -1.6547 N   0  0  0  0  0  0  0  0  0  0  0  0
   -3.3603   -4.6597   -4.0636 C   0  0  0  0  0  0  0  0  0  0  0  0
   -4.0679   -5.7824   -3.5680 C   0  0  0  0  0  0  0  0  0  0  0  0
   -4.8492   -6.5993   -4.4170 C   0  0  0  0  0  0  0  0  0  0  0  0
   -4.8863   -6.3558   -5.7877 C   0  0  0  0  0  0  0  0  0  0  0  0
   -4.1329   -5.2983   -6.3257 C   0  0  0  0  0  0  0  0  0  0  0  0
   -3.3800   -4.4512   -5.4564 C   0  0  0  0  0  0  0  0  0  0  0  0
   -4.1899   -5.1501   -7.8173 C   0  0  0  0  0  0  0  0  0  0  0  0
   -3.4256   -4.1883   -8.3570 O   0  0  0  0  0  0  0  0  0  0  0  0
   -4.8983   -5.8684   -8.5264 O   0  0  0  0  0  0  0  0  0  0  0  0
    0.1786    0.5728    0.1718 H   0  0  0  0  0  0  0  0  0  0  0  0
    1.6245   -0.3257    0.1292 H   0  0  0  0  0  0  0  0  0  0  0  0
    1.3675   -4.5134    0.1037 H   0  0  0  0  0  0  0  0  0  0  0  0
   -4.0572   -6.0364   -2.5088 H   0  0  0  0  0  0  0  0  0  0  0  0
   -5.4341   -7.4309   -4.0181 H   0  0  0  0  0  0  0  0  0  0  0  0
   -5.4944   -6.9991   -6.4332 H   0  0  0  0  0  0  0  0  0  0  0  0
   -2.7367   -3.6801   -5.8563 H   0  0  0  0  0  0  0  0  0  0  0  0
   -2.8802   -3.6532   -7.7593 H   0  0  0  0  0  0  0  0  0  0  0  0
  1  2  1  0  0  0  0
  1 21  1  0  0  0  0
  1 22  1  0  0  0  0
  2  3  1  0  0  0  0
  2 11  2  0  0  0  0
  3  4  2  0  0  0  0
  4  5  1  0  0  0  0
  4  6  1  0  0  0  0
  5 23  1  0  0  0  0
  6  7  2  0  0  0  0
  6 10  1  0  0  0  0
  7  8  1  0  0  0  0
  8  9  1  0  0  0  0
  8 12  1  0  0  0  0
  9 10  2  0  0  0  0
 10 11  1  0  0  0  0
 12 13  1  0  0  0  0
 12 17  2  0  0  0  0
 13 14  2  0  0  0  0
 13 24  1  0  0  0  0
 14 15  1  0  0  0  0
 14 25  1  0  0  0  0
 15 16  2  0  0  0  0
 15 26  1  0  0  0  0
 16 17  1  0  0  0  0
 16 18  1  0  0  0  0
 17 27  1  0  0  0  0
 18 19  1  0  0  0  0
 18 20  2  0  0  0  0
 19 28  1  0  0  0  0
M  END
>  <DRUGBANK_ID>
DB01906

>  <SECONDARY_ACCESSION_NUMBERS>
EXPT00372

>  <COMMON_NAME>
3-(5-amino-7-hydroxy-(1,2,3)triazolo(4,5-d)pyrimidin-2-yl)benzoic acid

$$$$
