
 OpenBabel10282417163D

 32 32  0  0  0  0  0  0  0  0999 V2000
   -0.2771    1.2106   -0.0174 N   0  0  0  0  0  0  0  0  0  0  0  0
   -0.2092   -1.1873   -0.0265 N   0  0  0  0  0  0  0  0  0  0  0  0
   -2.2133   -0.0538    0.0047 N   0  0  0  0  0  0  0  0  0  0  0  0
   -1.5205   -1.1766   -0.0123 C   0  0  0  0  0  0  0  0  0  0  0  0
   -1.5888    1.1114   -0.0003 C   0  0  0  0  0  0  0  0  0  0  0  0
   -2.3323    2.2666    0.0066 N   0  0  0  0  0  0  0  0  0  0  0  0
   -4.2229    3.1268    1.3425 C   0  0  0  0  0  0  0  0  0  0  0  0
   -3.7464    4.5774    1.3613 C   0  0  0  0  0  0  0  0  0  0  0  0
   -4.3299    3.0603   -1.1733 C   0  0  0  0  0  0  0  0  0  0  0  0
    0.3285    0.0240   -0.0239 C   0  0  0  0  0  0  0  0  0  0  0  0
    2.0386    0.0425    0.0011 Cl  0  0  0  0  0  0  0  0  0  0  0  0
   -2.2452   -2.3392   -0.0060 N   0  0  0  0  0  0  0  0  0  0  0  0
   -1.6226   -3.6364   -0.0813 C   0  0  0  0  0  0  0  0  0  0  0  0
   -1.9939   -4.4742    1.1296 C   0  0  0  0  0  0  0  0  0  0  0  0
   -3.8074    2.3259    0.0771 C   0  0  1  0  0  0  0  0  0  0  0  0
   -4.5128    1.0018    0.1317 C   0  0  0  0  0  0  0  0  0  0  0  0
   -5.0485   -0.0365    0.1630 N   0  0  0  0  0  0  0  0  0  0  0  0
   -1.7906    3.1196   -0.0154 H   0  0  0  0  0  0  0  0  0  0  0  0
   -5.3197    3.1313    1.4238 H   0  0  0  0  0  0  0  0  0  0  0  0
   -3.8527    2.6221    2.2447 H   0  0  0  0  0  0  0  0  0  0  0  0
   -4.1546    5.1502    0.5239 H   0  0  0  0  0  0  0  0  0  0  0  0
   -4.0787    5.0776    2.2748 H   0  0  0  0  0  0  0  0  0  0  0  0
   -2.6557    4.6361    1.3197 H   0  0  0  0  0  0  0  0  0  0  0  0
   -4.0389    2.5452   -2.0937 H   0  0  0  0  0  0  0  0  0  0  0  0
   -5.4260    3.1216   -1.1515 H   0  0  0  0  0  0  0  0  0  0  0  0
   -3.9451    4.0814   -1.2560 H   0  0  0  0  0  0  0  0  0  0  0  0
   -3.2542   -2.2309   -0.0095 H   0  0  0  0  0  0  0  0  0  0  0  0
   -1.9458   -4.1493   -0.9939 H   0  0  0  0  0  0  0  0  0  0  0  0
   -0.5315   -3.5665   -0.1300 H   0  0  0  0  0  0  0  0  0  0  0  0
   -3.0696   -4.6757    1.1617 H   0  0  0  0  0  0  0  0  0  0  0  0
   -1.4691   -5.4345    1.0953 H   0  0  0  0  0  0  0  0  0  0  0  0
   -1.7152   -3.9672    2.0592 H   0  0  0  0  0  0  0  0  0  0  0  0
  1  5  1  0  0  0  0
  1 10  2  0  0  0  0
  2 10  1  0  0  0  0
  3  4  1  0  0  0  0
  4  2  2  0  0  0  0
  4 12  1  0  0  0  0
  5  3  2  0  0  0  0
  5  6  1  0  0  0  0
  6 18  1  0  0  0  0
  7  8  1  0  0  0  0
  7 19  1  0  0  0  0
  7 20  1  0  0  0  0
  8 21  1  0  0  0  0
  8 22  1  0  0  0  0
  8 23  1  0  0  0  0
  9 24  1  0  0  0  0
  9 25  1  0  0  0  0
  9 26  1  0  0  0  0
 10 11  1  0  0  0  0
 12 13  1  0  0  0  0
 12 27  1  0  0  0  0
 13 14  1  0  0  0  0
 13 28  1  0  0  0  0
 13 29  1  0  0  0  0
 14 30  1  0  0  0  0
 14 31  1  0  0  0  0
 14 32  1  0  0  0  0
 15  6  1  0  0  0  0
 15  7  1  0  0  0  0
 15  9  1  0  0  0  0
 15 16  1  1  0  0  0
 16 17  3  0  0  0  0
M  END
>  <DRUGBANK_ID>
DB07552

>  <COMMON_NAME>
(2R)-2-{[4-chloro-6-(ethylamino)-1,3,5-triazin-2-yl]amino}-2-methylbutanenitrile

$$$$
