
 OpenBabel10282417213D

 53 52  0  0  0  0  0  0  0  0999 V2000
    0.9816    0.1226   -0.0682 C   0  0  0  0  0  0  0  0  0  0  0  0
   -5.2425   -8.6172    7.6338 C   0  0  0  0  0  0  0  0  0  0  0  0
   -7.3365   -7.9181    6.3720 C   0  0  0  0  0  0  0  0  0  0  0  0
    0.5344   -1.3297   -0.0372 C   0  0  0  0  0  0  0  0  0  0  0  0
    1.0325   -2.0120    1.2376 C   0  0  0  0  0  0  0  0  0  0  0  0
    0.4800   -1.3207    2.4890 C   0  0  0  0  0  0  0  0  0  0  0  0
   -1.0528   -1.3412    2.4859 C   0  0  0  0  0  0  0  0  0  0  0  0
   -1.5584   -2.7867    2.4891 C   0  0  0  0  0  0  0  0  0  0  0  0
   -1.0511   -3.5076    3.7414 C   0  0  0  0  0  0  0  0  0  0  0  0
   -1.5607   -2.7847    4.9928 C   0  0  0  0  0  0  0  0  0  0  0  0
   -3.0920   -2.7882    5.0011 C   0  0  0  0  0  0  0  0  0  0  0  0
   -3.5990   -4.2324    4.9931 C   0  0  0  0  0  0  0  0  0  0  0  0
   -3.0742   -4.9697    6.2305 C   0  0  0  0  0  0  0  0  0  0  0  0
   -3.6229   -4.3301    7.5080 C   0  0  0  0  0  0  0  0  0  0  0  0
   -5.1480   -4.2913    7.5161 C   0  0  0  0  0  0  0  0  0  0  0  0
   -5.8251   -7.8216    6.4683 C   0  0  0  0  0  0  0  0  0  0  0  0
   -5.7424   -5.6700    7.5894 C   0  0  0  0  0  0  0  0  0  0  0  0
   -6.4211   -6.0328    8.5473 O   0  0  0  0  0  0  0  0  0  0  0  0
   -5.4411   -6.4294    6.5034 O   0  0  0  0  0  0  0  0  0  0  0  0
    0.5868    0.6942    0.7782 H   0  0  0  0  0  0  0  0  0  0  0  0
    0.6282    0.6178   -0.9728 H   0  0  0  0  0  0  0  0  0  0  0  0
    2.0735    0.1740   -0.0275 H   0  0  0  0  0  0  0  0  0  0  0  0
   -5.5503   -8.2127    8.6001 H   0  0  0  0  0  0  0  0  0  0  0  0
   -5.5633   -9.6626    7.5975 H   0  0  0  0  0  0  0  0  0  0  0  0
   -4.1474   -8.5854    7.6169 H   0  0  0  0  0  0  0  0  0  0  0  0
   -7.6862   -7.3816    5.4835 H   0  0  0  0  0  0  0  0  0  0  0  0
   -7.6708   -8.9562    6.3237 H   0  0  0  0  0  0  0  0  0  0  0  0
   -7.8171   -7.4447    7.2307 H   0  0  0  0  0  0  0  0  0  0  0  0
   -0.5583   -1.3809   -0.1142 H   0  0  0  0  0  0  0  0  0  0  0  0
    0.9128   -1.8642   -0.9126 H   0  0  0  0  0  0  0  0  0  0  0  0
    0.7494   -3.0717    1.2179 H   0  0  0  0  0  0  0  0  0  0  0  0
    2.1260   -2.0105    1.2700 H   0  0  0  0  0  0  0  0  0  0  0  0
    0.8898   -1.8013    3.3835 H   0  0  0  0  0  0  0  0  0  0  0  0
    0.8348   -0.2906    2.5707 H   0  0  0  0  0  0  0  0  0  0  0  0
   -1.4291   -0.7746    3.3437 H   0  0  0  0  0  0  0  0  0  0  0  0
   -1.4717   -0.8052    1.6306 H   0  0  0  0  0  0  0  0  0  0  0  0
   -2.6509   -2.7957    2.4231 H   0  0  0  0  0  0  0  0  0  0  0  0
   -1.2484   -3.3344    1.5952 H   0  0  0  0  0  0  0  0  0  0  0  0
   -1.3570   -4.5573    3.7124 H   0  0  0  0  0  0  0  0  0  0  0  0
    0.0396   -3.5717    3.7701 H   0  0  0  0  0  0  0  0  0  0  0  0
   -1.1400   -3.2521    5.8867 H   0  0  0  0  0  0  0  0  0  0  0  0
   -1.1924   -1.7578    5.0609 H   0  0  0  0  0  0  0  0  0  0  0  0
   -3.4600   -2.2271    5.8645 H   0  0  0  0  0  0  0  0  0  0  0  0
   -3.5106   -2.2446    4.1484 H   0  0  0  0  0  0  0  0  0  0  0  0
   -4.6899   -4.2380    4.9276 H   0  0  0  0  0  0  0  0  0  0  0  0
   -3.2983   -4.7708    4.0891 H   0  0  0  0  0  0  0  0  0  0  0  0
   -3.3147   -6.0306    6.1681 H   0  0  0  0  0  0  0  0  0  0  0  0
   -1.9811   -4.9875    6.2684 H   0  0  0  0  0  0  0  0  0  0  0  0
   -3.2419   -4.8668    8.3816 H   0  0  0  0  0  0  0  0  0  0  0  0
   -3.2424   -3.3053    7.6122 H   0  0  0  0  0  0  0  0  0  0  0  0
   -5.4783   -3.7407    8.4023 H   0  0  0  0  0  0  0  0  0  0  0  0
   -5.5803   -3.7478    6.6697 H   0  0  0  0  0  0  0  0  0  0  0  0
   -5.3967   -8.2401    5.5455 H   0  0  0  0  0  0  0  0  0  0  0  0
  1 20  1  0  0  0  0
  1 21  1  0  0  0  0
  1 22  1  0  0  0  0
  2 23  1  0  0  0  0
  2 24  1  0  0  0  0
  2 25  1  0  0  0  0
  3 26  1  0  0  0  0
  3 27  1  0  0  0  0
  3 28  1  0  0  0  0
  4  1  1  0  0  0  0
  4 29  1  0  0  0  0
  4 30  1  0  0  0  0
  5  4  1  0  0  0  0
  5 31  1  0  0  0  0
  5 32  1  0  0  0  0
  6  5  1  0  0  0  0
  6 33  1  0  0  0  0
  6 34  1  0  0  0  0
  7  6  1  0  0  0  0
  7 35  1  0  0  0  0
  7 36  1  0  0  0  0
  8  7  1  0  0  0  0
  8 37  1  0  0  0  0
  8 38  1  0  0  0  0
  9  8  1  0  0  0  0
  9 39  1  0  0  0  0
  9 40  1  0  0  0  0
 10  9  1  0  0  0  0
 10 41  1  0  0  0  0
 10 42  1  0  0  0  0
 11 10  1  0  0  0  0
 11 43  1  0  0  0  0
 11 44  1  0  0  0  0
 12 11  1  0  0  0  0
 12 45  1  0  0  0  0
 12 46  1  0  0  0  0
 13 12  1  0  0  0  0
 13 47  1  0  0  0  0
 13 48  1  0  0  0  0
 14 13  1  0  0  0  0
 14 49  1  0  0  0  0
 14 50  1  0  0  0  0
 15 14  1  0  0  0  0
 15 51  1  0  0  0  0
 15 52  1  0  0  0  0
 16  2  1  0  0  0  0
 16  3  1  0  0  0  0
 16 53  1  0  0  0  0
 17 15  1  0  0  0  0
 18 17  2  0  0  0  0
 19 16  1  0  0  0  0
 19 17  1  0  0  0  0
M  END
>  <DRUGBANK_ID>
DB13966

>  <COMMON_NAME>
Isopropyl myristate

>  <CAS_NUMBER>
110-27-0

>  <UNII>
0RE8K4LNJS

>  <SYNONYMS>
1-Methylethyl tetradecanoate; Isopropyl myristate; Isopropyl tetradecanoate

$$$$
