
 OpenBabel10282417163D

 22 24  0  0  0  0  0  0  0  0999 V2000
   -0.7303    0.9744    1.1539 C   0  0  0  0  0  0  0  0  0  0  0  0
   -1.1861   -1.1635    0.2318 C   0  0  0  0  0  0  0  0  0  0  0  0
   -0.9350    0.7150   -1.1954 C   0  0  0  0  0  0  0  0  0  0  0  0
    0.9350   -0.7149    1.1954 C   0  0  0  0  0  0  0  0  0  0  0  0
    1.1862    1.1635   -0.2318 C   0  0  0  0  0  0  0  0  0  0  0  0
    0.7302   -0.9744   -1.1540 C   0  0  0  0  0  0  0  0  0  0  0  0
   -1.4357    0.2648    0.0958 N   0  0  3  0  0  0  0  0  0  0  0  0
    0.7003    0.7165    1.0662 N   0  0  3  0  0  0  0  0  0  0  0  0
    0.2413   -1.4364    0.1376 N   0  0  3  0  0  0  0  0  0  0  0  0
    0.4941    0.4552   -1.2997 N   0  0  3  0  0  0  0  0  0  0  0  0
   -0.9312    2.0528    1.0941 H   0  0  0  0  0  0  0  0  0  0  0  0
   -1.1151    0.6773    2.1392 H   0  0  0  0  0  0  0  0  0  0  0  0
   -1.5868   -1.5351    1.1849 H   0  0  0  0  0  0  0  0  0  0  0  0
   -1.7366   -1.7250   -0.5354 H   0  0  0  0  0  0  0  0  0  0  0  0
   -1.4768    0.2190   -2.0124 H   0  0  0  0  0  0  0  0  0  0  0  0
   -1.1430    1.7844   -1.3371 H   0  0  0  0  0  0  0  0  0  0  0  0
    2.0115   -0.9323    1.1674 H   0  0  0  0  0  0  0  0  0  0  0  0
    0.6083   -1.0708    2.1821 H   0  0  0  0  0  0  0  0  0  0  0  0
    2.2714    1.0113   -0.3096 H   0  0  0  0  0  0  0  0  0  0  0  0
    1.0522    2.2485   -0.3400 H   0  0  0  0  0  0  0  0  0  0  0  0
    0.2464   -1.5293   -1.9694 H   0  0  0  0  0  0  0  0  0  0  0  0
    1.7996   -1.2009   -1.2640 H   0  0  0  0  0  0  0  0  0  0  0  0
  1 11  1  0  0  0  0
  1 12  1  0  0  0  0
  2 13  1  0  0  0  0
  2 14  1  0  0  0  0
  3 15  1  0  0  0  0
  3 16  1  0  0  0  0
  4 17  1  0  0  0  0
  4 18  1  0  0  0  0
  5 19  1  0  0  0  0
  5 20  1  0  0  0  0
  6 21  1  0  0  0  0
  6 22  1  0  0  0  0
  7  1  1  0  0  0  0
  7  3  1  0  0  0  0
  7  2  1  0  0  0  0
  8  1  1  0  0  0  0
  8  5  1  0  0  0  0
  8  4  1  0  0  0  0
  9  2  1  0  0  0  0
  9  4  1  0  0  0  0
  9  6  1  0  0  0  0
 10  5  1  0  0  0  0
 10  3  1  0  0  0  0
 10  6  1  0  0  0  0
M  END
>  <DRUGBANK_ID>
DB06799

>  <SECONDARY_ACCESSION_NUMBERS>
DB06146

>  <COMMON_NAME>
Methenamine

>  <CAS_NUMBER>
100-97-0

>  <UNII>
J50OIX95QV

>  <SYNONYMS>
1,3,5,7-tetraazatricyclo[3.3.1.13,7]decane; Hexamethylenamine; Hexamethylene tetramine; Hexamethylenetetramine; Hexamethylentetramin; Hexamethylentetraminum; Hexamine; Hexaminum; HMT; HMTA; metenamina; méthénamine; Methenamine; methenaminum

$$$$
