TH2
 OpenBabel10282417173D

 60 63  0  0  0  0  0  0  0  0999 V2000
   -2.2449   -1.5424    0.2120 C   0  0  0  0  0  0  0  0  0  0  0  0
   -3.7197   -1.3335   -0.0998 C   0  0  0  0  0  0  0  0  0  0  0  0
   -4.1569    0.0220    0.3907 C   0  0  0  0  0  0  0  0  0  0  0  0
   -5.2971    0.2453    0.7879 O   0  0  0  0  0  0  0  0  0  0  0  0
   -3.1998    1.1421    0.2590 C   0  0  0  0  0  0  0  0  0  0  0  0
   -1.9538    0.9365   -0.1988 C   0  0  0  0  0  0  0  0  0  0  0  0
   -1.0987    2.1258   -0.5522 C   0  0  0  0  0  0  0  0  0  0  0  0
    0.3083    2.0295    0.0001 C   0  0  0  0  0  0  0  0  0  0  0  0
    0.9372    0.6656   -0.3033 C   0  0  2  0  0  0  0  0  0  0  0  0
    0.0638   -0.4770    0.2681 C   0  0  1  0  0  0  0  0  0  0  0  0
   -1.3434   -0.4531   -0.4217 C   0  0  1  0  0  0  0  0  0  0  0  0
    0.7623   -1.8641    0.2388 C   0  0  0  0  0  0  0  0  0  0  0  0
    2.2219   -1.8421    0.7054 C   0  0  0  0  0  0  0  0  0  0  0  0
    3.0147   -0.7639   -0.0474 C   0  0  1  0  0  0  0  0  0  0  0  0
    2.3278    0.5894    0.2592 C   0  0  1  0  0  0  0  0  0  0  0  0
    3.2433    1.6828   -0.2553 C   0  0  0  0  0  0  0  0  0  0  0  0
    4.6162    1.0674   -0.1431 C   0  0  0  0  0  0  0  0  0  0  0  0
    4.3921   -0.4557    0.5224 C   0  0  2  0  0  0  0  0  0  0  0  0
    5.4493   -1.4160    0.2883 O   0  0  0  0  0  0  0  0  0  0  0  0
    3.2105   -1.0931   -1.5268 C   0  0  0  0  0  0  0  0  0  0  0  0
    6.3564   -1.8847    1.2109 C   0  0  0  0  0  0  0  0  0  0  0  0
    7.2760   -2.6118    0.8224 O   0  0  0  0  0  0  0  0  0  0  0  0
    6.5930   -0.3283    3.3967 C   0  0  0  0  0  0  0  0  0  0  0  0
    6.1959   -1.6516    2.7401 C   0  0  0  0  0  0  0  0  0  0  0  0
    5.6531    0.7126    3.0158 C   0  0  0  0  0  0  0  0  0  0  0  0
    4.5588    1.0392    3.3591 O   0  0  0  0  0  0  0  0  0  0  0  0
    6.0428    1.0084    1.7951 O   0  0  0  0  0  0  0  0  0  0  0  0
   -1.2279   -0.7147   -1.9415 C   0  0  0  0  0  0  0  0  0  0  0  0
    1.0409    0.5684   -1.3872 H   0  0  0  0  0  0  0  0  0  0  0  0
   -0.0858   -0.2531    1.3385 H   0  0  0  0  0  0  0  0  0  0  0  0
    2.2548    0.7124    1.3578 H   0  0  0  0  0  0  0  0  0  0  0  0
    4.1811   -0.5366    1.5872 H   0  0  0  0  0  0  0  0  0  0  0  0
   -2.1188   -1.5337    1.3037 H   0  0  0  0  0  0  0  0  0  0  0  0
   -1.9449   -2.5386   -0.1343 H   0  0  0  0  0  0  0  0  0  0  0  0
   -4.3126   -2.1002    0.4070 H   0  0  0  0  0  0  0  0  0  0  0  0
   -3.9221   -1.3981   -1.1739 H   0  0  0  0  0  0  0  0  0  0  0  0
   -3.5971    2.1306    0.4583 H   0  0  0  0  0  0  0  0  0  0  0  0
   -1.0460    2.1998   -1.6451 H   0  0  0  0  0  0  0  0  0  0  0  0
   -1.5466    3.0602   -0.1969 H   0  0  0  0  0  0  0  0  0  0  0  0
    0.9033    2.8334   -0.4497 H   0  0  0  0  0  0  0  0  0  0  0  0
    0.3015    2.2101    1.0828 H   0  0  0  0  0  0  0  0  0  0  0  0
    0.2137   -2.5594    0.8856 H   0  0  0  0  0  0  0  0  0  0  0  0
    0.7394   -2.2870   -0.7670 H   0  0  0  0  0  0  0  0  0  0  0  0
    2.2261   -1.6449    1.7885 H   0  0  0  0  0  0  0  0  0  0  0  0
    2.6784   -2.8292    0.5765 H   0  0  0  0  0  0  0  0  0  0  0  0
    3.0716    2.0145   -1.2789 H   0  0  0  0  0  0  0  0  0  0  0  0
    3.1439    2.5710    0.3976 H   0  0  0  0  0  0  0  0  0  0  0  0
    5.3111    1.0697   -0.9869 H   0  0  0  0  0  0  0  0  0  0  0  0
    5.0634    1.9274    0.3862 H   0  0  0  0  0  0  0  0  0  0  0  0
    3.7125   -0.2714   -2.0474 H   0  0  0  0  0  0  0  0  0  0  0  0
    3.8564   -1.9710   -1.6274 H   0  0  0  0  0  0  0  0  0  0  0  0
    2.2755   -1.2860   -2.0488 H   0  0  0  0  0  0  0  0  0  0  0  0
    6.5545   -0.2755    4.4795 H   0  0  0  0  0  0  0  0  0  0  0  0
    7.5668    0.0195    3.0260 H   0  0  0  0  0  0  0  0  0  0  0  0
    5.2101   -2.0074    3.0515 H   0  0  0  0  0  0  0  0  0  0  0  0
    6.9163   -2.3443    3.1996 H   0  0  0  0  0  0  0  0  0  0  0  0
    5.0740    1.1438    1.7259 H   0  0  0  0  0  0  0  0  0  0  0  0
   -0.6219    0.0365   -2.4561 H   0  0  0  0  0  0  0  0  0  0  0  0
   -0.7769   -1.6894   -2.1497 H   0  0  0  0  0  0  0  0  0  0  0  0
   -2.2062   -0.6966   -2.4284 H   0  0  0  0  0  0  0  0  0  0  0  0
  1  2  1  0  0  0  0
  1 11  1  0  0  0  0
  1 33  1  0  0  0  0
  1 34  1  0  0  0  0
  2  3  1  0  0  0  0
  2 35  1  0  0  0  0
  2 36  1  0  0  0  0
  3  4  2  0  0  0  0
  3  5  1  0  0  0  0
  5  6  2  0  0  0  0
  5 37  1  0  0  0  0
  6  7  1  0  0  0  0
  6 11  1  0  0  0  0
  7  8  1  0  0  0  0
  7 38  1  0  0  0  0
  7 39  1  0  0  0  0
  8  9  1  0  0  0  0
  8 40  1  0  0  0  0
  8 41  1  0  0  0  0
  9 10  1  0  0  0  0
  9 15  1  0  0  0  0
  9 29  1  6  0  0  0
 10 11  1  0  0  0  0
 10 12  1  0  0  0  0
 10 30  1  1  0  0  0
 11 28  1  6  0  0  0
 12 13  1  0  0  0  0
 12 42  1  0  0  0  0
 12 43  1  0  0  0  0
 13 14  1  0  0  0  0
 13 44  1  0  0  0  0
 13 45  1  0  0  0  0
 14 15  1  0  0  0  0
 14 18  1  0  0  0  0
 14 20  1  6  0  0  0
 15 16  1  0  0  0  0
 15 31  1  1  0  0  0
 16 17  1  0  0  0  0
 16 46  1  0  0  0  0
 16 47  1  0  0  0  0
 17 18  1  0  0  0  0
 17 48  1  0  0  0  0
 17 49  1  0  0  0  0
 18 32  1  1  0  0  0
 18 19  1  0  0  0  0
 19 21  1  0  0  0  0
 20 50  1  0  0  0  0
 20 51  1  0  0  0  0
 20 52  1  0  0  0  0
 21 22  2  0  0  0  0
 21 24  1  0  0  0  0
 23 24  1  0  0  0  0
 23 25  1  0  0  0  0
 23 53  1  0  0  0  0
 23 54  1  0  0  0  0
 24 55  1  0  0  0  0
 24 56  1  0  0  0  0
 25 26  2  0  0  0  0
 25 27  1  0  0  0  0
 27 57  1  0  0  0  0
 28 58  1  0  0  0  0
 28 59  1  0  0  0  0
 28 60  1  0  0  0  0
M  END
>  <DRUGBANK_ID>
DB08619

>  <COMMON_NAME>
Testosterone succinate

>  <CAS_NUMBER>
521-15-3

>  <UNII>
4114I54YIH

>  <SYNONYMS>
Testosterone 17-hemisuccinate; Testosterone hemisuccinate; Testosterone-17-succinate

$$$$
