
 OpenBabel10282417183D

 63 68  0  0  0  0  0  0  0  0999 V2000
    0.0102    0.9896   -0.3050 C   0  0  0  0  0  0  0  0  0  0  0  0
   -0.4163   -1.0858    0.1026 C   0  0  0  0  0  0  0  0  0  0  0  0
   -1.0122    0.0165   -0.2903 N   0  0  0  0  0  0  0  0  0  0  0  0
   -0.3087    2.0613    0.2422 O   0  0  0  0  0  0  0  0  0  0  0  0
   -0.8056   -2.1930    0.4301 O   0  0  0  0  0  0  0  0  0  0  0  0
    1.6852    0.3423   -0.5909 C   0  0  0  0  0  0  0  0  0  0  0  0
    0.9464   -0.7075   -0.1931 C   0  0  0  0  0  0  0  0  0  0  0  0
    1.8613   -2.5193   -1.2240 C   0  0  0  0  0  0  0  0  0  0  0  0
    1.7347   -1.7418   -0.0647 C   0  0  0  0  0  0  0  0  0  0  0  0
    3.2074   -0.2348   -1.4960 C   0  0  0  0  0  0  0  0  0  0  0  0
    4.1063   -1.5175   -2.0841 C   0  0  0  0  0  0  0  0  0  0  0  0
    3.8557   -1.9177    0.3291 C   0  0  0  0  0  0  0  0  0  0  0  0
    2.6115   -1.5393    1.0993 C   0  0  0  0  0  0  0  0  0  0  0  0
    2.9611   -0.8039    2.7241 C   0  0  0  0  0  0  0  0  0  0  0  0
    5.8509   -2.0515    1.1656 C   0  0  0  0  0  0  0  0  0  0  0  0
    5.9483   -2.3214    3.0654 C   0  0  0  0  0  0  0  0  0  0  0  0
    4.5449   -1.2053    3.7242 C   0  0  0  0  0  0  0  0  0  0  0  0
    4.4776    0.1803   -0.9849 C   0  0  0  0  0  0  0  0  0  0  0  0
    5.3193   -0.7455   -0.3563 C   0  0  0  0  0  0  0  0  0  0  0  0
    4.8885    1.4149   -0.5702 C   0  0  0  0  0  0  0  0  0  0  0  0
    5.4047    1.8946    0.6956 C   0  0  0  0  0  0  0  0  0  0  0  0
    5.7033    1.2661    1.7807 C   0  0  0  0  0  0  0  0  0  0  0  0
    5.8437    0.1330    1.1344 C   0  0  0  0  0  0  0  0  0  0  0  0
    4.9384   -2.5637   -0.9371 N   0  0  0  0  0  0  0  0  0  0  0  0
    3.0867   -3.0275   -0.9993 N   0  0  0  0  0  0  0  0  0  0  0  0
    5.5892   -4.3857   -0.0419 C   0  0  0  0  0  0  0  0  0  0  0  0
    3.9949   -4.1649   -2.1479 C   0  0  0  0  0  0  0  0  0  0  0  0
    5.6504   -3.7157   -2.6950 C   0  0  0  0  0  0  0  0  0  0  0  0
    6.1799   -5.5315   -0.5146 C   0  0  0  0  0  0  0  0  0  0  0  0
    7.2449   -4.7592   -0.9620 O   0  0  0  0  0  0  0  0  0  0  0  0
    6.8518   -3.5645   -1.6318 C   0  0  2  0  0  0  0  0  0  0  0  0
    6.5082   -2.7318   -0.4117 C   0  0  0  0  0  0  0  0  0  0  0  0
    4.3901   -2.0146    2.0731 C   0  0  0  0  0  0  0  0  0  0  0  0
    3.4344   -4.1186    0.7568 C   0  0  0  0  0  0  0  0  0  0  0  0
    4.7788   -3.3399    0.8886 N   0  0  0  0  0  0  0  0  0  0  0  0
   -2.0322    0.0747   -0.3011 H   0  0  0  0  0  0  0  0  0  0  0  0
    1.4560   -2.5732   -2.2351 H   0  0  0  0  0  0  0  0  0  0  0  0
    3.8699   -2.3029   -2.7339 H   0  0  0  0  0  0  0  0  0  0  0  0
    2.8112    0.2786    2.3733 H   0  0  0  0  0  0  0  0  0  0  0  0
    6.7730   -3.0213    1.1037 H   0  0  0  0  0  0  0  0  0  0  0  0
    7.0859   -2.2418    2.9144 H   0  0  0  0  0  0  0  0  0  0  0  0
    4.9174   -0.1783    3.8865 H   0  0  0  0  0  0  0  0  0  0  0  0
    4.7534    2.0324   -1.3971 H   0  0  0  0  0  0  0  0  0  0  0  0
    5.5700    2.9037    0.8400 H   0  0  0  0  0  0  0  0  0  0  0  0
    6.0166    1.4049    2.8377 H   0  0  0  0  0  0  0  0  0  0  0  0
    6.1081   -0.0304    2.4772 H   0  0  0  0  0  0  0  0  0  0  0  0
    4.9156   -4.9580    1.2122 H   0  0  0  0  0  0  0  0  0  0  0  0
    6.0855   -4.2907    1.4012 H   0  0  0  0  0  0  0  0  0  0  0  0
    3.9139   -5.1594   -1.7115 H   0  0  0  0  0  0  0  0  0  0  0  0
    3.3308   -4.2439   -3.0067 H   0  0  0  0  0  0  0  0  0  0  0  0
    6.0367   -4.4470   -3.3704 H   0  0  0  0  0  0  0  0  0  0  0  0
    5.5653   -2.7676   -3.2711 H   0  0  0  0  0  0  0  0  0  0  0  0
    5.2714   -5.7012   -0.9975 H   0  0  0  0  0  0  0  0  0  0  0  0
    6.0958   -6.0980    0.4644 H   0  0  0  0  0  0  0  0  0  0  0  0
    7.6743   -2.9419   -2.0022 H   0  0  0  0  0  0  0  0  0  0  0  0
    7.1951   -1.6745   -0.1611 H   0  0  0  0  0  0  0  0  0  0  0  0
    6.3222   -1.7323   -1.4661 H   0  0  0  0  0  0  0  0  0  0  0  0
    4.2952   -0.8928    1.6168 H   0  0  0  0  0  0  0  0  0  0  0  0
    3.9793   -2.7339    2.6669 H   0  0  0  0  0  0  0  0  0  0  0  0
    5.6335   -1.1564    2.2405 H   0  0  0  0  0  0  0  0  0  0  0  0
    2.5254   -3.5963    0.6135 H   0  0  0  0  0  0  0  0  0  0  0  0
    3.6725   -4.7294   -0.0810 H   0  0  0  0  0  0  0  0  0  0  0  0
    3.0802   -4.3248    1.7134 H   0  0  0  0  0  0  0  0  0  0  0  0
  1  3  1  0  0  0  0
  1  6  1  0  0  0  0
  1  4  2  0  0  0  0
  2  3  1  0  0  0  0
  2  7  1  0  0  0  0
  2  5  2  0  0  0  0
  3 36  1  0  0  0  0
  6 10  1  0  0  0  0
  6  7  2  0  0  0  0
  7  9  1  0  0  0  0
  8 25  1  0  0  0  0
  8  9  2  0  0  0  0
  8 37  1  0  0  0  0
  9 13  1  0  0  0  0
 10 18  1  0  0  0  0
 10 11  2  0  0  0  0
 11 24  1  0  0  0  0
 11 38  1  0  0  0  0
 12 25  1  0  0  0  0
 12 15  1  0  0  0  0
 12 13  2  0  0  0  0
 13 14  1  0  0  0  0
 14 17  2  0  0  0  0
 14 39  1  0  0  0  0
 15 16  2  0  0  0  0
 15 40  1  0  0  0  0
 16 17  1  0  0  0  0
 16 41  1  0  0  0  0
 17 42  1  0  0  0  0
 18 20  1  0  0  0  0
 18 19  2  0  0  0  0
 19 24  1  0  0  0  0
 19 23  1  0  0  0  0
 20 21  2  0  0  0  0
 20 43  1  0  0  0  0
 21 22  1  0  0  0  0
 21 44  1  0  0  0  0
 22 23  2  0  0  0  0
 22 45  1  0  0  0  0
 23 46  1  0  0  0  0
 24 26  1  0  0  0  0
 25 27  1  0  0  0  0
 26 29  1  0  0  0  0
 26 47  1  0  0  0  0
 26 48  1  0  0  0  0
 27 28  1  0  0  0  0
 27 49  1  0  0  0  0
 27 50  1  0  0  0  0
 28 31  1  0  0  0  0
 28 51  1  0  0  0  0
 28 52  1  0  0  0  0
 29 30  1  0  0  0  0
 29 53  1  0  0  0  0
 29 54  1  0  0  0  0
 30 31  1  0  0  0  0
 31 55  1  6  0  0  0
 31 32  1  0  0  0  0
 32 35  1  0  0  0  0
 32 56  1  0  0  0  0
 32 57  1  0  0  0  0
 33 35  1  0  0  0  0
 33 58  1  0  0  0  0
 33 59  1  0  0  0  0
 33 60  1  0  0  0  0
 34 35  1  0  0  0  0
 34 61  1  0  0  0  0
 34 62  1  0  0  0  0
 34 63  1  0  0  0  0
M  END
>  <DRUGBANK_ID>
DB11829

>  <COMMON_NAME>
Ruboxistaurin

>  <CAS_NUMBER>
169939-94-0

>  <UNII>
721809WQCP

>  <SYNONYMS>
Ruboxistaurin

$$$$
