
 OpenBabel10282417193D

 64 63  0  0  0  0  0  0  0  0999 V2000
    1.0468    0.0173    0.0229 C   0  0  0  0  0  0  0  0  0  0  0  0
    0.2145    0.9681   -0.8312 C   0  0  0  0  0  0  0  0  0  0  0  0
   -0.6724    0.2164   -1.7944 C   0  0  0  0  0  0  0  0  0  0  0  0
   -1.7132   -0.6156   -1.0486 C   0  0  0  0  0  0  0  0  0  0  0  0
   -2.6095    0.2441   -0.1444 C   0  0  0  0  0  0  0  0  0  0  0  0
   -3.4045    1.2729   -0.9496 C   0  0  0  0  0  0  0  0  0  0  0  0
   -4.2755    0.6060   -2.0088 C   0  0  0  0  0  0  0  0  0  0  0  0
    0.5343   -0.7266    0.8683 O   0  0  0  0  0  0  0  0  0  0  0  0
    2.3962    0.0266   -0.0730 N   0  0  0  0  0  0  0  0  0  0  0  0
    3.2244    0.9736   -0.7712 C   0  0  3  0  0  0  0  0  0  0  0  0
    4.0722    1.8567    0.2004 C   0  0  0  0  0  0  0  0  0  0  0  0
    5.2992    1.9341    0.0971 O   0  0  0  0  0  0  0  0  0  0  0  0
    3.9529    0.2126   -1.6960 O   0  0  0  0  0  0  0  0  0  0  0  0
    3.4454    2.6281    1.1397 N   0  0  0  0  0  0  0  0  0  0  0  0
    2.0360    2.7064    1.4299 C   0  0  0  0  0  0  0  0  0  0  0  0
    1.6932    2.1738    2.8140 C   0  0  0  0  0  0  0  0  0  0  0  0
    2.2474    3.0932    3.9034 C   0  0  0  0  0  0  0  0  0  0  0  0
    1.7313    4.5245    3.7786 C   0  0  0  0  0  0  0  0  0  0  0  0
    0.2800    4.5725    3.9297 N   0  0  0  0  0  0  0  0  0  0  0  0
   -0.2482    5.9120    3.6774 C   0  0  0  0  0  0  0  0  0  0  0  0
   -0.0377    6.3927    2.2340 C   0  0  0  0  0  0  0  0  0  0  0  0
   -0.6711    5.4764    1.1837 C   0  0  0  0  0  0  0  0  0  0  0  0
   -2.1167    5.4132    1.3335 N   0  0  0  0  0  0  0  0  0  0  0  0
   -5.2994   -0.1928   -1.3750 N   0  0  0  0  0  0  0  0  0  0  0  0
   -6.6334   -0.0545   -1.4705 C   0  0  0  0  0  0  0  0  0  0  0  0
   -7.4739   -0.8009   -0.8468 N   0  0  0  0  0  0  0  0  0  0  0  0
   -7.0998    0.9207   -2.2535 N   0  0  0  0  0  0  0  0  0  0  0  0
   -0.3615    1.6141   -0.1577 H   0  0  0  0  0  0  0  0  0  0  0  0
    0.8040    1.6727   -1.4118 H   0  0  0  0  0  0  0  0  0  0  0  0
   -1.1566    0.9419   -2.4599 H   0  0  0  0  0  0  0  0  0  0  0  0
   -0.0615   -0.4214   -2.4404 H   0  0  0  0  0  0  0  0  0  0  0  0
   -2.3015   -1.1791   -1.7760 H   0  0  0  0  0  0  0  0  0  0  0  0
   -1.2320   -1.3907   -0.4485 H   0  0  0  0  0  0  0  0  0  0  0  0
   -3.2828   -0.4072    0.4205 H   0  0  0  0  0  0  0  0  0  0  0  0
   -2.0272    0.7649    0.6243 H   0  0  0  0  0  0  0  0  0  0  0  0
   -4.0165    1.8803   -0.2729 H   0  0  0  0  0  0  0  0  0  0  0  0
   -2.7254    1.9795   -1.4429 H   0  0  0  0  0  0  0  0  0  0  0  0
   -4.6700    1.3905   -2.6541 H   0  0  0  0  0  0  0  0  0  0  0  0
   -3.6945   -0.0306   -2.6820 H   0  0  0  0  0  0  0  0  0  0  0  0
    2.8467   -0.6100    0.5715 H   0  0  0  0  0  0  0  0  0  0  0  0
    2.6434    1.6854   -1.3519 H   0  0  0  0  0  0  0  0  0  0  0  0
    4.6683   -0.2015   -1.1870 H   0  0  0  0  0  0  0  0  0  0  0  0
    4.0753    3.2105    1.6791 H   0  0  0  0  0  0  0  0  0  0  0  0
    1.7189    3.7311    1.2501 H   0  0  0  0  0  0  0  0  0  0  0  0
    1.4811    2.1591    0.7033 H   0  0  0  0  0  0  0  0  0  0  0  0
    0.6041    2.0757    2.9087 H   0  0  0  0  0  0  0  0  0  0  0  0
    2.0926    1.1615    2.9480 H   0  0  0  0  0  0  0  0  0  0  0  0
    2.0072    2.6905    4.8920 H   0  0  0  0  0  0  0  0  0  0  0  0
    3.3410    3.1138    3.8271 H   0  0  0  0  0  0  0  0  0  0  0  0
    2.2085    5.1611    4.5272 H   0  0  0  0  0  0  0  0  0  0  0  0
    2.0514    4.9168    2.8106 H   0  0  0  0  0  0  0  0  0  0  0  0
   -0.1849    3.9093    3.3136 H   0  0  0  0  0  0  0  0  0  0  0  0
   -1.3191    5.8982    3.9097 H   0  0  0  0  0  0  0  0  0  0  0  0
    0.1979    6.6160    4.3871 H   0  0  0  0  0  0  0  0  0  0  0  0
   -0.4404    7.4068    2.1350 H   0  0  0  0  0  0  0  0  0  0  0  0
    1.0334    6.4925    2.0196 H   0  0  0  0  0  0  0  0  0  0  0  0
   -0.4155    5.8371    0.1823 H   0  0  0  0  0  0  0  0  0  0  0  0
   -0.2766    4.4600    1.2547 H   0  0  0  0  0  0  0  0  0  0  0  0
   -2.5083    4.7462    0.6720 H   0  0  0  0  0  0  0  0  0  0  0  0
   -2.3560    5.0561    2.2593 H   0  0  0  0  0  0  0  0  0  0  0  0
   -4.9630   -0.9449   -0.7850 H   0  0  0  0  0  0  0  0  0  0  0  0
   -6.9789   -1.4894   -0.2804 H   0  0  0  0  0  0  0  0  0  0  0  0
   -6.5278    1.5244   -2.8126 H   0  0  0  0  0  0  0  0  0  0  0  0
   -8.1010    0.9907   -2.3458 H   0  0  0  0  0  0  0  0  0  0  0  0
  1  2  1  0  0  0  0
  1  8  2  0  0  0  0
  1  9  1  0  0  0  0
  2  3  1  0  0  0  0
  2 28  1  0  0  0  0
  2 29  1  0  0  0  0
  3  4  1  0  0  0  0
  3 30  1  0  0  0  0
  3 31  1  0  0  0  0
  4  5  1  0  0  0  0
  4 32  1  0  0  0  0
  4 33  1  0  0  0  0
  5  6  1  0  0  0  0
  5 34  1  0  0  0  0
  5 35  1  0  0  0  0
  6  7  1  0  0  0  0
  6 36  1  0  0  0  0
  6 37  1  0  0  0  0
  7 24  1  0  0  0  0
  7 38  1  0  0  0  0
  7 39  1  0  0  0  0
  9 10  1  0  0  0  0
  9 40  1  0  0  0  0
 10 11  1  0  0  0  0
 10 13  1  0  0  0  0
 10 41  1  0  0  0  0
 11 12  2  0  0  0  0
 11 14  1  0  0  0  0
 13 42  1  0  0  0  0
 14 15  1  0  0  0  0
 14 43  1  0  0  0  0
 15 16  1  0  0  0  0
 15 44  1  0  0  0  0
 15 45  1  0  0  0  0
 16 17  1  0  0  0  0
 16 46  1  0  0  0  0
 16 47  1  0  0  0  0
 17 18  1  0  0  0  0
 17 48  1  0  0  0  0
 17 49  1  0  0  0  0
 18 19  1  0  0  0  0
 18 50  1  0  0  0  0
 18 51  1  0  0  0  0
 19 20  1  0  0  0  0
 19 52  1  0  0  0  0
 20 21  1  0  0  0  0
 20 53  1  0  0  0  0
 20 54  1  0  0  0  0
 21 22  1  0  0  0  0
 21 55  1  0  0  0  0
 21 56  1  0  0  0  0
 22 23  1  0  0  0  0
 22 57  1  0  0  0  0
 22 58  1  0  0  0  0
 23 59  1  0  0  0  0
 23 60  1  0  0  0  0
 24 25  1  0  0  0  0
 24 61  1  0  0  0  0
 25 26  2  0  0  0  0
 25 27  1  0  0  0  0
 26 62  1  0  0  0  0
 27 63  1  0  0  0  0
 27 64  1  0  0  0  0
M  END
>  <DRUGBANK_ID>
DB12692

>  <COMMON_NAME>
Gusperimus

>  <CAS_NUMBER>
98629-43-7

>  <UNII>
UJ0ZJ76DO9

>  <SYNONYMS>
Gusperimus

$$$$
