
 OpenBabel10282417213D

 58 61  0  0  0  0  0  0  0  0999 V2000
    0.9266    0.5982   -0.0924 O   0  0  0  0  0  0  0  0  0  0  0  0
    2.1169    0.3686    0.0681 C   0  0  0  0  0  0  0  0  0  0  0  0
    2.9719   -0.1030   -1.1791 C   0  0  0  0  0  0  0  0  0  0  0  0
    4.0384    0.8481   -1.5836 N   0  0  0  0  0  0  0  0  0  0  0  0
    4.7217    1.3730   -0.3992 C   0  0  0  0  0  0  0  0  0  0  0  0
    3.9346    2.5624    0.2544 C   0  0  0  0  0  0  0  0  0  0  0  0
    3.7742    3.6467   -0.6370 O   0  0  0  0  0  0  0  0  0  0  0  0
    2.9419    3.1699   -1.7157 C   0  0  0  0  0  0  0  0  0  0  0  0
    3.6678    2.0122   -2.4236 C   0  0  0  0  0  0  0  0  0  0  0  0
    2.8554    0.5372    1.3343 N   0  0  0  0  0  0  0  0  0  0  0  0
    2.3922    1.2519    2.5074 C   0  0  0  0  0  0  0  0  0  0  0  0
    1.2179    0.8913    2.8837 C   0  0  0  0  0  0  0  0  0  0  0  0
    1.1005    0.6475    4.2307 C   0  0  0  0  0  0  0  0  0  0  0  0
    1.3640    1.4488    5.2596 C   0  0  0  0  0  0  0  0  0  0  0  0
    0.6288    1.2459    6.3929 O   0  0  0  0  0  0  0  0  0  0  0  0
   -0.7048    0.4743    6.4212 C   0  0  3  0  0  0  0  0  0  0  0  0
   -0.6290   -1.0487    6.7033 C   0  0  0  0  0  0  0  0  0  0  0  0
   -0.0877   -1.8373    5.5260 C   0  0  0  0  0  0  0  0  0  0  0  0
   -0.7725   -1.5315    4.2186 N   0  0  3  0  0  0  0  0  0  0  0  0
   -1.3931   -0.1442    3.9984 C   0  0  0  0  0  0  0  0  0  0  0  0
   -1.7439    0.6664    5.2756 C   0  0  0  0  0  0  0  0  0  0  0  0
   -0.0350   -2.2844    3.1435 C   0  0  0  0  0  0  0  0  0  0  0  0
    1.5377   -2.1242    2.9912 C   0  0  0  0  0  0  0  0  0  0  0  0
    1.2974   -2.1923    1.4752 C   0  0  0  0  0  0  0  0  0  0  0  0
   -0.2078   -1.8116    1.6875 C   0  0  0  0  0  0  0  0  0  0  0  0
    2.4482    2.1763    4.8755 C   0  0  0  0  0  0  0  0  0  0  0  0
    3.0479    2.0011    3.5149 C   0  0  0  0  0  0  0  0  0  0  0  0
    3.4369   -1.0732   -0.9450 H   0  0  0  0  0  0  0  0  0  0  0  0
    2.3123   -0.3316   -2.0347 H   0  0  0  0  0  0  0  0  0  0  0  0
    5.7167    1.7280   -0.6574 H   0  0  0  0  0  0  0  0  0  0  0  0
    4.9484    0.5046    0.2312 H   0  0  0  0  0  0  0  0  0  0  0  0
    2.8853    2.4046    0.4964 H   0  0  0  0  0  0  0  0  0  0  0  0
    4.4060    2.8342    1.1957 H   0  0  0  0  0  0  0  0  0  0  0  0
    2.8087    4.0279   -2.3729 H   0  0  0  0  0  0  0  0  0  0  0  0
    1.9425    2.8603   -1.3711 H   0  0  0  0  0  0  0  0  0  0  0  0
    4.6318    2.4374   -2.7398 H   0  0  0  0  0  0  0  0  0  0  0  0
    3.1489    1.7203   -3.3393 H   0  0  0  0  0  0  0  0  0  0  0  0
    3.7697    0.1391    1.4378 H   0  0  0  0  0  0  0  0  0  0  0  0
    0.6535    0.2646    2.2227 H   0  0  0  0  0  0  0  0  0  0  0  0
    0.7387   -0.2589    4.5086 H   0  0  0  0  0  0  0  0  0  0  0  0
   -1.1931    0.8922    7.3150 H   0  0  0  0  0  0  0  0  0  0  0  0
   -0.0175   -1.2342    7.5918 H   0  0  0  0  0  0  0  0  0  0  0  0
   -1.6305   -1.4566    6.9117 H   0  0  0  0  0  0  0  0  0  0  0  0
    1.0031   -1.6543    5.5427 H   0  0  0  0  0  0  0  0  0  0  0  0
   -0.1039   -2.9181    5.7048 H   0  0  0  0  0  0  0  0  0  0  0  0
   -2.1502   -0.1387    3.2055 H   0  0  0  0  0  0  0  0  0  0  0  0
   -0.8297    0.6486    3.5236 H   0  0  0  0  0  0  0  0  0  0  0  0
   -2.7542    0.3521    5.5697 H   0  0  0  0  0  0  0  0  0  0  0  0
   -1.8041    1.7479    5.0731 H   0  0  0  0  0  0  0  0  0  0  0  0
   -0.2123   -3.3592    3.2321 H   0  0  0  0  0  0  0  0  0  0  0  0
    2.1224   -1.2529    3.2908 H   0  0  0  0  0  0  0  0  0  0  0  0
    2.2149   -2.9078    3.3538 H   0  0  0  0  0  0  0  0  0  0  0  0
    1.9440   -1.5430    0.9220 H   0  0  0  0  0  0  0  0  0  0  0  0
    1.4971   -3.1560    1.0072 H   0  0  0  0  0  0  0  0  0  0  0  0
   -0.8942   -2.3696    1.0484 H   0  0  0  0  0  0  0  0  0  0  0  0
   -0.5348   -0.7839    1.5038 H   0  0  0  0  0  0  0  0  0  0  0  0
    2.9303    2.8297    5.5935 H   0  0  0  0  0  0  0  0  0  0  0  0
    3.9402    2.5510    3.2792 H   0  0  0  0  0  0  0  0  0  0  0  0
  1  2  2  0  0  0  0
  2  3  1  0  0  0  0
  2 10  1  0  0  0  0
  3  4  1  0  0  0  0
  3 28  1  0  0  0  0
  3 29  1  0  0  0  0
  4  5  1  0  0  0  0
  4  9  1  0  0  0  0
  5  6  1  0  0  0  0
  5 30  1  0  0  0  0
  5 31  1  0  0  0  0
  6  7  1  0  0  0  0
  6 32  1  0  0  0  0
  6 33  1  0  0  0  0
  7  8  1  0  0  0  0
  8  9  1  0  0  0  0
  8 34  1  0  0  0  0
  8 35  1  0  0  0  0
  9 36  1  0  0  0  0
  9 37  1  0  0  0  0
 10 11  1  0  0  0  0
 10 38  1  0  0  0  0
 11 12  2  0  0  0  0
 11 27  1  0  0  0  0
 12 13  1  0  0  0  0
 12 39  1  0  0  0  0
 13 14  2  0  0  0  0
 13 40  1  0  0  0  0
 14 15  1  0  0  0  0
 14 26  1  0  0  0  0
 15 16  1  0  0  0  0
 16 17  1  0  0  0  0
 16 21  1  0  0  0  0
 16 41  1  0  0  0  0
 17 18  1  0  0  0  0
 17 42  1  0  0  0  0
 17 43  1  0  0  0  0
 18 19  1  0  0  0  0
 18 44  1  0  0  0  0
 18 45  1  0  0  0  0
 19 20  1  0  0  0  0
 19 22  1  0  0  0  0
 20 21  1  0  0  0  0
 20 46  1  0  0  0  0
 20 47  1  0  0  0  0
 21 48  1  0  0  0  0
 21 49  1  0  0  0  0
 22 23  1  0  0  0  0
 22 25  1  0  0  0  0
 22 50  1  0  0  0  0
 23 24  1  0  0  0  0
 23 51  1  0  0  0  0
 23 52  1  0  0  0  0
 24 25  1  0  0  0  0
 24 53  1  0  0  0  0
 24 54  1  0  0  0  0
 25 55  1  0  0  0  0
 25 56  1  0  0  0  0
 26 27  2  0  0  0  0
 26 57  1  0  0  0  0
 27 58  1  0  0  0  0
M  END
>  <DRUGBANK_ID>
DB14835

>  <COMMON_NAME>
SUVN-G3031

>  <CAS_NUMBER>
1394808-82-2

>  <UNII>
65V47O9NOP

$$$$
