
 OpenBabel10282417123D

 29 30  0  0  1  0  0  0  0  0999 V2000
    0.9577    0.1969   -0.1152 O   0  0  0  0  0  0  0  0  0  0  0  0
    0.4907    0.6320    1.1518 C   0  0  0  0  0  0  0  0  0  0  0  0
    0.9196   -0.2636    2.3310 C   0  0  1  0  0  0  0  0  0  0  0  0
    0.4148    0.3477    3.5266 O   0  0  0  0  0  0  0  0  0  0  0  0
    0.4629   -0.4231    4.7037 C   0  0  1  0  0  0  0  0  0  0  0  0
    1.7861   -0.3987    5.2686 N   0  0  0  0  0  0  0  0  0  0  0  0
    1.7519   -0.2567    6.6349 C   0  0  0  0  0  0  0  0  0  0  0  0
    2.7297   -0.2858    7.3649 O   0  0  0  0  0  0  0  0  0  0  0  0
    0.4780   -0.0232    7.0211 N   0  0  0  0  0  0  0  0  0  0  0  0
   -0.2845    0.2031    5.9130 C   0  0  0  0  0  0  0  0  0  0  0  0
   -1.3920    0.7166    5.9152 O   0  0  0  0  0  0  0  0  0  0  0  0
   -0.1124   -1.8546    4.5456 C   0  0  2  0  0  0  0  0  0  0  0  0
    0.0555   -2.6721    5.7144 O   0  0  0  0  0  0  0  0  0  0  0  0
    0.5907   -2.5374    3.3702 C   0  0  1  0  0  0  0  0  0  0  0  0
    0.0911   -3.8636    3.1636 O   0  0  0  0  0  0  0  0  0  0  0  0
    0.4057   -1.6973    2.1070 C   0  0  2  0  0  0  0  0  0  0  0  0
    1.0641   -2.3254    1.0060 O   0  0  0  0  0  0  0  0  0  0  0  0
    1.9152    0.0456   -0.0654 H   0  0  0  0  0  0  0  0  0  0  0  0
    0.8324    1.6593    1.3051 H   0  0  0  0  0  0  0  0  0  0  0  0
   -0.6042    0.6685    1.1090 H   0  0  0  0  0  0  0  0  0  0  0  0
    2.0170   -0.2759    2.3762 H   0  0  0  0  0  0  0  0  0  0  0  0
    2.6413   -0.6794    4.8125 H   0  0  0  0  0  0  0  0  0  0  0  0
    0.2256    0.2294    7.9621 H   0  0  0  0  0  0  0  0  0  0  0  0
   -1.1898   -1.8095    4.3360 H   0  0  0  0  0  0  0  0  0  0  0  0
   -0.3492   -2.2277    6.4795 H   0  0  0  0  0  0  0  0  0  0  0  0
    1.6586   -2.6632    3.5867 H   0  0  0  0  0  0  0  0  0  0  0  0
   -0.8481   -3.8099    2.9206 H   0  0  0  0  0  0  0  0  0  0  0  0
   -0.6636   -1.6705    1.8620 H   0  0  0  0  0  0  0  0  0  0  0  0
    2.0053   -2.4422    1.2136 H   0  0  0  0  0  0  0  0  0  0  0  0
  1  2  1  0  0  0  0
  1 18  1  0  0  0  0
  2 19  1  0  0  0  0
  2 20  1  0  0  0  0
  3  2  1  0  0  0  0
  3  4  1  0  0  0  0
  3 16  1  0  0  0  0
  3 21  1  1  0  0  0
  5  4  1  6  0  0  0
  5  6  1  0  0  0  0
  5 10  1  0  0  0  0
  5 12  1  0  0  0  0
  6  7  1  0  0  0  0
  6 22  1  0  0  0  0
  7  8  2  0  0  0  0
  7  9  1  0  0  0  0
  9 10  1  0  0  0  0
  9 23  1  0  0  0  0
 10 11  2  0  0  0  0
 12 14  1  0  0  0  0
 12 24  1  6  0  0  0
 12 13  1  0  0  0  0
 13 25  1  0  0  0  0
 14 15  1  0  0  0  0
 14 16  1  0  0  0  0
 14 26  1  1  0  0  0
 15 27  1  0  0  0  0
 16 17  1  0  0  0  0
 16 28  1  6  0  0  0
 17 29  1  0  0  0  0
M  END
>  <DRUGBANK_ID>
DB01823

>  <SECONDARY_ACCESSION_NUMBERS>
EXPT01612

>  <COMMON_NAME>
Beta-D-Glucopyranose Spirohydantoin

$$$$
