1HP
 OpenBabel10282417163D

 30 32  0  0  0  0  0  0  0  0999 V2000
   -0.9014   -1.4984    0.0013 C   0  0  0  0  0  0  0  0  0  0  0  0
    0.2806   -0.7568    0.0005 C   0  0  0  0  0  0  0  0  0  0  0  0
    1.6115   -1.0915    0.0005 N   0  0  0  0  0  0  0  0  0  0  0  0
    2.0971   -2.4483   -0.0023 C   0  0  0  0  0  0  0  0  0  0  0  0
    2.3452    0.0688   -0.0006 C   0  0  0  0  0  0  0  0  0  0  0  0
    3.6792    0.0855   -0.0011 N   0  0  0  0  0  0  0  0  0  0  0  0
    1.5589    1.1255   -0.0028 N   0  0  0  0  0  0  0  0  0  0  0  0
    0.2832    0.6316   -0.0037 C   0  0  0  0  0  0  0  0  0  0  0  0
   -0.8513    1.3688   -0.0099 N   0  0  0  0  0  0  0  0  0  0  0  0
   -1.9924    0.6322   -0.0102 C   0  0  0  0  0  0  0  0  0  0  0  0
   -2.0922   -0.7667   -0.0074 C   0  0  0  0  0  0  0  0  0  0  0  0
   -3.3945   -1.4425    0.0119 C   0  0  0  0  0  0  0  0  0  0  0  0
   -3.7816   -2.2169    1.1172 C   0  0  0  0  0  0  0  0  0  0  0  0
   -5.0779   -2.7252    1.2099 C   0  0  0  0  0  0  0  0  0  0  0  0
   -5.9285   -2.6356    0.1177 C   0  0  0  0  0  0  0  0  0  0  0  0
   -7.1417   -3.2490    0.2096 O   0  0  0  0  0  0  0  0  0  0  0  0
   -5.5380   -1.9580   -1.0308 C   0  0  0  0  0  0  0  0  0  0  0  0
   -4.2986   -1.3096   -1.0550 C   0  0  0  0  0  0  0  0  0  0  0  0
   -0.8963   -2.5823    0.0017 H   0  0  0  0  0  0  0  0  0  0  0  0
    1.7216   -2.9473    0.8950 H   0  0  0  0  0  0  0  0  0  0  0  0
    1.7204   -2.9441   -0.9009 H   0  0  0  0  0  0  0  0  0  0  0  0
    3.1863   -2.4767   -0.0032 H   0  0  0  0  0  0  0  0  0  0  0  0
    4.2811   -0.7288    0.0025 H   0  0  0  0  0  0  0  0  0  0  0  0
    4.1594    0.9799    0.0019 H   0  0  0  0  0  0  0  0  0  0  0  0
   -2.8980    1.2383    0.0001 H   0  0  0  0  0  0  0  0  0  0  0  0
   -3.0840   -2.4094    1.9295 H   0  0  0  0  0  0  0  0  0  0  0  0
   -5.4174   -3.1935    2.1293 H   0  0  0  0  0  0  0  0  0  0  0  0
   -7.5518   -3.2601   -0.6707 H   0  0  0  0  0  0  0  0  0  0  0  0
   -6.1844   -1.9030   -1.9008 H   0  0  0  0  0  0  0  0  0  0  0  0
   -4.0340   -0.7085   -1.9230 H   0  0  0  0  0  0  0  0  0  0  0  0
  1  2  1  0  0  0  0
  1 19  1  0  0  0  0
  2  3  1  0  0  0  0
  3  5  1  0  0  0  0
  3  4  1  0  0  0  0
  4 20  1  0  0  0  0
  4 21  1  0  0  0  0
  4 22  1  0  0  0  0
  5  6  1  0  0  0  0
  6 23  1  0  0  0  0
  6 24  1  0  0  0  0
  7  5  2  0  0  0  0
  8  2  2  0  0  0  0
  8  7  1  0  0  0  0
  9  8  1  0  0  0  0
 10  9  2  0  0  0  0
 10 11  1  0  0  0  0
 10 25  1  0  0  0  0
 11  1  2  0  0  0  0
 12 11  1  0  0  0  0
 12 18  2  0  0  0  0
 13 12  1  0  0  0  0
 13 26  1  0  0  0  0
 14 13  2  0  0  0  0
 14 15  1  0  0  0  0
 14 27  1  0  0  0  0
 15 17  2  0  0  0  0
 16 15  1  0  0  0  0
 16 28  1  0  0  0  0
 17 18  1  0  0  0  0
 17 29  1  0  0  0  0
 18 30  1  0  0  0  0
M  END
>  <DRUGBANK_ID>
DB06898

>  <COMMON_NAME>
4-(2-amino-1-methyl-1H-imidazo[4,5-b]pyridin-6-yl)phenol

>  <UNII>
YL9NJ9QS6V

$$$$
