
 OpenBabel10282417193D

 41 43  0  0  0  0  0  0  0  0999 V2000
   -2.0703    0.2508    0.3057 C   0  0  0  0  0  0  0  0  0  0  0  0
   -0.6521    0.0052    0.2090 N   0  0  0  0  0  0  0  0  0  0  0  0
    0.0702   -1.1719    0.0788 C   0  0  0  0  0  0  0  0  0  0  0  0
    1.3913   -0.7326   -0.0082 C   0  0  0  0  0  0  0  0  0  0  0  0
    1.3473    0.6663   -0.0061 C   0  0  0  0  0  0  0  0  0  0  0  0
    0.1039    1.1185    0.0928 N   0  0  0  0  0  0  0  0  0  0  0  0
   -0.3461   -2.5782    0.0856 C   0  0  0  0  0  0  0  0  0  0  0  0
    0.4842   -3.4861    0.2312 O   0  0  0  0  0  0  0  0  0  0  0  0
   -1.6692   -2.9486   -0.0038 N   0  0  0  0  0  0  0  0  0  0  0  0
   -2.6261   -2.5142   -0.9320 C   0  0  0  0  0  0  0  0  0  0  0  0
   -2.2664   -1.6229   -1.9243 C   0  0  0  0  0  0  0  0  0  0  0  0
   -3.2622   -0.8417   -2.4806 C   0  0  0  0  0  0  0  0  0  0  0  0
   -4.6088   -1.0873   -2.1979 C   0  0  0  0  0  0  0  0  0  0  0  0
   -4.8897   -2.1600   -1.3357 C   0  0  0  0  0  0  0  0  0  0  0  0
   -3.9163   -2.8460   -0.6805 N   0  0  0  0  0  0  0  0  0  0  0  0
   -6.2133   -2.4637   -1.0056 N   0  0  0  0  0  0  0  0  0  0  0  0
   -5.6378   -0.2759   -2.8761 C   0  0  0  0  0  0  0  0  0  0  0  0
   -6.6141    0.4349   -2.1402 C   0  0  0  0  0  0  0  0  0  0  0  0
   -7.6000    1.1982   -2.7821 C   0  0  0  0  0  0  0  0  0  0  0  0
   -7.5988    1.2789   -4.1728 C   0  0  0  0  0  0  0  0  0  0  0  0
   -6.6431    0.5942   -4.9175 C   0  0  0  0  0  0  0  0  0  0  0  0
   -5.6814   -0.1851   -4.2823 C   0  0  0  0  0  0  0  0  0  0  0  0
   -4.5945   -1.0537   -5.3198 Cl  0  0  0  0  0  0  0  0  0  0  0  0
   -8.5114    1.8129   -1.9651 O   0  0  0  0  0  0  0  0  0  0  0  0
   -9.5199    2.5865   -2.6146 C   0  0  0  0  0  0  0  0  0  0  0  0
   -2.2892    0.9594    1.0999 H   0  0  0  0  0  0  0  0  0  0  0  0
   -2.3777    0.6956   -0.6461 H   0  0  0  0  0  0  0  0  0  0  0  0
   -2.6141   -0.6559    0.5358 H   0  0  0  0  0  0  0  0  0  0  0  0
    2.2743   -1.3549   -0.0809 H   0  0  0  0  0  0  0  0  0  0  0  0
    2.1571    1.3809   -0.0775 H   0  0  0  0  0  0  0  0  0  0  0  0
   -1.9378   -3.7647    0.5296 H   0  0  0  0  0  0  0  0  0  0  0  0
   -1.2349   -1.3714   -2.1415 H   0  0  0  0  0  0  0  0  0  0  0  0
   -2.9678    0.0121   -3.0887 H   0  0  0  0  0  0  0  0  0  0  0  0
   -6.2927   -3.3623   -0.5441 H   0  0  0  0  0  0  0  0  0  0  0  0
   -6.8783   -2.3164   -1.7567 H   0  0  0  0  0  0  0  0  0  0  0  0
   -6.6187    0.3864   -1.0499 H   0  0  0  0  0  0  0  0  0  0  0  0
   -8.3331    1.8615   -4.7170 H   0  0  0  0  0  0  0  0  0  0  0  0
   -6.6589    0.6611   -6.0014 H   0  0  0  0  0  0  0  0  0  0  0  0
   -9.0763    3.4176   -3.1743 H   0  0  0  0  0  0  0  0  0  0  0  0
  -10.1389    1.9608   -3.2682 H   0  0  0  0  0  0  0  0  0  0  0  0
  -10.1747    3.0142   -1.8501 H   0  0  0  0  0  0  0  0  0  0  0  0
  1  2  1  0  0  0  0
  1 26  1  0  0  0  0
  1 27  1  0  0  0  0
  1 28  1  0  0  0  0
  2  3  1  0  0  0  0
  2  6  1  0  0  0  0
  3  4  2  0  0  0  0
  3  7  1  0  0  0  0
  4  5  1  0  0  0  0
  4 29  1  0  0  0  0
  5  6  2  0  0  0  0
  5 30  1  0  0  0  0
  7  8  2  0  0  0  0
  7  9  1  0  0  0  0
  9 10  1  0  0  0  0
  9 31  1  0  0  0  0
 10 11  2  0  0  0  0
 10 15  1  0  0  0  0
 11 12  1  0  0  0  0
 11 32  1  0  0  0  0
 12 13  2  0  0  0  0
 12 33  1  0  0  0  0
 13 14  1  0  0  0  0
 13 17  1  0  0  0  0
 14 15  2  0  0  0  0
 14 16  1  0  0  0  0
 16 34  1  0  0  0  0
 16 35  1  0  0  0  0
 17 18  2  0  0  0  0
 17 22  1  0  0  0  0
 18 19  1  0  0  0  0
 18 36  1  0  0  0  0
 19 20  2  0  0  0  0
 19 24  1  0  0  0  0
 20 21  1  0  0  0  0
 20 37  1  0  0  0  0
 21 22  2  0  0  0  0
 21 38  1  0  0  0  0
 22 23  1  0  0  0  0
 24 25  1  0  0  0  0
 25 39  1  0  0  0  0
 25 40  1  0  0  0  0
 25 41  1  0  0  0  0
M  END
>  <DRUGBANK_ID>
DB12468

>  <COMMON_NAME>
Pf-04531083

>  <CAS_NUMBER>
1079400-07-9

>  <UNII>
40497CY7Y3

$$$$
