
 OpenBabel10282417153D

 72 73  0  0  0  0  0  0  0  0999 V2000
   -3.4093    0.2992    0.1629 O   0  0  0  0  0  0  0  0  0  0  0  0
    1.4769    2.8359   -0.3288 C   0  0  0  0  0  0  0  0  0  0  0  0
    1.7133    1.5301   -0.0674 N   0  0  0  0  0  0  0  0  0  0  0  0
    1.9655    3.4133   -1.4249 C   0  0  0  0  0  0  0  0  0  0  0  0
    1.8742    0.7105   -1.1780 C   0  0  0  0  0  0  0  0  0  0  0  0
    2.8798    2.7102   -2.3356 C   0  0  0  0  0  0  0  0  0  0  0  0
    3.0384    0.2904   -1.3285 O   0  0  0  0  0  0  0  0  0  0  0  0
    0.2992    3.5526    0.1671 C   0  0  0  0  0  0  0  0  0  0  0  0
   -0.8707    3.0027   -0.3577 N   0  0  0  0  0  0  0  0  0  0  0  0
    0.4310    4.6417    0.7019 O   0  0  0  0  0  0  0  0  0  0  0  0
   -1.6144    1.9310    0.3494 C   0  0  2  0  0  0  0  0  0  0  0  0
   -2.8743    1.4311   -0.3948 C   0  0  0  0  0  0  0  0  0  0  0  0
   -1.9814    2.3017    1.7995 C   0  0  0  0  0  0  0  0  0  0  0  0
   -2.6004    1.1412    2.5667 C   0  0  0  0  0  0  0  0  0  0  0  0
   -0.7640    2.6859    2.6265 C   0  0  0  0  0  0  0  0  0  0  0  0
    0.3844   -0.0924   -1.8990 C   0  0  2  0  0  0  0  0  0  0  0  0
    1.2689   -1.2685   -1.4347 N   0  0  0  0  0  0  0  0  0  0  0  0
    1.1315   -1.7356   -0.0926 C   0  0  0  0  0  0  0  0  0  0  0  0
    0.8051   -3.1997   -0.3214 C   0  0  1  0  0  0  0  0  0  0  0  0
    2.0161   -4.1257   -0.2342 C   0  0  0  0  0  0  0  0  0  0  0  0
   -0.4228   -3.6090    0.2902 N   0  0  0  0  0  0  0  0  0  0  0  0
   -1.5091   -2.9798   -0.2980 C   0  0  0  0  0  0  0  0  0  0  0  0
   -1.9888   -1.7336    0.4447 C   0  0  0  0  0  0  0  0  0  0  0  0
   -1.8489   -3.2887   -1.4345 O   0  0  0  0  0  0  0  0  0  0  0  0
    2.2947   -4.6628   -1.6459 C   0  0  0  0  0  0  0  0  0  0  0  0
    3.2222   -3.3042    0.2119 C   0  0  0  0  0  0  0  0  0  0  0  0
    1.1408   -1.1193    0.9636 O   0  0  0  0  0  0  0  0  0  0  0  0
   -3.0470   -1.0009   -0.3354 C   0  0  1  0  0  0  0  0  0  0  0  0
   -3.4200    2.0728   -1.2922 O   0  0  0  0  0  0  0  0  0  0  0  0
   -1.0934   -0.3610   -3.0975 C   0  0  0  0  0  0  0  0  0  0  0  0
   -3.4243   -0.1369   -3.2793 S   0  0  0  0  0  0  0  0  0  0  0  0
   -5.3199   -1.4239   -4.1463 S   0  0  0  0  0  0  0  0  0  0  0  0
   -6.6940   -2.2193   -2.6664 C   0  0  0  0  0  0  0  0  0  0  0  0
   -5.8926   -3.1657   -1.7928 C   0  0  0  0  0  0  0  0  0  0  0  0
   -4.6635   -2.4376   -1.4830 C   0  0  0  0  0  0  0  0  0  0  0  0
   -4.2683   -1.8627   -0.3541 C   0  0  0  0  0  0  0  0  0  0  0  0
    1.5448    1.1352    0.8610 H   0  0  0  0  0  0  0  0  0  0  0  0
    1.5389    4.3493   -1.7791 H   0  0  0  0  0  0  0  0  0  0  0  0
    3.1051    2.0197   -3.1569 H   0  0  0  0  0  0  0  0  0  0  0  0
    3.7427    3.3538   -2.4036 H   0  0  0  0  0  0  0  0  0  0  0  0
    1.9452    2.6295   -2.9186 H   0  0  0  0  0  0  0  0  0  0  0  0
   -1.4148    3.6206   -0.9556 H   0  0  0  0  0  0  0  0  0  0  0  0
   -0.9213    1.1005    0.3521 H   0  0  0  0  0  0  0  0  0  0  0  0
   -2.6811    3.1448    1.7695 H   0  0  0  0  0  0  0  0  0  0  0  0
   -1.9244    0.2785    2.5369 H   0  0  0  0  0  0  0  0  0  0  0  0
   -2.7719    1.4230    3.6048 H   0  0  0  0  0  0  0  0  0  0  0  0
   -3.5802    0.8583    2.1890 H   0  0  0  0  0  0  0  0  0  0  0  0
   -0.4108    3.6530    2.3228 H   0  0  0  0  0  0  0  0  0  0  0  0
   -0.9976    2.8605    3.6749 H   0  0  0  0  0  0  0  0  0  0  0  0
    0.0343    1.9389    2.5314 H   0  0  0  0  0  0  0  0  0  0  0  0
   -0.1845    0.1252   -1.0276 H   0  0  0  0  0  0  0  0  0  0  0  0
    2.3241   -1.1727   -1.5639 H   0  0  0  0  0  0  0  0  0  0  0  0
    0.5212   -3.1432   -1.3769 H   0  0  0  0  0  0  0  0  0  0  0  0
    1.8447   -4.9585    0.4571 H   0  0  0  0  0  0  0  0  0  0  0  0
   -0.4200   -3.8380    1.2705 H   0  0  0  0  0  0  0  0  0  0  0  0
   -2.3506   -2.0122    1.4274 H   0  0  0  0  0  0  0  0  0  0  0  0
   -1.1597   -1.0430    0.5667 H   0  0  0  0  0  0  0  0  0  0  0  0
    2.2408   -3.8605   -2.3962 H   0  0  0  0  0  0  0  0  0  0  0  0
    3.2978   -5.0861   -1.7033 H   0  0  0  0  0  0  0  0  0  0  0  0
    1.5640   -5.4249   -1.9347 H   0  0  0  0  0  0  0  0  0  0  0  0
    3.0331   -2.8514    1.1928 H   0  0  0  0  0  0  0  0  0  0  0  0
    4.1939   -3.7923    0.2137 H   0  0  0  0  0  0  0  0  0  0  0  0
    3.3464   -2.5246   -0.5373 H   0  0  0  0  0  0  0  0  0  0  0  0
   -2.6014   -0.8386   -1.2937 H   0  0  0  0  0  0  0  0  0  0  0  0
   -1.6087    0.1803   -3.9804 H   0  0  0  0  0  0  0  0  0  0  0  0
   -0.5407    0.2969   -3.8102 H   0  0  0  0  0  0  0  0  0  0  0  0
   -7.5849   -2.8075   -3.0273 H   0  0  0  0  0  0  0  0  0  0  0  0
   -7.1507   -1.3835   -2.1114 H   0  0  0  0  0  0  0  0  0  0  0  0
   -5.6419   -4.0576   -2.3771 H   0  0  0  0  0  0  0  0  0  0  0  0
   -6.3992   -3.4759   -0.8760 H   0  0  0  0  0  0  0  0  0  0  0  0
   -4.0418   -2.3196   -2.3542 H   0  0  0  0  0  0  0  0  0  0  0  0
   -4.7827   -2.1158    0.5565 H   0  0  0  0  0  0  0  0  0  0  0  0
  1 12  1  0  0  0  0
  1 28  1  0  0  0  0
  2  8  1  0  0  0  0
  3  2  1  0  0  0  0
  3 37  1  0  0  0  0
  4  2  2  0  0  0  0
  4 38  1  0  0  0  0
  5  3  1  0  0  0  0
  5 16  1  0  0  0  0
  6  4  1  0  0  0  0
  6 39  1  0  0  0  0
  6 40  1  0  0  0  0
  6 41  1  0  0  0  0
  7  5  2  0  0  0  0
  8  9  1  0  0  0  0
  8 10  2  0  0  0  0
  9 11  1  0  0  0  0
  9 42  1  0  0  0  0
 11 12  1  0  0  0  0
 11 13  1  0  0  0  0
 11 43  1  1  0  0  0
 12 29  2  0  0  0  0
 13 14  1  0  0  0  0
 13 15  1  0  0  0  0
 13 44  1  0  0  0  0
 14 45  1  0  0  0  0
 14 46  1  0  0  0  0
 14 47  1  0  0  0  0
 15 48  1  0  0  0  0
 15 49  1  0  0  0  0
 15 50  1  0  0  0  0
 16 17  1  0  0  0  0
 16 30  1  0  0  0  0
 16 51  1  1  0  0  0
 17 18  1  0  0  0  0
 17 52  1  0  0  0  0
 18 19  1  0  0  0  0
 18 27  2  0  0  0  0
 19 21  1  0  0  0  0
 19 53  1  6  0  0  0
 19 20  1  0  0  0  0
 20 25  1  0  0  0  0
 20 26  1  0  0  0  0
 20 54  1  0  0  0  0
 21 22  1  0  0  0  0
 21 55  1  0  0  0  0
 22 23  1  0  0  0  0
 22 24  2  0  0  0  0
 23 28  1  0  0  0  0
 23 56  1  0  0  0  0
 23 57  1  0  0  0  0
 25 58  1  0  0  0  0
 25 59  1  0  0  0  0
 25 60  1  0  0  0  0
 26 61  1  0  0  0  0
 26 62  1  0  0  0  0
 26 63  1  0  0  0  0
 28 36  1  0  0  0  0
 28 64  1  6  0  0  0
 30 31  1  0  0  0  0
 30 65  1  0  0  0  0
 30 66  1  0  0  0  0
 31 32  1  0  0  0  0
 32 33  1  0  0  0  0
 33 34  1  0  0  0  0
 33 67  1  0  0  0  0
 33 68  1  0  0  0  0
 34 35  1  0  0  0  0
 34 69  1  0  0  0  0
 34 70  1  0  0  0  0
 35 36  2  0  0  0  0
 35 71  1  0  0  0  0
 36 72  1  0  0  0  0
M  END
>  <DRUGBANK_ID>
DB06176

>  <COMMON_NAME>
Romidepsin

>  <CAS_NUMBER>
128517-07-7

>  <UNII>
CX3T89XQBK

>  <SYNONYMS>
Romidepsin; Romidepsina; Romidepsine; Romidepsinum

$$$$
