163
 OpenBabel10282417103D

 81 82  0  0  1  0  0  0  0  0999 V2000
   -1.1401    1.3532    0.3548 O   0  0  0  0  0  0  0  0  0  0  0  0
    3.6927   -1.3227   -0.1215 O   0  0  0  0  0  0  0  0  0  0  0  0
   -2.2249    0.6329   -0.2711 C   0  0  2  0  0  0  0  0  0  0  0  0
   -3.5863    1.4098   -0.1724 C   0  0  0  0  0  0  0  0  0  0  0  0
   -2.3847   -0.6850    0.5044 C   0  0  0  0  0  0  0  0  0  0  0  0
   -4.0809    2.1548   -1.4435 C   0  0  0  0  0  0  0  0  0  0  0  0
   -4.8225   -0.0356   -2.5318 C   0  0  1  0  0  0  0  0  0  0  0  0
   -4.1559    1.3346   -2.7586 C   0  0  0  0  0  0  0  0  0  0  0  0
   -1.2142   -1.5706    0.1652 C   0  0  0  0  0  0  0  0  0  0  0  0
   -6.3225    0.2524   -2.3960 C   0  0  0  0  0  0  0  0  0  0  0  0
   -1.7772    0.4549   -1.7234 C   0  0  0  0  0  0  0  0  0  0  0  0
    0.0770   -0.7874    0.2007 C   0  0  0  0  0  0  0  0  0  0  0  0
   -6.8836    0.9951   -3.6159 C   0  0  0  0  0  0  0  0  0  0  0  0
    0.0597    0.6385    0.2873 C   0  0  0  0  0  0  0  0  0  0  0  0
   -6.6591    0.1885   -4.8944 C   0  0  0  0  0  0  0  0  0  0  0  0
   -7.3004   -1.2013   -4.7330 C   0  0  1  0  0  0  0  0  0  0  0  0
   -4.3339   -1.1248   -3.5191 C   0  0  0  0  0  0  0  0  0  0  0  0
   -8.8157   -0.9675   -4.6216 C   0  0  0  0  0  0  0  0  0  0  0  0
    1.2920   -1.4641    0.0118 C   0  0  0  0  0  0  0  0  0  0  0  0
    1.2437    1.3883    0.1987 C   0  0  0  0  0  0  0  0  0  0  0  0
   -9.3909   -0.1924   -5.8135 C   0  0  0  0  0  0  0  0  0  0  0  0
    2.4724    0.7018    0.0738 C   0  0  0  0  0  0  0  0  0  0  0  0
   -6.7718   -2.2296   -5.7350 C   0  0  0  0  0  0  0  0  0  0  0  0
    2.4735   -0.7114   -0.0141 C   0  0  0  0  0  0  0  0  0  0  0  0
   -9.2793   -0.9771   -7.1177 C   0  0  0  0  0  0  0  0  0  0  0  0
   -9.8935   -2.3752   -6.9600 C   0  0  0  0  0  0  0  0  0  0  0  0
    1.3273   -2.9650   -0.1427 C   0  0  0  0  0  0  0  0  0  0  0  0
    1.1693    2.8971    0.1885 C   0  0  0  0  0  0  0  0  0  0  0  0
    3.7769    1.4527    0.0556 C   0  0  0  0  0  0  0  0  0  0  0  0
  -11.3941   -2.2046   -6.7658 C   0  0  0  0  0  0  0  0  0  0  0  0
   -9.5430   -3.2875   -8.1212 C   0  0  0  0  0  0  0  0  0  0  0  0
    3.5769   -2.2923   -0.0951 H   0  0  0  0  0  0  0  0  0  0  0  0
   -4.3935    0.7115    0.1036 H   0  0  0  0  0  0  0  0  0  0  0  0
   -3.5657    2.1181    0.6651 H   0  0  0  0  0  0  0  0  0  0  0  0
   -2.3806   -0.4896    1.5861 H   0  0  0  0  0  0  0  0  0  0  0  0
   -3.3144   -1.2170    0.2732 H   0  0  0  0  0  0  0  0  0  0  0  0
   -5.0952    2.5258   -1.2292 H   0  0  0  0  0  0  0  0  0  0  0  0
   -3.4801    3.0538   -1.6040 H   0  0  0  0  0  0  0  0  0  0  0  0
   -4.5310   -0.4694   -1.5736 H   0  0  0  0  0  0  0  0  0  0  0  0
   -4.6474    1.9610   -3.5026 H   0  0  0  0  0  0  0  0  0  0  0  0
   -3.2284    1.2034   -3.3113 H   0  0  0  0  0  0  0  0  0  0  0  0
   -1.1894   -2.4136    0.8596 H   0  0  0  0  0  0  0  0  0  0  0  0
   -1.3582   -1.9789   -0.8476 H   0  0  0  0  0  0  0  0  0  0  0  0
   -6.8687   -0.6649   -2.1570 H   0  0  0  0  0  0  0  0  0  0  0  0
   -6.4979    0.8744   -1.5100 H   0  0  0  0  0  0  0  0  0  0  0  0
   -0.7467    0.1817   -1.9391 H   0  0  0  0  0  0  0  0  0  0  0  0
   -2.3539   -0.3352   -2.1739 H   0  0  0  0  0  0  0  0  0  0  0  0
   -1.8193    1.4277   -2.2092 H   0  0  0  0  0  0  0  0  0  0  0  0
   -7.9358    1.2290   -3.4427 H   0  0  0  0  0  0  0  0  0  0  0  0
   -6.4593    1.9930   -3.7408 H   0  0  0  0  0  0  0  0  0  0  0  0
   -7.0460    0.7395   -5.7512 H   0  0  0  0  0  0  0  0  0  0  0  0
   -5.6135    0.1506   -5.1743 H   0  0  0  0  0  0  0  0  0  0  0  0
   -7.0295   -1.6704   -3.7845 H   0  0  0  0  0  0  0  0  0  0  0  0
   -3.3257   -1.4813   -3.2960 H   0  0  0  0  0  0  0  0  0  0  0  0
   -4.9508   -2.0226   -3.4611 H   0  0  0  0  0  0  0  0  0  0  0  0
   -4.2261   -0.7936   -4.5504 H   0  0  0  0  0  0  0  0  0  0  0  0
   -9.3367   -1.9042   -4.4133 H   0  0  0  0  0  0  0  0  0  0  0  0
   -9.0349   -0.3908   -3.7143 H   0  0  0  0  0  0  0  0  0  0  0  0
  -10.4281    0.0722   -5.5981 H   0  0  0  0  0  0  0  0  0  0  0  0
   -8.9204    0.7868   -5.9423 H   0  0  0  0  0  0  0  0  0  0  0  0
   -5.7462   -2.5252   -5.4889 H   0  0  0  0  0  0  0  0  0  0  0  0
   -7.3634   -3.1485   -5.7050 H   0  0  0  0  0  0  0  0  0  0  0  0
   -6.7057   -1.8572   -6.7537 H   0  0  0  0  0  0  0  0  0  0  0  0
   -9.7816   -0.4201   -7.9146 H   0  0  0  0  0  0  0  0  0  0  0  0
   -8.2441   -1.0207   -7.4574 H   0  0  0  0  0  0  0  0  0  0  0  0
   -9.5064   -2.8955   -6.0802 H   0  0  0  0  0  0  0  0  0  0  0  0
    1.8631   -3.2437   -1.0554 H   0  0  0  0  0  0  0  0  0  0  0  0
    1.8135   -3.4051    0.7317 H   0  0  0  0  0  0  0  0  0  0  0  0
    0.3418   -3.4287   -0.2288 H   0  0  0  0  0  0  0  0  0  0  0  0
    0.6455    3.2536   -0.7065 H   0  0  0  0  0  0  0  0  0  0  0  0
    0.6461    3.2515    1.0810 H   0  0  0  0  0  0  0  0  0  0  0  0
    2.1523    3.3745    0.1879 H   0  0  0  0  0  0  0  0  0  0  0  0
    3.8289    2.1128   -0.8163 H   0  0  0  0  0  0  0  0  0  0  0  0
    3.8702    2.0412    0.9747 H   0  0  0  0  0  0  0  0  0  0  0  0
    4.6505    0.7967    0.0156 H   0  0  0  0  0  0  0  0  0  0  0  0
  -11.8199   -1.6538   -7.6091 H   0  0  0  0  0  0  0  0  0  0  0  0
  -11.8960   -3.1659   -6.6621 H   0  0  0  0  0  0  0  0  0  0  0  0
  -11.6093   -1.6348   -5.8545 H   0  0  0  0  0  0  0  0  0  0  0  0
   -8.4637   -3.4832   -8.1428 H   0  0  0  0  0  0  0  0  0  0  0  0
  -10.0446   -4.2534   -8.0022 H   0  0  0  0  0  0  0  0  0  0  0  0
   -9.8351   -2.8466   -9.0750 H   0  0  0  0  0  0  0  0  0  0  0  0
  1  3  1  0  0  0  0
  1 14  1  0  0  0  0
  2 24  1  0  0  0  0
  2 32  1  0  0  0  0
  3  5  1  0  0  0  0
  3 11  1  6  0  0  0
  3  4  1  0  0  0  0
  4  6  1  0  0  0  0
  4 33  1  0  0  0  0
  4 34  1  0  0  0  0
  5  9  1  0  0  0  0
  5 35  1  0  0  0  0
  5 36  1  0  0  0  0
  6  8  1  0  0  0  0
  6 37  1  0  0  0  0
  6 38  1  0  0  0  0
  7  8  1  0  0  0  0
  7 10  1  0  0  0  0
  7 17  1  0  0  0  0
  7 39  1  1  0  0  0
  8 40  1  0  0  0  0
  8 41  1  0  0  0  0
  9 12  1  0  0  0  0
  9 42  1  0  0  0  0
  9 43  1  0  0  0  0
 10 13  1  0  0  0  0
 10 44  1  0  0  0  0
 10 45  1  0  0  0  0
 11 46  1  0  0  0  0
 11 47  1  0  0  0  0
 11 48  1  0  0  0  0
 12 14  2  0  0  0  0
 12 19  1  0  0  0  0
 13 15  1  0  0  0  0
 13 49  1  0  0  0  0
 13 50  1  0  0  0  0
 14 20  1  0  0  0  0
 15 16  1  0  0  0  0
 15 51  1  0  0  0  0
 15 52  1  0  0  0  0
 16 18  1  0  0  0  0
 16 23  1  0  0  0  0
 16 53  1  1  0  0  0
 17 54  1  0  0  0  0
 17 55  1  0  0  0  0
 17 56  1  0  0  0  0
 18 21  1  0  0  0  0
 18 57  1  0  0  0  0
 18 58  1  0  0  0  0
 19 24  2  0  0  0  0
 19 27  1  0  0  0  0
 20 22  2  0  0  0  0
 20 28  1  0  0  0  0
 21 25  1  0  0  0  0
 21 59  1  0  0  0  0
 21 60  1  0  0  0  0
 22 24  1  0  0  0  0
 22 29  1  0  0  0  0
 23 61  1  0  0  0  0
 23 62  1  0  0  0  0
 23 63  1  0  0  0  0
 25 26  1  0  0  0  0
 25 64  1  0  0  0  0
 25 65  1  0  0  0  0
 26 30  1  0  0  0  0
 26 31  1  0  0  0  0
 26 66  1  0  0  0  0
 27 67  1  0  0  0  0
 27 68  1  0  0  0  0
 27 69  1  0  0  0  0
 28 70  1  0  0  0  0
 28 71  1  0  0  0  0
 28 72  1  0  0  0  0
 29 73  1  0  0  0  0
 29 74  1  0  0  0  0
 29 75  1  0  0  0  0
 30 76  1  0  0  0  0
 30 77  1  0  0  0  0
 30 78  1  0  0  0  0
 31 79  1  0  0  0  0
 31 80  1  0  0  0  0
 31 81  1  0  0  0  0
M  END
>  <DRUGBANK_ID>
DB00163

>  <SECONDARY_ACCESSION_NUMBERS>
NUTR00061; EXPT03227

>  <COMMON_NAME>
Vitamin E

>  <CAS_NUMBER>
59-02-9

>  <UNII>
N9PR3490H9

>  <SYNONYMS>
(+)-α-tocopherol; (2R,4'R,8'R)-α-tocopherol; (R,R,R)-α-tocopherol; 5,7,8-trimethyltocol; alpha-tocopherol; d-α-tocopherol

$$$$
