
 OpenBabel10282417183D

 34 35  0  0  0  0  0  0  0  0999 V2000
    2.3748   -0.0986   -0.1477 N   0  0  0  0  0  0  0  0  0  0  0  0
    1.0018   -0.1309    0.0270 C   0  0  0  0  0  0  0  0  0  0  0  0
    0.3221    1.0580    0.1720 C   0  0  0  0  0  0  0  0  0  0  0  0
   -1.0465    1.0648    0.3983 C   0  0  0  0  0  0  0  0  0  0  0  0
   -1.8293   -0.0469    0.1611 C   0  0  0  0  0  0  0  0  0  0  0  0
   -1.1680   -1.2660   -0.0184 C   0  0  0  0  0  0  0  0  0  0  0  0
    0.2460   -1.3025   -0.0370 C   0  0  0  0  0  0  0  0  0  0  0  0
   -3.6119    0.0608    0.0347 S   0  0  0  0  0  0  0  0  0  0  0  0
   -4.1294   -0.5077    1.2523 O   0  0  0  0  0  0  0  0  0  0  0  0
   -3.9649   -0.5307   -1.2513 O   0  0  0  0  0  0  0  0  0  0  0  0
   -4.1994    1.6369   -0.0619 N   0  0  0  0  0  0  0  0  0  0  0  0
   -3.4322    2.8060   -0.2169 C   0  0  0  0  0  0  0  0  0  0  0  0
   -3.5321    3.7276    0.7600 N   0  0  0  0  0  0  0  0  0  0  0  0
   -2.4787    2.9321   -1.2017 C   0  0  0  0  0  0  0  0  0  0  0  0
   -1.5917    4.8659   -0.0551 C   0  0  0  0  0  0  0  0  0  0  0  0
   -2.6062    4.7802    0.8307 N   0  0  0  0  0  0  0  0  0  0  0  0
   -1.5202    3.9459   -1.0873 C   0  0  0  0  0  0  0  0  0  0  0  0
   -0.6560    5.8314    0.2107 O   0  0  0  0  0  0  0  0  0  0  0  0
    0.5038    5.8989   -0.6297 C   0  0  0  0  0  0  0  0  0  0  0  0
    1.4966    4.7912   -0.3125 C   0  0  0  0  0  0  0  0  0  0  0  0
    2.9073   -0.9423    0.0176 H   0  0  0  0  0  0  0  0  0  0  0  0
    2.8586    0.7757    0.0352 H   0  0  0  0  0  0  0  0  0  0  0  0
    0.8626    1.9914    0.1989 H   0  0  0  0  0  0  0  0  0  0  0  0
   -1.4630    1.9816    0.7721 H   0  0  0  0  0  0  0  0  0  0  0  0
   -1.7271   -2.1972   -0.0942 H   0  0  0  0  0  0  0  0  0  0  0  0
    0.7570   -2.2597   -0.0848 H   0  0  0  0  0  0  0  0  0  0  0  0
   -5.1472    1.7647    0.2843 H   0  0  0  0  0  0  0  0  0  0  0  0
   -2.3322    2.1434   -1.9313 H   0  0  0  0  0  0  0  0  0  0  0  0
   -0.6693    3.8901   -1.7527 H   0  0  0  0  0  0  0  0  0  0  0  0
    0.2243    5.9132   -1.6900 H   0  0  0  0  0  0  0  0  0  0  0  0
    0.9981    6.8580   -0.4351 H   0  0  0  0  0  0  0  0  0  0  0  0
    1.0531    3.8180   -0.4928 H   0  0  0  0  0  0  0  0  0  0  0  0
    2.3877    4.8497   -0.9421 H   0  0  0  0  0  0  0  0  0  0  0  0
    1.7833    4.8068    0.7428 H   0  0  0  0  0  0  0  0  0  0  0  0
  1  2  1  0  0  0  0
  1 21  1  0  0  0  0
  1 22  1  0  0  0  0
  2  3  2  0  0  0  0
  2  7  1  0  0  0  0
  3  4  1  0  0  0  0
  3 23  1  0  0  0  0
  4  5  2  0  0  0  0
  4 24  1  0  0  0  0
  5  6  1  0  0  0  0
  5  8  1  0  0  0  0
  6  7  2  0  0  0  0
  6 25  1  0  0  0  0
  7 26  1  0  0  0  0
  8 10  2  0  0  0  0
  8  9  2  0  0  0  0
  8 11  1  0  0  0  0
 11 12  1  0  0  0  0
 11 27  1  0  0  0  0
 13 12  1  0  0  0  0
 14 12  2  0  0  0  0
 14 28  1  0  0  0  0
 15 16  1  0  0  0  0
 15 17  2  0  0  0  0
 15 18  1  0  0  0  0
 16 13  2  0  0  0  0
 17 14  1  0  0  0  0
 17 29  1  0  0  0  0
 18 19  1  0  0  0  0
 19 20  1  0  0  0  0
 19 30  1  0  0  0  0
 19 31  1  0  0  0  0
 20 32  1  0  0  0  0
 20 33  1  0  0  0  0
 20 34  1  0  0  0  0
M  END
>  <DRUGBANK_ID>
DB11462

>  <COMMON_NAME>
Sulfaethoxypyridazine

>  <CAS_NUMBER>
963-14-4

>  <UNII>
880RIW1DED

>  <SYNONYMS>
4-amino-N-(6-ethoxy-3-pyridazinyl)benzenesulfonamide; N1-(6-ethoxy-3-pyridazinyl)sulfanilamide; N1-(6-ethoxypyridazin-3-yl)sulphanilamide

$$$$
