
 OpenBabel10282417123D

 38 39  0  0  1  0  0  0  0  0999 V2000
   -1.5477   -1.7553    0.0184 C   0  0  0  0  0  0  0  0  0  0  0  0
   -0.4174   -0.7688   -0.0401 C   0  0  0  0  0  0  0  0  0  0  0  0
    0.8239   -1.3067   -0.1313 N   0  0  0  0  0  0  0  0  0  0  0  0
    1.8525   -0.4404   -0.2188 C   0  0  0  0  0  0  0  0  0  0  0  0
    1.7348    0.9601   -0.1982 C   0  0  0  0  0  0  0  0  0  0  0  0
    3.0394    1.7382   -0.0371 C   0  0  0  0  0  0  0  0  0  0  0  0
    3.7437    1.5233    1.2464 O   0  0  0  0  0  0  0  0  0  0  0  0
    2.7632    1.8082    2.6429 P   0  0  0  0  0  0  0  0  0  0  0  0
    2.2283    3.0602    1.8494 O   0  0  0  0  0  0  0  0  0  0  0  0
    2.0094    0.4421    2.2745 O   0  0  0  0  0  0  0  0  0  0  0  0
    1.8856    2.0631    3.8928 O   0  0  0  0  0  0  0  0  0  0  0  0
    0.4199    1.5222   -0.1254 C   0  0  0  0  0  0  0  0  0  0  0  0
    0.1512    3.0237   -0.1750 C   0  0  0  0  0  0  0  0  0  0  0  0
    0.2257    3.7332    1.0707 N   0  0  0  0  0  0  0  0  0  0  0  0
    0.2447    5.1704    1.1105 C   0  0  2  0  0  0  0  0  0  0  0  0
    1.0317    6.0370    0.1484 C   0  0  0  0  0  0  0  0  0  0  0  0
    0.8349    7.3618    0.6958 O   0  0  0  0  0  0  0  0  0  0  0  0
    0.8417    7.1860    2.1164 N   0  0  0  0  0  0  0  0  0  0  0  0
    0.7220    5.8219    2.3990 C   0  0  0  0  0  0  0  0  0  0  0  0
    0.9612    5.3149    3.4674 O   0  0  0  0  0  0  0  0  0  0  0  0
   -0.6569    0.6138   -0.0480 C   0  0  0  0  0  0  0  0  0  0  0  0
   -1.9698    1.0096   -0.0255 O   0  0  0  0  0  0  0  0  0  0  0  0
   -1.5084   -2.3937   -0.8689 H   0  0  0  0  0  0  0  0  0  0  0  0
   -1.4625   -2.3781    0.9140 H   0  0  0  0  0  0  0  0  0  0  0  0
   -2.5308   -1.2768    0.0376 H   0  0  0  0  0  0  0  0  0  0  0  0
    2.8308   -0.9184   -0.1836 H   0  0  0  0  0  0  0  0  0  0  0  0
    3.7307    1.4583   -0.8382 H   0  0  0  0  0  0  0  0  0  0  0  0
    2.8831    2.8115   -0.1898 H   0  0  0  0  0  0  0  0  0  0  0  0
    2.4437    3.9093    2.2659 H   0  0  0  0  0  0  0  0  0  0  0  0
    2.6568   -0.2842    2.1929 H   0  0  0  0  0  0  0  0  0  0  0  0
    0.7792    3.4476   -0.9620 H   0  0  0  0  0  0  0  0  0  0  0  0
   -0.8717    3.2118   -0.4956 H   0  0  0  0  0  0  0  0  0  0  0  0
    0.4217    3.2046    1.9269 H   0  0  0  0  0  0  0  0  0  0  0  0
   -0.8050    5.4388    1.0343 H   0  0  0  0  0  0  0  0  0  0  0  0
    2.1130    5.8305    0.0798 H   0  0  0  0  0  0  0  0  0  0  0  0
    0.6031    6.0041   -0.8530 H   0  0  0  0  0  0  0  0  0  0  0  0
    0.2524    7.8226    2.6532 H   0  0  0  0  0  0  0  0  0  0  0  0
   -2.0494    1.9642    0.1023 H   0  0  0  0  0  0  0  0  0  0  0  0
  1  2  1  0  0  0  0
  1 23  1  0  0  0  0
  1 24  1  0  0  0  0
  1 25  1  0  0  0  0
  2  3  2  0  0  0  0
  2 21  1  0  0  0  0
  3  4  1  0  0  0  0
  4  5  2  0  0  0  0
  4 26  1  0  0  0  0
  5  6  1  0  0  0  0
  5 12  1  0  0  0  0
  6  7  1  0  0  0  0
  6 27  1  0  0  0  0
  6 28  1  0  0  0  0
  7  8  1  0  0  0  0
  8  9  1  0  0  0  0
  8 10  1  0  0  0  0
  8 11  2  0  0  0  0
  9 29  1  0  0  0  0
 10 30  1  0  0  0  0
 12 13  1  0  0  0  0
 12 21  2  0  0  0  0
 13 14  1  0  0  0  0
 13 31  1  0  0  0  0
 13 32  1  0  0  0  0
 14 33  1  0  0  0  0
 15 14  1  0  0  0  0
 15 16  1  0  0  0  0
 15 19  1  0  0  0  0
 15 34  1  6  0  0  0
 16 17  1  0  0  0  0
 16 35  1  0  0  0  0
 16 36  1  0  0  0  0
 17 18  1  0  0  0  0
 18 19  1  0  0  0  0
 18 37  1  0  0  0  0
 19 20  2  0  0  0  0
 21 22  1  0  0  0  0
 22 38  1  0  0  0  0
M  END
>  <DRUGBANK_ID>
DB02038

>  <SECONDARY_ACCESSION_NUMBERS>
EXPT01138; EXPT02870; DB03579

>  <COMMON_NAME>
D-[3-hydroxy-2-methyl-5-phosphonooxymethyl-pyridin-4-ylmethyl]-N,O-cycloserylamide

>  <SYNONYMS>
D-pyridoxyl-N,O-cycloserylamide-5-monophosphate

$$$$
