NTH
 OpenBabel10282417173D

 57 60  0  0  0  0  0  0  0  0999 V2000
   -1.8176    1.3211   -1.1048 C   0  0  0  0  0  0  0  0  0  0  0  0
   -2.4000    2.7224   -1.8912 C   0  0  0  0  0  0  0  0  0  0  0  0
   -1.1667    3.5684   -2.1030 C   0  0  0  0  0  0  0  0  0  0  0  0
   -0.4914    3.5628   -3.1096 O   0  0  0  0  0  0  0  0  0  0  0  0
   -0.6429    3.9375   -0.7781 C   0  0  0  0  0  0  0  0  0  0  0  0
   -0.1691    2.7922   -0.2566 C   0  0  0  0  0  0  0  0  0  0  0  0
    0.1925    2.5638    1.1886 C   0  0  0  0  0  0  0  0  0  0  0  0
    1.6591    2.0157    1.2150 C   0  0  0  0  0  0  0  0  0  0  0  0
    1.6011    0.4834    0.7683 C   0  0  2  0  0  0  0  0  0  0  0  0
    1.0059    0.7109   -0.7994 C   0  0  1  0  0  0  0  0  0  0  0  0
   -0.2767    1.5004   -1.0976 C   0  0  1  0  0  0  0  0  0  0  0  0
    0.9329   -0.5443   -1.5824 C   0  0  0  0  0  0  0  0  0  0  0  0
    2.3535   -0.9215   -1.6432 C   0  0  0  0  0  0  0  0  0  0  0  0
    2.8534   -1.1965   -0.2443 C   0  0  1  0  0  0  0  0  0  0  0  0
    3.0135   -0.6630    1.1276 C   0  0  1  0  0  0  0  0  0  0  0  0
    3.7539   -2.4875    1.1519 C   0  0  0  0  0  0  0  0  0  0  0  0
    4.1971   -2.8087   -0.2594 C   0  0  0  0  0  0  0  0  0  0  0  0
    4.4608   -1.3727   -0.5945 C   0  0  1  0  0  0  0  0  0  0  0  0
    5.9139   -1.0496   -0.1812 O   0  0  0  0  0  0  0  0  0  0  0  0
    1.5749   -2.1375    0.6563 C   0  0  0  0  0  0  0  0  0  0  0  0
    6.8353   -0.3664   -0.9762 C   0  0  0  0  0  0  0  0  0  0  0  0
    7.9641   -0.1054   -0.5912 O   0  0  0  0  0  0  0  0  0  0  0  0
    6.2751   -1.4093   -3.2332 C   0  0  0  0  0  0  0  0  0  0  0  0
    6.3870   -0.1455   -2.4019 C   0  0  0  0  0  0  0  0  0  0  0  0
    5.5877   -2.4920   -2.5150 C   0  0  0  0  0  0  0  0  0  0  0  0
    4.4886   -2.8198   -2.7806 O   0  0  0  0  0  0  0  0  0  0  0  0
    6.4519   -2.9316   -1.5122 O   0  0  0  0  0  0  0  0  0  0  0  0
    0.7904    0.0574    1.3589 H   0  0  0  0  0  0  0  0  0  0  0  0
    1.7678    1.3591   -1.3034 H   0  0  0  0  0  0  0  0  0  0  0  0
   -0.1684    1.5464   -2.1878 H   0  0  0  0  0  0  0  0  0  0  0  0
    3.7919    0.0606    1.4027 H   0  0  0  0  0  0  0  0  0  0  0  0
    4.5669   -0.5752    0.1090 H   0  0  0  0  0  0  0  0  0  0  0  0
   -2.6531    0.6069   -0.9874 H   0  0  0  0  0  0  0  0  0  0  0  0
   -1.7173    1.1198   -0.0284 H   0  0  0  0  0  0  0  0  0  0  0  0
   -3.0872    3.3995   -1.3506 H   0  0  0  0  0  0  0  0  0  0  0  0
   -2.7831    2.6418   -2.9254 H   0  0  0  0  0  0  0  0  0  0  0  0
   -1.0754    4.7405   -0.2010 H   0  0  0  0  0  0  0  0  0  0  0  0
    0.0341    3.4746    1.7779 H   0  0  0  0  0  0  0  0  0  0  0  0
   -0.4969    1.8316    1.6468 H   0  0  0  0  0  0  0  0  0  0  0  0
    2.1215    2.3150    2.1595 H   0  0  0  0  0  0  0  0  0  0  0  0
    2.2549    2.5494    0.4567 H   0  0  0  0  0  0  0  0  0  0  0  0
    0.5108   -0.5493   -2.5877 H   0  0  0  0  0  0  0  0  0  0  0  0
    0.2708   -1.2084   -1.0530 H   0  0  0  0  0  0  0  0  0  0  0  0
    3.0044   -0.1755   -2.1385 H   0  0  0  0  0  0  0  0  0  0  0  0
    2.3946   -1.7812   -2.3161 H   0  0  0  0  0  0  0  0  0  0  0  0
    4.6102   -2.8260    1.7499 H   0  0  0  0  0  0  0  0  0  0  0  0
    3.1174   -3.3967    1.2436 H   0  0  0  0  0  0  0  0  0  0  0  0
    4.8903   -3.6517   -0.3792 H   0  0  0  0  0  0  0  0  0  0  0  0
    3.3788   -3.2189   -0.9019 H   0  0  0  0  0  0  0  0  0  0  0  0
    1.6780   -2.0008    1.7882 H   0  0  0  0  0  0  0  0  0  0  0  0
    0.5675   -1.7738    0.5511 H   0  0  0  0  0  0  0  0  0  0  0  0
    1.5221   -3.2111    0.5164 H   0  0  0  0  0  0  0  0  0  0  0  0
    5.6896   -1.2550   -4.1412 H   0  0  0  0  0  0  0  0  0  0  0  0
    7.1995   -1.9498   -3.4404 H   0  0  0  0  0  0  0  0  0  0  0  0
    5.4529    0.4241   -2.3410 H   0  0  0  0  0  0  0  0  0  0  0  0
    7.1202    0.4868   -2.9093 H   0  0  0  0  0  0  0  0  0  0  0  0
    6.3292   -2.5368   -0.5958 H   0  0  0  0  0  0  0  0  0  0  0  0
  1  2  1  0  0  0  0
  1 11  1  0  0  0  0
  1 33  1  0  0  0  0
  1 34  1  0  0  0  0
  2  3  1  0  0  0  0
  2 35  1  0  0  0  0
  2 36  1  0  0  0  0
  3  5  1  0  0  0  0
  3  4  2  0  0  0  0
  5  6  2  0  0  0  0
  5 37  1  0  0  0  0
  6  7  1  0  0  0  0
  6 11  1  0  0  0  0
  7  8  1  0  0  0  0
  7 38  1  0  0  0  0
  7 39  1  0  0  0  0
  8  9  1  0  0  0  0
  8 40  1  0  0  0  0
  8 41  1  0  0  0  0
  9 10  1  0  0  0  0
  9 15  1  0  0  0  0
  9 28  1  6  0  0  0
 10 11  1  0  0  0  0
 10 12  1  0  0  0  0
 10 29  1  1  0  0  0
 11 30  1  6  0  0  0
 12 13  1  0  0  0  0
 12 42  1  0  0  0  0
 12 43  1  0  0  0  0
 13 14  1  0  0  0  0
 13 44  1  0  0  0  0
 13 45  1  0  0  0  0
 14 15  1  0  0  0  0
 14 18  1  0  0  0  0
 14 20  1  6  0  0  0
 15 16  1  0  0  0  0
 15 31  1  1  0  0  0
 16 17  1  0  0  0  0
 16 46  1  0  0  0  0
 16 47  1  0  0  0  0
 17 18  1  0  0  0  0
 17 48  1  0  0  0  0
 17 49  1  0  0  0  0
 18 19  1  0  0  0  0
 18 32  1  1  0  0  0
 19 21  1  0  0  0  0
 20 50  1  0  0  0  0
 20 51  1  0  0  0  0
 20 52  1  0  0  0  0
 21 22  2  0  0  0  0
 21 24  1  0  0  0  0
 23 24  1  0  0  0  0
 23 25  1  0  0  0  0
 23 53  1  0  0  0  0
 23 54  1  0  0  0  0
 24 55  1  0  0  0  0
 24 56  1  0  0  0  0
 25 26  2  0  0  0  0
 25 27  1  0  0  0  0
 27 57  1  0  0  0  0
M  END
>  <DRUGBANK_ID>
DB08308

>  <COMMON_NAME>
SUCCINIC ACID MONO-(13-METHYL-3-OXO-2,3,6,7,8,9,10,11,12,13,14,15,16,17-TETRADECAHYDRO-1H-CYCLOPENTA[A]PHENANTHREN-17-YL) ESTER

$$$$
