915
 OpenBabel10282417113D

 28 30  0  0  0  0  0  0  0  0999 V2000
    0.9258   -0.0071    0.0723 N   0  0  0  0  0  0  0  0  0  0  0  0
    0.4934   -1.3731    0.3711 C   0  0  3  0  0  0  0  0  0  0  0  0
    1.2262   -3.6733    1.1317 C   0  0  3  0  0  0  0  0  0  0  0  0
   -0.5785   -3.4433   -0.6134 C   0  0  3  0  0  0  0  0  0  0  0  0
   -1.0495   -2.8027    1.7786 C   0  0  3  0  0  0  0  0  0  0  0  0
    1.6896   -2.2355    0.8374 C   0  0  0  0  0  0  0  0  0  0  0  0
   -0.1097   -2.0048   -0.9036 C   0  0  0  0  0  0  0  0  0  0  0  0
   -0.5839   -1.3668    1.4797 C   0  0  0  0  0  0  0  0  0  0  0  0
    0.6226   -4.2821   -0.1455 C   0  0  0  0  0  0  0  0  0  0  0  0
    0.1557   -3.6421    2.2351 C   0  0  0  0  0  0  0  0  0  0  0  0
   -1.6405   -3.4180    0.4993 C   0  0  0  0  0  0  0  0  0  0  0  0
    0.6814    0.6210    0.8386 H   0  0  0  0  0  0  0  0  0  0  0  0
    1.9399    0.0347   -0.0054 H   0  0  0  0  0  0  0  0  0  0  0  0
    2.0799   -4.2763    1.4607 H   0  0  0  0  0  0  0  0  0  0  0  0
   -1.0059   -3.8832   -1.5215 H   0  0  0  0  0  0  0  0  0  0  0  0
   -1.8095   -2.7874    2.5676 H   0  0  0  0  0  0  0  0  0  0  0  0
    2.4715   -2.2564    0.0665 H   0  0  0  0  0  0  0  0  0  0  0  0
    2.1451   -1.8032    1.7379 H   0  0  0  0  0  0  0  0  0  0  0  0
   -0.9604   -1.4090   -1.2609 H   0  0  0  0  0  0  0  0  0  0  0  0
    0.6296   -2.0166   -1.7153 H   0  0  0  0  0  0  0  0  0  0  0  0
   -0.1861   -0.9133    2.3973 H   0  0  0  0  0  0  0  0  0  0  0  0
   -1.4448   -0.7573    1.1739 H   0  0  0  0  0  0  0  0  0  0  0  0
    0.3064   -5.3149    0.0456 H   0  0  0  0  0  0  0  0  0  0  0  0
    1.3814   -4.3228   -0.9366 H   0  0  0  0  0  0  0  0  0  0  0  0
   -0.1674   -4.6632    2.4718 H   0  0  0  0  0  0  0  0  0  0  0  0
    0.5790   -3.2206    3.1552 H   0  0  0  0  0  0  0  0  0  0  0  0
   -2.5124   -2.8382    0.1726 H   0  0  0  0  0  0  0  0  0  0  0  0
   -1.9936   -4.4364    0.7032 H   0  0  0  0  0  0  0  0  0  0  0  0
  1  2  1  0  0  0  0
  1 12  1  0  0  0  0
  1 13  1  0  0  0  0
  2  6  1  0  0  0  0
  2  7  1  0  0  0  0
  2  8  1  0  0  0  0
  3  6  1  0  0  0  0
  3  9  1  0  0  0  0
  3 10  1  0  0  0  0
  3 14  1  0  0  0  0
  4  7  1  0  0  0  0
  4  9  1  0  0  0  0
  4 11  1  0  0  0  0
  4 15  1  0  0  0  0
  5  8  1  0  0  0  0
  5 10  1  0  0  0  0
  5 11  1  0  0  0  0
  5 16  1  0  0  0  0
  6 17  1  0  0  0  0
  6 18  1  0  0  0  0
  7 19  1  0  0  0  0
  7 20  1  0  0  0  0
  8 21  1  0  0  0  0
  8 22  1  0  0  0  0
  9 23  1  0  0  0  0
  9 24  1  0  0  0  0
 10 25  1  0  0  0  0
 10 26  1  0  0  0  0
 11 27  1  0  0  0  0
 11 28  1  0  0  0  0
M  END
>  <DRUGBANK_ID>
DB00915

>  <SECONDARY_ACCESSION_NUMBERS>
APRD00787

>  <COMMON_NAME>
Amantadine

>  <CAS_NUMBER>
768-94-5

>  <UNII>
BF4C9Z1J53

>  <SYNONYMS>
1-adamantanamine; 1-adamantylamine; 1-aminoadamantane; Amantadina; Amantadine; Amantadinum; Amantidine; Aminoadamantane

$$$$
