1342
 OpenBabel10282417113D

 59 62  0  0  0  0  0  0  0  0999 V2000
   -0.2854   -1.2037    0.0347 N   0  0  0  0  0  0  0  0  0  0  0  0
   -0.4019    0.9753   -0.0307 N   0  0  0  0  0  0  0  0  0  0  0  0
    1.0059   -0.7880    0.0123 N   0  0  0  0  0  0  0  0  0  0  0  0
   -1.2988   -4.5368    3.2392 N   0  0  0  0  0  0  0  0  0  0  0  0
   -4.6037   -5.7597    1.7932 N   0  0  0  0  0  0  0  0  0  0  0  0
   -6.3846   -4.6551    2.6401 N   0  0  0  0  0  0  0  0  0  0  0  0
   -5.4847   -5.3569    0.8673 N   0  0  0  0  0  0  0  0  0  0  0  0
   -6.5538   -4.6956    1.3248 N   0  0  0  0  0  0  0  0  0  0  0  0
   -2.6492   -0.0528   -0.1219 C   0  0  0  0  0  0  0  0  0  0  0  0
   -1.1446   -0.1167   -0.0323 C   0  0  0  0  0  0  0  0  0  0  0  0
   -3.3026    0.5902    1.1303 C   0  0  0  0  0  0  0  0  0  0  0  0
    2.0642    1.4511   -0.0308 C   0  0  0  0  0  0  0  0  0  0  0  0
   -0.4898   -2.6534    0.0267 C   0  0  0  0  0  0  0  0  0  0  0  0
    0.8870    0.5376   -0.0166 C   0  0  0  0  0  0  0  0  0  0  0  0
    2.1009    2.4090   -1.2293 C   0  0  0  0  0  0  0  0  0  0  0  0
   -3.0181    2.0950    1.2383 C   0  0  0  0  0  0  0  0  0  0  0  0
   -1.1803   -3.1655    1.2522 C   0  0  0  0  0  0  0  0  0  0  0  0
    0.9480    3.4173   -1.2657 C   0  0  0  0  0  0  0  0  0  0  0  0
   -3.5460    2.8596    0.0325 C   0  0  0  0  0  0  0  0  0  0  0  0
   -2.4740   -2.7662    1.5271 C   0  0  0  0  0  0  0  0  0  0  0  0
   -0.6344   -4.0758    2.1483 C   0  0  0  0  0  0  0  0  0  0  0  0
    0.9240    4.3139   -0.0372 C   0  0  0  0  0  0  0  0  0  0  0  0
   -2.5493   -4.0581    3.4716 C   0  0  0  0  0  0  0  0  0  0  0  0
   -3.1359   -3.1041    2.6709 C   0  0  0  0  0  0  0  0  0  0  0  0
   -3.3435   -4.6882    4.5160 C   0  0  0  0  0  0  0  0  0  0  0  0
   -4.5964   -5.3021    4.2436 C   0  0  0  0  0  0  0  0  0  0  0  0
   -2.8645   -4.6621    5.8354 C   0  0  0  0  0  0  0  0  0  0  0  0
   -5.3052   -5.9092    5.2840 C   0  0  0  0  0  0  0  0  0  0  0  0
   -3.5585   -5.3101    6.8499 C   0  0  0  0  0  0  0  0  0  0  0  0
   -5.1915   -5.2933    2.9074 C   0  0  0  0  0  0  0  0  0  0  0  0
   -4.7751   -5.9323    6.5761 C   0  0  0  0  0  0  0  0  0  0  0  0
   -5.3422   -5.5243   -0.1241 H   0  0  0  0  0  0  0  0  0  0  0  0
   -2.9197    0.5257   -1.0071 H   0  0  0  0  0  0  0  0  0  0  0  0
   -3.1240   -0.9930   -0.3862 H   0  0  0  0  0  0  0  0  0  0  0  0
   -4.3937    0.4524    1.0975 H   0  0  0  0  0  0  0  0  0  0  0  0
   -2.9691    0.0994    2.0548 H   0  0  0  0  0  0  0  0  0  0  0  0
    2.1040    2.0108    0.9100 H   0  0  0  0  0  0  0  0  0  0  0  0
    2.9840    0.8536   -0.0487 H   0  0  0  0  0  0  0  0  0  0  0  0
   -1.0337   -2.9114   -0.8876 H   0  0  0  0  0  0  0  0  0  0  0  0
    0.5067   -3.1118   -0.0525 H   0  0  0  0  0  0  0  0  0  0  0  0
    3.0479    2.9652   -1.2083 H   0  0  0  0  0  0  0  0  0  0  0  0
    2.1040    1.8312   -2.1623 H   0  0  0  0  0  0  0  0  0  0  0  0
   -3.4747    2.5003    2.1495 H   0  0  0  0  0  0  0  0  0  0  0  0
   -1.9433    2.2661    1.3450 H   0  0  0  0  0  0  0  0  0  0  0  0
    1.0375    4.0378   -2.1645 H   0  0  0  0  0  0  0  0  0  0  0  0
   -0.0106    2.9005   -1.3625 H   0  0  0  0  0  0  0  0  0  0  0  0
   -4.6367    2.7858   -0.0179 H   0  0  0  0  0  0  0  0  0  0  0  0
   -3.2623    3.9122    0.0891 H   0  0  0  0  0  0  0  0  0  0  0  0
   -3.1408    2.4826   -0.9094 H   0  0  0  0  0  0  0  0  0  0  0  0
   -3.0580   -2.2132    0.8278 H   0  0  0  0  0  0  0  0  0  0  0  0
    0.3507   -4.5114    2.0054 H   0  0  0  0  0  0  0  0  0  0  0  0
    1.8341    4.9199    0.0111 H   0  0  0  0  0  0  0  0  0  0  0  0
    0.0607    4.9833   -0.0706 H   0  0  0  0  0  0  0  0  0  0  0  0
    0.8484    3.7391    0.8901 H   0  0  0  0  0  0  0  0  0  0  0  0
   -4.1365   -2.7275    2.8445 H   0  0  0  0  0  0  0  0  0  0  0  0
   -1.9402   -4.1315    6.0603 H   0  0  0  0  0  0  0  0  0  0  0  0
   -6.2609   -6.3903    5.0871 H   0  0  0  0  0  0  0  0  0  0  0  0
   -3.1378   -5.3394    7.8515 H   0  0  0  0  0  0  0  0  0  0  0  0
   -5.3130   -6.4381    7.3719 H   0  0  0  0  0  0  0  0  0  0  0  0
  1  3  1  0  0  0  0
  1 10  1  0  0  0  0
  1 13  1  0  0  0  0
  2 10  2  0  0  0  0
  2 14  1  0  0  0  0
  3 14  2  0  0  0  0
  4 21  1  0  0  0  0
  4 23  2  0  0  0  0
  5  7  1  0  0  0  0
  5 30  2  0  0  0  0
  6  8  2  0  0  0  0
  6 30  1  0  0  0  0
  7  8  1  0  0  0  0
  7 32  1  0  0  0  0
  9 10  1  0  0  0  0
  9 11  1  0  0  0  0
  9 33  1  0  0  0  0
  9 34  1  0  0  0  0
 11 16  1  0  0  0  0
 11 35  1  0  0  0  0
 11 36  1  0  0  0  0
 12 14  1  0  0  0  0
 12 15  1  0  0  0  0
 12 37  1  0  0  0  0
 12 38  1  0  0  0  0
 13 17  1  0  0  0  0
 13 39  1  0  0  0  0
 13 40  1  0  0  0  0
 15 18  1  0  0  0  0
 15 41  1  0  0  0  0
 15 42  1  0  0  0  0
 16 19  1  0  0  0  0
 16 43  1  0  0  0  0
 16 44  1  0  0  0  0
 17 20  1  0  0  0  0
 17 21  2  0  0  0  0
 18 22  1  0  0  0  0
 18 45  1  0  0  0  0
 18 46  1  0  0  0  0
 19 47  1  0  0  0  0
 19 48  1  0  0  0  0
 19 49  1  0  0  0  0
 20 24  2  0  0  0  0
 20 50  1  0  0  0  0
 21 51  1  0  0  0  0
 22 52  1  0  0  0  0
 22 53  1  0  0  0  0
 22 54  1  0  0  0  0
 23 24  1  0  0  0  0
 23 25  1  0  0  0  0
 24 55  1  0  0  0  0
 25 26  1  0  0  0  0
 25 27  2  0  0  0  0
 26 28  2  0  0  0  0
 26 30  1  0  0  0  0
 27 29  1  0  0  0  0
 27 56  1  0  0  0  0
 28 31  1  0  0  0  0
 28 57  1  0  0  0  0
 29 31  2  0  0  0  0
 29 58  1  0  0  0  0
 31 59  1  0  0  0  0
M  END
>  <DRUGBANK_ID>
DB01342

>  <COMMON_NAME>
Forasartan

>  <CAS_NUMBER>
145216-43-9

>  <UNII>
065F7WPT0B

>  <SYNONYMS>
forasartÃ¡n; Forasartan

$$$$
