777
 OpenBabel10282417113D

 48 50  0  0  1  0  0  0  0  0999 V2000
    0.0173    1.6987    0.1864 S   0  0  0  0  0  0  0  0  0  0  0  0
    4.5218   -3.2123   -0.5376 O   0  0  0  0  0  0  0  0  0  0  0  0
    0.0420   -1.3315    0.6142 N   0  0  0  0  0  0  0  0  0  0  0  0
   -2.2528   -1.2352    3.1547 N   0  0  0  0  0  0  0  0  0  0  0  0
   -0.7965   -1.5824    3.2131 C   0  0  3  0  0  0  0  0  0  0  0  0
   -0.0993   -2.1900    1.8687 C   0  0  0  0  0  0  0  0  0  0  0  0
    1.3050   -0.7602    0.3725 C   0  0  0  0  0  0  0  0  0  0  0  0
   -1.0424   -0.8929   -0.2003 C   0  0  0  0  0  0  0  0  0  0  0  0
   -0.6570   -2.6334    4.3373 C   0  0  0  0  0  0  0  0  0  0  0  0
    1.4191    0.6186    0.0930 C   0  0  0  0  0  0  0  0  0  0  0  0
   -1.2030    0.5223   -0.4212 C   0  0  0  0  0  0  0  0  0  0  0  0
    2.3927   -1.5981    0.1297 C   0  0  0  0  0  0  0  0  0  0  0  0
   -2.1484   -1.7284   -0.4608 C   0  0  0  0  0  0  0  0  0  0  0  0
   -2.9065   -0.7165    4.3365 C   0  0  0  0  0  0  0  0  0  0  0  0
   -2.4283   -0.1417    2.2441 C   0  0  0  0  0  0  0  0  0  0  0  0
    3.5668   -1.0673   -0.3983 C   0  0  0  0  0  0  0  0  0  0  0  0
    2.5985    1.1555   -0.3900 C   0  0  0  0  0  0  0  0  0  0  0  0
   -2.4487    1.0660   -0.7673 C   0  0  0  0  0  0  0  0  0  0  0  0
    3.6726    0.3129   -0.6181 C   0  0  0  0  0  0  0  0  0  0  0  0
   -3.3929   -1.1618   -0.7970 C   0  0  0  0  0  0  0  0  0  0  0  0
   -3.5420    0.2229   -0.9461 C   0  0  0  0  0  0  0  0  0  0  0  0
    4.6475   -2.0247   -0.7725 C   0  0  0  0  0  0  0  0  0  0  0  0
    5.9023   -1.4726   -1.4163 C   0  0  0  0  0  0  0  0  0  0  0  0
    5.6552   -0.8874   -2.7978 C   0  0  0  0  0  0  0  0  0  0  0  0
   -0.2162   -0.6965    3.5082 H   0  0  0  0  0  0  0  0  0  0  0  0
   -0.5726   -3.1422    1.6066 H   0  0  0  0  0  0  0  0  0  0  0  0
    0.9171   -2.4682    2.1981 H   0  0  0  0  0  0  0  0  0  0  0  0
    0.3877   -2.8756    4.5499 H   0  0  0  0  0  0  0  0  0  0  0  0
   -1.0762   -2.2730    5.2832 H   0  0  0  0  0  0  0  0  0  0  0  0
   -1.1847   -3.5580    4.0744 H   0  0  0  0  0  0  0  0  0  0  0  0
    2.2769   -2.6745    0.2426 H   0  0  0  0  0  0  0  0  0  0  0  0
   -2.1219   -2.7689   -0.1453 H   0  0  0  0  0  0  0  0  0  0  0  0
   -2.4187    0.2029    4.6751 H   0  0  0  0  0  0  0  0  0  0  0  0
   -3.9413   -0.4652    4.0538 H   0  0  0  0  0  0  0  0  0  0  0  0
   -2.9880   -1.4477    5.1321 H   0  0  0  0  0  0  0  0  0  0  0  0
   -1.7775    0.7219    2.3984 H   0  0  0  0  0  0  0  0  0  0  0  0
   -2.1356   -0.6704    1.4148 H   0  0  0  0  0  0  0  0  0  0  0  0
   -3.4492    0.1340    1.9781 H   0  0  0  0  0  0  0  0  0  0  0  0
    2.6618    2.2085   -0.6519 H   0  0  0  0  0  0  0  0  0  0  0  0
   -2.6023    2.1447   -0.7475 H   0  0  0  0  0  0  0  0  0  0  0  0
    4.5675    0.7761   -1.0124 H   0  0  0  0  0  0  0  0  0  0  0  0
   -4.2820   -1.7893   -0.7910 H   0  0  0  0  0  0  0  0  0  0  0  0
   -4.5287    0.6540   -1.1000 H   0  0  0  0  0  0  0  0  0  0  0  0
    6.3497   -0.7457   -0.7302 H   0  0  0  0  0  0  0  0  0  0  0  0
    6.6142   -2.3007   -1.5031 H   0  0  0  0  0  0  0  0  0  0  0  0
    4.9529   -0.0513   -2.8062 H   0  0  0  0  0  0  0  0  0  0  0  0
    6.5912   -0.5100   -3.2155 H   0  0  0  0  0  0  0  0  0  0  0  0
    5.2304   -1.6389   -3.4682 H   0  0  0  0  0  0  0  0  0  0  0  0
  1 10  1  0  0  0  0
  1 11  1  0  0  0  0
  2 22  2  0  0  0  0
  3  6  1  0  0  0  0
  3  7  1  0  0  0  0
  3  8  1  0  0  0  0
  4  5  1  0  0  0  0
  4 14  1  0  0  0  0
  4 15  1  0  0  0  0
  5  6  1  0  0  0  0
  5  9  1  0  0  0  0
  5 25  1  0  0  0  0
  6 26  1  0  0  0  0
  6 27  1  0  0  0  0
  7 10  2  0  0  0  0
  7 12  1  0  0  0  0
  8 11  1  0  0  0  0
  8 13  2  0  0  0  0
  9 28  1  0  0  0  0
  9 29  1  0  0  0  0
  9 30  1  0  0  0  0
 10 17  1  0  0  0  0
 11 18  2  0  0  0  0
 12 16  2  0  0  0  0
 12 31  1  0  0  0  0
 13 20  1  0  0  0  0
 13 32  1  0  0  0  0
 14 33  1  0  0  0  0
 14 34  1  0  0  0  0
 14 35  1  0  0  0  0
 15 36  1  0  0  0  0
 15 37  1  0  0  0  0
 15 38  1  0  0  0  0
 16 19  1  0  0  0  0
 16 22  1  0  0  0  0
 17 19  2  0  0  0  0
 17 39  1  0  0  0  0
 18 21  1  0  0  0  0
 18 40  1  0  0  0  0
 19 41  1  0  0  0  0
 20 21  2  0  0  0  0
 20 42  1  0  0  0  0
 21 43  1  0  0  0  0
 22 23  1  0  0  0  0
 23 24  1  0  0  0  0
 23 44  1  0  0  0  0
 23 45  1  0  0  0  0
 24 46  1  0  0  0  0
 24 47  1  0  0  0  0
 24 48  1  0  0  0  0
M  END
>  <DRUGBANK_ID>
DB00777

>  <SECONDARY_ACCESSION_NUMBERS>
APRD00339

>  <COMMON_NAME>
Propiomazine

>  <CAS_NUMBER>
362-29-8

>  <UNII>
242Z0PM79Y

>  <SYNONYMS>
10-(2-Dimethylaminopropyl)-2-propionylphenothiazine; 2-Propionyl-10-(2-(dimethylamino)propyl)phenothiazine; 3-Propionyl-10-dimethylaminoisopropylphenothiazine; Propiomazin; Propiomazina; Propiomazine; Propiomazinum

$$$$
