
 OpenBabel10282417113D

  3  0  0  0  0  0  0  0  0  0999 V2000
    0.9495    0.0486    0.0522 Ca  0  2  0  0  0  0  0  0  0  0  0  0
   -0.6934   -0.5564   -1.7702 Cl  0  5  0  0  0  0  0  0  0  0  0  0
    2.7349    0.6406    1.7473 Cl  0  5  0  0  0  0  0  0  0  0  0  0
M  CHG  3   1   2   2  -1   3  -1
M  END
>  <DRUGBANK_ID>
DB01164

>  <SECONDARY_ACCESSION_NUMBERS>
APRD00840

>  <COMMON_NAME>
Calcium chloride

>  <CAS_NUMBER>
10043-52-4

>  <UNII>
OFM21057LP

>  <SYNONYMS>
Calcio cloruro; Calcium chloride anhydrous; Calcium chloride, anhydrous; calcium(2+) chloride

$$$$
