BIE
 OpenBabel10282417163D

 28 29  0  0  0  0  0  0  0  0999 V2000
    1.1029   -0.3851    0.2182 O   0  0  0  0  0  0  0  0  0  0  0  0
    2.2808   -0.1283   -0.0240 C   0  0  0  0  0  0  0  0  0  0  0  0
    2.9767   -0.9040   -1.0807 C   0  0  0  0  0  0  0  0  0  0  0  0
    4.1445   -1.6013   -0.6838 C   0  0  0  0  0  0  0  0  0  0  0  0
    4.8824   -2.3521   -1.5990 C   0  0  0  0  0  0  0  0  0  0  0  0
    2.5128   -1.0328   -2.4040 C   0  0  0  0  0  0  0  0  0  0  0  0
    1.2945   -0.3605   -2.8864 N   0  3  0  0  0  0  0  0  0  0  0  0
    0.7039    0.4512   -2.1744 O   0  0  0  0  0  0  0  0  0  0  0  0
    0.9544   -0.6038   -4.0582 O   0  5  0  0  0  0  0  0  0  0  0  0
    3.2757   -1.7902   -3.3227 C   0  0  0  0  0  0  0  0  0  0  0  0
    2.9813   -1.9592   -4.6570 O   0  0  0  0  0  0  0  0  0  0  0  0
    4.4520   -2.4246   -2.9111 C   0  0  0  0  0  0  0  0  0  0  0  0
    5.2187   -3.1274   -3.7982 O   0  0  0  0  0  0  0  0  0  0  0  0
    3.0319    0.7882    0.8746 C   0  0  0  0  0  0  0  0  0  0  0  0
    2.5680    0.8944    2.1907 C   0  0  0  0  0  0  0  0  0  0  0  0
    4.2242    1.4203    0.5006 C   0  0  0  0  0  0  0  0  0  0  0  0
    5.0115    2.0302    1.4811 C   0  0  0  0  0  0  0  0  0  0  0  0
    4.5655    2.0914    2.8033 C   0  0  0  0  0  0  0  0  0  0  0  0
    3.3350    1.5409    3.1546 C   0  0  0  0  0  0  0  0  0  0  0  0
    4.4935   -1.5739    0.3489 H   0  0  0  0  0  0  0  0  0  0  0  0
    5.7880   -2.8732   -1.2967 H   0  0  0  0  0  0  0  0  0  0  0  0
    2.1322   -1.5068   -4.8625 H   0  0  0  0  0  0  0  0  0  0  0  0
    4.7700   -3.0537   -4.6644 H   0  0  0  0  0  0  0  0  0  0  0  0
    1.6214    0.4367    2.4726 H   0  0  0  0  0  0  0  0  0  0  0  0
    4.5660    1.4289   -0.5310 H   0  0  0  0  0  0  0  0  0  0  0  0
    5.9865    2.4385    1.2238 H   0  0  0  0  0  0  0  0  0  0  0  0
    5.1754    2.5737    3.5631 H   0  0  0  0  0  0  0  0  0  0  0  0
    2.9833    1.5814    4.1821 H   0  0  0  0  0  0  0  0  0  0  0  0
  1  2  2  0  0  0  0
  2  3  1  0  0  0  0
  2 14  1  0  0  0  0
  3  4  2  0  0  0  0
  3  6  1  0  0  0  0
  4  5  1  0  0  0  0
  4 20  1  0  0  0  0
  5 12  2  0  0  0  0
  5 21  1  0  0  0  0
  6  7  1  0  0  0  0
  6 10  2  0  0  0  0
  7  8  2  0  0  0  0
  7  9  1  0  0  0  0
 10 11  1  0  0  0  0
 10 12  1  0  0  0  0
 11 22  1  0  0  0  0
 12 13  1  0  0  0  0
 13 23  1  0  0  0  0
 14 15  2  0  0  0  0
 14 16  1  0  0  0  0
 15 19  1  0  0  0  0
 15 24  1  0  0  0  0
 16 17  2  0  0  0  0
 16 25  1  0  0  0  0
 17 18  1  0  0  0  0
 17 26  1  0  0  0  0
 18 19  2  0  0  0  0
 18 27  1  0  0  0  0
 19 28  1  0  0  0  0
M  CHG  2   7   1   9  -1
M  END
>  <DRUGBANK_ID>
DB07462

>  <COMMON_NAME>
(3,4-DIHYDROXY-2-NITROPHENYL)(PHENYL)METHANONE

$$$$
