
 OpenBabel10282417193D

 68 72  0  0  0  0  0  0  0  0999 V2000
    0.8865   -0.0727   -0.0248 C   0  0  0  0  0  0  0  0  0  0  0  0
    0.4599   -1.5249    0.0855 C   0  0  0  0  0  0  0  0  0  0  0  0
    1.0350   -2.3700    1.5639 S   0  0  0  0  0  0  0  0  0  0  0  0
    0.6354   -1.5260    2.7066 O   0  0  0  0  0  0  0  0  0  0  0  0
    0.5968   -3.7275    1.4939 O   0  0  0  0  0  0  0  0  0  0  0  0
    2.8567   -2.3483    1.4959 C   0  0  0  0  0  0  0  0  0  0  0  0
    3.4324   -1.0870    1.6506 C   0  0  0  0  0  0  0  0  0  0  0  0
    4.8005   -0.9850    1.6144 C   0  0  0  0  0  0  0  0  0  0  0  0
    5.5996   -2.1272    1.3902 C   0  0  0  0  0  0  0  0  0  0  0  0
    5.1698   -3.5060    1.3639 C   0  0  0  0  0  0  0  0  0  0  0  0
    3.6934   -3.5529    1.3788 C   0  0  0  0  0  0  0  0  0  0  0  0
    6.4218   -4.7984    1.5424 C   0  0  0  0  0  0  0  0  0  0  0  0
    7.2133   -5.4216    2.7425 C   0  0  0  0  0  0  0  0  0  0  0  0
    7.7467   -6.4942    3.3667 C   0  0  0  0  0  0  0  0  0  0  0  0
    7.2833   -7.5397    2.5499 C   0  0  0  0  0  0  0  0  0  0  0  0
    6.5219   -7.2357    1.1746 C   0  0  0  0  0  0  0  0  0  0  0  0
    6.3261   -5.9104    0.7205 C   0  0  0  0  0  0  0  0  0  0  0  0
    5.8464   -5.7997   -0.4777 C   0  0  0  0  0  0  0  0  0  0  0  0
    5.9708   -4.6638   -1.2696 C   0  0  0  0  0  0  0  0  0  0  0  0
    5.4503   -4.6692   -2.4768 C   0  0  0  0  0  0  0  0  0  0  0  0
    4.5122   -5.6914   -2.6890 C   0  0  0  0  0  0  0  0  0  0  0  0
    4.2407   -6.8509   -1.8500 N   0  0  0  0  0  0  0  0  0  0  0  0
    5.0772   -6.8960   -0.7675 C   0  0  0  0  0  0  0  0  0  0  0  0
    5.5194   -7.8311    0.2743 N   0  0  0  0  0  0  0  0  0  0  0  0
    6.1120   -3.6733   -3.3795 C   0  0  0  0  0  0  0  0  0  0  0  0
    7.5684   -8.8537    3.1887 C   0  0  0  0  0  0  0  0  0  0  0  0
    7.9065   -6.2343    5.1198 C   0  0  0  0  0  0  0  0  0  0  0  0
    8.0526   -7.1953    5.9125 O   0  0  0  0  0  0  0  0  0  0  0  0
    7.7845   -4.9215    5.8550 N   0  0  0  0  0  0  0  0  0  0  0  0
    6.8079   -3.6560    5.8558 C   0  0  0  0  0  0  0  0  0  0  0  0
    5.3718   -4.1141    6.1209 C   0  0  0  0  0  0  0  0  0  0  0  0
    4.9865   -5.1410    5.1635 C   0  0  0  0  0  0  0  0  0  0  0  0
    5.0455   -4.5388    3.8391 N   0  0  0  0  0  0  0  0  0  0  0  0
    6.4868   -3.4416    3.6212 C   0  0  0  0  0  0  0  0  0  0  0  0
    6.8952   -2.6315    4.7361 C   0  0  0  0  0  0  0  0  0  0  0  0
    4.6433   -5.9536    3.2056 C   0  0  0  0  0  0  0  0  0  0  0  0
    0.5760    0.5034    0.8542 H   0  0  0  0  0  0  0  0  0  0  0  0
    0.4643    0.4037   -0.9136 H   0  0  0  0  0  0  0  0  0  0  0  0
    1.9682    0.0101   -0.1321 H   0  0  0  0  0  0  0  0  0  0  0  0
   -0.6378   -1.5662    0.0967 H   0  0  0  0  0  0  0  0  0  0  0  0
    0.8079   -2.1014   -0.7749 H   0  0  0  0  0  0  0  0  0  0  0  0
    2.8524   -0.1729    1.7812 H   0  0  0  0  0  0  0  0  0  0  0  0
    5.2836   -0.0225    1.7832 H   0  0  0  0  0  0  0  0  0  0  0  0
    6.6582   -1.8856    1.3967 H   0  0  0  0  0  0  0  0  0  0  0  0
    3.1359   -4.4904    1.3669 H   0  0  0  0  0  0  0  0  0  0  0  0
    6.8968   -5.1798    3.7405 H   0  0  0  0  0  0  0  0  0  0  0  0
    6.6753   -3.9227   -0.8880 H   0  0  0  0  0  0  0  0  0  0  0  0
    3.9493   -5.6414   -3.6168 H   0  0  0  0  0  0  0  0  0  0  0  0
    5.1260   -8.7546    0.4446 H   0  0  0  0  0  0  0  0  0  0  0  0
    6.6315   -4.1984   -4.1821 H   0  0  0  0  0  0  0  0  0  0  0  0
    5.4469   -2.8934   -3.7330 H   0  0  0  0  0  0  0  0  0  0  0  0
    6.9304   -3.1482   -2.8376 H   0  0  0  0  0  0  0  0  0  0  0  0
    6.6683   -9.4467    3.2994 H   0  0  0  0  0  0  0  0  0  0  0  0
    8.3623   -9.2803    2.5841 H   0  0  0  0  0  0  0  0  0  0  0  0
    7.9968   -8.7359    4.1968 H   0  0  0  0  0  0  0  0  0  0  0  0
    7.8978   -5.1268    6.8495 H   0  0  0  0  0  0  0  0  0  0  0  0
    7.1015   -3.0357    6.6997 H   0  0  0  0  0  0  0  0  0  0  0  0
    4.6287   -3.3220    6.0015 H   0  0  0  0  0  0  0  0  0  0  0  0
    5.2927   -4.5931    7.0900 H   0  0  0  0  0  0  0  0  0  0  0  0
    3.9860   -5.5802    5.3076 H   0  0  0  0  0  0  0  0  0  0  0  0
    5.6290   -6.0257    5.2857 H   0  0  0  0  0  0  0  0  0  0  0  0
    7.5853   -3.7897    3.6296 H   0  0  0  0  0  0  0  0  0  0  0  0
    6.8503   -3.1030    2.6462 H   0  0  0  0  0  0  0  0  0  0  0  0
    6.2389   -1.7729    4.6735 H   0  0  0  0  0  0  0  0  0  0  0  0
    7.9393   -2.2769    4.5615 H   0  0  0  0  0  0  0  0  0  0  0  0
    5.1460   -6.2195    2.3568 H   0  0  0  0  0  0  0  0  0  0  0  0
    4.9871   -6.8505    3.7694 H   0  0  0  0  0  0  0  0  0  0  0  0
    3.6370   -6.1952    2.8282 H   0  0  0  0  0  0  0  0  0  0  0  0
  1  2  1  0  0  0  0
  1 37  1  0  0  0  0
  1 38  1  0  0  0  0
  1 39  1  0  0  0  0
  2  3  1  0  0  0  0
  2 40  1  0  0  0  0
  2 41  1  0  0  0  0
  3  4  2  0  0  0  0
  3  5  2  0  0  0  0
  3  6  1  0  0  0  0
  6  7  2  0  0  0  0
  6 11  1  0  0  0  0
  7  8  1  0  0  0  0
  7 42  1  0  0  0  0
  8  9  2  0  0  0  0
  8 43  1  0  0  0  0
  9 10  1  0  0  0  0
  9 44  1  0  0  0  0
 10 11  2  0  0  0  0
 10 12  1  0  0  0  0
 11 45  1  0  0  0  0
 12 13  2  0  0  0  0
 12 17  1  0  0  0  0
 13 14  1  0  0  0  0
 13 46  1  0  0  0  0
 14 15  2  0  0  0  0
 14 27  1  0  0  0  0
 15 16  1  0  0  0  0
 15 26  1  0  0  0  0
 16 17  2  0  0  0  0
 16 24  1  0  0  0  0
 17 18  1  0  0  0  0
 18 19  1  0  0  0  0
 18 23  2  0  0  0  0
 19 20  2  0  0  0  0
 19 47  1  0  0  0  0
 20 21  1  0  0  0  0
 20 25  1  0  0  0  0
 21 22  2  0  0  0  0
 21 48  1  0  0  0  0
 22 23  1  0  0  0  0
 23 24  1  0  0  0  0
 24 49  1  0  0  0  0
 25 50  1  0  0  0  0
 25 51  1  0  0  0  0
 25 52  1  0  0  0  0
 26 53  1  0  0  0  0
 26 54  1  0  0  0  0
 26 55  1  0  0  0  0
 27 28  2  0  0  0  0
 27 29  1  0  0  0  0
 29 30  1  0  0  0  0
 29 56  1  0  0  0  0
 30 31  1  0  0  0  0
 30 35  1  0  0  0  0
 30 57  1  0  0  0  0
 31 32  1  0  0  0  0
 31 58  1  0  0  0  0
 31 59  1  0  0  0  0
 32 33  1  0  0  0  0
 32 60  1  0  0  0  0
 32 61  1  0  0  0  0
 33 34  1  0  0  0  0
 33 36  1  0  0  0  0
 34 35  1  0  0  0  0
 34 62  1  0  0  0  0
 34 63  1  0  0  0  0
 35 64  1  0  0  0  0
 35 65  1  0  0  0  0
 36 66  1  0  0  0  0
 36 67  1  0  0  0  0
 36 68  1  0  0  0  0
M  END
>  <DRUGBANK_ID>
DB12756

>  <COMMON_NAME>
TAK-901

>  <CAS_NUMBER>
934541-31-8

>  <UNII>
DM9UIR23R7

$$$$
