
 OpenBabel10282417193D

 73 77  0  0  1  0  0  0  0  0999 V2000
    1.1501   -0.0528    0.0118 C   0  0  0  0  0  0  0  0  0  0  0  0
    0.7797    1.3223   -0.0130 O   0  0  0  0  0  0  0  0  0  0  0  0
    1.0772    2.1018    1.0739 C   0  0  0  0  0  0  0  0  0  0  0  0
    1.7171    1.6922    2.0468 O   0  0  0  0  0  0  0  0  0  0  0  0
    0.4880    3.5512    0.9211 C   0  0  1  0  0  0  0  0  0  0  0  0
    1.0914    4.3341   -0.2580 C   0  0  0  0  0  0  0  0  0  0  0  0
    0.9123    5.7335   -0.3362 C   0  0  0  0  0  0  0  0  0  0  0  0
    1.1685    6.4342   -1.5082 C   0  0  0  0  0  0  0  0  0  0  0  0
    1.8211    5.7936   -2.5479 C   0  0  0  0  0  0  0  0  0  0  0  0
    2.1703    4.4540   -2.4248 C   0  0  0  0  0  0  0  0  0  0  0  0
    1.7450    3.7157   -1.3255 C   0  0  0  0  0  0  0  0  0  0  0  0
   -1.0305    3.5448    0.9578 N   0  0  0  0  0  0  0  0  0  0  0  0
   -1.6217    4.7807    0.4209 C   0  0  0  0  0  0  0  0  0  0  0  0
   -3.1214    4.8592    0.4413 C   0  0  0  0  0  0  0  0  0  0  0  0
   -3.6883    3.6534   -0.2672 C   0  0  3  0  0  0  0  0  0  0  0  0
   -3.0695    2.3736    0.2997 C   0  0  0  0  0  0  0  0  0  0  0  0
   -1.5769    2.3972    0.2428 C   0  0  0  0  0  0  0  0  0  0  0  0
   -5.1761    3.6724   -0.1385 C   0  0  0  0  0  0  0  0  0  0  0  0
   -5.9603    4.7319   -0.6128 C   0  0  0  0  0  0  0  0  0  0  0  0
   -7.3522    4.6767   -0.4911 C   0  0  0  0  0  0  0  0  0  0  0  0
   -7.9406    3.5075   -0.0165 C   0  0  0  0  0  0  0  0  0  0  0  0
   -7.1314    2.4122    0.1667 C   0  0  0  0  0  0  0  0  0  0  0  0
   -5.7960    2.5552    0.3690 C   0  0  0  0  0  0  0  0  0  0  0  0
   -9.3001    3.4408    0.3213 N   0  0  0  0  0  0  0  0  0  0  0  0
  -10.0002    2.4713    1.0396 C   0  0  0  0  0  0  0  0  0  0  0  0
  -11.2155    2.6072    1.1828 O   0  0  0  0  0  0  0  0  0  0  0  0
   -9.3459    1.2684    1.6601 C   0  0  0  0  0  0  0  0  0  0  0  0
   -8.2260    1.4142    2.5102 C   0  0  0  0  0  0  0  0  0  0  0  0
   -7.4534    0.3031    2.8729 C   0  0  0  0  0  0  0  0  0  0  0  0
   -7.9122   -0.9745    2.5884 C   0  0  0  0  0  0  0  0  0  0  0  0
   -9.1041   -1.1335    1.8816 C   0  0  0  0  0  0  0  0  0  0  0  0
   -9.7802   -0.0272    1.3164 C   0  0  0  0  0  0  0  0  0  0  0  0
  -10.8240   -0.2939    0.3165 C   0  0  0  0  0  0  0  0  0  0  0  0
  -10.6435    0.0402   -1.0392 C   0  0  0  0  0  0  0  0  0  0  0  0
  -11.6245   -0.2613   -1.9874 C   0  0  0  0  0  0  0  0  0  0  0  0
  -12.7961   -0.9232   -1.6002 C   0  0  0  0  0  0  0  0  0  0  0  0
  -12.9498   -1.3102   -0.2616 C   0  0  0  0  0  0  0  0  0  0  0  0
  -11.9975   -0.9556    0.6914 C   0  0  0  0  0  0  0  0  0  0  0  0
  -13.9219   -1.1595   -2.5719 C   0  0  0  0  0  0  0  0  0  0  0  0
  -14.2227   -2.4788   -2.7195 F   0  0  0  0  0  0  0  0  0  0  0  0
  -15.0762   -0.5558   -2.1714 F   0  0  0  0  0  0  0  0  0  0  0  0
  -13.6727   -0.6878   -3.8252 F   0  0  0  0  0  0  0  0  0  0  0  0
    0.7329   -0.5203   -0.8877 H   0  0  0  0  0  0  0  0  0  0  0  0
    0.7280   -0.5582    0.8841 H   0  0  0  0  0  0  0  0  0  0  0  0
    2.2365   -0.1340   -0.0251 H   0  0  0  0  0  0  0  0  0  0  0  0
    0.8017    4.0774    1.8345 H   0  0  0  0  0  0  0  0  0  0  0  0
    0.4531    6.2865    0.4792 H   0  0  0  0  0  0  0  0  0  0  0  0
    0.8552    7.4708   -1.5963 H   0  0  0  0  0  0  0  0  0  0  0  0
    2.0708    6.3395   -3.4501 H   0  0  0  0  0  0  0  0  0  0  0  0
    2.7569    3.9633   -3.1939 H   0  0  0  0  0  0  0  0  0  0  0  0
    1.9407    2.6507   -1.3509 H   0  0  0  0  0  0  0  0  0  0  0  0
   -1.3594    4.8934   -0.6394 H   0  0  0  0  0  0  0  0  0  0  0  0
   -1.3013    5.6433    1.0052 H   0  0  0  0  0  0  0  0  0  0  0  0
   -3.4175    5.7809   -0.0778 H   0  0  0  0  0  0  0  0  0  0  0  0
   -3.4817    4.9370    1.4724 H   0  0  0  0  0  0  0  0  0  0  0  0
   -3.4499    3.6886   -1.3405 H   0  0  0  0  0  0  0  0  0  0  0  0
   -3.3464    2.2347    1.3550 H   0  0  0  0  0  0  0  0  0  0  0  0
   -3.4109    1.4899   -0.2570 H   0  0  0  0  0  0  0  0  0  0  0  0
   -1.2960    1.4684    0.7480 H   0  0  0  0  0  0  0  0  0  0  0  0
   -1.2497    2.3819   -0.8030 H   0  0  0  0  0  0  0  0  0  0  0  0
   -5.4854    5.6063   -1.0511 H   0  0  0  0  0  0  0  0  0  0  0  0
   -7.9402    5.5363   -0.7950 H   0  0  0  0  0  0  0  0  0  0  0  0
   -7.5001    1.4076    0.2588 H   0  0  0  0  0  0  0  0  0  0  0  0
   -5.2819    1.7292    0.8477 H   0  0  0  0  0  0  0  0  0  0  0  0
   -9.8747    4.2442    0.0948 H   0  0  0  0  0  0  0  0  0  0  0  0
   -7.8362    2.4071    2.7296 H   0  0  0  0  0  0  0  0  0  0  0  0
   -6.4803    0.4412    3.3408 H   0  0  0  0  0  0  0  0  0  0  0  0
   -7.3385   -1.8469    2.8939 H   0  0  0  0  0  0  0  0  0  0  0  0
   -9.4812   -2.1427    1.7207 H   0  0  0  0  0  0  0  0  0  0  0  0
   -9.7424    0.5559   -1.3684 H   0  0  0  0  0  0  0  0  0  0  0  0
  -11.4752    0.0335   -3.0255 H   0  0  0  0  0  0  0  0  0  0  0  0
  -13.8293   -1.8697    0.0505 H   0  0  0  0  0  0  0  0  0  0  0  0
  -12.1794   -1.1798    1.7403 H   0  0  0  0  0  0  0  0  0  0  0  0
  1  2  1  0  0  0  0
  1 43  1  0  0  0  0
  1 44  1  0  0  0  0
  1 45  1  0  0  0  0
  2  3  1  0  0  0  0
  3  4  2  0  0  0  0
  5  3  1  0  0  0  0
  5  6  1  0  0  0  0
  5 12  1  0  0  0  0
  5 46  1  1  0  0  0
  6  7  2  0  0  0  0
  6 11  1  0  0  0  0
  7  8  1  0  0  0  0
  7 47  1  0  0  0  0
  8  9  2  0  0  0  0
  8 48  1  0  0  0  0
  9 10  1  0  0  0  0
  9 49  1  0  0  0  0
 10 11  2  0  0  0  0
 10 50  1  0  0  0  0
 11 51  1  0  0  0  0
 12 13  1  0  0  0  0
 12 17  1  0  0  0  0
 13 14  1  0  0  0  0
 13 52  1  0  0  0  0
 13 53  1  0  0  0  0
 14 15  1  0  0  0  0
 14 54  1  0  0  0  0
 14 55  1  0  0  0  0
 15 16  1  0  0  0  0
 15 18  1  0  0  0  0
 15 56  1  0  0  0  0
 16 17  1  0  0  0  0
 16 57  1  0  0  0  0
 16 58  1  0  0  0  0
 17 59  1  0  0  0  0
 17 60  1  0  0  0  0
 18 19  2  0  0  0  0
 18 23  1  0  0  0  0
 19 20  1  0  0  0  0
 19 61  1  0  0  0  0
 20 21  2  0  0  0  0
 20 62  1  0  0  0  0
 21 22  1  0  0  0  0
 21 24  1  0  0  0  0
 22 23  2  0  0  0  0
 22 63  1  0  0  0  0
 23 64  1  0  0  0  0
 24 25  1  0  0  0  0
 24 65  1  0  0  0  0
 25 26  2  0  0  0  0
 25 27  1  0  0  0  0
 27 28  2  0  0  0  0
 27 32  1  0  0  0  0
 28 29  1  0  0  0  0
 28 66  1  0  0  0  0
 29 30  2  0  0  0  0
 29 67  1  0  0  0  0
 30 31  1  0  0  0  0
 30 68  1  0  0  0  0
 31 32  2  0  0  0  0
 31 69  1  0  0  0  0
 32 33  1  0  0  0  0
 33 34  2  0  0  0  0
 33 38  1  0  0  0  0
 34 35  1  0  0  0  0
 34 70  1  0  0  0  0
 35 36  2  0  0  0  0
 35 71  1  0  0  0  0
 36 37  1  0  0  0  0
 36 39  1  0  0  0  0
 37 38  2  0  0  0  0
 37 72  1  0  0  0  0
 38 73  1  0  0  0  0
 39 40  1  0  0  0  0
 39 41  1  0  0  0  0
 39 42  1  0  0  0  0
M  END
>  <DRUGBANK_ID>
DB12414

>  <COMMON_NAME>
Usistapide

>  <CAS_NUMBER>
403989-79-7

>  <UNII>
73YSY3U094

>  <SYNONYMS>
Usistapide

$$$$
