
 OpenBabel10282417203D

 38 40  0  0  0  0  0  0  0  0999 V2000
    0.7773   -0.2720    0.4085 C   0  0  0  0  0  0  0  0  0  0  0  0
    0.4647    1.1651    0.6047 C   0  0  0  0  0  0  0  0  0  0  0  0
   -0.7200    1.4610    1.2777 C   0  0  0  0  0  0  0  0  0  0  0  0
   -1.0547    2.7704    1.5926 C   0  0  0  0  0  0  0  0  0  0  0  0
   -2.2358    3.0217    2.2993 C   0  0  0  0  0  0  0  0  0  0  0  0
   -2.6959    4.3169    2.4427 C   0  0  0  0  0  0  0  0  0  0  0  0
   -1.9241    5.3699    1.9697 C   0  0  0  0  0  0  0  0  0  0  0  0
   -0.6380    5.1379    1.4754 C   0  0  0  0  0  0  0  0  0  0  0  0
   -0.2099    3.8317    1.1852 C   0  0  0  0  0  0  0  0  0  0  0  0
    0.9797    3.5385    0.4679 C   0  0  0  0  0  0  0  0  0  0  0  0
    1.3045    2.2073    0.1425 C   0  0  0  0  0  0  0  0  0  0  0  0
    2.5393    1.9747   -0.5796 O   0  0  0  0  0  0  0  0  0  0  0  0
    2.8191    0.8006   -1.2929 C   0  0  0  0  0  0  0  0  0  0  0  0
    2.0779   -0.1166   -1.5648 O   0  0  0  0  0  0  0  0  0  0  0  0
    4.1316    0.6631   -1.9001 C   0  0  0  0  0  0  0  0  0  0  0  0
    5.2781    1.3064   -1.4855 C   0  0  0  0  0  0  0  0  0  0  0  0
    6.3976    1.1897   -2.3086 C   0  0  0  0  0  0  0  0  0  0  0  0
    6.3932    0.3584   -3.4466 C   0  0  0  0  0  0  0  0  0  0  0  0
    5.3073   -0.4687   -3.6873 C   0  0  0  0  0  0  0  0  0  0  0  0
    4.1591   -0.2637   -2.9629 C   0  0  0  0  0  0  0  0  0  0  0  0
    7.5474    0.1925   -4.2105 N   0  0  0  0  0  0  0  0  0  0  0  0
    1.7760    4.5963    0.0950 O   0  0  0  0  0  0  0  0  0  0  0  0
   -1.6004    0.4684    1.6437 O   0  0  0  0  0  0  0  0  0  0  0  0
    0.3826   -0.5369   -0.5792 H   0  0  0  0  0  0  0  0  0  0  0  0
    0.3366   -0.9880    1.0929 H   0  0  0  0  0  0  0  0  0  0  0  0
    1.8450   -0.3917    0.5984 H   0  0  0  0  0  0  0  0  0  0  0  0
   -2.8246    2.1955    2.6951 H   0  0  0  0  0  0  0  0  0  0  0  0
   -3.6561    4.4909    2.9150 H   0  0  0  0  0  0  0  0  0  0  0  0
   -2.3271    6.3767    1.9740 H   0  0  0  0  0  0  0  0  0  0  0  0
    0.0125    5.9851    1.2730 H   0  0  0  0  0  0  0  0  0  0  0  0
    5.3128    1.8730   -0.5595 H   0  0  0  0  0  0  0  0  0  0  0  0
    7.2832    1.7690   -2.0681 H   0  0  0  0  0  0  0  0  0  0  0  0
    5.3070   -1.2378   -4.4530 H   0  0  0  0  0  0  0  0  0  0  0  0
    3.2731   -0.8421   -3.2300 H   0  0  0  0  0  0  0  0  0  0  0  0
    8.1513    1.0065   -4.2246 H   0  0  0  0  0  0  0  0  0  0  0  0
    7.3721   -0.1891   -5.1369 H   0  0  0  0  0  0  0  0  0  0  0  0
    2.5248    4.2568   -0.4201 H   0  0  0  0  0  0  0  0  0  0  0  0
   -1.3627   -0.3766    1.2358 H   0  0  0  0  0  0  0  0  0  0  0  0
  1  2  1  0  0  0  0
  1 24  1  0  0  0  0
  1 25  1  0  0  0  0
  1 26  1  0  0  0  0
  2  3  1  0  0  0  0
  2 11  2  0  0  0  0
  3  4  2  0  0  0  0
  3 23  1  0  0  0  0
  4  5  1  0  0  0  0
  4  9  1  0  0  0  0
  5  6  2  0  0  0  0
  5 27  1  0  0  0  0
  6  7  1  0  0  0  0
  6 28  1  0  0  0  0
  7  8  2  0  0  0  0
  7 29  1  0  0  0  0
  8  9  1  0  0  0  0
  8 30  1  0  0  0  0
  9 10  2  0  0  0  0
 10 11  1  0  0  0  0
 10 22  1  0  0  0  0
 11 12  1  0  0  0  0
 12 13  1  0  0  0  0
 13 14  2  0  0  0  0
 13 15  1  0  0  0  0
 15 16  2  0  0  0  0
 15 20  1  0  0  0  0
 16 17  1  0  0  0  0
 16 31  1  0  0  0  0
 17 18  2  0  0  0  0
 17 32  1  0  0  0  0
 18 19  1  0  0  0  0
 18 21  1  0  0  0  0
 19 20  2  0  0  0  0
 19 33  1  0  0  0  0
 20 34  1  0  0  0  0
 21 35  1  0  0  0  0
 21 36  1  0  0  0  0
 22 37  1  0  0  0  0
 23 38  1  0  0  0  0
M  END
>  <DRUGBANK_ID>
DB13039

>  <COMMON_NAME>
Aminaphthone

>  <CAS_NUMBER>
14748-94-8

>  <UNII>
03JLX11PE9

>  <SYNONYMS>
Aminaftone; Aminaphtone

$$$$
