
 OpenBabel10282417153D

 75 78  0  0  1  0  0  0  0  0999 V2000
   -0.6812   -0.6116    1.0405 O   0  0  0  0  0  0  0  0  0  0  0  0
   -2.4917    0.2379    0.2070 O   0  0  0  0  0  0  0  0  0  0  0  0
    0.5497   -1.2604   -5.8409 O   0  0  0  0  0  0  0  0  0  0  0  0
   -4.6512   -0.6954    1.4213 O   0  0  0  0  0  0  0  0  0  0  0  0
    1.7579    0.7703   -6.2340 O   0  0  0  0  0  0  0  0  0  0  0  0
    1.0862   -4.2107   -5.9950 O   0  0  0  0  0  0  0  0  0  0  0  0
   -3.1790   -1.7371   -1.7166 N   0  0  0  0  0  0  0  0  0  0  0  0
   -2.4528   -1.6775    1.7960 N   0  0  0  0  0  0  0  0  0  0  0  0
   -1.0907   -0.6848   -1.2783 C   0  0  2  0  0  0  0  0  0  0  0  0
   -1.8688    0.3765   -2.0225 C   0  0  2  0  0  0  0  0  0  0  0  0
   -1.7475   -2.0513   -1.6341 C   0  0  2  0  0  0  0  0  0  0  0  0
   -3.2459   -0.3263   -2.2095 C   0  0  0  0  0  0  0  0  0  0  0  0
   -0.9613    0.6800   -3.1571 C   0  0  0  0  0  0  0  0  0  0  0  0
   -1.0609   -2.8997   -2.7019 C   0  0  0  0  0  0  0  0  0  0  0  0
   -3.9929   -2.0727   -0.4507 C   0  0  0  0  0  0  0  0  0  0  0  0
   -1.4849   -0.3033    0.0465 C   0  0  0  0  0  0  0  0  0  0  0  0
   -0.7089   -0.3303   -4.0495 C   0  0  0  0  0  0  0  0  0  0  0  0
   -3.7552   -1.4500    1.0091 C   0  0  0  0  0  0  0  0  0  0  0  0
   -0.2134    1.8373   -3.2583 C   0  0  0  0  0  0  0  0  0  0  0  0
    0.3060   -3.2399   -2.5960 C   0  0  0  0  0  0  0  0  0  0  0  0
   -1.7318   -3.2596   -3.8665 C   0  0  0  0  0  0  0  0  0  0  0  0
    0.2670   -0.2768   -4.9727 C   0  0  0  0  0  0  0  0  0  0  0  0
    0.7149    1.9511   -4.3068 C   0  0  0  0  0  0  0  0  0  0  0  0
    0.9504    0.8696   -5.1445 C   0  0  0  0  0  0  0  0  0  0  0  0
    1.0312   -3.7473   -3.6393 C   0  0  0  0  0  0  0  0  0  0  0  0
   -0.9860   -3.7350   -4.9469 C   0  0  0  0  0  0  0  0  0  0  0  0
   -1.3289   -2.8940    1.1397 C   0  0  0  0  0  0  0  0  0  0  0  0
   -2.0084   -0.2595    2.8489 C   0  0  0  0  0  0  0  0  0  0  0  0
    0.3994   -3.9420   -4.8445 C   0  0  0  0  0  0  0  0  0  0  0  0
    0.3287   -2.4453    0.4226 C   0  0  0  0  0  0  0  0  0  0  0  0
   -1.7723    1.3303    2.1713 C   0  0  0  0  0  0  0  0  0  0  0  0
    1.4371   -0.5685   -6.7074 C   0  0  0  0  0  0  0  0  0  0  0  0
    1.3553   -1.3368    1.0718 C   0  0  0  0  0  0  0  0  0  0  0  0
   -3.0899    1.9918    1.7261 C   0  0  0  0  0  0  0  0  0  0  0  0
    1.6401   -2.0510    2.3283 C   0  0  0  0  0  0  0  0  0  0  0  0
   -4.0288    1.7088    2.8506 C   0  0  0  0  0  0  0  0  0  0  0  0
    2.4997   -4.3285   -5.8269 C   0  0  0  0  0  0  0  0  0  0  0  0
   -1.0553   -1.2285    1.7196 H   0  0  0  0  0  0  0  0  0  0  0  0
   -0.0185   -0.4560   -1.3170 H   0  0  0  0  0  0  0  0  0  0  0  0
   -1.9952    1.3212   -1.4643 H   0  0  0  0  0  0  0  0  0  0  0  0
   -1.7429   -2.8844   -0.9814 H   0  0  0  0  0  0  0  0  0  0  0  0
   -4.0412    0.2343   -1.7040 H   0  0  0  0  0  0  0  0  0  0  0  0
   -3.4680   -0.3302   -3.2749 H   0  0  0  0  0  0  0  0  0  0  0  0
   -5.0246   -1.7782   -0.7198 H   0  0  0  0  0  0  0  0  0  0  0  0
   -4.0534   -3.1534   -0.3072 H   0  0  0  0  0  0  0  0  0  0  0  0
   -1.3198   -1.1823   -4.0245 H   0  0  0  0  0  0  0  0  0  0  0  0
   -0.3825    2.6397   -2.5440 H   0  0  0  0  0  0  0  0  0  0  0  0
    0.9714   -3.0413   -1.7775 H   0  0  0  0  0  0  0  0  0  0  0  0
   -2.7473   -2.8896   -4.0222 H   0  0  0  0  0  0  0  0  0  0  0  0
    1.2165    2.8905   -4.4665 H   0  0  0  0  0  0  0  0  0  0  0  0
    2.0991   -3.8458   -3.4711 H   0  0  0  0  0  0  0  0  0  0  0  0
   -1.4702   -3.7845   -5.9147 H   0  0  0  0  0  0  0  0  0  0  0  0
   -1.0758   -3.5797    1.9309 H   0  0  0  0  0  0  0  0  0  0  0  0
   -1.9831   -3.5186    0.5041 H   0  0  0  0  0  0  0  0  0  0  0  0
   -2.5936   -0.2821    3.7636 H   0  0  0  0  0  0  0  0  0  0  0  0
   -0.9876   -0.4336    3.2416 H   0  0  0  0  0  0  0  0  0  0  0  0
    0.8899   -3.3649    0.2348 H   0  0  0  0  0  0  0  0  0  0  0  0
    0.2894   -2.0352   -0.5612 H   0  0  0  0  0  0  0  0  0  0  0  0
   -1.2603    1.9587    2.9124 H   0  0  0  0  0  0  0  0  0  0  0  0
   -1.0137    1.4354    1.3609 H   0  0  0  0  0  0  0  0  0  0  0  0
    2.3557   -1.1564   -6.8057 H   0  0  0  0  0  0  0  0  0  0  0  0
    0.9393   -0.5144   -7.6815 H   0  0  0  0  0  0  0  0  0  0  0  0
    2.1798   -1.0351    0.4043 H   0  0  0  0  0  0  0  0  0  0  0  0
    1.0568   -0.2872    1.3198 H   0  0  0  0  0  0  0  0  0  0  0  0
   -2.9378    3.0361    1.4364 H   0  0  0  0  0  0  0  0  0  0  0  0
   -3.6029    1.6245    0.8291 H   0  0  0  0  0  0  0  0  0  0  0  0
    2.2334   -2.9064    2.0207 H   0  0  0  0  0  0  0  0  0  0  0  0
    2.1134   -1.4129    3.0597 H   0  0  0  0  0  0  0  0  0  0  0  0
    0.7009   -2.4231    2.7571 H   0  0  0  0  0  0  0  0  0  0  0  0
   -3.6399    2.1958    3.7387 H   0  0  0  0  0  0  0  0  0  0  0  0
   -5.0436    1.9620    2.5797 H   0  0  0  0  0  0  0  0  0  0  0  0
   -4.0849    0.6453    3.0837 H   0  0  0  0  0  0  0  0  0  0  0  0
    2.9633   -3.3894   -5.4884 H   0  0  0  0  0  0  0  0  0  0  0  0
    2.7375   -5.1426   -5.1315 H   0  0  0  0  0  0  0  0  0  0  0  0
    2.9248   -4.5775   -6.7972 H   0  0  0  0  0  0  0  0  0  0  0  0
  1 16  1  0  0  0  0
  1 38  1  0  0  0  0
  2 16  2  0  0  0  0
  3 22  1  0  0  0  0
  3 32  1  0  0  0  0
  4 18  2  0  0  0  0
  5 24  1  0  0  0  0
  5 32  1  0  0  0  0
  6 29  1  0  0  0  0
  6 37  1  0  0  0  0
  7 11  1  0  0  0  0
  7 12  1  0  0  0  0
  7 15  1  0  0  0  0
  8 18  1  0  0  0  0
  8 27  1  0  0  0  0
  8 28  1  0  0  0  0
  9 10  1  0  0  0  0
  9 11  1  0  0  0  0
  9 39  1  6  0  0  0
  9 16  1  0  0  0  0
 10 12  1  0  0  0  0
 10 40  1  1  0  0  0
 10 13  1  0  0  0  0
 11 14  1  0  0  0  0
 11 41  1  1  0  0  0
 12 42  1  0  0  0  0
 12 43  1  0  0  0  0
 13 17  2  0  0  0  0
 13 19  1  0  0  0  0
 14 20  2  0  0  0  0
 14 21  1  0  0  0  0
 15 18  1  0  0  0  0
 15 44  1  0  0  0  0
 15 45  1  0  0  0  0
 17 22  1  0  0  0  0
 17 46  1  0  0  0  0
 19 23  2  0  0  0  0
 19 47  1  0  0  0  0
 20 25  1  0  0  0  0
 20 48  1  0  0  0  0
 21 26  2  0  0  0  0
 21 49  1  0  0  0  0
 22 24  2  0  0  0  0
 23 24  1  0  0  0  0
 23 50  1  0  0  0  0
 25 29  2  0  0  0  0
 25 51  1  0  0  0  0
 26 29  1  0  0  0  0
 26 52  1  0  0  0  0
 27 30  1  0  0  0  0
 27 53  1  0  0  0  0
 27 54  1  0  0  0  0
 28 31  1  0  0  0  0
 28 55  1  0  0  0  0
 28 56  1  0  0  0  0
 30 33  1  0  0  0  0
 30 57  1  0  0  0  0
 30 58  1  0  0  0  0
 31 34  1  0  0  0  0
 31 59  1  0  0  0  0
 31 60  1  0  0  0  0
 32 61  1  0  0  0  0
 32 62  1  0  0  0  0
 33 35  1  0  0  0  0
 33 63  1  0  0  0  0
 33 64  1  0  0  0  0
 34 36  1  0  0  0  0
 34 65  1  0  0  0  0
 34 66  1  0  0  0  0
 35 67  1  0  0  0  0
 35 68  1  0  0  0  0
 35 69  1  0  0  0  0
 36 70  1  0  0  0  0
 36 71  1  0  0  0  0
 36 72  1  0  0  0  0
 37 73  1  0  0  0  0
 37 74  1  0  0  0  0
 37 75  1  0  0  0  0
M  END
>  <DRUGBANK_ID>
DB06199

>  <COMMON_NAME>
Atrasentan

>  <CAS_NUMBER>
173937-91-2

>  <UNII>
V6D7VK2215

>  <SYNONYMS>
Atrasentan

$$$$
