
 OpenBabel10282417133D

 33 34  0  0  1  0  0  0  0  0999 V2000
    0.8063    0.0853    0.0849 O   0  0  0  0  0  0  0  0  0  0  0  0
    0.4267   -0.8184    1.1299 C   0  0  0  0  0  0  0  0  0  0  0  0
    1.0422   -2.2182    0.9275 C   0  0  1  0  0  0  0  0  0  0  0  0
    0.8633   -3.1577    1.9747 O   0  0  0  0  0  0  0  0  0  0  0  0
    0.7237   -4.4624    1.4095 C   0  0  2  0  0  0  0  0  0  0  0  0
    1.0855   -4.3493   -0.0759 C   0  0  0  0  0  0  0  0  0  0  0  0
    0.6977   -2.9276   -0.4206 C   0  0  2  0  0  0  0  0  0  0  0  0
    1.4422   -2.4908   -1.5803 O   0  0  0  0  0  0  0  0  0  0  0  0
    2.6800   -1.4410   -0.9813 P   0  0  0  0  0  0  0  0  0  0  0  0
    3.6523   -2.2367   -2.0279 O   0  0  0  0  0  0  0  0  0  0  0  0
    2.0822   -0.3849   -2.0805 O   0  0  0  0  0  0  0  0  0  0  0  0
    3.7878   -0.5015   -0.4453 O   0  0  0  0  0  0  0  0  0  0  0  0
   -0.6305   -4.9670    1.6464 N   0  0  0  0  0  0  0  0  0  0  0  0
   -0.9509   -6.2244    1.1586 C   0  0  0  0  0  0  0  0  0  0  0  0
   -2.2080   -6.6731    1.1453 C   0  0  0  0  0  0  0  0  0  0  0  0
   -3.2458   -5.8663    1.7965 C   0  0  0  0  0  0  0  0  0  0  0  0
   -4.4347   -6.1666    1.7099 O   0  0  0  0  0  0  0  0  0  0  0  0
   -2.7997   -4.7941    2.4975 N   0  0  0  0  0  0  0  0  0  0  0  0
   -1.5842   -4.1949    2.3156 C   0  0  0  0  0  0  0  0  0  0  0  0
   -1.4584   -3.0416    2.7165 O   0  0  0  0  0  0  0  0  0  0  0  0
    1.6929    0.4708    0.2772 H   0  0  0  0  0  0  0  0  0  0  0  0
    0.7572   -0.3911    2.0813 H   0  0  0  0  0  0  0  0  0  0  0  0
   -0.6639   -0.8510    1.1349 H   0  0  0  0  0  0  0  0  0  0  0  0
    2.1151   -2.0584    1.0278 H   0  0  0  0  0  0  0  0  0  0  0  0
    1.4273   -5.1291    1.9240 H   0  0  0  0  0  0  0  0  0  0  0  0
    0.6083   -5.0884   -0.7267 H   0  0  0  0  0  0  0  0  0  0  0  0
    2.1683   -4.4770   -0.2138 H   0  0  0  0  0  0  0  0  0  0  0  0
   -0.3718   -2.8668   -0.6521 H   0  0  0  0  0  0  0  0  0  0  0  0
    4.2514   -2.8608   -1.5936 H   0  0  0  0  0  0  0  0  0  0  0  0
    1.1369   -0.2299   -1.8806 H   0  0  0  0  0  0  0  0  0  0  0  0
   -0.1490   -6.8224    0.7318 H   0  0  0  0  0  0  0  0  0  0  0  0
   -2.5090   -7.6036    0.6854 H   0  0  0  0  0  0  0  0  0  0  0  0
   -3.4894   -4.2183    2.9540 H   0  0  0  0  0  0  0  0  0  0  0  0
  1  2  1  0  0  0  0
  1 21  1  0  0  0  0
  2 22  1  0  0  0  0
  2 23  1  0  0  0  0
  3  2  1  0  0  0  0
  3  4  1  0  0  0  0
  3  7  1  0  0  0  0
  3 24  1  6  0  0  0
  4  5  1  0  0  0  0
  5  6  1  0  0  0  0
  5 13  1  0  0  0  0
  5 25  1  1  0  0  0
  6  7  1  0  0  0  0
  6 26  1  0  0  0  0
  6 27  1  0  0  0  0
  7 28  1  6  0  0  0
  7  8  1  0  0  0  0
  8  9  1  0  0  0  0
  9 10  1  0  0  0  0
  9 11  1  0  0  0  0
  9 12  2  0  0  0  0
 10 29  1  0  0  0  0
 11 30  1  0  0  0  0
 13 14  1  0  0  0  0
 13 19  1  0  0  0  0
 14 15  2  0  0  0  0
 14 31  1  0  0  0  0
 15 16  1  0  0  0  0
 15 32  1  0  0  0  0
 16 17  2  0  0  0  0
 16 18  1  0  0  0  0
 18 19  1  0  0  0  0
 18 33  1  0  0  0  0
 19 20  2  0  0  0  0
M  END
>  <DRUGBANK_ID>
DB03448

>  <SECONDARY_ACCESSION_NUMBERS>
EXPT03183

>  <COMMON_NAME>
2'-Deoxyuridine 3'-Monophosphate

$$$$
