W71
 OpenBabel10282417173D

 51 53  0  0  0  0  0  0  0  0999 V2000
   -1.2343    0.4694   -0.1670 O   0  0  0  0  0  0  0  0  0  0  0  0
    0.0492    0.9797   -0.0879 N   0  0  0  0  0  0  0  0  0  0  0  0
    0.8459   -0.0931   -0.0296 C   0  0  0  0  0  0  0  0  0  0  0  0
    2.3080    0.0474    0.0043 C   0  0  0  0  0  0  0  0  0  0  0  0
    0.1157   -1.2920   -0.0225 C   0  0  0  0  0  0  0  0  0  0  0  0
   -1.1837   -0.8869   -0.0703 C   0  0  0  0  0  0  0  0  0  0  0  0
   -2.4444   -1.6371    0.0348 C   0  0  0  0  0  0  0  0  0  0  0  0
   -3.1441   -1.2939    1.3573 C   0  0  0  0  0  0  0  0  0  0  0  0
   -3.6085    0.1742    1.4135 C   0  0  0  0  0  0  0  0  0  0  0  0
   -4.4394    0.4738    0.1929 C   0  0  0  0  0  0  0  0  0  0  0  0
   -5.5956   -0.5033    0.2295 C   0  0  0  0  0  0  0  0  0  0  0  0
   -6.7154   -0.0902    1.1771 C   0  0  0  0  0  0  0  0  0  0  0  0
   -7.1783    1.3640    1.0301 C   0  0  0  0  0  0  0  0  0  0  0  0
   -8.0259    1.6814   -0.1035 O   0  0  0  0  0  0  0  0  0  0  0  0
   -7.5668    1.4632   -1.3735 C   0  0  0  0  0  0  0  0  0  0  0  0
   -7.3372    0.1901   -1.8706 C   0  0  0  0  0  0  0  0  0  0  0  0
   -6.5438   -0.0078   -3.0146 C   0  0  0  0  0  0  0  0  0  0  0  0
   -6.4126    1.0279   -3.9094 C   0  0  0  0  0  0  0  0  0  0  0  0
   -7.0179    2.2477   -3.5983 C   0  0  0  0  0  0  0  0  0  0  0  0
   -7.5027    2.4943   -2.2950 C   0  0  0  0  0  0  0  0  0  0  0  0
   -5.6661    0.8645   -5.1743 C   0  0  0  0  0  0  0  0  0  0  0  0
   -4.8585    1.7203   -5.6741 N   0  0  0  0  0  0  0  0  0  0  0  0
   -4.5193    1.1524   -6.9871 C   0  0  0  0  0  0  0  0  0  0  0  0
   -5.0465   -0.2644   -6.9544 C   0  0  0  0  0  0  0  0  0  0  0  0
   -5.9279   -0.2968   -5.8361 O   0  0  0  0  0  0  0  0  0  0  0  0
    2.6524    0.5912   -0.8788 H   0  0  0  0  0  0  0  0  0  0  0  0
    2.6287    0.5744    0.9064 H   0  0  0  0  0  0  0  0  0  0  0  0
    2.7742   -0.9430   -0.0004 H   0  0  0  0  0  0  0  0  0  0  0  0
    0.4593   -2.3104    0.0347 H   0  0  0  0  0  0  0  0  0  0  0  0
   -3.0615   -1.4718   -0.8573 H   0  0  0  0  0  0  0  0  0  0  0  0
   -2.2352   -2.7115    0.0217 H   0  0  0  0  0  0  0  0  0  0  0  0
   -3.9835   -1.9866    1.4826 H   0  0  0  0  0  0  0  0  0  0  0  0
   -2.5158   -1.5065    2.2221 H   0  0  0  0  0  0  0  0  0  0  0  0
   -4.2012    0.3534    2.3156 H   0  0  0  0  0  0  0  0  0  0  0  0
   -2.7755    0.8753    1.4738 H   0  0  0  0  0  0  0  0  0  0  0  0
   -4.7450    1.5213    0.1325 H   0  0  0  0  0  0  0  0  0  0  0  0
   -3.8847    0.3538   -0.7467 H   0  0  0  0  0  0  0  0  0  0  0  0
   -5.7967   -0.6347   -0.8034 H   0  0  0  0  0  0  0  0  0  0  0  0
   -5.3842   -1.5565    0.4127 H   0  0  0  0  0  0  0  0  0  0  0  0
   -7.5672   -0.7688    1.0703 H   0  0  0  0  0  0  0  0  0  0  0  0
   -6.3459   -0.2477    2.2030 H   0  0  0  0  0  0  0  0  0  0  0  0
   -7.7850    1.5752    1.9233 H   0  0  0  0  0  0  0  0  0  0  0  0
   -6.3521    2.0804    1.1251 H   0  0  0  0  0  0  0  0  0  0  0  0
   -7.6121   -0.6706   -1.2677 H   0  0  0  0  0  0  0  0  0  0  0  0
   -6.0126   -0.9490   -3.1578 H   0  0  0  0  0  0  0  0  0  0  0  0
   -7.1163    3.0044   -4.3685 H   0  0  0  0  0  0  0  0  0  0  0  0
   -7.8643    3.4819   -2.0301 H   0  0  0  0  0  0  0  0  0  0  0  0
   -3.4440    1.1801   -7.1871 H   0  0  0  0  0  0  0  0  0  0  0  0
   -5.0234    1.7438   -7.7583 H   0  0  0  0  0  0  0  0  0  0  0  0
   -5.5788   -0.5191   -7.8784 H   0  0  0  0  0  0  0  0  0  0  0  0
   -4.2481   -0.9991   -6.8029 H   0  0  0  0  0  0  0  0  0  0  0  0
  1  2  1  0  0  0  0
  1  6  1  0  0  0  0
  2  3  2  0  0  0  0
  3  4  1  0  0  0  0
  3  5  1  0  0  0  0
  4 26  1  0  0  0  0
  4 27  1  0  0  0  0
  4 28  1  0  0  0  0
  5  6  2  0  0  0  0
  5 29  1  0  0  0  0
  6  7  1  0  0  0  0
  7  8  1  0  0  0  0
  7 30  1  0  0  0  0
  7 31  1  0  0  0  0
  8  9  1  0  0  0  0
  8 32  1  0  0  0  0
  8 33  1  0  0  0  0
  9 10  1  0  0  0  0
  9 34  1  0  0  0  0
  9 35  1  0  0  0  0
 10 11  1  0  0  0  0
 10 36  1  0  0  0  0
 10 37  1  0  0  0  0
 11 12  1  0  0  0  0
 11 38  1  0  0  0  0
 11 39  1  0  0  0  0
 12 13  1  0  0  0  0
 12 40  1  0  0  0  0
 12 41  1  0  0  0  0
 13 14  1  0  0  0  0
 13 42  1  0  0  0  0
 13 43  1  0  0  0  0
 14 15  1  0  0  0  0
 15 16  2  0  0  0  0
 15 20  1  0  0  0  0
 16 17  1  0  0  0  0
 16 44  1  0  0  0  0
 17 18  2  0  0  0  0
 17 45  1  0  0  0  0
 18 19  1  0  0  0  0
 18 21  1  0  0  0  0
 19 20  2  0  0  0  0
 19 46  1  0  0  0  0
 20 47  1  0  0  0  0
 21 22  2  0  0  0  0
 21 25  1  0  0  0  0
 22 23  1  0  0  0  0
 23 24  1  0  0  0  0
 23 48  1  0  0  0  0
 23 49  1  0  0  0  0
 24 25  1  0  0  0  0
 24 50  1  0  0  0  0
 24 51  1  0  0  0  0
M  END
>  <DRUGBANK_ID>
DB08726

>  <COMMON_NAME>
5-(7-(4-(4,5-dihydro-2-oxazolyl)phenoxy)heptyl)-3-methyl isoxazole

>  <UNII>
FX8Q9PI4VP

$$$$
