
 OpenBabel10282417153D

 52 55  0  0  0  0  0  0  0  0999 V2000
    0.0999   -0.8984    0.7094 O   0  0  0  0  0  0  0  0  0  0  0  0
    1.9307   -1.7498    1.6620 O   0  0  0  0  0  0  0  0  0  0  0  0
    5.0055   -4.4954    2.2090 O   0  0  0  0  0  0  0  0  0  0  0  0
    1.0238    0.5656    3.2894 C   0  0  2  0  0  0  0  0  0  0  0  0
    1.2556    1.6481    2.3824 C   0  0  2  0  0  0  0  0  0  0  0  0
    1.8171   -0.6793    3.7739 C   0  0  1  0  0  0  0  0  0  0  0  0
    3.6175   -0.8052    3.5205 C   0  0  1  0  0  0  0  0  0  0  0  0
    4.2845   -2.2977    4.4974 C   0  0  2  0  0  0  0  0  0  0  0  0
    3.0126    1.7574    2.7097 C   0  0  0  0  0  0  0  0  0  0  0  0
    3.9116    0.7702    3.7627 C   0  0  0  0  0  0  0  0  0  0  0  0
   -0.0500    0.4715    1.3752 C   0  0  2  0  0  0  0  0  0  0  0  0
   -0.6001    0.9335    3.2315 C   0  0  0  0  0  0  0  0  0  0  0  0
    1.3627   -1.8228    2.9391 C   0  0  2  0  0  0  0  0  0  0  0  0
   -1.2927   -0.0114    2.3836 C   0  0  0  0  0  0  0  0  0  0  0  0
    3.0535   -3.0778    4.1322 C   0  0  0  0  0  0  0  0  0  0  0  0
    5.3343   -4.0066    4.4307 C   0  0  0  0  0  0  0  0  0  0  0  0
    0.9532    2.9622    3.5434 C   0  0  0  0  0  0  0  0  0  0  0  0
    2.0011   -3.0054    3.4160 C   0  0  0  0  0  0  0  0  0  0  0  0
    4.0377   -1.4588    5.8519 C   0  0  0  0  0  0  0  0  0  0  0  0
    3.1476   -4.4553    4.4226 C   0  0  0  0  0  0  0  0  0  0  0  0
    4.5788   -5.7165    3.8889 C   0  0  0  0  0  0  0  0  0  0  0  0
    3.8369   -4.8586    2.9867 C   0  0  2  0  0  0  0  0  0  0  0  0
    1.5129    0.2044    2.3717 H   0  0  0  0  0  0  0  0  0  0  0  0
    1.5173   -0.7526    4.8236 H   0  0  0  0  0  0  0  0  0  0  0  0
    3.8928   -0.9522    2.4694 H   0  0  0  0  0  0  0  0  0  0  0  0
   -0.6727   -1.5410    0.7673 H   0  0  0  0  0  0  0  0  0  0  0  0
    1.2272   -1.2454    1.2268 H   0  0  0  0  0  0  0  0  0  0  0  0
    4.7820   -4.3006    1.2892 H   0  0  0  0  0  0  0  0  0  0  0  0
    3.1791    2.7380    3.2334 H   0  0  0  0  0  0  0  0  0  0  0  0
    3.5073    1.9803    1.7716 H   0  0  0  0  0  0  0  0  0  0  0  0
    3.7090    1.0958    4.8096 H   0  0  0  0  0  0  0  0  0  0  0  0
    4.9833    1.0396    3.6908 H   0  0  0  0  0  0  0  0  0  0  0  0
   -0.3306    0.9548    0.4392 H   0  0  0  0  0  0  0  0  0  0  0  0
   -1.0743    1.3225    4.1264 H   0  0  0  0  0  0  0  0  0  0  0  0
   -0.8897    1.8424    2.5892 H   0  0  0  0  0  0  0  0  0  0  0  0
    0.3125   -2.0915    2.9370 H   0  0  0  0  0  0  0  0  0  0  0  0
   -1.3773   -0.5434    3.3685 H   0  0  0  0  0  0  0  0  0  0  0  0
   -1.4164   -1.0946    2.1802 H   0  0  0  0  0  0  0  0  0  0  0  0
    5.5176   -4.4050    5.4620 H   0  0  0  0  0  0  0  0  0  0  0  0
    6.3740   -4.0485    4.0396 H   0  0  0  0  0  0  0  0  0  0  0  0
    1.6064    2.7933    4.4415 H   0  0  0  0  0  0  0  0  0  0  0  0
    1.3171    3.9322    3.1795 H   0  0  0  0  0  0  0  0  0  0  0  0
   -0.0135    3.1187    4.0447 H   0  0  0  0  0  0  0  0  0  0  0  0
    1.4606   -3.8790    3.0355 H   0  0  0  0  0  0  0  0  0  0  0  0
    3.3267   -1.7255    6.6452 H   0  0  0  0  0  0  0  0  0  0  0  0
    4.8634   -0.7920    6.1356 H   0  0  0  0  0  0  0  0  0  0  0  0
    3.3448   -0.6552    5.5664 H   0  0  0  0  0  0  0  0  0  0  0  0
    3.6467   -4.5884    5.4050 H   0  0  0  0  0  0  0  0  0  0  0  0
    2.1606   -4.7775    4.7539 H   0  0  0  0  0  0  0  0  0  0  0  0
    5.4094   -6.4272    3.7844 H   0  0  0  0  0  0  0  0  0  0  0  0
    4.0258   -6.4201    3.1722 H   0  0  0  0  0  0  0  0  0  0  0  0
    3.0502   -5.0095    2.2401 H   0  0  0  0  0  0  0  0  0  0  0  0
  1 26  1  0  0  0  0
  2 27  1  0  0  0  0
  3 28  1  0  0  0  0
  4  5  1  0  0  0  0
  4  6  1  0  0  0  0
  4 12  1  0  0  0  0
  4 23  1  1  0  0  0
  5  9  1  0  0  0  0
  5 11  1  0  0  0  0
  5 17  1  6  0  0  0
  6  7  1  0  0  0  0
  6 13  1  0  0  0  0
  6 24  1  6  0  0  0
  7  8  1  0  0  0  0
  7 10  1  0  0  0  0
  7 25  1  1  0  0  0
  8 15  1  0  0  0  0
  8 16  1  0  0  0  0
  8 19  1  6  0  0  0
  9 10  1  0  0  0  0
  9 29  1  0  0  0  0
  9 30  1  0  0  0  0
 10 31  1  0  0  0  0
 10 32  1  0  0  0  0
 11 14  1  0  0  0  0
 11  1  1  0  0  0  0
 11 33  1  6  0  0  0
 12 14  1  0  0  0  0
 12 34  1  0  0  0  0
 12 35  1  0  0  0  0
 13 18  1  0  0  0  0
 13 36  1  6  0  0  0
 13  2  1  0  0  0  0
 14 37  1  0  0  0  0
 14 38  1  0  0  0  0
 15 18  2  0  0  0  0
 15 20  1  0  0  0  0
 16 21  1  0  0  0  0
 16 39  1  0  0  0  0
 16 40  1  0  0  0  0
 17 41  1  0  0  0  0
 17 42  1  0  0  0  0
 17 43  1  0  0  0  0
 18 44  1  0  0  0  0
 19 45  1  0  0  0  0
 19 46  1  0  0  0  0
 19 47  1  0  0  0  0
 20 22  1  0  0  0  0
 20 48  1  0  0  0  0
 20 49  1  0  0  0  0
 21 22  1  0  0  0  0
 21 50  1  0  0  0  0
 21 51  1  0  0  0  0
 22  3  1  0  0  0  0
 22 52  1  6  0  0  0
M  END
>  <DRUGBANK_ID>
DB06257

>  <COMMON_NAME>
HE-2200

>  <CAS_NUMBER>
2697-85-0

>  <UNII>
Q0CZ537GC8

>  <SYNONYMS>
beta-Aet

$$$$
