CS4
 OpenBabel10282417163D

 32 32  0  0  0  0  0  0  0  0999 V2000
    0.1690   -2.6532   -3.9852 O   0  0  0  0  0  0  0  0  0  0  0  0
    0.5901   -2.4050   -2.7208 C   0  0  0  0  0  0  0  0  0  0  0  0
    0.9605   -0.9348   -2.4725 C   0  0  1  0  0  0  0  0  0  0  0  0
    0.7397   -0.1123   -3.6771 N   0  0  0  0  0  0  0  0  0  0  0  0
    0.1205   -0.4291   -1.2889 C   0  0  0  0  0  0  0  0  0  0  0  0
    0.0189    1.4076   -1.0713 S   0  0  0  0  0  0  0  0  0  0  0  0
    1.7596    1.9653   -1.2499 C   0  0  0  0  0  0  0  0  0  0  0  0
    2.6629    1.6345   -0.0715 C   0  0  0  0  0  0  0  0  0  0  0  0
    2.9608    0.1646    0.1063 C   0  0  0  0  0  0  0  0  0  0  0  0
    2.1815   -0.6406    0.6172 O   0  0  0  0  0  0  0  0  0  0  0  0
    4.2898   -0.3808   -0.1452 C   0  0  0  0  0  0  0  0  0  0  0  0
    4.4536   -1.5640   -0.8804 C   0  0  0  0  0  0  0  0  0  0  0  0
    5.3092    0.1191    0.6553 C   0  0  0  0  0  0  0  0  0  0  0  0
    6.5099   -0.5734    0.7270 C   0  0  0  0  0  0  0  0  0  0  0  0
    6.6961   -1.7494   -0.0114 C   0  0  0  0  0  0  0  0  0  0  0  0
    8.2043   -2.5665    0.1661 Cl  0  0  0  0  0  0  0  0  0  0  0  0
    5.6723   -2.2375   -0.8316 C   0  0  0  0  0  0  0  0  0  0  0  0
    5.8385   -3.6755   -1.7748 Cl  0  0  0  0  0  0  0  0  0  0  0  0
    0.6580   -3.2886   -1.8793 O   0  0  0  0  0  0  0  0  0  0  0  0
    2.0309   -0.8981   -2.2626 H   0  0  0  0  0  0  0  0  0  0  0  0
    0.1739   -1.8365   -4.5180 H   0  0  0  0  0  0  0  0  0  0  0  0
    1.3214   -0.3430   -4.4728 H   0  0  0  0  0  0  0  0  0  0  0  0
   -0.2518    0.0156   -3.8624 H   0  0  0  0  0  0  0  0  0  0  0  0
   -0.9114   -0.7744   -1.4059 H   0  0  0  0  0  0  0  0  0  0  0  0
    0.3990   -0.9136   -0.3553 H   0  0  0  0  0  0  0  0  0  0  0  0
    2.1999    1.6519   -2.2016 H   0  0  0  0  0  0  0  0  0  0  0  0
    1.6948    3.0619   -1.3111 H   0  0  0  0  0  0  0  0  0  0  0  0
    3.6031    2.1885   -0.1846 H   0  0  0  0  0  0  0  0  0  0  0  0
    2.2175    1.9937    0.8639 H   0  0  0  0  0  0  0  0  0  0  0  0
    3.6274   -2.0080   -1.4294 H   0  0  0  0  0  0  0  0  0  0  0  0
    5.1327    0.9800    1.2956 H   0  0  0  0  0  0  0  0  0  0  0  0
    7.2817   -0.2096    1.3987 H   0  0  0  0  0  0  0  0  0  0  0  0
  1  2  1  0  0  0  0
  1 21  1  0  0  0  0
  2 19  2  0  0  0  0
  3  4  1  0  0  0  0
  3 20  1  1  0  0  0
  3  5  1  0  0  0  0
  3  2  1  0  0  0  0
  4 22  1  0  0  0  0
  4 23  1  0  0  0  0
  5  6  1  0  0  0  0
  5 24  1  0  0  0  0
  5 25  1  0  0  0  0
  6  7  1  0  0  0  0
  7  8  1  0  0  0  0
  7 26  1  0  0  0  0
  7 27  1  0  0  0  0
  8  9  1  0  0  0  0
  8 28  1  0  0  0  0
  8 29  1  0  0  0  0
  9 11  1  0  0  0  0
  9 10  2  0  0  0  0
 11 13  2  0  0  0  0
 11 12  1  0  0  0  0
 12 17  2  0  0  0  0
 12 30  1  0  0  0  0
 13 14  1  0  0  0  0
 13 31  1  0  0  0  0
 14 15  2  0  0  0  0
 14 32  1  0  0  0  0
 15 16  1  0  0  0  0
 15 17  1  0  0  0  0
 17 18  1  0  0  0  0
M  END
>  <DRUGBANK_ID>
DB07590

>  <COMMON_NAME>
S-[3-(3,4-DICHLOROPHENYL)-3-OXOPROPYL]-L-CYSTEINE

$$$$
