
 OpenBabel10282417183D

 41 40  0  0  0  0  0  0  0  0999 V2000
   -2.0098   -0.6122    0.3204 C   0  0  0  0  0  0  0  0  0  0  0  0
   -1.3735   -1.8198    0.1190 C   0  0  0  0  0  0  0  0  0  0  0  0
   -1.2007    0.3949    0.5322 C   0  0  0  0  0  0  0  0  0  0  0  0
   -0.0647   -2.0331   -0.3312 C   0  0  0  0  0  0  0  0  0  0  0  0
   -0.0984    0.2454    0.0070 C   0  0  0  0  0  0  0  0  0  0  0  0
    0.5234   -0.9834   -0.8214 C   0  0  0  0  0  0  0  0  0  0  0  0
    0.5508    2.0250    0.1202 C   0  0  0  0  0  0  0  0  0  0  0  0
    2.0232   -1.1131   -1.2693 O   0  0  0  0  0  0  0  0  0  0  0  0
   -0.2480    2.8177   -0.4942 O   0  0  0  0  0  0  0  0  0  0  0  0
    2.2678    2.2603    0.3149 O   0  0  0  0  0  0  0  0  0  0  0  0
    1.8131    0.3743    0.3178 C   0  0  0  0  0  0  0  0  0  0  0  0
   -1.0657    1.1741   -1.6513 C   0  0  0  0  0  0  0  0  0  0  0  0
    1.4377    2.8893   -1.5648 C   0  0  0  0  0  0  0  0  0  0  0  0
    0.9412    0.4334    2.0223 C   0  0  0  0  0  0  0  0  0  0  0  0
   -2.5825    1.9048   -0.4055 C   0  0  0  0  0  0  0  0  0  0  0  0
    1.1630    4.0537    0.0989 C   0  0  0  0  0  0  0  0  0  0  0  0
    0.9192    1.0982   -1.4980 N   0  0  0  0  0  0  0  0  0  0  0  0
    1.6362    1.4407    2.6350 O   0  0  0  0  0  0  0  0  0  0  0  0
   -2.3434    3.2004    0.2279 O   0  0  0  0  0  0  0  0  0  0  0  0
    1.1483    3.4225    1.6919 O   0  0  0  0  0  0  0  0  0  0  0  0
   -3.0362   -0.4262    0.0834 H   0  0  0  0  0  0  0  0  0  0  0  0
   -2.0532   -2.6215    0.0735 H   0  0  0  0  0  0  0  0  0  0  0  0
   -1.1326    1.4221    0.2524 H   0  0  0  0  0  0  0  0  0  0  0  0
    0.6105   -2.7968   -0.0332 H   0  0  0  0  0  0  0  0  0  0  0  0
    2.7517   -1.2199   -0.5871 H   0  0  0  0  0  0  0  0  0  0  0  0
    2.8537    3.0619    0.0993 H   0  0  0  0  0  0  0  0  0  0  0  0
    1.5437   -0.6980    0.6737 H   0  0  0  0  0  0  0  0  0  0  0  0
    2.8282    0.0781    0.4903 H   0  0  0  0  0  0  0  0  0  0  0  0
   -1.3912    1.5832   -2.6258 H   0  0  0  0  0  0  0  0  0  0  0  0
   -1.3852    0.0349   -1.8769 H   0  0  0  0  0  0  0  0  0  0  0  0
    2.4368    2.4776   -1.8129 H   0  0  0  0  0  0  0  0  0  0  0  0
    0.7300    3.0738   -2.4150 H   0  0  0  0  0  0  0  0  0  0  0  0
   -0.1689    0.5875    2.1641 H   0  0  0  0  0  0  0  0  0  0  0  0
    1.0167   -0.4534    2.6647 H   0  0  0  0  0  0  0  0  0  0  0  0
   -3.6400    1.5292   -0.3422 H   0  0  0  0  0  0  0  0  0  0  0  0
   -2.5884    1.5574    0.9044 H   0  0  0  0  0  0  0  0  0  0  0  0
    1.6824    4.9778    0.2144 H   0  0  0  0  0  0  0  0  0  0  0  0
    0.1325    4.2031    0.4921 H   0  0  0  0  0  0  0  0  0  0  0  0
    2.0602    1.8967    1.8626 H   0  0  0  0  0  0  0  0  0  0  0  0
   -1.3670    3.2439    0.2836 H   0  0  0  0  0  0  0  0  0  0  0  0
    0.5098    2.6444    1.8593 H   0  0  0  0  0  0  0  0  0  0  0  0
  1 21  1  0  0  0  0
  2  1  2  0  0  0  0
  2 22  1  0  0  0  0
  3  1  1  0  0  0  0
  3 23  1  0  0  0  0
  4  2  1  0  0  0  0
  4 24  1  0  0  0  0
  5  3  2  0  0  0  0
  6  4  2  0  0  0  0
  6  5  1  0  0  0  0
  7  5  1  0  0  0  0
  8  6  1  0  0  0  0
  8 25  1  0  0  0  0
  9  7  2  0  0  0  0
 10  7  1  0  0  0  0
 10 26  1  0  0  0  0
 11 27  1  0  0  0  0
 11 28  1  0  0  0  0
 12 29  1  0  0  0  0
 12 30  1  0  0  0  0
 13 31  1  0  0  0  0
 13 32  1  0  0  0  0
 14 11  1  0  0  0  0
 14 33  1  0  0  0  0
 14 34  1  0  0  0  0
 15 12  1  0  0  0  0
 15 35  1  0  0  0  0
 15 36  1  0  0  0  0
 16 13  1  0  0  0  0
 16 37  1  0  0  0  0
 16 38  1  0  0  0  0
 17 11  1  0  0  0  0
 17 12  1  0  0  0  0
 17 13  1  0  0  0  0
 18 14  1  0  0  0  0
 18 39  1  0  0  0  0
 19 15  1  0  0  0  0
 19 40  1  0  0  0  0
 20 16  1  0  0  0  0
 20 41  1  0  0  0  0
M  END
>  <DRUGBANK_ID>
DB11079

>  <COMMON_NAME>
Trolamine salicylate

>  <CAS_NUMBER>
2174-16-5

>  <UNII>
H8O4040BHD

>  <SYNONYMS>
Trolamine salicylate

$$$$
