
 OpenBabel10282417123D

 54 56  0  0  0  0  0  0  0  0999 V2000
    1.2348   -0.0111   -0.0933 C   0  0  0  0  0  0  0  0  0  0  0  0
    0.6278   -1.2950    0.4187 C   0  0  0  0  0  0  0  0  0  0  0  0
   -0.1441   -1.3843    1.5253 C   0  0  0  0  0  0  0  0  0  0  0  0
   -0.6282   -0.2352    2.3041 C   0  0  0  0  0  0  0  0  0  0  0  0
   -1.1486    0.8838    1.6438 C   0  0  0  0  0  0  0  0  0  0  0  0
   -1.5859    2.0000    2.3499 C   0  0  0  0  0  0  0  0  0  0  0  0
   -1.6238    1.9774    3.7470 C   0  0  0  0  0  0  0  0  0  0  0  0
   -1.2119    0.8145    4.4127 C   0  0  0  0  0  0  0  0  0  0  0  0
   -0.6586   -0.2606    3.6990 C   0  0  0  0  0  0  0  0  0  0  0  0
   -2.0842    3.2322    4.4216 C   0  0  0  0  0  0  0  0  0  0  0  0
   -2.1265    3.1995    5.7740 O   0  0  0  0  0  0  0  0  0  0  0  0
   -2.3806    4.2243    3.8003 O   0  0  0  0  0  0  0  0  0  0  0  0
    0.9186   -2.5203   -0.3678 C   0  0  0  0  0  0  0  0  0  0  0  0
    2.1970   -2.8203   -0.8234 C   0  0  0  0  0  0  0  0  0  0  0  0
    2.4217   -3.9583   -1.6149 C   0  0  0  0  0  0  0  0  0  0  0  0
    1.3784   -4.8446   -1.9704 C   0  0  0  0  0  0  0  0  0  0  0  0
    0.1541   -4.6585   -1.3322 C   0  0  0  0  0  0  0  0  0  0  0  0
   -0.0964   -3.4366   -0.6651 C   0  0  0  0  0  0  0  0  0  0  0  0
   -0.8766   -5.7783   -1.3134 C   0  0  0  0  0  0  0  0  0  0  0  0
   -1.2904   -6.0572    0.1411 C   0  0  0  0  0  0  0  0  0  0  0  0
   -2.0962   -5.3107   -2.1285 C   0  0  0  0  0  0  0  0  0  0  0  0
   -0.2739   -7.1475   -1.7589 C   0  0  0  0  0  0  0  0  0  0  0  0
    0.4352   -7.0663   -3.0737 C   0  0  0  0  0  0  0  0  0  0  0  0
    1.4906   -5.8962   -3.1012 C   0  0  0  0  0  0  0  0  0  0  0  0
    1.0035   -5.2607   -4.4139 C   0  0  0  0  0  0  0  0  0  0  0  0
    2.9848   -6.2425   -3.3071 C   0  0  0  0  0  0  0  0  0  0  0  0
    1.0520    0.8470    0.5575 H   0  0  0  0  0  0  0  0  0  0  0  0
    0.8180    0.2348   -1.0756 H   0  0  0  0  0  0  0  0  0  0  0  0
    2.3224   -0.0697   -0.1539 H   0  0  0  0  0  0  0  0  0  0  0  0
   -0.5039   -2.3520    1.8756 H   0  0  0  0  0  0  0  0  0  0  0  0
   -1.1742    0.9193    0.5567 H   0  0  0  0  0  0  0  0  0  0  0  0
   -1.8994    2.8780    1.7876 H   0  0  0  0  0  0  0  0  0  0  0  0
   -1.3036    0.6983    5.4851 H   0  0  0  0  0  0  0  0  0  0  0  0
   -0.2495   -1.1074    4.2479 H   0  0  0  0  0  0  0  0  0  0  0  0
   -1.8515    2.3880    6.2235 H   0  0  0  0  0  0  0  0  0  0  0  0
    3.0340   -2.1641   -0.5981 H   0  0  0  0  0  0  0  0  0  0  0  0
    3.4468   -4.1174   -1.9410 H   0  0  0  0  0  0  0  0  0  0  0  0
   -1.1159   -3.1972   -0.3684 H   0  0  0  0  0  0  0  0  0  0  0  0
   -1.7182   -5.1847    0.6378 H   0  0  0  0  0  0  0  0  0  0  0  0
   -2.0262   -6.8667    0.1736 H   0  0  0  0  0  0  0  0  0  0  0  0
   -0.4157   -6.3745    0.7254 H   0  0  0  0  0  0  0  0  0  0  0  0
   -1.8375   -5.0111   -3.1491 H   0  0  0  0  0  0  0  0  0  0  0  0
   -2.8632   -6.0854   -2.1864 H   0  0  0  0  0  0  0  0  0  0  0  0
   -2.5594   -4.4254   -1.6717 H   0  0  0  0  0  0  0  0  0  0  0  0
    0.4713   -7.5111   -1.0427 H   0  0  0  0  0  0  0  0  0  0  0  0
   -1.0698   -7.9033   -1.8174 H   0  0  0  0  0  0  0  0  0  0  0  0
    0.8284   -8.0235   -3.4396 H   0  0  0  0  0  0  0  0  0  0  0  0
   -0.4059   -6.8915   -3.7740 H   0  0  0  0  0  0  0  0  0  0  0  0
    1.5755   -4.4062   -4.7565 H   0  0  0  0  0  0  0  0  0  0  0  0
    1.0098   -6.0379   -5.1934 H   0  0  0  0  0  0  0  0  0  0  0  0
   -0.0312   -4.9266   -4.2820 H   0  0  0  0  0  0  0  0  0  0  0  0
    3.4688   -5.3819   -3.7996 H   0  0  0  0  0  0  0  0  0  0  0  0
    3.5440   -6.3849   -2.3713 H   0  0  0  0  0  0  0  0  0  0  0  0
    3.1682   -7.1035   -3.9506 H   0  0  0  0  0  0  0  0  0  0  0  0
  1  2  1  0  0  0  0
  1 27  1  0  0  0  0
  1 28  1  0  0  0  0
  1 29  1  0  0  0  0
  2  3  2  0  0  0  0
  2 13  1  0  0  0  0
  3  4  1  0  0  0  0
  3 30  1  0  0  0  0
  4  5  2  0  0  0  0
  4  9  1  0  0  0  0
  5  6  1  0  0  0  0
  5 31  1  0  0  0  0
  6  7  2  0  0  0  0
  6 32  1  0  0  0  0
  7  8  1  0  0  0  0
  7 10  1  0  0  0  0
  8  9  2  0  0  0  0
  8 33  1  0  0  0  0
  9 34  1  0  0  0  0
 10 11  1  0  0  0  0
 10 12  2  0  0  0  0
 11 35  1  0  0  0  0
 13 14  2  0  0  0  0
 13 18  1  0  0  0  0
 14 15  1  0  0  0  0
 14 36  1  0  0  0  0
 15 16  2  0  0  0  0
 15 37  1  0  0  0  0
 16 17  1  0  0  0  0
 16 24  1  0  0  0  0
 17 18  2  0  0  0  0
 17 19  1  0  0  0  0
 18 38  1  0  0  0  0
 19 20  1  0  0  0  0
 19 21  1  0  0  0  0
 19 22  1  0  0  0  0
 20 39  1  0  0  0  0
 20 40  1  0  0  0  0
 20 41  1  0  0  0  0
 21 42  1  0  0  0  0
 21 43  1  0  0  0  0
 21 44  1  0  0  0  0
 22 23  1  0  0  0  0
 22 45  1  0  0  0  0
 22 46  1  0  0  0  0
 23 24  1  0  0  0  0
 23 47  1  0  0  0  0
 23 48  1  0  0  0  0
 24 25  1  0  0  0  0
 24 26  1  0  0  0  0
 25 49  1  0  0  0  0
 25 50  1  0  0  0  0
 25 51  1  0  0  0  0
 26 52  1  0  0  0  0
 26 53  1  0  0  0  0
 26 54  1  0  0  0  0
M  END
>  <DRUGBANK_ID>
DB02877

>  <SECONDARY_ACCESSION_NUMBERS>
EXPT03128

>  <COMMON_NAME>
Arotinoid acid

>  <CAS_NUMBER>
71441-28-6

>  <UNII>
673M8C29UR

>  <SYNONYMS>
(E)-4-(2-(5,6,7,8-Tetrahydro-5,5,8,8-tetramethyl-2-naphthalenyl)-1-propen-1-yl)benzoic acid; Arotinoic acid; Arotinoid acid; TTNPB

$$$$
