
 OpenBabel10282417153D

 40 40  0  0  0  0  0  0  0  0999 V2000
    0.9318    0.0369    0.0632 P   0  0  0  0  0  0  0  0  0  0  0  0
   -0.3945    0.5055   -2.5318 O   0  0  0  0  0  0  0  0  0  0  0  0
    1.0682   -0.8427   -1.3017 O   0  0  0  0  0  0  0  0  0  0  0  0
    0.9250   -0.9933    1.3121 O   0  0  0  0  0  0  0  0  0  0  0  0
   -0.7982    0.0369    0.0632 O   0  0  0  0  0  0  0  0  0  0  0  0
    2.4802    0.0369    0.0632 O   0  0  0  0  0  0  0  0  0  0  0  0
   -1.2267   -2.2271   -0.7841 C   0  0  0  0  0  0  0  0  0  0  0  0
   -2.1688    1.6376   -4.3372 C   0  0  0  0  0  0  0  0  0  0  0  0
   -2.0147   -1.3101   -1.7343 C   0  0  0  0  0  0  0  0  0  0  0  0
   -2.5300    0.4864   -3.3852 C   0  0  0  0  0  0  0  0  0  0  0  0
   -1.5926   -0.1884   -2.5586 C   0  0  0  0  0  0  0  0  0  0  0  0
   -3.3761   -1.6421   -1.7236 C   0  0  0  0  0  0  0  0  0  0  0  0
   -3.8622    0.0296   -3.3795 C   0  0  0  0  0  0  0  0  0  0  0  0
   -1.5041   -2.3421    0.7472 C   0  0  0  0  0  0  0  0  0  0  0  0
   -0.7345   -3.5235   -1.3799 C   0  0  0  0  0  0  0  0  0  0  0  0
   -2.3695    1.1780   -5.7890 C   0  0  0  0  0  0  0  0  0  0  0  0
   -2.9944    2.9064   -4.0687 C   0  0  0  0  0  0  0  0  0  0  0  0
   -4.2681   -1.0085   -2.5607 C   0  0  0  0  0  0  0  0  0  0  0  0
    0.8382   -0.1812   -2.5074 C   0  0  0  0  0  0  0  0  0  0  0  0
    1.8488   -0.9707    1.6416 H   0  0  0  0  0  0  0  0  0  0  0  0
   -1.1458    0.7504    0.6239 H   0  0  0  0  0  0  0  0  0  0  0  0
   -0.2850   -1.8020   -0.7364 H   0  0  0  0  0  0  0  0  0  0  0  0
   -1.1137    1.9250   -4.2365 H   0  0  0  0  0  0  0  0  0  0  0  0
   -3.7193   -2.4066   -1.0386 H   0  0  0  0  0  0  0  0  0  0  0  0
   -4.5983    0.4946   -4.0256 H   0  0  0  0  0  0  0  0  0  0  0  0
   -2.3973   -2.9022    0.9869 H   0  0  0  0  0  0  0  0  0  0  0  0
   -0.6344   -2.8302    1.2150 H   0  0  0  0  0  0  0  0  0  0  0  0
   -1.5992   -1.3992    1.3050 H   0  0  0  0  0  0  0  0  0  0  0  0
   -0.4307   -3.3782   -2.4213 H   0  0  0  0  0  0  0  0  0  0  0  0
    0.1695   -3.8320   -0.8313 H   0  0  0  0  0  0  0  0  0  0  0  0
   -1.4904   -4.2953   -1.2880 H   0  0  0  0  0  0  0  0  0  0  0  0
   -3.4133    0.9099   -5.9877 H   0  0  0  0  0  0  0  0  0  0  0  0
   -2.0951    1.9637   -6.5004 H   0  0  0  0  0  0  0  0  0  0  0  0
   -1.7560    0.2958   -6.0022 H   0  0  0  0  0  0  0  0  0  0  0  0
   -2.8237    3.2791   -3.0531 H   0  0  0  0  0  0  0  0  0  0  0  0
   -2.7256    3.7071   -4.7684 H   0  0  0  0  0  0  0  0  0  0  0  0
   -4.0693    2.7299   -4.1823 H   0  0  0  0  0  0  0  0  0  0  0  0
   -5.3009   -1.3512   -2.5782 H   0  0  0  0  0  0  0  0  0  0  0  0
    1.6440    0.5543   -2.6592 H   0  0  0  0  0  0  0  0  0  0  0  0
    0.9079   -0.8823   -3.3448 H   0  0  0  0  0  0  0  0  0  0  0  0
  1  3  1  0  0  0  0
  1  4  1  0  0  0  0
  1  5  1  0  0  0  0
  1  6  2  0  0  0  0
  2 11  1  0  0  0  0
  2 19  1  0  0  0  0
  3 19  1  0  0  0  0
  4 20  1  0  0  0  0
  5 21  1  0  0  0  0
  7  9  1  0  0  0  0
  7 14  1  0  0  0  0
  7 15  1  0  0  0  0
  7 22  1  0  0  0  0
  8 10  1  0  0  0  0
  8 16  1  0  0  0  0
  8 17  1  0  0  0  0
  8 23  1  0  0  0  0
  9 11  2  0  0  0  0
  9 12  1  0  0  0  0
 10 11  1  0  0  0  0
 10 13  2  0  0  0  0
 12 18  2  0  0  0  0
 12 24  1  0  0  0  0
 13 18  1  0  0  0  0
 13 25  1  0  0  0  0
 14 26  1  0  0  0  0
 14 27  1  0  0  0  0
 14 28  1  0  0  0  0
 15 29  1  0  0  0  0
 15 30  1  0  0  0  0
 15 31  1  0  0  0  0
 16 32  1  0  0  0  0
 16 33  1  0  0  0  0
 16 34  1  0  0  0  0
 17 35  1  0  0  0  0
 17 36  1  0  0  0  0
 17 37  1  0  0  0  0
 18 38  1  0  0  0  0
 19 39  1  0  0  0  0
 19 40  1  0  0  0  0
M  END
>  <DRUGBANK_ID>
DB06716

>  <SECONDARY_ACCESSION_NUMBERS>
DB05279

>  <COMMON_NAME>
Fospropofol

>  <CAS_NUMBER>
258516-89-1

>  <UNII>
LZ257RZP7K

>  <SYNONYMS>
Fospropofol

$$$$
