
 OpenBabel10282417143D

120120  0  0  1  0  0  0  0  0999 V2000
   -0.8357   23.9246   10.4525 C   0  0  0  0  0  0  0  0  0  0  0  0
   -2.3418   23.7199   10.4579 C   0  0  0  0  0  0  0  0  0  0  0  0
   -2.8153   23.2403    9.0854 C   0  0  0  0  0  0  0  0  0  0  0  0
   -2.1556   21.9093    8.7082 C   0  0  0  0  0  0  0  0  0  0  0  0
   -2.4827   20.8328    9.7490 C   0  0  0  0  0  0  0  0  0  0  0  0
   -3.9963   20.6100    9.8108 C   0  0  0  0  0  0  0  0  0  0  0  0
   -4.5043   20.1563    8.4392 C   0  0  0  0  0  0  0  0  0  0  0  0
   -3.8085   18.8507    8.0443 C   0  0  0  0  0  0  0  0  0  0  0  0
   -4.1177   17.7790    9.0923 C   0  0  0  0  0  0  0  0  0  0  0  0
   -5.6340   17.5728    9.1646 C   0  0  0  0  0  0  0  0  0  0  0  0
   -6.1456   17.1188    7.7952 C   0  0  0  0  0  0  0  0  0  0  0  0
   -5.4423   15.8161    7.4194 C   0  0  0  0  0  0  0  0  0  0  0  0
   -5.7264   14.7798    8.5161 C   0  0  0  0  0  0  0  0  0  0  0  0
   -7.2305   14.4990    8.6094 C   0  0  0  0  0  0  0  0  0  0  0  0
   -7.7875   14.1154    7.2663 C   0  0  0  0  0  0  0  0  0  0  0  0
   -7.2201   12.7978    6.8900 C   0  0  0  0  0  0  0  0  0  0  0  0
   -8.0009   11.9054    6.6261 O   0  0  0  0  0  0  0  0  0  0  0  0
   -5.8609   12.7774    6.8153 O   0  0  0  0  0  0  0  0  0  0  0  0
   -5.0627   11.6747    6.3458 C   0  0  1  0  0  0  0  0  0  0  0  0
   -5.2426   10.4298    7.2242 C   0  0  0  0  0  0  0  0  0  0  0  0
   -6.5413    9.8919    7.3053 O   0  0  0  0  0  0  0  0  0  0  0  0
   -7.2325    9.4411    6.1534 C   0  0  2  0  0  0  0  0  0  0  0  0
   -8.1189    8.4479    6.6569 O   0  0  0  0  0  0  0  0  0  0  0  0
   -9.1101    8.0509    5.7044 C   0  0  1  0  0  0  0  0  0  0  0  0
  -10.0736    9.1888    5.2788 C   0  0  0  0  0  0  0  0  0  0  0  0
  -10.8016    9.7262    6.3729 O   0  0  0  0  0  0  0  0  0  0  0  0
   -8.4004    7.4142    4.4954 C   0  0  2  0  0  0  0  0  0  0  0  0
   -7.6346    6.2694    4.9030 O   0  0  0  0  0  0  0  0  0  0  0  0
   -7.4685    8.4294    3.8759 C   0  0  2  0  0  0  0  0  0  0  0  0
   -6.7653    7.9406    2.7354 O   0  0  0  0  0  0  0  0  0  0  0  0
   -6.4724    8.8817    4.9254 C   0  0  2  0  0  0  0  0  0  0  0  0
   -5.4516    7.9532    5.2588 O   0  0  0  0  0  0  0  0  0  0  0  0
   -5.3509   11.4544    4.8905 C   0  0  0  0  0  0  0  0  0  0  0  0
   -5.1132   12.4817    3.9717 O   0  0  0  0  0  0  0  0  0  0  0  0
   -5.9121   13.5615    3.9670 C   0  0  0  0  0  0  0  0  0  0  0  0
   -6.9010   13.7373    4.6170 O   0  0  0  0  0  0  0  0  0  0  0  0
   -5.4494   14.5549    2.9740 C   0  0  0  0  0  0  0  0  0  0  0  0
   -3.9316   14.6804    3.0073 C   0  0  0  0  0  0  0  0  0  0  0  0
   -3.2095   13.3990    2.5510 C   0  0  0  0  0  0  0  0  0  0  0  0
   -3.7743   12.9288    1.2065 C   0  0  0  0  0  0  0  0  0  0  0  0
   -3.4848   14.0066    0.1634 C   0  0  0  0  0  0  0  0  0  0  0  0
   -1.9717   14.2322    0.0888 C   0  0  0  0  0  0  0  0  0  0  0  0
   -1.2781   12.9227   -0.2998 C   0  0  0  0  0  0  0  0  0  0  0  0
   -1.7897   12.4622   -1.6670 C   0  0  0  0  0  0  0  0  0  0  0  0
   -1.4908   13.5336   -2.7212 C   0  0  0  0  0  0  0  0  0  0  0  0
    0.0193   13.7713   -2.8329 C   0  0  0  0  0  0  0  0  0  0  0  0
    0.7517   12.4845   -3.2146 C   0  0  0  0  0  0  0  0  0  0  0  0
    0.2527   11.9743   -4.5565 C   0  0  0  0  0  0  0  0  0  0  0  0
   -0.2941   22.9997   10.2288 H   0  0  0  0  0  0  0  0  0  0  0  0
   -0.4871   24.2628   11.4283 H   0  0  0  0  0  0  0  0  0  0  0  0
   -0.5665   24.6631    9.6919 H   0  0  0  0  0  0  0  0  0  0  0  0
   -2.6141   23.0060   11.2446 H   0  0  0  0  0  0  0  0  0  0  0  0
   -2.8531   24.6498   10.7201 H   0  0  0  0  0  0  0  0  0  0  0  0
   -3.9087   23.1499    9.0881 H   0  0  0  0  0  0  0  0  0  0  0  0
   -2.5944   23.9900    8.3202 H   0  0  0  0  0  0  0  0  0  0  0  0
   -2.4752   21.6133    7.7036 H   0  0  0  0  0  0  0  0  0  0  0  0
   -1.0724   22.0092    8.6085 H   0  0  0  0  0  0  0  0  0  0  0  0
   -1.9417   19.9122    9.5079 H   0  0  0  0  0  0  0  0  0  0  0  0
   -2.1063   21.0889   10.7424 H   0  0  0  0  0  0  0  0  0  0  0  0
   -4.2310   19.8878   10.5990 H   0  0  0  0  0  0  0  0  0  0  0  0
   -4.5350   21.5066   10.1268 H   0  0  0  0  0  0  0  0  0  0  0  0
   -5.5932   20.0582    8.4625 H   0  0  0  0  0  0  0  0  0  0  0  0
   -4.3442   20.9097    7.6646 H   0  0  0  0  0  0  0  0  0  0  0  0
   -4.1197   18.5549    7.0386 H   0  0  0  0  0  0  0  0  0  0  0  0
   -2.7267   18.9657    7.9406 H   0  0  0  0  0  0  0  0  0  0  0  0
   -3.5747   16.8605    8.8521 H   0  0  0  0  0  0  0  0  0  0  0  0
   -3.7322   18.0332   10.0827 H   0  0  0  0  0  0  0  0  0  0  0  0
   -5.8720   16.8626    9.9601 H   0  0  0  0  0  0  0  0  0  0  0  0
   -6.1711   18.4681    9.4831 H   0  0  0  0  0  0  0  0  0  0  0  0
   -7.2332   17.0092    7.8207 H   0  0  0  0  0  0  0  0  0  0  0  0
   -5.9864   17.8683    7.0150 H   0  0  0  0  0  0  0  0  0  0  0  0
   -5.7578   15.5042    6.4199 H   0  0  0  0  0  0  0  0  0  0  0  0
   -4.3622   15.9360    7.2948 H   0  0  0  0  0  0  0  0  0  0  0  0
   -5.1219   13.8908    8.3485 H   0  0  0  0  0  0  0  0  0  0  0  0
   -5.3576   15.0726    9.4984 H   0  0  0  0  0  0  0  0  0  0  0  0
   -7.4237   13.7048    9.3350 H   0  0  0  0  0  0  0  0  0  0  0  0
   -7.7826   15.3764    8.9584 H   0  0  0  0  0  0  0  0  0  0  0  0
   -8.8728   13.9871    7.3198 H   0  0  0  0  0  0  0  0  0  0  0  0
   -7.6440   14.8573    6.4778 H   0  0  0  0  0  0  0  0  0  0  0  0
   -4.0025   11.9657    6.4155 H   0  0  0  0  0  0  0  0  0  0  0  0
   -4.5719    9.6076    6.9660 H   0  0  0  0  0  0  0  0  0  0  0  0
   -4.9790   10.7230    8.2502 H   0  0  0  0  0  0  0  0  0  0  0  0
   -7.8478   10.2253    5.7425 H   0  0  0  0  0  0  0  0  0  0  0  0
   -9.6725    7.2891    6.2458 H   0  0  0  0  0  0  0  0  0  0  0  0
   -9.5785   10.0400    4.8006 H   0  0  0  0  0  0  0  0  0  0  0  0
  -10.7865    8.7977    4.5506 H   0  0  0  0  0  0  0  0  0  0  0  0
  -11.1222    8.9920    6.9192 H   0  0  0  0  0  0  0  0  0  0  0  0
   -9.1133    7.0759    3.7476 H   0  0  0  0  0  0  0  0  0  0  0  0
   -7.2273    6.4709    5.7645 H   0  0  0  0  0  0  0  0  0  0  0  0
   -8.0292    9.3059    3.5186 H   0  0  0  0  0  0  0  0  0  0  0  0
   -6.0825    7.3386    3.0907 H   0  0  0  0  0  0  0  0  0  0  0  0
   -5.9658    9.5673    4.2886 H   0  0  0  0  0  0  0  0  0  0  0  0
   -5.7067    7.5441    6.1013 H   0  0  0  0  0  0  0  0  0  0  0  0
   -4.6618   10.6588    4.5758 H   0  0  0  0  0  0  0  0  0  0  0  0
   -6.4074   11.2620    4.7616 H   0  0  0  0  0  0  0  0  0  0  0  0
   -5.8751   14.2684    2.0086 H   0  0  0  0  0  0  0  0  0  0  0  0
   -5.9089   15.5009    3.2623 H   0  0  0  0  0  0  0  0  0  0  0  0
   -3.6628   15.5190    2.3580 H   0  0  0  0  0  0  0  0  0  0  0  0
   -3.5893   14.9539    4.0101 H   0  0  0  0  0  0  0  0  0  0  0  0
   -2.1332   13.5735    2.5351 H   0  0  0  0  0  0  0  0  0  0  0  0
   -3.2388   12.5824    3.2715 H   0  0  0  0  0  0  0  0  0  0  0  0
   -3.3468   11.9572    0.9417 H   0  0  0  0  0  0  0  0  0  0  0  0
   -4.8474   12.7153    1.2337 H   0  0  0  0  0  0  0  0  0  0  0  0
   -3.9146   13.7183   -0.7995 H   0  0  0  0  0  0  0  0  0  0  0  0
   -3.9896   14.9488    0.3946 H   0  0  0  0  0  0  0  0  0  0  0  0
   -1.7524   15.0470   -0.6034 H   0  0  0  0  0  0  0  0  0  0  0  0
   -1.5566   14.6041    1.0291 H   0  0  0  0  0  0  0  0  0  0  0  0
   -0.1942   13.0603   -0.2857 H   0  0  0  0  0  0  0  0  0  0  0  0
   -1.4361   12.1304    0.4390 H   0  0  0  0  0  0  0  0  0  0  0  0
   -1.3476   11.4956   -1.9206 H   0  0  0  0  0  0  0  0  0  0  0  0
   -2.8634   12.2494   -1.6529 H   0  0  0  0  0  0  0  0  0  0  0  0
   -1.9264   13.2407   -3.6789 H   0  0  0  0  0  0  0  0  0  0  0  0
   -1.9948   14.4788   -2.4942 H   0  0  0  0  0  0  0  0  0  0  0  0
    0.2143   14.5565   -3.5689 H   0  0  0  0  0  0  0  0  0  0  0  0
    0.4276   14.1572   -1.8905 H   0  0  0  0  0  0  0  0  0  0  0  0
    1.8282   12.6704   -3.2523 H   0  0  0  0  0  0  0  0  0  0  0  0
    0.6166   11.7085   -2.4516 H   0  0  0  0  0  0  0  0  0  0  0  0
    0.4192   12.7344   -5.3252 H   0  0  0  0  0  0  0  0  0  0  0  0
    0.7658   11.0544   -4.8365 H   0  0  0  0  0  0  0  0  0  0  0  0
   -0.8176   11.7439   -4.5387 H   0  0  0  0  0  0  0  0  0  0  0  0
  1  2  1  0  0  0  0
  1 49  1  0  0  0  0
  1 50  1  0  0  0  0
  1 51  1  0  0  0  0
  2  3  1  0  0  0  0
  2 52  1  0  0  0  0
  2 53  1  0  0  0  0
  3  4  1  0  0  0  0
  3 54  1  0  0  0  0
  3 55  1  0  0  0  0
  4  5  1  0  0  0  0
  4 56  1  0  0  0  0
  4 57  1  0  0  0  0
  5  6  1  0  0  0  0
  5 58  1  0  0  0  0
  5 59  1  0  0  0  0
  6  7  1  0  0  0  0
  6 60  1  0  0  0  0
  6 61  1  0  0  0  0
  7  8  1  0  0  0  0
  7 62  1  0  0  0  0
  7 63  1  0  0  0  0
  8  9  1  0  0  0  0
  8 64  1  0  0  0  0
  8 65  1  0  0  0  0
  9 10  1  0  0  0  0
  9 66  1  0  0  0  0
  9 67  1  0  0  0  0
 10 11  1  0  0  0  0
 10 68  1  0  0  0  0
 10 69  1  0  0  0  0
 11 12  1  0  0  0  0
 11 70  1  0  0  0  0
 11 71  1  0  0  0  0
 12 13  1  0  0  0  0
 12 72  1  0  0  0  0
 12 73  1  0  0  0  0
 13 14  1  0  0  0  0
 13 74  1  0  0  0  0
 13 75  1  0  0  0  0
 14 15  1  0  0  0  0
 14 76  1  0  0  0  0
 14 77  1  0  0  0  0
 15 16  1  0  0  0  0
 15 78  1  0  0  0  0
 15 79  1  0  0  0  0
 16 17  2  0  0  0  0
 16 18  1  0  0  0  0
 19 18  1  0  0  0  0
 19 20  1  0  0  0  0
 19 33  1  0  0  0  0
 19 80  1  1  0  0  0
 20 21  1  0  0  0  0
 20 81  1  0  0  0  0
 20 82  1  0  0  0  0
 22 23  1  0  0  0  0
 22 31  1  0  0  0  0
 22 83  1  6  0  0  0
 22 21  1  0  0  0  0
 23 24  1  0  0  0  0
 24 27  1  0  0  0  0
 24 84  1  1  0  0  0
 24 25  1  0  0  0  0
 25 26  1  0  0  0  0
 25 85  1  0  0  0  0
 25 86  1  0  0  0  0
 26 87  1  0  0  0  0
 27 28  1  0  0  0  0
 27 29  1  0  0  0  0
 27 88  1  6  0  0  0
 28 89  1  0  0  0  0
 29 30  1  0  0  0  0
 29 31  1  0  0  0  0
 29 90  1  6  0  0  0
 30 91  1  0  0  0  0
 31 32  1  0  0  0  0
 31 92  1  6  0  0  0
 32 93  1  0  0  0  0
 33 34  1  0  0  0  0
 33 94  1  0  0  0  0
 33 95  1  0  0  0  0
 34 35  1  0  0  0  0
 35 36  2  0  0  0  0
 35 37  1  0  0  0  0
 37 38  1  0  0  0  0
 37 96  1  0  0  0  0
 37 97  1  0  0  0  0
 38 39  1  0  0  0  0
 38 98  1  0  0  0  0
 38 99  1  0  0  0  0
 39 40  1  0  0  0  0
 39100  1  0  0  0  0
 39101  1  0  0  0  0
 40 41  1  0  0  0  0
 40102  1  0  0  0  0
 40103  1  0  0  0  0
 41 42  1  0  0  0  0
 41104  1  0  0  0  0
 41105  1  0  0  0  0
 42 43  1  0  0  0  0
 42106  1  0  0  0  0
 42107  1  0  0  0  0
 43 44  1  0  0  0  0
 43108  1  0  0  0  0
 43109  1  0  0  0  0
 44 45  1  0  0  0  0
 44110  1  0  0  0  0
 44111  1  0  0  0  0
 45 46  1  0  0  0  0
 45112  1  0  0  0  0
 45113  1  0  0  0  0
 46 47  1  0  0  0  0
 46114  1  0  0  0  0
 46115  1  0  0  0  0
 47 48  1  0  0  0  0
 47116  1  0  0  0  0
 47117  1  0  0  0  0
 48118  1  0  0  0  0
 48119  1  0  0  0  0
 48120  1  0  0  0  0
M  END
>  <DRUGBANK_ID>
DB04735

>  <COMMON_NAME>
MONOGALACTOSYL-DIACYLGLYCEROL

$$$$
