BP6
 OpenBabel10282417133D

 24 25  0  0  0  0  0  0  0  0999 V2000
   -0.7134   -1.4072   -0.0098 C   0  0  0  0  0  0  0  0  0  0  0  0
    0.4926   -0.6820   -0.0409 C   0  0  0  0  0  0  0  0  0  0  0  0
    1.7365   -1.2642   -0.0972 O   0  0  0  0  0  0  0  0  0  0  0  0
    0.4887    0.7165   -0.0161 C   0  0  0  0  0  0  0  0  0  0  0  0
    1.6699    1.4053   -0.0174 O   0  0  0  0  0  0  0  0  0  0  0  0
   -0.6971    1.4297    0.0138 C   0  0  0  0  0  0  0  0  0  0  0  0
   -1.9041    0.7391    0.0207 C   0  0  0  0  0  0  0  0  0  0  0  0
   -1.9109   -0.6617    0.0205 C   0  0  0  0  0  0  0  0  0  0  0  0
   -0.7707   -2.8898   -0.0037 C   0  0  0  0  0  0  0  0  0  0  0  0
   -0.2128   -3.6478    1.0527 C   0  0  0  0  0  0  0  0  0  0  0  0
   -0.2224   -5.0480    1.0374 C   0  0  0  0  0  0  0  0  0  0  0  0
   -0.8211   -5.7330   -0.0125 C   0  0  0  0  0  0  0  0  0  0  0  0
   -1.4087   -5.0186   -1.0503 C   0  0  0  0  0  0  0  0  0  0  0  0
   -1.3808   -3.6168   -1.0524 C   0  0  0  0  0  0  0  0  0  0  0  0
    0.5341   -2.9085    2.4326 Cl  0  0  0  0  0  0  0  0  0  0  0  0
   -2.1078   -2.8444   -2.4253 Cl  0  0  0  0  0  0  0  0  0  0  0  0
    1.6358   -2.2269   -0.0121 H   0  0  0  0  0  0  0  0  0  0  0  0
    2.3596    0.7125   -0.0308 H   0  0  0  0  0  0  0  0  0  0  0  0
   -0.6786    2.5152    0.0284 H   0  0  0  0  0  0  0  0  0  0  0  0
   -2.8427    1.2866    0.0269 H   0  0  0  0  0  0  0  0  0  0  0  0
   -2.8744   -1.1697    0.0308 H   0  0  0  0  0  0  0  0  0  0  0  0
    0.2379   -5.6079    1.8490 H   0  0  0  0  0  0  0  0  0  0  0  0
   -0.8320   -6.8202   -0.0206 H   0  0  0  0  0  0  0  0  0  0  0  0
   -1.8827   -5.5582   -1.8678 H   0  0  0  0  0  0  0  0  0  0  0  0
  1  2  2  0  0  0  0
  1  8  1  0  0  0  0
  1  9  1  0  0  0  0
  2  3  1  0  0  0  0
  2  4  1  0  0  0  0
  3 17  1  0  0  0  0
  4  5  1  0  0  0  0
  4  6  2  0  0  0  0
  5 18  1  0  0  0  0
  6  7  1  0  0  0  0
  6 19  1  0  0  0  0
  7  8  2  0  0  0  0
  7 20  1  0  0  0  0
  8 21  1  0  0  0  0
  9 10  2  0  0  0  0
  9 14  1  0  0  0  0
 10 11  1  0  0  0  0
 10 15  1  0  0  0  0
 11 12  2  0  0  0  0
 11 22  1  0  0  0  0
 12 13  1  0  0  0  0
 12 23  1  0  0  0  0
 13 14  2  0  0  0  0
 13 24  1  0  0  0  0
 14 16  1  0  0  0  0
M  END
>  <DRUGBANK_ID>
DB03259

>  <SECONDARY_ACCESSION_NUMBERS>
EXPT00743

>  <COMMON_NAME>
2',6'-Dichloro-Biphenyl-2,6-Diol

$$$$
