
 OpenBabel10282417103D

 18 18  0  0  1  0  0  0  0  0999 V2000
    0.7172    1.2963   -0.2382 C   0  0  2  0  0  0  0  0  0  0  0  0
    1.4527   -0.0010    0.1550 C   0  0  2  0  0  0  0  0  0  0  0  0
    0.7163   -1.2981   -0.2370 C   0  0  1  0  0  0  0  0  0  0  0  0
   -0.7624    1.2668    0.1966 C   0  0  2  0  0  0  0  0  0  0  0  0
   -0.7634   -1.2672    0.1973 C   0  0  1  0  0  0  0  0  0  0  0  0
   -1.5053   -0.0000   -0.2799 C   0  0  1  0  0  0  0  0  0  0  0  0
    0.9002   -1.6245   -1.9978 Cl  0  0  0  0  0  0  0  0  0  0  0  0
   -3.1880    0.0008    0.3831 Cl  0  0  0  0  0  0  0  0  0  0  0  0
    0.9004    1.6204   -1.9995 Cl  0  0  0  0  0  0  0  0  0  0  0  0
    1.6862   -0.0002    1.9529 Cl  0  0  0  0  0  0  0  0  0  0  0  0
   -1.6015    2.7834   -0.2974 Cl  0  0  0  0  0  0  0  0  0  0  0  0
   -1.6037   -2.7833   -0.2963 Cl  0  0  0  0  0  0  0  0  0  0  0  0
    1.2132    2.1500    0.2384 H   0  0  0  0  0  0  0  0  0  0  0  0
    2.4708   -0.0015   -0.2495 H   0  0  0  0  0  0  0  0  0  0  0  0
    1.2115   -2.1517    0.2409 H   0  0  0  0  0  0  0  0  0  0  0  0
   -0.7948    1.2945    1.2930 H   0  0  0  0  0  0  0  0  0  0  0  0
   -0.7961   -1.2944    1.2937 H   0  0  0  0  0  0  0  0  0  0  0  0
   -1.6085   -0.0003   -1.3708 H   0  0  0  0  0  0  0  0  0  0  0  0
  1 13  1  1  0  0  0
  1  9  1  0  0  0  0
  2  1  1  0  0  0  0
  2 14  1  6  0  0  0
  2 10  1  0  0  0  0
  3  2  1  0  0  0  0
  3  7  1  0  0  0  0
  3 15  1  1  0  0  0
  4  1  1  0  0  0  0
  4 16  1  1  0  0  0
  4 11  1  0  0  0  0
  5  3  1  0  0  0  0
  5  6  1  0  0  0  0
  5 12  1  0  0  0  0
  5 17  1  1  0  0  0
  6  4  1  0  0  0  0
  6 18  1  6  0  0  0
  6  8  1  0  0  0  0
M  END
>  <DRUGBANK_ID>
DB00431

>  <SECONDARY_ACCESSION_NUMBERS>
APRD01072

>  <COMMON_NAME>
Lindane

>  <CAS_NUMBER>
58-89-9

>  <UNII>
59NEE7PCAB

>  <SYNONYMS>
(1r,2c,3t,4c,5c,6t)-1,2,3,4,5,6-hexachlorocyclohexane; (1α,2α,3β,4α,5α,6β)-1,2,3,4,5,6-hexachlorocyclohexane; 1,2,3,4,5,6-hexachlorocyclohexane; Benzene hexachloride; gamma-1,2,3,4,5,6-hexachlorocyclohexane; gamma-benzene hexachloride; gamma-BHC; gamma-HCH; gamma-Hexachlorocyclohexane; gamma-Lindane; Gammallin; Gammaxene; Lindan; Lindane; Lindano; Lindanum; γ-hexachlorocyclohexane; γ-Hexachlorzyklohexan; γ-lindane

$$$$
