
 OpenBabel10282417203D

 63 67  0  0  1  0  0  0  0  0999 V2000
    1.0674    0.1522   -0.1276 C   0  0  0  0  0  0  0  0  0  0  0  0
    0.5744    0.3279    1.2753 C   0  0  0  0  0  0  0  0  0  0  0  0
    0.5951    1.4829    2.0100 C   0  0  0  0  0  0  0  0  0  0  0  0
    0.0623    1.2441    3.2423 N   0  0  0  0  0  0  0  0  0  0  0  0
   -0.2949   -0.0705    3.3439 C   0  0  0  0  0  0  0  0  0  0  0  0
    0.0830   -0.6651    2.1549 C   0  0  0  0  0  0  0  0  0  0  0  0
    0.0045   -2.0348    1.7846 C   0  0  0  0  0  0  0  0  0  0  0  0
    0.0564   -2.3204    0.5897 O   0  0  0  0  0  0  0  0  0  0  0  0
   -0.1108   -2.9835    2.7626 N   0  0  0  0  0  0  0  0  0  0  0  0
    0.3455   -2.7663    4.1110 C   0  0  0  0  0  0  0  0  0  0  0  0
   -0.7062   -2.0427    4.9192 C   0  0  0  0  0  0  0  0  0  0  0  0
   -0.9548   -0.5803    4.5710 C   0  0  0  0  0  0  0  0  0  0  0  0
   -0.4968   -4.3051    2.3532 C   0  0  0  0  0  0  0  0  0  0  0  0
   -1.9820   -4.3687    1.9573 C   0  0  1  0  0  0  0  0  0  0  0  0
   -2.3284   -3.5978    0.6472 C   0  0  0  0  0  0  0  0  0  0  0  0
   -1.4815   -3.9145   -0.5355 N   0  0  0  0  0  0  0  0  0  0  0  0
   -2.0573   -3.4297   -1.7971 C   0  0  0  0  0  0  0  0  0  0  0  0
   -3.3218   -4.2378   -2.1248 C   0  0  0  0  0  0  0  0  0  0  0  0
   -3.0402   -5.6554   -2.1804 O   0  0  0  0  0  0  0  0  0  0  0  0
   -2.4553   -6.0801   -0.9438 C   0  0  0  0  0  0  0  0  0  0  0  0
   -1.1491   -5.3236   -0.7068 C   0  0  0  0  0  0  0  0  0  0  0  0
   -2.4245   -5.7350    1.9529 O   0  0  0  0  0  0  0  0  0  0  0  0
    1.0871    2.7195    1.6130 C   0  0  0  0  0  0  0  0  0  0  0  0
    1.1596    3.8350    2.3273 C   0  0  0  0  0  0  0  0  0  0  0  0
    1.7178    5.0165    1.7038 C   0  0  0  0  0  0  0  0  0  0  0  0
    2.2070    5.2069    0.4234 C   0  0  0  0  0  0  0  0  0  0  0  0
    2.6826    6.4584    0.1123 C   0  0  0  0  0  0  0  0  0  0  0  0
    2.6652    7.4875    1.0611 C   0  0  0  0  0  0  0  0  0  0  0  0
    2.1578    7.2785    2.3601 C   0  0  0  0  0  0  0  0  0  0  0  0
    1.6834    6.0217    2.6656 C   0  0  0  0  0  0  0  0  0  0  0  0
    1.1301    5.5272    3.8538 N   0  0  0  0  0  0  0  0  0  0  0  0
    0.7804    4.1897    3.7285 C   0  0  0  0  0  0  0  0  0  0  0  0
    0.2797    3.4748    4.5761 O   0  0  0  0  0  0  0  0  0  0  0  0
    3.1634    6.6734   -1.1181 F   0  0  0  0  0  0  0  0  0  0  0  0
    0.7023    0.9596   -0.7673 H   0  0  0  0  0  0  0  0  0  0  0  0
    0.7422   -0.7599   -0.6245 H   0  0  0  0  0  0  0  0  0  0  0  0
    2.1608    0.1416   -0.1277 H   0  0  0  0  0  0  0  0  0  0  0  0
   -0.0368    1.9253    3.9892 H   0  0  0  0  0  0  0  0  0  0  0  0
    0.5459   -3.7412    4.5644 H   0  0  0  0  0  0  0  0  0  0  0  0
    1.2998   -2.2287    4.0760 H   0  0  0  0  0  0  0  0  0  0  0  0
   -1.6564   -2.5834    4.8244 H   0  0  0  0  0  0  0  0  0  0  0  0
   -0.4173   -2.0995    5.9728 H   0  0  0  0  0  0  0  0  0  0  0  0
   -0.6352    0.0285    5.4255 H   0  0  0  0  0  0  0  0  0  0  0  0
   -2.0372   -0.4262    4.4716 H   0  0  0  0  0  0  0  0  0  0  0  0
    0.1888   -4.5857    1.5491 H   0  0  0  0  0  0  0  0  0  0  0  0
   -0.3093   -5.0300    3.1488 H   0  0  0  0  0  0  0  0  0  0  0  0
   -2.5846   -3.9152    2.7501 H   0  0  0  0  0  0  0  0  0  0  0  0
   -3.3932   -3.7297    0.4475 H   0  0  0  0  0  0  0  0  0  0  0  0
   -2.2677   -2.5183    0.8518 H   0  0  0  0  0  0  0  0  0  0  0  0
   -1.3154   -3.5808   -2.5959 H   0  0  0  0  0  0  0  0  0  0  0  0
   -2.2468   -2.3510   -1.7592 H   0  0  0  0  0  0  0  0  0  0  0  0
   -4.1033   -4.0586   -1.3777 H   0  0  0  0  0  0  0  0  0  0  0  0
   -3.7337   -3.9354   -3.0862 H   0  0  0  0  0  0  0  0  0  0  0  0
   -2.2675   -7.1546   -0.9266 H   0  0  0  0  0  0  0  0  0  0  0  0
   -3.2055   -5.8900   -0.1696 H   0  0  0  0  0  0  0  0  0  0  0  0
   -0.4471   -5.4501   -1.5411 H   0  0  0  0  0  0  0  0  0  0  0  0
   -0.5717   -5.7034    0.1361 H   0  0  0  0  0  0  0  0  0  0  0  0
   -1.8112   -6.2582    1.4147 H   0  0  0  0  0  0  0  0  0  0  0  0
    1.4608    2.7211    0.5935 H   0  0  0  0  0  0  0  0  0  0  0  0
    2.2271    4.4232   -0.3228 H   0  0  0  0  0  0  0  0  0  0  0  0
    3.0560    8.4542    0.7621 H   0  0  0  0  0  0  0  0  0  0  0  0
    2.1502    8.0890    3.0775 H   0  0  0  0  0  0  0  0  0  0  0  0
    0.9783    6.0206    4.7203 H   0  0  0  0  0  0  0  0  0  0  0  0
  1  2  1  0  0  0  0
  1 35  1  0  0  0  0
  1 36  1  0  0  0  0
  1 37  1  0  0  0  0
  2  3  2  0  0  0  0
  2  6  1  0  0  0  0
  3  4  1  0  0  0  0
  3 23  1  0  0  0  0
  4  5  1  0  0  0  0
  4 38  1  0  0  0  0
  5  6  2  0  0  0  0
  5 12  1  0  0  0  0
  6  7  1  0  0  0  0
  7  8  2  0  0  0  0
  7  9  1  0  0  0  0
  9 10  1  0  0  0  0
  9 13  1  0  0  0  0
 10 11  1  0  0  0  0
 10 39  1  0  0  0  0
 10 40  1  0  0  0  0
 11 12  1  0  0  0  0
 11 41  1  0  0  0  0
 11 42  1  0  0  0  0
 12 43  1  0  0  0  0
 12 44  1  0  0  0  0
 13 14  1  0  0  0  0
 13 45  1  0  0  0  0
 13 46  1  0  0  0  0
 14 15  1  0  0  0  0
 14 22  1  0  0  0  0
 14 47  1  1  0  0  0
 15 16  1  0  0  0  0
 15 48  1  0  0  0  0
 15 49  1  0  0  0  0
 16 17  1  0  0  0  0
 16 21  1  0  0  0  0
 17 18  1  0  0  0  0
 17 50  1  0  0  0  0
 17 51  1  0  0  0  0
 18 19  1  0  0  0  0
 18 52  1  0  0  0  0
 18 53  1  0  0  0  0
 19 20  1  0  0  0  0
 20 21  1  0  0  0  0
 20 54  1  0  0  0  0
 20 55  1  0  0  0  0
 21 56  1  0  0  0  0
 21 57  1  0  0  0  0
 22 58  1  0  0  0  0
 23 24  2  0  0  0  0
 23 59  1  0  0  0  0
 24 25  1  0  0  0  0
 24 32  1  0  0  0  0
 25 26  2  0  0  0  0
 25 30  1  0  0  0  0
 26 27  1  0  0  0  0
 26 60  1  0  0  0  0
 27 28  2  0  0  0  0
 27 34  1  0  0  0  0
 28 29  1  0  0  0  0
 28 61  1  0  0  0  0
 29 30  2  0  0  0  0
 29 62  1  0  0  0  0
 30 31  1  0  0  0  0
 31 32  1  0  0  0  0
 31 63  1  0  0  0  0
 32 33  2  0  0  0  0
M  END
>  <DRUGBANK_ID>
DB13019

>  <COMMON_NAME>
Henatinib

>  <CAS_NUMBER>
1239269-51-2

>  <UNII>
TE20GB753F

$$$$
