
 OpenBabel10282417123D

 62 67  0  0  1  0  0  0  0  0999 V2000
    0.6454   -1.2495    0.2835 C   0  0  0  0  0  0  0  0  0  0  0  0
   -0.8272   -1.2225   -0.1782 C   0  0  0  0  0  0  0  0  0  0  0  0
   -1.4311    0.0296    0.2536 N   0  0  0  0  0  0  0  0  0  0  0  0
   -0.7618    1.2376   -0.2034 C   0  0  0  0  0  0  0  0  0  0  0  0
    0.7357    1.1888    0.2485 C   0  0  2  0  0  0  0  0  0  0  0  0
    1.4956    2.3620   -0.3868 C   0  0  0  0  0  0  0  0  0  0  0  0
    1.0463    3.7309    0.0576 C   0  0  0  0  0  0  0  0  0  0  0  0
    1.4757    4.2870    1.2689 C   0  0  0  0  0  0  0  0  0  0  0  0
    1.1334    5.6018    1.5945 C   0  0  0  0  0  0  0  0  0  0  0  0
    0.3698    6.3665    0.7124 C   0  0  0  0  0  0  0  0  0  0  0  0
   -0.0692    5.8145   -0.4875 C   0  0  0  0  0  0  0  0  0  0  0  0
    0.2326    4.4910   -0.7934 C   0  0  0  0  0  0  0  0  0  0  0  0
    1.4245   -0.0759   -0.1686 N   0  0  0  0  0  0  0  0  0  0  0  0
   -2.5892    0.0967    0.9858 C   0  0  0  0  0  0  0  0  0  0  0  0
   -3.6585    0.7753    0.5272 N   0  0  0  0  0  0  0  0  0  0  0  0
   -4.8607    0.8172    1.2428 N   0  0  0  0  0  0  0  0  0  0  0  0
   -4.9694    0.2045    2.4420 C   0  0  0  0  0  0  0  0  0  0  0  0
   -6.2109    0.4590    3.2121 C   0  0  0  0  0  0  0  0  0  0  0  0
   -6.1164    1.1550    4.4211 C   0  0  0  0  0  0  0  0  0  0  0  0
   -7.2106    1.5117    5.2145 C   0  0  0  0  0  0  0  0  0  0  0  0
   -7.0526    2.4555    6.2274 C   0  0  0  0  0  0  0  0  0  0  0  0
   -8.1526    3.0265    6.8378 C   0  0  0  0  0  0  0  0  0  0  0  0
   -8.9545    2.0296    7.2876 C   0  0  0  0  0  0  0  0  0  0  0  0
   -9.3320    1.1643    6.2230 C   0  0  0  0  0  0  0  0  0  0  0  0
   -8.4854    0.9721    5.0127 C   0  0  0  0  0  0  0  0  0  0  0  0
   -8.6143    0.3426    3.6948 C   0  0  0  0  0  0  0  0  0  0  0  0
   -7.5040    0.0937    2.8197 C   0  0  0  0  0  0  0  0  0  0  0  0
   -3.8681   -0.4856    2.9799 C   0  0  0  0  0  0  0  0  0  0  0  0
   -2.6802   -0.5274    2.2234 C   0  0  0  0  0  0  0  0  0  0  0  0
   -3.9377   -1.1793    4.2801 C   0  0  0  0  0  0  0  0  0  0  0  0
   -3.1397   -0.8086    5.3696 C   0  0  0  0  0  0  0  0  0  0  0  0
   -3.2846   -1.4967    6.5665 C   0  0  0  0  0  0  0  0  0  0  0  0
   -4.1519   -2.5140    6.7503 N   0  0  0  0  0  0  0  0  0  0  0  0
   -4.9242   -2.8478    5.6977 C   0  0  0  0  0  0  0  0  0  0  0  0
   -4.8568   -2.2186    4.4675 C   0  0  0  0  0  0  0  0  0  0  0  0
    0.6853   -1.2937    1.3778 H   0  0  0  0  0  0  0  0  0  0  0  0
    1.1296   -2.1570   -0.0936 H   0  0  0  0  0  0  0  0  0  0  0  0
   -1.3652   -2.1015    0.1897 H   0  0  0  0  0  0  0  0  0  0  0  0
   -0.8576   -1.2645   -1.2765 H   0  0  0  0  0  0  0  0  0  0  0  0
   -0.8011    1.2712   -1.3002 H   0  0  0  0  0  0  0  0  0  0  0  0
   -1.2466    2.1428    0.1757 H   0  0  0  0  0  0  0  0  0  0  0  0
    0.7912    1.2471    1.3450 H   0  0  0  0  0  0  0  0  0  0  0  0
    2.5761    2.2790   -0.2107 H   0  0  0  0  0  0  0  0  0  0  0  0
    1.3776    2.2964   -1.4774 H   0  0  0  0  0  0  0  0  0  0  0  0
    2.0976    3.7141    1.9536 H   0  0  0  0  0  0  0  0  0  0  0  0
    1.4843    6.0424    2.5243 H   0  0  0  0  0  0  0  0  0  0  0  0
    0.1160    7.3941    0.9574 H   0  0  0  0  0  0  0  0  0  0  0  0
   -0.6311    6.4162   -1.1963 H   0  0  0  0  0  0  0  0  0  0  0  0
   -0.1554    4.0596   -1.7134 H   0  0  0  0  0  0  0  0  0  0  0  0
    1.4584   -0.0921   -1.1890 H   0  0  0  0  0  0  0  0  0  0  0  0
   -5.1298    1.4895    4.7474 H   0  0  0  0  0  0  0  0  0  0  0  0
   -6.0718    2.5524    6.6865 H   0  0  0  0  0  0  0  0  0  0  0  0
   -8.8063    3.6219    6.1508 H   0  0  0  0  0  0  0  0  0  0  0  0
   -8.6108    1.6865    8.2821 H   0  0  0  0  0  0  0  0  0  0  0  0
  -10.3381    0.7483    6.2764 H   0  0  0  0  0  0  0  0  0  0  0  0
   -9.6015    0.0788    3.3022 H   0  0  0  0  0  0  0  0  0  0  0  0
   -7.6423   -0.4102    1.8598 H   0  0  0  0  0  0  0  0  0  0  0  0
   -1.8041   -1.0322    2.6223 H   0  0  0  0  0  0  0  0  0  0  0  0
   -2.4367    0.0162    5.3086 H   0  0  0  0  0  0  0  0  0  0  0  0
   -2.6919   -1.2377    7.4397 H   0  0  0  0  0  0  0  0  0  0  0  0
   -5.6249   -3.6596    5.8678 H   0  0  0  0  0  0  0  0  0  0  0  0
   -5.5285   -2.5246    3.6716 H   0  0  0  0  0  0  0  0  0  0  0  0
  1  2  1  0  0  0  0
  1 13  1  0  0  0  0
  1 36  1  0  0  0  0
  1 37  1  0  0  0  0
  2  3  1  0  0  0  0
  2 38  1  0  0  0  0
  2 39  1  0  0  0  0
  3  4  1  0  0  0  0
  3 14  1  0  0  0  0
  4  5  1  0  0  0  0
  4 40  1  0  0  0  0
  4 41  1  0  0  0  0
  5 13  1  0  0  0  0
  5 42  1  1  0  0  0
  5  6  1  0  0  0  0
  6  7  1  0  0  0  0
  6 43  1  0  0  0  0
  6 44  1  0  0  0  0
  7  8  2  0  0  0  0
  7 12  1  0  0  0  0
  8  9  1  0  0  0  0
  8 45  1  0  0  0  0
  9 10  2  0  0  0  0
  9 46  1  0  0  0  0
 10 11  1  0  0  0  0
 10 47  1  0  0  0  0
 11 12  2  0  0  0  0
 11 48  1  0  0  0  0
 12 49  1  0  0  0  0
 13 50  1  0  0  0  0
 14 15  2  0  0  0  0
 14 29  1  0  0  0  0
 15 16  1  0  0  0  0
 16 17  2  0  0  0  0
 17 18  1  0  0  0  0
 17 28  1  0  0  0  0
 18 19  2  0  0  0  0
 18 27  1  0  0  0  0
 19 20  1  0  0  0  0
 19 51  1  0  0  0  0
 20 21  2  0  0  0  0
 20 25  1  0  0  0  0
 21 22  1  0  0  0  0
 21 52  1  0  0  0  0
 22 23  2  0  0  0  0
 22 53  1  0  0  0  0
 23 24  1  0  0  0  0
 23 54  1  0  0  0  0
 24 25  2  0  0  0  0
 24 55  1  0  0  0  0
 25 26  1  0  0  0  0
 26 27  2  0  0  0  0
 26 56  1  0  0  0  0
 27 57  1  0  0  0  0
 28 29  2  0  0  0  0
 28 30  1  0  0  0  0
 29 58  1  0  0  0  0
 30 31  2  0  0  0  0
 30 35  1  0  0  0  0
 31 32  1  0  0  0  0
 31 59  1  0  0  0  0
 32 33  2  0  0  0  0
 32 60  1  0  0  0  0
 33 34  1  0  0  0  0
 34 35  2  0  0  0  0
 34 61  1  0  0  0  0
 35 62  1  0  0  0  0
M  END
>  <DRUGBANK_ID>
DB01988

>  <SECONDARY_ACCESSION_NUMBERS>
EXPT00289

>  <COMMON_NAME>
6((S)-3-Benzylpiperazin-1-Yl)-3-(Naphthalen-2-Yl)-4-(Pyridin-4-Yl)Pyrazine

$$$$
