
 OpenBabel10282417113D

 51 54  0  0  0  0  0  0  0  0999 V2000
    0.6359   -0.8963   -0.2938 C   0  0  0  0  0  0  0  0  0  0  0  0
    1.1123   -2.2008   -0.9379 C   0  0  1  0  0  0  0  0  0  0  0  0
    1.2827   -2.2186   -2.4874 C   0  0  0  0  0  0  0  0  0  0  0  0
    0.8150   -0.9541   -3.2479 C   0  0  1  0  0  0  0  0  0  0  0  0
    1.1435    0.2716   -2.3844 C   0  0  2  0  0  0  0  0  0  0  0  0
    0.2755    0.0926   -1.1290 C   0  0  0  0  0  0  0  0  0  0  0  0
    0.7342    1.5568   -3.1109 C   0  0  2  0  0  0  0  0  0  0  0  0
    1.5034    1.7200   -4.4877 C   0  0  1  0  0  0  0  0  0  0  0  0
    1.1584    0.4916   -5.3617 C   0  0  0  0  0  0  0  0  0  0  0  0
    1.4531   -0.8459   -4.6459 C   0  0  0  0  0  0  0  0  0  0  0  0
    1.1552    3.0921   -5.1227 C   0  0  1  0  0  0  0  0  0  0  0  0
    1.1702    4.1204   -4.0809 C   0  0  2  0  0  0  0  0  0  0  0  0
    0.4349    3.9914   -2.7929 C   0  0  0  0  0  0  0  0  0  0  0  0
    0.8982    2.7359   -2.1351 C   0  0  0  0  0  0  0  0  0  0  0  0
    0.4558    5.2067   -5.0252 C   0  0  2  0  0  0  0  0  0  0  0  0
    1.7904    5.7778   -5.2200 C   0  0  0  0  0  0  0  0  0  0  0  0
    2.1980    4.1388   -5.9904 C   0  0  0  0  0  0  0  0  0  0  0  0
   -0.8588    5.4519   -4.8338 O   0  0  0  0  0  0  0  0  0  0  0  0
    2.9082    4.1556   -3.6464 C   0  0  0  0  0  0  0  0  0  0  0  0
    0.1563    2.9906   -5.5796 H   0  0  0  0  0  0  0  0  0  0  0  0
    2.5824    1.6810   -4.3419 H   0  0  0  0  0  0  0  0  0  0  0  0
   -0.3415    1.5030   -3.3528 H   0  0  0  0  0  0  0  0  0  0  0  0
    2.6812    0.3086   -2.0723 C   0  0  0  0  0  0  0  0  0  0  0  0
   -0.2772   -1.0210   -3.3930 H   0  0  0  0  0  0  0  0  0  0  0  0
    0.4447   -3.3749   -0.5069 O   0  0  0  0  0  0  0  0  0  0  0  0
    1.5303   -0.5398    0.2559 H   0  0  0  0  0  0  0  0  0  0  0  0
    2.1039   -2.3093   -0.5011 H   0  0  0  0  0  0  0  0  0  0  0  0
    0.8623   -3.1084   -2.9668 H   0  0  0  0  0  0  0  0  0  0  0  0
    2.3650   -2.3164   -2.6225 H   0  0  0  0  0  0  0  0  0  0  0  0
   -0.8013    0.1928   -1.3063 H   0  0  0  0  0  0  0  0  0  0  0  0
    1.7449    0.5258   -6.2865 H   0  0  0  0  0  0  0  0  0  0  0  0
    0.1001    0.5122   -5.6509 H   0  0  0  0  0  0  0  0  0  0  0  0
    2.5391   -0.9593   -4.5572 H   0  0  0  0  0  0  0  0  0  0  0  0
    1.1136   -1.6816   -5.2695 H   0  0  0  0  0  0  0  0  0  0  0  0
    0.6756    4.8561   -2.1648 H   0  0  0  0  0  0  0  0  0  0  0  0
   -0.6418    3.9659   -2.9527 H   0  0  0  0  0  0  0  0  0  0  0  0
    1.9368    2.8376   -1.8167 H   0  0  0  0  0  0  0  0  0  0  0  0
    0.3357    2.6169   -1.2082 H   0  0  0  0  0  0  0  0  0  0  0  0
    0.3652    5.2081   -6.1316 H   0  0  0  0  0  0  0  0  0  0  0  0
    1.8651    6.7159   -5.7370 H   0  0  0  0  0  0  0  0  0  0  0  0
    1.9849    6.0694   -4.1512 H   0  0  0  0  0  0  0  0  0  0  0  0
    2.1365    3.3657   -6.7763 H   0  0  0  0  0  0  0  0  0  0  0  0
    1.8604    4.6314   -6.9299 H   0  0  0  0  0  0  0  0  0  0  0  0
   -1.2752    4.7528   -5.4139 H   0  0  0  0  0  0  0  0  0  0  0  0
    3.2609    3.2227   -3.1989 H   0  0  0  0  0  0  0  0  0  0  0  0
    3.6202    4.2572   -4.4907 H   0  0  0  0  0  0  0  0  0  0  0  0
    3.1463    4.9793   -2.9727 H   0  0  0  0  0  0  0  0  0  0  0  0
    2.9617    1.1385   -1.4233 H   0  0  0  0  0  0  0  0  0  0  0  0
    3.0484   -0.5848   -1.5668 H   0  0  0  0  0  0  0  0  0  0  0  0
    3.2875    0.3740   -2.9793 H   0  0  0  0  0  0  0  0  0  0  0  0
    0.7680   -4.0876   -1.0925 H   0  0  0  0  0  0  0  0  0  0  0  0
  1  2  1  0  0  0  0
  1  6  2  0  0  0  0
  1 26  1  0  0  0  0
  2  3  1  0  0  0  0
  2 25  1  0  0  0  0
  2 27  1  6  0  0  0
  3  4  1  0  0  0  0
  3 28  1  0  0  0  0
  3 29  1  0  0  0  0
  4  5  1  0  0  0  0
  4 10  1  0  0  0  0
  4 24  1  6  0  0  0
  5  6  1  0  0  0  0
  5  7  1  0  0  0  0
  5 23  1  1  0  0  0
  6 30  1  0  0  0  0
  7 14  1  0  0  0  0
  7 22  1  6  0  0  0
  8  7  1  0  0  0  0
  8 11  1  0  0  0  0
  8 21  1  1  0  0  0
  9  8  1  0  0  0  0
  9 31  1  0  0  0  0
  9 32  1  0  0  0  0
 10  9  1  0  0  0  0
 10 33  1  0  0  0  0
 10 34  1  0  0  0  0
 11 12  1  0  0  0  0
 11 17  1  0  0  0  0
 11 20  1  6  0  0  0
 12 13  1  0  0  0  0
 12 15  1  0  0  0  0
 12 19  1  1  0  0  0
 13 14  1  0  0  0  0
 13 35  1  0  0  0  0
 13 36  1  0  0  0  0
 14 37  1  0  0  0  0
 14 38  1  0  0  0  0
 15 39  1  6  0  0  0
 15 18  1  0  0  0  0
 16 15  1  0  0  0  0
 16 40  1  0  0  0  0
 16 41  1  0  0  0  0
 17 16  1  0  0  0  0
 17 42  1  0  0  0  0
 17 43  1  0  0  0  0
 18 44  1  0  0  0  0
 19 45  1  0  0  0  0
 19 46  1  0  0  0  0
 19 47  1  0  0  0  0
 23 48  1  0  0  0  0
 23 49  1  0  0  0  0
 23 50  1  0  0  0  0
 25 51  1  0  0  0  0
M  END
>  <DRUGBANK_ID>
DB01503

>  <COMMON_NAME>
1-Androstenediol

>  <CAS_NUMBER>
5323-27-3

>  <UNII>
V7W74907I7

$$$$
