
 OpenBabel10282417213D

 44 47  0  0  0  0  0  0  0  0999 V2000
    0.3662   -1.0703   -0.0410 N   0  0  0  0  0  0  0  0  0  0  0  0
   -0.9219   -0.6527    0.0004 C   0  0  0  0  0  0  0  0  0  0  0  0
    1.3633   -0.1444   -0.0119 C   0  0  0  0  0  0  0  0  0  0  0  0
   -0.9933    1.0828    0.0435 S   0  0  0  0  0  0  0  0  0  0  0  0
    0.8280    1.2648    0.0366 C   0  0  3  0  0  0  0  0  0  0  0  0
   -0.7807    7.3227   -0.8817 O   0  0  0  0  0  0  0  0  0  0  0  0
   -0.2847    6.0514   -1.0185 C   0  0  0  0  0  0  0  0  0  0  0  0
   -0.5001    5.2528   -2.1512 C   0  0  0  0  0  0  0  0  0  0  0  0
   -1.9002   -1.3721    0.0114 O   0  0  0  0  0  0  0  0  0  0  0  0
    1.3368    2.0767   -1.1538 C   0  0  0  0  0  0  0  0  0  0  0  0
    2.5520   -0.4379   -0.0119 O   0  0  0  0  0  0  0  0  0  0  0  0
    0.0198    3.9576   -2.1864 C   0  0  0  0  0  0  0  0  0  0  0  0
   -1.8444    7.6084   -1.8011 C   0  0  1  0  0  0  0  0  0  0  0  0
    0.8083    3.4881   -1.1315 C   0  0  0  0  0  0  0  0  0  0  0  0
    0.5040    5.5937    0.0294 C   0  0  0  0  0  0  0  0  0  0  0  0
   -1.2715    5.7683   -3.3297 C   0  0  0  0  0  0  0  0  0  0  0  0
   -2.2138    9.0870   -1.6720 C   0  0  0  0  0  0  0  0  0  0  0  0
    1.0640    4.3229   -0.0342 C   0  0  0  0  0  0  0  0  0  0  0  0
   -1.4067    7.2740   -3.2269 C   0  0  0  0  0  0  0  0  0  0  0  0
   -3.3770    9.4485   -2.5611 C   0  0  0  0  0  0  0  0  0  0  0  0
   -4.6065    8.7901   -2.4103 C   0  0  0  0  0  0  0  0  0  0  0  0
   -3.2409   10.4245   -3.5539 C   0  0  0  0  0  0  0  0  0  0  0  0
   -4.3440   10.7952   -4.3211 C   0  0  0  0  0  0  0  0  0  0  0  0
   -5.6870    9.1149   -3.2237 C   0  0  0  0  0  0  0  0  0  0  0  0
   -5.5574   10.1238   -4.1738 C   0  0  0  0  0  0  0  0  0  0  0  0
    0.5741   -2.0548   -0.0570 H   0  0  0  0  0  0  0  0  0  0  0  0
    1.1312    1.7059    0.9916 H   0  0  0  0  0  0  0  0  0  0  0  0
    2.4339    2.1260   -1.1454 H   0  0  0  0  0  0  0  0  0  0  0  0
    1.0773    1.5810   -2.1000 H   0  0  0  0  0  0  0  0  0  0  0  0
   -0.1940    3.3178   -3.0407 H   0  0  0  0  0  0  0  0  0  0  0  0
   -2.7070    6.9963   -1.5022 H   0  0  0  0  0  0  0  0  0  0  0  0
    0.6811    6.2262    0.8940 H   0  0  0  0  0  0  0  0  0  0  0  0
   -2.2644    5.3019   -3.3538 H   0  0  0  0  0  0  0  0  0  0  0  0
   -0.7554    5.5199   -4.2635 H   0  0  0  0  0  0  0  0  0  0  0  0
   -2.4852    9.3181   -0.6335 H   0  0  0  0  0  0  0  0  0  0  0  0
   -1.3383    9.7142   -1.8858 H   0  0  0  0  0  0  0  0  0  0  0  0
    1.6817    3.9829    0.7928 H   0  0  0  0  0  0  0  0  0  0  0  0
   -2.1157    7.6202   -3.9834 H   0  0  0  0  0  0  0  0  0  0  0  0
   -0.4372    7.7473   -3.4312 H   0  0  0  0  0  0  0  0  0  0  0  0
   -4.7264    8.0073   -1.6646 H   0  0  0  0  0  0  0  0  0  0  0  0
   -2.2781   10.8962   -3.7394 H   0  0  0  0  0  0  0  0  0  0  0  0
   -4.2600   11.6148   -5.0291 H   0  0  0  0  0  0  0  0  0  0  0  0
   -6.6313    8.5927   -3.0995 H   0  0  0  0  0  0  0  0  0  0  0  0
   -6.4033   10.3866   -4.8020 H   0  0  0  0  0  0  0  0  0  0  0  0
  1 26  1  0  0  0  0
  2  1  1  0  0  0  0
  3  1  1  0  0  0  0
  4  2  1  0  0  0  0
  4  5  1  0  0  0  0
  5  3  1  0  0  0  0
  5 27  1  0  0  0  0
  6  7  1  0  0  0  0
  7 15  2  0  0  0  0
  7  8  1  0  0  0  0
  8 12  2  0  0  0  0
  9  2  2  0  0  0  0
 10  5  1  0  0  0  0
 10 28  1  0  0  0  0
 10 29  1  0  0  0  0
 11  3  2  0  0  0  0
 12 14  1  0  0  0  0
 12 30  1  0  0  0  0
 13  6  1  0  0  0  0
 13 17  1  0  0  0  0
 13 19  1  0  0  0  0
 13 31  1  1  0  0  0
 14 10  1  0  0  0  0
 15 18  1  0  0  0  0
 15 32  1  0  0  0  0
 16  8  1  0  0  0  0
 16 33  1  0  0  0  0
 16 34  1  0  0  0  0
 17 35  1  0  0  0  0
 17 36  1  0  0  0  0
 18 14  2  0  0  0  0
 18 37  1  0  0  0  0
 19 16  1  0  0  0  0
 19 38  1  0  0  0  0
 19 39  1  0  0  0  0
 20 17  1  0  0  0  0
 21 20  2  0  0  0  0
 21 40  1  0  0  0  0
 22 20  1  0  0  0  0
 22 41  1  0  0  0  0
 23 22  2  0  0  0  0
 23 42  1  0  0  0  0
 24 21  1  0  0  0  0
 24 43  1  0  0  0  0
 25 23  1  0  0  0  0
 25 24  2  0  0  0  0
 25 44  1  0  0  0  0
M  END
>  <DRUGBANK_ID>
DB14035

>  <COMMON_NAME>
Englitazone

>  <CAS_NUMBER>
109229-58-5

>  <UNII>
ZQW5577C3O

>  <SYNONYMS>
Englitazone

$$$$
