
 OpenBabel10282417243D

 73 76  0  0  1  0  0  0  0  0999 V2000
    1.4516    0.1401    2.4545 C   0  0  0  0  0  0  0  0  0  0  0  0
   -1.2639   -3.8029    1.8642 C   0  0  0  0  0  0  0  0  0  0  0  0
   -0.5129   -2.3376    3.7261 C   0  0  0  0  0  0  0  0  0  0  0  0
   -0.6673   -3.2009   -5.4004 C   0  0  0  0  0  0  0  0  0  0  0  0
   -0.0079   -3.4817   -4.2041 C   0  0  0  0  0  0  0  0  0  0  0  0
   -1.2941   -1.9647   -5.6042 C   0  0  0  0  0  0  0  0  0  0  0  0
    0.0046   -2.5263   -3.2027 C   0  0  0  0  0  0  0  0  0  0  0  0
   -1.2278   -0.9776   -4.6314 C   0  0  0  0  0  0  0  0  0  0  0  0
   -5.0059   -1.3199    0.1167 C   0  0  0  0  0  0  0  0  0  0  0  0
   -5.7854   -1.7400    1.2011 C   0  0  0  0  0  0  0  0  0  0  0  0
   -6.6500   -4.0781    4.8104 C   0  0  0  0  0  0  0  0  0  0  0  0
  -10.6407   -4.5807    4.7952 C   0  0  0  0  0  0  0  0  0  0  0  0
   -9.3112   -5.1859    4.9856 C   0  0  0  0  0  0  0  0  0  0  0  0
   -9.4169   -3.3701    6.8535 C   0  0  0  0  0  0  0  0  0  0  0  0
   -6.4946   -3.7003    3.4974 C   0  0  0  0  0  0  0  0  0  0  0  0
   -7.9394   -3.3896    7.3922 C   0  0  0  0  0  0  0  0  0  0  0  0
    0.4500   -2.0064    1.4533 C   0  0  0  0  0  0  0  0  0  0  0  0
   -1.0170   -0.0385    1.7384 C   0  0  0  0  0  0  0  0  0  0  0  0
    0.4414   -0.4714    1.4999 C   0  0  1  0  0  0  0  0  0  0  0  0
   -0.6213   -1.2917   -3.4256 C   0  0  0  0  0  0  0  0  0  0  0  0
   -3.5969   -1.1490    0.2223 C   0  0  0  0  0  0  0  0  0  0  0  0
   -5.1394   -1.9331    2.4164 C   0  0  0  0  0  0  0  0  0  0  0  0
   -6.3957   -2.9377    5.5633 C   0  0  0  0  0  0  0  0  0  0  0  0
   -3.0322   -1.4132    1.5018 C   0  0  0  0  0  0  0  0  0  0  0  0
   -2.7538   -0.7231   -1.0160 C   0  0  0  0  0  0  0  0  0  0  0  0
   -0.8173   -2.3919    2.2256 C   0  0  0  0  0  0  0  0  0  0  0  0
   -9.5367   -3.6745    5.3784 C   0  0  0  0  0  0  0  0  0  0  0  0
   -9.2898   -2.3484    4.6340 C   0  0  0  0  0  0  0  0  0  0  0  0
  -10.4293   -1.6164    4.6050 F   0  0  0  0  0  0  0  0  0  0  0  0
   -8.4251   -1.5521    5.3025 F   0  0  0  0  0  0  0  0  0  0  0  0
   -8.8512   -2.4909    3.3703 F   0  0  0  0  0  0  0  0  0  0  0  0
   -3.8010   -1.7860    2.5633 N   0  0  0  0  0  0  0  0  0  0  0  0
   -5.7502   -2.0165    4.8319 N   0  0  0  0  0  0  0  0  0  0  0  0
   -1.4707   -0.6466   -0.9425 N   0  0  0  0  0  0  0  0  0  0  0  0
   -1.7115   -1.3022    1.8346 N   0  0  0  0  0  0  0  0  0  0  0  0
   -5.8372   -2.4887    3.5348 N   0  0  0  0  0  0  0  0  0  0  0  0
   -3.5121   -0.4807   -1.9822 O   0  5  0  0  0  0  0  0  0  0  0  0
   -0.9051    1.2193   -2.6055 O   0  0  0  0  0  0  0  0  0  0  0  0
    0.8593   -0.2079   -1.7069 O   0  0  0  0  0  0  0  0  0  0  0  0
   -6.8628   -2.5962    6.8045 O   0  0  0  0  0  0  0  0  0  0  0  0
   -0.5371   -0.1072   -2.1423 S   0  0  0  0  0  0  0  0  0  0  0  0
    2.3096    1.3218   -0.4891 K   0  3  0  0  0  0  0  0  0  0  0  0
    0.7156   -0.1503    0.5107 H   0  0  0  0  0  0  0  0  0  0  0  0
    1.5906    1.1988    2.2188 H   0  0  0  0  0  0  0  0  0  0  0  0
    2.4204   -0.3604    2.3584 H   0  0  0  0  0  0  0  0  0  0  0  0
    1.1459    0.0925    3.4997 H   0  0  0  0  0  0  0  0  0  0  0  0
   -0.4742   -4.5222    2.1189 H   0  0  0  0  0  0  0  0  0  0  0  0
   -2.1548   -4.0889    2.4326 H   0  0  0  0  0  0  0  0  0  0  0  0
   -1.4831   -3.9179    0.7985 H   0  0  0  0  0  0  0  0  0  0  0  0
   -0.1401   -1.3636    4.0429 H   0  0  0  0  0  0  0  0  0  0  0  0
   -1.4082   -2.5299    4.3189 H   0  0  0  0  0  0  0  0  0  0  0  0
    0.2590   -3.0718    3.9852 H   0  0  0  0  0  0  0  0  0  0  0  0
   -0.6990   -3.9535   -6.1812 H   0  0  0  0  0  0  0  0  0  0  0  0
    0.4732   -4.4415   -4.0431 H   0  0  0  0  0  0  0  0  0  0  0  0
   -1.8536   -1.7740   -6.5142 H   0  0  0  0  0  0  0  0  0  0  0  0
    0.4943   -2.7337   -2.2538 H   0  0  0  0  0  0  0  0  0  0  0  0
   -1.6669    0.0049   -4.7876 H   0  0  0  0  0  0  0  0  0  0  0  0
   -5.5067   -1.1224   -0.8333 H   0  0  0  0  0  0  0  0  0  0  0  0
   -6.8581   -1.8603    1.0703 H   0  0  0  0  0  0  0  0  0  0  0  0
   -7.1037   -4.9700    5.1781 H   0  0  0  0  0  0  0  0  0  0  0  0
  -10.9132   -4.4867    3.7446 H   0  0  0  0  0  0  0  0  0  0  0  0
  -11.4426   -4.9487    5.4193 H   0  0  0  0  0  0  0  0  0  0  0  0
   -9.1784   -5.9209    5.7868 H   0  0  0  0  0  0  0  0  0  0  0  0
   -8.8032   -5.5265    4.0847 H   0  0  0  0  0  0  0  0  0  0  0  0
  -10.0433   -4.0661    7.4317 H   0  0  0  0  0  0  0  0  0  0  0  0
   -9.8748   -2.3858    7.0278 H   0  0  0  0  0  0  0  0  0  0  0  0
   -6.7547   -4.1798    2.5619 H   0  0  0  0  0  0  0  0  0  0  0  0
   -7.6118   -4.4241    7.5311 H   0  0  0  0  0  0  0  0  0  0  0  0
   -8.0451   -2.9756    8.4069 H   0  0  0  0  0  0  0  0  0  0  0  0
    0.3765   -2.3329    0.4047 H   0  0  0  0  0  0  0  0  0  0  0  0
    1.3690   -2.4500    1.8500 H   0  0  0  0  0  0  0  0  0  0  0  0
   -1.1309    0.5401    2.6606 H   0  0  0  0  0  0  0  0  0  0  0  0
   -1.3632    0.6253    0.9409 H   0  0  0  0  0  0  0  0  0  0  0  0
  1 44  1  0  0  0  0
  1 45  1  0  0  0  0
  1 46  1  0  0  0  0
  2 26  1  0  0  0  0
  2 47  1  0  0  0  0
  2 48  1  0  0  0  0
  2 49  1  0  0  0  0
  3 26  1  0  0  0  0
  3 50  1  0  0  0  0
  3 51  1  0  0  0  0
  3 52  1  0  0  0  0
  4  5  2  0  0  0  0
  4  6  1  0  0  0  0
  4 53  1  0  0  0  0
  5  7  1  0  0  0  0
  5 54  1  0  0  0  0
  6  8  2  0  0  0  0
  6 55  1  0  0  0  0
  7 20  2  0  0  0  0
  7 56  1  0  0  0  0
  8 20  1  0  0  0  0
  8 57  1  0  0  0  0
  9 10  2  0  0  0  0
  9 21  1  0  0  0  0
  9 58  1  0  0  0  0
 10 22  1  0  0  0  0
 10 59  1  0  0  0  0
 11 15  2  0  0  0  0
 11 23  1  0  0  0  0
 11 60  1  0  0  0  0
 12 13  1  0  0  0  0
 12 27  1  0  0  0  0
 12 61  1  0  0  0  0
 12 62  1  0  0  0  0
 13 27  1  0  0  0  0
 13 63  1  0  0  0  0
 13 64  1  0  0  0  0
 14 16  1  0  0  0  0
 14 27  1  0  0  0  0
 14 65  1  0  0  0  0
 14 66  1  0  0  0  0
 15 36  1  0  0  0  0
 15 67  1  0  0  0  0
 16 40  1  0  0  0  0
 16 68  1  0  0  0  0
 16 69  1  0  0  0  0
 17 26  1  0  0  0  0
 17 70  1  0  0  0  0
 17 71  1  0  0  0  0
 18 35  1  0  0  0  0
 18 72  1  0  0  0  0
 18 73  1  0  0  0  0
 19 17  1  0  0  0  0
 19 18  1  0  0  0  0
 19 43  1  6  0  0  0
 19  1  1  0  0  0  0
 20 41  1  0  0  0  0
 21 24  2  0  0  0  0
 21 25  1  0  0  0  0
 22 32  2  0  0  0  0
 22 36  1  0  0  0  0
 23 33  2  0  0  0  0
 23 40  1  0  0  0  0
 24 32  1  0  0  0  0
 24 35  1  0  0  0  0
 25 34  2  0  0  0  0
 25 37  1  0  0  0  0
 26 35  1  0  0  0  0
 27 28  1  0  0  0  0
 28 29  1  0  0  0  0
 28 30  1  0  0  0  0
 28 31  1  0  0  0  0
 33 36  1  0  0  0  0
 34 41  1  0  0  0  0
 38 41  2  0  0  0  0
 39 41  2  0  0  0  0
M  CHG  2  37  -1  42   1
M  END
>  <DRUGBANK_ID>
DB17863

>  <COMMON_NAME>
Potassium (Benzenesulfonyl)({[6-(3-{2-[1-(Trifluoromethyl)Cyclopropyl]Ethoxy}-1H-Pyrazol-1-Yl)-2-[(4S)-2,2,4-Trimethylpyrrolidin-1-Yl]Pyridin-3-Yl]Carbonyl})Azanide

>  <UNII>
VY7D8MTV72

$$$$
