
 OpenBabel10282417123D

 53 57  0  0  0  0  0  0  0  0999 V2000
    3.1081    0.1379   -1.3698 O   0  0  0  0  0  0  0  0  0  0  0  0
    4.7466   -0.2680   -2.8548 O   0  0  0  0  0  0  0  0  0  0  0  0
    4.9283   -1.5057   -0.9095 N   0  0  0  0  0  0  0  0  0  0  0  0
    3.3344   -0.9913    1.7463 N   0  0  3  0  0  0  0  0  0  0  0  0
    6.4639   -1.4606   -0.9069 C   0  0  2  0  0  0  0  0  0  0  0  0
    7.0318   -2.8430   -0.6110 C   0  0  0  0  0  0  0  0  0  0  0  0
    6.4197   -3.6737    0.3538 C   0  0  0  0  0  0  0  0  0  0  0  0
    7.1425   -0.4172    0.0859 C   0  0  0  0  0  0  0  0  0  0  0  0
    4.2518   -0.5790   -1.7505 C   0  0  0  0  0  0  0  0  0  0  0  0
    2.3092    0.2739   -0.0998 C   0  0  2  0  0  0  0  0  0  0  0  0
    4.3596   -2.8142   -0.3572 C   0  0  0  0  0  0  0  0  0  0  0  0
    2.7700    1.3751    0.8741 C   0  0  3  0  0  0  0  0  0  0  0  0
    5.0995   -3.2920    0.8785 C   0  0  0  0  0  0  0  0  0  0  0  0
    8.1637   -3.3048   -1.2531 C   0  0  0  0  0  0  0  0  0  0  0  0
    2.3869   -1.0246    0.6144 C   0  0  0  0  0  0  0  0  0  0  0  0
    6.9420   -4.8886    0.7439 C   0  0  0  0  0  0  0  0  0  0  0  0
    7.2205   -0.5828    1.5023 C   0  0  0  0  0  0  0  0  0  0  0  0
    7.5882    0.8124   -0.4032 C   0  0  0  0  0  0  0  0  0  0  0  0
    2.2502    1.0544    2.3414 C   0  0  0  0  0  0  0  0  0  0  0  0
    4.2692    1.2800    0.9339 C   0  0  0  0  0  0  0  0  0  0  0  0
    2.6714   -0.3468    2.8571 C   0  0  0  0  0  0  0  0  0  0  0  0
    4.4831   -0.0880    1.5473 C   0  0  0  0  0  0  0  0  0  0  0  0
    8.6689   -4.5547   -0.9013 C   0  0  0  0  0  0  0  0  0  0  0  0
    8.0734   -5.3323    0.1010 C   0  0  0  0  0  0  0  0  0  0  0  0
    7.4069    0.5128    2.3678 C   0  0  0  0  0  0  0  0  0  0  0  0
    7.9871    1.8387    0.4723 C   0  0  0  0  0  0  0  0  0  0  0  0
    7.7886    1.7320    1.8469 C   0  0  0  0  0  0  0  0  0  0  0  0
    6.7664   -1.1565   -1.9181 H   0  0  0  0  0  0  0  0  0  0  0  0
    1.2630    0.4205   -0.3842 H   0  0  0  0  0  0  0  0  0  0  0  0
    3.3564   -2.9184    0.0227 H   0  0  0  0  0  0  0  0  0  0  0  0
    4.2942   -3.5234   -1.1898 H   0  0  0  0  0  0  0  0  0  0  0  0
    2.4729    2.3643    0.5257 H   0  0  0  0  0  0  0  0  0  0  0  0
    5.2080   -2.5638    1.6792 H   0  0  0  0  0  0  0  0  0  0  0  0
    4.5581   -4.1210    1.3483 H   0  0  0  0  0  0  0  0  0  0  0  0
    8.6353   -2.7021   -2.0240 H   0  0  0  0  0  0  0  0  0  0  0  0
    1.4738   -1.5392    0.9166 H   0  0  0  0  0  0  0  0  0  0  0  0
    2.5832   -1.5951   -0.2694 H   0  0  0  0  0  0  0  0  0  0  0  0
    6.4298   -5.4801    1.4985 H   0  0  0  0  0  0  0  0  0  0  0  0
    6.8721   -1.4914    1.9875 H   0  0  0  0  0  0  0  0  0  0  0  0
    7.5836    1.0040   -1.4720 H   0  0  0  0  0  0  0  0  0  0  0  0
    1.1641    1.0879    2.3551 H   0  0  0  0  0  0  0  0  0  0  0  0
    2.6714    1.7947    3.0295 H   0  0  0  0  0  0  0  0  0  0  0  0
    4.7400    1.3776   -0.0548 H   0  0  0  0  0  0  0  0  0  0  0  0
    4.7264    2.0592    1.5505 H   0  0  0  0  0  0  0  0  0  0  0  0
    1.8531   -0.9855    3.1927 H   0  0  0  0  0  0  0  0  0  0  0  0
    3.3657   -0.2929    3.7133 H   0  0  0  0  0  0  0  0  0  0  0  0
    5.0186    0.0173    2.4903 H   0  0  0  0  0  0  0  0  0  0  0  0
    5.1038   -0.6192    0.9006 H   0  0  0  0  0  0  0  0  0  0  0  0
    9.5448   -4.9295   -1.4144 H   0  0  0  0  0  0  0  0  0  0  0  0
    8.4729   -6.3010    0.3706 H   0  0  0  0  0  0  0  0  0  0  0  0
    7.1180    0.4358    3.4193 H   0  0  0  0  0  0  0  0  0  0  0  0
    8.4031    2.7557    0.0697 H   0  0  0  0  0  0  0  0  0  0  0  0
    7.8999    2.5942    2.4995 H   0  0  0  0  0  0  0  0  0  0  0  0
  1  9  1  0  0  0  0
  2  9  2  0  0  0  0
  3  5  1  0  0  0  0
  3  9  1  0  0  0  0
  3 11  1  0  0  0  0
  4 15  1  0  0  0  0
  4 21  1  0  0  0  0
  4 22  1  0  0  0  0
  5  6  1  0  0  0  0
  5 28  1  6  0  0  0
  5  8  1  0  0  0  0
  6  7  1  0  0  0  0
  6 14  2  0  0  0  0
  7 13  1  0  0  0  0
  7 16  2  0  0  0  0
  8 17  2  0  0  0  0
  8 18  1  0  0  0  0
 10 12  1  0  0  0  0
 10 15  1  0  0  0  0
 10 29  1  6  0  0  0
 10  1  1  0  0  0  0
 11 13  1  0  0  0  0
 11 30  1  0  0  0  0
 11 31  1  0  0  0  0
 12 19  1  0  0  0  0
 12 20  1  0  0  0  0
 12 32  1  0  0  0  0
 13 33  1  0  0  0  0
 13 34  1  0  0  0  0
 14 23  1  0  0  0  0
 14 35  1  0  0  0  0
 15 36  1  0  0  0  0
 15 37  1  0  0  0  0
 16 24  1  0  0  0  0
 16 38  1  0  0  0  0
 17 25  1  0  0  0  0
 17 39  1  0  0  0  0
 18 26  2  0  0  0  0
 18 40  1  0  0  0  0
 19 21  1  0  0  0  0
 19 41  1  0  0  0  0
 19 42  1  0  0  0  0
 20 22  1  0  0  0  0
 20 43  1  0  0  0  0
 20 44  1  0  0  0  0
 21 45  1  0  0  0  0
 21 46  1  0  0  0  0
 22 47  1  0  0  0  0
 22 48  1  0  0  0  0
 23 24  2  0  0  0  0
 23 49  1  0  0  0  0
 24 50  1  0  0  0  0
 25 27  2  0  0  0  0
 25 51  1  0  0  0  0
 26 27  1  0  0  0  0
 26 52  1  0  0  0  0
 27 53  1  0  0  0  0
M  END
>  <DRUGBANK_ID>
DB01591

>  <SECONDARY_ACCESSION_NUMBERS>
APRD00168

>  <COMMON_NAME>
Solifenacin

>  <CAS_NUMBER>
242478-37-1

>  <UNII>
A8910SQJ1U

>  <SYNONYMS>
Solifenacin; Solifenacina

$$$$
