
 OpenBabel10282417103D

 47 50  0  0  0  0  0  0  0  0999 V2000
   -1.7863   -1.2653    0.0203 C   0  0  2  0  0  0  0  0  0  0  0  0
   -1.9267    0.2658   -0.0143 C   0  0  0  0  0  0  0  0  0  0  0  0
   -0.3926   -1.0094    0.5568 C   0  0  2  0  0  0  0  0  0  0  0  0
   -0.7516    0.4262    0.6776 N   0  0  0  0  0  0  0  0  0  0  0  0
    0.2400    1.3967    0.2029 C   0  0  2  0  0  0  0  0  0  0  0  0
    1.5603    0.6004    0.0127 C   0  0  0  0  0  0  0  0  0  0  0  0
    0.9918   -1.0386   -0.5959 S   0  0  0  0  0  0  0  0  0  0  0  0
    2.4468    1.1344   -1.1006 C   0  0  0  0  0  0  0  0  0  0  0  0
    2.3652    0.3653    1.3000 C   0  0  0  0  0  0  0  0  0  0  0  0
    0.3616    2.5957    1.1635 C   0  0  0  0  0  0  0  0  0  0  0  0
   -0.4859    3.6220    0.9233 O   0  0  0  0  0  0  0  0  0  0  0  0
    1.1150    2.6506    2.1248 O   0  0  0  0  0  0  0  0  0  0  0  0
   -1.9855   -2.0507   -1.2167 N   0  0  0  0  0  0  0  0  0  0  0  0
   -2.2282   -3.4077   -1.3119 C   0  0  0  0  0  0  0  0  0  0  0  0
   -2.1857   -3.9427   -2.4173 O   0  0  0  0  0  0  0  0  0  0  0  0
   -2.6668    1.0799   -0.5034 O   0  0  0  0  0  0  0  0  0  0  0  0
   -0.2140   -1.4854    1.5275 H   0  0  0  0  0  0  0  0  0  0  0  0
   -3.2199   -4.8999    1.8741 O   0  0  0  0  0  0  0  0  0  0  0  0
   -2.3657   -5.8772    1.4181 N   0  0  0  0  0  0  0  0  0  0  0  0
   -1.9412   -5.4746    0.2109 C   0  0  0  0  0  0  0  0  0  0  0  0
   -2.4750   -4.1801   -0.1071 C   0  0  0  0  0  0  0  0  0  0  0  0
   -3.3082   -3.8989    0.9614 C   0  0  0  0  0  0  0  0  0  0  0  0
   -1.0089   -6.2883   -0.5724 C   0  0  0  0  0  0  0  0  0  0  0  0
   -1.3658   -7.5554   -1.0623 C   0  0  0  0  0  0  0  0  0  0  0  0
   -0.4772   -8.2878   -1.8652 C   0  0  0  0  0  0  0  0  0  0  0  0
    0.7723   -7.7699   -2.1980 C   0  0  0  0  0  0  0  0  0  0  0  0
    1.1472   -6.5270   -1.7085 C   0  0  0  0  0  0  0  0  0  0  0  0
    0.2748   -5.8078   -0.8855 C   0  0  0  0  0  0  0  0  0  0  0  0
    0.8982   -4.3476   -0.2235 Cl  0  0  0  0  0  0  0  0  0  0  0  0
   -2.9029   -8.2850   -0.7405 Cl  0  0  0  0  0  0  0  0  0  0  0  0
   -4.2200   -2.7927    1.3397 C   0  0  0  0  0  0  0  0  0  0  0  0
   -2.3572   -1.6497    0.8442 H   0  0  0  0  0  0  0  0  0  0  0  0
   -0.0931    1.7807   -0.7731 H   0  0  0  0  0  0  0  0  0  0  0  0
    2.8118    2.1337   -0.8574 H   0  0  0  0  0  0  0  0  0  0  0  0
    3.3185    0.4841   -1.2520 H   0  0  0  0  0  0  0  0  0  0  0  0
    1.9089    1.1914   -2.0551 H   0  0  0  0  0  0  0  0  0  0  0  0
    3.1684   -0.3664    1.1700 H   0  0  0  0  0  0  0  0  0  0  0  0
    2.8617    1.2876    1.6163 H   0  0  0  0  0  0  0  0  0  0  0  0
    1.7304    0.0264    2.1291 H   0  0  0  0  0  0  0  0  0  0  0  0
   -1.1664    3.4854    0.2371 H   0  0  0  0  0  0  0  0  0  0  0  0
   -1.7897   -1.6348   -2.1240 H   0  0  0  0  0  0  0  0  0  0  0  0
   -0.7631   -9.2650   -2.2476 H   0  0  0  0  0  0  0  0  0  0  0  0
    1.4548   -8.3340   -2.8283 H   0  0  0  0  0  0  0  0  0  0  0  0
    2.1241   -6.1189   -1.9602 H   0  0  0  0  0  0  0  0  0  0  0  0
   -5.2301   -3.1422    1.5438 H   0  0  0  0  0  0  0  0  0  0  0  0
   -3.8361   -2.2919    2.2398 H   0  0  0  0  0  0  0  0  0  0  0  0
   -4.3014   -2.0445    0.5434 H   0  0  0  0  0  0  0  0  0  0  0  0
  1  2  1  0  0  0  0
  1 32  1  1  0  0  0
  1 13  1  0  0  0  0
  2 16  2  0  0  0  0
  2  4  1  0  0  0  0
  3  1  1  0  0  0  0
  3  4  1  0  0  0  0
  3  7  1  0  0  0  0
  3 17  1  1  0  0  0
  4  5  1  0  0  0  0
  5  6  1  0  0  0  0
  5 33  1  6  0  0  0
  5 10  1  0  0  0  0
  6  7  1  0  0  0  0
  6  8  1  0  0  0  0
  6  9  1  0  0  0  0
  8 34  1  0  0  0  0
  8 35  1  0  0  0  0
  8 36  1  0  0  0  0
  9 37  1  0  0  0  0
  9 38  1  0  0  0  0
  9 39  1  0  0  0  0
 10 11  1  0  0  0  0
 10 12  2  0  0  0  0
 11 40  1  0  0  0  0
 13 14  1  0  0  0  0
 13 41  1  0  0  0  0
 14 15  2  0  0  0  0
 14 21  1  0  0  0  0
 18 19  1  0  0  0  0
 18 22  1  0  0  0  0
 19 20  2  0  0  0  0
 20 21  1  0  0  0  0
 20 23  1  0  0  0  0
 21 22  2  0  0  0  0
 22 31  1  0  0  0  0
 23 24  2  0  0  0  0
 23 28  1  0  0  0  0
 24 25  1  0  0  0  0
 24 30  1  0  0  0  0
 25 26  2  0  0  0  0
 25 42  1  0  0  0  0
 26 27  1  0  0  0  0
 26 43  1  0  0  0  0
 27 28  2  0  0  0  0
 27 44  1  0  0  0  0
 28 29  1  0  0  0  0
 31 45  1  0  0  0  0
 31 46  1  0  0  0  0
 31 47  1  0  0  0  0
M  END
>  <DRUGBANK_ID>
DB00485

>  <SECONDARY_ACCESSION_NUMBERS>
APRD00916

>  <COMMON_NAME>
Dicloxacillin

>  <CAS_NUMBER>
3116-76-5

>  <UNII>
COF19H7WBK

>  <SYNONYMS>
(2S,5R,6R)-6-({[3-(2,6-dichlorophenyl)-5-methyl-1,2-oxazol-4-yl]carbonyl}amino)-3,3-dimethyl-7-oxo-4-thia-1-azabicyclo[3.2.0]heptane-2-carboxylic acid; Dicloxacilina; Dicloxacillin; Dicloxacillina; Dicloxacilline; Dicloxacillinum

$$$$
