E4H
 OpenBabel10282417163D

 49 49  0  0  0  0  0  0  0  0999 V2000
    1.1206    0.1285    0.0765 C   0  0  0  0  0  0  0  0  0  0  0  0
    0.5931   -1.1195   -0.6441 C   0  0  1  0  0  0  0  0  0  0  0  0
    1.5096   -1.4378   -1.8744 C   0  0  0  0  0  0  0  0  0  0  0  0
    0.8273   -1.4028   -3.2668 C   0  0  1  0  0  0  0  0  0  0  0  0
    0.3311   -0.0058   -3.5719 C   0  0  0  0  0  0  0  0  0  0  0  0
    1.7340   -1.9778   -4.3671 C   0  0  0  0  0  0  0  0  0  0  0  0
    2.0892   -1.3591   -5.3488 O   0  0  0  0  0  0  0  0  0  0  0  0
    2.2437   -3.3657   -4.1787 C   0  0  0  0  0  0  0  0  0  0  0  0
    1.5238   -4.3613   -3.6341 C   0  0  0  0  0  0  0  0  0  0  0  0
    2.1084   -5.6332   -3.0602 C   0  0  1  0  0  0  0  0  0  0  0  0
    3.5547   -5.3384   -2.6905 C   0  0  0  0  0  0  0  0  0  0  0  0
    1.3375   -6.3143   -1.8341 C   0  0  1  0  0  0  0  0  0  0  0  0
    2.2478   -6.9592   -0.7517 C   0  0  0  0  0  0  0  0  0  0  0  0
    3.1929   -6.0126    0.0161 C   0  0  0  0  0  0  0  0  0  0  0  0
    0.2876   -5.4372   -1.3237 O   0  0  0  0  0  0  0  0  0  0  0  0
    0.2241   -4.8756   -0.0806 C   0  0  0  0  0  0  0  0  0  0  0  0
    0.6967   -5.3389    0.9365 O   0  0  0  0  0  0  0  0  0  0  0  0
   -0.4597   -3.5070   -0.1208 C   0  0  2  0  0  0  0  0  0  0  0  0
   -1.0434   -3.2606   -1.4957 C   0  0  0  0  0  0  0  0  0  0  0  0
    0.4698   -2.3244    0.3433 C   0  0  1  0  0  0  0  0  0  0  0  0
    1.7926   -2.6862    0.7293 O   0  0  0  0  0  0  0  0  0  0  0  0
   -0.4144   -0.8253   -0.9483 H   0  0  0  0  0  0  0  0  0  0  0  0
   -0.0618   -2.0214   -3.3393 H   0  0  0  0  0  0  0  0  0  0  0  0
    2.0984   -6.3587   -3.8815 H   0  0  0  0  0  0  0  0  0  0  0  0
    0.7749   -7.1455   -2.2944 H   0  0  0  0  0  0  0  0  0  0  0  0
   -1.3162   -3.5744    0.5574 H   0  0  0  0  0  0  0  0  0  0  0  0
    0.0203   -1.9602    1.2748 H   0  0  0  0  0  0  0  0  0  0  0  0
    0.7114    0.2099    1.0879 H   0  0  0  0  0  0  0  0  0  0  0  0
    0.8020    1.0225   -0.4724 H   0  0  0  0  0  0  0  0  0  0  0  0
    2.2115    0.1400    0.1369 H   0  0  0  0  0  0  0  0  0  0  0  0
    2.3477   -0.7302   -1.9073 H   0  0  0  0  0  0  0  0  0  0  0  0
    1.9887   -2.4088   -1.7230 H   0  0  0  0  0  0  0  0  0  0  0  0
    0.0749    0.5388   -2.6607 H   0  0  0  0  0  0  0  0  0  0  0  0
    1.0718    0.5727   -4.1218 H   0  0  0  0  0  0  0  0  0  0  0  0
   -0.5874   -0.0759   -4.1628 H   0  0  0  0  0  0  0  0  0  0  0  0
    3.2928   -3.4621   -4.4353 H   0  0  0  0  0  0  0  0  0  0  0  0
    0.4514   -4.2659   -3.5571 H   0  0  0  0  0  0  0  0  0  0  0  0
    4.1958   -4.9982   -3.4997 H   0  0  0  0  0  0  0  0  0  0  0  0
    3.5593   -4.5329   -1.9405 H   0  0  0  0  0  0  0  0  0  0  0  0
    4.0405   -6.2487   -2.3461 H   0  0  0  0  0  0  0  0  0  0  0  0
    1.6019   -7.4616   -0.0224 H   0  0  0  0  0  0  0  0  0  0  0  0
    2.8439   -7.7484   -1.2246 H   0  0  0  0  0  0  0  0  0  0  0  0
    2.7632   -5.0259    0.1250 H   0  0  0  0  0  0  0  0  0  0  0  0
    3.4537   -6.3974    0.9995 H   0  0  0  0  0  0  0  0  0  0  0  0
    4.1585   -5.8300   -0.4578 H   0  0  0  0  0  0  0  0  0  0  0  0
   -1.4472   -2.2664   -1.6753 H   0  0  0  0  0  0  0  0  0  0  0  0
   -0.1862   -3.3776   -2.1255 H   0  0  0  0  0  0  0  0  0  0  0  0
   -1.7790   -3.9840   -1.8453 H   0  0  0  0  0  0  0  0  0  0  0  0
    2.1560   -3.3052    0.0812 H   0  0  0  0  0  0  0  0  0  0  0  0
  1 28  1  0  0  0  0
  1 29  1  0  0  0  0
  1 30  1  0  0  0  0
  2  1  1  0  0  0  0
  2  3  1  0  0  0  0
  2 20  1  0  0  0  0
  2 22  1  6  0  0  0
  3  4  1  0  0  0  0
  3 31  1  0  0  0  0
  3 32  1  0  0  0  0
  4  6  1  0  0  0  0
  4 23  1  1  0  0  0
  4  5  1  0  0  0  0
  5 33  1  0  0  0  0
  5 34  1  0  0  0  0
  5 35  1  0  0  0  0
  6  7  2  0  0  0  0
  6  8  1  0  0  0  0
  8  9  2  0  0  0  0
  8 36  1  0  0  0  0
  9 10  1  0  0  0  0
  9 37  1  0  0  0  0
 10 12  1  0  0  0  0
 10 24  1  6  0  0  0
 10 11  1  0  0  0  0
 11 38  1  0  0  0  0
 11 39  1  0  0  0  0
 11 40  1  0  0  0  0
 12 15  1  0  0  0  0
 12 25  1  6  0  0  0
 12 13  1  0  0  0  0
 13 14  1  0  0  0  0
 13 41  1  0  0  0  0
 13 42  1  0  0  0  0
 14 43  1  0  0  0  0
 14 44  1  0  0  0  0
 14 45  1  0  0  0  0
 15 16  1  0  0  0  0
 16 17  2  0  0  0  0
 16 18  1  0  0  0  0
 18 20  1  0  0  0  0
 18 26  1  1  0  0  0
 18 19  1  0  0  0  0
 19 46  1  0  0  0  0
 19 47  1  0  0  0  0
 19 48  1  0  0  0  0
 20 27  1  1  0  0  0
 20 21  1  0  0  0  0
 21 49  1  0  0  0  0
M  END
>  <DRUGBANK_ID>
DB07703

>  <COMMON_NAME>
(3R,4S,5S,7R,9E,11R,12R)-12-ETHYL-4-HYDROXY-3,5,7,11-TETRAMETHYLOXACYCLODODEC-9-ENE-2,8-DIONE

$$$$
