
 OpenBabel10282417223D

 62 65  0  0  0  0  0  0  0  0999 V2000
    0.9565   -0.2008   -0.2822 C   0  0  0  0  0  0  0  0  0  0  0  0
    0.4349    1.0848   -0.7331 N   0  0  0  0  0  0  0  0  0  0  0  0
   -1.0257    1.0698   -0.7735 C   0  0  0  0  0  0  0  0  0  0  0  0
    0.9389    2.2436    0.0331 C   0  0  0  0  0  0  0  0  0  0  0  0
    0.4483    2.3984    1.4910 C   0  0  0  0  0  0  0  0  0  0  0  0
    0.8659    1.2693    2.3509 N   0  0  0  0  0  0  0  0  0  0  0  0
    0.1783    1.1826    3.8801 S   0  0  0  0  0  0  0  0  0  0  0  0
   -1.2236    1.3894    3.7189 O   0  0  0  0  0  0  0  0  0  0  0  0
    0.6546   -0.0841    4.4505 O   0  0  0  0  0  0  0  0  0  0  0  0
    0.9483    2.5891    4.6738 C   0  0  0  0  0  0  0  0  0  0  0  0
    2.4603    2.5812    4.6165 C   0  0  0  0  0  0  0  0  0  0  0  0
    3.1457    3.8118    4.6623 C   0  0  0  0  0  0  0  0  0  0  0  0
    4.5395    3.8568    4.8003 C   0  0  0  0  0  0  0  0  0  0  0  0
    5.2210    5.0903    4.8046 N   0  0  0  0  0  0  0  0  0  0  0  0
    6.5998    5.2001    4.9814 C   0  0  0  0  0  0  0  0  0  0  0  0
    7.0918    5.7724    6.0851 N   0  0  0  0  0  0  0  0  0  0  0  0
    8.4318    5.7009    6.2379 C   0  0  0  0  0  0  0  0  0  0  0  0
    8.9006    6.3224    7.3733 O   0  0  0  0  0  0  0  0  0  0  0  0
   10.2542    6.2701    7.5914 C   0  0  0  0  0  0  0  0  0  0  0  0
   11.1944    7.0496    6.8536 C   0  0  0  0  0  0  0  0  0  0  0  0
   12.4690    7.0270    7.4476 C   0  0  0  0  0  0  0  0  0  0  0  0
   12.8513    5.7667    7.8994 C   0  0  0  0  0  0  0  0  0  0  0  0
   14.2734    5.8470    7.7263 N   0  0  0  0  0  0  0  0  0  0  0  0
   14.5091    6.8257    8.7020 C   0  0  0  0  0  0  0  0  0  0  0  0
   14.4591    5.9494   10.0793 C   0  0  0  0  0  0  0  0  0  0  0  0
   13.7293    7.6884    7.7188 C   0  0  0  0  0  0  0  0  0  0  0  0
   11.9725    5.3431    8.9036 C   0  0  0  0  0  0  0  0  0  0  0  0
   10.6342    5.5218    8.6878 C   0  0  0  0  0  0  0  0  0  0  0  0
    9.2740    5.0970    5.3279 C   0  0  0  0  0  0  0  0  0  0  0  0
    8.6813    4.6128    4.2077 C   0  0  0  0  0  0  0  0  0  0  0  0
    7.3634    4.6471    4.0227 N   0  0  0  0  0  0  0  0  0  0  0  0
    5.2403    2.6406    4.8665 C   0  0  0  0  0  0  0  0  0  0  0  0
    4.5888    1.4237    4.8296 C   0  0  0  0  0  0  0  0  0  0  0  0
    3.2180    1.3998    4.6628 C   0  0  0  0  0  0  0  0  0  0  0  0
    0.7526   -0.9926   -1.0054 H   0  0  0  0  0  0  0  0  0  0  0  0
    0.4659   -0.5685    0.6166 H   0  0  0  0  0  0  0  0  0  0  0  0
    2.0393   -0.1588   -0.1168 H   0  0  0  0  0  0  0  0  0  0  0  0
   -1.4693    1.0073    0.2253 H   0  0  0  0  0  0  0  0  0  0  0  0
   -1.4018    1.9749   -1.2629 H   0  0  0  0  0  0  0  0  0  0  0  0
   -1.3927    0.2126   -1.3445 H   0  0  0  0  0  0  0  0  0  0  0  0
    2.0367    2.2621   -0.0012 H   0  0  0  0  0  0  0  0  0  0  0  0
    0.6326    3.1525   -0.5077 H   0  0  0  0  0  0  0  0  0  0  0  0
    0.8531    3.3317    1.8922 H   0  0  0  0  0  0  0  0  0  0  0  0
   -0.6407    2.4805    1.4992 H   0  0  0  0  0  0  0  0  0  0  0  0
    0.6500    0.3615    1.9757 H   0  0  0  0  0  0  0  0  0  0  0  0
    0.5423    3.4644    4.1520 H   0  0  0  0  0  0  0  0  0  0  0  0
    0.6013    2.6038    5.7080 H   0  0  0  0  0  0  0  0  0  0  0  0
    2.5858    4.7437    4.6106 H   0  0  0  0  0  0  0  0  0  0  0  0
    4.7175    5.8884    5.1556 H   0  0  0  0  0  0  0  0  0  0  0  0
   10.8448    7.6926    6.0519 H   0  0  0  0  0  0  0  0  0  0  0  0
   14.7515    6.0213    6.8443 H   0  0  0  0  0  0  0  0  0  0  0  0
   13.7849    6.3365   10.8521 H   0  0  0  0  0  0  0  0  0  0  0  0
   14.1247    4.9063    9.8488 H   0  0  0  0  0  0  0  0  0  0  0  0
   15.4188    5.6694   10.5288 H   0  0  0  0  0  0  0  0  0  0  0  0
   14.1575    8.2740    6.8919 H   0  0  0  0  0  0  0  0  0  0  0  0
   12.2452    5.1894    9.9396 H   0  0  0  0  0  0  0  0  0  0  0  0
    9.9510    5.1028    9.4136 H   0  0  0  0  0  0  0  0  0  0  0  0
   10.3445    5.0240    5.4388 H   0  0  0  0  0  0  0  0  0  0  0  0
    9.2637    4.1731    3.4086 H   0  0  0  0  0  0  0  0  0  0  0  0
    6.3207    2.6125    4.9625 H   0  0  0  0  0  0  0  0  0  0  0  0
    5.1411    0.4962    4.9452 H   0  0  0  0  0  0  0  0  0  0  0  0
    2.7853    0.4110    4.5757 H   0  0  0  0  0  0  0  0  0  0  0  0
  1  2  1  0  0  0  0
  1 35  1  0  0  0  0
  1 36  1  0  0  0  0
  1 37  1  0  0  0  0
  2  3  1  0  0  0  0
  2  4  1  0  0  0  0
  3 38  1  0  0  0  0
  3 39  1  0  0  0  0
  3 40  1  0  0  0  0
  4  5  1  0  0  0  0
  4 41  1  0  0  0  0
  4 42  1  0  0  0  0
  5  6  1  0  0  0  0
  5 43  1  0  0  0  0
  5 44  1  0  0  0  0
  6  7  1  0  0  0  0
  6 45  1  0  0  0  0
  7  8  2  0  0  0  0
  7  9  2  0  0  0  0
  7 10  1  0  0  0  0
 10 11  1  0  0  0  0
 10 46  1  0  0  0  0
 10 47  1  0  0  0  0
 11 12  2  0  0  0  0
 11 34  1  0  0  0  0
 12 13  1  0  0  0  0
 12 48  1  0  0  0  0
 13 14  1  0  0  0  0
 13 32  2  0  0  0  0
 14 15  1  0  0  0  0
 14 49  1  0  0  0  0
 15 16  2  0  0  0  0
 15 31  1  0  0  0  0
 16 17  1  0  0  0  0
 17 18  1  0  0  0  0
 17 29  2  0  0  0  0
 18 19  1  0  0  0  0
 19 20  2  0  0  0  0
 19 28  1  0  0  0  0
 20 21  1  0  0  0  0
 20 50  1  0  0  0  0
 21 22  2  0  0  0  0
 21 26  1  0  0  0  0
 22 23  1  0  0  0  0
 22 27  1  0  0  0  0
 23 24  1  0  0  0  0
 23 51  1  0  0  0  0
 24 25  1  0  0  0  0
 24 26  2  0  0  0  0
 25 52  1  0  0  0  0
 25 53  1  0  0  0  0
 25 54  1  0  0  0  0
 26 55  1  0  0  0  0
 27 28  2  0  0  0  0
 27 56  1  0  0  0  0
 28 57  1  0  0  0  0
 29 30  1  0  0  0  0
 29 58  1  0  0  0  0
 30 31  2  0  0  0  0
 30 59  1  0  0  0  0
 32 33  1  0  0  0  0
 32 60  1  0  0  0  0
 33 34  2  0  0  0  0
 33 61  1  0  0  0  0
 34 62  1  0  0  0  0
M  END
>  <DRUGBANK_ID>
DB15106

>  <COMMON_NAME>
Surufatinib

>  <CAS_NUMBER>
1308672-74-3

>  <UNII>
B2K5L1L8S9

>  <SYNONYMS>
SULFATINIB; Surufatinib

$$$$
