F2B
 OpenBabel10282417163D

 34 35  0  0  0  0  0  0  0  0999 V2000
    1.2125   -0.3122    0.2116 C   0  0  0  0  0  0  0  0  0  0  0  0
    0.3453   -1.3747    0.0632 C   0  0  0  0  0  0  0  0  0  0  0  0
   -1.0017   -1.1191   -0.0216 C   0  0  0  0  0  0  0  0  0  0  0  0
   -1.4603    0.2023   -0.0174 C   0  0  0  0  0  0  0  0  0  0  0  0
   -0.5334    1.2693   -0.0024 C   0  0  0  0  0  0  0  0  0  0  0  0
    0.8460    1.0195    0.0155 C   0  0  0  0  0  0  0  0  0  0  0  0
    1.8105    2.1625   -0.2116 C   0  0  0  0  0  0  0  0  0  0  0  0
    1.3750    3.3116   -0.3093 O   0  0  0  0  0  0  0  0  0  0  0  0
    3.1691    1.9922   -0.3864 N   0  0  0  0  0  0  0  0  0  0  0  0
    3.9781    0.7976   -0.4069 C   0  0  0  0  0  0  0  0  0  0  0  0
   -2.0689   -2.5206   -0.0073 S   0  0  0  0  0  0  0  0  0  0  0  0
   -2.9193   -2.3253    1.4324 N   0  0  0  0  0  0  0  0  0  0  0  0
   -2.9892   -2.4139   -1.1017 O   0  0  0  0  0  0  0  0  0  0  0  0
   -1.2612   -3.7082    0.2154 O   0  0  0  0  0  0  0  0  0  0  0  0
    4.5994    0.4316   -1.7051 C   0  0  0  0  0  0  0  0  0  0  0  0
    5.2612    1.3886   -2.4599 C   0  0  0  0  0  0  0  0  0  0  0  0
    5.9354    1.0052   -3.6106 C   0  0  0  0  0  0  0  0  0  0  0  0
    5.9767   -0.3385   -3.9941 C   0  0  0  0  0  0  0  0  0  0  0  0
    5.3280   -1.3003   -3.2324 C   0  0  0  0  0  0  0  0  0  0  0  0
    4.5993   -0.9152   -2.1233 C   0  0  0  0  0  0  0  0  0  0  0  0
    5.4492   -2.5973   -3.5476 F   0  0  0  0  0  0  0  0  0  0  0  0
    3.8894   -1.8400   -1.4520 F   0  0  0  0  0  0  0  0  0  0  0  0
    2.1584   -0.6519    0.5842 H   0  0  0  0  0  0  0  0  0  0  0  0
    0.7576   -2.3817    0.0779 H   0  0  0  0  0  0  0  0  0  0  0  0
   -2.5255    0.4122   -0.0445 H   0  0  0  0  0  0  0  0  0  0  0  0
   -0.8977    2.2968    0.0242 H   0  0  0  0  0  0  0  0  0  0  0  0
    3.6506    2.8708   -0.5433 H   0  0  0  0  0  0  0  0  0  0  0  0
    4.6822    0.8116    0.4291 H   0  0  0  0  0  0  0  0  0  0  0  0
    3.3674   -0.0431   -0.2664 H   0  0  0  0  0  0  0  0  0  0  0  0
   -3.6211   -3.0678    1.4786 H   0  0  0  0  0  0  0  0  0  0  0  0
   -2.2990   -2.3773    2.2418 H   0  0  0  0  0  0  0  0  0  0  0  0
    5.2462    2.4285   -2.1481 H   0  0  0  0  0  0  0  0  0  0  0  0
    6.4500    1.7637   -4.1905 H   0  0  0  0  0  0  0  0  0  0  0  0
    6.5141   -0.6391   -4.8850 H   0  0  0  0  0  0  0  0  0  0  0  0
  1  2  2  0  0  0  0
  1  6  1  0  0  0  0
  1 23  1  0  0  0  0
  2  3  1  0  0  0  0
  2 24  1  0  0  0  0
  3  4  2  0  0  0  0
  3 11  1  0  0  0  0
  4  5  1  0  0  0  0
  4 25  1  0  0  0  0
  5  6  2  0  0  0  0
  5 26  1  0  0  0  0
  6  7  1  0  0  0  0
  7  8  2  0  0  0  0
  7  9  1  0  0  0  0
  9 10  1  0  0  0  0
  9 27  1  0  0  0  0
 10 15  1  0  0  0  0
 10 28  1  0  0  0  0
 10 29  1  0  0  0  0
 11 12  1  0  0  0  0
 11 13  2  0  0  0  0
 11 14  2  0  0  0  0
 12 30  1  0  0  0  0
 12 31  1  0  0  0  0
 15 16  2  0  0  0  0
 15 20  1  0  0  0  0
 16 17  1  0  0  0  0
 16 32  1  0  0  0  0
 17 18  2  0  0  0  0
 17 33  1  0  0  0  0
 18 19  1  0  0  0  0
 18 34  1  0  0  0  0
 19 20  2  0  0  0  0
 19 21  1  0  0  0  0
 20 22  1  0  0  0  0
M  END
>  <DRUGBANK_ID>
DB07742

>  <COMMON_NAME>
N-(2,3-DIFLUORO-BENZYL)-4-SULFAMOYL-BENZAMIDE

>  <UNII>
T4Y7SN7BXW

$$$$
