PF7
 OpenBabel10282417173D

 38 40  0  0  0  0  0  0  0  0999 V2000
    1.1331    0.1216   -0.0570 O   0  0  0  0  0  0  0  0  0  0  0  0
    2.3434   -0.0277   -0.1419 C   0  0  0  0  0  0  0  0  0  0  0  0
    3.1314    0.4899   -1.1387 N   0  0  0  0  0  0  0  0  0  0  0  0
    4.2192   -0.2343   -1.7737 C   0  0  0  0  0  0  0  0  0  0  0  0
    5.4490    0.6524   -1.7886 C   0  0  0  0  0  0  0  0  0  0  0  0
    5.1624    2.0241   -2.4463 C   0  0  0  0  0  0  0  0  0  0  0  0
    3.8857    2.6675   -1.8655 C   0  0  0  0  0  0  0  0  0  0  0  0
    2.7137    1.6829   -1.8615 C   0  0  0  0  0  0  0  0  0  0  0  0
    6.3676    2.9650   -2.2591 C   0  0  0  0  0  0  0  0  0  0  0  0
    7.6274    2.3857   -2.8410 C   0  0  0  0  0  0  0  0  0  0  0  0
    8.7087    2.0486   -2.0276 C   0  0  0  0  0  0  0  0  0  0  0  0
    9.8417    1.4465   -2.5854 C   0  0  0  0  0  0  0  0  0  0  0  0
   10.9544    1.1068   -1.7987 C   0  0  0  0  0  0  0  0  0  0  0  0
   12.0719    0.5176   -2.3841 C   0  0  0  0  0  0  0  0  0  0  0  0
   12.0746    0.2534   -3.7494 C   0  0  0  0  0  0  0  0  0  0  0  0
   10.9612    0.5850   -4.5263 C   0  0  0  0  0  0  0  0  0  0  0  0
    9.8409    1.1861   -3.9722 C   0  0  0  0  0  0  0  0  0  0  0  0
    8.8027    1.5007   -4.7642 N   0  0  0  0  0  0  0  0  0  0  0  0
    7.7334    2.0959   -4.1950 C   0  0  0  0  0  0  0  0  0  0  0  0
    3.0495   -0.6396    0.8316 O   0  0  0  0  0  0  0  0  0  0  0  0
    3.9139   -0.4637   -2.8044 H   0  0  0  0  0  0  0  0  0  0  0  0
    4.4136   -1.1883   -1.2765 H   0  0  0  0  0  0  0  0  0  0  0  0
    6.2529    0.1303   -2.3184 H   0  0  0  0  0  0  0  0  0  0  0  0
    5.7819    0.8118   -0.7557 H   0  0  0  0  0  0  0  0  0  0  0  0
    4.9883    1.8625   -3.5195 H   0  0  0  0  0  0  0  0  0  0  0  0
    4.0826    2.9851   -0.8332 H   0  0  0  0  0  0  0  0  0  0  0  0
    3.6225    3.5657   -2.4359 H   0  0  0  0  0  0  0  0  0  0  0  0
    1.8372    2.1391   -1.3916 H   0  0  0  0  0  0  0  0  0  0  0  0
    2.4423    1.4008   -2.8865 H   0  0  0  0  0  0  0  0  0  0  0  0
    6.1765    3.9406   -2.7220 H   0  0  0  0  0  0  0  0  0  0  0  0
    6.5096    3.1578   -1.1869 H   0  0  0  0  0  0  0  0  0  0  0  0
    8.6634    2.2376   -0.9575 H   0  0  0  0  0  0  0  0  0  0  0  0
   10.9586    1.3081   -0.7301 H   0  0  0  0  0  0  0  0  0  0  0  0
   12.9383    0.2685   -1.7773 H   0  0  0  0  0  0  0  0  0  0  0  0
   12.9409   -0.2070   -4.2166 H   0  0  0  0  0  0  0  0  0  0  0  0
   10.9688    0.3757   -5.5932 H   0  0  0  0  0  0  0  0  0  0  0  0
    6.9223    2.3157   -4.8845 H   0  0  0  0  0  0  0  0  0  0  0  0
    3.9957   -0.4242    0.7710 H   0  0  0  0  0  0  0  0  0  0  0  0
  1  2  2  0  0  0  0
  2  3  1  0  0  0  0
  2 20  1  0  0  0  0
  3  4  1  0  0  0  0
  3  8  1  0  0  0  0
  4  5  1  0  0  0  0
  4 21  1  0  0  0  0
  4 22  1  0  0  0  0
  5  6  1  0  0  0  0
  5 23  1  0  0  0  0
  5 24  1  0  0  0  0
  6  7  1  0  0  0  0
  6  9  1  0  0  0  0
  6 25  1  0  0  0  0
  7  8  1  0  0  0  0
  7 26  1  0  0  0  0
  7 27  1  0  0  0  0
  8 28  1  0  0  0  0
  8 29  1  0  0  0  0
  9 10  1  0  0  0  0
  9 30  1  0  0  0  0
  9 31  1  0  0  0  0
 10 11  1  0  0  0  0
 10 19  2  0  0  0  0
 11 12  2  0  0  0  0
 11 32  1  0  0  0  0
 12 13  1  0  0  0  0
 12 17  1  0  0  0  0
 13 14  2  0  0  0  0
 13 33  1  0  0  0  0
 14 15  1  0  0  0  0
 14 34  1  0  0  0  0
 15 16  2  0  0  0  0
 15 35  1  0  0  0  0
 16 17  1  0  0  0  0
 16 36  1  0  0  0  0
 17 18  2  0  0  0  0
 18 19  1  0  0  0  0
 19 37  1  0  0  0  0
 20 38  1  0  0  0  0
M  END
>  <DRUGBANK_ID>
DB08385

>  <COMMON_NAME>
4-(quinolin-3-ylmethyl)piperidine-1-carboxylic acid

$$$$
