
 OpenBabel10282417143D

 65 68  0  0  0  0  0  0  0  0999 V2000
    0.7621    0.1284    2.3942 C   0  0  2  0  0  0  0  0  0  0  0  0
    1.0165   -0.1634    0.9958 C   0  0  1  0  0  0  0  0  0  0  0  0
    0.4534    1.5707    2.5988 C   0  0  0  0  0  0  0  0  0  0  0  0
   -0.4219   -0.7424    2.8893 C   0  0  1  0  0  0  0  0  0  0  0  0
    2.0041   -0.2732    3.1518 C   0  0  0  0  0  0  0  0  0  0  0  0
    2.2581   -0.6712    0.8949 C   0  0  2  0  0  0  0  0  0  0  0  0
    2.0389    4.4288   -0.8756 C   0  0  1  0  0  0  0  0  0  0  0  0
    0.9199    1.0284    0.2299 O   0  0  0  0  0  0  0  0  0  0  0  0
   -0.2573    2.4138    1.5525 C   0  0  1  0  0  0  0  0  0  0  0  0
    0.7980    2.1189    3.6924 O   0  0  0  0  0  0  0  0  0  0  0  0
   -1.5781   -0.5656    1.9932 C   0  0  0  0  0  0  0  0  0  0  0  0
   -0.0060   -2.2044    2.8948 C   0  0  0  0  0  0  0  0  0  0  0  0
    2.8840   -0.7413    2.2304 C   0  0  0  0  0  0  0  0  0  0  0  0
    3.0401    0.1620    0.0519 O   0  0  0  0  0  0  0  0  0  0  0  0
    1.0365    4.0732    0.2103 C   0  0  0  0  0  0  0  0  0  0  0  0
    3.1194    5.1514   -0.3041 O   0  0  0  0  0  0  0  0  0  0  0  0
   -1.4214    1.6442    0.9011 C   0  0  1  0  0  0  0  0  0  0  0  0
    0.7451    2.7693    0.4666 C   0  0  0  0  0  0  0  0  0  0  0  0
   -2.1485    0.8443    1.9554 C   0  0  2  0  0  0  0  0  0  0  0  0
    4.2843   -1.2536    2.5252 C   0  0  0  0  0  0  0  0  0  0  0  0
    4.3891    0.5013    0.3372 C   0  0  0  0  0  0  0  0  0  0  0  0
    2.0389    4.4288   -0.8756 C   0  0  0  0  0  0  0  0  0  0  0  0
   -1.9700    1.5051    3.3126 C   0  0  0  0  0  0  0  0  0  0  0  0
    5.0678   -0.0587    1.5766 C   0  0  0  0  0  0  0  0  0  0  0  0
    5.0290    1.2733   -0.4437 O   0  0  0  0  0  0  0  0  0  0  0  0
    3.2981    3.8505   -0.5651 O   0  0  0  0  0  0  0  0  0  0  0  0
   -2.7017    0.6952    4.3705 C   0  0  0  0  0  0  0  0  0  0  0  0
   -0.4905    1.5669    3.6553 C   0  0  0  0  0  0  0  0  0  0  0  0
    6.3602    0.2664    1.8500 C   0  0  0  0  0  0  0  0  0  0  0  0
    4.3024   -0.9819    2.5106 C   0  0  0  0  0  0  0  0  0  0  0  0
    7.1255    1.1896    0.9160 C   0  0  0  0  0  0  0  0  0  0  0  0
   -2.0991    2.3381    0.4493 H   0  0  0  0  0  0  0  0  0  0  0  0
   -3.1910    0.8027    1.7178 H   0  0  0  0  0  0  0  0  0  0  0  0
   -0.6424    3.2958    2.0200 H   0  0  0  0  0  0  0  0  0  0  0  0
   -0.6925   -0.4418    3.8799 H   0  0  0  0  0  0  0  0  0  0  0  0
    2.1603   -0.2027    4.2080 H   0  0  0  0  0  0  0  0  0  0  0  0
    2.2026   -1.6561    0.4803 H   0  0  0  0  0  0  0  0  0  0  0  0
    2.4087    3.5319   -1.3271 H   0  0  0  0  0  0  0  0  0  0  0  0
   -0.0047    1.4012    0.3087 H   0  0  0  0  0  0  0  0  0  0  0  0
   -2.3546   -1.1937    2.3771 H   0  0  0  0  0  0  0  0  0  0  0  0
   -1.2733   -0.8277    1.0016 H   0  0  0  0  0  0  0  0  0  0  0  0
    0.4594   -1.9966    1.9540 H   0  0  0  0  0  0  0  0  0  0  0  0
    0.5558   -1.7434    3.6801 H   0  0  0  0  0  0  0  0  0  0  0  0
   -0.0365   -3.2624    3.0517 H   0  0  0  0  0  0  0  0  0  0  0  0
    2.7737    5.9896    0.1178 H   0  0  0  0  0  0  0  0  0  0  0  0
    1.2216    1.9940   -0.0963 H   0  0  0  0  0  0  0  0  0  0  0  0
    4.8610   -0.4748    2.9788 H   0  0  0  0  0  0  0  0  0  0  0  0
    4.2257   -2.0885    3.1919 H   0  0  0  0  0  0  0  0  0  0  0  0
    4.7521   -1.5583    1.6123 H   0  0  0  0  0  0  0  0  0  0  0  0
    1.6951    4.0511   -1.8158 H   0  0  0  0  0  0  0  0  0  0  0  0
    2.1394    5.4924   -0.9337 H   0  0  0  0  0  0  0  0  0  0  0  0
    3.6194    4.2035    0.3136 H   0  0  0  0  0  0  0  0  0  0  0  0
   -2.3009   -0.2964    4.4011 H   0  0  0  0  0  0  0  0  0  0  0  0
   -2.5761    1.1603    5.3259 H   0  0  0  0  0  0  0  0  0  0  0  0
   -3.7433    0.6517    4.1293 H   0  0  0  0  0  0  0  0  0  0  0  0
   -0.0897    0.5753    3.6859 H   0  0  0  0  0  0  0  0  0  0  0  0
    0.0246    2.1370    2.9106 H   0  0  0  0  0  0  0  0  0  0  0  0
   -0.3648    2.0320    4.6107 H   0  0  0  0  0  0  0  0  0  0  0  0
    6.8379   -0.1278    2.7225 H   0  0  0  0  0  0  0  0  0  0  0  0
    3.4449   -0.4698    2.8945 H   0  0  0  0  0  0  0  0  0  0  0  0
    3.9874   -1.8518    1.9731 H   0  0  0  0  0  0  0  0  0  0  0  0
    4.9362   -1.2739    3.3218 H   0  0  0  0  0  0  0  0  0  0  0  0
    7.4405    2.0595    1.4535 H   0  0  0  0  0  0  0  0  0  0  0  0
    7.9830    0.6776    0.5321 H   0  0  0  0  0  0  0  0  0  0  0  0
    6.4917    1.4817    0.1049 H   0  0  0  0  0  0  0  0  0  0  0  0
  1  2  1  0  0  0  0
  1  3  1  6  0  0  0
  1  4  1  0  0  0  0
  1  5  1  0  0  0  0
  2  6  1  0  0  0  0
  2  7  1  0  0  0  0
  2  8  1  1  0  0  0
  3 10  2  0  0  0  0
  4 11  1  0  0  0  0
  4 35  1  1  0  0  0
  4 12  1  0  0  0  0
  5 13  2  0  0  0  0
  5 36  1  0  0  0  0
  6 13  1  0  0  0  0
  6 37  1  6  0  0  0
  6 14  1  0  0  0  0
  7 15  1  0  0  0  0
  7 16  1  0  0  0  0
  7 38  1  6  0  0  0
  8 39  1  0  0  0  0
  9  3  1  0  0  0  0
  9 17  1  0  0  0  0
  9 18  1  0  0  0  0
  9 34  1  6  0  0  0
 11 19  1  0  0  0  0
 11 40  1  0  0  0  0
 11 41  1  0  0  0  0
 12 42  1  0  0  0  0
 12 43  1  0  0  0  0
 12 44  1  0  0  0  0
 13 20  1  0  0  0  0
 14 21  1  0  0  0  0
 15 18  2  0  0  0  0
 15 22  1  0  0  0  0
 16 45  1  0  0  0  0
 17 19  1  0  0  0  0
 17 23  1  0  0  0  0
 17 32  1  6  0  0  0
 18 46  1  0  0  0  0
 19 23  1  0  0  0  0
 19 33  1  6  0  0  0
 20 47  1  0  0  0  0
 20 48  1  0  0  0  0
 20 49  1  0  0  0  0
 21 24  1  0  0  0  0
 21 25  2  0  0  0  0
 22 26  1  0  0  0  0
 22 50  1  0  0  0  0
 22 51  1  0  0  0  0
 23 27  1  0  0  0  0
 23 28  1  0  0  0  0
 24 29  2  0  0  0  0
 24 30  1  0  0  0  0
 26 52  1  0  0  0  0
 27 53  1  0  0  0  0
 27 54  1  0  0  0  0
 27 55  1  0  0  0  0
 28 56  1  0  0  0  0
 28 57  1  0  0  0  0
 28 58  1  0  0  0  0
 29 31  1  0  0  0  0
 29 59  1  0  0  0  0
 30 60  1  0  0  0  0
 30 61  1  0  0  0  0
 30 62  1  0  0  0  0
 31 63  1  0  0  0  0
 31 64  1  0  0  0  0
 31 65  1  0  0  0  0
M  END
>  <DRUGBANK_ID>
DB05013

>  <COMMON_NAME>
Ingenol mebutate

>  <CAS_NUMBER>
75567-37-2

>  <UNII>
7686S50JAH

>  <SYNONYMS>
3-Angeloylingenol; 3-Ingenyl angelate; Ingenol 3-angelate; Ingenol mebutate; Ingenol mebutato; Ingenoli mebutas; Mébutate d'ingénol; Mebutato de ingenol

$$$$
