
 OpenBabel10282417133D

 23 23  0  0  0  0  0  0  0  0999 V2000
   -2.7378   -0.3829   -0.1012 C   0  0  0  0  0  0  0  0  0  0  0  0
   -1.2950   -0.1519    0.0912 C   0  0  0  0  0  0  0  0  0  0  0  0
   -0.3342   -1.0909    0.4389 C   0  0  0  0  0  0  0  0  0  0  0  0
   -0.3215   -2.6034    0.3144 C   0  0  0  0  0  0  0  0  0  0  0  0
    0.2854   -3.2073   -0.9854 C   0  0  0  0  0  0  0  0  0  0  0  0
    1.6847   -2.9425   -1.2180 O   0  0  0  0  0  0  0  0  0  0  0  0
    1.9474   -1.2326   -1.2389 P   0  0  0  0  0  0  0  0  0  0  0  0
    3.4964   -1.6353   -1.5917 O   0  0  0  0  0  0  0  0  0  0  0  0
    1.4725   -1.2579   -2.8112 O   0  0  0  0  0  0  0  0  0  0  0  0
    2.1824    0.2976   -1.2576 O   0  0  0  0  0  0  0  0  0  0  0  0
    0.8290   -0.1973    1.3949 S   0  0  0  0  0  0  0  0  0  0  0  0
    0.3672    1.2204    0.5028 C   0  0  0  0  0  0  0  0  0  0  0  0
   -0.8240    1.1473   -0.0204 N   0  0  0  0  0  0  0  0  0  0  0  0
   -3.2523    0.0593    0.7602 H   0  0  0  0  0  0  0  0  0  0  0  0
   -3.1097    0.0822   -1.0149 H   0  0  0  0  0  0  0  0  0  0  0  0
   -2.9711   -1.4484   -0.1129 H   0  0  0  0  0  0  0  0  0  0  0  0
    0.1887   -3.0415    1.1734 H   0  0  0  0  0  0  0  0  0  0  0  0
   -1.3640   -2.9407    0.3351 H   0  0  0  0  0  0  0  0  0  0  0  0
    0.1843   -4.2982   -0.9564 H   0  0  0  0  0  0  0  0  0  0  0  0
   -0.2952   -2.8905   -1.8602 H   0  0  0  0  0  0  0  0  0  0  0  0
    4.0975   -1.4877   -0.8485 H   0  0  0  0  0  0  0  0  0  0  0  0
    0.7814   -1.8852   -3.0524 H   0  0  0  0  0  0  0  0  0  0  0  0
    1.0213    2.0880    0.3787 H   0  0  0  0  0  0  0  0  0  0  0  0
  1  2  1  0  0  0  0
  1 14  1  0  0  0  0
  1 15  1  0  0  0  0
  1 16  1  0  0  0  0
  2  3  2  0  0  0  0
  2 13  1  0  0  0  0
  3  4  1  0  0  0  0
  3 11  1  0  0  0  0
  4  5  1  0  0  0  0
  4 17  1  0  0  0  0
  4 18  1  0  0  0  0
  5  6  1  0  0  0  0
  5 19  1  0  0  0  0
  5 20  1  0  0  0  0
  6  7  1  0  0  0  0
  7  8  1  0  0  0  0
  7  9  1  0  0  0  0
  7 10  2  0  0  0  0
  8 21  1  0  0  0  0
  9 22  1  0  0  0  0
 11 12  1  0  0  0  0
 12 13  2  0  0  0  0
 12 23  1  0  0  0  0
M  END
>  <DRUGBANK_ID>
DB03145

>  <SECONDARY_ACCESSION_NUMBERS>
EXPT03154

>  <COMMON_NAME>
4-Methyl-5-Hydroxyethylthiazole Phosphate

$$$$
