EPL
 OpenBabel10282417163D

 34 34  0  0  0  0  0  0  0  0999 V2000
    1.0640   -0.0752    0.0158 O   0  0  0  0  0  0  0  0  0  0  0  0
    2.6124   -0.0752    0.0158 P   0  0  0  0  0  0  0  0  0  0  0  0
    2.7336    0.0079   -1.6415 O   0  0  0  0  0  0  0  0  0  0  0  0
    2.5996   -1.2497   -2.3141 C   0  0  0  0  0  0  0  0  0  0  0  0
    3.8064   -2.1330   -2.0814 C   0  0  0  0  0  0  0  0  0  0  0  0
    2.6569    1.5410    0.4596 O   0  0  0  0  0  0  0  0  0  0  0  0
    1.4083    2.0801    0.9647 C   0  0  0  0  0  0  0  0  0  0  0  0
    0.4968    2.4593   -0.2089 C   0  0  0  0  0  0  0  0  0  0  0  0
    4.3424   -0.0752    0.0158 O   0  0  0  0  0  0  0  0  0  0  0  0
    5.0089   -0.9437    0.8707 C   0  0  0  0  0  0  0  0  0  0  0  0
    6.2587   -0.5493    1.3554 C   0  0  0  0  0  0  0  0  0  0  0  0
    7.1071   -1.4942    1.9613 C   0  0  0  0  0  0  0  0  0  0  0  0
    6.7352   -2.8342    2.0744 C   0  0  0  0  0  0  0  0  0  0  0  0
    7.6445   -3.6866    2.6383 O   0  0  0  0  0  0  0  0  0  0  0  0
    7.2078   -5.0295    2.8541 C   0  0  0  0  0  0  0  0  0  0  0  0
    5.4700   -3.2101    1.6253 C   0  0  0  0  0  0  0  0  0  0  0  0
    4.5890   -2.2495    1.1183 C   0  0  0  0  0  0  0  0  0  0  0  0
    1.6991   -1.7589   -1.9522 H   0  0  0  0  0  0  0  0  0  0  0  0
    2.4838   -1.0707   -3.3849 H   0  0  0  0  0  0  0  0  0  0  0  0
    3.8251   -2.3737   -1.0373 H   0  0  0  0  0  0  0  0  0  0  0  0
    3.7560   -3.1046   -2.5739 H   0  0  0  0  0  0  0  0  0  0  0  0
    4.7491   -1.6269   -2.3074 H   0  0  0  0  0  0  0  0  0  0  0  0
    0.9253    1.3616    1.6518 H   0  0  0  0  0  0  0  0  0  0  0  0
    1.6083    2.9546    1.5876 H   0  0  0  0  0  0  0  0  0  0  0  0
    0.3638    1.6718   -0.9607 H   0  0  0  0  0  0  0  0  0  0  0  0
   -0.5057    2.7318    0.1297 H   0  0  0  0  0  0  0  0  0  0  0  0
    0.9569    3.2737   -0.7668 H   0  0  0  0  0  0  0  0  0  0  0  0
    6.5793    0.4823    1.2581 H   0  0  0  0  0  0  0  0  0  0  0  0
    8.0891   -1.1799    2.3175 H   0  0  0  0  0  0  0  0  0  0  0  0
    6.2705   -5.0654    3.4223 H   0  0  0  0  0  0  0  0  0  0  0  0
    7.1045   -5.5592    1.9003 H   0  0  0  0  0  0  0  0  0  0  0  0
    7.9647   -5.5511    3.4470 H   0  0  0  0  0  0  0  0  0  0  0  0
    5.1517   -4.2455    1.6260 H   0  0  0  0  0  0  0  0  0  0  0  0
    3.6027   -2.6160    0.8426 H   0  0  0  0  0  0  0  0  0  0  0  0
  1  2  2  0  0  0  0
  2  3  1  0  0  0  0
  2  6  1  0  0  0  0
  2  9  1  0  0  0  0
  3  4  1  0  0  0  0
  4  5  1  0  0  0  0
  4 18  1  0  0  0  0
  4 19  1  0  0  0  0
  5 20  1  0  0  0  0
  5 21  1  0  0  0  0
  5 22  1  0  0  0  0
  6  7  1  0  0  0  0
  7  8  1  0  0  0  0
  7 23  1  0  0  0  0
  7 24  1  0  0  0  0
  8 25  1  0  0  0  0
  8 26  1  0  0  0  0
  8 27  1  0  0  0  0
  9 10  1  0  0  0  0
 10 17  2  0  0  0  0
 10 11  1  0  0  0  0
 11 12  2  0  0  0  0
 11 28  1  0  0  0  0
 12 13  1  0  0  0  0
 12 29  1  0  0  0  0
 13 16  2  0  0  0  0
 13 14  1  0  0  0  0
 14 15  1  0  0  0  0
 15 30  1  0  0  0  0
 15 31  1  0  0  0  0
 15 32  1  0  0  0  0
 16 17  1  0  0  0  0
 16 33  1  0  0  0  0
 17 34  1  0  0  0  0
M  END
>  <DRUGBANK_ID>
DB07721

>  <COMMON_NAME>
DIETHYL 4-METHOXYPHENYL PHOSPHATE

$$$$
