1325
 OpenBabel10282417113D

 30 31  0  0  1  0  0  0  0  0999 V2000
    0.9858    0.2707   -0.1053 Cl  0  0  0  0  0  0  0  0  0  0  0  0
    2.5855   -2.7723    0.0122 S   0  0  0  0  0  0  0  0  0  0  0  0
    7.6724   -0.9348   -0.0533 O   0  0  0  0  0  0  0  0  0  0  0  0
    2.9063   -3.4311   -1.2288 O   0  0  0  0  0  0  0  0  0  0  0  0
    2.8750   -3.3763    1.2965 O   0  0  0  0  0  0  0  0  0  0  0  0
    5.5210    2.4407   -0.1483 N   0  0  0  0  0  0  0  0  0  0  0  0
    7.4532    1.2903   -0.5372 N   0  0  0  0  0  0  0  0  0  0  0  0
    0.9308   -2.5477   -0.0276 N   0  0  0  0  0  0  0  0  0  0  0  0
    6.9175    2.3920    0.2081 C   0  0  3  0  0  0  0  0  0  0  0  0
    4.8136    1.2462   -0.1625 C   0  0  0  0  0  0  0  0  0  0  0  0
    7.0598    2.2082    1.7389 C   0  0  0  0  0  0  0  0  0  0  0  0
    5.4784    0.0101   -0.0944 C   0  0  0  0  0  0  0  0  0  0  0  0
    6.9597    0.0470   -0.2112 C   0  0  0  0  0  0  0  0  0  0  0  0
    4.7773   -1.1961   -0.0154 C   0  0  0  0  0  0  0  0  0  0  0  0
    3.3680   -1.1816   -0.0179 C   0  0  0  0  0  0  0  0  0  0  0  0
    3.4252    1.2445   -0.1490 C   0  0  0  0  0  0  0  0  0  0  0  0
    2.6958    0.0447   -0.0850 C   0  0  0  0  0  0  0  0  0  0  0  0
    8.5088    2.0736    2.1771 C   0  0  0  0  0  0  0  0  0  0  0  0
    5.0954    3.3236   -0.3934 H   0  0  0  0  0  0  0  0  0  0  0  0
    8.4040    1.3375   -0.8719 H   0  0  0  0  0  0  0  0  0  0  0  0
    0.6234   -1.9999   -0.8316 H   0  0  0  0  0  0  0  0  0  0  0  0
    0.4207   -3.4228    0.0834 H   0  0  0  0  0  0  0  0  0  0  0  0
    7.4300    3.3082   -0.1078 H   0  0  0  0  0  0  0  0  0  0  0  0
    6.5836    3.0431    2.2665 H   0  0  0  0  0  0  0  0  0  0  0  0
    6.5281    1.3101    2.0813 H   0  0  0  0  0  0  0  0  0  0  0  0
    5.3343   -2.1328    0.0221 H   0  0  0  0  0  0  0  0  0  0  0  0
    2.8956    2.1942   -0.1791 H   0  0  0  0  0  0  0  0  0  0  0  0
    9.0608    2.9938    1.9717 H   0  0  0  0  0  0  0  0  0  0  0  0
    8.5593    1.8665    3.2506 H   0  0  0  0  0  0  0  0  0  0  0  0
    9.0077    1.2470    1.6611 H   0  0  0  0  0  0  0  0  0  0  0  0
  1 17  1  0  0  0  0
  2  4  2  0  0  0  0
  2  5  2  0  0  0  0
  2  8  1  0  0  0  0
  2 15  1  0  0  0  0
  3 13  2  0  0  0  0
  6  9  1  0  0  0  0
  6 10  1  0  0  0  0
  6 19  1  0  0  0  0
  7  9  1  0  0  0  0
  7 13  1  0  0  0  0
  7 20  1  0  0  0  0
  8 21  1  0  0  0  0
  8 22  1  0  0  0  0
  9 11  1  0  0  0  0
  9 23  1  0  0  0  0
 10 12  1  0  0  0  0
 10 16  2  0  0  0  0
 11 18  1  0  0  0  0
 11 24  1  0  0  0  0
 11 25  1  0  0  0  0
 12 13  1  0  0  0  0
 12 14  2  0  0  0  0
 14 15  1  0  0  0  0
 14 26  1  0  0  0  0
 15 17  2  0  0  0  0
 16 17  1  0  0  0  0
 16 27  1  0  0  0  0
 18 28  1  0  0  0  0
 18 29  1  0  0  0  0
 18 30  1  0  0  0  0
M  END
>  <DRUGBANK_ID>
DB01325

>  <COMMON_NAME>
Quinethazone

>  <CAS_NUMBER>
73-49-4

>  <UNII>
455E0S048W

>  <SYNONYMS>
Chinetazone; Quinetazona; Quinethazon; Quinethazone; Quinethazonum

$$$$
