DD2
 OpenBabel10282417163D

 52 55  0  0  0  0  0  0  0  0999 V2000
   -0.0867    0.6666    0.0803 C   0  0  0  0  0  0  0  0  0  0  0  0
   -1.3162    1.3435    0.1963 C   0  0  0  0  0  0  0  0  0  0  0  0
   -2.4899    0.5673    0.2969 C   0  0  0  0  0  0  0  0  0  0  0  0
   -2.4828   -0.8112    0.1549 C   0  0  0  0  0  0  0  0  0  0  0  0
   -1.2695   -1.4682    0.0514 C   0  0  0  0  0  0  0  0  0  0  0  0
   -0.0745   -0.7399    0.0343 C   0  0  0  0  0  0  0  0  0  0  0  0
   -1.4593    2.8596    0.1131 C   0  0  0  0  0  0  0  0  0  0  0  0
   -3.5698    2.9140   -1.2213 C   0  0  0  0  0  0  0  0  0  0  0  0
   -2.0647    3.5070   -3.4220 C   0  0  0  0  0  0  0  0  0  0  0  0
   -1.4145    2.9090   -2.2228 C   0  0  0  0  0  0  0  0  0  0  0  0
   -3.5758    2.8024   -6.2541 O   0  0  0  0  0  0  0  0  0  0  0  0
   -2.2691    3.0436   -6.5759 C   0  0  0  0  0  0  0  0  0  0  0  0
   -1.2770    2.4239   -5.8653 C   0  0  0  0  0  0  0  0  0  0  0  0
    0.0162    2.9219   -5.8925 C   0  0  0  0  0  0  0  0  0  0  0  0
    0.4543    3.4032   -7.0962 C   0  0  0  0  0  0  0  0  0  0  0  0
   -0.4812    3.7340   -8.0473 C   0  0  0  0  0  0  0  0  0  0  0  0
   -2.7239    4.1265   -8.7289 C   0  0  0  0  0  0  0  0  0  0  0  0
   -0.9384    4.5180  -10.0997 C   0  0  0  0  0  0  0  0  0  0  0  0
    1.4082    1.5464   -0.0025 Cl  0  0  0  0  0  0  0  0  0  0  0  0
    1.3920   -1.6547   -0.0372 Cl  0  0  0  0  0  0  0  0  0  0  0  0
   -2.1722    3.3452   -1.0820 N   0  0  0  0  0  0  0  0  0  0  0  0
   -3.4503    2.9129   -3.7091 C   0  0  0  0  0  0  0  0  0  0  0  0
   -4.2853    3.3565   -2.5005 C   0  0  0  0  0  0  0  0  0  0  0  0
   -4.0823    3.3874   -5.0274 C   0  0  0  0  0  0  0  0  0  0  0  0
   -1.8540    3.6691   -7.7573 C   0  0  0  0  0  0  0  0  0  0  0  0
   -4.0863    4.2741   -8.4576 N   0  0  0  0  0  0  0  0  0  0  0  0
   -2.2647    4.5499   -9.9187 N   0  0  0  0  0  0  0  0  0  0  0  0
   -0.4508    4.9465  -11.3062 N   0  0  0  0  0  0  0  0  0  0  0  0
   -0.0183    4.1410   -9.2282 N   0  0  0  0  0  0  0  0  0  0  0  0
   -3.4585    1.0429    0.4288 H   0  0  0  0  0  0  0  0  0  0  0  0
   -3.4241   -1.3548    0.1385 H   0  0  0  0  0  0  0  0  0  0  0  0
   -1.2609   -2.5531    0.0099 H   0  0  0  0  0  0  0  0  0  0  0  0
   -1.9441    3.2522    1.0080 H   0  0  0  0  0  0  0  0  0  0  0  0
   -0.4738    3.3460    0.0963 H   0  0  0  0  0  0  0  0  0  0  0  0
   -4.1372    3.2279   -0.3443 H   0  0  0  0  0  0  0  0  0  0  0  0
   -3.6138    1.8312   -1.3283 H   0  0  0  0  0  0  0  0  0  0  0  0
   -1.2801    3.2326   -4.0579 H   0  0  0  0  0  0  0  0  0  0  0  0
   -2.0558    4.5947   -3.4975 H   0  0  0  0  0  0  0  0  0  0  0  0
   -1.3916    1.8118   -2.3405 H   0  0  0  0  0  0  0  0  0  0  0  0
   -0.3624    3.2282   -2.1902 H   0  0  0  0  0  0  0  0  0  0  0  0
   -1.5718    1.7088   -5.1048 H   0  0  0  0  0  0  0  0  0  0  0  0
    0.6723    2.8952   -5.0260 H   0  0  0  0  0  0  0  0  0  0  0  0
    1.5231    3.4430   -7.2692 H   0  0  0  0  0  0  0  0  0  0  0  0
   -3.4152    1.8103   -3.7343 H   0  0  0  0  0  0  0  0  0  0  0  0
   -4.4283    4.4411   -2.5100 H   0  0  0  0  0  0  0  0  0  0  0  0
   -5.2751    2.8828   -2.5251 H   0  0  0  0  0  0  0  0  0  0  0  0
   -5.1407    3.0809   -5.0069 H   0  0  0  0  0  0  0  0  0  0  0  0
   -4.0965    4.4812   -5.0881 H   0  0  0  0  0  0  0  0  0  0  0  0
   -4.4315    3.6571   -7.7248 H   0  0  0  0  0  0  0  0  0  0  0  0
   -4.6762    4.4001   -9.2647 H   0  0  0  0  0  0  0  0  0  0  0  0
    0.5456    4.9571  -11.4188 H   0  0  0  0  0  0  0  0  0  0  0  0
   -1.1172    5.2708  -11.9758 H   0  0  0  0  0  0  0  0  0  0  0  0
  1  2  2  0  0  0  0
  1  6  1  0  0  0  0
  1 19  1  0  0  0  0
  2  3  1  0  0  0  0
  2  7  1  0  0  0  0
  3  4  2  0  0  0  0
  3 30  1  0  0  0  0
  4  5  1  0  0  0  0
  4 31  1  0  0  0  0
  5  6  2  0  0  0  0
  5 32  1  0  0  0  0
  6 20  1  0  0  0  0
  7 21  1  0  0  0  0
  7 33  1  0  0  0  0
  7 34  1  0  0  0  0
  8 21  1  0  0  0  0
  8 23  1  0  0  0  0
  8 35  1  0  0  0  0
  8 36  1  0  0  0  0
  9 10  1  0  0  0  0
  9 22  1  0  0  0  0
  9 37  1  0  0  0  0
  9 38  1  0  0  0  0
 10 21  1  0  0  0  0
 10 39  1  0  0  0  0
 10 40  1  0  0  0  0
 11 12  1  0  0  0  0
 11 24  1  0  0  0  0
 12 13  2  0  0  0  0
 12 25  1  0  0  0  0
 13 14  1  0  0  0  0
 13 41  1  0  0  0  0
 14 15  2  0  0  0  0
 14 42  1  0  0  0  0
 15 16  1  0  0  0  0
 15 43  1  0  0  0  0
 16 25  2  0  0  0  0
 16 29  1  0  0  0  0
 17 25  1  0  0  0  0
 17 26  1  0  0  0  0
 17 27  2  0  0  0  0
 18 27  1  0  0  0  0
 18 28  1  0  0  0  0
 18 29  2  0  0  0  0
 22 23  1  0  0  0  0
 22 24  1  0  0  0  0
 22 44  1  0  0  0  0
 23 45  1  0  0  0  0
 23 46  1  0  0  0  0
 24 47  1  0  0  0  0
 24 48  1  0  0  0  0
 26 49  1  0  0  0  0
 26 50  1  0  0  0  0
 28 51  1  0  0  0  0
 28 52  1  0  0  0  0
M  END
>  <DRUGBANK_ID>
DB07643

>  <COMMON_NAME>
5-{[1-(2,3-dichlorobenzyl)piperidin-4-yl]methoxy}quinazoline-2,4-diamine

$$$$
