1033
 OpenBabel10282417113D

 14 15  0  0  0  0  0  0  0  0999 V2000
    0.9110   -0.1107    0.0237 S   0  0  0  0  0  0  0  0  0  0  0  0
    2.9638   -2.5866    0.0220 N   0  0  0  0  0  0  0  0  0  0  0  0
    5.3999   -0.1696    0.0105 N   0  0  0  0  0  0  0  0  0  0  0  0
    5.1948   -2.5609    0.0134 N   0  0  0  0  0  0  0  0  0  0  0  0
    3.3536    1.0998    0.0175 N   0  0  0  0  0  0  0  0  0  0  0  0
    3.3306   -1.2680    0.0195 C   0  0  0  0  0  0  0  0  0  0  0  0
    4.6972   -1.3017    0.0144 C   0  0  0  0  0  0  0  0  0  0  0  0
    2.5811   -0.0477    0.0205 C   0  0  0  0  0  0  0  0  0  0  0  0
    4.1201   -3.3261    0.0179 C   0  0  0  0  0  0  0  0  0  0  0  0
    4.6465    0.9759    0.0126 C   0  0  0  0  0  0  0  0  0  0  0  0
    2.0160   -2.9415    0.0256 H   0  0  0  0  0  0  0  0  0  0  0  0
    6.4106   -0.1535    0.0070 H   0  0  0  0  0  0  0  0  0  0  0  0
    4.1088   -4.4086    0.0184 H   0  0  0  0  0  0  0  0  0  0  0  0
    5.2689    1.8867    0.0092 H   0  0  0  0  0  0  0  0  0  0  0  0
  1  8  2  0  0  0  0
  2  6  1  0  0  0  0
  2  9  1  0  0  0  0
  2 11  1  0  0  0  0
  3  7  1  0  0  0  0
  3 10  1  0  0  0  0
  3 12  1  0  0  0  0
  4  7  1  0  0  0  0
  4  9  2  0  0  0  0
  5  8  1  0  0  0  0
  5 10  2  0  0  0  0
  6  7  2  0  0  0  0
  6  8  1  0  0  0  0
  9 13  1  0  0  0  0
 10 14  1  0  0  0  0
M  END
>  <DRUGBANK_ID>
DB01033

>  <SECONDARY_ACCESSION_NUMBERS>
APRD01096

>  <COMMON_NAME>
Mercaptopurine

>  <CAS_NUMBER>
50-44-2

>  <UNII>
PKK6MUZ20G

>  <SYNONYMS>
1,9-DIHYDRO-6H-PURINE-6-THIONE; 6 MP; 6-Mercaptopurine; 6-MP; 6-Thiohypoxanthine; 6-Thioxopurine; Mercaptopurina; Mercaptopurine; Mercaptopurine anhydrous; Mercaptopurinum; Mercapurin

$$$$
