
 OpenBabel10282417153D

 85 89  0  0  0  0  0  0  0  0999 V2000
    1.2044   -0.0688    0.5406 C   0  0  0  0  0  0  0  0  0  0  0  0
    0.4844   -0.9892    1.3999 C   0  0  0  0  0  0  0  0  0  0  0  0
    1.1632   -1.1971    2.6415 N   0  0  0  0  0  0  0  0  0  0  0  0
    0.5794   -2.4183    3.2214 C   0  0  0  0  0  0  0  0  0  0  0  0
    1.0050   -3.8426    2.8375 C   0  0  0  0  0  0  0  0  0  0  0  0
    2.6109   -1.2950    2.3751 C   0  0  0  0  0  0  0  0  0  0  0  0
    3.0922   -2.4339    1.3820 C   0  0  0  0  0  0  0  0  0  0  0  0
    2.4568   -2.6202   -0.0580 N   0  0  0  0  0  0  0  0  0  0  0  0
    3.5057   -2.7109   -1.0394 C   0  0  0  0  0  0  0  0  0  0  0  0
    3.5181   -4.0899   -1.6087 C   0  0  0  0  0  0  0  0  0  0  0  0
    4.3786   -5.0960   -1.2933 C   0  0  0  0  0  0  0  0  0  0  0  0
    4.2194   -6.3207   -1.9521 C   0  0  0  0  0  0  0  0  0  0  0  0
    3.2226   -6.5319   -2.9318 C   0  0  0  0  0  0  0  0  0  0  0  0
    2.2693   -5.5943   -3.1280 C   0  0  0  0  0  0  0  0  0  0  0  0
    2.4853   -4.4482   -2.4460 C   0  0  0  0  0  0  0  0  0  0  0  0
    3.0721   -7.7359   -3.6880 C   0  0  0  0  0  0  0  0  0  0  0  0
    2.7438   -8.8821   -2.9789 C   0  0  0  0  0  0  0  0  0  0  0  0
    2.5359  -10.0581   -3.6593 C   0  0  0  0  0  0  0  0  0  0  0  0
    2.6184  -10.0832   -5.0584 C   0  0  0  0  0  0  0  0  0  0  0  0
    2.8414   -8.9000   -5.7793 C   0  0  0  0  0  0  0  0  0  0  0  0
    3.1092   -7.7287   -5.0929 C   0  0  0  0  0  0  0  0  0  0  0  0
    2.5495  -11.3931   -5.7834 C   0  0  0  0  0  0  0  0  0  0  0  0
    1.5248  -11.4505   -6.6724 F   0  0  0  0  0  0  0  0  0  0  0  0
    3.6872  -11.6327   -6.4918 F   0  0  0  0  0  0  0  0  0  0  0  0
    2.3972  -12.4584   -4.9501 F   0  0  0  0  0  0  0  0  0  0  0  0
    1.0839   -2.9915   -0.4988 C   0  0  0  0  0  0  0  0  0  0  0  0
    0.2264   -3.5726    0.1969 O   0  0  0  0  0  0  0  0  0  0  0  0
    0.3759   -2.5626   -1.8349 C   0  0  0  0  0  0  0  0  0  0  0  0
    0.8566   -1.4052   -2.6376 N   0  0  0  0  0  0  0  0  0  0  0  0
    1.7835   -1.4716   -3.7045 C   0  0  0  0  0  0  0  0  0  0  0  0
    2.1710   -0.3797   -4.3684 C   0  0  0  0  0  0  0  0  0  0  0  0
    1.6296    0.9126   -3.9870 C   0  0  0  0  0  0  0  0  0  0  0  0
    2.0706    1.9398   -4.5547 O   0  0  0  0  0  0  0  0  0  0  0  0
    0.6177    0.9605   -3.0923 N   0  0  0  0  0  0  0  0  0  0  0  0
    0.2449   -0.1224   -2.4819 C   0  0  0  0  0  0  0  0  0  0  0  0
   -1.1547    0.1711   -1.4251 S   0  0  0  0  0  0  0  0  0  0  0  0
   -0.8928    1.7965   -0.5952 C   0  0  0  0  0  0  0  0  0  0  0  0
    0.3785    2.6886   -0.3882 C   0  0  0  0  0  0  0  0  0  0  0  0
    0.1760    4.0479   -0.1723 C   0  0  0  0  0  0  0  0  0  0  0  0
    1.2538    4.8974    0.1663 C   0  0  0  0  0  0  0  0  0  0  0  0
    2.4984    4.3867    0.5256 C   0  0  0  0  0  0  0  0  0  0  0  0
    2.7028    3.0471    0.4776 C   0  0  0  0  0  0  0  0  0  0  0  0
    1.7376    2.3289   -0.2277 C   0  0  0  0  0  0  0  0  0  0  0  0
    3.5459    5.1855    0.7599 F   0  0  0  0  0  0  0  0  0  0  0  0
    3.0658   -0.6542   -5.5316 C   0  0  0  0  0  0  0  0  0  0  0  0
    2.9004   -2.1428   -5.7498 C   0  0  0  0  0  0  0  0  0  0  0  0
    2.4784   -2.6183   -4.3950 C   0  0  0  0  0  0  0  0  0  0  0  0
    0.9080    0.8487    1.0036 H   0  0  0  0  0  0  0  0  0  0  0  0
    0.9722   -0.1878   -0.4888 H   0  0  0  0  0  0  0  0  0  0  0  0
    2.2814   -0.1843    0.3963 H   0  0  0  0  0  0  0  0  0  0  0  0
   -0.6056   -0.9710    1.3061 H   0  0  0  0  0  0  0  0  0  0  0  0
    0.7183   -1.8672    0.9508 H   0  0  0  0  0  0  0  0  0  0  0  0
    0.8018   -2.3272    4.2780 H   0  0  0  0  0  0  0  0  0  0  0  0
   -0.5121   -2.3421    3.1142 H   0  0  0  0  0  0  0  0  0  0  0  0
    2.0063   -4.0612    3.1920 H   0  0  0  0  0  0  0  0  0  0  0  0
    0.3233   -4.5680    3.2733 H   0  0  0  0  0  0  0  0  0  0  0  0
    1.0449   -4.1297    1.8009 H   0  0  0  0  0  0  0  0  0  0  0  0
    3.0080   -0.3245    2.0131 H   0  0  0  0  0  0  0  0  0  0  0  0
    3.1289   -1.3266    3.3361 H   0  0  0  0  0  0  0  0  0  0  0  0
    4.1537   -2.1661    1.2403 H   0  0  0  0  0  0  0  0  0  0  0  0
    3.1878   -3.3923    1.8792 H   0  0  0  0  0  0  0  0  0  0  0  0
    3.3609   -1.8790   -1.7275 H   0  0  0  0  0  0  0  0  0  0  0  0
    4.4945   -2.5195   -0.6075 H   0  0  0  0  0  0  0  0  0  0  0  0
    5.1456   -4.9378   -0.5481 H   0  0  0  0  0  0  0  0  0  0  0  0
    4.8746   -7.1384   -1.6887 H   0  0  0  0  0  0  0  0  0  0  0  0
    1.4208   -5.6787   -3.8061 H   0  0  0  0  0  0  0  0  0  0  0  0
    1.8253   -3.6918   -2.7119 H   0  0  0  0  0  0  0  0  0  0  0  0
    2.6524   -8.8344   -1.8960 H   0  0  0  0  0  0  0  0  0  0  0  0
    2.3246  -10.9536   -3.0839 H   0  0  0  0  0  0  0  0  0  0  0  0
    2.8336   -8.9009   -6.8677 H   0  0  0  0  0  0  0  0  0  0  0  0
    3.3460   -6.8184   -5.6459 H   0  0  0  0  0  0  0  0  0  0  0  0
    0.1742   -3.4934   -2.3897 H   0  0  0  0  0  0  0  0  0  0  0  0
   -0.6706   -2.3853   -1.5652 H   0  0  0  0  0  0  0  0  0  0  0  0
   -1.6037    2.4089   -1.1475 H   0  0  0  0  0  0  0  0  0  0  0  0
   -1.3596    1.6744    0.4074 H   0  0  0  0  0  0  0  0  0  0  0  0
   -0.8072    4.4722   -0.3523 H   0  0  0  0  0  0  0  0  0  0  0  0
    1.1297    5.9693    0.1335 H   0  0  0  0  0  0  0  0  0  0  0  0
    3.6307    2.5820    0.8052 H   0  0  0  0  0  0  0  0  0  0  0  0
    2.1564    1.4226   -0.6236 H   0  0  0  0  0  0  0  0  0  0  0  0
    4.1081   -0.4251   -5.2901 H   0  0  0  0  0  0  0  0  0  0  0  0
    2.7436   -0.1299   -6.4278 H   0  0  0  0  0  0  0  0  0  0  0  0
    3.8105   -2.6652   -6.0730 H   0  0  0  0  0  0  0  0  0  0  0  0
    2.1025   -2.3975   -6.4554 H   0  0  0  0  0  0  0  0  0  0  0  0
    3.4229   -2.8723   -3.8934 H   0  0  0  0  0  0  0  0  0  0  0  0
    1.8235   -3.4670   -4.5893 H   0  0  0  0  0  0  0  0  0  0  0  0
  1  2  1  0  0  0  0
  1 48  1  0  0  0  0
  1 49  1  0  0  0  0
  1 50  1  0  0  0  0
  2  3  1  0  0  0  0
  2 51  1  0  0  0  0
  2 52  1  0  0  0  0
  3  4  1  0  0  0  0
  3  6  1  0  0  0  0
  4  5  1  0  0  0  0
  4 53  1  0  0  0  0
  4 54  1  0  0  0  0
  5 55  1  0  0  0  0
  5 56  1  0  0  0  0
  5 57  1  0  0  0  0
  6  7  1  0  0  0  0
  6 58  1  0  0  0  0
  6 59  1  0  0  0  0
  7  8  1  0  0  0  0
  7 60  1  0  0  0  0
  7 61  1  0  0  0  0
  8  9  1  0  0  0  0
  8 26  1  0  0  0  0
  9 10  1  0  0  0  0
  9 62  1  0  0  0  0
  9 63  1  0  0  0  0
 10 11  2  0  0  0  0
 10 15  1  0  0  0  0
 11 12  1  0  0  0  0
 11 64  1  0  0  0  0
 12 13  2  0  0  0  0
 12 65  1  0  0  0  0
 13 14  1  0  0  0  0
 13 16  1  0  0  0  0
 14 15  2  0  0  0  0
 14 66  1  0  0  0  0
 15 67  1  0  0  0  0
 16 17  2  0  0  0  0
 16 21  1  0  0  0  0
 17 18  1  0  0  0  0
 17 68  1  0  0  0  0
 18 19  2  0  0  0  0
 18 69  1  0  0  0  0
 19 20  1  0  0  0  0
 19 22  1  0  0  0  0
 20 21  2  0  0  0  0
 20 70  1  0  0  0  0
 21 71  1  0  0  0  0
 22 23  1  0  0  0  0
 22 24  1  0  0  0  0
 22 25  1  0  0  0  0
 26 27  2  0  0  0  0
 26 28  1  0  0  0  0
 28 29  1  0  0  0  0
 28 72  1  0  0  0  0
 28 73  1  0  0  0  0
 29 30  1  0  0  0  0
 29 35  1  0  0  0  0
 30 31  2  0  0  0  0
 30 47  1  0  0  0  0
 31 32  1  0  0  0  0
 31 45  1  0  0  0  0
 32 33  2  0  0  0  0
 32 34  1  0  0  0  0
 34 35  2  0  0  0  0
 35 36  1  0  0  0  0
 36 37  1  0  0  0  0
 37 38  1  0  0  0  0
 37 74  1  0  0  0  0
 37 75  1  0  0  0  0
 38 39  2  0  0  0  0
 38 43  1  0  0  0  0
 39 40  1  0  0  0  0
 39 76  1  0  0  0  0
 40 41  2  0  0  0  0
 40 77  1  0  0  0  0
 41 42  1  0  0  0  0
 41 44  1  0  0  0  0
 42 43  2  0  0  0  0
 42 78  1  0  0  0  0
 43 79  1  0  0  0  0
 45 46  1  0  0  0  0
 45 80  1  0  0  0  0
 45 81  1  0  0  0  0
 46 47  1  0  0  0  0
 46 82  1  0  0  0  0
 46 83  1  0  0  0  0
 47 84  1  0  0  0  0
 47 85  1  0  0  0  0
M  END
>  <DRUGBANK_ID>
DB06311

>  <COMMON_NAME>
Darapladib

>  <CAS_NUMBER>
356057-34-6

>  <UNII>
UI1U1MYH09

>  <SYNONYMS>
Darapladib

$$$$
