64U
 OpenBabel10282417163D

 57 59  0  0  0  0  0  0  0  0999 V2000
    1.0459   -0.0687   -0.0586 C   0  0  0  0  0  0  0  0  0  0  0  0
    0.8563    1.4243    1.9924 N   0  0  0  0  0  0  0  0  0  0  0  0
    0.2701    0.2444    1.3072 C   0  0  1  0  0  0  0  0  0  0  0  0
   -1.4122    0.3165    1.5298 C   0  0  0  0  0  0  0  0  0  0  0  0
   -1.9232   -0.5099    2.2970 O   0  0  0  0  0  0  0  0  0  0  0  0
   -2.1938    1.3682    1.0259 N   0  0  0  0  0  0  0  0  0  0  0  0
   -2.0171    1.9304   -0.2153 C   0  0  0  0  0  0  0  0  0  0  0  0
   -2.4780    3.3306   -0.1958 C   0  0  0  0  0  0  0  0  0  0  0  0
   -3.7638    3.1914    0.4464 C   0  0  0  0  0  0  0  0  0  0  0  0
   -3.4506    1.9890    1.4133 C   0  0  1  0  0  0  0  0  0  0  0  0
   -4.5814    1.0904    1.0971 C   0  0  0  0  0  0  0  0  0  0  0  0
   -5.1171    0.6066    2.2143 N   0  0  0  0  0  0  0  0  0  0  0  0
   -6.4797    0.2388    2.1947 C   0  0  0  0  0  0  0  0  0  0  0  0
   -6.6081   -1.1894    2.5586 C   0  0  0  0  0  0  0  0  0  0  0  0
   -6.8868   -2.1380    1.5696 C   0  0  0  0  0  0  0  0  0  0  0  0
   -7.0246   -3.4695    1.9285 C   0  0  0  0  0  0  0  0  0  0  0  0
   -6.8464   -3.8606    3.2553 C   0  0  0  0  0  0  0  0  0  0  0  0
   -6.5248   -2.9168    4.2323 C   0  0  0  0  0  0  0  0  0  0  0  0
   -6.4008   -1.5810    3.8842 C   0  0  0  0  0  0  0  0  0  0  0  0
   -5.0492    0.8930   -0.0603 O   0  0  0  0  0  0  0  0  0  0  0  0
    0.9712    0.9543   -1.2709 C   0  0  0  0  0  0  0  0  0  0  0  0
    1.3787    2.3683   -0.7855 C   0  0  0  0  0  0  0  0  0  0  0  0
    1.0826    3.5445   -1.7029 C   0  0  0  0  0  0  0  0  0  0  0  0
   -0.3780    3.6566   -2.0080 C   0  0  0  0  0  0  0  0  0  0  0  0
   -0.9409    2.2562   -2.5469 C   0  0  0  0  0  0  0  0  0  0  0  0
   -0.4171    0.8716   -1.8797 C   0  0  0  0  0  0  0  0  0  0  0  0
   -7.4439   -4.6311    0.7332 Cl  0  0  0  0  0  0  0  0  0  0  0  0
    0.5729   -0.6024    1.9543 H   0  0  0  0  0  0  0  0  0  0  0  0
   -3.3281    2.3511    2.4316 H   0  0  0  0  0  0  0  0  0  0  0  0
    0.7173   -1.0611   -0.4047 H   0  0  0  0  0  0  0  0  0  0  0  0
    2.1219   -0.2044    0.1609 H   0  0  0  0  0  0  0  0  0  0  0  0
    0.5565    1.4649    2.9632 H   0  0  0  0  0  0  0  0  0  0  0  0
    1.8752    1.3733    1.9844 H   0  0  0  0  0  0  0  0  0  0  0  0
   -2.5750    1.2868   -0.9362 H   0  0  0  0  0  0  0  0  0  0  0  0
   -0.9708    2.0686   -0.2469 H   0  0  0  0  0  0  0  0  0  0  0  0
   -1.7807    3.8573    0.4607 H   0  0  0  0  0  0  0  0  0  0  0  0
   -2.5965    3.7973   -1.1760 H   0  0  0  0  0  0  0  0  0  0  0  0
   -3.9783    4.1681    0.8682 H   0  0  0  0  0  0  0  0  0  0  0  0
   -4.4507    2.9999   -0.3976 H   0  0  0  0  0  0  0  0  0  0  0  0
   -4.5043    0.4900    3.0207 H   0  0  0  0  0  0  0  0  0  0  0  0
   -6.9783    0.9007    2.9034 H   0  0  0  0  0  0  0  0  0  0  0  0
   -6.9237    0.4392    1.2112 H   0  0  0  0  0  0  0  0  0  0  0  0
   -6.9958   -1.8292    0.5309 H   0  0  0  0  0  0  0  0  0  0  0  0
   -6.9526   -4.9029    3.5350 H   0  0  0  0  0  0  0  0  0  0  0  0
   -6.3754   -3.2173    5.2642 H   0  0  0  0  0  0  0  0  0  0  0  0
   -6.1388   -0.8396    4.6368 H   0  0  0  0  0  0  0  0  0  0  0  0
    1.6355    0.6540   -2.0863 H   0  0  0  0  0  0  0  0  0  0  0  0
    0.8820    2.6293    0.1514 H   0  0  0  0  0  0  0  0  0  0  0  0
    2.4440    2.3591   -0.5533 H   0  0  0  0  0  0  0  0  0  0  0  0
    1.4029    4.4576   -1.1741 H   0  0  0  0  0  0  0  0  0  0  0  0
    1.5960    3.4648   -2.6490 H   0  0  0  0  0  0  0  0  0  0  0  0
   -0.7198    4.1088   -1.0711 H   0  0  0  0  0  0  0  0  0  0  0  0
   -0.6628    4.4834   -2.6768 H   0  0  0  0  0  0  0  0  0  0  0  0
   -2.0466    2.2818   -2.5871 H   0  0  0  0  0  0  0  0  0  0  0  0
   -0.6934    2.2121   -3.6053 H   0  0  0  0  0  0  0  0  0  0  0  0
   -0.8285   -0.0396   -2.3448 H   0  0  0  0  0  0  0  0  0  0  0  0
   -0.8751    0.5089   -0.9662 H   0  0  0  0  0  0  0  0  0  0  0  0
  1  3  1  0  0  0  0
  1 21  1  0  0  0  0
  1 30  1  0  0  0  0
  1 31  1  0  0  0  0
  2 32  1  0  0  0  0
  2 33  1  0  0  0  0
  3  2  1  0  0  0  0
  3  4  1  0  0  0  0
  3 28  1  1  0  0  0
  4  5  2  0  0  0  0
  4  6  1  0  0  0  0
  6  7  1  0  0  0  0
  6 10  1  0  0  0  0
  7  8  1  0  0  0  0
  7 34  1  0  0  0  0
  7 35  1  0  0  0  0
  8  9  1  0  0  0  0
  8 36  1  0  0  0  0
  8 37  1  0  0  0  0
  9 10  1  0  0  0  0
  9 38  1  0  0  0  0
  9 39  1  0  0  0  0
 10 29  1  1  0  0  0
 10 11  1  0  0  0  0
 11 12  1  0  0  0  0
 11 20  2  0  0  0  0
 12 13  1  0  0  0  0
 12 40  1  0  0  0  0
 13 14  1  0  0  0  0
 13 41  1  0  0  0  0
 13 42  1  0  0  0  0
 14 15  2  0  0  0  0
 14 19  1  0  0  0  0
 15 16  1  0  0  0  0
 15 43  1  0  0  0  0
 16 17  2  0  0  0  0
 16 27  1  0  0  0  0
 17 18  1  0  0  0  0
 17 44  1  0  0  0  0
 18 19  2  0  0  0  0
 18 45  1  0  0  0  0
 19 46  1  0  0  0  0
 21 22  1  0  0  0  0
 21 26  1  0  0  0  0
 21 47  1  0  0  0  0
 22 23  1  0  0  0  0
 22 48  1  0  0  0  0
 22 49  1  0  0  0  0
 23 24  1  0  0  0  0
 23 50  1  0  0  0  0
 23 51  1  0  0  0  0
 24 25  1  0  0  0  0
 24 52  1  0  0  0  0
 24 53  1  0  0  0  0
 25 26  1  0  0  0  0
 25 54  1  0  0  0  0
 25 55  1  0  0  0  0
 26 56  1  0  0  0  0
 26 57  1  0  0  0  0
M  END
>  <DRUGBANK_ID>
DB07190

>  <COMMON_NAME>
3-cyclohexyl-D-alanyl-N-(3-chlorobenzyl)-L-prolinamide

$$$$
