
 OpenBabel10282417153D

 56 60  0  0  0  0  0  0  0  0999 V2000
    0.9179    0.0482    0.0397 C   0  0  0  0  0  0  0  0  0  0  0  0
    0.5338   -1.0446   -0.8818 C   0  0  0  0  0  0  0  0  0  0  0  0
    1.2040   -2.2090   -0.8804 C   0  0  0  0  0  0  0  0  0  0  0  0
    0.8071   -3.3079   -1.7043 C   0  0  0  0  0  0  0  0  0  0  0  0
   -0.3867   -3.2404   -2.2892 C   0  0  0  0  0  0  0  0  0  0  0  0
   -1.0404   -2.0184   -2.4207 N   0  0  0  0  0  0  0  0  0  0  0  0
   -0.6106   -0.8545   -1.8261 C   0  0  0  0  0  0  0  0  0  0  0  0
   -1.1554    0.3088   -2.0377 N   0  0  0  0  0  0  0  0  0  0  0  0
   -2.1774    0.4037   -2.9600 C   0  0  0  0  0  0  0  0  0  0  0  0
   -2.6722   -0.6504   -3.6237 C   0  0  0  0  0  0  0  0  0  0  0  0
   -2.1352   -1.9687   -3.2208 C   0  0  0  0  0  0  0  0  0  0  0  0
   -2.6992   -3.0068   -3.5276 O   0  0  0  0  0  0  0  0  0  0  0  0
   -3.7605   -0.6215   -4.6688 C   0  0  0  0  0  0  0  0  0  0  0  0
   -3.2743   -1.0440   -6.0613 C   0  0  0  0  0  0  0  0  0  0  0  0
   -2.8388   -2.4339   -6.0857 N   0  0  0  0  0  0  0  0  0  0  0  0
   -3.8818   -3.4323   -5.8250 C   0  0  0  0  0  0  0  0  0  0  0  0
   -3.2857   -4.8139   -5.4362 C   0  0  0  0  0  0  0  0  0  0  0  0
   -2.0664   -5.2665   -6.1925 C   0  0  0  0  0  0  0  0  0  0  0  0
   -1.3391   -4.1029   -6.9810 C   0  0  0  0  0  0  0  0  0  0  0  0
   -2.0783   -2.7842   -7.2556 C   0  0  0  0  0  0  0  0  0  0  0  0
   -0.8733   -6.2777   -5.3758 C   0  0  0  0  0  0  0  0  0  0  0  0
   -0.0466   -6.7768   -3.9703 C   0  0  0  0  0  0  0  0  0  0  0  0
    0.7813   -7.2969   -2.7205 C   0  0  0  0  0  0  0  0  0  0  0  0
    1.9666   -8.2110   -2.4800 C   0  0  0  0  0  0  0  0  0  0  0  0
    2.6013   -8.6901   -3.5654 C   0  0  0  0  0  0  0  0  0  0  0  0
    1.9383   -8.4501   -4.7140 C   0  0  0  0  0  0  0  0  0  0  0  0
    0.7231   -7.6981   -4.8391 C   0  0  0  0  0  0  0  0  0  0  0  0
    0.2746   -7.8319   -6.0763 O   0  0  0  0  0  0  0  0  0  0  0  0
   -0.2232   -6.6769   -6.4545 N   0  0  0  0  0  0  0  0  0  0  0  0
    3.7799   -9.3305   -3.5705 F   0  0  0  0  0  0  0  0  0  0  0  0
   -2.7352    1.7887   -3.1745 C   0  0  0  0  0  0  0  0  0  0  0  0
    0.5243   -0.1558    1.0408 H   0  0  0  0  0  0  0  0  0  0  0  0
    0.5575    1.0219   -0.2944 H   0  0  0  0  0  0  0  0  0  0  0  0
    2.0093    0.0939    0.0903 H   0  0  0  0  0  0  0  0  0  0  0  0
    2.0051   -2.3873   -0.1739 H   0  0  0  0  0  0  0  0  0  0  0  0
    1.4436   -4.1789   -1.8000 H   0  0  0  0  0  0  0  0  0  0  0  0
   -0.8288   -4.1066   -2.7775 H   0  0  0  0  0  0  0  0  0  0  0  0
   -4.6098   -1.2143   -4.3211 H   0  0  0  0  0  0  0  0  0  0  0  0
   -4.1874    0.3706   -4.8086 H   0  0  0  0  0  0  0  0  0  0  0  0
   -4.0625   -0.8538   -6.7990 H   0  0  0  0  0  0  0  0  0  0  0  0
   -2.4354   -0.3790   -6.3247 H   0  0  0  0  0  0  0  0  0  0  0  0
   -4.5823   -3.4721   -6.6700 H   0  0  0  0  0  0  0  0  0  0  0  0
   -4.5012   -3.1470   -4.9683 H   0  0  0  0  0  0  0  0  0  0  0  0
   -4.1018   -5.5477   -5.4685 H   0  0  0  0  0  0  0  0  0  0  0  0
   -2.9214   -4.8335   -4.4229 H   0  0  0  0  0  0  0  0  0  0  0  0
   -2.5181   -5.8572   -7.0402 H   0  0  0  0  0  0  0  0  0  0  0  0
   -0.4648   -3.8704   -6.3738 H   0  0  0  0  0  0  0  0  0  0  0  0
   -0.9640   -4.4443   -7.9600 H   0  0  0  0  0  0  0  0  0  0  0  0
   -1.3154   -2.0145   -7.4489 H   0  0  0  0  0  0  0  0  0  0  0  0
   -2.7265   -2.7965   -8.1425 H   0  0  0  0  0  0  0  0  0  0  0  0
    0.5998   -6.7924   -1.7417 H   0  0  0  0  0  0  0  0  0  0  0  0
    2.4217   -8.4730   -1.5130 H   0  0  0  0  0  0  0  0  0  0  0  0
    2.3729   -8.7914   -5.6448 H   0  0  0  0  0  0  0  0  0  0  0  0
   -3.1751    2.1612   -2.2459 H   0  0  0  0  0  0  0  0  0  0  0  0
   -1.9610    2.4678   -3.5356 H   0  0  0  0  0  0  0  0  0  0  0  0
   -3.5375    1.8477   -3.9111 H   0  0  0  0  0  0  0  0  0  0  0  0
  1  2  1  0  0  0  0
  1 32  1  0  0  0  0
  1 33  1  0  0  0  0
  1 34  1  0  0  0  0
  2  3  2  0  0  0  0
  2  7  1  0  0  0  0
  3  4  1  0  0  0  0
  3 35  1  0  0  0  0
  4  5  2  0  0  0  0
  4 36  1  0  0  0  0
  5  6  1  0  0  0  0
  5 37  1  0  0  0  0
  6  7  1  0  0  0  0
  6 11  1  0  0  0  0
  7  8  2  0  0  0  0
  8  9  1  0  0  0  0
  9 10  2  0  0  0  0
  9 31  1  0  0  0  0
 10 11  1  0  0  0  0
 10 13  1  0  0  0  0
 11 12  2  0  0  0  0
 13 14  1  0  0  0  0
 13 38  1  0  0  0  0
 13 39  1  0  0  0  0
 14 15  1  0  0  0  0
 14 40  1  0  0  0  0
 14 41  1  0  0  0  0
 15 16  1  0  0  0  0
 15 20  1  0  0  0  0
 16 17  1  0  0  0  0
 16 42  1  0  0  0  0
 16 43  1  0  0  0  0
 17 18  1  0  0  0  0
 17 44  1  0  0  0  0
 17 45  1  0  0  0  0
 18 19  1  0  0  0  0
 18 21  1  0  0  0  0
 18 46  1  0  0  0  0
 19 20  1  0  0  0  0
 19 47  1  0  0  0  0
 19 48  1  0  0  0  0
 20 49  1  0  0  0  0
 20 50  1  0  0  0  0
 21 22  1  0  0  0  0
 21 29  2  0  0  0  0
 22 23  2  0  0  0  0
 22 27  1  0  0  0  0
 23 24  1  0  0  0  0
 23 51  1  0  0  0  0
 24 25  2  0  0  0  0
 24 52  1  0  0  0  0
 25 26  1  0  0  0  0
 25 30  1  0  0  0  0
 26 27  2  0  0  0  0
 26 53  1  0  0  0  0
 27 28  1  0  0  0  0
 28 29  1  0  0  0  0
 31 54  1  0  0  0  0
 31 55  1  0  0  0  0
 31 56  1  0  0  0  0
M  END
>  <DRUGBANK_ID>
DB06229

>  <COMMON_NAME>
Ocaperidone

>  <CAS_NUMBER>
129029-23-8

>  <UNII>
26HUS7139V

>  <SYNONYMS>
Ocaperidona; Ocaperidone; Ocaperidonum

$$$$
