
 OpenBabel10282417143D

 31 32  0  0  1  0  0  0  0  0999 V2000
    0.8246    0.2317    2.4325 C   0  0  0  0  0  0  0  0  0  0  0  0
    0.3484   -0.6294    1.2390 C   0  0  2  0  0  0  0  0  0  0  0  0
   -1.0885   -0.6071    1.2343 O   0  0  0  0  0  0  0  0  0  0  0  0
   -1.6739   -1.5377    0.3079 C   0  0  0  0  0  0  0  0  0  0  0  0
   -1.1455   -2.9606    0.4922 C   0  0  1  0  0  0  0  0  0  0  0  0
   -1.6483   -3.8414   -0.5129 O   0  0  0  0  0  0  0  0  0  0  0  0
   -1.1121   -5.1679   -0.4034 C   0  0  1  0  0  0  0  0  0  0  0  0
   -1.6691   -5.9672   -1.4353 O   0  0  0  0  0  0  0  0  0  0  0  0
    0.4288   -5.1787   -0.4824 C   0  0  1  0  0  0  0  0  0  0  0  0
    0.8485   -4.7206   -1.7862 O   0  0  0  0  0  0  0  0  0  0  0  0
    0.9817   -4.2447    0.6002 C   0  0  1  0  0  0  0  0  0  0  0  0
    2.4051   -4.1624    0.4660 O   0  0  0  0  0  0  0  0  0  0  0  0
    0.3702   -2.8524    0.4348 C   0  0  2  0  0  0  0  0  0  0  0  0
    0.8347   -1.9624    1.4585 O   0  0  0  0  0  0  0  0  0  0  0  0
    0.9591    0.0528   -0.0361 C   0  0  0  0  0  0  0  0  0  0  0  0
    0.1288    0.9507   -0.6258 O   0  0  0  0  0  0  0  0  0  0  0  0
    2.0731   -0.1992   -0.4846 O   0  0  0  0  0  0  0  0  0  0  0  0
    1.3400    1.1447    2.1056 H   0  0  0  0  0  0  0  0  0  0  0  0
    1.5336   -0.3080    3.0716 H   0  0  0  0  0  0  0  0  0  0  0  0
   -0.0070    0.5623    3.0655 H   0  0  0  0  0  0  0  0  0  0  0  0
   -2.7590   -1.5198    0.4526 H   0  0  0  0  0  0  0  0  0  0  0  0
   -1.4980   -1.1848   -0.7146 H   0  0  0  0  0  0  0  0  0  0  0  0
   -1.4614   -3.3198    1.4807 H   0  0  0  0  0  0  0  0  0  0  0  0
   -1.4362   -5.5997    0.5501 H   0  0  0  0  0  0  0  0  0  0  0  0
   -1.1949   -5.6940   -2.2429 H   0  0  0  0  0  0  0  0  0  0  0  0
    0.8287   -6.1939   -0.3838 H   0  0  0  0  0  0  0  0  0  0  0  0
    1.8196   -4.6108   -1.7229 H   0  0  0  0  0  0  0  0  0  0  0  0
    0.7590   -4.6454    1.5975 H   0  0  0  0  0  0  0  0  0  0  0  0
    2.6510   -3.2416    0.6889 H   0  0  0  0  0  0  0  0  0  0  0  0
    0.6997   -2.4683   -0.5387 H   0  0  0  0  0  0  0  0  0  0  0  0
   -0.7353    1.0173   -0.1654 H   0  0  0  0  0  0  0  0  0  0  0  0
  1 18  1  0  0  0  0
  1 19  1  0  0  0  0
  1 20  1  0  0  0  0
  2  3  1  0  0  0  0
  2 14  1  0  0  0  0
  2 15  1  6  0  0  0
  2  1  1  0  0  0  0
  3  4  1  0  0  0  0
  4  5  1  0  0  0  0
  4 21  1  0  0  0  0
  4 22  1  0  0  0  0
  5  6  1  0  0  0  0
  5 13  1  0  0  0  0
  5 23  1  1  0  0  0
  6  7  1  0  0  0  0
  7  8  1  0  0  0  0
  7  9  1  0  0  0  0
  7 24  1  1  0  0  0
  8 25  1  0  0  0  0
  9 11  1  0  0  0  0
  9 26  1  1  0  0  0
  9 10  1  0  0  0  0
 10 27  1  0  0  0  0
 11 13  1  0  0  0  0
 11 28  1  1  0  0  0
 11 12  1  0  0  0  0
 12 29  1  0  0  0  0
 13 14  1  0  0  0  0
 13 30  1  6  0  0  0
 15 16  1  0  0  0  0
 15 17  2  0  0  0  0
 16 31  1  0  0  0  0
M  END
>  <DRUGBANK_ID>
DB04597

>  <COMMON_NAME>
[4,6-O-(1-CARBOXYETHYLIDENE)-BETA-D-MANNOSE]

$$$$
