1546
 OpenBabel10282417113D

 30 31  0  0  1  0  0  0  0  0999 V2000
   -1.5201    1.0982   -0.0322 N   0  0  0  0  0  0  0  0  0  0  0  0
   -4.2055   -2.0847    1.2146 N   0  0  0  0  0  0  0  0  0  0  0  0
   -2.9690   -2.8867    1.1802 C   0  0  3  0  0  0  0  0  0  0  0  0
   -2.0821   -2.5415   -0.0403 C   0  0  0  0  0  0  0  0  0  0  0  0
   -1.5847   -1.1291   -0.0460 C   0  0  0  0  0  0  0  0  0  0  0  0
   -3.3823   -4.3652    1.1742 C   0  0  0  0  0  0  0  0  0  0  0  0
   -0.2182   -0.7119    0.0012 C   0  0  0  0  0  0  0  0  0  0  0  0
   -0.2102    0.6812   -0.0041 C   0  0  0  0  0  0  0  0  0  0  0  0
   -2.3448    0.0172   -0.1577 C   0  0  0  0  0  0  0  0  0  0  0  0
   -2.1953   -5.3141    1.2523 C   0  0  0  0  0  0  0  0  0  0  0  0
    1.0141   -1.3965    0.0245 C   0  0  0  0  0  0  0  0  0  0  0  0
    0.9691    1.4311    0.0039 C   0  0  0  0  0  0  0  0  0  0  0  0
    2.2036   -0.6638   -0.0047 C   0  0  0  0  0  0  0  0  0  0  0  0
    2.1776    0.7283   -0.0182 C   0  0  0  0  0  0  0  0  0  0  0  0
   -1.8236    2.0580   -0.0205 H   0  0  0  0  0  0  0  0  0  0  0  0
   -4.7340   -2.2984    2.0572 H   0  0  0  0  0  0  0  0  0  0  0  0
   -3.9368   -1.1065    1.3146 H   0  0  0  0  0  0  0  0  0  0  0  0
   -2.4085   -2.6734    2.1001 H   0  0  0  0  0  0  0  0  0  0  0  0
   -2.6124   -2.7502   -0.9772 H   0  0  0  0  0  0  0  0  0  0  0  0
   -1.2041   -3.1972   -0.0389 H   0  0  0  0  0  0  0  0  0  0  0  0
   -4.0386   -4.5647    2.0312 H   0  0  0  0  0  0  0  0  0  0  0  0
   -3.9635   -4.5880    0.2704 H   0  0  0  0  0  0  0  0  0  0  0  0
   -3.4117    0.1525   -0.2831 H   0  0  0  0  0  0  0  0  0  0  0  0
   -1.6006   -5.1162    2.1495 H   0  0  0  0  0  0  0  0  0  0  0  0
   -2.5425   -6.3501    1.2868 H   0  0  0  0  0  0  0  0  0  0  0  0
   -1.5432   -5.2240    0.3794 H   0  0  0  0  0  0  0  0  0  0  0  0
    1.0463   -2.4818    0.0279 H   0  0  0  0  0  0  0  0  0  0  0  0
    0.9508    2.5147   -0.0036 H   0  0  0  0  0  0  0  0  0  0  0  0
    3.1541   -1.1905   -0.0289 H   0  0  0  0  0  0  0  0  0  0  0  0
    3.1129    1.2805   -0.0541 H   0  0  0  0  0  0  0  0  0  0  0  0
  1  8  1  0  0  0  0
  1  9  1  0  0  0  0
  1 15  1  0  0  0  0
  2  3  1  0  0  0  0
  2 16  1  0  0  0  0
  2 17  1  0  0  0  0
  3  4  1  0  0  0  0
  3  6  1  0  0  0  0
  3 18  1  0  0  0  0
  4  5  1  0  0  0  0
  4 19  1  0  0  0  0
  4 20  1  0  0  0  0
  5  7  1  0  0  0  0
  5  9  2  0  0  0  0
  6 10  1  0  0  0  0
  6 21  1  0  0  0  0
  6 22  1  0  0  0  0
  7  8  1  0  0  0  0
  7 11  2  0  0  0  0
  8 12  2  0  0  0  0
  9 23  1  0  0  0  0
 10 24  1  0  0  0  0
 10 25  1  0  0  0  0
 10 26  1  0  0  0  0
 11 13  1  0  0  0  0
 11 27  1  0  0  0  0
 12 14  1  0  0  0  0
 12 28  1  0  0  0  0
 13 14  2  0  0  0  0
 13 29  1  0  0  0  0
 14 30  1  0  0  0  0
M  END
>  <DRUGBANK_ID>
DB01546

>  <COMMON_NAME>
Etryptamine

>  <CAS_NUMBER>
2235-90-7

>  <UNII>
GR181O3R32

>  <SYNONYMS>
3-(2-aminobutyl)indole; alpha-ethyltryptamine; Etryptamine; α-ethyltryptamine; αET

$$$$
