
 OpenBabel10282417153D

 99 97  0  0  0  0  0  0  0  0999 V2000
    2.3102    0.6169   -1.1801 O   0  5  0  0  0  0  0  0  0  0  0  0
    4.5657   -0.0139   -1.2593 O   0  0  0  0  0  0  0  0  0  0  0  0
    0.5075   -0.6934    0.6804 O   0  5  0  0  0  0  0  0  0  0  0  0
    3.1285    1.6729    2.2313 N   0  3  0  0  0  0  0  0  0  0  0  0
    1.7689   -0.5607    0.2163 N   0  3  0  0  0  0  0  0  0  0  0  0
    1.3489    1.4471    2.5759 C   0  0  0  0  0  0  0  0  0  0  0  0
    0.9650    0.1902    3.2926 C   0  0  0  0  0  0  0  0  0  0  0  0
    1.6737    0.1788    4.5860 C   0  0  0  0  0  0  0  0  0  0  0  0
    3.8713    0.4066    1.2484 C   0  0  0  0  0  0  0  0  0  0  0  0
    1.4097    1.5368    5.2246 C   0  0  0  0  0  0  0  0  0  0  0  0
    3.9663    1.6681    3.4234 C   0  0  0  0  0  0  0  0  0  0  0  0
    3.5046    3.1754    1.5212 C   0  0  0  0  0  0  0  0  0  0  0  0
   -0.0951    1.5970    5.4434 C   0  0  0  0  0  0  0  0  0  0  0  0
   -0.4651    0.3840    6.2905 C   0  0  0  0  0  0  0  0  0  0  0  0
    0.3348    0.4491    7.5918 C   0  0  0  0  0  0  0  0  0  0  0  0
   -0.0201    1.7487    8.3107 C   0  0  0  0  0  0  0  0  0  0  0  0
    4.5364    2.1390   -2.3503 C   0  0  0  0  0  0  0  0  0  0  0  0
    2.9957    1.9591   -2.5481 C   0  0  0  0  0  0  0  0  0  0  0  0
    5.0408    1.5201   -3.6138 C   0  0  0  0  0  0  0  0  0  0  0  0
    3.5605    0.3135   -0.6613 C   0  0  0  0  0  0  0  0  0  0  0  0
    2.3369    0.1911   -2.9509 C   0  0  0  0  0  0  0  0  0  0  0  0
    4.4960    2.4279   -4.6954 C   0  0  0  0  0  0  0  0  0  0  0  0
    2.3352   -1.2075   -1.5753 C   0  0  0  0  0  0  0  0  0  0  0  0
    4.9686    3.8507   -4.3775 C   0  0  0  0  0  0  0  0  0  0  0  0
   -1.5251    1.7742    8.5856 C   0  0  0  0  0  0  0  0  0  0  0  0
    6.4956    3.8412   -4.3315 C   0  0  0  0  0  0  0  0  0  0  0  0
    7.0138    3.3503   -5.6829 C   0  0  0  0  0  0  0  0  0  0  0  0
   -1.9148    0.5875    9.4702 C   0  0  0  0  0  0  0  0  0  0  0  0
    6.5203    4.2821   -6.7919 C   0  0  0  0  0  0  0  0  0  0  0  0
    2.0725    1.4607    0.4278 C   0  0  0  0  0  0  0  0  0  0  0  0
    2.5858   -1.6162    1.0277 C   0  0  0  0  0  0  0  0  0  0  0  0
   -1.1556    0.6372   10.7940 C   0  0  0  0  0  0  0  0  0  0  0  0
    7.0054    5.7077   -6.5413 C   0  0  0  0  0  0  0  0  0  0  0  0
   -1.4850    1.9245   11.5288 C   0  0  0  0  0  0  0  0  0  0  0  0
    8.5230    5.7355   -6.5119 C   0  0  0  0  0  0  0  0  0  0  0  0
    1.1071    2.4372    2.9652 H   0  0  0  0  0  0  0  0  0  0  0  0
    0.5924    1.4664    1.7501 H   0  0  0  0  0  0  0  0  0  0  0  0
   -0.1340    0.1982    3.3522 H   0  0  0  0  0  0  0  0  0  0  0  0
    1.0434   -0.7844    2.8497 H   0  0  0  0  0  0  0  0  0  0  0  0
    1.3798   -0.6956    5.1501 H   0  0  0  0  0  0  0  0  0  0  0  0
    2.6980   -0.1068    4.5053 H   0  0  0  0  0  0  0  0  0  0  0  0
    3.9012   -0.3686    2.0305 H   0  0  0  0  0  0  0  0  0  0  0  0
    4.9241    0.5772    1.1740 H   0  0  0  0  0  0  0  0  0  0  0  0
    2.0312    1.6558    6.1052 H   0  0  0  0  0  0  0  0  0  0  0  0
    1.6909    2.4230    4.6526 H   0  0  0  0  0  0  0  0  0  0  0  0
    4.9885    1.7343    3.0746 H   0  0  0  0  0  0  0  0  0  0  0  0
    3.6129    2.4984    4.0141 H   0  0  0  0  0  0  0  0  0  0  0  0
    3.9464    0.6991    3.8709 H   0  0  0  0  0  0  0  0  0  0  0  0
    4.5584    3.0597    1.2421 H   0  0  0  0  0  0  0  0  0  0  0  0
    2.9923    3.4231    0.5659 H   0  0  0  0  0  0  0  0  0  0  0  0
    3.0836    3.9148    2.1765 H   0  0  0  0  0  0  0  0  0  0  0  0
   -0.3649    2.5554    5.8814 H   0  0  0  0  0  0  0  0  0  0  0  0
   -0.6682    1.5934    4.5106 H   0  0  0  0  0  0  0  0  0  0  0  0
   -1.5408    0.3494    6.4317 H   0  0  0  0  0  0  0  0  0  0  0  0
   -0.2822   -0.5714    5.7936 H   0  0  0  0  0  0  0  0  0  0  0  0
    0.1327   -0.4386    8.1901 H   0  0  0  0  0  0  0  0  0  0  0  0
    1.4177    0.3973    7.4369 H   0  0  0  0  0  0  0  0  0  0  0  0
    0.5748    1.8409    9.2199 H   0  0  0  0  0  0  0  0  0  0  0  0
    0.2654    2.6341    7.7346 H   0  0  0  0  0  0  0  0  0  0  0  0
    4.7919    3.1655   -2.0549 H   0  0  0  0  0  0  0  0  0  0  0  0
    5.1630    1.7610   -1.5357 H   0  0  0  0  0  0  0  0  0  0  0  0
    2.5221    2.6213   -3.2680 H   0  0  0  0  0  0  0  0  0  0  0  0
    2.5673    2.5797   -1.7385 H   0  0  0  0  0  0  0  0  0  0  0  0
    6.1227    1.4129   -3.5723 H   0  0  0  0  0  0  0  0  0  0  0  0
    4.6981    0.4899   -3.7405 H   0  0  0  0  0  0  0  0  0  0  0  0
    2.8025   -0.0891   -3.8811 H   0  0  0  0  0  0  0  0  0  0  0  0
    1.2710    0.4626   -3.0411 H   0  0  0  0  0  0  0  0  0  0  0  0
    4.7890    2.0470   -5.6642 H   0  0  0  0  0  0  0  0  0  0  0  0
    3.4081    2.4100   -4.7730 H   0  0  0  0  0  0  0  0  0  0  0  0
    3.4434   -1.5660   -1.4962 H   0  0  0  0  0  0  0  0  0  0  0  0
    1.9332   -2.2167   -1.6905 H   0  0  0  0  0  0  0  0  0  0  0  0
    4.5496    4.5420   -5.1018 H   0  0  0  0  0  0  0  0  0  0  0  0
    4.5781    4.2607   -3.4399 H   0  0  0  0  0  0  0  0  0  0  0  0
   -1.8007    2.7271    9.0381 H   0  0  0  0  0  0  0  0  0  0  0  0
   -2.1116    1.7552    7.6621 H   0  0  0  0  0  0  0  0  0  0  0  0
    6.8621    4.8328   -4.0674 H   0  0  0  0  0  0  0  0  0  0  0  0
    6.8967    3.2101   -3.5304 H   0  0  0  0  0  0  0  0  0  0  0  0
    8.1003    3.2795   -5.6579 H   0  0  0  0  0  0  0  0  0  0  0  0
    6.7007    2.3234   -5.8960 H   0  0  0  0  0  0  0  0  0  0  0  0
   -2.9935    0.5951    9.6435 H   0  0  0  0  0  0  0  0  0  0  0  0
   -1.7108   -0.3654    8.9670 H   0  0  0  0  0  0  0  0  0  0  0  0
    6.8683    3.9179   -7.7604 H   0  0  0  0  0  0  0  0  0  0  0  0
    5.4254    4.2754   -6.8602 H   0  0  0  0  0  0  0  0  0  0  0  0
    1.5645    2.2267    0.8736 H   0  0  0  0  0  0  0  0  0  0  0  0
    3.2468    1.8312    0.1490 H   0  0  0  0  0  0  0  0  0  0  0  0
    1.6709    2.0491   -0.4160 H   0  0  0  0  0  0  0  0  0  0  0  0
    2.4311   -1.3373    2.0527 H   0  0  0  0  0  0  0  0  0  0  0  0
    2.1728   -2.5960    0.8223 H   0  0  0  0  0  0  0  0  0  0  0  0
    3.6630   -1.6806    0.7581 H   0  0  0  0  0  0  0  0  0  0  0  0
   -1.4149   -0.2311   11.4029 H   0  0  0  0  0  0  0  0  0  0  0  0
   -0.0728    0.5716   10.6348 H   0  0  0  0  0  0  0  0  0  0  0  0
    6.6218    6.3713   -7.3184 H   0  0  0  0  0  0  0  0  0  0  0  0
    6.6122    6.1035   -5.5972 H   0  0  0  0  0  0  0  0  0  0  0  0
   -2.5614    1.9750   11.7154 H   0  0  0  0  0  0  0  0  0  0  0  0
   -0.9433    1.9796   12.4716 H   0  0  0  0  0  0  0  0  0  0  0  0
   -1.2012    2.8116   10.9533 H   0  0  0  0  0  0  0  0  0  0  0  0
    8.9143    5.3694   -7.4651 H   0  0  0  0  0  0  0  0  0  0  0  0
    8.8863    6.7446   -6.3255 H   0  0  0  0  0  0  0  0  0  0  0  0
    8.9317    5.1046   -5.7158 H   0  0  0  0  0  0  0  0  0  0  0  0
  1 20  1  0  0  0  0
  2 20  2  0  0  0  0
  3  5  1  0  0  0  0
  4  6  1  0  0  0  0
  4  9  1  0  0  0  0
  4 11  1  0  0  0  0
  4 12  1  0  0  0  0
  5 23  1  0  0  0  0
  5 30  1  0  0  0  0
  5 31  1  0  0  0  0
  6  7  1  0  0  0  0
  6 36  1  0  0  0  0
  6 37  1  0  0  0  0
  7  8  1  0  0  0  0
  7 38  1  0  0  0  0
  7 39  1  0  0  0  0
  8 10  1  0  0  0  0
  8 40  1  0  0  0  0
  8 41  1  0  0  0  0
  9 20  1  0  0  0  0
  9 42  1  0  0  0  0
  9 43  1  0  0  0  0
 10 13  1  0  0  0  0
 10 44  1  0  0  0  0
 10 45  1  0  0  0  0
 11 46  1  0  0  0  0
 11 47  1  0  0  0  0
 11 48  1  0  0  0  0
 12 49  1  0  0  0  0
 12 50  1  0  0  0  0
 12 51  1  0  0  0  0
 13 14  1  0  0  0  0
 13 52  1  0  0  0  0
 13 53  1  0  0  0  0
 14 15  1  0  0  0  0
 14 54  1  0  0  0  0
 14 55  1  0  0  0  0
 15 16  1  0  0  0  0
 15 56  1  0  0  0  0
 15 57  1  0  0  0  0
 16 25  1  0  0  0  0
 16 58  1  0  0  0  0
 16 59  1  0  0  0  0
 17 18  1  0  0  0  0
 17 19  1  0  0  0  0
 17 60  1  0  0  0  0
 17 61  1  0  0  0  0
 18 21  1  0  0  0  0
 18 62  1  0  0  0  0
 18 63  1  0  0  0  0
 19 22  1  0  0  0  0
 19 64  1  0  0  0  0
 19 65  1  0  0  0  0
 21 23  1  0  0  0  0
 21 66  1  0  0  0  0
 21 67  1  0  0  0  0
 22 24  1  0  0  0  0
 22 68  1  0  0  0  0
 22 69  1  0  0  0  0
 23 70  1  0  0  0  0
 23 71  1  0  0  0  0
 24 26  1  0  0  0  0
 24 72  1  0  0  0  0
 24 73  1  0  0  0  0
 25 28  1  0  0  0  0
 25 74  1  0  0  0  0
 25 75  1  0  0  0  0
 26 27  1  0  0  0  0
 26 76  1  0  0  0  0
 26 77  1  0  0  0  0
 27 29  1  0  0  0  0
 27 78  1  0  0  0  0
 27 79  1  0  0  0  0
 28 32  1  0  0  0  0
 28 80  1  0  0  0  0
 28 81  1  0  0  0  0
 29 33  1  0  0  0  0
 29 82  1  0  0  0  0
 29 83  1  0  0  0  0
 30 84  1  0  0  0  0
 30 85  1  0  0  0  0
 30 86  1  0  0  0  0
 31 87  1  0  0  0  0
 31 88  1  0  0  0  0
 31 89  1  0  0  0  0
 32 34  1  0  0  0  0
 32 90  1  0  0  0  0
 32 91  1  0  0  0  0
 33 35  1  0  0  0  0
 33 92  1  0  0  0  0
 33 93  1  0  0  0  0
 34 94  1  0  0  0  0
 34 95  1  0  0  0  0
 34 96  1  0  0  0  0
 35 97  1  0  0  0  0
 35 98  1  0  0  0  0
 35 99  1  0  0  0  0
M  CHG  4   1  -1   3  -1   4   1   5   1
M  END
>  <DRUGBANK_ID>
DB05398

>  <COMMON_NAME>
C31G

$$$$
