
 OpenBabel10282417233D

 42 46  0  0  0  0  0  0  0  0999 V2000
    2.2284    0.0537    0.0011 O   0  0  0  0  0  0  0  0  0  0  0  0
    0.8628    0.0384    0.0072 C   0  0  0  0  0  0  0  0  0  0  0  0
    0.1575   -1.1583    0.0109 C   0  0  0  0  0  0  0  0  0  0  0  0
   -1.2357   -1.1161    0.0116 C   0  0  0  0  0  0  0  0  0  0  0  0
   -1.9099    0.1178    0.0231 C   0  0  0  0  0  0  0  0  0  0  0  0
   -1.2095    1.3407    0.0287 C   0  0  0  0  0  0  0  0  0  0  0  0
    0.1973    1.2689    0.0103 C   0  0  0  0  0  0  0  0  0  0  0  0
   -1.9119    2.6462    0.0261 C   0  0  0  0  0  0  0  0  0  0  0  0
   -2.7528    2.9119    1.0660 N   0  0  0  0  0  0  0  0  0  0  0  0
   -3.4559    4.0827    1.0935 C   0  0  0  0  0  0  0  0  0  0  0  0
   -4.3104    4.3652    2.1324 N   0  0  0  0  0  0  0  0  0  0  0  0
   -3.8703    4.3614    3.5243 C   0  0  0  0  0  0  0  0  0  0  0  0
   -4.7753    3.4403    4.3577 C   0  0  0  0  0  0  0  0  0  0  0  0
   -6.1669    3.7803    4.1997 O   0  0  0  0  0  0  0  0  0  0  0  0
   -6.5507    3.6790    2.8150 C   0  0  0  0  0  0  0  0  0  0  0  0
   -5.7307    4.6400    1.9279 C   0  0  0  0  0  0  0  0  0  0  0  0
   -3.2365    4.9442    0.0195 C   0  0  0  0  0  0  0  0  0  0  0  0
   -3.7759    6.1790   -0.1983 O   0  0  0  0  0  0  0  0  0  0  0  0
   -3.2312    6.6575   -1.3551 C   0  0  0  0  0  0  0  0  0  0  0  0
   -3.5425    7.8653   -1.8640 N   0  0  0  0  0  0  0  0  0  0  0  0
   -2.8981    8.1435   -3.0206 C   0  0  0  0  0  0  0  0  0  0  0  0
   -1.9982    7.3059   -3.6664 C   0  0  0  0  0  0  0  0  0  0  0  0
   -1.7030    6.0636   -3.1003 C   0  0  0  0  0  0  0  0  0  0  0  0
   -2.3442    5.7241   -1.8937 C   0  0  0  0  0  0  0  0  0  0  0  0
   -2.3452    4.6221   -0.9946 C   0  0  0  0  0  0  0  0  0  0  0  0
   -1.6548    3.4576   -1.0232 N   0  0  0  0  0  0  0  0  0  0  0  0
    2.5565   -0.8609   -0.0172 H   0  0  0  0  0  0  0  0  0  0  0  0
    0.6661   -2.1187    0.0125 H   0  0  0  0  0  0  0  0  0  0  0  0
   -1.8012   -2.0458    0.0030 H   0  0  0  0  0  0  0  0  0  0  0  0
   -2.9984    0.1170    0.0132 H   0  0  0  0  0  0  0  0  0  0  0  0
    0.7888    2.1812    0.0063 H   0  0  0  0  0  0  0  0  0  0  0  0
   -3.9805    5.3862    3.9059 H   0  0  0  0  0  0  0  0  0  0  0  0
   -2.8184    4.0819    3.6400 H   0  0  0  0  0  0  0  0  0  0  0  0
   -4.6335    2.3906    4.0780 H   0  0  0  0  0  0  0  0  0  0  0  0
   -4.5341    3.5410    5.4213 H   0  0  0  0  0  0  0  0  0  0  0  0
   -7.6168    3.9185    2.7498 H   0  0  0  0  0  0  0  0  0  0  0  0
   -6.4211    2.6385    2.4931 H   0  0  0  0  0  0  0  0  0  0  0  0
   -5.9360    5.6728    2.2354 H   0  0  0  0  0  0  0  0  0  0  0  0
   -6.0361    4.5256    0.8826 H   0  0  0  0  0  0  0  0  0  0  0  0
   -3.1357    9.1166   -3.4484 H   0  0  0  0  0  0  0  0  0  0  0  0
   -1.5328    7.6169   -4.5977 H   0  0  0  0  0  0  0  0  0  0  0  0
   -1.0038    5.3831   -3.5755 H   0  0  0  0  0  0  0  0  0  0  0  0
  1  2  1  0  0  0  0
  1 27  1  0  0  0  0
  2  3  2  0  0  0  0
  2  7  1  0  0  0  0
  3  4  1  0  0  0  0
  3 28  1  0  0  0  0
  4  5  2  0  0  0  0
  4 29  1  0  0  0  0
  5  6  1  0  0  0  0
  5 30  1  0  0  0  0
  6  7  2  0  0  0  0
  6  8  1  0  0  0  0
  7 31  1  0  0  0  0
  8  9  2  0  0  0  0
  8 26  1  0  0  0  0
  9 10  1  0  0  0  0
 10 11  1  0  0  0  0
 10 17  2  0  0  0  0
 11 12  1  0  0  0  0
 11 16  1  0  0  0  0
 12 13  1  0  0  0  0
 12 32  1  0  0  0  0
 12 33  1  0  0  0  0
 13 14  1  0  0  0  0
 13 34  1  0  0  0  0
 13 35  1  0  0  0  0
 14 15  1  0  0  0  0
 15 16  1  0  0  0  0
 15 36  1  0  0  0  0
 15 37  1  0  0  0  0
 16 38  1  0  0  0  0
 16 39  1  0  0  0  0
 17 18  1  0  0  0  0
 17 25  1  0  0  0  0
 18 19  1  0  0  0  0
 19 20  2  0  0  0  0
 19 24  1  0  0  0  0
 20 21  1  0  0  0  0
 21 22  2  0  0  0  0
 21 40  1  0  0  0  0
 22 23  1  0  0  0  0
 22 41  1  0  0  0  0
 23 24  2  0  0  0  0
 23 42  1  0  0  0  0
 24 25  1  0  0  0  0
 25 26  2  0  0  0  0
M  END
>  <DRUGBANK_ID>
DB17046

>  <COMMON_NAME>
PI-103

>  <CAS_NUMBER>
371935-74-9

>  <UNII>
YQX02F616F

>  <SYNONYMS>
Phenol, 3-(4-(4-morpholinyl)pyrido(3',2':4,5)furo(3,2-d)pyrimidin-2-yl)-

$$$$
