
 OpenBabel10282417193D

 37 38  0  0  1  0  0  0  0  0999 V2000
    1.0659    1.4423   -1.9588 C   0  0  0  0  0  0  0  0  0  0  0  0
    0.5736    1.2798   -0.5243 C   0  0  2  0  0  0  0  0  0  0  0  0
    1.0716    0.0434    0.0895 C   0  0  0  0  0  0  0  0  0  0  0  0
    1.6653   -0.8838    0.5543 C   0  0  0  0  0  0  0  0  0  0  0  0
    2.5883   -1.8804    0.9653 C   0  0  0  0  0  0  0  0  0  0  0  0
    2.4066   -2.8425    1.9281 C   0  0  0  0  0  0  0  0  0  0  0  0
    3.5448   -3.6896    2.0348 C   0  0  0  0  0  0  0  0  0  0  0  0
    4.5729   -3.3032    1.1939 C   0  0  0  0  0  0  0  0  0  0  0  0
    4.1311   -1.9577    0.2463 S   0  0  0  0  0  0  0  0  0  0  0  0
    5.9511   -3.8691    1.0389 C   0  0  0  0  0  0  0  0  0  0  0  0
    6.7480   -3.7551    2.3163 C   0  0  0  0  0  0  0  0  0  0  0  0
    6.3218   -4.4144    3.4820 C   0  0  0  0  0  0  0  0  0  0  0  0
    6.9967   -4.2512    4.6829 C   0  0  0  0  0  0  0  0  0  0  0  0
    8.1447   -3.4775    4.7063 C   0  0  0  0  0  0  0  0  0  0  0  0
    8.6078   -2.8396    3.5595 C   0  0  0  0  0  0  0  0  0  0  0  0
    7.9004   -2.9616    2.3647 C   0  0  0  0  0  0  0  0  0  0  0  0
    8.8234   -3.3535    5.8528 F   0  0  0  0  0  0  0  0  0  0  0  0
   -0.8752    1.4034   -0.4197 N   0  0  0  0  0  0  0  0  0  0  0  0
   -1.6234    2.3507    0.2150 C   0  0  0  0  0  0  0  0  0  0  0  0
   -2.8529    2.3481    0.1887 O   0  0  0  0  0  0  0  0  0  0  0  0
   -0.9593    3.3255    0.8857 N   0  0  0  0  0  0  0  0  0  0  0  0
   -1.5778    0.4120   -1.1547 O   0  0  0  0  0  0  0  0  0  0  0  0
    0.4598    0.8742   -2.6715 H   0  0  0  0  0  0  0  0  0  0  0  0
    2.1055    1.1124   -2.0630 H   0  0  0  0  0  0  0  0  0  0  0  0
    1.0186    2.4966   -2.2543 H   0  0  0  0  0  0  0  0  0  0  0  0
    1.0344    2.0903    0.0434 H   0  0  0  0  0  0  0  0  0  0  0  0
    1.5122   -2.9613    2.5266 H   0  0  0  0  0  0  0  0  0  0  0  0
    3.5981   -4.5189    2.7275 H   0  0  0  0  0  0  0  0  0  0  0  0
    5.8967   -4.9166    0.7223 H   0  0  0  0  0  0  0  0  0  0  0  0
    6.4827   -3.3404    0.2346 H   0  0  0  0  0  0  0  0  0  0  0  0
    5.4427   -5.0489    3.4744 H   0  0  0  0  0  0  0  0  0  0  0  0
    6.6312   -4.7276    5.5857 H   0  0  0  0  0  0  0  0  0  0  0  0
    9.5137   -2.2461    3.6052 H   0  0  0  0  0  0  0  0  0  0  0  0
    8.2475   -2.4349    1.4779 H   0  0  0  0  0  0  0  0  0  0  0  0
    0.0406    3.3963    0.9649 H   0  0  0  0  0  0  0  0  0  0  0  0
   -1.5061    4.0174    1.3786 H   0  0  0  0  0  0  0  0  0  0  0  0
   -2.5153    0.6524   -1.0004 H   0  0  0  0  0  0  0  0  0  0  0  0
  1 23  1  0  0  0  0
  1 24  1  0  0  0  0
  1 25  1  0  0  0  0
  2 18  1  0  0  0  0
  2 26  1  1  0  0  0
  2  3  1  0  0  0  0
  2  1  1  0  0  0  0
  3  4  3  0  0  0  0
  4  5  1  0  0  0  0
  5  6  2  0  0  0  0
  5  9  1  0  0  0  0
  6  7  1  0  0  0  0
  6 27  1  0  0  0  0
  7  8  2  0  0  0  0
  7 28  1  0  0  0  0
  8  9  1  0  0  0  0
  8 10  1  0  0  0  0
 10 11  1  0  0  0  0
 10 29  1  0  0  0  0
 10 30  1  0  0  0  0
 11 12  2  0  0  0  0
 11 16  1  0  0  0  0
 12 13  1  0  0  0  0
 12 31  1  0  0  0  0
 13 14  2  0  0  0  0
 13 32  1  0  0  0  0
 14 15  1  0  0  0  0
 14 17  1  0  0  0  0
 15 16  2  0  0  0  0
 15 33  1  0  0  0  0
 16 34  1  0  0  0  0
 18 19  1  0  0  0  0
 18 22  1  0  0  0  0
 19 20  2  0  0  0  0
 19 21  1  0  0  0  0
 21 35  1  0  0  0  0
 21 36  1  0  0  0  0
 22 37  1  0  0  0  0
M  END
>  <DRUGBANK_ID>
DB12758

>  <COMMON_NAME>
Atreleuton

>  <CAS_NUMBER>
154355-76-7

>  <UNII>
U301T88E1M

>  <SYNONYMS>
Atreleuton

$$$$
