
 OpenBabel10282417133D

 93 96  0  0  0  0  0  0  0  0999 V2000
    3.8656    1.5293    0.0605 C   0  0  0  0  0  0  0  0  0  0  0  0
    4.4686    0.3287   -0.2749 C   0  0  0  0  0  0  0  0  0  0  0  0
    3.7153   -0.8271   -0.3403 C   0  0  0  0  0  0  0  0  0  0  0  0
    2.4972    1.5630    0.3533 C   0  0  0  0  0  0  0  0  0  0  0  0
    1.6995    0.4131    0.2664 C   0  0  0  0  0  0  0  0  0  0  0  0
    2.3284   -0.7848   -0.0927 C   0  0  0  0  0  0  0  0  0  0  0  0
    1.5693   -2.0753   -0.1906 C   0  0  0  0  0  0  0  0  0  0  0  0
    0.1470   -2.1017    0.4291 C   0  0  2  0  0  0  0  0  0  0  0  0
    0.2189    0.4167    0.6297 C   0  0  2  0  0  0  0  0  0  0  0  0
   -0.5292   -0.7961   -0.0195 C   0  0  2  0  0  0  0  0  0  0  0  0
   -1.9888    1.7184    0.6170 C   0  0  0  0  0  0  0  0  0  0  0  0
   -0.4796    1.7568    0.3501 C   0  0  0  0  0  0  0  0  0  0  0  0
   -2.6673    0.5699   -0.1387 C   0  0  1  0  0  0  0  0  0  0  0  0
   -2.0172   -0.7403    0.3243 C   0  0  1  0  0  0  0  0  0  0  0  0
   -2.9521   -1.8231   -0.2117 C   0  0  0  0  0  0  0  0  0  0  0  0
   -4.3500   -1.1899   -0.0710 C   0  0  0  0  0  0  0  0  0  0  0  0
   -4.1184    0.2908    0.2960 C   0  0  2  0  0  0  0  0  0  0  0  0
    5.7994    0.2429   -0.5495 O   0  0  0  0  0  0  0  0  0  0  0  0
    0.1747    0.3032    1.7215 H   0  0  0  0  0  0  0  0  0  0  0  0
   -0.4205   -0.7451   -1.1118 H   0  0  0  0  0  0  0  0  0  0  0  0
   -2.5714    0.8105   -1.6622 C   0  0  0  0  0  0  0  0  0  0  0  0
   -5.0707    1.1528   -0.2941 O   0  0  0  0  0  0  0  0  0  0  0  0
   -2.1140   -0.7749    1.4180 H   0  0  0  0  0  0  0  0  0  0  0  0
    0.0447   -2.2834    1.9675 C   0  0  0  0  0  0  0  0  0  0  0  0
    0.3839   -3.6933    2.4362 C   0  0  0  0  0  0  0  0  0  0  0  0
    1.8171   -4.0584    2.1006 C   0  0  0  0  0  0  0  0  0  0  0  0
    2.7527   -2.9462    2.6363 C   0  0  0  0  0  0  0  0  0  0  0  0
    2.6006   -2.8659    4.1606 C   0  0  0  0  0  0  0  0  0  0  0  0
    2.9012   -4.2210    4.7496 C   0  0  0  0  0  0  0  0  0  0  0  0
    4.2938   -4.5322    4.3331 C   0  0  0  0  0  0  0  0  0  0  0  0
    5.2543   -3.4780    4.9646 C   0  0  0  0  0  0  0  0  0  0  0  0
    5.4504   -3.6783    6.4324 C   0  0  0  0  0  0  0  0  0  0  0  0
    5.9945   -5.0938    6.6859 C   0  0  0  0  0  0  0  0  0  0  0  0
    7.4502   -5.4441    6.2077 C   0  0  0  0  0  0  0  0  0  0  0  0
    8.2752   -5.6785    7.0753 O   0  0  0  0  0  0  0  0  0  0  0  0
    7.8200   -5.5481    4.8472 N   0  0  0  0  0  0  0  0  0  0  0  0
    6.9802   -5.3883    3.6865 C   0  0  0  0  0  0  0  0  0  0  0  0
    9.1679   -5.9552    4.5421 C   0  0  0  0  0  0  0  0  0  0  0  0
    7.1767   -4.0927    2.8221 C   0  0  0  0  0  0  0  0  0  0  0  0
    8.3866   -4.1966    1.9403 C   0  0  0  0  0  0  0  0  0  0  0  0
    8.2231   -5.4104    1.0555 C   0  0  0  0  0  0  0  0  0  0  0  0
    4.4363    2.4494    0.1083 H   0  0  0  0  0  0  0  0  0  0  0  0
    4.2080   -1.7713   -0.5659 H   0  0  0  0  0  0  0  0  0  0  0  0
    2.0679    2.5149    0.6483 H   0  0  0  0  0  0  0  0  0  0  0  0
    1.5145   -2.3968   -1.2362 H   0  0  0  0  0  0  0  0  0  0  0  0
    2.2520   -2.7785    0.2467 H   0  0  0  0  0  0  0  0  0  0  0  0
   -0.3777   -2.9595   -0.0115 H   0  0  0  0  0  0  0  0  0  0  0  0
   -2.1412    1.5964    1.6988 H   0  0  0  0  0  0  0  0  0  0  0  0
   -2.4304    2.6814    0.3448 H   0  0  0  0  0  0  0  0  0  0  0  0
   -0.0538    2.5309    0.9984 H   0  0  0  0  0  0  0  0  0  0  0  0
   -0.2750    2.0674   -0.6793 H   0  0  0  0  0  0  0  0  0  0  0  0
   -2.7412   -2.0620   -1.2605 H   0  0  0  0  0  0  0  0  0  0  0  0
   -2.8778   -2.7575    0.3549 H   0  0  0  0  0  0  0  0  0  0  0  0
   -4.9308   -1.3069   -0.9917 H   0  0  0  0  0  0  0  0  0  0  0  0
   -4.9118   -1.6846    0.7297 H   0  0  0  0  0  0  0  0  0  0  0  0
   -4.2163    0.4046    1.3833 H   0  0  0  0  0  0  0  0  0  0  0  0
    6.1731    1.1386   -0.5245 H   0  0  0  0  0  0  0  0  0  0  0  0
   -2.9738   -0.0267   -2.2397 H   0  0  0  0  0  0  0  0  0  0  0  0
   -3.1290    1.7082   -1.9461 H   0  0  0  0  0  0  0  0  0  0  0  0
   -1.5441    0.9580   -2.0048 H   0  0  0  0  0  0  0  0  0  0  0  0
   -5.0675    1.0097   -1.2549 H   0  0  0  0  0  0  0  0  0  0  0  0
    0.6527   -1.5400    2.4928 H   0  0  0  0  0  0  0  0  0  0  0  0
   -0.9646   -2.0894    2.3370 H   0  0  0  0  0  0  0  0  0  0  0  0
    0.2266   -3.7476    3.5205 H   0  0  0  0  0  0  0  0  0  0  0  0
   -0.3081   -4.4184    2.0052 H   0  0  0  0  0  0  0  0  0  0  0  0
    2.0741   -5.0423    2.4957 H   0  0  0  0  0  0  0  0  0  0  0  0
    1.9092   -4.2791    1.0377 H   0  0  0  0  0  0  0  0  0  0  0  0
    3.7761   -3.1076    2.2753 H   0  0  0  0  0  0  0  0  0  0  0  0
    2.5580   -1.9402    2.2686 H   0  0  0  0  0  0  0  0  0  0  0  0
    3.2505   -2.0803    4.5495 H   0  0  0  0  0  0  0  0  0  0  0  0
    1.6114   -2.5494    4.4808 H   0  0  0  0  0  0  0  0  0  0  0  0
    2.8245   -4.2543    5.8337 H   0  0  0  0  0  0  0  0  0  0  0  0
    2.2394   -5.0199    4.4027 H   0  0  0  0  0  0  0  0  0  0  0  0
    4.4040   -5.5815    4.6299 H   0  0  0  0  0  0  0  0  0  0  0  0
    4.4329   -4.5938    3.2422 H   0  0  0  0  0  0  0  0  0  0  0  0
    6.2802   -3.5344    4.6937 H   0  0  0  0  0  0  0  0  0  0  0  0
    5.0715   -2.4571    4.6219 H   0  0  0  0  0  0  0  0  0  0  0  0
    6.1702   -2.9335    6.7883 H   0  0  0  0  0  0  0  0  0  0  0  0
    4.5048   -3.4830    6.9449 H   0  0  0  0  0  0  0  0  0  0  0  0
    5.9915   -5.2045    7.7773 H   0  0  0  0  0  0  0  0  0  0  0  0
    5.3045   -5.8731    6.3486 H   0  0  0  0  0  0  0  0  0  0  0  0
    6.8549   -6.2982    3.0974 H   0  0  0  0  0  0  0  0  0  0  0  0
    6.0560   -5.4486    4.1620 H   0  0  0  0  0  0  0  0  0  0  0  0
    9.8382   -5.1563    4.8586 H   0  0  0  0  0  0  0  0  0  0  0  0
    9.3900   -6.9021    5.0296 H   0  0  0  0  0  0  0  0  0  0  0  0
    9.2804   -6.1223    3.4687 H   0  0  0  0  0  0  0  0  0  0  0  0
    6.2847   -3.8998    2.2054 H   0  0  0  0  0  0  0  0  0  0  0  0
    7.3494   -3.1613    3.3797 H   0  0  0  0  0  0  0  0  0  0  0  0
    8.5008   -3.2830    1.3478 H   0  0  0  0  0  0  0  0  0  0  0  0
    9.2702   -4.2389    2.5822 H   0  0  0  0  0  0  0  0  0  0  0  0
    7.3831   -5.2510    0.3734 H   0  0  0  0  0  0  0  0  0  0  0  0
    9.1412   -5.6120    0.5153 H   0  0  0  0  0  0  0  0  0  0  0  0
    7.9978   -6.3232    1.6108 H   0  0  0  0  0  0  0  0  0  0  0  0
  1  2  2  0  0  0  0
  1 42  1  0  0  0  0
  2  3  1  0  0  0  0
  2 18  1  0  0  0  0
  3  6  2  0  0  0  0
  3 43  1  0  0  0  0
  4  1  1  0  0  0  0
  4 44  1  0  0  0  0
  5  4  2  0  0  0  0
  5  6  1  0  0  0  0
  5  9  1  0  0  0  0
  6  7  1  0  0  0  0
  7  8  1  0  0  0  0
  7 45  1  0  0  0  0
  7 46  1  0  0  0  0
  8 10  1  0  0  0  0
  8 47  1  6  0  0  0
  8 24  1  0  0  0  0
  9 19  1  1  0  0  0
  9 10  1  0  0  0  0
  9 12  1  0  0  0  0
 10 20  1  6  0  0  0
 10 14  1  0  0  0  0
 11 12  1  0  0  0  0
 11 48  1  0  0  0  0
 11 49  1  0  0  0  0
 12 50  1  0  0  0  0
 12 51  1  0  0  0  0
 13 21  1  6  0  0  0
 13 11  1  0  0  0  0
 13 14  1  0  0  0  0
 14 23  1  1  0  0  0
 14 15  1  0  0  0  0
 15 16  1  0  0  0  0
 15 52  1  0  0  0  0
 15 53  1  0  0  0  0
 16 17  1  0  0  0  0
 16 54  1  0  0  0  0
 16 55  1  0  0  0  0
 17 22  1  0  0  0  0
 17 13  1  0  0  0  0
 17 56  1  1  0  0  0
 18 57  1  0  0  0  0
 21 58  1  0  0  0  0
 21 59  1  0  0  0  0
 21 60  1  0  0  0  0
 22 61  1  0  0  0  0
 24 25  1  0  0  0  0
 24 62  1  0  0  0  0
 24 63  1  0  0  0  0
 25 26  1  0  0  0  0
 25 64  1  0  0  0  0
 25 65  1  0  0  0  0
 26 27  1  0  0  0  0
 26 66  1  0  0  0  0
 26 67  1  0  0  0  0
 27 28  1  0  0  0  0
 27 68  1  0  0  0  0
 27 69  1  0  0  0  0
 28 29  1  0  0  0  0
 28 70  1  0  0  0  0
 28 71  1  0  0  0  0
 29 30  1  0  0  0  0
 29 72  1  0  0  0  0
 29 73  1  0  0  0  0
 30 31  1  0  0  0  0
 30 74  1  0  0  0  0
 30 75  1  0  0  0  0
 31 32  1  0  0  0  0
 31 76  1  0  0  0  0
 31 77  1  0  0  0  0
 32 33  1  0  0  0  0
 32 78  1  0  0  0  0
 32 79  1  0  0  0  0
 33 34  1  0  0  0  0
 33 80  1  0  0  0  0
 33 81  1  0  0  0  0
 34 35  2  0  0  0  0
 34 36  1  0  0  0  0
 36 37  1  0  0  0  0
 36 38  1  0  0  0  0
 37 39  1  0  0  0  0
 37 82  1  0  0  0  0
 37 83  1  0  0  0  0
 38 84  1  0  0  0  0
 38 85  1  0  0  0  0
 38 86  1  0  0  0  0
 39 40  1  0  0  0  0
 39 87  1  0  0  0  0
 39 88  1  0  0  0  0
 40 41  1  0  0  0  0
 40 89  1  0  0  0  0
 40 90  1  0  0  0  0
 41 91  1  0  0  0  0
 41 92  1  0  0  0  0
 41 93  1  0  0  0  0
M  END
>  <DRUGBANK_ID>
DB03860

>  <SECONDARY_ACCESSION_NUMBERS>
EXPT00529

>  <COMMON_NAME>
ICI-164384

>  <CAS_NUMBER>
98007-99-9

>  <UNII>
84LT43726C

$$$$
