
 OpenBabel10282417183D

 47 47  0  0  0  0  0  0  0  0999 V2000
    1.0346    0.0719    0.2015 C   0  0  0  0  0  0  0  0  0  0  0  0
   -1.0621    3.0329   -4.3342 C   0  0  0  0  0  0  0  0  0  0  0  0
    5.9588    5.0022   -4.3409 C   0  0  0  0  0  0  0  0  0  0  0  0
    0.4811    1.4918    0.0294 C   0  0  0  0  0  0  0  0  0  0  0  0
   -1.5840    2.4822   -3.0079 C   0  0  0  0  0  0  0  0  0  0  0  0
    0.9352    2.1028   -1.2712 C   0  0  0  0  0  0  0  0  0  0  0  0
    0.4820    1.2558   -2.4409 C   0  0  0  0  0  0  0  0  0  0  0  0
    3.6161    1.6689   -3.4078 C   0  0  0  0  0  0  0  0  0  0  0  0
    4.8800    0.3112   -4.8428 C   0  0  0  0  0  0  0  0  0  0  0  0
    2.8453   -0.7191   -3.7954 C   0  0  0  0  0  0  0  0  0  0  0  0
    4.3759    2.8063   -3.6921 C   0  0  0  0  0  0  0  0  0  0  0  0
    5.6464    1.4526   -5.1760 C   0  0  0  0  0  0  0  0  0  0  0  0
    1.5487   -0.7022   -4.1849 C   0  0  0  0  0  0  0  0  0  0  0  0
   -1.3242    0.0532   -3.7834 C   0  0  0  0  0  0  0  0  0  0  0  0
   -1.0134    1.0949   -2.6810 C   0  0  3  0  0  0  0  0  0  0  0  0
    3.7801    0.4205   -4.0130 C   0  0  0  0  0  0  0  0  0  0  0  0
    5.3952    2.7106   -4.6115 C   0  0  0  0  0  0  0  0  0  0  0  0
    0.5402   -1.6848   -3.6672 C   0  0  0  0  0  0  0  0  0  0  0  0
    0.8682   -2.7898   -3.2905 O   0  0  0  0  0  0  0  0  0  0  0  0
    6.1938    3.7521   -4.9963 O   0  0  0  0  0  0  0  0  0  0  0  0
   -0.7567   -1.2600   -3.5224 O   0  0  0  0  0  0  0  0  0  0  0  0
    3.2453   -1.5742   -3.2537 H   0  0  0  0  0  0  0  0  0  0  0  0
    1.1579    0.1478   -4.7229 H   0  0  0  0  0  0  0  0  0  0  0  0
    0.6484   -0.6383   -0.5398 H   0  0  0  0  0  0  0  0  0  0  0  0
    0.7503   -0.3211    1.1755 H   0  0  0  0  0  0  0  0  0  0  0  0
    2.1285    0.0613    0.1130 H   0  0  0  0  0  0  0  0  0  0  0  0
   -1.3832    2.4081   -5.1708 H   0  0  0  0  0  0  0  0  0  0  0  0
   -1.4327    4.0439   -4.5019 H   0  0  0  0  0  0  0  0  0  0  0  0
    0.0307    3.0904   -4.3688 H   0  0  0  0  0  0  0  0  0  0  0  0
    4.9584    5.3886   -4.5703 H   0  0  0  0  0  0  0  0  0  0  0  0
    6.1014    4.9189   -3.2563 H   0  0  0  0  0  0  0  0  0  0  0  0
    6.6866    5.7299   -4.7113 H   0  0  0  0  0  0  0  0  0  0  0  0
   -0.6087    1.4912    0.0753 H   0  0  0  0  0  0  0  0  0  0  0  0
    0.8615    2.1301    0.8285 H   0  0  0  0  0  0  0  0  0  0  0  0
   -2.6765    2.4462   -3.0158 H   0  0  0  0  0  0  0  0  0  0  0  0
   -1.3157    3.1827   -2.2079 H   0  0  0  0  0  0  0  0  0  0  0  0
    0.6644    3.1491   -1.4264 H   0  0  0  0  0  0  0  0  0  0  0  0
    2.0202    2.1144   -1.1743 H   0  0  0  0  0  0  0  0  0  0  0  0
    0.9387    1.6510   -3.3461 H   0  0  0  0  0  0  0  0  0  0  0  0
    0.8982    0.2789   -2.2523 H   0  0  0  0  0  0  0  0  0  0  0  0
    2.8803    1.8059   -2.6592 H   0  0  0  0  0  0  0  0  0  0  0  0
    5.1471   -0.6590   -5.2470 H   0  0  0  0  0  0  0  0  0  0  0  0
    4.1256    3.7328   -3.1823 H   0  0  0  0  0  0  0  0  0  0  0  0
    6.4450    1.3468   -5.9029 H   0  0  0  0  0  0  0  0  0  0  0  0
   -2.4176   -0.0774   -3.8084 H   0  0  0  0  0  0  0  0  0  0  0  0
   -1.0385    0.3598   -4.7906 H   0  0  0  0  0  0  0  0  0  0  0  0
   -1.4710    0.7141   -1.7595 H   0  0  0  0  0  0  0  0  0  0  0  0
  1 24  1  0  0  0  0
  1 25  1  0  0  0  0
  1 26  1  0  0  0  0
  2 27  1  0  0  0  0
  2 28  1  0  0  0  0
  2 29  1  0  0  0  0
  3 30  1  0  0  0  0
  3 31  1  0  0  0  0
  3 32  1  0  0  0  0
  4  1  1  0  0  0  0
  4 33  1  0  0  0  0
  4 34  1  0  0  0  0
  5  2  1  0  0  0  0
  5 35  1  0  0  0  0
  5 36  1  0  0  0  0
  6  4  1  0  0  0  0
  6 37  1  0  0  0  0
  6 38  1  0  0  0  0
  7  6  1  0  0  0  0
  7 39  1  0  0  0  0
  7 40  1  0  0  0  0
  8 41  1  0  0  0  0
  9 42  1  0  0  0  0
 11  8  1  0  0  0  0
 11 43  1  0  0  0  0
 12  9  2  0  0  0  0
 12 44  1  0  0  0  0
 13 10  2  0  0  0  0
 14 45  1  0  0  0  0
 14 46  1  0  0  0  0
 15  5  1  0  0  0  0
 15  7  1  0  0  0  0
 15 14  1  0  0  0  0
 15 47  1  0  0  0  0
 16  8  2  0  0  0  0
 16  9  1  0  0  0  0
 16 10  1  0  0  0  0
 17 11  2  0  0  0  0
 17 12  1  0  0  0  0
 18 13  1  0  0  0  0
 19 18  2  0  0  0  0
 20  3  1  0  0  0  0
 20 17  1  0  0  0  0
 21 14  1  0  0  0  0
 21 18  1  0  0  0  0
 22 10  1  0  0  0  0
 23 13  1  0  0  0  0
M  END
>  <DRUGBANK_ID>
DB09496

>  <COMMON_NAME>
Octinoxate

>  <CAS_NUMBER>
5466-77-3

>  <UNII>
4Y5P7MUD51

>  <SYNONYMS>
ethylhexyl methoxycinnamate; ethylhexyl p-methoxycinnamate; Octinoxate; octyl methoxycinnamate; parsol

$$$$
