
 OpenBabel10282417213D

 73 78  0  0  0  0  0  0  0  0999 V2000
    7.0831  -10.2053   -1.7787 C   0  0  0  0  0  0  0  0  0  0  0  0
    6.9157  -10.9134   -2.9475 N   0  0  0  0  0  0  0  0  0  0  0  0
    6.2861  -10.4051   -4.1643 C   0  0  2  0  0  0  0  0  0  0  0  0
    4.7810   -9.5105   -3.7019 S   0  0  0  0  0  0  0  0  0  0  0  0
    5.7190   -8.2888   -2.7119 C   0  0  0  0  0  0  0  0  0  0  0  0
    6.5729   -8.9484   -1.6446 C   0  0  0  0  0  0  0  0  0  0  0  0
    6.1678  -11.8967   -4.6247 C   0  0  1  0  0  0  0  0  0  0  0  0
    6.5354  -12.2095   -3.1386 C   0  0  0  0  0  0  0  0  0  0  0  0
    6.5919  -13.1417   -2.3836 O   0  0  0  0  0  0  0  0  0  0  0  0
    7.7769  -10.8567   -0.6060 C   0  0  0  0  0  0  0  0  0  0  0  0
    8.5187  -11.9554   -0.8643 O   0  0  0  0  0  0  0  0  0  0  0  0
    7.6914  -10.4266    0.5271 O   0  0  0  0  0  0  0  0  0  0  0  0
    6.7432   -8.1075   -0.4504 C   0  0  0  0  0  0  0  0  0  0  0  0
    5.7582   -7.7021    0.3737 C   0  0  0  0  0  0  0  0  0  0  0  0
    4.3020   -7.9868    0.3463 C   0  0  0  0  0  0  0  0  0  0  0  0
    3.7820   -7.4447    1.6689 C   0  0  0  0  0  0  0  0  0  0  0  0
    4.8510   -6.6984    2.2807 N   0  0  0  0  0  0  0  0  0  0  0  0
    6.0098   -6.7836    1.5109 C   0  0  0  0  0  0  0  0  0  0  0  0
    7.0526   -6.1617    1.6056 O   0  0  0  0  0  0  0  0  0  0  0  0
    4.5118   -5.7379    3.3749 C   0  0  1  0  0  0  0  0  0  0  0  0
    3.9143   -6.3961    4.6517 C   0  0  0  0  0  0  0  0  0  0  0  0
    5.0671   -6.8481    5.3972 N   0  0  0  0  0  0  0  0  0  0  0  0
    6.0791   -5.9102    5.1432 C   0  0  0  0  0  0  0  0  0  0  0  0
    5.6964   -5.0325    3.9772 C   0  0  0  0  0  0  0  0  0  0  0  0
    3.8678   -4.9734    2.9346 H   0  0  0  0  0  0  0  0  0  0  0  0
    4.8905  -12.4172   -5.2318 N   0  0  0  0  0  0  0  0  0  0  0  0
    4.8975  -13.1214   -6.4562 C   0  0  0  0  0  0  0  0  0  0  0  0
    3.5460  -13.6351   -7.1328 C   0  0  0  0  0  0  0  0  0  0  0  0
    5.9674  -13.3040   -7.0311 O   0  0  0  0  0  0  0  0  0  0  0  0
    3.6731  -14.5190   -8.3902 C   0  0  0  0  0  0  0  0  0  0  0  0
    2.3648  -13.4126   -6.5968 N   0  0  0  0  0  0  0  0  0  0  0  0
    2.4298  -12.7269   -5.3607 O   0  0  0  0  0  0  0  0  0  0  0  0
    4.6770  -15.4050   -8.3591 N   0  0  0  0  0  0  0  0  0  0  0  0
    4.6919  -16.2846   -9.7431 S   0  0  0  0  0  0  0  0  0  0  0  0
    3.3090  -15.5140  -10.4284 C   0  0  0  0  0  0  0  0  0  0  0  0
    2.8325  -14.5863   -9.5918 N   0  0  0  0  0  0  0  0  0  0  0  0
    2.9123  -15.9384  -11.6566 N   0  0  0  0  0  0  0  0  0  0  0  0
    6.9711   -9.8206   -4.7885 H   0  0  0  0  0  0  0  0  0  0  0  0
    7.0215  -12.1812   -5.2536 H   0  0  0  0  0  0  0  0  0  0  0  0
    5.2558   -8.1218    5.9090 C   0  0  0  0  0  0  0  0  0  0  0  0
    6.5218   -8.5814    6.2045 O   0  0  0  0  0  0  0  0  0  0  0  0
    4.2913   -8.8643    6.0911 O   0  0  0  0  0  0  0  0  0  0  0  0
    7.8587   -7.9547    6.1851 C   0  0  0  0  0  0  0  0  0  0  0  0
    8.4411   -7.7476    4.7956 C   0  0  0  0  0  0  0  0  0  0  0  0
    8.4294   -8.8786    3.9969 O   0  0  0  0  0  0  0  0  0  0  0  0
    8.9374   -8.3940    2.8028 C   0  0  0  0  0  0  0  0  0  0  0  0
    9.1352   -7.0185    2.8069 O   0  0  0  0  0  0  0  0  0  0  0  0
    8.8064   -6.6585    4.1012 C   0  0  0  0  0  0  0  0  0  0  0  0
    8.7557   -5.1474    4.3736 C   0  0  0  0  0  0  0  0  0  0  0  0
    9.2857   -9.0950    1.8913 O   0  0  0  0  0  0  0  0  0  0  0  0
    6.3465   -7.6644   -3.3574 H   0  0  0  0  0  0  0  0  0  0  0  0
    4.9686   -7.6261   -2.2764 H   0  0  0  0  0  0  0  0  0  0  0  0
    8.1837  -12.5194   -1.5867 H   0  0  0  0  0  0  0  0  0  0  0  0
    7.7765   -7.8316   -0.2116 H   0  0  0  0  0  0  0  0  0  0  0  0
    3.8390   -7.4324   -0.4747 H   0  0  0  0  0  0  0  0  0  0  0  0
    4.0915   -9.0526    0.2402 H   0  0  0  0  0  0  0  0  0  0  0  0
    2.9356   -6.7685    1.5030 H   0  0  0  0  0  0  0  0  0  0  0  0
    3.4807   -8.2434    2.3497 H   0  0  0  0  0  0  0  0  0  0  0  0
    3.5020   -5.5988    5.2829 H   0  0  0  0  0  0  0  0  0  0  0  0
    3.1767   -7.1703    4.4695 H   0  0  0  0  0  0  0  0  0  0  0  0
    6.7922   -6.5448    4.7359 H   0  0  0  0  0  0  0  0  0  0  0  0
    6.4151   -5.4222    6.0603 H   0  0  0  0  0  0  0  0  0  0  0  0
    6.4378   -4.9449    3.1997 H   0  0  0  0  0  0  0  0  0  0  0  0
    5.5386   -4.0146    4.3270 H   0  0  0  0  0  0  0  0  0  0  0  0
    3.9876  -12.2643   -4.7862 H   0  0  0  0  0  0  0  0  0  0  0  0
    1.5043  -12.6955   -5.0441 H   0  0  0  0  0  0  0  0  0  0  0  0
    2.1334  -15.5880  -12.2005 H   0  0  0  0  0  0  0  0  0  0  0  0
    3.4230  -16.6964  -12.1105 H   0  0  0  0  0  0  0  0  0  0  0  0
    7.8280   -7.0501    6.7933 H   0  0  0  0  0  0  0  0  0  0  0  0
    8.5195   -8.6563    6.7142 H   0  0  0  0  0  0  0  0  0  0  0  0
    9.6619   -4.6207    4.0892 H   0  0  0  0  0  0  0  0  0  0  0  0
    8.0332   -4.5638    3.7929 H   0  0  0  0  0  0  0  0  0  0  0  0
    8.4890   -4.9237    5.4107 H   0  0  0  0  0  0  0  0  0  0  0  0
  1  2  1  0  0  0  0
  1  6  2  0  0  0  0
  1 10  1  0  0  0  0
  2  3  1  0  0  0  0
  3  4  1  0  0  0  0
  3  7  1  0  0  0  0
  3 38  1  6  0  0  0
  4  5  1  0  0  0  0
  5  6  1  0  0  0  0
  5 51  1  0  0  0  0
  5 52  1  0  0  0  0
  6 13  1  0  0  0  0
  7  8  1  0  0  0  0
  7 26  1  0  0  0  0
  7 39  1  6  0  0  0
  8  2  1  0  0  0  0
  8  9  2  0  0  0  0
 10 11  1  0  0  0  0
 10 12  2  0  0  0  0
 11 53  1  0  0  0  0
 13 14  2  0  0  0  0
 13 54  1  0  0  0  0
 14 15  1  0  0  0  0
 14 18  1  0  0  0  0
 15 16  1  0  0  0  0
 15 55  1  0  0  0  0
 15 56  1  0  0  0  0
 16 17  1  0  0  0  0
 16 57  1  0  0  0  0
 16 58  1  0  0  0  0
 17 18  1  0  0  0  0
 18 19  2  0  0  0  0
 20 21  1  0  0  0  0
 20 24  1  0  0  0  0
 20 25  1  6  0  0  0
 20 17  1  0  0  0  0
 21 22  1  0  0  0  0
 21 59  1  0  0  0  0
 21 60  1  0  0  0  0
 22 23  1  0  0  0  0
 22 40  1  0  0  0  0
 23 24  1  0  0  0  0
 23 61  1  0  0  0  0
 23 62  1  0  0  0  0
 24 63  1  0  0  0  0
 24 64  1  0  0  0  0
 26 27  1  0  0  0  0
 26 65  1  0  0  0  0
 27 28  1  0  0  0  0
 27 29  2  0  0  0  0
 28 30  1  0  0  0  0
 28 31  2  0  0  0  0
 30 33  2  0  0  0  0
 30 36  1  0  0  0  0
 31 32  1  0  0  0  0
 32 66  1  0  0  0  0
 33 34  1  0  0  0  0
 34 35  1  0  0  0  0
 35 36  2  0  0  0  0
 35 37  1  0  0  0  0
 37 67  1  0  0  0  0
 37 68  1  0  0  0  0
 40 41  1  0  0  0  0
 40 42  2  0  0  0  0
 41 43  1  0  0  0  0
 43 44  1  0  0  0  0
 43 69  1  0  0  0  0
 43 70  1  0  0  0  0
 44 45  1  0  0  0  0
 44 48  2  0  0  0  0
 45 46  1  0  0  0  0
 46 47  1  0  0  0  0
 46 50  2  0  0  0  0
 47 48  1  0  0  0  0
 48 49  1  0  0  0  0
 49 71  1  0  0  0  0
 49 72  1  0  0  0  0
 49 73  1  0  0  0  0
M  END
>  <DRUGBANK_ID>
DB14733

>  <COMMON_NAME>
Ceftobiprole medocaril

>  <CAS_NUMBER>
376653-43-9

>  <UNII>
YXV28V1B07

>  <SYNONYMS>
Ceftobiprole medocaril; Ceftobiprole medocaril free acid

$$$$
