
 OpenBabel10282417213D

 68 74  0  0  1  0  0  0  0  0999 V2000
    1.8768   -3.8205    8.8849 N   0  0  0  0  0  0  0  0  0  0  0  0
    2.1220   -5.1589    8.4734 C   0  0  0  0  0  0  0  0  0  0  0  0
    2.7112   -5.8415    9.4202 N   0  0  0  0  0  0  0  0  0  0  0  0
    2.9774   -4.9178   10.3967 C   0  0  0  0  0  0  0  0  0  0  0  0
    3.5625   -4.9560   11.6248 C   0  0  0  0  0  0  0  0  0  0  0  0
    3.6869   -3.8211   12.3523 N   0  0  0  0  0  0  0  0  0  0  0  0
    3.2004   -2.6618   11.8342 C   0  0  0  0  0  0  0  0  0  0  0  0
    2.5723   -2.5048   10.6751 N   0  0  0  0  0  0  0  0  0  0  0  0
    2.4979   -3.6354   10.0275 C   0  0  0  0  0  0  0  0  0  0  0  0
    4.0125   -6.1639   12.1544 N   0  0  0  0  0  0  0  0  0  0  0  0
    1.1022   -2.6524    8.2283 C   0  0  2  0  0  0  0  0  0  0  0  0
   -0.2587   -2.1129    8.2389 O   0  0  0  0  0  0  0  0  0  0  0  0
   -1.1225   -3.0851    8.7186 C   0  0  2  0  0  0  0  0  0  0  0  0
   -2.5475   -2.8058    8.3760 C   0  0  0  0  0  0  0  0  0  0  0  0
   -2.9535   -1.8585    9.3945 O   0  0  0  0  0  0  0  0  0  0  0  0
   -3.2431   -0.3535    8.8761 P   0  0  2  0  0  0  0  0  0  0  0  0
   -2.2679    0.6632    9.8839 O   0  0  0  0  0  0  0  0  0  0  0  0
   -1.6112    2.0329    9.3333 C   0  0  2  0  0  0  0  0  0  0  0  0
    0.1173    2.6045    8.7155 C   0  0  1  0  0  0  0  0  0  0  0  0
    1.2787    2.0176    7.3705 C   0  0  0  0  0  0  0  0  0  0  0  0
    1.9809    0.6737    7.4634 O   0  0  0  0  0  0  0  0  0  0  0  0
    1.6483   -0.4947    6.2708 P   0  0  1  0  0  0  0  0  0  0  0  0
    2.4929    0.1413    4.4443 S   0  0  0  0  0  0  0  0  0  0  0  0
    2.1023   -2.0892    6.6871 O   0  0  0  0  0  0  0  0  0  0  0  0
    1.0026   -3.3687    6.9625 C   0  0  2  0  0  0  0  0  0  0  0  0
   -0.3446   -4.1943    8.1199 C   0  0  2  0  0  0  0  0  0  0  0  0
   -0.8494   -5.5506    8.1108 O   0  0  0  0  0  0  0  0  0  0  0  0
    0.1931   -0.5839    5.9908 O   0  0  0  0  0  0  0  0  0  0  0  0
   -0.3600    3.4908    7.6214 O   0  0  0  0  0  0  0  0  0  0  0  0
   -1.7459    3.1881    7.5402 C   0  0  2  0  0  0  0  0  0  0  0  0
   -1.8299    1.7335    7.9366 C   0  0  2  0  0  0  0  0  0  0  0  0
   -0.9914    1.0403    7.0119 O   0  0  0  0  0  0  0  0  0  0  0  0
   -2.5495    3.2516    6.3182 N   0  0  0  0  0  0  0  0  0  0  0  0
   -2.6506    2.2229    5.3954 C   0  0  0  0  0  0  0  0  0  0  0  0
   -3.8299    2.1459    4.8317 N   0  0  0  0  0  0  0  0  0  0  0  0
   -4.5376    3.1652    5.3987 C   0  0  0  0  0  0  0  0  0  0  0  0
   -5.8238    3.6313    5.1372 C   0  0  0  0  0  0  0  0  0  0  0  0
   -6.3026    4.6598    5.8684 N   0  0  0  0  0  0  0  0  0  0  0  0
   -5.5230    5.1495    6.8595 C   0  0  0  0  0  0  0  0  0  0  0  0
   -4.2755    4.7667    7.2151 N   0  0  0  0  0  0  0  0  0  0  0  0
   -3.8175    3.8132    6.3805 C   0  0  0  0  0  0  0  0  0  0  0  0
   -6.5746    3.0673    4.1327 N   0  0  0  0  0  0  0  0  0  0  0  0
   -5.3203   -0.1421    8.7927 S   0  0  0  0  0  0  0  0  0  0  0  0
   -2.8864   -0.3093    7.4211 O   0  0  0  0  0  0  0  0  0  0  0  0
    1.7517   -5.6240    7.5545 H   0  0  0  0  0  0  0  0  0  0  0  0
    3.3066   -1.7587   12.4057 H   0  0  0  0  0  0  0  0  0  0  0  0
    3.9340   -6.9848   11.5741 H   0  0  0  0  0  0  0  0  0  0  0  0
    4.4900   -6.1389   13.0276 H   0  0  0  0  0  0  0  0  0  0  0  0
    1.6203   -1.7688    8.5897 H   0  0  0  0  0  0  0  0  0  0  0  0
   -0.9514   -2.8945    9.7840 H   0  0  0  0  0  0  0  0  0  0  0  0
   -3.2361   -3.6563    8.3804 H   0  0  0  0  0  0  0  0  0  0  0  0
   -2.5780   -2.3838    7.3719 H   0  0  0  0  0  0  0  0  0  0  0  0
   -2.3725    2.7905    9.6232 H   0  0  0  0  0  0  0  0  0  0  0  0
    0.5532    1.6609    9.0778 H   0  0  0  0  0  0  0  0  0  0  0  0
    2.0287    2.8456    7.2466 H   0  0  0  0  0  0  0  0  0  0  0  0
    0.8155    2.0567    6.3695 H   0  0  0  0  0  0  0  0  0  0  0  0
    1.5208    1.0405    4.1747 H   0  0  0  0  0  0  0  0  0  0  0  0
    0.4458   -3.2270    6.0496 H   0  0  0  0  0  0  0  0  0  0  0  0
    0.0453   -4.3980    9.1355 H   0  0  0  0  0  0  0  0  0  0  0  0
   -0.9362   -5.8677    9.0635 H   0  0  0  0  0  0  0  0  0  0  0  0
   -2.1746    3.9885    8.1659 H   0  0  0  0  0  0  0  0  0  0  0  0
   -1.1575    1.0547    8.4705 H   0  0  0  0  0  0  0  0  0  0  0  0
   -1.0761    0.0616    7.1725 H   0  0  0  0  0  0  0  0  0  0  0  0
   -1.8823    1.4741    5.2527 H   0  0  0  0  0  0  0  0  0  0  0  0
   -5.9483    5.9744    7.4264 H   0  0  0  0  0  0  0  0  0  0  0  0
   -6.1192    2.3562    3.5706 H   0  0  0  0  0  0  0  0  0  0  0  0
   -7.4224    3.5210    3.8444 H   0  0  0  0  0  0  0  0  0  0  0  0
   -5.3630    0.0977    7.4553 H   0  0  0  0  0  0  0  0  0  0  0  0
  2  1  1  0  0  0  0
  2 45  1  0  0  0  0
  3  2  2  0  0  0  0
  3  4  1  0  0  0  0
  4  9  2  0  0  0  0
  5  4  1  0  0  0  0
  6  5  2  0  0  0  0
  6  7  1  0  0  0  0
  7  8  2  0  0  0  0
  7 46  1  0  0  0  0
  8  9  1  0  0  0  0
  9  1  1  0  0  0  0
 10  5  1  0  0  0  0
 10 47  1  0  0  0  0
 10 48  1  0  0  0  0
 11  1  1  0  0  0  0
 11 49  1  6  0  0  0
 12 11  1  0  0  0  0
 13 12  1  0  0  0  0
 13 14  1  0  0  0  0
 13 50  1  6  0  0  0
 14 51  1  0  0  0  0
 14 52  1  0  0  0  0
 15 14  1  0  0  0  0
 16 15  1  0  0  0  0
 16 43  1  0  0  0  0
 16 44  2  6  0  0  0
 17 16  1  0  0  0  0
 18 17  1  0  0  0  0
 18 19  1  0  0  0  0
 18 31  1  0  0  0  0
 18 53  1  6  0  0  0
 19 20  1  0  0  0  0
 19 29  1  0  0  0  0
 19 54  1  1  0  0  0
 20 55  1  0  0  0  0
 20 56  1  0  0  0  0
 21 20  1  0  0  0  0
 22 21  1  0  0  0  0
 22 23  1  0  0  0  0
 22 28  2  6  0  0  0
 23 57  1  0  0  0  0
 24 22  1  0  0  0  0
 25 24  1  0  0  0  0
 25 11  1  0  0  0  0
 25 58  1  1  0  0  0
 26 25  1  0  0  0  0
 26 13  1  0  0  0  0
 26 27  1  0  0  0  0
 26 59  1  1  0  0  0
 27 60  1  0  0  0  0
 29 30  1  0  0  0  0
 30 61  1  1  0  0  0
 30 33  1  0  0  0  0
 31 30  1  0  0  0  0
 31 62  1  1  0  0  0
 31 32  1  0  0  0  0
 32 63  1  0  0  0  0
 34 33  1  0  0  0  0
 34 64  1  0  0  0  0
 35 34  2  0  0  0  0
 35 36  1  0  0  0  0
 36 41  2  0  0  0  0
 37 36  1  0  0  0  0
 38 37  2  0  0  0  0
 38 39  1  0  0  0  0
 39 40  2  0  0  0  0
 39 65  1  0  0  0  0
 40 41  1  0  0  0  0
 41 33  1  0  0  0  0
 42 37  1  0  0  0  0
 42 66  1  0  0  0  0
 42 67  1  0  0  0  0
 43 68  1  0  0  0  0
M  END
>  <DRUGBANK_ID>
DB14722

>  <COMMON_NAME>
ADU-S100

>  <CAS_NUMBER>
1638241-89-0

>  <UNII>
NV32768L81

>  <SYNONYMS>
ADU-S100 free acid

$$$$
