
 OpenBabel10282417183D

 48 51  0  0  0  0  0  0  0  0999 V2000
    2.4212    0.0023    0.0541 C   0  0  0  0  0  0  0  0  0  0  0  0
   -9.8758    2.1893    2.9153 C   0  0  0  0  0  0  0  0  0  0  0  0
  -10.8483    0.7561    1.0648 C   0  0  0  0  0  0  0  0  0  0  0  0
   -8.6526    2.6034    2.3776 C   0  0  0  0  0  0  0  0  0  0  0  0
   -9.5822    0.9137    0.6440 C   0  0  0  0  0  0  0  0  0  0  0  0
    0.3066   -1.1729    0.2564 C   0  0  0  0  0  0  0  0  0  0  0  0
    0.3064    1.1940    0.2387 C   0  0  0  0  0  0  0  0  0  0  0  0
   -1.1812   -1.2199   -0.1961 C   0  0  0  0  0  0  0  0  0  0  0  0
   -1.1911    1.2738   -0.2041 C   0  0  0  0  0  0  0  0  0  0  0  0
   -4.1623   -0.8432    2.8387 C   0  0  0  0  0  0  0  0  0  0  0  0
   -4.3477    0.8220    0.5626 C   0  0  0  0  0  0  0  0  0  0  0  0
   -7.7220   -0.0024    1.8173 C   0  0  0  0  0  0  0  0  0  0  0  0
  -10.9262    1.3685    2.2753 C   0  0  0  0  0  0  0  0  0  0  0  0
   -8.3585    1.8735    1.2689 C   0  0  0  0  0  0  0  0  0  0  0  0
   -5.2959   -0.2846    2.3156 C   0  0  0  0  0  0  0  0  0  0  0  0
   -7.4413   -0.7942    0.7785 C   0  0  0  0  0  0  0  0  0  0  0  0
   -3.0469   -0.6553    2.0890 C   0  0  0  0  0  0  0  0  0  0  0  0
   -5.4921    0.7716    1.4328 C   0  0  0  0  0  0  0  0  0  0  0  0
   -3.0932    0.0680    0.8768 C   0  0  0  0  0  0  0  0  0  0  0  0
   -6.4957   -1.0973    2.2731 C   0  0  0  0  0  0  0  0  0  0  0  0
   -7.2747    0.4482   -0.6084 C   0  0  0  0  0  0  0  0  0  0  0  0
  -11.9891    1.0464    3.0086 F   0  0  0  0  0  0  0  0  0  0  0  0
   -1.9208   -1.2365    2.5183 F   0  0  0  0  0  0  0  0  0  0  0  0
    1.0018    0.0052   -0.2980 N   0  0  0  0  0  0  0  0  0  0  0  0
   -1.9558    0.0388    0.0478 N   0  0  0  0  0  0  0  0  0  0  0  0
   -7.0283    1.1691    1.6285 N   0  0  0  0  0  0  0  0  0  0  0  0
   -6.8590   -1.4564    3.4106 O   0  0  0  0  0  0  0  0  0  0  0  0
   -6.2056    0.9259   -1.1426 O   0  0  0  0  0  0  0  0  0  0  0  0
   -8.3626    1.2279   -1.1419 O   0  0  0  0  0  0  0  0  0  0  0  0
    2.9253    0.8790   -0.3700 H   0  0  0  0  0  0  0  0  0  0  0  0
    2.5854    0.0007    1.1369 H   0  0  0  0  0  0  0  0  0  0  0  0
    2.9239   -0.8756   -0.3708 H   0  0  0  0  0  0  0  0  0  0  0  0
   -9.9373    2.2746    3.9935 H   0  0  0  0  0  0  0  0  0  0  0  0
  -11.5108    0.0300    0.5822 H   0  0  0  0  0  0  0  0  0  0  0  0
   -7.7949    2.8952    3.0048 H   0  0  0  0  0  0  0  0  0  0  0  0
   -9.4118    0.0523   -0.0666 H   0  0  0  0  0  0  0  0  0  0  0  0
    0.8096   -2.0878   -0.0870 H   0  0  0  0  0  0  0  0  0  0  0  0
    0.3699   -1.1696    1.3529 H   0  0  0  0  0  0  0  0  0  0  0  0
    0.3704    1.1926    1.3358 H   0  0  0  0  0  0  0  0  0  0  0  0
    0.8179    2.0993   -0.1112 H   0  0  0  0  0  0  0  0  0  0  0  0
   -1.1814   -1.3756   -1.2825 H   0  0  0  0  0  0  0  0  0  0  0  0
   -1.6546   -2.1043    0.2445 H   0  0  0  0  0  0  0  0  0  0  0  0
   -1.2131    1.4453   -1.2850 H   0  0  0  0  0  0  0  0  0  0  0  0
   -1.6489    2.1336    0.2934 H   0  0  0  0  0  0  0  0  0  0  0  0
   -4.2278   -1.4418    3.7358 H   0  0  0  0  0  0  0  0  0  0  0  0
   -4.3374    1.2427   -0.4481 H   0  0  0  0  0  0  0  0  0  0  0  0
   -8.4845   -0.1503    2.6279 H   0  0  0  0  0  0  0  0  0  0  0  0
   -8.3088    2.1944   -1.4218 H   0  0  0  0  0  0  0  0  0  0  0  0
  1 30  1  0  0  0  0
  1 31  1  0  0  0  0
  1 32  1  0  0  0  0
  2 33  1  0  0  0  0
  3 34  1  0  0  0  0
  4  2  1  0  0  0  0
  4 35  1  0  0  0  0
  5  3  2  0  0  0  0
  5 36  1  0  0  0  0
  6 37  1  0  0  0  0
  6 38  1  0  0  0  0
  7 39  1  0  0  0  0
  7 40  1  0  0  0  0
  8  6  1  0  0  0  0
  8 41  1  0  0  0  0
  8 42  1  0  0  0  0
  9  7  1  0  0  0  0
  9 43  1  0  0  0  0
  9 44  1  0  0  0  0
 10 45  1  0  0  0  0
 11 46  1  0  0  0  0
 12 47  1  0  0  0  0
 13  2  2  0  0  0  0
 13  3  1  0  0  0  0
 14  4  2  0  0  0  0
 14  5  1  0  0  0  0
 15 10  2  0  0  0  0
 16 12  2  0  0  0  0
 17 10  1  0  0  0  0
 18 11  2  0  0  0  0
 18 15  1  0  0  0  0
 19 11  1  0  0  0  0
 19 17  2  0  0  0  0
 20 15  1  0  0  0  0
 20 16  1  0  0  0  0
 21 16  1  0  0  0  0
 22 13  1  0  0  0  0
 23 17  1  0  0  0  0
 24  1  1  0  0  0  0
 24  6  1  0  0  0  0
 24  7  1  0  0  0  0
 25  8  1  0  0  0  0
 25  9  1  0  0  0  0
 25 19  1  0  0  0  0
 26 12  1  0  0  0  0
 26 14  1  0  0  0  0
 26 18  1  0  0  0  0
 27 20  2  0  0  0  0
 28 21  2  0  0  0  0
 29 21  1  0  0  0  0
 29 48  1  0  0  0  0
M  END
>  <DRUGBANK_ID>
DB11511

>  <COMMON_NAME>
Difloxacin

>  <CAS_NUMBER>
98106-17-3

>  <UNII>
5Z7OO9FNFD

>  <SYNONYMS>
Difloxacin; difloxacino

$$$$
