
 OpenBabel10282417243D

 67 71  0  0  0  0  0  0  0  0999 V2000
    1.7861   -0.2740    0.3620 C   0  0  0  0  0  0  0  0  0  0  0  0
    1.0934   -0.3099    1.7509 C   0  0  0  0  0  0  0  0  0  0  0  0
    1.1461    1.0400    2.3662 C   0  0  0  0  0  0  0  0  0  0  0  0
    1.8215    1.0730    3.5480 N   0  0  0  0  0  0  0  0  0  0  0  0
    1.8099    2.3185    3.9153 C   0  0  0  0  0  0  0  0  0  0  0  0
    2.3980    2.8948    5.0716 C   0  0  0  0  0  0  0  0  0  0  0  0
    2.3086    4.2184    5.2723 C   0  0  0  0  0  0  0  0  0  0  0  0
    1.6131    5.0615    4.3179 C   0  0  0  0  0  0  0  0  0  0  0  0
    1.5333    6.7474    4.6452 Cl  0  0  0  0  0  0  0  0  0  0  0  0
    1.0476    4.5201    3.2221 C   0  0  0  0  0  0  0  0  0  0  0  0
    1.1317    3.1344    3.0047 N   0  0  0  0  0  0  0  0  0  0  0  0
    0.6325    2.2998    1.9666 C   0  0  0  0  0  0  0  0  0  0  0  0
   -0.1672    2.8012    0.8060 C   0  0  0  0  0  0  0  0  0  0  0  0
   -0.3314    4.0308    0.6339 O   0  0  0  0  0  0  0  0  0  0  0  0
   -0.7955    2.0449   -0.1925 N   0  0  0  0  0  0  0  0  0  0  0  0
   -0.7161    0.6311   -0.4337 C   0  0  0  0  0  0  0  0  0  0  0  0
   -1.7933   -0.3500   -0.1574 C   0  0  0  0  0  0  0  0  0  0  0  0
   -1.5603   -1.7408    0.0231 C   0  0  0  0  0  0  0  0  0  0  0  0
   -2.6391   -2.6147    0.0080 C   0  0  0  0  0  0  0  0  0  0  0  0
   -3.9320   -2.0967   -0.0944 C   0  0  0  0  0  0  0  0  0  0  0  0
   -4.1222   -0.7153   -0.0235 C   0  0  0  0  0  0  0  0  0  0  0  0
   -3.0639    0.1542   -0.0680 C   0  0  0  0  0  0  0  0  0  0  0  0
   -5.0219   -2.9051   -0.2639 N   0  0  0  0  0  0  0  0  0  0  0  0
   -5.3080   -3.9516    0.6806 C   0  0  0  0  0  0  0  0  0  0  0  0
   -5.2712   -5.2813   -0.0455 C   0  0  0  0  0  0  0  0  0  0  0  0
   -6.1968   -5.2918   -1.2866 C   0  0  0  0  0  0  0  0  0  0  0  0
   -5.9128   -4.0559   -2.1772 C   0  0  0  0  0  0  0  0  0  0  0  0
   -5.9137   -2.7482   -1.3979 C   0  0  0  0  0  0  0  0  0  0  0  0
   -6.0073   -6.6158   -2.0205 C   0  0  0  0  0  0  0  0  0  0  0  0
   -6.1929   -7.8311   -1.3452 C   0  0  0  0  0  0  0  0  0  0  0  0
   -5.7168   -9.0246   -1.8972 C   0  0  0  0  0  0  0  0  0  0  0  0
   -5.1812   -9.0444   -3.1862 C   0  0  0  0  0  0  0  0  0  0  0  0
   -4.6759  -10.2413   -3.6084 O   0  0  0  0  0  0  0  0  0  0  0  0
   -4.0898  -10.2518   -4.9028 C   0  0  0  0  0  0  0  0  0  0  0  0
   -5.0167   -9.9824   -5.8488 F   0  0  0  0  0  0  0  0  0  0  0  0
   -3.0770   -9.3607   -5.0006 F   0  0  0  0  0  0  0  0  0  0  0  0
   -3.5858  -11.4801   -5.1496 F   0  0  0  0  0  0  0  0  0  0  0  0
   -5.1842   -7.8710   -3.9310 C   0  0  0  0  0  0  0  0  0  0  0  0
   -5.5452   -6.6668   -3.3392 C   0  0  0  0  0  0  0  0  0  0  0  0
    1.6504    0.6860   -0.1667 H   0  0  0  0  0  0  0  0  0  0  0  0
    1.3985   -1.0609   -0.2951 H   0  0  0  0  0  0  0  0  0  0  0  0
    2.8657   -0.3440    0.4293 H   0  0  0  0  0  0  0  0  0  0  0  0
    0.0220   -0.5651    1.8112 H   0  0  0  0  0  0  0  0  0  0  0  0
    1.5005   -1.1332    2.3380 H   0  0  0  0  0  0  0  0  0  0  0  0
    2.9118    2.2409    5.7691 H   0  0  0  0  0  0  0  0  0  0  0  0
    2.7575    4.6655    6.1542 H   0  0  0  0  0  0  0  0  0  0  0  0
    0.5242    5.1212    2.4925 H   0  0  0  0  0  0  0  0  0  0  0  0
   -1.1441    2.5953   -0.9660 H   0  0  0  0  0  0  0  0  0  0  0  0
   -0.1594    0.3936   -1.3437 H   0  0  0  0  0  0  0  0  0  0  0  0
   -0.1896    0.4504    0.4259 H   0  0  0  0  0  0  0  0  0  0  0  0
   -0.5673   -2.1773    0.1588 H   0  0  0  0  0  0  0  0  0  0  0  0
   -2.4671   -3.6909    0.0088 H   0  0  0  0  0  0  0  0  0  0  0  0
   -5.1148   -0.2934    0.0453 H   0  0  0  0  0  0  0  0  0  0  0  0
   -3.2103    1.2254   -0.0649 H   0  0  0  0  0  0  0  0  0  0  0  0
   -6.3045   -3.7673    1.0948 H   0  0  0  0  0  0  0  0  0  0  0  0
   -4.6067   -3.9537    1.5230 H   0  0  0  0  0  0  0  0  0  0  0  0
   -5.5568   -6.0614    0.6675 H   0  0  0  0  0  0  0  0  0  0  0  0
   -4.2406   -5.4984   -0.3598 H   0  0  0  0  0  0  0  0  0  0  0  0
   -7.2413   -5.2334   -0.9511 H   0  0  0  0  0  0  0  0  0  0  0  0
   -4.9204   -4.1543   -2.6399 H   0  0  0  0  0  0  0  0  0  0  0  0
   -6.6478   -3.9998   -2.9898 H   0  0  0  0  0  0  0  0  0  0  0  0
   -5.6090   -1.9355   -2.0719 H   0  0  0  0  0  0  0  0  0  0  0  0
   -6.9214   -2.5198   -1.0395 H   0  0  0  0  0  0  0  0  0  0  0  0
   -6.6503   -7.8511   -0.3578 H   0  0  0  0  0  0  0  0  0  0  0  0
   -5.7441   -9.9341   -1.3013 H   0  0  0  0  0  0  0  0  0  0  0  0
   -4.8678   -7.8273   -4.9678 H   0  0  0  0  0  0  0  0  0  0  0  0
   -5.4061   -5.7714   -3.9370 H   0  0  0  0  0  0  0  0  0  0  0  0
  1  2  1  0  0  0  0
  1 40  1  0  0  0  0
  1 41  1  0  0  0  0
  1 42  1  0  0  0  0
  2  3  1  0  0  0  0
  2 43  1  0  0  0  0
  2 44  1  0  0  0  0
  3  4  1  0  0  0  0
  3 12  2  0  0  0  0
  4  5  2  0  0  0  0
  5  6  1  0  0  0  0
  5 11  1  0  0  0  0
  6  7  2  0  0  0  0
  6 45  1  0  0  0  0
  7  8  1  0  0  0  0
  7 46  1  0  0  0  0
  8  9  1  0  0  0  0
  8 10  2  0  0  0  0
 10 11  1  0  0  0  0
 10 47  1  0  0  0  0
 11 12  1  0  0  0  0
 12 13  1  0  0  0  0
 13 14  2  0  0  0  0
 13 15  1  0  0  0  0
 15 16  1  0  0  0  0
 15 48  1  0  0  0  0
 16 17  1  0  0  0  0
 16 49  1  0  0  0  0
 16 50  1  0  0  0  0
 17 18  2  0  0  0  0
 17 22  1  0  0  0  0
 18 19  1  0  0  0  0
 18 51  1  0  0  0  0
 19 20  2  0  0  0  0
 19 52  1  0  0  0  0
 20 21  1  0  0  0  0
 20 23  1  0  0  0  0
 21 22  2  0  0  0  0
 21 53  1  0  0  0  0
 22 54  1  0  0  0  0
 23 24  1  0  0  0  0
 23 28  1  0  0  0  0
 24 25  1  0  0  0  0
 24 55  1  0  0  0  0
 24 56  1  0  0  0  0
 25 26  1  0  0  0  0
 25 57  1  0  0  0  0
 25 58  1  0  0  0  0
 26 27  1  0  0  0  0
 26 29  1  0  0  0  0
 26 59  1  0  0  0  0
 27 28  1  0  0  0  0
 27 60  1  0  0  0  0
 27 61  1  0  0  0  0
 28 62  1  0  0  0  0
 28 63  1  0  0  0  0
 29 30  2  0  0  0  0
 29 39  1  0  0  0  0
 30 31  1  0  0  0  0
 30 64  1  0  0  0  0
 31 32  2  0  0  0  0
 31 65  1  0  0  0  0
 32 33  1  0  0  0  0
 32 38  1  0  0  0  0
 33 34  1  0  0  0  0
 34 35  1  0  0  0  0
 34 36  1  0  0  0  0
 34 37  1  0  0  0  0
 38 39  2  0  0  0  0
 38 66  1  0  0  0  0
 39 67  1  0  0  0  0
M  END
>  <DRUGBANK_ID>
DB17754

>  <COMMON_NAME>
Telacebec

>  <CAS_NUMBER>
1334719-95-7

>  <UNII>
55G92WGH3X

>  <SYNONYMS>
6-chloro-2-ethyl-n-((4-(4-(4-(trifluoromethoxy)phenyl)-1-piperdinyl)phenyl)methyl)-imidazo(1,2-a)pyridine-3-carboxamide; Imidazo(1,2-a)pyridine-3-carboxamide, 6-chloro-2-ethyl-n-((4-(4-(4-(trifluoromethoxy)phenyl)-1-piperidinyl)phenyl)methyl)-

$$$$
