
 OpenBabel10282417143D

 14 13  0  0  0  0  0  0  0  0999 V2000
    0.9723   -0.0892   -0.0565 C   0  0  0  0  0  0  0  0  0  0  0  0
    0.4946    0.1716   -1.4600 C   0  0  0  0  0  0  0  0  0  0  0  0
   -0.3874   -0.8831   -2.1275 C   0  0  1  0  0  0  0  0  0  0  0  0
   -1.7401   -0.2825   -2.4734 C   0  0  0  0  0  0  0  0  0  0  0  0
    0.8220    1.2003   -2.0597 O   0  0  0  0  0  0  0  0  0  0  0  0
    0.2345   -1.3533   -3.3174 O   0  0  0  0  0  0  0  0  0  0  0  0
    0.6118   -1.0523    0.3123 H   0  0  0  0  0  0  0  0  0  0  0  0
    0.6005    0.6984    0.6036 H   0  0  0  0  0  0  0  0  0  0  0  0
    2.0654   -0.1024   -0.0487 H   0  0  0  0  0  0  0  0  0  0  0  0
   -0.5205   -1.7405   -1.4618 H   0  0  0  0  0  0  0  0  0  0  0  0
   -1.6305    0.5597   -3.1668 H   0  0  0  0  0  0  0  0  0  0  0  0
   -2.3734   -1.0220   -2.9741 H   0  0  0  0  0  0  0  0  0  0  0  0
   -2.2534    0.0797   -1.5776 H   0  0  0  0  0  0  0  0  0  0  0  0
    0.3928   -0.5689   -3.8773 H   0  0  0  0  0  0  0  0  0  0  0  0
  1  2  1  0  0  0  0
  1  7  1  0  0  0  0
  1  8  1  0  0  0  0
  1  9  1  0  0  0  0
  2  3  1  0  0  0  0
  2  5  2  0  0  0  0
  3  4  1  0  0  0  0
  3  6  1  0  0  0  0
  3 10  1  1  0  0  0
  4 11  1  0  0  0  0
  4 12  1  0  0  0  0
  4 13  1  0  0  0  0
  6 14  1  0  0  0  0
M  END
>  <DRUGBANK_ID>
DB04364

>  <SECONDARY_ACCESSION_NUMBERS>
EXPT01701

>  <COMMON_NAME>
(R)-acetoin

>  <SYNONYMS>
(R)-2-acetoin; (R)-3-hydroxy-2-butanone; (R)-3-hydroxybutan-2-one; (R)-dimethylketol

$$$$
