
 OpenBabel10282417193D

116121  0  0  1  0  0  0  0  0999 V2000
   -5.4367   10.6683   -3.8619 C   0  0  0  0  0  0  0  0  0  0  0  0
   -4.9984   10.2064   -2.6504 C   0  0  0  0  0  0  0  0  0  0  0  0
   -5.9728   10.3074   -1.7093 C   0  0  0  0  0  0  0  0  0  0  0  0
   -5.7539    9.2250   -1.0110 O   0  0  0  0  0  0  0  0  0  0  0  0
   -6.6395   11.5102   -1.4464 O   0  0  0  0  0  0  0  0  0  0  0  0
   -6.0067   12.7651   -1.7853 C   0  0  1  0  0  0  0  0  0  0  0  0
   -5.2847   14.0841   -0.9716 C   0  0  0  0  0  0  0  0  0  0  0  0
   -3.7427   13.8336    0.1218 C   0  0  2  0  0  0  0  0  0  0  0  0
   -1.9213   13.2807   -0.2652 C   0  0  1  0  0  0  0  0  0  0  0  0
   -2.0699   13.8794    1.1560 C   0  0  0  0  0  0  0  0  0  0  0  0
   -2.8124   14.8935    0.2953 O   0  0  0  0  0  0  0  0  0  0  0  0
   -2.7556   11.8429   -1.7351 C   0  0  2  0  0  0  0  0  0  0  0  0
   -4.9623   12.1798   -2.8196 C   0  0  2  0  0  0  0  0  0  0  0  0
   -6.8690   11.7037   -3.6190 C   0  0  0  0  0  0  0  0  0  0  0  0
   -7.9412   12.3088   -3.8501 O   0  0  0  0  0  0  0  0  0  0  0  0
   -7.0333   10.0653   -4.9070 C   0  0  1  0  0  0  0  0  0  0  0  0
   -5.5648    8.7864   -4.4008 C   0  0  0  0  0  0  0  0  0  0  0  0
   -4.2656    9.3627   -4.6125 C   0  0  0  0  0  0  0  0  0  0  0  0
   -2.8727    8.3792   -3.6814 C   0  0  2  0  0  0  0  0  0  0  0  0
   -1.3657    9.0273   -3.6597 C   0  0  0  0  0  0  0  0  0  0  0  0
   -2.4812    8.6894   -2.3532 C   0  0  1  0  0  0  0  0  0  0  0  0
   -1.3351   10.4115   -1.9150 C   0  0  1  0  0  0  0  0  0  0  0  0
   -0.5719   11.8297   -2.1187 O   0  0  0  0  0  0  0  0  0  0  0  0
   -1.3506   12.7062   -1.6473 C   0  0  0  0  0  0  0  0  0  0  0  0
   -1.6262   13.9015   -2.2184 O   0  0  0  0  0  0  0  0  0  0  0  0
   -2.2097   11.6736    0.1049 C   0  0  0  0  0  0  0  0  0  0  0  0
   -1.3920   11.0915    1.1202 C   0  0  0  0  0  0  0  0  0  0  0  0
   -1.7663   11.0641    2.5838 C   0  0  0  0  0  0  0  0  0  0  0  0
   -2.9786   11.6576    3.1981 C   0  0  0  0  0  0  0  0  0  0  0  0
   -4.0565   12.0405    2.4649 C   0  0  0  0  0  0  0  0  0  0  0  0
   -3.6953   11.8637    1.1203 C   0  0  0  0  0  0  0  0  0  0  0  0
   -4.7406    8.1722   -2.7590 C   0  0  0  0  0  0  0  0  0  0  0  0
   -5.9145    6.9969   -2.2062 C   0  0  0  0  0  0  0  0  0  0  0  0
   -6.8193    8.6183   -2.4969 C   0  0  0  0  0  0  0  0  0  0  0  0
   -0.8068    7.9295   -2.1844 O   0  0  0  0  0  0  0  0  0  0  0  0
   -3.1508    7.1220   -2.9211 O   0  0  0  0  0  0  0  0  0  0  0  0
   -2.8225    6.1949   -3.6871 C   0  0  0  0  0  0  0  0  0  0  0  0
   -2.4856    5.2233   -3.0703 O   0  0  0  0  0  0  0  0  0  0  0  0
   -3.0422    6.5261   -5.1632 C   0  0  1  0  0  0  0  0  0  0  0  0
   -3.7162    7.7708   -5.4909 C   0  0  2  0  0  0  0  0  0  0  0  0
   -4.2989    8.2049   -6.7289 C   0  0  0  0  0  0  0  0  0  0  0  0
   -5.3692    7.6784   -7.3090 C   0  0  0  0  0  0  0  0  0  0  0  0
   -5.5219    8.5047   -8.4140 C   0  0  0  0  0  0  0  0  0  0  0  0
   -4.7613    9.6351   -8.3051 C   0  0  0  0  0  0  0  0  0  0  0  0
   -4.0935    9.4689   -7.1770 O   0  0  0  0  0  0  0  0  0  0  0  0
   -2.5073    9.3270   -5.2336 N   0  0  0  0  0  0  0  0  0  0  0  0
   -2.5514   10.6165   -3.7979 C   0  0  0  0  0  0  0  0  0  0  0  0
   -1.7103   11.5334   -3.8062 O   0  0  0  0  0  0  0  0  0  0  0  0
   -3.1847   10.2411   -2.1693 O   0  0  0  0  0  0  0  0  0  0  0  0
   -4.1721   11.0647   -0.8806 C   0  0  0  0  0  0  0  0  0  0  0  0
   -3.2760    9.7268   -0.0628 C   0  0  0  0  0  0  0  0  0  0  0  0
   -3.9063   13.0155   -1.6944 C   0  0  0  0  0  0  0  0  0  0  0  0
   -5.3920   10.6563    0.2280 C   0  0  0  0  0  0  0  0  0  0  0  0
   -2.0354    7.0270   -5.9471 O   0  0  0  0  0  0  0  0  0  0  0  0
   -3.6835   11.0086   -5.5646 C   0  0  0  0  0  0  0  0  0  0  0  0
   -6.7402    9.5173   -6.1614 O   0  0  0  0  0  0  0  0  0  0  0  0
   -5.6225   13.3169   -4.2693 C   0  0  0  0  0  0  0  0  0  0  0  0
   -0.0708   12.6922    0.1316 O   0  0  0  0  0  0  0  0  0  0  0  0
    0.9206   12.7012    1.3888 C   0  0  0  0  0  0  0  0  0  0  0  0
    2.1517   12.5006    1.4703 O   0  0  0  0  0  0  0  0  0  0  0  0
    0.2341   12.9869    2.6605 C   0  0  0  0  0  0  0  0  0  0  0  0
   -6.3014   10.1390   -3.5095 H   0  0  0  0  0  0  0  0  0  0  0  0
   -5.3262   10.7013   -4.9291 H   0  0  0  0  0  0  0  0  0  0  0  0
   -5.3225   11.5770   -4.3735 H   0  0  0  0  0  0  0  0  0  0  0  0
   -4.4003    9.3837   -1.8866 H   0  0  0  0  0  0  0  0  0  0  0  0
   -4.2315   10.7675   -3.0925 H   0  0  0  0  0  0  0  0  0  0  0  0
   -6.9213   13.2890   -2.1392 H   0  0  0  0  0  0  0  0  0  0  0  0
   -4.6294   14.6738   -1.6661 H   0  0  0  0  0  0  0  0  0  0  0  0
   -5.9497   14.8146   -1.3114 H   0  0  0  0  0  0  0  0  0  0  0  0
   -4.8958   13.4949    0.1287 H   0  0  0  0  0  0  0  0  0  0  0  0
   -2.1910   12.8792    1.5962 H   0  0  0  0  0  0  0  0  0  0  0  0
   -2.9268   13.7153    1.7919 H   0  0  0  0  0  0  0  0  0  0  0  0
   -1.9098   10.8096   -1.1673 H   0  0  0  0  0  0  0  0  0  0  0  0
   -7.1624   10.9712   -5.5940 H   0  0  0  0  0  0  0  0  0  0  0  0
   -3.5515    9.2051   -3.4373 H   0  0  0  0  0  0  0  0  0  0  0  0
   -0.4724    8.8847   -4.3078 H   0  0  0  0  0  0  0  0  0  0  0  0
   -1.1084   10.0983   -4.5247 H   0  0  0  0  0  0  0  0  0  0  0  0
   -0.0269   10.2416   -1.9274 H   0  0  0  0  0  0  0  0  0  0  0  0
   -0.4012   10.8401    0.8154 H   0  0  0  0  0  0  0  0  0  0  0  0
   -0.9723   10.7376    3.2649 H   0  0  0  0  0  0  0  0  0  0  0  0
   -3.0895   11.7637    4.2564 H   0  0  0  0  0  0  0  0  0  0  0  0
   -4.7919   12.8813    2.6326 H   0  0  0  0  0  0  0  0  0  0  0  0
   -4.5670   12.2010    0.6398 H   0  0  0  0  0  0  0  0  0  0  0  0
   -6.9984    6.8077   -2.7231 H   0  0  0  0  0  0  0  0  0  0  0  0
   -5.6292    6.1210   -2.6623 H   0  0  0  0  0  0  0  0  0  0  0  0
   -6.2088    7.1528   -1.1359 H   0  0  0  0  0  0  0  0  0  0  0  0
   -7.5395    9.4854   -2.8648 H   0  0  0  0  0  0  0  0  0  0  0  0
   -7.8161    8.0667   -2.3814 H   0  0  0  0  0  0  0  0  0  0  0  0
   -7.3024    8.9402   -1.3615 H   0  0  0  0  0  0  0  0  0  0  0  0
    0.1429    7.8974   -2.7163 H   0  0  0  0  0  0  0  0  0  0  0  0
   -3.6604    5.6885   -5.4291 H   0  0  0  0  0  0  0  0  0  0  0  0
   -4.4656    7.4287   -4.7003 H   0  0  0  0  0  0  0  0  0  0  0  0
   -5.8431    6.8492   -6.8256 H   0  0  0  0  0  0  0  0  0  0  0  0
   -6.1656    8.3022   -9.2080 H   0  0  0  0  0  0  0  0  0  0  0  0
   -4.5697   10.5336   -8.8791 H   0  0  0  0  0  0  0  0  0  0  0  0
   -1.6307    9.3140   -5.7323 H   0  0  0  0  0  0  0  0  0  0  0  0
   -2.3957    9.4455   -0.5589 H   0  0  0  0  0  0  0  0  0  0  0  0
   -2.9826    9.9828    0.8977 H   0  0  0  0  0  0  0  0  0  0  0  0
   -3.3047    8.6816    0.0580 H   0  0  0  0  0  0  0  0  0  0  0  0
   -4.0790   13.5896   -2.6402 H   0  0  0  0  0  0  0  0  0  0  0  0
   -3.1831   13.6420   -1.4777 H   0  0  0  0  0  0  0  0  0  0  0  0
   -3.2743   12.7464   -2.9625 H   0  0  0  0  0  0  0  0  0  0  0  0
   -6.4411   10.5258   -0.0201 H   0  0  0  0  0  0  0  0  0  0  0  0
   -5.2205    9.6900    0.6345 H   0  0  0  0  0  0  0  0  0  0  0  0
   -5.8706   11.4144    0.7506 H   0  0  0  0  0  0  0  0  0  0  0  0
   -2.1562    8.0115   -5.8999 H   0  0  0  0  0  0  0  0  0  0  0  0
   -3.0864   11.8177   -5.0767 H   0  0  0  0  0  0  0  0  0  0  0  0
   -2.9828   10.7212   -6.3286 H   0  0  0  0  0  0  0  0  0  0  0  0
   -4.4579   11.5701   -6.0518 H   0  0  0  0  0  0  0  0  0  0  0  0
   -5.7585    9.5353   -6.1205 H   0  0  0  0  0  0  0  0  0  0  0  0
   -6.6057   13.9148   -4.1788 H   0  0  0  0  0  0  0  0  0  0  0  0
   -4.8923   13.7035   -4.9178 H   0  0  0  0  0  0  0  0  0  0  0  0
   -6.2007   12.7170   -5.2216 H   0  0  0  0  0  0  0  0  0  0  0  0
   -0.5889   13.6289    2.4940 H   0  0  0  0  0  0  0  0  0  0  0  0
   -0.0164   12.0939    3.1619 H   0  0  0  0  0  0  0  0  0  0  0  0
    0.7943   13.3035    3.5212 H   0  0  0  0  0  0  0  0  0  0  0  0
  1  2  1  0  0  0  0
  1 62  1  0  0  0  0
  1 63  1  0  0  0  0
  1 64  1  0  0  0  0
  2  3  1  0  0  0  0
  2 65  1  0  0  0  0
  2 66  1  0  0  0  0
  3  4  2  0  0  0  0
  3  5  1  0  0  0  0
  6  7  1  0  0  0  0
  6 13  1  0  0  0  0
  6  5  1  0  0  0  0
  6 67  1  6  0  0  0
  7  8  1  0  0  0  0
  7 68  1  0  0  0  0
  7 69  1  0  0  0  0
  8  9  1  0  0  0  0
  8 11  1  0  0  0  0
  8 70  1  6  0  0  0
  9 10  1  0  0  0  0
  9 58  1  6  0  0  0
 10 11  1  0  0  0  0
 10 71  1  0  0  0  0
 10 72  1  0  0  0  0
 12  9  1  0  0  0  0
 12 13  1  0  0  0  0
 12 22  1  0  0  0  0
 12 73  1  6  0  0  0
 13 14  1  0  0  0  0
 13 57  1  1  0  0  0
 14 16  1  0  0  0  0
 14 15  2  0  0  0  0
 16 17  1  0  0  0  0
 16 56  1  0  0  0  0
 16 74  1  6  0  0  0
 17 18  2  0  0  0  0
 17 32  1  0  0  0  0
 18 19  1  0  0  0  0
 18 55  1  0  0  0  0
 19 20  1  0  0  0  0
 19 36  1  0  0  0  0
 19 75  1  1  0  0  0
 20 21  1  0  0  0  0
 20 76  1  0  0  0  0
 20 77  1  0  0  0  0
 21 22  1  0  0  0  0
 21 32  1  0  0  0  0
 21 35  1  1  0  0  0
 22 78  1  1  0  0  0
 22 23  1  0  0  0  0
 23 24  1  0  0  0  0
 24 25  2  0  0  0  0
 24 26  1  0  0  0  0
 26 27  2  0  0  0  0
 26 31  1  0  0  0  0
 27 28  1  0  0  0  0
 27 79  1  0  0  0  0
 28 29  2  0  0  0  0
 28 80  1  0  0  0  0
 29 30  1  0  0  0  0
 29 81  1  0  0  0  0
 30 31  2  0  0  0  0
 30 82  1  0  0  0  0
 31 83  1  0  0  0  0
 32 33  1  0  0  0  0
 32 34  1  0  0  0  0
 33 84  1  0  0  0  0
 33 85  1  0  0  0  0
 33 86  1  0  0  0  0
 34 87  1  0  0  0  0
 34 88  1  0  0  0  0
 34 89  1  0  0  0  0
 35 90  1  0  0  0  0
 36 37  1  0  0  0  0
 37 38  2  0  0  0  0
 37 39  1  0  0  0  0
 39 54  1  0  0  0  0
 39 91  1  6  0  0  0
 40 46  1  0  0  0  0
 40 92  1  1  0  0  0
 40 41  1  0  0  0  0
 40 39  1  0  0  0  0
 41 42  2  0  0  0  0
 41 45  1  0  0  0  0
 42 43  1  0  0  0  0
 42 93  1  0  0  0  0
 43 44  2  0  0  0  0
 43 94  1  0  0  0  0
 44 45  1  0  0  0  0
 44 95  1  0  0  0  0
 46 47  1  0  0  0  0
 46 96  1  0  0  0  0
 47 48  2  0  0  0  0
 47 49  1  0  0  0  0
 49 50  1  0  0  0  0
 50 51  1  0  0  0  0
 50 52  1  0  0  0  0
 50 53  1  0  0  0  0
 51 97  1  0  0  0  0
 51 98  1  0  0  0  0
 51 99  1  0  0  0  0
 52100  1  0  0  0  0
 52101  1  0  0  0  0
 52102  1  0  0  0  0
 53103  1  0  0  0  0
 53104  1  0  0  0  0
 53105  1  0  0  0  0
 54106  1  0  0  0  0
 55107  1  0  0  0  0
 55108  1  0  0  0  0
 55109  1  0  0  0  0
 56110  1  0  0  0  0
 57111  1  0  0  0  0
 57112  1  0  0  0  0
 57113  1  0  0  0  0
 58 59  1  0  0  0  0
 59 60  2  0  0  0  0
 59 61  1  0  0  0  0
 61114  1  0  0  0  0
 61115  1  0  0  0  0
 61116  1  0  0  0  0
M  END
>  <DRUGBANK_ID>
DB12334

>  <SECONDARY_ACCESSION_NUMBERS>
DB05523

>  <COMMON_NAME>
Milataxel

>  <CAS_NUMBER>
352425-37-7

>  <UNII>
J41Q4S20GS

>  <SYNONYMS>
Milataxel

$$$$
