
 OpenBabel10282417173D

 54 54  0  0  0  0  0  0  0  0999 V2000
    1.2055    1.3644   -0.0605 C   0  0  0  0  0  0  0  0  0  0  0  0
   -0.0928    1.7374   -0.0476 C   0  0  0  0  0  0  0  0  0  0  0  0
    1.5628   -0.0803    0.0176 C   0  0  0  0  0  0  0  0  0  0  0  0
    2.1654    2.3541   -0.1342 O   0  0  0  0  0  0  0  0  0  0  0  0
   -1.1564    0.7298   -0.0060 C   0  0  0  0  0  0  0  0  0  0  0  0
   -0.5976    3.0209   -0.0771 O   0  0  0  0  0  0  0  0  0  0  0  0
    0.4762   -1.1102   -0.0534 C   0  0  0  0  0  0  0  0  0  0  0  0
    2.7443   -0.4395    0.1026 O   0  0  0  0  0  0  0  0  0  0  0  0
    3.5464    2.0670   -0.1733 C   0  0  0  0  0  0  0  0  0  0  0  0
   -0.8189   -0.6984   -0.1590 C   0  0  0  0  0  0  0  0  0  0  0  0
   -2.3347    1.0848    0.1353 O   0  0  0  0  0  0  0  0  0  0  0  0
    0.2986    4.1093   -0.1130 C   0  0  0  0  0  0  0  0  0  0  0  0
    1.0452   -2.5370   -0.0087 C   0  0  0  0  0  0  0  0  0  0  0  0
   -2.1054   -1.4621   -0.4016 C   0  0  0  0  0  0  0  0  0  0  0  0
    0.6682   -3.3256    1.2596 C   0  0  0  0  0  0  0  0  0  0  0  0
   -0.8314   -3.4528    1.3702 C   0  0  0  0  0  0  0  0  0  0  0  0
   -1.3858   -4.1144    0.0734 C   0  0  0  0  0  0  0  0  0  0  0  0
   -1.0226   -5.5737    0.0125 C   0  0  0  0  0  0  0  0  0  0  0  0
   -1.6551   -6.2411    1.2216 C   0  0  0  0  0  0  0  0  0  0  0  0
   -3.1867   -6.0891    1.1837 C   0  0  0  0  0  0  0  0  0  0  0  0
   -3.7585   -6.7462   -0.0774 C   0  0  0  0  0  0  0  0  0  0  0  0
   -3.3533   -8.2227   -0.1340 C   0  0  0  0  0  0  0  0  0  0  0  0
   -3.8407   -8.9725    1.1016 C   0  0  0  0  0  0  0  0  0  0  0  0
   -5.2590   -8.9281    1.1685 O   0  0  0  0  0  0  0  0  0  0  0  0
    3.8699    1.5934    0.7560 H   0  0  0  0  0  0  0  0  0  0  0  0
    3.8013    1.4831   -1.0609 H   0  0  0  0  0  0  0  0  0  0  0  0
    4.0607    3.0298   -0.2487 H   0  0  0  0  0  0  0  0  0  0  0  0
    0.9261    4.1133    0.7838 H   0  0  0  0  0  0  0  0  0  0  0  0
    0.8835    4.0824   -1.0375 H   0  0  0  0  0  0  0  0  0  0  0  0
   -0.2831    5.0304   -0.1154 H   0  0  0  0  0  0  0  0  0  0  0  0
    0.7810   -3.0585   -0.9329 H   0  0  0  0  0  0  0  0  0  0  0  0
    2.1409   -2.5658   -0.0454 H   0  0  0  0  0  0  0  0  0  0  0  0
   -2.0270   -2.0556   -1.3110 H   0  0  0  0  0  0  0  0  0  0  0  0
   -2.4532   -2.0281    0.4571 H   0  0  0  0  0  0  0  0  0  0  0  0
   -3.0037   -0.8605   -0.5414 H   0  0  0  0  0  0  0  0  0  0  0  0
    1.1205   -4.3232    1.2514 H   0  0  0  0  0  0  0  0  0  0  0  0
    1.0516   -2.8215    2.1531 H   0  0  0  0  0  0  0  0  0  0  0  0
   -1.1694   -3.9588    2.2743 H   0  0  0  0  0  0  0  0  0  0  0  0
   -1.1734   -2.4492    1.6200 H   0  0  0  0  0  0  0  0  0  0  0  0
   -2.4694   -3.9915   -0.0258 H   0  0  0  0  0  0  0  0  0  0  0  0
   -1.0071   -3.6905   -0.8564 H   0  0  0  0  0  0  0  0  0  0  0  0
   -1.3727   -5.9925   -0.9381 H   0  0  0  0  0  0  0  0  0  0  0  0
    0.0622   -5.6985   -0.0138 H   0  0  0  0  0  0  0  0  0  0  0  0
   -1.3286   -7.2788    1.2659 H   0  0  0  0  0  0  0  0  0  0  0  0
   -1.2752   -5.8243    2.1553 H   0  0  0  0  0  0  0  0  0  0  0  0
   -3.6103   -6.5147    2.0958 H   0  0  0  0  0  0  0  0  0  0  0  0
   -3.5169   -5.0443    1.2290 H   0  0  0  0  0  0  0  0  0  0  0  0
   -4.8459   -6.6302   -0.0979 H   0  0  0  0  0  0  0  0  0  0  0  0
   -3.4176   -6.2342   -0.9857 H   0  0  0  0  0  0  0  0  0  0  0  0
   -3.7625   -8.6697   -1.0432 H   0  0  0  0  0  0  0  0  0  0  0  0
   -2.2642   -8.3243   -0.2182 H   0  0  0  0  0  0  0  0  0  0  0  0
   -3.5231  -10.0151    1.0653 H   0  0  0  0  0  0  0  0  0  0  0  0
   -3.4356   -8.5589    2.0318 H   0  0  0  0  0  0  0  0  0  0  0  0
   -5.5288   -7.9949    1.2237 H   0  0  0  0  0  0  0  0  0  0  0  0
  1  2  2  0  0  0  0
  1  3  1  0  0  0  0
  1  4  1  0  0  0  0
  2  5  1  0  0  0  0
  2  6  1  0  0  0  0
  3  7  1  0  0  0  0
  3  8  2  0  0  0  0
  4  9  1  0  0  0  0
  5 10  1  0  0  0  0
  5 11  2  0  0  0  0
  6 12  1  0  0  0  0
  7 13  1  0  0  0  0
  7 10  2  0  0  0  0
  9 25  1  0  0  0  0
  9 26  1  0  0  0  0
  9 27  1  0  0  0  0
 10 14  1  0  0  0  0
 12 28  1  0  0  0  0
 12 29  1  0  0  0  0
 12 30  1  0  0  0  0
 13 15  1  0  0  0  0
 13 31  1  0  0  0  0
 13 32  1  0  0  0  0
 14 33  1  0  0  0  0
 14 34  1  0  0  0  0
 14 35  1  0  0  0  0
 15 16  1  0  0  0  0
 15 36  1  0  0  0  0
 15 37  1  0  0  0  0
 16 17  1  0  0  0  0
 16 38  1  0  0  0  0
 16 39  1  0  0  0  0
 17 18  1  0  0  0  0
 17 40  1  0  0  0  0
 17 41  1  0  0  0  0
 18 19  1  0  0  0  0
 18 42  1  0  0  0  0
 18 43  1  0  0  0  0
 19 20  1  0  0  0  0
 19 44  1  0  0  0  0
 19 45  1  0  0  0  0
 20 21  1  0  0  0  0
 20 46  1  0  0  0  0
 20 47  1  0  0  0  0
 21 22  1  0  0  0  0
 21 48  1  0  0  0  0
 21 49  1  0  0  0  0
 22 23  1  0  0  0  0
 22 50  1  0  0  0  0
 22 51  1  0  0  0  0
 23 24  1  0  0  0  0
 23 52  1  0  0  0  0
 23 53  1  0  0  0  0
 24 54  1  0  0  0  0
M  END
>  <DRUGBANK_ID>
DB09081

>  <COMMON_NAME>
Idebenone

>  <CAS_NUMBER>
58186-27-9

>  <UNII>
HB6PN45W4J

>  <SYNONYMS>
2-(10-hydroxydecyl)-5,6-dimethoxy-3-methyl-1,4-benzoquinone; 2-(10-hydroxydecyl)-5,6-dimethoxy-3-methyl-p-benzoquinone; 2-(10-hydroxydecyl)-5,6-dimethoxy-3-methylcyclohexa-2,5-diene-1,4-dione; 2,3-dimethoxy-5-methyl-6-(10'-hydroxydecyl)-1,4-benzoquinone; 6-(10-hydroxydecyl)-2,3-dimethoxy-5-methyl-1,4-benzoquinone; 6-(10-hydroxydecyl)-2,3-dimethoxy-5-methyl-p-benzoquinone; idebenona; Idebenone; idébénone

$$$$
