
 OpenBabel10282417133D

 60 64  0  0  1  0  0  0  0  0999 V2000
   -3.7236    5.5302   -2.5938 C   0  0  0  0  0  0  0  0  0  0  0  0
   -2.3068    5.0069   -2.4593 C   0  0  0  0  0  0  0  0  0  0  0  0
   -4.5698    4.2603   -2.4948 C   0  0  0  0  0  0  0  0  0  0  0  0
   -2.4158    3.8403   -1.4888 C   0  0  0  0  0  0  0  0  0  0  0  0
   -1.9906    4.3636    2.0407 C   0  0  0  0  0  0  0  0  0  0  0  0
   -1.4357    3.9825    4.3423 C   0  0  0  0  0  0  0  0  0  0  0  0
   -3.8616   -3.4774    1.6465 C   0  0  0  0  0  0  0  0  0  0  0  0
   -1.9434   -3.0227    0.2650 C   0  0  0  0  0  0  0  0  0  0  0  0
   -0.6426    4.3383    1.6883 C   0  0  0  0  0  0  0  0  0  0  0  0
   -0.0809    4.0059    4.0035 C   0  0  0  0  0  0  0  0  0  0  0  0
   -3.5262   -4.8424    1.6853 C   0  0  0  0  0  0  0  0  0  0  0  0
   -1.6053   -4.3831    0.3049 C   0  0  0  0  0  0  0  0  0  0  0  0
   -4.1631    1.9182   -1.3623 C   0  0  0  0  0  0  0  0  0  0  0  0
   -3.8799    4.0279    3.6649 C   0  0  0  0  0  0  0  0  0  0  0  0
   -3.3597   -0.5063    2.1643 C   0  0  0  0  0  0  0  0  0  0  0  0
   -3.8973    3.4567   -1.3753 C   0  0  0  0  0  0  0  0  0  0  0  0
   -2.4061    4.1420    3.3535 C   0  0  0  0  0  0  0  0  0  0  0  0
   -3.0890   -2.5487    0.9146 C   0  0  0  0  0  0  0  0  0  0  0  0
    0.3059    4.1711    2.6802 C   0  0  0  0  0  0  0  0  0  0  0  0
   -2.4042   -5.2857    0.9972 C   0  0  0  0  0  0  0  0  0  0  0  0
   -3.4942    1.1514   -0.1784 C   0  0  1  0  0  0  0  0  0  0  0  0
   -3.3756   -1.0923    0.9541 C   0  0  0  0  0  0  0  0  0  0  0  0
   -3.9212    1.6413    1.2349 C   0  0  0  0  0  0  0  0  0  0  0  0
   -3.9049    1.4885    3.4474 C   0  0  0  0  0  0  0  0  0  0  0  0
   -4.5851    2.8042    3.0263 C   0  0  2  0  0  0  0  0  0  0  0  0
   -3.6568   -0.3389   -0.1962 N   0  0  0  0  0  0  0  0  0  0  0  0
   -4.4121    2.8060    1.5291 N   0  0  0  0  0  0  0  0  0  0  0  0
   -3.6880    0.8151    2.2824 N   0  0  0  0  0  0  0  0  0  0  0  0
    1.6368    4.1761    2.3907 O   0  0  0  0  0  0  0  0  0  0  0  0
   -2.0364   -6.5991    0.9709 O   0  0  0  0  0  0  0  0  0  0  0  0
   -3.6196    1.1145    4.5836 O   0  0  0  0  0  0  0  0  0  0  0  0
   -6.0939    2.7051    4.8183 O   0  0  0  0  0  0  0  0  0  0  0  0
   -5.9795    2.8179    3.3723 O   0  0  0  0  0  0  0  0  0  0  0  0
   -2.4137    1.3295   -0.2697 H   0  0  0  0  0  0  0  0  0  0  0  0
   -3.9521    6.2249   -1.7741 H   0  0  0  0  0  0  0  0  0  0  0  0
   -3.8707    6.0632   -3.5372 H   0  0  0  0  0  0  0  0  0  0  0  0
   -1.9410    4.6409   -3.4234 H   0  0  0  0  0  0  0  0  0  0  0  0
   -1.6095    5.7748   -2.1048 H   0  0  0  0  0  0  0  0  0  0  0  0
   -5.6117    4.5015   -2.2591 H   0  0  0  0  0  0  0  0  0  0  0  0
   -4.5399    3.7156   -3.4420 H   0  0  0  0  0  0  0  0  0  0  0  0
   -1.7610    3.0150   -1.7749 H   0  0  0  0  0  0  0  0  0  0  0  0
   -2.0695    4.1936   -0.5303 H   0  0  0  0  0  0  0  0  0  0  0  0
   -2.7517    4.5298    1.2860 H   0  0  0  0  0  0  0  0  0  0  0  0
   -1.7253    3.8273    5.3785 H   0  0  0  0  0  0  0  0  0  0  0  0
   -4.7264   -3.1414    2.2169 H   0  0  0  0  0  0  0  0  0  0  0  0
   -1.2803   -2.3306   -0.2462 H   0  0  0  0  0  0  0  0  0  0  0  0
   -0.3511    4.4477    0.6499 H   0  0  0  0  0  0  0  0  0  0  0  0
    0.6734    3.8832    4.7727 H   0  0  0  0  0  0  0  0  0  0  0  0
   -4.1413   -5.5297    2.2601 H   0  0  0  0  0  0  0  0  0  0  0  0
   -0.7100   -4.7386   -0.1976 H   0  0  0  0  0  0  0  0  0  0  0  0
   -5.2452    1.7427   -1.3585 H   0  0  0  0  0  0  0  0  0  0  0  0
   -3.7919    1.5140   -2.3154 H   0  0  0  0  0  0  0  0  0  0  0  0
   -4.3821    4.9548    3.3545 H   0  0  0  0  0  0  0  0  0  0  0  0
   -4.0033    3.9982    4.7557 H   0  0  0  0  0  0  0  0  0  0  0  0
   -3.1816   -1.0444    3.0913 H   0  0  0  0  0  0  0  0  0  0  0  0
   -4.2952    3.8924   -0.4553 H   0  0  0  0  0  0  0  0  0  0  0  0
   -3.7603   -0.8390   -1.0740 H   0  0  0  0  0  0  0  0  0  0  0  0
    1.7473    4.3415    1.4400 H   0  0  0  0  0  0  0  0  0  0  0  0
   -2.6921   -7.1317    1.4500 H   0  0  0  0  0  0  0  0  0  0  0  0
   -7.0650    2.7739    4.8537 H   0  0  0  0  0  0  0  0  0  0  0  0
  1 35  1  0  0  0  0
  1 36  1  0  0  0  0
  2  1  1  0  0  0  0
  2 37  1  0  0  0  0
  2 38  1  0  0  0  0
  3  1  1  0  0  0  0
  3 39  1  0  0  0  0
  3 40  1  0  0  0  0
  4  2  1  0  0  0  0
  4 41  1  0  0  0  0
  4 42  1  0  0  0  0
  5 43  1  0  0  0  0
  6 44  1  0  0  0  0
  7 45  1  0  0  0  0
  8 46  1  0  0  0  0
  9  5  1  0  0  0  0
  9 47  1  0  0  0  0
 10  6  2  0  0  0  0
 10 48  1  0  0  0  0
 11  7  1  0  0  0  0
 11 49  1  0  0  0  0
 12  8  2  0  0  0  0
 12 50  1  0  0  0  0
 13 51  1  0  0  0  0
 13 52  1  0  0  0  0
 14 53  1  0  0  0  0
 14 54  1  0  0  0  0
 15 55  1  0  0  0  0
 16  3  1  0  0  0  0
 16  4  1  0  0  0  0
 16 13  1  0  0  0  0
 16 56  1  0  0  0  0
 17  5  2  0  0  0  0
 17  6  1  0  0  0  0
 17 14  1  0  0  0  0
 18  7  2  0  0  0  0
 18  8  1  0  0  0  0
 19  9  2  0  0  0  0
 19 10  1  0  0  0  0
 20 11  2  0  0  0  0
 20 12  1  0  0  0  0
 21 34  1  6  0  0  0
 21 13  1  0  0  0  0
 22 15  2  0  0  0  0
 22 18  1  0  0  0  0
 23 21  1  0  0  0  0
 25 24  1  0  0  0  0
 25 33  1  1  0  0  0
 25 14  1  0  0  0  0
 26 21  1  0  0  0  0
 26 22  1  0  0  0  0
 26 57  1  0  0  0  0
 27 23  2  0  0  0  0
 27 25  1  0  0  0  0
 28 15  1  0  0  0  0
 28 23  1  0  0  0  0
 28 24  1  0  0  0  0
 29 19  1  0  0  0  0
 29 58  1  0  0  0  0
 30 20  1  0  0  0  0
 30 59  1  0  0  0  0
 31 24  2  0  0  0  0
 32 60  1  0  0  0  0
 33 32  1  0  0  0  0
M  END
>  <DRUGBANK_ID>
DB03960

>  <SECONDARY_ACCESSION_NUMBERS>
EXPT01088

>  <COMMON_NAME>
Cp-Coeleneterazine

$$$$
