
 OpenBabel10282417193D

 80 83  0  0  0  0  0  0  0  0999 V2000
    5.0830   -7.0277    5.0262 C   0  0  0  0  0  0  0  0  0  0  0  0
    5.5403   -6.9826    3.7025 C   0  0  0  0  0  0  0  0  0  0  0  0
    6.8348   -6.5280    3.4607 C   0  0  0  0  0  0  0  0  0  0  0  0
    7.7626   -6.2887    4.4526 C   0  0  0  0  0  0  0  0  0  0  0  0
    7.3139   -6.4645    5.7746 C   0  0  0  0  0  0  0  0  0  0  0  0
    5.9796   -6.8053    6.0780 C   0  0  0  0  0  0  0  0  0  0  0  0
    4.6562   -7.0975    2.5031 C   0  0  0  0  0  0  0  0  0  0  0  0
    5.3024   -7.4266    1.2217 N   0  0  0  0  0  0  0  0  0  0  0  0
    4.3511   -7.4085    0.1078 C   0  0  0  0  0  0  0  0  0  0  0  0
    3.6607   -6.0406   -0.2010 C   0  0  0  0  0  0  0  0  0  0  0  0
    4.7221   -4.9701   -0.5164 C   0  0  0  0  0  0  0  0  0  0  0  0
    2.7581   -6.2396   -1.4274 C   0  0  0  0  0  0  0  0  0  0  0  0
    2.7120   -5.5287    0.9050 C   0  0  0  0  0  0  0  0  0  0  0  0
    5.6431   -7.0911    7.5187 C   0  0  0  0  0  0  0  0  0  0  0  0
    8.2554   -6.4179    6.9185 C   0  0  0  0  0  0  0  0  0  0  0  0
    7.6704   -5.7256    8.1614 C   0  0  2  0  0  0  0  0  0  0  0  0
    6.3460   -6.2387    8.6270 C   0  0  0  0  0  0  0  0  0  0  0  0
    5.9741   -6.1868    9.9502 C   0  0  0  0  0  0  0  0  0  0  0  0
    8.6828   -6.0629    9.2275 C   0  0  0  0  0  0  0  0  0  0  0  0
    8.3447   -5.6832   10.6517 C   0  0  2  0  0  0  0  0  0  0  0  0
    6.9570   -5.8112   11.2628 C   0  0  1  0  0  0  0  0  0  0  0  0
    7.3967   -4.6206   12.6316 C   0  0  0  0  0  0  0  0  0  0  0  0
    9.4397   -6.1952   11.6231 C   0  0  1  0  0  0  0  0  0  0  0  0
    9.1494   -5.8268   13.0933 C   0  0  0  0  0  0  0  0  0  0  0  0
    8.9353   -4.5188   13.2003 C   0  0  0  0  0  0  0  0  0  0  0  0
   10.2074   -3.7218   12.7371 C   0  0  0  0  0  0  0  0  0  0  0  0
   10.3362   -3.2758   11.6438 O   0  0  0  0  0  0  0  0  0  0  0  0
   11.2981   -3.6096   13.6284 N   0  0  0  0  0  0  0  0  0  0  0  0
    8.3183   -6.7416   13.7903 O   0  0  0  0  0  0  0  0  0  0  0  0
    6.5921   -4.3242   13.5349 O   0  0  0  0  0  0  0  0  0  0  0  0
    9.8428   -7.5691   11.7318 N   0  0  0  0  0  0  0  0  0  0  0  0
   11.2804   -7.6111   11.8432 C   0  0  0  0  0  0  0  0  0  0  0  0
    9.2196   -8.5927   10.9507 C   0  0  0  0  0  0  0  0  0  0  0  0
    6.6470   -7.0305   12.0016 O   0  0  0  0  0  0  0  0  0  0  0  0
    4.8971   -7.0693   10.2221 O   0  0  0  0  0  0  0  0  0  0  0  0
    5.0305   -8.1312    7.7523 O   0  0  0  0  0  0  0  0  0  0  0  0
    3.7402   -7.1129    5.2802 O   0  0  0  0  0  0  0  0  0  0  0  0
    9.0862   -5.9429    4.1038 N   0  0  0  0  0  0  0  0  0  0  0  0
    9.2795   -5.4235    2.7363 C   0  0  0  0  0  0  0  0  0  0  0  0
   10.0414   -6.9961    4.4743 C   0  0  0  0  0  0  0  0  0  0  0  0
    8.4027   -4.5819   10.5523 H   0  0  0  0  0  0  0  0  0  0  0  0
    7.5717   -4.6524    7.9617 H   0  0  0  0  0  0  0  0  0  0  0  0
    7.1176   -6.3430    2.4366 H   0  0  0  0  0  0  0  0  0  0  0  0
    3.8104   -7.7642    2.6788 H   0  0  0  0  0  0  0  0  0  0  0  0
    4.3512   -6.0701    2.4679 H   0  0  0  0  0  0  0  0  0  0  0  0
    6.0015   -6.7218    0.9982 H   0  0  0  0  0  0  0  0  0  0  0  0
    4.9214   -7.7156   -0.7837 H   0  0  0  0  0  0  0  0  0  0  0  0
    3.6137   -8.2032    0.2644 H   0  0  0  0  0  0  0  0  0  0  0  0
    5.3240   -5.2561   -1.3871 H   0  0  0  0  0  0  0  0  0  0  0  0
    4.2538   -4.0050   -0.7315 H   0  0  0  0  0  0  0  0  0  0  0  0
    5.4108   -4.8107    0.3212 H   0  0  0  0  0  0  0  0  0  0  0  0
    2.0033   -7.0082   -1.2230 H   0  0  0  0  0  0  0  0  0  0  0  0
    2.2284   -5.3100   -1.6636 H   0  0  0  0  0  0  0  0  0  0  0  0
    3.3270   -6.5401   -2.3107 H   0  0  0  0  0  0  0  0  0  0  0  0
    2.0955   -6.3478    1.2937 H   0  0  0  0  0  0  0  0  0  0  0  0
    3.2090   -5.0241    1.7318 H   0  0  0  0  0  0  0  0  0  0  0  0
    2.0538   -4.7395    0.5368 H   0  0  0  0  0  0  0  0  0  0  0  0
    9.1733   -5.8918    6.6504 H   0  0  0  0  0  0  0  0  0  0  0  0
    8.5311   -7.4656    7.1237 H   0  0  0  0  0  0  0  0  0  0  0  0
    9.6488   -5.6210    8.9524 H   0  0  0  0  0  0  0  0  0  0  0  0
    8.8167   -7.1323    9.1667 H   0  0  0  0  0  0  0  0  0  0  0  0
   10.3022   -5.6263   11.2499 H   0  0  0  0  0  0  0  0  0  0  0  0
   11.3659   -3.9004   14.5940 H   0  0  0  0  0  0  0  0  0  0  0  0
   12.1340   -3.1194   13.2950 H   0  0  0  0  0  0  0  0  0  0  0  0
    7.4386   -6.3505   14.0023 H   0  0  0  0  0  0  0  0  0  0  0  0
   11.6020   -8.5811   12.2053 H   0  0  0  0  0  0  0  0  0  0  0  0
   11.7298   -7.3614   10.8781 H   0  0  0  0  0  0  0  0  0  0  0  0
   11.6279   -6.8610   12.5718 H   0  0  0  0  0  0  0  0  0  0  0  0
    9.3525   -9.5592   11.4339 H   0  0  0  0  0  0  0  0  0  0  0  0
    8.1402   -8.4601   10.8625 H   0  0  0  0  0  0  0  0  0  0  0  0
    9.6454   -8.6477    9.9499 H   0  0  0  0  0  0  0  0  0  0  0  0
    6.3900   -7.7246   11.3562 H   0  0  0  0  0  0  0  0  0  0  0  0
    4.5909   -7.0633   11.1412 H   0  0  0  0  0  0  0  0  0  0  0  0
    3.4003   -7.9526    4.9281 H   0  0  0  0  0  0  0  0  0  0  0  0
   10.2977   -5.0543    2.5899 H   0  0  0  0  0  0  0  0  0  0  0  0
    9.1148   -6.2080    1.9841 H   0  0  0  0  0  0  0  0  0  0  0  0
    8.5984   -4.5862    2.5330 H   0  0  0  0  0  0  0  0  0  0  0  0
   10.7319   -6.6064    5.2284 H   0  0  0  0  0  0  0  0  0  0  0  0
    9.5538   -7.8900    4.8819 H   0  0  0  0  0  0  0  0  0  0  0  0
   10.6351   -7.3241    3.6156 H   0  0  0  0  0  0  0  0  0  0  0  0
  1  2  1  0  0  0  0
  1  6  2  0  0  0  0
  1 37  1  0  0  0  0
  2  3  2  0  0  0  0
  2  7  1  0  0  0  0
  3  4  1  0  0  0  0
  3 43  1  0  0  0  0
  4  5  2  0  0  0  0
  5 15  1  0  0  0  0
  6  5  1  0  0  0  0
  7  8  1  0  0  0  0
  7 44  1  0  0  0  0
  7 45  1  0  0  0  0
  8  9  1  0  0  0  0
  8 46  1  0  0  0  0
  9 10  1  0  0  0  0
  9 47  1  0  0  0  0
  9 48  1  0  0  0  0
 10 11  1  0  0  0  0
 10 12  1  0  0  0  0
 10 13  1  0  0  0  0
 11 49  1  0  0  0  0
 11 50  1  0  0  0  0
 11 51  1  0  0  0  0
 12 52  1  0  0  0  0
 12 53  1  0  0  0  0
 12 54  1  0  0  0  0
 13 55  1  0  0  0  0
 13 56  1  0  0  0  0
 13 57  1  0  0  0  0
 14  6  1  0  0  0  0
 14 17  1  0  0  0  0
 14 36  2  0  0  0  0
 15 16  1  0  0  0  0
 15 58  1  0  0  0  0
 15 59  1  0  0  0  0
 16 19  1  0  0  0  0
 16 42  1  1  0  0  0
 17 16  1  0  0  0  0
 18 17  2  0  0  0  0
 18 21  1  0  0  0  0
 18 35  1  0  0  0  0
 19 20  1  0  0  0  0
 19 60  1  0  0  0  0
 19 61  1  0  0  0  0
 20 23  1  0  0  0  0
 20 41  1  6  0  0  0
 21 20  1  0  0  0  0
 21 34  1  1  0  0  0
 22 21  1  0  0  0  0
 22 25  1  0  0  0  0
 22 30  2  0  0  0  0
 23 24  1  0  0  0  0
 23 62  1  6  0  0  0
 23 31  1  0  0  0  0
 24 25  2  0  0  0  0
 24 29  1  0  0  0  0
 25 26  1  0  0  0  0
 26 27  2  0  0  0  0
 26 28  1  0  0  0  0
 28 63  1  0  0  0  0
 28 64  1  0  0  0  0
 29 65  1  0  0  0  0
 31 32  1  0  0  0  0
 31 33  1  0  0  0  0
 32 66  1  0  0  0  0
 32 67  1  0  0  0  0
 32 68  1  0  0  0  0
 33 69  1  0  0  0  0
 33 70  1  0  0  0  0
 33 71  1  0  0  0  0
 34 72  1  0  0  0  0
 35 73  1  0  0  0  0
 37 74  1  0  0  0  0
 38 39  1  0  0  0  0
 38 40  1  0  0  0  0
 38  4  1  0  0  0  0
 39 75  1  0  0  0  0
 39 76  1  0  0  0  0
 39 77  1  0  0  0  0
 40 78  1  0  0  0  0
 40 79  1  0  0  0  0
 40 80  1  0  0  0  0
M  END
>  <DRUGBANK_ID>
DB12455

>  <COMMON_NAME>
Omadacycline

>  <CAS_NUMBER>
389139-89-3

>  <UNII>
090IP5RV8F

>  <SYNONYMS>
Amadacycline; Omadacycline

$$$$
