
 OpenBabel10282417203D

 54 56  0  0  0  0  0  0  0  0999 V2000
    0.1902    0.2194    0.1479 C   0  0  0  0  0  0  0  0  0  0  0  0
    0.1383    0.9003   -1.2036 N   0  3  0  0  0  0  0  0  0  0  0  0
   -1.3672    0.8282   -1.4593 C   0  0  0  0  0  0  0  0  0  0  0  0
   -1.8079    1.7679   -2.5438 C   0  0  0  0  0  0  0  0  0  0  0  0
   -1.3781    3.1822   -2.1980 C   0  0  0  0  0  0  0  0  0  0  0  0
    0.1336    3.2417   -2.1920 C   0  0  0  0  0  0  0  0  0  0  0  0
    0.6526    2.3647   -1.0704 C   0  0  0  0  0  0  0  0  0  0  0  0
    0.9766    0.1502   -2.3103 C   0  0  0  0  0  0  0  0  0  0  0  0
    2.5278    0.1092   -2.1078 C   0  0  0  0  0  0  0  0  0  0  0  0
    3.1226   -0.6530   -0.8552 C   0  0  0  0  0  0  0  0  0  0  0  0
    2.5480   -2.1414   -0.9350 C   0  0  0  0  0  0  0  0  0  0  0  0
    3.2870   -3.1708   -1.5168 C   0  0  0  0  0  0  0  0  0  0  0  0
    2.9954   -4.5190   -1.2737 C   0  0  0  0  0  0  0  0  0  0  0  0
    1.8082   -4.8876   -0.6619 C   0  0  0  0  0  0  0  0  0  0  0  0
    0.9028   -3.9033   -0.3551 C   0  0  0  0  0  0  0  0  0  0  0  0
    1.2579   -2.5752   -0.5817 C   0  0  0  0  0  0  0  0  0  0  0  0
    4.6764   -0.5577   -0.8200 C   0  0  0  0  0  0  0  0  0  0  0  0
    5.2813    0.7165   -0.8063 C   0  0  0  0  0  0  0  0  0  0  0  0
    6.6287    0.8612   -0.4931 C   0  0  0  0  0  0  0  0  0  0  0  0
    7.4190   -0.2617   -0.2718 C   0  0  0  0  0  0  0  0  0  0  0  0
    6.8498   -1.5203   -0.2651 C   0  0  0  0  0  0  0  0  0  0  0  0
    5.4913   -1.6483   -0.4780 C   0  0  0  0  0  0  0  0  0  0  0  0
    2.8742    0.1946    0.5357 C   0  0  0  0  0  0  0  0  0  0  0  0
    2.7228    1.3998    0.5793 O   0  0  0  0  0  0  0  0  0  0  0  0
    2.7194   -0.4913    1.7134 N   0  0  0  0  0  0  0  0  0  0  0  0
   -0.5878   -0.5363    0.2981 H   0  0  0  0  0  0  0  0  0  0  0  0
    0.2447    0.9147    0.9814 H   0  0  0  0  0  0  0  0  0  0  0  0
    1.0461   -0.3755    0.0866 H   0  0  0  0  0  0  0  0  0  0  0  0
   -1.8587    1.1032   -0.5125 H   0  0  0  0  0  0  0  0  0  0  0  0
   -1.6208   -0.2174   -1.6782 H   0  0  0  0  0  0  0  0  0  0  0  0
   -2.8958    1.7160   -2.6320 H   0  0  0  0  0  0  0  0  0  0  0  0
   -1.3803    1.4531   -3.5001 H   0  0  0  0  0  0  0  0  0  0  0  0
   -1.7885    3.8924   -2.9158 H   0  0  0  0  0  0  0  0  0  0  0  0
   -1.7520    3.4585   -1.2016 H   0  0  0  0  0  0  0  0  0  0  0  0
    0.5429    2.9147   -3.1556 H   0  0  0  0  0  0  0  0  0  0  0  0
    0.4754    4.2718   -2.0435 H   0  0  0  0  0  0  0  0  0  0  0  0
    1.7390    2.3846   -1.1169 H   0  0  0  0  0  0  0  0  0  0  0  0
    0.3326    2.7457   -0.0951 H   0  0  0  0  0  0  0  0  0  0  0  0
    0.5597   -0.8534   -2.4313 H   0  0  0  0  0  0  0  0  0  0  0  0
    0.7597    0.6552   -3.2613 H   0  0  0  0  0  0  0  0  0  0  0  0
    2.9406   -0.3787   -3.0086 H   0  0  0  0  0  0  0  0  0  0  0  0
    2.9124    1.1318   -2.1867 H   0  0  0  0  0  0  0  0  0  0  0  0
    4.1667   -2.9548   -2.1206 H   0  0  0  0  0  0  0  0  0  0  0  0
    3.7156   -5.2776   -1.5636 H   0  0  0  0  0  0  0  0  0  0  0  0
    1.5462   -5.9309   -0.5283 H   0  0  0  0  0  0  0  0  0  0  0  0
   -0.0938   -4.1435    0.0091 H   0  0  0  0  0  0  0  0  0  0  0  0
    0.3832   -1.9557   -0.6328 H   0  0  0  0  0  0  0  0  0  0  0  0
    4.6908    1.6286   -0.9058 H   0  0  0  0  0  0  0  0  0  0  0  0
    7.0501    1.8560   -0.3842 H   0  0  0  0  0  0  0  0  0  0  0  0
    8.4766   -0.1601   -0.0633 H   0  0  0  0  0  0  0  0  0  0  0  0
    7.4265   -2.4123   -0.0399 H   0  0  0  0  0  0  0  0  0  0  0  0
    5.1166   -2.6491   -0.3092 H   0  0  0  0  0  0  0  0  0  0  0  0
    3.2571   -1.3276    1.8818 H   0  0  0  0  0  0  0  0  0  0  0  0
    2.5244    0.0878    2.5266 H   0  0  0  0  0  0  0  0  0  0  0  0
  1  2  1  0  0  0  0
  1 26  1  0  0  0  0
  1 27  1  0  0  0  0
  1 28  1  0  0  0  0
  2  3  1  0  0  0  0
  2  7  1  0  0  0  0
  2  8  1  0  0  0  0
  3  4  1  0  0  0  0
  3 29  1  0  0  0  0
  3 30  1  0  0  0  0
  4  5  1  0  0  0  0
  4 31  1  0  0  0  0
  4 32  1  0  0  0  0
  5  6  1  0  0  0  0
  5 33  1  0  0  0  0
  5 34  1  0  0  0  0
  6  7  1  0  0  0  0
  6 35  1  0  0  0  0
  6 36  1  0  0  0  0
  7 37  1  0  0  0  0
  7 38  1  0  0  0  0
  8  9  1  0  0  0  0
  8 39  1  0  0  0  0
  8 40  1  0  0  0  0
  9 10  1  0  0  0  0
  9 41  1  0  0  0  0
  9 42  1  0  0  0  0
 10 11  1  0  0  0  0
 10 17  1  0  0  0  0
 10 23  1  0  0  0  0
 11 12  2  0  0  0  0
 11 16  1  0  0  0  0
 12 13  1  0  0  0  0
 12 43  1  0  0  0  0
 13 14  2  0  0  0  0
 13 44  1  0  0  0  0
 14 15  1  0  0  0  0
 14 45  1  0  0  0  0
 15 16  2  0  0  0  0
 15 46  1  0  0  0  0
 16 47  1  0  0  0  0
 17 18  2  0  0  0  0
 17 22  1  0  0  0  0
 18 19  1  0  0  0  0
 18 48  1  0  0  0  0
 19 20  2  0  0  0  0
 19 49  1  0  0  0  0
 20 21  1  0  0  0  0
 20 50  1  0  0  0  0
 21 22  2  0  0  0  0
 21 51  1  0  0  0  0
 22 52  1  0  0  0  0
 23 24  2  0  0  0  0
 23 25  1  0  0  0  0
 25 53  1  0  0  0  0
 25 54  1  0  0  0  0
M  CHG  1   2   1
M  END
>  <DRUGBANK_ID>
DB13759

>  <COMMON_NAME>
Fenpiverinium

>  <CAS_NUMBER>
258329-46-3

>  <UNII>
KP2L8LC73B

$$$$
