
 OpenBabel10282417103D

 57 60  0  0  0  0  0  0  0  0999 V2000
   -1.5255    0.3990   -0.7466 C   0  0  0  0  0  0  0  0  0  0  0  0
   -0.4080   -0.3184   -1.0671 C   0  0  0  0  0  0  0  0  0  0  0  0
   -1.3143   -1.4585   -0.8847 C   0  0  0  0  0  0  0  0  0  0  0  0
   -1.9483   -1.6811   -2.2605 C   0  0  0  0  0  0  0  0  0  0  0  0
   -3.0615   -0.9336   -2.4374 C   0  0  0  0  0  0  0  0  0  0  0  0
   -4.0890   -1.2571   -3.5344 C   0  0  0  0  0  0  0  0  0  0  0  0
   -3.2849   -0.0092   -1.2755 C   0  0  2  0  0  0  0  0  0  0  0  0
   -6.9105   -0.3606    0.5440 C   0  0  0  0  0  0  0  0  0  0  0  0
   -7.9683   -0.6720   -0.4733 C   0  0  1  0  0  0  0  0  0  0  0  0
   -8.2366   -1.0308   -1.7261 C   0  0  1  0  0  0  0  0  0  0  0  0
   -9.6829   -0.2613   -0.5298 C   0  0  0  0  0  0  0  0  0  0  0  0
   -9.1514   -1.9262    0.0469 C   0  0  1  0  0  0  0  0  0  0  0  0
   -8.2582    0.8277   -1.6100 C   0  0  0  0  0  0  0  0  0  0  0  0
   -3.4676    1.4698   -1.1713 C   0  0  0  0  0  0  0  0  0  0  0  0
   -8.4683   -2.0615   -2.0847 H   0  0  0  0  0  0  0  0  0  0  0  0
   -1.8185   -1.6784    0.2261 O   0  0  0  0  0  0  0  0  0  0  0  0
   -5.0105   -0.5976   -0.9405 C   0  0  1  0  0  0  0  0  0  0  0  0
   -6.3144   -0.8707   -2.1739 C   0  0  1  0  0  0  0  0  0  0  0  0
   -6.3105   -0.0506   -2.9032 H   0  0  0  0  0  0  0  0  0  0  0  0
   -5.4985   -1.9125   -3.0805 C   0  0  0  0  0  0  0  0  0  0  0  0
   -7.3842   -3.7162    0.2153 C   0  0  0  0  0  0  0  0  0  0  0  0
   -8.7039   -3.1862    0.7049 C   0  0  0  0  0  0  0  0  0  0  0  0
   -4.8786   -1.8844   -0.4362 F   0  0  0  0  0  0  0  0  0  0  0  0
   -5.6480    0.2457    0.1122 C   0  0  1  0  0  0  0  0  0  0  0  0
   -5.9138    1.6049   -0.2242 O   0  0  0  0  0  0  0  0  0  0  0  0
   -9.9707   -1.0344    0.8197 C   0  0  1  0  0  0  0  0  0  0  0  0
   -9.3961   -0.5549    2.1665 C   0  0  0  0  0  0  0  0  0  0  0  0
  -10.1405   -2.4889   -0.9868 O   0  0  0  0  0  0  0  0  0  0  0  0
   -9.4113   -3.7909    1.5119 O   0  0  0  0  0  0  0  0  0  0  0  0
   -7.3330   -4.0040   -1.1648 O   0  0  0  0  0  0  0  0  0  0  0  0
   -1.2505    0.7954    0.2507 H   0  0  0  0  0  0  0  0  0  0  0  0
    0.0766   -0.4175   -2.0500 H   0  0  0  0  0  0  0  0  0  0  0  0
   -1.2984   -1.6311   -3.1364 H   0  0  0  0  0  0  0  0  0  0  0  0
   -3.5988   -1.9782   -4.2070 H   0  0  0  0  0  0  0  0  0  0  0  0
   -4.2954   -0.3771   -4.1566 H   0  0  0  0  0  0  0  0  0  0  0  0
   -7.3312    0.4638    1.1068 H   0  0  0  0  0  0  0  0  0  0  0  0
   -6.7189   -1.1993    1.2135 H   0  0  0  0  0  0  0  0  0  0  0  0
  -10.6911    0.0654   -0.8960 H   0  0  0  0  0  0  0  0  0  0  0  0
   -9.4737    0.7366   -0.0241 H   0  0  0  0  0  0  0  0  0  0  0  0
   -7.4803    1.0618   -2.3240 H   0  0  0  0  0  0  0  0  0  0  0  0
   -9.1355    0.6635   -2.3285 H   0  0  0  0  0  0  0  0  0  0  0  0
   -8.4802    1.7420   -1.0693 H   0  0  0  0  0  0  0  0  0  0  0  0
   -4.2104    1.7820   -1.8799 H   0  0  0  0  0  0  0  0  0  0  0  0
   -3.7092    1.6247   -0.1027 H   0  0  0  0  0  0  0  0  0  0  0  0
   -2.5866    2.0970   -1.3070 H   0  0  0  0  0  0  0  0  0  0  0  0
   -5.2479   -2.8310   -2.5319 H   0  0  0  0  0  0  0  0  0  0  0  0
   -6.0363   -2.2347   -3.9845 H   0  0  0  0  0  0  0  0  0  0  0  0
   -6.6418   -2.9555    0.4126 H   0  0  0  0  0  0  0  0  0  0  0  0
   -7.1119   -4.5815    0.8104 H   0  0  0  0  0  0  0  0  0  0  0  0
   -5.0083    0.2541    0.9893 H   0  0  0  0  0  0  0  0  0  0  0  0
   -6.5486    1.6736   -0.9413 H   0  0  0  0  0  0  0  0  0  0  0  0
  -11.0084   -1.3488    0.9720 H   0  0  0  0  0  0  0  0  0  0  0  0
   -9.8594    0.3714    2.5129 H   0  0  0  0  0  0  0  0  0  0  0  0
   -9.4477   -1.3398    2.9268 H   0  0  0  0  0  0  0  0  0  0  0  0
   -8.3452   -0.3445    2.2154 H   0  0  0  0  0  0  0  0  0  0  0  0
  -10.7358   -1.7966   -1.3509 H   0  0  0  0  0  0  0  0  0  0  0  0
   -8.0868   -4.5833   -1.3719 H   0  0  0  0  0  0  0  0  0  0  0  0
  1  7  1  0  0  0  0
  1 31  1  0  0  0  0
  2  1  2  0  0  0  0
  2 32  1  0  0  0  0
  3  4  1  0  0  0  0
  3  2  1  0  0  0  0
  3 16  2  0  0  0  0
  4  5  2  0  0  0  0
  4 33  1  0  0  0  0
  5  7  1  0  0  0  0
  6 20  1  0  0  0  0
  6  5  1  0  0  0  0
  6 34  1  0  0  0  0
  6 35  1  0  0  0  0
  7 17  1  0  0  0  0
  7 14  1  6  0  0  0
  8  9  1  0  0  0  0
  8 36  1  0  0  0  0
  8 37  1  0  0  0  0
  9 13  1  1  0  0  0
 10  9  1  0  0  0  0
 10 15  1  1  0  0  0
 11 10  1  0  0  0  0
 11 38  1  0  0  0  0
 11 39  1  0  0  0  0
 12  9  1  0  0  0  0
 12 28  1  6  0  0  0
 12 22  1  0  0  0  0
 13 40  1  0  0  0  0
 13 41  1  0  0  0  0
 13 42  1  0  0  0  0
 14 43  1  0  0  0  0
 14 44  1  0  0  0  0
 14 45  1  0  0  0  0
 17 23  1  1  0  0  0
 18 10  1  0  0  0  0
 18 17  1  0  0  0  0
 18 19  1  6  0  0  0
 20 18  1  0  0  0  0
 20 46  1  0  0  0  0
 20 47  1  0  0  0  0
 21 30  1  0  0  0  0
 21 22  1  0  0  0  0
 21 48  1  0  0  0  0
 21 49  1  0  0  0  0
 22 29  2  0  0  0  0
 24 17  1  0  0  0  0
 24  8  1  0  0  0  0
 24 25  1  0  0  0  0
 24 50  1  1  0  0  0
 25 51  1  0  0  0  0
 26 12  1  0  0  0  0
 26 11  1  0  0  0  0
 26 52  1  1  0  0  0
 26 27  1  0  0  0  0
 27 53  1  0  0  0  0
 27 54  1  0  0  0  0
 27 55  1  0  0  0  0
 28 56  1  0  0  0  0
 30 57  1  0  0  0  0
M  END
>  <DRUGBANK_ID>
DB00443

>  <SECONDARY_ACCESSION_NUMBERS>
APRD00513

>  <COMMON_NAME>
Betamethasone

>  <CAS_NUMBER>
378-44-9

>  <UNII>
9842X06Q6M

>  <SYNONYMS>
16β-Methyl-1,4-pregnadiene-9α-fluoro-11β,17α,21-triol-3,20-dione; 9-Fluoro-16β-methylprednisolone; 9α-Fluoro-16β-methylprednisolone; beta-Methasone alcohol; Betadexamethasone; Betametasona; Betamethasone; Bétaméthasone; Betamethasonum

$$$$
