
 OpenBabel10282417233D

 47 50  0  0  1  0  0  0  0  0999 V2000
   -0.7995   -1.0889   -0.0432 N   0  0  0  0  0  0  0  0  0  0  0  0
   -1.3826    0.1141   -0.0787 N   0  0  0  0  0  0  0  0  0  0  0  0
   -0.3809    0.9190   -0.4514 C   0  0  0  0  0  0  0  0  0  0  0  0
    0.8247    0.1481   -0.4154 N   0  0  0  0  0  0  0  0  0  0  0  0
    0.5522   -1.0626   -0.0641 C   0  0  0  0  0  0  0  0  0  0  0  0
    1.5119   -2.1849    0.0335 C   0  0  0  0  0  0  0  0  0  0  0  0
    1.2758   -3.0306    1.2455 C   0  0  0  0  0  0  0  0  0  0  0  0
   -0.0075   -3.5409    1.4743 C   0  0  0  0  0  0  0  0  0  0  0  0
   -0.2639   -4.4599    2.4615 C   0  0  0  0  0  0  0  0  0  0  0  0
    0.7909   -4.9205    3.2211 C   0  0  0  0  0  0  0  0  0  0  0  0
    2.0838   -4.4416    2.9981 C   0  0  0  0  0  0  0  0  0  0  0  0
    2.3173   -3.4228    2.0795 C   0  0  0  0  0  0  0  0  0  0  0  0
   -0.5593    2.6804   -0.5330 C   0  0  0  0  0  0  0  0  0  0  0  0
   -1.7506    3.0594   -0.3029 O   0  0  0  0  0  0  0  0  0  0  0  0
    0.8899    3.8627   -0.4411 N   0  0  0  0  0  0  0  0  0  0  0  0
    2.7262    3.4139   -0.6853 C   0  0  2  0  0  0  0  0  0  0  0  0
    1.2355    3.1106   -1.0032 C   0  0  0  0  0  0  0  0  0  0  0  0
    0.8119    2.4674    0.7409 N   0  0  0  0  0  0  0  0  0  0  0  0
    0.5544    3.3451    1.9192 C   0  0  0  0  0  0  0  0  0  0  0  0
    1.5927    3.3798    2.8445 C   0  0  0  0  0  0  0  0  0  0  0  0
    2.9019    2.9457    2.5372 O   0  0  0  0  0  0  0  0  0  0  0  0
    3.6752    3.3016    1.0343 C   0  0  0  0  0  0  0  0  0  0  0  0
    1.1940    3.7283    4.1237 C   0  0  0  0  0  0  0  0  0  0  0  0
   -0.1110    4.2607    4.3740 C   0  0  0  0  0  0  0  0  0  0  0  0
   -1.0413    4.4662    3.3673 C   0  0  0  0  0  0  0  0  0  0  0  0
   -0.7299    3.9387    2.1461 C   0  0  0  0  0  0  0  0  0  0  0  0
    1.8963    1.7061    0.7114 C   0  0  0  0  0  0  0  0  0  0  0  0
    0.5393    3.3925   -2.1643 O   0  0  0  0  0  0  0  0  0  0  0  0
   -1.4168   -1.8740   -0.0607 H   0  0  0  0  0  0  0  0  0  0  0  0
    1.3922   -2.8002   -0.8656 H   0  0  0  0  0  0  0  0  0  0  0  0
    2.5592   -1.8338    0.0104 H   0  0  0  0  0  0  0  0  0  0  0  0
   -0.8549   -3.2608    0.8782 H   0  0  0  0  0  0  0  0  0  0  0  0
   -1.2742   -4.8354    2.5746 H   0  0  0  0  0  0  0  0  0  0  0  0
    0.6020   -5.6574    3.9904 H   0  0  0  0  0  0  0  0  0  0  0  0
    2.9155   -4.8960    3.5241 H   0  0  0  0  0  0  0  0  0  0  0  0
    3.3057   -2.9748    1.9998 H   0  0  0  0  0  0  0  0  0  0  0  0
    0.8580    4.7068    0.1167 H   0  0  0  0  0  0  0  0  0  0  0  0
    3.1317    2.3083   -1.0837 H   0  0  0  0  0  0  0  0  0  0  0  0
    4.4574    2.4694    1.0690 H   0  0  0  0  0  0  0  0  0  0  0  0
    4.0005    4.2755    1.2927 H   0  0  0  0  0  0  0  0  0  0  0  0
    1.8937    3.6160    4.9392 H   0  0  0  0  0  0  0  0  0  0  0  0
   -0.4189    4.5320    5.3755 H   0  0  0  0  0  0  0  0  0  0  0  0
   -2.0168    4.9381    3.4913 H   0  0  0  0  0  0  0  0  0  0  0  0
   -1.5724    3.9598    1.4626 H   0  0  0  0  0  0  0  0  0  0  0  0
    2.1741    2.6722    0.8560 H   0  0  0  0  0  0  0  0  0  0  0  0
    2.4031    1.0694    1.3574 H   0  0  0  0  0  0  0  0  0  0  0  0
    1.9704    1.4747   -0.3322 H   0  0  0  0  0  0  0  0  0  0  0  0
  1  2  1  0  0  0  0
  1  5  1  0  0  0  0
  1 29  1  0  0  0  0
  2  3  2  0  0  0  0
  3  4  1  0  0  0  0
  3 13  1  0  0  0  0
  4  5  2  0  0  0  0
  5  6  1  0  0  0  0
  6  7  1  0  0  0  0
  6 30  1  0  0  0  0
  6 31  1  0  0  0  0
  7  8  1  0  0  0  0
  7 12  2  0  0  0  0
  8  9  2  0  0  0  0
  8 32  1  0  0  0  0
  9 10  1  0  0  0  0
  9 33  1  0  0  0  0
 10 11  2  0  0  0  0
 10 34  1  0  0  0  0
 11 12  1  0  0  0  0
 11 35  1  0  0  0  0
 12 36  1  0  0  0  0
 13 14  2  0  0  0  0
 13 15  1  0  0  0  0
 15 37  1  0  0  0  0
 16 15  1  0  0  0  0
 16 22  1  0  0  0  0
 16 38  1  6  0  0  0
 17 16  1  0  0  0  0
 17 28  2  0  0  0  0
 18 17  1  0  0  0  0
 18 27  1  0  0  0  0
 19 18  1  0  0  0  0
 20 19  1  0  0  0  0
 21 20  1  0  0  0  0
 21 22  1  0  0  0  0
 22 39  1  0  0  0  0
 22 40  1  0  0  0  0
 23 20  2  0  0  0  0
 23 41  1  0  0  0  0
 24 23  1  0  0  0  0
 24 42  1  0  0  0  0
 25 24  2  0  0  0  0
 25 43  1  0  0  0  0
 26 25  1  0  0  0  0
 26 19  2  0  0  0  0
 26 44  1  0  0  0  0
 27 45  1  0  0  0  0
 27 46  1  0  0  0  0
 27 47  1  0  0  0  0
M  END
>  <DRUGBANK_ID>
DB16875

>  <COMMON_NAME>
GSK-2982772

>  <CAS_NUMBER>
1622848-92-3

>  <UNII>
T5W3M0VO9B

$$$$
