
 OpenBabel10282417123D

 17 18  0  0  0  0  0  0  0  0999 V2000
    0.9227    0.1746    0.0378 N   0  0  0  0  0  0  0  0  0  0  0  0
    0.2358    1.2229   -0.4965 C   0  0  0  0  0  0  0  0  0  0  0  0
    0.6447    1.9012   -1.5264 N   0  0  0  0  0  0  0  0  0  0  0  0
   -0.1331    2.9690   -1.8893 C   0  0  0  0  0  0  0  0  0  0  0  0
   -1.2130    3.3836   -1.2319 C   0  0  0  0  0  0  0  0  0  0  0  0
   -1.8069    4.5881   -1.8212 C   0  0  0  0  0  0  0  0  0  0  0  0
   -0.8005    4.6744   -2.9393 C   0  0  0  0  0  0  0  0  0  0  0  0
    0.1345    3.7688   -2.9711 N   0  0  0  0  0  0  0  0  0  0  0  0
   -1.6499    2.6504   -0.0732 C   0  0  0  0  0  0  0  0  0  0  0  0
   -2.5984    3.0187    0.6141 O   0  0  0  0  0  0  0  0  0  0  0  0
   -0.9093    1.5358    0.1853 N   0  0  0  0  0  0  0  0  0  0  0  0
    0.3946   -0.6776    0.1945 H   0  0  0  0  0  0  0  0  0  0  0  0
    1.8252   -0.0093   -0.3879 H   0  0  0  0  0  0  0  0  0  0  0  0
   -1.7505    5.4695   -1.1789 H   0  0  0  0  0  0  0  0  0  0  0  0
   -2.8150    4.4362   -2.2094 H   0  0  0  0  0  0  0  0  0  0  0  0
   -0.8881    5.4885   -3.6777 H   0  0  0  0  0  0  0  0  0  0  0  0
   -1.1307    1.0376    1.0305 H   0  0  0  0  0  0  0  0  0  0  0  0
  1  2  1  0  0  0  0
  1 12  1  0  0  0  0
  1 13  1  0  0  0  0
  2  3  2  0  0  0  0
  2 11  1  0  0  0  0
  3  4  1  0  0  0  0
  4  5  2  0  0  0  0
  4  8  1  0  0  0  0
  5  6  1  0  0  0  0
  5  9  1  0  0  0  0
  6  7  1  0  0  0  0
  6 14  1  0  0  0  0
  6 15  1  0  0  0  0
  7  8  2  0  0  0  0
  7 16  1  0  0  0  0
  9 10  2  0  0  0  0
  9 11  1  0  0  0  0
 11 17  1  0  0  0  0
M  END
>  <DRUGBANK_ID>
DB02245

>  <SECONDARY_ACCESSION_NUMBERS>
EXPT00310

>  <COMMON_NAME>
7-Deazaguanine

>  <CAS_NUMBER>
7355-55-7

>  <UNII>
GPL8T5ZO3M

$$$$
