
 OpenBabel10282417123D

 39 38  0  0  0  0  0  0  0  0999 V2000
    1.0368   -0.2555    0.0069 Br  0  0  0  0  0  0  0  0  0  0  0  0
    9.0453    7.4289    4.7996 O   0  0  0  0  0  0  0  0  0  0  0  0
    2.9743   -0.0696   -0.0457 C   0  0  0  0  0  0  0  0  0  0  0  0
    7.6313    7.4566    4.7060 C   0  0  0  0  0  0  0  0  0  0  0  0
    3.3745    1.2600   -0.6684 C   0  0  0  0  0  0  0  0  0  0  0  0
    7.1959    7.4622    3.2448 C   0  0  0  0  0  0  0  0  0  0  0  0
    5.5426    3.7418    0.9126 C   0  0  0  0  0  0  0  0  0  0  0  0
    5.0516    4.9687    1.6887 C   0  0  0  0  0  0  0  0  0  0  0  0
    2.9299    2.4695    0.1628 C   0  0  0  0  0  0  0  0  0  0  0  0
    3.5002    2.4263    1.5836 C   0  0  0  0  0  0  0  0  0  0  0  0
    5.0318    2.4531    1.5654 C   0  0  0  0  0  0  0  0  0  0  0  0
    7.6576    6.2001    2.5067 C   0  0  0  0  0  0  0  0  0  0  0  0
    7.0971    4.9318    3.1590 C   0  0  0  0  0  0  0  0  0  0  0  0
    5.5650    4.9314    3.1319 C   0  0  0  0  0  0  0  0  0  0  0  0
    9.3579    6.6059    4.3642 H   0  0  0  0  0  0  0  0  0  0  0  0
    3.3356   -0.1893    0.9793 H   0  0  0  0  0  0  0  0  0  0  0  0
    3.3498   -0.9087   -0.6328 H   0  0  0  0  0  0  0  0  0  0  0  0
    7.2726    8.3574    5.2117 H   0  0  0  0  0  0  0  0  0  0  0  0
    7.2240    6.6041    5.2594 H   0  0  0  0  0  0  0  0  0  0  0  0
    4.4660    1.2747   -0.7876 H   0  0  0  0  0  0  0  0  0  0  0  0
    2.9764    1.3530   -1.6838 H   0  0  0  0  0  0  0  0  0  0  0  0
    7.6109    8.3355    2.7323 H   0  0  0  0  0  0  0  0  0  0  0  0
    6.1061    7.5676    3.1879 H   0  0  0  0  0  0  0  0  0  0  0  0
    6.6348    3.7134    0.8506 H   0  0  0  0  0  0  0  0  0  0  0  0
    5.2290    3.8176   -0.1325 H   0  0  0  0  0  0  0  0  0  0  0  0
    5.3641    5.8806    1.1717 H   0  0  0  0  0  0  0  0  0  0  0  0
    3.9595    5.0370    1.6891 H   0  0  0  0  0  0  0  0  0  0  0  0
    3.2339    3.3887   -0.3524 H   0  0  0  0  0  0  0  0  0  0  0  0
    1.8397    2.5365    0.2108 H   0  0  0  0  0  0  0  0  0  0  0  0
    3.0943    3.2632    2.1617 H   0  0  0  0  0  0  0  0  0  0  0  0
    3.1541    1.5443    2.1284 H   0  0  0  0  0  0  0  0  0  0  0  0
    5.4100    2.3443    2.5873 H   0  0  0  0  0  0  0  0  0  0  0  0
    5.4451    1.5863    1.0421 H   0  0  0  0  0  0  0  0  0  0  0  0
    8.7492    6.1427    2.4713 H   0  0  0  0  0  0  0  0  0  0  0  0
    7.3569    6.2671    1.4547 H   0  0  0  0  0  0  0  0  0  0  0  0
    7.4465    4.8217    4.1891 H   0  0  0  0  0  0  0  0  0  0  0  0
    7.5056    4.0513    2.6520 H   0  0  0  0  0  0  0  0  0  0  0  0
    5.1500    5.7743    3.6920 H   0  0  0  0  0  0  0  0  0  0  0  0
    5.1902    4.0541    3.6692 H   0  0  0  0  0  0  0  0  0  0  0  0
  2  4  1  0  0  0  0
  3  1  1  0  0  0  0
  3 16  1  0  0  0  0
  3 17  1  0  0  0  0
  4  6  1  0  0  0  0
  4 18  1  0  0  0  0
  4 19  1  0  0  0  0
  5  3  1  0  0  0  0
  5 20  1  0  0  0  0
  5 21  1  0  0  0  0
  6 12  1  0  0  0  0
  6 22  1  0  0  0  0
  6 23  1  0  0  0  0
  7 11  1  0  0  0  0
  7 24  1  0  0  0  0
  7 25  1  0  0  0  0
  8  7  1  0  0  0  0
  8 26  1  0  0  0  0
  8 27  1  0  0  0  0
  9  5  1  0  0  0  0
  9 28  1  0  0  0  0
  9 29  1  0  0  0  0
 10  9  1  0  0  0  0
 10 30  1  0  0  0  0
 10 31  1  0  0  0  0
 11 10  1  0  0  0  0
 11 32  1  0  0  0  0
 11 33  1  0  0  0  0
 12 13  1  0  0  0  0
 12 34  1  0  0  0  0
 12 35  1  0  0  0  0
 13 14  1  0  0  0  0
 13 36  1  0  0  0  0
 13 37  1  0  0  0  0
 14  8  1  0  0  0  0
 14 38  1  0  0  0  0
 14 39  1  0  0  0  0
 15  2  1  0  0  0  0
M  END
>  <DRUGBANK_ID>
DB02619

>  <SECONDARY_ACCESSION_NUMBERS>
EXPT00648

>  <COMMON_NAME>
12-Bromo-1-dodecanol

>  <CAS_NUMBER>
3344-77-2

>  <UNII>
L7CYF0086V

$$$$
