
 OpenBabel10282417183D

 50 52  0  0  0  0  0  0  0  0999 V2000
    1.5159   -0.0445    0.5916 C   0  0  0  0  0  0  0  0  0  0  0  0
   -9.8788    1.2681   -0.2121 C   0  0  0  0  0  0  0  0  0  0  0  0
    0.6231    1.1417    1.1290 C   0  0  0  0  0  0  0  0  0  0  0  0
    0.7945    2.5838    0.5511 C   0  0  0  0  0  0  0  0  0  0  0  0
    1.5197    2.0962   -5.1528 C   0  0  0  0  0  0  0  0  0  0  0  0
    1.6822    0.7021   -5.0659 C   0  0  0  0  0  0  0  0  0  0  0  0
    1.2706    2.8155   -4.0182 C   0  0  0  0  0  0  0  0  0  0  0  0
    1.3221    0.0183   -3.9121 C   0  0  0  0  0  0  0  0  0  0  0  0
    1.3744    2.0803   -2.8765 C   0  0  0  0  0  0  0  0  0  0  0  0
   -0.1421    3.0640   -0.6140 C   0  0  0  0  0  0  0  0  0  0  0  0
   -2.6253    3.9057   -0.6386 C   0  0  0  0  0  0  0  0  0  0  0  0
   -3.4084    1.3537   -1.3465 C   0  0  0  0  0  0  0  0  0  0  0  0
   -6.3750    3.3273   -1.9350 C   0  0  0  0  0  0  0  0  0  0  0  0
   -0.0558    0.1710   -1.8361 C   0  0  0  0  0  0  0  0  0  0  0  0
    0.8895    0.7698   -2.8611 C   0  0  0  0  0  0  0  0  0  0  0  0
   -1.6240    2.8154   -0.8254 C   0  0  0  0  0  0  0  0  0  0  0  0
   -4.0420    3.6454   -0.6376 C   0  0  0  0  0  0  0  0  0  0  0  0
   -6.9312    3.6830   -0.7626 C   0  0  0  0  0  0  0  0  0  0  0  0
   -4.3115    2.4015   -1.1810 C   0  0  0  0  0  0  0  0  0  0  0  0
   -2.0553    1.5433   -1.2835 C   0  0  0  0  0  0  0  0  0  0  0  0
   -5.5225    4.4322   -0.3186 C   0  0  0  0  0  0  0  0  0  0  0  0
   -7.7283    2.3790   -0.3469 C   0  0  0  0  0  0  0  0  0  0  0  0
   -5.5504    2.1883   -1.8546 N   0  0  0  0  0  0  0  0  0  0  0  0
   -5.6172    5.6247   -0.0600 O   0  0  0  0  0  0  0  0  0  0  0  0
   -7.2383    1.2681   -0.2975 O   0  0  0  0  0  0  0  0  0  0  0  0
   -9.1149    2.5250   -0.3247 O   0  0  0  0  0  0  0  0  0  0  0  0
   -1.4477    0.4549   -1.8810 O   0  0  0  0  0  0  0  0  0  0  0  0
    1.7929   -0.0495   -0.4689 H   0  0  0  0  0  0  0  0  0  0  0  0
    0.9769   -0.9942    0.7520 H   0  0  0  0  0  0  0  0  0  0  0  0
    2.5015   -0.0903    1.0446 H   0  0  0  0  0  0  0  0  0  0  0  0
   -9.8192    0.6711   -1.1342 H   0  0  0  0  0  0  0  0  0  0  0  0
   -9.5413    0.6566    0.6350 H   0  0  0  0  0  0  0  0  0  0  0  0
  -10.9464    1.4809   -0.0446 H   0  0  0  0  0  0  0  0  0  0  0  0
   -0.4411    0.8806    1.0510 H   0  0  0  0  0  0  0  0  0  0  0  0
    0.8349    1.1789    2.1984 H   0  0  0  0  0  0  0  0  0  0  0  0
    0.6777    3.3234    1.3438 H   0  0  0  0  0  0  0  0  0  0  0  0
    1.8424    2.6514    0.2140 H   0  0  0  0  0  0  0  0  0  0  0  0
    1.6955    2.6381   -6.0696 H   0  0  0  0  0  0  0  0  0  0  0  0
    2.0326    0.1402   -5.9161 H   0  0  0  0  0  0  0  0  0  0  0  0
    1.1612    3.8956   -3.9789 H   0  0  0  0  0  0  0  0  0  0  0  0
    1.3661   -1.0605   -3.8142 H   0  0  0  0  0  0  0  0  0  0  0  0
    1.7695    2.6027   -2.0110 H   0  0  0  0  0  0  0  0  0  0  0  0
    0.2240    3.9791   -1.1052 H   0  0  0  0  0  0  0  0  0  0  0  0
    0.1551    2.3398   -1.2972 H   0  0  0  0  0  0  0  0  0  0  0  0
   -2.2028    4.9208   -0.6687 H   0  0  0  0  0  0  0  0  0  0  0  0
   -3.7968    0.3995   -1.6821 H   0  0  0  0  0  0  0  0  0  0  0  0
   -5.7815    4.0972   -2.4651 H   0  0  0  0  0  0  0  0  0  0  0  0
    0.1790    0.5471   -0.8927 H   0  0  0  0  0  0  0  0  0  0  0  0
    0.1020   -0.9163   -1.7487 H   0  0  0  0  0  0  0  0  0  0  0  0
   -5.9568    1.4433   -1.2555 H   0  0  0  0  0  0  0  0  0  0  0  0
  1 28  1  0  0  0  0
  1 29  1  0  0  0  0
  1 30  1  0  0  0  0
  2 31  1  0  0  0  0
  2 32  1  0  0  0  0
  2 33  1  0  0  0  0
  3  1  1  0  0  0  0
  3 34  1  0  0  0  0
  3 35  1  0  0  0  0
  4  3  1  0  0  0  0
  4 36  1  0  0  0  0
  4 37  1  0  0  0  0
  5 38  1  0  0  0  0
  6  5  2  0  0  0  0
  6 39  1  0  0  0  0
  7  5  1  0  0  0  0
  7 40  1  0  0  0  0
  8  6  1  0  0  0  0
  8 41  1  0  0  0  0
  9  7  2  0  0  0  0
  9 42  1  0  0  0  0
 10  4  1  0  0  0  0
 10 43  1  0  0  0  0
 10 44  1  0  0  0  0
 11 45  1  0  0  0  0
 12 46  1  0  0  0  0
 13 47  1  0  0  0  0
 14 48  1  0  0  0  0
 14 49  1  0  0  0  0
 15  8  2  0  0  0  0
 15  9  1  0  0  0  0
 15 14  1  0  0  0  0
 16 10  1  0  0  0  0
 16 11  2  0  0  0  0
 17 11  1  0  0  0  0
 18 13  2  0  0  0  0
 19 12  1  0  0  0  0
 19 17  2  0  0  0  0
 20 12  2  0  0  0  0
 20 16  1  0  0  0  0
 21 17  1  0  0  0  0
 21 18  1  0  0  0  0
 22 18  1  0  0  0  0
 23 13  1  0  0  0  0
 23 19  1  0  0  0  0
 23 50  1  0  0  0  0
 24 21  2  0  0  0  0
 25 22  2  0  0  0  0
 26  2  1  0  0  0  0
 26 22  1  0  0  0  0
 27 14  1  0  0  0  0
 27 20  1  0  0  0  0
M  END
>  <DRUGBANK_ID>
DB11433

>  <COMMON_NAME>
Nequinate

>  <CAS_NUMBER>
13997-19-8

>  <UNII>
91ZE013933

>  <SYNONYMS>
Methyl benzoquate; Nequinate; Nequinato; Nequinatum

$$$$
