CDD
 OpenBabel10282417163D

 49 51  0  0  0  0  0  0  0  0999 V2000
   -0.1581    1.2310   -0.0063 C   0  0  0  0  0  0  0  0  0  0  0  0
   -0.8876    0.0434    0.0005 N   0  3  0  0  0  0  0  0  0  0  0  0
   -0.1947   -1.1501    0.0669 C   0  0  0  0  0  0  0  0  0  0  0  0
    1.2174   -1.1231    0.1498 C   0  0  0  0  0  0  0  0  0  0  0  0
    1.9278    0.0626    0.0544 C   0  0  0  0  0  0  0  0  0  0  0  0
    1.2345    1.2555   -0.0036 C   0  0  0  0  0  0  0  0  0  0  0  0
   -0.9488   -2.4526    0.0416 C   0  0  0  0  0  0  0  0  0  0  0  0
   -0.6005   -3.2901   -1.2237 C   0  0  0  0  0  0  0  0  0  0  0  0
   -0.6397   -3.2117    1.1420 F   0  0  0  0  0  0  0  0  0  0  0  0
   -2.3119   -2.3644    0.0757 F   0  0  0  0  0  0  0  0  0  0  0  0
    0.8107   -3.6749   -1.3355 N   0  0  0  0  0  0  0  0  0  0  0  0
    1.2848   -4.9560   -1.2376 C   0  0  0  0  0  0  0  0  0  0  0  0
    0.6351   -6.0342   -2.1298 C   0  0  0  0  0  0  0  0  0  0  0  0
    1.1540   -7.3107   -2.0098 N   0  0  0  0  0  0  0  0  0  0  0  0
    2.1934   -7.5312   -1.1281 C   0  0  0  0  0  0  0  0  0  0  0  0
    2.7213   -6.5246   -0.4181 C   0  0  0  0  0  0  0  0  0  0  0  0
    2.3101   -5.2139   -0.4686 N   0  0  0  0  0  0  0  0  0  0  0  0
    0.6103   -8.3352   -2.8885 C   0  0  0  0  0  0  0  0  0  0  0  0
    1.6550   -8.8224   -3.8960 C   0  0  0  0  0  0  0  0  0  0  0  0
    1.9150  -10.1793   -3.8553 N   0  0  0  0  0  0  0  0  0  0  0  0
    2.9778  -10.7582   -4.6522 C   0  0  0  0  0  0  0  0  0  0  0  0
    4.0553  -11.3850   -3.8089 C   0  0  0  0  0  0  0  0  0  0  0  0
    4.1173  -12.7742   -3.6225 C   0  0  0  0  0  0  0  0  0  0  0  0
    5.1193  -13.3402   -2.8266 C   0  0  0  0  0  0  0  0  0  0  0  0
    6.0681  -12.5272   -2.2066 C   0  0  0  0  0  0  0  0  0  0  0  0
    6.0256  -11.1484   -2.3960 C   0  0  0  0  0  0  0  0  0  0  0  0
    5.0306  -10.5916   -3.1960 C   0  0  0  0  0  0  0  0  0  0  0  0
   -0.2780   -5.6962   -2.8830 O   0  0  0  0  0  0  0  0  0  0  0  0
    2.7740   -9.1336   -0.9069 Cl  0  0  0  0  0  0  0  0  0  0  0  0
    2.2376   -8.0498   -4.6533 O   0  0  0  0  0  0  0  0  0  0  0  0
    5.0201   -9.2625   -3.3677 F   0  0  0  0  0  0  0  0  0  0  0  0
   -2.1481    0.1137   -0.0601 O   0  5  0  0  0  0  0  0  0  0  0  0
   -0.7848    2.1105   -0.0237 H   0  0  0  0  0  0  0  0  0  0  0  0
    1.7804   -2.0453    0.2854 H   0  0  0  0  0  0  0  0  0  0  0  0
    3.0155    0.0436    0.0485 H   0  0  0  0  0  0  0  0  0  0  0  0
    1.7677    2.2004   -0.0274 H   0  0  0  0  0  0  0  0  0  0  0  0
   -1.2319   -4.1856   -1.1880 H   0  0  0  0  0  0  0  0  0  0  0  0
   -0.8827   -2.7385   -2.1265 H   0  0  0  0  0  0  0  0  0  0  0  0
    1.5154   -2.9584   -1.4175 H   0  0  0  0  0  0  0  0  0  0  0  0
    3.5359   -6.7318    0.2748 H   0  0  0  0  0  0  0  0  0  0  0  0
    0.1882   -9.1376   -2.2784 H   0  0  0  0  0  0  0  0  0  0  0  0
   -0.2160   -7.9299   -3.4870 H   0  0  0  0  0  0  0  0  0  0  0  0
    1.5008  -10.7498   -3.1292 H   0  0  0  0  0  0  0  0  0  0  0  0
    2.5094  -11.5177   -5.2871 H   0  0  0  0  0  0  0  0  0  0  0  0
    3.4203  -10.0126   -5.3199 H   0  0  0  0  0  0  0  0  0  0  0  0
    3.3938  -13.4284   -4.1043 H   0  0  0  0  0  0  0  0  0  0  0  0
    5.1603  -14.4187   -2.6890 H   0  0  0  0  0  0  0  0  0  0  0  0
    6.8403  -12.9665   -1.5800 H   0  0  0  0  0  0  0  0  0  0  0  0
    6.7585  -10.5006   -1.9253 H   0  0  0  0  0  0  0  0  0  0  0  0
  1  2  2  0  0  0  0
  1  6  1  0  0  0  0
  1 33  1  0  0  0  0
  2  3  1  0  0  0  0
  2 32  1  0  0  0  0
  3  4  2  0  0  0  0
  3  7  1  0  0  0  0
  4  5  1  0  0  0  0
  4 34  1  0  0  0  0
  5  6  2  0  0  0  0
  5 35  1  0  0  0  0
  6 36  1  0  0  0  0
  7  8  1  0  0  0  0
  7  9  1  0  0  0  0
  7 10  1  0  0  0  0
  8 11  1  0  0  0  0
  8 37  1  0  0  0  0
  8 38  1  0  0  0  0
 11 12  1  0  0  0  0
 11 39  1  0  0  0  0
 12 13  1  0  0  0  0
 12 17  2  0  0  0  0
 13 14  1  0  0  0  0
 13 28  2  0  0  0  0
 14 15  1  0  0  0  0
 14 18  1  0  0  0  0
 15 16  2  0  0  0  0
 15 29  1  0  0  0  0
 16 17  1  0  0  0  0
 16 40  1  0  0  0  0
 18 19  1  0  0  0  0
 18 41  1  0  0  0  0
 18 42  1  0  0  0  0
 19 20  1  0  0  0  0
 19 30  2  0  0  0  0
 20 21  1  0  0  0  0
 20 43  1  0  0  0  0
 21 22  1  0  0  0  0
 21 44  1  0  0  0  0
 21 45  1  0  0  0  0
 22 23  1  0  0  0  0
 22 27  2  0  0  0  0
 23 24  2  0  0  0  0
 23 46  1  0  0  0  0
 24 25  1  0  0  0  0
 24 47  1  0  0  0  0
 25 26  2  0  0  0  0
 25 48  1  0  0  0  0
 26 27  1  0  0  0  0
 26 49  1  0  0  0  0
 27 31  1  0  0  0  0
M  CHG  2   2   1  32  -1
M  END
>  <DRUGBANK_ID>
DB07550

>  <COMMON_NAME>
2-(6-CHLORO-3-{[2,2-DIFLUORO-2-(1-OXIDO-2-PYRIDINYL)ETHYL]AMINO}-2-OXO-1(2H)-PYRAZINYL)-N-[(2-FLUOROPHENYL)METHYL]ACETAMIDE

$$$$
