YE7
 OpenBabel10282417173D

 27 29  0  0  0  0  0  0  0  0999 V2000
   -2.9649   -0.3454   -0.0172 C   0  0  0  0  0  0  0  0  0  0  0  0
   -1.6369   -0.6422   -0.0026 N   0  0  0  0  0  0  0  0  0  0  0  0
   -1.0641   -1.9035   -0.0003 C   0  0  0  0  0  0  0  0  0  0  0  0
    0.2657   -2.0509   -0.0002 C   0  0  0  0  0  0  0  0  0  0  0  0
    1.1125   -0.8423   -0.0004 C   0  0  0  0  0  0  0  0  0  0  0  0
    2.4987   -0.9935    0.0004 C   0  0  0  0  0  0  0  0  0  0  0  0
    3.3112    0.1358    0.0018 C   0  0  0  0  0  0  0  0  0  0  0  0
    2.7429    1.4138   -0.0006 C   0  0  0  0  0  0  0  0  0  0  0  0
    1.3531    1.5807   -0.0013 C   0  0  0  0  0  0  0  0  0  0  0  0
    0.5269    0.4588   -0.0002 C   0  0  0  0  0  0  0  0  0  0  0  0
   -0.9409    0.5453   -0.0000 C   0  0  0  0  0  0  0  0  0  0  0  0
   -1.7789    1.5703    0.0002 N   0  0  0  0  0  0  0  0  0  0  0  0
   -3.0830    1.0283   -0.0079 C   0  0  0  0  0  0  0  0  0  0  0  0
   -4.3049    1.8715   -0.0129 C   0  0  0  0  0  0  0  0  0  0  0  0
   -4.2445    3.1013    0.0081 O   0  0  0  0  0  0  0  0  0  0  0  0
   -5.5961    1.3189   -0.0531 N   0  0  0  0  0  0  0  0  0  0  0  0
   -6.0182   -0.0173   -0.0083 N   0  0  0  0  0  0  0  0  0  0  0  0
   -3.6360   -1.1794   -0.0349 H   0  0  0  0  0  0  0  0  0  0  0  0
   -1.7426   -2.7471    0.0000 H   0  0  0  0  0  0  0  0  0  0  0  0
    0.7227   -3.0334   -0.0006 H   0  0  0  0  0  0  0  0  0  0  0  0
    2.9492   -1.9829    0.0005 H   0  0  0  0  0  0  0  0  0  0  0  0
    4.3917    0.0175    0.0053 H   0  0  0  0  0  0  0  0  0  0  0  0
    3.3915    2.2862   -0.0014 H   0  0  0  0  0  0  0  0  0  0  0  0
    0.9231    2.5797   -0.0022 H   0  0  0  0  0  0  0  0  0  0  0  0
   -6.3239    2.0296    0.0129 H   0  0  0  0  0  0  0  0  0  0  0  0
   -6.3275   -0.3071   -0.9382 H   0  0  0  0  0  0  0  0  0  0  0  0
   -5.2573   -0.6309    0.2409 H   0  0  0  0  0  0  0  0  0  0  0  0
  1 13  2  0  0  0  0
  1  2  1  0  0  0  0
  1 18  1  0  0  0  0
  2 11  1  0  0  0  0
  2  3  1  0  0  0  0
  3  4  2  0  0  0  0
  3 19  1  0  0  0  0
  4  5  1  0  0  0  0
  4 20  1  0  0  0  0
  5 10  2  0  0  0  0
  5  6  1  0  0  0  0
  6  7  2  0  0  0  0
  6 21  1  0  0  0  0
  7  8  1  0  0  0  0
  7 22  1  0  0  0  0
  8  9  2  0  0  0  0
  8 23  1  0  0  0  0
  9 10  1  0  0  0  0
  9 24  1  0  0  0  0
 10 11  1  0  0  0  0
 11 12  2  0  0  0  0
 12 13  1  0  0  0  0
 13 14  1  0  0  0  0
 14 15  2  0  0  0  0
 14 16  1  0  0  0  0
 16 17  1  0  0  0  0
 16 25  1  0  0  0  0
 17 26  1  0  0  0  0
 17 27  1  0  0  0  0
M  END
>  <DRUGBANK_ID>
DB08758

>  <COMMON_NAME>
IMIDAZO[2,1-A]ISOQUINOLINE-2-CARBOHYDRAZIDE

$$$$
