
 OpenBabel10282417203D

 55 55  0  0  0  0  0  0  0  0999 V2000
    0.9488   -0.1477    0.0044 C   0  0  0  0  0  0  0  0  0  0  0  0
    0.7303    4.3502    0.3772 C   0  0  0  0  0  0  0  0  0  0  0  0
    3.2146   -0.3947    6.5013 C   0  0  0  0  0  0  0  0  0  0  0  0
    3.1663   -2.3563    4.9547 C   0  0  0  0  0  0  0  0  0  0  0  0
    0.3583    1.2615    0.0142 C   0  0  0  0  0  0  0  0  0  0  0  0
    0.4803    3.5602   -0.8729 C   0  0  0  0  0  0  0  0  0  0  0  0
    1.5786    6.6137    3.1149 C   0  0  0  0  0  0  0  0  0  0  0  0
    2.9545    6.3821    3.0801 C   0  0  0  0  0  0  0  0  0  0  0  0
    0.6926    5.5508    3.2146 C   0  0  0  0  0  0  0  0  0  0  0  0
    3.4501    5.0858    3.0636 C   0  0  0  0  0  0  0  0  0  0  0  0
    1.1922    4.2568    3.2876 C   0  0  0  0  0  0  0  0  0  0  0  0
    1.1553   -0.7886    5.0929 C   0  0  0  0  0  0  0  0  0  0  0  0
    3.3095    2.5850    0.4500 C   0  0  0  0  0  0  0  0  0  0  0  0
    2.5392    2.1909   -0.8515 C   0  0  0  0  0  0  0  0  0  0  0  0
    0.7521    0.6871    5.1519 C   0  0  0  0  0  0  0  0  0  0  0  0
    2.6769   -0.9429    5.1678 C   0  0  0  0  0  0  0  0  0  0  0  0
    2.5681    4.0114    3.1021 C   0  0  0  0  0  0  0  0  0  0  0  0
    3.1256    2.6210    2.9184 C   0  0  3  0  0  0  0  0  0  0  0  0
    2.6573    1.8363    4.1255 C   0  0  0  0  0  0  0  0  0  0  0  0
    2.7882    1.9470    1.6617 N   0  0  0  0  0  0  0  0  0  0  0  0
    1.0571    2.2071   -0.8724 N   0  0  0  0  0  0  0  0  0  0  0  0
    3.4024    1.7518    5.0718 O   0  0  0  0  0  0  0  0  0  0  0  0
    1.3487    1.3979    4.0373 O   0  0  0  0  0  0  0  0  0  0  0  0
    0.6962   -0.6498   -0.9319 H   0  0  0  0  0  0  0  0  0  0  0  0
    0.5566   -0.7292    0.8439 H   0  0  0  0  0  0  0  0  0  0  0  0
    2.0371   -0.1741    0.1176 H   0  0  0  0  0  0  0  0  0  0  0  0
    1.7621    4.6792    0.4709 H   0  0  0  0  0  0  0  0  0  0  0  0
    0.1398    5.2629    0.4462 H   0  0  0  0  0  0  0  0  0  0  0  0
    0.4442    3.7068    1.1998 H   0  0  0  0  0  0  0  0  0  0  0  0
    2.8896   -1.0049    7.3425 H   0  0  0  0  0  0  0  0  0  0  0  0
    4.3068   -0.3357    6.4761 H   0  0  0  0  0  0  0  0  0  0  0  0
    2.8574    0.6089    6.7530 H   0  0  0  0  0  0  0  0  0  0  0  0
    2.8164   -2.7392    3.9914 H   0  0  0  0  0  0  0  0  0  0  0  0
    4.2626   -2.3464    4.9281 H   0  0  0  0  0  0  0  0  0  0  0  0
    2.8320   -3.0119    5.7580 H   0  0  0  0  0  0  0  0  0  0  0  0
   -0.7004    1.1977   -0.2597 H   0  0  0  0  0  0  0  0  0  0  0  0
    0.2816    1.6024    1.0482 H   0  0  0  0  0  0  0  0  0  0  0  0
    0.8556    4.1410   -1.7207 H   0  0  0  0  0  0  0  0  0  0  0  0
   -0.6067    3.4966   -0.9890 H   0  0  0  0  0  0  0  0  0  0  0  0
    1.1945    7.6249    3.0439 H   0  0  0  0  0  0  0  0  0  0  0  0
    3.6481    7.2124    3.0212 H   0  0  0  0  0  0  0  0  0  0  0  0
   -0.3806    5.7056    3.1234 H   0  0  0  0  0  0  0  0  0  0  0  0
    4.5196    4.9036    2.9931 H   0  0  0  0  0  0  0  0  0  0  0  0
    0.4683    3.4420    3.3261 H   0  0  0  0  0  0  0  0  0  0  0  0
    0.6760   -1.3539    5.9004 H   0  0  0  0  0  0  0  0  0  0  0  0
    0.7922   -1.2048    4.1437 H   0  0  0  0  0  0  0  0  0  0  0  0
    4.3697    2.3416    0.3271 H   0  0  0  0  0  0  0  0  0  0  0  0
    3.3056    3.6687    0.5348 H   0  0  0  0  0  0  0  0  0  0  0  0
    2.8864    1.1991   -1.1664 H   0  0  0  0  0  0  0  0  0  0  0  0
    2.8945    2.8403   -1.6645 H   0  0  0  0  0  0  0  0  0  0  0  0
    0.9911    1.1698    6.1057 H   0  0  0  0  0  0  0  0  0  0  0  0
   -0.3415    0.7581    5.0621 H   0  0  0  0  0  0  0  0  0  0  0  0
    3.1045   -0.4239    4.3053 H   0  0  0  0  0  0  0  0  0  0  0  0
    4.2198    2.6148    2.9732 H   0  0  0  0  0  0  0  0  0  0  0  0
    1.7859    1.9917    1.6386 H   0  0  0  0  0  0  0  0  0  0  0  0
  1 24  1  0  0  0  0
  1 25  1  0  0  0  0
  1 26  1  0  0  0  0
  2 27  1  0  0  0  0
  2 28  1  0  0  0  0
  2 29  1  0  0  0  0
  3 30  1  0  0  0  0
  3 31  1  0  0  0  0
  3 32  1  0  0  0  0
  4 33  1  0  0  0  0
  4 34  1  0  0  0  0
  4 35  1  0  0  0  0
  5  1  1  0  0  0  0
  5 36  1  0  0  0  0
  5 37  1  0  0  0  0
  6  2  1  0  0  0  0
  6 38  1  0  0  0  0
  6 39  1  0  0  0  0
  7 40  1  0  0  0  0
  8  7  2  0  0  0  0
  8 41  1  0  0  0  0
  9  7  1  0  0  0  0
  9 42  1  0  0  0  0
 10  8  1  0  0  0  0
 10 43  1  0  0  0  0
 11  9  2  0  0  0  0
 11 44  1  0  0  0  0
 12 45  1  0  0  0  0
 12 46  1  0  0  0  0
 13 47  1  0  0  0  0
 13 48  1  0  0  0  0
 14 13  1  0  0  0  0
 14 49  1  0  0  0  0
 14 50  1  0  0  0  0
 15 12  1  0  0  0  0
 15 51  1  0  0  0  0
 15 52  1  0  0  0  0
 16  3  1  0  0  0  0
 16  4  1  0  0  0  0
 16 12  1  0  0  0  0
 16 53  1  0  0  0  0
 17 10  2  0  0  0  0
 17 11  1  0  0  0  0
 18 17  1  0  0  0  0
 18 54  1  0  0  0  0
 19 18  1  0  0  0  0
 20 13  1  0  0  0  0
 20 18  1  0  0  0  0
 20 55  1  0  0  0  0
 21  5  1  0  0  0  0
 21  6  1  0  0  0  0
 21 14  1  0  0  0  0
 22 19  2  0  0  0  0
 23 15  1  0  0  0  0
 23 19  1  0  0  0  0
M  END
>  <DRUGBANK_ID>
DB13738

>  <COMMON_NAME>
Camylofin

>  <CAS_NUMBER>
54-30-8

>  <UNII>
340B6Q764V

>  <SYNONYMS>
Camylofin

$$$$
