
 OpenBabel10282417133D

 44 45  0  0  0  0  0  0  0  0999 V2000
    0.8593   -1.1985    0.5225 C   0  0  0  0  0  0  0  0  0  0  0  0
   -0.4089   -1.2848    0.1302 N   0  0  0  0  0  0  0  0  0  0  0  0
   -1.0647   -0.1089    0.0626 C   0  0  0  0  0  0  0  0  0  0  0  0
   -0.5634    1.1028    0.1853 N   0  0  0  0  0  0  0  0  0  0  0  0
    0.6795    1.0848    0.5354 C   0  0  0  0  0  0  0  0  0  0  0  0
    1.3383   -0.0206    0.9716 N   0  0  0  0  0  0  0  0  0  0  0  0
    3.6720    0.1945   -0.3530 S   0  0  0  0  0  0  0  0  0  0  0  0
    3.9684   -1.2775    0.2750 N   0  0  0  0  0  0  0  0  0  0  0  0
    4.8070    0.5455   -1.2026 O   0  0  0  0  0  0  0  0  0  0  0  0
    2.4187    0.0802   -1.0637 O   0  0  0  0  0  0  0  0  0  0  0  0
    3.1239   -2.3939    0.2511 C   0  0  0  0  0  0  0  0  0  0  0  0
    1.7170   -2.3629    0.3173 N   0  0  0  0  0  0  0  0  0  0  0  0
    1.2667    2.3293    0.4184 O   0  0  0  0  0  0  0  0  0  0  0  0
    2.1025    2.6460   -0.6979 C   0  0  0  0  0  0  0  0  0  0  0  0
    3.7405   -3.4625    0.1868 O   0  0  0  0  0  0  0  0  0  0  0  0
   -2.5392   -0.0789   -0.0049 C   0  0  0  0  0  0  0  0  0  0  0  0
    4.5184    3.6524    0.2698 C   0  0  0  0  0  0  0  0  0  0  0  0
    4.0086    4.9042    0.0406 O   0  0  0  0  0  0  0  0  0  0  0  0
    3.7670    5.8439    1.0758 C   0  0  0  0  0  0  0  0  0  0  0  0
    5.1545    3.1442   -0.6456 O   0  0  0  0  0  0  0  0  0  0  0  0
    3.8129    1.3304    1.4318 C   0  0  0  0  0  0  0  0  0  0  0  0
    4.0341    2.7809    1.4697 C   0  0  0  0  0  0  0  0  0  0  0  0
    3.7377    3.4483    2.6936 C   0  0  0  0  0  0  0  0  0  0  0  0
    3.4875    2.8066    3.8929 C   0  0  0  0  0  0  0  0  0  0  0  0
    3.4030    1.4291    3.8951 C   0  0  0  0  0  0  0  0  0  0  0  0
    3.5488    0.6762    2.6880 C   0  0  0  0  0  0  0  0  0  0  0  0
    1.0299   -3.6477    0.1148 C   0  0  0  0  0  0  0  0  0  0  0  0
    4.9500   -1.4660    0.1200 H   0  0  0  0  0  0  0  0  0  0  0  0
    3.0412    2.3345   -0.3448 H   0  0  0  0  0  0  0  0  0  0  0  0
    2.2354    2.1593   -1.6748 H   0  0  0  0  0  0  0  0  0  0  0  0
    2.2412    3.7175   -0.7886 H   0  0  0  0  0  0  0  0  0  0  0  0
   -2.8788    0.4381    0.9007 H   0  0  0  0  0  0  0  0  0  0  0  0
   -2.8586    0.4979   -0.8778 H   0  0  0  0  0  0  0  0  0  0  0  0
   -2.9249   -1.0916   -0.0252 H   0  0  0  0  0  0  0  0  0  0  0  0
    2.7655    5.6745    1.4897 H   0  0  0  0  0  0  0  0  0  0  0  0
    4.5900    5.7527    1.7859 H   0  0  0  0  0  0  0  0  0  0  0  0
    3.7940    6.8648    0.6971 H   0  0  0  0  0  0  0  0  0  0  0  0
    3.6583    4.5127    2.8323 H   0  0  0  0  0  0  0  0  0  0  0  0
    3.4023    3.4155    4.7982 H   0  0  0  0  0  0  0  0  0  0  0  0
    3.2020    0.9694    4.8642 H   0  0  0  0  0  0  0  0  0  0  0  0
    3.4551   -0.4032    2.7953 H   0  0  0  0  0  0  0  0  0  0  0  0
    0.3405   -3.7965    0.9484 H   0  0  0  0  0  0  0  0  0  0  0  0
    0.4816   -3.6796   -0.8355 H   0  0  0  0  0  0  0  0  0  0  0  0
    1.7161   -4.5080    0.1123 H   0  0  0  0  0  0  0  0  0  0  0  0
  1  2  2  0  0  0  0
  2  3  1  0  0  0  0
  3 16  1  0  0  0  0
  3  4  2  0  0  0  0
  4  5  1  0  0  0  0
  5 13  1  0  0  0  0
  5  6  2  0  0  0  0
  6  1  1  0  0  0  0
  7  8  1  0  0  0  0
  7  9  2  0  0  0  0
  7 10  2  0  0  0  0
  8 11  1  0  0  0  0
  8 28  1  0  0  0  0
 11 15  2  0  0  0  0
 11 12  1  0  0  0  0
 12  1  1  0  0  0  0
 12 27  1  0  0  0  0
 13 14  1  0  0  0  0
 14 29  1  0  0  0  0
 14 30  1  0  0  0  0
 14 31  1  0  0  0  0
 16 32  1  0  0  0  0
 16 33  1  0  0  0  0
 16 34  1  0  0  0  0
 17 18  1  0  0  0  0
 17 20  2  0  0  0  0
 18 19  1  0  0  0  0
 19 35  1  0  0  0  0
 19 36  1  0  0  0  0
 19 37  1  0  0  0  0
 21  7  1  0  0  0  0
 21 22  1  0  0  0  0
 22 17  1  0  0  0  0
 22 23  2  0  0  0  0
 23 24  1  0  0  0  0
 23 38  1  0  0  0  0
 24 25  2  0  0  0  0
 24 39  1  0  0  0  0
 25 26  1  0  0  0  0
 25 40  1  0  0  0  0
 26 21  2  0  0  0  0
 26 41  1  0  0  0  0
 27 42  1  0  0  0  0
 27 43  1  0  0  0  0
 27 44  1  0  0  0  0
M  END
>  <DRUGBANK_ID>
DB03656

>  <SECONDARY_ACCESSION_NUMBERS>
EXPT00085

>  <COMMON_NAME>
Tribenuron Methyl

>  <CAS_NUMBER>
101200-48-0

>  <UNII>
D0493A985P

>  <SYNONYMS>
Sulfmethmeton-methyl; Tribenuron methyl ester; Tribenuron-methyl

$$$$
