
 OpenBabel10282417123D

 13 12  0  0  0  0  0  0  0  0999 V2000
    0.9852    0.0037    0.0166 O   0  0  0  0  0  0  0  0  0  0  0  0
    0.3681    1.0125   -0.6005 C   0  0  0  0  0  0  0  0  0  0  0  0
    1.0123    1.8847   -1.1797 O   0  0  0  0  0  0  0  0  0  0  0  0
   -1.1040    0.9565   -0.5714 C   0  0  0  0  0  0  0  0  0  0  0  0
   -1.8106   -0.1781   -1.7153 P   0  0  0  0  0  0  0  0  0  0  0  0
   -3.3054    0.4079   -1.7863 O   0  0  0  0  0  0  0  0  0  0  0  0
   -1.1713    0.2568   -3.1197 O   0  0  0  0  0  0  0  0  0  0  0  0
   -1.7991   -1.6447   -1.4538 O   0  0  0  0  0  0  0  0  0  0  0  0
    1.9470    0.1631   -0.1092 H   0  0  0  0  0  0  0  0  0  0  0  0
   -1.4862    0.8978    0.4502 H   0  0  0  0  0  0  0  0  0  0  0  0
   -1.4339    1.9328   -0.9484 H   0  0  0  0  0  0  0  0  0  0  0  0
   -3.8619    0.0257   -1.0790 H   0  0  0  0  0  0  0  0  0  0  0  0
   -0.3272    0.7496   -3.0540 H   0  0  0  0  0  0  0  0  0  0  0  0
  1  2  1  0  0  0  0
  1  9  1  0  0  0  0
  2  3  2  0  0  0  0
  2  4  1  0  0  0  0
  4  5  1  0  0  0  0
  4 10  1  0  0  0  0
  4 11  1  0  0  0  0
  5  6  1  0  0  0  0
  5  7  1  0  0  0  0
  5  8  2  0  0  0  0
  6 12  1  0  0  0  0
  7 13  1  0  0  0  0
M  END
>  <DRUGBANK_ID>
DB02823

>  <SECONDARY_ACCESSION_NUMBERS>
EXPT02488

>  <COMMON_NAME>
Phosphonoacetic Acid

>  <CAS_NUMBER>
4408-78-0

>  <UNII>
N919E46723

$$$$
