
 OpenBabel10282417183D

 82 88  0  0  0  0  0  0  0  0999 V2000
    2.3926   -1.3127   -1.5589 O   0  0  0  0  0  0  0  0  0  0  0  0
    4.0021   -0.4963   -3.2185 O   0  0  0  0  0  0  0  0  0  0  0  0
    2.0923    2.0178   -1.1999 O   0  0  0  0  0  0  0  0  0  0  0  0
   -0.2789   -1.7920   -4.9269 O   0  0  0  0  0  0  0  0  0  0  0  0
    4.5848   -2.8629   -0.7011 O   0  0  0  0  0  0  0  0  0  0  0  0
    1.9456    0.2946   -2.7841 N   0  0  0  0  0  0  0  0  0  0  0  0
    2.0062   -1.6824   -4.9896 N   0  0  0  0  0  0  0  0  0  0  0  0
    3.3011   -1.2906    0.1743 N   0  0  0  0  0  0  0  0  0  0  0  0
    4.1001    1.7049   -3.1329 N   0  0  0  0  0  0  0  0  0  0  0  0
    3.8261    5.7054   -4.1899 N   0  0  0  0  0  0  0  0  0  0  0  0
    2.7472   -0.8156   -2.8285 C   0  0  2  0  0  0  0  0  0  0  0  0
    3.0956   -1.6619   -4.1156 C   0  0  2  0  0  0  0  0  0  0  0  0
    2.2062   -0.3826   -0.3611 C   0  0  1  0  0  0  0  0  0  0  0  0
    1.9077    0.8180   -1.4337 C   0  0  0  0  0  0  0  0  0  0  0  0
    0.7244   -0.0838   -3.3504 C   0  0  2  0  0  0  0  0  0  0  0  0
    0.8045   -1.2580   -4.4989 C   0  0  0  0  0  0  0  0  0  0  0  0
    4.3930   -1.3676   -5.2888 C   0  0  0  0  0  0  0  0  0  0  0  0
    2.7815    0.6503    1.0340 C   0  0  0  0  0  0  0  0  0  0  0  0
    6.7245    1.8670   -2.7258 C   0  0  1  0  0  0  0  0  0  0  0  0
    5.4590    1.8886   -3.5933 C   0  0  1  0  0  0  0  0  0  0  0  0
    2.4289   -2.4968   -6.1182 C   0  0  0  0  0  0  0  0  0  0  0  0
   -0.0197    1.2054   -3.7493 C   0  0  0  0  0  0  0  0  0  0  0  0
    6.4896    3.7117   -2.4520 C   0  0  0  0  0  0  0  0  0  0  0  0
    3.8201   -1.9923   -6.5511 C   0  0  0  0  0  0  0  0  0  0  0  0
    4.4530   -1.6354   -0.5376 C   0  0  0  0  0  0  0  0  0  0  0  0
    5.2511   -0.4671   -1.4736 C   0  0  2  0  0  0  0  0  0  0  0  0
    5.5542    4.4579   -3.4041 C   0  0  0  0  0  0  0  0  0  0  0  0
    6.5716    0.0968   -2.0532 C   0  0  0  0  0  0  0  0  0  0  0  0
    5.0688    3.9656   -4.6395 C   0  0  0  0  0  0  0  0  0  0  0  0
    5.6205    2.6443   -4.9439 C   0  0  0  0  0  0  0  0  0  0  0  0
    4.5377    0.8970   -1.6256 C   0  0  0  0  0  0  0  0  0  0  0  0
    4.8016    5.6184   -3.2089 C   0  0  0  0  0  0  0  0  0  0  0  0
    6.7357    4.6590   -1.4281 C   0  0  0  0  0  0  0  0  0  0  0  0
    2.3442    2.1382    1.3210 C   0  0  0  0  0  0  0  0  0  0  0  0
    2.3924   -0.0360    2.3870 C   0  0  0  0  0  0  0  0  0  0  0  0
    3.9626    4.6677   -5.0609 C   0  0  0  0  0  0  0  0  0  0  0  0
   -1.3221    0.9757   -3.0266 C   0  0  0  0  0  0  0  0  0  0  0  0
    0.5068    2.6389   -3.3502 C   0  0  0  0  0  0  0  0  0  0  0  0
    5.0371    6.4763   -2.1741 C   0  0  0  0  0  0  0  0  0  0  0  0
    6.0658    6.0010   -1.3439 C   0  0  0  0  0  0  0  0  0  0  0  0
    3.2296    1.5838   -4.5094 C   0  0  0  0  0  0  0  0  0  0  0  0
    3.4473   -2.6331   -3.7426 H   0  0  0  0  0  0  0  0  0  0  0  0
    7.5172    1.6977   -3.4706 H   0  0  0  0  0  0  0  0  0  0  0  0
    5.1208    2.5495   -2.8197 H   0  0  0  0  0  0  0  0  0  0  0  0
    3.9979    0.4374   -3.3673 H   0  0  0  0  0  0  0  0  0  0  0  0
    2.8321   -2.1143    0.5416 H   0  0  0  0  0  0  0  0  0  0  0  0
    3.0909    6.4017   -4.2331 H   0  0  0  0  0  0  0  0  0  0  0  0
    0.2394   -0.5971   -2.5030 H   0  0  0  0  0  0  0  0  0  0  0  0
    4.7241   -0.3516   -5.5794 H   0  0  0  0  0  0  0  0  0  0  0  0
    5.3567   -1.8084   -4.9909 H   0  0  0  0  0  0  0  0  0  0  0  0
    3.8888    0.7024    1.0364 H   0  0  0  0  0  0  0  0  0  0  0  0
    1.6918   -2.4545   -6.9073 H   0  0  0  0  0  0  0  0  0  0  0  0
    2.5683   -3.5206   -5.7474 H   0  0  0  0  0  0  0  0  0  0  0  0
   -0.1122    1.1925   -4.8389 H   0  0  0  0  0  0  0  0  0  0  0  0
    3.7377   -1.2454   -7.3549 H   0  0  0  0  0  0  0  0  0  0  0  0
    4.4901   -2.7779   -6.9202 H   0  0  0  0  0  0  0  0  0  0  0  0
    5.1629   -1.3168   -2.2118 H   0  0  0  0  0  0  0  0  0  0  0  0
    6.7249   -0.5805   -2.9449 H   0  0  0  0  0  0  0  0  0  0  0  0
    7.3054   -0.1773   -1.3115 H   0  0  0  0  0  0  0  0  0  0  0  0
    6.6713    2.7547   -5.2080 H   0  0  0  0  0  0  0  0  0  0  0  0
    5.1472    2.1566   -5.7939 H   0  0  0  0  0  0  0  0  0  0  0  0
    4.9852    1.5901   -0.8995 H   0  0  0  0  0  0  0  0  0  0  0  0
    3.7175    0.6825   -1.0778 H   0  0  0  0  0  0  0  0  0  0  0  0
    7.4688    4.4980   -0.6502 H   0  0  0  0  0  0  0  0  0  0  0  0
    1.2569    2.2367    1.3218 H   0  0  0  0  0  0  0  0  0  0  0  0
    2.6969    2.4824    2.3129 H   0  0  0  0  0  0  0  0  0  0  0  0
    2.7919    2.8934    0.6655 H   0  0  0  0  0  0  0  0  0  0  0  0
    2.7860   -1.0488    2.4808 H   0  0  0  0  0  0  0  0  0  0  0  0
    2.7917    0.5080    3.2585 H   0  0  0  0  0  0  0  0  0  0  0  0
    1.3048   -0.0632    2.4828 H   0  0  0  0  0  0  0  0  0  0  0  0
    3.2072    4.4640   -5.8120 H   0  0  0  0  0  0  0  0  0  0  0  0
   -1.1349    1.0119   -1.9418 H   0  0  0  0  0  0  0  0  0  0  0  0
   -2.0589    1.7147   -3.3057 H   0  0  0  0  0  0  0  0  0  0  0  0
   -1.6845   -0.0321   -3.2599 H   0  0  0  0  0  0  0  0  0  0  0  0
    1.4885    2.9355   -3.7300 H   0  0  0  0  0  0  0  0  0  0  0  0
   -0.1564    3.4247   -3.7072 H   0  0  0  0  0  0  0  0  0  0  0  0
    0.5522    2.7920   -2.2747 H   0  0  0  0  0  0  0  0  0  0  0  0
    4.5006    7.4216   -2.0802 H   0  0  0  0  0  0  0  0  0  0  0  0
    6.3457    6.7220   -0.5722 H   0  0  0  0  0  0  0  0  0  0  0  0
    3.5383    0.7756   -5.1444 H   0  0  0  0  0  0  0  0  0  0  0  0
    2.1729    1.4100   -4.5079 H   0  0  0  0  0  0  0  0  0  0  0  0
    3.2538    2.4223   -5.2001 H   0  0  0  0  0  0  0  0  0  0  0  0
  1 11  1  0  0  0  0
  1 13  1  0  0  0  0
  2 45  1  0  0  0  0
  3 14  2  0  0  0  0
  4 16  2  0  0  0  0
  5 25  2  0  0  0  0
  6 11  1  0  0  0  0
  6 14  1  0  0  0  0
  6 15  1  0  0  0  0
  7 12  1  0  0  0  0
  7 16  1  0  0  0  0
  7 21  1  0  0  0  0
  8 25  1  0  0  0  0
  8 46  1  0  0  0  0
  9 20  1  0  0  0  0
  9 31  1  0  0  0  0
  9 41  1  0  0  0  0
 10 32  1  0  0  0  0
 10 36  1  0  0  0  0
 10 47  1  0  0  0  0
 11  2  1  1  0  0  0
 11 12  1  0  0  0  0
 12 17  1  0  0  0  0
 12 42  1  1  0  0  0
 13  8  1  6  0  0  0
 13 14  1  0  0  0  0
 13 18  1  0  0  0  0
 15 16  1  0  0  0  0
 15 48  1  1  0  0  0
 15 22  1  0  0  0  0
 17 24  1  0  0  0  0
 17 49  1  0  0  0  0
 17 50  1  0  0  0  0
 18 34  1  0  0  0  0
 18 35  1  0  0  0  0
 18 51  1  0  0  0  0
 19 20  1  0  0  0  0
 19 23  1  0  0  0  0
 19 28  1  0  0  0  0
 19 43  1  6  0  0  0
 20 30  1  0  0  0  0
 20 44  1  1  0  0  0
 21 24  1  0  0  0  0
 21 52  1  0  0  0  0
 21 53  1  0  0  0  0
 22 37  1  0  0  0  0
 22 38  1  0  0  0  0
 22 54  1  0  0  0  0
 23 27  2  0  0  0  0
 23 33  1  0  0  0  0
 24 55  1  0  0  0  0
 24 56  1  0  0  0  0
 26 25  1  0  0  0  0
 26 28  1  0  0  0  0
 26 31  1  0  0  0  0
 26 57  1  6  0  0  0
 27 29  1  0  0  0  0
 27 32  1  0  0  0  0
 28 58  1  0  0  0  0
 28 59  1  0  0  0  0
 29 30  1  0  0  0  0
 29 36  2  0  0  0  0
 30 60  1  0  0  0  0
 30 61  1  0  0  0  0
 31 62  1  0  0  0  0
 31 63  1  0  0  0  0
 32 39  2  0  0  0  0
 33 40  2  0  0  0  0
 33 64  1  0  0  0  0
 34 65  1  0  0  0  0
 34 66  1  0  0  0  0
 34 67  1  0  0  0  0
 35 68  1  0  0  0  0
 35 69  1  0  0  0  0
 35 70  1  0  0  0  0
 36 71  1  0  0  0  0
 37 72  1  0  0  0  0
 37 73  1  0  0  0  0
 37 74  1  0  0  0  0
 38 75  1  0  0  0  0
 38 76  1  0  0  0  0
 38 77  1  0  0  0  0
 39 40  1  0  0  0  0
 39 78  1  0  0  0  0
 40 79  1  0  0  0  0
 41 80  1  0  0  0  0
 41 81  1  0  0  0  0
 41 82  1  0  0  0  0
M  END
>  <DRUGBANK_ID>
DB11273

>  <COMMON_NAME>
Dihydroergocornine

>  <CAS_NUMBER>
25447-65-8

>  <UNII>
IK4C1OC8NE

>  <SYNONYMS>
9,10-dihydroergocornine; Dihydroergocornine

$$$$
