SKF
 OpenBabel10282417133D

 26 27  0  0  0  0  0  0  0  0999 V2000
   -1.3421   -1.3667   -0.0611 C   0  0  0  0  0  0  0  0  0  0  0  0
   -2.5038   -0.6238    0.1603 C   0  0  0  0  0  0  0  0  0  0  0  0
   -2.4389    0.7745    0.2404 C   0  0  0  0  0  0  0  0  0  0  0  0
   -1.2198    1.4391    0.0696 C   0  0  0  0  0  0  0  0  0  0  0  0
   -3.9499    1.6537    0.5383 S   0  0  0  0  0  0  0  0  0  0  0  0
   -0.0540    0.6943   -0.1526 C   0  0  0  0  0  0  0  0  0  0  0  0
   -0.1185   -0.7103   -0.2020 C   0  0  0  0  0  0  0  0  0  0  0  0
   -4.7960    1.4969   -0.6181 O   0  0  0  0  0  0  0  0  0  0  0  0
   -4.4015    1.3377    1.8762 O   0  0  0  0  0  0  0  0  0  0  0  0
   -3.5249    3.2872    0.5542 N   0  0  0  0  0  0  0  0  0  0  0  0
    1.2875    1.3401   -0.4060 C   0  0  0  0  0  0  0  0  0  0  0  0
    2.2562   -0.7593    0.4818 C   0  0  0  0  0  0  0  0  0  0  0  0
    1.1854   -1.4442   -0.3802 C   0  0  0  0  0  0  0  0  0  0  0  0
    2.4080    0.6897    0.2838 N   0  0  0  0  0  0  0  0  0  0  0  0
   -1.3925   -2.4521   -0.0986 H   0  0  0  0  0  0  0  0  0  0  0  0
   -3.4542   -1.1399    0.2827 H   0  0  0  0  0  0  0  0  0  0  0  0
   -1.1587    2.5213    0.1240 H   0  0  0  0  0  0  0  0  0  0  0  0
   -3.2417    3.5997   -0.3734 H   0  0  0  0  0  0  0  0  0  0  0  0
   -4.3344    3.8218    0.8813 H   0  0  0  0  0  0  0  0  0  0  0  0
    1.2654    2.3927   -0.1041 H   0  0  0  0  0  0  0  0  0  0  0  0
    1.4710    1.3224   -1.4885 H   0  0  0  0  0  0  0  0  0  0  0  0
    3.2241   -1.2471    0.3187 H   0  0  0  0  0  0  0  0  0  0  0  0
    2.0127   -0.9188    1.5411 H   0  0  0  0  0  0  0  0  0  0  0  0
    1.4779   -1.4255   -1.4370 H   0  0  0  0  0  0  0  0  0  0  0  0
    1.0895   -2.4922   -0.0752 H   0  0  0  0  0  0  0  0  0  0  0  0
    3.2622    0.8747   -0.2389 H   0  0  0  0  0  0  0  0  0  0  0  0
  1  2  2  0  0  0  0
  1  7  1  0  0  0  0
  1 15  1  0  0  0  0
  2  3  1  0  0  0  0
  2 16  1  0  0  0  0
  3  4  2  0  0  0  0
  3  5  1  0  0  0  0
  4  6  1  0  0  0  0
  4 17  1  0  0  0  0
  5  8  2  0  0  0  0
  5  9  2  0  0  0  0
  5 10  1  0  0  0  0
  6  7  2  0  0  0  0
  6 11  1  0  0  0  0
  7 13  1  0  0  0  0
 10 18  1  0  0  0  0
 10 19  1  0  0  0  0
 11 14  1  0  0  0  0
 11 20  1  0  0  0  0
 11 21  1  0  0  0  0
 12 13  1  0  0  0  0
 12 14  1  0  0  0  0
 12 22  1  0  0  0  0
 12 23  1  0  0  0  0
 13 24  1  0  0  0  0
 13 25  1  0  0  0  0
 14 26  1  0  0  0  0
M  END
>  <DRUGBANK_ID>
DB03468

>  <SECONDARY_ACCESSION_NUMBERS>
EXPT02913

>  <COMMON_NAME>
1,2,3,4-Tetrahydro-Isoquinoline-7-Sulfonic Acid Amide

>  <UNII>
7ASE44P9QJ

$$$$
