
 OpenBabel10282417233D

 15 14  0  0  0  0  0  0  0  0999 V2000
    0.8686    0.0621   -0.1210 C   0  0  0  0  0  0  0  0  0  0  0  0
    0.2624    1.7426   -0.0935 S   0  0  0  0  0  0  0  0  0  0  0  0
    0.8677    2.4138   -1.2335 O   0  0  0  0  0  0  0  0  0  0  0  0
   -1.1760    1.6865    0.0441 O   0  0  0  0  0  0  0  0  0  0  0  0
    0.9022    2.5655    1.3757 C   0  0  0  0  0  0  0  0  0  0  0  0
    0.4047    1.9662    2.6834 C   0  0  0  0  0  0  0  0  0  0  0  0
    0.9114    0.5345    2.7445 C   0  0  0  0  0  0  0  0  0  0  0  0
    1.3317   -0.6533    2.7952 N   0  0  0  0  0  0  0  0  0  0  0  0
    0.5921   -0.4030   -1.0667 H   0  0  0  0  0  0  0  0  0  0  0  0
    0.3606   -0.5161    0.6464 H   0  0  0  0  0  0  0  0  0  0  0  0
    1.9541    0.0607   -0.0000 H   0  0  0  0  0  0  0  0  0  0  0  0
    1.9953    2.5662    1.3120 H   0  0  0  0  0  0  0  0  0  0  0  0
    0.5608    3.6054    1.3058 H   0  0  0  0  0  0  0  0  0  0  0  0
    0.7825    2.5287    3.5427 H   0  0  0  0  0  0  0  0  0  0  0  0
   -0.6892    1.9609    2.7257 H   0  0  0  0  0  0  0  0  0  0  0  0
  1  2  1  0  0  0  0
  1  9  1  0  0  0  0
  1 10  1  0  0  0  0
  1 11  1  0  0  0  0
  2  3  2  0  0  0  0
  2  4  2  0  0  0  0
  2  5  1  0  0  0  0
  5  6  1  0  0  0  0
  5 12  1  0  0  0  0
  5 13  1  0  0  0  0
  6  7  1  0  0  0  0
  6 14  1  0  0  0  0
  6 15  1  0  0  0  0
  7  8  3  0  0  0  0
M  END
>  <DRUGBANK_ID>
DB16130

>  <COMMON_NAME>
Dapansutrile

>  <CAS_NUMBER>
54863-37-5

>  <UNII>
2Z03364G96

>  <SYNONYMS>
Dapansutrile

$$$$
