N9H
 OpenBabel10282417173D

 52 54  0  0  0  0  0  0  0  0999 V2000
    1.3832    0.0339   -0.0120 C   0  0  0  0  0  0  0  0  0  0  0  0
    0.7112    1.2569   -0.0383 C   0  0  0  0  0  0  0  0  0  0  0  0
   -0.6834    1.2730   -0.0489 C   0  0  0  0  0  0  0  0  0  0  0  0
   -1.3746    0.0535    0.0013 C   0  0  0  0  0  0  0  0  0  0  0  0
   -0.6945   -1.1675    0.0105 C   0  0  0  0  0  0  0  0  0  0  0  0
    0.6963   -1.1776    0.0012 C   0  0  0  0  0  0  0  0  0  0  0  0
   -1.3751    2.5850   -0.0713 C   0  0  0  0  0  0  0  0  0  0  0  0
   -1.2671    3.4670   -1.0246 N   0  0  0  0  0  0  0  0  0  0  0  0
   -2.0521    4.5699   -0.6565 N   0  0  0  0  0  0  0  0  0  0  0  0
   -2.7263    4.3854    0.6780 C   0  0  1  0  0  0  0  0  0  0  0  0
   -2.1975    2.9924    1.1125 C   0  0  0  0  0  0  0  0  0  0  0  0
   -2.3684    5.4605    1.7425 C   0  0  0  0  0  0  0  0  0  0  0  0
   -2.6105    6.8210    1.4859 C   0  0  0  0  0  0  0  0  0  0  0  0
   -2.5605    7.7922    2.4807 C   0  0  0  0  0  0  0  0  0  0  0  0
   -2.2686    7.4279    3.7827 C   0  0  0  0  0  0  0  0  0  0  0  0
   -2.0109    6.0976    4.0786 C   0  0  0  0  0  0  0  0  0  0  0  0
   -2.0243    5.1343    3.0686 C   0  0  0  0  0  0  0  0  0  0  0  0
   -2.3690    5.5863   -1.5666 C   0  0  0  0  0  0  0  0  0  0  0  0
   -1.6179    5.6565   -2.7104 N   0  0  0  0  0  0  0  0  0  0  0  0
   -1.8014    6.7544   -3.6572 C   0  0  0  0  0  0  0  0  0  0  0  0
   -3.2675    6.4162   -1.3909 O   0  0  0  0  0  0  0  0  0  0  0  0
   -2.7106    0.0043    0.0338 F   0  0  0  0  0  0  0  0  0  0  0  0
    2.7216    0.0211   -0.0018 F   0  0  0  0  0  0  0  0  0  0  0  0
   -4.2935    4.4507    0.5470 C   0  0  0  0  0  0  0  0  0  0  0  0
   -4.9560    3.5460   -0.5010 C   0  0  0  0  0  0  0  0  0  0  0  0
   -0.4949    7.4703   -3.9442 C   0  0  0  0  0  0  0  0  0  0  0  0
   -4.8160    2.0572   -0.2392 C   0  0  0  0  0  0  0  0  0  0  0  0
   -5.3075    1.6742    1.0825 N   0  0  0  0  0  0  0  0  0  0  0  0
    1.2816    2.1800   -0.0380 H   0  0  0  0  0  0  0  0  0  0  0  0
   -1.2541   -2.1001    0.0179 H   0  0  0  0  0  0  0  0  0  0  0  0
    1.2467   -2.1146    0.0039 H   0  0  0  0  0  0  0  0  0  0  0  0
   -1.5223    2.9485    1.9648 H   0  0  0  0  0  0  0  0  0  0  0  0
   -2.9610    2.2695    1.3672 H   0  0  0  0  0  0  0  0  0  0  0  0
   -2.9277    7.1742    0.5159 H   0  0  0  0  0  0  0  0  0  0  0  0
   -2.8029    8.8192    2.2236 H   0  0  0  0  0  0  0  0  0  0  0  0
   -2.2565    8.1772    4.5651 H   0  0  0  0  0  0  0  0  0  0  0  0
   -1.8339    5.7897    5.1048 H   0  0  0  0  0  0  0  0  0  0  0  0
   -1.8059    4.1255    3.3982 H   0  0  0  0  0  0  0  0  0  0  0  0
   -1.0698    4.8373   -2.9408 H   0  0  0  0  0  0  0  0  0  0  0  0
   -2.2366    6.3593   -4.5810 H   0  0  0  0  0  0  0  0  0  0  0  0
   -2.5098    7.4954   -3.2643 H   0  0  0  0  0  0  0  0  0  0  0  0
   -4.7527    4.2930    1.5319 H   0  0  0  0  0  0  0  0  0  0  0  0
   -4.6105    5.4724    0.2944 H   0  0  0  0  0  0  0  0  0  0  0  0
   -6.0231    3.7911   -0.5567 H   0  0  0  0  0  0  0  0  0  0  0  0
   -4.5409    3.7753   -1.4894 H   0  0  0  0  0  0  0  0  0  0  0  0
    0.2194    6.7953   -4.4228 H   0  0  0  0  0  0  0  0  0  0  0  0
   -0.6593    8.3259   -4.6090 H   0  0  0  0  0  0  0  0  0  0  0  0
   -0.0458    7.8450   -3.0184 H   0  0  0  0  0  0  0  0  0  0  0  0
   -5.3271    1.4686   -1.0019 H   0  0  0  0  0  0  0  0  0  0  0  0
   -3.7725    1.7974   -0.3758 H   0  0  0  0  0  0  0  0  0  0  0  0
   -4.9353    0.7591    1.3330 H   0  0  0  0  0  0  0  0  0  0  0  0
   -4.9844    2.3102    1.8101 H   0  0  0  0  0  0  0  0  0  0  0  0
  1  2  2  0  0  0  0
  1  6  1  0  0  0  0
  1 23  1  0  0  0  0
  2  3  1  0  0  0  0
  2 29  1  0  0  0  0
  3  4  2  0  0  0  0
  3  7  1  0  0  0  0
  4  5  1  0  0  0  0
  4 22  1  0  0  0  0
  5  6  2  0  0  0  0
  5 30  1  0  0  0  0
  6 31  1  0  0  0  0
  7  8  2  0  0  0  0
  7 11  1  0  0  0  0
  8  9  1  0  0  0  0
  9 10  1  0  0  0  0
  9 18  1  0  0  0  0
 10 11  1  0  0  0  0
 10 12  1  0  0  0  0
 10 24  1  6  0  0  0
 11 32  1  0  0  0  0
 11 33  1  0  0  0  0
 12 13  1  0  0  0  0
 12 17  2  0  0  0  0
 13 14  2  0  0  0  0
 13 34  1  0  0  0  0
 14 15  1  0  0  0  0
 14 35  1  0  0  0  0
 15 16  2  0  0  0  0
 15 36  1  0  0  0  0
 16 17  1  0  0  0  0
 16 37  1  0  0  0  0
 17 38  1  0  0  0  0
 18 19  1  0  0  0  0
 18 21  2  0  0  0  0
 19 20  1  0  0  0  0
 19 39  1  0  0  0  0
 20 26  1  0  0  0  0
 20 40  1  0  0  0  0
 20 41  1  0  0  0  0
 24 25  1  0  0  0  0
 24 42  1  0  0  0  0
 24 43  1  0  0  0  0
 25 27  1  0  0  0  0
 25 44  1  0  0  0  0
 25 45  1  0  0  0  0
 26 46  1  0  0  0  0
 26 47  1  0  0  0  0
 26 48  1  0  0  0  0
 27 28  1  0  0  0  0
 27 49  1  0  0  0  0
 27 50  1  0  0  0  0
 28 51  1  0  0  0  0
 28 52  1  0  0  0  0
M  END
>  <DRUGBANK_ID>
DB08250

>  <COMMON_NAME>
(5S)-5-(3-AMINOPROPYL)-3-(2,5-DIFLUOROPHENYL)-N-ETHYL-5-PHENYL-4,5-DIHYDRO-1H-PYRAZOLE-1-CARBOXAMIDE

$$$$
