
 OpenBabel10282417183D

 54 58  0  0  0  0  0  0  0  0999 V2000
   -1.0344   -2.0769   -0.8572 C   0  0  0  0  0  0  0  0  0  0  0  0
   -2.1811   -8.8926    1.7827 C   0  0  0  0  0  0  0  0  0  0  0  0
   -3.0259   -8.3104    2.7135 C   0  0  0  0  0  0  0  0  0  0  0  0
   -0.9487   -8.3116    1.5025 C   0  0  0  0  0  0  0  0  0  0  0  0
   -2.6400   -7.1588    3.3756 C   0  0  0  0  0  0  0  0  0  0  0  0
   -0.5399   -7.1748    2.2042 C   0  0  0  0  0  0  0  0  0  0  0  0
    1.2435    1.5077    1.2015 C   0  0  0  0  0  0  0  0  0  0  0  0
   -0.1312    1.5383    1.9040 C   0  0  0  0  0  0  0  0  0  0  0  0
   -0.7188   -3.3469    1.7535 C   0  0  0  0  0  0  0  0  0  0  0  0
    1.5519   -2.6643    1.2691 C   0  0  0  0  0  0  0  0  0  0  0  0
   -0.6024    0.2030   -0.2187 C   0  0  0  0  0  0  0  0  0  0  0  0
   -1.9017   -4.8024    5.0587 C   0  0  0  0  0  0  0  0  0  0  0  0
   -0.0404    1.4754    0.4325 C   0  0  0  0  0  0  0  0  0  0  0  0
   -1.3921   -6.5750    3.1615 C   0  0  0  0  0  0  0  0  0  0  0  0
    0.7142   -3.3956    2.2833 C   0  0  2  0  0  0  0  0  0  0  0  0
   -1.0716   -5.2570    3.8544 C   0  0  2  0  0  0  0  0  0  0  0  0
   -1.3622   -1.9254    1.6285 C   0  0  2  0  0  0  0  0  0  0  0  0
    0.8422   -1.3315    1.1379 C   0  0  1  0  0  0  0  0  0  0  0  0
   -1.0643   -1.0714    2.8063 C   0  0  2  0  0  0  0  0  0  0  0  0
    0.5001   -0.7314    2.6151 C   0  0  1  0  0  0  0  0  0  0  0  0
    0.4676   -5.0763    3.9841 C   0  0  0  0  0  0  0  0  0  0  0  0
   -0.5338   -1.3135    0.3997 N   0  3  3  0  0  0  0  0  0  0  0  0
   -1.3762   -5.2046    6.2890 O   0  0  0  0  0  0  0  0  0  0  0  0
    1.0748   -5.5415    4.9007 O   0  0  0  0  0  0  0  0  0  0  0  0
    1.1226   -4.6451    2.8127 O   0  0  0  0  0  0  0  0  0  0  0  0
   -0.1096   -1.3969    3.7428 O   0  0  0  0  0  0  0  0  0  0  0  0
    0.9076   -2.8436    3.1860 H   0  0  0  0  0  0  0  0  0  0  0  0
   -1.5678   -4.5363    3.2430 H   0  0  0  0  0  0  0  0  0  0  0  0
   -2.4219   -1.9529    1.3574 H   0  0  0  0  0  0  0  0  0  0  0  0
    1.4818   -0.7867    0.4500 H   0  0  0  0  0  0  0  0  0  0  0  0
   -1.9295   -0.5542    3.1973 H   0  0  0  0  0  0  0  0  0  0  0  0
    1.2446   -0.0637    3.0220 H   0  0  0  0  0  0  0  0  0  0  0  0
   -0.4891   -1.7696   -1.7431 H   0  0  0  0  0  0  0  0  0  0  0  0
   -2.1003   -1.8066   -0.9487 H   0  0  0  0  0  0  0  0  0  0  0  0
   -0.9905   -3.1596   -0.8183 H   0  0  0  0  0  0  0  0  0  0  0  0
   -2.4865   -9.8114    1.2936 H   0  0  0  0  0  0  0  0  0  0  0  0
   -3.9943   -8.7391    2.9478 H   0  0  0  0  0  0  0  0  0  0  0  0
   -0.3045   -8.7588    0.7483 H   0  0  0  0  0  0  0  0  0  0  0  0
   -3.3583   -6.7501    4.0721 H   0  0  0  0  0  0  0  0  0  0  0  0
    0.4608   -6.7984    1.9861 H   0  0  0  0  0  0  0  0  0  0  0  0
    1.8672    2.3449    1.5042 H   0  0  0  0  0  0  0  0  0  0  0  0
    1.9872    0.7209    1.1565 H   0  0  0  0  0  0  0  0  0  0  0  0
   -0.9911    0.9162    2.0777 H   0  0  0  0  0  0  0  0  0  0  0  0
   -0.0934    2.2124    2.7379 H   0  0  0  0  0  0  0  0  0  0  0  0
   -1.0657   -4.3654    1.7735 H   0  0  0  0  0  0  0  0  0  0  0  0
   -0.8680   -3.6250    0.7395 H   0  0  0  0  0  0  0  0  0  0  0  0
    2.5728   -2.5120    1.6505 H   0  0  0  0  0  0  0  0  0  0  0  0
    1.6618   -3.1034    0.2732 H   0  0  0  0  0  0  0  0  0  0  0  0
    0.0195    0.1012   -1.1232 H   0  0  0  0  0  0  0  0  0  0  0  0
   -1.6353    0.3534   -0.5496 H   0  0  0  0  0  0  0  0  0  0  0  0
   -2.0109   -3.7055    5.0431 H   0  0  0  0  0  0  0  0  0  0  0  0
   -2.9377   -5.1450    4.9933 H   0  0  0  0  0  0  0  0  0  0  0  0
   -0.4021    2.3651   -0.0633 H   0  0  0  0  0  0  0  0  0  0  0  0
   -0.9211   -6.0558    6.1449 H   0  0  0  0  0  0  0  0  0  0  0  0
  1 33  1  0  0  0  0
  1 34  1  0  0  0  0
  1 35  1  0  0  0  0
  2 36  1  0  0  0  0
  3  2  2  0  0  0  0
  3 37  1  0  0  0  0
  4  2  1  0  0  0  0
  4 38  1  0  0  0  0
  5  3  1  0  0  0  0
  5 39  1  0  0  0  0
  6  4  2  0  0  0  0
  6 40  1  0  0  0  0
  7 41  1  0  0  0  0
  7 42  1  0  0  0  0
  8  7  1  0  0  0  0
  8 43  1  0  0  0  0
  8 44  1  0  0  0  0
  9 45  1  0  0  0  0
  9 46  1  0  0  0  0
 10 47  1  0  0  0  0
 10 48  1  0  0  0  0
 11 49  1  0  0  0  0
 11 50  1  0  0  0  0
 12 51  1  0  0  0  0
 12 52  1  0  0  0  0
 13  7  1  0  0  0  0
 13  8  1  0  0  0  0
 13 11  1  0  0  0  0
 13 53  1  0  0  0  0
 14  5  2  0  0  0  0
 14  6  1  0  0  0  0
 15  9  1  0  0  0  0
 15 10  1  0  0  0  0
 15 25  1  0  0  0  0
 15 27  1  1  0  0  0
 16 28  1  6  0  0  0
 16 14  1  0  0  0  0
 16 12  1  0  0  0  0
 17  9  1  0  0  0  0
 17 29  1  1  0  0  0
 18 10  1  0  0  0  0
 18 30  1  1  0  0  0
 19 17  1  0  0  0  0
 19 31  1  1  0  0  0
 20 18  1  0  0  0  0
 20 19  1  0  0  0  0
 20 32  1  1  0  0  0
 21 16  1  0  0  0  0
 22 17  1  0  0  0  0
 22 18  1  0  0  0  0
 22  1  1  0  0  0  0
 22 11  1  0  0  0  0
 23 12  1  0  0  0  0
 23 54  1  0  0  0  0
 24 21  2  0  0  0  0
 25 21  1  0  0  0  0
 26 19  1  0  0  0  0
 26 20  1  0  0  0  0
M  CHG  1  22   1
M  END
>  <DRUGBANK_ID>
DB09271

>  <COMMON_NAME>
Cimetropium

>  <CAS_NUMBER>
150521-16-7

>  <UNII>
1N3H74AYTK

>  <SYNONYMS>
Cimetropium cation; Cimetropium ion

$$$$
