
 OpenBabel10282417183D

  2  1  0  0  0  0  0  0  0  0999 V2000
    0.9680    0.0718    0.0481 Cl  0  0  0  0  0  0  0  0  0  0  0  0
    2.6114    0.0718    0.0481 O   0  5  0  0  0  0  0  0  0  0  0  0
  2  1  1  0  0  0  0
M  CHG  1   2  -1
M  END
>  <DRUGBANK_ID>
DB11123

>  <COMMON_NAME>
Hypochlorite

>  <CAS_NUMBER>
14380-61-1

>  <UNII>
T5UM7HB19N

>  <SYNONYMS>
Hypochlorit

$$$$
