589
 OpenBabel10282417103D

 51 54  0  0  1  0  0  0  0  0999 V2000
    0.7565   -0.1719    0.4363 O   0  0  0  0  0  0  0  0  0  0  0  0
    5.9868   -0.2979   -0.9818 N   0  0  0  0  0  0  0  0  0  0  0  0
    2.8927   -0.3312    1.2243 N   0  0  0  0  0  0  0  0  0  0  0  0
    7.0610   -5.8609   -2.1765 N   0  0  0  0  0  0  0  0  0  0  0  0
    2.3766    0.4683   -1.0053 N   0  0  0  0  0  0  0  0  0  0  0  0
    6.0369   -1.7453   -0.9973 C   0  0  1  0  0  0  0  0  0  0  0  0
    5.6053   -2.4202    0.3727 C   0  0  0  0  0  0  0  0  0  0  0  0
    5.4317   -2.5578   -2.2104 C   0  0  0  0  0  0  0  0  0  0  0  0
    4.4679   -0.5480    1.4418 C   0  0  2  0  0  0  0  0  0  0  0  0
    5.5636    0.1452    0.4975 C   0  0  0  0  0  0  0  0  0  0  0  0
    6.0230   -3.9146   -2.0576 C   0  0  0  0  0  0  0  0  0  0  0  0
    6.1554   -3.7493    0.4906 C   0  0  0  0  0  0  0  0  0  0  0  0
    6.3329   -4.3703   -0.7501 C   0  0  0  0  0  0  0  0  0  0  0  0
    4.8872   -1.9423    1.4132 C   0  0  0  0  0  0  0  0  0  0  0  0
    6.9734   -5.5796   -0.8298 C   0  0  0  0  0  0  0  0  0  0  0  0
    5.9166    0.3754   -2.4078 C   0  0  0  0  0  0  0  0  0  0  0  0
    6.4986   -4.8519   -2.9346 C   0  0  0  0  0  0  0  0  0  0  0  0
    6.5570   -4.3613    1.6647 C   0  0  0  0  0  0  0  0  0  0  0  0
    7.3866   -6.2335    0.3374 C   0  0  0  0  0  0  0  0  0  0  0  0
    7.1501   -5.6069    1.5802 C   0  0  0  0  0  0  0  0  0  0  0  0
    1.9250   -0.0412    0.2146 C   0  0  0  0  0  0  0  0  0  0  0  0
    1.7959    0.3759   -2.3667 C   0  0  0  0  0  0  0  0  0  0  0  0
    3.7213    0.5199   -1.1398 C   0  0  0  0  0  0  0  0  0  0  0  0
    2.2889    1.5872   -3.1992 C   0  0  0  0  0  0  0  0  0  0  0  0
    4.5505    2.0591   -0.8021 C   0  0  0  0  0  0  0  0  0  0  0  0
    7.1233   -1.8730   -1.0890 H   0  0  0  0  0  0  0  0  0  0  0  0
    2.3707   -0.4409    2.0914 H   0  0  0  0  0  0  0  0  0  0  0  0
    7.5004   -6.6836   -2.5558 H   0  0  0  0  0  0  0  0  0  0  0  0
    4.3340   -2.6146   -2.1791 H   0  0  0  0  0  0  0  0  0  0  0  0
    5.7138   -2.1566   -3.1887 H   0  0  0  0  0  0  0  0  0  0  0  0
    4.6225   -0.0942    2.4402 H   0  0  0  0  0  0  0  0  0  0  0  0
    6.4425    0.4973    1.0290 H   0  0  0  0  0  0  0  0  0  0  0  0
    4.8768    0.9237    0.6342 H   0  0  0  0  0  0  0  0  0  0  0  0
    4.7663   -2.4698    2.3541 H   0  0  0  0  0  0  0  0  0  0  0  0
    6.8297    0.8456   -2.7578 H   0  0  0  0  0  0  0  0  0  0  0  0
    5.4804   -0.2476   -3.2229 H   0  0  0  0  0  0  0  0  0  0  0  0
    5.2228    1.2219   -2.5887 H   0  0  0  0  0  0  0  0  0  0  0  0
    6.5120   -4.8767   -4.0162 H   0  0  0  0  0  0  0  0  0  0  0  0
    6.4266   -3.8697    2.6245 H   0  0  0  0  0  0  0  0  0  0  0  0
    7.8746   -7.1956    0.3015 H   0  0  0  0  0  0  0  0  0  0  0  0
    7.4443   -6.0891    2.5065 H   0  0  0  0  0  0  0  0  0  0  0  0
    2.2010   -0.5307   -2.8742 H   0  0  0  0  0  0  0  0  0  0  0  0
    0.7244    0.2547   -2.3377 H   0  0  0  0  0  0  0  0  0  0  0  0
    3.9467   -0.4385   -0.6555 H   0  0  0  0  0  0  0  0  0  0  0  0
    3.9068    0.0404   -2.1060 H   0  0  0  0  0  0  0  0  0  0  0  0
    3.3435    1.5207   -3.5192 H   0  0  0  0  0  0  0  0  0  0  0  0
    1.7296    1.6962   -4.1235 H   0  0  0  0  0  0  0  0  0  0  0  0
    2.2259    2.4920   -2.5884 H   0  0  0  0  0  0  0  0  0  0  0  0
    4.5611    2.4451    0.2418 H   0  0  0  0  0  0  0  0  0  0  0  0
    5.6693    2.0160   -0.9410 H   0  0  0  0  0  0  0  0  0  0  0  0
    4.2002    2.8831   -1.3899 H   0  0  0  0  0  0  0  0  0  0  0  0
  1 21  2  0  0  0  0
  2  6  1  0  0  0  0
  2 10  1  0  0  0  0
  2 16  1  0  0  0  0
  3 21  1  0  0  0  0
  3 27  1  0  0  0  0
  4 15  1  0  0  0  0
  4 17  1  0  0  0  0
  4 28  1  0  0  0  0
  5 21  1  0  0  0  0
  5 22  1  0  0  0  0
  5 23  1  0  0  0  0
  6  7  1  0  0  0  0
  6  8  1  0  0  0  0
  6 26  1  6  0  0  0
  7 12  1  0  0  0  0
  7 14  2  0  0  0  0
  8 11  1  0  0  0  0
  8 29  1  0  0  0  0
  8 30  1  0  0  0  0
  9  3  1  0  0  0  0
  9 10  1  0  0  0  0
  9 14  1  0  0  0  0
  9 31  1  1  0  0  0
 10 32  1  0  0  0  0
 10 33  1  0  0  0  0
 11 13  1  0  0  0  0
 11 17  2  0  0  0  0
 12 13  2  0  0  0  0
 12 18  1  0  0  0  0
 13 15  1  0  0  0  0
 14 34  1  0  0  0  0
 15 19  2  0  0  0  0
 16 35  1  0  0  0  0
 16 36  1  0  0  0  0
 16 37  1  0  0  0  0
 17 38  1  0  0  0  0
 18 20  2  0  0  0  0
 18 39  1  0  0  0  0
 19 20  1  0  0  0  0
 19 40  1  0  0  0  0
 20 41  1  0  0  0  0
 22 24  1  0  0  0  0
 22 42  1  0  0  0  0
 22 43  1  0  0  0  0
 23 25  1  0  0  0  0
 23 44  1  0  0  0  0
 23 45  1  0  0  0  0
 24 46  1  0  0  0  0
 24 47  1  0  0  0  0
 24 48  1  0  0  0  0
 25 49  1  0  0  0  0
 25 50  1  0  0  0  0
 25 51  1  0  0  0  0
M  END
>  <DRUGBANK_ID>
DB00589

>  <SECONDARY_ACCESSION_NUMBERS>
APRD00636

>  <COMMON_NAME>
Lisuride

>  <CAS_NUMBER>
18016-80-3

>  <UNII>
E0QN3D755O

>  <SYNONYMS>
Lisurid; Lisurida; Lisuride; Lisuridum; N'-((8alpha)-9,10-Didehydro-6-methylergolin-8-yl)-N,N-diethylurea

$$$$
