
 OpenBabel10282417213D

 43 44  0  0  0  0  0  0  0  0999 V2000
    1.0453   -0.1151   -0.0195 N   0  0  0  0  0  0  0  0  0  0  0  0
    0.3084   -0.7747   -0.9729 C   0  0  0  0  0  0  0  0  0  0  0  0
    1.0458   -1.3682   -1.9662 N   0  0  0  0  0  0  0  0  0  0  0  0
   -0.9171   -0.7981   -0.9469 O   0  0  0  0  0  0  0  0  0  0  0  0
    0.4207   -2.1619   -3.0035 C   0  0  0  0  0  0  0  0  0  0  0  0
    0.8712   -1.7461   -4.3200 N   0  0  0  0  0  0  0  0  0  0  0  0
    1.3795   -2.6600   -5.1976 C   0  0  0  0  0  0  0  0  0  0  0  0
    1.5863   -2.2156   -6.4761 N   0  0  0  0  0  0  0  0  0  0  0  0
    1.5957   -3.8198   -4.8593 O   0  0  0  0  0  0  0  0  0  0  0  0
    2.1831   -3.0697   -7.4980 C   0  0  3  0  0  0  0  0  0  0  0  0
    1.8124   -4.4637   -7.4694 N   0  0  0  0  0  0  0  0  0  0  0  0
    3.7145   -3.2033   -7.3080 C   0  0  0  0  0  0  0  0  0  0  0  0
    2.8869   -5.2744   -7.1620 C   0  0  0  0  0  0  0  0  0  0  0  0
    0.4838   -4.9547   -7.6831 C   0  0  0  0  0  0  0  0  0  0  0  0
    4.0020   -4.5101   -7.0631 N   0  0  0  0  0  0  0  0  0  0  0  0
    4.5340   -2.2952   -7.3293 O   0  0  0  0  0  0  0  0  0  0  0  0
    2.8702   -6.4905   -7.0327 O   0  0  0  0  0  0  0  0  0  0  0  0
   -0.3996   -4.3439   -6.7694 O   0  0  0  0  0  0  0  0  0  0  0  0
    0.3744    0.7151    0.9653 C   0  0  3  0  0  0  0  0  0  0  0  0
    0.3823    2.1276    0.6300 N   0  0  0  0  0  0  0  0  0  0  0  0
    1.0819    0.7994    2.3485 C   0  0  0  0  0  0  0  0  0  0  0  0
    0.8468    2.9112    1.6643 C   0  0  0  0  0  0  0  0  0  0  0  0
   -0.3308    2.6702   -0.4877 C   0  0  0  0  0  0  0  0  0  0  0  0
    1.3094    2.1093    2.6469 N   0  0  0  0  0  0  0  0  0  0  0  0
    1.4021   -0.1312    3.0731 O   0  0  0  0  0  0  0  0  0  0  0  0
    0.8604    4.1342    1.7042 O   0  0  0  0  0  0  0  0  0  0  0  0
    0.3285    2.2474   -1.6595 O   0  0  0  0  0  0  0  0  0  0  0  0
    2.0503   -0.0883   -0.0702 H   0  0  0  0  0  0  0  0  0  0  0  0
    2.0428   -1.4691   -1.8754 H   0  0  0  0  0  0  0  0  0  0  0  0
    0.6670   -3.2145   -2.8163 H   0  0  0  0  0  0  0  0  0  0  0  0
   -0.6719   -2.0823   -2.9693 H   0  0  0  0  0  0  0  0  0  0  0  0
    0.5292   -0.8575   -4.6495 H   0  0  0  0  0  0  0  0  0  0  0  0
    1.4918   -1.2363   -6.6963 H   0  0  0  0  0  0  0  0  0  0  0  0
    1.9892   -2.6631   -8.4984 H   0  0  0  0  0  0  0  0  0  0  0  0
    0.1672   -4.7153   -8.7003 H   0  0  0  0  0  0  0  0  0  0  0  0
    0.4400   -6.0362   -7.5311 H   0  0  0  0  0  0  0  0  0  0  0  0
    4.9119   -4.8744   -6.8389 H   0  0  0  0  0  0  0  0  0  0  0  0
    0.0066   -4.5192   -5.8967 H   0  0  0  0  0  0  0  0  0  0  0  0
   -0.6554    0.3834    1.1450 H   0  0  0  0  0  0  0  0  0  0  0  0
   -1.3713    2.3329   -0.4854 H   0  0  0  0  0  0  0  0  0  0  0  0
   -0.3139    3.7644   -0.4674 H   0  0  0  0  0  0  0  0  0  0  0  0
    1.7399    2.4495    3.4914 H   0  0  0  0  0  0  0  0  0  0  0  0
    1.2602    2.4746   -1.5127 H   0  0  0  0  0  0  0  0  0  0  0  0
  1 19  1  0  0  0  0
  1 28  1  0  0  0  0
  2  1  1  0  0  0  0
  3  2  1  0  0  0  0
  3 29  1  0  0  0  0
  4  2  2  0  0  0  0
  5  3  1  0  0  0  0
  5 30  1  0  0  0  0
  5 31  1  0  0  0  0
  6  5  1  0  0  0  0
  6 32  1  0  0  0  0
  7  6  1  0  0  0  0
  8  7  1  0  0  0  0
  8 33  1  0  0  0  0
  9  7  2  0  0  0  0
 10  8  1  0  0  0  0
 10 34  1  0  0  0  0
 11 10  1  0  0  0  0
 12 10  1  0  0  0  0
 13 11  1  0  0  0  0
 14 11  1  0  0  0  0
 14 35  1  0  0  0  0
 14 36  1  0  0  0  0
 15 12  1  0  0  0  0
 15 13  1  0  0  0  0
 15 37  1  0  0  0  0
 16 12  2  0  0  0  0
 17 13  2  0  0  0  0
 18 14  1  0  0  0  0
 18 38  1  0  0  0  0
 19 39  1  0  0  0  0
 20 19  1  0  0  0  0
 21 19  1  0  0  0  0
 22 20  1  0  0  0  0
 23 20  1  0  0  0  0
 23 40  1  0  0  0  0
 23 41  1  0  0  0  0
 24 21  1  0  0  0  0
 24 22  1  0  0  0  0
 24 42  1  0  0  0  0
 25 21  2  0  0  0  0
 26 22  2  0  0  0  0
 27 23  1  0  0  0  0
 27 43  1  0  0  0  0
M  END
>  <DRUGBANK_ID>
DB14075

>  <COMMON_NAME>
Imidurea

>  <CAS_NUMBER>
39236-46-9

>  <UNII>
M629807ATL

>  <SYNONYMS>
Imidazolidinyl urea

$$$$
