
 OpenBabel10282417223D

 31 33  0  0  0  0  0  0  0  0999 V2000
    0.0488   -1.0582    0.0446 C   0  0  0  0  0  0  0  0  0  0  0  0
   -0.4085    0.2655    0.0223 C   0  0  0  0  0  0  0  0  0  0  0  0
   -0.7953   -2.1513    0.0704 O   0  0  0  0  0  0  0  0  0  0  0  0
    1.4224   -1.3198    0.0365 C   0  0  0  0  0  0  0  0  0  0  0  0
   -1.8684    0.4922   -0.0048 C   0  0  0  0  0  0  0  0  0  0  0  0
    0.5170    1.3214    0.0053 C   0  0  0  0  0  0  0  0  0  0  0  0
   -2.1587   -1.9226   -0.0239 C   0  0  0  0  0  0  0  0  0  0  0  0
    2.3269   -0.2596   -0.0020 C   0  0  0  0  0  0  0  0  0  0  0  0
   -2.7171   -0.7060   -0.0618 C   0  0  0  0  0  0  0  0  0  0  0  0
   -2.4038    1.5943    0.0046 O   0  0  0  0  0  0  0  0  0  0  0  0
    1.8881    1.0614   -0.0137 C   0  0  0  0  0  0  0  0  0  0  0  0
    0.0907    2.6192    0.0004 O   0  0  0  0  0  0  0  0  0  0  0  0
   -3.0181   -3.1233   -0.0833 C   0  0  0  0  0  0  0  0  0  0  0  0
    3.6586   -0.5554   -0.0320 O   0  0  0  0  0  0  0  0  0  0  0  0
   -3.0436   -4.0632    0.9629 C   0  0  0  0  0  0  0  0  0  0  0  0
   -3.8730   -3.3119   -1.1857 C   0  0  0  0  0  0  0  0  0  0  0  0
   -3.9254   -5.1480    0.9006 C   0  0  0  0  0  0  0  0  0  0  0  0
   -4.7458   -4.4014   -1.2417 C   0  0  0  0  0  0  0  0  0  0  0  0
   -4.7718   -5.3079   -0.1949 C   0  0  0  0  0  0  0  0  0  0  0  0
   -4.0037   -6.0812    1.8995 O   0  0  0  0  0  0  0  0  0  0  0  0
   -5.6496   -6.3522   -0.2663 O   0  0  0  0  0  0  0  0  0  0  0  0
    1.7893   -2.3428    0.0488 H   0  0  0  0  0  0  0  0  0  0  0  0
   -3.7836   -0.5326   -0.1306 H   0  0  0  0  0  0  0  0  0  0  0  0
    2.6012    1.8785   -0.0431 H   0  0  0  0  0  0  0  0  0  0  0  0
    0.8360    3.2386   -0.0060 H   0  0  0  0  0  0  0  0  0  0  0  0
    4.1715    0.2696   -0.0768 H   0  0  0  0  0  0  0  0  0  0  0  0
   -2.3942   -3.9257    1.8224 H   0  0  0  0  0  0  0  0  0  0  0  0
   -3.8731   -2.6049   -2.0131 H   0  0  0  0  0  0  0  0  0  0  0  0
   -5.4053   -4.5381   -2.0931 H   0  0  0  0  0  0  0  0  0  0  0  0
   -3.3610   -5.8512    2.5924 H   0  0  0  0  0  0  0  0  0  0  0  0
   -5.5242   -6.8586    0.5590 H   0  0  0  0  0  0  0  0  0  0  0  0
  1  2  1  0  0  0  0
  1  3  1  0  0  0  0
  1  4  2  0  0  0  0
  2  5  1  0  0  0  0
  2  6  2  0  0  0  0
  3  7  1  0  0  0  0
  4  8  1  0  0  0  0
  4 22  1  0  0  0  0
  5  9  1  0  0  0  0
  5 10  2  0  0  0  0
  6 11  1  0  0  0  0
  6 12  1  0  0  0  0
  7 13  1  0  0  0  0
  7  9  2  0  0  0  0
  8 14  1  0  0  0  0
  8 11  2  0  0  0  0
  9 23  1  0  0  0  0
 11 24  1  0  0  0  0
 12 25  1  0  0  0  0
 13 15  1  0  0  0  0
 13 16  2  0  0  0  0
 14 26  1  0  0  0  0
 15 17  2  0  0  0  0
 15 27  1  0  0  0  0
 16 18  1  0  0  0  0
 16 28  1  0  0  0  0
 17 19  1  0  0  0  0
 17 20  1  0  0  0  0
 18 19  2  0  0  0  0
 18 29  1  0  0  0  0
 19 21  1  0  0  0  0
 20 30  1  0  0  0  0
 21 31  1  0  0  0  0
M  END
>  <DRUGBANK_ID>
DB15584

>  <COMMON_NAME>
Luteolin

>  <CAS_NUMBER>
491-70-3

>  <UNII>
KUX1ZNC9J2

>  <SYNONYMS>
Digitoflavone; Flacitran; Luteoline; Luteolol; Salifazide

$$$$
