
 OpenBabel10282417193D

 95100  0  0  0  0  0  0  0  0999 V2000
    3.2111    1.1488   -4.0095 C   0  0  0  0  0  0  0  0  0  0  0  0
    4.5833    2.0450   -4.2248 C   0  0  0  0  0  0  0  0  0  0  0  0
    5.9759    1.6243   -3.9051 C   0  0  0  0  0  0  0  0  0  0  0  0
    6.9986    2.5112   -3.4136 C   0  0  0  0  0  0  0  0  0  0  0  0
    6.7409    3.9379   -3.6401 C   0  0  0  0  0  0  0  0  0  0  0  0
    5.5100    4.2691   -4.3302 C   0  0  0  0  0  0  0  0  0  0  0  0
    4.4206    3.3853   -4.5139 C   0  0  0  0  0  0  0  0  0  0  0  0
    2.6927    0.7000   -5.0881 O   0  0  0  0  0  0  0  0  0  0  0  0
    2.4601    0.7574   -2.8338 N   0  0  0  0  0  0  0  0  0  0  0  0
    8.0747    1.9394   -2.6647 O   0  0  0  0  0  0  0  0  0  0  0  0
    8.1013    0.5260   -2.0333 C   0  0  0  0  0  0  0  0  0  0  0  0
    7.3490    5.1084   -3.0105 N   0  0  0  0  0  0  0  0  0  0  0  0
    6.1567    7.1948   -3.4656 N   0  0  0  0  0  0  0  0  0  0  0  0
    7.2940    6.4470   -3.5233 C   0  0  0  0  0  0  0  0  0  0  0  0
    8.3926    6.8858   -4.1476 N   0  0  0  0  0  0  0  0  0  0  0  0
    8.2960    8.0640   -4.8089 C   0  0  0  0  0  0  0  0  0  0  0  0
    7.1841    8.8859   -4.8117 C   0  0  0  0  0  0  0  0  0  0  0  0
    7.1091   10.0794   -5.5944 N   0  0  0  0  0  0  0  0  0  0  0  0
    5.8513   10.6569   -5.7693 C   0  0  0  0  0  0  0  0  0  0  0  0
    5.0411   10.5987   -4.4595 C   0  0  2  0  0  0  0  0  0  0  0  0
    4.9014    9.1880   -4.0116 N   0  0  0  0  0  0  0  0  0  0  0  0
    6.0835    8.4093   -4.0829 C   0  0  0  0  0  0  0  0  0  0  0  0
    5.4946   11.2207   -6.7992 O   0  0  0  0  0  0  0  0  0  0  0  0
    3.6208    8.6462   -3.5324 C   0  0  0  0  0  0  0  0  0  0  0  0
    3.0854    7.5812   -4.4805 C   0  0  0  0  0  0  0  0  0  0  0  0
    3.6707    8.1727   -2.0873 C   0  0  0  0  0  0  0  0  0  0  0  0
    8.2858   10.7205   -6.1510 C   0  0  0  0  0  0  0  0  0  0  0  0
    3.7527   11.4351   -4.5553 C   0  0  0  0  0  0  0  0  0  0  0  0
    3.4242   12.1032   -3.2194 C   0  0  0  0  0  0  0  0  0  0  0  0
    2.5703    0.8855   -1.3436 C   0  0  1  0  0  0  0  0  0  0  0  0
    3.8939    0.3336   -1.0051 C   0  0  0  0  0  0  0  0  0  0  0  0
    4.8101    1.3885   -1.5587 C   0  0  0  0  0  0  0  0  0  0  0  0
    4.6795    2.9264   -1.3810 C   0  0  1  0  0  0  0  0  0  0  0  0
    3.2042    3.3397   -1.4115 C   0  0  0  0  0  0  0  0  0  0  0  0
    2.2950    2.2982   -0.7925 C   0  0  0  0  0  0  0  0  0  0  0  0
    5.3936    3.3184   -0.1791 N   0  0  0  0  0  0  0  0  0  0  0  0
    6.9120    3.4525   -0.1556 C   0  0  0  0  0  0  0  0  0  0  0  0
    7.6144    2.1558    0.1652 C   0  0  0  0  0  0  0  0  0  0  0  0
    7.1061    1.0808    1.0047 N   0  0  0  0  0  0  0  0  0  0  0  0
    5.6924    0.9047    0.8845 C   0  0  0  0  0  0  0  0  0  0  0  0
    4.9733    2.2537    0.7166 C   0  0  0  0  0  0  0  0  0  0  0  0
    7.4314    1.1783    2.3775 C   0  0  0  0  0  0  0  0  0  0  0  0
    7.1869    2.5393    3.0040 C   0  0  0  0  0  0  0  0  0  0  0  0
    5.7638    2.8806    3.5188 C   0  0  0  0  0  0  0  0  0  0  0  0
    6.5226    3.8274    2.5658 C   0  0  0  0  0  0  0  0  0  0  0  0
    6.1551    0.5708   -3.6986 H   0  0  0  0  0  0  0  0  0  0  0  0
    5.3058    5.3069   -4.5719 H   0  0  0  0  0  0  0  0  0  0  0  0
    3.4364    3.7929   -4.7374 H   0  0  0  0  0  0  0  0  0  0  0  0
    1.8279   -0.0106   -3.0258 H   0  0  0  0  0  0  0  0  0  0  0  0
    7.2557    0.2474   -1.3933 H   0  0  0  0  0  0  0  0  0  0  0  0
    8.0403   -0.3022   -2.7214 H   0  0  0  0  0  0  0  0  0  0  0  0
    8.9106    0.4346   -1.2656 H   0  0  0  0  0  0  0  0  0  0  0  0
    8.2465    4.9727   -2.5672 H   0  0  0  0  0  0  0  0  0  0  0  0
    9.1672    8.2915   -5.4155 H   0  0  0  0  0  0  0  0  0  0  0  0
    5.6857   11.1118   -3.7264 H   0  0  0  0  0  0  0  0  0  0  0  0
    2.8493    9.4207   -3.5232 H   0  0  0  0  0  0  0  0  0  0  0  0
    3.7507    6.7227   -4.5245 H   0  0  0  0  0  0  0  0  0  0  0  0
    2.1051    7.2230   -4.1498 H   0  0  0  0  0  0  0  0  0  0  0  0
    2.9774    7.9757   -5.4969 H   0  0  0  0  0  0  0  0  0  0  0  0
    3.9864    8.9865   -1.4265 H   0  0  0  0  0  0  0  0  0  0  0  0
    2.6784    7.8386   -1.7645 H   0  0  0  0  0  0  0  0  0  0  0  0
    4.3483    7.3315   -1.9464 H   0  0  0  0  0  0  0  0  0  0  0  0
    8.9596   10.9732   -5.3215 H   0  0  0  0  0  0  0  0  0  0  0  0
    8.8019   10.0692   -6.8579 H   0  0  0  0  0  0  0  0  0  0  0  0
    8.0273   11.6627   -6.6478 H   0  0  0  0  0  0  0  0  0  0  0  0
    3.8594   12.2415   -5.2912 H   0  0  0  0  0  0  0  0  0  0  0  0
    2.9047   10.8426   -4.9109 H   0  0  0  0  0  0  0  0  0  0  0  0
    4.2085   12.8174   -2.9432 H   0  0  0  0  0  0  0  0  0  0  0  0
    2.4814   12.6538   -3.2882 H   0  0  0  0  0  0  0  0  0  0  0  0
    3.3363   11.3758   -2.4076 H   0  0  0  0  0  0  0  0  0  0  0  0
    1.8869    0.2048   -0.8114 H   0  0  0  0  0  0  0  0  0  0  0  0
    3.8720    0.0371    0.0395 H   0  0  0  0  0  0  0  0  0  0  0  0
    4.1802   -0.6139   -1.5078 H   0  0  0  0  0  0  0  0  0  0  0  0
    5.8290    1.1486   -1.5129 H   0  0  0  0  0  0  0  0  0  0  0  0
    4.6631    1.0054   -2.5145 H   0  0  0  0  0  0  0  0  0  0  0  0
    5.1123    3.5881   -2.0994 H   0  0  0  0  0  0  0  0  0  0  0  0
    3.0802    4.3463   -0.9961 H   0  0  0  0  0  0  0  0  0  0  0  0
    2.8684    3.4333   -2.4474 H   0  0  0  0  0  0  0  0  0  0  0  0
    1.2584    2.5628   -0.9813 H   0  0  0  0  0  0  0  0  0  0  0  0
    2.3593    2.3332    0.2981 H   0  0  0  0  0  0  0  0  0  0  0  0
    7.3333    3.9042   -1.0482 H   0  0  0  0  0  0  0  0  0  0  0  0
    7.3721    4.1215    0.5715 H   0  0  0  0  0  0  0  0  0  0  0  0
    7.2885    1.8301   -0.7645 H   0  0  0  0  0  0  0  0  0  0  0  0
    8.7052    2.1725    0.0841 H   0  0  0  0  0  0  0  0  0  0  0  0
    5.7122    0.1789    0.0828 H   0  0  0  0  0  0  0  0  0  0  0  0
    5.1637    0.3297    1.6571 H   0  0  0  0  0  0  0  0  0  0  0  0
    5.3036    2.6914    1.5530 H   0  0  0  0  0  0  0  0  0  0  0  0
    3.9454    2.3268    1.0336 H   0  0  0  0  0  0  0  0  0  0  0  0
    6.9054    0.3635    2.9098 H   0  0  0  0  0  0  0  0  0  0  0  0
    8.4790    0.8581    2.4031 H   0  0  0  0  0  0  0  0  0  0  0  0
    8.1037    2.7593    3.5177 H   0  0  0  0  0  0  0  0  0  0  0  0
    4.9951    2.1438    3.1630 H   0  0  0  0  0  0  0  0  0  0  0  0
    5.0170    3.6069    3.8461 H   0  0  0  0  0  0  0  0  0  0  0  0
    7.0353    4.7791    2.6345 H   0  0  0  0  0  0  0  0  0  0  0  0
    5.8785    4.2377    1.7772 H   0  0  0  0  0  0  0  0  0  0  0  0
  1  2  1  0  0  0  0
  1  8  2  0  0  0  0
  1  9  1  0  0  0  0
  2  3  1  0  0  0  0
  2  7  2  0  0  0  0
  3  4  2  0  0  0  0
  3 46  1  0  0  0  0
  4  5  1  0  0  0  0
  4 10  1  0  0  0  0
  5  6  2  0  0  0  0
  5 12  1  0  0  0  0
  6  7  1  0  0  0  0
  6 47  1  0  0  0  0
  7 48  1  0  0  0  0
  9 49  1  0  0  0  0
 10 11  1  0  0  0  0
 11 50  1  0  0  0  0
 11 51  1  0  0  0  0
 11 52  1  0  0  0  0
 12 14  1  0  0  0  0
 12 53  1  0  0  0  0
 13 14  1  0  0  0  0
 13 22  2  0  0  0  0
 14 15  2  0  0  0  0
 15 16  1  0  0  0  0
 16 17  2  0  0  0  0
 16 54  1  0  0  0  0
 17 18  1  0  0  0  0
 17 22  1  0  0  0  0
 18 19  1  0  0  0  0
 18 27  1  0  0  0  0
 19 20  1  0  0  0  0
 19 23  2  0  0  0  0
 20 21  1  0  0  0  0
 20 55  1  1  0  0  0
 20 28  1  0  0  0  0
 21 22  1  0  0  0  0
 21 24  1  0  0  0  0
 24 25  1  0  0  0  0
 24 26  1  0  0  0  0
 24 56  1  0  0  0  0
 25 57  1  0  0  0  0
 25 58  1  0  0  0  0
 25 59  1  0  0  0  0
 26 60  1  0  0  0  0
 26 61  1  0  0  0  0
 26 62  1  0  0  0  0
 27 63  1  0  0  0  0
 27 64  1  0  0  0  0
 27 65  1  0  0  0  0
 28 29  1  0  0  0  0
 28 66  1  0  0  0  0
 28 67  1  0  0  0  0
 29 68  1  0  0  0  0
 29 69  1  0  0  0  0
 29 70  1  0  0  0  0
 30 31  1  0  0  0  0
 30 35  1  0  0  0  0
 30 71  1  1  0  0  0
 30  9  1  0  0  0  0
 31 32  1  0  0  0  0
 31 72  1  0  0  0  0
 31 73  1  0  0  0  0
 32 33  1  0  0  0  0
 32 74  1  0  0  0  0
 32 75  1  0  0  0  0
 33 34  1  0  0  0  0
 33 36  1  0  0  0  0
 33 76  1  6  0  0  0
 34 35  1  0  0  0  0
 34 77  1  0  0  0  0
 34 78  1  0  0  0  0
 35 79  1  0  0  0  0
 35 80  1  0  0  0  0
 36 37  1  0  0  0  0
 36 41  1  0  0  0  0
 37 38  1  0  0  0  0
 37 81  1  0  0  0  0
 37 82  1  0  0  0  0
 38 39  1  0  0  0  0
 38 83  1  0  0  0  0
 38 84  1  0  0  0  0
 39 40  1  0  0  0  0
 39 42  1  0  0  0  0
 40 41  1  0  0  0  0
 40 85  1  0  0  0  0
 40 86  1  0  0  0  0
 41 87  1  0  0  0  0
 41 88  1  0  0  0  0
 42 43  1  0  0  0  0
 42 89  1  0  0  0  0
 42 90  1  0  0  0  0
 43 44  1  0  0  0  0
 43 45  1  0  0  0  0
 43 91  1  0  0  0  0
 44 45  1  0  0  0  0
 44 92  1  0  0  0  0
 44 93  1  0  0  0  0
 45 94  1  0  0  0  0
 45 95  1  0  0  0  0
M  END
>  <DRUGBANK_ID>
DB12062

>  <COMMON_NAME>
Volasertib

>  <CAS_NUMBER>
755038-65-4

>  <UNII>
6EM57086EA

>  <SYNONYMS>
Volasertib

$$$$
