
 OpenBabel10282417133D

 78 83  0  0  1  0  0  0  0  0999 V2000
    0.9955    0.0742    0.0669 P   0  0  3  0  0  0  0  0  0  0  0  0
    1.8510   -3.2954   -3.3192 P   0  0  3  0  0  0  0  0  0  0  0  0
    2.6265   -0.9102   -2.0192 P   0  0  3  0  0  0  0  0  0  0  0  0
   -1.0139    2.8950    3.1054 O   0  0  0  0  0  0  0  0  0  0  0  0
    3.9509   -5.0281   -6.4293 O   0  0  0  0  0  0  0  0  0  0  0  0
   -3.6285    1.8390    0.6430 O   0  0  0  0  0  0  0  0  0  0  0  0
    4.7418   -8.4234   -5.4763 O   0  0  0  0  0  0  0  0  0  0  0  0
   -2.0345    0.0926    1.9612 O   0  0  0  0  0  0  0  0  0  0  0  0
    2.7952   -7.2232   -4.2684 O   0  0  0  0  0  0  0  0  0  0  0  0
    0.9428    1.7287    0.2082 O   0  0  0  0  0  0  0  0  0  0  0  0
    3.4723   -3.4468   -3.1356 O   0  0  0  0  0  0  0  0  0  0  0  0
    0.9955   -0.6641   -1.4976 O   0  0  0  0  0  0  0  0  0  0  0  0
    2.0499   -1.5868   -3.5033 O   0  0  0  0  0  0  0  0  0  0  0  0
   -0.7345    0.0742    0.0669 O   0  0  0  0  0  0  0  0  0  0  0  0
    1.2975   -3.0022   -1.8079 O   0  0  0  0  0  0  0  0  0  0  0  0
    2.5438    0.0742    0.0669 O   0  0  0  0  0  0  0  0  0  0  0  0
    1.6729   -4.8247   -3.1545 O   0  0  0  0  0  0  0  0  0  0  0  0
   -1.0753    8.4119    0.0991 O   0  0  0  0  0  0  0  0  0  0  0  0
    9.2187   -5.2823   -9.9500 O   0  0  0  0  0  0  0  0  0  0  0  0
    2.5114    0.6667   -2.5282 O   0  0  0  0  0  0  0  0  0  0  0  0
    4.0863   -1.1304   -2.4859 O   0  0  0  0  0  0  0  0  0  0  0  0
   -2.2854    4.4995    2.0067 N   0  0  0  0  0  0  0  0  0  0  0  0
    5.3941   -6.2559   -7.7189 N   0  0  0  0  0  0  0  0  0  0  0  0
   -0.2677    4.5362    0.6159 N   0  0  0  0  0  0  0  0  0  0  0  0
    7.0460   -4.8453   -6.5838 N   0  0  0  0  0  0  0  0  0  0  0  0
   -2.9161    6.5845    1.7082 N   0  0  0  0  0  0  0  0  0  0  0  0
    6.4924   -6.5480   -9.6281 N   0  0  0  0  0  0  0  0  0  0  0  0
    0.3375    6.6262   -0.2626 N   0  0  0  0  0  0  0  0  0  0  0  0
    9.0203   -4.4095   -7.8267 N   0  0  0  0  0  0  0  0  0  0  0  0
    1.6130    4.7012   -0.6211 N   0  0  0  0  0  0  0  0  0  0  0  0
    8.7275   -3.5944   -5.6908 N   0  0  0  0  0  0  0  0  0  0  0  0
   -2.4065    2.3444    1.1369 C   0  0  2  0  0  0  0  0  0  0  0  0
    4.8381   -7.0014   -5.4362 C   0  0  2  0  0  0  0  0  0  0  0  0
   -1.4694    1.3411    1.6598 C   0  0  1  0  0  0  0  0  0  0  0  0
    3.9269   -6.3490   -4.4110 C   0  0  1  0  0  0  0  0  0  0  0  0
   -2.3060    3.1351    2.4024 C   0  0  1  0  0  0  0  0  0  0  0  0
    4.3558   -6.3645   -6.7353 C   0  0  1  0  0  0  0  0  0  0  0  0
   -0.3444    1.7751    2.5232 C   0  0  1  0  0  0  0  0  0  0  0  0
    3.5630   -4.9949   -5.0570 C   0  0  1  0  0  0  0  0  0  0  0  0
    1.0098    2.0905    1.6843 C   0  0  0  0  0  0  0  0  0  0  0  0
    4.1363   -3.7336   -4.3666 C   0  0  0  0  0  0  0  0  0  0  0  0
   -1.3439    5.0679    1.2128 C   0  0  0  0  0  0  0  0  0  0  0  0
    6.5580   -5.5701   -7.6027 C   0  0  0  0  0  0  0  0  0  0  0  0
   -3.2485    5.4246    2.2456 C   0  0  0  0  0  0  0  0  0  0  0  0
    5.3865   -6.8249   -8.9638 C   0  0  0  0  0  0  0  0  0  0  0  0
   -1.6983    6.3665    1.0724 C   0  0  0  0  0  0  0  0  0  0  0  0
    7.2371   -5.7598   -8.7705 C   0  0  0  0  0  0  0  0  0  0  0  0
   -0.8187    7.2420    0.2779 C   0  0  0  0  0  0  0  0  0  0  0  0
    8.5627   -5.1499   -8.9309 C   0  0  0  0  0  0  0  0  0  0  0  0
    0.5477    5.3606   -0.0954 C   0  0  0  0  0  0  0  0  0  0  0  0
    8.2863   -4.2932   -6.7605 C   0  0  0  0  0  0  0  0  0  0  0  0
   -3.8080    0.9745    1.0463 H   0  0  0  0  0  0  0  0  0  0  0  0
    3.8009   -8.6609   -5.3634 H   0  0  0  0  0  0  0  0  0  0  0  0
   -2.6481    0.1698    2.7054 H   0  0  0  0  0  0  0  0  0  0  0  0
    2.1944   -7.1133   -5.0222 H   0  0  0  0  0  0  0  0  0  0  0  0
   -1.0738    0.4460   -0.7763 H   0  0  0  0  0  0  0  0  0  0  0  0
    0.4890   -2.4459   -1.8746 H   0  0  0  0  0  0  0  0  0  0  0  0
    2.5683    1.2413   -1.7411 H   0  0  0  0  0  0  0  0  0  0  0  0
   -0.1134    3.5581    0.4542 H   0  0  0  0  0  0  0  0  0  0  0  0
    6.5617   -4.6650   -5.7199 H   0  0  0  0  0  0  0  0  0  0  0  0
    1.8665    3.7484   -0.3954 H   0  0  0  0  0  0  0  0  0  0  0  0
    2.3245    5.2548   -1.0839 H   0  0  0  0  0  0  0  0  0  0  0  0
    8.2052   -3.4327   -4.8443 H   0  0  0  0  0  0  0  0  0  0  0  0
    9.6296   -3.1408   -5.7749 H   0  0  0  0  0  0  0  0  0  0  0  0
   -1.9844    2.8399    0.2369 H   0  0  0  0  0  0  0  0  0  0  0  0
    5.8757   -6.7470   -5.2101 H   0  0  0  0  0  0  0  0  0  0  0  0
   -0.9281    1.5465    0.7832 H   0  0  0  0  0  0  0  0  0  0  0  0
    4.3960   -6.2428   -3.4265 H   0  0  0  0  0  0  0  0  0  0  0  0
   -3.1398    2.8549    3.0492 H   0  0  0  0  0  0  0  0  0  0  0  0
    3.5056   -6.9121   -7.1652 H   0  0  0  0  0  0  0  0  0  0  0  0
   -0.0797    1.0125    3.2672 H   0  0  0  0  0  0  0  0  0  0  0  0
    2.4820   -4.9046   -5.1377 H   0  0  0  0  0  0  0  0  0  0  0  0
    1.8784    1.5644    2.1062 H   0  0  0  0  0  0  0  0  0  0  0  0
    1.2845    3.1445    1.7758 H   0  0  0  0  0  0  0  0  0  0  0  0
    4.0179   -2.8606   -5.0218 H   0  0  0  0  0  0  0  0  0  0  0  0
    5.2098   -3.8214   -4.1714 H   0  0  0  0  0  0  0  0  0  0  0  0
   -4.1489    5.1912    2.8041 H   0  0  0  0  0  0  0  0  0  0  0  0
    4.5630   -7.4263   -9.3315 H   0  0  0  0  0  0  0  0  0  0  0  0
  1 10  1  0  0  0  0
  1 12  1  0  0  0  0
  1 14  1  0  0  0  0
  1 16  2  0  0  0  0
  2 11  1  0  0  0  0
  2 13  1  0  0  0  0
  2 15  1  0  0  0  0
  2 17  2  0  0  0  0
  3 12  1  0  0  0  0
  3 13  1  0  0  0  0
  3 20  1  0  0  0  0
  3 21  2  0  0  0  0
  4 36  1  0  0  0  0
  4 38  1  0  0  0  0
  5 37  1  0  0  0  0
  5 39  1  0  0  0  0
  6 52  1  0  0  0  0
  7 53  1  0  0  0  0
  8 54  1  0  0  0  0
  9 55  1  0  0  0  0
 10 40  1  0  0  0  0
 11 41  1  0  0  0  0
 14 56  1  0  0  0  0
 15 57  1  0  0  0  0
 18 48  2  0  0  0  0
 19 49  2  0  0  0  0
 20 58  1  0  0  0  0
 22 42  1  0  0  0  0
 22 44  1  0  0  0  0
 23 43  1  0  0  0  0
 23 45  1  0  0  0  0
 24 42  1  0  0  0  0
 24 50  1  0  0  0  0
 24 59  1  0  0  0  0
 25 43  1  0  0  0  0
 25 51  1  0  0  0  0
 25 60  1  0  0  0  0
 26 44  2  0  0  0  0
 26 46  1  0  0  0  0
 27 45  2  0  0  0  0
 27 47  1  0  0  0  0
 28 48  1  0  0  0  0
 28 50  2  0  0  0  0
 29 49  1  0  0  0  0
 29 51  2  0  0  0  0
 30 50  1  0  0  0  0
 30 61  1  0  0  0  0
 30 62  1  0  0  0  0
 31 51  1  0  0  0  0
 31 63  1  0  0  0  0
 31 64  1  0  0  0  0
 32  6  1  0  0  0  0
 32 34  1  0  0  0  0
 32 36  1  0  0  0  0
 32 65  1  6  0  0  0
 33  7  1  0  0  0  0
 33 35  1  0  0  0  0
 33 37  1  0  0  0  0
 33 66  1  1  0  0  0
 34  8  1  0  0  0  0
 34 38  1  0  0  0  0
 34 67  1  6  0  0  0
 35  9  1  0  0  0  0
 35 39  1  0  0  0  0
 35 68  1  1  0  0  0
 36 69  1  1  0  0  0
 36 22  1  0  0  0  0
 37 70  1  6  0  0  0
 37 23  1  0  0  0  0
 38 40  1  0  0  0  0
 38 71  1  1  0  0  0
 39 41  1  0  0  0  0
 39 72  1  1  0  0  0
 40 73  1  0  0  0  0
 40 74  1  0  0  0  0
 41 75  1  0  0  0  0
 41 76  1  0  0  0  0
 42 46  2  0  0  0  0
 43 47  2  0  0  0  0
 44 77  1  0  0  0  0
 45 78  1  0  0  0  0
 46 48  1  0  0  0  0
 47 49  1  0  0  0  0
M  END
>  <DRUGBANK_ID>
DB03931

>  <SECONDARY_ACCESSION_NUMBERS>
EXPT01633

>  <COMMON_NAME>
Diguanosine-5'-Triphosphate

$$$$
