
 OpenBabel10282417123D

 35 36  0  0  0  0  0  0  0  0999 V2000
    0.7998   -0.0888    0.2316 N   0  0  0  0  0  0  0  0  0  0  0  0
    0.1337   -1.2735    0.1204 C   0  0  0  0  0  0  0  0  0  0  0  0
   -0.9051   -1.4097   -0.6485 N   0  0  0  0  0  0  0  0  0  0  0  0
   -1.5052   -2.6757   -0.5909 C   0  0  0  0  0  0  0  0  0  0  0  0
   -1.0868   -3.6530    0.2764 C   0  0  0  0  0  0  0  0  0  0  0  0
   -1.9262   -4.7127    0.0776 N   0  0  0  0  0  0  0  0  0  0  0  0
   -1.9537   -5.9764    0.7993 C   0  0  0  0  0  0  0  0  0  0  0  0
   -3.2510   -6.1991    1.5869 C   0  0  0  0  0  0  0  0  0  0  0  0
   -4.4219   -6.2890    0.7026 N   0  0  0  0  0  0  0  0  0  0  0  0
   -5.6980   -6.4248    1.4375 C   0  0  0  0  0  0  0  0  0  0  0  0
   -5.9367   -5.2308    2.3824 C   0  0  0  0  0  0  0  0  0  0  0  0
   -5.9511   -3.9969    1.6633 O   0  0  0  0  0  0  0  0  0  0  0  0
   -6.8327   -6.4758    0.3872 C   0  0  0  0  0  0  0  0  0  0  0  0
   -6.6366   -7.5503   -0.5312 O   0  0  0  0  0  0  0  0  0  0  0  0
   -2.7449   -4.3549   -0.9668 C   0  0  0  0  0  0  0  0  0  0  0  0
   -2.5591   -3.1067   -1.3380 N   0  0  0  0  0  0  0  0  0  0  0  0
    0.0162   -3.4631    1.1396 C   0  0  0  0  0  0  0  0  0  0  0  0
    0.3958   -4.2527    2.0050 O   0  0  0  0  0  0  0  0  0  0  0  0
    0.6345   -2.2603    0.9323 N   0  0  0  0  0  0  0  0  0  0  0  0
    0.3706    0.6754   -0.2821 H   0  0  0  0  0  0  0  0  0  0  0  0
    1.8020   -0.1248    0.0770 H   0  0  0  0  0  0  0  0  0  0  0  0
   -1.7816   -6.7819    0.0795 H   0  0  0  0  0  0  0  0  0  0  0  0
   -1.1264   -5.9922    1.5138 H   0  0  0  0  0  0  0  0  0  0  0  0
   -3.1708   -7.1227    2.1733 H   0  0  0  0  0  0  0  0  0  0  0  0
   -3.3414   -5.3667    2.2919 H   0  0  0  0  0  0  0  0  0  0  0  0
   -4.5205   -5.4212    0.1819 H   0  0  0  0  0  0  0  0  0  0  0  0
   -5.6766   -7.3708    1.9903 H   0  0  0  0  0  0  0  0  0  0  0  0
   -6.8973   -5.3364    2.8899 H   0  0  0  0  0  0  0  0  0  0  0  0
   -5.1736   -5.1647    3.1636 H   0  0  0  0  0  0  0  0  0  0  0  0
   -5.0801   -3.8544    1.2534 H   0  0  0  0  0  0  0  0  0  0  0  0
   -7.7975   -6.6204    0.8800 H   0  0  0  0  0  0  0  0  0  0  0  0
   -6.8837   -5.5500   -0.1985 H   0  0  0  0  0  0  0  0  0  0  0  0
   -5.7384   -7.4254   -0.8912 H   0  0  0  0  0  0  0  0  0  0  0  0
   -3.4751   -5.0224   -1.4080 H   0  0  0  0  0  0  0  0  0  0  0  0
    1.3802   -2.0319    1.5660 H   0  0  0  0  0  0  0  0  0  0  0  0
  1  2  1  0  0  0  0
  1 20  1  0  0  0  0
  1 21  1  0  0  0  0
  2  3  2  0  0  0  0
  2 19  1  0  0  0  0
  3  4  1  0  0  0  0
  4  5  2  0  0  0  0
  4 16  1  0  0  0  0
  5  6  1  0  0  0  0
  5 17  1  0  0  0  0
  6  7  1  0  0  0  0
  6 15  1  0  0  0  0
  7  8  1  0  0  0  0
  7 22  1  0  0  0  0
  7 23  1  0  0  0  0
  8  9  1  0  0  0  0
  8 24  1  0  0  0  0
  8 25  1  0  0  0  0
  9 10  1  0  0  0  0
  9 26  1  0  0  0  0
 10 11  1  0  0  0  0
 10 13  1  0  0  0  0
 10 27  1  0  0  0  0
 11 12  1  0  0  0  0
 11 28  1  0  0  0  0
 11 29  1  0  0  0  0
 12 30  1  0  0  0  0
 13 14  1  0  0  0  0
 13 31  1  0  0  0  0
 13 32  1  0  0  0  0
 14 33  1  0  0  0  0
 15 16  2  0  0  0  0
 15 34  1  0  0  0  0
 17 18  2  0  0  0  0
 17 19  1  0  0  0  0
 19 35  1  0  0  0  0
M  END
>  <DRUGBANK_ID>
DB02391

>  <SECONDARY_ACCESSION_NUMBERS>
EXPT01667

>  <COMMON_NAME>
2-Amino-7-[2-(2-Hydroxy-1-Hydroxymethyl-Ethylamino)-Ethyl]-1,7-Dihydro-Purin-6-One

$$$$
