
 OpenBabel10282417203D

 25 24  0  0  0  0  0  0  0  0999 V2000
    1.0714   -0.0322    0.1427 C   0  0  0  0  0  0  0  0  0  0  0  0
    0.6082    0.5660   -1.1748 C   0  0  0  0  0  0  0  0  0  0  0  0
    1.0941   -0.2087   -2.4383 C   0  0  0  0  0  0  0  0  0  0  0  0
    0.5359   -1.6418   -2.3627 C   0  0  0  0  0  0  0  0  0  0  0  0
    0.5455    0.5206   -3.6911 C   0  0  0  0  0  0  0  0  0  0  0  0
    1.0465    1.9550   -3.8147 C   0  0  0  0  0  0  0  0  0  0  0  0
    2.5577   -0.2301   -2.4492 O   0  0  0  0  0  0  0  0  0  0  0  0
    3.1940   -0.8691   -3.4662 C   0  0  0  0  0  0  0  0  0  0  0  0
    2.6756   -1.4604   -4.4041 O   0  0  0  0  0  0  0  0  0  0  0  0
    4.5406   -0.7971   -3.3636 N   0  0  0  0  0  0  0  0  0  0  0  0
    0.6869   -1.0445    0.2833 H   0  0  0  0  0  0  0  0  0  0  0  0
    0.7047    0.5701    0.9793 H   0  0  0  0  0  0  0  0  0  0  0  0
    2.1631   -0.0561    0.1857 H   0  0  0  0  0  0  0  0  0  0  0  0
   -0.4902    0.6178   -1.1768 H   0  0  0  0  0  0  0  0  0  0  0  0
    0.9712    1.5993   -1.1824 H   0  0  0  0  0  0  0  0  0  0  0  0
   -0.5574   -1.6338   -2.3057 H   0  0  0  0  0  0  0  0  0  0  0  0
    0.8152   -2.2472   -3.2264 H   0  0  0  0  0  0  0  0  0  0  0  0
    0.9296   -2.1773   -1.4932 H   0  0  0  0  0  0  0  0  0  0  0  0
    0.8313   -0.0111   -4.6038 H   0  0  0  0  0  0  0  0  0  0  0  0
   -0.5514    0.5196   -3.6743 H   0  0  0  0  0  0  0  0  0  0  0  0
    2.1398    1.9934   -3.8056 H   0  0  0  0  0  0  0  0  0  0  0  0
    0.6923    2.4020   -4.7467 H   0  0  0  0  0  0  0  0  0  0  0  0
    0.6742    2.5815   -2.9995 H   0  0  0  0  0  0  0  0  0  0  0  0
    5.0067   -0.3101   -2.6161 H   0  0  0  0  0  0  0  0  0  0  0  0
    5.0763   -1.2546   -4.0882 H   0  0  0  0  0  0  0  0  0  0  0  0
  1  2  1  0  0  0  0
  1 11  1  0  0  0  0
  1 12  1  0  0  0  0
  1 13  1  0  0  0  0
  2  3  1  0  0  0  0
  2 14  1  0  0  0  0
  2 15  1  0  0  0  0
  3  4  1  0  0  0  0
  3  5  1  0  0  0  0
  3  7  1  0  0  0  0
  4 16  1  0  0  0  0
  4 17  1  0  0  0  0
  4 18  1  0  0  0  0
  5  6  1  0  0  0  0
  5 19  1  0  0  0  0
  5 20  1  0  0  0  0
  6 21  1  0  0  0  0
  6 22  1  0  0  0  0
  6 23  1  0  0  0  0
  7  8  1  0  0  0  0
  8  9  2  0  0  0  0
  8 10  1  0  0  0  0
 10 24  1  0  0  0  0
 10 25  1  0  0  0  0
M  END
>  <DRUGBANK_ID>
DB13572

>  <COMMON_NAME>
Emylcamate

>  <CAS_NUMBER>
78-28-4

>  <UNII>
KCJ747D3R4

>  <SYNONYMS>
Emylcamate

$$$$
