
 OpenBabel10282417103D

 83 85  0  0  0  0  0  0  0  0999 V2000
   -2.4949   -8.2790    5.2257 C   0  0  1  0  0  0  0  0  0  0  0  0
   -0.8314   -6.9255    7.9763 C   0  0  1  0  0  0  0  0  0  0  0  0
   -1.5081  -10.1455    5.4768 C   0  0  1  0  0  0  0  0  0  0  0  0
   -0.0431   -9.9208    5.8861 C   0  0  2  0  0  0  0  0  0  0  0  0
   -0.1167   -9.0245    7.2327 C   0  0  2  0  0  0  0  0  0  0  0  0
   -3.0762   -9.4894    8.2410 C   0  0  2  0  0  0  0  0  0  0  0  0
   -3.2050   -8.2723    7.5026 C   0  0  1  0  0  0  0  0  0  0  0  0
   -1.4725   -7.7759    6.3379 C   0  0  2  0  0  0  0  0  0  0  0  0
   -0.0931   -7.4073    6.6265 C   0  0  1  0  0  0  0  0  0  0  0  0
    0.0191   -8.2341    8.7226 C   0  0  2  0  0  0  0  0  0  0  0  0
   -1.7175   -8.6729    9.5035 O   0  0  0  0  0  0  0  0  0  0  0  0
    0.8746   -7.1939    5.6831 O   0  0  0  0  0  0  0  0  0  0  0  0
    1.3241   -7.7199    9.1332 C   0  0  0  0  0  0  0  0  0  0  0  0
   -2.4963   -6.4289    5.1796 N   0  0  0  0  0  0  0  0  0  0  0  0
    1.9454   -6.9607    8.0881 O   0  0  0  0  0  0  0  0  0  0  0  0
    0.3114   -5.5183    7.1139 N   0  0  0  0  0  0  0  0  0  0  0  0
    0.7310   -9.2302    4.8980 O   0  0  0  0  0  0  0  0  0  0  0  0
   -2.2295  -11.0544    7.0800 O   0  0  0  0  0  0  0  0  0  0  0  0
   -0.3122  -10.3948    8.0664 O   0  0  0  0  0  0  0  0  0  0  0  0
   -1.5366  -10.0394    8.2841 C   0  0  1  0  0  0  0  0  0  0  0  0
   -2.6526   -9.6594    6.6036 O   0  0  0  0  0  0  0  0  0  0  0  0
   -4.2552  -10.5860    6.2045 C   0  0  1  0  0  0  0  0  0  0  0  0
   -4.8508  -11.2690    7.5501 C   0  0  2  0  0  0  0  0  0  0  0  0
   -4.7622  -10.4886    9.0649 C   0  0  1  0  0  0  0  0  0  0  0  0
   -2.9086  -10.5381    9.7897 C   0  0  1  0  0  0  0  0  0  0  0  0
   -5.4296   -9.1270    5.4947 C   0  0  0  0  0  0  0  0  0  0  0  0
   -2.6456  -11.8881    9.8767 O   0  0  0  0  0  0  0  0  0  0  0  0
   -5.3443   -9.1546    8.9352 O   0  0  0  0  0  0  0  0  0  0  0  0
   -4.2839  -12.5763    7.7566 O   0  0  0  0  0  0  0  0  0  0  0  0
   -2.5544   -6.7762    6.9336 C   0  0  0  0  0  0  0  0  0  0  0  0
   -1.3099   -7.6356    4.0585 N   0  0  0  0  0  0  0  0  0  0  0  0
   -0.9199   -6.2094    1.7252 C   0  0  0  0  0  0  0  0  0  0  0  0
   -1.0838   -8.2727    2.9401 C   0  0  0  0  0  0  0  0  0  0  0  0
   -1.5875   -9.3611    2.7581 O   0  0  0  0  0  0  0  0  0  0  0  0
   -0.2310   -4.9005    2.0948 C   0  0  0  0  0  0  0  0  0  0  0  0
    1.0280   -4.7671    1.3913 N   0  0  0  0  0  0  0  0  0  0  0  0
   -0.1644   -7.4817    2.1001 C   0  0  1  0  0  0  0  0  0  0  0  0
    0.0298   -8.3549    1.0147 O   0  0  0  0  0  0  0  0  0  0  0  0
   -4.7820   -8.0750    4.5775 N   0  0  0  0  0  0  0  0  0  0  0  0
   -4.2084   -8.7026    6.8302 O   0  0  0  0  0  0  0  0  0  0  0  0
   -3.0802   -8.9329    4.5250 H   0  0  0  0  0  0  0  0  0  0  0  0
   -0.8555   -6.4569    9.0159 H   0  0  0  0  0  0  0  0  0  0  0  0
   -1.6914  -10.7126    4.5524 H   0  0  0  0  0  0  0  0  0  0  0  0
    0.4119  -10.8508    6.2417 H   0  0  0  0  0  0  0  0  0  0  0  0
    1.0493   -8.9198    7.1692 H   0  0  0  0  0  0  0  0  0  0  0  0
   -3.2572  -10.6122    8.2019 H   0  0  0  0  0  0  0  0  0  0  0  0
   -3.9091   -7.4647    7.9120 H   0  0  0  0  0  0  0  0  0  0  0  0
   -0.9909   -8.4307    5.6863 H   0  0  0  0  0  0  0  0  0  0  0  0
   -0.9749   -6.2433    6.4853 H   0  0  0  0  0  0  0  0  0  0  0  0
    0.6954   -9.3495    8.7987 H   0  0  0  0  0  0  0  0  0  0  0  0
    1.4095   -7.9967    5.5425 H   0  0  0  0  0  0  0  0  0  0  0  0
    0.9064   -7.2261    9.9721 H   0  0  0  0  0  0  0  0  0  0  0  0
    1.9897   -8.5874    9.1606 H   0  0  0  0  0  0  0  0  0  0  0  0
   -1.8839   -5.8801    4.6856 H   0  0  0  0  0  0  0  0  0  0  0  0
   -3.2078   -5.7929    5.6169 H   0  0  0  0  0  0  0  0  0  0  0  0
    2.0476   -7.4071    7.2121 H   0  0  0  0  0  0  0  0  0  0  0  0
    1.2267   -6.0191    6.9303 H   0  0  0  0  0  0  0  0  0  0  0  0
    0.2203   -5.7563    5.9154 H   0  0  0  0  0  0  0  0  0  0  0  0
    0.2323   -8.3880    4.6741 H   0  0  0  0  0  0  0  0  0  0  0  0
   -1.6265   -8.7329    8.0312 H   0  0  0  0  0  0  0  0  0  0  0  0
   -3.9150  -11.2072    5.3583 H   0  0  0  0  0  0  0  0  0  0  0  0
   -5.8883  -11.2871    7.2830 H   0  0  0  0  0  0  0  0  0  0  0  0
   -5.3987  -10.9844    9.7591 H   0  0  0  0  0  0  0  0  0  0  0  0
   -3.1109   -9.7139   10.5675 H   0  0  0  0  0  0  0  0  0  0  0  0
   -6.4492   -9.3344    5.7254 H   0  0  0  0  0  0  0  0  0  0  0  0
   -5.6136   -8.1437    6.3038 H   0  0  0  0  0  0  0  0  0  0  0  0
   -2.5970  -12.1188    8.9119 H   0  0  0  0  0  0  0  0  0  0  0  0
   -5.0155   -8.7388    8.1153 H   0  0  0  0  0  0  0  0  0  0  0  0
   -3.4142  -12.6536    7.3021 H   0  0  0  0  0  0  0  0  0  0  0  0
   -2.8304   -5.7041    7.0764 H   0  0  0  0  0  0  0  0  0  0  0  0
   -2.5028   -6.8807    8.1100 H   0  0  0  0  0  0  0  0  0  0  0  0
   -0.7775   -6.7893    4.3310 H   0  0  0  0  0  0  0  0  0  0  0  0
   -1.1085   -6.2423    0.6553 H   0  0  0  0  0  0  0  0  0  0  0  0
   -1.9010   -6.1917    2.2222 H   0  0  0  0  0  0  0  0  0  0  0  0
   -0.8909   -4.0736    1.8064 H   0  0  0  0  0  0  0  0  0  0  0  0
   -0.0668   -4.8207    3.1758 H   0  0  0  0  0  0  0  0  0  0  0  0
    1.4752   -3.8804    1.6159 H   0  0  0  0  0  0  0  0  0  0  0  0
    1.6756   -5.5068    1.6569 H   0  0  0  0  0  0  0  0  0  0  0  0
    0.7538   -7.2956    2.6760 H   0  0  0  0  0  0  0  0  0  0  0  0
   -0.8755   -8.6017    0.7293 H   0  0  0  0  0  0  0  0  0  0  0  0
   -4.7819   -7.0438    4.6576 H   0  0  0  0  0  0  0  0  0  0  0  0
   -4.0524   -7.7267    5.2282 H   0  0  0  0  0  0  0  0  0  0  0  0
   -3.6779   -9.0934    6.0746 H   0  0  0  0  0  0  0  0  0  0  0  0
  1  3  1  0  0  0  0
  1 41  1  6  0  0  0
  1 31  1  0  0  0  0
  2 30  1  0  0  0  0
  2 16  1  0  0  0  0
  2 42  1  1  0  0  0
  3 18  1  0  0  0  0
  3  4  1  0  0  0  0
  3 43  1  6  0  0  0
  4 17  1  0  0  0  0
  4  5  1  0  0  0  0
  4 44  1  1  0  0  0
  5  2  1  0  0  0  0
  5 45  1  1  0  0  0
  5 19  1  0  0  0  0
  6 18  1  0  0  0  0
  6  7  1  0  0  0  0
  6 46  1  1  0  0  0
  7  8  1  0  0  0  0
  7 40  1  0  0  0  0
  7 47  1  1  0  0  0
  8  9  1  0  0  0  0
  8 48  1  6  0  0  0
  8 14  1  0  0  0  0
  9 10  1  0  0  0  0
  9 12  1  0  0  0  0
  9 49  1  1  0  0  0
 10 11  1  0  0  0  0
 10 50  1  6  0  0  0
 10 13  1  0  0  0  0
 11  6  1  0  0  0  0
 12 51  1  0  0  0  0
 13 15  1  0  0  0  0
 13 52  1  0  0  0  0
 13 53  1  0  0  0  0
 14 54  1  0  0  0  0
 14 55  1  0  0  0  0
 15 56  1  0  0  0  0
 16 57  1  0  0  0  0
 16 58  1  0  0  0  0
 17 59  1  0  0  0  0
 20 21  1  0  0  0  0
 20 60  1  1  0  0  0
 20 19  1  0  0  0  0
 21 22  1  0  0  0  0
 22 23  1  0  0  0  0
 22 26  1  0  0  0  0
 22 61  1  6  0  0  0
 23 24  1  0  0  0  0
 23 62  1  6  0  0  0
 23 29  1  0  0  0  0
 24 25  1  0  0  0  0
 24 28  1  0  0  0  0
 24 63  1  1  0  0  0
 25 20  1  0  0  0  0
 25 27  1  0  0  0  0
 25 64  1  1  0  0  0
 26 39  1  0  0  0  0
 26 65  1  0  0  0  0
 26 66  1  0  0  0  0
 27 67  1  0  0  0  0
 28 68  1  0  0  0  0
 29 69  1  0  0  0  0
 30  1  1  0  0  0  0
 30 70  1  0  0  0  0
 30 71  1  0  0  0  0
 31 33  1  0  0  0  0
 31 72  1  0  0  0  0
 32 35  1  0  0  0  0
 32 73  1  0  0  0  0
 32 74  1  0  0  0  0
 33 34  2  0  0  0  0
 35 36  1  0  0  0  0
 35 75  1  0  0  0  0
 35 76  1  0  0  0  0
 36 77  1  0  0  0  0
 36 78  1  0  0  0  0
 37 38  1  0  0  0  0
 37 79  1  1  0  0  0
 37 32  1  0  0  0  0
 37 33  1  0  0  0  0
 38 80  1  0  0  0  0
 39 81  1  0  0  0  0
 39 82  1  0  0  0  0
 40 83  1  0  0  0  0
M  END
>  <DRUGBANK_ID>
DB00479

>  <SECONDARY_ACCESSION_NUMBERS>
APRD00550

>  <COMMON_NAME>
Amikacin

>  <CAS_NUMBER>
37517-28-5

>  <UNII>
84319SGC3C

>  <SYNONYMS>
1-N-(L(−)-γ-amino-α-hydroxybutyryl)kanamycin A; Amikacin; Amikacina; Amikacine; Amikacinum; D-STREPTAMINE, O-3-AMINO-3-DEOXY-.ALPHA.-D-GLUCOPYRANOSYL-(1->6)-O-(6-AMINO-6-DEOXY-.ALPHA.-D-GLUCOPYRANOSYL-(1->4))-N(SUP 1)-(4-AMINO-2-HYDROXY-1-OXOBUTYL)-2-DEOXY-, (S)-; encochleated amikacin; O-3-AMINO-3-DEOXY-.ALPHA.-D-GLUCOPYRANOSYL-(1->4)-O-(6-AMINO-6-DEOXY-.ALPHA.-D-GLUCOPYRANOSYL-(1->6))-N(SUP 3)-(4-AMINO-L-2-HYDROXYBUTYRYL)-2-DEOXY-L-STREPTAMINE

$$$$
