
 OpenBabel10282417223D

111117  0  0  1  0  0  0  0  0999 V2000
    0.0314   -8.1942  -11.3410 C   0  0  0  0  0  0  0  0  0  0  0  0
   -0.3142   -6.9385  -10.5604 C   0  0  0  0  0  0  0  0  0  0  0  0
   -1.4591   -6.3152  -10.9485 C   0  0  0  0  0  0  0  0  0  0  0  0
    0.5212   -6.2383   -9.4347 C   0  0  2  0  0  0  0  0  0  0  0  0
    1.6565   -5.3365   -9.8399 C   0  0  0  0  0  0  0  0  0  0  0  0
    0.9208   -4.0040   -9.6463 C   0  0  0  0  0  0  0  0  0  0  0  0
    1.2337   -3.9846   -8.1828 C   0  0  2  0  0  0  0  0  0  0  0  0
    0.3044   -2.9901   -7.4506 C   0  0  0  0  0  0  0  0  0  0  0  0
    0.5239   -3.4606   -6.0564 C   0  0  0  0  0  0  0  0  0  0  0  0
   -0.6257   -4.6067   -5.8310 C   0  0  2  0  0  0  0  0  0  0  0  0
   -1.7101   -3.0303   -5.7141 C   0  0  0  0  0  0  0  0  0  0  0  0
   -0.1761   -6.1662   -6.9781 C   0  0  2  0  0  0  0  0  0  0  0  0
    0.2784   -7.9131   -6.4804 C   0  0  0  0  0  0  0  0  0  0  0  0
   -0.7706   -8.5088   -5.5886 C   0  0  0  0  0  0  0  0  0  0  0  0
   -0.3492   -7.3143   -4.0644 C   0  0  2  0  0  0  0  0  0  0  0  0
   -1.2406   -7.7412   -2.8766 C   0  0  1  0  0  0  0  0  0  0  0  0
   -1.9208   -6.9054   -4.5130 C   0  0  0  0  0  0  0  0  0  0  0  0
   -1.3074   -8.0795   -0.8335 C   0  0  0  0  0  0  0  0  0  0  0  0
   -2.6298   -7.7419   -0.1680 C   0  0  0  0  0  0  0  0  0  0  0  0
   -2.6065   -6.4793   -0.5826 C   0  0  0  0  0  0  0  0  0  0  0  0
   -1.6238   -5.3507   -0.0257 C   0  0  0  0  0  0  0  0  0  0  0  0
   -0.2667   -5.3710    0.5154 C   0  0  0  0  0  0  0  0  0  0  0  0
    0.4798   -4.1951    0.7143 C   0  0  0  0  0  0  0  0  0  0  0  0
   -0.0860   -2.9810    0.3319 C   0  0  0  0  0  0  0  0  0  0  0  0
   -1.3423   -2.9716   -0.2599 C   0  0  0  0  0  0  0  0  0  0  0  0
   -2.1125   -4.1126   -0.3632 C   0  0  0  0  0  0  0  0  0  0  0  0
    0.5824   -1.7073    0.6604 C   0  0  0  0  0  0  0  0  0  0  0  0
   -0.0289   -0.5786    0.2374 O   0  0  0  0  0  0  0  0  0  0  0  0
    1.5944   -1.6808    1.3397 O   0  0  0  0  0  0  0  0  0  0  0  0
   -2.4428   -6.6666   -2.0807 C   0  0  0  0  0  0  0  0  0  0  0  0
   -3.3908   -8.1223   -2.7803 C   0  0  0  0  0  0  0  0  0  0  0  0
   -3.3677   -5.6555   -2.6012 C   0  0  0  0  0  0  0  0  0  0  0  0
   -0.6454   -6.6896   -2.1564 C   0  0  2  0  0  0  0  0  0  0  0  0
    0.3902   -5.6383   -2.4619 C   0  0  0  0  0  0  0  0  0  0  0  0
    0.7659   -5.2989   -3.8875 C   0  0  0  0  0  0  0  0  0  0  0  0
   -0.6053   -5.3145   -4.1684 C   0  0  1  0  0  0  0  0  0  0  0  0
   -0.4829   -3.5147   -3.2646 C   0  0  0  0  0  0  0  0  0  0  0  0
    0.9481   -5.8524   -7.9430 C   0  0  1  0  0  0  0  0  0  0  0  0
    2.3953   -3.0673   -8.0962 N   0  0  0  0  0  0  0  0  0  0  0  0
    3.3902   -2.8804   -9.1167 C   0  0  0  0  0  0  0  0  0  0  0  0
    4.6418   -2.0102   -8.8352 C   0  0  0  0  0  0  0  0  0  0  0  0
    5.2235   -2.1690   -7.4835 N   0  0  0  0  0  0  0  0  0  0  0  0
    4.5346   -1.3291   -6.4756 C   0  0  0  0  0  0  0  0  0  0  0  0
    4.6236    0.1601   -6.7241 C   0  0  0  0  0  0  0  0  0  0  0  0
    6.3072    0.6328   -6.6269 S   0  0  0  0  0  0  0  0  0  0  0  0
    6.4219    1.9879   -7.1252 O   0  0  0  0  0  0  0  0  0  0  0  0
    6.8112    0.2571   -5.3207 O   0  0  0  0  0  0  0  0  0  0  0  0
    7.0001   -0.4406   -7.8350 C   0  0  0  0  0  0  0  0  0  0  0  0
    6.6821   -1.8804   -7.4857 C   0  0  0  0  0  0  0  0  0  0  0  0
   -0.7175   -8.3917  -12.1357 H   0  0  0  0  0  0  0  0  0  0  0  0
    0.0146   -9.0899  -10.7150 H   0  0  0  0  0  0  0  0  0  0  0  0
    0.9866   -8.1201  -11.8663 H   0  0  0  0  0  0  0  0  0  0  0  0
   -1.7919   -5.4069  -10.4489 H   0  0  0  0  0  0  0  0  0  0  0  0
   -2.1182   -6.6493  -11.7422 H   0  0  0  0  0  0  0  0  0  0  0  0
   -0.4163   -5.7518   -9.1591 H   0  0  0  0  0  0  0  0  0  0  0  0
    2.3272   -5.6281  -10.6303 H   0  0  0  0  0  0  0  0  0  0  0  0
    2.5079   -5.3854   -9.0823 H   0  0  0  0  0  0  0  0  0  0  0  0
    0.2249   -4.0487  -10.4851 H   0  0  0  0  0  0  0  0  0  0  0  0
   -0.1314   -3.9904   -9.2446 H   0  0  0  0  0  0  0  0  0  0  0  0
   -0.3670   -2.4899   -8.1841 H   0  0  0  0  0  0  0  0  0  0  0  0
    0.3730   -1.9207   -7.1283 H   0  0  0  0  0  0  0  0  0  0  0  0
    1.5958   -3.6700   -5.8965 H   0  0  0  0  0  0  0  0  0  0  0  0
    0.5332   -2.5614   -5.3782 H   0  0  0  0  0  0  0  0  0  0  0  0
   -2.7759   -3.0387   -5.4933 H   0  0  0  0  0  0  0  0  0  0  0  0
   -1.5239   -2.4456   -4.7882 H   0  0  0  0  0  0  0  0  0  0  0  0
   -1.4136   -2.0445   -6.2119 H   0  0  0  0  0  0  0  0  0  0  0  0
   -1.0026   -6.6207   -7.5889 H   0  0  0  0  0  0  0  0  0  0  0  0
    0.6206   -8.7352   -7.1971 H   0  0  0  0  0  0  0  0  0  0  0  0
    1.1623   -7.9116   -5.8404 H   0  0  0  0  0  0  0  0  0  0  0  0
   -1.0018   -9.6091   -5.7882 H   0  0  0  0  0  0  0  0  0  0  0  0
   -1.8519   -8.5333   -5.9226 H   0  0  0  0  0  0  0  0  0  0  0  0
   -0.1765   -8.4136   -3.6574 H   0  0  0  0  0  0  0  0  0  0  0  0
   -1.0327   -6.5519   -5.3090 H   0  0  0  0  0  0  0  0  0  0  0  0
   -2.1645   -7.1501   -5.5493 H   0  0  0  0  0  0  0  0  0  0  0  0
   -2.5828   -6.1013   -4.6477 H   0  0  0  0  0  0  0  0  0  0  0  0
   -1.1145   -8.8583   -0.0060 H   0  0  0  0  0  0  0  0  0  0  0  0
   -0.8140   -7.3915   -0.0243 H   0  0  0  0  0  0  0  0  0  0  0  0
   -3.1258   -8.7019   -0.3449 H   0  0  0  0  0  0  0  0  0  0  0  0
    0.3157   -6.2718    0.7479 H   0  0  0  0  0  0  0  0  0  0  0  0
    1.4754   -4.2448    1.1648 H   0  0  0  0  0  0  0  0  0  0  0  0
   -1.7540   -2.1120   -0.7642 H   0  0  0  0  0  0  0  0  0  0  0  0
   -3.0851   -4.0381   -0.8239 H   0  0  0  0  0  0  0  0  0  0  0  0
   -0.8478   -0.6273   -0.2833 H   0  0  0  0  0  0  0  0  0  0  0  0
   -4.2370   -8.3379   -2.1465 H   0  0  0  0  0  0  0  0  0  0  0  0
   -3.7549   -7.8588   -3.7887 H   0  0  0  0  0  0  0  0  0  0  0  0
   -2.8432   -9.0818   -2.9677 H   0  0  0  0  0  0  0  0  0  0  0  0
   -4.2671   -5.8354   -2.0104 H   0  0  0  0  0  0  0  0  0  0  0  0
   -2.8838   -4.7088   -2.5663 H   0  0  0  0  0  0  0  0  0  0  0  0
   -3.7167   -5.8124   -3.6013 H   0  0  0  0  0  0  0  0  0  0  0  0
    0.1845   -7.4926   -1.9677 H   0  0  0  0  0  0  0  0  0  0  0  0
    1.3144   -5.8639   -1.9688 H   0  0  0  0  0  0  0  0  0  0  0  0
   -0.0559   -4.8391   -1.8945 H   0  0  0  0  0  0  0  0  0  0  0  0
    1.0078   -5.9318   -4.7200 H   0  0  0  0  0  0  0  0  0  0  0  0
    1.0785   -4.3251   -4.1905 H   0  0  0  0  0  0  0  0  0  0  0  0
   -1.2007   -3.2116   -2.5197 H   0  0  0  0  0  0  0  0  0  0  0  0
    0.5509   -3.3054   -2.8533 H   0  0  0  0  0  0  0  0  0  0  0  0
   -0.3430   -2.5102   -3.7405 H   0  0  0  0  0  0  0  0  0  0  0  0
    1.7104   -6.7246   -8.0103 H   0  0  0  0  0  0  0  0  0  0  0  0
    2.7014   -2.8152   -7.1776 H   0  0  0  0  0  0  0  0  0  0  0  0
    3.7931   -3.8730   -9.2337 H   0  0  0  0  0  0  0  0  0  0  0  0
    2.9461   -2.4977  -10.0458 H   0  0  0  0  0  0  0  0  0  0  0  0
    5.3760   -2.3222   -9.5926 H   0  0  0  0  0  0  0  0  0  0  0  0
    4.4560   -0.9581   -9.0738 H   0  0  0  0  0  0  0  0  0  0  0  0
    3.4719   -1.5267   -6.4035 H   0  0  0  0  0  0  0  0  0  0  0  0
    4.9105   -1.6036   -5.4820 H   0  0  0  0  0  0  0  0  0  0  0  0
    4.2384    0.4500   -7.7066 H   0  0  0  0  0  0  0  0  0  0  0  0
    4.0690    0.7258   -5.9778 H   0  0  0  0  0  0  0  0  0  0  0  0
    6.5693   -0.1655   -8.8028 H   0  0  0  0  0  0  0  0  0  0  0  0
    8.0703   -0.2393   -7.8480 H   0  0  0  0  0  0  0  0  0  0  0  0
    7.1036   -2.1341   -6.5026 H   0  0  0  0  0  0  0  0  0  0  0  0
    7.2093   -2.5278   -8.1998 H   0  0  0  0  0  0  0  0  0  0  0  0
  1  2  1  0  0  0  0
  1 50  1  0  0  0  0
  1 51  1  0  0  0  0
  1 52  1  0  0  0  0
  2  3  2  0  0  0  0
  3 53  1  0  0  0  0
  3 54  1  0  0  0  0
  4  5  1  0  0  0  0
  4  2  1  0  0  0  0
  4 55  1  6  0  0  0
  5  6  1  0  0  0  0
  5 56  1  0  0  0  0
  5 57  1  0  0  0  0
  6 58  1  0  0  0  0
  6 59  1  0  0  0  0
  7  6  1  0  0  0  0
  7  8  1  0  0  0  0
  7 39  1  6  0  0  0
  8  9  1  0  0  0  0
  8 60  1  0  0  0  0
  8 61  1  0  0  0  0
  9 62  1  0  0  0  0
  9 63  1  0  0  0  0
 10  9  1  0  0  0  0
 10 36  1  0  0  0  0
 10 11  1  1  0  0  0
 11 64  1  0  0  0  0
 11 65  1  0  0  0  0
 11 66  1  0  0  0  0
 12 10  1  0  0  0  0
 12 13  1  0  0  0  0
 12 67  1  6  0  0  0
 13 14  1  0  0  0  0
 13 68  1  0  0  0  0
 13 69  1  0  0  0  0
 14 70  1  0  0  0  0
 14 71  1  0  0  0  0
 15 14  1  0  0  0  0
 15 16  1  0  0  0  0
 15 72  1  1  0  0  0
 16 18  1  0  0  0  0
 16 33  1  0  0  0  0
 16 17  1  6  0  0  0
 17 73  1  0  0  0  0
 17 74  1  0  0  0  0
 17 75  1  0  0  0  0
 18 19  1  0  0  0  0
 18 76  1  0  0  0  0
 18 77  1  0  0  0  0
 19 20  2  0  0  0  0
 19 78  1  0  0  0  0
 20 30  1  0  0  0  0
 20 21  1  0  0  0  0
 21 22  2  0  0  0  0
 21 26  1  0  0  0  0
 22 23  1  0  0  0  0
 22 79  1  0  0  0  0
 23 24  2  0  0  0  0
 23 80  1  0  0  0  0
 24 25  1  0  0  0  0
 24 27  1  0  0  0  0
 25 26  2  0  0  0  0
 25 81  1  0  0  0  0
 26 82  1  0  0  0  0
 27 28  1  0  0  0  0
 27 29  2  0  0  0  0
 28 83  1  0  0  0  0
 30 31  1  0  0  0  0
 30 32  1  0  0  0  0
 31 84  1  0  0  0  0
 31 85  1  0  0  0  0
 31 86  1  0  0  0  0
 32 87  1  0  0  0  0
 32 88  1  0  0  0  0
 32 89  1  0  0  0  0
 33 30  1  0  0  0  0
 33 34  1  0  0  0  0
 33 90  1  1  0  0  0
 34 35  1  0  0  0  0
 34 91  1  0  0  0  0
 34 92  1  0  0  0  0
 35 93  1  0  0  0  0
 35 94  1  0  0  0  0
 36 35  1  0  0  0  0
 36 15  1  0  0  0  0
 36 37  1  1  0  0  0
 37 95  1  0  0  0  0
 37 96  1  0  0  0  0
 37 97  1  0  0  0  0
 38 12  1  0  0  0  0
 38  4  1  0  0  0  0
 38  7  1  0  0  0  0
 38 98  1  1  0  0  0
 39 40  1  0  0  0  0
 39 99  1  0  0  0  0
 40 41  1  0  0  0  0
 40100  1  0  0  0  0
 40101  1  0  0  0  0
 41 42  1  0  0  0  0
 41102  1  0  0  0  0
 41103  1  0  0  0  0
 42 43  1  0  0  0  0
 42 49  1  0  0  0  0
 43 44  1  0  0  0  0
 43104  1  0  0  0  0
 43105  1  0  0  0  0
 44 45  1  0  0  0  0
 44106  1  0  0  0  0
 44107  1  0  0  0  0
 45 46  2  0  0  0  0
 45 47  2  0  0  0  0
 45 48  1  0  0  0  0
 48 49  1  0  0  0  0
 48108  1  0  0  0  0
 48109  1  0  0  0  0
 49110  1  0  0  0  0
 49111  1  0  0  0  0
M  END
>  <DRUGBANK_ID>
DB15193

>  <COMMON_NAME>
BMS-955176

>  <CAS_NUMBER>
1392312-45-6

>  <UNII>
4CA9IAU7RJ

$$$$
