
 OpenBabel10282417183D

 43 44  0  0  0  0  0  0  0  0999 V2000
    1.4300   -0.5810   -1.0367 C   0  0  0  0  0  0  0  0  0  0  0  0
    0.6167   -1.2678    0.5541 N   0  0  0  0  0  0  0  0  0  0  0  0
   -1.0028   -1.2378    1.1513 C   0  0  0  0  0  0  0  0  0  0  0  0
    1.0323   -2.5681    0.7578 C   0  0  0  0  0  0  0  0  0  0  0  0
    0.3759   -2.9128   -0.4935 C   0  0  0  0  0  0  0  0  0  0  0  0
    0.7106   -4.2103   -0.7787 C   0  0  0  0  0  0  0  0  0  0  0  0
    0.2412   -4.6983   -1.9462 C   0  0  0  0  0  0  0  0  0  0  0  0
   -0.4934   -3.8520   -2.8328 C   0  0  0  0  0  0  0  0  0  0  0  0
   -0.8724   -2.4743   -2.5429 C   0  0  0  0  0  0  0  0  0  0  0  0
   -0.4775   -1.9497   -1.3232 C   0  0  0  0  0  0  0  0  0  0  0  0
   -0.7341   -0.2608   -0.9263 O   0  0  0  0  0  0  0  0  0  0  0  0
    0.1009    0.7857    0.2447 C   0  0  0  0  0  0  0  0  0  0  0  0
    1.6389    0.5543    0.8239 C   0  0  0  0  0  0  0  0  0  0  0  0
    2.5188    1.3401    1.4482 C   0  0  0  0  0  0  0  0  0  0  0  0
    1.7592    2.2932    1.9963 C   0  0  0  0  0  0  0  0  0  0  0  0
    0.2881    2.5239    1.6603 C   0  0  0  0  0  0  0  0  0  0  0  0
   -0.5739    1.8443    0.7326 C   0  0  0  0  0  0  0  0  0  0  0  0
    2.6553    3.1386    3.2845 S   0  0  0  0  0  0  0  0  0  0  0  0
    4.3065    2.2778    3.2261 C   0  0  0  0  0  0  0  0  0  0  0  0
    0.4565   -6.4329   -2.1783 S   0  0  0  0  0  0  0  0  0  0  0  0
   -0.8201   -7.0415   -2.1327 O   0  0  0  0  0  0  0  0  0  0  0  0
    1.4078   -6.6074   -3.2853 O   0  0  0  0  0  0  0  0  0  0  0  0
    1.2749   -6.9835   -0.7826 N   0  0  0  0  0  0  0  0  0  0  0  0
    1.2385    0.5454   -1.2813 H   0  0  0  0  0  0  0  0  0  0  0  0
    1.1886   -0.9310   -2.0485 H   0  0  0  0  0  0  0  0  0  0  0  0
    2.5279   -0.4359   -0.9805 H   0  0  0  0  0  0  0  0  0  0  0  0
   -1.7916   -1.5748    0.4501 H   0  0  0  0  0  0  0  0  0  0  0  0
   -1.1114   -1.8596    2.0445 H   0  0  0  0  0  0  0  0  0  0  0  0
   -1.3754   -0.2692    1.5270 H   0  0  0  0  0  0  0  0  0  0  0  0
    2.1176   -2.5751    0.8355 H   0  0  0  0  0  0  0  0  0  0  0  0
    0.6000   -2.9854    1.6653 H   0  0  0  0  0  0  0  0  0  0  0  0
    1.3075   -4.7607   -0.0542 H   0  0  0  0  0  0  0  0  0  0  0  0
   -0.7834   -4.2968   -3.7827 H   0  0  0  0  0  0  0  0  0  0  0  0
   -1.4342   -1.9075   -3.2682 H   0  0  0  0  0  0  0  0  0  0  0  0
    2.2679   -0.3786    0.7816 H   0  0  0  0  0  0  0  0  0  0  0  0
    3.5314    0.9589    1.4869 H   0  0  0  0  0  0  0  0  0  0  0  0
   -0.1746    3.3180    2.2242 H   0  0  0  0  0  0  0  0  0  0  0  0
   -1.6241    1.9672    0.5428 H   0  0  0  0  0  0  0  0  0  0  0  0
    4.2623    1.1936    3.4330 H   0  0  0  0  0  0  0  0  0  0  0  0
    4.8013    2.4204    2.2526 H   0  0  0  0  0  0  0  0  0  0  0  0
    4.9243    2.7337    3.9897 H   0  0  0  0  0  0  0  0  0  0  0  0
    0.6984   -6.8862    0.0574 H   0  0  0  0  0  0  0  0  0  0  0  0
    1.5380   -7.9622   -0.9141 H   0  0  0  0  0  0  0  0  0  0  0  0
  1  2  1  0  0  0  0
  1 24  1  0  0  0  0
  1 25  1  0  0  0  0
  1 26  1  0  0  0  0
  2  3  1  0  0  0  0
  2  4  1  0  0  0  0
  3 27  1  0  0  0  0
  3 28  1  0  0  0  0
  3 29  1  0  0  0  0
  4  5  1  0  0  0  0
  4 30  1  0  0  0  0
  4 31  1  0  0  0  0
  5  6  2  0  0  0  0
  5 10  1  0  0  0  0
  6  7  1  0  0  0  0
  6 32  1  0  0  0  0
  7  8  2  0  0  0  0
  7 20  1  0  0  0  0
  8  9  1  0  0  0  0
  8 33  1  0  0  0  0
  9 10  2  0  0  0  0
  9 34  1  0  0  0  0
 10 11  1  0  0  0  0
 11 12  1  0  0  0  0
 12 13  2  0  0  0  0
 12 17  1  0  0  0  0
 13 14  1  0  0  0  0
 13 35  1  0  0  0  0
 14 15  2  0  0  0  0
 14 36  1  0  0  0  0
 15 16  1  0  0  0  0
 15 18  1  0  0  0  0
 16 17  2  0  0  0  0
 16 37  1  0  0  0  0
 17 38  1  0  0  0  0
 18 19  1  0  0  0  0
 19 39  1  0  0  0  0
 19 40  1  0  0  0  0
 19 41  1  0  0  0  0
 20 21  2  0  0  0  0
 20 22  2  0  0  0  0
 20 23  1  0  0  0  0
 23 42  1  0  0  0  0
 23 43  1  0  0  0  0
M  END
>  <DRUGBANK_ID>
DB11719

>  <COMMON_NAME>
UK-390957

>  <CAS_NUMBER>
934301-71-0

>  <UNII>
W26I0D1D6J

$$$$
