
 OpenBabel10282417203D

 48 50  0  0  0  0  0  0  0  0999 V2000
    1.4571   -0.2780    0.0265 C   0  0  0  0  0  0  0  0  0  0  0  0
    0.5569   -1.3415    0.0533 C   0  0  0  0  0  0  0  0  0  0  0  0
   -0.8171   -1.1037    0.0802 C   0  0  0  0  0  0  0  0  0  0  0  0
   -1.3138    0.2127    0.0752 C   0  0  0  0  0  0  0  0  0  0  0  0
   -0.3727    1.2607    0.0442 C   0  0  0  0  0  0  0  0  0  0  0  0
    0.9915    1.0250    0.0013 C   0  0  0  0  0  0  0  0  0  0  0  0
   -2.8238    0.4804   -0.0915 C   0  0  0  0  0  0  0  0  0  0  0  0
   -3.2828   -0.3869   -1.2671 C   0  0  0  0  0  0  0  0  0  0  0  0
   -2.7150   -0.3703   -2.3504 O   0  0  0  0  0  0  0  0  0  0  0  0
   -4.3035   -1.2113   -0.8729 N   0  0  0  0  0  0  0  0  0  0  0  0
   -4.4854   -1.0778    0.4624 C   0  0  0  0  0  0  0  0  0  0  0  0
   -5.2627   -1.7098    1.1691 O   0  0  0  0  0  0  0  0  0  0  0  0
   -3.6304   -0.1228    0.9412 N   0  0  0  0  0  0  0  0  0  0  0  0
   -4.9942   -2.1986   -1.6854 C   0  0  0  0  0  0  0  0  0  0  0  0
   -5.8288   -1.5396   -2.7894 C   0  0  0  0  0  0  0  0  0  0  0  0
   -4.9886   -0.8260   -3.8604 C   0  0  0  0  0  0  0  0  0  0  0  0
   -3.8825   -1.7182   -4.4668 C   0  0  3  0  0  0  0  0  0  0  0  0
   -4.5082   -2.8190   -5.3266 C   0  0  0  0  0  0  0  0  0  0  0  0
   -4.3892   -2.9522   -6.5342 O   0  0  0  0  0  0  0  0  0  0  0  0
   -5.2609   -3.6847   -4.6145 O   0  0  0  0  0  0  0  0  0  0  0  0
   -2.9573   -0.8960   -5.2738 N   0  0  0  0  0  0  0  0  0  0  0  0
   -3.1622    1.9740   -0.2239 C   0  0  0  0  0  0  0  0  0  0  0  0
   -2.8548    2.7951    0.8839 C   0  0  0  0  0  0  0  0  0  0  0  0
   -2.7705    4.1769    0.7553 C   0  0  0  0  0  0  0  0  0  0  0  0
   -3.0757    4.7755   -0.4608 C   0  0  0  0  0  0  0  0  0  0  0  0
   -3.4445    3.9903   -1.5527 C   0  0  0  0  0  0  0  0  0  0  0  0
   -3.5161    2.5976   -1.4333 C   0  0  0  0  0  0  0  0  0  0  0  0
    2.5253   -0.4604    0.0144 H   0  0  0  0  0  0  0  0  0  0  0  0
    0.9261   -2.3619    0.0240 H   0  0  0  0  0  0  0  0  0  0  0  0
   -1.4914   -1.9584    0.0400 H   0  0  0  0  0  0  0  0  0  0  0  0
   -0.6638    2.3045    0.0110 H   0  0  0  0  0  0  0  0  0  0  0  0
    1.6672    1.8713   -0.0775 H   0  0  0  0  0  0  0  0  0  0  0  0
   -3.6280    0.1492    1.9106 H   0  0  0  0  0  0  0  0  0  0  0  0
   -4.2566   -2.9045   -2.0817 H   0  0  0  0  0  0  0  0  0  0  0  0
   -5.6582   -2.7967   -1.0500 H   0  0  0  0  0  0  0  0  0  0  0  0
   -6.4656   -2.2897   -3.2669 H   0  0  0  0  0  0  0  0  0  0  0  0
   -6.5252   -0.8235   -2.3383 H   0  0  0  0  0  0  0  0  0  0  0  0
   -5.6412   -0.4392   -4.6497 H   0  0  0  0  0  0  0  0  0  0  0  0
   -4.5836    0.0863   -3.4121 H   0  0  0  0  0  0  0  0  0  0  0  0
   -3.2616   -2.2187   -3.7170 H   0  0  0  0  0  0  0  0  0  0  0  0
   -5.7163   -4.2436   -5.2771 H   0  0  0  0  0  0  0  0  0  0  0  0
   -2.2535   -1.5107   -5.6824 H   0  0  0  0  0  0  0  0  0  0  0  0
   -3.4626   -0.4765   -6.0480 H   0  0  0  0  0  0  0  0  0  0  0  0
   -2.5034    2.3363    1.8078 H   0  0  0  0  0  0  0  0  0  0  0  0
   -2.3952    4.7687    1.5854 H   0  0  0  0  0  0  0  0  0  0  0  0
   -3.0083    5.8549   -0.5620 H   0  0  0  0  0  0  0  0  0  0  0  0
   -3.6240    4.4625   -2.5168 H   0  0  0  0  0  0  0  0  0  0  0  0
   -3.7828    2.0278   -2.3217 H   0  0  0  0  0  0  0  0  0  0  0  0
  1  2  2  0  0  0  0
  1  6  1  0  0  0  0
  1 28  1  0  0  0  0
  2  3  1  0  0  0  0
  2 29  1  0  0  0  0
  3  4  2  0  0  0  0
  3 30  1  0  0  0  0
  4  5  1  0  0  0  0
  4  7  1  0  0  0  0
  5  6  2  0  0  0  0
  5 31  1  0  0  0  0
  6 32  1  0  0  0  0
  7  8  1  0  0  0  0
  7 13  1  0  0  0  0
  7 22  1  0  0  0  0
  8  9  2  0  0  0  0
  8 10  1  0  0  0  0
 10 11  1  0  0  0  0
 10 14  1  0  0  0  0
 11 12  2  0  0  0  0
 11 13  1  0  0  0  0
 13 33  1  0  0  0  0
 14 15  1  0  0  0  0
 14 34  1  0  0  0  0
 14 35  1  0  0  0  0
 15 16  1  0  0  0  0
 15 36  1  0  0  0  0
 15 37  1  0  0  0  0
 16 17  1  0  0  0  0
 16 38  1  0  0  0  0
 16 39  1  0  0  0  0
 17 18  1  0  0  0  0
 17 21  1  0  0  0  0
 17 40  1  0  0  0  0
 18 19  2  0  0  0  0
 18 20  1  0  0  0  0
 20 41  1  0  0  0  0
 21 42  1  0  0  0  0
 21 43  1  0  0  0  0
 22 23  2  0  0  0  0
 22 27  1  0  0  0  0
 23 24  1  0  0  0  0
 23 44  1  0  0  0  0
 24 25  2  0  0  0  0
 24 45  1  0  0  0  0
 25 26  1  0  0  0  0
 25 46  1  0  0  0  0
 26 27  2  0  0  0  0
 26 47  1  0  0  0  0
 27 48  1  0  0  0  0
M  END
>  <DRUGBANK_ID>
DB13396

>  <COMMON_NAME>
Neocitrullamon

>  <CAS_NUMBER>
38964-88-4

>  <UNII>
7L5LMT7B2H

>  <SYNONYMS>
amino(diphenylhydantoin) valeric acid; Citrullamon V; Phenytoin-3-norvaline

$$$$
