
 OpenBabel10282417193D

 42 45  0  0  0  0  0  0  0  0999 V2000
    1.2667    1.3489    0.0305 C   0  0  0  0  0  0  0  0  0  0  0  0
    0.0706    0.6248    0.0224 C   0  0  0  0  0  0  0  0  0  0  0  0
    0.0555   -0.7917    0.0004 C   0  0  0  0  0  0  0  0  0  0  0  0
    1.3331   -1.4450   -0.0781 C   0  0  0  0  0  0  0  0  0  0  0  0
    2.5492   -0.7229   -0.0080 C   0  0  0  0  0  0  0  0  0  0  0  0
    2.4737    0.6762    0.0428 C   0  0  0  0  0  0  0  0  0  0  0  0
    3.6003    1.4063    0.0262 F   0  0  0  0  0  0  0  0  0  0  0  0
    3.8359   -1.3018   -0.0277 N   0  0  0  0  0  0  0  0  0  0  0  0
    4.8260   -1.2702    1.0074 C   0  0  0  0  0  0  0  0  0  0  0  0
    5.7518   -1.9856    0.0014 C   0  0  0  0  0  0  0  0  0  0  0  0
    4.4446   -2.4095   -0.6982 C   0  0  0  0  0  0  0  0  0  0  0  0
    6.6224   -1.1145   -0.7606 O   0  0  0  0  0  0  0  0  0  0  0  0
    1.5147   -3.1507   -0.3427 Cl  0  0  0  0  0  0  0  0  0  0  0  0
   -1.2368   -1.4510    0.0192 N   0  0  0  0  0  0  0  0  0  0  0  0
   -2.3940   -0.6485   -0.0004 C   0  0  0  0  0  0  0  0  0  0  0  0
   -2.4686    0.6973   -0.0056 C   0  0  0  0  0  0  0  0  0  0  0  0
   -1.1801    1.4205    0.0076 C   0  0  0  0  0  0  0  0  0  0  0  0
   -1.0983    2.6439    0.0008 O   0  0  0  0  0  0  0  0  0  0  0  0
   -3.7850    1.3789   -0.0045 C   0  0  0  0  0  0  0  0  0  0  0  0
   -4.8748    0.8197   -0.0012 O   0  0  0  0  0  0  0  0  0  0  0  0
   -3.7053    2.7185   -0.0034 O   0  0  0  0  0  0  0  0  0  0  0  0
   -1.3910   -2.8849    0.1333 C   0  0  0  0  0  0  0  0  0  0  0  0
   -1.9157   -3.5916   -0.9649 C   0  0  0  0  0  0  0  0  0  0  0  0
   -1.8741   -4.9780   -0.9886 C   0  0  0  0  0  0  0  0  0  0  0  0
   -1.2743   -5.6331    0.0721 C   0  0  0  0  0  0  0  0  0  0  0  0
   -0.7680   -4.9041    1.1514 C   0  0  0  0  0  0  0  0  0  0  0  0
   -0.8668   -3.5497    1.2129 N   0  0  0  0  0  0  0  0  0  0  0  0
    0.0194   -5.5457    2.0956 N   0  0  0  0  0  0  0  0  0  0  0  0
   -1.1647   -6.9709    0.0462 F   0  0  0  0  0  0  0  0  0  0  0  0
   -2.3950   -2.9427   -2.0372 F   0  0  0  0  0  0  0  0  0  0  0  0
    1.2701    2.4373    0.0217 H   0  0  0  0  0  0  0  0  0  0  0  0
    4.5503   -1.8570    1.8913 H   0  0  0  0  0  0  0  0  0  0  0  0
    5.1187   -0.2594    1.2947 H   0  0  0  0  0  0  0  0  0  0  0  0
    6.3241   -2.8226    0.4142 H   0  0  0  0  0  0  0  0  0  0  0  0
    4.4316   -2.3132   -1.7868 H   0  0  0  0  0  0  0  0  0  0  0  0
    4.1178   -3.4101   -0.4016 H   0  0  0  0  0  0  0  0  0  0  0  0
    6.0307   -0.3809   -1.0182 H   0  0  0  0  0  0  0  0  0  0  0  0
   -3.3157   -1.2317    0.0071 H   0  0  0  0  0  0  0  0  0  0  0  0
   -4.6098    3.0898   -0.0000 H   0  0  0  0  0  0  0  0  0  0  0  0
   -2.2535   -5.5359   -1.8350 H   0  0  0  0  0  0  0  0  0  0  0  0
    0.3701   -4.9967    2.8662 H   0  0  0  0  0  0  0  0  0  0  0  0
   -0.0412   -6.5517    2.1811 H   0  0  0  0  0  0  0  0  0  0  0  0
  1  2  2  0  0  0  0
  1  6  1  0  0  0  0
  1 31  1  0  0  0  0
  2  3  1  0  0  0  0
  2 17  1  0  0  0  0
  3  4  2  0  0  0  0
  3 14  1  0  0  0  0
  4  5  1  0  0  0  0
  4 13  1  0  0  0  0
  5  6  2  0  0  0  0
  5  8  1  0  0  0  0
  6  7  1  0  0  0  0
  8  9  1  0  0  0  0
  8 11  1  0  0  0  0
  9 10  1  0  0  0  0
  9 32  1  0  0  0  0
  9 33  1  0  0  0  0
 10 11  1  0  0  0  0
 10 12  1  0  0  0  0
 10 34  1  0  0  0  0
 11 35  1  0  0  0  0
 11 36  1  0  0  0  0
 12 37  1  0  0  0  0
 14 15  1  0  0  0  0
 14 22  1  0  0  0  0
 15 16  2  0  0  0  0
 15 38  1  0  0  0  0
 16 17  1  0  0  0  0
 16 19  1  0  0  0  0
 17 18  2  0  0  0  0
 19 20  2  0  0  0  0
 19 21  1  0  0  0  0
 21 39  1  0  0  0  0
 22 23  2  0  0  0  0
 22 27  1  0  0  0  0
 23 24  1  0  0  0  0
 23 30  1  0  0  0  0
 24 25  2  0  0  0  0
 24 40  1  0  0  0  0
 25 26  1  0  0  0  0
 25 29  1  0  0  0  0
 26 27  2  0  0  0  0
 26 28  1  0  0  0  0
 28 41  1  0  0  0  0
 28 42  1  0  0  0  0
M  END
>  <DRUGBANK_ID>
DB11943

>  <COMMON_NAME>
Delafloxacin

>  <CAS_NUMBER>
189279-58-1

>  <UNII>
6315412YVF

>  <SYNONYMS>
Delafloxacin

$$$$
