SY1
 OpenBabel10282417173D

 48 51  0  0  0  0  0  0  0  0999 V2000
    1.3059    0.2992   -2.4022 N   0  0  0  0  0  0  0  0  0  0  0  0
   -1.2960    1.3749   -2.8146 C   0  0  0  0  0  0  0  0  0  0  0  0
   -0.9744    2.8526   -2.5966 C   0  0  0  0  0  0  0  0  0  0  0  0
    0.7943    2.2732   -0.9760 C   0  0  0  0  0  0  0  0  0  0  0  0
    1.3520    3.8385   -2.8260 C   0  0  0  0  0  0  0  0  0  0  0  0
    3.4420    4.0860   -3.8878 C   0  0  0  0  0  0  0  0  0  0  0  0
    5.5503    5.7911   -4.7147 C   0  0  0  0  0  0  0  0  0  0  0  0
    3.2677    5.4409   -4.0870 C   0  0  0  0  0  0  0  0  0  0  0  0
    0.1891    6.9198   -1.4288 C   0  0  0  0  0  0  0  0  0  0  0  0
    0.9575    8.0491   -1.7510 C   0  0  0  0  0  0  0  0  0  0  0  0
    1.4571    8.9131   -0.7974 C   0  0  0  0  0  0  0  0  0  0  0  0
   -0.0156    7.8724    0.7838 C   0  0  0  0  0  0  0  0  0  0  0  0
   -1.1400    5.7522    0.3131 C   0  0  0  0  0  0  0  0  0  0  0  0
   -1.7921    4.8441    0.6510 N   0  0  0  0  0  0  0  0  0  0  0  0
   -0.3172    6.8426   -0.1238 C   0  0  0  0  0  0  0  0  0  0  0  0
    0.9409    8.8450    0.4767 C   0  0  0  0  0  0  0  0  0  0  0  0
   -0.0840    5.8753   -2.4985 C   0  0  0  0  0  0  0  0  0  0  0  0
    1.1143    5.2056   -3.0075 N   0  0  0  0  0  0  0  0  0  0  0  0
    0.4085    3.0829   -2.1373 N   0  0  0  0  0  0  0  0  0  0  0  0
   -0.9306    0.5548   -1.5732 C   0  0  0  0  0  0  0  0  0  0  0  0
    0.5482    0.7723   -1.2451 C   0  0  1  0  0  0  0  0  0  0  0  0
    1.9648    5.9803   -3.7857 C   0  0  0  0  0  0  0  0  0  0  0  0
    1.7142    7.0813   -4.2688 O   0  0  0  0  0  0  0  0  0  0  0  0
    2.4613    3.2883   -3.2594 N   0  0  0  0  0  0  0  0  0  0  0  0
    4.2781    6.2963   -4.5510 C   0  0  0  0  0  0  0  0  0  0  0  0
    5.7111    4.4088   -4.7112 C   0  0  0  0  0  0  0  0  0  0  0  0
    4.6526    3.5587   -4.3328 C   0  0  0  0  0  0  0  0  0  0  0  0
    0.8308    0.2015   -0.3538 H   0  0  0  0  0  0  0  0  0  0  0  0
    1.3376   -0.7085   -2.4704 H   0  0  0  0  0  0  0  0  0  0  0  0
    2.2278    0.7263   -2.4521 H   0  0  0  0  0  0  0  0  0  0  0  0
   -2.3592    1.2433   -3.0437 H   0  0  0  0  0  0  0  0  0  0  0  0
   -0.7452    1.0103   -3.6897 H   0  0  0  0  0  0  0  0  0  0  0  0
   -1.1873    3.4072   -3.5166 H   0  0  0  0  0  0  0  0  0  0  0  0
   -1.6597    3.2223   -1.8233 H   0  0  0  0  0  0  0  0  0  0  0  0
    1.8411    2.4408   -0.6972 H   0  0  0  0  0  0  0  0  0  0  0  0
    0.1898    2.5945   -0.1164 H   0  0  0  0  0  0  0  0  0  0  0  0
    6.3880    6.4667   -4.8641 H   0  0  0  0  0  0  0  0  0  0  0  0
    1.1844    8.3128   -2.7721 H   0  0  0  0  0  0  0  0  0  0  0  0
    2.1915    9.6570   -1.0936 H   0  0  0  0  0  0  0  0  0  0  0  0
   -0.5200    7.9245    1.7446 H   0  0  0  0  0  0  0  0  0  0  0  0
    1.2554    9.5808    1.2080 H   0  0  0  0  0  0  0  0  0  0  0  0
   -0.6084    6.3324   -3.3431 H   0  0  0  0  0  0  0  0  0  0  0  0
   -0.7723    5.1511   -2.0831 H   0  0  0  0  0  0  0  0  0  0  0  0
   -1.5578    0.8635   -0.7255 H   0  0  0  0  0  0  0  0  0  0  0  0
   -1.1328   -0.5090   -1.7455 H   0  0  0  0  0  0  0  0  0  0  0  0
    4.0706    7.3449   -4.7557 H   0  0  0  0  0  0  0  0  0  0  0  0
    6.6696    3.9910   -5.0043 H   0  0  0  0  0  0  0  0  0  0  0  0
    4.7914    2.4834   -4.3667 H   0  0  0  0  0  0  0  0  0  0  0  0
  1 29  1  0  0  0  0
  1 30  1  0  0  0  0
  2  3  1  0  0  0  0
  2 20  1  0  0  0  0
  2 31  1  0  0  0  0
  2 32  1  0  0  0  0
  3 19  1  0  0  0  0
  3 33  1  0  0  0  0
  3 34  1  0  0  0  0
  4 19  1  0  0  0  0
  4 21  1  0  0  0  0
  4 35  1  0  0  0  0
  4 36  1  0  0  0  0
  5 18  1  0  0  0  0
  5 24  2  0  0  0  0
  5 19  1  0  0  0  0
  6  8  2  0  0  0  0
  6 27  1  0  0  0  0
  6 24  1  0  0  0  0
  7 25  2  0  0  0  0
  7 26  1  0  0  0  0
  7 37  1  0  0  0  0
  8 25  1  0  0  0  0
  8 22  1  0  0  0  0
  9 10  1  0  0  0  0
  9 17  1  0  0  0  0
  9 15  2  0  0  0  0
 10 11  2  0  0  0  0
 10 38  1  0  0  0  0
 11 16  1  0  0  0  0
 11 39  1  0  0  0  0
 12 16  2  0  0  0  0
 12 15  1  0  0  0  0
 12 40  1  0  0  0  0
 13 15  1  0  0  0  0
 13 14  3  0  0  0  0
 16 41  1  0  0  0  0
 17 18  1  0  0  0  0
 17 42  1  0  0  0  0
 17 43  1  0  0  0  0
 18 22  1  0  0  0  0
 20 21  1  0  0  0  0
 20 44  1  0  0  0  0
 20 45  1  0  0  0  0
 21 28  1  1  0  0  0
 21  1  1  0  0  0  0
 22 23  2  0  0  0  0
 25 46  1  0  0  0  0
 26 27  2  0  0  0  0
 26 47  1  0  0  0  0
 27 48  1  0  0  0  0
M  END
>  <DRUGBANK_ID>
DB08588

>  <COMMON_NAME>
2-({2-[(3R)-3-AMINOPIPERIDIN-1-YL]-4-OXOQUINAZOLIN-3(4H)-YL}METHYL)BENZONITRILE

$$$$
