
 OpenBabel10282417223D

353358  0  0  1  0  0  0  0  0999 V2000
  -21.8280   -7.2022    2.7533 C   0  0  0  0  0  0  0  0  0  0  0  0
  -21.2558   -6.3251    4.5156 S   0  0  0  0  0  0  0  0  0  0  0  0
  -19.9422   -7.4064    6.2127 C   0  0  0  0  0  0  0  0  0  0  0  0
  -19.8830   -8.8808    6.6265 C   0  0  0  0  0  0  0  0  0  0  0  0
  -20.1629   -9.7806    5.1522 C   0  0  2  0  0  0  0  0  0  0  0  0
  -18.9753  -10.4278    5.9139 N   0  0  0  0  0  0  0  0  0  0  0  0
  -18.3521  -11.9738    5.5566 C   0  0  0  0  0  0  0  0  0  0  0  0
  -17.2836  -11.8571    5.3545 O   0  0  0  0  0  0  0  0  0  0  0  0
  -19.7239  -13.2718    4.8053 C   0  0  2  0  0  0  0  0  0  0  0  0
  -19.3840  -14.4919    4.2029 C   0  0  0  0  0  0  0  0  0  0  0  0
  -19.0605  -14.6657    2.8485 O   0  0  0  0  0  0  0  0  0  0  0  0
  -20.9382  -13.0779    3.9399 N   0  0  0  0  0  0  0  0  0  0  0  0
  -22.2389  -12.9342    4.2528 C   0  0  0  0  0  0  0  0  0  0  0  0
  -22.9212  -12.3695    3.4012 O   0  0  0  0  0  0  0  0  0  0  0  0
  -22.7126  -13.2178    5.7499 C   0  0  2  0  0  0  0  0  0  0  0  0
  -21.9982  -14.3211    6.5629 C   0  0  0  0  0  0  0  0  0  0  0  0
  -21.4096  -14.0727    7.9806 C   0  0  0  0  0  0  0  0  0  0  0  0
  -20.2774  -14.6421    8.5215 C   0  0  0  0  0  0  0  0  0  0  0  0
  -19.8423  -14.3531    9.8539 C   0  0  0  0  0  0  0  0  0  0  0  0
  -20.4312  -13.3689   10.6255 C   0  0  0  0  0  0  0  0  0  0  0  0
  -20.0946  -13.0213   11.8907 O   0  0  0  0  0  0  0  0  0  0  0  0
  -21.5042  -12.7410   10.0943 C   0  0  0  0  0  0  0  0  0  0  0  0
  -22.0141  -13.1927    8.8379 C   0  0  0  0  0  0  0  0  0  0  0  0
  -24.1251  -12.8071    6.2223 N   0  0  0  0  0  0  0  0  0  0  0  0
  -24.8222  -11.7007    6.9476 C   0  0  0  0  0  0  0  0  0  0  0  0
  -26.0344  -11.6335    6.6831 O   0  0  0  0  0  0  0  0  0  0  0  0
  -24.2393  -10.2622    7.9670 C   0  0  2  0  0  0  0  0  0  0  0  0
  -23.3778  -10.6186    9.1941 C   0  0  0  0  0  0  0  0  0  0  0  0
  -22.6533   -9.6255    9.9279 O   0  0  0  0  0  0  0  0  0  0  0  0
  -25.1241   -9.1308    8.1659 N   0  0  0  0  0  0  0  0  0  0  0  0
  -25.0169   -7.8137    7.7068 C   0  0  0  0  0  0  0  0  0  0  0  0
  -25.4441   -6.8998    8.4090 O   0  0  0  0  0  0  0  0  0  0  0  0
  -24.1860   -7.4203    6.4744 C   0  0  2  0  0  0  0  0  0  0  0  0
  -23.9796   -5.9464    6.0599 C   0  0  0  0  0  0  0  0  0  0  0  0
  -24.0233   -5.6832    4.5623 C   0  0  0  0  0  0  0  0  0  0  0  0
  -24.9592   -6.5264    3.7636 C   0  0  0  0  0  0  0  0  0  0  0  0
  -26.2818   -6.2181    4.3432 C   0  0  0  0  0  0  0  0  0  0  0  0
  -26.4699   -4.8184    4.0211 N   0  0  0  0  0  0  0  0  0  0  0  0
  -24.0468   -8.4139    5.4749 N   0  0  0  0  0  0  0  0  0  0  0  0
  -22.8974   -8.7388    4.8691 C   0  0  0  0  0  0  0  0  0  0  0  0
  -22.9723   -9.6476    4.0344 O   0  0  0  0  0  0  0  0  0  0  0  0
  -21.5739   -8.1834    5.6021 C   0  0  2  0  0  0  0  0  0  0  0  0
  -21.5459   -7.6335    7.5893 C   0  0  0  0  0  0  0  0  0  0  0  0
  -19.8082   -7.2946    8.4861 C   0  0  0  0  0  0  0  0  0  0  0  0
  -18.7762   -6.1382    7.6551 C   0  0  0  0  0  0  0  0  0  0  0  0
  -19.8995   -5.1259    6.8334 C   0  0  0  0  0  0  0  0  0  0  0  0
  -20.4095   -4.2027    7.6760 N   0  0  0  0  0  0  0  0  0  0  0  0
  -19.7972   -8.1360    4.6920 N   0  0  0  0  0  0  0  0  0  0  0  0
  -18.3486   -8.9045    3.8492 C   0  0  0  0  0  0  0  0  0  0  0  0
  -17.8450   -8.7051    2.7263 O   0  0  0  0  0  0  0  0  0  0  0  0
  -17.9962  -10.1763    4.2596 C   0  0  2  0  0  0  0  0  0  0  0  0
  -19.6068  -11.3009    4.2263 C   0  0  0  0  0  0  0  0  0  0  0  0
  -20.2611  -11.8407    6.2248 C   0  0  0  0  0  0  0  0  0  0  0  0
  -20.5582  -11.1310    7.4858 C   0  0  0  0  0  0  0  0  0  0  0  0
  -21.9432  -10.6946    7.1840 C   0  0  0  0  0  0  0  0  0  0  0  0
  -22.9807  -10.8265    6.1566 N   0  0  0  0  0  0  0  0  0  0  0  0
  -17.0425   -9.6663    5.7980 N   0  0  0  0  0  0  0  0  0  0  0  0
  -16.0958  -10.4416    6.4545 C   0  0  0  0  0  0  0  0  0  0  0  0
  -16.2366  -10.6398    7.6683 O   0  0  0  0  0  0  0  0  0  0  0  0
  -15.2588  -11.2245    5.4700 C   0  0  2  0  0  0  0  0  0  0  0  0
  -14.0400  -11.5032    6.2254 C   0  0  0  0  0  0  0  0  0  0  0  0
  -13.2703  -12.5240    5.4590 C   0  0  0  0  0  0  0  0  0  0  0  0
  -13.1273  -12.0553    4.0440 C   0  0  0  0  0  0  0  0  0  0  0  0
  -12.7243  -10.6263    3.7871 C   0  0  0  0  0  0  0  0  0  0  0  0
  -11.4313  -10.5001    4.3881 N   0  0  0  0  0  0  0  0  0  0  0  0
  -15.3758  -10.6024    4.1404 N   0  0  0  0  0  0  0  0  0  0  0  0
  -15.8524  -11.1961    2.9803 C   0  0  0  0  0  0  0  0  0  0  0  0
  -16.0370  -10.4919    1.9737 O   0  0  0  0  0  0  0  0  0  0  0  0
  -16.3816  -12.7162    2.9228 C   0  0  2  0  0  0  0  0  0  0  0  0
  -17.2678  -13.5293    3.7615 C   0  0  0  0  0  0  0  0  0  0  0  0
  -17.2352  -15.2058    4.4249 C   0  0  0  0  0  0  0  0  0  0  0  0
  -16.2371  -15.1725    5.5104 C   0  0  0  0  0  0  0  0  0  0  0  0
  -16.3557  -14.1463    6.6722 C   0  0  0  0  0  0  0  0  0  0  0  0
  -17.4515  -14.1705    7.6174 N   0  0  0  0  0  0  0  0  0  0  0  0
  -15.4964  -13.7617    2.9629 N   0  0  0  0  0  0  0  0  0  0  0  0
  -15.4405  -14.8034    2.1203 C   0  0  0  0  0  0  0  0  0  0  0  0
  -14.6022  -15.6437    2.4379 O   0  0  0  0  0  0  0  0  0  0  0  0
  -16.1496  -14.7006    0.7299 C   0  0  2  0  0  0  0  0  0  0  0  0
  -15.1559  -14.1624   -0.3080 C   0  0  0  0  0  0  0  0  0  0  0  0
  -14.6984  -12.7075   -0.0946 C   0  0  0  0  0  0  0  0  0  0  0  0
  -13.8159  -12.5491    1.1097 C   0  0  0  0  0  0  0  0  0  0  0  0
  -12.6939  -13.5397    1.2621 C   0  0  0  0  0  0  0  0  0  0  0  0
  -11.7308  -13.0708    0.3186 N   0  0  0  0  0  0  0  0  0  0  0  0
  -17.3982  -13.9128    0.5594 N   0  0  0  0  0  0  0  0  0  0  0  0
  -18.6411  -14.4625    0.3524 C   0  0  0  0  0  0  0  0  0  0  0  0
  -19.7992  -13.4804    0.5415 C   0  0  0  0  0  0  0  0  0  0  0  0
  -18.8105  -15.6704    0.2545 O   0  0  0  0  0  0  0  0  0  0  0  0
  -20.2896   -9.0425    3.1698 C   0  0  0  0  0  0  0  0  0  0  0  0
  -20.9159   -9.5435    2.2858 O   0  0  0  0  0  0  0  0  0  0  0  0
  -19.4000   -7.3549    2.9774 N   0  0  0  0  0  0  0  0  0  0  0  0
  -18.2491   -6.5389    4.2617 C   0  0  1  0  0  0  0  0  0  0  0  0
  -16.9189   -6.4557    3.6753 C   0  0  0  0  0  0  0  0  0  0  0  0
  -17.2549   -5.5163    2.6442 C   0  0  0  0  0  0  0  0  0  0  0  0
  -17.0099   -4.2830    3.3539 C   0  0  0  0  0  0  0  0  0  0  0  0
  -15.9246   -3.6391    3.1146 O   0  0  0  0  0  0  0  0  0  0  0  0
  -17.8346   -3.6544    3.9337 O   0  0  0  0  0  0  0  0  0  0  0  0
  -18.4191   -4.9971    5.1599 C   0  0  0  0  0  0  0  0  0  0  0  0
  -17.7360   -4.5427    6.1115 O   0  0  0  0  0  0  0  0  0  0  0  0
  -19.6922   -4.1807    4.6011 N   0  0  0  0  0  0  0  0  0  0  0  0
  -20.0436   -4.1763    3.1169 C   0  0  1  0  0  0  0  0  0  0  0  0
  -21.5129   -4.0536    2.7047 C   0  0  0  0  0  0  0  0  0  0  0  0
  -22.3641   -3.0255    3.4241 C   0  0  0  0  0  0  0  0  0  0  0  0
  -22.5909   -2.7524    4.7637 C   0  0  0  0  0  0  0  0  0  0  0  0
  -22.8617   -1.4039    4.8861 N   0  0  0  0  0  0  0  0  0  0  0  0
  -22.7450   -0.8936    3.6529 C   0  0  0  0  0  0  0  0  0  0  0  0
  -22.6788   -1.8908    2.7893 N   0  0  0  0  0  0  0  0  0  0  0  0
  -19.2023   -3.3581    2.0860 C   0  0  0  0  0  0  0  0  0  0  0  0
  -18.2859   -3.6977    1.3376 O   0  0  0  0  0  0  0  0  0  0  0  0
  -19.2284   -2.0544    2.2853 N   0  0  0  0  0  0  0  0  0  0  0  0
  -20.1636   -1.4115    3.1461 C   0  0  1  0  0  0  0  0  0  0  0  0
  -19.7326   -0.8229    4.6310 C   0  0  0  0  0  0  0  0  0  0  0  0
  -18.3360    0.3390    4.6749 C   0  0  0  0  0  0  0  0  0  0  0  0
  -17.9625    0.4252    3.4681 C   0  0  0  0  0  0  0  0  0  0  0  0
  -17.0438    1.2568    3.0157 C   0  0  0  0  0  0  0  0  0  0  0  0
  -16.6979    2.1444    3.8708 C   0  0  0  0  0  0  0  0  0  0  0  0
  -16.4707    1.7548    5.0619 C   0  0  0  0  0  0  0  0  0  0  0  0
  -16.9666    0.6210    5.3323 C   0  0  0  0  0  0  0  0  0  0  0  0
  -20.8946   -0.6181    1.9048 C   0  0  0  0  0  0  0  0  0  0  0  0
  -21.8621   -0.7614    1.1607 O   0  0  0  0  0  0  0  0  0  0  0  0
  -20.4721    0.5281    1.4571 N   0  0  0  0  0  0  0  0  0  0  0  0
  -19.1840    0.9678    1.5583 C   0  0  1  0  0  0  0  0  0  0  0  0
  -18.1293    0.9158    0.5009 C   0  0  0  0  0  0  0  0  0  0  0  0
  -18.4617    2.1510   -0.1824 C   0  0  0  0  0  0  0  0  0  0  0  0
  -17.9956    3.2774    0.7112 C   0  0  0  0  0  0  0  0  0  0  0  0
  -16.6261    3.6360    0.6173 N   0  0  0  0  0  0  0  0  0  0  0  0
  -16.2880    4.9545    0.3676 C   0  0  0  0  0  0  0  0  0  0  0  0
  -14.9772    5.2913    0.4979 N   0  0  0  0  0  0  0  0  0  0  0  0
  -17.1305    5.9241    0.2521 N   0  0  0  0  0  0  0  0  0  0  0  0
  -19.6692    1.8410    2.7486 C   0  0  0  0  0  0  0  0  0  0  0  0
  -19.2949    2.1314    3.8681 O   0  0  0  0  0  0  0  0  0  0  0  0
  -20.7590    2.5154    2.5837 N   0  0  0  0  0  0  0  0  0  0  0  0
  -20.7777    3.4932    1.4005 C   0  0  1  0  0  0  0  0  0  0  0  0
  -21.8557    4.2158    2.0555 C   0  0  0  0  0  0  0  0  0  0  0  0
  -20.9038    4.7948    3.1312 C   0  0  0  0  0  0  0  0  0  0  0  0
  -19.5341    4.2280    3.3034 C   0  0  0  0  0  0  0  0  0  0  0  0
  -19.1691    5.4614    3.3284 N   0  0  0  0  0  0  0  0  0  0  0  0
  -19.7334    5.7935    4.4815 C   0  0  0  0  0  0  0  0  0  0  0  0
  -21.0508    5.6228    4.2170 C   0  0  0  0  0  0  0  0  0  0  0  0
  -21.8434    6.4546    4.9417 C   0  0  0  0  0  0  0  0  0  0  0  0
  -21.2622    6.8291    6.1797 C   0  0  0  0  0  0  0  0  0  0  0  0
  -20.0352    6.3847    6.6309 C   0  0  0  0  0  0  0  0  0  0  0  0
  -19.1696    6.1956    5.6467 C   0  0  0  0  0  0  0  0  0  0  0  0
  -20.0508    4.8317    0.3684 C   0  0  0  0  0  0  0  0  0  0  0  0
  -19.6345    4.4828   -0.7626 O   0  0  0  0  0  0  0  0  0  0  0  0
  -19.5486    6.0998    0.7507 N   0  0  0  0  0  0  0  0  0  0  0  0
  -19.5775    7.1813    1.8220 C   0  0  0  0  0  0  0  0  0  0  0  0
  -18.2731    7.5852    3.0034 C   0  0  0  0  0  0  0  0  0  0  0  0
  -18.5103    8.5941    3.6926 O   0  0  0  0  0  0  0  0  0  0  0  0
  -17.1681    6.8137    3.5513 N   0  0  0  0  0  0  0  0  0  0  0  0
  -16.8417    5.3158    3.7728 C   0  0  1  0  0  0  0  0  0  0  0  0
  -15.6160    4.8729    3.0517 C   0  0  0  0  0  0  0  0  0  0  0  0
  -14.3120    4.9468    3.6473 C   0  0  0  0  0  0  0  0  0  0  0  0
  -14.2498    3.7203    4.4996 C   0  0  0  0  0  0  0  0  0  0  0  0
  -14.1306    2.2777    4.1401 C   0  0  0  0  0  0  0  0  0  0  0  0
  -13.0102    2.0585    3.3342 N   0  0  0  0  0  0  0  0  0  0  0  0
  -17.2052    4.4450    5.3239 C   0  0  0  0  0  0  0  0  0  0  0  0
  -18.2535    3.8947    5.6469 O   0  0  0  0  0  0  0  0  0  0  0  0
  -16.3394    4.4164    6.3710 N   0  0  0  0  0  0  0  0  0  0  0  0
  -15.6910    5.6169    6.6206 C   0  0  0  0  0  0  0  0  0  0  0  0
  -14.2846    5.2152    6.8763 C   0  0  0  0  0  0  0  0  0  0  0  0
  -14.3569    3.7823    7.4671 C   0  0  0  0  0  0  0  0  0  0  0  0
  -15.7382    3.2355    7.1161 C   0  0  1  0  0  0  0  0  0  0  0  0
  -16.7130    2.4084    8.0807 C   0  0  0  0  0  0  0  0  0  0  0  0
  -16.2745    2.2078    9.2205 O   0  0  0  0  0  0  0  0  0  0  0  0
  -17.9035    1.7313    7.8191 N   0  0  0  0  0  0  0  0  0  0  0  0
  -18.6574    1.0365    6.7309 C   0  0  1  0  0  0  0  0  0  0  0  0
  -17.9723   -0.8507    6.3586 C   0  0  0  0  0  0  0  0  0  0  0  0
  -19.0167   -1.3759    7.2077 C   0  0  0  0  0  0  0  0  0  0  0  0
  -17.1887   -1.5101    4.6716 C   0  0  0  0  0  0  0  0  0  0  0  0
  -20.2586    1.6040    6.3328 C   0  0  0  0  0  0  0  0  0  0  0  0
  -20.4458    2.8337    5.7544 N   0  0  0  0  0  0  0  0  0  0  0  0
  -21.2916    0.9382    6.3188 O   0  0  0  0  0  0  0  0  0  0  0  0
  -22.5275   -6.6002    2.2200 H   0  0  0  0  0  0  0  0  0  0  0  0
  -22.2827   -8.0721    3.0852 H   0  0  0  0  0  0  0  0  0  0  0  0
  -21.1177   -7.4174    1.9314 H   0  0  0  0  0  0  0  0  0  0  0  0
  -18.9101   -7.6774    6.1870 H   0  0  0  0  0  0  0  0  0  0  0  0
  -20.3399   -6.7861    6.8855 H   0  0  0  0  0  0  0  0  0  0  0  0
  -19.1417   -9.1676    7.3897 H   0  0  0  0  0  0  0  0  0  0  0  0
  -20.5391   -9.1369    7.4002 H   0  0  0  0  0  0  0  0  0  0  0  0
  -21.0380  -10.4149    5.0721 H   0  0  0  0  0  0  0  0  0  0  0  0
  -18.4027   -9.5929    5.8215 H   0  0  0  0  0  0  0  0  0  0  0  0
  -19.8889  -13.7254    5.7755 H   0  0  0  0  0  0  0  0  0  0  0  0
  -18.6847  -14.3272    5.0296 H   0  0  0  0  0  0  0  0  0  0  0  0
  -20.1266  -15.2252    4.3623 H   0  0  0  0  0  0  0  0  0  0  0  0
  -18.5013  -14.0426    2.3446 H   0  0  0  0  0  0  0  0  0  0  0  0
  -20.7419  -12.7809    2.9761 H   0  0  0  0  0  0  0  0  0  0  0  0
  -22.1967  -12.4385    6.1406 H   0  0  0  0  0  0  0  0  0  0  0  0
  -22.7436  -15.0660    6.5755 H   0  0  0  0  0  0  0  0  0  0  0  0
  -21.1957  -14.7215    5.9668 H   0  0  0  0  0  0  0  0  0  0  0  0
  -19.7305  -15.3559    7.9197 H   0  0  0  0  0  0  0  0  0  0  0  0
  -19.0622  -14.9667   10.2783 H   0  0  0  0  0  0  0  0  0  0  0  0
  -19.4748  -13.6746   12.2460 H   0  0  0  0  0  0  0  0  0  0  0  0
  -21.8918  -11.8841   10.6552 H   0  0  0  0  0  0  0  0  0  0  0  0
  -22.8680  -12.7601    8.3576 H   0  0  0  0  0  0  0  0  0  0  0  0
  -24.6912  -13.1860    5.4822 H   0  0  0  0  0  0  0  0  0  0  0  0
  -23.6135   -9.5397    7.4677 H   0  0  0  0  0  0  0  0  0  0  0  0
  -23.8181  -11.4675    9.6851 H   0  0  0  0  0  0  0  0  0  0  0  0
  -22.5019  -11.1191    8.8888 H   0  0  0  0  0  0  0  0  0  0  0  0
  -21.7862   -9.4174    9.5008 H   0  0  0  0  0  0  0  0  0  0  0  0
  -25.5843   -9.2580    9.0389 H   0  0  0  0  0  0  0  0  0  0  0  0
  -23.3039   -7.5446    6.9814 H   0  0  0  0  0  0  0  0  0  0  0  0
  -24.7717   -5.3892    6.5435 H   0  0  0  0  0  0  0  0  0  0  0  0
  -23.0990   -5.4474    6.5068 H   0  0  0  0  0  0  0  0  0  0  0  0
  -24.0282   -4.6158    4.3921 H   0  0  0  0  0  0  0  0  0  0  0  0
  -23.2148   -5.8755    3.9423 H   0  0  0  0  0  0  0  0  0  0  0  0
  -24.8006   -6.3643    2.6955 H   0  0  0  0  0  0  0  0  0  0  0  0
  -24.7568   -7.5849    3.7604 H   0  0  0  0  0  0  0  0  0  0  0  0
  -27.0028   -6.8989    3.9158 H   0  0  0  0  0  0  0  0  0  0  0  0
  -26.2904   -6.3755    5.4314 H   0  0  0  0  0  0  0  0  0  0  0  0
  -27.3237   -4.4876    4.4330 H   0  0  0  0  0  0  0  0  0  0  0  0
  -25.7403   -4.2379    4.4465 H   0  0  0  0  0  0  0  0  0  0  0  0
  -24.8560   -8.8262    5.0363 H   0  0  0  0  0  0  0  0  0  0  0  0
  -21.5334   -9.0529    5.9880 H   0  0  0  0  0  0  0  0  0  0  0  0
  -21.9314   -6.6342    7.4657 H   0  0  0  0  0  0  0  0  0  0  0  0
  -22.2222   -8.0919    8.2987 H   0  0  0  0  0  0  0  0  0  0  0  0
  -19.9831   -6.7772    9.3988 H   0  0  0  0  0  0  0  0  0  0  0  0
  -19.0540   -8.1113    8.6618 H   0  0  0  0  0  0  0  0  0  0  0  0
  -17.6841   -6.5135    7.5460 H   0  0  0  0  0  0  0  0  0  0  0  0
  -18.3820   -6.4098    6.6584 H   0  0  0  0  0  0  0  0  0  0  0  0
  -19.9174   -5.5430    5.8337 H   0  0  0  0  0  0  0  0  0  0  0  0
  -20.9917   -5.3360    6.4950 H   0  0  0  0  0  0  0  0  0  0  0  0
  -20.9829   -3.6335    7.0673 H   0  0  0  0  0  0  0  0  0  0  0  0
  -20.9279   -4.8524    8.2541 H   0  0  0  0  0  0  0  0  0  0  0  0
  -19.9842   -7.2753    4.2261 H   0  0  0  0  0  0  0  0  0  0  0  0
  -17.5650  -10.6796    3.4599 H   0  0  0  0  0  0  0  0  0  0  0  0
  -20.4893  -11.0199    3.6470 H   0  0  0  0  0  0  0  0  0  0  0  0
  -19.2526  -11.8141    3.3490 H   0  0  0  0  0  0  0  0  0  0  0  0
  -20.7711  -12.6693    6.3979 H   0  0  0  0  0  0  0  0  0  0  0  0
  -19.4351  -12.3185    6.9074 H   0  0  0  0  0  0  0  0  0  0  0  0
  -20.5076  -11.4100    8.5332 H   0  0  0  0  0  0  0  0  0  0  0  0
  -19.5789  -10.7173    7.8050 H   0  0  0  0  0  0  0  0  0  0  0  0
  -21.9810   -9.8073    7.7602 H   0  0  0  0  0  0  0  0  0  0  0  0
  -21.8720  -10.2806    6.3142 H   0  0  0  0  0  0  0  0  0  0  0  0
  -23.7091  -10.1372    5.9486 H   0  0  0  0  0  0  0  0  0  0  0  0
  -22.8975  -11.1488    5.1778 H   0  0  0  0  0  0  0  0  0  0  0  0
  -17.5167   -9.7317    6.7605 H   0  0  0  0  0  0  0  0  0  0  0  0
  -15.4974  -12.2538    5.2436 H   0  0  0  0  0  0  0  0  0  0  0  0
  -13.6056  -10.5204    6.3148 H   0  0  0  0  0  0  0  0  0  0  0  0
  -14.2914  -11.9256    7.2089 H   0  0  0  0  0  0  0  0  0  0  0  0
  -12.3033  -12.6260    5.9149 H   0  0  0  0  0  0  0  0  0  0  0  0
  -13.7458  -13.5212    5.4630 H   0  0  0  0  0  0  0  0  0  0  0  0
  -12.4675  -12.7457    3.5949 H   0  0  0  0  0  0  0  0  0  0  0  0
  -14.0541  -12.1963    3.5575 H   0  0  0  0  0  0  0  0  0  0  0  0
  -12.7412  -10.3772    2.7258 H   0  0  0  0  0  0  0  0  0  0  0  0
  -13.3807   -9.8888    4.2522 H   0  0  0  0  0  0  0  0  0  0  0  0
  -11.1768   -9.5242    4.3480 H   0  0  0  0  0  0  0  0  0  0  0  0
  -11.5180  -10.7547    5.3700 H   0  0  0  0  0  0  0  0  0  0  0  0
  -15.4563   -9.5898    4.1611 H   0  0  0  0  0  0  0  0  0  0  0  0
  -16.9995  -12.5460    2.0525 H   0  0  0  0  0  0  0  0  0  0  0  0
  -17.0883  -13.3255    4.7296 H   0  0  0  0  0  0  0  0  0  0  0  0
  -18.1411  -12.9755    3.4768 H   0  0  0  0  0  0  0  0  0  0  0  0
  -18.0123  -15.6299    5.1903 H   0  0  0  0  0  0  0  0  0  0  0  0
  -17.5224  -15.9909    3.7177 H   0  0  0  0  0  0  0  0  0  0  0  0
  -16.2697  -16.1701    5.9058 H   0  0  0  0  0  0  0  0  0  0  0  0
  -15.3542  -15.0137    4.9352 H   0  0  0  0  0  0  0  0  0  0  0  0
  -15.3731  -14.0697    7.1127 H   0  0  0  0  0  0  0  0  0  0  0  0
  -16.4786  -13.1321    6.4184 H   0  0  0  0  0  0  0  0  0  0  0  0
  -17.3437  -13.3374    8.2203 H   0  0  0  0  0  0  0  0  0  0  0  0
  -18.3259  -13.9476    7.1536 H   0  0  0  0  0  0  0  0  0  0  0  0
  -14.9742  -13.7668    3.8156 H   0  0  0  0  0  0  0  0  0  0  0  0
  -16.3983  -15.7430    0.5283 H   0  0  0  0  0  0  0  0  0  0  0  0
  -14.2931  -14.8292   -0.3507 H   0  0  0  0  0  0  0  0  0  0  0  0
  -15.6282  -14.2105   -1.2888 H   0  0  0  0  0  0  0  0  0  0  0  0
  -14.1121  -12.3421   -0.9302 H   0  0  0  0  0  0  0  0  0  0  0  0
  -15.5650  -12.0410   -0.0072 H   0  0  0  0  0  0  0  0  0  0  0  0
  -13.6080  -11.5106    1.3490 H   0  0  0  0  0  0  0  0  0  0  0  0
  -14.4551  -12.7460    1.8826 H   0  0  0  0  0  0  0  0  0  0  0  0
  -12.2246  -13.6451    2.2277 H   0  0  0  0  0  0  0  0  0  0  0  0
  -12.9951  -14.5702    1.0809 H   0  0  0  0  0  0  0  0  0  0  0  0
  -10.9513  -13.7104    0.3498 H   0  0  0  0  0  0  0  0  0  0  0  0
  -12.1700  -13.1321   -0.5942 H   0  0  0  0  0  0  0  0  0  0  0  0
  -17.2999  -12.9101    0.4266 H   0  0  0  0  0  0  0  0  0  0  0  0
  -20.3771  -13.4302   -0.3700 H   0  0  0  0  0  0  0  0  0  0  0  0
  -20.4658  -13.8545    1.3306 H   0  0  0  0  0  0  0  0  0  0  0  0
  -19.4801  -12.4785    0.8631 H   0  0  0  0  0  0  0  0  0  0  0  0
  -20.0512   -6.6208    2.8942 H   0  0  0  0  0  0  0  0  0  0  0  0
  -17.8911   -7.2719    5.0113 H   0  0  0  0  0  0  0  0  0  0  0  0
  -16.2539   -6.1882    4.5014 H   0  0  0  0  0  0  0  0  0  0  0  0
  -16.5732   -7.3468    3.2176 H   0  0  0  0  0  0  0  0  0  0  0  0
  -16.6013   -5.4944    1.8257 H   0  0  0  0  0  0  0  0  0  0  0  0
  -18.2208   -5.7316    2.1510 H   0  0  0  0  0  0  0  0  0  0  0  0
  -16.4732   -3.0547    2.5439 H   0  0  0  0  0  0  0  0  0  0  0  0
  -19.8934   -3.3869    5.2025 H   0  0  0  0  0  0  0  0  0  0  0  0
  -19.7320   -5.1316    2.8510 H   0  0  0  0  0  0  0  0  0  0  0  0
  -21.4726   -4.0801    1.6078 H   0  0  0  0  0  0  0  0  0  0  0  0
  -22.0273   -4.9440    2.9024 H   0  0  0  0  0  0  0  0  0  0  0  0
  -22.4367   -3.3498    5.6306 H   0  0  0  0  0  0  0  0  0  0  0  0
  -22.8371   -0.7853    5.6857 H   0  0  0  0  0  0  0  0  0  0  0  0
  -22.4847    0.1602    3.4767 H   0  0  0  0  0  0  0  0  0  0  0  0
  -18.3365   -1.6701    2.0371 H   0  0  0  0  0  0  0  0  0  0  0  0
  -20.5619   -2.2471    3.6539 H   0  0  0  0  0  0  0  0  0  0  0  0
  -20.5900   -0.7307    5.3029 H   0  0  0  0  0  0  0  0  0  0  0  0
  -19.3559   -1.7619    5.0671 H   0  0  0  0  0  0  0  0  0  0  0  0
  -18.8012   -0.0672    3.1361 H   0  0  0  0  0  0  0  0  0  0  0  0
  -17.2137    1.8270    2.1857 H   0  0  0  0  0  0  0  0  0  0  0  0
  -16.6056    3.1156    3.5868 H   0  0  0  0  0  0  0  0  0  0  0  0
  -16.8197    2.4512    5.7447 H   0  0  0  0  0  0  0  0  0  0  0  0
  -16.5681    0.4423    6.3657 H   0  0  0  0  0  0  0  0  0  0  0  0
  -21.2349    1.1601    1.7570 H   0  0  0  0  0  0  0  0  0  0  0  0
  -18.6573    0.0686    1.7204 H   0  0  0  0  0  0  0  0  0  0  0  0
  -17.0631    0.9315    0.8146 H   0  0  0  0  0  0  0  0  0  0  0  0
  -18.1895   -0.0949    0.0661 H   0  0  0  0  0  0  0  0  0  0  0  0
  -17.9539    2.1679   -1.1095 H   0  0  0  0  0  0  0  0  0  0  0  0
  -19.5358    2.0086   -0.3360 H   0  0  0  0  0  0  0  0  0  0  0  0
  -18.4145    4.1890    0.9855 H   0  0  0  0  0  0  0  0  0  0  0  0
  -18.2814    3.0131    1.7078 H   0  0  0  0  0  0  0  0  0  0  0  0
  -16.3608    3.2846    1.5110 H   0  0  0  0  0  0  0  0  0  0  0  0
  -14.8676    6.2420    0.8724 H   0  0  0  0  0  0  0  0  0  0  0  0
  -14.4527    4.6940    1.1263 H   0  0  0  0  0  0  0  0  0  0  0  0
  -16.6585    6.8263    0.1566 H   0  0  0  0  0  0  0  0  0  0  0  0
  -20.7285    2.8910    3.5550 H   0  0  0  0  0  0  0  0  0  0  0  0
  -20.8525    2.7103    0.6917 H   0  0  0  0  0  0  0  0  0  0  0  0
  -22.2496    4.5467    1.1014 H   0  0  0  0  0  0  0  0  0  0  0  0
  -22.5504    3.4873    2.5075 H   0  0  0  0  0  0  0  0  0  0  0  0
  -18.5440    3.8890    3.6337 H   0  0  0  0  0  0  0  0  0  0  0  0
  -19.1627    5.5078    2.3137 H   0  0  0  0  0  0  0  0  0  0  0  0
  -22.7718    6.8156    4.5470 H   0  0  0  0  0  0  0  0  0  0  0  0
  -21.7107    7.5864    6.7859 H   0  0  0  0  0  0  0  0  0  0  0  0
  -19.5656    6.4618    7.5945 H   0  0  0  0  0  0  0  0  0  0  0  0
  -18.1266    6.2219    5.8470 H   0  0  0  0  0  0  0  0  0  0  0  0
  -18.6732    6.2446    0.2223 H   0  0  0  0  0  0  0  0  0  0  0  0
  -20.3219    7.9429    1.6349 H   0  0  0  0  0  0  0  0  0  0  0  0
  -20.3680    6.7906    2.4296 H   0  0  0  0  0  0  0  0  0  0  0  0
  -16.8590    7.2628    4.3977 H   0  0  0  0  0  0  0  0  0  0  0  0
  -17.3743    4.9665    2.8925 H   0  0  0  0  0  0  0  0  0  0  0  0
  -15.4984    3.8941    2.5945 H   0  0  0  0  0  0  0  0  0  0  0  0
  -15.7039    5.6074    2.3147 H   0  0  0  0  0  0  0  0  0  0  0  0
  -13.5339    4.8658    2.9111 H   0  0  0  0  0  0  0  0  0  0  0  0
  -14.4207    5.9499    4.0580 H   0  0  0  0  0  0  0  0  0  0  0  0
  -13.4791    3.8133    5.2127 H   0  0  0  0  0  0  0  0  0  0  0  0
  -15.2048    3.7755    4.9233 H   0  0  0  0  0  0  0  0  0  0  0  0
  -14.1899    1.6142    5.0175 H   0  0  0  0  0  0  0  0  0  0  0  0
  -14.8265    1.9150    3.4054 H   0  0  0  0  0  0  0  0  0  0  0  0
  -13.1820    1.0768    3.1051 H   0  0  0  0  0  0  0  0  0  0  0  0
  -13.2662    2.6021    2.5116 H   0  0  0  0  0  0  0  0  0  0  0  0
  -16.2477    6.0089    7.4591 H   0  0  0  0  0  0  0  0  0  0  0  0
  -15.8168    6.2502    5.7489 H   0  0  0  0  0  0  0  0  0  0  0  0
  -13.7262    5.3705    5.9456 H   0  0  0  0  0  0  0  0  0  0  0  0
  -13.7786    5.9108    7.5091 H   0  0  0  0  0  0  0  0  0  0  0  0
  -13.5447    3.1237    7.0708 H   0  0  0  0  0  0  0  0  0  0  0  0
  -14.3045    3.7618    8.5343 H   0  0  0  0  0  0  0  0  0  0  0  0
  -15.2811    2.4000    6.5600 H   0  0  0  0  0  0  0  0  0  0  0  0
  -18.2166    1.2158    8.6024 H   0  0  0  0  0  0  0  0  0  0  0  0
  -18.4191    1.7967    5.9864 H   0  0  0  0  0  0  0  0  0  0  0  0
  -16.9593   -1.1878    6.6847 H   0  0  0  0  0  0  0  0  0  0  0  0
  -19.8733   -0.7246    7.0559 H   0  0  0  0  0  0  0  0  0  0  0  0
  -19.2904   -2.3643    6.9537 H   0  0  0  0  0  0  0  0  0  0  0  0
  -18.6734   -1.1141    8.1935 H   0  0  0  0  0  0  0  0  0  0  0  0
  -16.4874   -0.9190    3.9648 H   0  0  0  0  0  0  0  0  0  0  0  0
  -17.3158   -2.1651    3.8951 H   0  0  0  0  0  0  0  0  0  0  0  0
  -18.0612   -1.4611    4.0325 H   0  0  0  0  0  0  0  0  0  0  0  0
  -21.2182    2.8119    5.0971 H   0  0  0  0  0  0  0  0  0  0  0  0
  -19.5935    3.2009    5.2969 H   0  0  0  0  0  0  0  0  0  0  0  0
  1  2  1  0  0  0  0
  1173  1  0  0  0  0
  1174  1  0  0  0  0
  1175  1  0  0  0  0
  2  3  1  0  0  0  0
  3  4  1  0  0  0  0
  3176  1  0  0  0  0
  3177  1  0  0  0  0
  4178  1  0  0  0  0
  4179  1  0  0  0  0
  5 88  1  0  0  0  0
  5180  1  1  0  0  0
  5  6  1  0  0  0  0
  5  4  1  0  0  0  0
  6  7  1  0  0  0  0
  6181  1  0  0  0  0
  7  8  2  0  0  0  0
  9 12  1  0  0  0  0
  9182  1  1  0  0  0
  9 10  1  0  0  0  0
  9  7  1  0  0  0  0
 10 11  1  0  0  0  0
 10183  1  0  0  0  0
 10184  1  0  0  0  0
 11185  1  0  0  0  0
 12 13  1  0  0  0  0
 12186  1  0  0  0  0
 13 14  2  0  0  0  0
 15 24  1  0  0  0  0
 15187  1  1  0  0  0
 15 16  1  0  0  0  0
 15 13  1  0  0  0  0
 16 17  1  0  0  0  0
 16188  1  0  0  0  0
 16189  1  0  0  0  0
 17 18  2  0  0  0  0
 17 23  1  0  0  0  0
 18 19  1  0  0  0  0
 18190  1  0  0  0  0
 19 20  2  0  0  0  0
 19191  1  0  0  0  0
 20 21  1  0  0  0  0
 20 22  1  0  0  0  0
 21192  1  0  0  0  0
 22 23  2  0  0  0  0
 22193  1  0  0  0  0
 23194  1  0  0  0  0
 24 25  1  0  0  0  0
 24195  1  0  0  0  0
 25 26  2  0  0  0  0
 27 30  1  0  0  0  0
 27196  1  6  0  0  0
 27 28  1  0  0  0  0
 27 25  1  0  0  0  0
 28 29  1  0  0  0  0
 28197  1  0  0  0  0
 28198  1  0  0  0  0
 29199  1  0  0  0  0
 30 31  1  0  0  0  0
 30200  1  0  0  0  0
 31 32  2  0  0  0  0
 33 39  1  0  0  0  0
 33201  1  1  0  0  0
 33 34  1  0  0  0  0
 33 31  1  0  0  0  0
 34 35  1  0  0  0  0
 34202  1  0  0  0  0
 34203  1  0  0  0  0
 35 36  1  0  0  0  0
 35204  1  0  0  0  0
 35205  1  0  0  0  0
 36 37  1  0  0  0  0
 36206  1  0  0  0  0
 36207  1  0  0  0  0
 37 38  1  0  0  0  0
 37208  1  0  0  0  0
 37209  1  0  0  0  0
 38210  1  0  0  0  0
 38211  1  0  0  0  0
 39 40  1  0  0  0  0
 39212  1  0  0  0  0
 40 41  2  0  0  0  0
 42 48  1  0  0  0  0
 42213  1  1  0  0  0
 42 43  1  0  0  0  0
 42 40  1  0  0  0  0
 43 44  1  0  0  0  0
 43214  1  0  0  0  0
 43215  1  0  0  0  0
 44 45  1  0  0  0  0
 44216  1  0  0  0  0
 44217  1  0  0  0  0
 45 46  1  0  0  0  0
 45218  1  0  0  0  0
 45219  1  0  0  0  0
 46 47  1  0  0  0  0
 46220  1  0  0  0  0
 46221  1  0  0  0  0
 47222  1  0  0  0  0
 47223  1  0  0  0  0
 48 49  1  0  0  0  0
 48224  1  0  0  0  0
 49 50  2  0  0  0  0
 51 57  1  0  0  0  0
 51225  1  6  0  0  0
 51 52  1  0  0  0  0
 51 49  1  0  0  0  0
 52 53  1  0  0  0  0
 52226  1  0  0  0  0
 52227  1  0  0  0  0
 53 54  1  0  0  0  0
 53228  1  0  0  0  0
 53229  1  0  0  0  0
 54 55  1  0  0  0  0
 54230  1  0  0  0  0
 54231  1  0  0  0  0
 55 56  1  0  0  0  0
 55232  1  0  0  0  0
 55233  1  0  0  0  0
 56234  1  0  0  0  0
 56235  1  0  0  0  0
 57 58  1  0  0  0  0
 57236  1  0  0  0  0
 58 59  2  0  0  0  0
 60 66  1  0  0  0  0
 60237  1  6  0  0  0
 60 61  1  0  0  0  0
 60 58  1  0  0  0  0
 61 62  1  0  0  0  0
 61238  1  0  0  0  0
 61239  1  0  0  0  0
 62 63  1  0  0  0  0
 62240  1  0  0  0  0
 62241  1  0  0  0  0
 63 64  1  0  0  0  0
 63242  1  0  0  0  0
 63243  1  0  0  0  0
 64 65  1  0  0  0  0
 64244  1  0  0  0  0
 64245  1  0  0  0  0
 65246  1  0  0  0  0
 65247  1  0  0  0  0
 66 67  1  0  0  0  0
 66248  1  0  0  0  0
 67 68  2  0  0  0  0
 69 75  1  0  0  0  0
 69249  1  6  0  0  0
 69 70  1  0  0  0  0
 69 67  1  0  0  0  0
 70 71  1  0  0  0  0
 70250  1  0  0  0  0
 70251  1  0  0  0  0
 71 72  1  0  0  0  0
 71252  1  0  0  0  0
 71253  1  0  0  0  0
 72 73  1  0  0  0  0
 72254  1  0  0  0  0
 72255  1  0  0  0  0
 73 74  1  0  0  0  0
 73256  1  0  0  0  0
 73257  1  0  0  0  0
 74258  1  0  0  0  0
 74259  1  0  0  0  0
 75 76  1  0  0  0  0
 75260  1  0  0  0  0
 76 77  2  0  0  0  0
 78 84  1  0  0  0  0
 78261  1  6  0  0  0
 78 79  1  0  0  0  0
 78 76  1  0  0  0  0
 79 80  1  0  0  0  0
 79262  1  0  0  0  0
 79263  1  0  0  0  0
 80 81  1  0  0  0  0
 80264  1  0  0  0  0
 80265  1  0  0  0  0
 81 82  1  0  0  0  0
 81266  1  0  0  0  0
 81267  1  0  0  0  0
 82 83  1  0  0  0  0
 82268  1  0  0  0  0
 82269  1  0  0  0  0
 83270  1  0  0  0  0
 83271  1  0  0  0  0
 84 85  1  0  0  0  0
 84272  1  0  0  0  0
 85 86  1  0  0  0  0
 85 87  2  0  0  0  0
 86273  1  0  0  0  0
 86274  1  0  0  0  0
 86275  1  0  0  0  0
 88 89  2  0  0  0  0
 88 90  1  0  0  0  0
 90276  1  0  0  0  0
 91 90  1  0  0  0  0
 91 92  1  0  0  0  0
 91 97  1  0  0  0  0
 91277  1  1  0  0  0
 92 93  1  0  0  0  0
 92278  1  0  0  0  0
 92279  1  0  0  0  0
 93 94  1  0  0  0  0
 93280  1  0  0  0  0
 93281  1  0  0  0  0
 94 95  1  0  0  0  0
 94 96  2  0  0  0  0
 95282  1  0  0  0  0
 97 98  2  0  0  0  0
 97 99  1  0  0  0  0
 99283  1  0  0  0  0
100 99  1  0  0  0  0
100101  1  0  0  0  0
100107  1  0  0  0  0
100284  1  6  0  0  0
101102  1  0  0  0  0
101285  1  0  0  0  0
101286  1  0  0  0  0
102103  2  0  0  0  0
102106  1  0  0  0  0
103104  1  0  0  0  0
103287  1  0  0  0  0
104105  1  0  0  0  0
104288  1  0  0  0  0
105106  2  0  0  0  0
105289  1  0  0  0  0
107108  2  0  0  0  0
107109  1  0  0  0  0
109290  1  0  0  0  0
110109  1  0  0  0  0
110111  1  0  0  0  0
110118  1  0  0  0  0
110291  1  1  0  0  0
111112  1  0  0  0  0
111292  1  0  0  0  0
111293  1  0  0  0  0
112113  2  0  0  0  0
112117  1  0  0  0  0
113114  1  0  0  0  0
113294  1  0  0  0  0
114115  2  0  0  0  0
114295  1  0  0  0  0
115116  1  0  0  0  0
115296  1  0  0  0  0
116117  2  0  0  0  0
116297  1  0  0  0  0
117298  1  0  0  0  0
118119  2  0  0  0  0
118120  1  0  0  0  0
120299  1  0  0  0  0
121120  1  0  0  0  0
121122  1  0  0  0  0
121129  1  0  0  0  0
121300  1  1  0  0  0
122123  1  0  0  0  0
122301  1  0  0  0  0
122302  1  0  0  0  0
123124  1  0  0  0  0
123303  1  0  0  0  0
123304  1  0  0  0  0
124125  1  0  0  0  0
124305  1  0  0  0  0
124306  1  0  0  0  0
125126  1  0  0  0  0
125307  1  0  0  0  0
126127  1  0  0  0  0
126128  2  0  0  0  0
127308  1  0  0  0  0
127309  1  0  0  0  0
128310  1  0  0  0  0
129130  2  0  0  0  0
129131  1  0  0  0  0
131311  1  0  0  0  0
132131  1  0  0  0  0
132133  1  0  0  0  0
132143  1  0  0  0  0
132312  1  6  0  0  0
133134  1  0  0  0  0
133313  1  0  0  0  0
133314  1  0  0  0  0
134135  2  0  0  0  0
134138  1  0  0  0  0
135136  1  0  0  0  0
135315  1  0  0  0  0
136137  1  0  0  0  0
136316  1  0  0  0  0
137138  2  0  0  0  0
137142  1  0  0  0  0
138139  1  0  0  0  0
139140  2  0  0  0  0
139317  1  0  0  0  0
140141  1  0  0  0  0
140318  1  0  0  0  0
141142  2  0  0  0  0
141319  1  0  0  0  0
142320  1  0  0  0  0
143144  2  0  0  0  0
143145  1  0  0  0  0
145146  1  0  0  0  0
145321  1  0  0  0  0
146147  1  0  0  0  0
146322  1  0  0  0  0
146323  1  0  0  0  0
147148  2  0  0  0  0
147149  1  0  0  0  0
149324  1  0  0  0  0
150149  1  0  0  0  0
150151  1  0  0  0  0
150156  1  0  0  0  0
150325  1  6  0  0  0
151152  1  0  0  0  0
151326  1  0  0  0  0
151327  1  0  0  0  0
152153  1  0  0  0  0
152328  1  0  0  0  0
152329  1  0  0  0  0
153154  1  0  0  0  0
153330  1  0  0  0  0
153331  1  0  0  0  0
154155  1  0  0  0  0
154332  1  0  0  0  0
154333  1  0  0  0  0
155334  1  0  0  0  0
155335  1  0  0  0  0
156157  2  0  0  0  0
156158  1  0  0  0  0
158159  1  0  0  0  0
159160  1  0  0  0  0
159336  1  0  0  0  0
159337  1  0  0  0  0
160161  1  0  0  0  0
160338  1  0  0  0  0
160339  1  0  0  0  0
161340  1  0  0  0  0
161341  1  0  0  0  0
162161  1  0  0  0  0
162158  1  0  0  0  0
162342  1  6  0  0  0
162163  1  0  0  0  0
163164  2  0  0  0  0
163165  1  0  0  0  0
165343  1  0  0  0  0
166165  1  0  0  0  0
166167  1  0  0  0  0
166170  1  0  0  0  0
166344  1  6  0  0  0
167168  1  0  0  0  0
167169  1  0  0  0  0
167345  1  0  0  0  0
168346  1  0  0  0  0
168347  1  0  0  0  0
168348  1  0  0  0  0
169349  1  0  0  0  0
169350  1  0  0  0  0
169351  1  0  0  0  0
170171  1  0  0  0  0
170172  2  0  0  0  0
171352  1  0  0  0  0
171353  1  0  0  0  0
M  END
>  <DRUGBANK_ID>
DB15314

>  <COMMON_NAME>
Modimelanotide

>  <CAS_NUMBER>
926277-68-1

>  <UNII>
96C1EBE9CG

>  <SYNONYMS>
Modimelanotide

$$$$
