187
 OpenBabel10282417103D

 46 46  0  0  1  0  0  0  0  0999 V2000
    0.9788   -0.0034    0.0605 O   0  0  0  0  0  0  0  0  0  0  0  0
    1.8363   -2.3351   -1.7818 O   0  0  0  0  0  0  0  0  0  0  0  0
    7.5750    3.1300   -1.5125 O   0  0  0  0  0  0  0  0  0  0  0  0
    5.5840    2.4582   -2.2670 O   0  0  0  0  0  0  0  0  0  0  0  0
   -1.6994   -3.0983   -1.3796 N   0  0  0  0  0  0  0  0  0  0  0  0
    0.4944   -1.9605   -1.4557 C   0  0  3  0  0  0  0  0  0  0  0  0
   -0.2563   -3.2863   -1.4386 C   0  0  0  0  0  0  0  0  0  0  0  0
   -2.4048   -4.3764   -1.4013 C   0  0  0  0  0  0  0  0  0  0  0  0
    0.2949   -1.2437   -0.0885 C   0  0  0  0  0  0  0  0  0  0  0  0
   -2.0619   -5.2307   -0.1801 C   0  0  0  0  0  0  0  0  0  0  0  0
   -3.8959   -4.0596   -1.4138 C   0  0  0  0  0  0  0  0  0  0  0  0
    5.1065    0.0399   -0.1291 C   0  0  0  0  0  0  0  0  0  0  0  0
    6.5979    0.0896   -0.3005 C   0  0  0  0  0  0  0  0  0  0  0  0
    2.3340   -0.0578    0.1837 C   0  0  0  0  0  0  0  0  0  0  0  0
    4.4591   -1.1865   -0.0209 C   0  0  0  0  0  0  0  0  0  0  0  0
    4.3529    1.2122    0.0178 C   0  0  0  0  0  0  0  0  0  0  0  0
    3.0990   -1.2213    0.2603 C   0  0  0  0  0  0  0  0  0  0  0  0
    2.9693    1.1686    0.1191 C   0  0  0  0  0  0  0  0  0  0  0  0
    7.1039    0.7118   -1.5999 C   0  0  0  0  0  0  0  0  0  0  0  0
    6.6993    2.1541   -1.8376 C   0  0  0  0  0  0  0  0  0  0  0  0
    8.9789    2.8807   -1.5797 C   0  0  0  0  0  0  0  0  0  0  0  0
    2.3300   -1.5073   -1.9220 H   0  0  0  0  0  0  0  0  0  0  0  0
   -1.9617   -2.5888   -0.5378 H   0  0  0  0  0  0  0  0  0  0  0  0
    0.1569   -1.3162   -2.2715 H   0  0  0  0  0  0  0  0  0  0  0  0
    0.0218   -3.8734   -2.3232 H   0  0  0  0  0  0  0  0  0  0  0  0
    0.1169   -3.8514   -0.5742 H   0  0  0  0  0  0  0  0  0  0  0  0
   -2.1516   -4.9163   -2.3216 H   0  0  0  0  0  0  0  0  0  0  0  0
    0.5024   -1.8867    0.7764 H   0  0  0  0  0  0  0  0  0  0  0  0
   -0.7654   -0.9761   -0.0001 H   0  0  0  0  0  0  0  0  0  0  0  0
   -2.2805   -4.6919    0.7491 H   0  0  0  0  0  0  0  0  0  0  0  0
   -2.6357   -6.1599   -0.1884 H   0  0  0  0  0  0  0  0  0  0  0  0
   -1.0055   -5.5168   -0.1593 H   0  0  0  0  0  0  0  0  0  0  0  0
   -4.1639   -3.4515   -2.2852 H   0  0  0  0  0  0  0  0  0  0  0  0
   -4.4787   -4.9839   -1.4522 H   0  0  0  0  0  0  0  0  0  0  0  0
   -4.1926   -3.5073   -0.5140 H   0  0  0  0  0  0  0  0  0  0  0  0
    7.0146    0.5940    0.5781 H   0  0  0  0  0  0  0  0  0  0  0  0
    6.9870   -0.9392   -0.2614 H   0  0  0  0  0  0  0  0  0  0  0  0
    4.9884   -2.1266   -0.1622 H   0  0  0  0  0  0  0  0  0  0  0  0
    4.8225    2.1902    0.0042 H   0  0  0  0  0  0  0  0  0  0  0  0
    2.6464   -2.1988    0.3944 H   0  0  0  0  0  0  0  0  0  0  0  0
    2.3964    2.0917    0.1288 H   0  0  0  0  0  0  0  0  0  0  0  0
    8.1897    0.5964   -1.6166 H   0  0  0  0  0  0  0  0  0  0  0  0
    6.7450    0.1398   -2.4632 H   0  0  0  0  0  0  0  0  0  0  0  0
    9.2959    2.3552   -0.6765 H   0  0  0  0  0  0  0  0  0  0  0  0
    9.2309    2.3191   -2.4847 H   0  0  0  0  0  0  0  0  0  0  0  0
    9.4916    3.8447   -1.6263 H   0  0  0  0  0  0  0  0  0  0  0  0
  1  9  1  0  0  0  0
  1 14  1  0  0  0  0
  2  6  1  0  0  0  0
  2 22  1  0  0  0  0
  3 20  1  0  0  0  0
  3 21  1  0  0  0  0
  4 20  2  0  0  0  0
  5  7  1  0  0  0  0
  5  8  1  0  0  0  0
  5 23  1  0  0  0  0
  6  7  1  0  0  0  0
  6  9  1  0  0  0  0
  6 24  1  0  0  0  0
  7 25  1  0  0  0  0
  7 26  1  0  0  0  0
  8 10  1  0  0  0  0
  8 11  1  0  0  0  0
  8 27  1  0  0  0  0
  9 28  1  0  0  0  0
  9 29  1  0  0  0  0
 10 30  1  0  0  0  0
 10 31  1  0  0  0  0
 10 32  1  0  0  0  0
 11 33  1  0  0  0  0
 11 34  1  0  0  0  0
 11 35  1  0  0  0  0
 12 13  1  0  0  0  0
 12 15  2  0  0  0  0
 12 16  1  0  0  0  0
 13 19  1  0  0  0  0
 13 36  1  0  0  0  0
 13 37  1  0  0  0  0
 14 17  2  0  0  0  0
 14 18  1  0  0  0  0
 15 17  1  0  0  0  0
 15 38  1  0  0  0  0
 16 18  2  0  0  0  0
 16 39  1  0  0  0  0
 17 40  1  0  0  0  0
 18 41  1  0  0  0  0
 19 20  1  0  0  0  0
 19 42  1  0  0  0  0
 19 43  1  0  0  0  0
 21 44  1  0  0  0  0
 21 45  1  0  0  0  0
 21 46  1  0  0  0  0
M  END
>  <DRUGBANK_ID>
DB00187

>  <SECONDARY_ACCESSION_NUMBERS>
APRD00954

>  <COMMON_NAME>
Esmolol

>  <CAS_NUMBER>
81147-92-4

>  <UNII>
MDY902UXSR

>  <SYNONYMS>
(±)-esmolol; (±)-methyl p-(2-hydroxy-3-(isopropylamino)propoxy)hydrocinnamate; 3-[4-(2-Hydroxy-3-isopropylamino-propoxy)-phenyl]-propionic acid methyl ester; Esmolol; Methyl 4-(2-hydroxy-3-((1-methylethyl)amino)propoxy)benzenepropanoate; methyl p-(2-hydroxy-3-(isopropylamino)propoxy)hydrocinnamate

$$$$
