
 OpenBabel10282417233D

 10  9  0  0  0  0  0  0  0  0999 V2000
    1.0033    0.1265   -0.0475 N   0  0  0  0  0  0  0  0  0  0  0  0
    0.4386   -0.7743    0.5762 O   0  0  0  0  0  0  0  0  0  0  0  0
    2.3794   -0.0898   -0.0972 O   0  0  0  0  0  0  0  0  0  0  0  0
    3.0047    0.9232   -0.8831 C   0  0  0  0  0  0  0  0  0  0  0  0
    2.6968    0.7528   -2.3630 C   0  0  0  0  0  0  0  0  0  0  0  0
    2.7330    1.9252   -0.5270 H   0  0  0  0  0  0  0  0  0  0  0  0
    4.0850    0.8144   -0.7349 H   0  0  0  0  0  0  0  0  0  0  0  0
    1.6309    0.9017   -2.5644 H   0  0  0  0  0  0  0  0  0  0  0  0
    3.2607    1.4723   -2.9625 H   0  0  0  0  0  0  0  0  0  0  0  0
    2.9463   -0.2611   -2.6921 H   0  0  0  0  0  0  0  0  0  0  0  0
  2  1  2  0  0  0  0
  3  1  1  0  0  0  0
  4  3  1  0  0  0  0
  4  6  1  0  0  0  0
  4  7  1  0  0  0  0
  5  4  1  0  0  0  0
  5  8  1  0  0  0  0
  5  9  1  0  0  0  0
  5 10  1  0  0  0  0
M  END
>  <DRUGBANK_ID>
DB16560

>  <COMMON_NAME>
Ethyl nitrite

>  <CAS_NUMBER>
109-95-5

>  <UNII>
8C7CJ279RV

>  <SYNONYMS>
Ethylester kyseliny dusite; Nitrous acid, ethyl ester; Nitrous ether spirit; Spirit of ethyl nitrite

$$$$
