
 OpenBabel10282417133D

 12 11  0  0  0  0  0  0  0  0999 V2000
    0.9168   -0.0255    0.0361 C   0  0  0  0  0  0  0  0  0  0  0  0
    0.4122   -0.2790    1.4489 C   0  0  0  0  0  0  0  0  0  0  0  0
    0.9013    0.7919    2.4176 C   0  0  0  0  0  0  0  0  0  0  0  0
    0.4223    2.0868    2.0357 N   0  3  0  0  0  0  0  0  0  0  0  0
    0.0376    3.1484    1.7163 C   0  5  0  0  0  0  0  0  0  0  0  0
    0.5634    0.9380   -0.3436 H   0  0  0  0  0  0  0  0  0  0  0  0
    0.5592   -0.8020   -0.6456 H   0  0  0  0  0  0  0  0  0  0  0  0
    2.0110   -0.0197    0.0123 H   0  0  0  0  0  0  0  0  0  0  0  0
   -0.6837   -0.3073    1.4448 H   0  0  0  0  0  0  0  0  0  0  0  0
    0.7619   -1.2619    1.7861 H   0  0  0  0  0  0  0  0  0  0  0  0
    0.5463    0.5718    3.4302 H   0  0  0  0  0  0  0  0  0  0  0  0
    1.9967    0.8108    2.4430 H   0  0  0  0  0  0  0  0  0  0  0  0
  1  2  1  0  0  0  0
  1  6  1  0  0  0  0
  1  7  1  0  0  0  0
  1  8  1  0  0  0  0
  2  3  1  0  0  0  0
  2  9  1  0  0  0  0
  2 10  1  0  0  0  0
  3  4  1  0  0  0  0
  3 11  1  0  0  0  0
  3 12  1  0  0  0  0
  4  5  3  0  0  0  0
M  CHG  2   4   1   5  -1
M  END
>  <DRUGBANK_ID>
DB04050

>  <SECONDARY_ACCESSION_NUMBERS>
EXPT02384

>  <COMMON_NAME>
N-Propyl Isocyanide

>  <UNII>
5E1K8OTJ0C

$$$$
