1107
 OpenBabel10282417113D

 30 30  0  0  1  0  0  0  0  0999 V2000
    1.1849    0.0865   -0.2461 O   0  0  0  0  0  0  0  0  0  0  0  0
    4.5576   -2.0147    1.8729 O   0  0  0  0  0  0  0  0  0  0  0  0
    4.8623    0.1091    1.1422 N   0  0  0  0  0  0  0  0  0  0  0  0
    3.2226   -1.2568   -0.0384 C   0  0  0  0  0  0  0  0  0  0  0  0
    3.1926    1.3631   -0.0971 C   0  0  3  0  0  0  0  0  0  0  0  0
    2.4121    0.0562   -0.1432 C   0  0  0  0  0  0  0  0  0  0  0  0
    4.0313   -1.4913   -1.3557 C   0  0  0  0  0  0  0  0  0  0  0  0
    2.2907   -2.4751    0.1048 C   0  0  0  0  0  0  0  0  0  0  0  0
    4.2200   -1.1191    1.1290 C   0  0  0  0  0  0  0  0  0  0  0  0
    4.0587    1.3181    1.1459 C   0  0  0  0  0  0  0  0  0  0  0  0
    4.0774    1.5307   -1.3213 C   0  0  0  0  0  0  0  0  0  0  0  0
    4.9534   -2.6960   -1.3631 C   0  0  0  0  0  0  0  0  0  0  0  0
    1.4364   -2.4824    1.3561 C   0  0  0  0  0  0  0  0  0  0  0  0
    5.7749    0.1225    1.5816 H   0  0  0  0  0  0  0  0  0  0  0  0
    2.4768    2.1924   -0.0478 H   0  0  0  0  0  0  0  0  0  0  0  0
    3.3546   -1.4875   -2.2196 H   0  0  0  0  0  0  0  0  0  0  0  0
    4.7479   -0.7138   -1.5640 H   0  0  0  0  0  0  0  0  0  0  0  0
    1.6370   -2.5298   -0.7780 H   0  0  0  0  0  0  0  0  0  0  0  0
    2.8743   -3.4020    0.1114 H   0  0  0  0  0  0  0  0  0  0  0  0
    3.4463    1.3227    2.0571 H   0  0  0  0  0  0  0  0  0  0  0  0
    4.7350    2.1781    1.1794 H   0  0  0  0  0  0  0  0  0  0  0  0
    3.5723    1.1882   -2.2300 H   0  0  0  0  0  0  0  0  0  0  0  0
    4.4454    2.5465   -1.4437 H   0  0  0  0  0  0  0  0  0  0  0  0
    5.0066    0.9747   -1.1893 H   0  0  0  0  0  0  0  0  0  0  0  0
    4.4080   -3.6371   -1.3477 H   0  0  0  0  0  0  0  0  0  0  0  0
    5.5675   -2.6659   -2.2691 H   0  0  0  0  0  0  0  0  0  0  0  0
    5.6412   -2.6491   -0.5129 H   0  0  0  0  0  0  0  0  0  0  0  0
    0.7681   -1.6216    1.4012 H   0  0  0  0  0  0  0  0  0  0  0  0
    0.8213   -3.3861    1.3680 H   0  0  0  0  0  0  0  0  0  0  0  0
    2.0583   -2.4810    2.2533 H   0  0  0  0  0  0  0  0  0  0  0  0
  1  6  2  0  0  0  0
  2  9  2  0  0  0  0
  3  9  1  0  0  0  0
  3 10  1  0  0  0  0
  3 14  1  0  0  0  0
  4  6  1  0  0  0  0
  4  7  1  0  0  0  0
  4  8  1  0  0  0  0
  4  9  1  0  0  0  0
  5  6  1  0  0  0  0
  5 10  1  0  0  0  0
  5 11  1  0  0  0  0
  5 15  1  0  0  0  0
  7 12  1  0  0  0  0
  7 16  1  0  0  0  0
  7 17  1  0  0  0  0
  8 13  1  0  0  0  0
  8 18  1  0  0  0  0
  8 19  1  0  0  0  0
 10 20  1  0  0  0  0
 10 21  1  0  0  0  0
 11 22  1  0  0  0  0
 11 23  1  0  0  0  0
 11 24  1  0  0  0  0
 12 25  1  0  0  0  0
 12 26  1  0  0  0  0
 12 27  1  0  0  0  0
 13 28  1  0  0  0  0
 13 29  1  0  0  0  0
 13 30  1  0  0  0  0
M  END
>  <DRUGBANK_ID>
DB01107

>  <SECONDARY_ACCESSION_NUMBERS>
APRD00734

>  <COMMON_NAME>
Methyprylon

>  <CAS_NUMBER>
125-64-4

>  <UNII>
CUT48I42ON

>  <SYNONYMS>
Methyprylon; Methyprylone; Methyprylonum; Metiprilon; Metiprilona; Metiprilone

$$$$
