
 OpenBabel10282417243D

 95 99  0  0  1  0  0  0  0  0999 V2000
    1.1450   -0.2203    0.2015 H   0  0  0  0  0  0  0  0  0  0  0  0
    2.2194   -0.1255    0.1196 C   0  0  2  0  0  0  0  0  0  0  0  0
    2.5973    1.1219    0.7817 O   0  0  0  0  0  0  0  0  0  0  0  0
    2.0747    2.3097    0.1376 C   0  0  2  0  0  0  0  0  0  0  0  0
    2.6632    3.7056    0.4419 C   0  0  1  0  0  0  0  0  0  0  0  0
    4.1684    3.6470    0.2030 C   0  0  0  0  0  0  0  0  0  0  0  0
    4.7262    4.9136    0.5284 O   0  0  0  0  0  0  0  0  0  0  0  0
    2.1823    4.7815   -0.4542 O   0  0  0  0  0  0  0  0  0  0  0  0
    0.7955    5.1265   -0.3367 C   0  0  1  0  0  0  0  0  0  0  0  0
    0.1996    5.9621   -1.4790 O   0  0  0  0  0  0  0  0  0  0  0  0
    0.4155    5.7767   -2.8529 C   0  0  0  0  0  0  0  0  0  0  0  0
    1.2853    6.7440   -3.4032 C   0  0  0  0  0  0  0  0  0  0  0  0
    1.5788    6.7667   -4.7782 C   0  0  0  0  0  0  0  0  0  0  0  0
    2.5118    7.8281   -5.3433 C   0  0  0  0  0  0  0  0  0  0  0  0
    3.8077    7.2571   -5.9508 C   0  0  0  0  0  0  0  0  0  0  0  0
    3.5848    6.3364   -7.1589 C   0  0  0  0  0  0  0  0  0  0  0  0
    2.7465    7.0074   -8.2580 C   0  0  0  0  0  0  0  0  0  0  0  0
    3.5176    8.1584   -8.8713 C   0  0  0  0  0  0  0  0  0  0  0  0
    0.9859    5.7893   -5.6114 C   0  0  0  0  0  0  0  0  0  0  0  0
    0.1418    4.7926   -5.1328 C   0  0  0  0  0  0  0  0  0  0  0  0
   -0.2246    3.8183   -6.0789 O   0  0  0  0  0  0  0  0  0  0  0  0
   -0.5729    2.5168   -5.5322 C   0  0  0  0  0  0  0  0  0  0  0  0
    0.7969    1.8080   -5.2720 C   0  0  0  0  0  0  0  0  0  0  0  0
   -1.1881    1.4952   -6.5026 C   0  0  0  0  0  0  0  0  0  0  0  0
   -1.7726    2.8284   -4.5349 C   0  0  2  0  0  0  0  0  0  0  0  0
   -2.5609    3.3473   -5.0998 H   0  0  0  0  0  0  0  0  0  0  0  0
   -2.4123    1.5051   -3.8705 C   0  0  0  0  0  0  0  0  0  0  0  0
   -1.2340    0.6900   -3.2006 C   0  0  0  0  0  0  0  0  0  0  0  0
   -0.3270    1.8166   -2.6691 C   0  0  0  0  0  0  0  0  0  0  0  0
    1.0553    2.4437   -2.8186 C   0  0  0  0  0  0  0  0  0  0  0  0
   -1.0808    2.8121   -2.3673 C   0  0  0  0  0  0  0  0  0  0  0  0
   -1.3562    3.8446   -3.4107 C   0  0  1  0  0  0  0  0  0  0  0  0
   -2.1896    4.4264   -3.0253 H   0  0  0  0  0  0  0  0  0  0  0  0
   -0.2622    4.8451   -3.7727 C   0  0  0  0  0  0  0  0  0  0  0  0
   -0.0281    3.8725   -0.2273 C   0  0  2  0  0  0  0  0  0  0  0  0
   -1.4141    4.1999   -0.0572 O   0  0  0  0  0  0  0  0  0  0  0  0
    0.5222    2.4916    0.3364 C   0  0  1  0  0  0  0  0  0  0  0  0
   -0.2347    1.3363   -0.1062 O   0  0  0  0  0  0  0  0  0  0  0  0
    2.6835   -1.2415    0.8781 O   0  0  0  0  0  0  0  0  0  0  0  0
    2.0462   -2.4536    0.4066 C   0  0  2  0  0  0  0  0  0  0  0  0
    2.4650   -3.5358    1.3733 C   0  0  0  0  0  0  0  0  0  0  0  0
    1.9933   -3.1966    2.6746 O   0  0  0  0  0  0  0  0  0  0  0  0
    2.5009   -2.8049   -1.0151 C   0  0  1  0  0  0  0  0  0  0  0  0
    1.9328   -4.0216   -1.4792 O   0  0  0  0  0  0  0  0  0  0  0  0
    2.1376   -1.6695   -1.9322 C   0  0  2  0  0  0  0  0  0  0  0  0
    2.6312   -1.8640   -3.2688 O   0  0  0  0  0  0  0  0  0  0  0  0
    2.7148   -0.3812   -1.3465 C   0  0  1  0  0  0  0  0  0  0  0  0
    2.3750    0.5552   -2.3085 O   0  0  0  0  0  0  0  0  0  0  0  0
    2.5245    2.1395   -0.8298 H   0  0  0  0  0  0  0  0  0  0  0  0
    2.4287    3.9808    1.4718 H   0  0  0  0  0  0  0  0  0  0  0  0
    4.6304    2.8664    0.8103 H   0  0  0  0  0  0  0  0  0  0  0  0
    4.4026    3.4527   -0.8534 H   0  0  0  0  0  0  0  0  0  0  0  0
    4.2328    5.5492   -0.0282 H   0  0  0  0  0  0  0  0  0  0  0  0
    0.6043    5.7014    0.5779 H   0  0  0  0  0  0  0  0  0  0  0  0
    1.7112    7.5161   -2.7605 H   0  0  0  0  0  0  0  0  0  0  0  0
    1.9636    8.4378   -6.0730 H   0  0  0  0  0  0  0  0  0  0  0  0
    2.7983    8.5464   -4.5622 H   0  0  0  0  0  0  0  0  0  0  0  0
    4.4565    8.0883   -6.2568 H   0  0  0  0  0  0  0  0  0  0  0  0
    4.3699    6.7160   -5.1812 H   0  0  0  0  0  0  0  0  0  0  0  0
    4.5458    6.0138   -7.5726 H   0  0  0  0  0  0  0  0  0  0  0  0
    3.1314    5.3976   -6.8266 H   0  0  0  0  0  0  0  0  0  0  0  0
    2.4780    6.2711   -9.0227 H   0  0  0  0  0  0  0  0  0  0  0  0
    1.7924    7.3978   -7.8852 H   0  0  0  0  0  0  0  0  0  0  0  0
    4.4561    7.7886   -9.2912 H   0  0  0  0  0  0  0  0  0  0  0  0
    2.9334    8.6403   -9.6570 H   0  0  0  0  0  0  0  0  0  0  0  0
    3.7516    8.9230   -8.1240 H   0  0  0  0  0  0  0  0  0  0  0  0
    1.1634    5.7728   -6.6792 H   0  0  0  0  0  0  0  0  0  0  0  0
    0.7616    0.9178   -4.6356 H   0  0  0  0  0  0  0  0  0  0  0  0
    1.3286    1.4187   -6.1425 H   0  0  0  0  0  0  0  0  0  0  0  0
    1.5291    2.5465   -4.9579 H   0  0  0  0  0  0  0  0  0  0  0  0
   -2.1015    1.8776   -6.9478 H   0  0  0  0  0  0  0  0  0  0  0  0
   -0.4954    1.1823   -7.2853 H   0  0  0  0  0  0  0  0  0  0  0  0
   -1.4357    0.5681   -5.9594 H   0  0  0  0  0  0  0  0  0  0  0  0
   -3.1257    1.8221   -3.0810 H   0  0  0  0  0  0  0  0  0  0  0  0
   -3.0444    0.9128   -4.5360 H   0  0  0  0  0  0  0  0  0  0  0  0
   -1.6528    0.0615   -2.3939 H   0  0  0  0  0  0  0  0  0  0  0  0
   -0.7981   -0.0264   -3.8963 H   0  0  0  0  0  0  0  0  0  0  0  0
    1.9771    2.1811   -3.3099 H   0  0  0  0  0  0  0  0  0  0  0  0
    1.0734    3.4970   -2.9816 H   0  0  0  0  0  0  0  0  0  0  0  0
    1.3521    2.5169   -1.8234 H   0  0  0  0  0  0  0  0  0  0  0  0
   -1.8964    2.6208   -1.6622 H   0  0  0  0  0  0  0  0  0  0  0  0
    0.1229    3.7690   -1.2532 H   0  0  0  0  0  0  0  0  0  0  0  0
   -1.9004    3.4509    0.3140 H   0  0  0  0  0  0  0  0  0  0  0  0
    0.2982    2.4589    1.3947 H   0  0  0  0  0  0  0  0  0  0  0  0
    0.2297    0.9235   -0.8586 H   0  0  0  0  0  0  0  0  0  0  0  0
    0.9509   -2.3320    0.4532 H   0  0  0  0  0  0  0  0  0  0  0  0
    2.0531   -4.5040    1.0846 H   0  0  0  0  0  0  0  0  0  0  0  0
    3.5567   -3.5853    1.4089 H   0  0  0  0  0  0  0  0  0  0  0  0
    2.3378   -2.2985    2.8529 H   0  0  0  0  0  0  0  0  0  0  0  0
    3.5906   -2.9007   -1.0471 H   0  0  0  0  0  0  0  0  0  0  0  0
    0.9745   -3.9046   -1.6022 H   0  0  0  0  0  0  0  0  0  0  0  0
    1.0461   -1.5931   -2.0685 H   0  0  0  0  0  0  0  0  0  0  0  0
    3.5958   -1.7183   -3.2610 H   0  0  0  0  0  0  0  0  0  0  0  0
    3.8054   -0.3835   -1.3635 H   0  0  0  0  0  0  0  0  0  0  0  0
    1.5936    0.2452   -2.8101 H   0  0  0  0  0  0  0  0  0  0  0  0
  2  1  1  6  0  0  0
  2  3  1  0  0  0  0
  2 39  1  0  0  0  0
  4  3  1  0  0  0  0
  4  5  1  0  0  0  0
  4 37  1  0  0  0  0
  4 49  1  6  0  0  0
  5  6  1  0  0  0  0
  5  8  1  0  0  0  0
  5 50  1  1  0  0  0
  6  7  1  0  0  0  0
  6 51  1  0  0  0  0
  6 52  1  0  0  0  0
  7 53  1  0  0  0  0
  9  8  1  0  0  0  0
  9 10  1  0  0  0  0
  9 54  1  1  0  0  0
 10 11  1  0  0  0  0
 11 12  2  0  0  0  0
 11 34  1  0  0  0  0
 12 13  1  0  0  0  0
 12 55  1  0  0  0  0
 13 14  1  0  0  0  0
 13 19  2  0  0  0  0
 14 15  1  0  0  0  0
 14 56  1  0  0  0  0
 14 57  1  0  0  0  0
 15 16  1  0  0  0  0
 15 58  1  0  0  0  0
 15 59  1  0  0  0  0
 16 17  1  0  0  0  0
 16 60  1  0  0  0  0
 16 61  1  0  0  0  0
 17 18  1  0  0  0  0
 17 62  1  0  0  0  0
 17 63  1  0  0  0  0
 18 64  1  0  0  0  0
 18 65  1  0  0  0  0
 18 66  1  0  0  0  0
 19 20  1  0  0  0  0
 19 67  1  0  0  0  0
 20 21  1  0  0  0  0
 20 34  2  0  0  0  0
 21 22  1  0  0  0  0
 22 23  1  0  0  0  0
 22 24  1  0  0  0  0
 23 68  1  0  0  0  0
 23 69  1  0  0  0  0
 23 70  1  0  0  0  0
 24 71  1  0  0  0  0
 24 72  1  0  0  0  0
 24 73  1  0  0  0  0
 25 22  1  0  0  0  0
 25 26  1  1  0  0  0
 25 27  1  0  0  0  0
 25 32  1  0  0  0  0
 27 28  1  0  0  0  0
 27 74  1  0  0  0  0
 27 75  1  0  0  0  0
 28 29  1  0  0  0  0
 28 76  1  0  0  0  0
 28 77  1  0  0  0  0
 29 30  1  0  0  0  0
 29 31  2  0  0  0  0
 30 78  1  0  0  0  0
 30 79  1  0  0  0  0
 30 80  1  0  0  0  0
 31 81  1  0  0  0  0
 32 31  1  0  0  0  0
 32 33  1  1  0  0  0
 32 34  1  0  0  0  0
 35  9  1  0  0  0  0
 35 36  1  0  0  0  0
 35 82  1  6  0  0  0
 36 83  1  0  0  0  0
 37 35  1  0  0  0  0
 37 38  1  0  0  0  0
 37 84  1  1  0  0  0
 38 85  1  0  0  0  0
 40 39  1  0  0  0  0
 40 41  1  0  0  0  0
 40 86  1  1  0  0  0
 41 42  1  0  0  0  0
 41 87  1  0  0  0  0
 41 88  1  0  0  0  0
 42 89  1  0  0  0  0
 43 40  1  0  0  0  0
 43 44  1  0  0  0  0
 43 45  1  0  0  0  0
 43 90  1  1  0  0  0
 44 91  1  0  0  0  0
 45 46  1  0  0  0  0
 45 47  1  0  0  0  0
 45 92  1  6  0  0  0
 46 93  1  0  0  0  0
 47  2  1  0  0  0  0
 47 48  1  0  0  0  0
 47 94  1  1  0  0  0
 48 95  1  0  0  0  0
M  END
>  <DRUGBANK_ID>
DB18539

>  <COMMON_NAME>
VB-309

>  <CAS_NUMBER>
2699021-75-3

>  <UNII>
GMN7ZX2D3A

$$$$
