
 OpenBabel10282417163D

 40 42  0  0  0  0  0  0  0  0999 V2000
    1.0071   -0.0542    0.0132 S   0  0  0  0  0  0  0  0  0  0  0  0
    0.4712   -0.2833   -1.6620 C   0  0  0  0  0  0  0  0  0  0  0  0
    0.1705    0.8803   -2.4033 C   0  0  0  0  0  0  0  0  0  0  0  0
   -0.2039    0.7865   -3.7440 C   0  0  0  0  0  0  0  0  0  0  0  0
   -0.4080    1.9772   -4.6250 C   0  0  0  0  0  0  0  0  0  0  0  0
   -0.4474    3.2500   -4.0385 N   0  0  0  0  0  0  0  0  0  0  0  0
   -0.8735    4.3406   -4.7959 N   0  0  0  0  0  0  0  0  0  0  0  0
   -2.1099    4.3449   -5.4480 C   0  0  0  0  0  0  0  0  0  0  0  0
   -2.3898    5.5743   -6.0417 C   0  0  0  0  0  0  0  0  0  0  0  0
   -3.5218    5.7087   -6.8446 C   0  0  0  0  0  0  0  0  0  0  0  0
   -4.3414    4.5846   -7.0679 C   0  0  0  0  0  0  0  0  0  0  0  0
   -4.0604    3.3654   -6.4576 C   0  0  0  0  0  0  0  0  0  0  0  0
   -2.9729    3.2698   -5.6082 C   0  0  0  0  0  0  0  0  0  0  0  0
   -1.3081    6.5623   -5.6728 C   0  0  0  0  0  0  0  0  0  0  0  0
   -0.3317    5.7038   -4.7715 C   0  0  2  0  0  0  0  0  0  0  0  0
    1.1106    5.6922   -5.2816 C   0  0  0  0  0  0  0  0  0  0  0  0
   -0.5596    1.7466   -5.8247 O   0  0  0  0  0  0  0  0  0  0  0  0
   -0.3421   -0.4916   -4.3163 C   0  0  0  0  0  0  0  0  0  0  0  0
   -0.0555   -1.6433   -3.5778 C   0  0  0  0  0  0  0  0  0  0  0  0
    0.3635   -1.5461   -2.2486 C   0  0  0  0  0  0  0  0  0  0  0  0
    0.7670   -3.0305   -1.4715 Cl  0  0  0  0  0  0  0  0  0  0  0  0
    0.6185   -1.1899    0.8196 O   0  0  0  0  0  0  0  0  0  0  0  0
    0.6726    1.2939    0.3976 O   0  0  0  0  0  0  0  0  0  0  0  0
    2.6612   -0.0952   -0.1795 N   0  0  0  0  0  0  0  0  0  0  0  0
    0.2613    1.8493   -1.9249 H   0  0  0  0  0  0  0  0  0  0  0  0
   -0.3613    3.4246   -3.0470 H   0  0  0  0  0  0  0  0  0  0  0  0
   -3.7821    6.6464   -7.3235 H   0  0  0  0  0  0  0  0  0  0  0  0
   -5.2101    4.6409   -7.7186 H   0  0  0  0  0  0  0  0  0  0  0  0
   -4.6563    2.4752   -6.6397 H   0  0  0  0  0  0  0  0  0  0  0  0
   -2.7843    2.3178   -5.1351 H   0  0  0  0  0  0  0  0  0  0  0  0
   -1.7248    7.4033   -5.1023 H   0  0  0  0  0  0  0  0  0  0  0  0
   -0.8024    6.9683   -6.5565 H   0  0  0  0  0  0  0  0  0  0  0  0
   -0.3321    6.1058   -3.7478 H   0  0  0  0  0  0  0  0  0  0  0  0
    1.7062    4.9392   -4.7509 H   0  0  0  0  0  0  0  0  0  0  0  0
    1.1541    5.4489   -6.3480 H   0  0  0  0  0  0  0  0  0  0  0  0
    1.6021    6.6597   -5.1305 H   0  0  0  0  0  0  0  0  0  0  0  0
   -0.6572   -0.6046   -5.3554 H   0  0  0  0  0  0  0  0  0  0  0  0
   -0.1407   -2.6172   -4.0588 H   0  0  0  0  0  0  0  0  0  0  0  0
    3.0891   -1.0048   -0.3258 H   0  0  0  0  0  0  0  0  0  0  0  0
    3.1081    0.7524   -0.5166 H   0  0  0  0  0  0  0  0  0  0  0  0
  2  1  1  0  0  0  0
  3  2  2  0  0  0  0
  3 25  1  0  0  0  0
  4  3  1  0  0  0  0
  5  4  1  0  0  0  0
  6  5  1  0  0  0  0
  6 26  1  0  0  0  0
  7  6  1  0  0  0  0
  8  7  1  0  0  0  0
  9  8  2  0  0  0  0
 10  9  1  0  0  0  0
 10 27  1  0  0  0  0
 11 10  2  0  0  0  0
 11 12  1  0  0  0  0
 11 28  1  0  0  0  0
 12 13  2  0  0  0  0
 12 29  1  0  0  0  0
 13  8  1  0  0  0  0
 13 30  1  0  0  0  0
 14  9  1  0  0  0  0
 14 15  1  0  0  0  0
 14 31  1  0  0  0  0
 14 32  1  0  0  0  0
 15  7  1  0  0  0  0
 15 33  1  1  0  0  0
 15 16  1  0  0  0  0
 16 34  1  0  0  0  0
 16 35  1  0  0  0  0
 16 36  1  0  0  0  0
 17  5  2  0  0  0  0
 18  4  2  0  0  0  0
 18 19  1  0  0  0  0
 18 37  1  0  0  0  0
 19 20  2  0  0  0  0
 19 38  1  0  0  0  0
 20  2  1  0  0  0  0
 21 20  1  0  0  0  0
 22  1  2  0  0  0  0
 23  1  2  0  0  0  0
 24  1  1  0  0  0  0
 24 39  1  0  0  0  0
 24 40  1  0  0  0  0
M  END
>  <DRUGBANK_ID>
DB07467

>  <COMMON_NAME>
(S)-Indapamide

>  <CAS_NUMBER>
77083-53-5

>  <UNII>
GDV888123I

>  <SYNONYMS>
(+)-Indapamide; 3-(Aminosulfonyl)-4-chloro-N-((2S)-2,3-dihydro-2-methyl-1H-indol-1-yl)benzamide

$$$$
