F6B
 OpenBabel10282417133D

 34 35  0  0  0  0  0  0  0  0999 V2000
    1.2124   -0.3114    0.2130 C   0  0  0  0  0  0  0  0  0  0  0  0
    0.3454   -1.3741    0.0635 C   0  0  0  0  0  0  0  0  0  0  0  0
   -1.0018   -1.1190   -0.0215 C   0  0  0  0  0  0  0  0  0  0  0  0
   -1.4610    0.2021   -0.0171 C   0  0  0  0  0  0  0  0  0  0  0  0
   -0.5345    1.2693   -0.0006 C   0  0  0  0  0  0  0  0  0  0  0  0
    0.8452    1.0204    0.0199 C   0  0  0  0  0  0  0  0  0  0  0  0
    1.8091    2.1642   -0.2081 C   0  0  0  0  0  0  0  0  0  0  0  0
    1.3675    3.3102   -0.3139 O   0  0  0  0  0  0  0  0  0  0  0  0
    3.1672    1.9909   -0.3782 N   0  0  0  0  0  0  0  0  0  0  0  0
    3.9801    0.7997   -0.4050 C   0  0  0  0  0  0  0  0  0  0  0  0
   -2.0685   -2.5208   -0.0072 S   0  0  0  0  0  0  0  0  0  0  0  0
   -2.9190   -2.3265    1.4322 N   0  0  0  0  0  0  0  0  0  0  0  0
   -2.9885   -2.4150   -1.1021 O   0  0  0  0  0  0  0  0  0  0  0  0
   -1.2599   -3.7081    0.2144 O   0  0  0  0  0  0  0  0  0  0  0  0
    4.5987    0.4323   -1.6989 C   0  0  0  0  0  0  0  0  0  0  0  0
    5.2598    1.3774   -2.4538 C   0  0  0  0  0  0  0  0  0  0  0  0
    5.9363    1.0081   -3.6027 C   0  0  0  0  0  0  0  0  0  0  0  0
    5.9772   -0.3342   -3.9915 C   0  0  0  0  0  0  0  0  0  0  0  0
    5.3252   -1.3052   -3.2368 C   0  0  0  0  0  0  0  0  0  0  0  0
    4.6025   -0.9087   -2.1244 C   0  0  0  0  0  0  0  0  0  0  0  0
    5.2469    2.6607   -2.0697 F   0  0  0  0  0  0  0  0  0  0  0  0
    3.8922   -1.8380   -1.4615 F   0  0  0  0  0  0  0  0  0  0  0  0
    2.1588   -0.6500    0.5847 H   0  0  0  0  0  0  0  0  0  0  0  0
    0.7579   -2.3810    0.0781 H   0  0  0  0  0  0  0  0  0  0  0  0
   -2.5261    0.4120   -0.0450 H   0  0  0  0  0  0  0  0  0  0  0  0
   -0.8988    2.2969    0.0251 H   0  0  0  0  0  0  0  0  0  0  0  0
    3.6558    2.8573   -0.5899 H   0  0  0  0  0  0  0  0  0  0  0  0
    4.6846    0.8126    0.4307 H   0  0  0  0  0  0  0  0  0  0  0  0
    3.3705   -0.0419   -0.2629 H   0  0  0  0  0  0  0  0  0  0  0  0
   -3.6215   -3.0681    1.4789 H   0  0  0  0  0  0  0  0  0  0  0  0
   -2.2994   -2.3758    2.2422 H   0  0  0  0  0  0  0  0  0  0  0  0
    6.4428    1.7771   -4.1725 H   0  0  0  0  0  0  0  0  0  0  0  0
    6.5131   -0.6202   -4.8902 H   0  0  0  0  0  0  0  0  0  0  0  0
    5.3790   -2.3580   -3.4994 H   0  0  0  0  0  0  0  0  0  0  0  0
  1  2  2  0  0  0  0
  1  6  1  0  0  0  0
  1 23  1  0  0  0  0
  2  3  1  0  0  0  0
  2 24  1  0  0  0  0
  3  4  2  0  0  0  0
  3 11  1  0  0  0  0
  4  5  1  0  0  0  0
  4 25  1  0  0  0  0
  5  6  2  0  0  0  0
  5 26  1  0  0  0  0
  6  7  1  0  0  0  0
  7  8  2  0  0  0  0
  7  9  1  0  0  0  0
  9 10  1  0  0  0  0
  9 27  1  0  0  0  0
 10 15  1  0  0  0  0
 10 28  1  0  0  0  0
 10 29  1  0  0  0  0
 11 12  1  0  0  0  0
 11 13  2  0  0  0  0
 11 14  2  0  0  0  0
 12 30  1  0  0  0  0
 12 31  1  0  0  0  0
 15 16  2  0  0  0  0
 15 20  1  0  0  0  0
 16 17  1  0  0  0  0
 16 21  1  0  0  0  0
 17 18  2  0  0  0  0
 17 32  1  0  0  0  0
 18 19  1  0  0  0  0
 18 33  1  0  0  0  0
 19 20  2  0  0  0  0
 19 34  1  0  0  0  0
 20 22  1  0  0  0  0
M  END
>  <DRUGBANK_ID>
DB03844

>  <SECONDARY_ACCESSION_NUMBERS>
EXPT01382

>  <COMMON_NAME>
N-(2,6-Diflouro-Benzyl)-4-Sulfamoyl-Benzamide

$$$$
