BLZ
 OpenBabel10282417163D

 51 54  0  0  0  0  0  0  0  0999 V2000
    0.6708    0.0539   -0.2426 C   0  0  0  0  0  0  0  0  0  0  0  0
    0.5226   -1.3389    0.0522 O   0  0  0  0  0  0  0  0  0  0  0  0
    0.9205   -2.1639   -0.9665 C   0  0  0  0  0  0  0  0  0  0  0  0
   -0.1030   -2.9322   -1.5721 C   0  0  0  0  0  0  0  0  0  0  0  0
    0.1886   -3.7634   -2.6703 C   0  0  0  0  0  0  0  0  0  0  0  0
   -0.6458   -4.5146   -3.4651 N   0  0  0  0  0  0  0  0  0  0  0  0
    0.1328   -5.0288   -4.3889 C   0  0  0  0  0  0  0  0  0  0  0  0
    1.4520   -4.6862   -4.2138 N   0  0  0  0  0  0  0  0  0  0  0  0
    2.4818   -5.1077   -5.0333 C   0  0  0  0  0  0  0  0  0  0  0  0
    3.5528   -5.8774   -4.6936 C   0  0  0  0  0  0  0  0  0  0  0  0
    4.4992   -5.9735   -5.7791 C   0  0  0  0  0  0  0  0  0  0  0  0
    5.7730   -6.4683   -5.7512 O   0  0  0  0  0  0  0  0  0  0  0  0
    6.3351   -6.9209   -4.4919 C   0  0  2  0  0  0  0  0  0  0  0  0
    5.5755   -8.1581   -3.9850 C   0  0  0  0  0  0  0  0  0  0  0  0
    6.5932   -5.8217   -3.4490 C   0  0  0  0  0  0  0  0  0  0  0  0
    5.8995   -4.6008   -3.4993 C   0  0  0  0  0  0  0  0  0  0  0  0
    6.0468   -3.5742   -2.5827 C   0  0  0  0  0  0  0  0  0  0  0  0
    6.9100   -3.7329   -1.5329 C   0  0  0  0  0  0  0  0  0  0  0  0
    7.6368   -4.9172   -1.4340 C   0  0  0  0  0  0  0  0  0  0  0  0
    7.5198   -5.9347   -2.4040 C   0  0  0  0  0  0  0  0  0  0  0  0
    8.6253   -7.2575   -2.2892 Cl  0  0  0  0  0  0  0  0  0  0  0  0
    4.0244   -5.3327   -6.9186 C   0  0  0  0  0  0  0  0  0  0  0  0
    2.4794   -4.6099   -6.6308 S   0  0  0  0  0  0  0  0  0  0  0  0
    4.6485   -5.1770   -8.2271 C   0  0  0  0  0  0  0  0  0  0  0  0
    5.7468   -5.5896   -8.5525 O   0  0  0  0  0  0  0  0  0  0  0  0
    3.8852   -4.5098   -9.1582 N   0  0  0  0  0  0  0  0  0  0  0  0
    1.5044   -3.8596   -3.1018 C   0  0  0  0  0  0  0  0  0  0  0  0
    2.5310   -3.1340   -2.4735 C   0  0  0  0  0  0  0  0  0  0  0  0
    2.2494   -2.3045   -1.3679 C   0  0  0  0  0  0  0  0  0  0  0  0
    3.3596   -1.6945   -0.8330 O   0  0  0  0  0  0  0  0  0  0  0  0
    3.3271   -1.1889    0.5030 C   0  0  0  0  0  0  0  0  0  0  0  0
    7.3281   -7.2931   -4.7885 H   0  0  0  0  0  0  0  0  0  0  0  0
    0.5253    0.5843    0.7060 H   0  0  0  0  0  0  0  0  0  0  0  0
   -0.0497    0.3920   -0.9844 H   0  0  0  0  0  0  0  0  0  0  0  0
    1.6473    0.3449   -0.6392 H   0  0  0  0  0  0  0  0  0  0  0  0
   -1.1280   -2.8678   -1.2249 H   0  0  0  0  0  0  0  0  0  0  0  0
   -0.1646   -5.6859   -5.1973 H   0  0  0  0  0  0  0  0  0  0  0  0
    3.6948   -6.2145   -3.6751 H   0  0  0  0  0  0  0  0  0  0  0  0
    5.4971   -8.9070   -4.7818 H   0  0  0  0  0  0  0  0  0  0  0  0
    6.0382   -8.6070   -3.1048 H   0  0  0  0  0  0  0  0  0  0  0  0
    4.5476   -7.9455   -3.6996 H   0  0  0  0  0  0  0  0  0  0  0  0
    5.1977   -4.3607   -4.2765 H   0  0  0  0  0  0  0  0  0  0  0  0
    5.4775   -2.6596   -2.7140 H   0  0  0  0  0  0  0  0  0  0  0  0
    7.0225   -2.9155   -0.8307 H   0  0  0  0  0  0  0  0  0  0  0  0
    8.3143   -5.0307   -0.5942 H   0  0  0  0  0  0  0  0  0  0  0  0
    2.9670   -4.1564   -8.9313 H   0  0  0  0  0  0  0  0  0  0  0  0
    4.2361   -4.4313  -10.0999 H   0  0  0  0  0  0  0  0  0  0  0  0
    3.5282   -3.1948   -2.8657 H   0  0  0  0  0  0  0  0  0  0  0  0
    2.8838   -0.2001    0.5696 H   0  0  0  0  0  0  0  0  0  0  0  0
    2.8370   -1.8619    1.2115 H   0  0  0  0  0  0  0  0  0  0  0  0
    4.3524   -0.9827    0.8208 H   0  0  0  0  0  0  0  0  0  0  0  0
  1  2  1  0  0  0  0
  1 33  1  0  0  0  0
  1 34  1  0  0  0  0
  1 35  1  0  0  0  0
  2  3  1  0  0  0  0
  3  4  1  0  0  0  0
  3 29  2  0  0  0  0
  4  5  2  0  0  0  0
  4 36  1  0  0  0  0
  5  6  1  0  0  0  0
  5 27  1  0  0  0  0
  6  7  2  0  0  0  0
  7  8  1  0  0  0  0
  7 37  1  0  0  0  0
  8 27  1  0  0  0  0
  8  9  1  0  0  0  0
  9 23  1  0  0  0  0
  9 10  2  0  0  0  0
 10 11  1  0  0  0  0
 10 38  1  0  0  0  0
 11 22  2  0  0  0  0
 11 12  1  0  0  0  0
 12 13  1  0  0  0  0
 13 15  1  0  0  0  0
 13 14  1  0  0  0  0
 13 32  1  6  0  0  0
 14 39  1  0  0  0  0
 14 40  1  0  0  0  0
 14 41  1  0  0  0  0
 15 16  2  0  0  0  0
 15 20  1  0  0  0  0
 16 17  1  0  0  0  0
 16 42  1  0  0  0  0
 17 18  2  0  0  0  0
 17 43  1  0  0  0  0
 18 19  1  0  0  0  0
 18 44  1  0  0  0  0
 19 20  2  0  0  0  0
 19 45  1  0  0  0  0
 20 21  1  0  0  0  0
 22 23  1  0  0  0  0
 22 24  1  0  0  0  0
 24 25  2  0  0  0  0
 24 26  1  0  0  0  0
 26 46  1  0  0  0  0
 26 47  1  0  0  0  0
 27 28  2  0  0  0  0
 28 29  1  0  0  0  0
 28 48  1  0  0  0  0
 29 30  1  0  0  0  0
 30 31  1  0  0  0  0
 31 49  1  0  0  0  0
 31 50  1  0  0  0  0
 31 51  1  0  0  0  0
M  END
>  <DRUGBANK_ID>
DB07471

>  <COMMON_NAME>
5-[5,6-BIS(METHYLOXY)-1H-BENZIMIDAZOL-1-YL]-3-{[1-(2-CHLOROPHENYL)ETHYL]OXY}-2-THIOPHENECARBOXAMIDE

$$$$
