SXO
 OpenBabel10282417173D

 68 67  0  0  0  0  0  0  0  0999 V2000
   -2.0074    1.7602   -1.3937 O   0  0  0  0  0  0  0  0  0  0  0  0
   -3.3743    1.3863   -0.6905 P   0  0  0  0  0  0  0  0  0  0  0  0
   -3.8046    2.9143   -0.5925 O   0  0  0  0  0  0  0  0  0  0  0  0
   -4.5767    0.8919   -1.3930 O   0  0  0  0  0  0  0  0  0  0  0  0
   -2.8692    0.6964    0.6476 O   0  0  0  0  0  0  0  0  0  0  0  0
   -1.7499   -0.2342    0.6015 C   0  0  0  0  0  0  0  0  0  0  0  0
   -1.9231   -1.7083    0.0454 C   0  0  0  0  0  0  0  0  0  0  0  0
   -0.7916   -2.6140    0.6703 C   0  0  0  0  0  0  0  0  0  0  0  0
   -3.2346   -2.2828    0.6208 C   0  0  0  0  0  0  0  0  0  0  0  0
   -1.8149   -1.8582   -1.5639 C   0  0  2  0  0  0  0  0  0  0  0  0
   -0.4497   -1.9907   -1.9216 O   0  0  0  0  0  0  0  0  0  0  0  0
   -2.9832   -1.0211   -2.3541 C   0  0  0  0  0  0  0  0  0  0  0  0
   -4.0873   -1.3477   -2.0564 O   0  0  0  0  0  0  0  0  0  0  0  0
   -2.7057    0.0287   -3.2571 N   0  0  0  0  0  0  0  0  0  0  0  0
   -3.4927    1.1576   -3.9232 C   0  0  0  0  0  0  0  0  0  0  0  0
   -2.9120    2.6195   -3.8417 C   0  0  0  0  0  0  0  0  0  0  0  0
   -1.6393    2.9331   -4.5928 C   0  0  0  0  0  0  0  0  0  0  0  0
   -1.6493    3.8058   -5.4676 O   0  0  0  0  0  0  0  0  0  0  0  0
   -0.4333    2.4004   -4.2599 N   0  0  0  0  0  0  0  0  0  0  0  0
   -0.0117    1.2889   -3.4330 C   0  0  0  0  0  0  0  0  0  0  0  0
    0.1748   -0.0877   -4.0746 C   0  0  0  0  0  0  0  0  0  0  0  0
    1.2896   -0.5200   -5.3416 S   0  0  0  0  0  0  0  0  0  0  0  0
    1.1756    0.8752   -6.3633 C   0  0  0  0  0  0  0  0  0  0  0  0
    0.1269    1.4889   -6.5152 O   0  0  0  0  0  0  0  0  0  0  0  0
    2.4119    1.2129   -7.1179 C   0  0  0  0  0  0  0  0  0  0  0  0
    3.5852    1.6534   -6.2402 C   0  0  0  0  0  0  0  0  0  0  0  0
    4.0732    0.5935   -5.2431 C   0  0  0  0  0  0  0  0  0  0  0  0
    4.3283   -0.7605   -5.9399 C   0  0  0  0  0  0  0  0  0  0  0  0
    5.4916   -0.6577   -6.9132 C   0  0  0  0  0  0  0  0  0  0  0  0
    6.7601   -0.2372   -6.1846 C   0  0  0  0  0  0  0  0  0  0  0  0
    7.1113   -1.2494   -5.1049 C   0  0  0  0  0  0  0  0  0  0  0  0
   -2.1693   -2.8760   -1.7948 H   0  0  0  0  0  0  0  0  0  0  0  0
   -1.7297    2.6814   -1.2271 H   0  0  0  0  0  0  0  0  0  0  0  0
   -4.3687    2.9307   -1.4169 H   0  0  0  0  0  0  0  0  0  0  0  0
   -0.8677    0.2349    0.1479 H   0  0  0  0  0  0  0  0  0  0  0  0
   -1.5013   -0.3314    1.6648 H   0  0  0  0  0  0  0  0  0  0  0  0
   -0.8259   -2.6309    1.7662 H   0  0  0  0  0  0  0  0  0  0  0  0
   -0.9042   -3.6567    0.3374 H   0  0  0  0  0  0  0  0  0  0  0  0
    0.2171   -2.2867    0.3933 H   0  0  0  0  0  0  0  0  0  0  0  0
   -3.1812   -2.3286    1.7175 H   0  0  0  0  0  0  0  0  0  0  0  0
   -4.1049   -1.6700    0.3847 H   0  0  0  0  0  0  0  0  0  0  0  0
   -3.4170   -3.3047    0.2690 H   0  0  0  0  0  0  0  0  0  0  0  0
   -0.1543   -2.9066   -1.7188 H   0  0  0  0  0  0  0  0  0  0  0  0
   -1.9419   -0.1290   -3.8328 H   0  0  0  0  0  0  0  0  0  0  0  0
   -3.5343    0.9233   -4.9925 H   0  0  0  0  0  0  0  0  0  0  0  0
   -4.5291    1.1648   -3.5844 H   0  0  0  0  0  0  0  0  0  0  0  0
   -3.6766    3.3005   -4.2566 H   0  0  0  0  0  0  0  0  0  0  0  0
   -2.7735    3.0709   -2.8628 H   0  0  0  0  0  0  0  0  0  0  0  0
    0.2278    2.6783   -4.9750 H   0  0  0  0  0  0  0  0  0  0  0  0
    0.8349    1.5933   -2.8101 H   0  0  0  0  0  0  0  0  0  0  0  0
   -0.7864    1.1172   -2.7280 H   0  0  0  0  0  0  0  0  0  0  0  0
    0.3951   -0.7454   -3.2514 H   0  0  0  0  0  0  0  0  0  0  0  0
   -0.6771   -0.4825   -4.6092 H   0  0  0  0  0  0  0  0  0  0  0  0
    2.6418    0.3461   -7.7438 H   0  0  0  0  0  0  0  0  0  0  0  0
    2.1521    2.0229   -7.8050 H   0  0  0  0  0  0  0  0  0  0  0  0
    4.4111    1.9164   -6.9106 H   0  0  0  0  0  0  0  0  0  0  0  0
    3.3364    2.5694   -5.6932 H   0  0  0  0  0  0  0  0  0  0  0  0
    4.9619    0.9545   -4.7199 H   0  0  0  0  0  0  0  0  0  0  0  0
    3.3782    0.4943   -4.4044 H   0  0  0  0  0  0  0  0  0  0  0  0
    4.4740   -1.5459   -5.1912 H   0  0  0  0  0  0  0  0  0  0  0  0
    3.4795   -1.1277   -6.5213 H   0  0  0  0  0  0  0  0  0  0  0  0
    5.6310   -1.6206   -7.4162 H   0  0  0  0  0  0  0  0  0  0  0  0
    5.2539    0.0603   -7.7076 H   0  0  0  0  0  0  0  0  0  0  0  0
    7.5750   -0.1357   -6.9031 H   0  0  0  0  0  0  0  0  0  0  0  0
    6.6445    0.7555   -5.7360 H   0  0  0  0  0  0  0  0  0  0  0  0
    7.2654   -2.2334   -5.5570 H   0  0  0  0  0  0  0  0  0  0  0  0
    8.0120   -0.9452   -4.5728 H   0  0  0  0  0  0  0  0  0  0  0  0
    6.3232   -1.3501   -4.3502 H   0  0  0  0  0  0  0  0  0  0  0  0
  1 33  1  0  0  0  0
  2  1  1  0  0  0  0
  2  5  1  0  0  0  0
  2  3  1  0  0  0  0
  3 34  1  0  0  0  0
  4  2  2  0  0  0  0
  5  6  1  0  0  0  0
  6  7  1  0  0  0  0
  6 35  1  0  0  0  0
  6 36  1  0  0  0  0
  7  8  1  0  0  0  0
  8 37  1  0  0  0  0
  8 38  1  0  0  0  0
  8 39  1  0  0  0  0
  9  7  1  0  0  0  0
  9 40  1  0  0  0  0
  9 41  1  0  0  0  0
  9 42  1  0  0  0  0
 10 32  1  6  0  0  0
 10 11  1  0  0  0  0
 10 12  1  0  0  0  0
 10  7  1  0  0  0  0
 11 43  1  0  0  0  0
 12 14  1  0  0  0  0
 13 12  2  0  0  0  0
 14 15  1  0  0  0  0
 14 44  1  0  0  0  0
 15 16  1  0  0  0  0
 15 45  1  0  0  0  0
 15 46  1  0  0  0  0
 16 47  1  0  0  0  0
 16 48  1  0  0  0  0
 17 16  1  0  0  0  0
 17 18  2  0  0  0  0
 19 17  1  0  0  0  0
 19 49  1  0  0  0  0
 20 19  1  0  0  0  0
 20 50  1  0  0  0  0
 20 51  1  0  0  0  0
 21 20  1  0  0  0  0
 21 52  1  0  0  0  0
 21 53  1  0  0  0  0
 22 21  1  0  0  0  0
 23 22  1  0  0  0  0
 23 24  2  0  0  0  0
 25 23  1  0  0  0  0
 25 54  1  0  0  0  0
 25 55  1  0  0  0  0
 26 25  1  0  0  0  0
 26 27  1  0  0  0  0
 26 56  1  0  0  0  0
 26 57  1  0  0  0  0
 27 58  1  0  0  0  0
 27 59  1  0  0  0  0
 28 27  1  0  0  0  0
 28 29  1  0  0  0  0
 28 60  1  0  0  0  0
 28 61  1  0  0  0  0
 29 30  1  0  0  0  0
 29 62  1  0  0  0  0
 29 63  1  0  0  0  0
 30 64  1  0  0  0  0
 30 65  1  0  0  0  0
 31 30  1  0  0  0  0
 31 66  1  0  0  0  0
 31 67  1  0  0  0  0
 31 68  1  0  0  0  0
M  END
>  <DRUGBANK_ID>
DB08586

>  <COMMON_NAME>
S-[2-({N-[(2S)-2-hydroxy-3,3-dimethyl-4-(phosphonooxy)butanoyl]-beta-alanyl}amino)ethyl] octanethioate

$$$$
