
 OpenBabel10282417143D

 70 71  0  0  1  0  0  0  0  0999 V2000
   -2.6266   -4.0469   -0.1116 C   0  0  0  0  0  0  0  0  0  0  0  0
   -2.2439   -3.7010    1.3197 C   0  0  0  0  0  0  0  0  0  0  0  0
   -1.6366   -4.9011    2.0299 C   0  0  0  0  0  0  0  0  0  0  0  0
   -1.2767   -2.5390    1.3580 C   0  0  0  0  0  0  0  0  0  0  0  0
   -1.6837   -1.1852    0.7302 C   0  0  2  0  0  0  0  0  0  0  0  0
   -0.9929   -0.0561    1.3652 N   0  0  0  0  0  0  0  0  0  0  0  0
    0.2570    0.0178    1.9561 C   0  0  0  0  0  0  0  0  0  0  0  0
    0.5488    0.9773    2.6371 O   0  0  0  0  0  0  0  0  0  0  0  0
    1.2424   -1.0955    1.7977 C   0  0  0  0  0  0  0  0  0  0  0  0
    1.4737   -1.6806    0.5451 C   0  0  0  0  0  0  0  0  0  0  0  0
    2.2831   -2.8159    0.4277 C   0  0  0  0  0  0  0  0  0  0  0  0
    2.9730   -3.2861    1.5497 C   0  0  0  0  0  0  0  0  0  0  0  0
    2.8297   -2.6459    2.7894 C   0  0  0  0  0  0  0  0  0  0  0  0
    1.9156   -1.5900    2.9251 C   0  0  0  0  0  0  0  0  0  0  0  0
    3.8172   -4.4836    1.4334 N   0  3  0  0  0  0  0  0  0  0  0  0
    4.4425   -4.8471    2.4389 O   0  5  0  0  0  0  0  0  0  0  0  0
    3.8378   -5.0693    0.3413 O   0  0  0  0  0  0  0  0  0  0  0  0
   -3.2329   -1.0500    0.7237 C   0  0  0  0  0  0  0  0  0  0  0  0
   -3.8433   -1.1505   -0.3413 O   0  0  0  0  0  0  0  0  0  0  0  0
   -3.8635   -1.1145    1.9473 N   0  0  0  0  0  0  0  0  0  0  0  0
   -3.4879   -0.4116    3.1459 C   0  0  0  0  0  0  0  0  0  0  0  0
   -3.8523   -1.3656    4.2503 C   0  0  0  0  0  0  0  0  0  0  0  0
   -5.1380   -1.9764    3.7402 C   0  0  0  0  0  0  0  0  0  0  0  0
   -5.0580   -1.9256    2.1893 C   0  0  1  0  0  0  0  0  0  0  0  0
   -6.3159   -1.3458    1.5224 C   0  0  0  0  0  0  0  0  0  0  0  0
   -6.3243   -0.4489    0.6824 O   0  0  0  0  0  0  0  0  0  0  0  0
   -7.5080   -1.9066    1.8375 N   0  0  0  0  0  0  0  0  0  0  0  0
   -7.7385   -2.9652    2.7547 C   0  0  0  0  0  0  0  0  0  0  0  0
   -8.6026   -2.4952    3.9329 C   0  0  0  0  0  0  0  0  0  0  0  0
  -10.0605   -2.3752    3.5067 C   0  0  0  0  0  0  0  0  0  0  0  0
  -10.6369   -3.6968    2.9613 C   0  0  0  0  0  0  0  0  0  0  0  0
  -10.7455   -4.7095    4.0217 N   0  0  0  0  0  0  0  0  0  0  0  0
   -9.7928   -5.4196    4.4850 C   0  0  0  0  0  0  0  0  0  0  0  0
   -8.5091   -5.4990    4.0888 N   0  0  0  0  0  0  0  0  0  0  0  0
   -9.9126   -6.2227    5.5545 N   0  0  0  0  0  0  0  0  0  0  0  0
   -1.7575   -4.4078   -0.6688 H   0  0  0  0  0  0  0  0  0  0  0  0
   -3.0012   -3.1948   -0.6754 H   0  0  0  0  0  0  0  0  0  0  0  0
   -3.4125   -4.8025   -0.1212 H   0  0  0  0  0  0  0  0  0  0  0  0
   -3.1034   -3.4467    1.9198 H   0  0  0  0  0  0  0  0  0  0  0  0
   -0.7529   -5.2690    1.5023 H   0  0  0  0  0  0  0  0  0  0  0  0
   -1.3425   -4.6334    3.0516 H   0  0  0  0  0  0  0  0  0  0  0  0
   -2.3807   -5.6987    2.0905 H   0  0  0  0  0  0  0  0  0  0  0  0
   -0.9689   -2.3841    2.3992 H   0  0  0  0  0  0  0  0  0  0  0  0
   -0.4205   -2.9255    0.8107 H   0  0  0  0  0  0  0  0  0  0  0  0
   -1.3736   -1.1564   -0.3225 H   0  0  0  0  0  0  0  0  0  0  0  0
   -1.5251    0.8043    1.4534 H   0  0  0  0  0  0  0  0  0  0  0  0
    0.9193   -1.3399   -0.3265 H   0  0  0  0  0  0  0  0  0  0  0  0
    2.3360   -3.3286   -0.5312 H   0  0  0  0  0  0  0  0  0  0  0  0
    3.4089   -2.9649    3.6541 H   0  0  0  0  0  0  0  0  0  0  0  0
    1.7147   -1.1784    3.9134 H   0  0  0  0  0  0  0  0  0  0  0  0
   -4.1213    0.4817    3.1763 H   0  0  0  0  0  0  0  0  0  0  0  0
   -2.4490   -0.1174    3.1923 H   0  0  0  0  0  0  0  0  0  0  0  0
   -3.0890   -2.1457    4.3579 H   0  0  0  0  0  0  0  0  0  0  0  0
   -3.9864   -0.8714    5.2147 H   0  0  0  0  0  0  0  0  0  0  0  0
   -5.2197   -2.9929    4.1476 H   0  0  0  0  0  0  0  0  0  0  0  0
   -5.9840   -1.3907    4.1080 H   0  0  0  0  0  0  0  0  0  0  0  0
   -4.9412   -2.9381    1.7759 H   0  0  0  0  0  0  0  0  0  0  0  0
   -8.2870   -1.5665    1.2865 H   0  0  0  0  0  0  0  0  0  0  0  0
   -8.1601   -3.7271    2.1000 H   0  0  0  0  0  0  0  0  0  0  0  0
   -6.8325   -3.4390    3.1245 H   0  0  0  0  0  0  0  0  0  0  0  0
   -8.5464   -3.1646    4.7977 H   0  0  0  0  0  0  0  0  0  0  0  0
   -8.2337   -1.5435    4.3335 H   0  0  0  0  0  0  0  0  0  0  0  0
  -10.6601   -2.0339    4.3582 H   0  0  0  0  0  0  0  0  0  0  0  0
  -10.1273   -1.5867    2.7453 H   0  0  0  0  0  0  0  0  0  0  0  0
  -11.6457   -3.4711    2.5929 H   0  0  0  0  0  0  0  0  0  0  0  0
  -10.1063   -4.0540    2.0720 H   0  0  0  0  0  0  0  0  0  0  0  0
   -7.8464   -5.2704    4.8234 H   0  0  0  0  0  0  0  0  0  0  0  0
   -8.4106   -4.8576    3.3426 H   0  0  0  0  0  0  0  0  0  0  0  0
  -10.8271   -6.6343    5.6767 H   0  0  0  0  0  0  0  0  0  0  0  0
   -9.1237   -6.8216    5.7554 H   0  0  0  0  0  0  0  0  0  0  0  0
  1  2  1  0  0  0  0
  1 36  1  0  0  0  0
  1 37  1  0  0  0  0
  1 38  1  0  0  0  0
  2  3  1  0  0  0  0
  2  4  1  0  0  0  0
  2 39  1  0  0  0  0
  3 40  1  0  0  0  0
  3 41  1  0  0  0  0
  3 42  1  0  0  0  0
  4 43  1  0  0  0  0
  4 44  1  0  0  0  0
  5 18  1  0  0  0  0
  5 45  1  6  0  0  0
  5  6  1  0  0  0  0
  5  4  1  0  0  0  0
  6  7  1  0  0  0  0
  6 46  1  0  0  0  0
  7  8  2  0  0  0  0
  7  9  1  0  0  0  0
  9 10  2  0  0  0  0
  9 14  1  0  0  0  0
 10 11  1  0  0  0  0
 10 47  1  0  0  0  0
 11 12  2  0  0  0  0
 11 48  1  0  0  0  0
 12 13  1  0  0  0  0
 12 15  1  0  0  0  0
 13 14  2  0  0  0  0
 13 49  1  0  0  0  0
 14 50  1  0  0  0  0
 15 16  1  0  0  0  0
 15 17  2  0  0  0  0
 18 19  2  0  0  0  0
 18 20  1  0  0  0  0
 20 21  1  0  0  0  0
 20 24  1  0  0  0  0
 21 22  1  0  0  0  0
 21 51  1  0  0  0  0
 21 52  1  0  0  0  0
 22 23  1  0  0  0  0
 22 53  1  0  0  0  0
 22 54  1  0  0  0  0
 23 24  1  0  0  0  0
 23 55  1  0  0  0  0
 23 56  1  0  0  0  0
 24 57  1  6  0  0  0
 24 25  1  0  0  0  0
 25 26  2  0  0  0  0
 25 27  1  0  0  0  0
 27 28  1  0  0  0  0
 27 58  1  0  0  0  0
 28 29  1  0  0  0  0
 28 59  1  0  0  0  0
 28 60  1  0  0  0  0
 29 30  1  0  0  0  0
 29 61  1  0  0  0  0
 29 62  1  0  0  0  0
 30 31  1  0  0  0  0
 30 63  1  0  0  0  0
 30 64  1  0  0  0  0
 31 32  1  0  0  0  0
 31 65  1  0  0  0  0
 31 66  1  0  0  0  0
 32 33  2  0  0  0  0
 33 34  1  0  0  0  0
 33 35  1  0  0  0  0
 34 67  1  0  0  0  0
 34 68  1  0  0  0  0
 35 69  1  0  0  0  0
 35 70  1  0  0  0  0
M  CHG  2  15   1  16  -1
M  END
>  <DRUGBANK_ID>
DB04771

>  <COMMON_NAME>
1-GUANIDINO-4-(N-NITRO-BENZOYLAMINO-L-LEUCYL-L-PROLYLAMINO)BUTANE

$$$$
