
 OpenBabel10282417183D

 20 19  0  0  0  0  0  0  0  0999 V2000
    0.6519   -2.5193    0.9619 C   0  0  0  0  0  0  0  0  0  0  0  0
    1.4662   -2.5723    2.2456 C   0  0  1  0  0  0  0  0  0  0  0  0
    0.4480   -2.5454    3.3919 C   0  0  2  0  0  0  0  0  0  0  0  0
   -0.1316   -1.1139    3.5833 C   0  0  1  0  0  0  0  0  0  0  0  0
    0.2318   -0.5769    4.9709 C   0  0  0  0  0  0  0  0  0  0  0  0
   -0.0171   -3.4832    0.5721 O   0  0  0  0  0  0  0  0  0  0  0  0
    2.2964   -3.7250    2.3354 O   0  0  0  0  0  0  0  0  0  0  0  0
    1.0419   -3.0296    4.6098 O   0  0  0  0  0  0  0  0  0  0  0  0
    0.2875   -0.1769    2.5632 O   0  0  0  0  0  0  0  0  0  0  0  0
   -0.1095    0.7955    5.0988 O   0  0  0  0  0  0  0  0  0  0  0  0
    0.6208   -1.5537    0.4323 H   0  0  0  0  0  0  0  0  0  0  0  0
    2.1532   -1.7251    2.3116 H   0  0  0  0  0  0  0  0  0  0  0  0
   -0.3730   -3.2469    3.1883 H   0  0  0  0  0  0  0  0  0  0  0  0
   -1.2216   -1.1477    3.4729 H   0  0  0  0  0  0  0  0  0  0  0  0
   -0.2924   -1.1485    5.7441 H   0  0  0  0  0  0  0  0  0  0  0  0
    1.3107   -0.6566    5.1425 H   0  0  0  0  0  0  0  0  0  0  0  0
    1.7402   -4.4950    2.1191 H   0  0  0  0  0  0  0  0  0  0  0  0
    1.7181   -3.6934    4.3742 H   0  0  0  0  0  0  0  0  0  0  0  0
    1.2509   -0.0458    2.5917 H   0  0  0  0  0  0  0  0  0  0  0  0
    0.3030    1.2444    4.3400 H   0  0  0  0  0  0  0  0  0  0  0  0
  1 11  1  0  0  0  0
  2 12  1  1  0  0  0
  2  7  1  0  0  0  0
  2  1  1  0  0  0  0
  3  2  1  0  0  0  0
  3  8  1  0  0  0  0
  3 13  1  6  0  0  0
  4 14  1  6  0  0  0
  4  9  1  0  0  0  0
  4  3  1  0  0  0  0
  5  4  1  0  0  0  0
  5 15  1  0  0  0  0
  5 16  1  0  0  0  0
  6  1  2  0  0  0  0
  7 17  1  0  0  0  0
  8 18  1  0  0  0  0
  9 19  1  0  0  0  0
 10  5  1  0  0  0  0
 10 20  1  0  0  0  0
M  END
>  <DRUGBANK_ID>
DB09419

>  <COMMON_NAME>
Xylose

>  <CAS_NUMBER>
58-86-6

>  <UNII>
A1TA934AKO

>  <SYNONYMS>
(+)-Xylose; aldehydo-D-xylose; D-Xylose; Wood sugar; Xylose

$$$$
