
 OpenBabel10282417143D

 37 36  0  0  0  0  0  0  0  0999 V2000
   -1.9126    0.7680    0.6918 S   0  0  0  0  0  0  0  0  0  0  0  0
   -4.0124    6.9725    2.2042 O   0  0  0  0  0  0  0  0  0  0  0  0
   -3.1177    5.1950    1.2482 O   0  0  0  0  0  0  0  0  0  0  0  0
   -4.4254    2.7981   -3.2071 O   0  0  0  0  0  0  0  0  0  0  0  0
   -4.7130    1.0321   -1.8338 O   0  0  0  0  0  0  0  0  0  0  0  0
   -4.5485    4.1263    3.9305 N   0  3  0  0  0  0  0  0  0  0  0  0
   -2.2262    1.1256    3.3616 N   0  0  0  0  0  0  0  0  0  0  0  0
   -4.3126    3.2468    0.0145 N   0  0  0  0  0  0  0  0  0  0  0  0
   -2.8162    2.7780    1.9092 N   0  0  0  0  0  0  0  0  0  0  0  0
   -1.9687    4.3994    3.9405 C   0  0  0  0  0  0  0  0  0  0  0  0
   -3.3762    5.0928    3.6788 C   0  0  1  0  0  0  0  0  0  0  0  0
   -1.9402    3.1857    4.9142 C   0  0  0  0  0  0  0  0  0  0  0  0
   -2.6871    1.8458    4.5734 C   0  0  0  0  0  0  0  0  0  0  0  0
   -3.4549    5.7493    2.2632 C   0  0  0  0  0  0  0  0  0  0  0  0
   -3.3538    2.8689   -1.0425 C   0  0  1  0  0  0  0  0  0  0  0  0
   -2.0348    2.0948   -0.6452 C   0  0  0  0  0  0  0  0  0  0  0  0
   -2.3274    1.5783    2.1627 C   0  0  0  0  0  0  0  0  0  0  0  0
   -4.1838    2.1092   -2.0664 C   0  0  0  0  0  0  0  0  0  0  0  0
   -4.1126    7.5083    3.0086 H   0  0  0  0  0  0  0  0  0  0  0  0
   -4.0224    3.6825   -3.2857 H   0  0  0  0  0  0  0  0  0  0  0  0
   -4.7956    3.4604    3.1603 H   0  0  0  0  0  0  0  0  0  0  0  0
   -4.3564    3.5730    4.7712 H   0  0  0  0  0  0  0  0  0  0  0  0
   -5.4418    4.5788    4.1624 H   0  0  0  0  0  0  0  0  0  0  0  0
   -4.9957    3.9163   -0.3234 H   0  0  0  0  0  0  0  0  0  0  0  0
   -3.7589    3.7544    0.6979 H   0  0  0  0  0  0  0  0  0  0  0  0
   -2.1588    3.3767    1.4073 H   0  0  0  0  0  0  0  0  0  0  0  0
   -3.1116    3.1504    2.7512 H   0  0  0  0  0  0  0  0  0  0  0  0
   -1.2765    5.1844    4.2732 H   0  0  0  0  0  0  0  0  0  0  0  0
   -1.4205    4.0926    3.0405 H   0  0  0  0  0  0  0  0  0  0  0  0
   -3.5158    5.8591    4.4373 H   0  0  0  0  0  0  0  0  0  0  0  0
   -2.2890    3.5722    5.8826 H   0  0  0  0  0  0  0  0  0  0  0  0
   -0.8896    2.9091    5.0671 H   0  0  0  0  0  0  0  0  0  0  0  0
   -3.7811    1.9076    4.5509 H   0  0  0  0  0  0  0  0  0  0  0  0
   -2.5432    1.1921    5.4455 H   0  0  0  0  0  0  0  0  0  0  0  0
   -3.0102    3.8159   -1.4932 H   0  0  0  0  0  0  0  0  0  0  0  0
   -1.2635    2.8443   -0.4003 H   0  0  0  0  0  0  0  0  0  0  0  0
   -1.6623    1.5925   -1.5438 H   0  0  0  0  0  0  0  0  0  0  0  0
  1 16  1  0  0  0  0
  1 17  1  0  0  0  0
  2 14  1  0  0  0  0
  2 19  1  0  0  0  0
  3 14  2  0  0  0  0
  4 18  1  0  0  0  0
  4 20  1  0  0  0  0
  5 18  2  0  0  0  0
  6 21  1  0  0  0  0
  6 22  1  0  0  0  0
  6 23  1  0  0  0  0
  7 13  1  0  0  0  0
  7 17  2  0  0  0  0
  8 24  1  0  0  0  0
  8 25  1  0  0  0  0
  9 17  1  0  0  0  0
  9 26  1  0  0  0  0
  9 27  1  0  0  0  0
 10 12  1  0  0  0  0
 10 28  1  0  0  0  0
 10 29  1  0  0  0  0
 11 14  1  0  0  0  0
 11 30  1  1  0  0  0
 11 10  1  0  0  0  0
 11  6  1  0  0  0  0
 12 13  1  0  0  0  0
 12 31  1  0  0  0  0
 12 32  1  0  0  0  0
 13 33  1  0  0  0  0
 13 34  1  0  0  0  0
 15 18  1  0  0  0  0
 15 35  1  6  0  0  0
 15 16  1  0  0  0  0
 15  8  1  0  0  0  0
 16 36  1  0  0  0  0
 16 37  1  0  0  0  0
M  CHG  1   6   1
M  END
>  <DRUGBANK_ID>
DB04671

>  <COMMON_NAME>
[(1S)-4-[[Amino-[(2R)-2-amino-2-carboxyethyl]sulfanylmethylidene]amino]-1-carboxybutyl]azanium

$$$$
