
 OpenBabel10282417173D

 91 92  0  0  0  0  0  0  0  0999 V2000
    6.2932    1.5932   -3.4226 C   0  0  0  0  0  0  0  0  0  0  0  0
    4.8819    2.8293   -1.8849 N   0  0  0  0  0  0  0  0  0  0  0  0
    3.6383    3.5082   -1.4394 C   0  0  1  0  0  0  0  0  0  0  0  0
    6.1044    0.2243   -3.4579 N   0  0  0  0  0  0  0  0  0  0  0  0
    5.2061    2.5864   -3.2047 C   0  0  0  0  0  0  0  0  0  0  0  0
    2.7209    0.3047   -1.7089 C   0  0  0  0  0  0  0  0  0  0  0  0
    2.8992    0.1191   -2.9400 N   0  0  0  0  0  0  0  0  0  0  0  0
    5.9856   -2.6953   -1.0576 N   0  0  0  0  0  0  0  0  0  0  0  0
    3.8145   -1.3704    1.7788 N   0  0  0  0  0  0  0  0  0  0  0  0
    2.3550    2.7190   -1.8009 C   0  0  2  0  0  0  0  0  0  0  0  0
    6.1516   -0.5072   -2.2839 C   0  0  0  0  0  0  0  0  0  0  0  0
    4.9815   -2.6265   -0.0976 C   0  0  0  0  0  0  0  0  0  0  0  0
    3.7133   -0.3699    2.7401 C   0  0  0  0  0  0  0  0  0  0  0  0
    2.3060    1.4426   -1.1457 N   0  0  0  0  0  0  0  0  0  0  0  0
    5.0827   -1.5732    1.0525 C   0  0  2  0  0  0  0  0  0  0  0  0
    5.8279   -2.0359   -2.3771 C   0  0  2  0  0  0  0  0  0  0  0  0
    3.6583    3.8555    0.1022 C   0  0  0  0  0  0  0  0  0  0  0  0
    2.8175    0.7887    2.3210 C   0  0  1  0  0  0  0  0  0  0  0  0
    2.9640    3.0204    0.9881 N   0  0  0  0  0  0  0  0  0  0  0  0
    2.1379    2.5468   -3.2852 C   0  0  0  0  0  0  0  0  0  0  0  0
    1.0646    0.5716    4.0469 C   0  0  0  0  0  0  0  0  0  0  0  0
    7.4829    2.1731   -3.5751 C   0  0  0  0  0  0  0  0  0  0  0  0
    2.5504    1.2012   -3.8757 C   0  0  0  0  0  0  0  0  0  0  0  0
    0.0976    1.3626    4.9326 C   0  0  0  0  0  0  0  0  0  0  0  0
    2.0801    1.3083    3.4610 N   0  0  0  0  0  0  0  0  0  0  0  0
    9.8941    1.9544   -3.9259 C   0  0  0  0  0  0  0  0  0  0  0  0
    8.6312    1.4722   -3.8046 N   0  0  0  0  0  0  0  0  0  0  0  0
    2.8054   -0.6362   -0.7402 N   0  0  0  0  0  0  0  0  0  0  0  0
    3.6885    1.8825    1.6043 C   0  0  0  0  0  0  0  0  0  0  0  0
   -1.3423    1.5906    4.3708 C   0  0  2  0  0  0  0  0  0  0  0  0
    4.7353    3.1736   -4.1764 O   0  0  0  0  0  0  0  0  0  0  0  0
    3.9427   -3.2768   -0.2486 O   0  0  0  0  0  0  0  0  0  0  0  0
    4.3978   -0.3127    3.7515 O   0  0  0  0  0  0  0  0  0  0  0  0
    6.5161    0.0163   -1.2270 O   0  0  0  0  0  0  0  0  0  0  0  0
    4.3785    4.7451    0.5525 O   0  0  0  0  0  0  0  0  0  0  0  0
   10.8427    1.2096   -4.1251 O   0  0  0  0  0  0  0  0  0  0  0  0
    0.8838   -0.6128    3.7674 O   0  0  0  0  0  0  0  0  0  0  0  0
   10.0589    3.2912   -3.8097 N   0  0  0  0  0  0  0  0  0  0  0  0
   -1.4926    2.6948    3.2569 C   0  0  1  0  0  0  0  0  0  0  0  0
   -2.2319    2.0018    5.4780 N   0  0  0  0  0  0  0  0  0  0  0  0
    4.4784   -2.3366   -2.9941 C   0  0  0  0  0  0  0  0  0  0  0  0
    6.2156   -1.8556    2.0076 C   0  0  0  0  0  0  0  0  0  0  0  0
   -0.3692    2.6941    2.2446 C   0  0  0  0  0  0  0  0  0  0  0  0
   -1.1942    0.8855    0.5550 N   0  0  0  0  0  0  0  0  0  0  0  0
    7.4714   -1.7369    1.3708 O   0  0  0  0  0  0  0  0  0  0  0  0
    4.3283   -1.7234   -4.2620 O   0  0  0  0  0  0  0  0  0  0  0  0
   -0.2348    1.3542    1.5226 C   0  0  0  0  0  0  0  0  0  0  0  0
    1.4952    3.2747   -1.4089 H   0  0  0  0  0  0  0  0  0  0  0  0
    3.5876    4.4751   -1.9625 H   0  0  0  0  0  0  0  0  0  0  0  0
   -2.7263    2.5842    2.5461 O   0  0  0  0  0  0  0  0  0  0  0  0
    5.5377    2.5072   -1.1811 H   0  0  0  0  0  0  0  0  0  0  0  0
    5.5588   -0.1621   -4.2306 H   0  0  0  0  0  0  0  0  0  0  0  0
    6.9565   -2.7422   -0.8053 H   0  0  0  0  0  0  0  0  0  0  0  0
    3.0427   -2.0339    1.6611 H   0  0  0  0  0  0  0  0  0  0  0  0
    2.3955    1.4558   -0.1616 H   0  0  0  0  0  0  0  0  0  0  0  0
    5.2443   -0.6119    0.5616 H   0  0  0  0  0  0  0  0  0  0  0  0
    6.6027   -2.4607   -3.0257 H   0  0  0  0  0  0  0  0  0  0  0  0
    2.0982    0.3393    1.6376 H   0  0  0  0  0  0  0  0  0  0  0  0
    1.9812    2.9121    0.7576 H   0  0  0  0  0  0  0  0  0  0  0  0
    1.0764    2.6926   -3.5002 H   0  0  0  0  0  0  0  0  0  0  0  0
    2.5953    3.3859   -3.8161 H   0  0  0  0  0  0  0  0  0  0  0  0
    7.5394    3.2532   -3.5213 H   0  0  0  0  0  0  0  0  0  0  0  0
    1.7130    0.8315   -4.4699 H   0  0  0  0  0  0  0  0  0  0  0  0
    3.3722    1.3001   -4.5895 H   0  0  0  0  0  0  0  0  0  0  0  0
    0.0342    0.7674    5.8517 H   0  0  0  0  0  0  0  0  0  0  0  0
    0.5469    2.3241    5.1959 H   0  0  0  0  0  0  0  0  0  0  0  0
    2.2608    2.2667    3.7296 H   0  0  0  0  0  0  0  0  0  0  0  0
    8.5674    0.4632   -3.8890 H   0  0  0  0  0  0  0  0  0  0  0  0
    3.0514   -0.4320    0.2028 H   0  0  0  0  0  0  0  0  0  0  0  0
    2.9121   -1.6251   -0.9277 H   0  0  0  0  0  0  0  0  0  0  0  0
    4.4060    2.3157    2.3032 H   0  0  0  0  0  0  0  0  0  0  0  0
    4.2872    1.4279    0.8037 H   0  0  0  0  0  0  0  0  0  0  0  0
   -1.7519    0.6454    3.9912 H   0  0  0  0  0  0  0  0  0  0  0  0
    9.3135    3.9442   -3.6444 H   0  0  0  0  0  0  0  0  0  0  0  0
   10.9947    3.6561   -3.8914 H   0  0  0  0  0  0  0  0  0  0  0  0
   -1.5182    3.6869    3.7229 H   0  0  0  0  0  0  0  0  0  0  0  0
   -2.2025    1.3314    6.2430 H   0  0  0  0  0  0  0  0  0  0  0  0
   -1.9275    2.8988    5.8579 H   0  0  0  0  0  0  0  0  0  0  0  0
    4.2324   -3.4013   -3.0143 H   0  0  0  0  0  0  0  0  0  0  0  0
    3.7121   -1.9312   -2.3775 H   0  0  0  0  0  0  0  0  0  0  0  0
    6.2359   -1.1157    2.8054 H   0  0  0  0  0  0  0  0  0  0  0  0
    6.0875   -2.8443    2.4540 H   0  0  0  0  0  0  0  0  0  0  0  0
   -0.4444    3.5045    1.5151 H   0  0  0  0  0  0  0  0  0  0  0  0
    0.5341    2.9512    2.8090 H   0  0  0  0  0  0  0  0  0  0  0  0
   -0.8422   -0.0240    0.2302 H   0  0  0  0  0  0  0  0  0  0  0  0
   -2.0533    0.6225    1.0273 H   0  0  0  0  0  0  0  0  0  0  0  0
    7.5474   -2.4811    0.7658 H   0  0  0  0  0  0  0  0  0  0  0  0
    3.7633   -0.9372   -4.0517 H   0  0  0  0  0  0  0  0  0  0  0  0
    0.7054    1.3771    0.9999 H   0  0  0  0  0  0  0  0  0  0  0  0
   -0.2337    0.5434    2.2336 H   0  0  0  0  0  0  0  0  0  0  0  0
   -2.8504    1.6561    2.3001 H   0  0  0  0  0  0  0  0  0  0  0  0
  1  4  1  0  0  0  0
  1  5  1  0  0  0  0
  1 22  2  0  0  0  0
  2  5  1  0  0  0  0
  2  3  1  0  0  0  0
  2 51  1  0  0  0  0
  3 17  1  0  0  0  0
  3 49  1  6  0  0  0
  4 11  1  0  0  0  0
  4 52  1  0  0  0  0
  5 31  2  0  0  0  0
  6 14  1  0  0  0  0
  6 28  1  0  0  0  0
  6  7  2  0  0  0  0
  7 23  1  0  0  0  0
  8 16  1  0  0  0  0
  8 12  1  0  0  0  0
  8 53  1  0  0  0  0
  9 15  1  0  0  0  0
  9 13  1  0  0  0  0
  9 54  1  0  0  0  0
 10 14  1  0  0  0  0
 10 20  1  0  0  0  0
 10 48  1  1  0  0  0
 10  3  1  0  0  0  0
 11 16  1  0  0  0  0
 11 34  2  0  0  0  0
 12 15  1  0  0  0  0
 12 32  2  0  0  0  0
 13 18  1  0  0  0  0
 13 33  2  0  0  0  0
 14 55  1  0  0  0  0
 15 42  1  0  0  0  0
 15 56  1  6  0  0  0
 16 41  1  0  0  0  0
 16 57  1  6  0  0  0
 17 19  1  0  0  0  0
 17 35  2  0  0  0  0
 18 29  1  0  0  0  0
 18 58  1  6  0  0  0
 18 25  1  0  0  0  0
 19 29  1  0  0  0  0
 19 59  1  0  0  0  0
 20 23  1  0  0  0  0
 20 60  1  0  0  0  0
 20 61  1  0  0  0  0
 21 25  1  0  0  0  0
 21 24  1  0  0  0  0
 21 37  2  0  0  0  0
 22 27  1  0  0  0  0
 22 62  1  0  0  0  0
 23 63  1  0  0  0  0
 23 64  1  0  0  0  0
 24 65  1  0  0  0  0
 24 66  1  0  0  0  0
 25 67  1  0  0  0  0
 26 27  1  0  0  0  0
 26 36  2  0  0  0  0
 26 38  1  0  0  0  0
 27 68  1  0  0  0  0
 28 69  1  0  0  0  0
 28 70  1  0  0  0  0
 29 71  1  0  0  0  0
 29 72  1  0  0  0  0
 30 40  1  0  0  0  0
 30 73  1  6  0  0  0
 30 39  1  0  0  0  0
 30 24  1  0  0  0  0
 38 74  1  0  0  0  0
 38 75  1  0  0  0  0
 39 43  1  0  0  0  0
 39 50  1  0  0  0  0
 39 76  1  1  0  0  0
 40 77  1  0  0  0  0
 40 78  1  0  0  0  0
 41 46  1  0  0  0  0
 41 79  1  0  0  0  0
 41 80  1  0  0  0  0
 42 45  1  0  0  0  0
 42 81  1  0  0  0  0
 42 82  1  0  0  0  0
 43 47  1  0  0  0  0
 43 83  1  0  0  0  0
 43 84  1  0  0  0  0
 44 47  1  0  0  0  0
 44 85  1  0  0  0  0
 44 86  1  0  0  0  0
 45 87  1  0  0  0  0
 46 88  1  0  0  0  0
 47 89  1  0  0  0  0
 47 90  1  0  0  0  0
 50 91  1  0  0  0  0
M  END
>  <DRUGBANK_ID>
DB08993

>  <COMMON_NAME>
Enviomycin

>  <CAS_NUMBER>
33103-22-9

>  <UNII>
XU299C23A2

>  <SYNONYMS>
Enviomicina; Enviomycin; Enviomycine; Enviomycinum; Tuberactinomycin N

$$$$
