H16
 OpenBabel10282417163D

 44 46  0  0  0  0  0  0  0  0999 V2000
   -1.3435    0.3513   -0.2688 C   0  0  0  0  0  0  0  0  0  0  0  0
   -0.9722   -0.9330    0.4776 C   0  0  0  0  0  0  0  0  0  0  0  0
    0.5084   -1.2066    0.3049 C   0  0  0  0  0  0  0  0  0  0  0  0
    1.5130   -0.1227    0.5798 C   0  0  0  0  0  0  0  0  0  0  0  0
    1.0679    1.1946   -0.0474 C   0  0  0  0  0  0  0  0  0  0  0  0
   -0.4083    1.4759    0.2070 C   0  0  0  0  0  0  0  0  0  0  0  0
    2.5385   -0.7591   -3.9009 N   0  0  0  0  0  0  0  0  0  0  0  0
    1.8721    0.3372   -4.3770 C   0  0  0  0  0  0  0  0  0  0  0  0
    2.3402    0.9593   -5.3077 O   0  0  0  0  0  0  0  0  0  0  0  0
    0.5994    0.7322   -3.6597 C   0  0  0  0  0  0  0  0  0  0  0  0
   -0.0469   -0.2177   -2.9347 C   0  0  0  0  0  0  0  0  0  0  0  0
   -1.5781    0.1283   -2.1174 S   0  0  0  0  0  0  0  0  0  0  0  0
    1.9103   -1.7549   -3.1665 C   0  0  0  0  0  0  0  0  0  0  0  0
    0.5478   -1.6070   -2.8473 C   0  0  0  0  0  0  0  0  0  0  0  0
   -0.0639   -2.6880   -2.1787 C   0  0  0  0  0  0  0  0  0  0  0  0
    0.7162   -3.7290   -1.6447 C   0  0  0  0  0  0  0  0  0  0  0  0
    2.0731   -3.8253   -1.9347 C   0  0  0  0  0  0  0  0  0  0  0  0
    2.6595   -2.8674   -2.7570 C   0  0  0  0  0  0  0  0  0  0  0  0
    0.0487   -4.7445   -0.4148 Cl  0  0  0  0  0  0  0  0  0  0  0  0
    0.1388    2.1729   -3.8691 C   0  0  0  0  0  0  0  0  0  0  0  0
    1.0377    3.3090   -3.3371 C   0  0  0  0  0  0  0  0  0  0  0  0
    2.3936    3.3981   -4.0098 C   0  0  0  0  0  0  0  0  0  0  0  0
   -2.3550    0.6171    0.0742 H   0  0  0  0  0  0  0  0  0  0  0  0
   -1.1871   -0.8553    1.5489 H   0  0  0  0  0  0  0  0  0  0  0  0
   -1.5988   -1.7601    0.1173 H   0  0  0  0  0  0  0  0  0  0  0  0
    0.8135   -2.1819    0.6762 H   0  0  0  0  0  0  0  0  0  0  0  0
    0.6438   -1.2220   -0.7408 H   0  0  0  0  0  0  0  0  0  0  0  0
    1.6811   -0.0490    1.6516 H   0  0  0  0  0  0  0  0  0  0  0  0
    2.4595   -0.4233    0.1031 H   0  0  0  0  0  0  0  0  0  0  0  0
    1.7003    2.0039    0.3239 H   0  0  0  0  0  0  0  0  0  0  0  0
    1.2423    1.1648   -1.1235 H   0  0  0  0  0  0  0  0  0  0  0  0
   -0.7060    2.4367   -0.2202 H   0  0  0  0  0  0  0  0  0  0  0  0
   -0.5259    1.5695    1.2976 H   0  0  0  0  0  0  0  0  0  0  0  0
    3.4558   -0.9168   -4.2991 H   0  0  0  0  0  0  0  0  0  0  0  0
   -1.0843   -2.5879   -1.8217 H   0  0  0  0  0  0  0  0  0  0  0  0
    2.6776   -4.6160   -1.4964 H   0  0  0  0  0  0  0  0  0  0  0  0
    3.7122   -2.9613   -3.0118 H   0  0  0  0  0  0  0  0  0  0  0  0
   -0.0513    2.3268   -4.9380 H   0  0  0  0  0  0  0  0  0  0  0  0
   -0.8329    2.3388   -3.3903 H   0  0  0  0  0  0  0  0  0  0  0  0
    0.5169    4.2624   -3.5013 H   0  0  0  0  0  0  0  0  0  0  0  0
    1.1761    3.2195   -2.2548 H   0  0  0  0  0  0  0  0  0  0  0  0
    2.2769    3.4135   -5.0989 H   0  0  0  0  0  0  0  0  0  0  0  0
    2.9379    4.2979   -3.7167 H   0  0  0  0  0  0  0  0  0  0  0  0
    3.0211    2.5550   -3.7115 H   0  0  0  0  0  0  0  0  0  0  0  0
  1  2  1  0  0  0  0
  1  6  1  0  0  0  0
  1 12  1  0  0  0  0
  1 23  1  0  0  0  0
  2  3  1  0  0  0  0
  2 24  1  0  0  0  0
  2 25  1  0  0  0  0
  3  4  1  0  0  0  0
  3 26  1  0  0  0  0
  3 27  1  0  0  0  0
  4  5  1  0  0  0  0
  4 28  1  0  0  0  0
  4 29  1  0  0  0  0
  5  6  1  0  0  0  0
  5 30  1  0  0  0  0
  5 31  1  0  0  0  0
  6 32  1  0  0  0  0
  6 33  1  0  0  0  0
  7  8  1  0  0  0  0
  7 13  1  0  0  0  0
  7 34  1  0  0  0  0
  8  9  2  0  0  0  0
  8 10  1  0  0  0  0
 10 11  2  0  0  0  0
 10 20  1  0  0  0  0
 11 12  1  0  0  0  0
 11 14  1  0  0  0  0
 13 14  1  0  0  0  0
 13 18  2  0  0  0  0
 14 15  2  0  0  0  0
 15 16  1  0  0  0  0
 15 35  1  0  0  0  0
 16 17  2  0  0  0  0
 16 19  1  0  0  0  0
 17 18  1  0  0  0  0
 17 36  1  0  0  0  0
 18 37  1  0  0  0  0
 20 21  1  0  0  0  0
 20 38  1  0  0  0  0
 20 39  1  0  0  0  0
 21 22  1  0  0  0  0
 21 40  1  0  0  0  0
 21 41  1  0  0  0  0
 22 42  1  0  0  0  0
 22 43  1  0  0  0  0
 22 44  1  0  0  0  0
M  END
>  <DRUGBANK_ID>
DB07868

>  <COMMON_NAME>
6-CHLORO-4-(CYCLOHEXYLSULFANYL)-3-PROPYLQUINOLIN-2(1H)-ONE

$$$$
