
 OpenBabel10282417173D

 53 56  0  0  0  0  0  0  0  0999 V2000
   -1.1666    1.1713    0.3903 C   0  0  1  0  0  0  0  0  0  0  0  0
   -2.5261    1.8110   -0.1889 C   0  0  0  0  0  0  0  0  0  0  0  0
   -1.0537    1.3923    1.9228 C   0  0  0  0  0  0  0  0  0  0  0  0
   -0.9907   -0.3236    0.1077 C   0  0  0  0  0  0  0  0  0  0  0  0
    0.0375    1.8700   -0.3190 C   0  0  0  0  0  0  0  0  0  0  0  0
   -3.8857    1.3216    0.3888 C   0  0  0  0  0  0  0  0  0  0  0  0
   -2.6587    1.7927   -1.7223 C   0  0  0  0  0  0  0  0  0  0  0  0
   -0.0072    0.7958    2.6478 C   0  0  0  0  0  0  0  0  0  0  0  0
   -1.9160    2.2287    2.6471 C   0  0  0  0  0  0  0  0  0  0  0  0
    0.2085   -0.8427   -0.2627 N   0  0  0  0  0  0  0  0  0  0  0  0
   -1.8403   -1.1607    0.3926 O   0  0  0  0  0  0  0  0  0  0  0  0
    1.4069    1.2674   -0.0130 C   0  0  0  0  0  0  0  0  0  0  0  0
   -4.3805    0.0354   -0.2211 C   0  0  0  0  0  0  0  0  0  0  0  0
   -3.0454    0.4185   -2.2486 C   0  0  0  0  0  0  0  0  0  0  0  0
    0.2594    1.1279    3.9672 C   0  0  0  0  0  0  0  0  0  0  0  0
   -1.6918    2.5188    3.9889 C   0  0  0  0  0  0  0  0  0  0  0  0
    1.4234   -0.2400   -0.1209 C   0  0  0  0  0  0  0  0  0  0  0  0
   -4.3086   -0.0403   -1.6736 N   0  0  0  0  0  0  0  0  0  0  0  0
   -0.5949    1.9796    4.6438 C   0  0  0  0  0  0  0  0  0  0  0  0
    2.4492   -0.9032   -0.0029 O   0  0  0  0  0  0  0  0  0  0  0  0
   -4.6633   -1.3907   -2.1570 C   0  0  0  0  0  0  0  0  0  0  0  0
   -3.7030   -2.5253   -1.8326 C   0  0  0  0  0  0  0  0  0  0  0  0
   -3.5167   -2.9803   -0.5171 C   0  0  0  0  0  0  0  0  0  0  0  0
   -2.9662   -3.1521   -2.8402 C   0  0  0  0  0  0  0  0  0  0  0  0
   -2.5035   -3.8772   -0.1853 C   0  0  0  0  0  0  0  0  0  0  0  0
   -2.0892   -4.1958   -2.5240 C   0  0  0  0  0  0  0  0  0  0  0  0
   -1.8033   -4.5081   -1.1955 C   0  0  0  0  0  0  0  0  0  0  0  0
   -2.4697    2.8790    0.0736 H   0  0  0  0  0  0  0  0  0  0  0  0
   -0.0563    1.7798   -1.4046 H   0  0  0  0  0  0  0  0  0  0  0  0
    0.0401    2.9406   -0.0843 H   0  0  0  0  0  0  0  0  0  0  0  0
   -3.8436    1.1292    1.4642 H   0  0  0  0  0  0  0  0  0  0  0  0
   -4.6494    2.0960    0.2457 H   0  0  0  0  0  0  0  0  0  0  0  0
   -3.4221    2.5249   -2.0184 H   0  0  0  0  0  0  0  0  0  0  0  0
   -1.7525    2.1344   -2.2239 H   0  0  0  0  0  0  0  0  0  0  0  0
    0.6746    0.0802    2.2054 H   0  0  0  0  0  0  0  0  0  0  0  0
   -2.7954    2.6920    2.2127 H   0  0  0  0  0  0  0  0  0  0  0  0
    0.1987   -1.8572   -0.2380 H   0  0  0  0  0  0  0  0  0  0  0  0
    2.1386    1.6488   -0.7286 H   0  0  0  0  0  0  0  0  0  0  0  0
    1.7440    1.5671    0.9815 H   0  0  0  0  0  0  0  0  0  0  0  0
   -3.7705   -0.6955    0.2615 H   0  0  0  0  0  0  0  0  0  0  0  0
   -5.3848   -0.2076    0.1460 H   0  0  0  0  0  0  0  0  0  0  0  0
   -3.1380    0.4890   -3.3383 H   0  0  0  0  0  0  0  0  0  0  0  0
   -2.2265   -0.2814   -2.0669 H   0  0  0  0  0  0  0  0  0  0  0  0
    1.1489    0.7246    4.4406 H   0  0  0  0  0  0  0  0  0  0  0  0
   -2.3668    3.1966    4.5017 H   0  0  0  0  0  0  0  0  0  0  0  0
   -0.4088    2.2177    5.6832 H   0  0  0  0  0  0  0  0  0  0  0  0
   -5.6528   -1.6618   -1.7722 H   0  0  0  0  0  0  0  0  0  0  0  0
   -4.7904   -1.3192   -3.2450 H   0  0  0  0  0  0  0  0  0  0  0  0
   -4.0595   -2.5422    0.3141 H   0  0  0  0  0  0  0  0  0  0  0  0
   -3.0766   -2.8417   -3.8762 H   0  0  0  0  0  0  0  0  0  0  0  0
   -2.2561   -4.0302    0.8629 H   0  0  0  0  0  0  0  0  0  0  0  0
   -1.6207   -4.7661   -3.3189 H   0  0  0  0  0  0  0  0  0  0  0  0
   -1.0469   -5.2437   -0.9442 H   0  0  0  0  0  0  0  0  0  0  0  0
  1  2  1  0  0  0  0
  1  3  1  1  0  0  0
  1  4  1  0  0  0  0
  1  5  1  0  0  0  0
  2  6  1  0  0  0  0
  2  7  1  0  0  0  0
  2 28  1  0  0  0  0
  3  8  1  0  0  0  0
  3  9  2  0  0  0  0
  4 10  1  0  0  0  0
  4 11  2  0  0  0  0
  5 12  1  0  0  0  0
  5 29  1  0  0  0  0
  5 30  1  0  0  0  0
  6 13  1  0  0  0  0
  6 31  1  0  0  0  0
  6 32  1  0  0  0  0
  7 14  1  0  0  0  0
  7 33  1  0  0  0  0
  7 34  1  0  0  0  0
  8 15  2  0  0  0  0
  8 35  1  0  0  0  0
  9 16  1  0  0  0  0
  9 36  1  0  0  0  0
 10 17  1  0  0  0  0
 10 37  1  0  0  0  0
 12 17  1  0  0  0  0
 12 38  1  0  0  0  0
 12 39  1  0  0  0  0
 13 18  1  0  0  0  0
 13 40  1  0  0  0  0
 13 41  1  0  0  0  0
 14 18  1  0  0  0  0
 14 42  1  0  0  0  0
 14 43  1  0  0  0  0
 15 19  1  0  0  0  0
 15 44  1  0  0  0  0
 16 19  2  0  0  0  0
 16 45  1  0  0  0  0
 17 20  2  0  0  0  0
 18 21  1  0  0  0  0
 19 46  1  0  0  0  0
 21 22  1  0  0  0  0
 21 47  1  0  0  0  0
 21 48  1  0  0  0  0
 22 23  2  0  0  0  0
 22 24  1  0  0  0  0
 23 25  1  0  0  0  0
 23 49  1  0  0  0  0
 24 26  2  0  0  0  0
 24 50  1  0  0  0  0
 25 27  2  0  0  0  0
 25 51  1  0  0  0  0
 26 27  1  0  0  0  0
 26 52  1  0  0  0  0
 27 53  1  0  0  0  0
M  END
>  <DRUGBANK_ID>
DB08997

>  <COMMON_NAME>
Dexetimide

>  <CAS_NUMBER>
21888-98-2

>  <UNII>
43477QYX3D

>  <SYNONYMS>
Dexetimida; Dexetimide; Dexetimidum

$$$$
