
 OpenBabel10282417173D

 90 41  0  0  0  0  0  0  0  0999 V2000
    1.0999   -0.0000   -0.0053 Al  0  1  0  0  0  0  0  0  0  0  0  0
    0.9705    0.0909   -0.0293 Al  0  1  0  0  0  0  0  0  0  0  0  0
    0.9217    0.0609    0.0130 Al  0  1  0  0  0  0  0  0  0  0  0  0
    1.0525    0.0850    0.0043 Al  0  1  0  0  0  0  0  0  0  0  0  0
    0.9750    0.0630   -0.0735 Al  0  1  0  0  0  0  0  0  0  0  0  0
    0.9049    0.0256    0.0176 Mg  0  2  0  0  0  0  0  0  0  0  0  0
    1.0865   -0.0352    0.0357 Mg  0  2  0  0  0  0  0  0  0  0  0  0
    1.0737    0.0671   -0.0080 Mg  0  2  0  0  0  0  0  0  0  0  0  0
    0.9543    0.0162    0.0875 Mg  0  2  0  0  0  0  0  0  0  0  0  0
    1.0733    0.0637    0.0239 Mg  0  2  0  0  0  0  0  0  0  0  0  0
    0.9491   -0.0833    0.0218 Mg  0  2  0  0  0  0  0  0  0  0  0  0
    0.9218    0.0614    0.0109 Mg  0  2  0  0  0  0  0  0  0  0  0  0
    0.9395   -0.0404    0.0686 Mg  0  2  0  0  0  0  0  0  0  0  0  0
    0.9409    0.0448    0.0671 Mg  0  2  0  0  0  0  0  0  0  0  0  0
    1.0632    0.0693    0.0347 Mg  0  2  0  0  0  0  0  0  0  0  0  0
    1.0066    0.0075   -0.0995 O   0  5  0  0  0  0  0  0  0  0  0  0
    3.2866    1.5451   -0.5845 O   0  5  0  0  0  0  0  0  0  0  0  0
    3.2267   -0.3046    1.3093 O   0  0  0  0  0  0  0  0  0  0  0  0
    3.2267   -1.0564   -1.0742 O   0  0  0  0  0  0  0  0  0  0  0  0
    2.7166    0.0075   -0.0995 S   0  0  0  0  0  0  0  0  0  0  0  0
    1.0379    0.0219    0.0899 O   0  5  0  0  0  0  0  0  0  0  0  0
    3.3179   -0.5309   -1.4245 O   0  5  0  0  0  0  0  0  0  0  0  0
    3.2580    1.4431    0.3392 O   0  0  0  0  0  0  0  0  0  0  0  0
    3.2580   -0.9046    1.1961 O   0  0  0  0  0  0  0  0  0  0  0  0
    2.7479    0.0219    0.0899 S   0  0  0  0  0  0  0  0  0  0  0  0
    0.9280    0.0578   -0.0384 O   0  5  0  0  0  0  0  0  0  0  0  0
    0.9653   -0.0242   -0.0906 O   0  5  0  0  0  0  0  0  0  0  0  0
    0.9280    0.0693    0.0043 O   0  5  0  0  0  0  0  0  0  0  0  0
    0.9607    0.0697    0.0600 O   0  5  0  0  0  0  0  0  0  0  0  0
    0.9378    0.0413    0.0666 O   0  5  0  0  0  0  0  0  0  0  0  0
    0.9278   -0.0005   -0.0691 O   0  5  0  0  0  0  0  0  0  0  0  0
    1.0145    0.0221    0.0964 O   0  5  0  0  0  0  0  0  0  0  0  0
    1.0612    0.0791   -0.0006 O   0  5  0  0  0  0  0  0  0  0  0  0
    0.9539    0.0835   -0.0299 O   0  5  0  0  0  0  0  0  0  0  0  0
    1.0181    0.0248   -0.0952 O   0  5  0  0  0  0  0  0  0  0  0  0
    0.9829    0.0895   -0.0412 O   0  5  0  0  0  0  0  0  0  0  0  0
    1.0557   -0.0810   -0.0184 O   0  5  0  0  0  0  0  0  0  0  0  0
    1.0729    0.0106    0.0677 O   0  5  0  0  0  0  0  0  0  0  0  0
    1.0324   -0.0456    0.0829 O   0  5  0  0  0  0  0  0  0  0  0  0
    0.9761   -0.0483   -0.0843 O   0  5  0  0  0  0  0  0  0  0  0  0
    1.0744   -0.0319   -0.0588 O   0  5  0  0  0  0  0  0  0  0  0  0
    0.9978   -0.0593   -0.0805 O   0  5  0  0  0  0  0  0  0  0  0  0
    0.9556    0.0629    0.0638 O   0  5  0  0  0  0  0  0  0  0  0  0
    0.9175   -0.0562    0.0067 O   0  5  0  0  0  0  0  0  0  0  0  0
    1.0369   -0.0416    0.0831 O   0  5  0  0  0  0  0  0  0  0  0  0
    1.0234    0.0927   -0.0293 O   0  5  0  0  0  0  0  0  0  0  0  0
    1.0079   -0.0771    0.0632 O   0  5  0  0  0  0  0  0  0  0  0  0
    0.9245    0.0518    0.0403 O   0  5  0  0  0  0  0  0  0  0  0  0
    0.9316    0.0727   -0.0063 O   0  5  0  0  0  0  0  0  0  0  0  0
    1.0414    0.0392   -0.0822 O   0  5  0  0  0  0  0  0  0  0  0  0
    0.9225    0.0632   -0.0004 O   0  5  0  0  0  0  0  0  0  0  0  0
    0.9624   -0.0885   -0.0274 O   0  5  0  0  0  0  0  0  0  0  0  0
    0.9469    0.0638    0.0558 O   0  5  0  0  0  0  0  0  0  0  0  0
    0.9592   -0.0096   -0.0908 O   0  5  0  0  0  0  0  0  0  0  0  0
    1.0447   -0.0443   -0.0777 O   0  5  0  0  0  0  0  0  0  0  0  0
    0.9623    0.0560    0.0738 O   0  5  0  0  0  0  0  0  0  0  0  0
    0.9343    0.0706   -0.0264 O   0  0  0  0  0  0  0  0  0  0  0  0
    1.9280    0.0578   -0.0384 H   0  0  0  0  0  0  0  0  0  0  0  0
    1.9653   -0.0242   -0.0906 H   0  0  0  0  0  0  0  0  0  0  0  0
    1.9280    0.0693    0.0043 H   0  0  0  0  0  0  0  0  0  0  0  0
    1.9607    0.0697    0.0600 H   0  0  0  0  0  0  0  0  0  0  0  0
    1.9378    0.0413    0.0666 H   0  0  0  0  0  0  0  0  0  0  0  0
    1.9278   -0.0005   -0.0691 H   0  0  0  0  0  0  0  0  0  0  0  0
    2.0145    0.0221    0.0964 H   0  0  0  0  0  0  0  0  0  0  0  0
    2.0612    0.0791   -0.0006 H   0  0  0  0  0  0  0  0  0  0  0  0
    1.9539    0.0835   -0.0299 H   0  0  0  0  0  0  0  0  0  0  0  0
    2.0181    0.0248   -0.0952 H   0  0  0  0  0  0  0  0  0  0  0  0
    1.9829    0.0895   -0.0412 H   0  0  0  0  0  0  0  0  0  0  0  0
    2.0557   -0.0810   -0.0184 H   0  0  0  0  0  0  0  0  0  0  0  0
    2.0729    0.0106    0.0677 H   0  0  0  0  0  0  0  0  0  0  0  0
    2.0324   -0.0456    0.0829 H   0  0  0  0  0  0  0  0  0  0  0  0
    1.9761   -0.0483   -0.0843 H   0  0  0  0  0  0  0  0  0  0  0  0
    2.0744   -0.0319   -0.0588 H   0  0  0  0  0  0  0  0  0  0  0  0
    1.9978   -0.0593   -0.0805 H   0  0  0  0  0  0  0  0  0  0  0  0
    1.9556    0.0629    0.0638 H   0  0  0  0  0  0  0  0  0  0  0  0
    1.9175   -0.0562    0.0067 H   0  0  0  0  0  0  0  0  0  0  0  0
    2.0369   -0.0416    0.0831 H   0  0  0  0  0  0  0  0  0  0  0  0
    2.0234    0.0927   -0.0293 H   0  0  0  0  0  0  0  0  0  0  0  0
    2.0079   -0.0771    0.0632 H   0  0  0  0  0  0  0  0  0  0  0  0
    1.9245    0.0518    0.0403 H   0  0  0  0  0  0  0  0  0  0  0  0
    1.9316    0.0727   -0.0063 H   0  0  0  0  0  0  0  0  0  0  0  0
    2.0414    0.0392   -0.0822 H   0  0  0  0  0  0  0  0  0  0  0  0
    1.9225    0.0632   -0.0004 H   0  0  0  0  0  0  0  0  0  0  0  0
    1.9624   -0.0885   -0.0274 H   0  0  0  0  0  0  0  0  0  0  0  0
    1.9469    0.0638    0.0558 H   0  0  0  0  0  0  0  0  0  0  0  0
    1.9592   -0.0096   -0.0908 H   0  0  0  0  0  0  0  0  0  0  0  0
    2.0447   -0.0443   -0.0777 H   0  0  0  0  0  0  0  0  0  0  0  0
    1.9623    0.0560    0.0738 H   0  0  0  0  0  0  0  0  0  0  0  0
    0.6009   -0.1128    0.8984 H   0  0  0  0  0  0  0  0  0  0  0  0
    1.9343    0.0706   -0.0264 H   0  0  0  0  0  0  0  0  0  0  0  0
 20 16  1  0  0  0  0
 20 17  1  0  0  0  0
 20 18  2  0  0  0  0
 20 19  2  0  0  0  0
 25 21  1  0  0  0  0
 25 22  1  0  0  0  0
 25 23  2  0  0  0  0
 25 24  2  0  0  0  0
 26 58  1  0  0  0  0
 27 59  1  0  0  0  0
 28 60  1  0  0  0  0
 29 61  1  0  0  0  0
 30 62  1  0  0  0  0
 31 63  1  0  0  0  0
 32 64  1  0  0  0  0
 33 65  1  0  0  0  0
 34 66  1  0  0  0  0
 35 67  1  0  0  0  0
 36 68  1  0  0  0  0
 37 69  1  0  0  0  0
 38 70  1  0  0  0  0
 39 71  1  0  0  0  0
 40 72  1  0  0  0  0
 41 73  1  0  0  0  0
 42 74  1  0  0  0  0
 43 75  1  0  0  0  0
 44 76  1  0  0  0  0
 45 77  1  0  0  0  0
 46 78  1  0  0  0  0
 47 79  1  0  0  0  0
 48 80  1  0  0  0  0
 49 81  1  0  0  0  0
 50 82  1  0  0  0  0
 51 83  1  0  0  0  0
 52 84  1  0  0  0  0
 53 85  1  0  0  0  0
 54 86  1  0  0  0  0
 55 87  1  0  0  0  0
 56 88  1  0  0  0  0
 57 89  1  0  0  0  0
 57 90  1  0  0  0  0
M  CHG  8   1   3   2   3   3   3   4   3   5   3   6   2   7   2   8   2
M  CHG  8   9   2  10   2  11   2  12   2  13   2  14   2  15   2  16  -1
M  CHG  8  17  -1  21  -1  22  -1  26  -1  27  -1  28  -1  29  -1  30  -1
M  CHG  8  31  -1  32  -1  33  -1  34  -1  35  -1  36  -1  37  -1  38  -1
M  CHG  8  39  -1  40  -1  41  -1  42  -1  43  -1  44  -1  45  -1  46  -1
M  CHG  8  47  -1  48  -1  49  -1  50  -1  51  -1  52  -1  53  -1  54  -1
M  CHG  2  55  -1  56  -1
M  END
>  <DRUGBANK_ID>
DB08938

>  <COMMON_NAME>
Magaldrate

>  <CAS_NUMBER>
74978-16-8

>  <UNII>
6V88E24N5T

>  <SYNONYMS>
Aluminium magnesium hydroxide sulfate hydrate; Aluminum magnesium hydroxide sulfate hydrate; Aluminum magnesium hydroxide sulphate hydrate; Hydrate magnesium aluminate activated sulfate; Magaldrate; Magaldrato; Magaldratum; Magnesium aluminate hydrate; Monalium hydrate

$$$$
