
 OpenBabel10282417103D

 48 51  0  0  0  0  0  0  0  0999 V2000
    4.0711    7.2570    3.2013 C   0  0  0  0  0  0  0  0  0  0  0  0
    4.2060    8.4571    2.5000 C   0  0  0  0  0  0  0  0  0  0  0  0
    3.7753    8.5296    1.1898 C   0  0  0  0  0  0  0  0  0  0  0  0
    3.2017    7.4012    0.6107 C   0  0  0  0  0  0  0  0  0  0  0  0
    3.0479    6.1686    1.2972 C   0  0  0  0  0  0  0  0  0  0  0  0
    3.5148    6.1218    2.6344 C   0  0  0  0  0  0  0  0  0  0  0  0
    3.4553    5.0328    3.4134 N   0  0  0  0  0  0  0  0  0  0  0  0
    2.4691    4.9767    0.7634 C   0  0  0  0  0  0  0  0  0  0  0  0
    2.3778    3.8660    1.6303 C   0  0  0  0  0  0  0  0  0  0  0  0
    2.8987    3.9285    2.9036 C   0  0  0  0  0  0  0  0  0  0  0  0
    3.3789    2.8161   -1.1985 C   0  0  0  0  0  0  0  0  0  0  0  0
    1.0925    1.6234   -2.5602 C   0  0  0  0  0  0  0  0  0  0  0  0
    2.4539    0.8573   -2.4669 C   0  0  2  0  0  0  0  0  0  0  0  0
    3.3936    2.8017   -3.7040 C   0  0  0  0  0  0  0  0  0  0  0  0
    2.2061   -0.2214   -1.4393 C   0  0  0  0  0  0  0  0  0  0  0  0
    3.5838    1.9320   -2.4207 C   0  0  1  0  0  0  0  0  0  0  0  0
    1.2369    3.1010   -2.5136 N   0  0  2  0  0  0  0  0  0  0  0  0
    1.9982    3.4487   -3.7197 C   0  0  0  0  0  0  0  0  0  0  0  0
    3.0244   -0.8513   -0.5855 C   0  0  0  0  0  0  0  0  0  0  0  0
    1.9470    3.3994   -1.2253 C   0  0  2  0  0  0  0  0  0  0  0  0
    1.9079    4.8569   -0.6700 C   0  0  2  0  0  0  0  0  0  0  0  0
    2.6228    5.6776   -1.5903 O   0  0  0  0  0  0  0  0  0  0  0  0
    3.8442    9.6127    0.3608 O   0  0  0  0  0  0  0  0  0  0  0  0
    1.3495    2.8369   -0.5018 H   0  0  0  0  0  0  0  0  0  0  0  0
    4.4258   10.7851    0.9086 C   0  0  0  0  0  0  0  0  0  0  0  0
    4.4146    7.2062    4.2315 H   0  0  0  0  0  0  0  0  0  0  0  0
    4.6518    9.3030    3.0083 H   0  0  0  0  0  0  0  0  0  0  0  0
    2.8934    7.5342   -0.4146 H   0  0  0  0  0  0  0  0  0  0  0  0
    1.9366    2.9181    1.3460 H   0  0  0  0  0  0  0  0  0  0  0  0
    2.8772    3.0589    3.5547 H   0  0  0  0  0  0  0  0  0  0  0  0
    4.1496    3.5969   -1.1429 H   0  0  0  0  0  0  0  0  0  0  0  0
    3.5043    2.2013   -0.2984 H   0  0  0  0  0  0  0  0  0  0  0  0
    0.5732    1.3020   -3.4694 H   0  0  0  0  0  0  0  0  0  0  0  0
    0.4154    1.3591   -1.7386 H   0  0  0  0  0  0  0  0  0  0  0  0
    2.6386    0.3079   -3.3996 H   0  0  0  0  0  0  0  0  0  0  0  0
    4.1527    3.5868   -3.7944 H   0  0  0  0  0  0  0  0  0  0  0  0
    3.5044    2.1533   -4.5836 H   0  0  0  0  0  0  0  0  0  0  0  0
    1.1731   -0.5772   -1.4200 H   0  0  0  0  0  0  0  0  0  0  0  0
    4.5946    1.5087   -2.4051 H   0  0  0  0  0  0  0  0  0  0  0  0
    2.0475    4.5267   -3.9078 H   0  0  0  0  0  0  0  0  0  0  0  0
    1.4167    3.0693   -4.5760 H   0  0  0  0  0  0  0  0  0  0  0  0
    2.5992   -1.6208    0.0565 H   0  0  0  0  0  0  0  0  0  0  0  0
    4.0833   -0.6599   -0.5389 H   0  0  0  0  0  0  0  0  0  0  0  0
    0.8624    5.1920   -0.6411 H   0  0  0  0  0  0  0  0  0  0  0  0
    2.0524    6.4492   -1.7444 H   0  0  0  0  0  0  0  0  0  0  0  0
    3.8336   11.1489    1.7538 H   0  0  0  0  0  0  0  0  0  0  0  0
    5.4663   10.6055    1.1967 H   0  0  0  0  0  0  0  0  0  0  0  0
    4.4191   11.5579    0.1346 H   0  0  0  0  0  0  0  0  0  0  0  0
  1  2  1  0  0  0  0
  1  6  2  0  0  0  0
  1 26  1  0  0  0  0
  2 27  1  0  0  0  0
  3 23  1  0  0  0  0
  3  2  2  0  0  0  0
  4  3  1  0  0  0  0
  4 28  1  0  0  0  0
  5  4  2  0  0  0  0
  6  5  1  0  0  0  0
  6  7  1  0  0  0  0
  7 10  2  0  0  0  0
  8  5  1  0  0  0  0
  8  9  2  0  0  0  0
  9 29  1  0  0  0  0
 10  9  1  0  0  0  0
 10 30  1  0  0  0  0
 11 20  1  0  0  0  0
 11 31  1  0  0  0  0
 11 32  1  0  0  0  0
 12 13  1  0  0  0  0
 12 33  1  0  0  0  0
 12 34  1  0  0  0  0
 13 35  1  6  0  0  0
 13 15  1  0  0  0  0
 14 18  1  0  0  0  0
 14 36  1  0  0  0  0
 14 37  1  0  0  0  0
 15 19  2  0  0  0  0
 15 38  1  0  0  0  0
 16 11  1  0  0  0  0
 16 13  1  0  0  0  0
 16 14  1  0  0  0  0
 16 39  1  1  0  0  0
 17 18  1  6  0  0  0
 17 12  1  0  0  0  0
 18 40  1  0  0  0  0
 18 41  1  0  0  0  0
 19 42  1  0  0  0  0
 19 43  1  0  0  0  0
 20 17  1  0  0  0  0
 20 21  1  0  0  0  0
 20 24  1  1  0  0  0
 21 44  1  1  0  0  0
 21 22  1  0  0  0  0
 21  8  1  0  0  0  0
 22 45  1  0  0  0  0
 23 25  1  0  0  0  0
 25 46  1  0  0  0  0
 25 47  1  0  0  0  0
 25 48  1  0  0  0  0
M  END
>  <DRUGBANK_ID>
DB00468

>  <SECONDARY_ACCESSION_NUMBERS>
APRD00563

>  <COMMON_NAME>
Quinine

>  <CAS_NUMBER>
130-95-0

>  <UNII>
A7V27PHC7A

>  <SYNONYMS>
(-)-Quinine; (−)-quinine; (8S,9R)-quinine; (R)-(−)-quinine; (R)-(6-methoxyquinolin-4-yl)((2S,4S,8R)-8-vinylquinuclidin-2-yl)methanol; 6'-Methoxycinchonidine; Chinin; Chinine; Chininum; Quinina; Quinine

$$$$
