[NO NAME]
 OpenBabel10282417153D
Created with ChemWriter - http://chemwriter.com
 52 55  0  0  1  0  0  0  0  0999 V2000
   -1.3991   10.5656   -2.9702 C   0  0  0  0  0  0  0  0  0  0  0  0
    0.2621    7.3380    0.2557 C   0  0  0  0  0  0  0  0  0  0  0  0
   -2.0426   10.5840   -0.5454 C   0  0  0  0  0  0  0  0  0  0  0  0
   -1.4985   12.0711   -2.8711 C   0  0  0  0  0  0  0  0  0  0  0  0
   -2.3747    9.1418   -1.4086 C   0  0  0  0  0  0  0  0  0  0  0  0
   -3.2562    6.2722   -1.1853 C   0  0  0  0  0  0  0  0  0  0  0  0
   -2.3451    5.3977   -2.8417 C   0  0  0  0  0  0  0  0  0  0  0  0
   -0.2274    8.4254   -0.7704 C   0  0  2  0  0  0  0  0  0  0  0  0
    0.6788    8.2069   -1.3515 H   0  0  0  0  0  0  0  0  0  0  0  0
   -1.6558    8.0986   -0.6781 C   0  0  1  0  0  0  0  0  0  0  0  0
   -2.0354    8.0516    0.3338 H   0  0  0  0  0  0  0  0  0  0  0  0
   -0.3579   11.3236   -0.9754 C   0  0  1  0  0  0  0  0  0  0  0  0
    1.1341   11.3012   -0.3507 C   0  0  0  0  0  0  0  0  0  0  0  0
   -0.2401    9.9415   -1.5159 C   0  0  1  0  0  0  0  0  0  0  0  0
   -0.3273    9.9443   -0.3752 H   0  0  0  0  0  0  0  0  0  0  0  0
   -1.8348    6.9217   -1.6187 C   0  0  1  0  0  0  0  0  0  0  0  0
   -0.6767    7.0558   -2.8976 C   0  0  0  0  0  0  0  0  0  0  0  0
   -3.2578    4.4864   -1.6044 C   0  0  0  0  0  0  0  0  0  0  0  0
   -1.9368    4.0872   -2.7591 C   0  0  0  0  0  0  0  0  0  0  0  0
   -1.2663    4.1866   -3.8121 O   0  0  0  0  0  0  0  0  0  0  0  0
   -1.2377    5.7878   -1.8407 C   0  0  0  0  0  0  0  0  0  0  0  0
   -0.0457    5.7202   -0.5261 C   0  0  0  0  0  0  0  0  0  0  0  0
   -0.1507   12.1292   -2.3002 C   0  0  2  0  0  0  0  0  0  0  0  0
    0.4298   13.4679   -2.6073 C   0  0  0  0  0  0  0  0  0  0  0  0
    0.8165   11.3494   -3.1199 O   0  0  0  0  0  0  0  0  0  0  0  0
   -2.5107   10.5829   -2.9935 H   0  0  0  0  0  0  0  0  0  0  0  0
   -1.4657    9.8601   -3.8211 H   0  0  0  0  0  0  0  0  0  0  0  0
    1.1545    7.8567    0.6558 H   0  0  0  0  0  0  0  0  0  0  0  0
    0.0564    7.0281    1.3062 H   0  0  0  0  0  0  0  0  0  0  0  0
   -2.3840   11.5995   -0.6909 H   0  0  0  0  0  0  0  0  0  0  0  0
   -3.1465   10.6574   -0.6221 H   0  0  0  0  0  0  0  0  0  0  0  0
   -1.7195   12.8787   -3.5745 H   0  0  0  0  0  0  0  0  0  0  0  0
   -2.3647   12.3291   -2.2234 H   0  0  0  0  0  0  0  0  0  0  0  0
   -3.3339    9.0725   -1.9497 H   0  0  0  0  0  0  0  0  0  0  0  0
   -1.8603    8.8850   -2.3497 H   0  0  0  0  0  0  0  0  0  0  0  0
   -3.9605    6.8905   -1.7717 H   0  0  0  0  0  0  0  0  0  0  0  0
   -3.6407    6.3389   -0.1516 H   0  0  0  0  0  0  0  0  0  0  0  0
   -2.9757    4.9417   -3.7410 H   0  0  0  0  0  0  0  0  0  0  0  0
    1.6518   12.2319   -0.6023 H   0  0  0  0  0  0  0  0  0  0  0  0
    1.2482   11.1139    0.7105 H   0  0  0  0  0  0  0  0  0  0  0  0
    1.7651   10.5311   -0.8635 H   0  0  0  0  0  0  0  0  0  0  0  0
   -1.2246    7.3246   -3.7842 H   0  0  0  0  0  0  0  0  0  0  0  0
    0.1617    7.7005   -2.8085 H   0  0  0  0  0  0  0  0  0  0  0  0
    0.0174    6.1588   -3.0956 H   0  0  0  0  0  0  0  0  0  0  0  0
   -4.2836    4.3806   -1.9585 H   0  0  0  0  0  0  0  0  0  0  0  0
   -3.0198    3.8632   -0.7424 H   0  0  0  0  0  0  0  0  0  0  0  0
    0.9807    5.6790   -1.0174 H   0  0  0  0  0  0  0  0  0  0  0  0
   -0.1004    4.9481    0.1881 H   0  0  0  0  0  0  0  0  0  0  0  0
   -0.1216   14.2995   -2.1924 H   0  0  0  0  0  0  0  0  0  0  0  0
    1.4982   13.5032   -2.3884 H   0  0  0  0  0  0  0  0  0  0  0  0
    0.3883   13.5317   -3.7155 H   0  0  0  0  0  0  0  0  0  0  0  0
    1.6738   11.3825   -2.6595 H   0  0  0  0  0  0  0  0  0  0  0  0
  1 26  1  0  0  0  0
  1 27  1  0  0  0  0
  2 22  1  0  0  0  0
  2 28  1  0  0  0  0
  2 29  1  0  0  0  0
  3  5  1  0  0  0  0
  3 30  1  0  0  0  0
  3 31  1  0  0  0  0
  4  1  1  0  0  0  0
  4 32  1  0  0  0  0
  4 33  1  0  0  0  0
  5 34  1  0  0  0  0
  5 35  1  0  0  0  0
  6 18  1  0  0  0  0
  6 36  1  0  0  0  0
  6 37  1  0  0  0  0
  7 19  1  0  0  0  0
  7 38  1  0  0  0  0
  8 10  1  0  0  0  0
  8  2  1  0  0  0  0
  8  9  1  1  0  0  0
 10 16  1  0  0  0  0
 10  5  1  0  0  0  0
 10 11  1  6  0  0  0
 12 23  1  0  0  0  0
 12  3  1  0  0  0  0
 12 13  1  1  0  0  0
 13 39  1  0  0  0  0
 13 40  1  0  0  0  0
 13 41  1  0  0  0  0
 14  8  1  0  0  0  0
 14 12  1  0  0  0  0
 14  1  1  0  0  0  0
 14 15  1  1  0  0  0
 16 21  1  0  0  0  0
 16  6  1  0  0  0  0
 16 17  1  1  0  0  0
 17 42  1  0  0  0  0
 17 43  1  0  0  0  0
 17 44  1  0  0  0  0
 18 19  1  0  0  0  0
 18 45  1  0  0  0  0
 18 46  1  0  0  0  0
 19 20  2  0  0  0  0
 21  7  2  0  0  0  0
 22 21  1  0  0  0  0
 22 47  1  0  0  0  0
 22 48  1  0  0  0  0
 23  4  1  0  0  0  0
 23 24  1  0  0  0  0
 23 25  1  6  0  0  0
 24 49  1  0  0  0  0
 24 50  1  0  0  0  0
 24 51  1  0  0  0  0
 25 52  1  0  0  0  0
M  END
>  <DRUGBANK_ID>
DB06710

>  <COMMON_NAME>
Methyltestosterone

>  <CAS_NUMBER>
58-18-4

>  <UNII>
V9EFU16ZIF

>  <SYNONYMS>
17-beta-Hydroxy-17-methylandrost-4-en-3-one; 17-methyltestosterone; 17alpha-Methyl-3-oxo-4-androsten-17beta-ol; 17alpha-Methyltestosterone; 17beta-Hydroxy-17-methylandrost-4-en-3-one; 17α-methyl-Δ4-androsten-17β-ol-3-one; 17α-methyltestosterone; 4-Androstene-17alpha-methyl-17beta-ol-3-one; Methyltestosterone; Methyltestosteronum; Metiltestosterona

$$$$
