S13
 OpenBabel10282417173D

 43 45  0  0  0  0  0  0  0  0999 V2000
   -1.0420    1.2026    0.1304 C   0  0  0  0  0  0  0  0  0  0  0  0
    0.3472    1.2022    0.0477 C   0  0  0  0  0  0  0  0  0  0  0  0
    1.0421   -0.0066    0.0172 C   0  0  0  0  0  0  0  0  0  0  0  0
    2.5388   -0.0122   -0.0208 C   0  0  0  0  0  0  0  0  0  0  0  0
    0.3419   -1.2169    0.0292 C   0  0  0  0  0  0  0  0  0  0  0  0
   -1.0509   -1.2172    0.0942 C   0  0  0  0  0  0  0  0  0  0  0  0
   -1.7470   -0.0069    0.1702 C   0  0  0  0  0  0  0  0  0  0  0  0
   -3.2523   -0.0248    0.1411 C   0  0  2  0  0  0  0  0  0  0  0  0
   -3.7039    0.5676   -1.1611 C   0  0  0  0  0  0  0  0  0  0  0  0
   -3.9185    0.7115    1.2037 N   0  0  0  0  0  0  0  0  0  0  0  0
   -4.3538    1.9695    0.5967 O   0  0  0  0  0  0  0  0  0  0  0  0
   -4.5624    1.7719   -0.8305 C   0  0  2  0  0  0  0  0  0  0  0  0
   -5.9438    1.4793   -1.1119 O   0  0  0  0  0  0  0  0  0  0  0  0
   -6.3083    1.4702   -2.5070 C   0  0  2  0  0  0  0  0  0  0  0  0
   -5.7422    0.2715   -3.3015 C   0  0  0  0  0  0  0  0  0  0  0  0
   -6.1873    0.2449   -4.6476 O   0  0  0  0  0  0  0  0  0  0  0  0
   -5.9784    2.8072   -3.1978 C   0  0  1  0  0  0  0  0  0  0  0  0
   -6.8036    3.8661   -2.6999 O   0  0  0  0  0  0  0  0  0  0  0  0
   -4.4964    3.1738   -2.9942 C   0  0  2  0  0  0  0  0  0  0  0  0
   -3.6276    2.3217   -3.7491 O   0  0  0  0  0  0  0  0  0  0  0  0
   -4.1103    3.1055   -1.5060 C   0  0  1  0  0  0  0  0  0  0  0  0
   -4.6627    4.2543   -0.8309 O   0  0  0  0  0  0  0  0  0  0  0  0
   -3.5981   -1.0653    0.2008 H   0  0  0  0  0  0  0  0  0  0  0  0
   -7.3995    1.3559   -2.5082 H   0  0  0  0  0  0  0  0  0  0  0  0
   -6.2010    2.7297   -4.2671 H   0  0  0  0  0  0  0  0  0  0  0  0
   -4.3334    4.1935   -3.3607 H   0  0  0  0  0  0  0  0  0  0  0  0
   -3.0254    3.2107   -1.4017 H   0  0  0  0  0  0  0  0  0  0  0  0
   -1.5653    2.1532    0.1259 H   0  0  0  0  0  0  0  0  0  0  0  0
    0.8701    2.1525    0.0045 H   0  0  0  0  0  0  0  0  0  0  0  0
    2.9247   -0.5359    0.8587 H   0  0  0  0  0  0  0  0  0  0  0  0
    2.8904   -0.5062   -0.9304 H   0  0  0  0  0  0  0  0  0  0  0  0
    2.9367    1.0072   -0.0081 H   0  0  0  0  0  0  0  0  0  0  0  0
    0.8692   -2.1647   -0.0157 H   0  0  0  0  0  0  0  0  0  0  0  0
   -1.5834   -2.1649    0.0640 H   0  0  0  0  0  0  0  0  0  0  0  0
   -4.2512   -0.2482   -1.6191 H   0  0  0  0  0  0  0  0  0  0  0  0
   -2.8851    0.8371   -1.8366 H   0  0  0  0  0  0  0  0  0  0  0  0
   -3.2216    1.0085    1.8895 H   0  0  0  0  0  0  0  0  0  0  0  0
   -4.6582    0.3058   -3.3837 H   0  0  0  0  0  0  0  0  0  0  0  0
   -5.9888   -0.6745   -2.8044 H   0  0  0  0  0  0  0  0  0  0  0  0
   -7.1147   -0.0396   -4.6402 H   0  0  0  0  0  0  0  0  0  0  0  0
   -7.7262    3.5661   -2.6633 H   0  0  0  0  0  0  0  0  0  0  0  0
   -3.9539    2.2857   -4.6679 H   0  0  0  0  0  0  0  0  0  0  0  0
   -4.8202    3.9981    0.0965 H   0  0  0  0  0  0  0  0  0  0  0  0
  1  7  2  0  0  0  0
  1  2  1  0  0  0  0
  1 28  1  0  0  0  0
  2  3  2  0  0  0  0
  2 29  1  0  0  0  0
  3  5  1  0  0  0  0
  3  4  1  0  0  0  0
  4 30  1  0  0  0  0
  4 31  1  0  0  0  0
  4 32  1  0  0  0  0
  5 33  1  0  0  0  0
  6  5  2  0  0  0  0
  6 34  1  0  0  0  0
  7  6  1  0  0  0  0
  8  7  1  0  0  0  0
  8 23  1  1  0  0  0
  9  8  1  0  0  0  0
  9 35  1  0  0  0  0
  9 36  1  0  0  0  0
 10  8  1  0  0  0  0
 10 37  1  0  0  0  0
 11 10  1  0  0  0  0
 12 13  1  6  0  0  0
 12 11  1  0  0  0  0
 12  9  1  0  0  0  0
 14 13  1  0  0  0  0
 14 24  1  6  0  0  0
 14 15  1  0  0  0  0
 15 38  1  0  0  0  0
 15 39  1  0  0  0  0
 16 15  1  0  0  0  0
 16 40  1  0  0  0  0
 17 14  1  0  0  0  0
 17 25  1  6  0  0  0
 17 18  1  0  0  0  0
 18 41  1  0  0  0  0
 19 17  1  0  0  0  0
 19 21  1  0  0  0  0
 19 20  1  0  0  0  0
 19 26  1  6  0  0  0
 20 42  1  0  0  0  0
 21 12  1  0  0  0  0
 21 22  1  0  0  0  0
 21 27  1  1  0  0  0
 22 43  1  0  0  0  0
M  END
>  <DRUGBANK_ID>
DB08503

>  <COMMON_NAME>
(3S,5R,7R,8S,9S,10R)-7-(hydroxymethyl)-3-(4-methylphenyl)-1,6-dioxa-2-azaspiro[4.5]decane-8,9,10-triol

$$$$
