
 OpenBabel10282417213D

 39 41  0  0  0  0  0  0  0  0999 V2000
    1.0655    0.0687    0.0427 C   0  0  0  0  0  0  0  0  0  0  0  0
    0.8749   -0.3529    1.4169 N   0  0  0  0  0  0  0  0  0  0  0  0
    0.3955    0.4922    2.3904 C   0  0  0  0  0  0  0  0  0  0  0  0
    0.2757    0.0671    3.6751 C   0  0  0  0  0  0  0  0  0  0  0  0
    0.6593   -1.2351    4.1313 C   0  0  0  0  0  0  0  0  0  0  0  0
    0.4461   -1.6430    5.2543 O   0  0  0  0  0  0  0  0  0  0  0  0
    1.1982   -2.0396    3.1193 N   0  0  0  0  0  0  0  0  0  0  0  0
    1.2711   -1.6571    1.7588 C   0  0  0  0  0  0  0  0  0  0  0  0
    1.5898   -2.4553    0.8714 O   0  0  0  0  0  0  0  0  0  0  0  0
    1.4032   -3.4510    3.5031 C   0  0  0  0  0  0  0  0  0  0  0  0
   -0.4526    1.0455    4.2948 N   0  0  0  0  0  0  0  0  0  0  0  0
   -0.5052    2.1108    3.4323 C   0  0  0  0  0  0  0  0  0  0  0  0
   -0.0355    1.7809    2.2417 N   0  0  0  0  0  0  0  0  0  0  0  0
   -1.1093    0.9137    5.5761 C   0  0  0  0  0  0  0  0  0  0  0  0
   -2.3697    0.0008    5.5718 C   0  0  0  0  0  0  0  0  0  0  0  0
   -2.2196   -1.3924    5.0881 O   0  0  0  0  0  0  0  0  0  0  0  0
   -2.2408   -1.6463    3.7313 C   0  0  0  0  0  0  0  0  0  0  0  0
   -2.3977   -0.7657    2.8927 O   0  0  0  0  0  0  0  0  0  0  0  0
   -1.9484   -3.0791    3.3167 C   0  0  0  0  0  0  0  0  0  0  0  0
   -2.4227   -4.1490    4.0498 C   0  0  0  0  0  0  0  0  0  0  0  0
   -2.0555   -5.4723    3.7161 C   0  0  0  0  0  0  0  0  0  0  0  0
   -1.1557   -5.7162    2.6926 C   0  0  0  0  0  0  0  0  0  0  0  0
   -0.7634   -4.7301    1.8833 N   0  0  0  0  0  0  0  0  0  0  0  0
   -1.2041   -3.4589    2.1893 C   0  0  0  0  0  0  0  0  0  0  0  0
    0.6594    1.0621   -0.1706 H   0  0  0  0  0  0  0  0  0  0  0  0
    0.6316   -0.6540   -0.6602 H   0  0  0  0  0  0  0  0  0  0  0  0
    2.1468    0.0755   -0.1150 H   0  0  0  0  0  0  0  0  0  0  0  0
    2.0644   -3.5546    4.3643 H   0  0  0  0  0  0  0  0  0  0  0  0
    0.4754   -3.8671    3.9087 H   0  0  0  0  0  0  0  0  0  0  0  0
    1.7210   -4.0829    2.6691 H   0  0  0  0  0  0  0  0  0  0  0  0
   -0.9068    3.0823    3.7028 H   0  0  0  0  0  0  0  0  0  0  0  0
   -0.3515    0.5603    6.2844 H   0  0  0  0  0  0  0  0  0  0  0  0
   -1.3845    1.9273    5.9088 H   0  0  0  0  0  0  0  0  0  0  0  0
   -2.6982   -0.0602    6.6232 H   0  0  0  0  0  0  0  0  0  0  0  0
   -3.1928    0.4839    5.0344 H   0  0  0  0  0  0  0  0  0  0  0  0
   -3.0941   -3.9525    4.8743 H   0  0  0  0  0  0  0  0  0  0  0  0
   -2.4805   -6.3088    4.2523 H   0  0  0  0  0  0  0  0  0  0  0  0
   -0.7141   -6.6954    2.5036 H   0  0  0  0  0  0  0  0  0  0  0  0
   -0.7513   -2.7499    1.5143 H   0  0  0  0  0  0  0  0  0  0  0  0
  1  2  1  0  0  0  0
  1 25  1  0  0  0  0
  1 26  1  0  0  0  0
  1 27  1  0  0  0  0
  2  3  1  0  0  0  0
  2  8  1  0  0  0  0
  3  4  2  0  0  0  0
  3 13  1  0  0  0  0
  4  5  1  0  0  0  0
  4 11  1  0  0  0  0
  5  6  2  0  0  0  0
  5  7  1  0  0  0  0
  7  8  1  0  0  0  0
  7 10  1  0  0  0  0
  8  9  2  0  0  0  0
 10 28  1  0  0  0  0
 10 29  1  0  0  0  0
 10 30  1  0  0  0  0
 11 12  1  0  0  0  0
 11 14  1  0  0  0  0
 12 13  2  0  0  0  0
 12 31  1  0  0  0  0
 14 15  1  0  0  0  0
 14 32  1  0  0  0  0
 14 33  1  0  0  0  0
 15 16  1  0  0  0  0
 15 34  1  0  0  0  0
 15 35  1  0  0  0  0
 16 17  1  0  0  0  0
 17 18  2  0  0  0  0
 17 19  1  0  0  0  0
 19 20  2  0  0  0  0
 19 24  1  0  0  0  0
 20 21  1  0  0  0  0
 20 36  1  0  0  0  0
 21 22  2  0  0  0  0
 21 37  1  0  0  0  0
 22 23  1  0  0  0  0
 22 38  1  0  0  0  0
 23 24  2  0  0  0  0
 24 39  1  0  0  0  0
M  END
>  <DRUGBANK_ID>
DB13842

>  <COMMON_NAME>
Etofylline nicotinate

>  <CAS_NUMBER>
13425-39-3

>  <UNII>
SN6D1V68DL

$$$$
