
 OpenBabel10282417183D

 33 34  0  0  0  0  0  0  0  0999 V2000
    1.0391   -0.0877   -0.0190 C   0  0  0  0  0  0  0  0  0  0  0  0
    0.5698   -0.4313    1.2895 O   0  0  0  0  0  0  0  0  0  0  0  0
    0.9244   -1.7024    1.6736 C   0  0  0  0  0  0  0  0  0  0  0  0
    2.2597   -2.1199    1.6109 C   0  0  0  0  0  0  0  0  0  0  0  0
    2.6170   -3.4065    2.0102 C   0  0  0  0  0  0  0  0  0  0  0  0
    1.6406   -4.2774    2.4793 C   0  0  0  0  0  0  0  0  0  0  0  0
    0.3110   -3.8632    2.5774 C   0  0  0  0  0  0  0  0  0  0  0  0
   -0.0632   -2.5533    2.2146 C   0  0  0  0  0  0  0  0  0  0  0  0
   -1.4709   -2.1080    2.4102 C   0  0  0  0  0  0  0  0  0  0  0  0
   -2.1544   -1.7528    1.3099 C   0  0  0  0  0  0  0  0  0  0  0  0
   -3.5399   -1.2930    1.4191 C   0  0  0  0  0  0  0  0  0  0  0  0
   -4.1751   -0.9268    0.4343 O   0  0  0  0  0  0  0  0  0  0  0  0
   -4.0677   -1.3202    2.6688 N   0  0  0  0  0  0  0  0  0  0  0  0
   -3.4353   -1.7304    3.8098 C   0  0  0  0  0  0  0  0  0  0  0  0
   -4.3862   -1.7441    5.1909 S   0  0  0  0  0  0  0  0  0  0  0  0
   -2.0754   -2.0723    3.6798 N   0  0  0  0  0  0  0  0  0  0  0  0
   -1.3318   -2.4729    4.8972 C   0  0  0  0  0  0  0  0  0  0  0  0
   -1.2106   -1.3293    5.9023 C   0  0  0  0  0  0  0  0  0  0  0  0
   -1.5146   -1.4426    7.0859 O   0  0  0  0  0  0  0  0  0  0  0  0
   -0.6414   -0.1774    5.4431 N   0  0  0  0  0  0  0  0  0  0  0  0
    2.0847   -5.8649    2.9699 Cl  0  0  0  0  0  0  0  0  0  0  0  0
    0.6479    0.9033   -0.2674 H   0  0  0  0  0  0  0  0  0  0  0  0
    0.6697   -0.7968   -0.7690 H   0  0  0  0  0  0  0  0  0  0  0  0
    2.1304   -0.0230   -0.0599 H   0  0  0  0  0  0  0  0  0  0  0  0
    3.0418   -1.4445    1.2769 H   0  0  0  0  0  0  0  0  0  0  0  0
    3.6572   -3.7176    1.9548 H   0  0  0  0  0  0  0  0  0  0  0  0
   -0.4281   -4.5530    2.9818 H   0  0  0  0  0  0  0  0  0  0  0  0
   -1.7424   -1.7608    0.3085 H   0  0  0  0  0  0  0  0  0  0  0  0
   -5.0298   -1.0254    2.7632 H   0  0  0  0  0  0  0  0  0  0  0  0
   -1.8404   -3.3299    5.3509 H   0  0  0  0  0  0  0  0  0  0  0  0
   -0.3050   -2.7773    4.6918 H   0  0  0  0  0  0  0  0  0  0  0  0
   -0.3223   -0.0535    4.4915 H   0  0  0  0  0  0  0  0  0  0  0  0
   -0.5890    0.5984    6.0899 H   0  0  0  0  0  0  0  0  0  0  0  0
  1  2  1  0  0  0  0
  1 22  1  0  0  0  0
  1 23  1  0  0  0  0
  1 24  1  0  0  0  0
  2  3  1  0  0  0  0
  3  4  2  0  0  0  0
  3  8  1  0  0  0  0
  4  5  1  0  0  0  0
  4 25  1  0  0  0  0
  5  6  2  0  0  0  0
  5 26  1  0  0  0  0
  6  7  1  0  0  0  0
  6 21  1  0  0  0  0
  7  8  2  0  0  0  0
  7 27  1  0  0  0  0
  8  9  1  0  0  0  0
  9 10  2  0  0  0  0
  9 16  1  0  0  0  0
 10 11  1  0  0  0  0
 10 28  1  0  0  0  0
 11 12  2  0  0  0  0
 11 13  1  0  0  0  0
 13 14  1  0  0  0  0
 13 29  1  0  0  0  0
 14 15  2  0  0  0  0
 14 16  1  0  0  0  0
 16 17  1  0  0  0  0
 17 18  1  0  0  0  0
 17 30  1  0  0  0  0
 17 31  1  0  0  0  0
 18 19  2  0  0  0  0
 18 20  1  0  0  0  0
 20 32  1  0  0  0  0
 20 33  1  0  0  0  0
M  END
>  <DRUGBANK_ID>
DB11683

>  <COMMON_NAME>
PF-06282999

>  <CAS_NUMBER>
1435467-37-0

>  <UNII>
YO3O4Q2NC8

$$$$
