
 OpenBabel10282417123D

 38 37  0  0  0  0  0  0  0  0999 V2000
    4.5419   14.7391   -3.5641 O   0  5  0  0  0  0  0  0  0  0  0  0
    4.6633   14.1432   -5.6686 O   0  0  0  0  0  0  0  0  0  0  0  0
    4.7891   10.7020   -2.8176 N   0  0  0  0  0  0  0  0  0  0  0  0
    4.7401   12.5678   -4.1944 N   0  0  0  0  0  0  0  0  0  0  0  0
    4.6468   12.8262   -1.8812 N   0  0  0  0  0  0  0  0  0  0  0  0
    4.6414   13.8980   -4.4635 N   0  3  0  0  0  0  0  0  0  0  0  0
    3.6691    7.7828   -2.3757 C   0  0  0  0  0  0  0  0  0  0  0  0
    3.6855    8.9771   -1.4133 C   0  0  0  0  0  0  0  0  0  0  0  0
    4.8456    9.9577   -1.5614 C   0  0  0  0  0  0  0  0  0  0  0  0
    4.7258   12.0732   -2.9229 C   0  0  0  0  0  0  0  0  0  0  0  0
    4.5369    6.5664   -1.9972 C   0  0  1  0  0  0  0  0  0  0  0  0
    6.0442    6.8219   -2.1502 C   0  0  0  0  0  0  0  0  0  0  0  0
    6.8245    5.6305   -1.8171 N   0  0  0  0  0  0  0  0  0  0  0  0
    8.2642    5.9088   -1.8109 C   0  0  0  0  0  0  0  0  0  0  0  0
    8.6951    6.9886   -0.7955 C   0  0  0  0  0  0  0  0  0  0  0  0
    8.3034    6.6274    0.5674 N   0  0  0  0  0  0  0  0  0  0  0  0
    4.2357    6.1159   -0.6257 N   0  0  0  0  0  0  0  0  0  0  0  0
    4.9354   10.1381   -3.6481 H   0  0  0  0  0  0  0  0  0  0  0  0
    4.8088   11.9536   -4.9860 H   0  0  0  0  0  0  0  0  0  0  0  0
    4.6362   12.3272   -1.0060 H   0  0  0  0  0  0  0  0  0  0  0  0
    2.6337    7.4169   -2.4079 H   0  0  0  0  0  0  0  0  0  0  0  0
    3.8985    8.1136   -3.3948 H   0  0  0  0  0  0  0  0  0  0  0  0
    3.6661    8.6236   -0.3750 H   0  0  0  0  0  0  0  0  0  0  0  0
    2.7473    9.5309   -1.5465 H   0  0  0  0  0  0  0  0  0  0  0  0
    5.8213    9.4861   -1.4605 H   0  0  0  0  0  0  0  0  0  0  0  0
    4.7842   10.6082   -0.6872 H   0  0  0  0  0  0  0  0  0  0  0  0
    4.2699    5.7525   -2.6827 H   0  0  0  0  0  0  0  0  0  0  0  0
    6.2861    7.1640   -3.1620 H   0  0  0  0  0  0  0  0  0  0  0  0
    6.3015    7.6109   -1.4491 H   0  0  0  0  0  0  0  0  0  0  0  0
    6.5266    5.2807   -0.9031 H   0  0  0  0  0  0  0  0  0  0  0  0
    8.7891    4.9732   -1.5833 H   0  0  0  0  0  0  0  0  0  0  0  0
    8.5736    6.1996   -2.8214 H   0  0  0  0  0  0  0  0  0  0  0  0
    9.7770    7.1339   -0.8498 H   0  0  0  0  0  0  0  0  0  0  0  0
    8.2498    7.9569   -1.0513 H   0  0  0  0  0  0  0  0  0  0  0  0
    8.5054    7.3968    1.2013 H   0  0  0  0  0  0  0  0  0  0  0  0
    7.3003    6.4624    0.6059 H   0  0  0  0  0  0  0  0  0  0  0  0
    3.2572    6.3057   -0.4116 H   0  0  0  0  0  0  0  0  0  0  0  0
    4.7841    6.6454    0.0480 H   0  0  0  0  0  0  0  0  0  0  0  0
  1  6  1  0  0  0  0
  2  6  2  0  0  0  0
  3  9  1  0  0  0  0
  3 10  1  0  0  0  0
  3 18  1  0  0  0  0
  4  6  1  0  0  0  0
  4 10  1  0  0  0  0
  4 19  1  0  0  0  0
  5 10  2  0  0  0  0
  5 20  1  0  0  0  0
  7  8  1  0  0  0  0
  7 21  1  0  0  0  0
  7 22  1  0  0  0  0
  8  9  1  0  0  0  0
  8 23  1  0  0  0  0
  8 24  1  0  0  0  0
  9 25  1  0  0  0  0
  9 26  1  0  0  0  0
 11 12  1  0  0  0  0
 11 27  1  6  0  0  0
 11 17  1  0  0  0  0
 11  7  1  0  0  0  0
 12 13  1  0  0  0  0
 12 28  1  0  0  0  0
 12 29  1  0  0  0  0
 13 14  1  0  0  0  0
 13 30  1  0  0  0  0
 14 15  1  0  0  0  0
 14 31  1  0  0  0  0
 14 32  1  0  0  0  0
 15 16  1  0  0  0  0
 15 33  1  0  0  0  0
 15 34  1  0  0  0  0
 16 35  1  0  0  0  0
 16 36  1  0  0  0  0
 17 37  1  0  0  0  0
 17 38  1  0  0  0  0
M  CHG  2   1  -1   6   1
M  END
>  <DRUGBANK_ID>
DB02027

>  <SECONDARY_ACCESSION_NUMBERS>
EXPT01253

>  <COMMON_NAME>
N-{(4S)-4-Amino-5-[(2-aminoethyl)amino]pentyl}-N'-nitroguanidine

>  <CAS_NUMBER>
357965-98-1

>  <SYNONYMS>
1-{(4S)-4-Amino-5-[(2-aminoethyl)amino]pentyl}-3-nitroguanidine

$$$$
