
 OpenBabel10282417173D

 48 50  0  0  0  0  0  0  0  0999 V2000
    1.0217   -0.3473    0.1031 C   0  0  0  0  0  0  0  0  0  0  0  0
   -0.7214    0.3466    2.0439 C   0  0  0  0  0  0  0  0  0  0  0  0
   -0.7355    6.7834   -1.5930 C   0  0  0  0  0  0  0  0  0  0  0  0
   -0.4982    6.4723    0.7980 C   0  0  0  0  0  0  0  0  0  0  0  0
    3.1101    0.3984    3.7489 C   0  0  0  0  0  0  0  0  0  0  0  0
   -1.8641    2.1173   -1.5520 C   0  0  0  0  0  0  0  0  0  0  0  0
    3.5127    1.7105    3.8958 C   0  0  0  0  0  0  0  0  0  0  0  0
   -1.4857    3.3862   -1.4482 C   0  0  0  0  0  0  0  0  0  0  0  0
    2.4387    5.5731    0.1804 C   0  0  0  0  0  0  0  0  0  0  0  0
    2.1448    0.1089    2.8125 C   0  0  0  0  0  0  0  0  0  0  0  0
   -1.2044    1.2747   -0.6919 C   0  0  0  0  0  0  0  0  0  0  0  0
    2.9527    2.7228    3.0954 C   0  0  0  0  0  0  0  0  0  0  0  0
   -0.4592    3.7408   -0.5286 C   0  0  0  0  0  0  0  0  0  0  0  0
    1.4337    5.9164   -0.8949 C   0  0  0  0  0  0  0  0  0  0  0  0
    1.9133    4.7998    1.3859 C   0  0  0  0  0  0  0  0  0  0  0  0
    1.5743    1.1181    2.0109 C   0  0  0  0  0  0  0  0  0  0  0  0
   -0.1371    1.7243    0.2168 C   0  0  0  0  0  0  0  0  0  0  0  0
    1.9808    2.4536    2.1008 C   0  0  0  0  0  0  0  0  0  0  0  0
    0.3236    2.9963    0.3320 C   0  0  0  0  0  0  0  0  0  0  0  0
    0.4539    0.6819    1.0976 C   0  0  0  0  0  0  0  0  0  0  0  0
    0.2351    6.7487   -0.4836 N   0  0  0  0  0  0  0  0  0  0  0  0
    1.3856    3.4004    1.1887 N   0  0  0  0  0  0  0  0  0  0  0  0
    0.7387   -0.1656   -0.9451 H   0  0  0  0  0  0  0  0  0  0  0  0
    0.7073   -1.3546    0.3594 H   0  0  0  0  0  0  0  0  0  0  0  0
    2.1176   -0.2915    0.0549 H   0  0  0  0  0  0  0  0  0  0  0  0
   -1.6471    0.0827    1.5264 H   0  0  0  0  0  0  0  0  0  0  0  0
   -0.4873   -0.4546    2.7427 H   0  0  0  0  0  0  0  0  0  0  0  0
   -0.9682    1.2385    2.6522 H   0  0  0  0  0  0  0  0  0  0  0  0
   -1.1327    5.8146   -1.8583 H   0  0  0  0  0  0  0  0  0  0  0  0
   -1.6194    7.3715   -1.3375 H   0  0  0  0  0  0  0  0  0  0  0  0
   -0.2913    7.1437   -2.5201 H   0  0  0  0  0  0  0  0  0  0  0  0
   -0.8546    5.4545    1.0260 H   0  0  0  0  0  0  0  0  0  0  0  0
    0.0770    6.7763    1.6702 H   0  0  0  0  0  0  0  0  0  0  0  0
   -1.4296    7.0430    0.8539 H   0  0  0  0  0  0  0  0  0  0  0  0
    3.5182   -0.3985    4.3584 H   0  0  0  0  0  0  0  0  0  0  0  0
   -2.6358    1.8112   -2.2471 H   0  0  0  0  0  0  0  0  0  0  0  0
    4.2681    1.9574    4.6364 H   0  0  0  0  0  0  0  0  0  0  0  0
   -1.9723    4.1377   -2.0684 H   0  0  0  0  0  0  0  0  0  0  0  0
    2.8967    6.5182    0.5045 H   0  0  0  0  0  0  0  0  0  0  0  0
    3.2653    4.9876   -0.2525 H   0  0  0  0  0  0  0  0  0  0  0  0
    1.7978   -0.9142    2.6963 H   0  0  0  0  0  0  0  0  0  0  0  0
   -1.4918    0.2335   -0.7148 H   0  0  0  0  0  0  0  0  0  0  0  0
    3.3323    3.7110    3.3290 H   0  0  0  0  0  0  0  0  0  0  0  0
   -0.3076    4.7443   -0.5214 H   0  0  0  0  0  0  0  0  0  0  0  0
    1.9397    6.4312   -1.7206 H   0  0  0  0  0  0  0  0  0  0  0  0
    1.2507    4.9584   -1.4073 H   0  0  0  0  0  0  0  0  0  0  0  0
    1.2561    5.3603    2.0468 H   0  0  0  0  0  0  0  0  0  0  0  0
    2.8236    4.8187    1.9908 H   0  0  0  0  0  0  0  0  0  0  0  0
  1 23  1  0  0  0  0
  1 24  1  0  0  0  0
  1 25  1  0  0  0  0
  2 26  1  0  0  0  0
  2 27  1  0  0  0  0
  2 28  1  0  0  0  0
  3 29  1  0  0  0  0
  3 30  1  0  0  0  0
  3 31  1  0  0  0  0
  4 32  1  0  0  0  0
  4 33  1  0  0  0  0
  4 34  1  0  0  0  0
  5 35  1  0  0  0  0
  6 36  1  0  0  0  0
  7  5  2  0  0  0  0
  7 37  1  0  0  0  0
  8  6  2  0  0  0  0
  8 38  1  0  0  0  0
  9 39  1  0  0  0  0
  9 40  1  0  0  0  0
 10  5  1  0  0  0  0
 10 41  1  0  0  0  0
 11  6  1  0  0  0  0
 11 42  1  0  0  0  0
 12  7  1  0  0  0  0
 12 43  1  0  0  0  0
 13  8  1  0  0  0  0
 13 44  1  0  0  0  0
 14  9  1  0  0  0  0
 14 45  1  0  0  0  0
 14 46  1  0  0  0  0
 15  9  1  0  0  0  0
 15 47  1  0  0  0  0
 15 48  1  0  0  0  0
 16 10  2  0  0  0  0
 17 11  2  0  0  0  0
 18 12  2  0  0  0  0
 18 16  1  0  0  0  0
 19 13  2  0  0  0  0
 19 17  1  0  0  0  0
 20  1  1  0  0  0  0
 20  2  1  0  0  0  0
 20 16  1  0  0  0  0
 20 17  1  0  0  0  0
 21  3  1  0  0  0  0
 21  4  1  0  0  0  0
 21 14  1  0  0  0  0
 22 15  1  0  0  0  0
 22 18  1  0  0  0  0
 22 19  1  0  0  0  0
M  END
>  <DRUGBANK_ID>
DB08996

>  <COMMON_NAME>
Dimetacrine

>  <CAS_NUMBER>
4757-55-5

>  <UNII>
O341NY501N

>  <SYNONYMS>
3-(9,9-dimethylacridin-10-yl)-N,N-dimethyl-propan-1-amine; Dimetacrine; Istonil; Istonyl; Linostil; Miroistonil

$$$$
