
 OpenBabel10282417203D

 29 30  0  0  1  0  0  0  0  0999 V2000
    1.0127   -0.0634    0.0819 C   0  0  0  0  0  0  0  0  0  0  0  0
    0.6302   -0.5160    1.3774 O   0  0  0  0  0  0  0  0  0  0  0  0
    0.9340   -1.7958    1.6943 C   0  0  0  0  0  0  0  0  0  0  0  0
    1.5913   -2.5492    0.9824 O   0  0  0  0  0  0  0  0  0  0  0  0
    0.2943   -2.2447    2.9993 C   0  0  1  0  0  0  0  0  0  0  0  0
   -0.1574   -1.1279    3.9878 C   0  0  2  0  0  0  0  0  0  0  0  0
   -1.1472   -1.8910    4.8798 C   0  0  0  0  0  0  0  0  0  0  0  0
   -2.0371   -2.3120    3.6961 C   0  0  2  0  0  0  0  0  0  0  0  0
   -1.0128   -3.0819    2.8193 C   0  0  1  0  0  0  0  0  0  0  0  0
   -1.4487   -3.3496    1.3881 C   0  0  0  0  0  0  0  0  0  0  0  0
   -1.5877   -4.4797    0.9310 O   0  0  0  0  0  0  0  0  0  0  0  0
   -1.6499   -2.2071    0.6855 O   0  0  0  0  0  0  0  0  0  0  0  0
   -1.9884   -2.3710   -0.6909 C   0  0  0  0  0  0  0  0  0  0  0  0
   -2.2811   -0.9382    3.1222 C   0  0  0  0  0  0  0  0  0  0  0  0
   -1.1669   -0.2211    3.3215 C   0  0  0  0  0  0  0  0  0  0  0  0
    0.6022    0.9429   -0.0495 H   0  0  0  0  0  0  0  0  0  0  0  0
    0.5982   -0.7034   -0.7031 H   0  0  0  0  0  0  0  0  0  0  0  0
    2.1005   -0.0113    0.0204 H   0  0  0  0  0  0  0  0  0  0  0  0
    1.0442   -2.8625    3.5161 H   0  0  0  0  0  0  0  0  0  0  0  0
    0.6456   -0.6115    4.5163 H   0  0  0  0  0  0  0  0  0  0  0  0
   -0.7013   -2.7326    5.4209 H   0  0  0  0  0  0  0  0  0  0  0  0
   -1.6610   -1.2420    5.6042 H   0  0  0  0  0  0  0  0  0  0  0  0
   -2.9432   -2.8533    3.9714 H   0  0  0  0  0  0  0  0  0  0  0  0
   -0.8522   -4.0665    3.2844 H   0  0  0  0  0  0  0  0  0  0  0  0
   -1.1911   -2.8964   -1.2250 H   0  0  0  0  0  0  0  0  0  0  0  0
   -2.9432   -2.8934   -0.7884 H   0  0  0  0  0  0  0  0  0  0  0  0
   -2.0926   -1.3729   -1.1280 H   0  0  0  0  0  0  0  0  0  0  0  0
   -3.1226   -0.6437    2.5129 H   0  0  0  0  0  0  0  0  0  0  0  0
   -0.9514    0.7513    2.9022 H   0  0  0  0  0  0  0  0  0  0  0  0
  1  2  1  0  0  0  0
  1 16  1  0  0  0  0
  1 17  1  0  0  0  0
  1 18  1  0  0  0  0
  2  3  1  0  0  0  0
  3  4  2  0  0  0  0
  5  3  1  0  0  0  0
  5  6  1  0  0  0  0
  5  9  1  0  0  0  0
  5 19  1  1  0  0  0
  6  7  1  0  0  0  0
  6 15  1  0  0  0  0
  6 20  1  1  0  0  0
  7 21  1  0  0  0  0
  7 22  1  0  0  0  0
  8  7  1  0  0  0  0
  8  9  1  0  0  0  0
  8 14  1  0  0  0  0
  8 23  1  1  0  0  0
  9 10  1  0  0  0  0
  9 24  1  1  0  0  0
 10 11  2  0  0  0  0
 10 12  1  0  0  0  0
 12 13  1  0  0  0  0
 13 25  1  0  0  0  0
 13 26  1  0  0  0  0
 13 27  1  0  0  0  0
 14 15  2  0  0  0  0
 14 28  1  0  0  0  0
 15 29  1  0  0  0  0
M  END
>  <DRUGBANK_ID>
DB13204

>  <COMMON_NAME>
Dimethyl carbate

>  <CAS_NUMBER>
39589-98-5

>  <UNII>
BN2PH0TQOD

>  <SYNONYMS>
Dimethylcarbate

$$$$
