
 OpenBabel10282417213D

 45 46  0  0  0  0  0  0  0  0999 V2000
    0.6441   -0.1326   -0.1726 C   0  0  0  0  0  0  0  0  0  0  0  0
    0.4829    1.7492   -1.8784 C   0  0  0  0  0  0  0  0  0  0  0  0
   -1.3773    1.3748   -0.2515 C   0  0  0  0  0  0  0  0  0  0  0  0
    1.8034    5.5982    4.0468 C   0  0  0  0  0  0  0  0  0  0  0  0
    2.6692    0.8412    3.1864 C   0  0  0  0  0  0  0  0  0  0  0  0
    1.9158    4.3155    4.5740 C   0  0  0  0  0  0  0  0  0  0  0  0
    2.5586    1.8811    4.3042 C   0  0  0  0  0  0  0  0  0  0  0  0
    2.1652    5.8756    2.7305 C   0  0  0  0  0  0  0  0  0  0  0  0
    3.9964    0.9898    2.4370 C   0  0  0  0  0  0  0  0  0  0  0  0
    2.1392    2.2612    0.3785 C   0  0  0  0  0  0  0  0  0  0  0  0
    2.5272    4.5805   -0.4152 C   0  0  0  0  0  0  0  0  0  0  0  0
    2.5771    3.3218    3.8356 C   0  0  0  0  0  0  0  0  0  0  0  0
    2.9336    3.1333   -0.5937 C   0  0  3  0  0  0  0  0  0  0  0  0
    2.8636    4.9038    1.9922 C   0  0  0  0  0  0  0  0  0  0  0  0
    3.2777    3.7427    2.7028 C   0  0  0  0  0  0  0  0  0  0  0  0
    0.1247    1.2911   -0.4693 C   0  0  0  0  0  0  0  0  0  0  0  0
    0.6991    2.2179    0.4709 N   0  0  0  0  0  0  0  0  0  0  0  0
    4.3550    2.9942   -0.5198 O   0  0  0  0  0  0  0  0  0  0  0  0
    3.2030    5.2374    0.7006 O   0  0  0  0  0  0  0  0  0  0  0  0
    4.6987    2.7050    2.2796 S   0  0  0  0  0  0  0  0  0  0  0  0
    0.2307   -0.8505   -0.8785 H   0  0  0  0  0  0  0  0  0  0  0  0
    0.3989   -0.4430    0.8516 H   0  0  0  0  0  0  0  0  0  0  0  0
    1.7317   -0.2408   -0.2697 H   0  0  0  0  0  0  0  0  0  0  0  0
   -0.1316    1.2717   -2.6354 H   0  0  0  0  0  0  0  0  0  0  0  0
    0.3729    2.8403   -1.9750 H   0  0  0  0  0  0  0  0  0  0  0  0
    1.5121    1.4748   -2.1206 H   0  0  0  0  0  0  0  0  0  0  0  0
   -1.6576    1.0320    0.7518 H   0  0  0  0  0  0  0  0  0  0  0  0
   -1.7346    2.4070   -0.3603 H   0  0  0  0  0  0  0  0  0  0  0  0
   -1.8882    0.7564   -0.9908 H   0  0  0  0  0  0  0  0  0  0  0  0
    1.4008    6.3963    4.6818 H   0  0  0  0  0  0  0  0  0  0  0  0
    1.7812    0.8783    2.5400 H   0  0  0  0  0  0  0  0  0  0  0  0
    2.6219   -0.1786    3.5932 H   0  0  0  0  0  0  0  0  0  0  0  0
    1.5462    4.0802    5.5620 H   0  0  0  0  0  0  0  0  0  0  0  0
    1.6214    1.6765    4.8356 H   0  0  0  0  0  0  0  0  0  0  0  0
    3.3903    1.7220    4.9925 H   0  0  0  0  0  0  0  0  0  0  0  0
    1.9755    6.8537    2.3038 H   0  0  0  0  0  0  0  0  0  0  0  0
    4.7580    0.4414    2.9886 H   0  0  0  0  0  0  0  0  0  0  0  0
    3.9616    0.4832    1.4624 H   0  0  0  0  0  0  0  0  0  0  0  0
    2.2701    2.5962    1.3641 H   0  0  0  0  0  0  0  0  0  0  0  0
    2.5823    1.2796    0.3852 H   0  0  0  0  0  0  0  0  0  0  0  0
    2.8488    5.0878   -1.3358 H   0  0  0  0  0  0  0  0  0  0  0  0
    1.4330    4.6886   -0.3981 H   0  0  0  0  0  0  0  0  0  0  0  0
    2.7473    2.7905   -1.6029 H   0  0  0  0  0  0  0  0  0  0  0  0
    0.2625    3.1375    0.5138 H   0  0  0  0  0  0  0  0  0  0  0  0
    4.6486    3.4592    0.2923 H   0  0  0  0  0  0  0  0  0  0  0  0
  1 21  1  0  0  0  0
  1 22  1  0  0  0  0
  1 23  1  0  0  0  0
  2 24  1  0  0  0  0
  2 25  1  0  0  0  0
  2 26  1  0  0  0  0
  3 27  1  0  0  0  0
  3 28  1  0  0  0  0
  3 29  1  0  0  0  0
  4 30  1  0  0  0  0
  5 31  1  0  0  0  0
  5 32  1  0  0  0  0
  6  4  2  0  0  0  0
  6 33  1  0  0  0  0
  7  5  1  0  0  0  0
  7 34  1  0  0  0  0
  7 35  1  0  0  0  0
  8  4  1  0  0  0  0
  8 36  1  0  0  0  0
  9  5  1  0  0  0  0
  9 37  1  0  0  0  0
  9 38  1  0  0  0  0
 10 39  1  0  0  0  0
 10 40  1  0  0  0  0
 11 41  1  0  0  0  0
 11 42  1  0  0  0  0
 12  6  1  0  0  0  0
 12  7  1  0  0  0  0
 13 10  1  0  0  0  0
 13 11  1  0  0  0  0
 13 43  1  0  0  0  0
 14  8  2  0  0  0  0
 15 12  2  0  0  0  0
 15 14  1  0  0  0  0
 16  1  1  0  0  0  0
 16  2  1  0  0  0  0
 16  3  1  0  0  0  0
 17 10  1  0  0  0  0
 17 16  1  0  0  0  0
 17 44  1  0  0  0  0
 18 13  1  0  0  0  0
 18 45  1  0  0  0  0
 19 11  1  0  0  0  0
 19 14  1  0  0  0  0
 20  9  1  0  0  0  0
 20 15  1  0  0  0  0
M  END
>  <DRUGBANK_ID>
DB13775

>  <COMMON_NAME>
Tertatolol

>  <CAS_NUMBER>
83688-84-0

>  <UNII>
9ZO341YQXP

>  <SYNONYMS>
Tertatolol

$$$$
