
 OpenBabel10282417133D

 25 24  0  0  0  0  0  0  0  0999 V2000
    1.0307   -0.0693    0.0652 Co  0  7  0  0  0  0  0  0  0  0  0  0
    1.0307    1.4359   -1.2057 N   0  3  0  0  0  0  0  0  0  0  0  0
    1.0307   -1.3402   -1.4400 N   0  3  0  0  0  0  0  0  0  0  0  0
   -0.9393   -0.0693    0.0652 N   0  3  0  0  0  0  0  0  0  0  0  0
    1.0307   -1.5745    1.3361 N   0  3  0  0  0  0  0  0  0  0  0  0
    1.0307    1.2016    1.5705 N   0  3  0  0  0  0  0  0  0  0  0  0
    3.0007   -0.0693    0.0652 N   0  3  0  0  0  0  0  0  0  0  0  0
    1.8635    1.3855   -1.7924 H   0  0  0  0  0  0  0  0  0  0  0  0
    0.1979    1.3855   -1.7924 H   0  0  0  0  0  0  0  0  0  0  0  0
    1.0307    2.3161   -0.6902 H   0  0  0  0  0  0  0  0  0  0  0  0
    0.5498   -2.1959   -1.1625 H   0  0  0  0  0  0  0  0  0  0  0  0
    0.5499   -0.9232   -2.2371 H   0  0  0  0  0  0  0  0  0  0  0  0
    1.9923   -1.5595   -1.6998 H   0  0  0  0  0  0  0  0  0  0  0  0
   -1.2793   -0.9740   -0.2609 H   0  0  0  0  0  0  0  0  0  0  0  0
   -1.2793    0.1006    1.0118 H   0  0  0  0  0  0  0  0  0  0  0  0
   -1.2793    0.6655   -0.5552 H   0  0  0  0  0  0  0  0  0  0  0  0
    1.8635   -1.5241    1.9229 H   0  0  0  0  0  0  0  0  0  0  0  0
    0.1979   -1.5241    1.9229 H   0  0  0  0  0  0  0  0  0  0  0  0
    1.0307   -2.4547    0.8207 H   0  0  0  0  0  0  0  0  0  0  0  0
    1.5115    0.7846    2.3675 H   0  0  0  0  0  0  0  0  0  0  0  0
    1.5115    2.0573    1.2930 H   0  0  0  0  0  0  0  0  0  0  0  0
    0.0690    1.4209    1.8303 H   0  0  0  0  0  0  0  0  0  0  0  0
    3.3407   -0.6897   -0.6696 H   0  0  0  0  0  0  0  0  0  0  0  0
    3.3407    0.8772   -0.1046 H   0  0  0  0  0  0  0  0  0  0  0  0
    3.3407   -0.3955    0.9699 H   0  0  0  0  0  0  0  0  0  0  0  0
  1  2  1  0  0  0  0
  1  3  1  0  0  0  0
  1  4  1  0  0  0  0
  1  5  1  0  0  0  0
  1  6  1  0  0  0  0
  1  7  1  0  0  0  0
  2  8  1  0  0  0  0
  2  9  1  0  0  0  0
  2 10  1  0  0  0  0
  3 11  1  0  0  0  0
  3 12  1  0  0  0  0
  3 13  1  0  0  0  0
  4 14  1  0  0  0  0
  4 15  1  0  0  0  0
  4 16  1  0  0  0  0
  5 17  1  0  0  0  0
  5 18  1  0  0  0  0
  5 19  1  0  0  0  0
  6 20  1  0  0  0  0
  6 21  1  0  0  0  0
  6 22  1  0  0  0  0
  7 23  1  0  0  0  0
  7 24  1  0  0  0  0
  7 25  1  0  0  0  0
M  CHG  7   1  -3   2   1   3   1   4   1   5   1   6   1   7   1
M  END
>  <DRUGBANK_ID>
DB03350

>  <SECONDARY_ACCESSION_NUMBERS>
EXPT02313

>  <COMMON_NAME>
Cobalt hexammine ion

>  <SYNONYMS>
Cobalt Hexammine(III); hexaamminecobalt(3+)

$$$$
