R22
 OpenBabel10282417173D

 46 48  0  0  0  0  0  0  0  0999 V2000
    0.0380   -1.7407    0.0173 C   0  0  0  0  0  0  0  0  0  0  0  0
    1.2185   -1.0016   -0.0773 C   0  0  0  0  0  0  0  0  0  0  0  0
    1.2109    0.3894   -0.0150 C   0  0  0  0  0  0  0  0  0  0  0  0
   -0.0155    1.0573    0.0393 C   0  0  0  0  0  0  0  0  0  0  0  0
   -1.2211    0.3345    0.0731 C   0  0  0  0  0  0  0  0  0  0  0  0
   -1.1834   -1.0702    0.0897 C   0  0  0  0  0  0  0  0  0  0  0  0
    0.0066   -3.1238    0.0228 O   0  0  0  0  0  0  0  0  0  0  0  0
    2.5200    1.1170   -0.0058 C   0  0  0  0  0  0  0  0  0  0  0  0
   -2.5365    1.0561    0.0281 C   0  0  0  0  0  0  0  0  0  0  0  0
    3.5330   -5.2894   -0.0123 N   0  0  0  0  0  0  0  0  0  0  0  0
    3.3488   -4.4886    1.0814 C   0  0  0  0  0  0  0  0  0  0  0  0
    2.0448   -3.7647    1.1769 C   0  0  0  0  0  0  0  0  0  0  0  0
    1.2111   -3.8232    0.1082 C   0  0  0  0  0  0  0  0  0  0  0  0
    1.5082   -4.6998   -1.0455 C   0  0  0  0  0  0  0  0  0  0  0  0
    2.6431   -5.4288   -1.0457 C   0  0  0  0  0  0  0  0  0  0  0  0
    2.9999   -6.4150   -2.1279 C   0  0  0  0  0  0  0  0  0  0  0  0
    4.2423   -4.3877    1.9298 O   0  0  0  0  0  0  0  0  0  0  0  0
    1.7106   -2.6954    2.9419 I   0  0  0  0  0  0  0  0  0  0  0  0
    0.5103   -4.8375   -2.1679 C   0  0  0  0  0  0  0  0  0  0  0  0
    1.1906   -4.3829   -3.8327 S   0  0  0  0  0  0  0  0  0  0  0  0
    1.6886   -2.6301   -3.5876 C   0  0  0  0  0  0  0  0  0  0  0  0
    0.4770   -1.7958   -3.4062 C   0  0  0  0  0  0  0  0  0  0  0  0
    0.6175   -0.4371   -3.3871 O   0  0  0  0  0  0  0  0  0  0  0  0
   -0.6286    0.0740   -3.1745 C   0  0  0  0  0  0  0  0  0  0  0  0
   -1.5563   -0.9290   -3.0447 C   0  0  0  0  0  0  0  0  0  0  0  0
   -0.8544   -2.1191   -3.2448 C   0  0  0  0  0  0  0  0  0  0  0  0
    2.1795   -1.4952   -0.1685 H   0  0  0  0  0  0  0  0  0  0  0  0
   -0.0307    2.1449    0.0234 H   0  0  0  0  0  0  0  0  0  0  0  0
   -2.1094   -1.6403    0.0906 H   0  0  0  0  0  0  0  0  0  0  0  0
    2.6163    1.7465   -0.8930 H   0  0  0  0  0  0  0  0  0  0  0  0
    2.6042    1.7221    0.9013 H   0  0  0  0  0  0  0  0  0  0  0  0
    3.3625    0.4134   -0.0022 H   0  0  0  0  0  0  0  0  0  0  0  0
   -2.6380    1.7155    0.8941 H   0  0  0  0  0  0  0  0  0  0  0  0
   -2.6163    1.6474   -0.8912 H   0  0  0  0  0  0  0  0  0  0  0  0
   -3.3754    0.3518    0.0366 H   0  0  0  0  0  0  0  0  0  0  0  0
    4.4119   -5.7920   -0.0297 H   0  0  0  0  0  0  0  0  0  0  0  0
    2.2061   -7.1638   -2.2353 H   0  0  0  0  0  0  0  0  0  0  0  0
    3.1443   -5.9176   -3.0887 H   0  0  0  0  0  0  0  0  0  0  0  0
    3.9364   -6.9391   -1.9336 H   0  0  0  0  0  0  0  0  0  0  0  0
    0.2015   -5.8879   -2.2446 H   0  0  0  0  0  0  0  0  0  0  0  0
   -0.4240   -4.3285   -1.9443 H   0  0  0  0  0  0  0  0  0  0  0  0
    2.4088   -2.5422   -2.7650 H   0  0  0  0  0  0  0  0  0  0  0  0
    2.2189   -2.3151   -4.4955 H   0  0  0  0  0  0  0  0  0  0  0  0
   -0.6950    1.1469   -3.0812 H   0  0  0  0  0  0  0  0  0  0  0  0
   -2.6008   -0.8480   -2.7884 H   0  0  0  0  0  0  0  0  0  0  0  0
   -1.2746   -3.1090   -3.2220 H   0  0  0  0  0  0  0  0  0  0  0  0
  1  2  1  0  0  0  0
  1  6  2  0  0  0  0
  1  7  1  0  0  0  0
  2  3  2  0  0  0  0
  2 27  1  0  0  0  0
  3  4  1  0  0  0  0
  3  8  1  0  0  0  0
  4  5  2  0  0  0  0
  4 28  1  0  0  0  0
  5  6  1  0  0  0  0
  5  9  1  0  0  0  0
  6 29  1  0  0  0  0
  7 13  1  0  0  0  0
  8 30  1  0  0  0  0
  8 31  1  0  0  0  0
  8 32  1  0  0  0  0
  9 33  1  0  0  0  0
  9 34  1  0  0  0  0
  9 35  1  0  0  0  0
 10 11  1  0  0  0  0
 10 15  1  0  0  0  0
 10 36  1  0  0  0  0
 11 12  1  0  0  0  0
 11 17  2  0  0  0  0
 12 13  2  0  0  0  0
 12 18  1  0  0  0  0
 13 14  1  0  0  0  0
 14 15  2  0  0  0  0
 14 19  1  0  0  0  0
 15 16  1  0  0  0  0
 16 37  1  0  0  0  0
 16 38  1  0  0  0  0
 16 39  1  0  0  0  0
 19 20  1  0  0  0  0
 19 40  1  0  0  0  0
 19 41  1  0  0  0  0
 20 21  1  0  0  0  0
 21 22  1  0  0  0  0
 21 42  1  0  0  0  0
 21 43  1  0  0  0  0
 22 23  1  0  0  0  0
 22 26  2  0  0  0  0
 23 24  1  0  0  0  0
 24 25  2  0  0  0  0
 24 44  1  0  0  0  0
 25 26  1  0  0  0  0
 25 45  1  0  0  0  0
 26 46  1  0  0  0  0
M  END
>  <DRUGBANK_ID>
DB08457

>  <COMMON_NAME>
4-(3,5-DIMETHYLPHENOXY)-5-(FURAN-2-YLMETHYLSULFANYLMETHYL)-3-IODO-6-METHYLPYRIDIN-2(1H)-ONE

$$$$
