477
 OpenBabel10282417103D

 40 42  0  0  0  0  0  0  0  0999 V2000
    1.2945    1.0219   -0.2693 Cl  0  0  0  0  0  0  0  0  0  0  0  0
    7.4775    0.3270   -0.0528 S   0  0  0  0  0  0  0  0  0  0  0  0
    5.5669   -2.2444    0.0678 N   0  0  0  0  0  0  0  0  0  0  0  0
    1.7340   -3.0924   -0.0833 N   0  0  0  0  0  0  0  0  0  0  0  0
    4.7961   -3.5614    0.0968 C   0  0  0  0  0  0  0  0  0  0  0  0
    3.8069   -3.8465    1.2154 C   0  0  0  0  0  0  0  0  0  0  0  0
    2.5707   -3.0044    1.1861 C   0  0  0  0  0  0  0  0  0  0  0  0
    5.0135   -0.9108   -0.0250 C   0  0  0  0  0  0  0  0  0  0  0  0
    6.9959   -2.4754   -0.0360 C   0  0  0  0  0  0  0  0  0  0  0  0
    5.7304    0.2674   -0.0474 C   0  0  0  0  0  0  0  0  0  0  0  0
    7.8880   -1.3888   -0.0657 C   0  0  0  0  0  0  0  0  0  0  0  0
    3.6517   -0.5858   -0.1143 C   0  0  0  0  0  0  0  0  0  0  0  0
    7.6076   -3.7618   -0.0908 C   0  0  0  0  0  0  0  0  0  0  0  0
    5.1242    1.5756   -0.0692 C   0  0  0  0  0  0  0  0  0  0  0  0
    9.2725   -1.5802   -0.0899 C   0  0  0  0  0  0  0  0  0  0  0  0
    0.7251   -2.0422    0.0478 C   0  0  0  0  0  0  0  0  0  0  0  0
    2.3255   -2.9825   -1.4728 C   0  0  0  0  0  0  0  0  0  0  0  0
    2.9971    0.6871   -0.1436 C   0  0  0  0  0  0  0  0  0  0  0  0
    8.9939   -3.9420   -0.0965 C   0  0  0  0  0  0  0  0  0  0  0  0
    3.7549    1.7741   -0.0875 C   0  0  0  0  0  0  0  0  0  0  0  0
    9.8260   -2.8450   -0.0897 C   0  0  0  0  0  0  0  0  0  0  0  0
    4.4735   -3.8287   -0.9043 H   0  0  0  0  0  0  0  0  0  0  0  0
    5.4270   -4.4277    0.2900 H   0  0  0  0  0  0  0  0  0  0  0  0
    3.4666   -4.8922    1.1807 H   0  0  0  0  0  0  0  0  0  0  0  0
    4.3331   -3.7475    2.1773 H   0  0  0  0  0  0  0  0  0  0  0  0
    1.9299   -3.2474    2.0451 H   0  0  0  0  0  0  0  0  0  0  0  0
    2.9077   -2.0119    1.5328 H   0  0  0  0  0  0  0  0  0  0  0  0
    3.0560   -1.4044   -0.1703 H   0  0  0  0  0  0  0  0  0  0  0  0
    7.0831   -4.7099   -0.1311 H   0  0  0  0  0  0  0  0  0  0  0  0
    5.7295    2.4637   -0.0735 H   0  0  0  0  0  0  0  0  0  0  0  0
    9.9247   -0.7122   -0.0945 H   0  0  0  0  0  0  0  0  0  0  0  0
    1.2672   -1.1541    0.2655 H   0  0  0  0  0  0  0  0  0  0  0  0
    0.1566   -1.8496   -0.8651 H   0  0  0  0  0  0  0  0  0  0  0  0
    0.0804   -2.1106    0.9224 H   0  0  0  0  0  0  0  0  0  0  0  0
    3.0025   -2.1536   -1.7445 H   0  0  0  0  0  0  0  0  0  0  0  0
    2.8507   -3.8846   -1.7809 H   0  0  0  0  0  0  0  0  0  0  0  0
    1.5421   -2.8471   -2.2258 H   0  0  0  0  0  0  0  0  0  0  0  0
    9.4083   -4.9467   -0.1018 H   0  0  0  0  0  0  0  0  0  0  0  0
    3.2862    2.7553   -0.0848 H   0  0  0  0  0  0  0  0  0  0  0  0
   10.9021   -2.9556   -0.0892 H   0  0  0  0  0  0  0  0  0  0  0  0
  1 18  1  0  0  0  0
  2 10  1  0  0  0  0
  2 11  1  0  0  0  0
  3  5  1  0  0  0  0
  3  8  1  0  0  0  0
  3  9  1  0  0  0  0
  4  7  1  0  0  0  0
  4 16  1  0  0  0  0
  4 17  1  0  0  0  0
  5  6  1  0  0  0  0
  5 22  1  0  0  0  0
  5 23  1  0  0  0  0
  6  7  1  0  0  0  0
  6 24  1  0  0  0  0
  6 25  1  0  0  0  0
  7 26  1  0  0  0  0
  7 27  1  0  0  0  0
  8 10  2  0  0  0  0
  8 12  1  0  0  0  0
  9 11  1  0  0  0  0
  9 13  2  0  0  0  0
 10 14  1  0  0  0  0
 11 15  2  0  0  0  0
 12 18  2  0  0  0  0
 12 28  1  0  0  0  0
 13 19  1  0  0  0  0
 13 29  1  0  0  0  0
 14 20  2  0  0  0  0
 14 30  1  0  0  0  0
 15 21  1  0  0  0  0
 15 31  1  0  0  0  0
 16 32  1  0  0  0  0
 16 33  1  0  0  0  0
 16 34  1  0  0  0  0
 17 35  1  0  0  0  0
 17 36  1  0  0  0  0
 17 37  1  0  0  0  0
 18 20  1  0  0  0  0
 19 21  2  0  0  0  0
 19 38  1  0  0  0  0
 20 39  1  0  0  0  0
 21 40  1  0  0  0  0
M  END
>  <DRUGBANK_ID>
DB00477

>  <SECONDARY_ACCESSION_NUMBERS>
APRD00482

>  <COMMON_NAME>
Chlorpromazine

>  <CAS_NUMBER>
50-53-3

>  <UNII>
U42B7VYA4P

>  <SYNONYMS>
3-(2-chloro-10H-phenothiazin-10-yl)-N,N-dimethyl-1-propanamine; 3-(2-chlorophenothiazin-10-yl)-N,N-dimethyl-propan-1-amine; Chlorpromazine; Chlorpromazinum; Clorpromazina; CPZ; N-(3-dimethylaminopropyl)-3-chlorophenothiazine

$$$$
