791
 OpenBabel10282417133D

 21 21  0  0  0  0  0  0  0  0999 V2000
    1.3815   -0.2304    0.0103 C   0  0  0  0  0  0  0  0  0  0  0  0
    0.4902   -1.3031    0.0095 C   0  0  0  0  0  0  0  0  0  0  0  0
   -0.8897   -1.0752   -0.0326 C   0  0  0  0  0  0  0  0  0  0  0  0
   -1.3865    0.2367   -0.0584 C   0  0  0  0  0  0  0  0  0  0  0  0
   -0.4745    1.3024    0.0266 C   0  0  0  0  0  0  0  0  0  0  0  0
    0.8978    1.0729    0.0063 C   0  0  0  0  0  0  0  0  0  0  0  0
   -2.8729    0.5323   -0.2259 C   0  0  0  0  0  0  0  0  0  0  0  0
   -3.4310    1.2460    0.9979 C   0  0  0  0  0  0  0  0  0  0  0  0
   -3.1189    1.3071   -1.5075 C   0  0  0  0  0  0  0  0  0  0  0  0
   -4.0170    2.4491    0.8060 O   0  0  0  0  0  0  0  0  0  0  0  0
   -3.3903    0.7510    2.1246 O   0  0  0  0  0  0  0  0  0  0  0  0
   -3.8621    0.7002   -2.4545 O   0  0  0  0  0  0  0  0  0  0  0  0
   -2.7692    2.4771   -1.6508 O   0  0  0  0  0  0  0  0  0  0  0  0
    2.4536   -0.4071    0.0261 H   0  0  0  0  0  0  0  0  0  0  0  0
    0.8772   -2.3193    0.0268 H   0  0  0  0  0  0  0  0  0  0  0  0
   -1.5587   -1.9331   -0.0400 H   0  0  0  0  0  0  0  0  0  0  0  0
   -0.8269    2.3313    0.0847 H   0  0  0  0  0  0  0  0  0  0  0  0
    1.5827    1.9161   -0.0235 H   0  0  0  0  0  0  0  0  0  0  0  0
   -3.4311   -0.4113   -0.2976 H   0  0  0  0  0  0  0  0  0  0  0  0
   -3.9083    2.8704   -0.0776 H   0  0  0  0  0  0  0  0  0  0  0  0
   -4.1807   -0.2037   -2.2728 H   0  0  0  0  0  0  0  0  0  0  0  0
  1  2  2  0  0  0  0
  1  6  1  0  0  0  0
  1 14  1  0  0  0  0
  2  3  1  0  0  0  0
  2 15  1  0  0  0  0
  3  4  2  0  0  0  0
  3 16  1  0  0  0  0
  4  5  1  0  0  0  0
  4  7  1  0  0  0  0
  5  6  2  0  0  0  0
  5 17  1  0  0  0  0
  6 18  1  0  0  0  0
  7  8  1  0  0  0  0
  7  9  1  0  0  0  0
  7 19  1  0  0  0  0
  8 10  1  0  0  0  0
  8 11  2  0  0  0  0
  9 12  1  0  0  0  0
  9 13  2  0  0  0  0
 10 20  1  0  0  0  0
 12 21  1  0  0  0  0
M  END
>  <DRUGBANK_ID>
DB04080

>  <SECONDARY_ACCESSION_NUMBERS>
EXPT00305

>  <COMMON_NAME>
RU78191

>  <UNII>
92EX195E1G

$$$$
