
 OpenBabel10282417193D

 53 55  0  0  1  0  0  0  0  0999 V2000
   14.5806    5.5683    0.4372 C   0  0  0  0  0  0  0  0  0  0  0  0
   14.2002    4.7409    1.6550 C   0  0  0  0  0  0  0  0  0  0  0  0
   12.7993    4.7223    1.9690 O   0  0  0  0  0  0  0  0  0  0  0  0
   12.2528    5.8873    2.4218 C   0  0  0  0  0  0  0  0  0  0  0  0
   12.3020    7.0861    1.7204 C   0  0  0  0  0  0  0  0  0  0  0  0
   11.6845    8.2426    2.1808 C   0  0  0  0  0  0  0  0  0  0  0  0
   10.9135    8.2055    3.3392 C   0  0  0  0  0  0  0  0  0  0  0  0
   10.8168    6.9767    4.0152 C   0  0  0  0  0  0  0  0  0  0  0  0
   11.4726    5.8249    3.5711 C   0  0  0  0  0  0  0  0  0  0  0  0
   10.2471    9.4889    3.8063 C   0  0  0  0  0  0  0  0  0  0  0  0
    8.7397    9.5112    3.6977 C   0  0  0  0  0  0  0  0  0  0  0  0
    8.0406    8.5582    4.4379 C   0  0  0  0  0  0  0  0  0  0  0  0
    6.6830    8.3147    4.2682 C   0  0  0  0  0  0  0  0  0  0  0  0
    5.9383    9.2935    3.6125 C   0  0  0  0  0  0  0  0  0  0  0  0
    6.5893   10.3477    2.9680 C   0  0  0  0  0  0  0  0  0  0  0  0
    7.9883   10.3885    2.9163 C   0  0  0  0  0  0  0  0  0  0  0  0
    8.7183   11.5028    1.8228 Cl  0  0  0  0  0  0  0  0  0  0  0  0
    6.1432    6.9218    4.5416 C   0  0  1  0  0  0  0  0  0  0  0  0
    6.7061    6.1900    5.7864 C   0  0  1  0  0  0  0  0  0  0  0  0
    6.0368    4.8186    5.9240 C   0  0  2  0  0  0  0  0  0  0  0  0
    4.5108    4.9146    5.8429 C   0  0  1  0  0  0  0  0  0  0  0  0
    4.1019    5.7176    4.5933 C   0  0  2  0  0  0  0  0  0  0  0  0
    4.7181    6.9995    4.6151 O   0  0  0  0  0  0  0  0  0  0  0  0
    2.2888    5.9033    4.4162 S   0  0  0  0  0  0  0  0  0  0  0  0
    1.9001    6.8080    5.9364 C   0  0  0  0  0  0  0  0  0  0  0  0
    3.9432    3.6027    5.8536 O   0  0  0  0  0  0  0  0  0  0  0  0
    6.4364    4.2025    7.1566 O   0  0  0  0  0  0  0  0  0  0  0  0
    8.1181    5.9422    5.7402 O   0  0  0  0  0  0  0  0  0  0  0  0
   13.8479    5.4395   -0.3671 H   0  0  0  0  0  0  0  0  0  0  0  0
   15.5757    5.3142    0.0697 H   0  0  0  0  0  0  0  0  0  0  0  0
   14.6404    6.6298    0.6936 H   0  0  0  0  0  0  0  0  0  0  0  0
   14.4552    3.6992    1.4255 H   0  0  0  0  0  0  0  0  0  0  0  0
   14.7927    5.0220    2.5335 H   0  0  0  0  0  0  0  0  0  0  0  0
   12.7765    7.1663    0.7528 H   0  0  0  0  0  0  0  0  0  0  0  0
   11.7998    9.1608    1.6138 H   0  0  0  0  0  0  0  0  0  0  0  0
   10.2315    6.8751    4.9222 H   0  0  0  0  0  0  0  0  0  0  0  0
   11.3661    4.8959    4.1229 H   0  0  0  0  0  0  0  0  0  0  0  0
   10.5302    9.6577    4.8522 H   0  0  0  0  0  0  0  0  0  0  0  0
   10.6799   10.3329    3.2596 H   0  0  0  0  0  0  0  0  0  0  0  0
    8.6068    7.9377    5.1108 H   0  0  0  0  0  0  0  0  0  0  0  0
    4.8554    9.2129    3.5456 H   0  0  0  0  0  0  0  0  0  0  0  0
    5.9962   11.0934    2.4457 H   0  0  0  0  0  0  0  0  0  0  0  0
    6.4214    6.3420    3.6459 H   0  0  0  0  0  0  0  0  0  0  0  0
    6.5199    6.7930    6.6830 H   0  0  0  0  0  0  0  0  0  0  0  0
    6.4129    4.1488    5.1395 H   0  0  0  0  0  0  0  0  0  0  0  0
    4.1794    5.4239    6.7526 H   0  0  0  0  0  0  0  0  0  0  0  0
    4.4164    5.1812    3.6874 H   0  0  0  0  0  0  0  0  0  0  0  0
    2.1806    6.2423    6.8277 H   0  0  0  0  0  0  0  0  0  0  0  0
    2.3888    7.7856    5.9475 H   0  0  0  0  0  0  0  0  0  0  0  0
    0.8190    6.9644    5.9775 H   0  0  0  0  0  0  0  0  0  0  0  0
    4.2903    3.1048    5.0936 H   0  0  0  0  0  0  0  0  0  0  0  0
    6.2475    4.8237    7.8817 H   0  0  0  0  0  0  0  0  0  0  0  0
    8.3259    5.4386    4.9326 H   0  0  0  0  0  0  0  0  0  0  0  0
  1  2  1  0  0  0  0
  1 29  1  0  0  0  0
  1 30  1  0  0  0  0
  1 31  1  0  0  0  0
  2  3  1  0  0  0  0
  2 32  1  0  0  0  0
  2 33  1  0  0  0  0
  3  4  1  0  0  0  0
  4  5  2  0  0  0  0
  4  9  1  0  0  0  0
  5  6  1  0  0  0  0
  5 34  1  0  0  0  0
  6  7  2  0  0  0  0
  6 35  1  0  0  0  0
  7  8  1  0  0  0  0
  7 10  1  0  0  0  0
  8  9  2  0  0  0  0
  8 36  1  0  0  0  0
  9 37  1  0  0  0  0
 10 11  1  0  0  0  0
 10 38  1  0  0  0  0
 10 39  1  0  0  0  0
 11 12  2  0  0  0  0
 11 16  1  0  0  0  0
 12 13  1  0  0  0  0
 12 40  1  0  0  0  0
 13 14  2  0  0  0  0
 14 15  1  0  0  0  0
 14 41  1  0  0  0  0
 15 16  2  0  0  0  0
 15 42  1  0  0  0  0
 16 17  1  0  0  0  0
 18 19  1  0  0  0  0
 18 23  1  0  0  0  0
 18 43  1  6  0  0  0
 18 13  1  0  0  0  0
 19 20  1  0  0  0  0
 19 28  1  0  0  0  0
 19 44  1  1  0  0  0
 20 21  1  0  0  0  0
 20 27  1  0  0  0  0
 20 45  1  6  0  0  0
 21 22  1  0  0  0  0
 21 26  1  0  0  0  0
 21 46  1  1  0  0  0
 22 23  1  0  0  0  0
 22 24  1  0  0  0  0
 22 47  1  6  0  0  0
 24 25  1  0  0  0  0
 25 48  1  0  0  0  0
 25 49  1  0  0  0  0
 25 50  1  0  0  0  0
 26 51  1  0  0  0  0
 27 52  1  0  0  0  0
 28 53  1  0  0  0  0
M  END
>  <DRUGBANK_ID>
DB12713

>  <COMMON_NAME>
Sotagliflozin

>  <CAS_NUMBER>
1018899-04-1

>  <UNII>
6B4ZBS263Y

>  <SYNONYMS>
Sotagliflozin

$$$$
