
 OpenBabel10282417233D

 65 68  0  0  0  0  0  0  0  0999 V2000
   -9.7500   -4.5572    3.8734 C   0  0  0  0  0  0  0  0  0  0  0  0
   -9.3029   -5.9951    4.0682 C   0  0  0  0  0  0  0  0  0  0  0  0
  -10.2253   -7.0981    3.5019 C   0  0  0  0  0  0  0  0  0  0  0  0
  -10.4798   -6.9860    2.0162 C   0  0  0  0  0  0  0  0  0  0  0  0
  -11.0970   -5.8238    1.5628 C   0  0  0  0  0  0  0  0  0  0  0  0
  -11.2727   -5.5783    0.2285 C   0  0  0  0  0  0  0  0  0  0  0  0
  -10.9506   -6.5594   -0.7224 C   0  0  0  0  0  0  0  0  0  0  0  0
  -11.2938   -6.1219   -2.1097 C   0  0  0  0  0  0  0  0  0  0  0  0
  -10.2800   -5.9089   -3.0414 O   0  0  0  0  0  0  0  0  0  0  0  0
   -9.1114   -5.3409   -2.6463 C   0  0  0  0  0  0  0  0  0  0  0  0
   -8.5492   -5.2208   -1.2746 C   0  0  0  0  0  0  0  0  0  0  0  0
   -7.2888   -4.8096   -0.9628 C   0  0  0  0  0  0  0  0  0  0  0  0
   -6.6149   -4.6255   -2.0699 C   0  0  0  0  0  0  0  0  0  0  0  0
   -7.1202   -4.9303   -3.5011 C   0  0  0  0  0  0  0  0  0  0  0  0
   -8.4104   -5.1176   -3.7976 C   0  0  0  0  0  0  0  0  0  0  0  0
   -5.6038   -3.4413   -1.6822 C   0  0  0  0  0  0  0  0  0  0  0  0
   -5.6274   -3.1396   -3.0848 C   0  0  0  0  0  0  0  0  0  0  0  0
   -5.5250   -2.5911   -0.6051 C   0  0  0  0  0  0  0  0  0  0  0  0
   -5.7091   -2.4778    1.1358 C   0  0  0  0  0  0  0  0  0  0  0  0
   -5.0534   -3.9540    1.9892 N   0  0  0  0  0  0  0  0  0  0  0  0
   -5.0414   -5.6046    1.5382 C   0  0  0  0  0  0  0  0  0  0  0  0
   -4.8959   -5.8181    3.0446 C   0  0  3  0  0  0  0  0  0  0  0  0
   -5.5972   -4.3906    3.2253 C   0  0  0  0  0  0  0  0  0  0  0  0
   -5.5914   -7.0371    3.7212 C   0  0  0  0  0  0  0  0  0  0  0  0
   -4.7761   -7.7786    4.5219 O   0  0  0  0  0  0  0  0  0  0  0  0
   -6.7562   -7.3902    3.6170 O   0  0  0  0  0  0  0  0  0  0  0  0
   -4.6461   -3.5452   -0.0828 C   0  0  0  0  0  0  0  0  0  0  0  0
   -6.5155   -4.2765    0.1834 C   0  0  0  0  0  0  0  0  0  0  0  0
  -10.2928   -7.7426   -0.3145 C   0  0  0  0  0  0  0  0  0  0  0  0
   -9.7136   -8.7112   -1.1071 O   0  0  0  0  0  0  0  0  0  0  0  0
   -9.5298   -8.4433   -2.4924 C   0  0  0  0  0  0  0  0  0  0  0  0
  -10.1199   -7.9653    1.0723 C   0  0  0  0  0  0  0  0  0  0  0  0
   -9.6835   -4.2812    2.8166 H   0  0  0  0  0  0  0  0  0  0  0  0
   -9.0781   -3.8510    4.3622 H   0  0  0  0  0  0  0  0  0  0  0  0
  -10.7677   -4.4179    4.2464 H   0  0  0  0  0  0  0  0  0  0  0  0
   -8.3468   -6.0406    3.5627 H   0  0  0  0  0  0  0  0  0  0  0  0
   -9.1415   -6.1748    5.1378 H   0  0  0  0  0  0  0  0  0  0  0  0
   -9.7972   -8.0808    3.7402 H   0  0  0  0  0  0  0  0  0  0  0  0
  -11.1958   -7.0476    4.0093 H   0  0  0  0  0  0  0  0  0  0  0  0
  -11.4332   -5.0529    2.2406 H   0  0  0  0  0  0  0  0  0  0  0  0
  -11.5526   -4.5678   -0.0742 H   0  0  0  0  0  0  0  0  0  0  0  0
  -11.9572   -6.8819   -2.5170 H   0  0  0  0  0  0  0  0  0  0  0  0
  -11.8456   -5.1806   -2.1242 H   0  0  0  0  0  0  0  0  0  0  0  0
   -9.0584   -5.5118   -0.3838 H   0  0  0  0  0  0  0  0  0  0  0  0
   -6.5190   -4.7204   -4.3983 H   0  0  0  0  0  0  0  0  0  0  0  0
   -8.7945   -5.1472   -4.8237 H   0  0  0  0  0  0  0  0  0  0  0  0
   -5.1186   -4.2270   -3.1944 H   0  0  0  0  0  0  0  0  0  0  0  0
   -6.7033   -2.7551   -2.9378 H   0  0  0  0  0  0  0  0  0  0  0  0
   -5.2342   -2.8019   -3.9586 H   0  0  0  0  0  0  0  0  0  0  0  0
   -6.3061   -2.0160    1.9194 H   0  0  0  0  0  0  0  0  0  0  0  0
   -6.6768   -2.1453    0.6502 H   0  0  0  0  0  0  0  0  0  0  0  0
   -5.9220   -6.2004    1.1807 H   0  0  0  0  0  0  0  0  0  0  0  0
   -4.2439   -6.0076    0.8819 H   0  0  0  0  0  0  0  0  0  0  0  0
   -3.8164   -5.8487    3.2368 H   0  0  0  0  0  0  0  0  0  0  0  0
   -5.1669   -3.7754    4.0033 H   0  0  0  0  0  0  0  0  0  0  0  0
   -6.6791   -4.3524    3.1945 H   0  0  0  0  0  0  0  0  0  0  0  0
   -3.8401   -7.5153    4.5031 H   0  0  0  0  0  0  0  0  0  0  0  0
   -4.0600   -2.5384   -0.4443 H   0  0  0  0  0  0  0  0  0  0  0  0
   -3.9084   -3.1070    0.7980 H   0  0  0  0  0  0  0  0  0  0  0  0
   -7.3157   -3.5748    0.5260 H   0  0  0  0  0  0  0  0  0  0  0  0
   -6.8158   -4.8309    1.0712 H   0  0  0  0  0  0  0  0  0  0  0  0
  -10.4923   -8.2932   -2.9828 H   0  0  0  0  0  0  0  0  0  0  0  0
   -8.8117   -7.6413   -2.6389 H   0  0  0  0  0  0  0  0  0  0  0  0
   -9.0658   -9.2764   -3.0214 H   0  0  0  0  0  0  0  0  0  0  0  0
   -9.7047   -8.9148    1.4098 H   0  0  0  0  0  0  0  0  0  0  0  0
  1  2  1  0  0  0  0
  1 33  1  0  0  0  0
  1 34  1  0  0  0  0
  1 35  1  0  0  0  0
  2  3  1  0  0  0  0
  2 36  1  0  0  0  0
  2 37  1  0  0  0  0
  3  4  1  0  0  0  0
  3 38  1  0  0  0  0
  3 39  1  0  0  0  0
  4  5  2  0  0  0  0
  4 32  1  0  0  0  0
  5  6  1  0  0  0  0
  5 40  1  0  0  0  0
  6  7  2  0  0  0  0
  6 41  1  0  0  0  0
  7  8  1  0  0  0  0
  7 29  1  0  0  0  0
  8  9  1  0  0  0  0
  8 42  1  0  0  0  0
  8 43  1  0  0  0  0
  9 10  1  0  0  0  0
 10 11  2  0  0  0  0
 10 15  1  0  0  0  0
 11 12  1  0  0  0  0
 11 44  1  0  0  0  0
 12 13  2  0  0  0  0
 12 28  1  0  0  0  0
 13 14  1  0  0  0  0
 13 16  1  0  0  0  0
 14 15  2  0  0  0  0
 14 45  1  0  0  0  0
 15 46  1  0  0  0  0
 16 17  1  0  0  0  0
 16 18  2  0  0  0  0
 17 47  1  0  0  0  0
 17 48  1  0  0  0  0
 17 49  1  0  0  0  0
 18 19  1  0  0  0  0
 18 27  1  0  0  0  0
 19 20  1  0  0  0  0
 19 50  1  0  0  0  0
 19 51  1  0  0  0  0
 20 21  1  0  0  0  0
 20 23  1  0  0  0  0
 21 22  1  0  0  0  0
 21 52  1  0  0  0  0
 21 53  1  0  0  0  0
 22 23  1  0  0  0  0
 22 24  1  0  0  0  0
 22 54  1  0  0  0  0
 23 55  1  0  0  0  0
 23 56  1  0  0  0  0
 24 25  1  0  0  0  0
 24 26  2  0  0  0  0
 25 57  1  0  0  0  0
 27 28  1  0  0  0  0
 27 58  1  0  0  0  0
 27 59  1  0  0  0  0
 28 60  1  0  0  0  0
 28 61  1  0  0  0  0
 29 30  1  0  0  0  0
 29 32  2  0  0  0  0
 30 31  1  0  0  0  0
 31 62  1  0  0  0  0
 31 63  1  0  0  0  0
 31 64  1  0  0  0  0
 32 65  1  0  0  0  0
M  END
>  <DRUGBANK_ID>
DB16123

>  <COMMON_NAME>
Ceralifimod

>  <CAS_NUMBER>
891859-12-4

>  <UNII>
BZ2O8A84A4

>  <SYNONYMS>
Ceralifimod

$$$$
