
 OpenBabel10282417173D

 50 50  0  0  0  0  0  0  0  0999 V2000
   -1.4422    0.3347   -0.2281 C   0  0  0  0  0  0  0  0  0  0  0  0
   -1.0213   -1.0626    0.2138 C   0  0  0  0  0  0  0  0  0  0  0  0
    0.3898   -1.3787   -0.2786 C   0  0  0  0  0  0  0  0  0  0  0  0
    1.4387   -0.3568    0.2367 C   0  0  0  0  0  0  0  0  0  0  0  0
    0.9813    1.0635   -0.2084 C   0  0  0  0  0  0  0  0  0  0  0  0
   -0.4469    1.4010    0.2228 C   0  0  0  0  0  0  0  0  0  0  0  0
    1.5529   -0.4039    1.7942 C   0  0  0  0  0  0  0  0  0  0  0  0
    2.8458   -0.6591   -0.3532 C   0  0  0  0  0  0  0  0  0  0  0  0
    2.8939   -0.6124   -1.8002 N   0  0  0  0  0  0  0  0  0  0  0  0
    3.6041    0.3375   -2.4852 C   0  0  0  0  0  0  0  0  0  0  0  0
    3.4672    0.3635   -3.8360 O   0  0  0  0  0  0  0  0  0  0  0  0
    4.3358    1.1541   -1.9322 O   0  0  0  0  0  0  0  0  0  0  0  0
    2.6581   -0.5460   -4.5970 C   0  0  3  0  0  0  0  0  0  0  0  0
    3.0176   -1.9156   -4.3797 O   0  0  0  0  0  0  0  0  0  0  0  0
    1.1778   -0.2940   -4.3135 C   0  0  0  0  0  0  0  0  0  0  0  0
    4.2622   -2.3891   -4.6593 C   0  0  0  0  0  0  0  0  0  0  0  0
    5.2961   -1.4783   -5.3196 C   0  0  0  0  0  0  0  0  0  0  0  0
    4.5350   -3.5557   -4.3801 O   0  0  0  0  0  0  0  0  0  0  0  0
    6.5163   -1.3308   -4.4123 C   0  0  0  0  0  0  0  0  0  0  0  0
    5.7128   -2.0617   -6.6670 C   0  0  0  0  0  0  0  0  0  0  0  0
    1.9329   -1.7705    2.3362 C   0  0  0  0  0  0  0  0  0  0  0  0
    3.0931   -1.8020    3.0202 O   0  0  0  0  0  0  0  0  0  0  0  0
    1.2612   -2.7787    2.1809 O   0  0  0  0  0  0  0  0  0  0  0  0
   -1.5223    0.3541   -1.3223 H   0  0  0  0  0  0  0  0  0  0  0  0
   -2.4357    0.5648    0.1706 H   0  0  0  0  0  0  0  0  0  0  0  0
   -1.0787   -1.1398    1.3052 H   0  0  0  0  0  0  0  0  0  0  0  0
   -1.7210   -1.8060   -0.1828 H   0  0  0  0  0  0  0  0  0  0  0  0
    0.6597   -2.4014   -0.0044 H   0  0  0  0  0  0  0  0  0  0  0  0
    0.3672   -1.3868   -1.3726 H   0  0  0  0  0  0  0  0  0  0  0  0
    1.6699    1.8258    0.1765 H   0  0  0  0  0  0  0  0  0  0  0  0
    1.0180    1.1440   -1.3027 H   0  0  0  0  0  0  0  0  0  0  0  0
   -0.7351    2.3713   -0.1981 H   0  0  0  0  0  0  0  0  0  0  0  0
   -0.4915    1.5121    1.3114 H   0  0  0  0  0  0  0  0  0  0  0  0
    2.2707    0.3513    2.1378 H   0  0  0  0  0  0  0  0  0  0  0  0
    0.6094   -0.1388    2.2831 H   0  0  0  0  0  0  0  0  0  0  0  0
    3.5714    0.0536    0.0556 H   0  0  0  0  0  0  0  0  0  0  0  0
    3.1734   -1.6641   -0.0717 H   0  0  0  0  0  0  0  0  0  0  0  0
    2.4142   -1.3489   -2.2991 H   0  0  0  0  0  0  0  0  0  0  0  0
    2.8015   -0.3287   -5.6627 H   0  0  0  0  0  0  0  0  0  0  0  0
    0.9209    0.7417   -4.5575 H   0  0  0  0  0  0  0  0  0  0  0  0
    0.5356   -0.9824   -4.8677 H   0  0  0  0  0  0  0  0  0  0  0  0
    0.9202   -0.4160   -3.2621 H   0  0  0  0  0  0  0  0  0  0  0  0
    4.9109   -0.4797   -5.5191 H   0  0  0  0  0  0  0  0  0  0  0  0
    6.9974   -2.2979   -4.2292 H   0  0  0  0  0  0  0  0  0  0  0  0
    7.2602   -0.6687   -4.8697 H   0  0  0  0  0  0  0  0  0  0  0  0
    6.2388   -0.9088   -3.4415 H   0  0  0  0  0  0  0  0  0  0  0  0
    4.8481   -2.1638   -7.3303 H   0  0  0  0  0  0  0  0  0  0  0  0
    6.4439   -1.4099   -7.1587 H   0  0  0  0  0  0  0  0  0  0  0  0
    6.1680   -3.0510   -6.5516 H   0  0  0  0  0  0  0  0  0  0  0  0
    3.5437   -0.9474    3.1425 H   0  0  0  0  0  0  0  0  0  0  0  0
  1  2  1  0  0  0  0
  1 24  1  0  0  0  0
  1 25  1  0  0  0  0
  2  3  1  0  0  0  0
  2 26  1  0  0  0  0
  2 27  1  0  0  0  0
  3  4  1  0  0  0  0
  3 28  1  0  0  0  0
  3 29  1  0  0  0  0
  4  5  1  0  0  0  0
  4  7  1  0  0  0  0
  4  8  1  0  0  0  0
  5  6  1  0  0  0  0
  5 30  1  0  0  0  0
  5 31  1  0  0  0  0
  6  1  1  0  0  0  0
  6 32  1  0  0  0  0
  6 33  1  0  0  0  0
  7 21  1  0  0  0  0
  7 34  1  0  0  0  0
  7 35  1  0  0  0  0
  8  9  1  0  0  0  0
  8 36  1  0  0  0  0
  8 37  1  0  0  0  0
  9 10  1  0  0  0  0
  9 38  1  0  0  0  0
 10 11  1  0  0  0  0
 10 12  2  0  0  0  0
 11 13  1  0  0  0  0
 13 14  1  0  0  0  0
 13 15  1  0  0  0  0
 13 39  1  0  0  0  0
 14 16  1  0  0  0  0
 15 40  1  0  0  0  0
 15 41  1  0  0  0  0
 15 42  1  0  0  0  0
 16 17  1  0  0  0  0
 16 18  2  0  0  0  0
 17 19  1  0  0  0  0
 17 20  1  0  0  0  0
 17 43  1  0  0  0  0
 19 44  1  0  0  0  0
 19 45  1  0  0  0  0
 19 46  1  0  0  0  0
 20 47  1  0  0  0  0
 20 48  1  0  0  0  0
 20 49  1  0  0  0  0
 21 22  1  0  0  0  0
 21 23  2  0  0  0  0
 22 50  1  0  0  0  0
M  END
>  <DRUGBANK_ID>
DB08872

>  <SECONDARY_ACCESSION_NUMBERS>
DB04922

>  <COMMON_NAME>
Gabapentin enacarbil

>  <CAS_NUMBER>
478296-72-9

>  <UNII>
75OCL1SPBQ

>  <SYNONYMS>
Gabapentin enacarbil; Gabapentina enacarbilo; Gabapentine enacarbil; Gabapentinum enacarbilum

$$$$
