
 OpenBabel10282417113D

 39 41  0  0  0  0  0  0  0  0999 V2000
    0.9109   -0.3856    0.1411 C   0  0  0  0  0  0  0  0  0  0  0  0
    0.3880   -0.5277   -1.2135 N   0  0  0  0  0  0  0  0  0  0  0  0
   -1.0781   -0.5374   -1.2092 C   0  0  0  0  0  0  0  0  0  0  0  0
    0.8569    0.5650   -2.0640 C   0  0  0  0  0  0  0  0  0  0  0  0
    0.2277    1.9233   -1.7281 C   0  0  0  0  0  0  0  0  0  0  0  0
    0.8175    2.6252   -0.5280 C   0  0  0  0  0  0  0  0  0  0  0  0
    1.7056    3.5992   -0.3091 C   0  0  0  0  0  0  0  0  0  0  0  0
    2.1614    3.7962    1.1414 C   0  0  0  0  0  0  0  0  0  0  0  0
    1.8290    2.9016    2.2001 C   0  0  0  0  0  0  0  0  0  0  0  0
    2.2483    3.0998    3.5225 C   0  0  0  0  0  0  0  0  0  0  0  0
    3.0443    4.1848    3.8304 C   0  0  0  0  0  0  0  0  0  0  0  0
    3.4187    5.0576    2.8154 C   0  0  0  0  0  0  0  0  0  0  0  0
    2.9926    4.8713    1.4842 C   0  0  0  0  0  0  0  0  0  0  0  0
    3.6104    6.0877    0.3504 S   0  0  0  0  0  0  0  0  0  0  0  0
    2.9807    5.5816   -1.2223 C   0  0  0  0  0  0  0  0  0  0  0  0
    3.3132    6.4312   -2.3031 C   0  0  0  0  0  0  0  0  0  0  0  0
    2.8730    6.1987   -3.6075 C   0  0  0  0  0  0  0  0  0  0  0  0
    2.0810    5.1200   -3.8388 C   0  0  0  0  0  0  0  0  0  0  0  0
    1.4488    4.7273   -5.3916 Cl  0  0  0  0  0  0  0  0  0  0  0  0
    1.7415    4.3206   -2.7663 C   0  0  0  0  0  0  0  0  0  0  0  0
    2.1730    4.4754   -1.4392 C   0  0  0  0  0  0  0  0  0  0  0  0
    0.7461   -1.2857    0.7314 H   0  0  0  0  0  0  0  0  0  0  0  0
    0.3950    0.3977    0.6891 H   0  0  0  0  0  0  0  0  0  0  0  0
    1.9865   -0.1640    0.1393 H   0  0  0  0  0  0  0  0  0  0  0  0
   -1.5171    0.3815   -0.8064 H   0  0  0  0  0  0  0  0  0  0  0  0
   -1.4570   -0.6627   -2.2307 H   0  0  0  0  0  0  0  0  0  0  0  0
   -1.4651   -1.3395   -0.5850 H   0  0  0  0  0  0  0  0  0  0  0  0
    1.9569    0.6292   -2.0915 H   0  0  0  0  0  0  0  0  0  0  0  0
    0.5906    0.3282   -3.1071 H   0  0  0  0  0  0  0  0  0  0  0  0
    0.2332    2.3639   -2.6925 H   0  0  0  0  0  0  0  0  0  0  0  0
   -0.8531    1.9458   -1.5967 H   0  0  0  0  0  0  0  0  0  0  0  0
    0.3222    2.2335    0.3554 H   0  0  0  0  0  0  0  0  0  0  0  0
    1.2354    2.0065    2.0519 H   0  0  0  0  0  0  0  0  0  0  0  0
    1.9487    2.3996    4.2999 H   0  0  0  0  0  0  0  0  0  0  0  0
    3.3829    4.3538    4.8480 H   0  0  0  0  0  0  0  0  0  0  0  0
    4.0570    5.9023    3.0658 H   0  0  0  0  0  0  0  0  0  0  0  0
    3.9221    7.3086   -2.1196 H   0  0  0  0  0  0  0  0  0  0  0  0
    3.1277    6.8587   -4.4235 H   0  0  0  0  0  0  0  0  0  0  0  0
    1.0551    3.6044   -3.1005 H   0  0  0  0  0  0  0  0  0  0  0  0
  1  2  1  0  0  0  0
  1 22  1  0  0  0  0
  1 23  1  0  0  0  0
  1 24  1  0  0  0  0
  2  3  1  0  0  0  0
  2  4  1  0  0  0  0
  3 25  1  0  0  0  0
  3 26  1  0  0  0  0
  3 27  1  0  0  0  0
  4  5  1  0  0  0  0
  4 28  1  0  0  0  0
  4 29  1  0  0  0  0
  5  6  1  0  0  0  0
  5 30  1  0  0  0  0
  5 31  1  0  0  0  0
  6  7  2  0  0  0  0
  6 32  1  0  0  0  0
  7  8  1  0  0  0  0
  7 21  1  0  0  0  0
  8  9  2  0  0  0  0
  8 13  1  0  0  0  0
  9 10  1  0  0  0  0
  9 33  1  0  0  0  0
 10 11  2  0  0  0  0
 10 34  1  0  0  0  0
 11 12  1  0  0  0  0
 11 35  1  0  0  0  0
 12 13  2  0  0  0  0
 12 36  1  0  0  0  0
 13 14  1  0  0  0  0
 14 15  1  0  0  0  0
 15 16  2  0  0  0  0
 15 21  1  0  0  0  0
 16 17  1  0  0  0  0
 16 37  1  0  0  0  0
 17 18  2  0  0  0  0
 17 38  1  0  0  0  0
 18 19  1  0  0  0  0
 18 20  1  0  0  0  0
 20 21  2  0  0  0  0
 20 39  1  0  0  0  0
M  END
>  <DRUGBANK_ID>
DB01239

>  <SECONDARY_ACCESSION_NUMBERS>
APRD00718

>  <COMMON_NAME>
Chlorprothixene

>  <CAS_NUMBER>
113-59-7

>  <UNII>
9S7OD60EWP

>  <SYNONYMS>
Alpha-Chlorprothixene; Chlorprothixen; Chlorprothixene; Chlorprothixine; Chlorprotixen; Chlorprotixene; Chlorprotixine; Chlothixen

$$$$
