
 OpenBabel10282417143D

 54 53  0  0  0  0  0  0  0  0999 V2000
   -3.1363    4.2831   -2.3765 O   0  0  0  0  0  0  0  0  0  0  0  0
   -1.7982    4.1498   -2.4135 C   0  0  0  0  0  0  0  0  0  0  0  0
   -1.3273    2.8091   -2.9104 C   0  0  0  0  0  0  0  0  0  0  0  0
   -1.7155    1.6776   -1.9585 C   0  0  0  0  0  0  0  0  0  0  0  0
   -3.2344    1.5171   -1.8485 C   0  0  0  0  0  0  0  0  0  0  0  0
   -3.8535    1.2643   -3.2288 C   0  0  0  0  0  0  0  0  0  0  0  0
   -3.3367   -0.0597   -3.7945 C   0  0  0  0  0  0  0  0  0  0  0  0
   -3.7040   -1.2015   -2.8413 C   0  0  0  0  0  0  0  0  0  0  0  0
   -5.2267   -1.2782   -2.6706 C   0  0  0  0  0  0  0  0  0  0  0  0
   -5.8891   -1.5345   -4.0210 C   0  0  0  0  0  0  0  0  0  0  0  0
   -5.3217   -2.7985   -4.6442 C   0  0  0  0  0  0  0  0  0  0  0  0
   -5.6913   -3.9634   -3.7837 C   0  0  0  0  0  0  0  0  0  0  0  0
   -6.5134   -4.9268   -4.1888 C   0  0  0  0  0  0  0  0  0  0  0  0
   -1.0737    5.0679   -2.0503 O   0  0  0  0  0  0  0  0  0  0  0  0
   -7.0263   -5.0207   -5.5896 C   0  0  0  0  0  0  0  0  0  0  0  0
   -6.4648   -6.2744   -6.2386 C   0  0  0  0  0  0  0  0  0  0  0  0
   -6.9963   -7.5250   -5.5413 C   0  0  0  0  0  0  0  0  0  0  0  0
   -8.5304   -7.5654   -5.5656 C   0  0  0  0  0  0  0  0  0  0  0  0
   -9.0785   -7.5495   -6.9941 C   0  0  0  0  0  0  0  0  0  0  0  0
   -8.5782   -8.7588   -7.7660 C   0  0  0  0  0  0  0  0  0  0  0  0
   -3.3239    5.1105   -1.8887 H   0  0  0  0  0  0  0  0  0  0  0  0
   -1.6977    2.6528   -3.9294 H   0  0  0  0  0  0  0  0  0  0  0  0
   -0.2378    2.8346   -3.0068 H   0  0  0  0  0  0  0  0  0  0  0  0
   -1.2621    0.7410   -2.3110 H   0  0  0  0  0  0  0  0  0  0  0  0
   -1.2913    1.8424   -0.9638 H   0  0  0  0  0  0  0  0  0  0  0  0
   -3.4710    0.7175   -1.1399 H   0  0  0  0  0  0  0  0  0  0  0  0
   -3.6995    2.3836   -1.3781 H   0  0  0  0  0  0  0  0  0  0  0  0
   -4.9450    1.2767   -3.1507 H   0  0  0  0  0  0  0  0  0  0  0  0
   -3.6469    2.0703   -3.9374 H   0  0  0  0  0  0  0  0  0  0  0  0
   -3.7403   -0.2145   -4.8008 H   0  0  0  0  0  0  0  0  0  0  0  0
   -2.2543   -0.0427   -3.9518 H   0  0  0  0  0  0  0  0  0  0  0  0
   -3.2750   -2.1375   -3.2080 H   0  0  0  0  0  0  0  0  0  0  0  0
   -3.2325   -1.0928   -1.8623 H   0  0  0  0  0  0  0  0  0  0  0  0
   -5.4777   -2.0577   -1.9465 H   0  0  0  0  0  0  0  0  0  0  0  0
   -5.6435   -0.3678   -2.2310 H   0  0  0  0  0  0  0  0  0  0  0  0
   -6.9773   -1.6018   -3.9063 H   0  0  0  0  0  0  0  0  0  0  0  0
   -5.7306   -0.7010   -4.7149 H   0  0  0  0  0  0  0  0  0  0  0  0
   -5.6964   -2.8329   -5.6625 H   0  0  0  0  0  0  0  0  0  0  0  0
   -4.2389   -2.7923   -4.7838 H   0  0  0  0  0  0  0  0  0  0  0  0
   -5.3164   -4.0100   -2.7620 H   0  0  0  0  0  0  0  0  0  0  0  0
   -6.7821   -5.7006   -3.4718 H   0  0  0  0  0  0  0  0  0  0  0  0
   -8.1164   -4.9708   -5.5721 H   0  0  0  0  0  0  0  0  0  0  0  0
   -6.7487   -4.1925   -6.2364 H   0  0  0  0  0  0  0  0  0  0  0  0
   -6.7289   -6.2653   -7.3017 H   0  0  0  0  0  0  0  0  0  0  0  0
   -5.3671   -6.2653   -6.2171 H   0  0  0  0  0  0  0  0  0  0  0  0
   -6.5649   -8.4114   -6.0125 H   0  0  0  0  0  0  0  0  0  0  0  0
   -6.6461   -7.5695   -4.5048 H   0  0  0  0  0  0  0  0  0  0  0  0
   -8.8772   -8.4561   -5.0344 H   0  0  0  0  0  0  0  0  0  0  0  0
   -8.9547   -6.7219   -5.0075 H   0  0  0  0  0  0  0  0  0  0  0  0
  -10.1722   -7.5442   -6.9665 H   0  0  0  0  0  0  0  0  0  0  0  0
   -8.7930   -6.6307   -7.5210 H   0  0  0  0  0  0  0  0  0  0  0  0
   -8.8887   -9.6765   -7.2580 H   0  0  0  0  0  0  0  0  0  0  0  0
   -8.9697   -8.7590   -8.7838 H   0  0  0  0  0  0  0  0  0  0  0  0
   -7.4865   -8.7704   -7.8457 H   0  0  0  0  0  0  0  0  0  0  0  0
  1 21  1  0  0  0  0
  2  1  1  0  0  0  0
  2 14  2  0  0  0  0
  2  3  1  0  0  0  0
  3  4  1  0  0  0  0
  3 22  1  0  0  0  0
  3 23  1  0  0  0  0
  4  5  1  0  0  0  0
  4 24  1  0  0  0  0
  4 25  1  0  0  0  0
  5  6  1  0  0  0  0
  5 26  1  0  0  0  0
  5 27  1  0  0  0  0
  6  7  1  0  0  0  0
  6 28  1  0  0  0  0
  6 29  1  0  0  0  0
  7  8  1  0  0  0  0
  7 30  1  0  0  0  0
  7 31  1  0  0  0  0
  8  9  1  0  0  0  0
  8 32  1  0  0  0  0
  8 33  1  0  0  0  0
  9 10  1  0  0  0  0
  9 34  1  0  0  0  0
  9 35  1  0  0  0  0
 10 11  1  0  0  0  0
 10 36  1  0  0  0  0
 10 37  1  0  0  0  0
 11 38  1  0  0  0  0
 11 39  1  0  0  0  0
 12 11  1  0  0  0  0
 12 40  1  0  0  0  0
 13 12  2  0  0  0  0
 13 41  1  0  0  0  0
 15 13  1  0  0  0  0
 15 42  1  0  0  0  0
 15 43  1  0  0  0  0
 16 15  1  0  0  0  0
 16 44  1  0  0  0  0
 16 45  1  0  0  0  0
 17 16  1  0  0  0  0
 17 46  1  0  0  0  0
 17 47  1  0  0  0  0
 18 17  1  0  0  0  0
 18 48  1  0  0  0  0
 18 49  1  0  0  0  0
 19 18  1  0  0  0  0
 19 50  1  0  0  0  0
 19 51  1  0  0  0  0
 20 19  1  0  0  0  0
 20 52  1  0  0  0  0
 20 53  1  0  0  0  0
 20 54  1  0  0  0  0
M  END
>  <DRUGBANK_ID>
DB04801

>  <COMMON_NAME>
cis-Vaccenic acid

>  <CAS_NUMBER>
506-17-2

>  <UNII>
400K7322UW

>  <SYNONYMS>
(Z)-11-octadecenoic acid; (Z)-octadec-11-enoic acid; Asclepic acid; cis-11-octadecenoic acid; cis-octadec-11-enoic acid; trans-11-Octadecens√§ure

$$$$
