
 OpenBabel10282417123D

104107  0  0  1  0  0  0  0  0999 V2000
   -3.1215   -6.4702   -0.1320 C   0  0  0  0  0  0  0  0  0  0  0  0
    2.3215   -2.9987   -2.9505 C   0  0  0  0  0  0  0  0  0  0  0  0
    1.3876   -2.5174    3.0236 C   0  0  0  0  0  0  0  0  0  0  0  0
   -0.1631   -7.5772   -2.0978 C   0  0  0  0  0  0  0  0  0  0  0  0
   -3.4752    2.0356   -2.4396 C   0  0  0  0  0  0  0  0  0  0  0  0
   -0.5128   -4.3259   -0.2379 C   0  0  0  0  0  0  0  0  0  0  0  0
    0.0279   -5.3780   -1.7695 C   0  0  0  0  0  0  0  0  0  0  0  0
   -3.7407   -3.2565   -1.6546 C   0  0  0  0  0  0  0  0  0  0  0  0
   -1.8487   -6.9938    3.9718 C   0  0  0  0  0  0  0  0  0  0  0  0
   -1.8539   -6.1436   -0.2834 C   0  0  0  0  0  0  0  0  0  0  0  0
   -2.0171   -4.7125    3.0876 C   0  0  0  0  0  0  0  0  0  0  0  0
   -0.5184   -4.9836    2.2139 C   0  0  0  0  0  0  0  0  0  0  0  0
   -1.5826   -1.1949   -0.0046 C   0  0  0  0  0  0  0  0  0  0  0  0
   -3.1816   -3.2119    0.8008 C   0  0  0  0  0  0  0  0  0  0  0  0
    0.3090   -4.2592   -3.9183 C   0  0  0  0  0  0  0  0  0  0  0  0
   -3.8896   -5.9663    3.1937 C   0  0  0  0  0  0  0  0  0  0  0  0
   -1.7771   -2.8282   -3.1764 C   0  0  0  0  0  0  0  0  0  0  0  0
    0.8488   -3.1047   -2.3817 C   0  0  2  0  0  0  0  0  0  0  0  0
   -0.0967   -2.2489    2.8764 C   0  0  2  0  0  0  0  0  0  0  0  0
   -1.4668   -6.7363   -3.0485 C   0  0  0  0  0  0  0  0  0  0  0  0
   -3.5035    2.2866   -0.9695 C   0  0  0  0  0  0  0  0  0  0  0  0
   -3.2978   -4.7868    2.3763 C   0  0  2  0  0  0  0  0  0  0  0  0
   -0.7580   -3.5166    2.2292 C   0  0  1  0  0  0  0  0  0  0  0  0
   -0.0195   -1.9001   -0.9809 C   0  0  0  0  0  0  0  0  0  0  0  0
   -2.5257   -3.6219    1.8936 C   0  0  0  0  0  0  0  0  0  0  0  0
   -1.5357   -1.3855   -2.6849 C   0  0  2  0  0  0  0  0  0  0  0  0
   -3.1198   -1.0226    0.3404 C   0  0  1  0  0  0  0  0  0  0  0  0
   -0.5413   -2.2129    0.0922 C   0  0  0  0  0  0  0  0  0  0  0  0
   -0.3333   -0.8913    2.1992 C   0  0  2  0  0  0  0  0  0  0  0  0
   -2.6235   -0.4880   -2.0796 C   0  0  2  0  0  0  0  0  0  0  0  0
   -0.3995    1.4104   -1.6443 C   0  0  2  0  0  0  0  0  0  0  0  0
    0.3890   -1.0382    0.7846 C   0  0  2  0  0  0  0  0  0  0  0  0
   -1.7105    0.8923   -1.1711 C   0  0  1  0  0  0  0  0  0  0  0  0
    0.4485    0.1925   -1.8113 C   0  0  2  0  0  0  0  0  0  0  0  0
   -1.2326   -5.0928   -1.1566 C   0  0  0  0  0  0  0  0  0  0  0  0
   -2.5652   -2.4647   -0.3065 C   0  0  2  0  0  0  0  0  0  0  0  0
   -2.6640   -6.9800   -2.8227 O   0  0  0  0  0  0  0  0  0  0  0  0
   -4.3737    2.9068   -0.3870 O   0  0  0  0  0  0  0  0  0  0  0  0
   -4.4876   -0.5055    0.3009 O   0  0  0  0  0  0  0  0  0  0  0  0
   -0.2166    0.4721    2.4646 O   0  0  0  0  0  0  0  0  0  0  0  0
   -4.0560   -1.0071   -1.6616 O   0  0  0  0  0  0  0  0  0  0  0  0
    0.2030    2.2487   -0.6110 O   0  0  0  0  0  0  0  0  0  0  0  0
   -3.1323   -6.4650    4.3153 O   0  0  0  0  0  0  0  0  0  0  0  0
   -1.0705   -5.4508   -3.8960 O   0  0  0  0  0  0  0  0  0  0  0  0
   -1.9762   -4.1960   -2.1225 O   0  0  0  0  0  0  0  0  0  0  0  0
   -2.4390    1.8025   -0.3505 O   0  0  0  0  0  0  0  0  0  0  0  0
   -0.2130   -0.7239   -2.8700 O   0  0  0  0  0  0  0  0  0  0  0  0
    0.9484   -0.0616   -0.2895 O   0  0  0  0  0  0  0  0  0  0  0  0
   -4.2025   -3.5223    0.5834 H   0  0  0  0  0  0  0  0  0  0  0  0
    1.3636   -3.7826   -1.6422 H   0  0  0  0  0  0  0  0  0  0  0  0
   -0.5965   -2.2176    3.8509 H   0  0  0  0  0  0  0  0  0  0  0  0
   -3.6993   -5.1807    1.4520 H   0  0  0  0  0  0  0  0  0  0  0  0
   -0.2920   -3.9135    3.2017 H   0  0  0  0  0  0  0  0  0  0  0  0
   -1.4889   -2.0200   -1.8911 H   0  0  0  0  0  0  0  0  0  0  0  0
   -3.0339   -0.0783   -0.1383 H   0  0  0  0  0  0  0  0  0  0  0  0
   -1.4076   -0.9536    2.4480 H   0  0  0  0  0  0  0  0  0  0  0  0
   -3.1262   -0.2136   -2.9747 H   0  0  0  0  0  0  0  0  0  0  0  0
   -0.6453    1.9419   -2.5333 H   0  0  0  0  0  0  0  0  0  0  0  0
    1.3444   -0.9635    1.2701 H   0  0  0  0  0  0  0  0  0  0  0  0
   -1.1116    0.5971   -0.3726 H   0  0  0  0  0  0  0  0  0  0  0  0
    1.3967    0.4545   -2.2873 H   0  0  0  0  0  0  0  0  0  0  0  0
   -3.8656   -5.8600   -0.5981 H   0  0  0  0  0  0  0  0  0  0  0  0
   -3.3730   -7.2719    0.5421 H   0  0  0  0  0  0  0  0  0  0  0  0
    2.6740   -3.9950   -3.3521 H   0  0  0  0  0  0  0  0  0  0  0  0
    2.2856   -2.3508   -3.8110 H   0  0  0  0  0  0  0  0  0  0  0  0
    3.0804   -2.7806   -2.1957 H   0  0  0  0  0  0  0  0  0  0  0  0
    1.7016   -3.5524    2.8905 H   0  0  0  0  0  0  0  0  0  0  0  0
    2.0236   -2.0325    2.3021 H   0  0  0  0  0  0  0  0  0  0  0  0
    1.6145   -2.1405    4.0043 H   0  0  0  0  0  0  0  0  0  0  0  0
    0.0013   -7.2856   -1.0124 H   0  0  0  0  0  0  0  0  0  0  0  0
   -0.2416   -8.6364   -2.0622 H   0  0  0  0  0  0  0  0  0  0  0  0
    0.8523   -7.3350   -2.4667 H   0  0  0  0  0  0  0  0  0  0  0  0
   -4.3655    1.4918   -2.7393 H   0  0  0  0  0  0  0  0  0  0  0  0
   -3.1303    2.9194   -2.9320 H   0  0  0  0  0  0  0  0  0  0  0  0
   -2.6670    1.4193   -2.8088 H   0  0  0  0  0  0  0  0  0  0  0  0
    0.5287   -4.1391    0.1177 H   0  0  0  0  0  0  0  0  0  0  0  0
   -0.5453   -3.6230   -0.9896 H   0  0  0  0  0  0  0  0  0  0  0  0
   -1.2508   -4.0015    0.3829 H   0  0  0  0  0  0  0  0  0  0  0  0
    0.2771   -5.8141   -2.6846 H   0  0  0  0  0  0  0  0  0  0  0  0
   -0.1928   -4.5259   -2.2938 H   0  0  0  0  0  0  0  0  0  0  0  0
    0.9467   -5.4608   -1.2299 H   0  0  0  0  0  0  0  0  0  0  0  0
   -4.3409   -2.6508   -2.3589 H   0  0  0  0  0  0  0  0  0  0  0  0
   -3.5422   -3.7926   -2.6425 H   0  0  0  0  0  0  0  0  0  0  0  0
   -4.2332   -4.1531   -1.3129 H   0  0  0  0  0  0  0  0  0  0  0  0
   -1.9312   -7.7512    3.2051 H   0  0  0  0  0  0  0  0  0  0  0  0
   -1.1312   -6.3241    3.5441 H   0  0  0  0  0  0  0  0  0  0  0  0
   -1.2729   -7.1749    4.8683 H   0  0  0  0  0  0  0  0  0  0  0  0
   -1.1980   -6.7478    0.3473 H   0  0  0  0  0  0  0  0  0  0  0  0
   -2.5217   -4.6452    4.0656 H   0  0  0  0  0  0  0  0  0  0  0  0
   -1.7413   -3.8925    3.8320 H   0  0  0  0  0  0  0  0  0  0  0  0
   -0.4095   -5.5995    1.3215 H   0  0  0  0  0  0  0  0  0  0  0  0
    0.5795   -4.7591    2.0339 H   0  0  0  0  0  0  0  0  0  0  0  0
   -1.4126   -0.3339    0.6482 H   0  0  0  0  0  0  0  0  0  0  0  0
   -1.8189   -1.6438    1.1108 H   0  0  0  0  0  0  0  0  0  0  0  0
    0.1437   -3.6442   -4.8083 H   0  0  0  0  0  0  0  0  0  0  0  0
    1.0361   -5.0364   -4.2215 H   0  0  0  0  0  0  0  0  0  0  0  0
   -4.8760   -5.6361    3.5279 H   0  0  0  0  0  0  0  0  0  0  0  0
   -4.0486   -6.8353    2.5400 H   0  0  0  0  0  0  0  0  0  0  0  0
   -1.2551   -3.0831   -4.0421 H   0  0  0  0  0  0  0  0  0  0  0  0
   -2.7362   -2.6264   -3.6470 H   0  0  0  0  0  0  0  0  0  0  0  0
   -4.7659   -0.1807   -0.6235 H   0  0  0  0  0  0  0  0  0  0  0  0
   -0.3080    0.8817    1.5665 H   0  0  0  0  0  0  0  0  0  0  0  0
   -4.3349   -1.5929   -0.8208 H   0  0  0  0  0  0  0  0  0  0  0  0
    0.7305    1.6639   -0.0068 H   0  0  0  0  0  0  0  0  0  0  0  0
  1 62  1  0  0  0  0
  1 63  1  0  0  0  0
  2 64  1  0  0  0  0
  2 65  1  0  0  0  0
  2 66  1  0  0  0  0
  3 67  1  0  0  0  0
  3 68  1  0  0  0  0
  3 69  1  0  0  0  0
  4 70  1  0  0  0  0
  4 71  1  0  0  0  0
  4 72  1  0  0  0  0
  5 73  1  0  0  0  0
  5 74  1  0  0  0  0
  5 75  1  0  0  0  0
  6 76  1  0  0  0  0
  6 77  1  0  0  0  0
  6 78  1  0  0  0  0
  7 79  1  0  0  0  0
  7 80  1  0  0  0  0
  7 81  1  0  0  0  0
  8 82  1  0  0  0  0
  8 83  1  0  0  0  0
  8 84  1  0  0  0  0
  9 85  1  0  0  0  0
  9 86  1  0  0  0  0
  9 87  1  0  0  0  0
 10  1  2  0  0  0  0
 10 88  1  0  0  0  0
 11 89  1  0  0  0  0
 11 90  1  0  0  0  0
 12 11  1  0  0  0  0
 12 91  1  0  0  0  0
 12 92  1  0  0  0  0
 13 93  1  0  0  0  0
 13 94  1  0  0  0  0
 15 95  1  0  0  0  0
 15 96  1  0  0  0  0
 16 97  1  0  0  0  0
 16 98  1  0  0  0  0
 17 99  1  0  0  0  0
 17100  1  0  0  0  0
 18 50  1  1  0  0  0
 18 15  1  0  0  0  0
 18  2  1  0  0  0  0
 19  3  1  0  0  0  0
 19 51  1  1  0  0  0
 20  4  1  0  0  0  0
 21  5  1  0  0  0  0
 22 11  1  0  0  0  0
 22 52  1  1  0  0  0
 22 16  1  0  0  0  0
 23 12  1  0  0  0  0
 23 19  1  0  0  0  0
 23 53  1  1  0  0  0
 24 13  1  0  0  0  0
 24 18  1  0  0  0  0
 25 14  2  0  0  0  0
 25 22  1  0  0  0  0
 25 23  1  0  0  0  0
 26 17  1  0  0  0  0
 26 54  1  1  0  0  0
 27 13  1  0  0  0  0
 27 55  1  6  0  0  0
 27 39  1  0  0  0  0
 28 24  2  0  0  0  0
 29 19  1  0  0  0  0
 29 40  1  0  0  0  0
 29 56  1  6  0  0  0
 30 26  1  0  0  0  0
 30 41  1  0  0  0  0
 30 57  1  6  0  0  0
 31 42  1  0  0  0  0
 31 58  1  6  0  0  0
 32 28  1  0  0  0  0
 32 29  1  0  0  0  0
 32 48  1  0  0  0  0
 32 59  1  1  0  0  0
 33 30  1  0  0  0  0
 33 31  1  0  0  0  0
 33 46  1  0  0  0  0
 33 60  1  1  0  0  0
 34 31  1  0  0  0  0
 34 48  1  0  0  0  0
 34 61  1  6  0  0  0
 35  6  1  0  0  0  0
 35  7  1  0  0  0  0
 35 10  1  0  0  0  0
 36 14  1  0  0  0  0
 36 27  1  0  0  0  0
 36 28  1  0  0  0  0
 36  8  1  6  0  0  0
 37 20  2  0  0  0  0
 38 21  2  0  0  0  0
 39101  1  0  0  0  0
 40102  1  0  0  0  0
 41103  1  0  0  0  0
 42104  1  0  0  0  0
 43  9  1  0  0  0  0
 43 16  1  0  0  0  0
 44 15  1  0  0  0  0
 44 20  1  0  0  0  0
 45 17  1  0  0  0  0
 45 35  1  0  0  0  0
 46 21  1  0  0  0  0
 47 26  1  0  0  0  0
 47 34  1  0  0  0  0
 49 14  1  0  0  0  0
M  END
>  <DRUGBANK_ID>
DB01780

>  <SECONDARY_ACCESSION_NUMBERS>
EXPT01498

>  <COMMON_NAME>
Fusicoccin

>  <CAS_NUMBER>
20108-30-9

$$$$
