
 OpenBabel10282417233D

 65 67  0  0  0  0  0  0  0  0999 V2000
    0.0146   -1.5092    0.2327 C   0  0  0  0  0  0  0  0  0  0  0  0
   -1.2186   -0.7236    0.2849 C   0  0  0  0  0  0  0  0  0  0  0  0
    1.1718   -0.8085    0.3198 C   0  0  0  0  0  0  0  0  0  0  0  0
    0.0068   -2.9915    0.0705 C   0  0  0  0  0  0  0  0  0  0  0  0
   -1.1984    0.6587    0.2987 C   0  0  0  0  0  0  0  0  0  0  0  0
   -2.4389   -1.3667    0.2514 C   0  0  0  0  0  0  0  0  0  0  0  0
    1.1570    0.6491    0.4550 C   0  0  0  0  0  0  0  0  0  0  0  0
    2.4598   -1.4670    0.1595 C   0  0  0  0  0  0  0  0  0  0  0  0
   -0.6271   -3.7296   -0.9704 C   0  0  0  0  0  0  0  0  0  0  0  0
    0.6352   -3.6727    1.1381 C   0  0  0  0  0  0  0  0  0  0  0  0
   -0.0392    1.3540    0.4992 O   0  0  0  0  0  0  0  0  0  0  0  0
   -2.3769    1.3891    0.1388 C   0  0  0  0  0  0  0  0  0  0  0  0
   -3.6032   -0.6412    0.1918 C   0  0  0  0  0  0  0  0  0  0  0  0
    2.2866    1.3541    0.3635 C   0  0  0  0  0  0  0  0  0  0  0  0
    3.6004   -0.7898    0.0714 C   0  0  0  0  0  0  0  0  0  0  0  0
   -0.6214   -5.1279   -0.8435 C   0  0  0  0  0  0  0  0  0  0  0  0
   -1.3265   -3.0835   -2.1543 C   0  0  0  0  0  0  0  0  0  0  0  0
    0.8139   -5.0403    1.1020 C   0  0  0  0  0  0  0  0  0  0  0  0
   -3.6261    0.7544    0.0999 C   0  0  0  0  0  0  0  0  0  0  0  0
    3.6063    0.6971    0.1300 C   0  0  0  0  0  0  0  0  0  0  0  0
    0.1617   -5.7694    0.1239 C   0  0  0  0  0  0  0  0  0  0  0  0
   -2.0076   -3.8877   -2.9974 O   0  0  0  0  0  0  0  0  0  0  0  0
   -1.3544   -1.8773   -2.3684 O   0  0  0  0  0  0  0  0  0  0  0  0
   -4.8365    1.4247   -0.0116 N   0  0  0  0  0  0  0  0  0  0  0  0
    4.7024    1.3837    0.0022 N   0  3  0  0  0  0  0  0  0  0  0  0
   -4.9146    2.8838    0.0143 C   0  0  0  0  0  0  0  0  0  0  0  0
   -6.0948    0.6617   -0.0047 C   0  0  0  0  0  0  0  0  0  0  0  0
    6.0649    0.7408   -0.0081 C   0  0  0  0  0  0  0  0  0  0  0  0
    4.6863    2.8928   -0.0273 C   0  0  0  0  0  0  0  0  0  0  0  0
   -5.6089    3.4015   -1.2316 C   0  0  0  0  0  0  0  0  0  0  0  0
   -6.2731   -0.1616   -1.2842 C   0  0  0  0  0  0  0  0  0  0  0  0
    6.8065    1.0644   -1.2812 C   0  0  0  0  0  0  0  0  0  0  0  0
    4.0401    3.4102   -1.3056 C   0  0  0  0  0  0  0  0  0  0  0  0
    1.0162    0.6952   -2.9889 Cl  0  5  0  0  0  0  0  0  0  0  0  0
   -2.5301   -2.4417    0.2023 H   0  0  0  0  0  0  0  0  0  0  0  0
    2.5221   -2.5352   -0.0067 H   0  0  0  0  0  0  0  0  0  0  0  0
    1.0448   -3.1077    1.9763 H   0  0  0  0  0  0  0  0  0  0  0  0
   -2.2624    2.4595    0.0295 H   0  0  0  0  0  0  0  0  0  0  0  0
   -4.4922   -1.2535    0.1850 H   0  0  0  0  0  0  0  0  0  0  0  0
    2.1736    2.4289    0.3264 H   0  0  0  0  0  0  0  0  0  0  0  0
    4.4769   -1.3823   -0.1400 H   0  0  0  0  0  0  0  0  0  0  0  0
   -1.2208   -5.7688   -1.4751 H   0  0  0  0  0  0  0  0  0  0  0  0
    1.4337   -5.5235    1.8497 H   0  0  0  0  0  0  0  0  0  0  0  0
    0.2466   -6.8514    0.1203 H   0  0  0  0  0  0  0  0  0  0  0  0
   -1.9618   -4.8459   -2.8975 H   0  0  0  0  0  0  0  0  0  0  0  0
   -5.4416    3.2059    0.9194 H   0  0  0  0  0  0  0  0  0  0  0  0
   -3.9438    3.3804    0.0587 H   0  0  0  0  0  0  0  0  0  0  0  0
   -6.1523    0.0282    0.8913 H   0  0  0  0  0  0  0  0  0  0  0  0
   -6.9504    1.3398    0.0818 H   0  0  0  0  0  0  0  0  0  0  0  0
    6.5879    1.0720    0.8942 H   0  0  0  0  0  0  0  0  0  0  0  0
    6.0010   -0.3427    0.0713 H   0  0  0  0  0  0  0  0  0  0  0  0
    4.1783    3.2394    0.8793 H   0  0  0  0  0  0  0  0  0  0  0  0
    5.7182    3.2507    0.0414 H   0  0  0  0  0  0  0  0  0  0  0  0
   -6.6470    3.0627   -1.2798 H   0  0  0  0  0  0  0  0  0  0  0  0
   -5.6109    4.4944   -1.2317 H   0  0  0  0  0  0  0  0  0  0  0  0
   -5.0951    3.0521   -2.1333 H   0  0  0  0  0  0  0  0  0  0  0  0
   -5.4983   -0.9143   -1.4515 H   0  0  0  0  0  0  0  0  0  0  0  0
   -7.2179   -0.7095   -1.2505 H   0  0  0  0  0  0  0  0  0  0  0  0
   -6.2466    0.4803   -2.1669 H   0  0  0  0  0  0  0  0  0  0  0  0
    7.0387    2.1294   -1.3499 H   0  0  0  0  0  0  0  0  0  0  0  0
    7.7512    0.5128   -1.3012 H   0  0  0  0  0  0  0  0  0  0  0  0
    6.2230    0.7778   -2.1623 H   0  0  0  0  0  0  0  0  0  0  0  0
    3.0011    3.0974   -1.4373 H   0  0  0  0  0  0  0  0  0  0  0  0
    4.0304    4.5038   -1.2985 H   0  0  0  0  0  0  0  0  0  0  0  0
    4.5749    3.0623   -2.1933 H   0  0  0  0  0  0  0  0  0  0  0  0
  1  2  1  0  0  0  0
  1  3  2  0  0  0  0
  1  4  1  0  0  0  0
  2  5  2  0  0  0  0
  2  6  1  0  0  0  0
  3  7  1  0  0  0  0
  3  8  1  0  0  0  0
  4  9  1  0  0  0  0
  4 10  2  0  0  0  0
  5 11  1  0  0  0  0
  5 12  1  0  0  0  0
  6 13  2  0  0  0  0
  6 35  1  0  0  0  0
  7 14  2  0  0  0  0
  7 11  1  0  0  0  0
  8 15  2  0  0  0  0
  8 36  1  0  0  0  0
  9 16  2  0  0  0  0
  9 17  1  0  0  0  0
 10 18  1  0  0  0  0
 10 37  1  0  0  0  0
 12 19  2  0  0  0  0
 12 38  1  0  0  0  0
 13 19  1  0  0  0  0
 13 39  1  0  0  0  0
 14 20  1  0  0  0  0
 14 40  1  0  0  0  0
 15 20  1  0  0  0  0
 15 41  1  0  0  0  0
 16 21  1  0  0  0  0
 16 42  1  0  0  0  0
 17 22  1  0  0  0  0
 17 23  2  0  0  0  0
 18 21  2  0  0  0  0
 18 43  1  0  0  0  0
 19 24  1  0  0  0  0
 20 25  2  0  0  0  0
 21 44  1  0  0  0  0
 22 45  1  0  0  0  0
 24 26  1  0  0  0  0
 24 27  1  0  0  0  0
 25 28  1  0  0  0  0
 25 29  1  0  0  0  0
 26 30  1  0  0  0  0
 26 46  1  0  0  0  0
 26 47  1  0  0  0  0
 27 31  1  0  0  0  0
 27 48  1  0  0  0  0
 27 49  1  0  0  0  0
 28 32  1  0  0  0  0
 28 50  1  0  0  0  0
 28 51  1  0  0  0  0
 29 33  1  0  0  0  0
 29 52  1  0  0  0  0
 29 53  1  0  0  0  0
 30 54  1  0  0  0  0
 30 55  1  0  0  0  0
 30 56  1  0  0  0  0
 31 57  1  0  0  0  0
 31 58  1  0  0  0  0
 31 59  1  0  0  0  0
 32 60  1  0  0  0  0
 32 61  1  0  0  0  0
 32 62  1  0  0  0  0
 33 63  1  0  0  0  0
 33 64  1  0  0  0  0
 33 65  1  0  0  0  0
M  CHG  2  25   1  34  -1
M  END
>  <DRUGBANK_ID>
DB16853

>  <COMMON_NAME>
Rhodamine B

>  <CAS_NUMBER>
81-88-9

>  <UNII>
K7G5SCF8IL

$$$$
