
 OpenBabel10282417103D

123128  0  0  1  0  0  0  0  0999 V2000
    0.2959    1.7376   -2.4775 C   0  0  0  0  0  0  0  0  0  0  0  0
   -1.2343    1.3340   -1.1100 C   0  0  0  0  0  0  0  0  0  0  0  0
   -1.6811    2.5327   -0.5478 C   0  0  0  0  0  0  0  0  0  0  0  0
   -1.8505    3.6332   -1.4052 N   0  0  0  0  0  0  0  0  0  0  0  0
   -0.7170    3.7563   -2.3092 C   0  0  0  0  0  0  0  0  0  0  0  0
   -0.5267    2.6054   -3.0976 C   0  0  0  0  0  0  0  0  0  0  0  0
    2.9179    2.1321   -4.8010 C   0  0  0  0  0  0  0  0  0  0  0  0
    1.9670    1.1364   -4.0605 C   0  0  0  0  0  0  0  0  0  0  0  0
    0.7806    0.8019   -4.5160 C   0  0  0  0  0  0  0  0  0  0  0  0
   -0.4874    0.3524   -4.0711 C   0  0  0  0  0  0  0  0  0  0  0  0
    0.7650    0.9171   -5.7981 C   0  0  0  0  0  0  0  0  0  0  0  0
   -0.6090    5.1822   -6.2092 C   0  0  1  0  0  0  0  0  0  0  0  0
    1.9111    1.3698   -6.5066 C   0  0  0  0  0  0  0  0  0  0  0  0
    3.0653    1.7070   -5.9338 C   0  0  0  0  0  0  0  0  0  0  0  0
   -1.0124    4.6119   -7.5333 C   0  0  2  0  0  0  0  0  0  0  0  0
   -2.3509    5.2194   -7.5427 C   0  0  1  0  0  0  0  0  0  0  0  0
   -1.5667    7.2895   -8.5803 C   0  0  1  0  0  0  0  0  0  0  0  0
   -2.2659    6.7355   -7.4505 C   0  0  1  0  0  0  0  0  0  0  0  0
   -2.3361    6.8586   -9.7365 C   0  0  1  0  0  0  0  0  0  0  0  0
   -3.5054    7.4084  -10.0195 O   0  0  0  0  0  0  0  0  0  0  0  0
   -1.7957    6.5883  -10.8480 C   0  0  2  0  0  0  0  0  0  0  0  0
   -2.3144    6.5263  -12.4056 C   0  0  0  0  0  0  0  0  0  0  0  0
   -2.2618    8.0017  -13.6824 C   0  0  0  0  0  0  0  0  0  0  0  0
   -3.2523    7.2335  -14.5201 C   0  0  0  0  0  0  0  0  0  0  0  0
   -2.7824    7.3266  -13.2775 C   0  0  0  0  0  0  0  0  0  0  0  0
   -0.8695    7.5355  -11.5536 C   0  0  0  0  0  0  0  0  0  0  0  0
    2.5992    3.9428   -5.8890 C   0  0  0  0  0  0  0  0  0  0  0  0
    1.1942    5.1576   -7.4751 C   0  0  0  0  0  0  0  0  0  0  0  0
    0.1252    6.3042   -9.4135 N   0  0  0  0  0  0  0  0  0  0  0  0
   -0.8494    0.0281   -2.9791 O   0  0  0  0  0  0  0  0  0  0  0  0
   -1.0525    4.5638   -5.0383 C   0  0  2  0  0  0  0  0  0  0  0  0
   -1.1664    3.0882   -5.3077 C   0  0  0  0  0  0  0  0  0  0  0  0
   -2.2823    2.3942   -5.3991 C   0  0  0  0  0  0  0  0  0  0  0  0
   -2.4207    1.0248   -5.2037 O   0  0  0  0  0  0  0  0  0  0  0  0
   -1.2935    0.2030   -5.2101 C   0  0  1  0  0  0  0  0  0  0  0  0
   -0.4351    0.4901   -6.2431 O   0  0  0  0  0  0  0  0  0  0  0  0
   -1.6149   -1.2466   -5.2131 C   0  0  0  0  0  0  0  0  0  0  0  0
   -3.7603    8.0568  -15.6650 C   0  0  0  0  0  0  0  0  0  0  0  0
   -2.2543    5.1594   -5.0450 O   0  0  0  0  0  0  0  0  0  0  0  0
   -2.8196    4.9391   -3.9045 C   0  0  0  0  0  0  0  0  0  0  0  0
    0.3999    4.4593   -6.2154 C   0  0  0  0  0  0  0  0  0  0  0  0
   -1.3582    8.7580   -8.6073 C   0  0  0  0  0  0  0  0  0  0  0  0
    0.2404    6.3890  -11.3639 C   0  0  0  0  0  0  0  0  0  0  0  0
   -1.0937    3.1293   -7.6090 O   0  0  0  0  0  0  0  0  0  0  0  0
   -3.5178    7.3246   -7.4097 O   0  0  0  0  0  0  0  0  0  0  0  0
   -0.8813    1.8916   -8.0081 C   0  0  0  0  0  0  0  0  0  0  0  0
    0.3433    1.2869   -8.3147 C   0  0  0  0  0  0  0  0  0  0  0  0
   -1.7636    1.0385   -8.0260 O   0  0  0  0  0  0  0  0  0  0  0  0
    3.9512    3.5475   -4.9601 O   0  0  0  0  0  0  0  0  0  0  0  0
    4.1417    2.2265   -6.5742 O   0  0  0  0  0  0  0  0  0  0  0  0
   -3.1187    4.7382   -8.6911 C   0  0  0  0  0  0  0  0  0  0  0  0
   -1.5751    8.8132  -12.5331 O   0  0  0  0  0  0  0  0  0  0  0  0
    1.7671    3.9788   -5.3852 C   0  0  0  0  0  0  0  0  0  0  0  0
    1.6928    2.5161   -3.5019 C   0  0  0  0  0  0  0  0  0  0  0  0
    1.3504    1.6224   -1.8473 N   0  0  0  0  0  0  0  0  0  0  0  0
    1.8959    2.9681   -3.3532 N   0  0  0  0  0  0  0  0  0  0  0  0
   -3.1504    3.4953   -2.0245 C   0  0  0  0  0  0  0  0  0  0  0  0
   -3.3310    2.3639   -3.0206 C   0  0  0  0  0  0  0  0  0  0  0  0
   -3.3309    0.9900   -2.6728 C   0  0  0  0  0  0  0  0  0  0  0  0
   -4.5034    2.3815   -3.8663 C   0  0  0  0  0  0  0  0  0  0  0  0
    2.1301    1.3425   -8.0435 C   0  0  0  0  0  0  0  0  0  0  0  0
   -2.5334    1.4893   -1.3249 H   0  0  0  0  0  0  0  0  0  0  0  0
   -1.5882    0.3053   -0.8049 H   0  0  0  0  0  0  0  0  0  0  0  0
   -0.7390    2.4859   -0.1298 H   0  0  0  0  0  0  0  0  0  0  0  0
   -2.5330    2.3351    0.0751 H   0  0  0  0  0  0  0  0  0  0  0  0
    0.2275    3.8475   -1.8187 H   0  0  0  0  0  0  0  0  0  0  0  0
   -0.8288    4.6457   -2.8538 H   0  0  0  0  0  0  0  0  0  0  0  0
    0.1499    2.7069   -3.8653 H   0  0  0  0  0  0  0  0  0  0  0  0
   -1.2690    2.4014   -3.7173 H   0  0  0  0  0  0  0  0  0  0  0  0
   -0.1582    6.1516   -6.1888 H   0  0  0  0  0  0  0  0  0  0  0  0
   -0.4271    4.9195   -8.3868 H   0  0  0  0  0  0  0  0  0  0  0  0
   -2.9075    4.8633   -6.7010 H   0  0  0  0  0  0  0  0  0  0  0  0
   -0.6184    6.8976   -8.2261 H   0  0  0  0  0  0  0  0  0  0  0  0
   -1.7236    7.0479   -6.5702 H   0  0  0  0  0  0  0  0  0  0  0  0
   -2.1692    5.9141  -10.1228 H   0  0  0  0  0  0  0  0  0  0  0  0
   -4.0337    7.0442   -9.3585 H   0  0  0  0  0  0  0  0  0  0  0  0
   -1.5580    8.2399  -10.4756 H   0  0  0  0  0  0  0  0  0  0  0  0
   -2.3146    5.6448  -12.6844 H   0  0  0  0  0  0  0  0  0  0  0  0
   -3.5174    6.2765  -14.7682 H   0  0  0  0  0  0  0  0  0  0  0  0
   -3.0002    8.0345  -12.3815 H   0  0  0  0  0  0  0  0  0  0  0  0
   -0.3365    7.5213  -10.4142 H   0  0  0  0  0  0  0  0  0  0  0  0
   -0.4215    4.8714   -4.2257 H   0  0  0  0  0  0  0  0  0  0  0  0
   -0.2723    2.4819   -5.2261 H   0  0  0  0  0  0  0  0  0  0  0  0
   -3.1627    3.0085   -5.2171 H   0  0  0  0  0  0  0  0  0  0  0  0
   -0.7143   -1.8591   -5.2125 H   0  0  0  0  0  0  0  0  0  0  0  0
   -2.2091   -1.5022   -4.3430 H   0  0  0  0  0  0  0  0  0  0  0  0
   -2.1808   -1.4510   -6.1054 H   0  0  0  0  0  0  0  0  0  0  0  0
   -5.2829    8.3470  -16.5388 H   0  0  0  0  0  0  0  0  0  0  0  0
   -3.8627    8.2727  -17.3787 H   0  0  0  0  0  0  0  0  0  0  0  0
   -4.4767    6.8990  -16.6282 H   0  0  0  0  0  0  0  0  0  0  0  0
   -2.6489    3.9241   -3.7195 H   0  0  0  0  0  0  0  0  0  0  0  0
   -2.3271    5.4401   -3.0540 H   0  0  0  0  0  0  0  0  0  0  0  0
   -3.8971    5.0702   -3.8254 H   0  0  0  0  0  0  0  0  0  0  0  0
    0.4459    3.7306   -5.6968 H   0  0  0  0  0  0  0  0  0  0  0  0
    0.9890    3.5305   -7.2491 H   0  0  0  0  0  0  0  0  0  0  0  0
    1.5769    5.6201   -6.0183 H   0  0  0  0  0  0  0  0  0  0  0  0
   -0.8260    9.0485   -7.7349 H   0  0  0  0  0  0  0  0  0  0  0  0
   -0.7745    9.1287   -9.4551 H   0  0  0  0  0  0  0  0  0  0  0  0
   -2.3401    9.1895   -8.6448 H   0  0  0  0  0  0  0  0  0  0  0  0
   -0.0561    5.4962  -11.2368 H   0  0  0  0  0  0  0  0  0  0  0  0
    0.5835    7.0397  -12.1352 H   0  0  0  0  0  0  0  0  0  0  0  0
    0.9002    7.0408  -10.5717 H   0  0  0  0  0  0  0  0  0  0  0  0
   -4.0437    7.0059   -8.1079 H   0  0  0  0  0  0  0  0  0  0  0  0
    0.6806    0.5049   -7.7029 H   0  0  0  0  0  0  0  0  0  0  0  0
    0.5548    1.0708   -9.4856 H   0  0  0  0  0  0  0  0  0  0  0  0
    1.5223    2.6184   -8.0695 H   0  0  0  0  0  0  0  0  0  0  0  0
    4.8983    2.5550   -5.9943 H   0  0  0  0  0  0  0  0  0  0  0  0
   -3.1528    3.6962   -8.8016 H   0  0  0  0  0  0  0  0  0  0  0  0
   -4.0664    5.2134   -8.7881 H   0  0  0  0  0  0  0  0  0  0  0  0
   -2.6021    4.8335   -9.5506 H   0  0  0  0  0  0  0  0  0  0  0  0
    2.6505    2.0747   -2.0357 H   0  0  0  0  0  0  0  0  0  0  0  0
   -3.9830    3.4682   -1.4134 H   0  0  0  0  0  0  0  0  0  0  0  0
   -3.3824    4.4411   -2.4039 H   0  0  0  0  0  0  0  0  0  0  0  0
   -2.5975    2.4416   -3.6578 H   0  0  0  0  0  0  0  0  0  0  0  0
   -3.9059    0.9384   -1.6961 H   0  0  0  0  0  0  0  0  0  0  0  0
   -2.9944    0.1410   -3.1096 H   0  0  0  0  0  0  0  0  0  0  0  0
   -2.1391    0.8445   -2.4328 H   0  0  0  0  0  0  0  0  0  0  0  0
   -4.5977    3.2967   -4.4264 H   0  0  0  0  0  0  0  0  0  0  0  0
   -4.4666    1.5438   -4.5691 H   0  0  0  0  0  0  0  0  0  0  0  0
   -5.2928    2.2717   -3.1874 H   0  0  0  0  0  0  0  0  0  0  0  0
    1.9371    0.3791   -8.4974 H   0  0  0  0  0  0  0  0  0  0  0  0
    0.9644    2.2997   -8.9303 H   0  0  0  0  0  0  0  0  0  0  0  0
    2.9263    1.8357   -8.4199 H   0  0  0  0  0  0  0  0  0  0  0  0
  1  2  1  0  0  0  0
  1 56  1  0  0  0  0
  2  3  1  0  0  0  0
  2 62  1  0  0  0  0
  2 63  1  0  0  0  0
  3  4  1  0  0  0  0
  3 64  1  0  0  0  0
  3 65  1  0  0  0  0
  4  5  1  0  0  0  0
  4 57  1  0  0  0  0
  5  6  1  0  0  0  0
  5 66  1  0  0  0  0
  5 67  1  0  0  0  0
  6  1  1  0  0  0  0
  6 68  1  0  0  0  0
  6 69  1  0  0  0  0
  7 14  1  0  0  0  0
  7  8  2  0  0  0  0
  8 54  1  0  0  0  0
  9  8  1  0  0  0  0
  9 11  2  0  0  0  0
 10 30  2  0  0  0  0
 10  9  1  0  0  0  0
 11 13  1  0  0  0  0
 12 31  1  0  0  0  0
 12 70  1  1  0  0  0
 12 41  1  0  0  0  0
 13 14  2  0  0  0  0
 13 61  1  0  0  0  0
 14 50  1  0  0  0  0
 15 12  1  0  0  0  0
 15 71  1  6  0  0  0
 15 44  1  0  0  0  0
 16 15  1  0  0  0  0
 16 51  1  0  0  0  0
 16 72  1  1  0  0  0
 17 18  1  0  0  0  0
 17 42  1  0  0  0  0
 17 73  1  6  0  0  0
 18 45  1  0  0  0  0
 18 16  1  0  0  0  0
 18 74  1  1  0  0  0
 19 17  1  0  0  0  0
 19 20  1  0  0  0  0
 19 75  1  1  0  0  0
 20 76  1  0  0  0  0
 21 43  1  0  0  0  0
 21 19  1  0  0  0  0
 21 77  1  6  0  0  0
 22 21  1  0  0  0  0
 22 78  1  0  0  0  0
 23 38  1  0  0  0  0
 23 24  2  0  0  0  0
 24 25  1  0  0  0  0
 24 79  1  0  0  0  0
 25 22  2  0  0  0  0
 25 80  1  0  0  0  0
 26 52  2  0  0  0  0
 26 23  1  0  0  0  0
 27  7  1  0  0  0  0
 27 49  2  0  0  0  0
 27 28  1  0  0  0  0
 28 29  1  0  0  0  0
 29 26  1  0  0  0  0
 29 81  1  0  0  0  0
 31 82  1  1  0  0  0
 31 39  1  0  0  0  0
 32 31  1  0  0  0  0
 32 33  2  0  0  0  0
 32 83  1  0  0  0  0
 33 34  1  0  0  0  0
 33 84  1  0  0  0  0
 34 35  1  0  0  0  0
 35 36  1  0  0  0  0
 35 10  1  0  0  0  0
 35 37  1  6  0  0  0
 36 11  1  0  0  0  0
 37 85  1  0  0  0  0
 37 86  1  0  0  0  0
 37 87  1  0  0  0  0
 38 88  1  0  0  0  0
 38 89  1  0  0  0  0
 38 90  1  0  0  0  0
 39 40  1  0  0  0  0
 40 91  1  0  0  0  0
 40 92  1  0  0  0  0
 40 93  1  0  0  0  0
 41 94  1  0  0  0  0
 41 95  1  0  0  0  0
 41 96  1  0  0  0  0
 42 97  1  0  0  0  0
 42 98  1  0  0  0  0
 42 99  1  0  0  0  0
 43100  1  0  0  0  0
 43101  1  0  0  0  0
 43102  1  0  0  0  0
 44 46  1  0  0  0  0
 45103  1  0  0  0  0
 46 47  1  0  0  0  0
 46 48  2  0  0  0  0
 47104  1  0  0  0  0
 47105  1  0  0  0  0
 47106  1  0  0  0  0
 50107  1  0  0  0  0
 51108  1  0  0  0  0
 51109  1  0  0  0  0
 51110  1  0  0  0  0
 53 28  2  0  0  0  0
 53 54  1  0  0  0  0
 54 55  2  0  0  0  0
 55  1  1  0  0  0  0
 56 53  1  0  0  0  0
 56111  1  0  0  0  0
 57 58  1  0  0  0  0
 57112  1  0  0  0  0
 57113  1  0  0  0  0
 58 59  1  0  0  0  0
 58 60  1  0  0  0  0
 58114  1  0  0  0  0
 59115  1  0  0  0  0
 59116  1  0  0  0  0
 59117  1  0  0  0  0
 60118  1  0  0  0  0
 60119  1  0  0  0  0
 60120  1  0  0  0  0
 61121  1  0  0  0  0
 61122  1  0  0  0  0
 61123  1  0  0  0  0
M  END
>  <DRUGBANK_ID>
DB00615

>  <SECONDARY_ACCESSION_NUMBERS>
APRD00094

>  <COMMON_NAME>
Rifabutin

>  <CAS_NUMBER>
72559-06-9

>  <UNII>
1W306TDA6S

>  <SYNONYMS>
1,4-Dihydro-1-deoxy-1',4-didehydro-5'-(2-methylpropyl)-1-oxorifamycin XIV; 4-Deoxo-3,4-(2-spiro(N-isobutyl-4-piperidyl)-2,5-dihydro-1H-imidazo)-rifamycin S; 4-N-isobutylspiropiperidylrifamycin S; Ansamicin; Ansamycin; Rifabutin; Rifabutina; Rifabutine; Rifabutinum

$$$$
