
 OpenBabel10282417223D

 46 48  0  0  0  0  0  0  0  0999 V2000
    1.1954   -0.2551    0.0677 C   0  0  0  0  0  0  0  0  0  0  0  0
    0.5109    0.9945   -0.3419 C   0  0  3  0  0  0  0  0  0  0  0  0
    0.9281    1.4512   -1.6338 O   0  0  0  0  0  0  0  0  0  0  0  0
   -0.9634    0.7140   -0.3863 C   0  0  0  0  0  0  0  0  0  0  0  0
   -1.6503    1.8107   -0.6946 C   0  0  0  0  0  0  0  0  0  0  0  0
   -2.9637    1.9047   -0.9159 N   0  0  0  0  0  0  0  0  0  0  0  0
   -3.7745    0.9660   -0.4754 C   0  0  0  0  0  0  0  0  0  0  0  0
   -5.2243    1.3835   -0.2925 C   0  0  0  0  0  0  0  0  0  0  0  0
   -5.6341    2.1978    0.9978 C   0  0  0  0  0  0  0  0  0  0  0  0
   -5.4018    3.6250    1.1985 O   0  0  0  0  0  0  0  0  0  0  0  0
   -4.1361    4.0992    1.0676 C   0  0  0  0  0  0  0  0  0  0  0  0
   -3.5777    4.1596   -0.1787 C   0  0  0  0  0  0  0  0  0  0  0  0
   -2.2246    4.4947   -0.3879 C   0  0  0  0  0  0  0  0  0  0  0  0
   -1.3905    4.7653    0.6847 C   0  0  0  0  0  0  0  0  0  0  0  0
    0.1331    4.7931    0.5727 C   0  0  0  0  0  0  0  0  0  0  0  0
    0.7057    6.1367    0.1348 C   0  0  3  0  0  0  0  0  0  0  0  0
    0.2770    7.4545    1.3222 S   0  0  0  0  0  0  0  0  0  0  0  0
   -1.0379    7.9874    0.3009 C   0  0  0  0  0  0  0  0  0  0  0  0
   -1.9881    8.6654    0.7056 O   0  0  0  0  0  0  0  0  0  0  0  0
   -0.8343    7.5754   -0.9633 N   0  0  0  0  0  0  0  0  0  0  0  0
    0.1023    6.6039   -1.1733 C   0  0  0  0  0  0  0  0  0  0  0  0
    0.3844    6.1503   -2.2729 O   0  0  0  0  0  0  0  0  0  0  0  0
   -2.0862    5.1420    1.8295 C   0  0  0  0  0  0  0  0  0  0  0  0
   -3.4529    4.8235    2.0215 C   0  0  0  0  0  0  0  0  0  0  0  0
   -3.2022   -0.2730   -0.2928 C   0  0  0  0  0  0  0  0  0  0  0  0
   -1.7781   -0.4034   -0.3153 C   0  0  0  0  0  0  0  0  0  0  0  0
    0.9224   -1.0338   -0.6469 H   0  0  0  0  0  0  0  0  0  0  0  0
    0.8323   -0.5110    1.0682 H   0  0  0  0  0  0  0  0  0  0  0  0
    2.2754   -0.1348    0.0667 H   0  0  0  0  0  0  0  0  0  0  0  0
    0.7583    1.8042    0.3696 H   0  0  0  0  0  0  0  0  0  0  0  0
    1.8825    1.6293   -1.6317 H   0  0  0  0  0  0  0  0  0  0  0  0
   -1.0365    2.6863   -0.7518 H   0  0  0  0  0  0  0  0  0  0  0  0
   -5.5626    1.9405   -1.1780 H   0  0  0  0  0  0  0  0  0  0  0  0
   -5.8131    0.4581   -0.2843 H   0  0  0  0  0  0  0  0  0  0  0  0
   -6.7384    2.1547    1.0023 H   0  0  0  0  0  0  0  0  0  0  0  0
   -5.3309    1.6660    1.9048 H   0  0  0  0  0  0  0  0  0  0  0  0
   -4.1489    3.7394   -0.9999 H   0  0  0  0  0  0  0  0  0  0  0  0
   -1.8383    4.2897   -1.3905 H   0  0  0  0  0  0  0  0  0  0  0  0
    0.5852    4.4754    1.5290 H   0  0  0  0  0  0  0  0  0  0  0  0
    0.5146    4.0285   -0.1268 H   0  0  0  0  0  0  0  0  0  0  0  0
    1.7923    6.0893    0.0257 H   0  0  0  0  0  0  0  0  0  0  0  0
   -1.3955    7.9307   -1.7210 H   0  0  0  0  0  0  0  0  0  0  0  0
   -1.6115    5.8034    2.5440 H   0  0  0  0  0  0  0  0  0  0  0  0
   -3.9679    5.2291    2.8835 H   0  0  0  0  0  0  0  0  0  0  0  0
   -3.8354   -1.1418   -0.1912 H   0  0  0  0  0  0  0  0  0  0  0  0
   -1.3366   -1.3903   -0.3005 H   0  0  0  0  0  0  0  0  0  0  0  0
  1  2  1  0  0  0  0
  1 27  1  0  0  0  0
  1 28  1  0  0  0  0
  1 29  1  0  0  0  0
  2  3  1  0  0  0  0
  2  4  1  0  0  0  0
  2 30  1  0  0  0  0
  3 31  1  0  0  0  0
  4  5  2  0  0  0  0
  4 26  1  0  0  0  0
  5  6  1  0  0  0  0
  5 32  1  0  0  0  0
  6  7  2  0  0  0  0
  7  8  1  0  0  0  0
  7 25  1  0  0  0  0
  8  9  1  0  0  0  0
  8 33  1  0  0  0  0
  8 34  1  0  0  0  0
  9 10  1  0  0  0  0
  9 35  1  0  0  0  0
  9 36  1  0  0  0  0
 10 11  1  0  0  0  0
 11 12  2  0  0  0  0
 11 24  1  0  0  0  0
 12 13  1  0  0  0  0
 12 37  1  0  0  0  0
 13 14  2  0  0  0  0
 13 38  1  0  0  0  0
 14 15  1  0  0  0  0
 14 23  1  0  0  0  0
 15 16  1  0  0  0  0
 15 39  1  0  0  0  0
 15 40  1  0  0  0  0
 16 17  1  0  0  0  0
 16 21  1  0  0  0  0
 16 41  1  0  0  0  0
 17 18  1  0  0  0  0
 18 19  2  0  0  0  0
 18 20  1  0  0  0  0
 20 21  1  0  0  0  0
 20 42  1  0  0  0  0
 21 22  2  0  0  0  0
 23 24  2  0  0  0  0
 23 43  1  0  0  0  0
 24 44  1  0  0  0  0
 25 26  2  0  0  0  0
 25 45  1  0  0  0  0
 26 46  1  0  0  0  0
M  END
>  <DRUGBANK_ID>
DB15021

>  <COMMON_NAME>
Leriglitazone

>  <CAS_NUMBER>
146062-44-4

>  <UNII>
K824X25AYA

>  <SYNONYMS>
2,4-thiazolidinedione, 5-((4-(2-(5-(1-hydroxyethyl)-2-pyridinyl)ethoxy)phenyl)methyl)-; All-ambo-5-((4-(2-(5-(1-hydroxyethyl)pyridin-2-yl)ethoxy)phenyl)methyl)-1,3-thiazole-2,4(3H,5H)-dione; Hydroxypioglitazone; Leriglitazone

$$$$
