
 OpenBabel10282417123D

 30 30  0  0  1  0  0  0  0  0999 V2000
    1.0448    0.3464   -0.4582 N   0  0  0  0  0  0  0  0  0  0  0  0
    0.4871   -0.5472   -1.4855 C   0  0  1  0  0  0  0  0  0  0  0  0
    1.0074   -1.9986   -1.4227 C   0  0  0  0  0  0  0  0  0  0  0  0
    0.6173   -2.7102   -0.2391 O   0  0  0  0  0  0  0  0  0  0  0  0
    1.2968   -2.3018    1.1922 S   0  0  0  0  0  0  0  0  0  0  0  0
    2.7085   -2.5806    1.0966 O   0  0  0  0  0  0  0  0  0  0  0  0
    0.8612   -0.9752    1.6016 O   0  0  0  0  0  0  0  0  0  0  0  0
    0.5222   -3.4276    2.3182 C   0  0  0  0  0  0  0  0  0  0  0  0
   -0.9871   -3.3607    2.3252 C   0  0  0  0  0  0  0  0  0  0  0  0
   -1.6893   -4.5695    2.3832 C   0  0  0  0  0  0  0  0  0  0  0  0
   -3.0784   -4.5840    2.5156 C   0  0  0  0  0  0  0  0  0  0  0  0
   -3.7913   -3.3916    2.6115 C   0  0  0  0  0  0  0  0  0  0  0  0
   -3.1134   -2.1816    2.5899 C   0  0  0  0  0  0  0  0  0  0  0  0
   -1.7276   -2.1669    2.4253 C   0  0  0  0  0  0  0  0  0  0  0  0
   -1.0481   -0.5725   -1.3937 C   0  0  0  0  0  0  0  0  0  0  0  0
   -1.6809    0.1688   -2.3299 O   0  0  0  0  0  0  0  0  0  0  0  0
   -1.6779   -1.1945   -0.5505 O   0  0  0  0  0  0  0  0  0  0  0  0
    0.5682    0.0992    0.4346 H   0  0  0  0  0  0  0  0  0  0  0  0
    2.0012    0.0544   -0.2255 H   0  0  0  0  0  0  0  0  0  0  0  0
    0.7906   -0.1040   -2.4387 H   0  0  0  0  0  0  0  0  0  0  0  0
    0.6085   -2.5402   -2.2931 H   0  0  0  0  0  0  0  0  0  0  0  0
    2.0995   -2.0273   -1.5265 H   0  0  0  0  0  0  0  0  0  0  0  0
    0.9125   -4.4287    2.1150 H   0  0  0  0  0  0  0  0  0  0  0  0
    0.8773   -3.1158    3.3078 H   0  0  0  0  0  0  0  0  0  0  0  0
   -1.1541   -5.5148    2.3352 H   0  0  0  0  0  0  0  0  0  0  0  0
   -3.6034   -5.5327    2.5580 H   0  0  0  0  0  0  0  0  0  0  0  0
   -4.8734   -3.4014    2.6976 H   0  0  0  0  0  0  0  0  0  0  0  0
   -3.6531   -1.2431    2.6971 H   0  0  0  0  0  0  0  0  0  0  0  0
   -1.2714   -1.1824    2.3619 H   0  0  0  0  0  0  0  0  0  0  0  0
   -1.0858    0.7035   -2.8854 H   0  0  0  0  0  0  0  0  0  0  0  0
  1 18  1  0  0  0  0
  1 19  1  0  0  0  0
  2  1  1  0  0  0  0
  2  3  1  0  0  0  0
  2 15  1  0  0  0  0
  2 20  1  6  0  0  0
  3  4  1  0  0  0  0
  3 21  1  0  0  0  0
  3 22  1  0  0  0  0
  4  5  1  0  0  0  0
  5  6  2  0  0  0  0
  5  7  2  0  0  0  0
  5  8  1  0  0  0  0
  8  9  1  0  0  0  0
  8 23  1  0  0  0  0
  8 24  1  0  0  0  0
  9 10  2  0  0  0  0
  9 14  1  0  0  0  0
 10 11  1  0  0  0  0
 10 25  1  0  0  0  0
 11 12  2  0  0  0  0
 11 26  1  0  0  0  0
 12 13  1  0  0  0  0
 12 27  1  0  0  0  0
 13 14  2  0  0  0  0
 13 28  1  0  0  0  0
 14 29  1  0  0  0  0
 15 16  1  0  0  0  0
 15 17  2  0  0  0  0
 16 30  1  0  0  0  0
M  END
>  <DRUGBANK_ID>
DB01973

>  <SECONDARY_ACCESSION_NUMBERS>
EXPT02878

>  <COMMON_NAME>
O-Benzylsulfonyl-Serine

$$$$
