
 OpenBabel10282417123D

 53 53  0  0  0  0  0  0  0  0999 V2000
    0.9257   -0.0299    0.0564 O   0  0  0  0  0  0  0  0  0  0  0  0
    0.4318   -0.7799   -0.9281 C   0  0  0  0  0  0  0  0  0  0  0  0
    1.2213   -1.2751   -1.7350 O   0  0  0  0  0  0  0  0  0  0  0  0
   -1.1365   -0.8935   -0.9047 C   0  0  0  0  0  0  0  0  0  0  0  0
   -1.7905   -0.1794   -0.1510 O   0  0  0  0  0  0  0  0  0  0  0  0
   -1.7993   -1.7317   -1.7855 N   0  0  0  0  0  0  0  0  0  0  0  0
   -1.2082   -2.5751   -2.7131 C   0  0  0  0  0  0  0  0  0  0  0  0
   -0.1816   -3.4449   -2.3344 C   0  0  0  0  0  0  0  0  0  0  0  0
    0.5278   -4.1340   -3.2925 C   0  0  0  0  0  0  0  0  0  0  0  0
    0.1806   -3.9399   -4.6217 C   0  0  0  0  0  0  0  0  0  0  0  0
   -0.9474   -3.1919   -4.9783 C   0  0  0  0  0  0  0  0  0  0  0  0
   -1.6514   -2.5032   -4.0246 C   0  0  0  0  0  0  0  0  0  0  0  0
    0.9782   -4.5724   -5.6899 C   0  0  0  0  0  0  0  0  0  0  0  0
    0.0584   -5.5198   -6.3609 C   0  0  0  0  0  0  0  0  0  0  0  0
   -1.0429   -5.1582   -7.2561 N   0  0  0  0  0  0  0  0  0  0  0  0
   -1.2759   -5.3336   -8.6049 C   0  0  0  0  0  0  0  0  0  0  0  0
   -2.3510   -4.8904   -9.0236 O   0  0  0  0  0  0  0  0  0  0  0  0
   -0.3406   -6.1837   -9.5602 C   0  0  1  0  0  0  0  0  0  0  0  0
    1.0648   -5.8671   -9.3088 N   0  0  0  0  0  0  0  0  0  0  0  0
    2.0535   -6.5593   -8.6692 C   0  0  0  0  0  0  0  0  0  0  0  0
    3.1474   -5.9959   -8.5724 O   0  0  0  0  0  0  0  0  0  0  0  0
    1.8487   -7.9830   -8.0839 C   0  0  0  0  0  0  0  0  0  0  0  0
    0.8798   -8.2668   -6.8588 C   0  0  0  0  0  0  0  0  0  0  0  0
   -0.5762   -7.9144   -6.9641 N   0  0  0  0  0  0  0  0  0  0  0  0
   -1.7740   -8.5206   -7.0592 C   0  0  0  0  0  0  0  0  0  0  0  0
   -2.7449   -7.8087   -7.3378 O   0  0  0  0  0  0  0  0  0  0  0  0
   -1.8657   -9.9659   -6.8341 C   0  0  0  0  0  0  0  0  0  0  0  0
   -0.7821  -10.9388   -8.1106 Br  0  0  0  0  0  0  0  0  0  0  0  0
   -0.5861   -7.6908   -9.7503 C   0  0  0  0  0  0  0  0  0  0  0  0
   -1.9290   -8.0777   -9.9315 O   0  0  0  0  0  0  0  0  0  0  0  0
   -2.7797   -1.5117   -1.9079 H   0  0  0  0  0  0  0  0  0  0  0  0
   -1.9039   -4.8785   -6.7860 H   0  0  0  0  0  0  0  0  0  0  0  0
   -0.5669   -5.7775  -10.5532 H   0  0  0  0  0  0  0  0  0  0  0  0
    1.3246   -4.9107   -9.5373 H   0  0  0  0  0  0  0  0  0  0  0  0
   -0.8268   -6.9931   -7.2785 H   0  0  0  0  0  0  0  0  0  0  0  0
    1.8916   -0.0689   -0.1065 H   0  0  0  0  0  0  0  0  0  0  0  0
    0.1335   -3.5289   -1.3005 H   0  0  0  0  0  0  0  0  0  0  0  0
    1.3634   -4.7672   -3.0026 H   0  0  0  0  0  0  0  0  0  0  0  0
   -1.2657   -3.1065   -6.0124 H   0  0  0  0  0  0  0  0  0  0  0  0
   -2.4418   -1.8391   -4.3566 H   0  0  0  0  0  0  0  0  0  0  0  0
    1.4132   -3.8768   -6.4033 H   0  0  0  0  0  0  0  0  0  0  0  0
    1.7946   -5.1801   -5.2601 H   0  0  0  0  0  0  0  0  0  0  0  0
    0.7551   -6.0130   -6.9870 H   0  0  0  0  0  0  0  0  0  0  0  0
   -0.3594   -6.1719   -5.5732 H   0  0  0  0  0  0  0  0  0  0  0  0
    1.6752   -8.6589   -8.9263 H   0  0  0  0  0  0  0  0  0  0  0  0
    2.8498   -8.2842   -7.7417 H   0  0  0  0  0  0  0  0  0  0  0  0
    0.9260   -9.3116   -6.5735 H   0  0  0  0  0  0  0  0  0  0  0  0
    1.2788   -7.7125   -5.9996 H   0  0  0  0  0  0  0  0  0  0  0  0
   -1.4985  -10.1225   -5.8246 H   0  0  0  0  0  0  0  0  0  0  0  0
   -2.8981  -10.2690   -6.9930 H   0  0  0  0  0  0  0  0  0  0  0  0
    0.0527   -8.1337  -10.5223 H   0  0  0  0  0  0  0  0  0  0  0  0
   -0.2387   -8.2639   -8.9281 H   0  0  0  0  0  0  0  0  0  0  0  0
   -2.4578   -7.7019   -9.1928 H   0  0  0  0  0  0  0  0  0  0  0  0
  1 36  1  0  0  0  0
  2  1  1  0  0  0  0
  2  3  2  0  0  0  0
  4  2  1  0  0  0  0
  4  5  2  0  0  0  0
  4  6  1  0  0  0  0
  7  6  1  0  0  0  0
  7  8  2  0  0  0  0
  8  9  1  0  0  0  0
  8 37  1  0  0  0  0
  9 38  1  0  0  0  0
 10  9  2  0  0  0  0
 10 11  1  0  0  0  0
 11 12  2  0  0  0  0
 11 39  1  0  0  0  0
 12  7  1  0  0  0  0
 12 40  1  0  0  0  0
 13 10  1  0  0  0  0
 13 41  1  0  0  0  0
 13 42  1  0  0  0  0
 14 13  1  0  0  0  0
 14 15  1  0  0  0  0
 14 43  1  0  0  0  0
 14 44  1  0  0  0  0
 16 15  1  0  0  0  0
 16 17  2  0  0  0  0
 18 16  1  0  0  0  0
 18 19  1  0  0  0  0
 18 29  1  0  0  0  0
 18 33  1  6  0  0  0
 20 19  1  0  0  0  0
 20 21  2  0  0  0  0
 22 20  1  0  0  0  0
 22 45  1  0  0  0  0
 22 46  1  0  0  0  0
 23 22  1  0  0  0  0
 23 24  1  0  0  0  0
 23 47  1  0  0  0  0
 23 48  1  0  0  0  0
 25 24  1  0  0  0  0
 25 26  2  0  0  0  0
 27 25  1  0  0  0  0
 27 49  1  0  0  0  0
 27 50  1  0  0  0  0
 28 27  1  0  0  0  0
 29 30  1  0  0  0  0
 29 51  1  0  0  0  0
 29 52  1  0  0  0  0
 30 53  1  0  0  0  0
 31  6  1  0  0  0  0
 32 15  1  0  0  0  0
 34 19  1  0  0  0  0
 35 24  1  0  0  0  0
M  END
>  <DRUGBANK_ID>
DB02784

>  <SECONDARY_ACCESSION_NUMBERS>
EXPT01429

>  <COMMON_NAME>
N-(Bromoacetyl)-beta-alanyl-N-(2-{4-[(carboxycarbonyl)amino]phenyl}ethyl)-L-serinamide

>  <SYNONYMS>
2-[4-[2-[[(2S)-2-[3-[(2-bromoacetyl)amino]propanoylamino]-3-hydroxypropanoyl]amino]ethyl]anilino]-2-oxoacetic acid; N-(Bromoacetyl)-Î²-alanyl-N-(2-{4-[(carboxycarbonyl)amino]phenyl}ethyl)-L-serinamide

$$$$
