
 OpenBabel10282417153D

152156  0  0  0  0  0  0  0  0999 V2000
    1.2594   -1.9218  -16.0694 N   0  0  0  0  0  0  0  0  0  0  0  0
    0.0403   -1.1705  -16.2250 C   0  0  0  0  0  0  0  0  0  0  0  0
   -1.7637   -3.1981  -16.9409 N   0  0  0  0  0  0  0  0  0  0  0  0
   -7.3225   -3.6934   -8.8150 N   0  0  0  0  0  0  0  0  0  0  0  0
   -6.8340   -3.9207  -10.0636 C   0  0  0  0  0  0  0  0  0  0  0  0
    1.3920   -3.4313  -15.9769 C   0  0  2  0  0  0  0  0  0  0  0  0
   -1.7490   -3.5617  -18.2717 C   0  0  0  0  0  0  0  0  0  0  0  0
   -1.3731   -1.8792  -16.2071 C   0  0  1  0  0  0  0  0  0  0  0  0
   -5.4506   -4.0633   -6.8541 C   0  0  0  0  0  0  0  0  0  0  0  0
   -6.3185   -5.3224  -10.2589 C   0  0  1  0  0  0  0  0  0  0  0  0
   -6.6316   -3.3265   -7.5561 C   0  0  2  0  0  0  0  0  0  0  0  0
   -5.8020   -5.6567  -12.5376 C   0  0  0  0  0  0  0  0  0  0  0  0
   -5.4117   -5.0447  -11.3518 N   0  0  0  0  0  0  0  0  0  0  0  0
    1.0046   -4.2112  -14.6926 C   0  0  0  0  0  0  0  0  0  0  0  0
   -4.7926   -6.2952  -13.7321 C   0  0  1  0  0  0  0  0  0  0  0  0
    1.9991   -1.7441  -21.0750 C   0  0  0  0  0  0  0  0  0  0  0  0
   -0.2438   -9.8243  -10.5977 C   0  0  0  0  0  0  0  0  0  0  0  0
   -4.1590   -4.1673   -7.4210 N   0  0  0  0  0  0  0  0  0  0  0  0
   -3.2209   -6.4721  -13.7716 N   0  0  0  0  0  0  0  0  0  0  0  0
    2.4440   -1.3443  -16.7896 C   0  0  0  0  0  0  0  0  0  0  0  0
    2.8858   -3.6911  -16.3409 C   0  0  0  0  0  0  0  0  0  0  0  0
   -6.7169   -8.0646  -13.9655 C   0  0  0  0  0  0  0  0  0  0  0  0
   -3.6848   -6.8479  -11.0538 C   0  0  0  0  0  0  0  0  0  0  0  0
   -5.2665   -7.7624  -14.0300 C   0  0  0  0  0  0  0  0  0  0  0  0
   -2.2664   -5.5527  -13.4848 C   0  0  0  0  0  0  0  0  0  0  0  0
    0.0235   -5.2229  -14.8325 N   0  0  0  0  0  0  0  0  0  0  0  0
   -7.8127   -7.1786  -14.9385 S   0  0  0  0  0  0  0  0  0  0  0  0
    0.0633    0.0463  -16.4499 O   0  0  0  0  0  0  0  0  0  0  0  0
   -0.1280   -8.5695  -10.1396 N   0  0  0  0  0  0  0  0  0  0  0  0
    0.8120   -1.1077  -21.0306 N   0  0  0  0  0  0  0  0  0  0  0  0
   -1.9754   -6.4691   -9.3861 N   0  0  0  0  0  0  0  0  0  0  0  0
   -7.0702   -3.1677  -11.0106 O   0  0  0  0  0  0  0  0  0  0  0  0
   -2.0754   -4.6872  -18.6591 O   0  0  0  0  0  0  0  0  0  0  0  0
   -5.7376   -4.6301   -5.7964 O   0  0  0  0  0  0  0  0  0  0  0  0
   -7.0248   -5.8030  -12.6169 O   0  0  0  0  0  0  0  0  0  0  0  0
    3.3951   -2.4935  -17.1748 C   0  0  1  0  0  0  0  0  0  0  0  0
   -9.1400   -7.8186  -14.0780 C   0  0  0  0  0  0  0  0  0  0  0  0
    1.4538   -3.8740  -13.6011 O   0  0  0  0  0  0  0  0  0  0  0  0
   -7.3605   -8.9728  -13.1422 C   0  0  0  0  0  0  0  0  0  0  0  0
   -1.0732   -2.6142  -19.2110 C   0  0  1  0  0  0  0  0  0  0  0  0
   -4.7835   -7.4123  -11.2842 O   0  0  0  0  0  0  0  0  0  0  0  0
   -2.5370   -7.4169  -10.4557 C   0  0  1  0  0  0  0  0  0  0  0  0
   -8.7737   -8.8363  -13.2262 C   0  0  0  0  0  0  0  0  0  0  0  0
   -2.7229   -4.5262  -12.9513 O   0  0  0  0  0  0  0  0  0  0  0  0
   -3.3249   -5.4578   -7.1965 C   0  0  2  0  0  0  0  0  0  0  0  0
   -0.9317  -10.3290  -11.5461 N   0  0  0  0  0  0  0  0  0  0  0  0
    2.3128   -2.9502  -20.8091 N   0  0  0  0  0  0  0  0  0  0  0  0
   -0.7072   -5.7389  -13.6493 C   0  0  0  0  0  0  0  0  0  0  0  0
    0.5504  -10.5309   -9.7983 N   0  0  0  0  0  0  0  0  0  0  0  0
    2.9066   -0.7696  -21.2614 N   0  0  0  0  0  0  0  0  0  0  0  0
   -2.6757   -3.9719  -16.1847 C   0  0  0  0  0  0  0  0  0  0  0  0
   -8.6777   -3.2049   -8.8345 C   0  0  0  0  0  0  0  0  0  0  0  0
   -3.1023   -6.3034   -8.4771 C   0  0  0  0  0  0  0  0  0  0  0  0
   -3.3053   -5.5904  -11.2551 O   0  0  0  0  0  0  0  0  0  0  0  0
   -4.1372   -6.3960   -6.2457 C   0  0  0  0  0  0  0  0  0  0  0  0
   -3.6710   -7.7808   -6.0486 C   0  0  0  0  0  0  0  0  0  0  0  0
   -1.6414   -1.2755  -19.0863 N   0  0  0  0  0  0  0  0  0  0  0  0
   -5.9273   -6.1044   -9.0298 C   0  0  0  0  0  0  0  0  0  0  0  0
   -2.6223  -10.2895   -5.9872 C   0  0  0  0  0  0  0  0  0  0  0  0
   -1.4986   -2.2375  -14.7740 C   0  0  0  0  0  0  0  0  0  0  0  0
    3.6227   -2.7549  -18.5507 O   0  0  0  0  0  0  0  0  0  0  0  0
   -4.4989   -8.8633   -6.3841 C   0  0  0  0  0  0  0  0  0  0  0  0
   -2.3578   -7.9291   -5.6521 C   0  0  0  0  0  0  0  0  0  0  0  0
   -1.8147   -9.1858   -5.6922 C   0  0  0  0  0  0  0  0  0  0  0  0
   -3.9631  -10.1301   -6.3515 C   0  0  0  0  0  0  0  0  0  0  0  0
   -7.8679   -3.6505   -6.6400 C   0  0  0  0  0  0  0  0  0  0  0  0
   -1.9880  -11.4910   -5.8612 O   0  0  0  0  0  0  0  0  0  0  0  0
   -6.9959   -6.4144   -8.1638 O   0  0  0  0  0  0  0  0  0  0  0  0
   -2.5699   -3.2462  -14.9027 C   0  0  0  0  0  0  0  0  0  0  0  0
   -9.0499   -3.0699   -7.3814 C   0  0  0  0  0  0  0  0  0  0  0  0
    1.5486   -4.1148  -20.3181 C   0  0  0  0  0  0  0  0  0  0  0  0
   -2.0139   -9.6776  -12.2713 C   0  0  0  0  0  0  0  0  0  0  0  0
    0.3497   -2.6348  -18.7611 C   0  0  0  0  0  0  0  0  0  0  0  0
   -3.0456   -8.8259  -10.1050 C   0  0  0  0  0  0  0  0  0  0  0  0
   -2.8332  -12.6239   -5.9864 C   0  0  0  0  0  0  0  0  0  0  0  0
    1.0460   -3.9531  -18.9181 C   0  0  0  0  0  0  0  0  0  0  0  0
   -3.2433   -9.6823  -11.3637 C   0  0  0  0  0  0  0  0  0  0  0  0
    0.6848   -3.8612  -16.6716 H   0  0  0  0  0  0  0  0  0  0  0  0
   -2.1959   -1.1771  -16.3865 H   0  0  0  0  0  0  0  0  0  0  0  0
   -7.0830   -6.0107  -10.5763 H   0  0  0  0  0  0  0  0  0  0  0  0
   -6.3987   -2.2587   -7.5592 H   0  0  0  0  0  0  0  0  0  0  0  0
   -4.5308   -4.6338  -11.0384 H   0  0  0  0  0  0  0  0  0  0  0  0
   -5.0321   -5.6462  -14.5796 H   0  0  0  0  0  0  0  0  0  0  0  0
   -3.9175   -3.5886   -8.2197 H   0  0  0  0  0  0  0  0  0  0  0  0
   -2.8992   -7.4202  -13.6531 H   0  0  0  0  0  0  0  0  0  0  0  0
    2.9521   -0.6699  -16.1030 H   0  0  0  0  0  0  0  0  0  0  0  0
    2.1413   -0.7477  -17.6628 H   0  0  0  0  0  0  0  0  0  0  0  0
    3.0441   -4.6750  -16.8074 H   0  0  0  0  0  0  0  0  0  0  0  0
    3.4662   -3.6863  -15.4188 H   0  0  0  0  0  0  0  0  0  0  0  0
   -4.8264   -8.1335  -14.9602 H   0  0  0  0  0  0  0  0  0  0  0  0
   -4.8055   -8.4106  -13.2940 H   0  0  0  0  0  0  0  0  0  0  0  0
   -0.3647   -5.4288  -15.7502 H   0  0  0  0  0  0  0  0  0  0  0  0
   -0.4584   -8.3898   -9.1856 H   0  0  0  0  0  0  0  0  0  0  0  0
   -0.7065   -8.0342  -10.7157 H   0  0  0  0  0  0  0  0  0  0  0  0
    0.8330   -0.3410  -20.3555 H   0  0  0  0  0  0  0  0  0  0  0  0
    0.1185   -1.7673  -20.7507 H   0  0  0  0  0  0  0  0  0  0  0  0
   -1.8772   -5.5513   -9.8649 H   0  0  0  0  0  0  0  0  0  0  0  0
    4.4207   -2.2589  -16.8992 H   0  0  0  0  0  0  0  0  0  0  0  0
  -10.1275   -7.4390  -14.2814 H   0  0  0  0  0  0  0  0  0  0  0  0
   -6.8562   -9.6585  -12.4665 H   0  0  0  0  0  0  0  0  0  0  0  0
   -1.1561   -3.0002  -20.2240 H   0  0  0  0  0  0  0  0  0  0  0  0
   -1.8997   -7.2776  -11.3431 H   0  0  0  0  0  0  0  0  0  0  0  0
   -9.4840   -9.4220  -12.6584 H   0  0  0  0  0  0  0  0  0  0  0  0
   -2.3346   -5.1912   -6.8316 H   0  0  0  0  0  0  0  0  0  0  0  0
   -0.4485   -6.7829  -13.5011 H   0  0  0  0  0  0  0  0  0  0  0  0
   -0.3211   -5.1614  -12.7998 H   0  0  0  0  0  0  0  0  0  0  0  0
    0.9760  -11.3409  -10.2112 H   0  0  0  0  0  0  0  0  0  0  0  0
    1.0686   -9.9772   -9.1297 H   0  0  0  0  0  0  0  0  0  0  0  0
    3.8168   -1.0300  -21.6125 H   0  0  0  0  0  0  0  0  0  0  0  0
    2.5554    0.1402  -21.5298 H   0  0  0  0  0  0  0  0  0  0  0  0
   -2.3522   -5.0306  -16.1644 H   0  0  0  0  0  0  0  0  0  0  0  0
   -3.6988   -4.0003  -16.5682 H   0  0  0  0  0  0  0  0  0  0  0  0
   -9.2847   -3.9362   -9.3851 H   0  0  0  0  0  0  0  0  0  0  0  0
   -8.7246   -2.2476   -9.3640 H   0  0  0  0  0  0  0  0  0  0  0  0
   -3.4091   -7.3235   -8.2874 H   0  0  0  0  0  0  0  0  0  0  0  0
   -3.7664   -5.8292   -9.1584 H   0  0  0  0  0  0  0  0  0  0  0  0
   -3.6334   -5.2087  -12.1175 H   0  0  0  0  0  0  0  0  0  0  0  0
   -4.1928   -5.9406   -5.2612 H   0  0  0  0  0  0  0  0  0  0  0  0
   -5.1394   -6.5450   -6.6562 H   0  0  0  0  0  0  0  0  0  0  0  0
   -1.0362   -0.5423  -19.4417 H   0  0  0  0  0  0  0  0  0  0  0  0
   -2.5198   -1.2373  -19.5960 H   0  0  0  0  0  0  0  0  0  0  0  0
   -5.3922   -7.0431   -9.1258 H   0  0  0  0  0  0  0  0  0  0  0  0
   -5.3189   -5.4242   -8.5179 H   0  0  0  0  0  0  0  0  0  0  0  0
   -0.5735   -2.6911  -14.4170 H   0  0  0  0  0  0  0  0  0  0  0  0
   -1.6628   -1.5016  -13.9883 H   0  0  0  0  0  0  0  0  0  0  0  0
    2.9100   -2.4624  -19.1505 H   0  0  0  0  0  0  0  0  0  0  0  0
   -5.5318   -8.7204   -6.7101 H   0  0  0  0  0  0  0  0  0  0  0  0
   -1.7796   -7.0515   -5.3788 H   0  0  0  0  0  0  0  0  0  0  0  0
   -0.7563   -9.2942   -5.4957 H   0  0  0  0  0  0  0  0  0  0  0  0
   -4.6046  -10.9572   -6.6357 H   0  0  0  0  0  0  0  0  0  0  0  0
   -8.0551   -4.7368   -6.5514 H   0  0  0  0  0  0  0  0  0  0  0  0
   -7.7614   -3.3098   -5.6114 H   0  0  0  0  0  0  0  0  0  0  0  0
   -7.4177   -5.5578   -8.0115 H   0  0  0  0  0  0  0  0  0  0  0  0
   -1.9138   -3.9324  -14.4685 H   0  0  0  0  0  0  0  0  0  0  0  0
   -3.5067   -3.0309  -14.4016 H   0  0  0  0  0  0  0  0  0  0  0  0
   -9.9822   -3.5957   -7.1608 H   0  0  0  0  0  0  0  0  0  0  0  0
   -9.1378   -2.0204   -7.1086 H   0  0  0  0  0  0  0  0  0  0  0  0
    2.2562   -4.9514  -20.2125 H   0  0  0  0  0  0  0  0  0  0  0  0
    0.7064   -4.4246  -20.9274 H   0  0  0  0  0  0  0  0  0  0  0  0
   -2.2841  -10.2324  -13.1808 H   0  0  0  0  0  0  0  0  0  0  0  0
   -1.7441   -8.6908  -12.6571 H   0  0  0  0  0  0  0  0  0  0  0  0
    0.9954   -1.7993  -18.9799 H   0  0  0  0  0  0  0  0  0  0  0  0
    0.2422   -2.4010  -17.7627 H   0  0  0  0  0  0  0  0  0  0  0  0
   -2.4021   -9.3199   -9.3904 H   0  0  0  0  0  0  0  0  0  0  0  0
   -4.0235   -8.7816   -9.6045 H   0  0  0  0  0  0  0  0  0  0  0  0
   -3.6745  -12.5883   -5.2822 H   0  0  0  0  0  0  0  0  0  0  0  0
   -3.1878  -12.7135   -7.0179 H   0  0  0  0  0  0  0  0  0  0  0  0
   -2.2355  -13.5036   -5.7483 H   0  0  0  0  0  0  0  0  0  0  0  0
    1.9188   -3.9911  -18.3058 H   0  0  0  0  0  0  0  0  0  0  0  0
    0.5052   -4.8165  -18.5063 H   0  0  0  0  0  0  0  0  0  0  0  0
   -3.5366  -10.6911  -11.0703 H   0  0  0  0  0  0  0  0  0  0  0  0
   -4.1190   -9.3564  -11.9150 H   0  0  0  0  0  0  0  0  0  0  0  0
  2  1  1  0  0  0  0
  3  8  1  0  0  0  0
  4  5  1  0  0  0  0
  6  1  1  0  0  0  0
  6 14  1  0  0  0  0
  6 21  1  0  0  0  0
  6 78  1  6  0  0  0
  7  3  1  0  0  0  0
  8  2  1  0  0  0  0
  8 60  1  0  0  0  0
  8 79  1  6  0  0  0
 10 58  1  0  0  0  0
 10 80  1  6  0  0  0
 10 13  1  0  0  0  0
 10  5  1  0  0  0  0
 11  4  1  0  0  0  0
 11 66  1  0  0  0  0
 11 81  1  1  0  0  0
 11  9  1  0  0  0  0
 13 12  1  0  0  0  0
 13 82  1  0  0  0  0
 15 24  1  0  0  0  0
 15 83  1  6  0  0  0
 15 19  1  0  0  0  0
 15 12  1  0  0  0  0
 16 47  2  0  0  0  0
 17 46  2  0  0  0  0
 18  9  1  0  0  0  0
 18 84  1  0  0  0  0
 19 25  1  0  0  0  0
 19 85  1  0  0  0  0
 20  1  1  0  0  0  0
 20 86  1  0  0  0  0
 20 87  1  0  0  0  0
 21 88  1  0  0  0  0
 21 89  1  0  0  0  0
 22 24  1  0  0  0  0
 24 90  1  0  0  0  0
 24 91  1  0  0  0  0
 25 48  1  0  0  0  0
 26 14  1  0  0  0  0
 26 92  1  0  0  0  0
 27 22  1  0  0  0  0
 28  2  2  0  0  0  0
 29 17  1  0  0  0  0
 29 93  1  0  0  0  0
 29 94  1  0  0  0  0
 30 16  1  0  0  0  0
 30 95  1  0  0  0  0
 30 96  1  0  0  0  0
 31 53  1  0  0  0  0
 31 97  1  0  0  0  0
 32  5  2  0  0  0  0
 33  7  2  0  0  0  0
 34  9  2  0  0  0  0
 35 12  2  0  0  0  0
 36 20  1  0  0  0  0
 36 61  1  0  0  0  0
 36 21  1  0  0  0  0
 36 98  1  1  0  0  0
 37 27  1  0  0  0  0
 37 43  2  0  0  0  0
 37 99  1  0  0  0  0
 38 14  2  0  0  0  0
 39 22  2  0  0  0  0
 39100  1  0  0  0  0
 40  7  1  0  0  0  0
 40 57  1  0  0  0  0
 40 73  1  0  0  0  0
 40101  1  6  0  0  0
 41 23  2  0  0  0  0
 42 74  1  0  0  0  0
 42102  1  6  0  0  0
 42 31  1  0  0  0  0
 42 23  1  0  0  0  0
 43 39  1  0  0  0  0
 43103  1  0  0  0  0
 44 25  2  0  0  0  0
 45 55  1  0  0  0  0
 45104  1  1  0  0  0
 45 53  1  0  0  0  0
 45 18  1  0  0  0  0
 46 72  1  0  0  0  0
 47 71  1  0  0  0  0
 48 26  1  0  0  0  0
 48105  1  0  0  0  0
 48106  1  0  0  0  0
 49 17  1  0  0  0  0
 49107  1  0  0  0  0
 49108  1  0  0  0  0
 50 16  1  0  0  0  0
 50109  1  0  0  0  0
 50110  1  0  0  0  0
 51  3  1  0  0  0  0
 51 69  1  0  0  0  0
 51111  1  0  0  0  0
 51112  1  0  0  0  0
 52  4  1  0  0  0  0
 52113  1  0  0  0  0
 52114  1  0  0  0  0
 53115  1  0  0  0  0
 53116  1  0  0  0  0
 54 23  1  0  0  0  0
 54117  1  0  0  0  0
 55118  1  0  0  0  0
 55119  1  0  0  0  0
 56 55  1  0  0  0  0
 57120  1  0  0  0  0
 57121  1  0  0  0  0
 58122  1  0  0  0  0
 58123  1  0  0  0  0
 59 64  2  0  0  0  0
 59 65  1  0  0  0  0
 60124  1  0  0  0  0
 60125  1  0  0  0  0
 61126  1  0  0  0  0
 62 56  1  0  0  0  0
 62127  1  0  0  0  0
 63 56  2  0  0  0  0
 63128  1  0  0  0  0
 64 63  1  0  0  0  0
 64129  1  0  0  0  0
 65 62  2  0  0  0  0
 65130  1  0  0  0  0
 66 70  1  0  0  0  0
 66131  1  0  0  0  0
 66132  1  0  0  0  0
 67 59  1  0  0  0  0
 68 58  1  0  0  0  0
 68133  1  0  0  0  0
 69 60  1  0  0  0  0
 69134  1  0  0  0  0
 69135  1  0  0  0  0
 70 52  1  0  0  0  0
 70136  1  0  0  0  0
 70137  1  0  0  0  0
 71 76  1  0  0  0  0
 71138  1  0  0  0  0
 71139  1  0  0  0  0
 72 77  1  0  0  0  0
 72140  1  0  0  0  0
 72141  1  0  0  0  0
 73142  1  0  0  0  0
 73143  1  0  0  0  0
 74144  1  0  0  0  0
 74145  1  0  0  0  0
 75 67  1  0  0  0  0
 75146  1  0  0  0  0
 75147  1  0  0  0  0
 75148  1  0  0  0  0
 76 73  1  0  0  0  0
 76149  1  0  0  0  0
 76150  1  0  0  0  0
 77 74  1  0  0  0  0
 77151  1  0  0  0  0
 77152  1  0  0  0  0
M  END
>  <DRUGBANK_ID>
DB06549

>  <COMMON_NAME>
Labradimil

>  <CAS_NUMBER>
159768-75-9

>  <UNII>
2MK663C346

>  <SYNONYMS>
Labradimil; Labradimilum

$$$$
