
 OpenBabel10282417133D

 83 87  0  0  0  0  0  0  0  0999 V2000
   -0.6624  -13.2236    4.2687 C   0  0  0  0  0  0  0  0  0  0  0  0
   -1.0384  -11.9275    3.7193 N   0  0  0  0  0  0  0  0  0  0  0  0
   -1.4689  -10.8735    4.6181 C   0  0  0  0  0  0  0  0  0  0  0  0
   -0.9939  -11.7765    2.3343 C   0  0  0  0  0  0  0  0  0  0  0  0
   -1.6209  -12.7617    1.5416 C   0  0  0  0  0  0  0  0  0  0  0  0
   -1.4187  -12.8047    0.1869 C   0  0  0  0  0  0  0  0  0  0  0  0
   -0.5232  -11.9035   -0.3545 C   0  0  0  0  0  0  0  0  0  0  0  0
   -0.1018  -10.7174    0.2852 C   0  0  0  0  0  0  0  0  0  0  0  0
   -0.2901  -10.6983    1.6824 C   0  0  0  0  0  0  0  0  0  0  0  0
    0.3301   -9.6317    2.3676 C   0  0  0  0  0  0  0  0  0  0  0  0
    0.9364   -8.5446    1.7525 C   0  0  0  0  0  0  0  0  0  0  0  0
    1.0169   -8.5093    0.3797 C   0  0  0  0  0  0  0  0  0  0  0  0
    0.5225   -9.5909   -0.3614 C   0  0  0  0  0  0  0  0  0  0  0  0
    0.6709   -9.3787   -2.1318 S   0  0  0  0  0  0  0  0  0  0  0  0
    0.0843   -8.1043   -2.4890 O   0  0  0  0  0  0  0  0  0  0  0  0
    2.0452   -9.6492   -2.4892 O   0  0  0  0  0  0  0  0  0  0  0  0
   -0.2635  -10.5864   -2.8476 N   0  0  0  0  0  0  0  0  0  0  0  0
   -1.7071  -10.6627   -2.5352 C   0  0  0  0  0  0  0  0  0  0  0  0
   -2.4135   -9.4551   -3.0371 C   0  0  0  0  0  0  0  0  0  0  0  0
   -2.2479   -9.4327   -4.5390 C   0  0  0  0  0  0  0  0  0  0  0  0
   -2.9282  -10.6732   -5.1291 C   0  0  0  0  0  0  0  0  0  0  0  0
   -4.4018  -10.7165   -4.6956 C   0  0  0  0  0  0  0  0  0  0  0  0
   -5.1396   -9.4549   -5.1579 C   0  0  0  0  0  0  0  0  0  0  0  0
   -5.0957   -9.3293   -6.6741 C   0  0  0  0  0  0  0  0  0  0  0  0
   -5.6856  -10.5444   -7.4185 C   0  0  0  0  0  0  0  0  0  0  0  0
   -7.1870  -10.6048   -7.5938 N   0  0  0  0  0  0  0  0  0  0  0  0
   -8.1631  -10.8006   -8.6725 C   0  0  0  0  0  0  0  0  0  0  0  0
   -9.3392  -10.7759   -8.2672 O   0  0  0  0  0  0  0  0  0  0  0  0
   -7.7531  -10.6465  -10.4179 C   0  0  2  0  0  0  0  0  0  0  0  0
   -7.8191   -9.1146  -10.3856 C   0  0  0  0  0  0  0  0  0  0  0  0
   -7.6695   -8.9749  -11.8425 C   0  0  1  0  0  0  0  0  0  0  0  0
   -9.1856   -9.7084  -12.0557 C   0  0  0  0  0  0  0  0  0  0  0  0
   -9.0649  -11.4662  -11.3216 C   0  0  2  0  0  0  0  0  0  0  0  0
   -7.3645  -12.4437  -11.7082 C   0  0  0  0  0  0  0  0  0  0  0  0
   -6.0730  -11.2946  -11.6273 C   0  0  2  0  0  0  0  0  0  0  0  0
   -6.2444   -9.7411  -12.1486 C   0  0  0  0  0  0  0  0  0  0  0  0
   -6.3695  -11.1556  -10.2204 C   0  0  0  0  0  0  0  0  0  0  0  0
   -8.1821  -11.2480  -12.3601 C   0  0  0  0  0  0  0  0  0  0  0  0
   -0.6658  -13.2035    5.3620 H   0  0  0  0  0  0  0  0  0  0  0  0
    0.3518  -13.4956    3.9530 H   0  0  0  0  0  0  0  0  0  0  0  0
   -1.3507  -14.0189    3.9636 H   0  0  0  0  0  0  0  0  0  0  0  0
   -0.8421   -9.9885    4.6175 H   0  0  0  0  0  0  0  0  0  0  0  0
   -2.4826  -10.5468    4.3802 H   0  0  0  0  0  0  0  0  0  0  0  0
   -1.4222  -11.2035    5.6584 H   0  0  0  0  0  0  0  0  0  0  0  0
   -2.2355  -13.5431    1.9779 H   0  0  0  0  0  0  0  0  0  0  0  0
   -1.9000  -13.5357   -0.4575 H   0  0  0  0  0  0  0  0  0  0  0  0
   -0.2460  -12.1196   -1.3745 H   0  0  0  0  0  0  0  0  0  0  0  0
    0.4224   -9.6393    3.4387 H   0  0  0  0  0  0  0  0  0  0  0  0
    1.3579   -7.7604    2.3740 H   0  0  0  0  0  0  0  0  0  0  0  0
    1.5109   -7.6673   -0.0993 H   0  0  0  0  0  0  0  0  0  0  0  0
    0.0122  -10.7598   -3.8176 H   0  0  0  0  0  0  0  0  0  0  0  0
   -2.0943  -11.6284   -2.8936 H   0  0  0  0  0  0  0  0  0  0  0  0
   -1.9570  -10.6641   -1.4840 H   0  0  0  0  0  0  0  0  0  0  0  0
   -3.4476   -9.4849   -2.6872 H   0  0  0  0  0  0  0  0  0  0  0  0
   -2.0363   -8.5607   -2.5518 H   0  0  0  0  0  0  0  0  0  0  0  0
   -2.6575   -8.4962   -4.9152 H   0  0  0  0  0  0  0  0  0  0  0  0
   -1.1943   -9.4145   -4.8381 H   0  0  0  0  0  0  0  0  0  0  0  0
   -2.8045  -10.6687   -6.2133 H   0  0  0  0  0  0  0  0  0  0  0  0
   -2.4348  -11.6055   -4.8288 H   0  0  0  0  0  0  0  0  0  0  0  0
   -4.8691  -11.6248   -5.0746 H   0  0  0  0  0  0  0  0  0  0  0  0
   -4.5079  -10.8254   -3.6106 H   0  0  0  0  0  0  0  0  0  0  0  0
   -6.1713   -9.4653   -4.8089 H   0  0  0  0  0  0  0  0  0  0  0  0
   -4.6911   -8.5577   -4.7050 H   0  0  0  0  0  0  0  0  0  0  0  0
   -5.5406   -8.3894   -7.0045 H   0  0  0  0  0  0  0  0  0  0  0  0
   -4.0374   -9.2372   -6.9789 H   0  0  0  0  0  0  0  0  0  0  0  0
   -5.1364  -10.5006   -8.3314 H   0  0  0  0  0  0  0  0  0  0  0  0
   -5.3455  -11.4955   -6.9906 H   0  0  0  0  0  0  0  0  0  0  0  0
   -7.6212  -10.6333   -6.6684 H   0  0  0  0  0  0  0  0  0  0  0  0
   -8.7925   -8.7279  -10.0349 H   0  0  0  0  0  0  0  0  0  0  0  0
   -7.0898   -8.6726   -9.7121 H   0  0  0  0  0  0  0  0  0  0  0  0
   -7.6246   -7.9315  -12.1512 H   0  0  0  0  0  0  0  0  0  0  0  0
   -9.5250   -9.6541  -13.1202 H   0  0  0  0  0  0  0  0  0  0  0  0
   -9.8958   -9.0261  -11.5967 H   0  0  0  0  0  0  0  0  0  0  0  0
   -9.9328  -12.0839  -11.4504 H   0  0  0  0  0  0  0  0  0  0  0  0
   -7.2750  -12.9714  -12.7169 H   0  0  0  0  0  0  0  0  0  0  0  0
   -7.0989  -13.2467  -11.0279 H   0  0  0  0  0  0  0  0  0  0  0  0
   -5.0651  -11.6788  -11.7610 H   0  0  0  0  0  0  0  0  0  0  0  0
   -5.9749   -9.6866  -13.1968 H   0  0  0  0  0  0  0  0  0  0  0  0
   -5.4956   -9.1480  -11.5798 H   0  0  0  0  0  0  0  0  0  0  0  0
   -6.3123  -12.1014   -9.6517 H   0  0  0  0  0  0  0  0  0  0  0  0
   -5.8330  -10.3608   -9.7773 H   0  0  0  0  0  0  0  0  0  0  0  0
   -8.8300  -12.1191  -12.8396 H   0  0  0  0  0  0  0  0  0  0  0  0
   -8.2808  -10.7733  -13.3629 H   0  0  0  0  0  0  0  0  0  0  0  0
  1  2  1  0  0  0  0
  1 39  1  0  0  0  0
  1 40  1  0  0  0  0
  1 41  1  0  0  0  0
  2  3  1  0  0  0  0
  2  4  1  0  0  0  0
  3 42  1  0  0  0  0
  3 43  1  0  0  0  0
  3 44  1  0  0  0  0
  4  5  2  0  0  0  0
  4  9  1  0  0  0  0
  5  6  1  0  0  0  0
  5 45  1  0  0  0  0
  6  7  2  0  0  0  0
  6 46  1  0  0  0  0
  7  8  1  0  0  0  0
  7 47  1  0  0  0  0
  8  9  2  0  0  0  0
  8 13  1  0  0  0  0
  9 10  1  0  0  0  0
 10 11  2  0  0  0  0
 10 48  1  0  0  0  0
 11 12  1  0  0  0  0
 11 49  1  0  0  0  0
 12 13  2  0  0  0  0
 12 50  1  0  0  0  0
 13 14  1  0  0  0  0
 14 15  2  0  0  0  0
 14 16  2  0  0  0  0
 14 17  1  0  0  0  0
 17 18  1  0  0  0  0
 17 51  1  0  0  0  0
 18 19  1  0  0  0  0
 18 52  1  0  0  0  0
 18 53  1  0  0  0  0
 19 20  1  0  0  0  0
 19 54  1  0  0  0  0
 19 55  1  0  0  0  0
 20 21  1  0  0  0  0
 20 56  1  0  0  0  0
 20 57  1  0  0  0  0
 21 22  1  0  0  0  0
 21 58  1  0  0  0  0
 21 59  1  0  0  0  0
 22 23  1  0  0  0  0
 22 60  1  0  0  0  0
 22 61  1  0  0  0  0
 23 24  1  0  0  0  0
 23 62  1  0  0  0  0
 23 63  1  0  0  0  0
 24 25  1  0  0  0  0
 24 64  1  0  0  0  0
 24 65  1  0  0  0  0
 25 26  1  0  0  0  0
 25 66  1  0  0  0  0
 25 67  1  0  0  0  0
 26 27  1  0  0  0  0
 26 68  1  0  0  0  0
 27 28  2  0  0  0  0
 29 30  1  0  0  0  0
 29 38  1  0  0  0  0
 29 37  1  0  0  0  0
 29 27  1  6  0  0  0
 30 69  1  0  0  0  0
 30 70  1  0  0  0  0
 31 30  1  0  0  0  0
 31 32  1  0  0  0  0
 31 36  1  0  0  0  0
 31 71  1  1  0  0  0
 32 72  1  0  0  0  0
 32 73  1  0  0  0  0
 33 32  1  0  0  0  0
 33 38  1  0  0  0  0
 33 34  1  0  0  0  0
 33 74  1  6  0  0  0
 34 75  1  0  0  0  0
 34 76  1  0  0  0  0
 35 34  1  0  0  0  0
 35 36  1  0  0  0  0
 35 37  1  0  0  0  0
 35 77  1  1  0  0  0
 36 78  1  0  0  0  0
 36 79  1  0  0  0  0
 37 80  1  0  0  0  0
 37 81  1  0  0  0  0
 38 82  1  0  0  0  0
 38 83  1  0  0  0  0
M  END
>  <DRUGBANK_ID>
DB03031

>  <SECONDARY_ACCESSION_NUMBERS>
EXPT01276

>  <COMMON_NAME>
Adamantane-1-Carboxylic Acid-5-Dimethylamino-Naphthalene-1-Sulfonylamino-Octyl-Amide

$$$$
