
 OpenBabel10282417173D

 56 58  0  0  0  0  0  0  0  0999 V2000
    0.7764   -0.2827   -0.5252 O   0  0  0  0  0  0  0  0  0  0  0  0
    5.5600    1.2598    1.0382 N   0  0  0  0  0  0  0  0  0  0  0  0
    2.9510   -0.2191   -1.3832 N   0  0  0  0  0  0  0  0  0  0  0  0
    4.4972   -0.1322   -1.3896 C   0  0  0  0  0  0  0  0  0  0  0  0
    5.2725   -0.9436   -0.3530 C   0  0  0  0  0  0  0  0  0  0  0  0
    5.0880    1.2893   -1.4254 C   0  0  0  0  0  0  0  0  0  0  0  0
    5.3990   -0.2053    0.9636 C   0  0  0  0  0  0  0  0  0  0  0  0
    4.9919    2.0265   -0.0896 C   0  0  0  0  0  0  0  0  0  0  0  0
    5.3774    1.8746    2.4167 C   0  0  0  0  0  0  0  0  0  0  0  0
    4.0002    1.9998    3.2072 C   0  0  0  0  0  0  0  0  0  0  0  0
    2.3518   -0.3765   -2.6627 C   0  0  0  0  0  0  0  0  0  0  0  0
    1.9543    0.0055   -0.4201 C   0  0  0  0  0  0  0  0  0  0  0  0
    2.3249    0.5989    0.8545 C   0  0  0  0  0  0  0  0  0  0  0  0
    3.2445    0.6668    3.6447 C   0  0  0  0  0  0  0  0  0  0  0  0
    1.2766    0.4661   -3.0051 C   0  0  0  0  0  0  0  0  0  0  0  0
    2.7499   -1.3899   -3.5227 C   0  0  0  0  0  0  0  0  0  0  0  0
    1.7254    1.9214    1.2252 C   0  0  0  0  0  0  0  0  0  0  0  0
    3.9014   -0.5472    3.4458 C   0  0  0  0  0  0  0  0  0  0  0  0
    1.8784    0.5023    3.9942 C   0  0  0  0  0  0  0  0  0  0  0  0
    0.5882    0.2935   -4.1855 C   0  0  0  0  0  0  0  0  0  0  0  0
    2.1075   -1.5095   -4.7484 C   0  0  0  0  0  0  0  0  0  0  0  0
    0.2810    1.9490    1.5253 C   0  0  0  0  0  0  0  0  0  0  0  0
    1.0173   -0.6898   -5.0644 C   0  0  0  0  0  0  0  0  0  0  0  0
    3.2348   -1.7601    3.1401 C   0  0  0  0  0  0  0  0  0  0  0  0
    1.2115   -0.7655    3.8538 C   0  0  0  0  0  0  0  0  0  0  0  0
    1.8756   -1.8802    3.3458 C   0  0  0  0  0  0  0  0  0  0  0  0
    4.8082   -0.5946   -2.3347 H   0  0  0  0  0  0  0  0  0  0  0  0
    4.7718   -1.9106   -0.1921 H   0  0  0  0  0  0  0  0  0  0  0  0
    6.2898   -1.1760   -0.6922 H   0  0  0  0  0  0  0  0  0  0  0  0
    6.1548    1.2264   -1.6865 H   0  0  0  0  0  0  0  0  0  0  0  0
    4.6004    1.8643   -2.2187 H   0  0  0  0  0  0  0  0  0  0  0  0
    4.4495   -0.5122    1.3464 H   0  0  0  0  0  0  0  0  0  0  0  0
    6.1404   -0.7035    1.5955 H   0  0  0  0  0  0  0  0  0  0  0  0
    5.4692    3.0095   -0.1622 H   0  0  0  0  0  0  0  0  0  0  0  0
    3.9445    2.2900    0.0069 H   0  0  0  0  0  0  0  0  0  0  0  0
    6.0670    1.4010    3.1168 H   0  0  0  0  0  0  0  0  0  0  0  0
    5.7454    2.9085    2.3128 H   0  0  0  0  0  0  0  0  0  0  0  0
    4.0409    2.6657    4.0798 H   0  0  0  0  0  0  0  0  0  0  0  0
    3.5302    2.7044    2.5108 H   0  0  0  0  0  0  0  0  0  0  0  0
    2.1080   -0.2101    1.5244 H   0  0  0  0  0  0  0  0  0  0  0  0
    3.3563    0.7537    0.8689 H   0  0  0  0  0  0  0  0  0  0  0  0
    0.9280    1.2371   -2.3171 H   0  0  0  0  0  0  0  0  0  0  0  0
    3.4997   -2.1163   -3.2242 H   0  0  0  0  0  0  0  0  0  0  0  0
    2.0291    2.1606    2.2187 H   0  0  0  0  0  0  0  0  0  0  0  0
    2.0933    2.7525    0.6212 H   0  0  0  0  0  0  0  0  0  0  0  0
    4.9639   -0.5077    3.2732 H   0  0  0  0  0  0  0  0  0  0  0  0
    1.2286    1.3516    4.2044 H   0  0  0  0  0  0  0  0  0  0  0  0
   -0.2679    0.9257   -4.3940 H   0  0  0  0  0  0  0  0  0  0  0  0
    2.4476   -2.2578   -5.4551 H   0  0  0  0  0  0  0  0  0  0  0  0
    0.0121    1.0634    2.1033 H   0  0  0  0  0  0  0  0  0  0  0  0
    0.1170    2.8285    2.1614 H   0  0  0  0  0  0  0  0  0  0  0  0
   -0.2586    2.0031    0.5949 H   0  0  0  0  0  0  0  0  0  0  0  0
    0.4865   -0.8269   -5.9985 H   0  0  0  0  0  0  0  0  0  0  0  0
    3.7682   -2.5415    2.5952 H   0  0  0  0  0  0  0  0  0  0  0  0
    0.1328   -0.8465    3.9937 H   0  0  0  0  0  0  0  0  0  0  0  0
    1.3476   -2.7869    3.0475 H   0  0  0  0  0  0  0  0  0  0  0  0
  1 12  2  0  0  0  0
  2  7  1  0  0  0  0
  2  8  1  0  0  0  0
  2  9  1  0  0  0  0
  3  4  1  0  0  0  0
  3 11  1  0  0  0  0
  3 12  1  0  0  0  0
  4  5  1  0  0  0  0
  4  6  1  0  0  0  0
  4 27  1  0  0  0  0
  5  7  1  0  0  0  0
  5 28  1  0  0  0  0
  5 29  1  0  0  0  0
  6  8  1  0  0  0  0
  6 30  1  0  0  0  0
  6 31  1  0  0  0  0
  7 32  1  0  0  0  0
  7 33  1  0  0  0  0
  8 34  1  0  0  0  0
  8 35  1  0  0  0  0
  9 10  1  0  0  0  0
  9 36  1  0  0  0  0
  9 37  1  0  0  0  0
 10 14  1  0  0  0  0
 10 38  1  0  0  0  0
 10 39  1  0  0  0  0
 11 15  2  0  0  0  0
 11 16  1  0  0  0  0
 12 13  1  0  0  0  0
 13 17  1  0  0  0  0
 13 40  1  0  0  0  0
 13 41  1  0  0  0  0
 14 18  2  0  0  0  0
 14 19  1  0  0  0  0
 15 20  1  0  0  0  0
 15 42  1  0  0  0  0
 16 21  2  0  0  0  0
 16 43  1  0  0  0  0
 17 22  1  0  0  0  0
 17 44  1  0  0  0  0
 17 45  1  0  0  0  0
 18 24  1  0  0  0  0
 18 46  1  0  0  0  0
 19 25  2  0  0  0  0
 19 47  1  0  0  0  0
 20 23  2  0  0  0  0
 20 48  1  0  0  0  0
 21 23  1  0  0  0  0
 21 49  1  0  0  0  0
 22 50  1  0  0  0  0
 22 51  1  0  0  0  0
 22 52  1  0  0  0  0
 23 53  1  0  0  0  0
 24 26  2  0  0  0  0
 24 54  1  0  0  0  0
 25 26  1  0  0  0  0
 25 55  1  0  0  0  0
 26 56  1  0  0  0  0
M  END
>  <DRUGBANK_ID>
DB09173

>  <COMMON_NAME>
Butyrfentanyl

>  <CAS_NUMBER>
1169-70-6

>  <UNII>
07V1H7R6ZN

>  <SYNONYMS>
Butyr-fentanyl; Butyrylfentanyl

$$$$
