
 OpenBabel10282417113D

 26 26  0  0  0  0  0  0  0  0999 V2000
   -0.0810   -3.1864    1.2120 N   0  0  0  0  0  0  0  0  0  0  0  0
    0.3107   -2.3765    0.0234 C   0  0  2  0  0  0  0  0  0  0  0  0
   -0.4698   -2.6299    2.4315 C   0  0  0  0  0  0  0  0  0  0  0  0
    0.2292   -4.5948    1.3720 C   0  0  0  0  0  0  0  0  0  0  0  0
   -0.5493   -1.0785   -0.0260 C   0  0  0  0  0  0  0  0  0  0  0  0
   -0.0748   -3.1319   -1.2697 C   0  0  0  0  0  0  0  0  0  0  0  0
   -0.5595   -3.7257    3.4525 C   0  0  0  0  0  0  0  0  0  0  0  0
   -0.6650   -1.4506    2.6998 O   0  0  0  0  0  0  0  0  0  0  0  0
   -0.5397   -4.9913    2.6184 C   0  0  0  0  0  0  0  0  0  0  0  0
   -0.0346    0.1031   -0.4649 N   0  0  0  0  0  0  0  0  0  0  0  0
   -1.7619   -1.0906    0.2007 O   0  0  0  0  0  0  0  0  0  0  0  0
    0.3761   -2.4308   -2.5404 C   0  0  0  0  0  0  0  0  0  0  0  0
    1.3936   -2.1897    0.0611 H   0  0  0  0  0  0  0  0  0  0  0  0
    1.3092   -4.7319    1.5001 H   0  0  0  0  0  0  0  0  0  0  0  0
   -0.1180   -5.1799    0.5178 H   0  0  0  0  0  0  0  0  0  0  0  0
    0.3284   -4.1495   -1.2859 H   0  0  0  0  0  0  0  0  0  0  0  0
   -1.1685   -3.2371   -1.2931 H   0  0  0  0  0  0  0  0  0  0  0  0
    0.3189   -3.6447    4.0979 H   0  0  0  0  0  0  0  0  0  0  0  0
   -1.4766   -3.6402    4.0416 H   0  0  0  0  0  0  0  0  0  0  0  0
   -0.0985   -5.8383    3.1512 H   0  0  0  0  0  0  0  0  0  0  0  0
   -1.5663   -5.2668    2.3447 H   0  0  0  0  0  0  0  0  0  0  0  0
   -0.7342    0.8369   -0.4886 H   0  0  0  0  0  0  0  0  0  0  0  0
    0.8753    0.3045   -0.8505 H   0  0  0  0  0  0  0  0  0  0  0  0
    1.4675   -2.3953   -2.5923 H   0  0  0  0  0  0  0  0  0  0  0  0
    0.0006   -2.9676   -3.4165 H   0  0  0  0  0  0  0  0  0  0  0  0
   -0.0084   -1.4103   -2.6027 H   0  0  0  0  0  0  0  0  0  0  0  0
  2  6  1  0  0  0  0
  2 13  1  1  0  0  0
  2  5  1  0  0  0  0
  2  1  1  0  0  0  0
  3  1  1  0  0  0  0
  4  1  1  0  0  0  0
  4 14  1  0  0  0  0
  4 15  1  0  0  0  0
  6 16  1  0  0  0  0
  6 17  1  0  0  0  0
  7  3  1  0  0  0  0
  7 18  1  0  0  0  0
  7 19  1  0  0  0  0
  8  3  2  0  0  0  0
  9  4  1  0  0  0  0
  9  7  1  0  0  0  0
  9 20  1  0  0  0  0
  9 21  1  0  0  0  0
 10  5  1  0  0  0  0
 10 22  1  0  0  0  0
 10 23  1  0  0  0  0
 11  5  2  0  0  0  0
 12  6  1  0  0  0  0
 12 24  1  0  0  0  0
 12 25  1  0  0  0  0
 12 26  1  0  0  0  0
M  END
>  <DRUGBANK_ID>
DB01202

>  <SECONDARY_ACCESSION_NUMBERS>
APRD01068

>  <COMMON_NAME>
Levetiracetam

>  <CAS_NUMBER>
102767-28-2

>  <UNII>
44YRR34555

>  <SYNONYMS>
Levetiracetam; Levetiracetame; Levetiracetamum

$$$$
