
 OpenBabel10282417123D

 16 15  0  0  0  0  0  0  0  0999 V2000
    1.0162    0.1480    0.3077 C   0  0  0  0  0  0  0  0  0  0  0  0
    0.4992   -1.0833    0.9993 C   0  0  0  0  0  0  0  0  0  0  0  0
   -0.2308   -0.9800    1.9879 O   0  0  0  0  0  0  0  0  0  0  0  0
    0.9245   -2.4571    0.4919 C   0  0  0  0  0  0  0  0  0  0  0  0
    0.4257   -2.8365   -0.9017 C   0  0  0  0  0  0  0  0  0  0  0  0
    1.0051   -2.0414   -2.0557 C   0  0  0  0  0  0  0  0  0  0  0  0
    1.8627   -2.6925   -2.8586 O   0  0  0  0  0  0  0  0  0  0  0  0
    0.7103   -0.8800   -2.3045 O   0  0  0  0  0  0  0  0  0  0  0  0
    0.8263    1.0386    0.9086 H   0  0  0  0  0  0  0  0  0  0  0  0
    0.4568    0.3110   -0.6060 H   0  0  0  0  0  0  0  0  0  0  0  0
    2.0897    0.0586    0.1209 H   0  0  0  0  0  0  0  0  0  0  0  0
    2.0105   -2.5564    0.5847 H   0  0  0  0  0  0  0  0  0  0  0  0
    0.4958   -3.1804    1.2055 H   0  0  0  0  0  0  0  0  0  0  0  0
    0.6391   -3.8991   -1.0721 H   0  0  0  0  0  0  0  0  0  0  0  0
   -0.6651   -2.7389   -0.9458 H   0  0  0  0  0  0  0  0  0  0  0  0
    1.9196   -3.6570   -2.7514 H   0  0  0  0  0  0  0  0  0  0  0  0
  1  2  1  0  0  0  0
  1  9  1  0  0  0  0
  1 10  1  0  0  0  0
  1 11  1  0  0  0  0
  2  3  2  0  0  0  0
  2  4  1  0  0  0  0
  4  5  1  0  0  0  0
  4 12  1  0  0  0  0
  4 13  1  0  0  0  0
  5  6  1  0  0  0  0
  5 14  1  0  0  0  0
  5 15  1  0  0  0  0
  6  7  1  0  0  0  0
  6  8  2  0  0  0  0
  7 16  1  0  0  0  0
M  END
>  <DRUGBANK_ID>
DB02239

>  <SECONDARY_ACCESSION_NUMBERS>
EXPT02901

>  <COMMON_NAME>
Laevulinic Acid

>  <CAS_NUMBER>
123-76-2

>  <UNII>
RYX5QG61EI

$$$$
