
 OpenBabel10282417123D

 55 58  0  0  0  0  0  0  0  0999 V2000
    0.6292    2.4443   -1.3009 C   0  0  0  0  0  0  0  0  0  0  0  0
    0.2360    1.7538    0.0258 C   0  0  0  0  0  0  0  0  0  0  0  0
    0.8708    2.5220    1.2128 C   0  0  0  0  0  0  0  0  0  0  0  0
   -1.2747    1.9013    0.2444 C   0  0  0  0  0  0  0  0  0  0  0  0
   -2.1636    0.7596   -0.1726 C   0  0  0  0  0  0  0  0  0  0  0  0
   -1.6330   -0.6831   -0.0242 C   0  0  0  0  0  0  0  0  0  0  0  0
   -2.1648   -1.4208   -1.2776 C   0  0  0  0  0  0  0  0  0  0  0  0
   -2.2908   -1.3147    1.2232 C   0  0  0  0  0  0  0  0  0  0  0  0
   -0.1095   -0.8083    0.0358 C   0  0  0  0  0  0  0  0  0  0  0  0
    0.7366    0.3164    0.0166 C   0  0  0  0  0  0  0  0  0  0  0  0
    2.1306    0.1171   -0.0464 C   0  0  0  0  0  0  0  0  0  0  0  0
    2.6935   -1.1490   -0.0611 C   0  0  0  0  0  0  0  0  0  0  0  0
    1.8823   -2.2729    0.0329 C   0  0  0  0  0  0  0  0  0  0  0  0
    0.4892   -2.0980    0.0737 C   0  0  0  0  0  0  0  0  0  0  0  0
    2.4719   -3.6466    0.0425 C   0  0  0  0  0  0  0  0  0  0  0  0
    1.7551   -4.6419    0.0489 O   0  0  0  0  0  0  0  0  0  0  0  0
    3.9451   -3.8338    0.0225 C   0  0  0  0  0  0  0  0  0  0  0  0
    4.5367   -4.5536   -1.0221 C   0  0  0  0  0  0  0  0  0  0  0  0
    5.9348   -4.7319   -1.0602 C   0  0  0  0  0  0  0  0  0  0  0  0
    6.7335   -4.1606   -0.0413 C   0  0  0  0  0  0  0  0  0  0  0  0
    6.1234   -3.4188    0.9797 C   0  0  0  0  0  0  0  0  0  0  0  0
    4.7376   -3.2803    1.0309 C   0  0  0  0  0  0  0  0  0  0  0  0
    8.1281   -4.3501   -0.0448 C   0  0  0  0  0  0  0  0  0  0  0  0
    8.7552   -5.0995   -1.0463 C   0  0  0  0  0  0  0  0  0  0  0  0
    7.9592   -5.6559   -2.0599 C   0  0  0  0  0  0  0  0  0  0  0  0
    6.5692   -5.4690   -2.0724 C   0  0  0  0  0  0  0  0  0  0  0  0
   10.2304   -5.3421   -1.1013 C   0  0  0  0  0  0  0  0  0  0  0  0
   10.9849   -4.8007   -0.1247 O   0  0  0  0  0  0  0  0  0  0  0  0
   10.7408   -6.0014   -2.0000 O   0  0  0  0  0  0  0  0  0  0  0  0
    1.7134    2.4562   -1.4651 H   0  0  0  0  0  0  0  0  0  0  0  0
    0.1739    1.9396   -2.1610 H   0  0  0  0  0  0  0  0  0  0  0  0
    0.3015    3.4898   -1.3113 H   0  0  0  0  0  0  0  0  0  0  0  0
    0.5798    2.0551    2.1640 H   0  0  0  0  0  0  0  0  0  0  0  0
    1.9629    2.5491    1.1894 H   0  0  0  0  0  0  0  0  0  0  0  0
    0.5157    3.5587    1.2310 H   0  0  0  0  0  0  0  0  0  0  0  0
   -1.4860    2.1034    1.3007 H   0  0  0  0  0  0  0  0  0  0  0  0
   -1.6289    2.7969   -0.2858 H   0  0  0  0  0  0  0  0  0  0  0  0
   -3.0865    0.8665    0.4147 H   0  0  0  0  0  0  0  0  0  0  0  0
   -2.4748    0.9472   -1.2067 H   0  0  0  0  0  0  0  0  0  0  0  0
   -2.0139   -2.5029   -1.2379 H   0  0  0  0  0  0  0  0  0  0  0  0
   -3.2419   -1.2461   -1.3951 H   0  0  0  0  0  0  0  0  0  0  0  0
   -1.6692   -1.0446   -2.1820 H   0  0  0  0  0  0  0  0  0  0  0  0
   -3.3773   -1.1598    1.2084 H   0  0  0  0  0  0  0  0  0  0  0  0
   -2.1353   -2.3981    1.2753 H   0  0  0  0  0  0  0  0  0  0  0  0
   -1.9040   -0.8719    2.1475 H   0  0  0  0  0  0  0  0  0  0  0  0
    2.8109    0.9649   -0.1010 H   0  0  0  0  0  0  0  0  0  0  0  0
    3.7720   -1.2095   -0.1489 H   0  0  0  0  0  0  0  0  0  0  0  0
   -0.1413   -2.9871    0.1114 H   0  0  0  0  0  0  0  0  0  0  0  0
    3.9024   -4.9737   -1.8013 H   0  0  0  0  0  0  0  0  0  0  0  0
    6.7230   -2.9461    1.7549 H   0  0  0  0  0  0  0  0  0  0  0  0
    4.2877   -2.7225    1.8490 H   0  0  0  0  0  0  0  0  0  0  0  0
    8.6935   -3.9090    0.7666 H   0  0  0  0  0  0  0  0  0  0  0  0
    8.4174   -6.2499   -2.8514 H   0  0  0  0  0  0  0  0  0  0  0  0
    5.9866   -5.9167   -2.8765 H   0  0  0  0  0  0  0  0  0  0  0  0
   10.5543   -4.2865    0.5759 H   0  0  0  0  0  0  0  0  0  0  0  0
  1  2  1  0  0  0  0
  1 30  1  0  0  0  0
  1 31  1  0  0  0  0
  1 32  1  0  0  0  0
  2  3  1  0  0  0  0
  2  4  1  0  0  0  0
  2 10  1  0  0  0  0
  3 33  1  0  0  0  0
  3 34  1  0  0  0  0
  3 35  1  0  0  0  0
  4  5  1  0  0  0  0
  4 36  1  0  0  0  0
  4 37  1  0  0  0  0
  5  6  1  0  0  0  0
  5 38  1  0  0  0  0
  5 39  1  0  0  0  0
  6  7  1  0  0  0  0
  6  8  1  0  0  0  0
  6  9  1  0  0  0  0
  7 40  1  0  0  0  0
  7 41  1  0  0  0  0
  7 42  1  0  0  0  0
  8 43  1  0  0  0  0
  8 44  1  0  0  0  0
  8 45  1  0  0  0  0
  9 10  2  0  0  0  0
  9 14  1  0  0  0  0
 10 11  1  0  0  0  0
 11 12  2  0  0  0  0
 11 46  1  0  0  0  0
 12 13  1  0  0  0  0
 12 47  1  0  0  0  0
 13 14  2  0  0  0  0
 13 15  1  0  0  0  0
 14 48  1  0  0  0  0
 15 16  2  0  0  0  0
 15 17  1  0  0  0  0
 17 18  2  0  0  0  0
 17 22  1  0  0  0  0
 18 19  1  0  0  0  0
 18 49  1  0  0  0  0
 19 20  2  0  0  0  0
 19 26  1  0  0  0  0
 20 21  1  0  0  0  0
 20 23  1  0  0  0  0
 21 22  2  0  0  0  0
 21 50  1  0  0  0  0
 22 51  1  0  0  0  0
 23 24  2  0  0  0  0
 23 52  1  0  0  0  0
 24 25  1  0  0  0  0
 24 27  1  0  0  0  0
 25 26  2  0  0  0  0
 25 53  1  0  0  0  0
 26 54  1  0  0  0  0
 27 28  1  0  0  0  0
 27 29  2  0  0  0  0
 28 55  1  0  0  0  0
M  END
>  <DRUGBANK_ID>
DB02741

>  <SECONDARY_ACCESSION_NUMBERS>
EXPT00233

>  <COMMON_NAME>
CD564

$$$$
