797
 OpenBabel10282417113D

 24 25  0  0  0  0  0  0  0  0999 V2000
    1.0085   -0.5626   -0.1667 N   0  0  0  0  0  0  0  0  0  0  0  0
   -1.2081   -0.1168   -0.0347 N   0  0  0  0  0  0  0  0  0  0  0  0
   -0.2748   -1.0326   -0.0351 C   0  0  0  0  0  0  0  0  0  0  0  0
    0.9975    0.8492    0.1132 C   0  0  0  0  0  0  0  0  0  0  0  0
   -0.5968   -2.5067    0.0858 C   0  0  0  0  0  0  0  0  0  0  0  0
   -0.4736    1.1707   -0.1681 C   0  0  0  0  0  0  0  0  0  0  0  0
   -1.3457   -2.8673    1.3513 C   0  0  0  0  0  0  0  0  0  0  0  0
   -2.5770   -2.2570    1.6397 C   0  0  0  0  0  0  0  0  0  0  0  0
   -0.8777   -3.8672    2.2134 C   0  0  0  0  0  0  0  0  0  0  0  0
   -3.3198   -2.6228    2.7590 C   0  0  0  0  0  0  0  0  0  0  0  0
   -1.6489   -4.2710    3.3080 C   0  0  0  0  0  0  0  0  0  0  0  0
   -2.8613   -3.6404    3.5874 C   0  0  0  0  0  0  0  0  0  0  0  0
    1.8341   -1.1308   -0.0723 H   0  0  0  0  0  0  0  0  0  0  0  0
    1.6785    1.4149   -0.5263 H   0  0  0  0  0  0  0  0  0  0  0  0
    1.2393    1.0351    1.1662 H   0  0  0  0  0  0  0  0  0  0  0  0
   -1.2219   -2.7855   -0.7714 H   0  0  0  0  0  0  0  0  0  0  0  0
    0.3302   -3.0862    0.0062 H   0  0  0  0  0  0  0  0  0  0  0  0
   -0.8709    1.9146    0.5282 H   0  0  0  0  0  0  0  0  0  0  0  0
   -0.6086    1.5351   -1.1918 H   0  0  0  0  0  0  0  0  0  0  0  0
   -2.9716   -1.4815    0.9855 H   0  0  0  0  0  0  0  0  0  0  0  0
    0.0784   -4.3525    2.0337 H   0  0  0  0  0  0  0  0  0  0  0  0
   -4.2610   -2.1209    2.9647 H   0  0  0  0  0  0  0  0  0  0  0  0
   -1.3104   -5.0884    3.9388 H   0  0  0  0  0  0  0  0  0  0  0  0
   -3.4522   -3.9433    4.4468 H   0  0  0  0  0  0  0  0  0  0  0  0
  1  3  1  0  0  0  0
  1  4  1  0  0  0  0
  1 13  1  0  0  0  0
  2  3  2  0  0  0  0
  2  6  1  0  0  0  0
  3  5  1  0  0  0  0
  4  6  1  0  0  0  0
  4 14  1  0  0  0  0
  4 15  1  0  0  0  0
  5  7  1  0  0  0  0
  5 16  1  0  0  0  0
  5 17  1  0  0  0  0
  6 18  1  0  0  0  0
  6 19  1  0  0  0  0
  7  8  2  0  0  0  0
  7  9  1  0  0  0  0
  8 10  1  0  0  0  0
  8 20  1  0  0  0  0
  9 11  2  0  0  0  0
  9 21  1  0  0  0  0
 10 12  2  0  0  0  0
 10 22  1  0  0  0  0
 11 12  1  0  0  0  0
 11 23  1  0  0  0  0
 12 24  1  0  0  0  0
M  END
>  <DRUGBANK_ID>
DB00797

>  <SECONDARY_ACCESSION_NUMBERS>
APRD00170

>  <COMMON_NAME>
Tolazoline

>  <CAS_NUMBER>
59-98-3

>  <UNII>
CHH9H12AQ3

>  <SYNONYMS>
2-Benzyl-2-imidazoline; 2-Benzyl-4,5-imidazoline; 2-Benzylimidazoline; 4,5-Dihydro-2-(phenylmethyl)-1H-imidazole; Benzazoline; Tolazolin; Tolazolina; Tolazoline; Tolazolinum

$$$$
