
 OpenBabel10282417123D

 42 44  0  0  0  0  0  0  0  0999 V2000
   -2.0960    0.6520   -0.0030 C   0  0  0  0  0  0  0  0  0  0  0  0
   -2.0840   -0.7070    0.0020 N   0  0  0  0  0  0  0  0  0  0  0  0
   -0.9270   -1.4040   -0.0000 C   0  0  0  0  0  0  0  0  0  0  0  0
    0.3000   -0.7080   -0.0000 C   0  0  0  0  0  0  0  0  0  0  0  0
    0.2800    0.7150    0.0010 C   0  0  0  0  0  0  0  0  0  0  0  0
   -0.9520    1.3720    0.0020 N   0  0  0  0  0  0  0  0  0  0  0  0
    1.5640    1.1080   -0.0000 N   0  0  0  0  0  0  0  0  0  0  0  0
    2.3270    0.0340   -0.0000 C   0  0  0  0  0  0  0  0  0  0  0  0
    1.5840   -1.0630   -0.0010 N   0  0  0  0  0  0  0  0  0  0  0  0
    2.0376    2.4996   -0.0009 C   0  0  3  0  0  0  0  0  0  0  0  0
    1.4991    3.1908    1.2688 C   0  0  3  0  0  0  0  0  0  0  0  0
    1.5988    4.7063    1.0207 C   0  0  3  0  0  0  0  0  0  0  0  0
    2.1945    4.8829   -0.3918 C   0  0  3  0  0  0  0  0  0  0  0  0
    1.8524    3.5551   -1.1187 O   0  0  0  0  0  0  0  0  0  0  0  0
    1.6364    6.1004   -1.1106 C   0  0  0  0  0  0  0  0  0  0  0  0
    1.9597    7.2726   -0.3772 O   0  0  0  0  0  0  0  0  0  0  0  0
    1.0501    7.1386    1.7092 W   0  0  3  0  0  0  0  0  0  0  0  0
   -0.9778    6.9687    1.5575 O   0  0  0  0  0  0  0  0  0  0  0  0
    1.8872    5.3125    2.7874 O   0  0  0  0  0  0  0  0  0  0  0  0
    1.5691    9.0207    2.8868 O   0  0  0  0  0  0  0  0  0  0  0  0
    0.6595    8.8868    4.9732 W   0  0  0  0  0  0  0  0  0  0  0  0
   -1.3684    8.7169    4.8215 O   0  0  0  0  0  0  0  0  0  0  0  0
    1.4966    7.0606    6.0514 O   0  0  0  0  0  0  0  0  0  0  0  0
    1.1785   10.7689    6.1508 O   0  0  0  0  0  0  0  0  0  0  0  0
    0.3255    5.3267    1.1210 O   0  0  0  0  0  0  0  0  0  0  0  0
    0.1592    2.8025    1.5339 O   0  0  0  0  0  0  0  0  0  0  0  0
   -0.9463   -2.8739   -0.0022 N   0  0  0  0  0  0  0  0  0  0  0  0
   -3.0349    1.1651   -0.0111 H   0  0  0  0  0  0  0  0  0  0  0  0
    3.3969    0.0460    0.0007 H   0  0  0  0  0  0  0  0  0  0  0  0
    3.0720    2.2603   -0.1342 H   0  0  0  0  0  0  0  0  0  0  0  0
    2.0900    2.9160    2.1174 H   0  0  0  0  0  0  0  0  0  0  0  0
    2.2376    5.1586    1.7501 H   0  0  0  0  0  0  0  0  0  0  0  0
    3.2537    5.0260   -0.3417 H   0  0  0  0  0  0  0  0  0  0  0  0
    2.0633    6.1632   -2.0898 H   0  0  0  0  0  0  0  0  0  0  0  0
    0.5731    6.0113   -1.1902 H   0  0  0  0  0  0  0  0  0  0  0  0
    1.6596    4.4870    2.2710 H   0  0  0  0  0  0  0  0  0  0  0  0
    1.2689    6.2351    5.5350 H   0  0  0  0  0  0  0  0  0  0  0  0
    0.7795   10.7102    7.0659 H   0  0  0  0  0  0  0  0  0  0  0  0
   -0.2957    4.9235    0.4491 H   0  0  0  0  0  0  0  0  0  0  0  0
   -0.4190    3.0473    0.7555 H   0  0  0  0  0  0  0  0  0  0  0  0
   -0.0697   -3.3954   -0.0037 H   0  0  0  0  0  0  0  0  0  0  0  0
   -1.8362   -3.3722   -0.0021 H   0  0  0  0  0  0  0  0  0  0  0  0
  1  2  2  0  0  0  0
  1  6  1  0  0  0  0
  1 28  1  0  0  0  0
  2  3  1  0  0  0  0
  3  4  2  0  0  0  0
  3 27  1  0  0  0  0
  4  5  1  0  0  0  0
  4  9  1  0  0  0  0
  5  6  2  0  0  0  0
  5  7  1  0  0  0  0
  7  8  1  0  0  0  0
  7 10  1  0  0  0  0
  8  9  2  0  0  0  0
  8 29  1  0  0  0  0
 10 11  1  0  0  0  0
 10 14  1  0  0  0  0
 10 30  1  0  0  0  0
 11 12  1  0  0  0  0
 11 26  1  0  0  0  0
 11 31  1  0  0  0  0
 12 13  1  0  0  0  0
 12 25  1  0  0  0  0
 12 32  1  0  0  0  0
 13 14  1  0  0  0  0
 13 15  1  0  0  0  0
 13 33  1  0  0  0  0
 15 16  1  0  0  0  0
 15 34  1  0  0  0  0
 15 35  1  0  0  0  0
 16 17  1  0  0  0  0
 17 18  2  0  0  0  0
 17 19  1  0  0  0  0
 17 20  1  0  0  0  0
 19 36  1  0  0  0  0
 20 21  1  0  0  0  0
 21 22  2  0  0  0  0
 21 23  1  0  0  0  0
 21 24  1  0  0  0  0
 23 37  1  0  0  0  0
 24 38  1  0  0  0  0
 25 39  1  0  0  0  0
 26 40  1  0  0  0  0
 27 41  1  0  0  0  0
 27 42  1  0  0  0  0
M  END
>  <DRUGBANK_ID>
DB02183

>  <SECONDARY_ACCESSION_NUMBERS>
EXPT00440

>  <COMMON_NAME>
Adenosine-5'-ditungstate

$$$$
