
 OpenBabel10282417213D

 16 16  0  0  0  0  0  0  0  0999 V2000
   -1.4140   -0.0807   -0.0796 C   0  0  0  0  0  0  0  0  0  0  0  0
   -0.7703    1.1552    0.0061 C   0  0  0  0  0  0  0  0  0  0  0  0
    0.6284    1.2365   -0.0303 C   0  0  0  0  0  0  0  0  0  0  0  0
    1.4123    0.0855   -0.0797 C   0  0  0  0  0  0  0  0  0  0  0  0
    0.7688   -1.1504    0.0084 C   0  0  0  0  0  0  0  0  0  0  0  0
   -0.6301   -1.2319   -0.0290 C   0  0  0  0  0  0  0  0  0  0  0  0
   -2.8066   -0.1645    0.0376 N   0  0  0  0  0  0  0  0  0  0  0  0
    2.8049    0.1714    0.0352 N   0  0  0  0  0  0  0  0  0  0  0  0
   -1.3479    2.0682    0.1087 H   0  0  0  0  0  0  0  0  0  0  0  0
    1.0980    2.2166   -0.0003 H   0  0  0  0  0  0  0  0  0  0  0  0
    1.3467   -2.0631    0.1135 H   0  0  0  0  0  0  0  0  0  0  0  0
   -1.0996   -2.2121    0.0015 H   0  0  0  0  0  0  0  0  0  0  0  0
   -3.1997   -1.0163   -0.3522 H   0  0  0  0  0  0  0  0  0  0  0  0
   -3.2999    0.6642   -0.2770 H   0  0  0  0  0  0  0  0  0  0  0  0
    3.1942    1.0240   -0.3572 H   0  0  0  0  0  0  0  0  0  0  0  0
    3.2989   -0.6559   -0.2821 H   0  0  0  0  0  0  0  0  0  0  0  0
  1  2  1  0  0  0  0
  1  6  2  0  0  0  0
  1  7  1  0  0  0  0
  2  3  2  0  0  0  0
  2  9  1  0  0  0  0
  3  4  1  0  0  0  0
  3 10  1  0  0  0  0
  4  5  2  0  0  0  0
  4  8  1  0  0  0  0
  5  6  1  0  0  0  0
  5 11  1  0  0  0  0
  6 12  1  0  0  0  0
  7 13  1  0  0  0  0
  7 14  1  0  0  0  0
  8 15  1  0  0  0  0
  8 16  1  0  0  0  0
M  END
>  <DRUGBANK_ID>
DB14141

>  <COMMON_NAME>
p-Phenylenediamine

>  <CAS_NUMBER>
106-50-3

>  <UNII>
U770QIT64J

>  <SYNONYMS>
1,4-Benzenediamine; 1,4-diaminobenzene; 1,4-phenylenediamine; 4-Aminoaniline; 4-phenylenediamine; p-Diaminobenzene; para-phenylenediamine; paraphenylene-diamine; PPD; pPDA

$$$$
