
 OpenBabel10282417103D

110118  0  0  0  0  0  0  0  0999 V2000
   -0.6709    1.9125    0.9807 C   0  0  2  0  0  0  0  0  0  0  0  0
    0.2263    0.9897    0.2058 C   0  0  0  0  0  0  0  0  0  0  0  0
    0.4910   -0.3217    0.5133 C   0  0  0  0  0  0  0  0  0  0  0  0
    1.6843   -0.6202   -0.2398 C   0  0  0  0  0  0  0  0  0  0  0  0
    2.5724   -1.6657   -0.0059 C   0  0  0  0  0  0  0  0  0  0  0  0
    3.8485   -1.6028   -0.5329 C   0  0  0  0  0  0  0  0  0  0  0  0
    4.2923   -0.4554   -1.1879 C   0  0  0  0  0  0  0  0  0  0  0  0
    3.4487    0.6457   -1.4052 C   0  0  0  0  0  0  0  0  0  0  0  0
    2.0933    0.4905   -1.0273 C   0  0  0  0  0  0  0  0  0  0  0  0
    1.0772    1.4432   -0.8675 N   0  0  0  0  0  0  0  0  0  0  0  0
   -0.1742   -1.1937    1.5619 C   0  0  0  0  0  0  0  0  0  0  0  0
   -1.1958   -2.1308    0.9094 C   0  0  0  0  0  0  0  0  0  0  0  0
   -2.5088   -1.5819    0.4962 N   0  0  3  0  0  0  0  0  0  0  0  0
   -2.8588   -0.2217    0.7657 C   0  0  0  0  0  0  0  0  0  0  0  0
   -2.4481    0.6818   -0.3625 C   0  0  2  0  0  0  0  0  0  0  0  0
   -1.9087    1.9965    0.0406 C   0  0  0  0  0  0  0  0  0  0  0  0
   -3.3561    0.5066   -1.5351 C   0  0  0  0  0  0  0  0  0  0  0  0
   -3.0906   -0.9709   -1.9776 C   0  0  1  0  0  0  0  0  0  0  0  0
   -3.1065   -1.9796   -0.7517 C   0  0  0  0  0  0  0  0  0  0  0  0
   -4.1806   -1.3216   -2.8329 O   0  0  0  0  0  0  0  0  0  0  0  0
   -1.7973   -1.1260   -2.8393 C   0  0  0  0  0  0  0  0  0  0  0  0
   -0.4864   -0.8127   -2.2111 C   0  0  0  0  0  0  0  0  0  0  0  0
   -1.5661    0.2899   -0.7539 H   0  0  0  0  0  0  0  0  0  0  0  0
    0.1375    3.2436    0.9626 C   0  0  0  0  0  0  0  0  0  0  0  0
   -0.6273    4.3005    0.4108 C   0  0  0  0  0  0  0  0  0  0  0  0
   -0.2765    5.6466    0.1068 C   0  0  0  0  0  0  0  0  0  0  0  0
   -1.0732    6.9101    0.7066 C   0  0  1  0  0  0  0  0  0  0  0  0
   -0.7581    5.9503    1.9579 C   0  0  2  0  0  0  0  0  0  0  0  0
   -2.1142    4.8702    2.8236 C   0  0  2  0  0  0  0  0  0  0  0  0
   -2.0111    4.3252    4.3565 C   0  0  0  0  0  0  0  0  0  0  0  0
   -1.2506    3.4919    4.6334 O   0  0  0  0  0  0  0  0  0  0  0  0
   -3.0608    4.5707    5.2548 N   0  0  0  0  0  0  0  0  0  0  0  0
   -2.1566    3.5689    2.3764 O   0  0  0  0  0  0  0  0  0  0  0  0
   -3.5939    5.1653    2.4733 C   0  0  1  0  0  0  0  0  0  0  0  0
   -3.2769    6.2572    1.5383 C   0  0  1  0  0  0  0  0  0  0  0  0
   -2.2411    7.3589    1.3474 C   0  0  2  0  0  0  0  0  0  0  0  0
   -0.9097    8.1698    2.2568 N   0  0  3  0  0  0  0  0  0  0  0  0
   -0.3155    7.7455    3.5011 C   0  0  0  0  0  0  0  0  0  0  0  0
   -1.8685    7.5656    3.9101 C   0  0  0  0  0  0  0  0  0  0  0  0
   -3.0028    7.1750    3.0343 C   0  0  0  0  0  0  0  0  0  0  0  0
   -0.4637    9.4697    1.9092 C   0  0  0  0  0  0  0  0  0  0  0  0
   -0.9751    8.7922    0.6982 C   0  0  0  0  0  0  0  0  0  0  0  0
   -2.8329    7.9597    0.6000 H   0  0  0  0  0  0  0  0  0  0  0  0
   -3.1961    5.6187   -0.1844 C   0  0  0  0  0  0  0  0  0  0  0  0
   -3.7684    4.2618   -0.6294 C   0  0  0  0  0  0  0  0  0  0  0  0
   -4.4641    4.0876    2.0441 O   0  0  0  0  0  0  0  0  0  0  0  0
   -0.8011    5.9664    2.9997 H   0  0  0  0  0  0  0  0  0  0  0  0
    0.9835    6.2975    1.8480 N   0  0  0  0  0  0  0  0  0  0  0  0
    1.0269    5.6900    0.4586 C   0  0  0  0  0  0  0  0  0  0  0  0
    1.9818    4.7140    0.6742 C   0  0  0  0  0  0  0  0  0  0  0  0
    1.5093    3.5084    1.0878 C   0  0  0  0  0  0  0  0  0  0  0  0
    2.6117    2.7990    1.4474 O   0  0  0  0  0  0  0  0  0  0  0  0
    2.2901    1.5217    1.8239 C   0  0  0  0  0  0  0  0  0  0  0  0
    1.9157    7.4779    1.2466 C   0  0  0  0  0  0  0  0  0  0  0  0
   -1.1913    1.3883    2.5177 C   0  0  0  0  0  0  0  0  0  0  0  0
   -0.4480    1.0109    3.4775 O   0  0  0  0  0  0  0  0  0  0  0  0
   -2.5735    1.4979    2.7386 O   0  0  0  0  0  0  0  0  0  0  0  0
   -3.1998    1.2572    4.0218 C   0  0  0  0  0  0  0  0  0  0  0  0
    2.2954   -2.4265    0.7144 H   0  0  0  0  0  0  0  0  0  0  0  0
    4.5108   -2.4402   -0.3533 H   0  0  0  0  0  0  0  0  0  0  0  0
    5.3355   -0.4098   -1.4901 H   0  0  0  0  0  0  0  0  0  0  0  0
    3.8930    1.6115   -1.6681 H   0  0  0  0  0  0  0  0  0  0  0  0
    1.2630    2.4347   -1.0326 H   0  0  0  0  0  0  0  0  0  0  0  0
    0.5977   -1.6950    2.1563 H   0  0  0  0  0  0  0  0  0  0  0  0
   -0.7314   -0.7476    2.3732 H   0  0  0  0  0  0  0  0  0  0  0  0
   -0.6461   -2.6327    0.1135 H   0  0  0  0  0  0  0  0  0  0  0  0
   -1.4254   -2.9091    1.6409 H   0  0  0  0  0  0  0  0  0  0  0  0
   -2.3589   -0.0776    1.6729 H   0  0  0  0  0  0  0  0  0  0  0  0
   -3.9080   -0.0383    1.0200 H   0  0  0  0  0  0  0  0  0  0  0  0
   -1.6145    2.5722   -0.8552 H   0  0  0  0  0  0  0  0  0  0  0  0
   -2.7220    2.3980    0.5869 H   0  0  0  0  0  0  0  0  0  0  0  0
   -3.1489    1.2126   -2.3520 H   0  0  0  0  0  0  0  0  0  0  0  0
   -4.3947    0.6858   -1.2274 H   0  0  0  0  0  0  0  0  0  0  0  0
   -4.1554   -2.1190   -0.4650 H   0  0  0  0  0  0  0  0  0  0  0  0
   -2.7279   -2.9573   -1.0398 H   0  0  0  0  0  0  0  0  0  0  0  0
   -4.9864   -1.2184   -2.2983 H   0  0  0  0  0  0  0  0  0  0  0  0
   -1.7133   -2.1640   -3.1538 H   0  0  0  0  0  0  0  0  0  0  0  0
   -1.8533   -0.4739   -3.7108 H   0  0  0  0  0  0  0  0  0  0  0  0
   -0.4872   -1.3257   -1.2674 H   0  0  0  0  0  0  0  0  0  0  0  0
    0.4326   -1.1165   -2.7026 H   0  0  0  0  0  0  0  0  0  0  0  0
   -0.4136    0.2696   -2.1290 H   0  0  0  0  0  0  0  0  0  0  0  0
   -1.6555    4.1535    0.6781 H   0  0  0  0  0  0  0  0  0  0  0  0
   -3.6630    5.3613    5.2286 H   0  0  0  0  0  0  0  0  0  0  0  0
   -3.0496    4.0017    6.0993 H   0  0  0  0  0  0  0  0  0  0  0  0
   -1.4203    3.2134    2.8959 H   0  0  0  0  0  0  0  0  0  0  0  0
   -4.2798    5.5163    3.2619 H   0  0  0  0  0  0  0  0  0  0  0  0
    0.1444    6.7183    3.8371 H   0  0  0  0  0  0  0  0  0  0  0  0
    0.8480    7.6844    3.4458 H   0  0  0  0  0  0  0  0  0  0  0  0
   -1.4786    6.9659    4.7379 H   0  0  0  0  0  0  0  0  0  0  0  0
   -3.9622    7.6998    2.9079 H   0  0  0  0  0  0  0  0  0  0  0  0
    0.4846    9.9133    1.6232 H   0  0  0  0  0  0  0  0  0  0  0  0
   -0.5167    9.8014    2.9732 H   0  0  0  0  0  0  0  0  0  0  0  0
   -0.7664    9.1555   -0.2865 H   0  0  0  0  0  0  0  0  0  0  0  0
   -1.9979    9.3537    0.8594 H   0  0  0  0  0  0  0  0  0  0  0  0
   -3.1265    6.3571   -0.9913 H   0  0  0  0  0  0  0  0  0  0  0  0
   -2.2236    5.2677   -0.4506 H   0  0  0  0  0  0  0  0  0  0  0  0
   -4.7855    4.1650   -0.9622 H   0  0  0  0  0  0  0  0  0  0  0  0
   -3.1204    3.7445   -1.3729 H   0  0  0  0  0  0  0  0  0  0  0  0
   -3.7182    3.6469    0.2286 H   0  0  0  0  0  0  0  0  0  0  0  0
   -3.9242    3.2648    2.0587 H   0  0  0  0  0  0  0  0  0  0  0  0
    2.9156    5.0527    1.1330 H   0  0  0  0  0  0  0  0  0  0  0  0
    1.3244    1.4372    2.2831 H   0  0  0  0  0  0  0  0  0  0  0  0
    2.2848    1.1261    0.8719 H   0  0  0  0  0  0  0  0  0  0  0  0
    3.0115    0.8137    2.1850 H   0  0  0  0  0  0  0  0  0  0  0  0
    2.7902    7.3684    1.8927 H   0  0  0  0  0  0  0  0  0  0  0  0
    2.3894    7.3227    0.2341 H   0  0  0  0  0  0  0  0  0  0  0  0
    1.7473    8.5681    1.2432 H   0  0  0  0  0  0  0  0  0  0  0  0
   -3.6841    0.2816    3.9767 H   0  0  0  0  0  0  0  0  0  0  0  0
   -2.4889    1.3021    4.8452 H   0  0  0  0  0  0  0  0  0  0  0  0
   -3.9888    2.0057    4.2082 H   0  0  0  0  0  0  0  0  0  0  0  0
  1 24  1  0  0  0  0
  1 55  1  1  0  0  0
  2  1  1  0  0  0  0
  3  2  2  0  0  0  0
  4  3  1  0  0  0  0
  5  4  1  0  0  0  0
  5 59  1  0  0  0  0
  6  5  2  0  0  0  0
  6 60  1  0  0  0  0
  7  6  1  0  0  0  0
  7  8  2  0  0  0  0
  7 61  1  0  0  0  0
  8  9  1  0  0  0  0
  8 62  1  0  0  0  0
  9 10  1  0  0  0  0
  9  4  2  0  0  0  0
 10  2  1  0  0  0  0
 10 63  1  0  0  0  0
 11  3  1  0  0  0  0
 11 64  1  0  0  0  0
 11 65  1  0  0  0  0
 12 11  1  0  0  0  0
 12 13  1  0  0  0  0
 12 66  1  0  0  0  0
 12 67  1  0  0  0  0
 13 14  1  0  0  0  0
 14 15  1  0  0  0  0
 14 68  1  0  0  0  0
 14 69  1  0  0  0  0
 15 16  1  0  0  0  0
 15 23  1  6  0  0  0
 16  1  1  0  0  0  0
 16 70  1  0  0  0  0
 16 71  1  0  0  0  0
 17 15  1  0  0  0  0
 17 72  1  0  0  0  0
 17 73  1  0  0  0  0
 18 17  1  0  0  0  0
 18 20  1  6  0  0  0
 18 21  1  0  0  0  0
 19 18  1  0  0  0  0
 19 13  1  0  0  0  0
 19 74  1  0  0  0  0
 19 75  1  0  0  0  0
 20 76  1  0  0  0  0
 21 77  1  0  0  0  0
 21 78  1  0  0  0  0
 22 21  1  0  0  0  0
 22 79  1  0  0  0  0
 22 80  1  0  0  0  0
 22 81  1  0  0  0  0
 25 24  1  0  0  0  0
 25 82  1  0  0  0  0
 26 25  2  0  0  0  0
 26 49  1  0  0  0  0
 27 26  1  1  0  0  0
 27 42  1  0  0  0  0
 28 27  1  0  0  0  0
 28 47  1  6  0  0  0
 29 28  1  0  0  0  0
 29 33  1  6  0  0  0
 29 30  1  0  0  0  0
 31 30  2  0  0  0  0
 32 30  1  0  0  0  0
 32 83  1  0  0  0  0
 32 84  1  0  0  0  0
 33 85  1  0  0  0  0
 34 29  1  0  0  0  0
 34 35  1  0  0  0  0
 34 46  1  0  0  0  0
 34 86  1  1  0  0  0
 35 36  1  0  0  0  0
 35 44  1  1  0  0  0
 36 27  1  0  0  0  0
 36 43  1  1  0  0  0
 37 36  1  0  0  0  0
 38 37  1  0  0  0  0
 38 87  1  0  0  0  0
 38 88  1  0  0  0  0
 39 38  1  0  0  0  0
 39 40  2  0  0  0  0
 39 89  1  0  0  0  0
 40 35  1  0  0  0  0
 40 90  1  0  0  0  0
 41 37  1  0  0  0  0
 41 42  1  0  0  0  0
 41 91  1  0  0  0  0
 41 92  1  0  0  0  0
 42 93  1  0  0  0  0
 42 94  1  0  0  0  0
 44 95  1  0  0  0  0
 44 96  1  0  0  0  0
 45 44  1  0  0  0  0
 45 97  1  0  0  0  0
 45 98  1  0  0  0  0
 45 99  1  0  0  0  0
 46100  1  0  0  0  0
 48 28  1  0  0  0  0
 48 49  1  0  0  0  0
 49 50  2  0  0  0  0
 50 51  1  0  0  0  0
 50101  1  0  0  0  0
 51 24  2  0  0  0  0
 52 51  1  0  0  0  0
 53 52  1  0  0  0  0
 53102  1  0  0  0  0
 53103  1  0  0  0  0
 53104  1  0  0  0  0
 54 48  1  0  0  0  0
 54105  1  0  0  0  0
 54106  1  0  0  0  0
 54107  1  0  0  0  0
 56 55  2  0  0  0  0
 57 55  1  0  0  0  0
 58 57  1  0  0  0  0
 58108  1  0  0  0  0
 58109  1  0  0  0  0
 58110  1  0  0  0  0
M  END
>  <DRUGBANK_ID>
DB00309

>  <SECONDARY_ACCESSION_NUMBERS>
APRD00392

>  <COMMON_NAME>
Vindesine

>  <CAS_NUMBER>
53643-48-4

>  <UNII>
RSA8KO39WH

>  <SYNONYMS>
3-(aminocarbonyl)-O4-deacetyl-3-de(methoxycarbonyl)vincaleukoblastine; 3-carbamoyl-4-deacetyl-3-de(methoxycarbonyl)vincaleukoblastine; Desacetylvinblastine amide; Vindesina; Vindesine; Vindesinum

$$$$
