4838
 OpenBabel10282417143D

 44 45  0  0  1  0  0  0  0  0999 V2000
    0.9834   -0.0015   -0.0012 O   0  0  0  0  0  0  0  0  0  0  0  0
    2.9496   -0.0465    1.0674 O   0  0  0  0  0  0  0  0  0  0  0  0
    2.8585   -1.0263   -2.1879 O   0  0  0  0  0  0  0  0  0  0  0  0
   -1.4800   -1.1399   -2.6682 C   0  0  0  0  0  0  0  0  0  0  0  0
   -2.2863    0.1847   -2.7782 C   0  0  0  0  0  0  0  0  0  0  0  0
   -1.4612    1.4412   -2.5738 C   0  0  3  0  0  0  0  0  0  0  0  0
   -0.7350   -1.1579   -1.3118 C   0  0  0  0  0  0  0  0  0  0  0  0
    0.1955    0.0473   -1.2013 C   0  0  3  0  0  0  0  0  0  0  0  0
   -0.5826    1.3585   -1.3038 C   0  0  0  0  0  0  0  0  0  0  0  0
   -2.4891   -2.2829   -2.7311 C   0  0  0  0  0  0  0  0  0  0  0  0
   -0.4942   -1.4195   -3.8344 C   0  0  0  0  0  0  0  0  0  0  0  0
   -0.7025    1.7220   -3.8429 C   0  0  0  0  0  0  0  0  0  0  0  0
    2.3527    0.0372    0.0060 C   0  0  0  0  0  0  0  0  0  0  0  0
    3.1491    0.0911   -1.3384 C   0  0  3  0  0  0  0  0  0  0  0  0
    3.0430    1.4230   -2.0826 C   0  0  0  0  0  0  0  0  0  0  0  0
    2.3396    1.5434   -3.2788 C   0  0  0  0  0  0  0  0  0  0  0  0
    3.6299    2.5937   -1.5995 C   0  0  0  0  0  0  0  0  0  0  0  0
    2.0635    2.7876   -3.8627 C   0  0  0  0  0  0  0  0  0  0  0  0
    3.3028    3.8486   -2.1450 C   0  0  0  0  0  0  0  0  0  0  0  0
    2.4598    3.9519   -3.2411 C   0  0  0  0  0  0  0  0  0  0  0  0
    3.0395   -1.8297   -1.6675 H   0  0  0  0  0  0  0  0  0  0  0  0
   -2.8072    0.2447   -3.7429 H   0  0  0  0  0  0  0  0  0  0  0  0
   -3.0705    0.2043   -2.0090 H   0  0  0  0  0  0  0  0  0  0  0  0
   -2.1169    2.3124   -2.4584 H   0  0  0  0  0  0  0  0  0  0  0  0
   -1.4475   -1.1491   -0.4761 H   0  0  0  0  0  0  0  0  0  0  0  0
   -0.1529   -2.0807   -1.2056 H   0  0  0  0  0  0  0  0  0  0  0  0
    0.8515   -0.0208   -2.0415 H   0  0  0  0  0  0  0  0  0  0  0  0
    0.1121    2.2056   -1.2411 H   0  0  0  0  0  0  0  0  0  0  0  0
   -1.2288    1.4589   -0.4215 H   0  0  0  0  0  0  0  0  0  0  0  0
   -3.0226   -2.2571   -3.6888 H   0  0  0  0  0  0  0  0  0  0  0  0
   -1.9753   -3.2453   -2.6533 H   0  0  0  0  0  0  0  0  0  0  0  0
   -3.2202   -2.2092   -1.9234 H   0  0  0  0  0  0  0  0  0  0  0  0
    0.4336   -0.8564   -3.7993 H   0  0  0  0  0  0  0  0  0  0  0  0
   -0.1406   -2.4558   -3.8132 H   0  0  0  0  0  0  0  0  0  0  0  0
   -0.9593   -1.2308   -4.8078 H   0  0  0  0  0  0  0  0  0  0  0  0
   -1.3027    1.8364   -4.7470 H   0  0  0  0  0  0  0  0  0  0  0  0
   -0.2152    2.6648   -3.6532 H   0  0  0  0  0  0  0  0  0  0  0  0
    0.0134    0.9544   -4.0954 H   0  0  0  0  0  0  0  0  0  0  0  0
    4.2062   -0.0276   -1.0757 H   0  0  0  0  0  0  0  0  0  0  0  0
    1.9362    0.6465   -3.7346 H   0  0  0  0  0  0  0  0  0  0  0  0
    4.3569    2.5420   -0.7952 H   0  0  0  0  0  0  0  0  0  0  0  0
    1.4354    2.8553   -4.7505 H   0  0  0  0  0  0  0  0  0  0  0  0
    3.7100    4.7559   -1.7122 H   0  0  0  0  0  0  0  0  0  0  0  0
    2.1342    4.9117   -3.6342 H   0  0  0  0  0  0  0  0  0  0  0  0
  1  8  1  0  0  0  0
  1 13  1  0  0  0  0
  2 13  2  0  0  0  0
  3 14  1  0  0  0  0
  3 21  1  0  0  0  0
  4  5  1  0  0  0  0
  4  7  1  0  0  0  0
  4 10  1  0  0  0  0
  4 11  1  0  0  0  0
  5  6  1  0  0  0  0
  5 22  1  0  0  0  0
  5 23  1  0  0  0  0
  6  9  1  0  0  0  0
  6 12  1  0  0  0  0
  6 24  1  0  0  0  0
  7  8  1  0  0  0  0
  7 25  1  0  0  0  0
  7 26  1  0  0  0  0
  8  9  1  0  0  0  0
  8 27  1  0  0  0  0
  9 28  1  0  0  0  0
  9 29  1  0  0  0  0
 10 30  1  0  0  0  0
 10 31  1  0  0  0  0
 10 32  1  0  0  0  0
 11 33  1  0  0  0  0
 11 34  1  0  0  0  0
 11 35  1  0  0  0  0
 12 36  1  0  0  0  0
 12 37  1  0  0  0  0
 12 38  1  0  0  0  0
 13 14  1  0  0  0  0
 14 15  1  0  0  0  0
 14 39  1  0  0  0  0
 15 16  2  0  0  0  0
 15 17  1  0  0  0  0
 16 18  1  0  0  0  0
 16 40  1  0  0  0  0
 17 19  2  0  0  0  0
 17 41  1  0  0  0  0
 18 20  2  0  0  0  0
 18 42  1  0  0  0  0
 19 20  1  0  0  0  0
 19 43  1  0  0  0  0
 20 44  1  0  0  0  0
M  END
>  <DRUGBANK_ID>
DB04838

>  <COMMON_NAME>
Cyclandelate

>  <CAS_NUMBER>
456-59-7

>  <UNII>
4139O1OAY2

>  <SYNONYMS>
3,3,5-Trimethylcyclohexyl mandelate; 3,5,5-Trimethylcyclohexyl amygdalate; Ciclandelato; Cyclandelate; Cyclandelatum

$$$$
