S23
 OpenBabel10282417173D

 56 57  0  0  0  0  0  0  0  0999 V2000
    7.1476   -1.3433    5.5674 O   0  0  0  0  0  0  0  0  0  0  0  0
    6.9179   -0.3078    4.4648 P   0  0  2  0  0  0  0  0  0  0  0  0
    7.6011   -1.4179    3.3273 O   0  0  0  0  0  0  0  0  0  0  0  0
    8.7376    0.5982    3.7781 C   0  0  1  0  0  0  0  0  0  0  0  0
    8.4345    1.7390    2.9140 N   0  0  0  0  0  0  0  0  0  0  0  0
    9.6403    0.6182    4.9551 C   0  0  0  0  0  0  0  0  0  0  0  0
    6.1953    0.8664    5.6681 C   0  0  0  0  0  0  0  0  0  0  0  0
    6.3982    2.3944    5.5314 C   0  0  1  0  0  0  0  0  0  0  0  0
    7.8280    2.8492    5.8713 C   0  0  0  0  0  0  0  0  0  0  0  0
    8.3967    2.2937    7.1948 C   0  0  0  0  0  0  0  0  0  0  0  0
    9.2447    3.0952    7.9286 C   0  0  0  0  0  0  0  0  0  0  0  0
    9.7896    2.6065    9.1228 C   0  0  0  0  0  0  0  0  0  0  0  0
    9.5793    1.2922    9.5681 C   0  0  0  0  0  0  0  0  0  0  0  0
    8.8416    0.4294    8.8098 C   0  0  0  0  0  0  0  0  0  0  0  0
    8.2903    0.9399    7.6554 C   0  0  0  0  0  0  0  0  0  0  0  0
    5.8458    2.6591    4.1441 C   0  0  0  0  0  0  0  0  0  0  0  0
    5.8390    1.7096    3.3397 O   0  0  0  0  0  0  0  0  0  0  0  0
    5.3436    3.8436    3.7459 N   0  0  0  0  0  0  0  0  0  0  0  0
    4.7032    4.0309    2.3993 C   0  0  2  0  0  0  0  0  0  0  0  0
    3.1793    4.2748    2.5880 C   0  0  0  0  0  0  0  0  0  0  0  0
    2.7879    5.1452    3.3555 O   0  0  0  0  0  0  0  0  0  0  0  0
    2.2655    3.5186    1.9633 O   0  0  0  0  0  0  0  0  0  0  0  0
    5.2661    3.1642    1.2230 C   0  0  0  0  0  0  0  0  0  0  0  0
    4.3943    2.0673    0.6527 C   0  0  0  0  0  0  0  0  0  0  0  0
    4.2913    0.7734    1.1936 C   0  0  0  0  0  0  0  0  0  0  0  0
    3.3814   -0.1524    0.6898 C   0  0  0  0  0  0  0  0  0  0  0  0
    2.4807    0.2389   -0.2890 C   0  0  0  0  0  0  0  0  0  0  0  0
    2.5419    1.5267   -0.8159 C   0  0  0  0  0  0  0  0  0  0  0  0
    3.5265    2.4161   -0.3912 C   0  0  0  0  0  0  0  0  0  0  0  0
    9.1766   -0.1149    3.0765 H   0  0  0  0  0  0  0  0  0  0  0  0
    5.7450    2.9233    6.2324 H   0  0  0  0  0  0  0  0  0  0  0  0
    5.0579    5.0418    2.1418 H   0  0  0  0  0  0  0  0  0  0  0  0
    7.0659   -1.4602    2.5132 H   0  0  0  0  0  0  0  0  0  0  0  0
    8.6777    2.6534    3.2765 H   0  0  0  0  0  0  0  0  0  0  0  0
    7.4581    1.7289    2.6245 H   0  0  0  0  0  0  0  0  0  0  0  0
   10.0272   -0.3347    5.3160 H   0  0  0  0  0  0  0  0  0  0  0  0
   10.3388    1.4478    5.0440 H   0  0  0  0  0  0  0  0  0  0  0  0
    8.8730    0.7630    5.6489 H   0  0  0  0  0  0  0  0  0  0  0  0
    5.1155    0.7070    5.4929 H   0  0  0  0  0  0  0  0  0  0  0  0
    6.1972    0.5632    6.7132 H   0  0  0  0  0  0  0  0  0  0  0  0
    8.5253    2.6109    5.0892 H   0  0  0  0  0  0  0  0  0  0  0  0
    7.9315    3.9420    5.7990 H   0  0  0  0  0  0  0  0  0  0  0  0
    9.5046    4.0855    7.5664 H   0  0  0  0  0  0  0  0  0  0  0  0
   10.3941    3.2702    9.7252 H   0  0  0  0  0  0  0  0  0  0  0  0
   10.0144    0.9240   10.4867 H   0  0  0  0  0  0  0  0  0  0  0  0
    8.6943   -0.6244    9.0453 H   0  0  0  0  0  0  0  0  0  0  0  0
    7.9018    0.1126    7.0725 H   0  0  0  0  0  0  0  0  0  0  0  0
    4.9891    4.4626    4.4735 H   0  0  0  0  0  0  0  0  0  0  0  0
    2.5454    2.6673    1.5872 H   0  0  0  0  0  0  0  0  0  0  0  0
    5.5270    3.8405    0.3959 H   0  0  0  0  0  0  0  0  0  0  0  0
    6.2509    2.7541    1.4531 H   0  0  0  0  0  0  0  0  0  0  0  0
    4.8634    0.4387    2.0481 H   0  0  0  0  0  0  0  0  0  0  0  0
    3.3578   -1.1636    1.0916 H   0  0  0  0  0  0  0  0  0  0  0  0
    1.7136   -0.4540   -0.6211 H   0  0  0  0  0  0  0  0  0  0  0  0
    1.7941    1.8592   -1.5298 H   0  0  0  0  0  0  0  0  0  0  0  0
    3.5178    3.4376   -0.7692 H   0  0  0  0  0  0  0  0  0  0  0  0
  2  4  1  0  0  0  0
  2  7  1  0  0  0  0
  2  3  1  0  0  0  0
  2  1  2  1  0  0  0
  3 33  1  0  0  0  0
  4  5  1  0  0  0  0
  4  6  1  0  0  0  0
  4 30  1  6  0  0  0
  5 34  1  0  0  0  0
  5 35  1  0  0  0  0
  6 36  1  0  0  0  0
  6 37  1  0  0  0  0
  6 38  1  0  0  0  0
  7 39  1  0  0  0  0
  7 40  1  0  0  0  0
  8  7  1  0  0  0  0
  8 16  1  0  0  0  0
  8 31  1  1  0  0  0
  8  9  1  0  0  0  0
  9 41  1  0  0  0  0
  9 42  1  0  0  0  0
 10  9  1  0  0  0  0
 11 10  1  0  0  0  0
 11 43  1  0  0  0  0
 12 11  2  0  0  0  0
 12 44  1  0  0  0  0
 13 12  1  0  0  0  0
 13 14  2  0  0  0  0
 13 45  1  0  0  0  0
 14 15  1  0  0  0  0
 14 46  1  0  0  0  0
 15 10  2  0  0  0  0
 15 47  1  0  0  0  0
 16 18  1  0  0  0  0
 17 16  2  0  0  0  0
 18 48  1  0  0  0  0
 19 32  1  6  0  0  0
 19 23  1  0  0  0  0
 19 18  1  0  0  0  0
 20 19  1  0  0  0  0
 20 22  1  0  0  0  0
 21 20  2  0  0  0  0
 22 49  1  0  0  0  0
 23 24  1  0  0  0  0
 23 50  1  0  0  0  0
 23 51  1  0  0  0  0
 24 29  1  0  0  0  0
 25 24  2  0  0  0  0
 25 26  1  0  0  0  0
 25 52  1  0  0  0  0
 26 27  2  0  0  0  0
 26 53  1  0  0  0  0
 27 28  1  0  0  0  0
 27 54  1  0  0  0  0
 28 55  1  0  0  0  0
 29 28  2  0  0  0  0
 29 56  1  0  0  0  0
M  END
>  <DRUGBANK_ID>
DB08506

>  <COMMON_NAME>
N-{(2S)-3-[(1R)-1-aminoethyl](hydroxy)phosphoryl-2-benzylpropanoyl}-L-phenylalanine

$$$$
