
 OpenBabel10282417103D

 23 23  0  0  0  0  0  0  0  0999 V2000
    0.9680   -0.0477   -0.0787 C   0  0  0  0  0  0  0  0  0  0  0  0
    0.4727   -0.5807    1.2936 C   0  0  2  0  0  0  0  0  0  0  0  0
    0.4991    1.3654   -0.3537 C   0  0  0  0  0  0  0  0  0  0  0  0
    0.9076    3.7465   -0.2835 C   0  0  0  0  0  0  0  0  0  0  0  0
   -0.4633    3.9900   -0.3747 C   0  0  0  0  0  0  0  0  0  0  0  0
   -1.3531    2.9287   -0.4906 C   0  0  0  0  0  0  0  0  0  0  0  0
   -0.8665    1.6283   -0.5307 C   0  0  0  0  0  0  0  0  0  0  0  0
    1.3935    2.4387   -0.2983 C   0  0  0  0  0  0  0  0  0  0  0  0
   -1.0062   -0.6982    1.3909 N   0  0  0  0  0  0  0  0  0  0  0  0
    1.0616    0.2737    2.4321 C   0  0  0  0  0  0  0  0  0  0  0  0
    0.1547    0.8734    3.2390 O   0  0  0  0  0  0  0  0  0  0  0  0
    2.2684    0.4081    2.6204 O   0  0  0  0  0  0  0  0  0  0  0  0
    0.6340   -0.7028   -0.8933 H   0  0  0  0  0  0  0  0  0  0  0  0
    2.0671   -0.0812   -0.1006 H   0  0  0  0  0  0  0  0  0  0  0  0
    0.8630   -1.5961    1.4319 H   0  0  0  0  0  0  0  0  0  0  0  0
    1.5980    4.5775   -0.1671 H   0  0  0  0  0  0  0  0  0  0  0  0
   -0.8373    5.0094   -0.3687 H   0  0  0  0  0  0  0  0  0  0  0  0
   -2.4241    3.1050   -0.5310 H   0  0  0  0  0  0  0  0  0  0  0  0
   -1.5726    0.8085   -0.6455 H   0  0  0  0  0  0  0  0  0  0  0  0
    2.4669    2.2676   -0.2334 H   0  0  0  0  0  0  0  0  0  0  0  0
   -1.2951   -1.1289    2.2643 H   0  0  0  0  0  0  0  0  0  0  0  0
   -1.4477    0.2104    1.2826 H   0  0  0  0  0  0  0  0  0  0  0  0
   -0.7651    0.7259    2.9580 H   0  0  0  0  0  0  0  0  0  0  0  0
  1  2  1  0  0  0  0
  1 13  1  0  0  0  0
  1 14  1  0  0  0  0
  2 10  1  0  0  0  0
  2  9  1  0  0  0  0
  2 15  1  1  0  0  0
  3  1  1  0  0  0  0
  3  7  2  0  0  0  0
  3  8  1  0  0  0  0
  4  8  2  0  0  0  0
  4 16  1  0  0  0  0
  5  4  1  0  0  0  0
  5 17  1  0  0  0  0
  6  5  2  0  0  0  0
  6 18  1  0  0  0  0
  7  6  1  0  0  0  0
  7 19  1  0  0  0  0
  8 20  1  0  0  0  0
  9 21  1  0  0  0  0
  9 22  1  0  0  0  0
 11 10  1  0  0  0  0
 11 23  1  0  0  0  0
 12 10  2  0  0  0  0
M  END
>  <DRUGBANK_ID>
DB00120

>  <SECONDARY_ACCESSION_NUMBERS>
NUTR00044

>  <COMMON_NAME>
Phenylalanine

>  <CAS_NUMBER>
63-91-2

>  <UNII>
47E5O17Y3R

>  <SYNONYMS>
(S)-2-Amino-3-phenylpropionic acid; (S)-alpha-Amino-beta-phenylpropionic acid; 3-phenyl-L-alanine; beta-Phenyl-L-alanine; F; Fenilalanina; L-Phenylalanine; Phe; Phenylalanine; Phenylalaninum; Î²-phenyl-L-alanine

$$$$
