
 OpenBabel10282417123D

 42 43  0  0  1  0  0  0  0  0999 V2000
   -3.4935   -1.0110   -2.1540 O   0  0  0  0  0  0  0  0  0  0  0  0
   -2.6083    1.7299   -1.6199 O   0  0  0  0  0  0  0  0  0  0  0  0
   -4.7698   -2.3032   -0.7548 O   0  0  0  0  0  0  0  0  0  0  0  0
   -3.1271   -1.0130    0.0361 N   0  0  0  0  0  0  0  0  0  0  0  0
   -4.9066    0.6797    0.6806 N   0  3  0  0  0  0  0  0  0  0  0  0
   -5.6701   -0.0279    1.0229 N   0  0  0  0  0  0  0  0  0  0  0  0
   -2.0206   -0.0614   -0.1161 C   0  0  2  0  0  0  0  0  0  0  0  0
   -1.1891    0.2724    1.1516 C   0  0  0  0  0  0  0  0  0  0  0  0
   -1.2835   -0.7395    2.2671 C   0  0  0  0  0  0  0  0  0  0  0  0
   -2.8409    1.1501   -0.5608 C   0  0  0  0  0  0  0  0  0  0  0  0
   -1.1409   -0.3263    3.5914 C   0  0  0  0  0  0  0  0  0  0  0  0
   -1.6082   -2.0807    2.0243 C   0  0  0  0  0  0  0  0  0  0  0  0
   -3.9439    1.6556    0.3273 C   0  0  0  0  0  0  0  0  0  0  0  0
   -3.8186   -1.5805   -0.9916 C   0  0  0  0  0  0  0  0  0  0  0  0
   -1.4765   -1.2007    4.6245 C   0  0  0  0  0  0  0  0  0  0  0  0
   -2.1678   -2.8573    3.0249 C   0  0  0  0  0  0  0  0  0  0  0  0
   -2.0335   -2.4471    4.3388 C   0  0  0  0  0  0  0  0  0  0  0  0
   -4.4485   -1.2103   -3.1856 C   0  0  0  0  0  0  0  0  0  0  0  0
   -3.9515   -0.4825   -4.3988 C   0  0  0  0  0  0  0  0  0  0  0  0
   -3.4950   -1.2138   -5.4988 C   0  0  0  0  0  0  0  0  0  0  0  0
   -3.9553    0.9189   -4.4667 C   0  0  0  0  0  0  0  0  0  0  0  0
   -3.0737   -0.5601   -6.6543 C   0  0  0  0  0  0  0  0  0  0  0  0
   -3.5892    1.5684   -5.6453 C   0  0  0  0  0  0  0  0  0  0  0  0
   -3.1140    0.8302   -6.7254 C   0  0  0  0  0  0  0  0  0  0  0  0
   -3.3287   -1.4950    0.9091 H   0  0  0  0  0  0  0  0  0  0  0  0
   -1.3491   -0.3962   -0.9173 H   0  0  0  0  0  0  0  0  0  0  0  0
   -0.1365    0.4436    0.8930 H   0  0  0  0  0  0  0  0  0  0  0  0
   -1.5283    1.2402    1.5493 H   0  0  0  0  0  0  0  0  0  0  0  0
   -0.7610    0.6653    3.8313 H   0  0  0  0  0  0  0  0  0  0  0  0
   -1.5720   -2.5066    1.0220 H   0  0  0  0  0  0  0  0  0  0  0  0
   -3.5101    2.0700    1.2376 H   0  0  0  0  0  0  0  0  0  0  0  0
   -4.4678    2.4537   -0.2035 H   0  0  0  0  0  0  0  0  0  0  0  0
   -1.3330   -0.9022    5.6590 H   0  0  0  0  0  0  0  0  0  0  0  0
   -2.6923   -3.7777    2.7760 H   0  0  0  0  0  0  0  0  0  0  0  0
   -2.3211   -3.1253    5.1368 H   0  0  0  0  0  0  0  0  0  0  0  0
   -4.5634   -2.2813   -3.3765 H   0  0  0  0  0  0  0  0  0  0  0  0
   -5.4177   -0.7909   -2.8854 H   0  0  0  0  0  0  0  0  0  0  0  0
   -3.4679   -2.3004   -5.4628 H   0  0  0  0  0  0  0  0  0  0  0  0
   -4.2400    1.5217   -3.6098 H   0  0  0  0  0  0  0  0  0  0  0  0
   -2.7316   -1.1390   -7.5077 H   0  0  0  0  0  0  0  0  0  0  0  0
   -3.6810    2.6484   -5.7285 H   0  0  0  0  0  0  0  0  0  0  0  0
   -2.7704    1.3390   -7.6222 H   0  0  0  0  0  0  0  0  0  0  0  0
  1 14  1  0  0  0  0
  1 18  1  0  0  0  0
  2 10  2  0  0  0  0
  3 14  2  0  0  0  0
  4 14  1  0  0  0  0
  4 25  1  0  0  0  0
  5  6  3  0  0  0  0
  5 13  1  0  0  0  0
  7 10  1  0  0  0  0
  7 26  1  6  0  0  0
  7  8  1  0  0  0  0
  7  4  1  0  0  0  0
  8  9  1  0  0  0  0
  8 27  1  0  0  0  0
  8 28  1  0  0  0  0
  9 11  2  0  0  0  0
  9 12  1  0  0  0  0
 10 13  1  0  0  0  0
 11 15  1  0  0  0  0
 11 29  1  0  0  0  0
 12 16  2  0  0  0  0
 12 30  1  0  0  0  0
 13 31  1  0  0  0  0
 13 32  1  0  0  0  0
 15 17  2  0  0  0  0
 15 33  1  0  0  0  0
 16 17  1  0  0  0  0
 16 34  1  0  0  0  0
 17 35  1  0  0  0  0
 18 19  1  0  0  0  0
 18 36  1  0  0  0  0
 18 37  1  0  0  0  0
 19 20  2  0  0  0  0
 19 21  1  0  0  0  0
 20 22  1  0  0  0  0
 20 38  1  0  0  0  0
 21 23  2  0  0  0  0
 21 39  1  0  0  0  0
 22 24  2  0  0  0  0
 22 40  1  0  0  0  0
 23 24  1  0  0  0  0
 23 41  1  0  0  0  0
 24 42  1  0  0  0  0
M  CHG  1   5   1
M  END
>  <DRUGBANK_ID>
DB02766

>  <SECONDARY_ACCESSION_NUMBERS>
EXPT03288

>  <COMMON_NAME>
(3R)-3-{[(Benzyloxy)carbonyl]amino}-2-oxo-4-phenylbutane-1-diazonium

$$$$
