
 OpenBabel10282417213D

 60 63  0  0  0  0  0  0  0  0999 V2000
    2.6556    2.6185   -1.3307 F   0  0  0  0  0  0  0  0  0  0  0  0
    3.3559    6.1046   -0.6781 O   0  0  0  0  0  0  0  0  0  0  0  0
    0.4427    3.4528   -4.1666 O   0  0  0  0  0  0  0  0  0  0  0  0
    1.3595    7.7448   -3.1174 O   0  0  0  0  0  0  0  0  0  0  0  0
    3.8727    8.9252   -1.0807 O   0  0  0  0  0  0  0  0  0  0  0  0
    5.3794   -0.5325   -2.4582 O   0  0  0  0  0  0  0  0  0  0  0  0
    1.8837   10.0557   -1.2664 O   0  0  0  0  0  0  0  0  0  0  0  0
    1.0175    4.4158   -0.2345 C   0  0  1  0  0  0  0  0  0  0  0  0
    0.5265    2.8898   -0.7629 C   0  0  1  0  0  0  0  0  0  0  0  0
    1.2431    5.2501   -1.5801 C   0  0  1  0  0  0  0  0  0  0  0  0
    1.4152    2.4674   -2.0060 C   0  0  2  0  0  0  0  0  0  0  0  0
    2.0341    6.4811   -1.1387 C   0  0  1  0  0  0  0  0  0  0  0  0
    1.5209    1.0193   -2.5967 C   0  0  2  0  0  0  0  0  0  0  0  0
    1.4873    3.4297   -3.2123 C   0  0  2  0  0  0  0  0  0  0  0  0
    2.0916    4.6648   -2.6973 C   0  0  0  0  0  0  0  0  0  0  0  0
    1.3768    5.5617    0.9389 C   0  0  0  0  0  0  0  0  0  0  0  0
    1.1854    6.7919    0.0413 C   0  0  0  0  0  0  0  0  0  0  0  0
    0.5385    1.7273    0.2574 C   0  0  0  0  0  0  0  0  0  0  0  0
    1.8866    0.1618   -1.3690 C   0  0  0  0  0  0  0  0  0  0  0  0
    2.2108    7.5209   -2.2543 C   0  0  0  0  0  0  0  0  0  0  0  0
   -0.1867    5.4847   -2.1223 C   0  0  0  0  0  0  0  0  0  0  0  0
    0.6196    0.3193   -0.4314 C   0  0  0  0  0  0  0  0  0  0  0  0
    2.7163    1.0838   -3.5453 C   0  0  0  0  0  0  0  0  0  0  0  0
    0.4532    0.5771   -3.6978 C   0  0  0  0  0  0  0  0  0  0  0  0
    3.2251   -0.1970   -1.2420 C   0  0  0  0  0  0  0  0  0  0  0  0
    0.0851    7.5751    0.0197 C   0  0  0  0  0  0  0  0  0  0  0  0
    3.5488    8.2332   -2.2838 C   0  0  0  0  0  0  0  0  0  0  0  0
    3.5903    0.1908   -3.6899 C   0  0  0  0  0  0  0  0  0  0  0  0
    4.2063   -0.2461   -2.4510 C   0  0  0  0  0  0  0  0  0  0  0  0
    2.9234    9.8089   -0.6727 C   0  0  0  0  0  0  0  0  0  0  0  0
    3.3140   10.4662    0.6091 C   0  0  0  0  0  0  0  0  0  0  0  0
    0.0040    4.5190    0.1844 H   0  0  0  0  0  0  0  0  0  0  0  0
   -0.5311    3.0103   -1.0833 H   0  0  0  0  0  0  0  0  0  0  0  0
    3.4643    5.1347   -0.6575 H   0  0  0  0  0  0  0  0  0  0  0  0
   -0.2777    4.0644   -3.9770 H   0  0  0  0  0  0  0  0  0  0  0  0
    2.3116    3.1941   -3.8703 H   0  0  0  0  0  0  0  0  0  0  0  0
    2.2627    5.3417   -3.5364 H   0  0  0  0  0  0  0  0  0  0  0  0
    3.1093    4.3853   -2.3660 H   0  0  0  0  0  0  0  0  0  0  0  0
    0.7099    5.6647    1.8059 H   0  0  0  0  0  0  0  0  0  0  0  0
    2.4072    5.6475    1.3275 H   0  0  0  0  0  0  0  0  0  0  0  0
    1.4154    1.8299    0.8894 H   0  0  0  0  0  0  0  0  0  0  0  0
   -0.3550    1.7994    0.9036 H   0  0  0  0  0  0  0  0  0  0  0  0
   -0.6933    4.5588   -2.3792 H   0  0  0  0  0  0  0  0  0  0  0  0
   -0.8699    5.8713   -1.3729 H   0  0  0  0  0  0  0  0  0  0  0  0
   -0.1859    6.1137   -3.0066 H   0  0  0  0  0  0  0  0  0  0  0  0
    0.4022   -0.5045    0.2636 H   0  0  0  0  0  0  0  0  0  0  0  0
   -0.2698    0.2730   -1.0963 H   0  0  0  0  0  0  0  0  0  0  0  0
    2.4278    1.5436   -4.4850 H   0  0  0  0  0  0  0  0  0  0  0  0
   -0.5744    0.9185   -3.5668 H   0  0  0  0  0  0  0  0  0  0  0  0
    0.6871    1.0306   -4.6848 H   0  0  0  0  0  0  0  0  0  0  0  0
    0.4941   -0.4926   -3.9532 H   0  0  0  0  0  0  0  0  0  0  0  0
    3.8270   -0.4156   -0.3573 H   0  0  0  0  0  0  0  0  0  0  0  0
   -0.2628    7.9909   -0.9380 H   0  0  0  0  0  0  0  0  0  0  0  0
   -0.6617    7.5717    0.8040 H   0  0  0  0  0  0  0  0  0  0  0  0
    4.3250    7.4807   -2.4823 H   0  0  0  0  0  0  0  0  0  0  0  0
    3.5545    8.9226   -3.1315 H   0  0  0  0  0  0  0  0  0  0  0  0
    3.5705   -0.3465   -4.6374 H   0  0  0  0  0  0  0  0  0  0  0  0
    3.4064    9.7299    1.4108 H   0  0  0  0  0  0  0  0  0  0  0  0
    4.2463   11.0163    0.4684 H   0  0  0  0  0  0  0  0  0  0  0  0
    2.5286   11.1776    0.8816 H   0  0  0  0  0  0  0  0  0  0  0  0
  2 34  1  0  0  0  0
  3 35  1  0  0  0  0
  4 20  2  0  0  0  0
  5 27  1  0  0  0  0
  5 30  1  0  0  0  0
  6 29  2  0  0  0  0
  7 30  2  0  0  0  0
  8  9  1  0  0  0  0
  8 10  1  0  0  0  0
  8 16  1  0  0  0  0
  8 32  1  6  0  0  0
  9 11  1  0  0  0  0
  9 18  1  0  0  0  0
  9 33  1  6  0  0  0
 10 12  1  0  0  0  0
 10 15  1  0  0  0  0
 10 21  1  6  0  0  0
 11  1  1  1  0  0  0
 11 13  1  0  0  0  0
 11 14  1  0  0  0  0
 12 17  1  0  0  0  0
 12 20  1  6  0  0  0
 12  2  1  0  0  0  0
 13 19  1  0  0  0  0
 13 23  1  0  0  0  0
 13 24  1  6  0  0  0
 14  3  1  0  0  0  0
 14 15  1  0  0  0  0
 14 36  1  6  0  0  0
 15 37  1  0  0  0  0
 15 38  1  0  0  0  0
 16 17  1  0  0  0  0
 16 39  1  0  0  0  0
 16 40  1  0  0  0  0
 17 26  2  0  0  0  0
 18 22  1  0  0  0  0
 18 41  1  0  0  0  0
 18 42  1  0  0  0  0
 19 22  1  0  0  0  0
 19 25  2  0  0  0  0
 20 27  1  0  0  0  0
 21 43  1  0  0  0  0
 21 44  1  0  0  0  0
 21 45  1  0  0  0  0
 22 46  1  0  0  0  0
 22 47  1  0  0  0  0
 23 28  2  0  0  0  0
 23 48  1  0  0  0  0
 24 49  1  0  0  0  0
 24 50  1  0  0  0  0
 24 51  1  0  0  0  0
 25 29  1  0  0  0  0
 25 52  1  0  0  0  0
 26 53  1  0  0  0  0
 26 54  1  0  0  0  0
 27 55  1  0  0  0  0
 27 56  1  0  0  0  0
 28 29  1  0  0  0  0
 28 57  1  0  0  0  0
 30 31  1  0  0  0  0
 31 58  1  0  0  0  0
 31 59  1  0  0  0  0
 31 60  1  0  0  0  0
M  END
>  <DRUGBANK_ID>
DB14634

>  <SECONDARY_ACCESSION_NUMBERS>
DBSALT001871

>  <COMMON_NAME>
Fluprednidene acetate

>  <CAS_NUMBER>
1255-35-2

>  <UNII>
GE65DV564S

$$$$
