
 OpenBabel10282417213D

  3  1  0  0  0  0  0  0  0  0999 V2000
    0.7798    0.7526    0.9301 Li  0  3  0  0  0  0  0  0  0  0  0  0
    1.1192   -0.1703   -0.3895 O   0  5  0  0  0  0  0  0  0  0  0  0
    1.9901   -0.3796   -0.6888 H   0  0  0  0  0  0  0  0  0  0  0  0
  2  3  1  0  0  0  0
M  CHG  2   1   1   2  -1
M  END
>  <DRUGBANK_ID>
DB14506

>  <COMMON_NAME>
Lithium hydroxide

>  <CAS_NUMBER>
1310-65-2

>  <UNII>
903YL31JAS

>  <SYNONYMS>
Lithium hydrate; Lithium hydroxide anhydrous; Lithiumhydroxid

$$$$
