
 OpenBabel10282417173D

 29 30  0  0  0  0  0  0  0  0999 V2000
    1.0191   -0.1054    0.0566 S   0  0  0  0  0  0  0  0  0  0  0  0
    5.3193   -0.5055    0.1075 S   0  0  0  0  0  0  0  0  0  0  0  0
    0.6755    0.5453    1.3074 O   0  0  0  0  0  0  0  0  0  0  0  0
    0.6194    0.5133   -1.1902 O   0  0  0  0  0  0  0  0  0  0  0  0
    4.4041   -3.1896   -0.7331 O   0  0  0  0  0  0  0  0  0  0  0  0
    2.5725   -2.3307   -1.7216 O   0  0  0  0  0  0  0  0  0  0  0  0
    4.9289   -4.7709    2.0983 O   0  5  0  0  0  0  0  0  0  0  0  0
    4.3174   -2.7637    2.7095 O   0  0  0  0  0  0  0  0  0  0  0  0
    0.2854   -1.6316    0.1364 N   0  0  0  0  0  0  0  0  0  0  0  0
    4.0901   -3.8643    2.1881 N   0  3  0  0  0  0  0  0  0  0  0  0
    2.7841    0.0141    0.0446 C   0  0  0  0  0  0  0  0  0  0  0  0
    0.9384   -2.8669    0.4317 C   0  0  0  0  0  0  0  0  0  0  0  0
    3.7138   -0.9808   -0.2229 C   0  0  0  0  0  0  0  0  0  0  0  0
    3.4810    1.2808    0.1025 C   0  0  0  0  0  0  0  0  0  0  0  0
    1.9118   -2.9367    1.4320 C   0  0  0  0  0  0  0  0  0  0  0  0
    0.7871   -3.9528   -0.4558 C   0  0  0  0  0  0  0  0  0  0  0  0
    4.8552    1.1323    0.0892 C   0  0  0  0  0  0  0  0  0  0  0  0
    2.8066   -4.0284    1.4709 C   0  0  0  0  0  0  0  0  0  0  0  0
    1.6495   -5.0626   -0.3860 C   0  0  0  0  0  0  0  0  0  0  0  0
    2.6868   -5.0820    0.5492 C   0  0  0  0  0  0  0  0  0  0  0  0
    3.4904   -2.1960   -0.9531 C   0  0  0  0  0  0  0  0  0  0  0  0
   -0.7096   -1.6344   -0.0989 H   0  0  0  0  0  0  0  0  0  0  0  0
    5.1085   -3.0566   -0.0689 H   0  0  0  0  0  0  0  0  0  0  0  0
    3.0034    2.2549    0.0984 H   0  0  0  0  0  0  0  0  0  0  0  0
    2.1294   -2.0367    2.0025 H   0  0  0  0  0  0  0  0  0  0  0  0
    0.1865   -3.8467   -1.3631 H   0  0  0  0  0  0  0  0  0  0  0  0
    5.6268    1.8890    0.0726 H   0  0  0  0  0  0  0  0  0  0  0  0
    1.6283   -5.8232   -1.1680 H   0  0  0  0  0  0  0  0  0  0  0  0
    3.4969   -5.8002    0.4053 H   0  0  0  0  0  0  0  0  0  0  0  0
  1  3  2  0  0  0  0
  1  4  2  0  0  0  0
  1  9  1  0  0  0  0
  1 11  1  0  0  0  0
  2 13  1  0  0  0  0
  2 17  1  0  0  0  0
  5 21  1  0  0  0  0
  5 23  1  0  0  0  0
  6 21  2  0  0  0  0
  7 10  1  0  0  0  0
  8 10  2  0  0  0  0
  9 12  1  0  0  0  0
  9 22  1  0  0  0  0
 10 18  1  0  0  0  0
 11 13  2  0  0  0  0
 11 14  1  0  0  0  0
 12 15  2  0  0  0  0
 12 16  1  0  0  0  0
 13 21  1  0  0  0  0
 14 17  2  0  0  0  0
 14 24  1  0  0  0  0
 15 18  1  0  0  0  0
 15 25  1  0  0  0  0
 16 19  2  0  0  0  0
 16 26  1  0  0  0  0
 17 27  1  0  0  0  0
 18 20  2  0  0  0  0
 19 20  1  0  0  0  0
 19 28  1  0  0  0  0
 20 29  1  0  0  0  0
M  CHG  2   7  -1  10   1
M  END
>  <DRUGBANK_ID>
DB08306

>  <COMMON_NAME>
3-[(3-Nitrophenyl)sulfamoyl]-2-thiophenecarboxylic acid

>  <CAS_NUMBER>
850635-41-5

$$$$
