
 OpenBabel10282417123D

 56 58  0  0  0  0  0  0  0  0999 V2000
    5.8602    9.5509   -1.0706 S   0  0  0  0  0  0  0  0  0  0  0  0
   11.0442   -0.6299   -1.0734 P   0  0  0  0  0  0  0  0  0  0  0  0
    7.6597    2.7039   -4.4768 O   0  0  0  0  0  0  0  0  0  0  0  0
    9.6051    3.9681   -1.6234 O   0  0  0  0  0  0  0  0  0  0  0  0
    9.2002    1.1399   -1.1292 O   0  0  0  0  0  0  0  0  0  0  0  0
   11.6152    0.1880   -2.4869 O   0  0  0  0  0  0  0  0  0  0  0  0
    6.8460    9.8256   -0.0351 O   0  5  0  0  0  0  0  0  0  0  0  0
    5.6870   10.4721   -2.1844 O   0  0  0  0  0  0  0  0  0  0  0  0
    4.5988    9.0857   -0.5264 O   0  0  0  0  0  0  0  0  0  0  0  0
    8.1065   10.7495   -1.9217 O   0  0  0  0  0  0  0  0  0  0  0  0
   11.4411    8.9386   -4.2158 O   0  0  0  0  0  0  0  0  0  0  0  0
    9.7478   -1.0770   -1.9777 O   0  0  0  0  0  0  0  0  0  0  0  0
   12.0192   -1.8569   -1.5399 O   0  0  0  0  0  0  0  0  0  0  0  0
   10.5331   -1.3619    0.1916 O   0  0  0  0  0  0  0  0  0  0  0  0
    8.0162    5.9950   -3.1978 N   0  0  0  0  0  0  0  0  0  0  0  0
    6.6492    8.2083   -1.8950 N   0  3  0  0  0  0  0  0  0  0  0  0
    9.7248    7.5339   -3.7051 N   0  0  0  0  0  0  0  0  0  0  0  0
    9.7394    9.7796   -3.0713 N   0  0  0  0  0  0  0  0  0  0  0  0
    8.6117    4.9811   -4.1962 C   0  0  0  0  0  0  0  0  0  0  0  0
    8.7518    3.4587   -3.9001 C   0  0  1  0  0  0  0  0  0  0  0  0
    8.9622    3.0238   -2.4600 C   0  0  1  0  0  0  0  0  0  0  0  0
    6.7186    5.8605   -2.6672 C   0  0  0  0  0  0  0  0  0  0  0  0
    6.0482    6.9076   -1.9838 C   0  0  0  0  0  0  0  0  0  0  0  0
    8.5763    7.2794   -3.1574 C   0  0  0  0  0  0  0  0  0  0  0  0
    9.6420    1.6579   -2.4070 C   0  0  1  0  0  0  0  0  0  0  0  0
    7.8185    8.4102   -2.4442 C   0  0  0  0  0  0  0  0  0  0  0  0
    6.0389    4.6434   -2.7619 C   0  0  0  0  0  0  0  0  0  0  0  0
    4.7889    6.5992   -1.4385 C   0  0  0  0  0  0  0  0  0  0  0  0
    4.8267    4.3349   -2.1621 C   0  0  0  0  0  0  0  0  0  0  0  0
    4.1831    5.3422   -1.4966 C   0  0  0  0  0  0  0  0  0  0  0  0
   11.1789    1.5731   -2.4815 C   0  0  0  0  0  0  0  0  0  0  0  0
    8.5431    9.7537   -2.4426 C   0  0  0  0  0  0  0  0  0  0  0  0
    4.2484    2.9569   -2.2715 C   0  0  0  0  0  0  0  0  0  0  0  0
    2.8367    5.1723   -0.8586 C   0  0  0  0  0  0  0  0  0  0  0  0
   10.3475    8.7452   -3.6936 C   0  0  0  0  0  0  0  0  0  0  0  0
   10.2347   10.6633   -3.0726 H   0  0  0  0  0  0  0  0  0  0  0  0
    7.1876    2.1861   -3.7926 H   0  0  0  0  0  0  0  0  0  0  0  0
    8.9324    4.6426   -1.4166 H   0  0  0  0  0  0  0  0  0  0  0  0
    9.5114    1.7688   -0.4462 H   0  0  0  0  0  0  0  0  0  0  0  0
    9.0159   -0.5497   -1.5872 H   0  0  0  0  0  0  0  0  0  0  0  0
   12.5783   -1.6043   -2.2916 H   0  0  0  0  0  0  0  0  0  0  0  0
    8.0505    5.0746   -5.1312 H   0  0  0  0  0  0  0  0  0  0  0  0
    9.6448    5.2875   -4.4063 H   0  0  0  0  0  0  0  0  0  0  0  0
    9.6029    3.1080   -4.4980 H   0  0  0  0  0  0  0  0  0  0  0  0
    7.9801    2.8551   -1.9994 H   0  0  0  0  0  0  0  0  0  0  0  0
    9.2287    1.0063   -3.1886 H   0  0  0  0  0  0  0  0  0  0  0  0
    6.4332    3.8592   -3.3542 H   0  0  0  0  0  0  0  0  0  0  0  0
    4.1352    7.2760   -0.9217 H   0  0  0  0  0  0  0  0  0  0  0  0
   11.5699    2.0425   -3.3888 H   0  0  0  0  0  0  0  0  0  0  0  0
   11.6343    2.0520   -1.6084 H   0  0  0  0  0  0  0  0  0  0  0  0
    4.0946    2.5455   -1.2683 H   0  0  0  0  0  0  0  0  0  0  0  0
    3.2966    3.0027   -2.8075 H   0  0  0  0  0  0  0  0  0  0  0  0
    4.9101    2.2726   -2.8095 H   0  0  0  0  0  0  0  0  0  0  0  0
    2.9126    5.3941    0.2095 H   0  0  0  0  0  0  0  0  0  0  0  0
    2.1245    5.8540   -1.3332 H   0  0  0  0  0  0  0  0  0  0  0  0
    2.4488    4.1588   -0.9644 H   0  0  0  0  0  0  0  0  0  0  0  0
  1  7  1  0  0  0  0
  1  8  2  0  0  0  0
  1  9  2  0  0  0  0
  1 16  1  0  0  0  0
  2  6  1  0  0  0  0
  2 12  1  0  0  0  0
  2 13  1  0  0  0  0
  2 14  2  0  0  0  0
  3 37  1  0  0  0  0
  4 38  1  0  0  0  0
  5 39  1  0  0  0  0
  6 31  1  0  0  0  0
 10 32  2  0  0  0  0
 11 35  2  0  0  0  0
 12 40  1  0  0  0  0
 13 41  1  0  0  0  0
 15 19  1  0  0  0  0
 15 22  1  0  0  0  0
 15 24  1  0  0  0  0
 16 23  1  0  0  0  0
 16 26  2  0  0  0  0
 17 24  2  0  0  0  0
 17 35  1  0  0  0  0
 18 32  1  0  0  0  0
 18 35  1  0  0  0  0
 18 36  1  0  0  0  0
 19 42  1  0  0  0  0
 19 43  1  0  0  0  0
 20 44  1  6  0  0  0
 20 19  1  0  0  0  0
 20  3  1  0  0  0  0
 21 45  1  1  0  0  0
 21 20  1  0  0  0  0
 21  4  1  0  0  0  0
 22 23  2  0  0  0  0
 22 27  1  0  0  0  0
 23 28  1  0  0  0  0
 24 26  1  0  0  0  0
 25 31  1  0  0  0  0
 25 46  1  6  0  0  0
 25 21  1  0  0  0  0
 25  5  1  0  0  0  0
 26 32  1  0  0  0  0
 27 29  2  0  0  0  0
 27 47  1  0  0  0  0
 28 30  2  0  0  0  0
 28 48  1  0  0  0  0
 29 30  1  0  0  0  0
 29 33  1  0  0  0  0
 30 34  1  0  0  0  0
 31 49  1  0  0  0  0
 31 50  1  0  0  0  0
 33 51  1  0  0  0  0
 33 52  1  0  0  0  0
 33 53  1  0  0  0  0
 34 54  1  0  0  0  0
 34 55  1  0  0  0  0
 34 56  1  0  0  0  0
M  CHG  2   7  -1  16   1
M  END
>  <DRUGBANK_ID>
DB02164

>  <SECONDARY_ACCESSION_NUMBERS>
EXPT01464

>  <COMMON_NAME>
N-sulfo-flavin mononucleotide

$$$$
