1616
 OpenBabel10282417123D

 48 49  0  0  0  0  0  0  0  0999 V2000
    1.0018   -0.2573    0.0630 N   0  0  0  0  0  0  0  0  0  0  0  0
    0.5172   -0.3076    1.4483 C   0  0  0  0  0  0  0  0  0  0  0  0
    0.6587    0.9736   -0.6962 C   0  0  0  0  0  0  0  0  0  0  0  0
    0.8208    0.8125    2.5425 C   0  0  0  0  0  0  0  0  0  0  0  0
    1.3145    2.2349   -0.1589 C   0  0  0  0  0  0  0  0  0  0  0  0
    2.4131   -0.5471   -0.0195 C   0  0  0  0  0  0  0  0  0  0  0  0
    0.1396    2.2420    2.5412 C   0  0  0  0  0  0  0  0  0  0  0  0
    2.7548    2.5807    0.1587 C   0  0  0  0  0  0  0  0  0  0  0  0
    2.9875   -1.8024    0.5806 C   0  0  0  0  0  0  0  0  0  0  0  0
   -1.3312    2.2404    2.2767 C   0  0  0  0  0  0  0  0  0  0  0  0
    3.3953    2.7739   -1.1472 C   0  0  0  0  0  0  0  0  0  0  0  0
   -2.0669    1.0529    2.2925 C   0  0  0  0  0  0  0  0  0  0  0  0
    3.2806    4.0391   -1.6767 C   0  0  0  0  0  0  0  0  0  0  0  0
   -1.9722    3.4353    2.0111 C   0  0  0  0  0  0  0  0  0  0  0  0
    3.8929    1.7007   -1.8813 C   0  0  0  0  0  0  0  0  0  0  0  0
   -3.4313    1.0519    2.0562 C   0  0  0  0  0  0  0  0  0  0  0  0
    3.7112    4.2528   -2.9733 C   0  0  0  0  0  0  0  0  0  0  0  0
   -3.3673    3.4599    1.9890 C   0  0  0  0  0  0  0  0  0  0  0  0
    4.2818    1.9022   -3.1937 C   0  0  0  0  0  0  0  0  0  0  0  0
   -4.0785    2.2533    2.0075 C   0  0  0  0  0  0  0  0  0  0  0  0
    4.2035    3.1785   -3.7173 C   0  0  0  0  0  0  0  0  0  0  0  0
   -0.5272   -0.5696    1.3127 H   0  0  0  0  0  0  0  0  0  0  0  0
    0.8756   -1.2370    1.9075 H   0  0  0  0  0  0  0  0  0  0  0  0
    0.8298    0.8772   -1.7724 H   0  0  0  0  0  0  0  0  0  0  0  0
   -0.4327    1.1174   -0.5992 H   0  0  0  0  0  0  0  0  0  0  0  0
    0.5597    0.3749    3.5141 H   0  0  0  0  0  0  0  0  0  0  0  0
    1.9109    0.9452    2.5878 H   0  0  0  0  0  0  0  0  0  0  0  0
    0.7182    3.1303   -0.3757 H   0  0  0  0  0  0  0  0  0  0  0  0
    1.1533    1.9633    0.8217 H   0  0  0  0  0  0  0  0  0  0  0  0
    2.6497   -0.5750   -1.0794 H   0  0  0  0  0  0  0  0  0  0  0  0
    2.9642    0.2164    0.4996 H   0  0  0  0  0  0  0  0  0  0  0  0
    0.4418    2.7762    3.4474 H   0  0  0  0  0  0  0  0  0  0  0  0
    0.4923    3.0113    1.8421 H   0  0  0  0  0  0  0  0  0  0  0  0
    2.7626    3.5055    0.7593 H   0  0  0  0  0  0  0  0  0  0  0  0
    3.3039    1.9184    0.8295 H   0  0  0  0  0  0  0  0  0  0  0  0
    2.6464   -2.6726    0.0249 H   0  0  0  0  0  0  0  0  0  0  0  0
    4.0781   -1.7210    0.5047 H   0  0  0  0  0  0  0  0  0  0  0  0
    2.7628   -1.9059    1.6437 H   0  0  0  0  0  0  0  0  0  0  0  0
   -1.6369    0.1053    2.5262 H   0  0  0  0  0  0  0  0  0  0  0  0
    2.8169    4.8326   -1.0953 H   0  0  0  0  0  0  0  0  0  0  0  0
   -1.4141    4.3640    1.8798 H   0  0  0  0  0  0  0  0  0  0  0  0
    3.9609    0.7042   -1.4917 H   0  0  0  0  0  0  0  0  0  0  0  0
   -3.9367    0.0896    2.0208 H   0  0  0  0  0  0  0  0  0  0  0  0
    3.6383    5.2469   -3.3770 H   0  0  0  0  0  0  0  0  0  0  0  0
   -3.8795    4.4056    1.9978 H   0  0  0  0  0  0  0  0  0  0  0  0
    4.6355    1.0522   -3.7663 H   0  0  0  0  0  0  0  0  0  0  0  0
   -5.1666    2.2632    2.0227 H   0  0  0  0  0  0  0  0  0  0  0  0
    4.5345    3.3481   -4.7375 H   0  0  0  0  0  0  0  0  0  0  0  0
  1  2  1  0  0  0  0
  1  3  1  0  0  0  0
  1  6  1  0  0  0  0
  2  4  1  0  0  0  0
  2 22  1  0  0  0  0
  2 23  1  0  0  0  0
  3  5  1  0  0  0  0
  3 24  1  0  0  0  0
  3 25  1  0  0  0  0
  4  7  1  0  0  0  0
  4 26  1  0  0  0  0
  4 27  1  0  0  0  0
  5  8  1  0  0  0  0
  5 28  1  0  0  0  0
  5 29  1  0  0  0  0
  6  9  1  0  0  0  0
  6 30  1  0  0  0  0
  6 31  1  0  0  0  0
  7 10  1  0  0  0  0
  7 32  1  0  0  0  0
  7 33  1  0  0  0  0
  8 11  1  0  0  0  0
  8 34  1  0  0  0  0
  8 35  1  0  0  0  0
  9 36  1  0  0  0  0
  9 37  1  0  0  0  0
  9 38  1  0  0  0  0
 10 12  2  0  0  0  0
 10 14  1  0  0  0  0
 11 13  2  0  0  0  0
 11 15  1  0  0  0  0
 12 16  1  0  0  0  0
 12 39  1  0  0  0  0
 13 17  1  0  0  0  0
 13 40  1  0  0  0  0
 14 18  2  0  0  0  0
 14 41  1  0  0  0  0
 15 19  2  0  0  0  0
 15 42  1  0  0  0  0
 16 20  2  0  0  0  0
 16 43  1  0  0  0  0
 17 21  2  0  0  0  0
 17 44  1  0  0  0  0
 18 20  1  0  0  0  0
 18 45  1  0  0  0  0
 19 21  1  0  0  0  0
 19 46  1  0  0  0  0
 20 47  1  0  0  0  0
 21 48  1  0  0  0  0
M  END
>  <DRUGBANK_ID>
DB01616

>  <COMMON_NAME>
Alverine

>  <CAS_NUMBER>
150-59-4

>  <UNII>
46TIR1560O

>  <SYNONYMS>
Alverina; Alverine; Alverinum; Bis(gamma-phenylpropyl)ethylamine; Di(phenylpropyl)ethylamine; N-Ethyl-3-phenyl-N-(3-phenylpropyl)-1-propanamine; N-Ethyl-3,3'-diphenyldipropylamine; N-Ethyl-N-(3-phenylpropyl)benzenepropanamine; N,N-Bis(3-phenylpropyl)ethylamine; Phenopropamine; Phenpropamine

$$$$
