
 OpenBabel10282417123D

 41 40  0  0  0  0  0  0  0  0999 V2000
    1.1140    0.0948    0.0642 C   0  0  0  0  0  0  0  0  0  0  0  0
    0.7100    1.3166   -0.7593 C   0  0  0  0  0  0  0  0  0  0  0  0
    1.2016    1.1635   -2.1963 C   0  0  0  0  0  0  0  0  0  0  0  0
    0.6109   -0.0719   -2.8790 C   0  0  0  0  0  0  0  0  0  0  0  0
   -0.9220   -0.0418   -2.8907 C   0  0  0  0  0  0  0  0  0  0  0  0
    0.6023    0.1101    1.4860 N   0  3  0  0  0  0  0  0  0  0  0  0
    1.1013    1.3237    2.2068 C   0  0  0  0  0  0  0  0  0  0  0  0
   -0.7682    0.0926    1.4913 O   0  5  0  0  0  0  0  0  0  0  0  0
    1.1041   -1.1321    2.1724 C   0  0  0  0  0  0  0  0  0  0  0  0
   -3.6163    1.0805   -6.5778 C   0  0  0  0  0  0  0  0  0  0  0  0
   -3.0139   -0.1355   -5.8920 C   0  0  0  0  0  0  0  0  0  0  0  0
   -1.4862   -0.0558   -5.8712 C   0  0  0  0  0  0  0  0  0  0  0  0
   -0.9766    1.1730   -5.1099 C   0  0  0  0  0  0  0  0  0  0  0  0
   -1.4480    1.1804   -3.6516 C   0  0  0  0  0  0  0  0  0  0  0  0
    0.7050   -0.8284   -0.3508 H   0  0  0  0  0  0  0  0  0  0  0  0
    2.2055    0.0116    0.1141 H   0  0  0  0  0  0  0  0  0  0  0  0
   -0.3757    1.4605   -0.7229 H   0  0  0  0  0  0  0  0  0  0  0  0
    1.1389    2.2325   -0.3493 H   0  0  0  0  0  0  0  0  0  0  0  0
    0.9497    2.0745   -2.7560 H   0  0  0  0  0  0  0  0  0  0  0  0
    2.2935    1.1052   -2.2099 H   0  0  0  0  0  0  0  0  0  0  0  0
    1.0135   -0.1490   -3.8933 H   0  0  0  0  0  0  0  0  0  0  0  0
    0.9528   -0.9910   -2.3904 H   0  0  0  0  0  0  0  0  0  0  0  0
   -1.3006   -0.9706   -3.3260 H   0  0  0  0  0  0  0  0  0  0  0  0
   -1.3280   -0.0384   -1.8729 H   0  0  0  0  0  0  0  0  0  0  0  0
    0.6612    2.2044    1.7337 H   0  0  0  0  0  0  0  0  0  0  0  0
    0.7572    1.2553    3.2416 H   0  0  0  0  0  0  0  0  0  0  0  0
    2.1912    1.3314    2.1373 H   0  0  0  0  0  0  0  0  0  0  0  0
    0.7088   -1.9950    1.6337 H   0  0  0  0  0  0  0  0  0  0  0  0
    2.1962   -1.1153    2.1482 H   0  0  0  0  0  0  0  0  0  0  0  0
    0.7247   -1.1134    3.1999 H   0  0  0  0  0  0  0  0  0  0  0  0
   -3.2477    1.1534   -7.6051 H   0  0  0  0  0  0  0  0  0  0  0  0
   -4.7058    1.0124   -6.5952 H   0  0  0  0  0  0  0  0  0  0  0  0
   -3.3616    2.0103   -6.0594 H   0  0  0  0  0  0  0  0  0  0  0  0
   -3.3223   -1.0468   -6.4136 H   0  0  0  0  0  0  0  0  0  0  0  0
   -3.4164   -0.2233   -4.8764 H   0  0  0  0  0  0  0  0  0  0  0  0
   -1.0986   -0.0337   -6.8945 H   0  0  0  0  0  0  0  0  0  0  0  0
   -1.0839   -0.9758   -5.4282 H   0  0  0  0  0  0  0  0  0  0  0  0
   -1.2953    2.0978   -5.6008 H   0  0  0  0  0  0  0  0  0  0  0  0
    0.1166    1.2055   -5.1679 H   0  0  0  0  0  0  0  0  0  0  0  0
   -2.5410    1.2068   -3.5881 H   0  0  0  0  0  0  0  0  0  0  0  0
   -1.1295    2.1102   -3.1709 H   0  0  0  0  0  0  0  0  0  0  0  0
  1  6  1  0  0  0  0
  1 15  1  0  0  0  0
  1 16  1  0  0  0  0
  2  1  1  0  0  0  0
  2 17  1  0  0  0  0
  2 18  1  0  0  0  0
  3  2  1  0  0  0  0
  3 19  1  0  0  0  0
  3 20  1  0  0  0  0
  4  3  1  0  0  0  0
  4 21  1  0  0  0  0
  4 22  1  0  0  0  0
  5  4  1  0  0  0  0
  5 23  1  0  0  0  0
  5 24  1  0  0  0  0
  6  7  1  0  0  0  0
  6  8  1  0  0  0  0
  6  9  1  0  0  0  0
  7 25  1  0  0  0  0
  7 26  1  0  0  0  0
  7 27  1  0  0  0  0
  9 28  1  0  0  0  0
  9 29  1  0  0  0  0
  9 30  1  0  0  0  0
 10 31  1  0  0  0  0
 10 32  1  0  0  0  0
 10 33  1  0  0  0  0
 11 10  1  0  0  0  0
 11 34  1  0  0  0  0
 11 35  1  0  0  0  0
 12 11  1  0  0  0  0
 12 36  1  0  0  0  0
 12 37  1  0  0  0  0
 13 12  1  0  0  0  0
 13 38  1  0  0  0  0
 13 39  1  0  0  0  0
 14  5  1  0  0  0  0
 14 13  1  0  0  0  0
 14 40  1  0  0  0  0
 14 41  1  0  0  0  0
M  CHG  2   6   1   8  -1
M  END
>  <DRUGBANK_ID>
DB02613

>  <SECONDARY_ACCESSION_NUMBERS>
EXPT01149

>  <COMMON_NAME>
Capric dimethyl amine oxide

>  <CAS_NUMBER>
2605-79-0

>  <UNII>
G387VUT5EZ

>  <SYNONYMS>
Capric dimethyl amine oxide; Decyl dimethyl amine oxide; Decylamine oxide; Decylamine-N,N-dimethyl-N-oxide; N,N-Dimethyl-1-decanamine-N-oxide; N,N-dimethyldecylamine N-oxide; N,N-Dimethyldecylamine oxide

$$$$
