3HT
 OpenBabel10282417163D

 35 38  0  0  0  0  0  0  0  0999 V2000
    1.4224   -0.1809    0.0268 C   0  0  0  0  0  0  0  0  0  0  0  0
    0.5449   -1.2528    0.0617 C   0  0  0  0  0  0  0  0  0  0  0  0
   -0.8517   -1.0648    0.0707 C   0  0  0  0  0  0  0  0  0  0  0  0
   -1.3645    0.2253    0.0151 C   0  0  0  0  0  0  0  0  0  0  0  0
   -0.4676    1.3089    0.0119 C   0  0  0  0  0  0  0  0  0  0  0  0
   -2.8608   -2.4362   -0.6102 C   0  0  0  0  0  0  0  0  0  0  0  0
   -1.0362   -5.4522   -1.0278 C   0  0  0  0  0  0  0  0  0  0  0  0
    0.2813   -5.1732    1.0161 C   0  0  0  0  0  0  0  0  0  0  0  0
   -1.2174   -3.4957    0.3185 C   0  0  0  0  0  0  0  0  0  0  0  0
    3.1899   -5.9954    2.7817 C   0  0  0  0  0  0  0  0  0  0  0  0
    4.8095   -6.2586    2.8561 S   0  0  0  0  0  0  0  0  0  0  0  0
    2.2742   -5.9576    3.7893 N   0  0  0  0  0  0  0  0  0  0  0  0
    1.0417   -5.6719    3.2950 N   0  0  0  0  0  0  0  0  0  0  0  0
    2.5361   -5.7644    1.6113 O   0  0  0  0  0  0  0  0  0  0  0  0
    1.2541   -5.5867    2.0240 C   0  0  0  0  0  0  0  0  0  0  0  0
   -0.0134   -5.8934   -0.1465 C   0  0  0  0  0  0  0  0  0  0  0  0
   -0.3335   -3.9578    1.2858 C   0  0  0  0  0  0  0  0  0  0  0  0
   -1.7025   -4.2449   -0.7365 C   0  0  0  0  0  0  0  0  0  0  0  0
   -2.8080   -3.5948   -1.2594 N   0  0  0  0  0  0  0  0  0  0  0  0
   -1.6631   -2.2281    0.0219 N   0  0  0  0  0  0  0  0  0  0  0  0
    0.9220    1.1103   -0.0284 C   0  0  0  0  0  0  0  0  0  0  0  0
    1.7009    2.2291   -0.1558 O   0  0  0  0  0  0  0  0  0  0  0  0
    3.0903    1.9931   -0.3955 C   0  0  0  0  0  0  0  0  0  0  0  0
    2.4837   -0.4037    0.0202 H   0  0  0  0  0  0  0  0  0  0  0  0
    0.9988   -2.2386   -0.0004 H   0  0  0  0  0  0  0  0  0  0  0  0
   -2.4320    0.4208   -0.0169 H   0  0  0  0  0  0  0  0  0  0  0  0
   -0.8575    2.3242    0.0277 H   0  0  0  0  0  0  0  0  0  0  0  0
   -3.6549   -1.7017   -0.6292 H   0  0  0  0  0  0  0  0  0  0  0  0
   -1.2914   -6.0313   -1.9105 H   0  0  0  0  0  0  0  0  0  0  0  0
    2.4380   -6.1035    4.7764 H   0  0  0  0  0  0  0  0  0  0  0  0
    0.5083   -6.8250   -0.3550 H   0  0  0  0  0  0  0  0  0  0  0  0
   -0.0726   -3.3459    2.1429 H   0  0  0  0  0  0  0  0  0  0  0  0
    3.5640    1.5564    0.4908 H   0  0  0  0  0  0  0  0  0  0  0  0
    3.2531    1.3568   -1.2753 H   0  0  0  0  0  0  0  0  0  0  0  0
    3.5730    2.9534   -0.5939 H   0  0  0  0  0  0  0  0  0  0  0  0
  1  2  1  0  0  0  0
  1 24  1  0  0  0  0
  2  3  2  0  0  0  0
  2 25  1  0  0  0  0
  3 20  1  0  0  0  0
  4  3  1  0  0  0  0
  4 26  1  0  0  0  0
  5  4  2  0  0  0  0
  5 27  1  0  0  0  0
  6 19  2  0  0  0  0
  6 28  1  0  0  0  0
  7 29  1  0  0  0  0
  8 16  1  0  0  0  0
  9 18  2  0  0  0  0
 10 12  1  0  0  0  0
 11 10  2  0  0  0  0
 12 13  1  0  0  0  0
 12 30  1  0  0  0  0
 14 10  1  0  0  0  0
 14 15  1  0  0  0  0
 15  8  1  0  0  0  0
 15 13  2  0  0  0  0
 16  7  2  0  0  0  0
 16 31  1  0  0  0  0
 17  8  2  0  0  0  0
 17  9  1  0  0  0  0
 17 32  1  0  0  0  0
 18  7  1  0  0  0  0
 19 18  1  0  0  0  0
 20  6  1  0  0  0  0
 20  9  1  0  0  0  0
 21  1  2  0  0  0  0
 21  5  1  0  0  0  0
 22 21  1  0  0  0  0
 23 22  1  0  0  0  0
 23 33  1  0  0  0  0
 23 34  1  0  0  0  0
 23 35  1  0  0  0  0
M  END
>  <DRUGBANK_ID>
DB07058

>  <COMMON_NAME>
5-[1-(4-methoxyphenyl)-1H-benzimidazol-6-yl]-1,3,4-oxadiazole-2(3H)-thione

$$$$
