
 OpenBabel10282417123D

 29 30  0  0  1  0  0  0  0  0999 V2000
    2.1585    0.7122    0.0133 C   0  0  0  0  0  0  0  0  0  0  0  0
    2.1724   -0.6811    0.0127 C   0  0  0  0  0  0  0  0  0  0  0  0
    0.9575    1.4119    0.0092 C   0  0  0  0  0  0  0  0  0  0  0  0
   -2.2593   -2.4822   -0.0012 C   0  0  0  0  0  0  0  0  0  0  0  0
   -2.3518    0.0486   -0.2610 C   0  0  0  0  0  0  0  0  0  0  0  0
   -1.6380   -1.1198   -0.0695 C   0  0  0  0  0  0  0  0  0  0  0  0
    0.9901   -1.4437    0.0145 C   0  0  0  0  0  0  0  0  0  0  0  0
   -3.0702   -2.7485    1.2802 C   0  0  1  0  0  0  0  0  0  0  0  0
   -0.2190    0.6608   -0.0228 C   0  0  0  0  0  0  0  0  0  0  0  0
   -0.2472   -0.7420   -0.0178 C   0  0  0  0  0  0  0  0  0  0  0  0
   -4.3353   -1.8813    1.3647 C   0  0  0  0  0  0  0  0  0  0  0  0
    1.0997   -2.8272   -0.0110 N   0  0  0  0  0  0  0  0  0  0  0  0
   -3.4743   -4.1866    1.2775 N   0  0  0  0  0  0  0  0  0  0  0  0
   -1.5157    1.1038   -0.0715 N   0  0  0  0  0  0  0  0  0  0  0  0
   -5.4754   -2.2498    1.0994 O   0  0  0  0  0  0  0  0  0  0  0  0
   -4.1141   -0.6109    1.7469 O   0  0  0  0  0  0  0  0  0  0  0  0
   -2.4651   -2.5758    2.1776 H   0  0  0  0  0  0  0  0  0  0  0  0
    3.0971    1.2589    0.0091 H   0  0  0  0  0  0  0  0  0  0  0  0
    3.1322   -1.1910    0.0049 H   0  0  0  0  0  0  0  0  0  0  0  0
    0.9398    2.4969    0.0022 H   0  0  0  0  0  0  0  0  0  0  0  0
   -2.8745   -2.6312   -0.8976 H   0  0  0  0  0  0  0  0  0  0  0  0
   -1.4953   -3.2553   -0.0609 H   0  0  0  0  0  0  0  0  0  0  0  0
   -3.4068    0.2153   -0.4185 H   0  0  0  0  0  0  0  0  0  0  0  0
    0.2848   -3.4133    0.0128 H   0  0  0  0  0  0  0  0  0  0  0  0
    1.9979   -3.2824    0.0275 H   0  0  0  0  0  0  0  0  0  0  0  0
   -4.0871   -4.3403    2.0803 H   0  0  0  0  0  0  0  0  0  0  0  0
   -4.0866   -4.3314    0.4693 H   0  0  0  0  0  0  0  0  0  0  0  0
   -1.8009    2.0725   -0.0376 H   0  0  0  0  0  0  0  0  0  0  0  0
   -4.9105   -0.1107    1.4753 H   0  0  0  0  0  0  0  0  0  0  0  0
  1 18  1  0  0  0  0
  2  1  2  0  0  0  0
  2 19  1  0  0  0  0
  3  1  1  0  0  0  0
  3 20  1  0  0  0  0
  4 21  1  0  0  0  0
  4 22  1  0  0  0  0
  5 23  1  0  0  0  0
  6  4  1  0  0  0  0
  6  5  2  0  0  0  0
  7  2  1  0  0  0  0
  8  4  1  0  0  0  0
  8 13  1  0  0  0  0
  8 17  1  1  0  0  0
  9  3  2  0  0  0  0
 10  6  1  0  0  0  0
 10  7  2  0  0  0  0
 10  9  1  0  0  0  0
 11  8  1  0  0  0  0
 12  7  1  0  0  0  0
 12 24  1  0  0  0  0
 12 25  1  0  0  0  0
 13 26  1  0  0  0  0
 13 27  1  0  0  0  0
 14  5  1  0  0  0  0
 14  9  1  0  0  0  0
 14 28  1  0  0  0  0
 15 11  2  0  0  0  0
 16 11  1  0  0  0  0
 16 29  1  0  0  0  0
M  END
>  <DRUGBANK_ID>
DB02286

>  <SECONDARY_ACCESSION_NUMBERS>
EXPT00218

>  <COMMON_NAME>
2-amino-3-(4-amino-1H-indol-3-yl)propanoic acid

$$$$
