
 OpenBabel10282417243D

 61 63  0  0  0  0  0  0  0  0999 V2000
    1.0753   -0.0896   -0.1331 C   0  0  0  0  0  0  0  0  0  0  0  0
    0.6390   -1.5323   -0.4332 C   0  0  0  0  0  0  0  0  0  0  0  0
    1.0202   -2.4868    0.6868 C   0  0  0  0  0  0  0  0  0  0  0  0
    0.3775   -2.0203    1.9600 C   0  0  0  0  0  0  0  0  0  0  0  0
   -1.0675   -2.0591    1.8426 O   0  0  0  0  0  0  0  0  0  0  0  0
   -1.8387   -1.0623    1.3467 C   0  0  0  0  0  0  0  0  0  0  0  0
   -1.4564   -0.0099    0.8513 O   0  0  0  0  0  0  0  0  0  0  0  0
   -3.1961   -1.3068    1.3212 N   0  0  0  0  0  0  0  0  0  0  0  0
   -4.0473   -2.1838    2.4258 S   0  0  0  0  0  0  0  0  0  0  0  0
   -4.8423   -1.2428    3.1876 O   0  0  0  0  0  0  0  0  0  0  0  0
   -4.7053   -3.2417    1.6902 O   0  0  0  0  0  0  0  0  0  0  0  0
   -2.9145   -2.9162    3.6010 C   0  0  0  0  0  0  0  0  0  0  0  0
   -1.9803   -2.3804    4.4839 C   0  0  0  0  0  0  0  0  0  0  0  0
   -1.1999   -3.3857    5.1190 C   0  0  0  0  0  0  0  0  0  0  0  0
   -1.6104   -4.6540    4.8004 C   0  0  0  0  0  0  0  0  0  0  0  0
   -1.1074   -5.9209    5.4275 C   0  0  0  0  0  0  0  0  0  0  0  0
   -2.1700   -6.6387    6.2800 C   0  0  0  0  0  0  0  0  0  0  0  0
   -3.3413   -7.1367    5.4356 C   0  0  0  0  0  0  0  0  0  0  0  0
   -1.5495   -7.8433    6.9878 C   0  0  0  0  0  0  0  0  0  0  0  0
   -2.7307   -4.6137    3.5069 S   0  0  0  0  0  0  0  0  0  0  0  0
   -1.6817   -0.9662    4.5827 C   0  0  0  0  0  0  0  0  0  0  0  0
   -2.6580   -0.0262    4.8542 C   0  0  0  0  0  0  0  0  0  0  0  0
   -2.3268    1.3276    4.9070 C   0  0  0  0  0  0  0  0  0  0  0  0
   -1.0265    1.7595    4.6133 C   0  0  0  0  0  0  0  0  0  0  0  0
   -0.6502    3.2158    4.6254 C   0  0  0  0  0  0  0  0  0  0  0  0
    0.4161    3.4977    5.5795 N   0  0  0  0  0  0  0  0  0  0  0  0
    1.7126    3.0565    5.5555 C   0  0  0  0  0  0  0  0  0  0  0  0
    2.2943    3.5642    6.6886 C   0  0  0  0  0  0  0  0  0  0  0  0
    1.4135    4.3608    7.3639 N   0  0  0  0  0  0  0  0  0  0  0  0
    0.2961    4.3089    6.6728 C   0  0  0  0  0  0  0  0  0  0  0  0
   -0.0640    0.8013    4.3174 C   0  0  0  0  0  0  0  0  0  0  0  0
   -0.3689   -0.5386    4.4061 C   0  0  0  0  0  0  0  0  0  0  0  0
    0.7336    0.3172    0.8265 H   0  0  0  0  0  0  0  0  0  0  0  0
    0.6817    0.5908   -0.8900 H   0  0  0  0  0  0  0  0  0  0  0  0
    2.1626   -0.0252   -0.0899 H   0  0  0  0  0  0  0  0  0  0  0  0
   -0.4420   -1.6027   -0.5971 H   0  0  0  0  0  0  0  0  0  0  0  0
    1.0783   -1.8667   -1.3712 H   0  0  0  0  0  0  0  0  0  0  0  0
    0.6630   -3.5014    0.4791 H   0  0  0  0  0  0  0  0  0  0  0  0
    2.1080   -2.5228    0.8108 H   0  0  0  0  0  0  0  0  0  0  0  0
    0.6760   -2.6993    2.7705 H   0  0  0  0  0  0  0  0  0  0  0  0
    0.7569   -1.0336    2.2313 H   0  0  0  0  0  0  0  0  0  0  0  0
   -3.7432   -0.6137    0.8256 H   0  0  0  0  0  0  0  0  0  0  0  0
   -0.3869   -3.1792    5.8042 H   0  0  0  0  0  0  0  0  0  0  0  0
   -0.6830   -6.5859    4.6679 H   0  0  0  0  0  0  0  0  0  0  0  0
   -0.2717   -5.6503    6.0919 H   0  0  0  0  0  0  0  0  0  0  0  0
   -2.5522   -5.9467    7.0433 H   0  0  0  0  0  0  0  0  0  0  0  0
   -2.9791   -7.7629    4.6127 H   0  0  0  0  0  0  0  0  0  0  0  0
   -4.0555   -7.7066    6.0321 H   0  0  0  0  0  0  0  0  0  0  0  0
   -3.9185   -6.3121    5.0206 H   0  0  0  0  0  0  0  0  0  0  0  0
   -0.7392   -7.5416    7.6581 H   0  0  0  0  0  0  0  0  0  0  0  0
   -2.3050   -8.3659    7.5843 H   0  0  0  0  0  0  0  0  0  0  0  0
   -1.1455   -8.5549    6.2592 H   0  0  0  0  0  0  0  0  0  0  0  0
   -3.6741   -0.3438    5.0635 H   0  0  0  0  0  0  0  0  0  0  0  0
   -3.1044    2.0290    5.1925 H   0  0  0  0  0  0  0  0  0  0  0  0
   -0.3098    3.5324    3.6339 H   0  0  0  0  0  0  0  0  0  0  0  0
   -1.5196    3.8264    4.8962 H   0  0  0  0  0  0  0  0  0  0  0  0
    2.1298    2.4174    4.7953 H   0  0  0  0  0  0  0  0  0  0  0  0
    3.3068    3.3970    7.0305 H   0  0  0  0  0  0  0  0  0  0  0  0
   -0.6183    4.8318    6.9183 H   0  0  0  0  0  0  0  0  0  0  0  0
    0.9521    1.0561    4.0461 H   0  0  0  0  0  0  0  0  0  0  0  0
    0.4510   -1.2346    4.2763 H   0  0  0  0  0  0  0  0  0  0  0  0
  1  2  1  0  0  0  0
  1 33  1  0  0  0  0
  1 34  1  0  0  0  0
  1 35  1  0  0  0  0
  2  3  1  0  0  0  0
  2 36  1  0  0  0  0
  2 37  1  0  0  0  0
  3  4  1  0  0  0  0
  3 38  1  0  0  0  0
  3 39  1  0  0  0  0
  4  5  1  0  0  0  0
  4 40  1  0  0  0  0
  4 41  1  0  0  0  0
  5  6  1  0  0  0  0
  6  7  2  0  0  0  0
  6  8  1  0  0  0  0
  8  9  1  0  0  0  0
  8 42  1  0  0  0  0
  9 10  2  0  0  0  0
  9 11  2  0  0  0  0
  9 12  1  0  0  0  0
 12 13  2  0  0  0  0
 12 20  1  0  0  0  0
 13 14  1  0  0  0  0
 13 21  1  0  0  0  0
 14 15  2  0  0  0  0
 14 43  1  0  0  0  0
 15 16  1  0  0  0  0
 15 20  1  0  0  0  0
 16 17  1  0  0  0  0
 16 44  1  0  0  0  0
 16 45  1  0  0  0  0
 17 18  1  0  0  0  0
 17 19  1  0  0  0  0
 17 46  1  0  0  0  0
 18 47  1  0  0  0  0
 18 48  1  0  0  0  0
 18 49  1  0  0  0  0
 19 50  1  0  0  0  0
 19 51  1  0  0  0  0
 19 52  1  0  0  0  0
 21 22  2  0  0  0  0
 21 32  1  0  0  0  0
 22 23  1  0  0  0  0
 22 53  1  0  0  0  0
 23 24  2  0  0  0  0
 23 54  1  0  0  0  0
 24 25  1  0  0  0  0
 24 31  1  0  0  0  0
 25 26  1  0  0  0  0
 25 55  1  0  0  0  0
 25 56  1  0  0  0  0
 26 27  1  0  0  0  0
 26 30  1  0  0  0  0
 27 28  2  0  0  0  0
 27 57  1  0  0  0  0
 28 29  1  0  0  0  0
 28 58  1  0  0  0  0
 29 30  2  0  0  0  0
 30 59  1  0  0  0  0
 31 32  2  0  0  0  0
 31 60  1  0  0  0  0
 32 61  1  0  0  0  0
M  END
>  <DRUGBANK_ID>
DB18038

>  <COMMON_NAME>
Buloxibutid

>  <CAS_NUMBER>
477775-14-7

>  <UNII>
RC2V4W0EYC

>  <SYNONYMS>
Butyl [3-[4-[(1H-imidazol-1-yl)methyl]phenyl]-5-isobutylthiophen-2-yl]sulfonylcarbamate; butyl [3-{4-[(1H-imidazol-1-yl)methyl]phenyl}-5-(2-methylpropyl)thiophene-2-sulfonyl]carbamate; Carbamic acid, [[3-[4-(1H-imidazol-1-ylmethyl)phenyl]-5-(2-methylpropyl)-2-thienyl]sulfonyl]-, butyl ester; COMPOUND 21; T2 AGONIST COMPOUND 21

$$$$
