
 OpenBabel10282417233D

 65 69  0  0  1  0  0  0  0  0999 V2000
    1.4032   -0.4591   -0.1292 H   0  0  0  0  0  0  0  0  0  0  0  0
    1.9684   -0.7360    0.7456 C   0  0  2  0  0  0  0  0  0  0  0  0
    2.0967   -2.8319    0.9875 C   0  0  0  0  0  0  0  0  0  0  0  0
    2.6526   -3.5955   -0.2146 C   0  0  0  0  0  0  0  0  0  0  0  0
    2.2492   -2.3043   -0.6966 C   0  0  1  0  0  0  0  0  0  0  0  0
    2.7637   -2.0376   -1.9761 O   0  0  0  0  0  0  0  0  0  0  0  0
    0.4593   -2.4375   -0.6264 C   0  0  0  0  0  0  0  0  0  0  0  0
    0.0540   -3.7016   -0.2636 F   0  0  0  0  0  0  0  0  0  0  0  0
   -0.1276   -1.6489    0.3366 F   0  0  0  0  0  0  0  0  0  0  0  0
   -0.0981   -2.0837   -1.9541 C   0  0  0  0  0  0  0  0  0  0  0  0
    0.3191   -0.8563   -2.3335 F   0  0  0  0  0  0  0  0  0  0  0  0
    0.2845   -2.9897   -2.8784 F   0  0  0  0  0  0  0  0  0  0  0  0
   -1.4506   -2.0635   -1.9214 F   0  0  0  0  0  0  0  0  0  0  0  0
    3.1431   -1.4927    0.7091 C   0  0  2  0  0  0  0  0  0  0  0  0
    2.3847   -1.3956    2.4645 C   0  0  0  0  0  0  0  0  0  0  0  0
    4.5640   -1.1259    0.5147 C   0  0  0  0  0  0  0  0  0  0  0  0
    5.2054   -0.1087    1.5629 C   0  0  2  0  0  0  0  0  0  0  0  0
    4.9126   -0.5709    2.9868 C   0  0  0  0  0  0  0  0  0  0  0  0
    5.1806   -1.8824    3.4034 C   0  0  0  0  0  0  0  0  0  0  0  0
    4.8956   -2.2653    4.7181 C   0  0  0  0  0  0  0  0  0  0  0  0
    4.2904   -1.3632    5.6110 C   0  0  0  0  0  0  0  0  0  0  0  0
    3.9412   -0.0969    5.1745 C   0  0  0  0  0  0  0  0  0  0  0  0
    4.2278    0.2770    3.8842 C   0  0  0  0  0  0  0  0  0  0  0  0
    4.0148   -1.7668    7.0087 C   0  0  0  0  0  0  0  0  0  0  0  0
    3.3428   -0.7955    7.9532 C   0  0  0  0  0  0  0  0  0  0  0  0
    4.3505   -2.8874    7.3863 O   0  0  0  0  0  0  0  0  0  0  0  0
    4.7411    1.3651    1.3948 C   0  0  0  0  0  0  0  0  0  0  0  0
    5.4557    2.7226    1.5310 C   0  0  0  0  0  0  0  0  0  0  0  0
    6.9274    3.9525    1.8806 C   0  0  0  0  0  0  0  0  0  0  0  0
    7.5117    4.9356    0.5918 C   0  0  0  0  0  0  0  0  0  0  0  0
    6.8213    3.9918   -0.2362 C   0  0  0  0  0  0  0  0  0  0  0  0
    7.3336    2.8868   -0.4244 O   0  0  0  0  0  0  0  0  0  0  0  0
    5.3727    4.3208   -0.1999 C   0  0  0  0  0  0  0  0  0  0  0  0
    4.6621    3.5826    0.6672 C   0  0  0  0  0  0  0  0  0  0  0  0
    3.1761    3.5481    0.4943 C   0  0  0  0  0  0  0  0  0  0  0  0
    2.2899    2.2658    0.5590 C   0  0  0  0  0  0  0  0  0  0  0  0
    2.9635    0.9302    1.0320 C   0  0  1  0  0  0  0  0  0  0  0  0
    2.5559    1.0572    2.0329 H   0  0  0  0  0  0  0  0  0  0  0  0
    1.3127   -3.4933    1.4204 H   0  0  0  0  0  0  0  0  0  0  0  0
    2.8385   -3.2145    1.7483 H   0  0  0  0  0  0  0  0  0  0  0  0
    2.1161   -4.4648   -0.6175 H   0  0  0  0  0  0  0  0  0  0  0  0
    3.7251   -3.8198   -0.1673 H   0  0  0  0  0  0  0  0  0  0  0  0
    3.6820   -2.3468   -2.0189 H   0  0  0  0  0  0  0  0  0  0  0  0
    2.3394   -0.4255    2.9058 H   0  0  0  0  0  0  0  0  0  0  0  0
    1.2686   -1.6282    2.4760 H   0  0  0  0  0  0  0  0  0  0  0  0
    2.7931   -2.1303    3.1446 H   0  0  0  0  0  0  0  0  0  0  0  0
    5.0544   -2.1058    0.6229 H   0  0  0  0  0  0  0  0  0  0  0  0
    4.7405   -0.8594   -0.5390 H   0  0  0  0  0  0  0  0  0  0  0  0
    6.2749   -0.1814    1.3876 H   0  0  0  0  0  0  0  0  0  0  0  0
    5.5085   -2.6411    2.6940 H   0  0  0  0  0  0  0  0  0  0  0  0
    5.1535   -3.2724    5.0352 H   0  0  0  0  0  0  0  0  0  0  0  0
    3.4501    0.6597    5.7676 H   0  0  0  0  0  0  0  0  0  0  0  0
    3.7293    1.1947    3.5694 H   0  0  0  0  0  0  0  0  0  0  0  0
    2.4218   -1.2451    8.3270 H   0  0  0  0  0  0  0  0  0  0  0  0
    4.0307   -0.5664    8.7687 H   0  0  0  0  0  0  0  0  0  0  0  0
    3.0553    0.1563    7.5131 H   0  0  0  0  0  0  0  0  0  0  0  0
    7.9619    3.6779    2.1942 H   0  0  0  0  0  0  0  0  0  0  0  0
    6.6865    4.7163    2.6736 H   0  0  0  0  0  0  0  0  0  0  0  0
    8.5556    4.9075    0.2069 H   0  0  0  0  0  0  0  0  0  0  0  0
    7.1434    5.9748    0.4537 H   0  0  0  0  0  0  0  0  0  0  0  0
    5.0626    5.3635   -0.2408 H   0  0  0  0  0  0  0  0  0  0  0  0
    3.0277    3.9003   -0.5347 H   0  0  0  0  0  0  0  0  0  0  0  0
    2.7581    4.3235    1.1449 H   0  0  0  0  0  0  0  0  0  0  0  0
    1.7337    2.1518   -0.3773 H   0  0  0  0  0  0  0  0  0  0  0  0
    1.5005    2.5369    1.2863 H   0  0  0  0  0  0  0  0  0  0  0  0
  2  1  1  6  0  0  0
  2  3  1  0  0  0  0
  2 14  1  0  0  0  0
  2 37  1  0  0  0  0
  3  4  1  0  0  0  0
  3 39  1  0  0  0  0
  3 40  1  0  0  0  0
  4 41  1  0  0  0  0
  4 42  1  0  0  0  0
  5  4  1  0  0  0  0
  5  7  1  0  0  0  0
  5  6  1  6  0  0  0
  6 43  1  0  0  0  0
  7  8  1  0  0  0  0
  7  9  1  0  0  0  0
  7 10  1  0  0  0  0
 10 11  1  0  0  0  0
 10 12  1  0  0  0  0
 10 13  1  0  0  0  0
 14  5  1  0  0  0  0
 14 15  1  1  0  0  0
 14 16  1  0  0  0  0
 15 44  1  0  0  0  0
 15 45  1  0  0  0  0
 15 46  1  0  0  0  0
 16 47  1  0  0  0  0
 16 48  1  0  0  0  0
 17 16  1  0  0  0  0
 17 18  1  0  0  0  0
 17 27  1  0  0  0  0
 17 49  1  6  0  0  0
 18 19  2  0  0  0  0
 18 23  1  0  0  0  0
 19 20  1  0  0  0  0
 19 50  1  0  0  0  0
 20 21  2  0  0  0  0
 20 51  1  0  0  0  0
 21 22  1  0  0  0  0
 21 24  1  0  0  0  0
 22 23  2  0  0  0  0
 22 52  1  0  0  0  0
 23 53  1  0  0  0  0
 24 25  1  0  0  0  0
 24 26  2  0  0  0  0
 25 54  1  0  0  0  0
 25 55  1  0  0  0  0
 25 56  1  0  0  0  0
 27 28  2  0  0  0  0
 28 29  1  0  0  0  0
 28 34  1  0  0  0  0
 29 30  1  0  0  0  0
 29 57  1  0  0  0  0
 29 58  1  0  0  0  0
 30 31  1  0  0  0  0
 30 59  1  0  0  0  0
 30 60  1  0  0  0  0
 31 32  2  0  0  0  0
 31 33  1  0  0  0  0
 33 34  2  0  0  0  0
 33 61  1  0  0  0  0
 34 35  1  0  0  0  0
 35 36  1  0  0  0  0
 35 62  1  0  0  0  0
 35 63  1  0  0  0  0
 36 64  1  0  0  0  0
 36 65  1  0  0  0  0
 37 36  1  0  0  0  0
 37 27  1  0  0  0  0
 37 38  1  1  0  0  0
M  END
>  <DRUGBANK_ID>
DB16221

>  <COMMON_NAME>
Lonaprisan

>  <CAS_NUMBER>
211254-73-8

>  <UNII>
F5Z5EL4D26

>  <SYNONYMS>
Lonaprisan

$$$$
