
 OpenBabel10282417133D

 25 25  0  0  0  0  0  0  0  0999 V2000
    0.7312    1.6353    0.0389 C   0  0  0  0  0  0  0  0  0  0  0  0
   -0.7834    1.4395    0.2500 C   0  0  0  0  0  0  0  0  0  0  0  0
   -1.3954    0.1620   -0.2077 N   0  0  0  0  0  0  0  0  0  0  0  0
    1.4005    0.6020    0.7608 O   0  0  0  0  0  0  0  0  0  0  0  0
    0.9360   -0.5978    0.1970 C   0  0  0  0  0  0  0  0  0  0  0  0
   -0.6201   -0.9099    0.4310 C   0  0  0  0  0  0  0  0  0  0  0  0
   -0.2507   -0.4905   -2.4732 C   0  0  0  0  0  0  0  0  0  0  0  0
   -1.5067   -0.0944   -1.6708 C   0  0  0  0  0  0  0  0  0  0  0  0
   -0.2242   -3.3042   -2.8669 O   0  0  0  0  0  0  0  0  0  0  0  0
    1.9977   -2.2211   -2.3454 O   0  0  0  0  0  0  0  0  0  0  0  0
    0.5473   -2.3494   -2.1474 S   0  0  0  0  0  0  0  0  0  0  0  0
    0.4263   -2.8824   -0.5953 O   0  0  0  0  0  0  0  0  0  0  0  0
    1.0013    1.6264   -1.0252 H   0  0  0  0  0  0  0  0  0  0  0  0
    1.1345    2.5625    0.4317 H   0  0  0  0  0  0  0  0  0  0  0  0
   -0.9135    1.4236    1.3432 H   0  0  0  0  0  0  0  0  0  0  0  0
   -1.3293    2.2896   -0.1457 H   0  0  0  0  0  0  0  0  0  0  0  0
    1.7301   -1.3322    0.3071 H   0  0  0  0  0  0  0  0  0  0  0  0
    1.0734   -0.4009   -0.8453 H   0  0  0  0  0  0  0  0  0  0  0  0
   -0.8429   -1.0158    1.4943 H   0  0  0  0  0  0  0  0  0  0  0  0
   -1.1001   -1.8093    0.0081 H   0  0  0  0  0  0  0  0  0  0  0  0
   -0.4470   -0.4824   -3.5544 H   0  0  0  0  0  0  0  0  0  0  0  0
    0.4922    0.3169   -2.4168 H   0  0  0  0  0  0  0  0  0  0  0  0
   -2.2566   -0.8718   -1.8718 H   0  0  0  0  0  0  0  0  0  0  0  0
   -1.9612    0.8170   -2.1038 H   0  0  0  0  0  0  0  0  0  0  0  0
    1.2232   -2.9523   -0.0105 H   0  0  0  0  0  0  0  0  0  0  0  0
  1  4  1  0  0  0  0
  1 13  1  0  0  0  0
  1 14  1  0  0  0  0
  2  1  1  0  0  0  0
  2 15  1  0  0  0  0
  2 16  1  0  0  0  0
  3  2  1  0  0  0  0
  3  6  1  0  0  0  0
  4  5  1  0  0  0  0
  5  6  1  0  0  0  0
  5 17  1  0  0  0  0
  5 18  1  0  0  0  0
  6 19  1  0  0  0  0
  6 20  1  0  0  0  0
  7  8  1  0  0  0  0
  7 21  1  0  0  0  0
  7 22  1  0  0  0  0
  8  3  1  0  0  0  0
  8 23  1  0  0  0  0
  8 24  1  0  0  0  0
 11  7  1  0  0  0  0
 11  9  2  0  0  0  0
 11 10  2  0  0  0  0
 11 12  1  0  0  0  0
 12 25  1  0  0  0  0
M  END
>  <DRUGBANK_ID>
DB03814

>  <SECONDARY_ACCESSION_NUMBERS>
EXPT02154

>  <COMMON_NAME>
2-(N-morpholino)ethanesulfonic acid

>  <CAS_NUMBER>
4432-31-9

>  <UNII>
2GNK67Q0C4

>  <SYNONYMS>
2-(4-morpholinyl)ethanesulfonic acid; 2-(morpholin-4-yl)ethanesulfonic acid; 2-(N-morpholino)ethanesulfonic acid; 2-morpholinoethanesulphonic acid; 4-morpholineethanesulfonic acid; 4-morpholinethanesulfonic acid; MES

$$$$
