
 OpenBabel10282417173D

 30 32  0  0  0  0  0  0  0  0999 V2000
   -0.9290    1.1448    0.1574 C   0  0  0  0  0  0  0  0  0  0  0  0
   -1.6169   -0.0736    0.2030 C   0  0  0  0  0  0  0  0  0  0  0  0
   -0.8072   -1.2194    0.1350 C   0  0  0  0  0  0  0  0  0  0  0  0
    0.6258   -1.1024    0.0592 C   0  0  0  0  0  0  0  0  0  0  0  0
    1.2980    0.1335   -0.0340 C   0  0  0  0  0  0  0  0  0  0  0  0
    0.4609    1.2563    0.0223 C   0  0  0  0  0  0  0  0  0  0  0  0
    2.6843    0.1926   -0.1057 N   0  0  0  0  0  0  0  0  0  0  0  0
    3.4814    1.3886   -0.3532 C   0  0  0  0  0  0  0  0  0  0  0  0
    0.9415    2.4966   -0.0593 F   0  0  0  0  0  0  0  0  0  0  0  0
   -3.1110    0.0448    0.1420 C   0  0  0  0  0  0  0  0  0  0  0  0
   -4.3204   -0.9411    0.8963 S   0  0  0  0  0  0  0  0  0  0  0  0
   -5.6132   -0.0096    0.1301 C   0  0  0  0  0  0  0  0  0  0  0  0
   -4.9906    1.0158   -0.5833 C   0  0  0  0  0  0  0  0  0  0  0  0
   -3.6243    1.0789   -0.4892 N   0  0  0  0  0  0  0  0  0  0  0  0
   -7.0331   -0.1445    0.0881 C   0  0  0  0  0  0  0  0  0  0  0  0
   -7.7318    0.6440   -0.8498 C   0  0  0  0  0  0  0  0  0  0  0  0
   -7.1004    1.6331   -1.5873 C   0  0  0  0  0  0  0  0  0  0  0  0
   -5.7496    1.8821   -1.3855 C   0  0  0  0  0  0  0  0  0  0  0  0
   -9.0633    0.4850   -1.1250 O   0  0  0  0  0  0  0  0  0  0  0  0
   -1.4817    2.0835    0.1867 H   0  0  0  0  0  0  0  0  0  0  0  0
   -1.2389   -2.2155    0.0893 H   0  0  0  0  0  0  0  0  0  0  0  0
    1.2193   -2.0212    0.0546 H   0  0  0  0  0  0  0  0  0  0  0  0
    3.1875   -0.6808   -0.2382 H   0  0  0  0  0  0  0  0  0  0  0  0
    4.2444    1.4885    0.4267 H   0  0  0  0  0  0  0  0  0  0  0  0
    4.0029    1.3119   -1.3143 H   0  0  0  0  0  0  0  0  0  0  0  0
    2.9341    2.3304   -0.3714 H   0  0  0  0  0  0  0  0  0  0  0  0
   -7.5587   -0.8661    0.7059 H   0  0  0  0  0  0  0  0  0  0  0  0
   -7.6463    2.2060   -2.3318 H   0  0  0  0  0  0  0  0  0  0  0  0
   -5.2444    2.6836   -1.9128 H   0  0  0  0  0  0  0  0  0  0  0  0
   -9.4270   -0.2782   -0.6505 H   0  0  0  0  0  0  0  0  0  0  0  0
  1  2  2  0  0  0  0
  1  6  1  0  0  0  0
  1 20  1  0  0  0  0
  2  3  1  0  0  0  0
  2 10  1  0  0  0  0
  3  4  2  0  0  0  0
  3 21  1  0  0  0  0
  4  5  1  0  0  0  0
  4 22  1  0  0  0  0
  5  6  2  0  0  0  0
  5  7  1  0  0  0  0
  6  9  1  0  0  0  0
  7  8  1  0  0  0  0
  7 23  1  0  0  0  0
  8 24  1  0  0  0  0
  8 25  1  0  0  0  0
  8 26  1  0  0  0  0
 10 11  1  0  0  0  0
 10 14  2  0  0  0  0
 11 12  1  0  0  0  0
 12 13  1  0  0  0  0
 12 15  2  0  0  0  0
 13 14  1  0  0  0  0
 13 18  2  0  0  0  0
 15 16  1  0  0  0  0
 15 27  1  0  0  0  0
 16 17  2  0  0  0  0
 16 19  1  0  0  0  0
 17 18  1  0  0  0  0
 17 28  1  0  0  0  0
 18 29  1  0  0  0  0
 19 30  1  0  0  0  0
M  ISO  1   9  18
M  END
>  <DRUGBANK_ID>
DB09151

>  <COMMON_NAME>
Flutemetamol (18F)

>  <CAS_NUMBER>
765922-62-1

>  <UNII>
L49M066S0O

>  <SYNONYMS>
[18F]-Flutemetamol; 2-[3-(18F)fluoro-4-(methylamino)phenyl]-1,3-benzothiazol-6-ol; Flutemetamol (18F); Flutemetamol F 18; Flutemetamol F-18; Flutemetamol F18

$$$$
