
 OpenBabel10282417193D

 54 55  0  0  1  0  0  0  0  0999 V2000
    1.1109   -0.0578   -0.0540 C   0  0  0  0  0  0  0  0  0  0  0  0
    0.6614    0.6964   -1.2729 C   0  0  0  0  0  0  0  0  0  0  0  0
    1.0490    0.0968   -2.5994 C   0  0  0  0  0  0  0  0  0  0  0  0
   -0.8050    0.7198   -1.2466 C   0  0  0  0  0  0  0  0  0  0  0  0
   -1.3855    1.7329   -1.5293 O   0  0  0  0  0  0  0  0  0  0  0  0
   -1.3362   -0.4928   -0.9298 O   0  0  0  0  0  0  0  0  0  0  0  0
   -2.7357   -0.4917   -1.0559 C   0  0  0  0  0  0  0  0  0  0  0  0
   -3.5069    0.1827    0.1138 C   0  0  2  0  0  0  0  0  0  0  0  0
   -3.7593    1.6943   -0.0476 C   0  0  2  0  0  0  0  0  0  0  0  0
   -3.2289    2.2903    1.2744 C   0  0  1  0  0  0  0  0  0  0  0  0
   -2.9632    1.0574    2.1909 C   0  0  1  0  0  0  0  0  0  0  0  0
   -2.7850   -0.0688    1.3186 O   0  0  0  0  0  0  0  0  0  0  0  0
   -1.8136    1.1464    3.1136 N   0  0  0  0  0  0  0  0  0  0  0  0
   -0.6787    0.3845    2.9299 C   0  0  0  0  0  0  0  0  0  0  0  0
    0.4809    0.7423    3.4815 C   0  0  0  0  0  0  0  0  0  0  0  0
    0.3962    1.7523    4.5479 C   0  0  0  0  0  0  0  0  0  0  0  0
   -0.6923    2.4003    4.8112 N   0  0  0  0  0  0  0  0  0  0  0  0
   -1.8184    2.1963    4.0422 C   0  0  0  0  0  0  0  0  0  0  0  0
   -2.7865    2.9386    4.1398 O   0  0  0  0  0  0  0  0  0  0  0  0
    1.5022    1.9917    5.3121 N   0  0  0  0  0  0  0  0  0  0  0  0
   -1.9564    3.1282    1.0391 C   0  0  0  0  0  0  0  0  0  0  0  0
   -4.1794    3.0976    1.8083 F   0  0  0  0  0  0  0  0  0  0  0  0
   -5.1408    2.0419   -0.4334 O   0  0  0  0  0  0  0  0  0  0  0  0
   -5.7155    2.0986   -1.6833 C   0  0  0  0  0  0  0  0  0  0  0  0
   -6.8698    2.5148   -1.8008 O   0  0  0  0  0  0  0  0  0  0  0  0
   -5.0458    1.4965   -2.9286 C   0  0  0  0  0  0  0  0  0  0  0  0
   -3.7686    2.2212   -3.3602 C   0  0  0  0  0  0  0  0  0  0  0  0
   -4.9730    0.0000   -2.7184 C   0  0  0  0  0  0  0  0  0  0  0  0
    0.7308   -1.0861   -0.0368 H   0  0  0  0  0  0  0  0  0  0  0  0
    0.6992    0.4533    0.8147 H   0  0  0  0  0  0  0  0  0  0  0  0
    2.1917   -0.0668    0.0205 H   0  0  0  0  0  0  0  0  0  0  0  0
    0.9743    1.7454   -1.2037 H   0  0  0  0  0  0  0  0  0  0  0  0
    0.6594   -0.9222   -2.7017 H   0  0  0  0  0  0  0  0  0  0  0  0
    0.6257    0.6832   -3.4264 H   0  0  0  0  0  0  0  0  0  0  0  0
    2.1330    0.0863   -2.6864 H   0  0  0  0  0  0  0  0  0  0  0  0
   -2.8752    0.0114   -2.0075 H   0  0  0  0  0  0  0  0  0  0  0  0
   -3.1032   -1.5181   -1.2128 H   0  0  0  0  0  0  0  0  0  0  0  0
   -4.4863   -0.3018    0.2431 H   0  0  0  0  0  0  0  0  0  0  0  0
   -3.1993    2.1665   -0.8126 H   0  0  0  0  0  0  0  0  0  0  0  0
   -3.8570    0.8531    2.7891 H   0  0  0  0  0  0  0  0  0  0  0  0
   -0.7300   -0.4585    2.2477 H   0  0  0  0  0  0  0  0  0  0  0  0
    1.4356    0.3090    3.2222 H   0  0  0  0  0  0  0  0  0  0  0  0
    2.3117    1.3868    5.2758 H   0  0  0  0  0  0  0  0  0  0  0  0
    1.3576    2.5050    6.1747 H   0  0  0  0  0  0  0  0  0  0  0  0
   -2.1396    3.9382    0.3265 H   0  0  0  0  0  0  0  0  0  0  0  0
   -1.6065    3.6151    1.9509 H   0  0  0  0  0  0  0  0  0  0  0  0
   -1.1195    2.5244    0.6799 H   0  0  0  0  0  0  0  0  0  0  0  0
   -5.7179    1.6002   -3.7888 H   0  0  0  0  0  0  0  0  0  0  0  0
   -3.0752    2.4214   -2.5669 H   0  0  0  0  0  0  0  0  0  0  0  0
   -3.1969    1.6845   -4.1247 H   0  0  0  0  0  0  0  0  0  0  0  0
   -4.0015    3.2280   -3.7176 H   0  0  0  0  0  0  0  0  0  0  0  0
   -5.8821   -0.5927   -2.6124 H   0  0  0  0  0  0  0  0  0  0  0  0
   -4.2476   -0.5179   -3.3554 H   0  0  0  0  0  0  0  0  0  0  0  0
   -4.7044   -0.0620   -1.6955 H   0  0  0  0  0  0  0  0  0  0  0  0
  1  2  1  0  0  0  0
  1 29  1  0  0  0  0
  1 30  1  0  0  0  0
  1 31  1  0  0  0  0
  2  3  1  0  0  0  0
  2  4  1  0  0  0  0
  2 32  1  0  0  0  0
  3 33  1  0  0  0  0
  3 34  1  0  0  0  0
  3 35  1  0  0  0  0
  4  5  2  0  0  0  0
  4  6  1  0  0  0  0
  6  7  1  0  0  0  0
  7 36  1  0  0  0  0
  7 37  1  0  0  0  0
  8  7  1  0  0  0  0
  8  9  1  0  0  0  0
  8 12  1  0  0  0  0
  8 38  1  1  0  0  0
  9 10  1  0  0  0  0
  9 39  1  6  0  0  0
  9 23  1  0  0  0  0
 10 11  1  0  0  0  0
 10 21  1  0  0  0  0
 10 22  1  1  0  0  0
 11 12  1  0  0  0  0
 11 13  1  0  0  0  0
 11 40  1  1  0  0  0
 13 14  1  0  0  0  0
 13 18  1  0  0  0  0
 14 15  2  0  0  0  0
 14 41  1  0  0  0  0
 15 16  1  0  0  0  0
 15 42  1  0  0  0  0
 16 17  2  0  0  0  0
 16 20  1  0  0  0  0
 17 18  1  0  0  0  0
 18 19  2  0  0  0  0
 20 43  1  0  0  0  0
 20 44  1  0  0  0  0
 21 45  1  0  0  0  0
 21 46  1  0  0  0  0
 21 47  1  0  0  0  0
 23 24  1  0  0  0  0
 24 25  2  0  0  0  0
 24 26  1  0  0  0  0
 26 27  1  0  0  0  0
 26 28  1  0  0  0  0
 26 48  1  0  0  0  0
 27 49  1  0  0  0  0
 27 50  1  0  0  0  0
 27 51  1  0  0  0  0
 28 52  1  0  0  0  0
 28 53  1  0  0  0  0
 28 54  1  0  0  0  0
M  END
>  <DRUGBANK_ID>
DB12045

>  <SECONDARY_ACCESSION_NUMBERS>
DB05193

>  <COMMON_NAME>
Mericitabine

>  <CAS_NUMBER>
940908-79-2

>  <UNII>
TA63JX8X52

>  <SYNONYMS>
Mericitabine

$$$$
