
 OpenBabel10282417213D

 44 47  0  0  0  0  0  0  0  0999 V2000
   -1.6987   -4.7973   -0.2046 N   0  0  0  0  0  0  0  0  0  0  0  0
   -2.0187   -3.5070    0.0097 C   0  0  0  0  0  0  0  0  0  0  0  0
   -0.9127   -2.3082    0.3530 N   0  0  0  0  0  0  0  0  0  0  0  0
    0.6927   -2.4968    0.8419 C   0  0  0  0  0  0  0  0  0  0  0  0
    2.5890   -2.1098    0.8936 N   0  0  0  0  0  0  0  0  0  0  0  0
    2.9401   -3.0474   -0.0045 N   0  0  0  0  0  0  0  0  0  0  0  0
    2.1932   -2.5922   -0.9491 C   0  0  0  0  0  0  0  0  0  0  0  0
   -0.3772   -4.7683   -0.1292 C   0  0  0  0  0  0  0  0  0  0  0  0
    0.5426   -3.7602    0.2299 C   0  0  0  0  0  0  0  0  0  0  0  0
    1.4267   -3.9097   -0.7759 C   0  0  0  0  0  0  0  0  0  0  0  0
    1.7453   -5.1888   -0.2440 C   0  0  0  0  0  0  0  0  0  0  0  0
    0.5189   -5.8024   -0.1367 N   0  0  0  0  0  0  0  0  0  0  0  0
    1.7122   -0.9765   -0.8102 N   0  0  0  0  0  0  0  0  0  0  0  0
    4.3121   -1.7881    0.2607 C   0  0  0  0  0  0  0  0  0  0  0  0
    0.4503   -7.2350   -0.0370 C   0  0  1  0  0  0  0  0  0  0  0  0
   -0.0387   -7.8340    1.2555 C   0  0  1  0  0  0  0  0  0  0  0  0
   -0.6480   -9.1686    0.8013 C   0  0  1  0  0  0  0  0  0  0  0  0
   -1.0311   -8.9236   -0.6825 C   0  0  2  0  0  0  0  0  0  0  0  0
   -0.2712   -7.7884   -1.1348 O   0  0  0  0  0  0  0  0  0  0  0  0
   -2.5230   -8.6165   -0.9521 C   0  0  0  0  0  0  0  0  0  0  0  0
   -2.9526   -7.4441   -0.2617 O   0  0  0  0  0  0  0  0  0  0  0  0
    0.7941   -7.8213    2.3838 O   0  0  0  0  0  0  0  0  0  0  0  0
    0.3343  -10.1651    0.9829 O   0  0  0  0  0  0  0  0  0  0  0  0
   -2.7004   -7.6641    1.4356 P   0  0  0  0  0  0  0  0  0  0  0  0
   -2.5431   -6.0746    1.7304 O   0  0  0  0  0  0  0  0  0  0  0  0
   -4.1804   -7.9507    1.6738 O   0  0  0  0  0  0  0  0  0  0  0  0
   -2.4483   -7.8841    3.1329 O   0  0  0  0  0  0  0  0  0  0  0  0
   -3.1730   -3.4814    0.0209 H   0  0  0  0  0  0  0  0  0  0  0  0
    2.6648   -5.7042   -0.0021 H   0  0  0  0  0  0  0  0  0  0  0  0
    2.3315   -0.4408   -0.1265 H   0  0  0  0  0  0  0  0  0  0  0  0
    0.8362   -0.6762   -0.2906 H   0  0  0  0  0  0  0  0  0  0  0  0
    5.0114   -2.3555    0.9369 H   0  0  0  0  0  0  0  0  0  0  0  0
    4.8150   -2.3624   -0.7165 H   0  0  0  0  0  0  0  0  0  0  0  0
    4.9248   -0.8204    0.1645 H   0  0  0  0  0  0  0  0  0  0  0  0
    1.4805   -7.5646   -0.1308 H   0  0  0  0  0  0  0  0  0  0  0  0
   -0.7294   -7.1553    1.6501 H   0  0  0  0  0  0  0  0  0  0  0  0
   -1.5121   -9.5593    1.3521 H   0  0  0  0  0  0  0  0  0  0  0  0
   -0.7413   -9.7881   -1.2837 H   0  0  0  0  0  0  0  0  0  0  0  0
   -2.6959   -8.4452   -2.0207 H   0  0  0  0  0  0  0  0  0  0  0  0
   -3.1465   -9.4594   -0.6355 H   0  0  0  0  0  0  0  0  0  0  0  0
    1.4936   -8.4684    2.2746 H   0  0  0  0  0  0  0  0  0  0  0  0
    1.1553   -9.8216    0.6069 H   0  0  0  0  0  0  0  0  0  0  0  0
   -1.6505   -5.7079    1.5682 H   0  0  0  0  0  0  0  0  0  0  0  0
   -3.3356   -8.1023    3.4869 H   0  0  0  0  0  0  0  0  0  0  0  0
  1  2  2  0  0  0  0
  1  8  1  0  0  0  0
  2  3  1  0  0  0  0
  2 28  1  0  0  0  0
  3  4  2  0  0  0  0
  4  5  1  0  0  0  0
  5 14  1  0  0  0  0
  5  6  1  0  0  0  0
  6  7  2  0  0  0  0
  7 13  1  0  0  0  0
  7 10  1  0  0  0  0
  8  9  2  0  0  0  0
  9  4  1  0  0  0  0
  9 10  1  0  0  0  0
 10 11  2  0  0  0  0
 11 12  1  0  0  0  0
 11 29  1  0  0  0  0
 12  8  1  0  0  0  0
 13 30  1  0  0  0  0
 13 31  1  0  0  0  0
 14 32  1  0  0  0  0
 14 33  1  0  0  0  0
 14 34  1  0  0  0  0
 15 12  1  0  0  0  0
 15 16  1  0  0  0  0
 15 35  1  6  0  0  0
 16 17  1  0  0  0  0
 16 22  1  0  0  0  0
 16 36  1  1  0  0  0
 17 18  1  0  0  0  0
 17 23  1  0  0  0  0
 17 37  1  1  0  0  0
 18 19  1  0  0  0  0
 18 38  1  6  0  0  0
 18 20  1  0  0  0  0
 19 15  1  0  0  0  0
 20 21  1  0  0  0  0
 20 39  1  0  0  0  0
 20 40  1  0  0  0  0
 21 24  1  0  0  0  0
 22 41  1  0  0  0  0
 23 42  1  0  0  0  0
 24 25  1  0  0  0  0
 24 26  2  0  0  0  0
 24 27  1  0  0  0  0
 25 43  1  0  0  0  0
 27 44  1  0  0  0  0
M  END
>  <DRUGBANK_ID>
DB14636

>  <SECONDARY_ACCESSION_NUMBERS>
DBSALT002190

>  <COMMON_NAME>
Triciribine phosphate

>  <CAS_NUMBER>
61966-08-3

>  <UNII>
5L5GE3DV88

>  <SYNONYMS>
3-AMINO-1,5-DIHYDRO-5-METHYL-1-.BETA.-D-RIBOFURANOSYL-1,4,5,6,8-PENTAAZAACENAPHTHYLENE 5'-(DIHYDROGEN PHOSPHATE); Pentaazaacenaphthylene-5' phosphate ester; TCN-P; Triciribine phosphate

$$$$
