
 OpenBabel10282417233D

 52 55  0  0  0  0  0  0  0  0999 V2000
   -0.3792    2.0796    0.4488 C   0  0  0  0  0  0  0  0  0  0  0  0
   -1.6476    3.0764    0.4904 C   0  0  0  0  0  0  0  0  0  0  0  0
   -2.5286    2.9284    1.5212 C   0  0  0  0  0  0  0  0  0  0  0  0
   -0.4901    0.7748    1.1807 C   0  0  0  0  0  0  0  0  0  0  0  0
   -1.0539    1.3011    2.2820 C   0  0  0  0  0  0  0  0  0  0  0  0
   -0.2877    2.2288    3.2839 C   0  0  2  0  0  0  0  0  0  0  0  0
   -0.8939    1.9635    4.7051 C   0  0  0  0  0  0  0  0  0  0  0  0
   -2.5192    2.2438    4.7516 C   0  0  1  0  0  0  0  0  0  0  0  0
   -3.5435    2.5043    6.3296 C   0  0  2  0  0  0  0  0  0  0  0  0
   -5.4008    2.5971    7.0591 C   0  0  0  0  0  0  0  0  0  0  0  0
   -6.0281    1.1363    7.3162 C   0  0  0  0  0  0  0  0  0  0  0  0
   -4.6135    0.8792    7.2892 C   0  0  2  0  0  0  0  0  0  0  0  0
   -4.3406    1.1873    8.8754 C   0  0  0  0  0  0  0  0  0  0  0  0
   -3.0544    0.6976    9.4732 C   0  0  0  0  0  0  0  0  0  0  0  0
   -4.6114    1.7827    5.7435 C   0  0  2  0  0  0  0  0  0  0  0  0
   -4.8579    3.5522    5.1282 C   0  0  0  0  0  0  0  0  0  0  0  0
   -5.0037    0.7571    4.7014 C   0  0  0  0  0  0  0  0  0  0  0  0
   -4.5006    1.3698    3.5123 C   0  0  0  0  0  0  0  0  0  0  0  0
   -3.0435    1.3170    3.5479 C   0  0  2  0  0  0  0  0  0  0  0  0
   -2.5244    1.5529    2.1386 C   0  0  1  0  0  0  0  0  0  0  0  0
   -3.2523    0.6178    1.0680 C   0  0  0  0  0  0  0  0  0  0  0  0
    0.7647    2.4228    0.1737 O   0  0  0  0  0  0  0  0  0  0  0  0
   -5.1999    2.0224    2.7098 O   0  0  0  0  0  0  0  0  0  0  0  0
   -5.1700    1.7007    9.6429 O   0  0  0  0  0  0  0  0  0  0  0  0
   -2.5203    1.6477   10.3782 O   0  0  0  0  0  0  0  0  0  0  0  0
   -3.9049   -0.2789    6.9416 O   0  0  0  0  0  0  0  0  0  0  0  0
   -0.0456    3.9986    3.1228 Cl  0  0  0  0  0  0  0  0  0  0  0  0
   -2.7626    0.2701    3.7944 H   0  0  0  0  0  0  0  0  0  0  0  0
   -2.5421    3.2467    4.3275 H   0  0  0  0  0  0  0  0  0  0  0  0
   -2.8697    2.1329    7.1032 H   0  0  0  0  0  0  0  0  0  0  0  0
   -2.2424    2.9441   -0.4186 H   0  0  0  0  0  0  0  0  0  0  0  0
   -2.6647    3.7799    2.1988 H   0  0  0  0  0  0  0  0  0  0  0  0
   -0.9143    0.0262    0.4984 H   0  0  0  0  0  0  0  0  0  0  0  0
    0.7436    1.9300    3.1035 H   0  0  0  0  0  0  0  0  0  0  0  0
   -0.3676    2.5300    5.4756 H   0  0  0  0  0  0  0  0  0  0  0  0
   -0.6171    0.9083    4.8254 H   0  0  0  0  0  0  0  0  0  0  0  0
   -5.5329    3.2975    7.8978 H   0  0  0  0  0  0  0  0  0  0  0  0
   -6.2696    2.9347    6.4139 H   0  0  0  0  0  0  0  0  0  0  0  0
   -6.6932    1.1401    8.1812 H   0  0  0  0  0  0  0  0  0  0  0  0
   -6.5175    0.5050    6.5720 H   0  0  0  0  0  0  0  0  0  0  0  0
   -3.2968   -0.2279   10.0059 H   0  0  0  0  0  0  0  0  0  0  0  0
   -2.3151    0.5015    8.7040 H   0  0  0  0  0  0  0  0  0  0  0  0
   -5.3429    4.2803    5.8149 H   0  0  0  0  0  0  0  0  0  0  0  0
   -3.9229    4.1417    5.0363 H   0  0  0  0  0  0  0  0  0  0  0  0
   -5.4202    3.6020    4.2122 H   0  0  0  0  0  0  0  0  0  0  0  0
   -6.0706    0.5452    4.6533 H   0  0  0  0  0  0  0  0  0  0  0  0
   -4.5164   -0.2246    4.7846 H   0  0  0  0  0  0  0  0  0  0  0  0
   -3.2073   -0.4391    1.3496 H   0  0  0  0  0  0  0  0  0  0  0  0
   -4.2952    0.8966    0.8830 H   0  0  0  0  0  0  0  0  0  0  0  0
   -2.8106    0.6856    0.0615 H   0  0  0  0  0  0  0  0  0  0  0  0
   -2.4700    2.4979    9.9075 H   0  0  0  0  0  0  0  0  0  0  0  0
   -3.0785    0.0688    6.5315 H   0  0  0  0  0  0  0  0  0  0  0  0
  1  2  1  0  0  0  0
  1  4  1  0  0  0  0
  1 22  2  0  0  0  0
  2  3  2  0  0  0  0
  2 31  1  0  0  0  0
  3 20  1  0  0  0  0
  3 32  1  0  0  0  0
  4  5  2  0  0  0  0
  4 33  1  0  0  0  0
  5  6  1  0  0  0  0
  5 20  1  0  0  0  0
  6  7  1  0  0  0  0
  6 27  1  0  0  0  0
  6 34  1  1  0  0  0
  7  8  1  0  0  0  0
  7 35  1  0  0  0  0
  7 36  1  0  0  0  0
  8  9  1  0  0  0  0
  8 19  1  0  0  0  0
  8 29  1  1  0  0  0
  9 10  1  0  0  0  0
  9 15  1  0  0  0  0
  9 30  1  6  0  0  0
 10 11  1  0  0  0  0
 10 37  1  0  0  0  0
 10 38  1  0  0  0  0
 11 12  1  0  0  0  0
 11 39  1  0  0  0  0
 11 40  1  0  0  0  0
 12 15  1  0  0  0  0
 12 13  1  1  0  0  0
 12 26  1  0  0  0  0
 13 14  1  0  0  0  0
 13 24  2  0  0  0  0
 14 25  1  0  0  0  0
 14 41  1  0  0  0  0
 14 42  1  0  0  0  0
 15 17  1  0  0  0  0
 15 16  1  6  0  0  0
 16 43  1  0  0  0  0
 16 44  1  0  0  0  0
 16 45  1  0  0  0  0
 17 18  1  0  0  0  0
 17 46  1  0  0  0  0
 17 47  1  0  0  0  0
 18 19  1  0  0  0  0
 18 23  2  0  0  0  0
 19 20  1  0  0  0  0
 19 28  1  6  0  0  0
 20 21  1  6  0  0  0
 21 48  1  0  0  0  0
 21 49  1  0  0  0  0
 21 50  1  0  0  0  0
 25 51  1  0  0  0  0
 26 52  1  0  0  0  0
M  END
>  <DRUGBANK_ID>
DB15970

>  <COMMON_NAME>
Chloroprednisone

>  <CAS_NUMBER>
52080-57-6

>  <UNII>
564IBO56IP

>  <SYNONYMS>
Chloroprednisone; Chloroprednisonum; Cloroprednisona

$$$$
