
 OpenBabel10282417203D

 20 10  0  0  0  0  0  0  0  0999 V2000
    1.0014   -0.0965   -0.0263 O   0  0  0  0  0  0  0  0  0  0  0  0
    1.0401    0.0764   -0.0505 O   0  6  0  0  0  0  0  0  0  0  0  0
    1.0724    0.0284   -0.0628 O   0  6  0  0  0  0  0  0  0  0  0  0
    0.9944    0.0938   -0.0343 O   0  6  0  0  0  0  0  0  0  0  0  0
    1.0219   -0.0939    0.0265 O   0  0  0  0  0  0  0  0  0  0  0  0
    2.6060   -0.0939    0.0265 Si  0  0  0  0  0  0  0  0  0  0  0  0
    3.1341    0.6176    1.3397 O   0  0  0  0  0  0  0  0  0  0  0  0
    1.0709    0.0337    0.0619 O   0  0  0  0  0  0  0  0  0  0  0  0
    2.6551    0.0337    0.0619 Si  0  0  0  0  0  0  0  0  0  0  0  0
    3.1831   -1.2583    0.8111 O   0  0  0  0  0  0  0  0  0  0  0  0
    0.9632    0.0462   -0.0807 O   0  0  0  0  0  0  0  0  0  0  0  0
    2.5474    0.0462   -0.0807 Si  0  0  0  0  0  0  0  0  0  0  0  0
    3.0754    0.1716    1.4076 O   0  0  0  0  0  0  0  0  0  0  0  0
    0.9942    0.0654    0.0754 O   0  0  0  0  0  0  0  0  0  0  0  0
    2.5784    0.0654    0.0754 Si  0  0  0  0  0  0  0  0  0  0  0  0
    3.1064   -0.4563   -1.3241 O   0  0  0  0  0  0  0  0  0  0  0  0
    0.9224   -0.0476    0.0414 Al  0  1  0  0  0  0  0  0  0  0  0  0
    0.9624    0.0398    0.0837 Al  0  1  0  0  0  0  0  0  0  0  0  0
    0.6680    0.6097    0.5984 H   0  0  0  0  0  0  0  0  0  0  0  0
    2.0014   -0.0965   -0.0263 H   0  0  0  0  0  0  0  0  0  0  0  0
  1 19  1  0  0  0  0
  1 20  1  0  0  0  0
  5  6  2  0  0  0  0
  6  7  2  0  0  0  0
  8  9  2  0  0  0  0
  9 10  2  0  0  0  0
 11 12  2  0  0  0  0
 12 13  2  0  0  0  0
 14 15  2  0  0  0  0
 15 16  2  0  0  0  0
M  CHG  5   2  -2   3  -2   4  -2  17   3  18   3
M  END
>  <DRUGBANK_ID>
DB13654

>  <COMMON_NAME>
Montmorillonite

>  <CAS_NUMBER>
1318-93-0

>  <UNII>
A585MN1H2L

>  <SYNONYMS>
Diosmectite; Montmorillonite; Montmorrillonite

$$$$
