
 OpenBabel10282417213D

 31 31  0  0  0  0  0  0  0  0999 V2000
    1.0344   -0.0324    0.1974 C   0  0  0  0  0  0  0  0  0  0  0  0
    0.5881    1.4136    0.2769 C   0  0  0  0  0  0  0  0  0  0  0  0
    1.0933    2.1998   -0.9279 C   0  0  0  0  0  0  0  0  0  0  0  0
    0.5339    1.6860   -2.2720 C   0  0  0  0  0  0  0  0  0  0  0  0
   -1.0003    1.7596   -2.3533 C   0  0  0  0  0  0  0  0  0  0  0  0
   -1.5644    3.1601   -2.2364 C   0  0  0  0  0  0  0  0  0  0  0  0
   -0.7245    4.2790   -2.4093 C   0  0  0  0  0  0  0  0  0  0  0  0
   -1.1801    5.5801   -2.2326 C   0  0  0  0  0  0  0  0  0  0  0  0
   -2.5223    5.8035   -1.9776 C   0  0  0  0  0  0  0  0  0  0  0  0
   -3.3895    4.7111   -1.8503 C   0  0  0  0  0  0  0  0  0  0  0  0
   -2.9102    3.4026   -1.9613 C   0  0  0  0  0  0  0  0  0  0  0  0
   -3.8413    2.4191   -1.7840 O   0  0  0  0  0  0  0  0  0  0  0  0
   -3.0486    7.1989   -1.8771 C   0  0  0  0  0  0  0  0  0  0  0  0
    0.6329   -0.5293   -0.6906 H   0  0  0  0  0  0  0  0  0  0  0  0
    0.6874   -0.5896    1.0686 H   0  0  0  0  0  0  0  0  0  0  0  0
    2.1266   -0.0832    0.1512 H   0  0  0  0  0  0  0  0  0  0  0  0
   -0.5038    1.4709    0.3516 H   0  0  0  0  0  0  0  0  0  0  0  0
    0.9747    1.8739    1.1929 H   0  0  0  0  0  0  0  0  0  0  0  0
    0.8383    3.2489   -0.7509 H   0  0  0  0  0  0  0  0  0  0  0  0
    2.1881    2.1772   -0.9662 H   0  0  0  0  0  0  0  0  0  0  0  0
    0.9804    2.2468   -3.1021 H   0  0  0  0  0  0  0  0  0  0  0  0
    0.8545    0.6534   -2.4439 H   0  0  0  0  0  0  0  0  0  0  0  0
   -1.3346    1.3254   -3.3030 H   0  0  0  0  0  0  0  0  0  0  0  0
   -1.4199    1.1244   -1.5635 H   0  0  0  0  0  0  0  0  0  0  0  0
    0.3284    4.1763   -2.6473 H   0  0  0  0  0  0  0  0  0  0  0  0
   -0.4671    6.3975   -2.3078 H   0  0  0  0  0  0  0  0  0  0  0  0
   -4.4451    4.8733   -1.6624 H   0  0  0  0  0  0  0  0  0  0  0  0
   -3.4169    1.5494   -1.8474 H   0  0  0  0  0  0  0  0  0  0  0  0
   -3.7768    7.3683   -2.6751 H   0  0  0  0  0  0  0  0  0  0  0  0
   -3.5193    7.3530   -0.9032 H   0  0  0  0  0  0  0  0  0  0  0  0
   -2.2464    7.9361   -1.9905 H   0  0  0  0  0  0  0  0  0  0  0  0
  1  2  1  0  0  0  0
  1 14  1  0  0  0  0
  1 15  1  0  0  0  0
  1 16  1  0  0  0  0
  2  3  1  0  0  0  0
  2 17  1  0  0  0  0
  2 18  1  0  0  0  0
  3  4  1  0  0  0  0
  3 19  1  0  0  0  0
  3 20  1  0  0  0  0
  4  5  1  0  0  0  0
  4 21  1  0  0  0  0
  4 22  1  0  0  0  0
  5  6  1  0  0  0  0
  5 23  1  0  0  0  0
  5 24  1  0  0  0  0
  6  7  2  0  0  0  0
  6 11  1  0  0  0  0
  7  8  1  0  0  0  0
  7 25  1  0  0  0  0
  8  9  2  0  0  0  0
  8 26  1  0  0  0  0
  9 10  1  0  0  0  0
  9 13  1  0  0  0  0
 10 11  2  0  0  0  0
 10 27  1  0  0  0  0
 11 12  1  0  0  0  0
 12 28  1  0  0  0  0
 13 29  1  0  0  0  0
 13 30  1  0  0  0  0
 13 31  1  0  0  0  0
M  END
>  <DRUGBANK_ID>
DB13908

>  <COMMON_NAME>
Amylmetacresol

>  <CAS_NUMBER>
1300-94-3

>  <UNII>
05W904P57F

>  <SYNONYMS>
5-methyl-2-pentylphenol; 6-amyl-m-cresol; 6-n-amyl-m-cresol; 6-n-pentyl-m-cresol; 6-pentyl-m-cresol; amilmetacresol; Amyl metacresol; Amylmetacresol; amylmetacresolum

$$$$
