
 OpenBabel10282417103D

 57 59  0  0  0  0  0  0  0  0999 V2000
    1.3880   -0.6390    0.0093 N   0  0  0  0  0  0  0  0  0  0  0  0
    1.2847    0.7382    0.0263 C   0  0  0  0  0  0  0  0  0  0  0  0
    0.1875   -1.1980   -0.0000 C   0  0  0  0  0  0  0  0  0  0  0  0
   -1.1154   -0.0491    0.0056 S   0  0  0  0  0  0  0  0  0  0  0  0
    0.0017    1.2342    0.0259 C   0  0  0  0  0  0  0  0  0  0  0  0
    0.2472  -10.7557    3.2934 C   0  0  0  0  0  0  0  0  0  0  0  0
   -0.6995  -11.7680    2.5744 C   0  0  0  0  0  0  0  0  0  0  0  0
    0.1387   -9.1078    1.3172 C   0  0  0  0  0  0  0  0  0  0  0  0
   -0.0379   -2.6071   -0.0079 C   0  0  0  0  0  0  0  0  0  0  0  0
    0.0539   -7.7354    1.5258 N   0  0  0  0  0  0  0  0  0  0  0  0
    1.0253   -9.8945    2.2589 C   0  0  0  0  0  0  0  0  0  0  0  0
   -1.2465   -3.1934    0.0021 C   0  0  0  0  0  0  0  0  0  0  0  0
   -0.5318  -12.9660    2.4722 O   0  0  0  0  0  0  0  0  0  0  0  0
   -0.4169   -9.7272    0.4121 O   0  0  0  0  0  0  0  0  0  0  0  0
   -0.7898   -6.8820    0.7596 C   0  0  0  0  0  0  0  0  0  0  0  0
    2.4763    1.6830   -0.0218 C   0  0  0  0  0  0  0  0  0  0  0  0
   -1.4012   -4.6521   -0.0123 C   0  0  0  0  0  0  0  0  0  0  0  0
   -0.6427   -5.4926    0.8310 C   0  0  0  0  0  0  0  0  0  0  0  0
   -1.7911  -11.2024    2.0176 O   0  0  0  0  0  0  0  0  0  0  0  0
    1.2633  -11.6406    4.0959 C   0  0  0  0  0  0  0  0  0  0  0  0
   -0.6077   -9.8625    4.2332 C   0  0  0  0  0  0  0  0  0  0  0  0
   -2.4740   -6.5809   -0.9773 C   0  0  0  0  0  0  0  0  0  0  0  0
    4.5761    1.8040   -0.4055 C   0  0  0  0  0  0  0  0  0  0  0  0
   -1.7577   -7.3949   -0.1090 C   0  0  0  0  0  0  0  0  0  0  0  0
    3.3630    1.4607   -1.2853 C   0  0  0  0  0  0  0  0  0  0  0  0
    3.7419    1.2947    0.7903 C   0  0  0  0  0  0  0  0  0  0  0  0
   -2.3259   -5.2064   -0.9055 C   0  0  0  0  0  0  0  0  0  0  0  0
    2.3714  -10.9320    4.8658 C   0  0  0  0  0  0  0  0  0  0  0  0
    0.1410   -8.7915    5.0190 C   0  0  0  0  0  0  0  0  0  0  0  0
   -0.3201    2.2646    0.0154 H   0  0  0  0  0  0  0  0  0  0  0  0
    0.8609   -3.2172   -0.0297 H   0  0  0  0  0  0  0  0  0  0  0  0
    0.7455   -7.2843    2.1153 H   0  0  0  0  0  0  0  0  0  0  0  0
    1.6286  -10.5457    1.6112 H   0  0  0  0  0  0  0  0  0  0  0  0
    1.7372   -9.2158    2.7350 H   0  0  0  0  0  0  0  0  0  0  0  0
   -2.1756   -2.6296   -0.0213 H   0  0  0  0  0  0  0  0  0  0  0  0
    2.1875    2.7343    0.1072 H   0  0  0  0  0  0  0  0  0  0  0  0
    0.0640   -5.0448    1.5252 H   0  0  0  0  0  0  0  0  0  0  0  0
   -2.1213  -11.8507    1.3579 H   0  0  0  0  0  0  0  0  0  0  0  0
    0.7084  -12.2778    4.7979 H   0  0  0  0  0  0  0  0  0  0  0  0
    1.7590  -12.3307    3.3981 H   0  0  0  0  0  0  0  0  0  0  0  0
   -1.3737   -9.3453    3.6420 H   0  0  0  0  0  0  0  0  0  0  0  0
   -1.1591  -10.5011    4.9347 H   0  0  0  0  0  0  0  0  0  0  0  0
   -3.1306   -7.0415   -1.7095 H   0  0  0  0  0  0  0  0  0  0  0  0
    5.4985    1.2588   -0.6183 H   0  0  0  0  0  0  0  0  0  0  0  0
    4.7969    2.8779   -0.3782 H   0  0  0  0  0  0  0  0  0  0  0  0
   -1.9919   -8.4514   -0.1495 H   0  0  0  0  0  0  0  0  0  0  0  0
    3.3789    0.4379   -1.6812 H   0  0  0  0  0  0  0  0  0  0  0  0
    3.1721    2.1513   -2.1117 H   0  0  0  0  0  0  0  0  0  0  0  0
    3.8931    1.8559    1.7182 H   0  0  0  0  0  0  0  0  0  0  0  0
    3.8719    0.2277    1.0030 H   0  0  0  0  0  0  0  0  0  0  0  0
   -2.9302   -4.5839   -1.5605 H   0  0  0  0  0  0  0  0  0  0  0  0
    2.0014  -10.4655    5.7733 H   0  0  0  0  0  0  0  0  0  0  0  0
    3.1140  -11.6461    5.2286 H   0  0  0  0  0  0  0  0  0  0  0  0
    2.8861  -10.1830    4.2604 H   0  0  0  0  0  0  0  0  0  0  0  0
    0.8442   -8.2288    4.4004 H   0  0  0  0  0  0  0  0  0  0  0  0
   -0.5523   -8.0832    5.4747 H   0  0  0  0  0  0  0  0  0  0  0  0
    0.6775   -9.2116    5.8639 H   0  0  0  0  0  0  0  0  0  0  0  0
  2  1  1  0  0  0  0
  3  1  2  0  0  0  0
  4  3  1  0  0  0  0
  5  2  2  0  0  0  0
  5  4  1  0  0  0  0
  5 30  1  0  0  0  0
  6 11  1  0  0  0  0
  7  6  1  0  0  0  0
  8 10  1  0  0  0  0
  9  3  1  0  0  0  0
  9 31  1  0  0  0  0
 10 15  1  0  0  0  0
 10 32  1  0  0  0  0
 11  8  1  0  0  0  0
 11 33  1  0  0  0  0
 11 34  1  0  0  0  0
 12  9  2  0  0  0  0
 12 35  1  0  0  0  0
 13  7  2  0  0  0  0
 14  8  2  0  0  0  0
 15 18  2  0  0  0  0
 16  2  1  0  0  0  0
 16 36  1  0  0  0  0
 17 12  1  0  0  0  0
 18 17  1  0  0  0  0
 18 37  1  0  0  0  0
 19  7  1  0  0  0  0
 19 38  1  0  0  0  0
 20  6  1  0  0  0  0
 20 39  1  0  0  0  0
 20 40  1  0  0  0  0
 21  6  1  0  0  0  0
 21 41  1  0  0  0  0
 21 42  1  0  0  0  0
 22 27  1  0  0  0  0
 22 43  1  0  0  0  0
 23 26  1  0  0  0  0
 23 44  1  0  0  0  0
 23 45  1  0  0  0  0
 24 22  2  0  0  0  0
 24 15  1  0  0  0  0
 24 46  1  0  0  0  0
 25 16  1  0  0  0  0
 25 23  1  0  0  0  0
 25 47  1  0  0  0  0
 25 48  1  0  0  0  0
 26 16  1  0  0  0  0
 26 49  1  0  0  0  0
 26 50  1  0  0  0  0
 27 17  2  0  0  0  0
 27 51  1  0  0  0  0
 28 20  1  0  0  0  0
 28 52  1  0  0  0  0
 28 53  1  0  0  0  0
 28 54  1  0  0  0  0
 29 21  1  0  0  0  0
 29 55  1  0  0  0  0
 29 56  1  0  0  0  0
 29 57  1  0  0  0  0
M  END
>  <DRUGBANK_ID>
DB00587

>  <SECONDARY_ACCESSION_NUMBERS>
APRD00637

>  <COMMON_NAME>
Cinalukast

>  <CAS_NUMBER>
128312-51-6

>  <UNII>
5E1O433QAI

>  <SYNONYMS>
3'-((E)-2-(4-cyclobutyl-2-thiazolyl)vinyl)-2,2-diethylsuccinanilic acid; Cinalukast

$$$$
