
 OpenBabel10282417193D

 59 63  0  0  0  0  0  0  0  0999 V2000
    0.9653    0.0583    0.1757 C   0  0  0  0  0  0  0  0  0  0  0  0
   -1.8179   -5.0397   -4.2110 C   0  0  0  0  0  0  0  0  0  0  0  0
   -1.5571   -5.6534   -6.4922 C   0  0  0  0  0  0  0  0  0  0  0  0
   -4.2164   -2.8424   -7.4437 C   0  0  0  0  0  0  0  0  0  0  0  0
   -4.6594   -3.6097   -5.1823 C   0  0  0  0  0  0  0  0  0  0  0  0
   -1.2477   -6.2488   -3.8028 C   0  0  0  0  0  0  0  0  0  0  0  0
   -0.9508   -6.8533   -6.0941 C   0  0  0  0  0  0  0  0  0  0  0  0
   -5.5799   -2.8391   -7.7013 C   0  0  0  0  0  0  0  0  0  0  0  0
   -6.0205   -3.6319   -5.4501 C   0  0  0  0  0  0  0  0  0  0  0  0
   -2.0867   -0.7445   -6.2916 C   0  0  0  0  0  0  0  0  0  0  0  0
   -0.0163   -1.9934   -5.9331 C   0  0  0  0  0  0  0  0  0  0  0  0
   -0.7081    0.6154   -2.3629 C   0  0  0  0  0  0  0  0  0  0  0  0
   -1.7141    0.2432   -5.1746 C   0  0  0  0  0  0  0  0  0  0  0  0
    0.4606   -0.9175   -4.9405 C   0  0  0  0  0  0  0  0  0  0  0  0
    0.0119    1.0854   -3.6667 C   0  0  0  0  0  0  0  0  0  0  0  0
    0.5574   -4.0286   -3.1684 C   0  0  0  0  0  0  0  0  0  0  0  0
    1.1518   -5.0666   -2.5615 C   0  0  0  0  0  0  0  0  0  0  0  0
    0.3661   -1.0004   -0.6768 C   0  0  0  0  0  0  0  0  0  0  0  0
   -1.8182   -4.6536   -5.5555 C   0  0  0  0  0  0  0  0  0  0  0  0
   -3.7538   -3.2009   -6.1743 C   0  0  0  0  0  0  0  0  0  0  0  0
   -1.5308   -2.1513   -6.0386 C   0  0  0  0  0  0  0  0  0  0  0  0
   -0.6888   -7.0771   -4.7537 C   0  0  0  0  0  0  0  0  0  0  0  0
   -6.4666   -3.2350   -6.7040 C   0  0  0  0  0  0  0  0  0  0  0  0
   -0.3614   -0.7539   -1.7822 C   0  0  0  0  0  0  0  0  0  0  0  0
   -2.2968   -3.2881   -5.9311 C   0  0  0  0  0  0  0  0  0  0  0  0
   -0.7958   -2.0148   -2.4712 C   0  0  0  0  0  0  0  0  0  0  0  0
    0.6115   -3.1916   -1.0611 C   0  0  0  0  0  0  0  0  0  0  0  0
    0.1455   -8.0552   -4.3770 F   0  0  0  0  0  0  0  0  0  0  0  0
   -7.7797   -3.2371   -6.9599 F   0  0  0  0  0  0  0  0  0  0  0  0
    0.6812   -2.2636   -0.2035 N   0  0  0  0  0  0  0  0  0  0  0  0
   -0.2650    0.3532   -4.9169 N   0  0  0  0  0  0  0  0  0  0  0  0
    0.1390   -3.0326   -2.3271 N   0  0  0  0  0  0  0  0  0  0  0  0
   -1.8344   -2.0482   -3.1174 O   0  0  0  0  0  0  0  0  0  0  0  0
    1.2027   -4.8272   -0.8505 S   0  0  0  0  0  0  0  0  0  0  0  0
    0.6398   -0.1324    1.1995 H   0  0  0  0  0  0  0  0  0  0  0  0
    0.6665    1.0688   -0.0876 H   0  0  0  0  0  0  0  0  0  0  0  0
    2.0568    0.0002    0.1169 H   0  0  0  0  0  0  0  0  0  0  0  0
   -2.1244   -4.3274   -3.4492 H   0  0  0  0  0  0  0  0  0  0  0  0
   -1.8417   -5.5124   -7.5296 H   0  0  0  0  0  0  0  0  0  0  0  0
   -3.5082   -2.5586   -8.2188 H   0  0  0  0  0  0  0  0  0  0  0  0
   -4.3106   -3.9285   -4.2031 H   0  0  0  0  0  0  0  0  0  0  0  0
   -1.0879   -6.4426   -2.7453 H   0  0  0  0  0  0  0  0  0  0  0  0
   -0.6819   -7.6156   -6.8152 H   0  0  0  0  0  0  0  0  0  0  0  0
   -5.9492   -2.5353   -8.6730 H   0  0  0  0  0  0  0  0  0  0  0  0
   -6.7227   -3.9569   -4.6906 H   0  0  0  0  0  0  0  0  0  0  0  0
   -3.1732   -0.7174   -6.3931 H   0  0  0  0  0  0  0  0  0  0  0  0
   -1.6740   -0.3777   -7.2382 H   0  0  0  0  0  0  0  0  0  0  0  0
    0.3704   -1.6921   -6.9087 H   0  0  0  0  0  0  0  0  0  0  0  0
    0.4786   -2.9340   -5.7180 H   0  0  0  0  0  0  0  0  0  0  0  0
   -1.7933    0.7131   -2.4682 H   0  0  0  0  0  0  0  0  0  0  0  0
   -0.4716    1.3949   -1.6328 H   0  0  0  0  0  0  0  0  0  0  0  0
   -2.0876    1.2381   -5.4532 H   0  0  0  0  0  0  0  0  0  0  0  0
   -2.2950   -0.0337   -4.2909 H   0  0  0  0  0  0  0  0  0  0  0  0
    1.5444   -0.7611   -5.0136 H   0  0  0  0  0  0  0  0  0  0  0  0
    0.4327   -1.3476   -3.9721 H   0  0  0  0  0  0  0  0  0  0  0  0
   -0.2554    2.1395   -3.8409 H   0  0  0  0  0  0  0  0  0  0  0  0
    1.0981    1.1128   -3.4951 H   0  0  0  0  0  0  0  0  0  0  0  0
    0.3527   -4.0178   -4.2206 H   0  0  0  0  0  0  0  0  0  0  0  0
    1.4155   -5.9999   -3.0459 H   0  0  0  0  0  0  0  0  0  0  0  0
  1 35  1  0  0  0  0
  1 36  1  0  0  0  0
  1 37  1  0  0  0  0
  2 38  1  0  0  0  0
  3 39  1  0  0  0  0
  4 40  1  0  0  0  0
  5 41  1  0  0  0  0
  6  2  1  0  0  0  0
  6 42  1  0  0  0  0
  7  3  2  0  0  0  0
  7 43  1  0  0  0  0
  8  4  1  0  0  0  0
  8 44  1  0  0  0  0
  9  5  2  0  0  0  0
  9 45  1  0  0  0  0
 10 46  1  0  0  0  0
 10 47  1  0  0  0  0
 11 48  1  0  0  0  0
 11 49  1  0  0  0  0
 12 50  1  0  0  0  0
 12 51  1  0  0  0  0
 13 10  1  0  0  0  0
 13 52  1  0  0  0  0
 13 53  1  0  0  0  0
 14 11  1  0  0  0  0
 14 54  1  0  0  0  0
 14 55  1  0  0  0  0
 15 12  1  0  0  0  0
 15 56  1  0  0  0  0
 15 57  1  0  0  0  0
 16 58  1  0  0  0  0
 17 16  2  0  0  0  0
 17 59  1  0  0  0  0
 18  1  1  0  0  0  0
 19  2  2  0  0  0  0
 19  3  1  0  0  0  0
 20  4  2  0  0  0  0
 20  5  1  0  0  0  0
 21 10  1  0  0  0  0
 21 11  1  0  0  0  0
 22  6  2  0  0  0  0
 22  7  1  0  0  0  0
 23  8  2  0  0  0  0
 23  9  1  0  0  0  0
 24 12  1  0  0  0  0
 24 18  2  0  0  0  0
 25 19  1  0  0  0  0
 25 20  1  0  0  0  0
 25 21  2  0  0  0  0
 26 24  1  0  0  0  0
 28 22  1  0  0  0  0
 29 23  1  0  0  0  0
 30 18  1  0  0  0  0
 30 27  2  0  0  0  0
 31 13  1  0  0  0  0
 31 14  1  0  0  0  0
 31 15  1  0  0  0  0
 32 16  1  0  0  0  0
 32 26  1  0  0  0  0
 32 27  1  0  0  0  0
 33 26  2  0  0  0  0
 34 17  1  0  0  0  0
 34 27  1  0  0  0  0
M  END
>  <DRUGBANK_ID>
DB12693

>  <COMMON_NAME>
Ritanserin

>  <CAS_NUMBER>
87051-43-2

>  <UNII>
145TFV465S

>  <SYNONYMS>
Ritanserin; ritanserina

$$$$
