
 OpenBabel10282417213D

 12 11  0  0  0  0  0  0  0  0999 V2000
    1.0557    0.0788   -0.0104 C   0  0  0  0  0  0  0  0  0  0  0  0
    0.5759   -0.3486    1.3890 C   0  0  0  0  0  0  0  0  0  0  0  0
    0.6163    1.4403   -0.3341 N   0  0  0  0  0  0  0  0  0  0  0  0
    1.0235    0.5983    2.4161 N   0  0  0  0  0  0  0  0  0  0  0  0
    0.6803   -0.6190   -0.7657 H   0  0  0  0  0  0  0  0  0  0  0  0
    2.1505    0.0499   -0.0509 H   0  0  0  0  0  0  0  0  0  0  0  0
   -0.5188   -0.3908    1.4063 H   0  0  0  0  0  0  0  0  0  0  0  0
    0.9518   -1.3509    1.6194 H   0  0  0  0  0  0  0  0  0  0  0  0
   -0.4033    1.4646   -0.2948 H   0  0  0  0  0  0  0  0  0  0  0  0
    0.8951    2.0267    0.4595 H   0  0  0  0  0  0  0  0  0  0  0  0
    0.7264    0.2606    3.3323 H   0  0  0  0  0  0  0  0  0  0  0  0
    2.0428    0.6058    2.4366 H   0  0  0  0  0  0  0  0  0  0  0  0
  1  5  1  0  0  0  0
  1  6  1  0  0  0  0
  2  1  1  0  0  0  0
  2  7  1  0  0  0  0
  2  8  1  0  0  0  0
  3  1  1  0  0  0  0
  3  9  1  0  0  0  0
  3 10  1  0  0  0  0
  4  2  1  0  0  0  0
  4 11  1  0  0  0  0
  4 12  1  0  0  0  0
M  END
>  <DRUGBANK_ID>
DB14189

>  <COMMON_NAME>
Ethylenediamine

>  <CAS_NUMBER>
107-15-3

>  <UNII>
60V9STC53F

>  <SYNONYMS>
1,2-diaminoethane; Aethaldiamin; edamine; ethane-1,2-diamine; Ethyleendiamine; Ethylendiamine; Ethylene-diamine; Ethylenediamine

$$$$
