ZYQ
 OpenBabel10282417173D

 26 27  0  0  0  0  0  0  0  0999 V2000
    0.9362    0.1127   -0.0455 C   0  0  0  0  0  0  0  0  0  0  0  0
    0.4786    1.5037    0.3362 C   0  0  0  0  0  0  0  0  0  0  0  0
   -0.2677    2.1507   -0.4008 O   0  0  0  0  0  0  0  0  0  0  0  0
    0.8085    1.9931    1.5709 N   0  0  0  0  0  0  0  0  0  0  0  0
    1.6338    1.3256    2.4250 C   0  0  0  0  0  0  0  0  0  0  0  0
    2.6700    0.5983    2.0984 N   0  0  0  0  0  0  0  0  0  0  0  0
    3.1677   -0.0194    3.2224 C   0  0  0  0  0  0  0  0  0  0  0  0
    4.4342   -0.8053    3.1159 C   0  0  0  0  0  0  0  0  0  0  0  0
    5.3377   -0.5120    4.3152 C   0  0  0  0  0  0  0  0  0  0  0  0
    4.9287   -1.3179    5.5533 C   0  0  0  0  0  0  0  0  0  0  0  0
    3.4968   -1.4487    5.7708 N   0  0  0  0  0  0  0  0  0  0  0  0
    2.6988   -0.3181    5.7103 C   0  0  0  0  0  0  0  0  0  0  0  0
    2.2606    0.1757    6.7554 O   0  0  0  0  0  0  0  0  0  0  0  0
    2.4476    0.2085    4.3862 C   0  0  0  0  0  0  0  0  0  0  0  0
    1.2206    1.3730    4.0741 S   0  0  0  0  0  0  0  0  0  0  0  0
    0.5211   -0.1613   -1.0181 H   0  0  0  0  0  0  0  0  0  0  0  0
    0.5706   -0.6114    0.6921 H   0  0  0  0  0  0  0  0  0  0  0  0
    2.0235    0.0648   -0.1248 H   0  0  0  0  0  0  0  0  0  0  0  0
    0.2945    2.7985    1.8965 H   0  0  0  0  0  0  0  0  0  0  0  0
    4.9564   -0.5412    2.1884 H   0  0  0  0  0  0  0  0  0  0  0  0
    4.1927   -1.8725    3.0575 H   0  0  0  0  0  0  0  0  0  0  0  0
    5.3033    0.5603    4.5581 H   0  0  0  0  0  0  0  0  0  0  0  0
    6.3828   -0.7319    4.0702 H   0  0  0  0  0  0  0  0  0  0  0  0
    5.3443   -2.3298    5.4900 H   0  0  0  0  0  0  0  0  0  0  0  0
    5.3391   -0.8396    6.4477 H   0  0  0  0  0  0  0  0  0  0  0  0
    3.0767   -2.2810    5.3702 H   0  0  0  0  0  0  0  0  0  0  0  0
  1  2  1  0  0  0  0
  1 16  1  0  0  0  0
  1 17  1  0  0  0  0
  1 18  1  0  0  0  0
  2  3  2  0  0  0  0
  2  4  1  0  0  0  0
  4  5  1  0  0  0  0
  4 19  1  0  0  0  0
  5  6  2  0  0  0  0
  5 15  1  0  0  0  0
  6  7  1  0  0  0  0
  7  8  1  0  0  0  0
  7 14  2  0  0  0  0
  8  9  1  0  0  0  0
  8 20  1  0  0  0  0
  8 21  1  0  0  0  0
  9 10  1  0  0  0  0
  9 22  1  0  0  0  0
  9 23  1  0  0  0  0
 10 11  1  0  0  0  0
 10 24  1  0  0  0  0
 10 25  1  0  0  0  0
 11 12  1  0  0  0  0
 11 26  1  0  0  0  0
 12 13  2  0  0  0  0
 12 14  1  0  0  0  0
 14 15  1  0  0  0  0
M  END
>  <DRUGBANK_ID>
DB08776

>  <COMMON_NAME>
N-(4-OXO-5,6,7,8-TETRAHYDRO-4H-[1,3]THIAZOLO[5,4-C]AZEPIN-2-YL)ACETAMIDE

$$$$
