
 OpenBabel10282417153D

 36 36  0  0  0  0  0  0  0  0999 V2000
    1.6188    0.1412    0.1693 C   0  0  0  0  0  0  0  0  0  0  0  0
    0.7608   -0.9313    0.2882 C   0  0  0  0  0  0  0  0  0  0  0  0
   -0.6478   -0.4558    0.1540 C   0  0  0  0  0  0  0  0  0  0  0  0
   -1.1995    0.8064    0.0933 C   0  0  0  0  0  0  0  0  0  0  0  0
   -0.2929    1.7955    0.1006 C   0  0  0  0  0  0  0  0  0  0  0  0
    1.0821    1.4629    0.0664 C   0  0  0  0  0  0  0  0  0  0  0  0
    1.4459   -2.4963    0.1900 C   0  0  0  0  0  0  0  0  0  0  0  0
    1.0271   -3.6449    1.1713 N   0  0  0  0  0  0  0  0  0  0  0  0
    0.1846   -4.8210    1.0423 C   0  0  0  0  0  0  0  0  0  0  0  0
   -0.3295   -5.2650    2.0826 O   0  0  0  0  0  0  0  0  0  0  0  0
   -0.4812   -5.3144   -0.4538 C   0  0  1  0  0  0  0  0  0  0  0  0
   -1.6955   -4.6270   -1.2938 C   0  0  0  0  0  0  0  0  0  0  0  0
   -1.7134   -3.2452   -1.4506 O   0  0  0  0  0  0  0  0  0  0  0  0
   -1.3325   -2.8278   -0.2248 C   0  0  0  0  0  0  0  0  0  0  0  0
    0.6371   -5.5820   -1.3145 N   0  0  0  0  0  0  0  0  0  0  0  0
    0.9560   -6.8250   -1.8024 C   0  0  0  0  0  0  0  0  0  0  0  0
    1.9794   -7.0032   -2.3910 O   0  0  0  0  0  0  0  0  0  0  0  0
   -0.0776   -7.9079   -1.5506 C   0  0  0  0  0  0  0  0  0  0  0  0
    2.6915   -0.0138    0.0958 H   0  0  0  0  0  0  0  0  0  0  0  0
   -1.5540   -0.9704   -0.1356 H   0  0  0  0  0  0  0  0  0  0  0  0
   -2.2829    0.9202   -0.0411 H   0  0  0  0  0  0  0  0  0  0  0  0
   -0.6755    2.8045    0.0810 H   0  0  0  0  0  0  0  0  0  0  0  0
    1.7628    2.2889   -0.0826 H   0  0  0  0  0  0  0  0  0  0  0  0
    1.3238   -2.8856   -0.8311 H   0  0  0  0  0  0  0  0  0  0  0  0
    2.5413   -2.4049    0.2975 H   0  0  0  0  0  0  0  0  0  0  0  0
    1.0616   -3.3604    2.1476 H   0  0  0  0  0  0  0  0  0  0  0  0
   -1.0015   -6.2394   -0.1868 H   0  0  0  0  0  0  0  0  0  0  0  0
   -1.7488   -4.9707   -2.3262 H   0  0  0  0  0  0  0  0  0  0  0  0
   -2.6498   -4.7621   -0.7837 H   0  0  0  0  0  0  0  0  0  0  0  0
   -1.9756   -2.5432    0.6182 H   0  0  0  0  0  0  0  0  0  0  0  0
   -0.7461   -3.4567    0.3084 H   0  0  0  0  0  0  0  0  0  0  0  0
   -0.5091   -2.2942   -0.6073 H   0  0  0  0  0  0  0  0  0  0  0  0
    1.3464   -4.8771   -1.4610 H   0  0  0  0  0  0  0  0  0  0  0  0
   -0.1984   -8.0759   -0.4751 H   0  0  0  0  0  0  0  0  0  0  0  0
   -1.0365   -7.6160   -1.9924 H   0  0  0  0  0  0  0  0  0  0  0  0
    0.2567   -8.8368   -2.0059 H   0  0  0  0  0  0  0  0  0  0  0  0
  1  2  1  0  0  0  0
  1  6  2  0  0  0  0
  1 19  1  0  0  0  0
  2  3  2  0  0  0  0
  2  7  1  0  0  0  0
  3  4  1  0  0  0  0
  3 20  1  0  0  0  0
  4  5  2  0  0  0  0
  4 21  1  0  0  0  0
  5  6  1  0  0  0  0
  5 22  1  0  0  0  0
  6 23  1  0  0  0  0
  7  8  1  0  0  0  0
  7 24  1  0  0  0  0
  7 25  1  0  0  0  0
  8  9  1  0  0  0  0
  8 26  1  0  0  0  0
  9 10  2  0  0  0  0
  9 11  1  0  0  0  0
 11 12  1  0  0  0  0
 11 15  1  0  0  0  0
 11 27  1  1  0  0  0
 12 13  1  0  0  0  0
 12 28  1  0  0  0  0
 12 29  1  0  0  0  0
 13 14  1  0  0  0  0
 14 30  1  0  0  0  0
 14 31  1  0  0  0  0
 14 32  1  0  0  0  0
 15 16  1  0  0  0  0
 15 33  1  0  0  0  0
 16 17  2  0  0  0  0
 16 18  1  0  0  0  0
 18 34  1  0  0  0  0
 18 35  1  0  0  0  0
 18 36  1  0  0  0  0
M  END
>  <DRUGBANK_ID>
DB06218

>  <COMMON_NAME>
Lacosamide

>  <CAS_NUMBER>
175481-36-4

>  <UNII>
563KS2PQY5

>  <SYNONYMS>
(+)-(2R)-2-(ACETYLAMINO)-N-BENZYL-3-METHOXYPROPANAMIDE; (2R)-2-(Acetylamino)-3-methoxy-N-(phenylmethyl)propanamide; (R)-2-acetamido-N-benzyl-3- methoxypropionamide; (R)-LACOSAMIDE 1; Erlosamide; Harkoseride; Lacosamida; Lacosamide; Propanamide, 2-(acetylamino)-3-methoxy-N-(phenylmethyl)-, (2R)-

$$$$
