621
 OpenBabel10282417103D

 52 55  0  0  1  0  0  0  0  0999 V2000
   -6.6843    2.4630    7.8441 O   0  0  0  0  0  0  0  0  0  0  0  0
   -5.3454   -3.2268    4.3201 O   0  0  0  0  0  0  0  0  0  0  0  0
   -5.0465   -3.6258    6.5389 O   0  0  0  0  0  0  0  0  0  0  0  0
   -7.3539    2.6708    5.1921 C   0  0  2  0  0  0  0  0  0  0  0  0
   -8.7112    2.8448    5.4563 C   0  0  1  0  0  0  0  0  0  0  0  0
   -6.3631    1.5854    4.9322 C   0  0  1  0  0  0  0  0  0  0  0  0
   -7.0452    0.1873    4.6632 C   0  0  1  0  0  0  0  0  0  0  0  0
   -5.9233   -0.8185    4.3331 C   0  0  2  0  0  0  0  0  0  0  0  0
   -7.6990    3.3918    7.1024 C   0  0  2  0  0  0  0  0  0  0  0  0
   -9.1943    1.3283    4.4807 C   0  0  0  0  0  0  0  0  0  0  0  0
   -8.1166    0.4420    3.6651 C   0  0  0  0  0  0  0  0  0  0  0  0
   -7.0960    4.2155    5.3408 C   0  0  0  0  0  0  0  0  0  0  0  0
   -5.0054   -0.8143    5.5939 C   0  0  1  0  0  0  0  0  0  0  0  0
   -5.5501    1.3607    6.2004 C   0  0  0  0  0  0  0  0  0  0  0  0
   -6.3950    4.4381    6.5882 C   0  0  0  0  0  0  0  0  0  0  0  0
   -4.4002    0.5146    5.9303 C   0  0  0  0  0  0  0  0  0  0  0  0
   -9.0505    3.6048    3.7662 C   0  0  0  0  0  0  0  0  0  0  0  0
   -6.4179   -2.2766    4.0996 C   0  0  0  0  0  0  0  0  0  0  0  0
   -5.0987   -0.3106    3.1445 C   0  0  0  0  0  0  0  0  0  0  0  0
   -3.8912   -1.8059    5.5377 C   0  0  0  0  0  0  0  0  0  0  0  0
   -8.0451    3.6542    8.7368 C   0  0  0  0  0  0  0  0  0  0  0  0
   -4.7171   -3.0429    5.5134 C   0  0  0  0  0  0  0  0  0  0  0  0
   -7.6366    1.9607    6.0089 H   0  0  0  0  0  0  0  0  0  0  0  0
   -5.7897    1.9601    4.0971 H   0  0  0  0  0  0  0  0  0  0  0  0
   -7.5967   -0.1864    5.5515 H   0  0  0  0  0  0  0  0  0  0  0  0
   -5.6579   -1.1144    6.4437 H   0  0  0  0  0  0  0  0  0  0  0  0
   -6.0473    2.9762    8.4237 H   0  0  0  0  0  0  0  0  0  0  0  0
   -9.8618    1.5482    3.6071 H   0  0  0  0  0  0  0  0  0  0  0  0
   -9.8971    0.7837    5.0901 H   0  0  0  0  0  0  0  0  0  0  0  0
   -8.5751   -0.4605    3.2208 H   0  0  0  0  0  0  0  0  0  0  0  0
   -7.6271    0.8876    2.7788 H   0  0  0  0  0  0  0  0  0  0  0  0
   -6.8339    4.7442    4.4288 H   0  0  0  0  0  0  0  0  0  0  0  0
   -8.0037    4.8327    5.6077 H   0  0  0  0  0  0  0  0  0  0  0  0
   -5.0910    2.2568    6.5964 H   0  0  0  0  0  0  0  0  0  0  0  0
   -6.2236    0.8561    6.9280 H   0  0  0  0  0  0  0  0  0  0  0  0
   -5.5132    4.2510    5.8985 H   0  0  0  0  0  0  0  0  0  0  0  0
   -5.5453    4.1360    7.2263 H   0  0  0  0  0  0  0  0  0  0  0  0
   -3.6845    0.4539    6.7531 H   0  0  0  0  0  0  0  0  0  0  0  0
   -3.8963    1.0643    5.1445 H   0  0  0  0  0  0  0  0  0  0  0  0
   -8.7151    2.9285    2.9125 H   0  0  0  0  0  0  0  0  0  0  0  0
  -10.1298    3.6338    3.5498 H   0  0  0  0  0  0  0  0  0  0  0  0
   -8.5960    4.5358    3.4075 H   0  0  0  0  0  0  0  0  0  0  0  0
   -6.7903   -2.4921    3.0884 H   0  0  0  0  0  0  0  0  0  0  0  0
   -7.2721   -2.5045    4.7543 H   0  0  0  0  0  0  0  0  0  0  0  0
   -5.5043    0.6024    2.7053 H   0  0  0  0  0  0  0  0  0  0  0  0
   -4.0840   -0.0445    3.4481 H   0  0  0  0  0  0  0  0  0  0  0  0
   -5.0462   -1.0474    2.3518 H   0  0  0  0  0  0  0  0  0  0  0  0
   -3.1326   -1.6908    4.7544 H   0  0  0  0  0  0  0  0  0  0  0  0
   -3.3464   -1.7083    6.4807 H   0  0  0  0  0  0  0  0  0  0  0  0
   -7.4834    2.9879    9.5021 H   0  0  0  0  0  0  0  0  0  0  0  0
   -7.5795    4.5815    9.1136 H   0  0  0  0  0  0  0  0  0  0  0  0
   -9.0270    3.3585    9.0811 H   0  0  0  0  0  0  0  0  0  0  0  0
  1 27  1  0  0  0  0
  2 18  1  0  0  0  0
  2 22  1  0  0  0  0
  3 22  2  0  0  0  0
  4  5  1  0  0  0  0
  4  6  1  0  0  0  0
  4 12  1  0  0  0  0
  4 23  1  6  0  0  0
  5  9  1  0  0  0  0
  5 10  1  0  0  0  0
  5 17  1  1  0  0  0
  6  7  1  0  0  0  0
  6 14  1  0  0  0  0
  6 24  1  1  0  0  0
  7  8  1  0  0  0  0
  7 11  1  0  0  0  0
  7 25  1  6  0  0  0
  8 13  1  0  0  0  0
  8 18  1  0  0  0  0
  8 19  1  1  0  0  0
  9 15  1  0  0  0  0
  9  1  1  1  0  0  0
  9 21  1  0  0  0  0
 10 11  1  0  0  0  0
 10 28  1  0  0  0  0
 10 29  1  0  0  0  0
 11 30  1  0  0  0  0
 11 31  1  0  0  0  0
 12 15  1  0  0  0  0
 12 32  1  0  0  0  0
 12 33  1  0  0  0  0
 13 16  1  0  0  0  0
 13 20  1  0  0  0  0
 13 26  1  6  0  0  0
 14 16  1  0  0  0  0
 14 34  1  0  0  0  0
 14 35  1  0  0  0  0
 15 36  1  0  0  0  0
 15 37  1  0  0  0  0
 16 38  1  0  0  0  0
 16 39  1  0  0  0  0
 17 40  1  0  0  0  0
 17 41  1  0  0  0  0
 17 42  1  0  0  0  0
 18 43  1  0  0  0  0
 18 44  1  0  0  0  0
 19 45  1  0  0  0  0
 19 46  1  0  0  0  0
 19 47  1  0  0  0  0
 20 22  1  0  0  0  0
 20 48  1  0  0  0  0
 20 49  1  0  0  0  0
 21 50  1  0  0  0  0
 21 51  1  0  0  0  0
 21 52  1  0  0  0  0
M  END
>  <DRUGBANK_ID>
DB00621

>  <SECONDARY_ACCESSION_NUMBERS>
APRD01151

>  <COMMON_NAME>
Oxandrolone

>  <CAS_NUMBER>
53-39-4

>  <UNII>
7H6TM3CT4L

>  <SYNONYMS>
Ossandrolone; Oxandrolon; Oxandrolona; Oxandrolone; Oxandrolonum

$$$$
