VG2
 OpenBabel10282417173D

 56 58  0  0  0  0  0  0  0  0999 V2000
    1.3472   -0.0068    0.2715 N   0  0  0  0  0  0  0  0  0  0  0  0
    0.7482    1.2327   -0.2048 C   0  0  0  0  0  0  0  0  0  0  0  0
   -0.7110    1.2797    0.2429 C   0  0  0  0  0  0  0  0  0  0  0  0
   -1.4730    0.0214   -0.1863 C   0  0  0  0  0  0  0  0  0  0  0  0
   -0.7330   -1.2549    0.2281 C   0  0  0  0  0  0  0  0  0  0  0  0
    0.7304   -1.2355   -0.2286 C   0  0  0  0  0  0  0  0  0  0  0  0
    2.4490   -0.0369    1.1012 C   0  0  0  0  0  0  0  0  0  0  0  0
    3.6114   -0.6985    0.6891 C   0  0  0  0  0  0  0  0  0  0  0  0
    4.7118   -0.7995    1.5296 C   0  0  0  0  0  0  0  0  0  0  0  0
    6.1280   -1.6074    0.9912 Cl  0  0  0  0  0  0  0  0  0  0  0  0
    4.6829   -0.2462    2.8001 C   0  0  0  0  0  0  0  0  0  0  0  0
    3.5793    0.4948    3.2248 C   0  0  0  0  0  0  0  0  0  0  0  0
    3.5853    1.1572    4.4861 N   0  0  0  0  0  0  0  0  0  0  0  0
    4.6483    1.2780    5.3807 C   0  0  0  0  0  0  0  0  0  0  0  0
    4.4569    1.1477    6.5964 O   0  0  0  0  0  0  0  0  0  0  0  0
    6.0034    1.7052    4.8907 C   0  0  0  0  0  0  0  0  0  0  0  0
    6.1219    2.2429    3.6064 C   0  0  0  0  0  0  0  0  0  0  0  0
    7.3389    2.5910    3.0175 C   0  0  0  0  0  0  0  0  0  0  0  0
    7.2028    3.0626    1.5840 C   0  0  0  0  0  0  0  0  0  0  0  0
    8.5032    2.4267    3.7961 C   0  0  0  0  0  0  0  0  0  0  0  0
    9.7937    2.5436    3.3511 O   0  0  0  0  0  0  0  0  0  0  0  0
   10.0186    2.6419    1.9548 C   0  0  0  0  0  0  0  0  0  0  0  0
    9.7701    1.3207    1.1503 C   0  0  0  0  0  0  0  0  0  0  0  0
    8.6561    0.3966    1.4136 N   0  0  0  0  0  0  0  0  0  0  0  0
    8.4068    2.0039    5.1536 C   0  0  0  0  0  0  0  0  0  0  0  0
    9.6286    1.9382    6.0478 C   0  0  0  0  0  0  0  0  0  0  0  0
    7.1504    1.6355    5.6876 C   0  0  0  0  0  0  0  0  0  0  0  0
    2.4544    0.5723    2.3777 C   0  0  0  0  0  0  0  0  0  0  0  0
    0.7863    1.2393   -1.3034 H   0  0  0  0  0  0  0  0  0  0  0  0
    1.2925    2.1203    0.1333 H   0  0  0  0  0  0  0  0  0  0  0  0
   -1.2001    2.1663   -0.1748 H   0  0  0  0  0  0  0  0  0  0  0  0
   -0.7515    1.3658    1.3350 H   0  0  0  0  0  0  0  0  0  0  0  0
   -2.4752    0.0294    0.2580 H   0  0  0  0  0  0  0  0  0  0  0  0
   -1.6084    0.0272   -1.2751 H   0  0  0  0  0  0  0  0  0  0  0  0
   -0.7702   -1.3450    1.3211 H   0  0  0  0  0  0  0  0  0  0  0  0
   -1.2452   -2.1297   -0.1873 H   0  0  0  0  0  0  0  0  0  0  0  0
    1.2392   -2.1389    0.1262 H   0  0  0  0  0  0  0  0  0  0  0  0
    0.7730   -1.2464   -1.3254 H   0  0  0  0  0  0  0  0  0  0  0  0
    3.6685   -1.1331   -0.3046 H   0  0  0  0  0  0  0  0  0  0  0  0
    5.5524   -0.3803    3.4348 H   0  0  0  0  0  0  0  0  0  0  0  0
    2.6854    1.4086    4.8802 H   0  0  0  0  0  0  0  0  0  0  0  0
    5.2388    2.3391    2.9853 H   0  0  0  0  0  0  0  0  0  0  0  0
    7.3988    4.1305    1.5065 H   0  0  0  0  0  0  0  0  0  0  0  0
    7.8295    2.5701    0.8492 H   0  0  0  0  0  0  0  0  0  0  0  0
    6.2107    2.8321    1.1808 H   0  0  0  0  0  0  0  0  0  0  0  0
    9.5311    3.5446    1.5709 H   0  0  0  0  0  0  0  0  0  0  0  0
   11.0798    2.8894    1.8262 H   0  0  0  0  0  0  0  0  0  0  0  0
    9.7281    1.5954    0.0893 H   0  0  0  0  0  0  0  0  0  0  0  0
   10.6531    0.7010    1.2921 H   0  0  0  0  0  0  0  0  0  0  0  0
    7.8818    0.5096    0.7573 H   0  0  0  0  0  0  0  0  0  0  0  0
    8.2544    0.5342    2.3392 H   0  0  0  0  0  0  0  0  0  0  0  0
    9.5174    2.6385    6.8832 H   0  0  0  0  0  0  0  0  0  0  0  0
    9.7793    0.9282    6.4435 H   0  0  0  0  0  0  0  0  0  0  0  0
   10.5514    2.2178    5.5285 H   0  0  0  0  0  0  0  0  0  0  0  0
    7.0746    1.2905    6.7193 H   0  0  0  0  0  0  0  0  0  0  0  0
    1.5568    1.0897    2.7091 H   0  0  0  0  0  0  0  0  0  0  0  0
  1  2  1  0  0  0  0
  1  6  1  0  0  0  0
  1  7  1  0  0  0  0
  2  3  1  0  0  0  0
  2 29  1  0  0  0  0
  2 30  1  0  0  0  0
  3  4  1  0  0  0  0
  3 31  1  0  0  0  0
  3 32  1  0  0  0  0
  4  5  1  0  0  0  0
  4 33  1  0  0  0  0
  4 34  1  0  0  0  0
  5  6  1  0  0  0  0
  5 35  1  0  0  0  0
  5 36  1  0  0  0  0
  6 37  1  0  0  0  0
  6 38  1  0  0  0  0
  7  8  1  0  0  0  0
  7 28  2  0  0  0  0
  8  9  2  0  0  0  0
  8 39  1  0  0  0  0
  9 10  1  0  0  0  0
  9 11  1  0  0  0  0
 11 12  2  0  0  0  0
 11 40  1  0  0  0  0
 12 13  1  0  0  0  0
 12 28  1  0  0  0  0
 13 14  1  0  0  0  0
 13 41  1  0  0  0  0
 14 15  2  0  0  0  0
 14 16  1  0  0  0  0
 16 17  1  0  0  0  0
 16 27  2  0  0  0  0
 17 18  2  0  0  0  0
 17 42  1  0  0  0  0
 18 19  1  0  0  0  0
 18 20  1  0  0  0  0
 19 43  1  0  0  0  0
 19 44  1  0  0  0  0
 19 45  1  0  0  0  0
 20 21  1  0  0  0  0
 20 25  2  0  0  0  0
 21 22  1  0  0  0  0
 22 23  1  0  0  0  0
 22 46  1  0  0  0  0
 22 47  1  0  0  0  0
 23 24  1  0  0  0  0
 23 48  1  0  0  0  0
 23 49  1  0  0  0  0
 24 50  1  0  0  0  0
 24 51  1  0  0  0  0
 25 26  1  0  0  0  0
 25 27  1  0  0  0  0
 26 52  1  0  0  0  0
 26 53  1  0  0  0  0
 26 54  1  0  0  0  0
 27 55  1  0  0  0  0
 28 56  1  0  0  0  0
M  END
>  <DRUGBANK_ID>
DB08697

>  <COMMON_NAME>
4-(2-aminoethoxy)-N-(3-chloro-5-piperidin-1-ylphenyl)-3,5-dimethylbenzamide

$$$$
