
 OpenBabel10282417213D

 36 36  0  0  1  0  0  0  0  0999 V2000
    1.1795    0.0418    0.1714 C   0  0  0  0  0  0  0  0  0  0  0  0
    0.6206    1.3485   -0.3852 C   0  0  0  0  0  0  0  0  0  0  0  0
    1.0347    1.6228   -1.8303 C   0  0  0  0  0  0  0  0  0  0  0  0
    0.5718    0.5480   -2.8108 C   0  0  0  0  0  0  0  0  0  0  0  0
   -0.8967    0.3687   -2.8467 N   0  0  0  0  0  0  0  0  0  0  0  0
   -1.3340   -0.9009   -2.2058 C   0  0  0  0  0  0  0  0  0  0  0  0
   -0.9725   -2.2004   -2.9657 C   0  0  2  0  0  0  0  0  0  0  0  0
    0.4203   -2.5181   -2.8633 O   0  0  0  0  0  0  0  0  0  0  0  0
   -1.4132   -2.1229   -4.4361 C   0  0  1  0  0  0  0  0  0  0  0  0
   -2.8318   -2.2785   -4.5258 O   0  0  0  0  0  0  0  0  0  0  0  0
   -0.9890   -0.7886   -5.0793 C   0  0  1  0  0  0  0  0  0  0  0  0
   -1.4234   -0.7422   -6.4405 O   0  0  0  0  0  0  0  0  0  0  0  0
   -1.4343    0.4410   -4.2381 C   0  0  1  0  0  0  0  0  0  0  0  0
   -2.9763    0.6559   -4.2252 C   0  0  0  0  0  0  0  0  0  0  0  0
   -3.3185    1.8404   -3.5095 O   0  0  0  0  0  0  0  0  0  0  0  0
    0.8791   -0.8362   -0.4034 H   0  0  0  0  0  0  0  0  0  0  0  0
    0.8213   -0.1128    1.1927 H   0  0  0  0  0  0  0  0  0  0  0  0
    2.2724    0.0521    0.1763 H   0  0  0  0  0  0  0  0  0  0  0  0
   -0.4726    1.3474   -0.3114 H   0  0  0  0  0  0  0  0  0  0  0  0
    0.9757    2.1730    0.2419 H   0  0  0  0  0  0  0  0  0  0  0  0
    0.6613    2.6020   -2.1522 H   0  0  0  0  0  0  0  0  0  0  0  0
    2.1311    1.6782   -1.8806 H   0  0  0  0  0  0  0  0  0  0  0  0
    0.9720    0.8072   -3.7988 H   0  0  0  0  0  0  0  0  0  0  0  0
    1.0999   -0.3598   -2.5266 H   0  0  0  0  0  0  0  0  0  0  0  0
   -0.9716   -0.9495   -1.1786 H   0  0  0  0  0  0  0  0  0  0  0  0
   -2.4234   -0.8653   -2.0831 H   0  0  0  0  0  0  0  0  0  0  0  0
   -1.4950   -3.0245   -2.4685 H   0  0  0  0  0  0  0  0  0  0  0  0
    0.9144   -1.9982   -3.5177 H   0  0  0  0  0  0  0  0  0  0  0  0
   -0.9677   -2.9502   -4.9998 H   0  0  0  0  0  0  0  0  0  0  0  0
   -3.0561   -2.2295   -5.4754 H   0  0  0  0  0  0  0  0  0  0  0  0
    0.1059   -0.7813   -5.1403 H   0  0  0  0  0  0  0  0  0  0  0  0
   -2.3507   -0.4573   -6.4833 H   0  0  0  0  0  0  0  0  0  0  0  0
   -1.0317    1.3515   -4.7042 H   0  0  0  0  0  0  0  0  0  0  0  0
   -3.3657    0.7675   -5.2402 H   0  0  0  0  0  0  0  0  0  0  0  0
   -3.5262   -0.1635   -3.7585 H   0  0  0  0  0  0  0  0  0  0  0  0
   -2.8747    1.7525   -2.6440 H   0  0  0  0  0  0  0  0  0  0  0  0
  1  2  1  0  0  0  0
  1 16  1  0  0  0  0
  1 17  1  0  0  0  0
  1 18  1  0  0  0  0
  2  3  1  0  0  0  0
  2 19  1  0  0  0  0
  2 20  1  0  0  0  0
  3  4  1  0  0  0  0
  3 21  1  0  0  0  0
  3 22  1  0  0  0  0
  4  5  1  0  0  0  0
  4 23  1  0  0  0  0
  4 24  1  0  0  0  0
  5  6  1  0  0  0  0
  6 25  1  0  0  0  0
  6 26  1  0  0  0  0
  7  6  1  0  0  0  0
  7  8  1  0  0  0  0
  7 27  1  1  0  0  0
  8 28  1  0  0  0  0
  9  7  1  0  0  0  0
  9 11  1  0  0  0  0
  9 29  1  6  0  0  0
  9 10  1  0  0  0  0
 10 30  1  0  0  0  0
 11 13  1  0  0  0  0
 11 31  1  6  0  0  0
 11 12  1  0  0  0  0
 12 32  1  0  0  0  0
 13  5  1  0  0  0  0
 13 14  1  0  0  0  0
 13 33  1  6  0  0  0
 14 15  1  0  0  0  0
 14 34  1  0  0  0  0
 14 35  1  0  0  0  0
 15 36  1  0  0  0  0
M  END
>  <DRUGBANK_ID>
DB14872

>  <COMMON_NAME>
Lucerastat

>  <CAS_NUMBER>
141206-42-0

>  <UNII>
GVS3YDM418

>  <SYNONYMS>
Lucerastat

$$$$
