
 OpenBabel10282417163D

225230  0  0  0  0  0  0  0  0999 V2000
   -7.3983   16.1821    8.6800 C   0  0  0  0  0  0  0  0  0  0  0  0
   -6.0400   16.5390    8.6090 C   0  0  0  0  0  0  0  0  0  0  0  0
   -5.1716   15.9343    7.7255 C   0  0  0  0  0  0  0  0  0  0  0  0
   -5.6418   14.8393    7.0783 C   0  0  0  0  0  0  0  0  0  0  0  0
   -7.0114   14.4299    7.2178 C   0  0  0  0  0  0  0  0  0  0  0  0
   -7.9202   15.1739    7.9035 C   0  0  0  0  0  0  0  0  0  0  0  0
   -4.7065   14.1123    6.4133 C   0  0  0  0  0  0  0  0  0  0  0  0
   -5.0942   12.8437    6.1082 C   0  0  0  0  0  0  0  0  0  0  0  0
   -6.5193   12.4852    6.1128 C   0  0  0  0  0  0  0  0  0  0  0  0
   -7.4748   13.2641    6.7130 C   0  0  0  0  0  0  0  0  0  0  0  0
   -5.5154   12.3407    1.7833 N   0  0  0  0  0  0  0  0  0  0  0  0
   -7.1214   12.1572    2.6457 C   0  0  2  0  0  0  0  0  0  0  0  0
   -7.3070   11.7305    4.7806 C   0  0  0  0  0  0  0  0  0  0  0  0
   -4.6323   11.2728    1.4098 C   0  0  0  0  0  0  0  0  0  0  0  0
   -8.7028   11.7769    0.8712 N   0  0  0  0  0  0  0  0  0  0  0  0
   -7.5498   11.2978    1.4378 C   0  0  0  0  0  0  0  0  0  0  0  0
  -11.8183    9.9463   -0.0918 O   0  0  0  0  0  0  0  0  0  0  0  0
  -10.8581   10.2545    0.6183 C   0  0  0  0  0  0  0  0  0  0  0  0
   -9.2737   10.8677    0.0039 C   0  0  1  0  0  0  0  0  0  0  0  0
   -9.1088    9.4670    2.8061 C   0  0  0  0  0  0  0  0  0  0  0  0
  -10.5622    9.4110    3.1049 C   0  0  1  0  0  0  0  0  0  0  0  0
  -11.2480    9.8485    1.8873 N   0  0  0  0  0  0  0  0  0  0  0  0
  -10.9388    7.7957    4.9658 N   0  0  0  0  0  0  0  0  0  0  0  0
  -11.0804    8.0480    3.6042 C   0  0  0  0  0  0  0  0  0  0  0  0
   -9.1345    4.6954    6.2801 O   0  0  0  0  0  0  0  0  0  0  0  0
   -9.3388    5.6415    5.5149 C   0  0  0  0  0  0  0  0  0  0  0  0
  -10.7693    6.4037    5.4752 C   0  0  2  0  0  0  0  0  0  0  0  0
   -7.4581    7.9208    4.4250 C   0  0  0  0  0  0  0  0  0  0  0  0
   -8.3457    6.9443    3.7459 C   0  0  2  0  0  0  0  0  0  0  0  0
   -8.3683    5.8317    4.5844 N   0  0  0  0  0  0  0  0  0  0  0  0
   -7.0858   10.1914    1.1696 O   0  0  0  0  0  0  0  0  0  0  0  0
   -8.6126   11.0760   -1.4289 C   0  0  0  0  0  0  0  0  0  0  0  0
  -11.3335    7.1558    2.8007 O   0  0  0  0  0  0  0  0  0  0  0  0
   -9.4252    6.6958    1.3783 N   0  0  0  0  0  0  0  0  0  0  0  0
   -8.2836    6.6206    2.1911 C   0  0  0  0  0  0  0  0  0  0  0  0
  -11.2869    5.1845   -1.2778 O   0  0  0  0  0  0  0  0  0  0  0  0
  -10.4524    5.1587   -0.3788 C   0  0  0  0  0  0  0  0  0  0  0  0
   -9.4688    6.2219   -0.0573 C   0  0  1  0  0  0  0  0  0  0  0  0
   -9.7852    3.5768    2.6737 C   0  0  0  0  0  0  0  0  0  0  0  0
   -9.2209    3.9533    1.3615 C   0  0  2  0  0  0  0  0  0  0  0  0
  -10.2914    4.0942    0.3973 N   0  0  0  0  0  0  0  0  0  0  0  0
   -6.8846    3.3460    0.7501 N   0  0  0  0  0  0  0  0  0  0  0  0
   -8.2008    3.1303    0.7520 C   0  0  0  0  0  0  0  0  0  0  0  0
   -7.7529    0.2922   -0.5153 O   0  0  0  0  0  0  0  0  0  0  0  0
   -6.7712    1.0016   -0.7716 C   0  0  0  0  0  0  0  0  0  0  0  0
   -6.1372    2.1942    0.2127 C   0  0  2  0  0  0  0  0  0  0  0  0
   -7.2651    6.1256    1.6990 O   0  0  0  0  0  0  0  0  0  0  0  0
   -8.6688    2.2228    0.0941 O   0  0  0  0  0  0  0  0  0  0  0  0
   -6.1163    0.7053   -1.9394 N   0  0  0  0  0  0  0  0  0  0  0  0
   -4.8499   -0.0302   -2.1024 C   0  0  1  0  0  0  0  0  0  0  0  0
   -4.5482    0.3402   -3.5258 C   0  0  0  0  0  0  0  0  0  0  0  0
   -5.8781    0.1581   -4.1831 C   0  0  0  0  0  0  0  0  0  0  0  0
   -6.9065    0.5212   -3.1220 C   0  0  0  0  0  0  0  0  0  0  0  0
   -3.1620   11.4903    1.4732 C   0  0  0  0  0  0  0  0  0  0  0  0
   -4.9036   10.1649    0.9603 O   0  0  0  0  0  0  0  0  0  0  0  0
   -7.0861   11.1166   -1.8220 C   0  0  0  0  0  0  0  0  0  0  0  0
   -6.3085   11.9395   -1.1064 C   0  0  0  0  0  0  0  0  0  0  0  0
   -4.9263   11.9171   -1.2684 C   0  0  0  0  0  0  0  0  0  0  0  0
   -4.2324   11.0339   -2.0910 C   0  0  0  0  0  0  0  0  0  0  0  0
   -4.9330   10.1786   -2.8473 C   0  0  0  0  0  0  0  0  0  0  0  0
   -6.3040   10.3280   -2.7520 C   0  0  0  0  0  0  0  0  0  0  0  0
   -2.5433   11.1005   -2.2765 Cl  0  0  0  0  0  0  0  0  0  0  0  0
   -3.7280    0.7203   -1.5269 C   0  0  0  0  0  0  0  0  0  0  0  0
   -3.9585    1.8923   -1.2207 O   0  0  0  0  0  0  0  0  0  0  0  0
   -2.4716    0.2322   -1.3657 N   0  0  0  0  0  0  0  0  0  0  0  0
   -1.7599   -0.7337   -2.1244 C   0  0  1  0  0  0  0  0  0  0  0  0
   -0.7225    0.1506   -2.8484 C   0  0  0  0  0  0  0  0  0  0  0  0
    0.5701   -0.2699   -2.8253 N   0  0  0  0  0  0  0  0  0  0  0  0
   -1.0053    1.2128   -3.3996 O   0  0  0  0  0  0  0  0  0  0  0  0
   -1.1826   -1.8103   -1.2312 C   0  0  0  0  0  0  0  0  0  0  0  0
  -10.6104    2.3005    2.5920 C   0  0  0  0  0  0  0  0  0  0  0  0
   -9.7694    1.0826    2.3037 C   0  0  0  0  0  0  0  0  0  0  0  0
  -11.3133    2.0005    3.8764 C   0  0  0  0  0  0  0  0  0  0  0  0
   -6.0738    7.7647    4.0256 C   0  0  0  0  0  0  0  0  0  0  0  0
   -5.1952    7.8813    5.0550 C   0  0  0  0  0  0  0  0  0  0  0  0
   -3.8900    7.6623    4.7381 C   0  0  0  0  0  0  0  0  0  0  0  0
   -3.4982    7.4559    3.3999 C   0  0  0  0  0  0  0  0  0  0  0  0
   -4.3601    7.5468    2.3399 C   0  0  0  0  0  0  0  0  0  0  0  0
   -5.6606    7.7339    2.6681 C   0  0  0  0  0  0  0  0  0  0  0  0
   -2.2170    7.1561    3.0860 O   0  0  0  0  0  0  0  0  0  0  0  0
   -8.2914   10.5415    3.4206 C   0  0  0  0  0  0  0  0  0  0  0  0
   -6.4541   10.4917    3.4882 C   0  0  0  0  0  0  0  0  0  0  0  0
   -5.5809   11.9889    3.8805 C   0  0  0  0  0  0  0  0  0  0  0  0
   -6.6140   13.4897    4.0170 C   0  0  0  0  0  0  0  0  0  0  0  0
   -8.3482   13.4088    3.9444 N   0  0  0  0  0  0  0  0  0  0  0  0
   -9.1319   11.9974    3.6328 C   0  0  0  0  0  0  0  0  0  0  0  0
   -9.9768    7.2375   -0.9657 C   0  0  0  0  0  0  0  0  0  0  0  0
   -9.0837    8.3031   -0.6330 C   0  0  0  0  0  0  0  0  0  0  0  0
  -11.7997    5.4886    4.8253 C   0  0  0  0  0  0  0  0  0  0  0  0
  -11.8539    4.2732    5.5302 O   0  0  0  0  0  0  0  0  0  0  0  0
   -5.6602    1.4201    1.4196 C   0  0  0  0  0  0  0  0  0  0  0  0
   -4.7465    0.1898    1.1801 C   0  0  0  0  0  0  0  0  0  0  0  0
   -7.6618    8.1889   -1.0819 C   0  0  0  0  0  0  0  0  0  0  0  0
   -7.6692    7.8641   -2.6016 C   0  0  0  0  0  0  0  0  0  0  0  0
   -8.1991    8.8734   -3.6594 N   0  0  0  0  0  0  0  0  0  0  0  0
   -9.2075    9.6610   -3.7904 C   0  0  0  0  0  0  0  0  0  0  0  0
  -10.3100    9.3689   -3.1407 N   0  0  0  0  0  0  0  0  0  0  0  0
   -9.2671   10.9355   -4.2883 N   0  0  0  0  0  0  0  0  0  0  0  0
  -11.5004   10.0107   -2.7442 C   0  0  0  0  0  0  0  0  0  0  0  0
  -12.4800    8.8624   -2.7541 C   0  0  0  0  0  0  0  0  0  0  0  0
   -8.2436   11.6333   -5.0006 C   0  0  0  0  0  0  0  0  0  0  0  0
   -8.6888   11.5662   -6.4335 C   0  0  0  0  0  0  0  0  0  0  0  0
   -3.2718    0.5561    1.0536 C   0  0  0  0  0  0  0  0  0  0  0  0
   -2.4909    1.5553    1.8544 C   0  0  0  0  0  0  0  0  0  0  0  0
   -2.0618    0.8260    2.9796 N   0  0  0  0  0  0  0  0  0  0  0  0
   -2.9470    0.3235    3.7621 C   0  0  0  0  0  0  0  0  0  0  0  0
   -4.2519    0.6137    3.8172 N   0  0  0  0  0  0  0  0  0  0  0  0
   -5.4528   -0.0439    4.2665 C   0  0  0  0  0  0  0  0  0  0  0  0
   -6.3868    1.0798    4.6956 C   0  0  0  0  0  0  0  0  0  0  0  0
   -2.5654   -0.6118    4.6172 N   0  0  0  0  0  0  0  0  0  0  0  0
   -1.1645   -0.7381    4.8866 C   0  0  0  0  0  0  0  0  0  0  0  0
   -0.8577   -0.0301    6.1785 C   0  0  0  0  0  0  0  0  0  0  0  0
   -8.0519   16.6601    9.3930 H   0  0  0  0  0  0  0  0  0  0  0  0
   -5.6355   17.2787    9.2813 H   0  0  0  0  0  0  0  0  0  0  0  0
   -4.1214   16.1989    7.6628 H   0  0  0  0  0  0  0  0  0  0  0  0
   -8.9673   14.8878    7.9399 H   0  0  0  0  0  0  0  0  0  0  0  0
   -3.7207   14.4725    6.1182 H   0  0  0  0  0  0  0  0  0  0  0  0
   -4.2930   12.3952    5.5252 H   0  0  0  0  0  0  0  0  0  0  0  0
   -8.5341   13.0830    6.5341 H   0  0  0  0  0  0  0  0  0  0  0  0
   -5.0052   13.1287    2.1684 H   0  0  0  0  0  0  0  0  0  0  0  0
   -7.5442   13.1216    2.2416 H   0  0  0  0  0  0  0  0  0  0  0  0
   -6.9094   10.7314    5.2391 H   0  0  0  0  0  0  0  0  0  0  0  0
   -8.3003   11.4492    5.2875 H   0  0  0  0  0  0  0  0  0  0  0  0
   -9.1006   12.6766    1.0311 H   0  0  0  0  0  0  0  0  0  0  0  0
   -8.6603   10.0296    0.2088 H   0  0  0  0  0  0  0  0  0  0  0  0
   -8.4933    8.6734    2.4444 H   0  0  0  0  0  0  0  0  0  0  0  0
   -9.1600    9.7688    1.8226 H   0  0  0  0  0  0  0  0  0  0  0  0
  -10.8302   10.0795    3.9101 H   0  0  0  0  0  0  0  0  0  0  0  0
  -12.1560    9.3939    1.7898 H   0  0  0  0  0  0  0  0  0  0  0  0
  -10.7678    8.5600    5.6078 H   0  0  0  0  0  0  0  0  0  0  0  0
  -11.0258    6.4786    6.5383 H   0  0  0  0  0  0  0  0  0  0  0  0
   -7.6221    8.8472    4.0299 H   0  0  0  0  0  0  0  0  0  0  0  0
   -7.7396    8.2603    5.4429 H   0  0  0  0  0  0  0  0  0  0  0  0
   -9.2278    7.4456    3.9412 H   0  0  0  0  0  0  0  0  0  0  0  0
   -7.4450    5.4299    4.7318 H   0  0  0  0  0  0  0  0  0  0  0  0
   -8.7229   10.1341   -1.8547 H   0  0  0  0  0  0  0  0  0  0  0  0
   -9.2643   11.7693   -1.9287 H   0  0  0  0  0  0  0  0  0  0  0  0
  -10.3279    7.0423    1.6844 H   0  0  0  0  0  0  0  0  0  0  0  0
   -8.4593    5.9329   -0.3691 H   0  0  0  0  0  0  0  0  0  0  0  0
   -9.0171    3.5639    3.4483 H   0  0  0  0  0  0  0  0  0  0  0  0
  -10.4358    4.4104    2.8850 H   0  0  0  0  0  0  0  0  0  0  0  0
   -8.6784    4.8172    1.4923 H   0  0  0  0  0  0  0  0  0  0  0  0
  -10.7329    3.2711    0.0206 H   0  0  0  0  0  0  0  0  0  0  0  0
   -6.4435    4.2588    0.9674 H   0  0  0  0  0  0  0  0  0  0  0  0
   -5.3748    2.7897   -0.2631 H   0  0  0  0  0  0  0  0  0  0  0  0
   -4.9383   -1.0965   -1.8249 H   0  0  0  0  0  0  0  0  0  0  0  0
   -4.2540    1.4091   -3.5534 H   0  0  0  0  0  0  0  0  0  0  0  0
   -3.7257   -0.2146   -3.9637 H   0  0  0  0  0  0  0  0  0  0  0  0
   -5.9381    0.7891   -5.0652 H   0  0  0  0  0  0  0  0  0  0  0  0
   -5.9546   -0.8993   -4.4341 H   0  0  0  0  0  0  0  0  0  0  0  0
   -7.4289    1.4631   -3.3099 H   0  0  0  0  0  0  0  0  0  0  0  0
   -7.6422   -0.2793   -2.9836 H   0  0  0  0  0  0  0  0  0  0  0  0
   -2.7279   10.5226    1.7700 H   0  0  0  0  0  0  0  0  0  0  0  0
   -2.8248   11.6845    0.4600 H   0  0  0  0  0  0  0  0  0  0  0  0
   -2.8560   12.2701    2.1558 H   0  0  0  0  0  0  0  0  0  0  0  0
   -6.7579   12.5219   -0.3292 H   0  0  0  0  0  0  0  0  0  0  0  0
   -4.3951   12.5652   -0.6051 H   0  0  0  0  0  0  0  0  0  0  0  0
   -4.5169    9.4433   -3.5392 H   0  0  0  0  0  0  0  0  0  0  0  0
   -6.5955    9.6630   -3.5322 H   0  0  0  0  0  0  0  0  0  0  0  0
   -1.8575    0.8384   -0.8279 H   0  0  0  0  0  0  0  0  0  0  0  0
   -2.4482   -1.1900   -2.8213 H   0  0  0  0  0  0  0  0  0  0  0  0
    1.2570    0.3162   -3.2793 H   0  0  0  0  0  0  0  0  0  0  0  0
    0.8939   -1.0551   -2.2810 H   0  0  0  0  0  0  0  0  0  0  0  0
   -1.9586   -2.2978   -0.6324 H   0  0  0  0  0  0  0  0  0  0  0  0
   -0.7280   -2.5596   -1.8823 H   0  0  0  0  0  0  0  0  0  0  0  0
   -0.4183   -1.4361   -0.5387 H   0  0  0  0  0  0  0  0  0  0  0  0
  -11.3721    2.4200    1.8121 H   0  0  0  0  0  0  0  0  0  0  0  0
   -8.8314    1.1175    2.8633 H   0  0  0  0  0  0  0  0  0  0  0  0
  -10.2861    0.1443    2.4797 H   0  0  0  0  0  0  0  0  0  0  0  0
   -9.6128    1.0049    1.2477 H   0  0  0  0  0  0  0  0  0  0  0  0
  -12.0994    2.7307    4.0286 H   0  0  0  0  0  0  0  0  0  0  0  0
  -11.8084    1.0326    3.8110 H   0  0  0  0  0  0  0  0  0  0  0  0
  -10.5876    1.9735    4.6959 H   0  0  0  0  0  0  0  0  0  0  0  0
   -5.5743    8.1365    6.0414 H   0  0  0  0  0  0  0  0  0  0  0  0
   -3.2094    7.6275    5.5689 H   0  0  0  0  0  0  0  0  0  0  0  0
   -4.0761    7.5084    1.2934 H   0  0  0  0  0  0  0  0  0  0  0  0
   -6.3120    8.0026    1.8246 H   0  0  0  0  0  0  0  0  0  0  0  0
   -1.7722    6.9917    3.9262 H   0  0  0  0  0  0  0  0  0  0  0  0
   -5.8034    9.7795    3.0370 H   0  0  0  0  0  0  0  0  0  0  0  0
   -4.5033   11.8936    3.8382 H   0  0  0  0  0  0  0  0  0  0  0  0
   -6.3424   14.4909    4.3123 H   0  0  0  0  0  0  0  0  0  0  0  0
  -10.2234   12.0174    3.6901 H   0  0  0  0  0  0  0  0  0  0  0  0
   -9.9393    6.9491   -2.0201 H   0  0  0  0  0  0  0  0  0  0  0  0
  -10.9842    7.5766   -0.7166 H   0  0  0  0  0  0  0  0  0  0  0  0
   -9.6844    9.0796   -1.0219 H   0  0  0  0  0  0  0  0  0  0  0  0
   -9.1659    8.4501    0.4248 H   0  0  0  0  0  0  0  0  0  0  0  0
  -12.7886    5.9505    4.8006 H   0  0  0  0  0  0  0  0  0  0  0  0
  -11.5998    5.2820    3.7859 H   0  0  0  0  0  0  0  0  0  0  0  0
  -10.9746    3.8570    5.4027 H   0  0  0  0  0  0  0  0  0  0  0  0
   -5.2151    2.2050    2.0453 H   0  0  0  0  0  0  0  0  0  0  0  0
   -6.5413    1.0601    1.9578 H   0  0  0  0  0  0  0  0  0  0  0  0
   -4.7364   -0.5828    1.9492 H   0  0  0  0  0  0  0  0  0  0  0  0
   -5.1765   -0.4419    0.3962 H   0  0  0  0  0  0  0  0  0  0  0  0
   -7.0274    9.0221   -0.7650 H   0  0  0  0  0  0  0  0  0  0  0  0
   -7.1425    7.4361   -0.4680 H   0  0  0  0  0  0  0  0  0  0  0  0
   -6.5838    7.7335   -2.7579 H   0  0  0  0  0  0  0  0  0  0  0  0
   -8.0883    6.8878   -2.7835 H   0  0  0  0  0  0  0  0  0  0  0  0
  -10.0845    8.5441   -2.6470 H   0  0  0  0  0  0  0  0  0  0  0  0
  -10.1141   11.4735   -4.1576 H   0  0  0  0  0  0  0  0  0  0  0  0
  -11.3744   10.5529   -1.8197 H   0  0  0  0  0  0  0  0  0  0  0  0
  -11.7928   10.8178   -3.4024 H   0  0  0  0  0  0  0  0  0  0  0  0
  -12.3025    8.0889   -2.0009 H   0  0  0  0  0  0  0  0  0  0  0  0
  -13.4969    9.2086   -2.6394 H   0  0  0  0  0  0  0  0  0  0  0  0
  -12.3369    8.3421   -3.7085 H   0  0  0  0  0  0  0  0  0  0  0  0
   -8.1357   12.6763   -4.6616 H   0  0  0  0  0  0  0  0  0  0  0  0
   -7.2740   11.1602   -4.8893 H   0  0  0  0  0  0  0  0  0  0  0  0
   -9.6453   12.0872   -6.5541 H   0  0  0  0  0  0  0  0  0  0  0  0
   -7.9402   12.0040   -7.0879 H   0  0  0  0  0  0  0  0  0  0  0  0
   -8.8464   10.5158   -6.7043 H   0  0  0  0  0  0  0  0  0  0  0  0
   -2.7091   -0.3554    0.8116 H   0  0  0  0  0  0  0  0  0  0  0  0
   -3.1998    1.2921    0.3200 H   0  0  0  0  0  0  0  0  0  0  0  0
   -1.6132    1.8657    1.2455 H   0  0  0  0  0  0  0  0  0  0  0  0
   -3.0606    2.4786    2.0001 H   0  0  0  0  0  0  0  0  0  0  0  0
   -4.4349    1.2134    3.0563 H   0  0  0  0  0  0  0  0  0  0  0  0
   -5.9645   -0.6554    3.5029 H   0  0  0  0  0  0  0  0  0  0  0  0
   -5.2319   -0.7085    5.0939 H   0  0  0  0  0  0  0  0  0  0  0  0
   -6.8643    1.6023    3.8597 H   0  0  0  0  0  0  0  0  0  0  0  0
   -7.1809    0.6935    5.3300 H   0  0  0  0  0  0  0  0  0  0  0  0
   -5.8115    1.8467    5.2208 H   0  0  0  0  0  0  0  0  0  0  0  0
   -3.2369   -0.8383    5.3254 H   0  0  0  0  0  0  0  0  0  0  0  0
   -0.9423   -1.8000    4.9087 H   0  0  0  0  0  0  0  0  0  0  0  0
   -0.5318   -0.3068    4.0964 H   0  0  0  0  0  0  0  0  0  0  0  0
   -1.4538   -0.4588    6.9875 H   0  0  0  0  0  0  0  0  0  0  0  0
    0.2029   -0.1449    6.3985 H   0  0  0  0  0  0  0  0  0  0  0  0
   -1.0913    1.0416    6.1205 H   0  0  0  0  0  0  0  0  0  0  0  0
  1  2  2  0  0  0  0
  1  6  1  0  0  0  0
  1113  1  0  0  0  0
  2  3  1  0  0  0  0
  2114  1  0  0  0  0
  3  4  2  0  0  0  0
  3115  1  0  0  0  0
  4  5  1  0  0  0  0
  4  7  1  0  0  0  0
  5  6  2  0  0  0  0
  5 10  1  0  0  0  0
  6116  1  0  0  0  0
  7  8  2  0  0  0  0
  7117  1  0  0  0  0
  8  9  1  0  0  0  0
  8118  1  0  0  0  0
  9 10  2  0  0  0  0
  9 13  1  0  0  0  0
 10119  1  0  0  0  0
 11 14  1  0  0  0  0
 11120  1  0  0  0  0
 12 11  1  0  0  0  0
 12 13  1  0  0  0  0
 12 16  1  0  0  0  0
 12121  1  6  0  0  0
 13122  1  0  0  0  0
 13123  1  0  0  0  0
 14 54  1  0  0  0  0
 14 55  2  0  0  0  0
 15 16  1  0  0  0  0
 15 19  1  0  0  0  0
 15124  1  0  0  0  0
 16 31  2  0  0  0  0
 17 18  2  0  0  0  0
 18 19  1  0  0  0  0
 18 22  1  0  0  0  0
 19 32  1  0  0  0  0
 19125  1  1  0  0  0
 20 81  1  0  0  0  0
 20126  1  0  0  0  0
 20127  1  0  0  0  0
 21 24  1  0  0  0  0
 21128  1  1  0  0  0
 21 22  1  0  0  0  0
 21 20  1  0  0  0  0
 22129  1  0  0  0  0
 23 24  1  0  0  0  0
 23130  1  0  0  0  0
 24 33  2  0  0  0  0
 25 26  2  0  0  0  0
 26 30  1  0  0  0  0
 27 89  1  0  0  0  0
 27131  1  1  0  0  0
 27 23  1  0  0  0  0
 27 26  1  0  0  0  0
 28 74  1  0  0  0  0
 28132  1  0  0  0  0
 28133  1  0  0  0  0
 29 28  1  0  0  0  0
 29 30  1  0  0  0  0
 29 35  1  0  0  0  0
 29134  1  1  0  0  0
 30135  1  0  0  0  0
 32 56  1  0  0  0  0
 32136  1  0  0  0  0
 32137  1  0  0  0  0
 34 35  1  0  0  0  0
 34 38  1  0  0  0  0
 34138  1  0  0  0  0
 35 47  2  0  0  0  0
 36 37  2  0  0  0  0
 37 38  1  0  0  0  0
 37 41  1  0  0  0  0
 38 87  1  0  0  0  0
 38139  1  6  0  0  0
 39 71  1  0  0  0  0
 39140  1  0  0  0  0
 39141  1  0  0  0  0
 40 39  1  0  0  0  0
 40 41  1  0  0  0  0
 40 43  1  0  0  0  0
 40142  1  1  0  0  0
 41143  1  0  0  0  0
 42 43  1  0  0  0  0
 42144  1  0  0  0  0
 43 48  2  0  0  0  0
 44 45  2  0  0  0  0
 45 49  1  0  0  0  0
 46 91  1  0  0  0  0
 46145  1  6  0  0  0
 46 42  1  0  0  0  0
 46 45  1  0  0  0  0
 49 50  1  0  0  0  0
 49 53  1  0  0  0  0
 50 51  1  0  0  0  0
 50146  1  1  0  0  0
 50 63  1  0  0  0  0
 51 52  1  0  0  0  0
 51147  1  0  0  0  0
 51148  1  0  0  0  0
 52 53  1  0  0  0  0
 52149  1  0  0  0  0
 52150  1  0  0  0  0
 53151  1  0  0  0  0
 53152  1  0  0  0  0
 54153  1  0  0  0  0
 54154  1  0  0  0  0
 54155  1  0  0  0  0
 56 57  2  0  0  0  0
 56 61  1  0  0  0  0
 57 58  1  0  0  0  0
 57156  1  0  0  0  0
 58 59  2  0  0  0  0
 58157  1  0  0  0  0
 59 60  1  0  0  0  0
 59 62  1  0  0  0  0
 60 61  2  0  0  0  0
 60158  1  0  0  0  0
 61159  1  0  0  0  0
 63 64  2  0  0  0  0
 63 65  1  0  0  0  0
 65 66  1  0  0  0  0
 65160  1  0  0  0  0
 66 67  1  0  0  0  0
 66 70  1  0  0  0  0
 66161  1  6  0  0  0
 67 68  1  0  0  0  0
 67 69  2  0  0  0  0
 68162  1  0  0  0  0
 68163  1  0  0  0  0
 70164  1  0  0  0  0
 70165  1  0  0  0  0
 70166  1  0  0  0  0
 71 72  1  0  0  0  0
 71 73  1  0  0  0  0
 71167  1  0  0  0  0
 72168  1  0  0  0  0
 72169  1  0  0  0  0
 72170  1  0  0  0  0
 73171  1  0  0  0  0
 73172  1  0  0  0  0
 73173  1  0  0  0  0
 74 75  2  0  0  0  0
 74 79  1  0  0  0  0
 75 76  1  0  0  0  0
 75174  1  0  0  0  0
 76 77  2  0  0  0  0
 76175  1  0  0  0  0
 77 78  1  0  0  0  0
 77 80  1  0  0  0  0
 78 79  2  0  0  0  0
 78176  1  0  0  0  0
 79177  1  0  0  0  0
 80178  1  0  0  0  0
 81 82  2  0  0  0  0
 81 86  1  0  0  0  0
 82 83  1  0  0  0  0
 82179  1  0  0  0  0
 83 84  2  0  0  0  0
 83180  1  0  0  0  0
 84 85  1  0  0  0  0
 84181  1  0  0  0  0
 85 86  2  0  0  0  0
 86182  1  0  0  0  0
 87 88  1  0  0  0  0
 87183  1  0  0  0  0
 87184  1  0  0  0  0
 88 93  1  0  0  0  0
 88185  1  0  0  0  0
 88186  1  0  0  0  0
 89 90  1  0  0  0  0
 89187  1  0  0  0  0
 89188  1  0  0  0  0
 90189  1  0  0  0  0
 91 92  1  0  0  0  0
 91190  1  0  0  0  0
 91191  1  0  0  0  0
 92103  1  0  0  0  0
 92192  1  0  0  0  0
 92193  1  0  0  0  0
 93 94  1  0  0  0  0
 93194  1  0  0  0  0
 93195  1  0  0  0  0
 94 95  1  0  0  0  0
 94196  1  0  0  0  0
 94197  1  0  0  0  0
 95 96  2  0  0  0  0
 96 97  1  0  0  0  0
 96 98  1  0  0  0  0
 97 99  1  0  0  0  0
 97198  1  0  0  0  0
 98101  1  0  0  0  0
 98199  1  0  0  0  0
 99100  1  0  0  0  0
 99200  1  0  0  0  0
 99201  1  0  0  0  0
100202  1  0  0  0  0
100203  1  0  0  0  0
100204  1  0  0  0  0
101102  1  0  0  0  0
101205  1  0  0  0  0
101206  1  0  0  0  0
102207  1  0  0  0  0
102208  1  0  0  0  0
102209  1  0  0  0  0
103104  1  0  0  0  0
103210  1  0  0  0  0
103211  1  0  0  0  0
104105  1  0  0  0  0
104212  1  0  0  0  0
104213  1  0  0  0  0
105106  2  0  0  0  0
106107  1  0  0  0  0
106110  1  0  0  0  0
107108  1  0  0  0  0
107214  1  0  0  0  0
108109  1  0  0  0  0
108215  1  0  0  0  0
108216  1  0  0  0  0
109217  1  0  0  0  0
109218  1  0  0  0  0
109219  1  0  0  0  0
110111  1  0  0  0  0
110220  1  0  0  0  0
111112  1  0  0  0  0
111221  1  0  0  0  0
111222  1  0  0  0  0
112223  1  0  0  0  0
112224  1  0  0  0  0
112225  1  0  0  0  0
M  END
>  <DRUGBANK_ID>
DB06785

>  <COMMON_NAME>
Ganirelix

>  <CAS_NUMBER>
124904-93-4

>  <UNII>
IX503L9WN0

>  <SYNONYMS>
Ganirelix

$$$$
