
 OpenBabel10282417113D

 32 34  0  0  0  0  0  0  0  0999 V2000
    0.2037    4.3249   -0.5941 C   0  0  0  0  0  0  0  0  0  0  0  0
    0.6569    3.0357   -0.4149 N   0  0  0  0  0  0  0  0  0  0  0  0
   -0.9515    4.2119   -1.3492 C   0  0  0  0  0  0  0  0  0  0  0  0
    0.8034    5.4644   -0.2661 N   0  0  0  0  0  0  0  0  0  0  0  0
    2.0291    2.6098   -0.1226 C   0  0  2  0  0  0  0  0  0  0  0  0
   -0.2826    2.2116   -0.9945 C   0  0  0  0  0  0  0  0  0  0  0  0
   -1.2688    2.8907   -1.5475 N   0  0  0  0  0  0  0  0  0  0  0  0
   -1.5232    5.4191   -1.7890 C   0  0  0  0  0  0  0  0  0  0  0  0
    0.2234    6.5555   -0.7940 C   0  0  0  0  0  0  0  0  0  0  0  0
    2.3760    2.8719    1.2517 O   0  0  0  0  0  0  0  0  0  0  0  0
    3.0913    3.3010   -0.9894 C   0  0  2  0  0  0  0  0  0  0  0  0
   -0.9022    6.5856   -1.5227 N   0  0  0  0  0  0  0  0  0  0  0  0
   -2.6777    5.4625   -2.5422 N   0  0  0  0  0  0  0  0  0  0  0  0
    0.8767    7.7122   -0.6247 F   0  0  0  0  0  0  0  0  0  0  0  0
    3.4169    3.8945    1.2783 C   0  0  1  0  0  0  0  0  0  0  0  0
    3.5016    4.4948   -0.1251 C   0  0  1  0  0  0  0  0  0  0  0  0
    2.6801    3.5851   -2.3208 O   0  0  0  0  0  0  0  0  0  0  0  0
    3.0246    4.8865    2.3720 C   0  0  0  0  0  0  0  0  0  0  0  0
    4.7463    5.0827   -0.4660 O   0  0  0  0  0  0  0  0  0  0  0  0
    3.1508    4.2549    3.6506 O   0  0  0  0  0  0  0  0  0  0  0  0
    2.0535    1.5207   -0.2616 H   0  0  0  0  0  0  0  0  0  0  0  0
   -0.1700    1.1355   -1.0378 H   0  0  0  0  0  0  0  0  0  0  0  0
    3.9587    2.6390   -1.0890 H   0  0  0  0  0  0  0  0  0  0  0  0
   -3.2158    4.6094   -2.6000 H   0  0  0  0  0  0  0  0  0  0  0  0
   -3.1229    6.3655   -2.6199 H   0  0  0  0  0  0  0  0  0  0  0  0
    4.3675    3.4127    1.5433 H   0  0  0  0  0  0  0  0  0  0  0  0
    2.8356    5.3345   -0.2081 H   0  0  0  0  0  0  0  0  0  0  0  0
    1.9460    4.2262   -2.3110 H   0  0  0  0  0  0  0  0  0  0  0  0
    3.6570    5.7766    2.3676 H   0  0  0  0  0  0  0  0  0  0  0  0
    1.9764    5.1872    2.2728 H   0  0  0  0  0  0  0  0  0  0  0  0
    5.4297    4.4029   -0.5493 H   0  0  0  0  0  0  0  0  0  0  0  0
    2.5951    3.4537    3.6168 H   0  0  0  0  0  0  0  0  0  0  0  0
  1  2  1  0  0  0  0
  1  3  2  0  0  0  0
  1  4  1  0  0  0  0
  2  6  1  0  0  0  0
  3  7  1  0  0  0  0
  3  8  1  0  0  0  0
  4  9  2  0  0  0  0
  5 10  1  0  0  0  0
  5 11  1  0  0  0  0
  5 21  1  6  0  0  0
  5  2  1  0  0  0  0
  6  7  2  0  0  0  0
  6 22  1  0  0  0  0
  8 12  2  0  0  0  0
  8 13  1  0  0  0  0
  9 14  1  0  0  0  0
  9 12  1  0  0  0  0
 10 15  1  0  0  0  0
 11 16  1  0  0  0  0
 11 17  1  0  0  0  0
 11 23  1  6  0  0  0
 13 24  1  0  0  0  0
 13 25  1  0  0  0  0
 15 18  1  0  0  0  0
 15 16  1  0  0  0  0
 15 26  1  1  0  0  0
 16 19  1  0  0  0  0
 16 27  1  6  0  0  0
 17 28  1  0  0  0  0
 18 20  1  0  0  0  0
 18 29  1  0  0  0  0
 18 30  1  0  0  0  0
 19 31  1  0  0  0  0
 20 32  1  0  0  0  0
M  END
>  <DRUGBANK_ID>
DB01073

>  <SECONDARY_ACCESSION_NUMBERS>
APRD00594

>  <COMMON_NAME>
Fludarabine

>  <CAS_NUMBER>
21679-14-1

>  <UNII>
P2K93U8740

>  <SYNONYMS>
2-F-ARAA; 2-fluoro ARA-A; Fludarabina; Fludarabine; Fludarabinum

$$$$
