
 OpenBabel10282417203D

 36 35  0  0  0  0  0  0  0  0999 V2000
   -0.4510    1.3779   -0.5803 C   0  0  0  0  0  0  0  0  0  0  0  0
   -1.1205    0.1095   -0.3174 C   0  0  0  0  0  0  0  0  0  0  0  0
   -0.0238   -1.5985   -0.0998 C   0  0  0  0  0  0  0  0  0  0  0  0
   -0.1535   -2.6582    0.5860 O   0  0  0  0  0  0  0  0  0  0  0  0
    1.9018   -1.3444   -0.2483 C   0  0  0  0  0  0  0  0  0  0  0  0
    2.3737    0.0786   -0.5517 C   0  0  0  0  0  0  0  0  0  0  0  0
    1.2600    1.4776   -0.6523 N   0  0  0  0  0  0  0  0  0  0  0  0
    1.7257    2.7498   -0.0833 C   0  0  0  0  0  0  0  0  0  0  0  0
    2.4614    2.5981    1.2386 C   0  0  0  0  0  0  0  0  0  0  0  0
    3.6791    2.5268    1.3175 O   0  0  0  0  0  0  0  0  0  0  0  0
    1.7023    2.5270    2.3538 O   0  0  0  0  0  0  0  0  0  0  0  0
    2.7966   -3.1615    0.2660 I   0  0  0  0  0  0  0  0  0  0  0  0
   -3.4919    0.6681   -0.1170 I   0  0  0  0  0  0  0  0  0  0  0  0
    0.6532   -0.0061    0.6865 C   0  0  0  0  0  0  0  0  0  0  0  0
    0.5259   -0.3837   -1.4422 C   0  0  0  0  0  0  0  0  0  0  0  0
    0.7922   -1.8343   -2.1564 O   0  0  0  0  0  0  0  0  0  0  0  0
   -0.0391   -0.8149    1.9397 N   0  0  0  0  0  0  0  0  0  0  0  0
   -1.5737   -1.1913    1.6178 C   0  0  0  0  0  0  0  0  0  0  0  0
   -2.2742   -2.0827    0.0399 C   0  0  0  0  0  0  0  0  0  0  0  0
   -1.7404   -3.2989   -0.6493 O   0  0  0  0  0  0  0  0  0  0  0  0
   -0.9541    2.3265   -0.3342 H   0  0  0  0  0  0  0  0  0  0  0  0
    3.3597    0.4776   -0.4073 H   0  0  0  0  0  0  0  0  0  0  0  0
    2.4152    3.0773   -0.8435 H   0  0  0  0  0  0  0  0  0  0  0  0
    0.9097    3.4792    0.0235 H   0  0  0  0  0  0  0  0  0  0  0  0
    2.3165    2.4248    3.1179 H   0  0  0  0  0  0  0  0  0  0  0  0
    0.3675    0.9787    1.1476 H   0  0  0  0  0  0  0  0  0  0  0  0
    1.6617   -0.0310    1.2361 H   0  0  0  0  0  0  0  0  0  0  0  0
   -0.4867   -0.4328   -1.9684 H   0  0  0  0  0  0  0  0  0  0  0  0
    1.0346    0.2373   -2.2278 H   0  0  0  0  0  0  0  0  0  0  0  0
    1.7182   -2.1488   -2.0948 H   0  0  0  0  0  0  0  0  0  0  0  0
    0.4750   -1.7197    1.9764 H   0  0  0  0  0  0  0  0  0  0  0  0
   -1.8586   -1.7436    2.4953 H   0  0  0  0  0  0  0  0  0  0  0  0
   -1.9086   -0.1421    1.7791 H   0  0  0  0  0  0  0  0  0  0  0  0
   -3.3296   -2.2555    0.1438 H   0  0  0  0  0  0  0  0  0  0  0  0
   -2.2228   -1.4764   -0.9003 H   0  0  0  0  0  0  0  0  0  0  0  0
   -0.7897   -3.4548   -0.4107 H   0  0  0  0  0  0  0  0  0  0  0  0
  1  2  2  0  0  0  0
  1  7  1  0  0  0  0
  1 21  1  0  0  0  0
  2  3  1  0  0  0  0
  2 13  1  0  0  0  0
  3  4  2  0  0  0  0
  3  5  1  0  0  0  0
  5  6  2  0  0  0  0
  5 12  1  0  0  0  0
  6  7  1  0  0  0  0
  6 22  1  0  0  0  0
  7  8  1  0  0  0  0
  8  9  1  0  0  0  0
  8 23  1  0  0  0  0
  8 24  1  0  0  0  0
  9 10  2  0  0  0  0
  9 11  1  0  0  0  0
 11 25  1  0  0  0  0
 14 15  1  0  0  0  0
 14 17  1  0  0  0  0
 14 26  1  0  0  0  0
 14 27  1  0  0  0  0
 15 16  1  0  0  0  0
 15 28  1  0  0  0  0
 15 29  1  0  0  0  0
 16 30  1  0  0  0  0
 17 18  1  0  0  0  0
 17 31  1  0  0  0  0
 18 19  1  0  0  0  0
 18 32  1  0  0  0  0
 18 33  1  0  0  0  0
 19 20  1  0  0  0  0
 19 34  1  0  0  0  0
 19 35  1  0  0  0  0
 20 36  1  0  0  0  0
M  END
>  <DRUGBANK_ID>
DB13568

>  <COMMON_NAME>
Diodone

>  <CAS_NUMBER>
300-37-8

>  <UNII>
ZTK4026YJ5

>  <SYNONYMS>
Diodone; Iodopyracet

$$$$
