HUX
 OpenBabel10282417133D

 40 43  0  0  0  0  0  0  0  0999 V2000
   42.4599  -17.5743   -9.9339 Cl  0  0  0  0  0  0  0  0  0  0  0  0
   42.5796  -16.2879   -8.8081 C   0  0  0  0  0  0  0  0  0  0  0  0
   43.7148  -12.7991   -8.6912 N   0  0  0  0  0  0  0  0  0  0  0  0
   43.1949  -14.0075   -8.3322 C   0  0  0  0  0  0  0  0  0  0  0  0
   43.5884  -11.8206   -7.7975 C   0  0  0  0  0  0  0  0  0  0  0  0
   42.4052  -13.3765   -4.7376 N   0  0  0  0  0  0  0  0  0  0  0  0
   42.7120  -13.2555   -6.1129 C   0  0  0  0  0  0  0  0  0  0  0  0
   43.1029  -15.0491   -9.2071 C   0  0  0  0  0  0  0  0  0  0  0  0
   42.1480  -16.5100   -7.4977 C   0  0  0  0  0  0  0  0  0  0  0  0
   42.7304  -14.2618   -6.9935 C   0  0  0  0  0  0  0  0  0  0  0  0
   44.4623  -10.5332   -7.7474 C   0  0  0  0  0  0  0  0  0  0  0  0
   42.8276  -11.9931   -6.6492 C   0  0  0  0  0  0  0  0  0  0  0  0
   44.5759   -9.7818   -6.1007 C   0  0  1  0  0  0  0  0  0  0  0  0
   44.0437   -9.6224   -4.3411 C   0  0  0  0  0  0  0  0  0  0  0  0
   43.1676   -9.5289   -6.5751 C   0  0  0  0  0  0  0  0  0  0  0  0
   42.7102   -9.3117   -4.0959 C   0  0  0  0  0  0  0  0  0  0  0  0
   41.7728  -10.3821   -4.7629 C   0  0  0  0  0  0  0  0  0  0  0  0
   42.4665   -7.8008   -4.2676 C   0  0  0  0  0  0  0  0  0  0  0  0
   42.7650  -10.8382   -5.7899 C   0  0  1  0  0  0  0  0  0  0  0  0
   43.8659   -7.1225   -4.2094 C   0  0  0  0  0  0  0  0  0  0  0  0
   42.2391  -15.5000   -6.5887 C   0  0  0  0  0  0  0  0  0  0  0  0
   45.3458   -9.0124   -6.2233 H   0  0  0  0  0  0  0  0  0  0  0  0
   43.5893  -11.3254   -5.1847 H   0  0  0  0  0  0  0  0  0  0  0  0
   42.8407  -14.1593   -4.2603 H   0  0  0  0  0  0  0  0  0  0  0  0
   41.4067  -13.3389   -4.5806 H   0  0  0  0  0  0  0  0  0  0  0  0
   43.4347  -14.8983  -10.2355 H   0  0  0  0  0  0  0  0  0  0  0  0
   41.7316  -17.4603   -7.1816 H   0  0  0  0  0  0  0  0  0  0  0  0
   45.4044  -10.7090   -8.2702 H   0  0  0  0  0  0  0  0  0  0  0  0
   43.9940   -9.7691   -8.4370 H   0  0  0  0  0  0  0  0  0  0  0  0
   44.3239  -10.3704   -3.5827 H   0  0  0  0  0  0  0  0  0  0  0  0
   42.1948   -9.0414   -6.4916 H   0  0  0  0  0  0  0  0  0  0  0  0
   43.4570   -8.4591   -6.5582 H   0  0  0  0  0  0  0  0  0  0  0  0
   41.4866  -11.2007   -4.1012 H   0  0  0  0  0  0  0  0  0  0  0  0
   40.8803  -10.0588   -5.3083 H   0  0  0  0  0  0  0  0  0  0  0  0
   41.9584   -7.5477   -5.2073 H   0  0  0  0  0  0  0  0  0  0  0  0
   41.8344   -7.3898   -3.4747 H   0  0  0  0  0  0  0  0  0  0  0  0
   44.6067   -7.5820   -4.8759 H   0  0  0  0  0  0  0  0  0  0  0  0
   43.8864   -6.0913   -4.5338 H   0  0  0  0  0  0  0  0  0  0  0  0
   44.2846   -7.2584   -3.2034 H   0  0  0  0  0  0  0  0  0  0  0  0
   41.8779  -15.6422   -5.5685 H   0  0  0  0  0  0  0  0  0  0  0  0
  1  2  1  0  0  0  0
  2  8  2  0  0  0  0
  2  9  1  0  0  0  0
  3  4  2  0  0  0  0
  3  5  1  0  0  0  0
  4  8  1  0  0  0  0
  4 10  1  0  0  0  0
  5 11  1  0  0  0  0
  5 12  2  0  0  0  0
  6 24  1  0  0  0  0
  6 25  1  0  0  0  0
  6  7  1  0  0  0  0
  7 10  2  0  0  0  0
  7 12  1  0  0  0  0
  8 26  1  0  0  0  0
  9 21  2  0  0  0  0
  9 27  1  0  0  0  0
 10 21  1  0  0  0  0
 11 13  1  0  0  0  0
 11 28  1  0  0  0  0
 11 29  1  0  0  0  0
 12 19  1  0  0  0  0
 13 14  1  0  0  0  0
 13 15  1  0  0  0  0
 13 22  1  1  0  0  0
 14 16  2  0  0  0  0
 14 30  1  0  0  0  0
 15 19  1  0  0  0  0
 15 31  1  0  0  0  0
 15 32  1  0  0  0  0
 16 17  1  0  0  0  0
 16 18  1  0  0  0  0
 17 19  1  0  0  0  0
 17 33  1  0  0  0  0
 17 34  1  0  0  0  0
 18 20  1  0  0  0  0
 18 35  1  0  0  0  0
 18 36  1  0  0  0  0
 19 23  1  1  0  0  0
 20 37  1  0  0  0  0
 20 38  1  0  0  0  0
 20 39  1  0  0  0  0
 21 40  1  0  0  0  0
M  END
>  <DRUGBANK_ID>
DB04114

>  <SECONDARY_ACCESSION_NUMBERS>
EXPT01796

>  <COMMON_NAME>
3-Chloro-9-Ethyl-6,7,8,9,10,11-Hexahydro-7,11-Methanocycloocta[B]Quinolin-12-Amine

$$$$
