
 OpenBabel10282417133D

 20 20  0  0  0  0  0  0  0  0999 V2000
   -2.3380    1.2025    0.0041 C   0  0  0  0  0  0  0  0  0  0  0  0
   -1.1061    0.3534   -0.0008 C   0  0  0  0  0  0  0  0  0  0  0  0
   -1.2711   -0.9791   -0.0077 N   0  0  0  0  0  0  0  0  0  0  0  0
   -0.1395   -1.7032    0.0015 C   0  0  0  0  0  0  0  0  0  0  0  0
    1.1360   -1.1685    0.0092 C   0  0  0  0  0  0  0  0  0  0  0  0
    2.3264   -2.0726    0.0182 C   0  0  0  0  0  0  0  0  0  0  0  0
    2.3353   -2.9426    1.1936 N   0  0  0  0  0  0  0  0  0  0  0  0
    1.1942    0.2187    0.0048 C   0  0  0  0  0  0  0  0  0  0  0  0
    2.3724    0.9165   -0.1224 N   0  0  0  0  0  0  0  0  0  0  0  0
    0.0850    0.9788    0.0034 N   0  0  0  0  0  0  0  0  0  0  0  0
   -2.3496    1.8348    0.8968 H   0  0  0  0  0  0  0  0  0  0  0  0
   -2.3578    1.8397   -0.8849 H   0  0  0  0  0  0  0  0  0  0  0  0
   -3.2419    0.5851    0.0071 H   0  0  0  0  0  0  0  0  0  0  0  0
   -0.2901   -2.7820    0.0070 H   0  0  0  0  0  0  0  0  0  0  0  0
    2.3140   -2.6870   -0.8892 H   0  0  0  0  0  0  0  0  0  0  0  0
    3.2674   -1.5172    0.0012 H   0  0  0  0  0  0  0  0  0  0  0  0
    3.1896   -3.4973    1.1963 H   0  0  0  0  0  0  0  0  0  0  0  0
    2.3680   -2.3659    2.0348 H   0  0  0  0  0  0  0  0  0  0  0  0
    2.2635    1.9201   -0.0133 H   0  0  0  0  0  0  0  0  0  0  0  0
    3.2669    0.5153    0.1041 H   0  0  0  0  0  0  0  0  0  0  0  0
  1  2  1  0  0  0  0
  1 11  1  0  0  0  0
  1 12  1  0  0  0  0
  1 13  1  0  0  0  0
  2  3  2  0  0  0  0
  2 10  1  0  0  0  0
  3  4  1  0  0  0  0
  4  5  2  0  0  0  0
  4 14  1  0  0  0  0
  5  6  1  0  0  0  0
  5  8  1  0  0  0  0
  6  7  1  0  0  0  0
  6 15  1  0  0  0  0
  6 16  1  0  0  0  0
  7 17  1  0  0  0  0
  7 18  1  0  0  0  0
  8  9  1  0  0  0  0
  8 10  2  0  0  0  0
  9 19  1  0  0  0  0
  9 20  1  0  0  0  0
M  END
>  <DRUGBANK_ID>
DB03204

>  <SECONDARY_ACCESSION_NUMBERS>
EXPT02389

>  <COMMON_NAME>
4-amino-5-aminomethyl-2-methylpyrimidine

>  <CAS_NUMBER>
95-02-3

>  <UNII>
EU1UNR0P28

>  <SYNONYMS>
2-Methyl-4-amino-5-aminomethylpyrimidine; 4-Amino-2-methylpyrimidine-5-methylamine

$$$$
