696
 OpenBabel10282417133D

 42 45  0  0  0  0  0  0  0  0999 V2000
    2.2000   -0.7217   -0.0112 C   0  0  0  0  0  0  0  0  0  0  0  0
    2.1254    0.6875   -0.0200 C   0  0  0  0  0  0  0  0  0  0  0  0
    0.9027    1.3864    0.0077 C   0  0  0  0  0  0  0  0  0  0  0  0
   -0.2708    0.6293    0.0317 C   0  0  0  0  0  0  0  0  0  0  0  0
   -0.2457   -0.7608    0.0494 C   0  0  0  0  0  0  0  0  0  0  0  0
    0.9882   -1.4302    0.0325 C   0  0  0  0  0  0  0  0  0  0  0  0
    3.4923   -1.4528   -0.0561 C   0  0  0  0  0  0  0  0  0  0  0  0
    3.5287   -2.7761   -0.0455 N   0  0  0  0  0  0  0  0  0  0  0  0
    4.6355   -0.8066   -0.1041 N   0  3  0  0  0  0  0  0  0  0  0  0
   -1.6025    0.9967   -0.0070 N   0  0  0  0  0  0  0  0  0  0  0  0
   -1.5800   -1.2207    0.0428 C   0  0  0  0  0  0  0  0  0  0  0  0
   -2.4069   -0.1220    0.0062 C   0  0  0  0  0  0  0  0  0  0  0  0
   -3.8705   -0.0717   -0.1266 C   0  0  0  0  0  0  0  0  0  0  0  0
   -4.6123   -0.7410    0.8700 C   0  0  0  0  0  0  0  0  0  0  0  0
   -5.9946   -0.7859    0.8239 C   0  0  0  0  0  0  0  0  0  0  0  0
   -6.6444   -0.1520   -0.2224 C   0  0  0  0  0  0  0  0  0  0  0  0
   -5.9263    0.5223   -1.2450 C   0  0  0  0  0  0  0  0  0  0  0  0
   -4.4885    0.5823   -1.2390 C   0  0  0  0  0  0  0  0  0  0  0  0
   -3.8040    1.1733   -2.1544 O   0  5  0  0  0  0  0  0  0  0  0  0
   -6.7366    1.1614   -2.3116 C   0  0  0  0  0  0  0  0  0  0  0  0
   -6.6471    0.7379   -3.6463 C   0  0  0  0  0  0  0  0  0  0  0  0
   -7.3994    1.3539   -4.6478 C   0  0  0  0  0  0  0  0  0  0  0  0
   -8.2823    2.3813   -4.3211 C   0  0  0  0  0  0  0  0  0  0  0  0
   -8.4151    2.7900   -2.9954 C   0  0  0  0  0  0  0  0  0  0  0  0
   -7.6271    2.2028   -2.0041 C   0  0  0  0  0  0  0  0  0  0  0  0
    3.0144    1.3090   -0.0648 H   0  0  0  0  0  0  0  0  0  0  0  0
    0.8734    2.4727   -0.0162 H   0  0  0  0  0  0  0  0  0  0  0  0
    0.9259   -2.5097    0.0308 H   0  0  0  0  0  0  0  0  0  0  0  0
    4.3914   -3.2973   -0.0761 H   0  0  0  0  0  0  0  0  0  0  0  0
    2.6822   -3.3275   -0.0197 H   0  0  0  0  0  0  0  0  0  0  0  0
    4.6610    0.2049   -0.1209 H   0  0  0  0  0  0  0  0  0  0  0  0
    5.5265   -1.2803   -0.1361 H   0  0  0  0  0  0  0  0  0  0  0  0
   -1.9770    1.9297   -0.1314 H   0  0  0  0  0  0  0  0  0  0  0  0
   -1.9259   -2.2425   -0.0069 H   0  0  0  0  0  0  0  0  0  0  0  0
   -4.0933   -1.2281    1.6892 H   0  0  0  0  0  0  0  0  0  0  0  0
   -6.5579   -1.3063    1.5897 H   0  0  0  0  0  0  0  0  0  0  0  0
   -7.7313   -0.1805   -0.2607 H   0  0  0  0  0  0  0  0  0  0  0  0
   -5.9432   -0.0523   -3.9006 H   0  0  0  0  0  0  0  0  0  0  0  0
   -7.2752    1.0391   -5.6789 H   0  0  0  0  0  0  0  0  0  0  0  0
   -8.8499    2.8771   -5.1017 H   0  0  0  0  0  0  0  0  0  0  0  0
   -9.1138    3.5769   -2.7310 H   0  0  0  0  0  0  0  0  0  0  0  0
   -7.6782    2.5734   -0.9834 H   0  0  0  0  0  0  0  0  0  0  0  0
  1  2  2  0  0  0  0
  1  6  1  0  0  0  0
  1  7  1  0  0  0  0
  2  3  1  0  0  0  0
  2 26  1  0  0  0  0
  3  4  2  0  0  0  0
  3 27  1  0  0  0  0
  4  5  1  0  0  0  0
  4 10  1  0  0  0  0
  5  6  2  0  0  0  0
  5 11  1  0  0  0  0
  6 28  1  0  0  0  0
  7  8  1  0  0  0  0
  7  9  2  0  0  0  0
  8 29  1  0  0  0  0
  8 30  1  0  0  0  0
  9 31  1  0  0  0  0
  9 32  1  0  0  0  0
 10 12  1  0  0  0  0
 10 33  1  0  0  0  0
 11 12  2  0  0  0  0
 11 34  1  0  0  0  0
 12 13  1  0  0  0  0
 13 14  2  0  0  0  0
 13 18  1  0  0  0  0
 14 15  1  0  0  0  0
 14 35  1  0  0  0  0
 15 16  2  0  0  0  0
 15 36  1  0  0  0  0
 16 17  1  0  0  0  0
 16 37  1  0  0  0  0
 17 18  2  0  0  0  0
 17 20  1  0  0  0  0
 18 19  1  0  0  0  0
 20 21  2  0  0  0  0
 20 25  1  0  0  0  0
 21 22  1  0  0  0  0
 21 38  1  0  0  0  0
 22 23  2  0  0  0  0
 22 39  1  0  0  0  0
 23 24  1  0  0  0  0
 23 40  1  0  0  0  0
 24 25  2  0  0  0  0
 24 41  1  0  0  0  0
 25 42  1  0  0  0  0
M  CHG  2   9   1  19  -1
M  END
>  <DRUGBANK_ID>
DB03159

>  <SECONDARY_ACCESSION_NUMBERS>
EXPT00282

>  <COMMON_NAME>
CRA_8696

$$$$
