
 OpenBabel10282417163D

 21 21  0  0  0  0  0  0  0  0999 V2000
    0.9892   -0.0329   -0.1223 C   0  0  0  0  0  0  0  0  0  0  0  0
    0.2220    0.7424    0.9795 C   0  0  0  0  0  0  0  0  0  0  0  0
   -1.2895    0.7065    1.0121 C   0  0  0  0  0  0  0  0  0  0  0  0
    2.2117   -0.0419   -0.1267 O   0  0  0  0  0  0  0  0  0  0  0  0
    0.2931   -0.6792   -1.0631 O   0  0  0  0  0  0  0  0  0  0  0  0
   -1.7834    0.0635    2.2832 C   0  0  0  0  0  0  0  0  0  0  0  0
   -2.3404    0.8257    3.3214 C   0  0  0  0  0  0  0  0  0  0  0  0
   -1.6027   -1.3142    2.4670 C   0  0  0  0  0  0  0  0  0  0  0  0
   -2.6922    0.2199    4.5331 C   0  0  0  0  0  0  0  0  0  0  0  0
   -1.9477   -1.9134    3.6753 C   0  0  0  0  0  0  0  0  0  0  0  0
   -2.4897   -1.1470    4.6983 C   0  0  0  0  0  0  0  0  0  0  0  0
   -2.8034   -1.7941    5.8564 O   0  0  0  0  0  0  0  0  0  0  0  0
    0.8654    1.3580    1.8285 O   0  0  0  0  0  0  0  0  0  0  0  0
   -1.6463    1.7401    0.9239 H   0  0  0  0  0  0  0  0  0  0  0  0
   -1.7285    0.1789    0.1663 H   0  0  0  0  0  0  0  0  0  0  0  0
   -0.6770   -0.6805   -1.0654 H   0  0  0  0  0  0  0  0  0  0  0  0
   -2.4768    1.9000    3.2074 H   0  0  0  0  0  0  0  0  0  0  0  0
   -1.1625   -1.9306    1.6876 H   0  0  0  0  0  0  0  0  0  0  0  0
   -3.0978    0.8305    5.3343 H   0  0  0  0  0  0  0  0  0  0  0  0
   -1.7752   -2.9747    3.8262 H   0  0  0  0  0  0  0  0  0  0  0  0
   -3.1750   -1.1577    6.4876 H   0  0  0  0  0  0  0  0  0  0  0  0
  2  1  1  0  0  0  0
  3  2  1  0  0  0  0
  3 14  1  0  0  0  0
  3 15  1  0  0  0  0
  4  1  2  0  0  0  0
  5  1  1  0  0  0  0
  5 16  1  0  0  0  0
  6  3  1  0  0  0  0
  7  6  2  0  0  0  0
  7 17  1  0  0  0  0
  8  6  1  0  0  0  0
  8 18  1  0  0  0  0
  9  7  1  0  0  0  0
  9 19  1  0  0  0  0
 10  8  2  0  0  0  0
 10 20  1  0  0  0  0
 11  9  2  0  0  0  0
 11 10  1  0  0  0  0
 12 11  1  0  0  0  0
 12 21  1  0  0  0  0
 13  2  2  0  0  0  0
M  END
>  <DRUGBANK_ID>
DB07718

>  <COMMON_NAME>
4-Hydroxyphenylpyruvic acid

>  <CAS_NUMBER>
156-39-8

>  <UNII>
0YP1694WNQ

>  <SYNONYMS>
(4-hydroxyphenyl)pyruvic acid; (p-hydroxyphenyl)pyruvic acid; p-Hydroxyphenylpyruvic acid

$$$$
