
 OpenBabel10282417193D

 40 40  0  0  1  0  0  0  0  0999 V2000
    1.5508    1.3495    0.4808 C   0  0  0  0  0  0  0  0  0  0  0  0
    2.1227    0.0353    0.3911 C   0  0  0  0  0  0  0  0  0  0  0  0
    1.2557   -0.6897   -0.4751 O   0  0  0  0  0  0  0  0  0  0  0  0
   -0.3302   -0.4968   -0.8151 P   0  0  1  0  0  0  0  0  0  0  0  0
   -0.8628   -1.5837   -1.6982 O   0  0  0  0  0  0  0  0  0  0  0  0
   -0.7892   -0.1358    0.6357 N   0  0  0  0  0  0  0  0  0  0  0  0
    0.1318    1.0074    0.9889 C   0  0  1  0  0  0  0  0  0  0  0  0
   -0.2456    1.0456    2.7339 S   0  0  0  0  0  0  0  0  0  0  0  0
    0.1426   -0.7157    2.9662 C   0  0  0  0  0  0  0  0  0  0  0  0
   -0.6954   -1.9683    2.4958 C   0  0  0  0  0  0  0  0  0  0  0  0
   -0.8067   -2.9201    0.9283 S   0  0  0  0  0  0  0  0  0  0  0  0
    0.4168   -2.8463    0.2478 O   0  0  0  0  0  0  0  0  0  0  0  0
   -1.3397   -4.2922    1.1876 O   0  0  0  0  0  0  0  0  0  0  0  0
   -2.1270   -2.1908    0.2132 O   0  0  0  0  0  0  0  0  0  0  0  0
   -1.1521    1.0141   -1.1121 N   0  0  0  0  0  0  0  0  0  0  0  0
   -0.0343    1.3072   -2.0525 C   0  0  0  0  0  0  0  0  0  0  0  0
    0.3252    2.6937   -2.4235 C   0  0  0  0  0  0  0  0  0  0  0  0
    0.9846    3.9140   -1.2953 Cl  0  0  0  0  0  0  0  0  0  0  0  0
   -1.9228    2.0546    0.1651 C   0  0  0  0  0  0  0  0  0  0  0  0
   -1.9880    3.5362    0.0421 C   0  0  0  0  0  0  0  0  0  0  0  0
   -3.2767    3.8546   -1.0428 Cl  0  0  0  0  0  0  0  0  0  0  0  0
    1.9342    2.2361    0.9881 H   0  0  0  0  0  0  0  0  0  0  0  0
    1.7249    1.7014   -0.5475 H   0  0  0  0  0  0  0  0  0  0  0  0
    3.1071    0.0132   -0.0527 H   0  0  0  0  0  0  0  0  0  0  0  0
    2.2055   -0.2603    1.4231 H   0  0  0  0  0  0  0  0  0  0  0  0
   -1.7988    0.0330    0.4648 H   0  0  0  0  0  0  0  0  0  0  0  0
   -0.0290    1.8866    0.3666 H   0  0  0  0  0  0  0  0  0  0  0  0
    1.2081   -0.7480    2.7923 H   0  0  0  0  0  0  0  0  0  0  0  0
    0.0875   -0.7145    4.0527 H   0  0  0  0  0  0  0  0  0  0  0  0
   -0.1676   -2.7303    3.0653 H   0  0  0  0  0  0  0  0  0  0  0  0
   -1.7276   -1.8070    2.7852 H   0  0  0  0  0  0  0  0  0  0  0  0
   -2.0291   -1.9095   -0.7455 H   0  0  0  0  0  0  0  0  0  0  0  0
    0.9513    0.8406   -1.8442 H   0  0  0  0  0  0  0  0  0  0  0  0
   -0.1677    0.5967   -2.9114 H   0  0  0  0  0  0  0  0  0  0  0  0
    1.1921    2.5598   -3.0580 H   0  0  0  0  0  0  0  0  0  0  0  0
   -0.5968    3.0509   -2.8437 H   0  0  0  0  0  0  0  0  0  0  0  0
   -2.6759    1.5462    0.8370 H   0  0  0  0  0  0  0  0  0  0  0  0
   -1.3325    2.3023    1.0751 H   0  0  0  0  0  0  0  0  0  0  0  0
   -1.9152    4.0938    1.0215 H   0  0  0  0  0  0  0  0  0  0  0  0
   -1.0503    3.7919   -0.3787 H   0  0  0  0  0  0  0  0  0  0  0  0
  1  2  1  0  0  0  0
  1  7  1  0  0  0  0
  1 22  1  0  0  0  0
  1 23  1  0  0  0  0
  2  3  1  0  0  0  0
  2 24  1  0  0  0  0
  2 25  1  0  0  0  0
  3  4  1  0  0  0  0
  4  6  1  0  0  0  0
  4 15  1  0  0  0  0
  4  5  2  6  0  0  0
  6  7  1  0  0  0  0
  6 26  1  0  0  0  0
  7  8  1  0  0  0  0
  7 27  1  6  0  0  0
  8  9  1  0  0  0  0
  9 10  1  0  0  0  0
  9 28  1  0  0  0  0
  9 29  1  0  0  0  0
 10 11  1  0  0  0  0
 10 30  1  0  0  0  0
 10 31  1  0  0  0  0
 11 12  2  0  0  0  0
 11 13  2  0  0  0  0
 11 14  1  0  0  0  0
 14 32  1  0  0  0  0
 15 16  1  0  0  0  0
 15 19  1  0  0  0  0
 16 17  1  0  0  0  0
 16 33  1  0  0  0  0
 16 34  1  0  0  0  0
 17 18  1  0  0  0  0
 17 35  1  0  0  0  0
 17 36  1  0  0  0  0
 19 20  1  0  0  0  0
 19 37  1  0  0  0  0
 19 38  1  0  0  0  0
 20 21  1  0  0  0  0
 20 39  1  0  0  0  0
 20 40  1  0  0  0  0
M  END
>  <DRUGBANK_ID>
DB12083

>  <COMMON_NAME>
Mafosfamide

>  <CAS_NUMBER>
88859-04-5

>  <UNII>
5970HH9923

>  <SYNONYMS>
Mafosfamide

$$$$
