
 OpenBabel10282417213D

 33 34  0  0  0  0  0  0  0  0999 V2000
   -0.7590   -0.9477   -0.2287 O   0  0  0  0  0  0  0  0  0  0  0  0
    1.7987    0.6983    1.3608 O   0  0  0  0  0  0  0  0  0  0  0  0
    0.0045    2.5174    0.4826 O   0  0  0  0  0  0  0  0  0  0  0  0
   -3.5323   -0.0234    0.0904 O   0  0  0  0  0  0  0  0  0  0  0  0
    2.3034   -3.2732    0.4822 O   0  0  0  0  0  0  0  0  0  0  0  0
    1.2604   -1.9497   -1.0856 N   0  0  0  0  0  0  0  0  0  0  0  0
    2.9061   -3.5900   -1.6846 N   0  0  0  0  0  0  0  0  0  0  0  0
    3.7544   -3.6463   -3.8286 N   0  0  0  0  0  0  0  0  0  0  0  0
    1.2524    0.3980    0.0604 C   0  0  2  0  0  0  0  0  0  0  0  0
    0.0083    1.2663   -0.1915 C   0  0  1  0  0  0  0  0  0  0  0  0
    0.6800   -1.0811   -0.0344 C   0  0  1  0  0  0  0  0  0  0  0  0
   -1.1345    0.3667    0.2412 C   0  0  1  0  0  0  0  0  0  0  0  0
    2.3600    0.7423   -0.9362 C   0  0  0  0  0  0  0  0  0  0  0  0
   -2.4731    0.8230   -0.3494 C   0  0  0  0  0  0  0  0  0  0  0  0
    1.2423   -1.5125   -2.3957 C   0  0  0  0  0  0  0  0  0  0  0  0
    2.1628   -2.9593   -0.7065 C   0  0  0  0  0  0  0  0  0  0  0  0
    2.2213   -1.8544   -3.2316 C   0  0  0  0  0  0  0  0  0  0  0  0
    2.9792   -3.0602   -2.8671 C   0  0  0  0  0  0  0  0  0  0  0  0
    1.1639    0.4681    2.0581 H   0  0  0  0  0  0  0  0  0  0  0  0
    0.2555    2.3718    1.4126 H   0  0  0  0  0  0  0  0  0  0  0  0
   -3.3041   -0.9265   -0.1971 H   0  0  0  0  0  0  0  0  0  0  0  0
    3.7099   -3.3452   -4.7941 H   0  0  0  0  0  0  0  0  0  0  0  0
    4.0533   -4.6018   -3.6699 H   0  0  0  0  0  0  0  0  0  0  0  0
   -0.0875    1.4731   -1.2641 H   0  0  0  0  0  0  0  0  0  0  0  0
    0.8113   -1.5586    0.9453 H   0  0  0  0  0  0  0  0  0  0  0  0
   -1.2308    0.3329    1.3350 H   0  0  0  0  0  0  0  0  0  0  0  0
    2.0178    0.6819   -1.9704 H   0  0  0  0  0  0  0  0  0  0  0  0
    2.7150    1.7683   -0.8239 H   0  0  0  0  0  0  0  0  0  0  0  0
    3.2181    0.0742   -0.8028 H   0  0  0  0  0  0  0  0  0  0  0  0
   -2.7124    1.8429   -0.0289 H   0  0  0  0  0  0  0  0  0  0  0  0
   -2.4616    0.7992   -1.4439 H   0  0  0  0  0  0  0  0  0  0  0  0
    0.5482   -0.7163   -2.6389 H   0  0  0  0  0  0  0  0  0  0  0  0
    2.4528   -1.3239   -4.1434 H   0  0  0  0  0  0  0  0  0  0  0  0
  1 11  1  0  0  0  0
  1 12  1  0  0  0  0
  2 19  1  0  0  0  0
  3 20  1  0  0  0  0
  4 14  1  0  0  0  0
  4 21  1  0  0  0  0
  5 16  2  0  0  0  0
  6 15  1  0  0  0  0
  6 16  1  0  0  0  0
  7 16  1  0  0  0  0
  7 18  2  0  0  0  0
  8 18  1  0  0  0  0
  8 22  1  0  0  0  0
  8 23  1  0  0  0  0
  9  2  1  1  0  0  0
  9 10  1  0  0  0  0
  9 11  1  0  0  0  0
  9 13  1  0  0  0  0
 10  3  1  0  0  0  0
 10 12  1  0  0  0  0
 10 24  1  6  0  0  0
 11 25  1  1  0  0  0
 11  6  1  0  0  0  0
 12 14  1  0  0  0  0
 12 26  1  1  0  0  0
 13 27  1  0  0  0  0
 13 28  1  0  0  0  0
 13 29  1  0  0  0  0
 14 30  1  0  0  0  0
 14 31  1  0  0  0  0
 15 17  2  0  0  0  0
 15 32  1  0  0  0  0
 17 18  1  0  0  0  0
 17 33  1  0  0  0  0
M  END
>  <DRUGBANK_ID>
DB13921

>  <COMMON_NAME>
2'-C-methylcytidine

>  <CAS_NUMBER>
20724-73-6

>  <UNII>
27FS20C1D8

>  <SYNONYMS>
2'-C-Mecytosin; 2'C-Me-C

$$$$
