
 OpenBabel10282417153D

 59 61  0  0  0  0  0  0  0  0999 V2000
    1.4185   -0.7270    0.1947 C   0  0  0  0  0  0  0  0  0  0  0  0
    0.5094   -1.7806    0.0307 C   0  0  0  0  0  0  0  0  0  0  0  0
   -0.9110   -1.5376    0.0884 C   0  0  0  0  0  0  0  0  0  0  0  0
   -1.4768   -0.3269    0.4476 C   0  0  0  0  0  0  0  0  0  0  0  0
   -0.5335    0.5981    0.8873 C   0  0  0  0  0  0  0  0  0  0  0  0
    0.8577    0.4276    0.6381 C   0  0  0  0  0  0  0  0  0  0  0  0
    2.7548   -0.5268   -0.0394 O   0  0  0  0  0  0  0  0  0  0  0  0
    3.6757   -1.3957    0.5802 C   0  0  0  0  0  0  0  0  0  0  0  0
    0.7176   -3.1064   -0.1912 O   0  0  0  0  0  0  0  0  0  0  0  0
    2.0457   -3.4886   -0.3993 C   0  0  0  0  0  0  0  0  0  0  0  0
   -2.9730    0.0007    0.2646 C   0  0  0  0  0  0  0  0  0  0  0  0
   -3.5797    1.1530    1.2318 C   0  0  0  0  0  0  0  0  0  0  0  0
   -3.3684    2.5611    0.8801 N   0  0  0  0  0  0  0  0  0  0  0  0
   -2.9533    3.7847    1.6351 C   0  0  0  0  0  0  0  0  0  0  0  0
   -3.1499    5.0296    0.5970 C   0  0  0  0  0  0  0  0  0  0  0  0
   -2.6080    4.9596   -0.8099 N   0  0  0  0  0  0  0  0  0  0  0  0
   -3.0504    3.6913   -1.4031 C   0  0  0  0  0  0  0  0  0  0  0  0
   -2.7406    2.6471   -0.3954 C   0  0  0  0  0  0  0  0  0  0  0  0
   -1.1421    5.1849   -0.9478 C   0  0  0  0  0  0  0  0  0  0  0  0
   -0.0768    4.3822   -0.1949 C   0  0  0  0  0  0  0  0  0  0  0  0
    0.1572    2.9530   -0.6396 C   0  0  0  0  0  0  0  0  0  0  0  0
    0.4823    2.4520   -2.0015 C   0  0  0  0  0  0  0  0  0  0  0  0
    1.0155    3.3537   -2.8244 C   0  0  0  0  0  0  0  0  0  0  0  0
    1.3845    2.9556   -4.1047 C   0  0  0  0  0  0  0  0  0  0  0  0
    1.2889    1.6025   -4.4487 C   0  0  0  0  0  0  0  0  0  0  0  0
    0.7134    0.6696   -3.6280 C   0  0  0  0  0  0  0  0  0  0  0  0
    0.1863    1.1178   -2.4175 C   0  0  0  0  0  0  0  0  0  0  0  0
   -1.5692   -2.3734   -0.1489 H   0  0  0  0  0  0  0  0  0  0  0  0
   -0.8627    1.5491    1.2753 H   0  0  0  0  0  0  0  0  0  0  0  0
    1.5794    1.2480    0.6769 H   0  0  0  0  0  0  0  0  0  0  0  0
    3.2584   -1.8072    1.5033 H   0  0  0  0  0  0  0  0  0  0  0  0
    3.9470   -2.1183   -0.1854 H   0  0  0  0  0  0  0  0  0  0  0  0
    4.6412   -0.9455    0.8308 H   0  0  0  0  0  0  0  0  0  0  0  0
    2.4491   -2.9177   -1.2417 H   0  0  0  0  0  0  0  0  0  0  0  0
    2.5842   -3.4092    0.5439 H   0  0  0  0  0  0  0  0  0  0  0  0
    2.1071   -4.5434   -0.6452 H   0  0  0  0  0  0  0  0  0  0  0  0
   -3.1870    0.2359   -0.8005 H   0  0  0  0  0  0  0  0  0  0  0  0
   -3.5772   -0.9122    0.3294 H   0  0  0  0  0  0  0  0  0  0  0  0
   -4.6681    1.1006    1.0940 H   0  0  0  0  0  0  0  0  0  0  0  0
   -3.3701    0.8549    2.2625 H   0  0  0  0  0  0  0  0  0  0  0  0
   -3.5172    3.9783    2.5540 H   0  0  0  0  0  0  0  0  0  0  0  0
   -1.8954    3.8087    1.9603 H   0  0  0  0  0  0  0  0  0  0  0  0
   -4.2382    5.0844    0.4599 H   0  0  0  0  0  0  0  0  0  0  0  0
   -2.8329    5.9818    1.0267 H   0  0  0  0  0  0  0  0  0  0  0  0
   -4.1144    3.6288   -1.6468 H   0  0  0  0  0  0  0  0  0  0  0  0
   -2.4945    3.4298   -2.3163 H   0  0  0  0  0  0  0  0  0  0  0  0
   -1.8577    3.0167    0.0445 H   0  0  0  0  0  0  0  0  0  0  0  0
   -2.4253    1.7777   -0.9413 H   0  0  0  0  0  0  0  0  0  0  0  0
   -0.9006    5.1144   -2.0132 H   0  0  0  0  0  0  0  0  0  0  0  0
   -0.9503    6.2258   -0.6775 H   0  0  0  0  0  0  0  0  0  0  0  0
    0.9084    4.8673   -0.2289 H   0  0  0  0  0  0  0  0  0  0  0  0
   -0.2988    4.3818    0.8810 H   0  0  0  0  0  0  0  0  0  0  0  0
    0.7982    2.6629    0.1600 H   0  0  0  0  0  0  0  0  0  0  0  0
   -0.6549    2.2947   -0.5790 H   0  0  0  0  0  0  0  0  0  0  0  0
    1.1392    4.3804   -2.5062 H   0  0  0  0  0  0  0  0  0  0  0  0
    1.7740    3.7118   -4.7420 H   0  0  0  0  0  0  0  0  0  0  0  0
    1.6964    1.2922   -5.4110 H   0  0  0  0  0  0  0  0  0  0  0  0
    0.6654   -0.3910   -3.8692 H   0  0  0  0  0  0  0  0  0  0  0  0
   -0.4080    0.4075   -1.8646 H   0  0  0  0  0  0  0  0  0  0  0  0
  1  2  2  0  0  0  0
  1  7  1  0  0  0  0
  2  9  1  0  0  0  0
  2  3  1  0  0  0  0
  3  4  2  0  0  0  0
  3 28  1  0  0  0  0
  4  5  1  0  0  0  0
  4 11  1  0  0  0  0
  5  6  2  0  0  0  0
  5 29  1  0  0  0  0
  6  1  1  0  0  0  0
  6 30  1  0  0  0  0
  7  8  1  0  0  0  0
  8 31  1  0  0  0  0
  8 32  1  0  0  0  0
  8 33  1  0  0  0  0
  9 10  1  0  0  0  0
 10 34  1  0  0  0  0
 10 35  1  0  0  0  0
 10 36  1  0  0  0  0
 11 12  1  0  0  0  0
 11 37  1  0  0  0  0
 11 38  1  0  0  0  0
 12 13  1  0  0  0  0
 12 39  1  0  0  0  0
 12 40  1  0  0  0  0
 13 14  1  0  0  0  0
 13 18  1  0  0  0  0
 14 15  1  0  0  0  0
 14 41  1  0  0  0  0
 14 42  1  0  0  0  0
 15 16  1  0  0  0  0
 15 43  1  0  0  0  0
 15 44  1  0  0  0  0
 16 17  1  0  0  0  0
 16 19  1  0  0  0  0
 17 18  1  0  0  0  0
 17 45  1  0  0  0  0
 17 46  1  0  0  0  0
 18 47  1  0  0  0  0
 18 48  1  0  0  0  0
 19 20  1  0  0  0  0
 19 49  1  0  0  0  0
 19 50  1  0  0  0  0
 20 21  1  0  0  0  0
 20 51  1  0  0  0  0
 20 52  1  0  0  0  0
 21 22  1  0  0  0  0
 21 53  1  0  0  0  0
 21 54  1  0  0  0  0
 22 23  2  0  0  0  0
 23 24  1  0  0  0  0
 23 55  1  0  0  0  0
 24 25  2  0  0  0  0
 24 56  1  0  0  0  0
 25 26  1  0  0  0  0
 25 57  1  0  0  0  0
 26 27  2  0  0  0  0
 26 58  1  0  0  0  0
 27 22  1  0  0  0  0
 27 59  1  0  0  0  0
M  END
>  <DRUGBANK_ID>
DB06618

>  <COMMON_NAME>
Cutamesine

>  <CAS_NUMBER>
165377-43-5

>  <UNII>
9J7A4144BX

>  <SYNONYMS>
Cutamesine

$$$$
