
 OpenBabel10282417143D

 20 20  0  0  0  0  0  0  0  0999 V2000
    1.1477    0.0347   -0.0055 N   0  0  0  0  0  0  0  0  0  0  0  0
    0.6262   -1.1505   -0.7463 C   0  0  0  0  0  0  0  0  0  0  0  0
   -0.8618   -1.4062   -0.4476 C   0  0  0  0  0  0  0  0  0  0  0  0
   -1.0441   -2.9307   -0.4037 C   0  0  0  0  0  0  0  0  0  0  0  0
    0.3254   -3.5419   -0.6679 C   0  0  0  0  0  0  0  0  0  0  0  0
    1.3139   -2.4441   -0.2904 C   0  0  0  0  0  0  0  0  0  0  0  0
    0.8467   -0.9119   -2.2700 C   0  0  0  0  0  0  0  0  0  0  0  0
    1.4312    0.2844   -2.5422 O   0  0  0  0  0  0  0  0  0  0  0  0
    0.5438   -1.7006   -3.1563 O   0  0  0  0  0  0  0  0  0  0  0  0
    0.8066   -0.0274    0.9602 H   0  0  0  0  0  0  0  0  0  0  0  0
    2.1628   -0.0608    0.0944 H   0  0  0  0  0  0  0  0  0  0  0  0
   -1.1606   -0.9984    0.5267 H   0  0  0  0  0  0  0  0  0  0  0  0
   -1.5227   -0.9581   -1.1973 H   0  0  0  0  0  0  0  0  0  0  0  0
   -1.4109   -3.2373    0.5838 H   0  0  0  0  0  0  0  0  0  0  0  0
   -1.7797   -3.2719   -1.1395 H   0  0  0  0  0  0  0  0  0  0  0  0
    0.4844   -4.4619   -0.0964 H   0  0  0  0  0  0  0  0  0  0  0  0
    0.4198   -3.8021   -1.7279 H   0  0  0  0  0  0  0  0  0  0  0  0
    2.2890   -2.6041   -0.7615 H   0  0  0  0  0  0  0  0  0  0  0  0
    1.4570   -2.4543    0.7982 H   0  0  0  0  0  0  0  0  0  0  0  0
    1.5081    0.7842   -1.6968 H   0  0  0  0  0  0  0  0  0  0  0  0
  1  2  1  0  0  0  0
  1 10  1  0  0  0  0
  1 11  1  0  0  0  0
  2  3  1  0  0  0  0
  2  6  1  0  0  0  0
  2  7  1  0  0  0  0
  3  4  1  0  0  0  0
  3 12  1  0  0  0  0
  3 13  1  0  0  0  0
  4  5  1  0  0  0  0
  4 14  1  0  0  0  0
  4 15  1  0  0  0  0
  5  6  1  0  0  0  0
  5 16  1  0  0  0  0
  5 17  1  0  0  0  0
  6 18  1  0  0  0  0
  6 19  1  0  0  0  0
  7  8  1  0  0  0  0
  7  9  2  0  0  0  0
  8 20  1  0  0  0  0
M  END
>  <DRUGBANK_ID>
DB04620

>  <COMMON_NAME>
Cycloleucine

>  <CAS_NUMBER>
52-52-8

>  <UNII>
0TQU7668EI

>  <SYNONYMS>
1-amino-1-cyclopentanecarboxylic acid; 1-aminocyclopentane-1-carboxylic acid; 1-aminocyclopentanecarboxylic acid; Cyclo-leucine; Cycloleucin

$$$$
