
 OpenBabel10282417123D

 31 30  0  0  1  0  0  0  0  0999 V2000
    5.4973   -2.9272    3.0998 O   0  0  0  0  0  0  0  0  0  0  0  0
    4.3498   -2.2350    3.4583 C   0  0  0  0  0  0  0  0  0  0  0  0
    3.6466   -1.5232    2.2846 C   0  0  1  0  0  0  0  0  0  0  0  0
    2.7262   -2.3615    1.3310 C   0  0  2  0  0  0  0  0  0  0  0  0
    1.0983   -2.4321    1.5406 C   0  0  1  0  0  0  0  0  0  0  0  0
    0.3743   -2.2019    2.9420 C   0  0  1  0  0  0  0  0  0  0  0  0
    0.4964   -0.9105    3.8060 C   0  0  0  0  0  0  0  0  0  0  0  0
    0.6073    0.2736    3.0466 O   0  0  0  0  0  0  0  0  0  0  0  0
    2.7884   -0.7728    3.0336 O   0  0  0  0  0  0  0  0  0  0  0  0
    3.2144   -3.7082    1.3944 O   0  0  0  0  0  0  0  0  0  0  0  0
    0.3473   -1.6707    0.5541 O   0  0  0  0  0  0  0  0  0  0  0  0
   -1.0456   -2.2619    2.6251 O   0  0  0  0  0  0  0  0  0  0  0  0
    1.1840    0.3679    1.4183 P   0  0  0  0  0  0  0  0  0  0  0  0
   -0.0988    1.2871    0.9786 O   0  0  0  0  0  0  0  0  0  0  0  0
    2.2127    1.4355    1.8047 O   0  0  0  0  0  0  0  0  0  0  0  0
    1.7607    0.4623   -0.2101 O   0  0  0  0  0  0  0  0  0  0  0  0
    5.2764   -3.3508    2.2457 H   0  0  0  0  0  0  0  0  0  0  0  0
    3.6384   -2.9326    3.9353 H   0  0  0  0  0  0  0  0  0  0  0  0
    4.5567   -1.5043    4.2667 H   0  0  0  0  0  0  0  0  0  0  0  0
    4.2956   -0.8059    1.7555 H   0  0  0  0  0  0  0  0  0  0  0  0
    2.9219   -2.0075    0.3056 H   0  0  0  0  0  0  0  0  0  0  0  0
    0.8254   -3.4462    1.2249 H   0  0  0  0  0  0  0  0  0  0  0  0
    0.6095   -3.0683    3.5695 H   0  0  0  0  0  0  0  0  0  0  0  0
   -0.3520   -0.8095    4.4935 H   0  0  0  0  0  0  0  0  0  0  0  0
    1.2880   -0.9082    4.5737 H   0  0  0  0  0  0  0  0  0  0  0  0
    2.4388   -1.5014    3.6075 H   0  0  0  0  0  0  0  0  0  0  0  0
    2.8426   -4.1116    2.1963 H   0  0  0  0  0  0  0  0  0  0  0  0
   -0.5741   -1.6243    0.8919 H   0  0  0  0  0  0  0  0  0  0  0  0
   -1.4347   -1.3781    2.7858 H   0  0  0  0  0  0  0  0  0  0  0  0
   -0.9108    0.8308    0.7215 H   0  0  0  0  0  0  0  0  0  0  0  0
    1.0729    0.9046   -0.7332 H   0  0  0  0  0  0  0  0  0  0  0  0
  1  2  1  0  0  0  0
  1 17  1  0  0  0  0
  2  3  1  0  0  0  0
  2 18  1  0  0  0  0
  2 19  1  0  0  0  0
  3  9  1  0  0  0  0
  3 20  1  6  0  0  0
  4 10  1  0  0  0  0
  4 21  1  6  0  0  0
  4  5  1  0  0  0  0
  4  3  1  0  0  0  0
  5  6  1  0  0  0  0
  5 11  1  0  0  0  0
  5 22  1  6  0  0  0
  6  7  1  0  0  0  0
  6 12  1  0  0  0  0
  6 23  1  1  0  0  0
  7  8  1  0  0  0  0
  7 24  1  0  0  0  0
  7 25  1  0  0  0  0
  8 13  1  0  0  0  0
  9 26  1  0  0  0  0
 10 27  1  0  0  0  0
 11 28  1  0  0  0  0
 12 29  1  0  0  0  0
 13 14  1  0  0  0  0
 13 15  2  0  0  0  0
 13 16  1  0  0  0  0
 14 30  1  0  0  0  0
 16 31  1  0  0  0  0
M  END
>  <DRUGBANK_ID>
DB02548

>  <SECONDARY_ACCESSION_NUMBERS>
EXPT02834

>  <COMMON_NAME>
D-glucitol 6-phosphate

>  <CAS_NUMBER>
20479-58-7

>  <SYNONYMS>
D-Glucitol, 6-(dihydrogen phosphate); D-Sorbitol 6-phosphate; D-sorbitol-6-phosphate; Sorbitol 6-phosphate; Sorbitol-6-phosphate

$$$$
