
 OpenBabel10282417133D

 47 49  0  0  0  0  0  0  0  0999 V2000
    1.0334    0.0985    0.0044 N   0  0  0  0  0  0  0  0  0  0  0  0
    0.3575   -0.2843    1.1475 C   0  0  0  0  0  0  0  0  0  0  0  0
    0.7776    0.2016    2.3379 N   0  0  0  0  0  0  0  0  0  0  0  0
    0.0427   -0.0686    3.4382 C   0  0  0  0  0  0  0  0  0  0  0  0
   -1.0535   -0.8508    3.5453 N   0  0  0  0  0  0  0  0  0  0  0  0
   -1.3850   -1.3627    2.3450 C   0  0  0  0  0  0  0  0  0  0  0  0
   -0.7663   -1.1252    1.1281 C   0  0  0  0  0  0  0  0  0  0  0  0
   -1.3964   -1.8133    0.1074 N   0  0  0  0  0  0  0  0  0  0  0  0
   -2.3690   -2.4707    0.6982 C   0  0  0  0  0  0  0  0  0  0  0  0
   -2.3897   -2.2390    2.0441 N   0  0  0  0  0  0  0  0  0  0  0  0
   -3.3600   -2.7887    2.9460 C   0  0  2  0  0  0  0  0  0  0  0  0
   -4.1276   -1.7035    3.4452 O   0  0  0  0  0  0  0  0  0  0  0  0
   -4.4000   -1.9458    4.8234 C   0  0  1  0  0  0  0  0  0  0  0  0
   -3.8072   -3.3136    5.2073 C   0  0  1  0  0  0  0  0  0  0  0  0
   -4.7892   -4.3620    5.1456 O   0  0  0  0  0  0  0  0  0  0  0  0
   -2.7780   -3.5690    4.1192 C   0  0  1  0  0  0  0  0  0  0  0  0
   -2.6342   -4.9547    3.8002 O   0  0  0  0  0  0  0  0  0  0  0  0
   -4.7064   -0.3261    6.6395 O   0  0  0  0  0  0  0  0  0  0  0  0
   -6.4022   -2.3265    6.8388 O   0  0  0  0  0  0  0  0  0  0  0  0
   -6.1784   -0.8420    6.9514 P   0  0  3  0  0  0  0  0  0  0  0  0
   -7.1971    0.0194    6.0911 O   0  0  0  0  0  0  0  0  0  0  0  0
   -6.3489   -0.2824    8.4250 O   0  0  0  0  0  0  0  0  0  0  0  0
   -4.4860    0.9012    9.2857 O   0  0  0  0  0  0  0  0  0  0  0  0
   -4.8793   -0.5727    9.2904 P   0  0  3  0  0  0  0  0  0  0  0  0
   -3.4097   -0.8629   10.1558 O   0  0  0  0  0  0  0  0  0  0  0  0
   -7.4040   -2.0928    9.3738 O   0  0  0  0  0  0  0  0  0  0  0  0
   -7.4806   -0.8222   10.3636 P   0  0  0  0  0  0  0  0  0  0  0  0
   -9.1701   -0.6793   10.0200 O   0  0  0  0  0  0  0  0  0  0  0  0
   -3.8519   -0.7665    5.6131 C   0  0  0  0  0  0  0  0  0  0  0  0
   -5.7911   -0.9650   10.7073 O   0  0  0  0  0  0  0  0  0  0  0  0
   -7.6071    1.1667   10.3109 S   0  0  0  0  0  0  0  0  0  0  0  0
    0.6202   -0.1612   -0.8812 H   0  0  0  0  0  0  0  0  0  0  0  0
    2.0364    0.1745    0.0908 H   0  0  0  0  0  0  0  0  0  0  0  0
    0.3786    0.4134    4.3527 H   0  0  0  0  0  0  0  0  0  0  0  0
   -3.0865   -3.1199    0.2117 H   0  0  0  0  0  0  0  0  0  0  0  0
   -4.0531   -3.4159    2.3736 H   0  0  0  0  0  0  0  0  0  0  0  0
   -5.4832   -1.9750    4.8496 H   0  0  0  0  0  0  0  0  0  0  0  0
   -3.3776   -3.3446    6.2160 H   0  0  0  0  0  0  0  0  0  0  0  0
   -5.4202   -4.1785    4.4287 H   0  0  0  0  0  0  0  0  0  0  0  0
   -1.8029   -3.1915    4.4375 H   0  0  0  0  0  0  0  0  0  0  0  0
   -3.5238   -5.3586    3.8458 H   0  0  0  0  0  0  0  0  0  0  0  0
   -8.1108   -0.2725    6.2868 H   0  0  0  0  0  0  0  0  0  0  0  0
   -2.6926   -0.4208    9.6624 H   0  0  0  0  0  0  0  0  0  0  0  0
   -7.2183   -2.9196    9.8643 H   0  0  0  0  0  0  0  0  0  0  0  0
   -9.7060   -1.2583   10.5865 H   0  0  0  0  0  0  0  0  0  0  0  0
   -2.8786   -1.0031    6.0653 H   0  0  0  0  0  0  0  0  0  0  0  0
   -3.6766    0.1067    4.9780 H   0  0  0  0  0  0  0  0  0  0  0  0
  1  2  1  0  0  0  0
  1 32  1  0  0  0  0
  1 33  1  0  0  0  0
  2  3  2  0  0  0  0
  2  7  1  0  0  0  0
  3  4  1  0  0  0  0
  4  5  2  0  0  0  0
  4 34  1  0  0  0  0
  5  6  1  0  0  0  0
  6  7  2  0  0  0  0
  6 10  1  0  0  0  0
  7  8  1  0  0  0  0
  8  9  2  0  0  0  0
  9 10  1  0  0  0  0
  9 35  1  0  0  0  0
 11 10  1  0  0  0  0
 11 12  1  0  0  0  0
 11 16  1  0  0  0  0
 11 36  1  6  0  0  0
 12 13  1  0  0  0  0
 13 14  1  0  0  0  0
 13 37  1  1  0  0  0
 13 29  1  0  0  0  0
 14 15  1  0  0  0  0
 14 16  1  0  0  0  0
 14 38  1  1  0  0  0
 15 39  1  0  0  0  0
 16 17  1  0  0  0  0
 16 40  1  1  0  0  0
 17 41  1  0  0  0  0
 18 20  1  0  0  0  0
 20 19  2  0  0  0  0
 20 22  1  0  0  0  0
 20 21  1  0  0  0  0
 21 42  1  0  0  0  0
 22 24  1  0  0  0  0
 24 23  2  0  0  0  0
 24 30  1  0  0  0  0
 24 25  1  0  0  0  0
 25 43  1  0  0  0  0
 26 44  1  0  0  0  0
 27 31  2  0  0  0  0
 27 26  1  0  0  0  0
 27 28  1  0  0  0  0
 28 45  1  0  0  0  0
 29 18  1  0  0  0  0
 29 46  1  0  0  0  0
 29 47  1  0  0  0  0
 30 27  1  0  0  0  0
M  END
>  <DRUGBANK_ID>
DB02930

>  <SECONDARY_ACCESSION_NUMBERS>
EXPT02847; EXPT00458; DB01660

>  <COMMON_NAME>
Adenosine 5'-[gamma-thio]triphosphate

>  <CAS_NUMBER>
35094-46-3

>  <SYNONYMS>
(gamma-S)ATP; Adenosine 5-O-(3-thiotriphophate); Adenosine 5'-(3-thio)triphosphate; Adenosine 5'-(gamma-thio)triphosphate; adenosine 5'-[gamma-thio]triphosphate; Adenosine 5'-[Î³-thio]triphosphate; Adenosine 5'-O-(3-thiotriphosphate); ATP-gamma-S; ATP-gammaS; gamma-Thio-ATP

$$$$
