
 OpenBabel10282417203D

 48 49  0  0  0  0  0  0  0  0999 V2000
    0.9501    0.3744    0.4390 C   0  0  0  0  0  0  0  0  0  0  0  0
    0.4416   -1.0420    0.5031 C   0  0  0  0  0  0  0  0  0  0  0  0
    1.0979   -1.9608    1.3477 O   0  0  0  0  0  0  0  0  0  0  0  0
    2.4801   -2.1435    1.0102 C   0  0  0  0  0  0  0  0  0  0  0  0
    2.8469   -2.7479   -0.3997 C   0  0  0  0  0  0  0  0  0  0  0  0
    2.4215   -2.0036   -1.6448 N   0  0  0  0  0  0  0  0  0  0  0  0
    3.4555   -1.2723   -2.3932 C   0  0  0  0  0  0  0  0  0  0  0  0
    3.4768   -1.7517   -3.8226 C   0  0  0  0  0  0  0  0  0  0  0  0
    3.7545   -3.1022   -4.0365 C   0  0  0  0  0  0  0  0  0  0  0  0
    3.5514   -3.6727   -5.2823 C   0  0  0  0  0  0  0  0  0  0  0  0
    3.0259   -2.9209   -6.3328 C   0  0  0  0  0  0  0  0  0  0  0  0
    2.7270   -1.5758   -6.1224 C   0  0  0  0  0  0  0  0  0  0  0  0
    3.0319   -0.9728   -4.8984 C   0  0  0  0  0  0  0  0  0  0  0  0
    2.7729   -3.4011   -7.5983 O   0  0  0  0  0  0  0  0  0  0  0  0
    3.2092   -4.6658   -7.9095 C   0  0  0  0  0  0  0  0  0  0  0  0
    2.6091   -5.7918   -7.3359 C   0  0  0  0  0  0  0  0  0  0  0  0
    3.0547   -7.0672   -7.6757 C   0  0  0  0  0  0  0  0  0  0  0  0
    4.0503   -7.2098   -8.6477 C   0  0  0  0  0  0  0  0  0  0  0  0
    4.5996   -6.0830   -9.2831 C   0  0  0  0  0  0  0  0  0  0  0  0
    4.2066   -4.8052   -8.8749 C   0  0  0  0  0  0  0  0  0  0  0  0
    4.5674   -8.5437   -8.9778 N   0  3  0  0  0  0  0  0  0  0  0  0
    5.4423   -8.6344   -9.8343 O   0  0  0  0  0  0  0  0  0  0  0  0
    4.0952   -9.5117   -8.3403 O   0  5  0  0  0  0  0  0  0  0  0  0
    1.1101   -2.1890   -2.1638 C   0  0  0  0  0  0  0  0  0  0  0  0
    0.4315   -3.1460   -1.7467 O   0  0  0  0  0  0  0  0  0  0  0  0
    0.3530   -1.1215   -3.0146 C   0  0  0  0  0  0  0  0  0  0  0  0
    0.9283    0.5499   -3.0308 Cl  0  0  0  0  0  0  0  0  0  0  0  0
   -0.0681   -1.7755   -4.5971 Cl  0  0  0  0  0  0  0  0  0  0  0  0
    0.7543    0.9220    1.3523 H   0  0  0  0  0  0  0  0  0  0  0  0
    0.4680    0.8796   -0.4017 H   0  0  0  0  0  0  0  0  0  0  0  0
    2.0254    0.3960    0.2212 H   0  0  0  0  0  0  0  0  0  0  0  0
   -0.6413   -1.1915    0.4425 H   0  0  0  0  0  0  0  0  0  0  0  0
    0.7265   -1.3432   -0.4474 H   0  0  0  0  0  0  0  0  0  0  0  0
    2.9956   -1.1937    1.1692 H   0  0  0  0  0  0  0  0  0  0  0  0
    2.8758   -2.8171    1.7832 H   0  0  0  0  0  0  0  0  0  0  0  0
    3.9433   -2.8176   -0.4100 H   0  0  0  0  0  0  0  0  0  0  0  0
    2.4665   -3.7734   -0.4585 H   0  0  0  0  0  0  0  0  0  0  0  0
    3.3012   -0.1991   -2.2837 H   0  0  0  0  0  0  0  0  0  0  0  0
    4.4412   -1.4779   -1.9585 H   0  0  0  0  0  0  0  0  0  0  0  0
    4.0664   -3.7381   -3.2113 H   0  0  0  0  0  0  0  0  0  0  0  0
    3.7669   -4.7287   -5.3729 H   0  0  0  0  0  0  0  0  0  0  0  0
    2.1733   -1.0124   -6.8734 H   0  0  0  0  0  0  0  0  0  0  0  0
    2.7901    0.0793   -4.7758 H   0  0  0  0  0  0  0  0  0  0  0  0
    1.8324   -5.6688   -6.5843 H   0  0  0  0  0  0  0  0  0  0  0  0
    2.6155   -7.9294   -7.1772 H   0  0  0  0  0  0  0  0  0  0  0  0
    5.3272   -6.1848  -10.0843 H   0  0  0  0  0  0  0  0  0  0  0  0
    4.6819   -3.9255   -9.3032 H   0  0  0  0  0  0  0  0  0  0  0  0
   -0.6169   -0.9889   -2.5294 H   0  0  0  0  0  0  0  0  0  0  0  0
  1  2  1  0  0  0  0
  1 29  1  0  0  0  0
  1 30  1  0  0  0  0
  1 31  1  0  0  0  0
  2  3  1  0  0  0  0
  2 32  1  0  0  0  0
  2 33  1  0  0  0  0
  3  4  1  0  0  0  0
  4  5  1  0  0  0  0
  4 34  1  0  0  0  0
  4 35  1  0  0  0  0
  5  6  1  0  0  0  0
  5 36  1  0  0  0  0
  5 37  1  0  0  0  0
  6  7  1  0  0  0  0
  6 24  1  0  0  0  0
  7  8  1  0  0  0  0
  7 38  1  0  0  0  0
  7 39  1  0  0  0  0
  8  9  2  0  0  0  0
  8 13  1  0  0  0  0
  9 10  1  0  0  0  0
  9 40  1  0  0  0  0
 10 11  2  0  0  0  0
 10 41  1  0  0  0  0
 11 12  1  0  0  0  0
 11 14  1  0  0  0  0
 12 13  2  0  0  0  0
 12 42  1  0  0  0  0
 13 43  1  0  0  0  0
 14 15  1  0  0  0  0
 15 16  2  0  0  0  0
 15 20  1  0  0  0  0
 16 17  1  0  0  0  0
 16 44  1  0  0  0  0
 17 18  2  0  0  0  0
 17 45  1  0  0  0  0
 18 19  1  0  0  0  0
 18 21  1  0  0  0  0
 19 20  2  0  0  0  0
 19 46  1  0  0  0  0
 20 47  1  0  0  0  0
 21 22  2  0  0  0  0
 21 23  1  0  0  0  0
 24 25  2  0  0  0  0
 24 26  1  0  0  0  0
 26 27  1  0  0  0  0
 26 28  1  0  0  0  0
 26 48  1  0  0  0  0
M  CHG  2  21   1  23  -1
M  END
>  <DRUGBANK_ID>
DB13258

>  <COMMON_NAME>
Etofamide

>  <CAS_NUMBER>
25287-60-9

>  <UNII>
03F36JH21U

>  <SYNONYMS>
Etofamide

$$$$
