
 OpenBabel10282417233D

 62 65  0  0  0  0  0  0  0  0999 V2000
    1.4640   -0.1185    0.0397 C   0  0  0  0  0  0  0  0  0  0  0  0
    2.7385   -0.6444    0.1527 O   0  0  0  0  0  0  0  0  0  0  0  0
    3.1752   -2.0141    0.3201 C   0  0  0  0  0  0  0  0  0  0  0  0
    2.3170   -3.1770    0.3189 N   0  0  0  0  0  0  0  0  0  0  0  0
    2.9669   -4.4481    0.4008 C   0  0  0  0  0  0  0  0  0  0  0  0
   -1.2888    0.4180   -0.0075 C   0  0  0  0  0  0  0  0  0  0  0  0
   -0.2357    1.3891    0.0476 C   0  0  0  0  0  0  0  0  0  0  0  0
    1.1208    1.1581   -0.0626 C   0  0  0  0  0  0  0  0  0  0  0  0
    0.4635   -0.9777   -0.2385 C   0  0  0  0  0  0  0  0  0  0  0  0
   -0.9008   -0.8602   -0.1363 C   0  0  0  0  0  0  0  0  0  0  0  0
   -0.7962    4.7964    3.3395 N   0  0  0  0  0  0  0  0  0  0  0  0
   -0.3292    5.6083    2.2333 C   0  0  0  0  0  0  0  0  0  0  0  0
   -0.5861    5.0879    0.8102 C   0  0  0  0  0  0  0  0  0  0  0  0
    0.1967    3.8089    0.5692 C   0  0  0  0  0  0  0  0  0  0  0  0
   -0.5914    2.6382    0.4296 N   0  0  0  0  0  0  0  0  0  0  0  0
   -1.9524    4.6154    0.4436 C   0  0  0  0  0  0  0  0  0  0  0  0
   -1.9002    4.3275   -1.1776 C   0  0  0  0  0  0  0  0  0  0  0  0
   -1.7094    5.5802   -1.8746 N   0  0  0  0  0  0  0  0  0  0  0  0
   -0.4764    6.2827   -1.5503 C   0  0  0  0  0  0  0  0  0  0  0  0
   -0.4173    6.4030   -0.0311 C   0  0  0  0  0  0  0  0  0  0  0  0
   -4.9004    6.5308   -3.5094 C   0  0  0  0  0  0  0  0  0  0  0  0
   -6.1940    6.4955   -3.0415 N   0  0  0  0  0  0  0  0  0  0  0  0
   -6.2380    6.0185   -1.7715 C   0  0  0  0  0  0  0  0  0  0  0  0
   -4.9502    5.7540   -1.4241 C   0  0  0  0  0  0  0  0  0  0  0  0
   -4.0621    6.0511   -2.5215 C   0  0  0  0  0  0  0  0  0  0  0  0
   -2.2511    6.5157   -3.9838 N   0  0  0  0  0  0  0  0  0  0  0  0
   -3.1931    6.9169   -4.8691 C   0  0  0  0  0  0  0  0  0  0  0  0
   -4.5326    6.9688   -4.7191 N   0  0  0  0  0  0  0  0  0  0  0  0
   -2.6512    6.0398   -2.7746 C   0  0  0  0  0  0  0  0  0  0  0  0
    1.4449    3.8730    0.4741 O   0  0  0  0  0  0  0  0  0  0  0  0
    4.3996   -2.1466    0.4379 O   0  0  0  0  0  0  0  0  0  0  0  0
    0.8606   -3.4250    0.2538 C   0  0  0  0  0  0  0  0  0  0  0  0
   -4.5629    5.3418   -0.1029 C   0  0  0  0  0  0  0  0  0  0  0  0
    2.5342   -4.9509    1.2720 H   0  0  0  0  0  0  0  0  0  0  0  0
    2.6899   -4.9963   -0.5061 H   0  0  0  0  0  0  0  0  0  0  0  0
    4.0444   -4.3929    0.4971 H   0  0  0  0  0  0  0  0  0  0  0  0
   -2.3615    0.6173    0.0140 H   0  0  0  0  0  0  0  0  0  0  0  0
    1.8516    1.9366   -0.1787 H   0  0  0  0  0  0  0  0  0  0  0  0
    0.9170   -1.6921   -0.8722 H   0  0  0  0  0  0  0  0  0  0  0  0
   -1.5496   -1.7259   -0.2027 H   0  0  0  0  0  0  0  0  0  0  0  0
   -0.5211    5.2837    4.1962 H   0  0  0  0  0  0  0  0  0  0  0  0
   -1.8129    4.7901    3.3473 H   0  0  0  0  0  0  0  0  0  0  0  0
    0.7516    5.7772    2.3397 H   0  0  0  0  0  0  0  0  0  0  0  0
   -0.7914    6.5978    2.3572 H   0  0  0  0  0  0  0  0  0  0  0  0
   -1.5895    2.5644    0.5465 H   0  0  0  0  0  0  0  0  0  0  0  0
   -2.3489    3.7929    1.0450 H   0  0  0  0  0  0  0  0  0  0  0  0
   -2.5763    5.3461    0.9354 H   0  0  0  0  0  0  0  0  0  0  0  0
   -1.0158    3.7415   -1.5009 H   0  0  0  0  0  0  0  0  0  0  0  0
   -2.7199    3.7089   -1.5614 H   0  0  0  0  0  0  0  0  0  0  0  0
   -0.4528    7.2930   -1.9768 H   0  0  0  0  0  0  0  0  0  0  0  0
    0.4222    5.7489   -1.8776 H   0  0  0  0  0  0  0  0  0  0  0  0
   -1.2793    7.0474    0.2414 H   0  0  0  0  0  0  0  0  0  0  0  0
    0.4647    6.9699    0.2757 H   0  0  0  0  0  0  0  0  0  0  0  0
   -6.9967    6.8031   -3.5604 H   0  0  0  0  0  0  0  0  0  0  0  0
   -7.1311    5.9247   -1.1695 H   0  0  0  0  0  0  0  0  0  0  0  0
   -2.8249    7.2395   -5.8394 H   0  0  0  0  0  0  0  0  0  0  0  0
    0.3776   -2.8714    1.0608 H   0  0  0  0  0  0  0  0  0  0  0  0
    0.4971   -3.2774   -0.7754 H   0  0  0  0  0  0  0  0  0  0  0  0
    0.5486   -4.4639    0.3671 H   0  0  0  0  0  0  0  0  0  0  0  0
   -4.8372    5.9485    0.7579 H   0  0  0  0  0  0  0  0  0  0  0  0
   -4.6538    4.2692    0.0900 H   0  0  0  0  0  0  0  0  0  0  0  0
   -3.5648    5.6514   -0.2689 H   0  0  0  0  0  0  0  0  0  0  0  0
  1  9  1  0  0  0  0
  1  2  1  0  0  0  0
  2  3  1  0  0  0  0
  3  4  1  0  0  0  0
  3 31  2  0  0  0  0
  4  5  1  0  0  0  0
  4 32  1  0  0  0  0
  5 34  1  0  0  0  0
  5 35  1  0  0  0  0
  5 36  1  0  0  0  0
  6  7  2  0  0  0  0
  6 37  1  0  0  0  0
  7  8  1  0  0  0  0
  8  1  2  0  0  0  0
  8 38  1  0  0  0  0
  9 10  2  0  0  0  0
  9 39  1  0  0  0  0
 10  6  1  0  0  0  0
 10 40  1  0  0  0  0
 11 12  1  0  0  0  0
 11 41  1  0  0  0  0
 11 42  1  0  0  0  0
 12 13  1  0  0  0  0
 12 43  1  0  0  0  0
 12 44  1  0  0  0  0
 13 14  1  0  0  0  0
 14 15  1  0  0  0  0
 14 30  2  0  0  0  0
 15  7  1  0  0  0  0
 15 45  1  0  0  0  0
 16 13  1  0  0  0  0
 16 17  1  0  0  0  0
 16 46  1  0  0  0  0
 16 47  1  0  0  0  0
 17 18  1  0  0  0  0
 17 48  1  0  0  0  0
 17 49  1  0  0  0  0
 18 19  1  0  0  0  0
 19 20  1  0  0  0  0
 19 50  1  0  0  0  0
 19 51  1  0  0  0  0
 20 13  1  0  0  0  0
 20 52  1  0  0  0  0
 20 53  1  0  0  0  0
 21 22  1  0  0  0  0
 22 23  1  0  0  0  0
 22 54  1  0  0  0  0
 23 24  2  0  0  0  0
 23 55  1  0  0  0  0
 24 25  1  0  0  0  0
 24 33  1  0  0  0  0
 25 21  1  0  0  0  0
 25 29  2  0  0  0  0
 26 27  2  0  0  0  0
 27 28  1  0  0  0  0
 27 56  1  0  0  0  0
 28 21  2  0  0  0  0
 29 26  1  0  0  0  0
 29 18  1  0  0  0  0
 32 57  1  0  0  0  0
 32 58  1  0  0  0  0
 32 59  1  0  0  0  0
 33 60  1  0  0  0  0
 33 61  1  0  0  0  0
 33 62  1  0  0  0  0
M  END
>  <DRUGBANK_ID>
DB16009

>  <COMMON_NAME>
LX-7101

>  <CAS_NUMBER>
1192189-69-7

>  <UNII>
74B3C4ZT96

$$$$
