
 OpenBabel10282417133D

 19 18  0  0  0  0  0  0  0  0999 V2000
    1.0559    0.0519    0.0646 O   0  0  0  0  0  0  0  0  0  0  0  0
    0.4793   -1.1033   -1.0869 P   0  0  0  0  0  0  0  0  0  0  0  0
   -1.0078   -1.0257   -0.4082 O   0  0  0  0  0  0  0  0  0  0  0  0
    0.5895   -0.0538   -2.1909 O   0  0  0  0  0  0  0  0  0  0  0  0
   -0.1307   -2.3252   -2.3049 C   0  0  0  0  0  0  0  0  0  0  0  0
    0.6082   -3.6468   -2.0461 C   0  0  0  0  0  0  0  0  0  0  0  0
    0.3593   -4.2345   -0.6741 C   0  0  0  0  0  0  0  0  0  0  0  0
   -0.2858   -5.3927   -0.4838 C   0  0  0  0  0  0  0  0  0  0  0  0
    0.8828   -3.5895    0.5601 C   0  0  0  0  0  0  0  0  0  0  0  0
    1.6914   -2.6653    0.5198 O   0  0  0  0  0  0  0  0  0  0  0  0
    2.0292    0.0709    0.0195 H   0  0  0  0  0  0  0  0  0  0  0  0
   -1.0622   -1.4876    0.4444 H   0  0  0  0  0  0  0  0  0  0  0  0
   -1.2131   -2.4764   -2.2181 H   0  0  0  0  0  0  0  0  0  0  0  0
    0.0657   -2.0061   -3.3353 H   0  0  0  0  0  0  0  0  0  0  0  0
    0.2876   -4.3590   -2.8176 H   0  0  0  0  0  0  0  0  0  0  0  0
    1.6851   -3.4990   -2.1927 H   0  0  0  0  0  0  0  0  0  0  0  0
   -0.4523   -5.8130    0.5031 H   0  0  0  0  0  0  0  0  0  0  0  0
   -0.6408   -5.9710   -1.3308 H   0  0  0  0  0  0  0  0  0  0  0  0
    0.4862   -3.9537    1.5204 H   0  0  0  0  0  0  0  0  0  0  0  0
  1  2  1  0  0  0  0
  1 11  1  0  0  0  0
  2  3  1  0  0  0  0
  2  4  2  0  0  0  0
  2  5  1  0  0  0  0
  3 12  1  0  0  0  0
  5  6  1  0  0  0  0
  5 13  1  0  0  0  0
  5 14  1  0  0  0  0
  6  7  1  0  0  0  0
  6 15  1  0  0  0  0
  6 16  1  0  0  0  0
  7  8  2  0  0  0  0
  7  9  1  0  0  0  0
  8 17  1  0  0  0  0
  8 18  1  0  0  0  0
  9 10  2  0  0  0  0
  9 19  1  0  0  0  0
M  END
>  <DRUGBANK_ID>
DB03211

>  <SECONDARY_ACCESSION_NUMBERS>
EXPT01081

>  <COMMON_NAME>
(3-Formyl-but-3-Enyl)-Phosphonic Acid

$$$$
