BIC
 OpenBabel10282417163D

 39 41  0  0  0  0  0  0  0  0999 V2000
    1.5916   -1.2028    0.2833 C   0  0  2  0  0  0  0  0  0  0  0  0
    2.5100    0.0230    0.3079 C   0  0  0  0  0  0  0  0  0  0  0  0
    1.5875    1.2552    0.2880 C   0  0  0  0  0  0  0  0  0  0  0  0
   -0.9039    1.5373    0.1957 C   0  0  0  0  0  0  0  0  0  0  0  0
   -2.1669    0.7181    0.4280 C   0  0  0  0  0  0  0  0  0  0  0  0
   -2.1105   -0.5995   -0.3601 C   0  0  1  0  0  0  0  0  0  0  0  0
   -0.9051   -1.3998    0.1933 C   0  0  0  0  0  0  0  0  0  0  0  0
    0.2571    0.7375    0.5483 N   0  0  3  0  0  0  0  0  0  0  0  0
    0.2451   -0.6513    0.4167 N   0  0  0  0  0  0  0  0  0  0  0  0
   -0.9482   -2.6251    0.3595 O   0  0  0  0  0  0  0  0  0  0  0  0
    1.8589   -2.1663    1.4033 C   0  0  0  0  0  0  0  0  0  0  0  0
    2.3260   -3.2986    1.2125 O   0  0  0  0  0  0  0  0  0  0  0  0
   -3.3812   -1.3461   -0.0671 N   0  0  0  0  0  0  0  0  0  0  0  0
   -2.0220   -0.4443   -1.9325 C   0  0  0  0  0  0  0  0  0  0  0  0
   -0.7843    0.1721   -2.5727 C   0  0  0  0  0  0  0  0  0  0  0  0
    0.4196   -0.5284   -2.5338 C   0  0  0  0  0  0  0  0  0  0  0  0
    1.6375    0.1052   -2.7923 C   0  0  0  0  0  0  0  0  0  0  0  0
    1.6595    1.4266   -3.2127 C   0  0  0  0  0  0  0  0  0  0  0  0
    0.4538    2.0755   -3.4589 C   0  0  0  0  0  0  0  0  0  0  0  0
   -0.7634    1.4614   -3.1230 C   0  0  0  0  0  0  0  0  0  0  0  0
    1.7017   -1.7811   -0.6383 H   0  0  0  0  0  0  0  0  0  0  0  0
    3.1495    0.0394    1.1935 H   0  0  0  0  0  0  0  0  0  0  0  0
    3.1987    0.0251   -0.5466 H   0  0  0  0  0  0  0  0  0  0  0  0
    1.8630    1.9444    1.0874 H   0  0  0  0  0  0  0  0  0  0  0  0
    1.6846    1.8169   -0.6464 H   0  0  0  0  0  0  0  0  0  0  0  0
   -0.9222    1.9344   -0.8152 H   0  0  0  0  0  0  0  0  0  0  0  0
   -0.9202    2.4366    0.8171 H   0  0  0  0  0  0  0  0  0  0  0  0
   -3.0616    1.2939    0.1668 H   0  0  0  0  0  0  0  0  0  0  0  0
   -2.2258    0.5095    1.5073 H   0  0  0  0  0  0  0  0  0  0  0  0
    1.6973   -1.7866    2.4182 H   0  0  0  0  0  0  0  0  0  0  0  0
   -3.3115   -2.2713   -0.5027 H   0  0  0  0  0  0  0  0  0  0  0  0
   -3.4216   -1.5549    0.9328 H   0  0  0  0  0  0  0  0  0  0  0  0
   -2.1122   -1.4453   -2.3801 H   0  0  0  0  0  0  0  0  0  0  0  0
   -2.9030    0.1146   -2.2721 H   0  0  0  0  0  0  0  0  0  0  0  0
    0.4136   -1.5481   -2.1606 H   0  0  0  0  0  0  0  0  0  0  0  0
    2.5691   -0.4078   -2.5673 H   0  0  0  0  0  0  0  0  0  0  0  0
    2.6067    1.9533   -3.3051 H   0  0  0  0  0  0  0  0  0  0  0  0
    0.4661    3.0841   -3.8618 H   0  0  0  0  0  0  0  0  0  0  0  0
   -1.6787    2.0441   -3.1954 H   0  0  0  0  0  0  0  0  0  0  0  0
  1  2  1  0  0  0  0
  1  9  1  0  0  0  0
  1 11  1  0  0  0  0
  1 21  1  6  0  0  0
  2  3  1  0  0  0  0
  2 22  1  0  0  0  0
  2 23  1  0  0  0  0
  3  8  1  0  0  0  0
  3 24  1  0  0  0  0
  3 25  1  0  0  0  0
  4  5  1  0  0  0  0
  4  8  1  0  0  0  0
  4 26  1  0  0  0  0
  4 27  1  0  0  0  0
  5  6  1  0  0  0  0
  5 28  1  0  0  0  0
  5 29  1  0  0  0  0
  6  7  1  0  0  0  0
  6 13  1  1  0  0  0
  6 14  1  0  0  0  0
  7  9  1  0  0  0  0
  7 10  2  0  0  0  0
  8  9  1  0  0  0  0
 11 12  2  0  0  0  0
 11 30  1  0  0  0  0
 13 31  1  0  0  0  0
 13 32  1  0  0  0  0
 14 15  1  0  0  0  0
 14 33  1  0  0  0  0
 14 34  1  0  0  0  0
 15 16  2  0  0  0  0
 15 20  1  0  0  0  0
 16 17  1  0  0  0  0
 16 35  1  0  0  0  0
 17 18  2  0  0  0  0
 17 36  1  0  0  0  0
 18 19  1  0  0  0  0
 18 37  1  0  0  0  0
 19 20  2  0  0  0  0
 19 38  1  0  0  0  0
 20 39  1  0  0  0  0
M  END
>  <DRUGBANK_ID>
DB07461

>  <COMMON_NAME>
3-AMINO-3-BENZYL-9-CARBOXAMIDE[4.3.0]BICYCLO-1,6-DIAZANONAN-2-ONE

$$$$
