
 OpenBabel10282417133D

 34 35  0  0  1  0  0  0  0  0999 V2000
    0.5350    1.3707    0.4093 C   0  0  2  0  0  0  0  0  0  0  0  0
    0.7580    2.7535    0.0112 N   0  0  0  0  0  0  0  0  0  0  0  0
    1.7211    0.5719    0.2580 O   0  0  0  0  0  0  0  0  0  0  0  0
   -0.5885    0.7607   -0.4239 C   0  0  1  0  0  0  0  0  0  0  0  0
    1.1903    2.9991   -1.2875 C   0  0  0  0  0  0  0  0  0  0  0  0
    0.0892    3.7244    0.7310 C   0  0  0  0  0  0  0  0  0  0  0  0
    1.3488   -0.6546   -0.3919 C   0  0  1  0  0  0  0  0  0  0  0  0
   -0.1785   -0.6703   -0.4770 C   0  0  1  0  0  0  0  0  0  0  0  0
   -1.8890    0.9559    0.1178 O   0  0  0  0  0  0  0  0  0  0  0  0
    0.9910    4.2612   -1.7597 N   0  0  0  0  0  0  0  0  0  0  0  0
    1.6526    2.1582   -2.0497 O   0  0  0  0  0  0  0  0  0  0  0  0
   -0.2926    4.8708    0.1647 C   0  0  0  0  0  0  0  0  0  0  0  0
    2.0487   -0.8312   -1.7444 C   0  0  0  0  0  0  0  0  0  0  0  0
   -0.7102   -1.4584    0.6014 O   0  0  0  0  0  0  0  0  0  0  0  0
    0.0917    5.1278   -1.2288 C   0  0  0  0  0  0  0  0  0  0  0  0
    1.3373   -1.7441   -2.5724 O   0  0  0  0  0  0  0  0  0  0  0  0
   -0.3790    6.0751   -1.8568 O   0  0  0  0  0  0  0  0  0  0  0  0
    1.2796   -3.3125   -1.8445 P   0  0  0  0  0  0  0  0  0  0  0  0
   -0.2973   -3.0711   -1.5396 O   0  0  0  0  0  0  0  0  0  0  0  0
    1.0829   -3.8669   -3.3694 O   0  0  0  0  0  0  0  0  0  0  0  0
    1.2279   -4.7161   -1.1930 O   0  0  0  0  0  0  0  0  0  0  0  0
    0.2623    1.3254    1.4720 H   0  0  0  0  0  0  0  0  0  0  0  0
   -0.5984    1.1402   -1.4529 H   0  0  0  0  0  0  0  0  0  0  0  0
   -0.1801    3.4895    1.7570 H   0  0  0  0  0  0  0  0  0  0  0  0
    1.6944   -1.4721    0.2583 H   0  0  0  0  0  0  0  0  0  0  0  0
   -0.5940   -1.0432   -1.4099 H   0  0  0  0  0  0  0  0  0  0  0  0
   -2.0172    0.3178    0.8417 H   0  0  0  0  0  0  0  0  0  0  0  0
    1.2294    4.3903   -2.7312 H   0  0  0  0  0  0  0  0  0  0  0  0
   -0.9067    5.6045    0.6649 H   0  0  0  0  0  0  0  0  0  0  0  0
    2.1609    0.0884   -2.3035 H   0  0  0  0  0  0  0  0  0  0  0  0
    3.0697   -1.2082   -1.5970 H   0  0  0  0  0  0  0  0  0  0  0  0
   -0.4455   -1.0664    1.4527 H   0  0  0  0  0  0  0  0  0  0  0  0
   -0.4533   -3.0369   -0.5688 H   0  0  0  0  0  0  0  0  0  0  0  0
    1.3696   -3.2046   -4.0192 H   0  0  0  0  0  0  0  0  0  0  0  0
  1  3  1  0  0  0  0
  1  4  1  0  0  0  0
  1 22  1  1  0  0  0
  1  2  1  0  0  0  0
  2  5  1  0  0  0  0
  2  6  1  0  0  0  0
  3  7  1  0  0  0  0
  4  8  1  0  0  0  0
  4  9  1  0  0  0  0
  4 23  1  6  0  0  0
  5 10  1  0  0  0  0
  5 11  2  0  0  0  0
  6 12  2  0  0  0  0
  6 24  1  0  0  0  0
  7  8  1  0  0  0  0
  7 25  1  1  0  0  0
  7 13  1  0  0  0  0
  8 14  1  0  0  0  0
  8 26  1  6  0  0  0
  9 27  1  0  0  0  0
 10 15  1  0  0  0  0
 10 28  1  0  0  0  0
 12 15  1  0  0  0  0
 12 29  1  0  0  0  0
 13 16  1  0  0  0  0
 13 30  1  0  0  0  0
 13 31  1  0  0  0  0
 14 32  1  0  0  0  0
 15 17  2  0  0  0  0
 16 18  1  0  0  0  0
 18 19  1  0  0  0  0
 18 20  1  0  0  0  0
 18 21  2  0  0  0  0
 19 33  1  0  0  0  0
 20 34  1  0  0  0  0
M  END
>  <DRUGBANK_ID>
DB03685

>  <SECONDARY_ACCESSION_NUMBERS>
EXPT03155

>  <COMMON_NAME>
Uridine monophosphate

>  <CAS_NUMBER>
58-97-9

>  <UNII>
E2OU15WN0N

>  <SYNONYMS>
5'-uridylic acid; UMP; Uridine 5'-monophosphate; Uridine 5'-phosphoric acid; Uridine phosphate; Uridine-5'-monophosphate

$$$$
