
 OpenBabel10282417203D

 45 47  0  0  0  0  0  0  0  0999 V2000
    0.9330    0.0426   -0.0407 C   0  0  0  0  0  0  0  0  0  0  0  0
    0.4529   -1.0399    0.8147 N   0  0  0  0  0  0  0  0  0  0  0  0
   -0.2980   -0.7807    1.9714 C   0  0  0  0  0  0  0  0  0  0  0  0
   -0.8151    0.4403    2.3344 C   0  0  0  0  0  0  0  0  0  0  0  0
   -1.4599    0.6500    3.5680 C   0  0  0  0  0  0  0  0  0  0  0  0
   -1.6759   -0.4435    4.3794 C   0  0  0  0  0  0  0  0  0  0  0  0
   -1.2674   -1.6657    4.0297 N   0  0  0  0  0  0  0  0  0  0  0  0
   -0.5877   -1.7881    2.8399 C   0  0  0  0  0  0  0  0  0  0  0  0
   -0.2343   -3.1557    2.5251 C   0  0  0  0  0  0  0  0  0  0  0  0
    0.4783   -3.5211    1.4153 C   0  0  0  0  0  0  0  0  0  0  0  0
    0.8593   -2.3437    0.4652 C   0  0  0  0  0  0  0  0  0  0  0  0
    1.4792   -2.5067   -0.5600 O   0  0  0  0  0  0  0  0  0  0  0  0
    0.9822   -4.9169    0.9149 C   0  0  0  0  0  0  0  0  0  0  0  0
    1.6057   -5.0312   -0.1422 O   0  0  0  0  0  0  0  0  0  0  0  0
    0.8156   -6.1177    1.5702 N   0  0  0  0  0  0  0  0  0  0  0  0
    0.2080   -6.3135    2.8467 C   0  0  0  0  0  0  0  0  0  0  0  0
   -1.2208   -6.8261    2.8371 C   0  0  0  0  0  0  0  0  0  0  0  0
   -1.1882   -8.2278    2.6236 O   0  0  0  0  0  0  0  0  0  0  0  0
   -0.7945   -3.9342    3.5274 O   0  0  0  0  0  0  0  0  0  0  0  0
   -1.8637    2.0380    3.9860 C   0  0  0  0  0  0  0  0  0  0  0  0
   -0.6636    2.9506    4.1558 C   0  0  0  0  0  0  0  0  0  0  0  0
    0.1490    3.3069    3.0621 C   0  0  0  0  0  0  0  0  0  0  0  0
    1.3265    4.0222    3.2342 C   0  0  0  0  0  0  0  0  0  0  0  0
    1.7307    4.3414    4.5163 C   0  0  0  0  0  0  0  0  0  0  0  0
    0.9538    3.9965    5.6166 C   0  0  0  0  0  0  0  0  0  0  0  0
   -0.2863    3.3842    5.4302 C   0  0  0  0  0  0  0  0  0  0  0  0
    2.8694    5.0212    4.6928 F   0  0  0  0  0  0  0  0  0  0  0  0
    0.6353    1.0398    0.2851 H   0  0  0  0  0  0  0  0  0  0  0  0
    0.5657   -0.1084   -1.0599 H   0  0  0  0  0  0  0  0  0  0  0  0
    2.0282    0.0232   -0.0549 H   0  0  0  0  0  0  0  0  0  0  0  0
   -0.7385    1.2618    1.6470 H   0  0  0  0  0  0  0  0  0  0  0  0
   -2.1938   -0.3869    5.3322 H   0  0  0  0  0  0  0  0  0  0  0  0
    1.2795   -6.8973    1.1162 H   0  0  0  0  0  0  0  0  0  0  0  0
    0.8655   -6.6947    3.6298 H   0  0  0  0  0  0  0  0  0  0  0  0
    0.1949   -5.3298    3.1431 H   0  0  0  0  0  0  0  0  0  0  0  0
   -1.7167   -6.6180    3.7938 H   0  0  0  0  0  0  0  0  0  0  0  0
   -1.8283   -6.3615    2.0505 H   0  0  0  0  0  0  0  0  0  0  0  0
   -0.5962   -8.3504    1.8610 H   0  0  0  0  0  0  0  0  0  0  0  0
   -1.1216   -3.3354    4.2396 H   0  0  0  0  0  0  0  0  0  0  0  0
   -2.5541    2.4447    3.2411 H   0  0  0  0  0  0  0  0  0  0  0  0
   -2.4239    1.9771    4.9289 H   0  0  0  0  0  0  0  0  0  0  0  0
   -0.1009    3.0275    2.0467 H   0  0  0  0  0  0  0  0  0  0  0  0
    1.9258    4.3060    2.3759 H   0  0  0  0  0  0  0  0  0  0  0  0
    1.3218    4.2021    6.6154 H   0  0  0  0  0  0  0  0  0  0  0  0
   -0.9437    3.2405    6.2844 H   0  0  0  0  0  0  0  0  0  0  0  0
  1  2  1  0  0  0  0
  1 28  1  0  0  0  0
  1 29  1  0  0  0  0
  1 30  1  0  0  0  0
  2  3  1  0  0  0  0
  2 11  1  0  0  0  0
  3  4  2  0  0  0  0
  3  8  1  0  0  0  0
  4  5  1  0  0  0  0
  4 31  1  0  0  0  0
  5  6  2  0  0  0  0
  5 20  1  0  0  0  0
  6  7  1  0  0  0  0
  6 32  1  0  0  0  0
  7  8  2  0  0  0  0
  8  9  1  0  0  0  0
  9 10  2  0  0  0  0
  9 19  1  0  0  0  0
 10 11  1  0  0  0  0
 10 13  1  0  0  0  0
 11 12  2  0  0  0  0
 13 14  2  0  0  0  0
 13 15  1  0  0  0  0
 15 16  1  0  0  0  0
 15 33  1  0  0  0  0
 16 17  1  0  0  0  0
 16 34  1  0  0  0  0
 16 35  1  0  0  0  0
 17 18  1  0  0  0  0
 17 36  1  0  0  0  0
 17 37  1  0  0  0  0
 18 38  1  0  0  0  0
 19 39  1  0  0  0  0
 20 21  1  0  0  0  0
 20 40  1  0  0  0  0
 20 41  1  0  0  0  0
 21 22  2  0  0  0  0
 21 26  1  0  0  0  0
 22 23  1  0  0  0  0
 22 42  1  0  0  0  0
 23 24  2  0  0  0  0
 23 43  1  0  0  0  0
 24 25  1  0  0  0  0
 24 27  1  0  0  0  0
 25 26  2  0  0  0  0
 25 44  1  0  0  0  0
 26 45  1  0  0  0  0
M  END
>  <DRUGBANK_ID>
DB13119

>  <SECONDARY_ACCESSION_NUMBERS>
DB06009

>  <COMMON_NAME>
GSK-364735

>  <CAS_NUMBER>
863434-13-3

>  <UNII>
SXN0KXT60S

>  <SYNONYMS>
Naphthyridinone

$$$$
