
 OpenBabel10282417123D

177187  0  0  0  0  0  0  0  0999 V2000
    9.9034    2.5567   -1.6405 C   0  0  0  0  0  0  0  0  0  0  0  0
    9.2398    3.7419   -1.2266 O   0  0  0  0  0  0  0  0  0  0  0  0
    7.8440    3.7201   -0.9663 C   0  0  0  0  0  0  0  0  0  0  0  0
    7.3920    2.6703   -0.2309 C   0  0  0  0  0  0  0  0  0  0  0  0
    6.0749    2.4896    0.0135 C   0  0  0  0  0  0  0  0  0  0  0  0
    5.1439    3.3909   -0.5063 C   0  0  0  0  0  0  0  0  0  0  0  0
    3.8065    3.5030   -0.4629 N   0  0  0  0  0  0  0  0  0  0  0  0
    3.4571    4.5736   -1.1466 C   0  0  0  0  0  0  0  0  0  0  0  0
    4.5270    5.1753   -1.6452 N   0  0  0  0  0  0  0  0  0  0  0  0
    5.6097    4.4890   -1.2825 C   0  0  0  0  0  0  0  0  0  0  0  0
    6.9968    4.6273   -1.4989 C   0  0  0  0  0  0  0  0  0  0  0  0
    2.8885    2.5872    0.2296 C   0  0  1  0  0  0  0  0  0  0  0  0
    2.9982    1.2489   -0.2065 O   0  0  0  0  0  0  0  0  0  0  0  0
    3.2382    0.3828    0.9502 C   0  0  2  0  0  0  0  0  0  0  0  0
    2.4052   -0.8873    0.8922 C   0  0  0  0  0  0  0  0  0  0  0  0
    2.7507   -1.6273   -0.2694 O   0  0  0  0  0  0  0  0  0  0  0  0
    2.8964    1.2285    2.1545 C   0  0  1  0  0  0  0  0  0  0  0  0
    3.5520    0.8085    3.3420 O   0  0  0  0  0  0  0  0  0  0  0  0
    5.2549    0.7898    3.0376 P   0  0  2  0  0  0  0  0  0  0  0  0
    5.5578    1.0954    4.7132 O   0  5  0  0  0  0  0  0  0  0  0  0
    5.9893    2.1012    2.6657 O   0  0  0  0  0  0  0  0  0  0  0  0
    4.9520    0.4842    1.3620 O   0  0  0  0  0  0  0  0  0  0  0  0
    6.1870    0.3862    0.6681 C   0  0  2  0  0  0  0  0  0  0  0  0
    6.9937   -0.7726    1.2308 C   0  0  0  0  0  0  0  0  0  0  0  0
    6.9687    1.6784    0.8399 C   0  0  0  0  0  0  0  0  0  0  0  0
    8.2472    1.5769    0.1215 N   0  0  0  0  0  0  0  0  0  0  0  0
    8.5612    2.5245   -0.9575 C   0  0  0  0  0  0  0  0  0  0  0  0
    9.6665    2.4368   -1.5785 O   0  0  0  0  0  0  0  0  0  0  0  0
    7.5639    3.6093   -1.3304 C   0  0  0  0  0  0  0  0  0  0  0  0
    6.2593    2.9675   -1.7735 C   0  0  0  0  0  0  0  0  0  0  0  0
    5.6953    2.1297   -0.6376 C   0  0  2  0  0  0  0  0  0  0  0  0
    4.1956    2.1348   -0.8847 C   0  0  0  0  0  0  0  0  0  0  0  0
    6.1213    2.6822    0.7401 C   0  0  1  0  0  0  0  0  0  0  0  0
    5.0316    2.4530    1.7747 C   0  0  0  0  0  0  0  0  0  0  0  0
    4.6157    0.9911    1.7583 C   0  0  0  0  0  0  0  0  0  0  0  0
    4.7726    0.1687    2.9666 N   0  0  0  0  0  0  0  0  0  0  0  0
    4.1324    0.4797    0.6999 O   0  0  0  0  0  0  0  0  0  0  0  0
    7.3752    1.8833    1.0866 C   0  0  0  0  0  0  0  0  0  0  0  0
    7.4565    0.8351    0.3511 N   0  3  0  0  0  0  0  0  0  0  0  0
    6.3247    0.7219   -0.5928 C   0  0  0  0  0  0  0  0  0  0  0  0
    5.9243   -0.3850   -1.2749 C   0  0  0  0  0  0  0  0  0  0  0  0
    6.6734   -1.6963   -1.1025 C   0  0  0  0  0  0  0  0  0  0  0  0
    4.7277   -0.3104   -2.2093 C   0  0  0  0  0  0  0  0  0  0  0  0
    3.6838   -1.0398   -2.0388 N   0  3  0  0  0  0  0  0  0  0  0  0
    2.6988   -0.7595   -3.0969 C   0  0  0  0  0  0  0  0  0  0  0  0
    1.4714   -1.3202   -3.2687 C   0  0  0  0  0  0  0  0  0  0  0  0
    0.9748   -2.3757   -2.2942 C   0  0  0  0  0  0  0  0  0  0  0  0
    0.7206   -3.5848   -2.6469 N   0  3  0  0  0  0  0  0  0  0  0  0
    0.3198   -4.3756   -1.4713 C   0  0  0  0  0  0  0  0  0  0  0  0
   -0.0275   -5.6901   -1.4246 C   0  0  0  0  0  0  0  0  0  0  0  0
   -0.4136   -6.3276   -0.0998 C   0  0  0  0  0  0  0  0  0  0  0  0
   10.4463    0.6223    2.4632 C   0  0  0  0  0  0  0  0  0  0  0  0
    9.3329    0.8797    1.8113 N   0  3  0  0  0  0  0  0  0  0  0  0
    8.4185    2.0147    1.9803 C   0  0  1  0  0  0  0  0  0  0  0  0
    7.8760    2.0264    3.4002 C   0  0  0  0  0  0  0  0  0  0  0  0
   10.3976   -1.8573    2.3601 C   0  0  1  0  0  0  0  0  0  0  0  0
    9.9667   -1.9094    3.8168 C   0  0  0  0  0  0  0  0  0  0  0  0
   11.2039   -3.1016    2.0254 C   0  0  0  0  0  0  0  0  0  0  0  0
   12.1824   -2.0832    1.4631 C   0  0  0  0  0  0  0  0  0  0  0  0
   13.3910   -1.7289    2.2211 N   0  0  0  0  0  0  0  0  0  0  0  0
   11.9555   -1.5382    0.3377 O   0  0  0  0  0  0  0  0  0  0  0  0
   11.2526   -0.6220    2.1285 C   0  0  2  0  0  0  0  0  0  0  0  0
   12.4829   -0.6832    3.0191 C   0  0  0  0  0  0  0  0  0  0  0  0
   12.3534    0.3410    4.1347 C   0  0  0  0  0  0  0  0  0  0  0  0
   11.1153    0.0354    4.9618 C   0  0  0  0  0  0  0  0  0  0  0  0
   11.2437   -0.2571    6.3967 N   0  0  0  0  0  0  0  0  0  0  0  0
    9.9691    0.0328    4.4128 O   0  0  0  0  0  0  0  0  0  0  0  0
    8.6731    0.0643    0.6870 Co  0  0  2  0  0  0  0  0  0  0  0  0
    0.3848   -3.3684   -0.3051 C   0  0  1  0  0  0  0  0  0  0  0  0
   -0.9358   -3.2216    0.4329 C   0  0  0  0  0  0  0  0  0  0  0  0
    1.3896   -3.8132    0.7451 C   0  0  0  0  0  0  0  0  0  0  0  0
    2.7365   -4.0599    0.0853 C   0  0  0  0  0  0  0  0  0  0  0  0
    3.9144   -3.2888    0.5082 N   0  0  0  0  0  0  0  0  0  0  0  0
    2.8443   -4.9329   -0.8320 O   0  0  0  0  0  0  0  0  0  0  0  0
    0.8225   -2.1252   -0.9632 C   0  0  2  0  0  0  0  0  0  0  0  0
   -0.2095   -1.0295   -0.7515 C   0  0  0  0  0  0  0  0  0  0  0  0
   -0.3724   -0.7676    0.7369 C   0  0  0  0  0  0  0  0  0  0  0  0
    0.9597   -0.3290    1.3230 C   0  0  0  0  0  0  0  0  0  0  0  0
    1.0814    0.9863    1.9680 N   0  0  0  0  0  0  0  0  0  0  0  0
    1.9682   -1.0994    1.2554 O   0  0  0  0  0  0  0  0  0  0  0  0
    3.3812    0.3172   -3.9651 C   0  0  0  0  0  0  0  0  0  0  0  0
    3.5281   -0.0932   -5.4213 C   0  0  0  0  0  0  0  0  0  0  0  0
    2.5660    1.5999   -3.9850 C   0  0  0  0  0  0  0  0  0  0  0  0
    4.6731    0.5218   -3.2873 C   0  0  2  0  0  0  0  0  0  0  0  0
    5.8179    0.2195   -4.2404 C   0  0  0  0  0  0  0  0  0  0  0  0
    5.7383    1.1504   -5.4393 C   0  0  0  0  0  0  0  0  0  0  0  0
    5.8380    2.5923   -4.9687 C   0  0  0  0  0  0  0  0  0  0  0  0
    6.9327    3.4480   -5.4485 N   0  0  0  0  0  0  0  0  0  0  0  0
    4.9749    3.0581   -4.1605 O   0  0  0  0  0  0  0  0  0  0  0  0
    3.2970    2.6288    1.7057 C   0  0  1  0  0  0  0  0  0  0  0  0
    4.7067    2.7268    1.7776 O   0  0  0  0  0  0  0  0  0  0  0  0
   10.9429    2.7630   -1.7882 H   0  0  0  0  0  0  0  0  0  0  0  0
    9.4749    2.2095   -2.5574 H   0  0  0  0  0  0  0  0  0  0  0  0
    9.7926    1.8044   -0.8876 H   0  0  0  0  0  0  0  0  0  0  0  0
    8.0968    1.9690    0.1646 H   0  0  0  0  0  0  0  0  0  0  0  0
    5.7471    1.6591    0.6031 H   0  0  0  0  0  0  0  0  0  0  0  0
    2.4502    4.9101   -1.2804 H   0  0  0  0  0  0  0  0  0  0  0  0
    7.3742    5.4431   -2.0793 H   0  0  0  0  0  0  0  0  0  0  0  0
    1.8821    2.8966    0.0391 H   0  0  0  0  0  0  0  0  0  0  0  0
    4.2632    0.0777    0.9844 H   0  0  0  0  0  0  0  0  0  0  0  0
    2.5969   -1.4796    1.7625 H   0  0  0  0  0  0  0  0  0  0  0  0
    1.3668   -0.6315    0.8565 H   0  0  0  0  0  0  0  0  0  0  0  0
    2.5715   -1.0738   -1.0828 H   0  0  0  0  0  0  0  0  0  0  0  0
    1.8509    1.1789    2.3765 H   0  0  0  0  0  0  0  0  0  0  0  0
    6.4595    1.5052    4.8510 H   0  0  0  0  0  0  0  0  0  0  0  0
    5.9994    0.2184   -0.3719 H   0  0  0  0  0  0  0  0  0  0  0  0
    6.9207   -0.7946    2.2981 H   0  0  0  0  0  0  0  0  0  0  0  0
    6.6617   -1.7080    0.8312 H   0  0  0  0  0  0  0  0  0  0  0  0
    8.0114   -0.6044    0.9463 H   0  0  0  0  0  0  0  0  0  0  0  0
    6.4008    2.4942    0.4438 H   0  0  0  0  0  0  0  0  0  0  0  0
    7.1562    1.8462    1.8799 H   0  0  0  0  0  0  0  0  0  0  0  0
    8.9164    0.8490    0.3718 H   0  0  0  0  0  0  0  0  0  0  0  0
    7.3834    4.2350   -0.4814 H   0  0  0  0  0  0  0  0  0  0  0  0
    7.9609    4.1991   -2.1301 H   0  0  0  0  0  0  0  0  0  0  0  0
    5.5572    3.7312   -2.0360 H   0  0  0  0  0  0  0  0  0  0  0  0
    6.4398    2.3419   -2.6226 H   0  0  0  0  0  0  0  0  0  0  0  0
    3.8336    3.1414   -0.8609 H   0  0  0  0  0  0  0  0  0  0  0  0
    3.9905    1.7046   -1.8427 H   0  0  0  0  0  0  0  0  0  0  0  0
    3.7069    1.5619   -0.1245 H   0  0  0  0  0  0  0  0  0  0  0  0
    6.2967    3.7376    0.7243 H   0  0  0  0  0  0  0  0  0  0  0  0
    5.4128    2.7045    2.7423 H   0  0  0  0  0  0  0  0  0  0  0  0
    4.1837    3.0675    1.5545 H   0  0  0  0  0  0  0  0  0  0  0  0
    4.4935   -0.8123    2.9556 H   0  0  0  0  0  0  0  0  0  0  0  0
    5.1604    0.5791    3.8160 H   0  0  0  0  0  0  0  0  0  0  0  0
    6.0049   -2.4422   -0.7264 H   0  0  0  0  0  0  0  0  0  0  0  0
    7.0636   -2.0110   -2.0478 H   0  0  0  0  0  0  0  0  0  0  0  0
    7.4791   -1.5586   -0.4120 H   0  0  0  0  0  0  0  0  0  0  0  0
    0.8554   -1.0182   -4.0899 H   0  0  0  0  0  0  0  0  0  0  0  0
    0.4055   -6.2521    0.5845 H   0  0  0  0  0  0  0  0  0  0  0  0
   -1.2646   -5.8209    0.3052 H   0  0  0  0  0  0  0  0  0  0  0  0
   -0.6536   -7.3585   -0.2566 H   0  0  0  0  0  0  0  0  0  0  0  0
    7.3489    1.1145    3.5882 H   0  0  0  0  0  0  0  0  0  0  0  0
    8.6877    2.1182    4.0914 H   0  0  0  0  0  0  0  0  0  0  0  0
    7.2097    2.8549    3.5206 H   0  0  0  0  0  0  0  0  0  0  0  0
   10.5654   -2.6261    4.3390 H   0  0  0  0  0  0  0  0  0  0  0  0
   10.0962   -0.9448    4.2613 H   0  0  0  0  0  0  0  0  0  0  0  0
    8.9369   -2.1940    3.8760 H   0  0  0  0  0  0  0  0  0  0  0  0
   11.5572   -3.4499    2.9734 H   0  0  0  0  0  0  0  0  0  0  0  0
   11.1214   -3.9275    1.3502 H   0  0  0  0  0  0  0  0  0  0  0  0
   14.0476   -1.0455    1.8438 H   0  0  0  0  0  0  0  0  0  0  0  0
   13.5731   -2.1663    3.1244 H   0  0  0  0  0  0  0  0  0  0  0  0
   11.5560   -0.5853    1.1031 H   0  0  0  0  0  0  0  0  0  0  0  0
   12.5692   -1.6623    3.4419 H   0  0  0  0  0  0  0  0  0  0  0  0
   13.3545   -0.4681    2.4368 H   0  0  0  0  0  0  0  0  0  0  0  0
   13.2201    0.2979    4.7607 H   0  0  0  0  0  0  0  0  0  0  0  0
   12.2672    1.3201    3.7118 H   0  0  0  0  0  0  0  0  0  0  0  0
   10.4129   -0.4622    6.9517 H   0  0  0  0  0  0  0  0  0  0  0  0
   12.1637   -0.2551    6.8373 H   0  0  0  0  0  0  0  0  0  0  0  0
   -1.2105   -4.1620    0.8630 H   0  0  0  0  0  0  0  0  0  0  0  0
   -0.8319   -2.4916    1.2083 H   0  0  0  0  0  0  0  0  0  0  0  0
   -1.6948   -2.9078   -0.2530 H   0  0  0  0  0  0  0  0  0  0  0  0
    1.4908   -3.0497    1.4879 H   0  0  0  0  0  0  0  0  0  0  0  0
    1.0475   -4.7161    1.2062 H   0  0  0  0  0  0  0  0  0  0  0  0
    4.8182   -3.4543    0.0654 H   0  0  0  0  0  0  0  0  0  0  0  0
    3.8278   -2.5881    1.2444 H   0  0  0  0  0  0  0  0  0  0  0  0
    1.7544   -1.8041   -0.5466 H   0  0  0  0  0  0  0  0  0  0  0  0
    0.1164   -0.1338   -1.2376 H   0  0  0  0  0  0  0  0  0  0  0  0
   -1.1472   -1.3383   -1.1640 H   0  0  0  0  0  0  0  0  0  0  0  0
   -1.0989    0.0037    0.8859 H   0  0  0  0  0  0  0  0  0  0  0  0
   -0.6984   -1.6634    1.2231 H   0  0  0  0  0  0  0  0  0  0  0  0
    1.9754    1.2807    2.3612 H   0  0  0  0  0  0  0  0  0  0  0  0
    0.2720    1.6047    2.0222 H   0  0  0  0  0  0  0  0  0  0  0  0
    2.5592   -0.2525   -5.8464 H   0  0  0  0  0  0  0  0  0  0  0  0
    4.0315    0.6814   -5.9611 H   0  0  0  0  0  0  0  0  0  0  0  0
    4.0970   -0.9974   -5.4813 H   0  0  0  0  0  0  0  0  0  0  0  0
    2.3793    1.9195   -2.9811 H   0  0  0  0  0  0  0  0  0  0  0  0
    3.1097    2.3601   -4.5061 H   0  0  0  0  0  0  0  0  0  0  0  0
    1.6350    1.4232   -4.4820 H   0  0  0  0  0  0  0  0  0  0  0  0
    4.7549    1.5384   -2.9639 H   0  0  0  0  0  0  0  0  0  0  0  0
    6.7501    0.3664   -3.7360 H   0  0  0  0  0  0  0  0  0  0  0  0
    5.7477   -0.7955   -4.5716 H   0  0  0  0  0  0  0  0  0  0  0  0
    6.5442    0.9377   -6.1102 H   0  0  0  0  0  0  0  0  0  0  0  0
    4.8061    1.0035   -5.9436 H   0  0  0  0  0  0  0  0  0  0  0  0
    6.9997    4.4156   -5.1328 H   0  0  0  0  0  0  0  0  0  0  0  0
    7.6255    3.0741   -6.0972 H   0  0  0  0  0  0  0  0  0  0  0  0
    2.8700    3.4306    2.2711 H   0  0  0  0  0  0  0  0  0  0  0  0
    5.1198    1.9825    1.2528 H   0  0  0  0  0  0  0  0  0  0  0  0
  1  2  1  0  0  0  0
  1 92  1  0  0  0  0
  1 93  1  0  0  0  0
  1 94  1  0  0  0  0
  2  3  1  0  0  0  0
  3  4  2  0  0  0  0
  3 11  1  0  0  0  0
  4  5  1  0  0  0  0
  4 95  1  0  0  0  0
  5  6  2  0  0  0  0
  5 96  1  0  0  0  0
  6  7  1  0  0  0  0
  6 10  1  0  0  0  0
  7  8  1  0  0  0  0
  8  9  2  0  0  0  0
  8 97  1  0  0  0  0
  9 10  1  0  0  0  0
 10 11  2  0  0  0  0
 11 98  1  0  0  0  0
 12  7  1  0  0  0  0
 12 13  1  0  0  0  0
 12 99  1  6  0  0  0
 14 13  1  0  0  0  0
 14 15  1  0  0  0  0
 14100  1  1  0  0  0
 15 16  1  0  0  0  0
 15101  1  0  0  0  0
 15102  1  0  0  0  0
 16103  1  0  0  0  0
 17 14  1  0  0  0  0
 17 18  1  0  0  0  0
 17 90  1  0  0  0  0
 17104  1  1  0  0  0
 19 21  2  6  0  0  0
 19 22  1  0  0  0  0
 19 20  1  0  0  0  0
 19 18  1  0  0  0  0
 20105  1  0  0  0  0
 23 25  1  0  0  0  0
 23106  1  6  0  0  0
 23 24  1  0  0  0  0
 23 22  1  0  0  0  0
 24107  1  0  0  0  0
 24108  1  0  0  0  0
 24109  1  0  0  0  0
 25 26  1  0  0  0  0
 25110  1  0  0  0  0
 25111  1  0  0  0  0
 26 27  1  0  0  0  0
 26112  1  0  0  0  0
 27 28  2  0  0  0  0
 27 29  1  0  0  0  0
 29 30  1  0  0  0  0
 29113  1  0  0  0  0
 29114  1  0  0  0  0
 30115  1  0  0  0  0
 30116  1  0  0  0  0
 31 30  1  6  0  0  0
 31 32  1  0  0  0  0
 31 33  1  0  0  0  0
 31 40  1  0  0  0  0
 32117  1  0  0  0  0
 32118  1  0  0  0  0
 32119  1  0  0  0  0
 33 38  1  0  0  0  0
 33120  1  6  0  0  0
 33 34  1  0  0  0  0
 34 35  1  0  0  0  0
 34121  1  0  0  0  0
 34122  1  0  0  0  0
 35 36  1  0  0  0  0
 35 37  2  0  0  0  0
 36123  1  0  0  0  0
 36124  1  0  0  0  0
 38 39  2  0  0  0  0
 39 40  1  0  0  0  0
 40 41  2  0  0  0  0
 41 42  1  0  0  0  0
 41 43  1  0  0  0  0
 42125  1  0  0  0  0
 42126  1  0  0  0  0
 42127  1  0  0  0  0
 43 44  2  0  0  0  0
 44 45  1  0  0  0  0
 45 46  2  0  0  0  0
 45 81  1  0  0  0  0
 46 47  1  0  0  0  0
 46128  1  0  0  0  0
 47 48  2  0  0  0  0
 48 49  1  0  0  0  0
 49 50  2  0  0  0  0
 50 51  1  0  0  0  0
 50 52  1  0  0  0  0
 51129  1  0  0  0  0
 51130  1  0  0  0  0
 51131  1  0  0  0  0
 52 53  2  0  0  0  0
 54 53  1  0  0  0  0
 54 38  1  0  0  0  0
 54 55  1  1  0  0  0
 55132  1  0  0  0  0
 55133  1  0  0  0  0
 55134  1  0  0  0  0
 56 54  1  0  0  0  0
 56 62  1  0  0  0  0
 56 58  1  6  0  0  0
 56 57  1  0  0  0  0
 57135  1  0  0  0  0
 57136  1  0  0  0  0
 57137  1  0  0  0  0
 58 59  1  0  0  0  0
 58138  1  0  0  0  0
 58139  1  0  0  0  0
 59 60  1  0  0  0  0
 59 61  2  0  0  0  0
 60140  1  0  0  0  0
 60141  1  0  0  0  0
 62 52  1  0  0  0  0
 62142  1  6  0  0  0
 62 63  1  0  0  0  0
 63 64  1  0  0  0  0
 63143  1  0  0  0  0
 63144  1  0  0  0  0
 64 65  1  0  0  0  0
 64145  1  0  0  0  0
 64146  1  0  0  0  0
 65 66  1  0  0  0  0
 65 67  2  0  0  0  0
 66147  1  0  0  0  0
 66148  1  0  0  0  0
 68 53  1  6  0  0  0
 68 39  1  0  0  0  0
 68 44  1  0  0  0  0
 68 48  1  0  0  0  0
 69 49  1  0  0  0  0
 69 70  1  1  0  0  0
 69 71  1  0  0  0  0
 69 75  1  0  0  0  0
 70149  1  0  0  0  0
 70150  1  0  0  0  0
 70151  1  0  0  0  0
 71 72  1  0  0  0  0
 71152  1  0  0  0  0
 71153  1  0  0  0  0
 72 73  1  0  0  0  0
 72 74  2  0  0  0  0
 73154  1  0  0  0  0
 73155  1  0  0  0  0
 75 47  1  0  0  0  0
 75 76  1  0  0  0  0
 75156  1  1  0  0  0
 76 77  1  0  0  0  0
 76157  1  0  0  0  0
 76158  1  0  0  0  0
 77 78  1  0  0  0  0
 77159  1  0  0  0  0
 77160  1  0  0  0  0
 78 79  1  0  0  0  0
 78 80  2  0  0  0  0
 79161  1  0  0  0  0
 79162  1  0  0  0  0
 81 82  1  0  0  0  0
 81 83  1  0  0  0  0
 82163  1  0  0  0  0
 82164  1  0  0  0  0
 82165  1  0  0  0  0
 83166  1  0  0  0  0
 83167  1  0  0  0  0
 83168  1  0  0  0  0
 84 81  1  0  0  0  0
 84 43  1  0  0  0  0
 84 85  1  0  0  0  0
 84169  1  1  0  0  0
 85 86  1  0  0  0  0
 85170  1  0  0  0  0
 85171  1  0  0  0  0
 86 87  1  0  0  0  0
 86172  1  0  0  0  0
 86173  1  0  0  0  0
 87 88  1  0  0  0  0
 87 89  2  0  0  0  0
 88174  1  0  0  0  0
 88175  1  0  0  0  0
 90 12  1  0  0  0  0
 90 91  1  0  0  0  0
 90176  1  1  0  0  0
 91177  1  0  0  0  0
M  CHG  5  20  -1  39   1  44   1  48   1  53   1
M  END
>  <DRUGBANK_ID>
DB02667

>  <SECONDARY_ACCESSION_NUMBERS>
EXPT00608

>  <COMMON_NAME>
Vitamin B 12 factor IIIm

>  <CAS_NUMBER>
15713-12-9

>  <SYNONYMS>
5-Methoxybenzimidazole vitamin B12; 5-Methoxybenzimidazolylcobalamin; Cyano-5-methoxybenzimidazolylcobamide; Vitamin B 12 factor IIIm

$$$$
