
 OpenBabel10282417233D

 38 40  0  0  0  0  0  0  0  0999 V2000
    0.9098   -0.0396   -0.1253 C   0  0  0  0  0  0  0  0  0  0  0  0
    0.4412   -1.3204   -0.5564 O   0  0  0  0  0  0  0  0  0  0  0  0
    0.9048   -1.8464   -1.7429 C   0  0  0  0  0  0  0  0  0  0  0  0
    2.2370   -1.8428   -2.1972 C   0  0  0  0  0  0  0  0  0  0  0  0
    3.0685   -0.9811   -1.4071 O   0  0  0  0  0  0  0  0  0  0  0  0
    4.7123   -0.8438   -1.9285 P   0  0  0  0  0  0  0  0  0  0  0  0
    4.1728   -0.5476   -3.4098 O   0  0  0  0  0  0  0  0  0  0  0  0
    4.5370    0.7508   -1.5411 O   0  0  0  0  0  0  0  0  0  0  0  0
    6.1836   -0.7209   -2.3952 O   0  0  0  0  0  0  0  0  0  0  0  0
    2.5850   -2.6222   -3.4233 C   0  0  0  0  0  0  0  0  0  0  0  0
    1.5807   -3.2504   -4.1883 C   0  0  0  0  0  0  0  0  0  0  0  0
    1.9247   -3.9414   -5.3732 N   0  0  0  0  0  0  0  0  0  0  0  0
    3.1722   -3.8832   -5.9112 C   0  0  0  0  0  0  0  0  0  0  0  0
    4.2152   -3.1931   -5.4194 C   0  0  0  0  0  0  0  0  0  0  0  0
    3.9549   -2.9536   -4.0302 C   0  0  0  0  0  0  0  0  0  0  0  0
    5.0148   -2.8554   -3.3944 O   0  0  0  0  0  0  0  0  0  0  0  0
    3.6152   -4.5825   -7.0802 C   0  0  0  0  0  0  0  0  0  0  0  0
    4.6573   -5.5302   -6.9862 C   0  0  0  0  0  0  0  0  0  0  0  0
    5.2149   -6.0007   -8.1498 C   0  0  0  0  0  0  0  0  0  0  0  0
    6.2085   -6.8964   -8.0932 F   0  0  0  0  0  0  0  0  0  0  0  0
    4.7572   -5.5283   -9.3764 C   0  0  0  0  0  0  0  0  0  0  0  0
    3.7717   -4.5356   -9.4478 C   0  0  0  0  0  0  0  0  0  0  0  0
    3.2068   -4.0458   -8.2912 C   0  0  0  0  0  0  0  0  0  0  0  0
    0.2758   -3.2229   -3.6934 C   0  0  0  0  0  0  0  0  0  0  0  0
   -0.0498   -2.5640   -2.4844 C   0  0  0  0  0  0  0  0  0  0  0  0
    0.4761    0.1816    0.8572 H   0  0  0  0  0  0  0  0  0  0  0  0
    0.5942    0.7397   -0.8243 H   0  0  0  0  0  0  0  0  0  0  0  0
    1.9831    0.0139    0.0536 H   0  0  0  0  0  0  0  0  0  0  0  0
    4.6944   -1.3609   -3.5654 H   0  0  0  0  0  0  0  0  0  0  0  0
    3.6330    1.0265   -1.7958 H   0  0  0  0  0  0  0  0  0  0  0  0
    1.2028   -4.3887   -5.9312 H   0  0  0  0  0  0  0  0  0  0  0  0
    5.2203   -3.1594   -5.8415 H   0  0  0  0  0  0  0  0  0  0  0  0
    5.0934   -5.8173   -6.0267 H   0  0  0  0  0  0  0  0  0  0  0  0
    5.1867   -5.9284  -10.2839 H   0  0  0  0  0  0  0  0  0  0  0  0
    3.4486   -4.1229  -10.3955 H   0  0  0  0  0  0  0  0  0  0  0  0
    2.5203   -3.2012   -8.2959 H   0  0  0  0  0  0  0  0  0  0  0  0
   -0.5131   -3.7504   -4.2251 H   0  0  0  0  0  0  0  0  0  0  0  0
   -1.0792   -2.6145   -2.1237 H   0  0  0  0  0  0  0  0  0  0  0  0
  1  2  1  0  0  0  0
  1 26  1  0  0  0  0
  1 27  1  0  0  0  0
  1 28  1  0  0  0  0
  2  3  1  0  0  0  0
  3  4  2  0  0  0  0
  3 25  1  0  0  0  0
  4  5  1  0  0  0  0
  4 10  1  0  0  0  0
  5  6  1  0  0  0  0
  6  7  1  0  0  0  0
  6  8  1  0  0  0  0
  6  9  2  0  0  0  0
  7 29  1  0  0  0  0
  8 30  1  0  0  0  0
 10 11  2  0  0  0  0
 10 15  1  0  0  0  0
 11 12  1  0  0  0  0
 11 24  1  0  0  0  0
 12 13  1  0  0  0  0
 12 31  1  0  0  0  0
 13 14  2  0  0  0  0
 13 17  1  0  0  0  0
 14 15  1  0  0  0  0
 14 32  1  0  0  0  0
 15 16  2  0  0  0  0
 17 18  2  0  0  0  0
 17 23  1  0  0  0  0
 18 19  1  0  0  0  0
 18 33  1  0  0  0  0
 19 20  1  0  0  0  0
 19 21  2  0  0  0  0
 21 22  1  0  0  0  0
 21 34  1  0  0  0  0
 22 23  2  0  0  0  0
 22 35  1  0  0  0  0
 23 36  1  0  0  0  0
 24 25  2  0  0  0  0
 24 37  1  0  0  0  0
 25 38  1  0  0  0  0
M  END
>  <DRUGBANK_ID>
DB16172

>  <COMMON_NAME>
Foslinanib

>  <CAS_NUMBER>
1256037-60-1

>  <UNII>
2X2DNM7NGX

>  <SYNONYMS>
Foslinanib; Trx-818 free acid

$$$$
