
 OpenBabel10282417233D

 43 46  0  0  1  0  0  0  0  0999 V2000
    0.6947   -0.1249    0.1661 C   0  0  0  0  0  0  0  0  0  0  0  0
    0.3473    0.9417    1.1950 C   0  0  1  0  0  0  0  0  0  0  0  0
    0.9818    2.1855    0.8081 O   0  0  0  0  0  0  0  0  0  0  0  0
    2.3084    2.3142    0.9593 C   0  0  0  0  0  0  0  0  0  0  0  0
    2.8493    3.2631    1.7030 N   0  0  0  0  0  0  0  0  0  0  0  0
    4.2158    3.2578    1.4988 N   0  0  0  0  0  0  0  0  0  0  0  0
    4.4936    2.3589    0.5732 C   0  0  0  0  0  0  0  0  0  0  0  0
    3.3126    1.7584    0.1890 N   0  0  0  0  0  0  0  0  0  0  0  0
    3.2325    0.7993   -0.8787 C   0  0  0  0  0  0  0  0  0  0  0  0
    5.8088    1.9999    0.0408 C   0  0  0  0  0  0  0  0  0  0  0  0
    6.0662    2.0369   -1.3376 C   0  0  0  0  0  0  0  0  0  0  0  0
    7.2639    1.5361   -1.8108 C   0  0  0  0  0  0  0  0  0  0  0  0
    8.2283    1.0510   -1.0085 N   0  0  0  0  0  0  0  0  0  0  0  0
    7.9842    1.0709    0.3216 C   0  0  0  0  0  0  0  0  0  0  0  0
    6.8017    1.5184    0.8883 C   0  0  0  0  0  0  0  0  0  0  0  0
   -1.1521    1.0403    1.1478 C   0  0  0  0  0  0  0  0  0  0  0  0
   -1.9405    0.8743    2.2217 N   0  0  0  0  0  0  0  0  0  0  0  0
   -3.2493    0.8845    1.7278 O   0  0  0  0  0  0  0  0  0  0  0  0
   -3.2067    1.0073    0.3718 C   0  0  0  0  0  0  0  0  0  0  0  0
   -1.9184    1.1085   -0.0367 C   0  0  0  0  0  0  0  0  0  0  0  0
   -4.4487    1.0181   -0.3689 C   0  0  0  0  0  0  0  0  0  0  0  0
   -4.6607    0.0743   -1.3831 C   0  0  0  0  0  0  0  0  0  0  0  0
   -5.7925    0.1696   -2.1901 C   0  0  0  0  0  0  0  0  0  0  0  0
   -6.0423   -0.9803   -3.4454 Cl  0  0  0  0  0  0  0  0  0  0  0  0
   -6.7074    1.2020   -2.0002 C   0  0  0  0  0  0  0  0  0  0  0  0
   -6.4868    2.1533   -1.0030 C   0  0  0  0  0  0  0  0  0  0  0  0
   -5.3576    2.0610   -0.1885 C   0  0  0  0  0  0  0  0  0  0  0  0
    0.6470    0.2990   -0.8482 H   0  0  0  0  0  0  0  0  0  0  0  0
    0.0822   -1.0265    0.1801 H   0  0  0  0  0  0  0  0  0  0  0  0
    1.6816   -0.4686    0.4192 H   0  0  0  0  0  0  0  0  0  0  0  0
    0.6830    0.6215    2.1899 H   0  0  0  0  0  0  0  0  0  0  0  0
    3.1727   -0.2063   -0.4733 H   0  0  0  0  0  0  0  0  0  0  0  0
    2.4363    1.0868   -1.5620 H   0  0  0  0  0  0  0  0  0  0  0  0
    4.1400    0.7298   -1.4601 H   0  0  0  0  0  0  0  0  0  0  0  0
    5.3234    2.3886   -2.0476 H   0  0  0  0  0  0  0  0  0  0  0  0
    7.4722    1.4982   -2.8767 H   0  0  0  0  0  0  0  0  0  0  0  0
    8.7920    0.6914    0.9404 H   0  0  0  0  0  0  0  0  0  0  0  0
    6.6530    1.4694    1.9622 H   0  0  0  0  0  0  0  0  0  0  0  0
   -1.5686    1.1777   -1.0591 H   0  0  0  0  0  0  0  0  0  0  0  0
   -3.9409   -0.7222   -1.5559 H   0  0  0  0  0  0  0  0  0  0  0  0
   -7.5892    1.2778   -2.6310 H   0  0  0  0  0  0  0  0  0  0  0  0
   -7.1833    2.9760   -0.8684 H   0  0  0  0  0  0  0  0  0  0  0  0
   -5.1673    2.8294    0.5595 H   0  0  0  0  0  0  0  0  0  0  0  0
  1 28  1  0  0  0  0
  1 29  1  0  0  0  0
  1 30  1  0  0  0  0
  2  1  1  0  0  0  0
  2  3  1  0  0  0  0
  2 16  1  0  0  0  0
  2 31  1  1  0  0  0
  3  4  1  0  0  0  0
  4  5  2  0  0  0  0
  4  8  1  0  0  0  0
  5  6  1  0  0  0  0
  6  7  2  0  0  0  0
  7  8  1  0  0  0  0
  7 10  1  0  0  0  0
  8  9  1  0  0  0  0
  9 32  1  0  0  0  0
  9 33  1  0  0  0  0
  9 34  1  0  0  0  0
 10 11  2  0  0  0  0
 10 15  1  0  0  0  0
 11 12  1  0  0  0  0
 11 35  1  0  0  0  0
 12 13  2  0  0  0  0
 12 36  1  0  0  0  0
 13 14  1  0  0  0  0
 14 15  2  0  0  0  0
 14 37  1  0  0  0  0
 15 38  1  0  0  0  0
 16 17  2  0  0  0  0
 16 20  1  0  0  0  0
 17 18  1  0  0  0  0
 18 19  1  0  0  0  0
 19 20  2  0  0  0  0
 19 21  1  0  0  0  0
 20 39  1  0  0  0  0
 21 22  2  0  0  0  0
 21 27  1  0  0  0  0
 22 23  1  0  0  0  0
 22 40  1  0  0  0  0
 23 24  1  0  0  0  0
 23 25  2  0  0  0  0
 25 26  1  0  0  0  0
 25 41  1  0  0  0  0
 26 27  2  0  0  0  0
 26 42  1  0  0  0  0
 27 43  1  0  0  0  0
M  END
>  <DRUGBANK_ID>
DB17078

>  <COMMON_NAME>
AZD2066

>  <CAS_NUMBER>
934282-55-0

>  <UNII>
MQ908Y1ZB2

>  <SYNONYMS>
Pyridine, 4-(5-((1r)-1-(5-(3-chlorophenyl)-3-isoxazolyl)ethoxy)-4-methyl-4h-1,2,4-triazol-3-yl)-

$$$$
