XXZ
 OpenBabel10282417173D

 49 52  0  0  0  0  0  0  0  0999 V2000
    0.9411   -0.1112   -0.0414 F   0  0  0  0  0  0  0  0  0  0  0  0
    2.2828   -0.0769   -0.0132 C   0  0  0  0  0  0  0  0  0  0  0  0
    2.9776   -1.2723   -0.1625 C   0  0  0  0  0  0  0  0  0  0  0  0
    4.3713   -1.2649   -0.1390 C   0  0  0  0  0  0  0  0  0  0  0  0
    5.0624   -0.0654    0.0641 C   0  0  0  0  0  0  0  0  0  0  0  0
    4.3668    1.1355    0.2267 C   0  0  0  0  0  0  0  0  0  0  0  0
    2.9719    1.1237    0.1488 C   0  0  0  0  0  0  0  0  0  0  0  0
    2.2981    2.4438    0.2709 C   0  0  0  0  0  0  0  0  0  0  0  0
    2.9259    3.5675    0.0858 N   0  0  0  0  0  0  0  0  0  0  0  0
    0.9736    2.4720    0.6081 N   0  0  0  0  0  0  0  0  0  0  0  0
    5.0344    2.3437    0.3209 N   0  0  0  0  0  0  0  0  0  0  0  0
    4.3622    3.4921   -0.2721 C   0  0  0  0  0  0  0  0  0  0  0  0
    5.0308    4.8103    0.1788 C   0  0  0  0  0  0  0  0  0  0  0  0
    6.4864    4.9124   -0.2847 C   0  0  0  0  0  0  0  0  0  0  0  0
    6.5984    4.7484   -1.7355 N   0  0  0  0  0  0  0  0  0  0  0  0
    5.9791    3.5188   -2.2416 C   0  0  0  0  0  0  0  0  0  0  0  0
    4.5074    3.4256   -1.8156 C   0  0  0  0  0  0  0  0  0  0  0  0
    7.1858    5.6640   -2.6202 C   0  0  0  0  0  0  0  0  0  0  0  0
    7.1945    5.5132   -3.8474 O   0  0  0  0  0  0  0  0  0  0  0  0
    7.3821    8.1635   -2.4088 C   0  0  0  0  0  0  0  0  0  0  0  0
   10.0727   11.3146   -1.4105 N   0  0  0  0  0  0  0  0  0  0  0  0
    9.6979   10.3906   -0.3444 C   0  0  0  0  0  0  0  0  0  0  0  0
    9.0194    9.1642   -0.9085 C   0  0  0  0  0  0  0  0  0  0  0  0
    9.5490    7.8882   -0.6757 C   0  0  0  0  0  0  0  0  0  0  0  0
    8.9341    6.7536   -1.2133 C   0  0  0  0  0  0  0  0  0  0  0  0
    7.8850    9.2801   -1.7269 C   0  0  0  0  0  0  0  0  0  0  0  0
    7.8416    6.8850   -2.0751 C   0  0  0  0  0  0  0  0  0  0  0  0
    2.4285   -2.1975   -0.3083 H   0  0  0  0  0  0  0  0  0  0  0  0
    4.9212   -2.1908   -0.2894 H   0  0  0  0  0  0  0  0  0  0  0  0
    6.1495   -0.0685    0.0468 H   0  0  0  0  0  0  0  0  0  0  0  0
    0.4284    1.6215    0.7014 H   0  0  0  0  0  0  0  0  0  0  0  0
    0.4936    3.3576    0.6812 H   0  0  0  0  0  0  0  0  0  0  0  0
    5.9180    2.4194    0.8002 H   0  0  0  0  0  0  0  0  0  0  0  0
    4.9801    4.9317    1.2665 H   0  0  0  0  0  0  0  0  0  0  0  0
    4.4808    5.6585   -0.2561 H   0  0  0  0  0  0  0  0  0  0  0  0
    7.0958    4.1237    0.1725 H   0  0  0  0  0  0  0  0  0  0  0  0
    6.8967    5.8637    0.0519 H   0  0  0  0  0  0  0  0  0  0  0  0
    6.0625    3.4449   -3.3300 H   0  0  0  0  0  0  0  0  0  0  0  0
    6.5477    2.6753   -1.8271 H   0  0  0  0  0  0  0  0  0  0  0  0
    4.0701    2.5014   -2.2114 H   0  0  0  0  0  0  0  0  0  0  0  0
    3.9480    4.2524   -2.2724 H   0  0  0  0  0  0  0  0  0  0  0  0
    6.6432    8.3072   -3.1938 H   0  0  0  0  0  0  0  0  0  0  0  0
   10.6039   12.0902   -1.0222 H   0  0  0  0  0  0  0  0  0  0  0  0
   10.6955   10.8315   -2.0578 H   0  0  0  0  0  0  0  0  0  0  0  0
    9.0367   10.8916    0.3709 H   0  0  0  0  0  0  0  0  0  0  0  0
   10.6055   10.1035    0.2001 H   0  0  0  0  0  0  0  0  0  0  0  0
   10.4450    7.7670   -0.0724 H   0  0  0  0  0  0  0  0  0  0  0  0
    9.3123    5.7662   -0.9683 H   0  0  0  0  0  0  0  0  0  0  0  0
    7.4156   10.2547   -1.8604 H   0  0  0  0  0  0  0  0  0  0  0  0
  1  2  1  0  0  0  0
  2  3  1  0  0  0  0
  2  7  2  0  0  0  0
  3  4  2  0  0  0  0
  3 28  1  0  0  0  0
  4  5  1  0  0  0  0
  4 29  1  0  0  0  0
  5  6  2  0  0  0  0
  5 30  1  0  0  0  0
  6  7  1  0  0  0  0
  6 11  1  0  0  0  0
  7  8  1  0  0  0  0
  8  9  2  0  0  0  0
  8 10  1  0  0  0  0
  9 12  1  0  0  0  0
 10 31  1  0  0  0  0
 10 32  1  0  0  0  0
 11 12  1  0  0  0  0
 11 33  1  0  0  0  0
 12 13  1  0  0  0  0
 12 17  1  0  0  0  0
 13 14  1  0  0  0  0
 13 34  1  0  0  0  0
 13 35  1  0  0  0  0
 14 15  1  0  0  0  0
 14 36  1  0  0  0  0
 14 37  1  0  0  0  0
 15 16  1  0  0  0  0
 15 18  1  0  0  0  0
 16 17  1  0  0  0  0
 16 38  1  0  0  0  0
 16 39  1  0  0  0  0
 17 40  1  0  0  0  0
 17 41  1  0  0  0  0
 18 19  2  0  0  0  0
 18 27  1  0  0  0  0
 20 26  1  0  0  0  0
 20 27  2  0  0  0  0
 20 42  1  0  0  0  0
 21 22  1  0  0  0  0
 21 43  1  0  0  0  0
 21 44  1  0  0  0  0
 22 23  1  0  0  0  0
 22 45  1  0  0  0  0
 22 46  1  0  0  0  0
 23 24  1  0  0  0  0
 23 26  2  0  0  0  0
 24 25  2  0  0  0  0
 24 47  1  0  0  0  0
 25 27  1  0  0  0  0
 25 48  1  0  0  0  0
 26 49  1  0  0  0  0
M  END
>  <DRUGBANK_ID>
DB08750

>  <COMMON_NAME>
1-[4-(AMINOMETHYL)BENZOYL]-5'-FLUORO-1'H-SPIRO[PIPERIDINE-4,2'-QUINAZOLIN]-4'-AMINE

$$$$
