
 OpenBabel10282417153D

 51 51  0  0  0  0  0  0  0  0999 V2000
   -1.6848    3.0084    3.8976 C   0  0  2  0  0  0  0  0  0  0  0  0
   -1.4330    3.4984    2.4714 C   0  0  2  0  0  0  0  0  0  0  0  0
   -1.2428    2.2105    1.5864 C   0  0  2  0  0  0  0  0  0  0  0  0
   -0.5930    1.2723    2.6572 C   0  0  1  0  0  0  0  0  0  0  0  0
   -0.7002    1.8544    4.0555 C   0  0  0  0  0  0  0  0  0  0  0  0
   -3.1074    2.6011    4.0677 C   0  0  0  0  0  0  0  0  0  0  0  0
   -4.0450    2.8548    3.3018 O   0  0  0  0  0  0  0  0  0  0  0  0
   -3.2577    1.6983    5.0535 O   0  0  0  0  0  0  0  0  0  0  0  0
   -0.2684    4.3229    2.6200 O   0  0  0  0  0  0  0  0  0  0  0  0
   -0.9900   -0.1933    2.7035 N   0  0  0  0  0  0  0  0  0  0  0  0
   -2.1321   -0.8805    2.8092 C   0  0  0  0  0  0  0  0  0  0  0  0
   -2.2577   -2.1522    2.6424 N   0  0  0  0  0  0  0  0  0  0  0  0
   -3.1410   -0.1419    3.2035 N   0  0  0  0  0  0  0  0  0  0  0  0
    0.3792    1.4356   -0.5881 C   0  0  0  0  0  0  0  0  0  0  0  0
    1.0243    1.7905   -1.9332 C   0  0  0  0  0  0  0  0  0  0  0  0
    1.8706    3.0303   -1.8131 C   0  0  0  0  0  0  0  0  0  0  0  0
    1.5863    0.9726    0.2714 C   0  0  0  0  0  0  0  0  0  0  0  0
    1.0854   -0.1366    1.0890 C   0  0  0  0  0  0  0  0  0  0  0  0
    0.2411    3.7810    0.2717 N   0  0  0  0  0  0  0  0  0  0  0  0
    0.1194    4.9810   -0.3751 C   0  0  0  0  0  0  0  0  0  0  0  0
    0.9969    5.8301   -0.2202 O   0  0  0  0  0  0  0  0  0  0  0  0
   -0.9717    5.1192   -1.3983 C   0  0  0  0  0  0  0  0  0  0  0  0
   -2.2209    1.7786    1.3257 H   0  0  0  0  0  0  0  0  0  0  0  0
   -0.5251    2.5376    0.1553 C   0  0  2  0  0  0  0  0  0  0  0  0
   -1.4543    3.7737    4.6423 H   0  0  0  0  0  0  0  0  0  0  0  0
   -2.2210    4.1336    2.0546 H   0  0  0  0  0  0  0  0  0  0  0  0
    0.4725    1.4610    2.5066 H   0  0  0  0  0  0  0  0  0  0  0  0
    0.2947    2.2177    4.3656 H   0  0  0  0  0  0  0  0  0  0  0  0
   -0.9405    1.0671    4.7744 H   0  0  0  0  0  0  0  0  0  0  0  0
   -4.1300    1.2730    4.8953 H   0  0  0  0  0  0  0  0  0  0  0  0
    0.5323    3.7765    2.6412 H   0  0  0  0  0  0  0  0  0  0  0  0
   -0.3679   -0.8690    2.2883 H   0  0  0  0  0  0  0  0  0  0  0  0
   -1.3952   -2.6061    2.3521 H   0  0  0  0  0  0  0  0  0  0  0  0
   -2.6812    0.6723    3.5443 H   0  0  0  0  0  0  0  0  0  0  0  0
   -3.5976   -0.6003    3.9777 H   0  0  0  0  0  0  0  0  0  0  0  0
   -0.2918    0.5888   -0.8243 H   0  0  0  0  0  0  0  0  0  0  0  0
    1.6621    0.9545   -2.2524 H   0  0  0  0  0  0  0  0  0  0  0  0
    0.2476    1.9130   -2.6918 H   0  0  0  0  0  0  0  0  0  0  0  0
    2.4423    3.0772   -0.8771 H   0  0  0  0  0  0  0  0  0  0  0  0
    2.5155    3.2739   -2.6457 H   0  0  0  0  0  0  0  0  0  0  0  0
    1.1592    3.8275   -1.8485 H   0  0  0  0  0  0  0  0  0  0  0  0
    2.4236    0.5284   -0.2615 H   0  0  0  0  0  0  0  0  0  0  0  0
    1.9574    1.8071    0.8788 H   0  0  0  0  0  0  0  0  0  0  0  0
    1.0882   -1.1433    0.7019 H   0  0  0  0  0  0  0  0  0  0  0  0
    1.4613   -0.0978    2.1207 H   0  0  0  0  0  0  0  0  0  0  0  0
    0.0300    0.0691    0.9830 H   0  0  0  0  0  0  0  0  0  0  0  0
    1.0959    3.7630    0.8074 H   0  0  0  0  0  0  0  0  0  0  0  0
   -0.8671    4.3521   -2.1736 H   0  0  0  0  0  0  0  0  0  0  0  0
   -1.9424    5.0209   -0.9161 H   0  0  0  0  0  0  0  0  0  0  0  0
   -0.8866    6.0920   -1.8893 H   0  0  0  0  0  0  0  0  0  0  0  0
   -1.3496    2.7495   -0.5438 H   0  0  0  0  0  0  0  0  0  0  0  0
  1  2  1  0  0  0  0
  1  5  1  0  0  0  0
  1 25  1  1  0  0  0
  1  6  1  0  0  0  0
  2  3  1  0  0  0  0
  2  9  1  0  0  0  0
  2 26  1  6  0  0  0
  3  4  1  0  0  0  0
  3 23  1  6  0  0  0
  4  5  1  0  0  0  0
  4 27  1  6  0  0  0
  4 10  1  0  0  0  0
  5 28  1  0  0  0  0
  5 29  1  0  0  0  0
  6  7  2  0  0  0  0
  6  8  1  0  0  0  0
  8 30  1  0  0  0  0
  9 31  1  0  0  0  0
 10 11  1  0  0  0  0
 10 32  1  0  0  0  0
 11 12  2  0  0  0  0
 11 13  1  0  0  0  0
 12 33  1  0  0  0  0
 13 34  1  0  0  0  0
 13 35  1  0  0  0  0
 14 15  1  0  0  0  0
 14 17  1  0  0  0  0
 14 36  1  0  0  0  0
 15 16  1  0  0  0  0
 15 37  1  0  0  0  0
 15 38  1  0  0  0  0
 16 39  1  0  0  0  0
 16 40  1  0  0  0  0
 16 41  1  0  0  0  0
 17 18  1  0  0  0  0
 17 42  1  0  0  0  0
 17 43  1  0  0  0  0
 18 44  1  0  0  0  0
 18 45  1  0  0  0  0
 18 46  1  0  0  0  0
 19 20  1  0  0  0  0
 19 47  1  0  0  0  0
 20 21  2  0  0  0  0
 20 22  1  0  0  0  0
 22 48  1  0  0  0  0
 22 49  1  0  0  0  0
 22 50  1  0  0  0  0
 24 19  1  0  0  0  0
 24 51  1  6  0  0  0
 24 14  1  0  0  0  0
 24  3  1  0  0  0  0
M  END
>  <DRUGBANK_ID>
DB06614

>  <SECONDARY_ACCESSION_NUMBERS>
EXPT00645; DB03655

>  <COMMON_NAME>
Peramivir

>  <CAS_NUMBER>
330600-85-6

>  <UNII>
9ZS94HQO3B

>  <SYNONYMS>
Peramivir; Peramivir anhydrous

$$$$
