
 OpenBabel10282417123D

 24 23  0  0  0  0  0  0  0  0999 V2000
    0.9270   -1.2676   -2.0942 N   0  0  0  0  0  0  0  0  0  0  0  0
    0.4716   -0.0309   -1.4172 C   0  0  2  0  0  0  0  0  0  0  0  0
    1.0028    0.0032    0.0221 C   0  0  0  0  0  0  0  0  0  0  0  0
    1.3412   -0.9612    0.6949 O   0  0  0  0  0  0  0  0  0  0  0  0
   -1.0570    0.0213   -1.4382 C   0  0  0  0  0  0  0  0  0  0  0  0
   -1.6234    1.3065   -0.8351 C   0  0  0  0  0  0  0  0  0  0  0  0
   -1.2349    2.4710   -1.6204 N   0  0  0  0  0  0  0  0  0  0  0  0
   -2.1426    3.3409   -2.1442 C   0  0  0  0  0  0  0  0  0  0  0  0
   -1.5796    4.3985   -2.8019 N   0  0  0  0  0  0  0  0  0  0  0  0
   -3.4005    3.1031   -1.9932 N   0  0  0  0  0  0  0  0  0  0  0  0
   -2.3679    5.3547   -3.4362 O   0  0  0  0  0  0  0  0  0  0  0  0
    1.0592    1.2506    0.5325 O   0  0  0  0  0  0  0  0  0  0  0  0
    0.6167   -2.0705   -1.5416 H   0  0  0  0  0  0  0  0  0  0  0  0
    1.9463   -1.3043   -2.0527 H   0  0  0  0  0  0  0  0  0  0  0  0
    0.9032    0.8107   -1.9679 H   0  0  0  0  0  0  0  0  0  0  0  0
   -1.4214   -0.0792   -2.4700 H   0  0  0  0  0  0  0  0  0  0  0  0
   -1.4660   -0.8316   -0.8785 H   0  0  0  0  0  0  0  0  0  0  0  0
   -2.7119    1.1950   -0.7853 H   0  0  0  0  0  0  0  0  0  0  0  0
   -1.3087    1.4315    0.2049 H   0  0  0  0  0  0  0  0  0  0  0  0
   -0.2519    2.7052   -1.6309 H   0  0  0  0  0  0  0  0  0  0  0  0
   -0.5792    4.5124   -2.9096 H   0  0  0  0  0  0  0  0  0  0  0  0
   -4.0025    3.7886   -2.4216 H   0  0  0  0  0  0  0  0  0  0  0  0
   -3.2865    5.0931   -3.2743 H   0  0  0  0  0  0  0  0  0  0  0  0
    1.3410    1.1371    1.4657 H   0  0  0  0  0  0  0  0  0  0  0  0
  1 13  1  0  0  0  0
  1 14  1  0  0  0  0
  2  5  1  0  0  0  0
  2 15  1  6  0  0  0
  2  3  1  0  0  0  0
  2  1  1  0  0  0  0
  3  4  2  0  0  0  0
  3 12  1  0  0  0  0
  5  6  1  0  0  0  0
  5 16  1  0  0  0  0
  5 17  1  0  0  0  0
  6  7  1  0  0  0  0
  6 18  1  0  0  0  0
  6 19  1  0  0  0  0
  7 20  1  0  0  0  0
  8  7  1  0  0  0  0
  8  9  1  0  0  0  0
  8 10  2  0  0  0  0
  9 11  1  0  0  0  0
  9 21  1  0  0  0  0
 10 22  1  0  0  0  0
 11 23  1  0  0  0  0
 12 24  1  0  0  0  0
M  END
>  <DRUGBANK_ID>
DB02381

>  <SECONDARY_ACCESSION_NUMBERS>
EXPT02371; DB12913

>  <COMMON_NAME>
nor-NOHA

>  <CAS_NUMBER>
189302-40-7

>  <UNII>
U0F1149OFR

>  <SYNONYMS>
(2S)-2-amino-4-(((hydroxyamino)iminomethyl)amino)butanoic acid; N-hydroxy-nor-arginine; N-hydroxy-nor-L-arginine; Nomega-Hydroxy-nor-L-arginine

$$$$
