1570
 OpenBabel10282417113D

 57 59  0  0  1  0  0  0  0  0999 V2000
    0.7029   -0.4074   -0.0425 O   0  0  0  0  0  0  0  0  0  0  0  0
    0.2853    5.2863   -1.8030 O   0  0  0  0  0  0  0  0  0  0  0  0
    2.5830    2.1038    0.9945 N   0  0  0  0  0  0  0  0  0  0  0  0
    2.6119    5.0204   -2.3006 N   0  0  0  0  0  0  0  0  0  0  0  0
    3.1682    4.2104   -1.1092 C   0  0  3  0  0  0  0  0  0  0  0  0
    2.6472    4.6001    0.2940 C   0  0  3  0  0  0  0  0  0  0  0  0
    3.0210    2.7248   -1.3069 C   0  0  0  0  0  0  0  0  0  0  0  0
    2.9991    3.4973    1.3269 C   0  0  0  0  0  0  0  0  0  0  0  0
    3.3123    1.7295   -0.2035 C   0  0  0  0  0  0  0  0  0  0  0  0
    1.1633    4.8677    0.4308 C   0  0  0  0  0  0  0  0  0  0  0  0
    1.1030    1.8282    0.9392 C   0  0  0  0  0  0  0  0  0  0  0  0
    0.3661    0.9668   -0.2481 C   0  0  3  0  0  0  0  0  0  0  0  0
    3.6371    5.3995   -3.2082 C   0  0  0  0  0  0  0  0  0  0  0  0
    1.2769    5.4354   -2.5547 C   0  0  0  0  0  0  0  0  0  0  0  0
    0.4966    1.2628   -1.7654 C   0  0  0  0  0  0  0  0  0  0  0  0
    0.8164    6.0616   -3.8698 C   0  0  0  0  0  0  0  0  0  0  0  0
    4.4206    4.4949   -3.9298 C   0  0  0  0  0  0  0  0  0  0  0  0
    3.8803    6.7542   -3.3390 C   0  0  0  0  0  0  0  0  0  0  0  0
    0.9732    7.5475   -3.8347 C   0  0  0  0  0  0  0  0  0  0  0  0
   -0.0739    2.4222   -2.2885 C   0  0  0  0  0  0  0  0  0  0  0  0
    1.3996    0.5817   -2.6313 C   0  0  0  0  0  0  0  0  0  0  0  0
    5.3158    4.9734   -4.8903 C   0  0  0  0  0  0  0  0  0  0  0  0
    4.6403    7.2295   -4.3947 C   0  0  0  0  0  0  0  0  0  0  0  0
    5.3865    6.3401   -5.1542 C   0  0  0  0  0  0  0  0  0  0  0  0
    0.3716    2.9365   -3.5209 C   0  0  0  0  0  0  0  0  0  0  0  0
    1.9451    1.1999   -3.7880 C   0  0  0  0  0  0  0  0  0  0  0  0
    1.4755    2.4324   -4.1912 C   0  0  0  0  0  0  0  0  0  0  0  0
    1.6261   -0.3997    0.2619 H   0  0  0  0  0  0  0  0  0  0  0  0
    4.2572    4.3616   -1.1063 H   0  0  0  0  0  0  0  0  0  0  0  0
    3.1489    5.5405    0.5453 H   0  0  0  0  0  0  0  0  0  0  0  0
    1.9682    2.7275   -1.3898 H   0  0  0  0  0  0  0  0  0  0  0  0
    3.4822    2.3618   -2.2181 H   0  0  0  0  0  0  0  0  0  0  0  0
    2.6175    3.7851    2.3111 H   0  0  0  0  0  0  0  0  0  0  0  0
    4.0951    3.5010    1.4319 H   0  0  0  0  0  0  0  0  0  0  0  0
    4.3877    1.6526   -0.0124 H   0  0  0  0  0  0  0  0  0  0  0  0
    3.0409    0.7156   -0.5095 H   0  0  0  0  0  0  0  0  0  0  0  0
    0.8152    4.9032    1.4621 H   0  0  0  0  0  0  0  0  0  0  0  0
    0.9171    5.8501    0.0366 H   0  0  0  0  0  0  0  0  0  0  0  0
    0.5911    4.0927   -0.0829 H   0  0  0  0  0  0  0  0  0  0  0  0
    0.5101    2.7129    1.1706 H   0  0  0  0  0  0  0  0  0  0  0  0
    0.9146    1.2528    1.8621 H   0  0  0  0  0  0  0  0  0  0  0  0
   -0.7070    1.0580   -0.0275 H   0  0  0  0  0  0  0  0  0  0  0  0
    1.2355    5.5673   -4.7479 H   0  0  0  0  0  0  0  0  0  0  0  0
   -0.2788    5.8949   -3.9416 H   0  0  0  0  0  0  0  0  0  0  0  0
    4.3374    3.4225   -3.7972 H   0  0  0  0  0  0  0  0  0  0  0  0
    3.3976    7.4448   -2.6518 H   0  0  0  0  0  0  0  0  0  0  0  0
    1.9949    7.7932   -4.0562 H   0  0  0  0  0  0  0  0  0  0  0  0
    0.3894    8.0417   -4.6084 H   0  0  0  0  0  0  0  0  0  0  0  0
    0.7159    7.9373   -2.8445 H   0  0  0  0  0  0  0  0  0  0  0  0
   -0.6859    3.0710   -1.6600 H   0  0  0  0  0  0  0  0  0  0  0  0
    1.8416   -0.3580   -2.3206 H   0  0  0  0  0  0  0  0  0  0  0  0
    5.9284    4.2810   -5.4620 H   0  0  0  0  0  0  0  0  0  0  0  0
    4.6146    8.2888   -4.6278 H   0  0  0  0  0  0  0  0  0  0  0  0
    6.0341    6.7210   -5.9373 H   0  0  0  0  0  0  0  0  0  0  0  0
   -0.0455    3.8671   -3.8612 H   0  0  0  0  0  0  0  0  0  0  0  0
    2.8255    0.7933   -4.2830 H   0  0  0  0  0  0  0  0  0  0  0  0
    1.9884    3.0380   -4.9415 H   0  0  0  0  0  0  0  0  0  0  0  0
  1 12  1  0  0  0  0
  1 28  1  0  0  0  0
  2 14  2  0  0  0  0
  3  8  1  0  0  0  0
  3  9  1  0  0  0  0
  3 11  1  0  0  0  0
  4  5  1  0  0  0  0
  4 13  1  0  0  0  0
  4 14  1  0  0  0  0
  5  6  1  0  0  0  0
  5  7  1  0  0  0  0
  5 29  1  0  0  0  0
  6  8  1  0  0  0  0
  6 10  1  0  0  0  0
  6 30  1  0  0  0  0
  7  9  1  0  0  0  0
  7 31  1  0  0  0  0
  7 32  1  0  0  0  0
  8 33  1  0  0  0  0
  8 34  1  0  0  0  0
  9 35  1  0  0  0  0
  9 36  1  0  0  0  0
 10 37  1  0  0  0  0
 10 38  1  0  0  0  0
 10 39  1  0  0  0  0
 11 12  1  0  0  0  0
 11 40  1  0  0  0  0
 11 41  1  0  0  0  0
 12 15  1  0  0  0  0
 12 42  1  0  0  0  0
 13 17  2  0  0  0  0
 13 18  1  0  0  0  0
 14 16  1  0  0  0  0
 15 20  2  0  0  0  0
 15 21  1  0  0  0  0
 16 19  1  0  0  0  0
 16 43  1  0  0  0  0
 16 44  1  0  0  0  0
 17 22  1  0  0  0  0
 17 45  1  0  0  0  0
 18 23  2  0  0  0  0
 18 46  1  0  0  0  0
 19 47  1  0  0  0  0
 19 48  1  0  0  0  0
 19 49  1  0  0  0  0
 20 25  1  0  0  0  0
 20 50  1  0  0  0  0
 21 26  2  0  0  0  0
 21 51  1  0  0  0  0
 22 24  2  0  0  0  0
 22 52  1  0  0  0  0
 23 24  1  0  0  0  0
 23 53  1  0  0  0  0
 24 54  1  0  0  0  0
 25 27  2  0  0  0  0
 25 55  1  0  0  0  0
 26 27  1  0  0  0  0
 26 56  1  0  0  0  0
 27 57  1  0  0  0  0
M  END
>  <DRUGBANK_ID>
DB01570

>  <COMMON_NAME>
Ohmefentanyl

>  <CAS_NUMBER>
78995-14-9

>  <UNII>
Y8263089ZX

>  <SYNONYMS>
Beta-hydroxy-3-methylfentanyl; OMF; Î²-hydroxy-3-methylfentanyl

$$$$
