
 OpenBabel10282417223D

126129  0  0  0  0  0  0  0  0999 V2000
    1.3142   -0.0176   -0.0834 O   0  0  0  0  0  0  0  0  0  0  0  0
   11.8154   -7.7242   -7.7637 O   0  0  0  0  0  0  0  0  0  0  0  0
   15.7421   -2.5468   -6.8942 O   0  0  0  0  0  0  0  0  0  0  0  0
    3.0708   -0.5172    1.2178 O   0  0  0  0  0  0  0  0  0  0  0  0
   13.1055   -6.9010   -6.1404 O   0  0  0  0  0  0  0  0  0  0  0  0
   14.7779   -3.3965   -8.7172 O   0  0  0  0  0  0  0  0  0  0  0  0
    5.5187    0.7183   -4.6765 N   0  0  0  0  0  0  0  0  0  0  0  0
    7.6671   -3.3950   -5.4287 N   0  0  0  0  0  0  0  0  0  0  0  0
    9.9598    0.2205   -6.2593 N   0  0  0  0  0  0  0  0  0  0  0  0
    6.3758   -1.3600   -5.3027 N   0  0  0  0  0  0  0  0  0  0  0  0
    7.6740    0.6450   -5.5570 N   0  0  0  0  0  0  0  0  0  0  0  0
    8.5795   -1.4307   -5.8217 N   0  0  0  0  0  0  0  0  0  0  0  0
    0.3908    1.5112   -1.9206 C   0  0  3  0  0  0  0  0  0  0  0  0
    9.4690   -8.7125   -7.8178 C   0  0  3  0  0  0  0  0  0  0  0  0
   16.0488   -0.1813   -6.0032 C   0  0  3  0  0  0  0  0  0  0  0  0
    1.7046    1.7430   -2.5820 C   0  0  0  0  0  0  0  0  0  0  0  0
    8.9180   -7.7996   -6.7448 C   0  0  0  0  0  0  0  0  0  0  0  0
   14.7156    0.3226   -6.5097 C   0  0  0  0  0  0  0  0  0  0  0  0
   -0.4862    1.7307   -3.1271 C   0  0  0  0  0  0  0  0  0  0  0  0
    8.2562   -8.9621   -8.7015 C   0  0  0  0  0  0  0  0  0  0  0  0
   16.2628    0.6441   -4.7435 C   0  0  0  0  0  0  0  0  0  0  0  0
    2.1005    0.4425   -3.4281 C   0  0  0  0  0  0  0  0  0  0  0  0
    8.2497   -6.5835   -7.3772 C   0  0  0  0  0  0  0  0  0  0  0  0
   13.6608    0.2178   -5.4138 C   0  0  0  0  0  0  0  0  0  0  0  0
    0.3614    0.1324   -1.2100 C   0  0  0  0  0  0  0  0  0  0  0  0
   10.6622   -8.0888   -8.5980 C   0  0  0  0  0  0  0  0  0  0  0  0
   16.0590   -1.7127   -5.7268 C   0  0  0  0  0  0  0  0  0  0  0  0
    1.7617    0.4863   -4.9008 C   0  0  0  0  0  0  0  0  0  0  0  0
    6.9818   -6.3089   -8.1506 C   0  0  0  0  0  0  0  0  0  0  0  0
   13.3483    0.9305   -4.1195 C   0  0  0  0  0  0  0  0  0  0  0  0
   -1.9286    1.7003   -2.8471 C   0  0  0  0  0  0  0  0  0  0  0  0
    8.3802   -9.9395   -9.8047 C   0  0  0  0  0  0  0  0  0  0  0  0
   17.5547    0.5205   -4.0340 C   0  0  0  0  0  0  0  0  0  0  0  0
    2.1036    1.8412   -5.4843 C   0  0  0  0  0  0  0  0  0  0  0  0
    5.9178   -6.6716   -7.1906 C   0  0  0  0  0  0  0  0  0  0  0  0
   13.0733    2.3151   -4.5577 C   0  0  0  0  0  0  0  0  0  0  0  0
    2.6582   -0.2987    0.0998 C   0  0  0  0  0  0  0  0  0  0  0  0
   12.1094   -6.7638   -6.8146 C   0  0  0  0  0  0  0  0  0  0  0  0
   14.6258   -2.8305   -7.6576 C   0  0  0  0  0  0  0  0  0  0  0  0
    3.7095   -0.0884   -0.9685 C   0  0  0  0  0  0  0  0  0  0  0  0
   11.2029   -5.5712   -6.5132 C   0  0  0  0  0  0  0  0  0  0  0  0
   13.2100   -2.3981   -7.2767 C   0  0  0  0  0  0  0  0  0  0  0  0
    3.9684    1.2253   -1.3171 C   0  0  0  0  0  0  0  0  0  0  0  0
   11.0496   -5.0215   -5.2340 C   0  0  0  0  0  0  0  0  0  0  0  0
   12.2322   -2.0396   -8.2126 C   0  0  0  0  0  0  0  0  0  0  0  0
    4.6517   -0.9620   -1.4732 C   0  0  0  0  0  0  0  0  0  0  0  0
   10.4159   -4.9862   -7.4822 C   0  0  0  0  0  0  0  0  0  0  0  0
   12.8098   -2.2708   -5.9643 C   0  0  0  0  0  0  0  0  0  0  0  0
    4.5463    1.5838   -2.5849 C   0  0  0  0  0  0  0  0  0  0  0  0
    9.9301   -4.1962   -4.9102 C   0  0  0  0  0  0  0  0  0  0  0  0
   11.0849   -1.2793   -7.8344 C   0  0  0  0  0  0  0  0  0  0  0  0
    5.4811   -0.5508   -2.5630 C   0  0  0  0  0  0  0  0  0  0  0  0
    9.2735   -4.1727   -7.1536 C   0  0  0  0  0  0  0  0  0  0  0  0
   11.6661   -1.4760   -5.5827 C   0  0  0  0  0  0  0  0  0  0  0  0
    5.2645    0.6355   -3.2864 C   0  0  0  0  0  0  0  0  0  0  0  0
    8.9202   -3.9336   -5.8281 C   0  0  0  0  0  0  0  0  0  0  0  0
   10.9076   -0.8065   -6.5404 C   0  0  0  0  0  0  0  0  0  0  0  0
    6.5460   -0.0250   -5.2664 C   0  0  0  0  0  0  0  0  0  0  0  0
    7.4765   -2.0256   -5.5358 C   0  0  0  0  0  0  0  0  0  0  0  0
    8.6810   -0.1452   -5.8581 C   0  0  0  0  0  0  0  0  0  0  0  0
    5.4132    1.6003   -5.1614 H   0  0  0  0  0  0  0  0  0  0  0  0
    6.8034   -3.9038   -5.5511 H   0  0  0  0  0  0  0  0  0  0  0  0
   10.2438    1.0940   -5.8373 H   0  0  0  0  0  0  0  0  0  0  0  0
    0.2071    2.2879   -1.1609 H   0  0  0  0  0  0  0  0  0  0  0  0
    9.8086   -9.6310   -7.3305 H   0  0  0  0  0  0  0  0  0  0  0  0
   16.8003    0.0440   -6.7654 H   0  0  0  0  0  0  0  0  0  0  0  0
    1.8037    2.6664   -3.1515 H   0  0  0  0  0  0  0  0  0  0  0  0
    2.1930    2.2199   -1.7487 H   0  0  0  0  0  0  0  0  0  0  0  0
    8.2301   -8.2814   -6.0491 H   0  0  0  0  0  0  0  0  0  0  0  0
    9.7518   -7.5192   -6.0913 H   0  0  0  0  0  0  0  0  0  0  0  0
   14.7360    1.3373   -6.9087 H   0  0  0  0  0  0  0  0  0  0  0  0
   14.4535   -0.2702   -7.3934 H   0  0  0  0  0  0  0  0  0  0  0  0
   -0.2081    2.6640   -3.6476 H   0  0  0  0  0  0  0  0  0  0  0  0
   -0.3389    0.9200   -3.8207 H   0  0  0  0  0  0  0  0  0  0  0  0
    7.3609   -9.1545   -8.0897 H   0  0  0  0  0  0  0  0  0  0  0  0
    8.1028   -8.0613   -9.2768 H   0  0  0  0  0  0  0  0  0  0  0  0
   15.9967    1.6984   -4.9181 H   0  0  0  0  0  0  0  0  0  0  0  0
   15.6055    0.2349   -3.9908 H   0  0  0  0  0  0  0  0  0  0  0  0
    3.1265    0.1568   -3.4997 H   0  0  0  0  0  0  0  0  0  0  0  0
    1.7671   -0.4978   -2.9923 H   0  0  0  0  0  0  0  0  0  0  0  0
    8.1402   -5.9809   -6.4865 H   0  0  0  0  0  0  0  0  0  0  0  0
    8.8927   -6.2780   -8.1794 H   0  0  0  0  0  0  0  0  0  0  0  0
   12.7844    0.3971   -6.0208 H   0  0  0  0  0  0  0  0  0  0  0  0
   13.8244   -0.7291   -4.9374 H   0  0  0  0  0  0  0  0  0  0  0  0
    0.4376   -0.7456   -1.8523 H   0  0  0  0  0  0  0  0  0  0  0  0
   -0.6439    0.0153   -0.7886 H   0  0  0  0  0  0  0  0  0  0  0  0
   10.4063   -7.2635   -9.2687 H   0  0  0  0  0  0  0  0  0  0  0  0
   11.0215   -8.8575   -9.3012 H   0  0  0  0  0  0  0  0  0  0  0  0
   15.4760   -2.0390   -4.8608 H   0  0  0  0  0  0  0  0  0  0  0  0
   17.0866   -1.9771   -5.4288 H   0  0  0  0  0  0  0  0  0  0  0  0
    2.3272   -0.2947   -5.4252 H   0  0  0  0  0  0  0  0  0  0  0  0
    0.7295    0.1872   -5.0625 H   0  0  0  0  0  0  0  0  0  0  0  0
    6.9078   -5.2425   -8.4217 H   0  0  0  0  0  0  0  0  0  0  0  0
    6.9368   -6.7567   -9.1440 H   0  0  0  0  0  0  0  0  0  0  0  0
   12.4580    0.4969   -3.6343 H   0  0  0  0  0  0  0  0  0  0  0  0
   14.0804    0.7903   -3.3234 H   0  0  0  0  0  0  0  0  0  0  0  0
   -2.1727    2.4938   -2.1463 H   0  0  0  0  0  0  0  0  0  0  0  0
   -2.4314    1.8360   -3.8057 H   0  0  0  0  0  0  0  0  0  0  0  0
   -2.1639    0.7152   -2.4468 H   0  0  0  0  0  0  0  0  0  0  0  0
    8.6291  -10.9167   -9.4077 H   0  0  0  0  0  0  0  0  0  0  0  0
    7.4206   -9.9507  -10.3325 H   0  0  0  0  0  0  0  0  0  0  0  0
    9.1389   -9.5733  -10.4987 H   0  0  0  0  0  0  0  0  0  0  0  0
   18.3665    0.8143   -4.6890 H   0  0  0  0  0  0  0  0  0  0  0  0
   17.4972    1.1633   -3.1491 H   0  0  0  0  0  0  0  0  0  0  0  0
   17.6564   -0.5109   -3.6917 H   0  0  0  0  0  0  0  0  0  0  0  0
    3.1816    1.9277   -5.6288 H   0  0  0  0  0  0  0  0  0  0  0  0
    1.5643    1.9983   -6.4102 H   0  0  0  0  0  0  0  0  0  0  0  0
    1.8229    2.6964   -4.8772 H   0  0  0  0  0  0  0  0  0  0  0  0
    5.9123   -5.8977   -6.4160 H   0  0  0  0  0  0  0  0  0  0  0  0
    4.9690   -6.7342   -7.7016 H   0  0  0  0  0  0  0  0  0  0  0  0
    6.1701   -7.6204   -6.7120 H   0  0  0  0  0  0  0  0  0  0  0  0
   12.1080    2.2984   -5.0744 H   0  0  0  0  0  0  0  0  0  0  0  0
   13.0593    2.9738   -3.7027 H   0  0  0  0  0  0  0  0  0  0  0  0
   13.8325    2.6236   -5.2798 H   0  0  0  0  0  0  0  0  0  0  0  0
    3.4397    1.9244   -0.6761 H   0  0  0  0  0  0  0  0  0  0  0  0
   11.7827   -5.2270   -4.4614 H   0  0  0  0  0  0  0  0  0  0  0  0
   12.3464   -2.3167   -9.2547 H   0  0  0  0  0  0  0  0  0  0  0  0
    4.8024   -1.9439   -1.0407 H   0  0  0  0  0  0  0  0  0  0  0  0
   10.5076   -5.4101   -8.4763 H   0  0  0  0  0  0  0  0  0  0  0  0
   13.5542   -2.5411   -5.2225 H   0  0  0  0  0  0  0  0  0  0  0  0
    4.1805    2.4709   -3.1170 H   0  0  0  0  0  0  0  0  0  0  0  0
    9.8584   -3.7120   -3.9417 H   0  0  0  0  0  0  0  0  0  0  0  0
   10.3009   -1.0596   -8.5508 H   0  0  0  0  0  0  0  0  0  0  0  0
    6.2728   -1.2115   -2.8880 H   0  0  0  0  0  0  0  0  0  0  0  0
    8.5152   -3.9798   -7.9138 H   0  0  0  0  0  0  0  0  0  0  0  0
   11.5545   -1.1676   -4.5424 H   0  0  0  0  0  0  0  0  0  0  0  0
  1 25  1  0  0  0  0
  1 37  1  0  0  0  0
  2 26  1  0  0  0  0
  2 38  1  0  0  0  0
  3 27  1  0  0  0  0
  3 39  1  0  0  0  0
  4 37  2  0  0  0  0
  5 38  2  0  0  0  0
  6 39  2  0  0  0  0
  7 55  1  0  0  0  0
  7 58  1  0  0  0  0
  7 61  1  0  0  0  0
  8 56  1  0  0  0  0
  8 59  1  0  0  0  0
  8 62  1  0  0  0  0
  9 57  1  0  0  0  0
  9 60  1  0  0  0  0
  9 63  1  0  0  0  0
 10 58  2  0  0  0  0
 10 59  1  0  0  0  0
 11 58  1  0  0  0  0
 11 60  2  0  0  0  0
 12 59  2  0  0  0  0
 12 60  1  0  0  0  0
 13 16  1  0  0  0  0
 13 19  1  0  0  0  0
 13 25  1  0  0  0  0
 13 64  1  0  0  0  0
 14 17  1  0  0  0  0
 14 20  1  0  0  0  0
 14 26  1  0  0  0  0
 14 65  1  0  0  0  0
 15 18  1  0  0  0  0
 15 21  1  0  0  0  0
 15 27  1  0  0  0  0
 15 66  1  0  0  0  0
 16 22  1  0  0  0  0
 16 67  1  0  0  0  0
 16 68  1  0  0  0  0
 17 23  1  0  0  0  0
 17 69  1  0  0  0  0
 17 70  1  0  0  0  0
 18 24  1  0  0  0  0
 18 71  1  0  0  0  0
 18 72  1  0  0  0  0
 19 31  1  0  0  0  0
 19 73  1  0  0  0  0
 19 74  1  0  0  0  0
 20 32  1  0  0  0  0
 20 75  1  0  0  0  0
 20 76  1  0  0  0  0
 21 33  1  0  0  0  0
 21 77  1  0  0  0  0
 21 78  1  0  0  0  0
 22 28  1  0  0  0  0
 22 79  1  0  0  0  0
 22 80  1  0  0  0  0
 23 29  1  0  0  0  0
 23 81  1  0  0  0  0
 23 82  1  0  0  0  0
 24 30  1  0  0  0  0
 24 83  1  0  0  0  0
 24 84  1  0  0  0  0
 25 85  1  0  0  0  0
 25 86  1  0  0  0  0
 26 87  1  0  0  0  0
 26 88  1  0  0  0  0
 27 89  1  0  0  0  0
 27 90  1  0  0  0  0
 28 34  1  0  0  0  0
 28 91  1  0  0  0  0
 28 92  1  0  0  0  0
 29 35  1  0  0  0  0
 29 93  1  0  0  0  0
 29 94  1  0  0  0  0
 30 36  1  0  0  0  0
 30 95  1  0  0  0  0
 30 96  1  0  0  0  0
 31 97  1  0  0  0  0
 31 98  1  0  0  0  0
 31 99  1  0  0  0  0
 32100  1  0  0  0  0
 32101  1  0  0  0  0
 32102  1  0  0  0  0
 33103  1  0  0  0  0
 33104  1  0  0  0  0
 33105  1  0  0  0  0
 34106  1  0  0  0  0
 34107  1  0  0  0  0
 34108  1  0  0  0  0
 35109  1  0  0  0  0
 35110  1  0  0  0  0
 35111  1  0  0  0  0
 36112  1  0  0  0  0
 36113  1  0  0  0  0
 36114  1  0  0  0  0
 37 40  1  0  0  0  0
 38 41  1  0  0  0  0
 39 42  1  0  0  0  0
 40 43  2  0  0  0  0
 40 46  1  0  0  0  0
 41 44  2  0  0  0  0
 41 47  1  0  0  0  0
 42 45  2  0  0  0  0
 42 48  1  0  0  0  0
 43 49  1  0  0  0  0
 43115  1  0  0  0  0
 44 50  1  0  0  0  0
 44116  1  0  0  0  0
 45 51  1  0  0  0  0
 45117  1  0  0  0  0
 46 52  2  0  0  0  0
 46118  1  0  0  0  0
 47 53  2  0  0  0  0
 47119  1  0  0  0  0
 48 54  2  0  0  0  0
 48120  1  0  0  0  0
 49 55  2  0  0  0  0
 49121  1  0  0  0  0
 50 56  2  0  0  0  0
 50122  1  0  0  0  0
 51 57  2  0  0  0  0
 51123  1  0  0  0  0
 52 55  1  0  0  0  0
 52124  1  0  0  0  0
 53 56  1  0  0  0  0
 53125  1  0  0  0  0
 54 57  1  0  0  0  0
 54126  1  0  0  0  0
M  END
>  <DRUGBANK_ID>
DB15469

>  <COMMON_NAME>
Octyl triazone

>  <CAS_NUMBER>
88122-99-0

>  <UNII>
XQN8R9SAK4

$$$$
