7AC
 OpenBabel10282417163D

 34 36  0  0  0  0  0  0  0  0999 V2000
    0.2942    0.6845   -0.0054 C   0  0  0  0  0  0  0  0  0  0  0  0
   -0.9080    1.4033   -0.0067 C   0  0  0  0  0  0  0  0  0  0  0  0
   -2.1169    0.6984   -0.0125 C   0  0  0  0  0  0  0  0  0  0  0  0
   -3.3392    1.4579    0.0180 C   0  0  0  0  0  0  0  0  0  0  0  0
   -2.1342   -0.7224   -0.0363 C   0  0  0  0  0  0  0  0  0  0  0  0
   -5.6593   -1.7120   -0.9263 C   0  0  0  0  0  0  0  0  0  0  0  0
   -5.0319   -2.9140    1.0683 C   0  0  0  0  0  0  0  0  0  0  0  0
    0.2777   -0.7091   -0.0210 C   0  0  0  0  0  0  0  0  0  0  0  0
    2.1890   -2.3753    0.0180 C   0  0  0  0  0  0  0  0  0  0  0  0
    1.6150   -1.0520    0.0013 N   0  0  0  0  0  0  0  0  0  0  0  0
    2.3455    0.1013    0.0015 C   0  0  0  0  0  0  0  0  0  0  0  0
    1.5784    1.1658    0.0058 N   0  0  0  0  0  0  0  0  0  0  0  0
   -4.3481    2.0455    0.0153 N   0  0  0  0  0  0  0  0  0  0  0  0
   -3.4324   -1.4287    0.0013 C   0  0  0  0  0  0  0  0  0  0  0  0
   -4.3568   -1.2360   -1.0438 C   0  0  0  0  0  0  0  0  0  0  0  0
   -5.9904   -2.5620    0.1237 C   0  0  0  0  0  0  0  0  0  0  0  0
   -3.8039   -2.2641    1.0749 C   0  0  0  0  0  0  0  0  0  0  0  0
   -2.7960   -2.5160    2.4670 Cl  0  0  0  0  0  0  0  0  0  0  0  0
   -0.9132   -1.4675   -0.0577 C   0  0  0  0  0  0  0  0  0  0  0  0
   -0.9001   -2.9784   -0.0751 C   0  0  0  0  0  0  0  0  0  0  0  0
   -0.2531   -3.4925   -1.2689 N   0  0  0  0  0  0  0  0  0  0  0  0
   -0.8881    2.4890    0.0060 H   0  0  0  0  0  0  0  0  0  0  0  0
   -6.4142   -1.4142   -1.6500 H   0  0  0  0  0  0  0  0  0  0  0  0
   -5.2540   -3.6606    1.8239 H   0  0  0  0  0  0  0  0  0  0  0  0
    1.8196   -2.9146    0.8942 H   0  0  0  0  0  0  0  0  0  0  0  0
    1.9376   -2.8860   -0.9092 H   0  0  0  0  0  0  0  0  0  0  0  0
    3.2773   -2.3178    0.0600 H   0  0  0  0  0  0  0  0  0  0  0  0
    3.4272    0.1031   -0.0016 H   0  0  0  0  0  0  0  0  0  0  0  0
   -4.0887   -0.6528   -1.9250 H   0  0  0  0  0  0  0  0  0  0  0  0
   -7.0020   -2.9444    0.2156 H   0  0  0  0  0  0  0  0  0  0  0  0
   -0.3977   -3.3352    0.8320 H   0  0  0  0  0  0  0  0  0  0  0  0
   -1.8937   -3.4209   -0.0690 H   0  0  0  0  0  0  0  0  0  0  0  0
   -0.3090   -4.5074   -1.2650 H   0  0  0  0  0  0  0  0  0  0  0  0
   -0.7580   -3.1567   -2.0860 H   0  0  0  0  0  0  0  0  0  0  0  0
  1  2  2  0  0  0  0
  1  8  1  0  0  0  0
  1 12  1  0  0  0  0
  2  3  1  0  0  0  0
  2 22  1  0  0  0  0
  3  4  1  0  0  0  0
  3  5  2  0  0  0  0
  4 13  3  0  0  0  0
  5 14  1  0  0  0  0
  5 19  1  0  0  0  0
  6 15  2  0  0  0  0
  6 16  1  0  0  0  0
  6 23  1  0  0  0  0
  7 16  2  0  0  0  0
  7 17  1  0  0  0  0
  7 24  1  0  0  0  0
  8 10  1  0  0  0  0
  8 19  2  0  0  0  0
  9 10  1  0  0  0  0
  9 25  1  0  0  0  0
  9 26  1  0  0  0  0
  9 27  1  0  0  0  0
 10 11  1  0  0  0  0
 11 12  2  0  0  0  0
 11 28  1  0  0  0  0
 14 15  1  0  0  0  0
 14 17  2  0  0  0  0
 15 29  1  0  0  0  0
 16 30  1  0  0  0  0
 17 18  1  0  0  0  0
 19 20  1  0  0  0  0
 20 21  1  0  0  0  0
 20 31  1  0  0  0  0
 20 32  1  0  0  0  0
 21 33  1  0  0  0  0
 21 34  1  0  0  0  0
M  END
>  <DRUGBANK_ID>
DB07239

>  <COMMON_NAME>
7-(aminomethyl)-6-(2-chlorophenyl)-1-methyl-1H-benzimidazole-5-carbonitrile

$$$$
