
 OpenBabel10282417133D

 40 39  0  0  0  0  0  0  0  0999 V2000
    4.5497    1.5490   -3.9617 S   0  0  0  0  0  0  0  0  0  0  0  0
    3.0720    1.8243   -4.6945 O   0  0  0  0  0  0  0  0  0  0  0  0
    0.2075   -0.7248   -1.4007 O   0  0  0  0  0  0  0  0  0  0  0  0
    3.7566    2.8890    1.0992 O   0  0  0  0  0  0  0  0  0  0  0  0
    4.5853    3.0214   -3.8631 O   0  0  0  0  0  0  0  0  0  0  0  0
    5.3769    0.9485   -4.9935 O   0  0  0  0  0  0  0  0  0  0  0  0
    7.0003    1.4361   -1.8277 O   0  0  0  0  0  0  0  0  0  0  0  0
    6.6329    3.1851   -3.0390 O   0  0  0  0  0  0  0  0  0  0  0  0
   -0.0298    3.6578   -3.4875 O   0  0  0  0  0  0  0  0  0  0  0  0
   -0.8141    2.7928   -1.5200 O   0  0  0  0  0  0  0  0  0  0  0  0
    2.0423    0.0341   -0.2801 N   0  0  0  0  0  0  0  0  0  0  0  0
    2.0048    3.2809   -0.3703 N   0  0  0  0  0  0  0  0  0  0  0  0
    3.9545    3.5149   -1.5690 N   0  0  0  0  0  0  0  0  0  0  0  0
    3.3479    0.6899   -0.3729 C   0  0  1  0  0  0  0  0  0  0  0  0
    4.5468    0.2158   -1.9451 C   0  0  0  0  0  0  0  0  0  0  0  0
    2.2643   -0.6576   -2.4952 C   0  0  0  0  0  0  0  0  0  0  0  0
    2.8411    0.8956   -2.6429 C   0  0  0  0  0  0  0  0  0  0  0  0
    1.4046   -0.5210   -1.3378 C   0  0  0  0  0  0  0  0  0  0  0  0
    4.2878    2.1532   -1.8101 C   0  0  1  0  0  0  0  0  0  0  0  0
    2.9510    2.3706    0.2936 C   0  0  0  0  0  0  0  0  0  0  0  0
    6.1420    2.3813   -2.2533 C   0  0  0  0  0  0  0  0  0  0  0  0
    1.4884    3.0605   -1.7362 C   0  0  0  0  0  0  0  0  0  0  0  0
    0.1018    3.2033   -2.2113 C   0  0  0  0  0  0  0  0  0  0  0  0
    1.3903    0.3809    0.4268 H   0  0  0  0  0  0  0  0  0  0  0  0
    2.4366    4.2114   -0.3934 H   0  0  0  0  0  0  0  0  0  0  0  0
    3.7713    4.0169   -2.4168 H   0  0  0  0  0  0  0  0  0  0  0  0
    4.4575    3.9317   -0.7959 H   0  0  0  0  0  0  0  0  0  0  0  0
    2.3959    1.1645   -4.8992 H   0  0  0  0  0  0  0  0  0  0  0  0
    6.8162    0.9816   -0.9993 H   0  0  0  0  0  0  0  0  0  0  0  0
    0.7711    3.8979   -4.0094 H   0  0  0  0  0  0  0  0  0  0  0  0
    3.8915    0.2753    0.5100 H   0  0  0  0  0  0  0  0  0  0  0  0
    4.3343   -0.8474   -1.9693 H   0  0  0  0  0  0  0  0  0  0  0  0
    5.5015    0.0998   -1.4485 H   0  0  0  0  0  0  0  0  0  0  0  0
    2.9453   -1.5306   -2.5602 H   0  0  0  0  0  0  0  0  0  0  0  0
    1.6736   -0.9043   -3.4053 H   0  0  0  0  0  0  0  0  0  0  0  0
    3.2159    0.2650   -3.5372 H   0  0  0  0  0  0  0  0  0  0  0  0
    1.9368    1.3283   -3.0810 H   0  0  0  0  0  0  0  0  0  0  0  0
    4.7129    1.8636   -0.8171 H   0  0  0  0  0  0  0  0  0  0  0  0
    2.0797    3.3990   -2.6166 H   0  0  0  0  0  0  0  0  0  0  0  0
    1.5519    2.0144   -1.6568 H   0  0  0  0  0  0  0  0  0  0  0  0
  1  2  1  0  0  0  0
  1  5  2  0  0  0  0
  1  6  2  0  0  0  0
  1 15  1  0  0  0  0
  2 28  1  0  0  0  0
  3 18  2  0  0  0  0
  4 20  2  0  0  0  0
  7 21  1  0  0  0  0
  7 29  1  0  0  0  0
  8 21  2  0  0  0  0
  9 23  1  0  0  0  0
  9 30  1  0  0  0  0
 10 23  2  0  0  0  0
 11 18  1  0  0  0  0
 11 24  1  0  0  0  0
 12 20  1  0  0  0  0
 12 22  1  0  0  0  0
 12 25  1  0  0  0  0
 13 26  1  0  0  0  0
 13 27  1  0  0  0  0
 14 20  1  0  0  0  0
 14 31  1  1  0  0  0
 14 15  1  0  0  0  0
 14 11  1  0  0  0  0
 15 32  1  0  0  0  0
 15 33  1  0  0  0  0
 16 17  1  0  0  0  0
 16 18  1  0  0  0  0
 16 34  1  0  0  0  0
 16 35  1  0  0  0  0
 17 36  1  0  0  0  0
 17 37  1  0  0  0  0
 19 21  1  0  0  0  0
 19 38  1  1  0  0  0
 19 17  1  0  0  0  0
 19 13  1  0  0  0  0
 22 23  1  0  0  0  0
 22 39  1  0  0  0  0
 22 40  1  0  0  0  0
M  END
>  <DRUGBANK_ID>
DB03003

>  <SECONDARY_ACCESSION_NUMBERS>
EXPT01662

>  <COMMON_NAME>
Glutathione sulfonic acid

>  <CAS_NUMBER>
3773-07-7

>  <UNII>
ZU672FB3GH

$$$$
