[NO NAME]
 OpenBabel10282417143D
Created with ChemWriter - http://chemwriter.com
 58 60  0  0  0  0  0  0  0  0999 V2000
    1.2327    0.4438    0.0730 O   0  0  0  0  0  0  0  0  0  0  0  0
    2.5106   -1.8888    1.6158 N   0  0  0  0  0  0  0  0  0  0  0  0
   -2.0194    1.2962   -4.4957 C   0  0  0  0  0  0  0  0  0  0  0  0
   -3.1477    2.0860   -4.4187 C   0  0  0  0  0  0  0  0  0  0  0  0
   -1.2025    0.8318   -3.2922 C   0  0  0  0  0  0  0  0  0  0  0  0
   -3.9941    2.4833   -5.6462 C   0  0  0  0  0  0  0  0  0  0  0  0
   -1.5263    0.9371   -5.8837 C   0  0  0  0  0  0  0  0  0  0  0  0
   -3.6769    2.7334   -3.1583 C   0  0  0  0  0  0  0  0  0  0  0  0
    0.0727    0.2764   -3.4415 C   0  0  0  0  0  0  0  0  0  0  0  0
   -1.6382    0.9631   -1.9687 C   0  0  0  0  0  0  0  0  0  0  0  0
   -5.3852    1.8681   -5.7315 C   0  0  0  0  0  0  0  0  0  0  0  0
    0.5298    0.4872   -1.0829 C   0  0  0  0  0  0  0  0  0  0  0  0
    0.9136    0.0374   -2.3442 C   0  0  0  0  0  0  0  0  0  0  0  0
   -0.7403    0.9745   -0.9115 C   0  0  0  0  0  0  0  0  0  0  0  0
   -1.4048   -0.4102   -6.2536 C   0  0  0  0  0  0  0  0  0  0  0  0
   -1.1449    1.9199   -6.8206 C   0  0  0  0  0  0  0  0  0  0  0  0
   -2.8407    3.4985   -2.3243 C   0  0  0  0  0  0  0  0  0  0  0  0
   -4.9926    2.5307   -2.7118 C   0  0  0  0  0  0  0  0  0  0  0  0
    2.9969   -0.5063    1.3817 C   0  0  0  0  0  0  0  0  0  0  0  0
    2.6029    0.0888    0.0220 C   0  0  0  0  0  0  0  0  0  0  0  0
   -0.9376   -0.7714   -7.5224 C   0  0  0  0  0  0  0  0  0  0  0  0
   -0.7721    1.5613   -8.1208 C   0  0  0  0  0  0  0  0  0  0  0  0
   -3.2692    3.8991   -1.0496 C   0  0  0  0  0  0  0  0  0  0  0  0
   -5.4832    3.1321   -1.5506 C   0  0  0  0  0  0  0  0  0  0  0  0
   -0.6414    0.2202   -8.4513 C   0  0  0  0  0  0  0  0  0  0  0  0
   -4.6025    3.7580   -0.6829 C   0  0  0  0  0  0  0  0  0  0  0  0
    3.0288   -2.3794    2.8945 C   0  0  0  0  0  0  0  0  0  0  0  0
    1.0446   -1.9657    1.6415 C   0  0  0  0  0  0  0  0  0  0  0  0
   -0.1990   -0.0850   -9.7044 O   0  0  0  0  0  0  0  0  0  0  0  0
   -4.0581    3.5770   -5.6982 H   0  0  0  0  0  0  0  0  0  0  0  0
   -3.5261    2.1880   -6.5847 H   0  0  0  0  0  0  0  0  0  0  0  0
    0.4605    0.0011   -4.4214 H   0  0  0  0  0  0  0  0  0  0  0  0
   -2.6652    1.1553   -1.7118 H   0  0  0  0  0  0  0  0  0  0  0  0
   -6.0819    2.3329   -5.0347 H   0  0  0  0  0  0  0  0  0  0  0  0
   -5.8200    2.0472   -6.7180 H   0  0  0  0  0  0  0  0  0  0  0  0
   -5.3499    0.7881   -5.5549 H   0  0  0  0  0  0  0  0  0  0  0  0
    1.8462   -0.4741   -2.5239 H   0  0  0  0  0  0  0  0  0  0  0  0
   -1.0574    1.3617    0.0576 H   0  0  0  0  0  0  0  0  0  0  0  0
   -1.6466   -1.1901   -5.5348 H   0  0  0  0  0  0  0  0  0  0  0  0
   -1.1882    2.9765   -6.5633 H   0  0  0  0  0  0  0  0  0  0  0  0
   -1.7900    3.6287   -2.5792 H   0  0  0  0  0  0  0  0  0  0  0  0
   -5.6655    1.8486   -3.2163 H   0  0  0  0  0  0  0  0  0  0  0  0
    4.0933   -0.5186    1.4070 H   0  0  0  0  0  0  0  0  0  0  0  0
    2.6492    0.1561    2.1850 H   0  0  0  0  0  0  0  0  0  0  0  0
    2.8556   -0.6279   -0.7635 H   0  0  0  0  0  0  0  0  0  0  0  0
    3.1552    1.0183   -0.1500 H   0  0  0  0  0  0  0  0  0  0  0  0
   -0.8282   -1.8229   -7.7649 H   0  0  0  0  0  0  0  0  0  0  0  0
   -0.5857    2.3251   -8.8716 H   0  0  0  0  0  0  0  0  0  0  0  0
   -2.5468    4.2802   -0.3321 H   0  0  0  0  0  0  0  0  0  0  0  0
   -6.5391    3.0542   -1.3070 H   0  0  0  0  0  0  0  0  0  0  0  0
   -4.9498    4.1016    0.2870 H   0  0  0  0  0  0  0  0  0  0  0  0
    2.6891   -1.7642    3.7358 H   0  0  0  0  0  0  0  0  0  0  0  0
    2.7024   -3.4108    3.0685 H   0  0  0  0  0  0  0  0  0  0  0  0
    4.1235   -2.3913    2.8900 H   0  0  0  0  0  0  0  0  0  0  0  0
    0.6109   -1.2807    2.3795 H   0  0  0  0  0  0  0  0  0  0  0  0
    0.6094   -1.7593    0.6614 H   0  0  0  0  0  0  0  0  0  0  0  0
    0.7136   -2.9825    1.8812 H   0  0  0  0  0  0  0  0  0  0  0  0
    0.0016   -1.0345   -9.7410 H   0  0  0  0  0  0  0  0  0  0  0  0
  1 12  1  0  0  0  0
  1 20  1  0  0  0  0
  2 19  1  0  0  0  0
  2 27  1  0  0  0  0
  2 28  1  0  0  0  0
  3  4  2  0  0  0  0
  3  5  1  0  0  0  0
  3  7  1  0  0  0  0
  4  6  1  0  0  0  0
  4  8  1  0  0  0  0
  5  9  2  0  0  0  0
  5 10  1  0  0  0  0
  6 11  1  0  0  0  0
  6 30  1  0  0  0  0
  6 31  1  0  0  0  0
  7 15  2  0  0  0  0
  7 16  1  0  0  0  0
  8 17  2  0  0  0  0
  8 18  1  0  0  0  0
  9 13  1  0  0  0  0
  9 32  1  0  0  0  0
 10 14  2  0  0  0  0
 10 33  1  0  0  0  0
 11 34  1  0  0  0  0
 11 35  1  0  0  0  0
 11 36  1  0  0  0  0
 12 13  2  0  0  0  0
 12 14  1  0  0  0  0
 13 37  1  0  0  0  0
 14 38  1  0  0  0  0
 15 21  1  0  0  0  0
 15 39  1  0  0  0  0
 16 22  2  0  0  0  0
 16 40  1  0  0  0  0
 17 23  1  0  0  0  0
 17 41  1  0  0  0  0
 18 24  2  0  0  0  0
 18 42  1  0  0  0  0
 19 20  1  0  0  0  0
 19 43  1  0  0  0  0
 19 44  1  0  0  0  0
 20 45  1  0  0  0  0
 20 46  1  0  0  0  0
 21 25  2  0  0  0  0
 21 47  1  0  0  0  0
 22 25  1  0  0  0  0
 22 48  1  0  0  0  0
 23 26  2  0  0  0  0
 23 49  1  0  0  0  0
 24 26  1  0  0  0  0
 24 50  1  0  0  0  0
 25 29  1  0  0  0  0
 26 51  1  0  0  0  0
 27 52  1  0  0  0  0
 27 53  1  0  0  0  0
 27 54  1  0  0  0  0
 28 55  1  0  0  0  0
 28 56  1  0  0  0  0
 28 57  1  0  0  0  0
 29 58  1  0  0  0  0
M  END
>  <DRUGBANK_ID>
DB04468

>  <SECONDARY_ACCESSION_NUMBERS>
EXPT02425

>  <COMMON_NAME>
Afimoxifene

>  <CAS_NUMBER>
68392-35-8

>  <UNII>
95K54647BZ

>  <SYNONYMS>
4-hydroxytamoxifen; 4-monohydroxytamoxifen; 4-OHT; Afimoxifene

$$$$
