NC7
 OpenBabel10282417173D

 45 45  0  0  0  0  0  0  0  0999 V2000
   -1.4324    0.3266   -0.2925 C   0  0  0  0  0  0  0  0  0  0  0  0
   -1.6235    0.3574   -1.7453 N   0  0  0  0  0  0  0  0  0  0  0  0
   -2.8473    0.6392   -2.2886 C   0  0  0  0  0  0  0  0  0  0  0  0
   -2.8654    0.6376   -3.6540 N   0  0  0  0  0  0  0  0  0  0  0  0
   -4.0898    0.9471   -4.3742 C   0  0  0  0  0  0  0  0  0  0  0  0
   -3.9106    2.1563   -5.2886 C   0  0  0  0  0  0  0  0  0  0  0  0
   -2.8828    1.8859   -6.3896 C   0  0  0  0  0  0  0  0  0  0  0  0
   -3.3025    0.7175   -7.2909 C   0  0  0  0  0  0  0  0  0  0  0  0
   -4.5892    1.0121   -8.0743 C   0  0  0  0  0  0  0  0  0  0  0  0
   -3.8419    0.8807   -1.6156 O   0  0  0  0  0  0  0  0  0  0  0  0
   -4.4681    2.2412   -8.9777 C   0  0  0  0  0  0  0  0  0  0  0  0
   -3.3650    2.0749  -10.0018 C   0  0  0  0  0  0  0  0  0  0  0  0
   -3.7789    2.1166  -11.2817 O   0  0  0  0  0  0  0  0  0  0  0  0
   -2.1817    1.9193   -9.7226 O   0  0  0  0  0  0  0  0  0  0  0  0
   -0.9951   -1.0619    0.1889 C   0  0  0  0  0  0  0  0  0  0  0  0
    0.4316   -1.3950   -0.2416 C   0  0  0  0  0  0  0  0  0  0  0  0
    1.4178   -0.3279    0.2256 C   0  0  0  0  0  0  0  0  0  0  0  0
    1.0010    1.0649   -0.2401 C   0  0  0  0  0  0  0  0  0  0  0  0
   -0.4324    1.3924    0.1739 C   0  0  0  0  0  0  0  0  0  0  0  0
   -2.3948    0.5506    0.1818 H   0  0  0  0  0  0  0  0  0  0  0  0
   -0.8363    0.1827   -2.3516 H   0  0  0  0  0  0  0  0  0  0  0  0
   -2.0379    0.3859   -4.1746 H   0  0  0  0  0  0  0  0  0  0  0  0
   -4.3852    0.0532   -4.9314 H   0  0  0  0  0  0  0  0  0  0  0  0
   -4.9105    1.1468   -3.6801 H   0  0  0  0  0  0  0  0  0  0  0  0
   -4.8780    2.4233   -5.7317 H   0  0  0  0  0  0  0  0  0  0  0  0
   -3.6015    3.0307   -4.7048 H   0  0  0  0  0  0  0  0  0  0  0  0
   -2.7311    2.7991   -6.9755 H   0  0  0  0  0  0  0  0  0  0  0  0
   -1.9038    1.6717   -5.9482 H   0  0  0  0  0  0  0  0  0  0  0  0
   -2.4833    0.4695   -7.9699 H   0  0  0  0  0  0  0  0  0  0  0  0
   -3.4327   -0.2008   -6.7103 H   0  0  0  0  0  0  0  0  0  0  0  0
   -4.8581    0.1327   -8.6699 H   0  0  0  0  0  0  0  0  0  0  0  0
   -5.4241    1.1588   -7.3764 H   0  0  0  0  0  0  0  0  0  0  0  0
   -5.4295    2.4279   -9.4669 H   0  0  0  0  0  0  0  0  0  0  0  0
   -4.2595    3.1488   -8.4004 H   0  0  0  0  0  0  0  0  0  0  0  0
   -4.7296    2.2885  -11.4021 H   0  0  0  0  0  0  0  0  0  0  0  0
   -1.0440   -1.0862    1.2864 H   0  0  0  0  0  0  0  0  0  0  0  0
   -1.6848   -1.8313   -0.1756 H   0  0  0  0  0  0  0  0  0  0  0  0
    0.7221   -2.3699    0.1648 H   0  0  0  0  0  0  0  0  0  0  0  0
    0.4757   -1.4794   -1.3336 H   0  0  0  0  0  0  0  0  0  0  0  0
    1.4812   -0.3436    1.3212 H   0  0  0  0  0  0  0  0  0  0  0  0
    2.4189   -0.5593   -0.1547 H   0  0  0  0  0  0  0  0  0  0  0  0
    1.6852    1.8122    0.1771 H   0  0  0  0  0  0  0  0  0  0  0  0
    1.0896    1.1261   -1.3308 H   0  0  0  0  0  0  0  0  0  0  0  0
   -0.7142    2.3797   -0.2089 H   0  0  0  0  0  0  0  0  0  0  0  0
   -0.4719    1.4549    1.2704 H   0  0  0  0  0  0  0  0  0  0  0  0
  1  2  1  0  0  0  0
  1 15  1  0  0  0  0
  1 19  1  0  0  0  0
  1 20  1  0  0  0  0
  2  3  1  0  0  0  0
  2 21  1  0  0  0  0
  3  4  1  0  0  0  0
  3 10  2  0  0  0  0
  4  5  1  0  0  0  0
  4 22  1  0  0  0  0
  5  6  1  0  0  0  0
  5 23  1  0  0  0  0
  5 24  1  0  0  0  0
  6  7  1  0  0  0  0
  6 25  1  0  0  0  0
  6 26  1  0  0  0  0
  7  8  1  0  0  0  0
  7 27  1  0  0  0  0
  7 28  1  0  0  0  0
  8  9  1  0  0  0  0
  8 29  1  0  0  0  0
  8 30  1  0  0  0  0
  9 11  1  0  0  0  0
  9 31  1  0  0  0  0
  9 32  1  0  0  0  0
 11 12  1  0  0  0  0
 11 33  1  0  0  0  0
 11 34  1  0  0  0  0
 12 13  1  0  0  0  0
 12 14  2  0  0  0  0
 13 35  1  0  0  0  0
 15 16  1  0  0  0  0
 15 36  1  0  0  0  0
 15 37  1  0  0  0  0
 16 17  1  0  0  0  0
 16 38  1  0  0  0  0
 16 39  1  0  0  0  0
 17 18  1  0  0  0  0
 17 40  1  0  0  0  0
 17 41  1  0  0  0  0
 18 19  1  0  0  0  0
 18 42  1  0  0  0  0
 18 43  1  0  0  0  0
 19 44  1  0  0  0  0
 19 45  1  0  0  0  0
M  END
>  <DRUGBANK_ID>
DB08259

>  <COMMON_NAME>
7-{[(CYCLOHEXYLAMINO)CARBONYL]AMINO}HEPTANOIC ACID

$$$$
