D23
 OpenBabel10282417163D

 45 47  0  0  0  0  0  0  0  0999 V2000
    0.2614    1.1856   -0.0215 C   0  0  0  0  0  0  0  0  0  0  0  0
    0.9676   -0.0158    0.0047 C   0  0  0  0  0  0  0  0  0  0  0  0
    0.2523   -1.2145   -0.0026 C   0  0  0  0  0  0  0  0  0  0  0  0
   -1.1435   -1.2171   -0.0010 C   0  0  0  0  0  0  0  0  0  0  0  0
   -1.8374   -0.0114   -0.0043 C   0  0  0  0  0  0  0  0  0  0  0  0
   -1.1408    1.2049   -0.0191 C   0  0  0  0  0  0  0  0  0  0  0  0
    2.3489   -0.0121   -0.0714 N   0  0  0  0  0  0  0  0  0  0  0  0
   -1.8585    2.4750   -0.0073 C   0  0  0  0  0  0  0  0  0  0  0  0
   -1.6987    3.4092   -1.0350 C   0  0  0  0  0  0  0  0  0  0  0  0
   -2.3995    4.6118   -1.0057 C   0  0  0  0  0  0  0  0  0  0  0  0
   -3.2641    4.9167    0.0241 C   0  0  0  0  0  0  0  0  0  0  0  0
   -3.4277    3.9974    1.0865 C   0  0  0  0  0  0  0  0  0  0  0  0
   -2.7163    2.7834    1.0517 C   0  0  0  0  0  0  0  0  0  0  0  0
   -3.9043    6.0786   -0.0521 N   0  0  0  0  0  0  0  0  0  0  0  0
   -4.7478    6.3669    0.9452 C   0  0  0  0  0  0  0  0  0  0  0  0
   -4.9378    5.5469    1.9936 N   0  0  0  0  0  0  0  0  0  0  0  0
   -4.3008    4.3831    2.1009 C   0  0  0  0  0  0  0  0  0  0  0  0
   -4.5764    3.5986    3.2122 N   0  0  0  0  0  0  0  0  0  0  0  0
   -5.4695    3.9417    4.3394 C   0  0  0  0  0  0  0  0  0  0  0  0
   -6.5290    2.8347    4.4597 C   0  0  0  0  0  0  0  0  0  0  0  0
   -4.6502    3.9817    5.6405 C   0  0  0  0  0  0  0  0  0  0  0  0
   -6.2020    5.2817    4.2057 C   0  0  0  0  0  0  0  0  0  0  0  0
   -5.5498    7.6660    0.9385 C   0  0  0  0  0  0  0  0  0  0  0  0
   -6.9027    7.4580    0.9517 F   0  0  0  0  0  0  0  0  0  0  0  0
   -5.2947    8.4543    2.0279 F   0  0  0  0  0  0  0  0  0  0  0  0
   -5.3173    8.4625   -0.1469 F   0  0  0  0  0  0  0  0  0  0  0  0
    0.8056    2.1277   -0.0254 H   0  0  0  0  0  0  0  0  0  0  0  0
    0.7797   -2.1637   -0.0054 H   0  0  0  0  0  0  0  0  0  0  0  0
   -1.6886   -2.1568   -0.0028 H   0  0  0  0  0  0  0  0  0  0  0  0
   -2.9258   -0.0217   -0.0058 H   0  0  0  0  0  0  0  0  0  0  0  0
    2.8619   -0.8762    0.0342 H   0  0  0  0  0  0  0  0  0  0  0  0
    2.8556    0.8572    0.0324 H   0  0  0  0  0  0  0  0  0  0  0  0
   -1.0368    3.2024   -1.8724 H   0  0  0  0  0  0  0  0  0  0  0  0
   -2.2687    5.3276   -1.8168 H   0  0  0  0  0  0  0  0  0  0  0  0
   -2.8198    2.0615    1.8589 H   0  0  0  0  0  0  0  0  0  0  0  0
   -4.0415    2.7502    3.3311 H   0  0  0  0  0  0  0  0  0  0  0  0
   -6.0769    1.8596    4.6735 H   0  0  0  0  0  0  0  0  0  0  0  0
   -7.2336    3.0586    5.2695 H   0  0  0  0  0  0  0  0  0  0  0  0
   -7.1043    2.7374    3.5323 H   0  0  0  0  0  0  0  0  0  0  0  0
   -3.8506    4.7286    5.5858 H   0  0  0  0  0  0  0  0  0  0  0  0
   -5.2918    4.2437    6.4916 H   0  0  0  0  0  0  0  0  0  0  0  0
   -4.1876    3.0141    5.8643 H   0  0  0  0  0  0  0  0  0  0  0  0
   -5.4883    6.1144    4.1670 H   0  0  0  0  0  0  0  0  0  0  0  0
   -6.8343    5.2926    3.3095 H   0  0  0  0  0  0  0  0  0  0  0  0
   -6.8618    5.4835    5.0521 H   0  0  0  0  0  0  0  0  0  0  0  0
  1  2  2  0  0  0  0
  1  6  1  0  0  0  0
  1 27  1  0  0  0  0
  2  3  1  0  0  0  0
  2  7  1  0  0  0  0
  3  4  2  0  0  0  0
  3 28  1  0  0  0  0
  4  5  1  0  0  0  0
  4 29  1  0  0  0  0
  5  6  2  0  0  0  0
  5 30  1  0  0  0  0
  6  8  1  0  0  0  0
  7 31  1  0  0  0  0
  7 32  1  0  0  0  0
  8  9  1  0  0  0  0
  8 13  2  0  0  0  0
  9 10  2  0  0  0  0
  9 33  1  0  0  0  0
 10 11  1  0  0  0  0
 10 34  1  0  0  0  0
 11 12  2  0  0  0  0
 11 14  1  0  0  0  0
 12 13  1  0  0  0  0
 12 17  1  0  0  0  0
 13 35  1  0  0  0  0
 14 15  2  0  0  0  0
 15 16  1  0  0  0  0
 15 23  1  0  0  0  0
 16 17  2  0  0  0  0
 17 18  1  0  0  0  0
 18 19  1  0  0  0  0
 18 36  1  0  0  0  0
 19 20  1  0  0  0  0
 19 21  1  0  0  0  0
 19 22  1  0  0  0  0
 20 37  1  0  0  0  0
 20 38  1  0  0  0  0
 20 39  1  0  0  0  0
 21 40  1  0  0  0  0
 21 41  1  0  0  0  0
 21 42  1  0  0  0  0
 22 43  1  0  0  0  0
 22 44  1  0  0  0  0
 22 45  1  0  0  0  0
 23 24  1  0  0  0  0
 23 25  1  0  0  0  0
 23 26  1  0  0  0  0
M  END
>  <DRUGBANK_ID>
DB07612

>  <COMMON_NAME>
6-(3-AMINOPHENYL)-N-(TERT-BUTYL)-2-(TRIFLUOROMETHYL)QUINAZOLIN-4-AMINE

$$$$
