
 OpenBabel10282417153D

 41 43  0  0  0  0  0  0  0  0999 V2000
   -1.1599    0.4769   -0.0681 N   0  0  0  0  0  0  0  0  0  0  0  0
   -0.2113    0.5433    1.0650 C   0  0  1  0  0  0  0  0  0  0  0  0
    0.4618   -0.8525    1.2797 C   0  0  1  0  0  0  0  0  0  0  0  0
    1.1021   -1.4697   -0.0058 C   0  0  2  0  0  0  0  0  0  0  0  0
    0.3508   -1.0623   -1.2952 C   0  0  0  0  0  0  0  0  0  0  0  0
   -0.3093    0.3263   -1.2481 C   0  0  2  0  0  0  0  0  0  0  0  0
    0.6923    1.4505   -1.0092 C   0  0  0  0  0  0  0  0  0  0  0  0
    0.5574    1.7432    0.4787 C   0  0  0  0  0  0  0  0  0  0  0  0
    1.2738   -2.9990    0.0456 C   0  0  0  0  0  0  0  0  0  0  0  0
    0.7555   -3.7989    1.0766 C   0  0  0  0  0  0  0  0  0  0  0  0
    0.9239   -5.1814    1.1082 C   0  0  0  0  0  0  0  0  0  0  0  0
    1.6325   -5.8088    0.0793 C   0  0  0  0  0  0  0  0  0  0  0  0
    2.1513   -5.0390   -0.9596 C   0  0  0  0  0  0  0  0  0  0  0  0
    1.9861   -3.6513   -0.9810 C   0  0  0  0  0  0  0  0  0  0  0  0
    1.8932   -7.5124    0.0553 Cl  0  0  0  0  0  0  0  0  0  0  0  0
    0.2278   -6.0422    2.4337 Cl  0  0  0  0  0  0  0  0  0  0  0  0
    1.4321   -1.0233    2.4913 C   0  0  0  0  0  0  0  0  0  0  0  0
    1.9196    0.1933    3.0246 O   0  0  0  0  0  0  0  0  0  0  0  0
    2.8551    0.7898    2.1458 C   0  0  0  0  0  0  0  0  0  0  0  0
   -2.2779   -0.4352    0.0108 C   0  0  0  0  0  0  0  0  0  0  0  0
   -0.7153    0.8394    1.9923 H   0  0  0  0  0  0  0  0  0  0  0  0
   -0.3901   -1.4954    1.5369 H   0  0  0  0  0  0  0  0  0  0  0  0
    2.1209   -1.0687   -0.0914 H   0  0  0  0  0  0  0  0  0  0  0  0
   -0.4186   -1.8101   -1.5233 H   0  0  0  0  0  0  0  0  0  0  0  0
    1.0520   -1.0946   -2.1400 H   0  0  0  0  0  0  0  0  0  0  0  0
   -0.8520    0.5113   -2.1803 H   0  0  0  0  0  0  0  0  0  0  0  0
    1.7153    1.1559   -1.2682 H   0  0  0  0  0  0  0  0  0  0  0  0
    0.4479    2.3599   -1.5688 H   0  0  0  0  0  0  0  0  0  0  0  0
   -0.0354    2.6512    0.6603 H   0  0  0  0  0  0  0  0  0  0  0  0
    1.5243    2.0560    0.8369 H   0  0  0  0  0  0  0  0  0  0  0  0
    0.1983   -3.3665    1.9079 H   0  0  0  0  0  0  0  0  0  0  0  0
    2.6956   -5.5208   -1.7744 H   0  0  0  0  0  0  0  0  0  0  0  0
    2.4098   -3.0820   -1.8039 H   0  0  0  0  0  0  0  0  0  0  0  0
    0.9155   -1.5504    3.3052 H   0  0  0  0  0  0  0  0  0  0  0  0
    2.2947   -1.6586    2.2450 H   0  0  0  0  0  0  0  0  0  0  0  0
    3.8633    0.4053    2.2616 H   0  0  0  0  0  0  0  0  0  0  0  0
    2.5965    0.5674    1.1120 H   0  0  0  0  0  0  0  0  0  0  0  0
    2.8274    1.8677    2.3237 H   0  0  0  0  0  0  0  0  0  0  0  0
   -1.9986   -1.4913    0.0460 H   0  0  0  0  0  0  0  0  0  0  0  0
   -2.8919   -0.2115    0.8875 H   0  0  0  0  0  0  0  0  0  0  0  0
   -2.9146   -0.2924   -0.8695 H   0  0  0  0  0  0  0  0  0  0  0  0
  2  1  1  0  0  0  0
  2 21  1  1  0  0  0
  3  2  1  0  0  0  0
  3 22  1  1  0  0  0
  3 17  1  0  0  0  0
  4  3  1  0  0  0  0
  4  5  1  0  0  0  0
  4  9  1  0  0  0  0
  4 23  1  6  0  0  0
  5  6  1  0  0  0  0
  5 24  1  0  0  0  0
  5 25  1  0  0  0  0
  6  1  1  0  0  0  0
  6 26  1  6  0  0  0
  7  6  1  0  0  0  0
  7 27  1  0  0  0  0
  7 28  1  0  0  0  0
  8  7  1  0  0  0  0
  8  2  1  0  0  0  0
  8 29  1  0  0  0  0
  8 30  1  0  0  0  0
 10  9  2  0  0  0  0
 10 31  1  0  0  0  0
 11 10  1  0  0  0  0
 12 11  2  0  0  0  0
 12 13  1  0  0  0  0
 13 14  2  0  0  0  0
 13 32  1  0  0  0  0
 14  9  1  0  0  0  0
 14 33  1  0  0  0  0
 15 12  1  0  0  0  0
 16 11  1  0  0  0  0
 17 34  1  0  0  0  0
 17 35  1  0  0  0  0
 18 17  1  0  0  0  0
 19 18  1  0  0  0  0
 19 36  1  0  0  0  0
 19 37  1  0  0  0  0
 19 38  1  0  0  0  0
 20  1  1  0  0  0  0
 20 39  1  0  0  0  0
 20 40  1  0  0  0  0
 20 41  1  0  0  0  0
M  END
>  <DRUGBANK_ID>
DB05805

>  <COMMON_NAME>
NS-2359

>  <CAS_NUMBER>
195875-68-4

>  <UNII>
76H76554PA

$$$$
