Betulinic acid
 OpenBabel10282417193D

 81 85  0  0  1  0  0  0  0  0999 V2000
   -1.2283   -0.4040   -0.1524 O   0  0  0  0  0  0  0  0  0  0  0  0
    3.1796    1.0517    7.3331 O   0  0  0  0  0  0  0  0  0  0  0  0
    3.4148    3.0616    6.4894 O   0  0  0  0  0  0  0  0  0  0  0  0
    0.3364    2.8988    4.4955 C   0  0  1  0  0  0  0  0  0  0  0  0
   -0.1820    3.1057    5.8620 C   0  0  1  0  0  0  0  0  0  0  0  0
    0.4037    0.8843    4.5555 C   0  0  1  0  0  0  0  0  0  0  0  0
    0.5250    1.5420    6.9533 C   0  0  1  0  0  0  0  0  0  0  0  0
    0.4649   -0.0491    3.3158 C   0  0  2  0  0  0  0  0  0  0  0  0
    1.5837    1.7879    8.6020 C   0  0  2  0  0  0  0  0  0  0  0  0
    0.1864    1.5400    2.2733 C   0  0  1  0  0  0  0  0  0  0  0  0
    1.0443    2.9886    8.1982 C   0  0  1  0  0  0  0  0  0  0  0  0
   -0.6962    3.5947    3.4707 C   0  0  0  0  0  0  0  0  0  0  0  0
    0.7961   -0.4003    5.7639 C   0  0  0  0  0  0  0  0  0  0  0  0
    0.6745    3.9705    6.6299 C   0  0  0  0  0  0  0  0  0  0  0  0
    0.0417   -0.0158    6.9866 C   0  0  0  0  0  0  0  0  0  0  0  0
    0.1479    3.1426    2.3893 C   0  0  0  0  0  0  0  0  0  0  0  0
   -0.2269    3.3632    7.6447 C   0  0  0  0  0  0  0  0  0  0  0  0
    0.2030    1.6260    0.7018 C   0  0  0  0  0  0  0  0  0  0  0  0
    2.4936    3.5418    9.1869 C   0  0  1  0  0  0  0  0  0  0  0  0
   -0.4216   -1.0952    2.5557 C   0  0  0  0  0  0  0  0  0  0  0  0
    1.3403    4.5440    4.2825 C   0  0  0  0  0  0  0  0  0  0  0  0
   -1.1112    4.7678    5.9234 C   0  0  0  0  0  0  0  0  0  0  0  0
    0.5632    3.2206    9.6969 C   0  0  0  0  0  0  0  0  0  0  0  0
    1.2696    4.4759    9.6344 C   0  0  0  0  0  0  0  0  0  0  0  0
    1.3523   -1.7856    3.4980 C   0  0  0  0  0  0  0  0  0  0  0  0
   -0.5424    0.2955    0.8818 C   0  0  2  0  0  0  0  0  0  0  0  0
    0.5256   -0.6754    1.4242 C   0  0  0  0  0  0  0  0  0  0  0  0
    2.7168    2.3870    7.2343 C   0  0  0  0  0  0  0  0  0  0  0  0
    1.6666    2.3244    0.6694 C   0  0  0  0  0  0  0  0  0  0  0  0
    0.4630    1.1574   -0.7233 C   0  0  0  0  0  0  0  0  0  0  0  0
    3.8814    4.5147    9.3604 C   0  0  0  0  0  0  0  0  0  0  0  0
    4.2746    4.9691   10.7426 C   0  0  0  0  0  0  0  0  0  0  0  0
    4.5350    5.2908    8.4262 C   0  0  0  0  0  0  0  0  0  0  0  0
   -0.6806    0.8031    4.7666 H   0  0  0  0  0  0  0  0  0  0  0  0
    1.3619    1.4114    6.2640 H   0  0  0  0  0  0  0  0  0  0  0  0
    0.9468    1.2229    9.2919 H   0  0  0  0  0  0  0  0  0  0  0  0
   -0.8753    1.5620    2.6585 H   0  0  0  0  0  0  0  0  0  0  0  0
    2.6423    4.0233    8.2019 H   0  0  0  0  0  0  0  0  0  0  0  0
   -1.4649    0.4736    1.5094 H   0  0  0  0  0  0  0  0  0  0  0  0
   -0.6884   -1.2009   -0.2787 H   0  0  0  0  0  0  0  0  0  0  0  0
    2.6452    0.3263    7.7164 H   0  0  0  0  0  0  0  0  0  0  0  0
   -0.6839    4.7128    3.4668 H   0  0  0  0  0  0  0  0  0  0  0  0
   -1.6878    3.4881    3.0027 H   0  0  0  0  0  0  0  0  0  0  0  0
    1.7300   -0.9579    6.0860 H   0  0  0  0  0  0  0  0  0  0  0  0
    0.3472   -1.2951    5.3624 H   0  0  0  0  0  0  0  0  0  0  0  0
    0.9661    4.9946    6.9167 H   0  0  0  0  0  0  0  0  0  0  0  0
    1.6142    3.7070    6.1896 H   0  0  0  0  0  0  0  0  0  0  0  0
    0.4270   -0.6095    7.8513 H   0  0  0  0  0  0  0  0  0  0  0  0
   -0.9644   -0.4646    6.8211 H   0  0  0  0  0  0  0  0  0  0  0  0
    1.0837    3.6649    2.4611 H   0  0  0  0  0  0  0  0  0  0  0  0
   -0.2610    3.6384    1.4949 H   0  0  0  0  0  0  0  0  0  0  0  0
   -0.9313    4.0349    8.1385 H   0  0  0  0  0  0  0  0  0  0  0  0
   -1.0579    2.5679    7.4144 H   0  0  0  0  0  0  0  0  0  0  0  0
   -0.5841   -2.1027    2.9978 H   0  0  0  0  0  0  0  0  0  0  0  0
   -1.2987   -1.2951    1.9252 H   0  0  0  0  0  0  0  0  0  0  0  0
    0.7046    5.3972    4.6664 H   0  0  0  0  0  0  0  0  0  0  0  0
    2.2619    4.7952    4.8186 H   0  0  0  0  0  0  0  0  0  0  0  0
    1.4069    5.0875    3.3004 H   0  0  0  0  0  0  0  0  0  0  0  0
   -1.3303    5.3051    4.9902 H   0  0  0  0  0  0  0  0  0  0  0  0
   -2.0442    4.7867    6.4752 H   0  0  0  0  0  0  0  0  0  0  0  0
   -0.5322    5.6537    6.3558 H   0  0  0  0  0  0  0  0  0  0  0  0
    0.9903    2.7113   10.5724 H   0  0  0  0  0  0  0  0  0  0  0  0
   -0.5034    2.9350    9.7827 H   0  0  0  0  0  0  0  0  0  0  0  0
    1.3653    5.0784   10.5171 H   0  0  0  0  0  0  0  0  0  0  0  0
    0.8303    5.1313    8.8604 H   0  0  0  0  0  0  0  0  0  0  0  0
    2.4321   -1.8852    3.4910 H   0  0  0  0  0  0  0  0  0  0  0  0
    0.9828   -2.4973    4.3190 H   0  0  0  0  0  0  0  0  0  0  0  0
    1.0708   -2.6196    2.7356 H   0  0  0  0  0  0  0  0  0  0  0  0
    1.4991   -0.1587    1.7495 H   0  0  0  0  0  0  0  0  0  0  0  0
    1.0187   -1.3131    0.7061 H   0  0  0  0  0  0  0  0  0  0  0  0
    2.4600    1.6141    0.8387 H   0  0  0  0  0  0  0  0  0  0  0  0
    1.6863    2.9808   -0.2147 H   0  0  0  0  0  0  0  0  0  0  0  0
    2.0149    3.1508    1.2912 H   0  0  0  0  0  0  0  0  0  0  0  0
   -0.4404    1.3952   -1.2918 H   0  0  0  0  0  0  0  0  0  0  0  0
    1.2974    1.5824   -1.2660 H   0  0  0  0  0  0  0  0  0  0  0  0
    0.7712    0.1140   -0.7979 H   0  0  0  0  0  0  0  0  0  0  0  0
    5.3098    4.6710   10.9339 H   0  0  0  0  0  0  0  0  0  0  0  0
    4.2479    6.0714   10.8516 H   0  0  0  0  0  0  0  0  0  0  0  0
    3.6034    4.5532   11.4837 H   0  0  0  0  0  0  0  0  0  0  0  0
    4.3772    5.3546    7.3488 H   0  0  0  0  0  0  0  0  0  0  0  0
    5.3222    6.0074    8.7241 H   0  0  0  0  0  0  0  0  0  0  0  0
  1 40  1  0  0  0  0
  2 28  1  0  0  0  0
  2 41  1  0  0  0  0
  3 28  2  0  0  0  0
  4  5  1  0  0  0  0
  4  6  1  0  0  0  0
  4 12  1  0  0  0  0
  4 21  1  6  0  0  0
  5  7  1  0  0  0  0
  5 14  1  0  0  0  0
  5 22  1  1  0  0  0
  6  8  1  0  0  0  0
  6 13  1  0  0  0  0
  6 34  1  1  0  0  0
  7  9  1  0  0  0  0
  7 15  1  0  0  0  0
  7 35  1  6  0  0  0
  8 10  1  0  0  0  0
  8 20  1  0  0  0  0
  8 25  1  6  0  0  0
  9 11  1  0  0  0  0
  9 19  1  0  0  0  0
  9 36  1  1  0  0  0
 10 16  1  0  0  0  0
 10 18  1  0  0  0  0
 10 37  1  1  0  0  0
 11 17  1  0  0  0  0
 11 23  1  0  0  0  0
 11 28  1  6  0  0  0
 12 16  1  0  0  0  0
 12 42  1  0  0  0  0
 12 43  1  0  0  0  0
 13 15  1  0  0  0  0
 13 44  1  0  0  0  0
 13 45  1  0  0  0  0
 14 17  1  0  0  0  0
 14 46  1  0  0  0  0
 14 47  1  0  0  0  0
 15 48  1  0  0  0  0
 15 49  1  0  0  0  0
 16 50  1  0  0  0  0
 16 51  1  0  0  0  0
 17 52  1  0  0  0  0
 17 53  1  0  0  0  0
 18 26  1  0  0  0  0
 18 29  1  0  0  0  0
 18 30  1  0  0  0  0
 19 24  1  0  0  0  0
 19 31  1  0  0  0  0
 19 38  1  6  0  0  0
 20 27  1  0  0  0  0
 20 54  1  0  0  0  0
 20 55  1  0  0  0  0
 21 56  1  0  0  0  0
 21 57  1  0  0  0  0
 21 58  1  0  0  0  0
 22 59  1  0  0  0  0
 22 60  1  0  0  0  0
 22 61  1  0  0  0  0
 23 24  1  0  0  0  0
 23 62  1  0  0  0  0
 23 63  1  0  0  0  0
 24 64  1  0  0  0  0
 24 65  1  0  0  0  0
 25 66  1  0  0  0  0
 25 67  1  0  0  0  0
 25 68  1  0  0  0  0
 26 27  1  0  0  0  0
 26 39  1  1  0  0  0
 26  1  1  0  0  0  0
 27 69  1  0  0  0  0
 27 70  1  0  0  0  0
 29 71  1  0  0  0  0
 29 72  1  0  0  0  0
 29 73  1  0  0  0  0
 30 74  1  0  0  0  0
 30 75  1  0  0  0  0
 30 76  1  0  0  0  0
 31 32  1  0  0  0  0
 31 33  2  0  0  0  0
 32 77  1  0  0  0  0
 32 78  1  0  0  0  0
 32 79  1  0  0  0  0
 33 80  1  0  0  0  0
 33 81  1  0  0  0  0
M  END
>  <DRUGBANK_ID>
DB12480

>  <SECONDARY_ACCESSION_NUMBERS>
DB05910

>  <COMMON_NAME>
Betulinic Acid

>  <CAS_NUMBER>
472-15-1

>  <UNII>
4G6A18707N

>  <SYNONYMS>
beta-betulinic acid

$$$$
