
 OpenBabel10282417243D

 63 64  0  0  1  0  0  0  0  0999 V2000
   -0.4827    1.5702    0.5396 C   0  0  0  0  0  0  0  0  0  0  0  0
   -1.4526    1.1804   -0.5708 C   0  0  0  0  0  0  0  0  0  0  0  0
   -1.7118    2.4631   -1.2834 C   0  0  0  0  0  0  0  0  0  0  0  0
   -0.9165    0.0246   -1.4892 C   0  0  2  0  0  0  0  0  0  0  0  0
    0.5605   -0.1040   -1.5390 N   0  0  0  0  0  0  0  0  0  0  0  0
   -1.4367    0.0154   -2.9842 C   0  0  0  0  0  0  0  0  0  0  0  0
   -2.2327   -0.8500   -3.3636 O   0  0  0  0  0  0  0  0  0  0  0  0
   -1.0100    0.9607   -3.9068 N   0  0  0  0  0  0  0  0  0  0  0  0
   -0.1278    2.1065   -3.6590 C   0  0  1  0  0  0  0  0  0  0  0  0
    1.1763    2.1952   -4.4323 C   0  0  0  0  0  0  0  0  0  0  0  0
    0.8364    2.4284   -5.8927 C   0  0  0  0  0  0  0  0  0  0  0  0
    2.0475    3.3421   -3.8441 C   0  0  0  0  0  0  0  0  0  0  0  0
   -0.7182    3.5161   -3.8439 C   0  0  0  0  0  0  0  0  0  0  0  0
   -0.2961    4.4493   -3.1627 O   0  0  0  0  0  0  0  0  0  0  0  0
   -1.5774    3.6956   -4.9055 O   0  0  0  0  0  0  0  0  0  0  0  0
   -2.1468    5.0493   -5.1442 C   0  0  0  0  0  0  0  0  0  0  0  0
   -3.4639    5.1469   -4.3733 C   0  0  1  0  0  0  0  0  0  0  0  0
   -3.1387    4.6621   -3.0215 C   0  0  0  0  0  0  0  0  0  0  0  0
   -2.1404    5.4926   -2.4525 O   0  0  0  0  0  0  0  0  0  0  0  0
   -4.1606    6.4001   -4.2165 O   0  0  0  0  0  0  0  0  0  0  0  0
   -3.4971    7.4879   -3.5080 C   0  0  0  0  0  0  0  0  0  0  0  0
   -3.4514    7.4734   -2.0072 N   0  0  0  0  0  0  0  0  0  0  0  0
   -3.7183    6.4905   -1.0610 C   0  0  0  0  0  0  0  0  0  0  0  0
   -2.9926    6.5473    0.0283 N   0  0  0  0  0  0  0  0  0  0  0  0
   -2.4668    7.7609   -0.0681 C   0  0  0  0  0  0  0  0  0  0  0  0
   -2.7460    8.3990   -1.2574 C   0  0  0  0  0  0  0  0  0  0  0  0
   -2.5598    9.7127   -1.5248 N   0  0  0  0  0  0  0  0  0  0  0  0
   -2.2016   10.3748   -0.4514 C   0  0  0  0  0  0  0  0  0  0  0  0
   -2.0729   11.7117   -0.4954 N   0  0  0  0  0  0  0  0  0  0  0  0
   -1.9313    9.8190    0.7844 N   0  0  0  0  0  0  0  0  0  0  0  0
   -1.9865    8.4722    1.0708 C   0  0  0  0  0  0  0  0  0  0  0  0
   -1.7775    8.0000    2.1587 O   0  0  0  0  0  0  0  0  0  0  0  0
    0.4967    1.8411    0.1219 H   0  0  0  0  0  0  0  0  0  0  0  0
   -0.3673    0.7508    1.2441 H   0  0  0  0  0  0  0  0  0  0  0  0
   -0.8180    2.4732    1.0606 H   0  0  0  0  0  0  0  0  0  0  0  0
   -2.4253    0.8870   -0.1545 H   0  0  0  0  0  0  0  0  0  0  0  0
   -0.7504    2.9156   -1.4930 H   0  0  0  0  0  0  0  0  0  0  0  0
   -2.3047    2.2064   -2.1546 H   0  0  0  0  0  0  0  0  0  0  0  0
   -2.2116    3.2507   -0.7215 H   0  0  0  0  0  0  0  0  0  0  0  0
   -1.2845   -0.9013   -1.0226 H   0  0  0  0  0  0  0  0  0  0  0  0
    0.7963   -1.0810   -1.7127 H   0  0  0  0  0  0  0  0  0  0  0  0
    0.9673    0.1060   -0.6318 H   0  0  0  0  0  0  0  0  0  0  0  0
   -1.4989    0.9089   -4.7923 H   0  0  0  0  0  0  0  0  0  0  0  0
    0.2421    1.9730   -2.6506 H   0  0  0  0  0  0  0  0  0  0  0  0
    1.7179    1.2552   -4.2987 H   0  0  0  0  0  0  0  0  0  0  0  0
    0.3560    3.3992   -6.0516 H   0  0  0  0  0  0  0  0  0  0  0  0
    1.7327    2.4277   -6.4999 H   0  0  0  0  0  0  0  0  0  0  0  0
    0.1369    1.6591   -6.2373 H   0  0  0  0  0  0  0  0  0  0  0  0
    2.2010    3.2110   -2.7622 H   0  0  0  0  0  0  0  0  0  0  0  0
    3.0056    3.4134   -4.3467 H   0  0  0  0  0  0  0  0  0  0  0  0
    1.6100    4.3390   -3.9732 H   0  0  0  0  0  0  0  0  0  0  0  0
   -1.4352    5.8361   -4.8649 H   0  0  0  0  0  0  0  0  0  0  0  0
   -2.3329    5.1745   -6.2117 H   0  0  0  0  0  0  0  0  0  0  0  0
   -4.1772    4.4151   -4.7813 H   0  0  0  0  0  0  0  0  0  0  0  0
   -4.0962    4.6143   -2.5245 H   0  0  0  0  0  0  0  0  0  0  0  0
   -2.8261    3.6540   -2.9638 H   0  0  0  0  0  0  0  0  0  0  0  0
   -1.2608    5.5106   -2.8812 H   0  0  0  0  0  0  0  0  0  0  0  0
   -2.4823    7.5967   -3.9134 H   0  0  0  0  0  0  0  0  0  0  0  0
   -4.0437    8.3962   -3.7818 H   0  0  0  0  0  0  0  0  0  0  0  0
   -4.2337    5.5652   -1.1749 H   0  0  0  0  0  0  0  0  0  0  0  0
   -2.3044   12.1745   -1.3623 H   0  0  0  0  0  0  0  0  0  0  0  0
   -1.8934   12.2561    0.3316 H   0  0  0  0  0  0  0  0  0  0  0  0
   -1.7274   10.3682    1.5954 H   0  0  0  0  0  0  0  0  0  0  0  0
  1  2  1  0  0  0  0
  1 33  1  0  0  0  0
  1 34  1  0  0  0  0
  1 35  1  0  0  0  0
  2  3  1  0  0  0  0
  2 36  1  0  0  0  0
  3 37  1  0  0  0  0
  3 38  1  0  0  0  0
  3 39  1  0  0  0  0
  4  6  1  0  0  0  0
  4 40  1  1  0  0  0
  4  5  1  0  0  0  0
  4  2  1  0  0  0  0
  5 41  1  0  0  0  0
  5 42  1  0  0  0  0
  6  7  2  0  0  0  0
  6  8  1  0  0  0  0
  8 43  1  0  0  0  0
  9  8  1  0  0  0  0
  9 10  1  0  0  0  0
  9 13  1  0  0  0  0
  9 44  1  1  0  0  0
 10 11  1  0  0  0  0
 10 12  1  0  0  0  0
 10 45  1  0  0  0  0
 11 46  1  0  0  0  0
 11 47  1  0  0  0  0
 11 48  1  0  0  0  0
 12 49  1  0  0  0  0
 12 50  1  0  0  0  0
 12 51  1  0  0  0  0
 13 14  2  0  0  0  0
 13 15  1  0  0  0  0
 15 16  1  0  0  0  0
 16 52  1  0  0  0  0
 16 53  1  0  0  0  0
 17 16  1  0  0  0  0
 17 18  1  0  0  0  0
 17 20  1  0  0  0  0
 17 54  1  6  0  0  0
 18 19  1  0  0  0  0
 18 55  1  0  0  0  0
 18 56  1  0  0  0  0
 19 57  1  0  0  0  0
 20 21  1  0  0  0  0
 21 22  1  0  0  0  0
 21 58  1  0  0  0  0
 21 59  1  0  0  0  0
 22 23  1  0  0  0  0
 22 26  1  0  0  0  0
 23 24  2  0  0  0  0
 23 60  1  0  0  0  0
 24 25  1  0  0  0  0
 25 26  2  0  0  0  0
 25 31  1  0  0  0  0
 26 27  1  0  0  0  0
 27 28  2  0  0  0  0
 28 29  1  0  0  0  0
 28 30  1  0  0  0  0
 29 61  1  0  0  0  0
 29 62  1  0  0  0  0
 30 31  1  0  0  0  0
 30 63  1  0  0  0  0
 31 32  2  0  0  0  0
M  END
>  <DRUGBANK_ID>
DB17744

>  <COMMON_NAME>
Valine-valine-ganciclovir

>  <CAS_NUMBER>
897937-73-4

>  <UNII>
ZW811N4EW6

>  <SYNONYMS>
L-valine, l-valyl-, 2-((2-amino-1,6-dihydro-6-oxo-9h-purin-9-yl)methoxy)-3-hydroxypropyl ester; Valganciclovir n-valyl impurity

$$$$
