
 OpenBabel10282417223D

 57 60  0  0  1  0  0  0  0  0999 V2000
    0.8273    0.1642    0.0791 C   0  0  0  0  0  0  0  0  0  0  0  0
    0.4688    0.0202   -1.3820 C   0  0  0  0  0  0  0  0  0  0  0  0
    0.8823   -1.2879   -2.0096 C   0  0  0  0  0  0  0  0  0  0  0  0
    0.0698   -2.1241   -2.3731 O   0  0  0  0  0  0  0  0  0  0  0  0
    2.2304   -1.4185   -2.1359 O   0  0  0  0  0  0  0  0  0  0  0  0
    2.6803   -2.6631   -2.7197 C   0  0  1  0  0  0  0  0  0  0  0  0
    2.2228   -3.9120   -1.8905 C   0  0  0  0  0  0  0  0  0  0  0  0
    1.6457   -4.8769   -2.4027 O   0  0  0  0  0  0  0  0  0  0  0  0
    2.6149   -3.9693   -0.5566 N   0  0  0  0  0  0  0  0  0  0  0  0
    2.5350   -5.1951    0.0526 N   0  0  0  0  0  0  0  0  0  0  0  0
    2.8145   -5.0330    1.2987 C   0  0  0  0  0  0  0  0  0  0  0  0
    2.8148   -3.6287    1.7714 C   0  0  0  0  0  0  0  0  0  0  0  0
    2.6903   -2.8977    0.4358 C   0  0  1  0  0  0  0  0  0  0  0  0
    3.8231   -1.8844    0.2333 C   0  0  0  0  0  0  0  0  0  0  0  0
    3.6302   -0.6628    0.1909 O   0  0  0  0  0  0  0  0  0  0  0  0
    5.1232   -2.2108    0.1757 N   0  0  0  0  0  0  0  0  0  0  0  0
    5.7235   -3.5068    0.2635 C   0  0  0  0  0  0  0  0  0  0  0  0
    6.3457   -3.9431   -1.0290 C   0  0  0  0  0  0  0  0  0  0  0  0
    6.4563   -5.3082   -1.3869 C   0  0  0  0  0  0  0  0  0  0  0  0
    7.0611   -5.6746   -2.5894 C   0  0  0  0  0  0  0  0  0  0  0  0
    7.6059   -4.6960   -3.4217 C   0  0  0  0  0  0  0  0  0  0  0  0
    7.5681   -3.3568   -3.0499 C   0  0  0  0  0  0  0  0  0  0  0  0
    8.3134   -2.1632   -4.0368 Cl  0  0  0  0  0  0  0  0  0  0  0  0
    6.9420   -2.9779   -1.8690 C   0  0  0  0  0  0  0  0  0  0  0  0
    6.0020   -6.3495   -0.5500 N   0  0  0  0  0  0  0  0  0  0  0  0
    6.6964   -7.3940   -0.0046 C   0  0  0  0  0  0  0  0  0  0  0  0
    5.9207   -8.0410    0.8380 N   0  0  0  0  0  0  0  0  0  0  0  0
    4.6980   -7.4541    0.7247 N   0  0  0  0  0  0  0  0  0  0  0  0
    4.7483   -6.4492   -0.1323 N   0  0  0  0  0  0  0  0  0  0  0  0
    2.3580   -2.7163   -4.2262 C   0  0  0  0  0  0  0  0  0  0  0  0
    2.2384   -3.9347   -4.9218 C   0  0  0  0  0  0  0  0  0  0  0  0
    1.7531   -3.9765   -6.2270 C   0  0  0  0  0  0  0  0  0  0  0  0
    1.4548   -2.7919   -6.8778 C   0  0  0  0  0  0  0  0  0  0  0  0
    0.9741   -2.8292   -8.1266 F   0  0  0  0  0  0  0  0  0  0  0  0
    1.6580   -1.5672   -6.2564 C   0  0  0  0  0  0  0  0  0  0  0  0
    2.1302   -1.5271   -4.9441 C   0  0  0  0  0  0  0  0  0  0  0  0
    0.5786   -0.7280    0.6590 H   0  0  0  0  0  0  0  0  0  0  0  0
    0.3310    1.0190    0.5405 H   0  0  0  0  0  0  0  0  0  0  0  0
    1.8813    0.3817    0.1787 H   0  0  0  0  0  0  0  0  0  0  0  0
   -0.6224    0.0605   -1.4585 H   0  0  0  0  0  0  0  0  0  0  0  0
    0.8689    0.8509   -1.9697 H   0  0  0  0  0  0  0  0  0  0  0  0
    3.7811   -2.6509   -2.6704 H   0  0  0  0  0  0  0  0  0  0  0  0
    3.0344   -5.8613    1.9875 H   0  0  0  0  0  0  0  0  0  0  0  0
    3.7094   -3.3959    2.3526 H   0  0  0  0  0  0  0  0  0  0  0  0
    1.9296   -3.5431    2.4049 H   0  0  0  0  0  0  0  0  0  0  0  0
    1.7269   -2.3946    0.4010 H   0  0  0  0  0  0  0  0  0  0  0  0
    5.7068   -1.3896    0.0592 H   0  0  0  0  0  0  0  0  0  0  0  0
    6.4505   -3.4797    1.0778 H   0  0  0  0  0  0  0  0  0  0  0  0
    4.9547   -4.1992    0.5415 H   0  0  0  0  0  0  0  0  0  0  0  0
    7.0692   -6.7136   -2.9101 H   0  0  0  0  0  0  0  0  0  0  0  0
    8.0669   -4.9875   -4.3600 H   0  0  0  0  0  0  0  0  0  0  0  0
    6.9337   -1.9203   -1.6086 H   0  0  0  0  0  0  0  0  0  0  0  0
    7.7333   -7.5918   -0.1981 H   0  0  0  0  0  0  0  0  0  0  0  0
    2.4511   -4.8896   -4.4457 H   0  0  0  0  0  0  0  0  0  0  0  0
    1.5795   -4.9303   -6.7142 H   0  0  0  0  0  0  0  0  0  0  0  0
    1.4186   -0.6509   -6.7842 H   0  0  0  0  0  0  0  0  0  0  0  0
    2.2649   -0.5573   -4.4705 H   0  0  0  0  0  0  0  0  0  0  0  0
  1  2  1  0  0  0  0
  1 37  1  0  0  0  0
  1 38  1  0  0  0  0
  1 39  1  0  0  0  0
  2  3  1  0  0  0  0
  2 40  1  0  0  0  0
  2 41  1  0  0  0  0
  3  4  2  0  0  0  0
  3  5  1  0  0  0  0
  6  5  1  0  0  0  0
  6  7  1  0  0  0  0
  6 30  1  0  0  0  0
  6 42  1  1  0  0  0
  7  8  2  0  0  0  0
  7  9  1  0  0  0  0
  9 10  1  0  0  0  0
 10 11  2  0  0  0  0
 11 12  1  0  0  0  0
 11 43  1  0  0  0  0
 12 44  1  0  0  0  0
 12 45  1  0  0  0  0
 13 12  1  0  0  0  0
 13  9  1  0  0  0  0
 13 14  1  0  0  0  0
 13 46  1  6  0  0  0
 14 15  2  0  0  0  0
 14 16  1  0  0  0  0
 16 17  1  0  0  0  0
 16 47  1  0  0  0  0
 17 18  1  0  0  0  0
 17 48  1  0  0  0  0
 17 49  1  0  0  0  0
 18 19  2  0  0  0  0
 18 24  1  0  0  0  0
 19 20  1  0  0  0  0
 19 25  1  0  0  0  0
 20 21  2  0  0  0  0
 20 50  1  0  0  0  0
 21 22  1  0  0  0  0
 21 51  1  0  0  0  0
 22 23  1  0  0  0  0
 22 24  2  0  0  0  0
 24 52  1  0  0  0  0
 25 26  1  0  0  0  0
 25 29  1  0  0  0  0
 26 27  2  0  0  0  0
 26 53  1  0  0  0  0
 27 28  1  0  0  0  0
 28 29  2  0  0  0  0
 30 31  2  0  0  0  0
 30 36  1  0  0  0  0
 31 32  1  0  0  0  0
 31 54  1  0  0  0  0
 32 33  2  0  0  0  0
 32 55  1  0  0  0  0
 33 34  1  0  0  0  0
 33 35  1  0  0  0  0
 35 36  2  0  0  0  0
 35 56  1  0  0  0  0
 36 57  1  0  0  0  0
M  END
>  <DRUGBANK_ID>
DB15132

>  <COMMON_NAME>
AZD-8165

>  <CAS_NUMBER>
1201686-72-7

>  <UNII>
7WO8I5IY24

$$$$
