UI2
 OpenBabel10282417133D

 33 35  0  0  0  0  0  0  0  0999 V2000
    2.4144   -0.6552   -0.0172 C   0  0  0  0  0  0  0  0  0  0  0  0
    1.2248   -1.3815    0.0151 C   0  0  0  0  0  0  0  0  0  0  0  0
   -0.0157   -0.7281    0.0122 C   0  0  0  0  0  0  0  0  0  0  0  0
   -0.0529    0.6844   -0.0307 C   0  0  0  0  0  0  0  0  0  0  0  0
    1.1647    1.4459    0.0198 C   0  0  0  0  0  0  0  0  0  0  0  0
    2.3843    0.7420    0.0032 C   0  0  0  0  0  0  0  0  0  0  0  0
   -1.2243   -1.4576    0.0226 C   0  0  0  0  0  0  0  0  0  0  0  0
   -2.4733   -0.8204    0.0056 C   0  0  0  0  0  0  0  0  0  0  0  0
   -2.5434    0.5611   -0.0825 C   0  0  0  0  0  0  0  0  0  0  0  0
   -1.3372    1.2534   -0.1732 C   0  0  0  0  0  0  0  0  0  0  0  0
    1.2263    2.8603    0.1957 N   0  0  0  0  0  0  0  0  0  0  0  0
    0.1861    3.7818    0.3635 C   0  0  0  0  0  0  0  0  0  0  0  0
   -0.1071    4.6054   -0.6628 N   0  0  0  0  0  0  0  0  0  0  0  0
   -1.3050    5.2383   -0.6247 C   0  0  0  0  0  0  0  0  0  0  0  0
   -2.1993    5.1173    0.4110 C   0  0  0  0  0  0  0  0  0  0  0  0
   -1.7966    4.2922    1.4310 C   0  0  0  0  0  0  0  0  0  0  0  0
   -0.6173    3.6403    1.4344 N   0  0  0  0  0  0  0  0  0  0  0  0
   -3.8550    1.2947   -0.0663 C   0  0  0  0  0  0  0  0  0  0  0  0
   -3.9763    2.5888   -0.1775 N   0  0  0  0  0  0  0  0  0  0  0  0
   -5.0378    0.6652    0.0976 N   0  0  0  0  0  0  0  0  0  0  0  0
    3.3666   -1.1809   -0.0447 H   0  0  0  0  0  0  0  0  0  0  0  0
    1.2737   -2.4692    0.0226 H   0  0  0  0  0  0  0  0  0  0  0  0
    3.3314    1.2773    0.0038 H   0  0  0  0  0  0  0  0  0  0  0  0
   -1.2069   -2.5452    0.0463 H   0  0  0  0  0  0  0  0  0  0  0  0
   -3.3713   -1.4231    0.0310 H   0  0  0  0  0  0  0  0  0  0  0  0
   -1.3869    2.2951   -0.4161 H   0  0  0  0  0  0  0  0  0  0  0  0
    2.0807    3.3138   -0.0854 H   0  0  0  0  0  0  0  0  0  0  0  0
   -1.5663    5.8094   -1.5131 H   0  0  0  0  0  0  0  0  0  0  0  0
   -3.1950    5.5425    0.3795 H   0  0  0  0  0  0  0  0  0  0  0  0
   -2.4767    4.0169    2.2337 H   0  0  0  0  0  0  0  0  0  0  0  0
   -3.0671    3.0229   -0.2823 H   0  0  0  0  0  0  0  0  0  0  0  0
   -5.1547   -0.3229   -0.0574 H   0  0  0  0  0  0  0  0  0  0  0  0
   -5.8463    1.2593   -0.0499 H   0  0  0  0  0  0  0  0  0  0  0  0
  1  2  2  0  0  0  0
  1  6  1  0  0  0  0
  1 21  1  0  0  0  0
  2  3  1  0  0  0  0
  2 22  1  0  0  0  0
  3  4  2  0  0  0  0
  3  7  1  0  0  0  0
  4  5  1  0  0  0  0
  4 10  1  0  0  0  0
  5  6  2  0  0  0  0
  5 11  1  0  0  0  0
  6 23  1  0  0  0  0
  7  8  2  0  0  0  0
  7 24  1  0  0  0  0
  8  9  1  0  0  0  0
  8 25  1  0  0  0  0
  9 10  2  0  0  0  0
  9 18  1  0  0  0  0
 10 26  1  0  0  0  0
 11 12  1  0  0  0  0
 11 27  1  0  0  0  0
 12 13  1  0  0  0  0
 12 17  2  0  0  0  0
 13 14  2  0  0  0  0
 14 15  1  0  0  0  0
 14 28  1  0  0  0  0
 15 16  2  0  0  0  0
 15 29  1  0  0  0  0
 16 17  1  0  0  0  0
 16 30  1  0  0  0  0
 18 19  2  0  0  0  0
 18 20  1  0  0  0  0
 19 31  1  0  0  0  0
 20 32  1  0  0  0  0
 20 33  1  0  0  0  0
M  END
>  <DRUGBANK_ID>
DB04059

>  <SECONDARY_ACCESSION_NUMBERS>
EXPT03179

>  <COMMON_NAME>
8-(Pyrimidin-2-Ylamino)Naphthalene-2-Carboximidamide

$$$$
