
 OpenBabel10282417133D

 23 23  0  0  0  0  0  0  0  0999 V2000
    0.9959    0.0926    0.0800 C   0  0  0  0  0  0  0  0  0  0  0  0
   -1.2604    0.6451   -3.0691 C   0  0  2  0  0  0  0  0  0  0  0  0
   -1.1901    2.1755   -3.0397 C   0  0  1  0  0  0  0  0  0  0  0  0
   -0.8644    0.0967   -1.6921 C   0  0  1  0  0  0  0  0  0  0  0  0
    0.1741    2.6469   -2.5103 C   0  0  3  0  0  0  0  0  0  0  0  0
    0.5242    0.6328   -1.2846 C   0  0  2  0  0  0  0  0  0  0  0  0
    1.1592    2.3600   -3.3979 F   0  0  0  0  0  0  0  0  0  0  0  0
    1.4527    0.2193   -2.1926 F   0  0  0  0  0  0  0  0  0  0  0  0
    0.6569   -1.2795    0.2995 O   0  0  0  0  0  0  0  0  0  0  0  0
   -0.4259    0.1597   -4.1248 O   0  0  0  0  0  0  0  0  0  0  0  0
   -1.4647    2.7093   -4.3373 O   0  0  0  0  0  0  0  0  0  0  0  0
   -1.8853    0.4495   -0.7434 O   0  0  0  0  0  0  0  0  0  0  0  0
    0.5298    2.0656   -1.2563 O   0  0  0  0  0  0  0  0  0  0  0  0
   -2.2818    0.3377   -3.3197 H   0  0  0  0  0  0  0  0  0  0  0  0
   -1.9712    2.5461   -2.3652 H   0  0  0  0  0  0  0  0  0  0  0  0
   -0.8308   -0.9965   -1.7514 H   0  0  0  0  0  0  0  0  0  0  0  0
    0.1646    3.7355   -2.3969 H   0  0  0  0  0  0  0  0  0  0  0  0
    0.5820    0.6802    0.9051 H   0  0  0  0  0  0  0  0  0  0  0  0
    2.0878    0.1660    0.1445 H   0  0  0  0  0  0  0  0  0  0  0  0
    1.0000   -1.7964   -0.4516 H   0  0  0  0  0  0  0  0  0  0  0  0
   -0.4663   -0.8169   -4.1321 H   0  0  0  0  0  0  0  0  0  0  0  0
   -0.8212    2.2687   -4.9310 H   0  0  0  0  0  0  0  0  0  0  0  0
   -1.7676    1.3794   -0.4719 H   0  0  0  0  0  0  0  0  0  0  0  0
  1 18  1  0  0  0  0
  1 19  1  0  0  0  0
  2  3  1  0  0  0  0
  2  4  1  0  0  0  0
  2 14  1  6  0  0  0
  2 10  1  0  0  0  0
  3  5  1  0  0  0  0
  3 11  1  0  0  0  0
  3 15  1  1  0  0  0
  4  6  1  0  0  0  0
  4 12  1  0  0  0  0
  4 16  1  6  0  0  0
  6  1  1  0  0  0  0
  6  8  1  6  0  0  0
  6 13  1  0  0  0  0
  7  5  1  0  0  0  0
  9  1  1  0  0  0  0
  9 20  1  0  0  0  0
 10 21  1  0  0  0  0
 11 22  1  0  0  0  0
 12 23  1  0  0  0  0
 13  5  1  0  0  0  0
 17  5  1  0  0  0  0
M  END
>  <DRUGBANK_ID>
DB03008

>  <SECONDARY_ACCESSION_NUMBERS>
EXPT01670

>  <COMMON_NAME>
5-fluoro-beta-L-gulosyl fluoride

$$$$
