F1J
 OpenBabel10282417163D

 40 41  0  0  0  0  0  0  0  0999 V2000
   -0.0057    1.4736    2.0676 C   0  0  0  0  0  0  0  0  0  0  0  0
    1.1791   -1.3060   -2.2706 C   0  0  0  0  0  0  0  0  0  0  0  0
    1.5888   -0.0004   -2.5704 C   0  0  0  0  0  0  0  0  0  0  0  0
    1.7167   -1.9625   -1.1779 C   0  0  0  0  0  0  0  0  0  0  0  0
    2.6183   -1.3138   -0.3441 C   0  0  0  0  0  0  0  0  0  0  0  0
    2.8613    0.0582   -0.5225 C   0  0  0  0  0  0  0  0  0  0  0  0
    2.2690    0.7488   -1.6024 C   0  0  0  0  0  0  0  0  0  0  0  0
    2.1306    2.2715   -1.6289 C   0  0  0  0  0  0  0  0  0  0  0  0
    0.4121    2.5175    0.0261 C   0  0  0  0  0  0  0  0  0  0  0  0
   -0.1237    1.2282    0.5293 C   0  0  2  0  0  0  0  0  0  0  0  0
   -0.3891    2.5779   -2.1032 C   0  0  0  0  0  0  0  0  0  0  0  0
   -1.0534    1.2211   -1.6772 C   0  0  0  0  0  0  0  0  0  0  0  0
   -0.4564    0.6445    2.8923 O   0  0  0  0  0  0  0  0  0  0  0  0
    0.7799    2.5371    2.5965 N   0  0  0  0  0  0  0  0  0  0  0  0
    1.5489    3.7928    2.0678 C   0  0  0  0  0  0  0  0  0  0  0  0
    0.7354    5.0745    2.1709 C   0  0  0  0  0  0  0  0  0  0  0  0
    0.8144    5.6453    3.8710 S   0  0  0  0  0  0  0  0  0  0  0  0
   -1.3804    0.9509   -0.2284 N   0  0  0  0  0  0  0  0  0  0  0  0
    0.7955    2.8657   -1.3097 N   0  0  0  0  0  0  0  0  0  0  0  0
    1.3331   -3.2176   -0.9108 F   0  0  0  0  0  0  0  0  0  0  0  0
    0.5457    0.3847    0.3588 H   0  0  0  0  0  0  0  0  0  0  0  0
    0.3343   -1.7470   -2.7967 H   0  0  0  0  0  0  0  0  0  0  0  0
    1.1039    0.5188   -3.3967 H   0  0  0  0  0  0  0  0  0  0  0  0
    3.0416   -1.8582    0.4942 H   0  0  0  0  0  0  0  0  0  0  0  0
    3.4186    0.5867    0.2495 H   0  0  0  0  0  0  0  0  0  0  0  0
    2.4779    2.6766   -2.5780 H   0  0  0  0  0  0  0  0  0  0  0  0
    2.8473    2.6746   -0.8885 H   0  0  0  0  0  0  0  0  0  0  0  0
   -0.2783    3.2913    0.4007 H   0  0  0  0  0  0  0  0  0  0  0  0
    1.3705    2.3945    0.4761 H   0  0  0  0  0  0  0  0  0  0  0  0
   -1.1275    3.3788   -1.9309 H   0  0  0  0  0  0  0  0  0  0  0  0
   -0.1097    2.6500   -3.1573 H   0  0  0  0  0  0  0  0  0  0  0  0
   -0.2886    0.4999   -1.7920 H   0  0  0  0  0  0  0  0  0  0  0  0
   -1.7692    0.8746   -2.4266 H   0  0  0  0  0  0  0  0  0  0  0  0
    0.8209    2.4655    3.6049 H   0  0  0  0  0  0  0  0  0  0  0  0
    2.5402    3.8009    2.5329 H   0  0  0  0  0  0  0  0  0  0  0  0
    1.8541    3.8432    1.0185 H   0  0  0  0  0  0  0  0  0  0  0  0
    1.1395    5.8355    1.4878 H   0  0  0  0  0  0  0  0  0  0  0  0
   -0.3038    4.9038    1.8695 H   0  0  0  0  0  0  0  0  0  0  0  0
    0.3338    4.5064    4.3876 H   0  0  0  0  0  0  0  0  0  0  0  0
   -2.1452    1.5403    0.0714 H   0  0  0  0  0  0  0  0  0  0  0  0
  1 13  2  0  0  0  0
  1 14  1  0  0  0  0
  2  3  2  0  0  0  0
  2  4  1  0  0  0  0
  2 22  1  0  0  0  0
  3  7  1  0  0  0  0
  3 23  1  0  0  0  0
  4  5  2  0  0  0  0
  4 20  1  0  0  0  0
  5  6  1  0  0  0  0
  5 24  1  0  0  0  0
  6  7  2  0  0  0  0
  6 25  1  0  0  0  0
  7  8  1  0  0  0  0
  8 19  1  0  0  0  0
  8 26  1  0  0  0  0
  8 27  1  0  0  0  0
  9 10  1  0  0  0  0
  9 19  1  0  0  0  0
  9 28  1  0  0  0  0
  9 29  1  0  0  0  0
 10 18  1  0  0  0  0
 10 21  1  6  0  0  0
 10  1  1  0  0  0  0
 11 12  1  0  0  0  0
 11 19  1  0  0  0  0
 11 30  1  0  0  0  0
 11 31  1  0  0  0  0
 12 18  1  0  0  0  0
 12 32  1  0  0  0  0
 12 33  1  0  0  0  0
 14 15  1  0  0  0  0
 14 34  1  0  0  0  0
 15 16  1  0  0  0  0
 15 35  1  0  0  0  0
 15 36  1  0  0  0  0
 16 17  1  0  0  0  0
 16 37  1  0  0  0  0
 16 38  1  0  0  0  0
 17 39  1  0  0  0  0
 18 40  1  0  0  0  0
M  END
>  <DRUGBANK_ID>
DB07736

>  <COMMON_NAME>
(2S)-4-(4-fluorobenzyl)-N-(2-sulfanylethyl)piperazine-2-carboxamide

$$$$
