1267
 OpenBabel10282417113D

 58 62  0  0  1  0  0  0  0  0999 V2000
   -3.1161   -0.7637   -0.1022 F   0  0  0  0  0  0  0  0  0  0  0  0
    1.6597   -1.2032   -0.0408 O   0  0  0  0  0  0  0  0  0  0  0  0
   -0.5988    4.8855    3.3588 O   0  0  0  0  0  0  0  0  0  0  0  0
    1.2515    8.3318   -0.9560 O   0  0  0  0  0  0  0  0  0  0  0  0
    3.8379    4.7014   -1.3394 N   0  0  0  0  0  0  0  0  0  0  0  0
    0.0158    7.2096    0.6315 N   0  0  0  0  0  0  0  0  0  0  0  0
    2.6802   -0.2891   -0.0074 N   0  0  0  0  0  0  0  0  0  0  0  0
   -0.3305    4.9021    0.4033 N   0  0  0  0  0  0  0  0  0  0  0  0
    3.1995    2.0751    0.0898 C   0  0  3  0  0  0  0  0  0  0  0  0
    3.3677    3.3973    0.8454 C   0  0  0  0  0  0  0  0  0  0  0  0
    3.8864    2.1685   -1.2997 C   0  0  0  0  0  0  0  0  0  0  0  0
    3.3129    4.6849    0.0280 C   0  0  0  0  0  0  0  0  0  0  0  0
    3.7020    3.4635   -2.1165 C   0  0  0  0  0  0  0  0  0  0  0  0
    3.3721    5.9071   -2.0870 C   0  0  0  0  0  0  0  0  0  0  0  0
    2.1403    0.9436    0.1597 C   0  0  0  0  0  0  0  0  0  0  0  0
    1.8605    6.0365   -2.4723 C   0  0  0  0  0  0  0  0  0  0  0  0
    0.8741    6.0546   -1.3203 C   0  0  0  0  0  0  0  0  0  0  0  0
   -0.2373    8.4673    1.3161 C   0  0  0  0  0  0  0  0  0  0  0  0
   -1.0779    5.9223    2.5135 C   0  0  3  0  0  0  0  0  0  0  0  0
   -1.3423    8.3769    2.3495 C   0  0  0  0  0  0  0  0  0  0  0  0
   -1.0172    7.2346    3.2876 C   0  0  0  0  0  0  0  0  0  0  0  0
   -0.4076    5.9910    1.1090 C   0  0  0  0  0  0  0  0  0  0  0  0
    0.7149    0.7909    0.2820 C   0  0  0  0  0  0  0  0  0  0  0  0
    0.7353    7.3079   -0.5519 C   0  0  0  0  0  0  0  0  0  0  0  0
    0.2448    4.9655   -0.8449 C   0  0  0  0  0  0  0  0  0  0  0  0
    0.4757   -0.5630    0.0738 C   0  0  0  0  0  0  0  0  0  0  0  0
   -0.4318    1.5805    0.4855 C   0  0  0  0  0  0  0  0  0  0  0  0
    0.5736    3.6764   -1.5214 C   0  0  0  0  0  0  0  0  0  0  0  0
   -0.7883   -1.1555    0.0031 C   0  0  0  0  0  0  0  0  0  0  0  0
   -1.7042    1.0790    0.1965 C   0  0  0  0  0  0  0  0  0  0  0  0
   -1.8725   -0.2807    0.0151 C   0  0  0  0  0  0  0  0  0  0  0  0
    0.3489    5.0288    3.5166 H   0  0  0  0  0  0  0  0  0  0  0  0
    3.8797    1.5257    0.7593 H   0  0  0  0  0  0  0  0  0  0  0  0
    2.7029    3.4852    1.7109 H   0  0  0  0  0  0  0  0  0  0  0  0
    4.3965    3.3977    1.2401 H   0  0  0  0  0  0  0  0  0  0  0  0
    4.9601    2.0498   -1.1246 H   0  0  0  0  0  0  0  0  0  0  0  0
    3.5711    1.3367   -1.9410 H   0  0  0  0  0  0  0  0  0  0  0  0
    2.2742    4.9090    0.0629 H   0  0  0  0  0  0  0  0  0  0  0  0
    3.7322    5.5329    0.5889 H   0  0  0  0  0  0  0  0  0  0  0  0
    4.4237    3.4684   -2.9440 H   0  0  0  0  0  0  0  0  0  0  0  0
    2.7688    3.4046   -2.6859 H   0  0  0  0  0  0  0  0  0  0  0  0
    3.6752    6.8019   -1.5274 H   0  0  0  0  0  0  0  0  0  0  0  0
    3.9465    5.9584   -3.0234 H   0  0  0  0  0  0  0  0  0  0  0  0
    1.7178    6.9456   -3.0648 H   0  0  0  0  0  0  0  0  0  0  0  0
    1.6169    5.2311   -3.1727 H   0  0  0  0  0  0  0  0  0  0  0  0
   -0.5105    9.2172    0.5646 H   0  0  0  0  0  0  0  0  0  0  0  0
    0.7022    8.7979    1.7756 H   0  0  0  0  0  0  0  0  0  0  0  0
   -2.1294    5.6863    2.3104 H   0  0  0  0  0  0  0  0  0  0  0  0
   -2.3045    8.1934    1.8543 H   0  0  0  0  0  0  0  0  0  0  0  0
   -1.4275    9.3221    2.8937 H   0  0  0  0  0  0  0  0  0  0  0  0
   -0.0235    7.3755    3.7337 H   0  0  0  0  0  0  0  0  0  0  0  0
   -1.7228    7.2112    4.1267 H   0  0  0  0  0  0  0  0  0  0  0  0
   -0.3419    2.6302    0.7171 H   0  0  0  0  0  0  0  0  0  0  0  0
    0.3478    3.6142   -2.5801 H   0  0  0  0  0  0  0  0  0  0  0  0
    1.6167    3.5631   -1.3417 H   0  0  0  0  0  0  0  0  0  0  0  0
    0.2863    2.7439   -1.1163 H   0  0  0  0  0  0  0  0  0  0  0  0
   -0.9261   -2.2243   -0.0910 H   0  0  0  0  0  0  0  0  0  0  0  0
   -2.5491    1.7605    0.1343 H   0  0  0  0  0  0  0  0  0  0  0  0
  1 31  1  0  0  0  0
  2  7  1  0  0  0  0
  2 26  1  0  0  0  0
  3 19  1  0  0  0  0
  3 32  1  0  0  0  0
  4 24  2  0  0  0  0
  5 12  1  0  0  0  0
  5 13  1  0  0  0  0
  5 14  1  0  0  0  0
  6 18  1  0  0  0  0
  6 22  1  0  0  0  0
  6 24  1  0  0  0  0
  7 15  2  0  0  0  0
  8 22  2  0  0  0  0
  8 25  1  0  0  0  0
  9 10  1  0  0  0  0
  9 11  1  0  0  0  0
  9 15  1  0  0  0  0
  9 33  1  0  0  0  0
 10 12  1  0  0  0  0
 10 34  1  0  0  0  0
 10 35  1  0  0  0  0
 11 13  1  0  0  0  0
 11 36  1  0  0  0  0
 11 37  1  0  0  0  0
 12 38  1  0  0  0  0
 12 39  1  0  0  0  0
 13 40  1  0  0  0  0
 13 41  1  0  0  0  0
 14 16  1  0  0  0  0
 14 42  1  0  0  0  0
 14 43  1  0  0  0  0
 15 23  1  0  0  0  0
 16 17  1  0  0  0  0
 16 44  1  0  0  0  0
 16 45  1  0  0  0  0
 17 24  1  0  0  0  0
 17 25  2  0  0  0  0
 18 20  1  0  0  0  0
 18 46  1  0  0  0  0
 18 47  1  0  0  0  0
 19 21  1  0  0  0  0
 19 22  1  0  0  0  0
 19 48  1  0  0  0  0
 20 21  1  0  0  0  0
 20 49  1  0  0  0  0
 20 50  1  0  0  0  0
 21 51  1  0  0  0  0
 21 52  1  0  0  0  0
 23 26  2  0  0  0  0
 23 27  1  0  0  0  0
 25 28  1  0  0  0  0
 26 29  1  0  0  0  0
 27 30  2  0  0  0  0
 27 53  1  0  0  0  0
 28 54  1  0  0  0  0
 28 55  1  0  0  0  0
 28 56  1  0  0  0  0
 29 31  2  0  0  0  0
 29 57  1  0  0  0  0
 30 31  1  0  0  0  0
 30 58  1  0  0  0  0
M  END
>  <DRUGBANK_ID>
DB01267

>  <COMMON_NAME>
Paliperidone

>  <CAS_NUMBER>
144598-75-4

>  <UNII>
838F01T721

>  <SYNONYMS>
9-hydroxyrisperidone; Paliperidona; Paliperidone

$$$$
