I17
 OpenBabel10282417143D

 61 65  0  0  0  0  0  0  0  0999 V2000
    1.2255   -0.0202    0.2651 C   0  0  0  0  0  0  0  0  0  0  0  0
    1.4746    0.0272    1.6957 N   0  0  0  0  0  0  0  0  0  0  0  0
    1.2254    1.0248    2.6227 C   0  0  0  0  0  0  0  0  0  0  0  0
    0.6324    2.2299    2.4850 N   0  0  0  0  0  0  0  0  0  0  0  0
    0.6106    2.9635    3.6225 C   0  0  0  0  0  0  0  0  0  0  0  0
    1.5880    1.2827    4.9586 C   0  0  0  0  0  0  0  0  0  0  0  0
    1.0784    2.5374    4.8180 N   0  0  0  0  0  0  0  0  0  0  0  0
    1.7159    0.4940    3.8065 C   0  0  0  0  0  0  0  0  0  0  0  0
    2.2333   -0.7663    3.6186 N   0  0  0  0  0  0  0  0  0  0  0  0
    2.0963   -1.0129    2.3385 C   0  0  0  0  0  0  0  0  0  0  0  0
    1.9137    0.8548    6.2283 N   0  0  0  0  0  0  0  0  0  0  0  0
    2.6029   -0.3904    6.5113 C   0  0  0  0  0  0  0  0  0  0  0  0
    4.8149   -1.3245    7.2614 C   0  0  0  0  0  0  0  0  0  0  0  0
    6.1192   -1.1807    7.7372 C   0  0  0  0  0  0  0  0  0  0  0  0
    6.6415    0.0920    7.9570 C   0  0  0  0  0  0  0  0  0  0  0  0
    5.8713    1.2184    7.6824 C   0  0  0  0  0  0  0  0  0  0  0  0
    4.5740    1.0758    7.1989 C   0  0  0  0  0  0  0  0  0  0  0  0
    4.0188   -0.1939    7.0010 C   0  0  0  0  0  0  0  0  0  0  0  0
    0.0283    4.2308    3.5860 N   0  0  0  0  0  0  0  0  0  0  0  0
    0.8676    5.3900    3.9333 C   0  0  1  0  0  0  0  0  0  0  0  0
    2.3683    7.9177    3.2931 C   0  0  1  0  0  0  0  0  0  0  0  0
    3.0831    6.5908    3.5461 C   0  0  0  0  0  0  0  0  0  0  0  0
    2.2068    5.3940    3.1746 C   0  0  0  0  0  0  0  0  0  0  0  0
    0.1423    6.7369    3.6705 C   0  0  0  0  0  0  0  0  0  0  0  0
    1.0269    7.9477    4.0353 C   0  0  0  0  0  0  0  0  0  0  0  0
    3.2366    9.0165    3.7157 N   0  0  0  0  0  0  0  0  0  0  0  0
    0.3164   -1.1934   -0.1420 C   0  0  0  0  0  0  0  0  0  0  0  0
   -1.1063   -0.6673    0.0316 C   0  0  0  0  0  0  0  0  0  0  0  0
    0.4597    1.1666   -0.2987 C   0  0  0  0  0  0  0  0  0  0  0  0
   -0.9903    0.8567    0.0641 C   0  0  0  0  0  0  0  0  0  0  0  0
    1.0613    5.3384    5.0113 H   0  0  0  0  0  0  0  0  0  0  0  0
    2.1873    8.0295    2.2167 H   0  0  0  0  0  0  0  0  0  0  0  0
    2.2116   -0.1199   -0.2063 H   0  0  0  0  0  0  0  0  0  0  0  0
    2.4164   -1.9216    1.8525 H   0  0  0  0  0  0  0  0  0  0  0  0
    1.8201    1.5489    6.9542 H   0  0  0  0  0  0  0  0  0  0  0  0
    2.0301   -0.9255    7.2759 H   0  0  0  0  0  0  0  0  0  0  0  0
    2.6587   -1.0790    5.6715 H   0  0  0  0  0  0  0  0  0  0  0  0
    4.4245   -2.3258    7.0839 H   0  0  0  0  0  0  0  0  0  0  0  0
    6.7275   -2.0592    7.9356 H   0  0  0  0  0  0  0  0  0  0  0  0
    7.6525    0.2099    8.3347 H   0  0  0  0  0  0  0  0  0  0  0  0
    6.2736    2.2147    7.8381 H   0  0  0  0  0  0  0  0  0  0  0  0
    4.0053    1.9718    6.9673 H   0  0  0  0  0  0  0  0  0  0  0  0
   -0.6811    4.3349    2.8741 H   0  0  0  0  0  0  0  0  0  0  0  0
    3.3633    6.5106    4.6052 H   0  0  0  0  0  0  0  0  0  0  0  0
    4.0141    6.5471    2.9676 H   0  0  0  0  0  0  0  0  0  0  0  0
    2.7728    4.4843    3.3979 H   0  0  0  0  0  0  0  0  0  0  0  0
    2.0257    5.3998    2.0921 H   0  0  0  0  0  0  0  0  0  0  0  0
   -0.1487    6.8216    2.6142 H   0  0  0  0  0  0  0  0  0  0  0  0
   -0.7859    6.7929    4.2517 H   0  0  0  0  0  0  0  0  0  0  0  0
    1.2029    7.9462    5.1194 H   0  0  0  0  0  0  0  0  0  0  0  0
    0.4976    8.8824    3.8072 H   0  0  0  0  0  0  0  0  0  0  0  0
    2.7715    9.9118    3.5725 H   0  0  0  0  0  0  0  0  0  0  0  0
    3.4267    8.9508    4.7154 H   0  0  0  0  0  0  0  0  0  0  0  0
    0.4820   -1.4326   -1.2007 H   0  0  0  0  0  0  0  0  0  0  0  0
    0.4752   -2.1195    0.4209 H   0  0  0  0  0  0  0  0  0  0  0  0
   -1.7504   -1.0017   -0.7871 H   0  0  0  0  0  0  0  0  0  0  0  0
   -1.5410   -1.0381    0.9672 H   0  0  0  0  0  0  0  0  0  0  0  0
    0.8068    2.1336    0.0710 H   0  0  0  0  0  0  0  0  0  0  0  0
    0.5712    1.1880   -1.3888 H   0  0  0  0  0  0  0  0  0  0  0  0
   -1.6892    1.3461   -0.6170 H   0  0  0  0  0  0  0  0  0  0  0  0
   -1.2306    1.2054    1.0743 H   0  0  0  0  0  0  0  0  0  0  0  0
  1  2  1  0  0  0  0
  1 27  1  0  0  0  0
  1 29  1  0  0  0  0
  1 33  1  0  0  0  0
  2  3  1  0  0  0  0
  2 10  1  0  0  0  0
  3  4  2  0  0  0  0
  3  8  1  0  0  0  0
  4  5  1  0  0  0  0
  5  7  2  0  0  0  0
  5 19  1  0  0  0  0
  6  7  1  0  0  0  0
  6  8  2  0  0  0  0
  6 11  1  0  0  0  0
  8  9  1  0  0  0  0
  9 10  2  0  0  0  0
 10 34  1  0  0  0  0
 11 12  1  0  0  0  0
 11 35  1  0  0  0  0
 12 18  1  0  0  0  0
 12 36  1  0  0  0  0
 12 37  1  0  0  0  0
 13 14  2  0  0  0  0
 13 18  1  0  0  0  0
 13 38  1  0  0  0  0
 14 15  1  0  0  0  0
 14 39  1  0  0  0  0
 15 16  2  0  0  0  0
 15 40  1  0  0  0  0
 16 17  1  0  0  0  0
 16 41  1  0  0  0  0
 17 18  2  0  0  0  0
 17 42  1  0  0  0  0
 19 43  1  0  0  0  0
 20 19  1  0  0  0  0
 20 23  1  0  0  0  0
 20 24  1  0  0  0  0
 20 31  1  1  0  0  0
 21 22  1  0  0  0  0
 21 25  1  0  0  0  0
 21 26  1  0  0  0  0
 21 32  1  6  0  0  0
 22 23  1  0  0  0  0
 22 44  1  0  0  0  0
 22 45  1  0  0  0  0
 23 46  1  0  0  0  0
 23 47  1  0  0  0  0
 24 25  1  0  0  0  0
 24 48  1  0  0  0  0
 24 49  1  0  0  0  0
 25 50  1  0  0  0  0
 25 51  1  0  0  0  0
 26 52  1  0  0  0  0
 26 53  1  0  0  0  0
 27 28  1  0  0  0  0
 27 54  1  0  0  0  0
 27 55  1  0  0  0  0
 28 30  1  0  0  0  0
 28 56  1  0  0  0  0
 28 57  1  0  0  0  0
 29 30  1  0  0  0  0
 29 58  1  0  0  0  0
 29 59  1  0  0  0  0
 30 60  1  0  0  0  0
 30 61  1  0  0  0  0
M  END
>  <DRUGBANK_ID>
DB04288

>  <SECONDARY_ACCESSION_NUMBERS>
EXPT01808

>  <COMMON_NAME>
2-[Trans-(4-Aminocyclohexyl)Amino]-6-(Benzyl-Amino)-9-Cyclopentylpurine

$$$$
