
 OpenBabel10282417103D

 13 12  0  0  0  0  0  0  0  0999 V2000
   -0.6000   -0.2282    1.8721 C   0  0  0  0  0  0  0  0  0  0  0  0
    0.2883   -0.8967    0.8008 C   0  0  1  0  0  0  0  0  0  0  0  0
   -0.6001    1.1203    1.9207 O   0  0  0  0  0  0  0  0  0  0  0  0
   -1.3089   -0.8815    2.6329 O   0  0  0  0  0  0  0  0  0  0  0  0
   -0.5380   -1.7411   -0.0859 N   0  0  0  0  0  0  0  0  0  0  0  0
    1.0964    0.0638   -0.0580 C   0  0  0  0  0  0  0  0  0  0  0  0
    0.9903   -1.5473    1.3368 H   0  0  0  0  0  0  0  0  0  0  0  0
   -0.0428    1.5944    1.2786 H   0  0  0  0  0  0  0  0  0  0  0  0
   -1.0595   -2.4000    0.5007 H   0  0  0  0  0  0  0  0  0  0  0  0
   -1.2500   -1.1729   -0.5441 H   0  0  0  0  0  0  0  0  0  0  0  0
    0.4616    0.8273   -0.5205 H   0  0  0  0  0  0  0  0  0  0  0  0
    1.8492    0.5703    0.5562 H   0  0  0  0  0  0  0  0  0  0  0  0
    1.6221   -0.4593   -0.8635 H   0  0  0  0  0  0  0  0  0  0  0  0
  2  5  1  0  0  0  0
  2  7  1  1  0  0  0
  2  6  1  0  0  0  0
  2  1  1  0  0  0  0
  3  1  1  0  0  0  0
  3  8  1  0  0  0  0
  4  1  2  0  0  0  0
  5  9  1  0  0  0  0
  5 10  1  0  0  0  0
  6 11  1  0  0  0  0
  6 12  1  0  0  0  0
  6 13  1  0  0  0  0
M  END
>  <DRUGBANK_ID>
DB00160

>  <SECONDARY_ACCESSION_NUMBERS>
NUTR00013

>  <COMMON_NAME>
Alanine

>  <CAS_NUMBER>
56-41-7

>  <UNII>
OF5P57N2ZX

>  <SYNONYMS>
(2S)-2-aminopropanoic acid; (S)-2-aminopropanoic acid; (S)-alanine; Alanina; Alanine; Alaninum; L-2-Aminopropionic acid; L-Alanin; L-alanine; L-alpha-Alanine; L-Î±-alanine

$$$$
