PPX
 OpenBabel10282417173D

 55 57  0  0  0  0  0  0  0  0999 V2000
    0.6235   -1.3166    2.1857 N   0  0  0  0  0  0  0  0  0  0  0  0
    0.2868   -1.1564    0.7458 C   0  0  2  0  0  0  0  0  0  0  0  0
    1.0471   -0.0849   -0.0620 C   0  0  0  0  0  0  0  0  0  0  0  0
    2.3967    0.3185    0.4836 C   0  0  0  0  0  0  0  0  0  0  0  0
    3.5125    0.2521   -0.3486 C   0  0  0  0  0  0  0  0  0  0  0  0
    2.5614    0.8079    1.7940 C   0  0  0  0  0  0  0  0  0  0  0  0
    4.7661    0.6124    0.1406 C   0  0  0  0  0  0  0  0  0  0  0  0
    3.8177    1.1105    2.3006 C   0  0  0  0  0  0  0  0  0  0  0  0
    4.9231    1.0091    1.4699 C   0  0  0  0  0  0  0  0  0  0  0  0
   -1.2593   -1.0503    0.7107 C   0  0  0  0  0  0  0  0  0  0  0  0
   -1.9308   -2.0628    0.4819 O   0  0  0  0  0  0  0  0  0  0  0  0
   -1.8399    0.0898    1.2470 N   0  0  0  0  0  0  0  0  0  0  0  0
   -1.5261    1.4854    1.0484 C   0  0  0  0  0  0  0  0  0  0  0  0
   -2.9723   -0.0293    2.1620 C   0  0  1  0  0  0  0  0  0  0  0  0
   -3.1612    1.3850    2.7512 C   0  0  0  0  0  0  0  0  0  0  0  0
   -1.9003    2.1303    2.3578 C   0  0  0  0  0  0  0  0  0  0  0  0
   -4.2738   -0.4647    1.4736 C   0  0  0  0  0  0  0  0  0  0  0  0
   -4.6889    0.0859    0.4440 O   0  0  0  0  0  0  0  0  0  0  0  0
   -5.0462   -1.4272    2.0564 N   0  0  0  0  0  0  0  0  0  0  0  0
   -4.7669   -2.2230    3.2457 C   0  0  0  0  0  0  0  0  0  0  0  0
   -5.8538   -2.0556    4.3130 C   0  0  0  0  0  0  0  0  0  0  0  0
   -7.1195   -2.6088    3.8565 N   0  0  0  0  0  0  0  0  0  0  0  0
   -7.7363   -3.6458    4.5297 C   0  0  0  0  0  0  0  0  0  0  0  0
   -7.8335   -3.6597    5.9197 C   0  0  0  0  0  0  0  0  0  0  0  0
   -8.4509   -4.7309    6.5436 C   0  0  0  0  0  0  0  0  0  0  0  0
   -8.9346   -5.8035    5.8868 N   0  0  0  0  0  0  0  0  0  0  0  0
   -8.7997   -5.7920    4.5444 C   0  0  0  0  0  0  0  0  0  0  0  0
   -8.2232   -4.7495    3.8323 C   0  0  0  0  0  0  0  0  0  0  0  0
    0.5614   -2.1192    0.2928 H   0  0  0  0  0  0  0  0  0  0  0  0
   -2.6465   -0.7109    2.9445 H   0  0  0  0  0  0  0  0  0  0  0  0
    0.3269   -0.4729    2.6695 H   0  0  0  0  0  0  0  0  0  0  0  0
    1.6364   -1.3897    2.2813 H   0  0  0  0  0  0  0  0  0  0  0  0
    1.1447   -0.4613   -1.0904 H   0  0  0  0  0  0  0  0  0  0  0  0
    0.5079    0.8341   -0.2443 H   0  0  0  0  0  0  0  0  0  0  0  0
    3.4089   -0.0752   -1.3811 H   0  0  0  0  0  0  0  0  0  0  0  0
    1.7236    0.9253    2.4735 H   0  0  0  0  0  0  0  0  0  0  0  0
    5.6254    0.5818   -0.5214 H   0  0  0  0  0  0  0  0  0  0  0  0
    3.9185    1.4280    3.3353 H   0  0  0  0  0  0  0  0  0  0  0  0
    5.9069    1.2522    1.8571 H   0  0  0  0  0  0  0  0  0  0  0  0
   -2.1523    1.8309    0.2180 H   0  0  0  0  0  0  0  0  0  0  0  0
   -0.4967    1.7279    0.8519 H   0  0  0  0  0  0  0  0  0  0  0  0
   -3.2856    1.3682    3.8383 H   0  0  0  0  0  0  0  0  0  0  0  0
   -4.0324    1.8973    2.3275 H   0  0  0  0  0  0  0  0  0  0  0  0
   -1.1043    1.9434    3.0901 H   0  0  0  0  0  0  0  0  0  0  0  0
   -2.0314    3.2099    2.2575 H   0  0  0  0  0  0  0  0  0  0  0  0
   -5.8448   -1.6888    1.4917 H   0  0  0  0  0  0  0  0  0  0  0  0
   -4.6740   -3.2663    2.9264 H   0  0  0  0  0  0  0  0  0  0  0  0
   -3.8206   -1.9420    3.7018 H   0  0  0  0  0  0  0  0  0  0  0  0
   -5.4966   -2.5412    5.2283 H   0  0  0  0  0  0  0  0  0  0  0  0
   -5.9948   -0.9924    4.5370 H   0  0  0  0  0  0  0  0  0  0  0  0
   -7.4560   -2.3533    2.9363 H   0  0  0  0  0  0  0  0  0  0  0  0
   -7.4756   -2.8270    6.5136 H   0  0  0  0  0  0  0  0  0  0  0  0
   -8.5783   -4.7461    7.6216 H   0  0  0  0  0  0  0  0  0  0  0  0
   -9.1740   -6.6759    4.0362 H   0  0  0  0  0  0  0  0  0  0  0  0
   -8.1351   -4.8201    2.7541 H   0  0  0  0  0  0  0  0  0  0  0  0
  1 31  1  0  0  0  0
  1 32  1  0  0  0  0
  2 10  1  0  0  0  0
  2 29  1  6  0  0  0
  2  3  1  0  0  0  0
  2  1  1  0  0  0  0
  3  4  1  0  0  0  0
  3 33  1  0  0  0  0
  3 34  1  0  0  0  0
  4  5  2  0  0  0  0
  4  6  1  0  0  0  0
  5  7  1  0  0  0  0
  5 35  1  0  0  0  0
  6  8  2  0  0  0  0
  6 36  1  0  0  0  0
  7  9  2  0  0  0  0
  7 37  1  0  0  0  0
  8  9  1  0  0  0  0
  8 38  1  0  0  0  0
  9 39  1  0  0  0  0
 10 11  2  0  0  0  0
 10 12  1  0  0  0  0
 12 13  1  0  0  0  0
 12 14  1  0  0  0  0
 13 16  1  0  0  0  0
 13 40  1  0  0  0  0
 13 41  1  0  0  0  0
 14 15  1  0  0  0  0
 14 30  1  1  0  0  0
 14 17  1  0  0  0  0
 15 16  1  0  0  0  0
 15 42  1  0  0  0  0
 15 43  1  0  0  0  0
 16 44  1  0  0  0  0
 16 45  1  0  0  0  0
 17 18  2  0  0  0  0
 17 19  1  0  0  0  0
 19 20  1  0  0  0  0
 19 46  1  0  0  0  0
 20 21  1  0  0  0  0
 20 47  1  0  0  0  0
 20 48  1  0  0  0  0
 21 22  1  0  0  0  0
 21 49  1  0  0  0  0
 21 50  1  0  0  0  0
 22 23  1  0  0  0  0
 22 51  1  0  0  0  0
 23 24  2  0  0  0  0
 23 28  1  0  0  0  0
 24 25  1  0  0  0  0
 24 52  1  0  0  0  0
 25 26  2  0  0  0  0
 25 53  1  0  0  0  0
 26 27  1  0  0  0  0
 27 28  2  0  0  0  0
 27 54  1  0  0  0  0
 28 55  1  0  0  0  0
M  END
>  <DRUGBANK_ID>
DB08422

>  <COMMON_NAME>
[PHENYLALANINYL-PROLINYL]-[2-(PYRIDIN-4-YLAMINO)-ETHYL]-AMINE

$$$$
