
 OpenBabel10282417223D

 86 87  0  0  0  0  0  0  0  0999 V2000
    1.1022    0.1136   -0.0456 C   0  0  0  0  0  0  0  0  0  0  0  0
    0.5305   -0.8650    0.9116 C   0  0  0  0  0  0  0  0  0  0  0  0
   -0.3269   -0.3441    2.0190 C   0  0  0  0  0  0  0  0  0  0  0  0
    0.7872   -2.1767    0.8029 C   0  0  0  0  0  0  0  0  0  0  0  0
    1.7530   -2.8420   -0.1586 C   0  0  0  0  0  0  0  0  0  0  0  0
    3.0024   -3.5535    0.4286 C   0  0  0  0  0  0  0  0  0  0  0  0
    2.6882   -4.7383    1.2988 C   0  0  0  0  0  0  0  0  0  0  0  0
    3.2887   -6.0616    1.0290 C   0  0  0  0  0  0  0  0  0  0  0  0
    1.8247   -4.5969    2.3017 C   0  0  0  0  0  0  0  0  0  0  0  0
    1.2423   -5.5730    3.2435 C   0  0  0  0  0  0  0  0  0  0  0  0
    1.4847   -5.0706    4.6426 C   0  0  0  0  0  0  0  0  0  0  0  0
    0.8281   -3.7896    5.1715 C   0  0  0  0  0  0  0  0  0  0  0  0
   -0.0330   -3.8443    6.3870 C   0  0  0  0  0  0  0  0  0  0  0  0
    1.1504   -2.5688    4.7144 C   0  0  0  0  0  0  0  0  0  0  0  0
    0.8400   -1.2240    5.2899 C   0  0  0  0  0  0  0  0  0  0  0  0
    2.0056   -0.2001    5.3565 C   0  0  0  0  0  0  0  0  0  0  0  0
    2.8526    0.0919    4.1091 C   0  0  0  0  0  0  0  0  0  0  0  0
    2.8980    1.5133    3.6641 C   0  0  0  0  0  0  0  0  0  0  0  0
    3.5317   -0.7964    3.3570 C   0  0  0  0  0  0  0  0  0  0  0  0
    4.4464   -0.6115    2.1852 C   0  0  0  0  0  0  0  0  0  0  0  0
    5.8667   -1.2072    2.4223 C   0  0  0  0  0  0  0  0  0  0  0  0
    5.9980   -2.7235    2.7054 C   0  0  0  0  0  0  0  0  0  0  0  0
    6.7448   -3.6124    1.7754 C   0  0  0  0  0  0  0  0  0  0  0  0
    5.6552   -3.2382    3.9003 C   0  0  0  0  0  0  0  0  0  0  0  0
    5.5827   -4.6856    4.4135 C   0  0  0  0  0  0  0  0  0  0  0  0
    4.6663   -5.0210    5.6314 C   0  0  0  0  0  0  0  0  0  0  0  0
    3.9759   -4.1515    6.4008 C   0  0  0  0  0  0  0  0  0  0  0  0
    3.8500   -2.7437    6.0271 C   0  0  0  0  0  0  0  0  0  0  0  0
    2.9576   -4.4980    7.4173 C   0  0  0  0  0  0  0  0  0  0  0  0
    2.4351   -3.6300    8.1343 O   0  0  0  0  0  0  0  0  0  0  0  0
    2.5227   -5.8773    7.5064 C   0  0  0  0  0  0  0  0  0  0  0  0
    3.2743   -6.8432    6.8479 C   0  0  0  0  0  0  0  0  0  0  0  0
    2.9395   -8.1788    7.0710 C   0  0  0  0  0  0  0  0  0  0  0  0
    1.8513   -8.5208    7.8910 C   0  0  0  0  0  0  0  0  0  0  0  0
    1.0141   -7.5389    8.4108 C   0  0  0  0  0  0  0  0  0  0  0  0
    1.3518   -6.2099    8.2206 C   0  0  0  0  0  0  0  0  0  0  0  0
    4.3650   -6.4744    5.8863 C   0  0  0  0  0  0  0  0  0  0  0  0
    4.9426   -7.3550    5.2525 O   0  0  0  0  0  0  0  0  0  0  0  0
    0.7518    1.1265    0.1561 H   0  0  0  0  0  0  0  0  0  0  0  0
    0.7669   -0.1650   -1.0496 H   0  0  0  0  0  0  0  0  0  0  0  0
    2.1941    0.1052   -0.0049 H   0  0  0  0  0  0  0  0  0  0  0  0
   -1.2621   -0.9007    2.1328 H   0  0  0  0  0  0  0  0  0  0  0  0
    0.2568   -0.4421    2.9224 H   0  0  0  0  0  0  0  0  0  0  0  0
   -0.5525    0.7208    1.9346 H   0  0  0  0  0  0  0  0  0  0  0  0
    0.2156   -2.8197    1.4691 H   0  0  0  0  0  0  0  0  0  0  0  0
    1.1790   -3.5782   -0.7286 H   0  0  0  0  0  0  0  0  0  0  0  0
    2.1202   -2.1032   -0.8761 H   0  0  0  0  0  0  0  0  0  0  0  0
    3.6463   -3.8543   -0.4059 H   0  0  0  0  0  0  0  0  0  0  0  0
    3.6137   -2.8750    1.0137 H   0  0  0  0  0  0  0  0  0  0  0  0
    3.8958   -6.3720    1.8865 H   0  0  0  0  0  0  0  0  0  0  0  0
    2.4765   -6.7785    0.8840 H   0  0  0  0  0  0  0  0  0  0  0  0
    3.9154   -6.0489    0.1391 H   0  0  0  0  0  0  0  0  0  0  0  0
    1.5184   -3.5973    2.4973 H   0  0  0  0  0  0  0  0  0  0  0  0
    0.1725   -5.6917    3.0882 H   0  0  0  0  0  0  0  0  0  0  0  0
    1.7398   -6.5427    3.1296 H   0  0  0  0  0  0  0  0  0  0  0  0
    1.2909   -5.9153    5.3012 H   0  0  0  0  0  0  0  0  0  0  0  0
    2.5577   -4.9138    4.6308 H   0  0  0  0  0  0  0  0  0  0  0  0
    0.3654   -3.2234    7.1983 H   0  0  0  0  0  0  0  0  0  0  0  0
   -1.0295   -3.4701    6.1603 H   0  0  0  0  0  0  0  0  0  0  0  0
   -0.1297   -4.8597    6.7442 H   0  0  0  0  0  0  0  0  0  0  0  0
    1.7964   -2.5075    3.8696 H   0  0  0  0  0  0  0  0  0  0  0  0
    0.0267   -0.8054    4.7080 H   0  0  0  0  0  0  0  0  0  0  0  0
    0.4237   -1.3219    6.2936 H   0  0  0  0  0  0  0  0  0  0  0  0
    1.5357    0.7291    5.7024 H   0  0  0  0  0  0  0  0  0  0  0  0
    2.6829   -0.4110    6.1938 H   0  0  0  0  0  0  0  0  0  0  0  0
    3.9320    1.8685    3.6425 H   0  0  0  0  0  0  0  0  0  0  0  0
    2.4722    1.5571    2.6559 H   0  0  0  0  0  0  0  0  0  0  0  0
    2.3126    2.1731    4.3039 H   0  0  0  0  0  0  0  0  0  0  0  0
    3.4496   -1.8476    3.5153 H   0  0  0  0  0  0  0  0  0  0  0  0
    3.9788   -1.0873    1.3279 H   0  0  0  0  0  0  0  0  0  0  0  0
    4.5174    0.4406    1.9019 H   0  0  0  0  0  0  0  0  0  0  0  0
    6.4679   -0.9504    1.5443 H   0  0  0  0  0  0  0  0  0  0  0  0
    6.3114   -0.6568    3.2643 H   0  0  0  0  0  0  0  0  0  0  0  0
    7.5627   -4.0831    2.3406 H   0  0  0  0  0  0  0  0  0  0  0  0
    6.0938   -4.3981    1.3891 H   0  0  0  0  0  0  0  0  0  0  0  0
    7.1996   -3.0600    0.9536 H   0  0  0  0  0  0  0  0  0  0  0  0
    5.4649   -2.4284    4.5739 H   0  0  0  0  0  0  0  0  0  0  0  0
    6.5967   -4.9594    4.7101 H   0  0  0  0  0  0  0  0  0  0  0  0
    5.2844   -5.3208    3.5667 H   0  0  0  0  0  0  0  0  0  0  0  0
    4.7168   -2.1306    6.2490 H   0  0  0  0  0  0  0  0  0  0  0  0
    3.6136   -2.8153    4.9757 H   0  0  0  0  0  0  0  0  0  0  0  0
    2.9840   -2.2615    6.4434 H   0  0  0  0  0  0  0  0  0  0  0  0
    3.5414   -8.9639    6.6234 H   0  0  0  0  0  0  0  0  0  0  0  0
    1.6579   -9.5629    8.1277 H   0  0  0  0  0  0  0  0  0  0  0  0
    0.1300   -7.7997    8.9897 H   0  0  0  0  0  0  0  0  0  0  0  0
    0.6840   -5.4402    8.6121 H   0  0  0  0  0  0  0  0  0  0  0  0
  1  2  1  0  0  0  0
  1 39  1  0  0  0  0
  1 40  1  0  0  0  0
  1 41  1  0  0  0  0
  2  3  1  0  0  0  0
  2  4  2  0  0  0  0
  3 42  1  0  0  0  0
  3 43  1  0  0  0  0
  3 44  1  0  0  0  0
  4  5  1  0  0  0  0
  4 45  1  0  0  0  0
  5  6  1  0  0  0  0
  5 46  1  0  0  0  0
  5 47  1  0  0  0  0
  6  7  1  0  0  0  0
  6 48  1  0  0  0  0
  6 49  1  0  0  0  0
  7  8  1  0  0  0  0
  7  9  2  0  0  0  0
  8 50  1  0  0  0  0
  8 51  1  0  0  0  0
  8 52  1  0  0  0  0
  9 10  1  0  0  0  0
  9 53  1  0  0  0  0
 10 11  1  0  0  0  0
 10 54  1  0  0  0  0
 10 55  1  0  0  0  0
 11 12  1  0  0  0  0
 11 56  1  0  0  0  0
 11 57  1  0  0  0  0
 12 13  1  0  0  0  0
 12 14  2  0  0  0  0
 13 58  1  0  0  0  0
 13 59  1  0  0  0  0
 13 60  1  0  0  0  0
 14 15  1  0  0  0  0
 14 61  1  0  0  0  0
 15 16  1  0  0  0  0
 15 62  1  0  0  0  0
 15 63  1  0  0  0  0
 16 17  1  0  0  0  0
 16 64  1  0  0  0  0
 16 65  1  0  0  0  0
 17 18  1  0  0  0  0
 17 19  2  0  0  0  0
 18 66  1  0  0  0  0
 18 67  1  0  0  0  0
 18 68  1  0  0  0  0
 19 20  1  0  0  0  0
 19 69  1  0  0  0  0
 20 21  1  0  0  0  0
 20 70  1  0  0  0  0
 20 71  1  0  0  0  0
 21 22  1  0  0  0  0
 21 72  1  0  0  0  0
 21 73  1  0  0  0  0
 22 23  1  0  0  0  0
 22 24  2  0  0  0  0
 23 74  1  0  0  0  0
 23 75  1  0  0  0  0
 23 76  1  0  0  0  0
 24 25  1  0  0  0  0
 24 77  1  0  0  0  0
 25 26  1  0  0  0  0
 25 78  1  0  0  0  0
 25 79  1  0  0  0  0
 26 27  2  0  0  0  0
 26 37  1  0  0  0  0
 27 28  1  0  0  0  0
 27 29  1  0  0  0  0
 28 80  1  0  0  0  0
 28 81  1  0  0  0  0
 28 82  1  0  0  0  0
 29 30  2  0  0  0  0
 29 31  1  0  0  0  0
 31 32  2  0  0  0  0
 31 36  1  0  0  0  0
 32 33  1  0  0  0  0
 32 37  1  0  0  0  0
 33 34  2  0  0  0  0
 33 83  1  0  0  0  0
 34 35  1  0  0  0  0
 34 84  1  0  0  0  0
 35 36  2  0  0  0  0
 35 85  1  0  0  0  0
 36 86  1  0  0  0  0
 37 38  2  0  0  0  0
M  END
>  <DRUGBANK_ID>
DB15381

>  <COMMON_NAME>
Menaquinone

>  <CAS_NUMBER>
1182-68-9

>  <UNII>
12V8PA4WCH

$$$$
