
 OpenBabel10282417143D

 50 53  0  0  0  0  0  0  0  0999 V2000
    1.4049   -0.2138    0.0258 C   0  0  0  0  0  0  0  0  0  0  0  0
    0.5202   -1.2875    0.0299 C   0  0  0  0  0  0  0  0  0  0  0  0
    0.9221    1.0953    0.0210 C   0  0  0  0  0  0  0  0  0  0  0  0
   -0.8491   -1.0436   -0.0052 C   0  0  0  0  0  0  0  0  0  0  0  0
   -0.4483    1.3390    0.0427 C   0  0  0  0  0  0  0  0  0  0  0  0
   -9.5118    0.4537   -1.2682 C   0  0  0  0  0  0  0  0  0  0  0  0
   -8.7582    1.6385   -1.1840 C   0  0  0  0  0  0  0  0  0  0  0  0
   -5.9516   -0.7692    1.4997 C   0  0  0  0  0  0  0  0  0  0  0  0
   -6.8174    0.2911    2.1944 C   0  0  0  0  0  0  0  0  0  0  0  0
   -3.6358   -0.0636    0.7629 C   0  0  0  0  0  0  0  0  0  0  0  0
   -5.4180    0.1821   -0.7572 C   0  0  0  0  0  0  0  0  0  0  0  0
   -8.4095   -0.0954   -3.3620 C   0  0  0  0  0  0  0  0  0  0  0  0
   -4.9747   -0.2135    0.4985 C   0  0  0  0  0  0  0  0  0  0  0  0
   -1.3470    0.2765   -0.0333 C   0  0  0  0  0  0  0  0  0  0  0  0
   -9.4591   -0.2903   -2.4402 C   0  0  0  0  0  0  0  0  0  0  0  0
   -2.7841    0.4952   -0.2108 C   0  0  0  0  0  0  0  0  0  0  0  0
   -4.6915    1.0109   -1.6333 C   0  0  0  0  0  0  0  0  0  0  0  0
   -7.6578    1.8126   -2.0456 C   0  0  0  0  0  0  0  0  0  0  0  0
   -7.4850    0.9014   -3.0742 C   0  0  0  0  0  0  0  0  0  0  0  0
   -3.3342    1.1506   -1.3557 C   0  0  0  0  0  0  0  0  0  0  0  0
  -10.6524   -1.1031   -2.8114 C   0  0  0  0  0  0  0  0  0  0  0  0
   -5.5768    1.8373   -2.5320 C   0  0  0  0  0  0  0  0  0  0  0  0
   -7.5289    1.0601    1.1844 N   0  3  0  0  0  0  0  0  0  0  0  0
  -10.8614   -1.4229   -4.0611 N   0  0  0  0  0  0  0  0  0  0  0  0
  -11.6256   -1.4828   -1.9522 N   0  0  0  0  0  0  0  0  0  0  0  0
   -6.5214    2.5922   -1.9365 N   0  0  0  0  0  0  0  0  0  0  0  0
   -6.2702    1.2969   -3.6455 N   0  0  0  0  0  0  0  0  0  0  0  0
   -2.4899    1.9060   -2.1228 O   0  0  0  0  0  0  0  0  0  0  0  0
    2.4755   -0.3956    0.0210 H   0  0  0  0  0  0  0  0  0  0  0  0
    0.8937   -2.3082    0.0234 H   0  0  0  0  0  0  0  0  0  0  0  0
    1.6116    1.9325   -0.0291 H   0  0  0  0  0  0  0  0  0  0  0  0
   -1.5301   -1.8931   -0.0462 H   0  0  0  0  0  0  0  0  0  0  0  0
   -0.8176    2.3603    0.0744 H   0  0  0  0  0  0  0  0  0  0  0  0
  -10.1670    0.1506   -0.4531 H   0  0  0  0  0  0  0  0  0  0  0  0
   -8.9291    2.3053   -0.3476 H   0  0  0  0  0  0  0  0  0  0  0  0
   -6.5983   -1.4743    0.9596 H   0  0  0  0  0  0  0  0  0  0  0  0
   -5.4293   -1.3390    2.2690 H   0  0  0  0  0  0  0  0  0  0  0  0
   -7.6056   -0.1755    2.7918 H   0  0  0  0  0  0  0  0  0  0  0  0
   -6.2664    1.0258    2.7808 H   0  0  0  0  0  0  0  0  0  0  0  0
   -3.2236   -0.4410    1.6976 H   0  0  0  0  0  0  0  0  0  0  0  0
   -6.4393   -0.0609   -1.0075 H   0  0  0  0  0  0  0  0  0  0  0  0
   -8.2872   -0.7031   -4.2474 H   0  0  0  0  0  0  0  0  0  0  0  0
   -8.0240    0.3810    0.5991 H   0  0  0  0  0  0  0  0  0  0  0  0
   -8.1987    1.7384    1.5600 H   0  0  0  0  0  0  0  0  0  0  0  0
   -6.8790    1.5850    0.5696 H   0  0  0  0  0  0  0  0  0  0  0  0
  -10.1407   -1.0578   -4.6768 H   0  0  0  0  0  0  0  0  0  0  0  0
  -11.7711   -1.1199   -1.0200 H   0  0  0  0  0  0  0  0  0  0  0  0
  -12.4753   -1.8033   -2.4157 H   0  0  0  0  0  0  0  0  0  0  0  0
   -6.3615    1.8535   -4.4816 H   0  0  0  0  0  0  0  0  0  0  0  0
   -2.9807    2.4496   -2.7576 H   0  0  0  0  0  0  0  0  0  0  0  0
  1 29  1  0  0  0  0
  2  1  2  0  0  0  0
  2 30  1  0  0  0  0
  3  1  1  0  0  0  0
  3 31  1  0  0  0  0
  4  2  1  0  0  0  0
  4 32  1  0  0  0  0
  5  3  2  0  0  0  0
  5 33  1  0  0  0  0
  6 34  1  0  0  0  0
  7  6  2  0  0  0  0
  7 35  1  0  0  0  0
  8 36  1  0  0  0  0
  8 37  1  0  0  0  0
  9  8  1  0  0  0  0
  9 38  1  0  0  0  0
  9 39  1  0  0  0  0
 10 40  1  0  0  0  0
 11 41  1  0  0  0  0
 12 42  1  0  0  0  0
 13  8  1  0  0  0  0
 13 10  2  0  0  0  0
 13 11  1  0  0  0  0
 14  4  2  0  0  0  0
 14  5  1  0  0  0  0
 15  6  1  0  0  0  0
 15 12  2  0  0  0  0
 16 10  1  0  0  0  0
 16 14  1  0  0  0  0
 17 11  2  0  0  0  0
 18  7  1  0  0  0  0
 19 12  1  0  0  0  0
 19 18  2  0  0  0  0
 20 16  2  0  0  0  0
 20 17  1  0  0  0  0
 21 15  1  0  0  0  0
 22 17  1  0  0  0  0
 23  9  1  0  0  0  0
 23 43  1  0  0  0  0
 23 44  1  0  0  0  0
 23 45  1  0  0  0  0
 24 21  2  0  0  0  0
 24 46  1  0  0  0  0
 25 21  1  0  0  0  0
 25 47  1  0  0  0  0
 25 48  1  0  0  0  0
 26 18  1  0  0  0  0
 26 22  2  0  0  0  0
 27 19  1  0  0  0  0
 27 22  1  0  0  0  0
 27 49  1  0  0  0  0
 28 20  1  0  0  0  0
 28 50  1  0  0  0  0
M  CHG  1  23   1
M  END
>  <DRUGBANK_ID>
DB04246

>  <SECONDARY_ACCESSION_NUMBERS>
EXPT00268

>  <COMMON_NAME>
CRA_23653

$$$$
