
 OpenBabel10282417173D

 56 59  0  0  0  0  0  0  0  0999 V2000
   -8.1885    5.6216   -6.4602 C   0  0  0  0  0  0  0  0  0  0  0  0
   -7.3354    4.9642   -7.3311 C   0  0  0  0  0  0  0  0  0  0  0  0
   -6.5411    3.9070   -6.8593 C   0  0  0  0  0  0  0  0  0  0  0  0
   -6.5779    3.4934   -5.5034 C   0  0  0  0  0  0  0  0  0  0  0  0
   -7.4067    4.1917   -4.6049 C   0  0  0  0  0  0  0  0  0  0  0  0
   -8.2260    5.2440   -5.1141 C   0  0  0  0  0  0  0  0  0  0  0  0
   -5.7015    2.3895   -4.9371 C   0  0  0  0  0  0  0  0  0  0  0  0
   -6.2536    1.4627   -3.7804 C   0  0  0  0  0  0  0  0  0  0  0  0
   -7.3577    2.1663   -3.0240 C   0  0  1  0  0  0  0  0  0  0  0  0
   -7.3190    3.7557   -3.1561 C   0  0  1  0  0  0  0  0  0  0  0  0
   -5.6750    0.2957   -3.3091 C   0  0  0  0  0  0  0  0  0  0  0  0
   -5.8996   -0.4060   -1.7553 C   0  0  1  0  0  0  0  0  0  0  0  0
   -6.7896    0.5613   -1.0136 C   0  0  1  0  0  0  0  0  0  0  0  0
   -7.1974    1.8976   -1.5271 C   0  0  0  0  0  0  0  0  0  0  0  0
   -6.6712   -1.8067   -0.6593 C   0  0  0  0  0  0  0  0  0  0  0  0
   -7.0408   -1.5263    0.9080 C   0  0  0  0  0  0  0  0  0  0  0  0
   -5.9344   -0.8198    0.9362 C   0  0  0  0  0  0  0  0  0  0  0  0
   -6.1767    0.6590    0.5002 C   0  0  1  0  0  0  0  0  0  0  0  0
   -9.3774    6.1433   -4.1791 Cl  0  0  0  0  0  0  0  0  0  0  0  0
   -5.7688    3.3150   -7.8205 O   0  0  0  0  0  0  0  0  0  0  0  0
   -4.5316    2.3344   -5.3124 O   0  0  0  0  0  0  0  0  0  0  0  0
   -4.4124   -0.0497   -3.9012 O   0  0  0  0  0  0  0  0  0  0  0  0
   -6.3134   -3.0049   -0.7329 O   0  0  0  0  0  0  0  0  0  0  0  0
   -8.2659   -0.9023    1.6452 C   0  0  0  0  0  0  0  0  0  0  0  0
   -4.6779   -1.4971    0.4737 O   0  0  0  0  0  0  0  0  0  0  0  0
   -8.4025   -1.1285    3.0368 N   0  0  0  0  0  0  0  0  0  0  0  0
   -9.0678   -0.2304    1.0977 O   0  0  0  0  0  0  0  0  0  0  0  0
   -8.3138    1.7803   -3.4019 H   0  0  0  0  0  0  0  0  0  0  0  0
   -7.7645    0.0505   -1.1109 H   0  0  0  0  0  0  0  0  0  0  0  0
   -4.9954    1.4067    1.0196 N   0  0  0  0  0  0  0  0  0  0  0  0
   -4.5395   -0.0343   -1.4172 O   0  0  0  0  0  0  0  0  0  0  0  0
   -4.5933    2.5343    0.2197 C   0  0  0  0  0  0  0  0  0  0  0  0
   -3.7886    0.5847    1.2225 C   0  0  0  0  0  0  0  0  0  0  0  0
   -6.0419    4.2109   -2.4052 C   0  0  0  0  0  0  0  0  0  0  0  0
   -8.3976    4.2807   -2.3835 O   0  0  0  0  0  0  0  0  0  0  0  0
   -8.8220    6.4322   -6.8256 H   0  0  0  0  0  0  0  0  0  0  0  0
   -7.3004    5.2821   -8.3736 H   0  0  0  0  0  0  0  0  0  0  0  0
   -8.0464    2.3139   -0.9759 H   0  0  0  0  0  0  0  0  0  0  0  0
   -6.3827    2.4651   -1.1643 H   0  0  0  0  0  0  0  0  0  0  0  0
   -7.0336    1.1394    1.0046 H   0  0  0  0  0  0  0  0  0  0  0  0
   -5.2309    2.6118   -7.4155 H   0  0  0  0  0  0  0  0  0  0  0  0
   -4.1508    0.6338   -4.5713 H   0  0  0  0  0  0  0  0  0  0  0  0
   -4.7177   -2.0451   -0.3482 H   0  0  0  0  0  0  0  0  0  0  0  0
   -9.2132   -0.7134    3.5073 H   0  0  0  0  0  0  0  0  0  0  0  0
   -7.8240   -1.6791    3.6551 H   0  0  0  0  0  0  0  0  0  0  0  0
   -3.8340   -0.5855   -1.7955 H   0  0  0  0  0  0  0  0  0  0  0  0
   -3.6787    2.9642    0.6244 H   0  0  0  0  0  0  0  0  0  0  0  0
   -4.3758    2.2524   -0.8148 H   0  0  0  0  0  0  0  0  0  0  0  0
   -5.3565    3.3094    0.2743 H   0  0  0  0  0  0  0  0  0  0  0  0
   -2.9480    1.0791    1.6834 H   0  0  0  0  0  0  0  0  0  0  0  0
   -3.9752   -0.2479    1.9145 H   0  0  0  0  0  0  0  0  0  0  0  0
   -3.3768    0.2333    0.2738 H   0  0  0  0  0  0  0  0  0  0  0  0
   -5.2961    3.4041   -2.4110 H   0  0  0  0  0  0  0  0  0  0  0  0
   -5.4800    5.0728   -2.7414 H   0  0  0  0  0  0  0  0  0  0  0  0
   -6.3360    4.4000   -1.3614 H   0  0  0  0  0  0  0  0  0  0  0  0
   -9.2166    4.2636   -2.9066 H   0  0  0  0  0  0  0  0  0  0  0  0
  1  2  2  0  0  0  0
  1  6  1  0  0  0  0
  1 36  1  0  0  0  0
  2  3  1  0  0  0  0
  2 37  1  0  0  0  0
  3  4  2  0  0  0  0
  3 20  1  0  0  0  0
  4  5  1  0  0  0  0
  4  7  1  0  0  0  0
  5  6  2  0  0  0  0
  5 10  1  0  0  0  0
  6 19  1  0  0  0  0
  7  8  1  0  0  0  0
  7 21  2  0  0  0  0
  8  9  1  0  0  0  0
  8 11  2  0  0  0  0
  9 10  1  0  0  0  0
  9 14  1  0  0  0  0
  9 28  1  1  0  0  0
 10 35  1  1  0  0  0
 10 34  1  0  0  0  0
 11 12  1  0  0  0  0
 11 22  1  0  0  0  0
 12 13  1  0  0  0  0
 12 15  1  0  0  0  0
 12 31  1  1  0  0  0
 13 14  1  0  0  0  0
 13 18  1  0  0  0  0
 13 29  1  6  0  0  0
 14 38  1  0  0  0  0
 14 39  1  0  0  0  0
 15 16  1  0  0  0  0
 15 23  2  0  0  0  0
 16 17  2  0  0  0  0
 16 24  1  0  0  0  0
 17 18  1  0  0  0  0
 17 25  1  0  0  0  0
 18 40  1  1  0  0  0
 18 30  1  0  0  0  0
 20 41  1  0  0  0  0
 22 42  1  0  0  0  0
 24 26  1  0  0  0  0
 24 27  2  0  0  0  0
 25 43  1  0  0  0  0
 26 44  1  0  0  0  0
 26 45  1  0  0  0  0
 30 32  1  0  0  0  0
 30 33  1  0  0  0  0
 31 46  1  0  0  0  0
 32 47  1  0  0  0  0
 32 48  1  0  0  0  0
 32 49  1  0  0  0  0
 33 50  1  0  0  0  0
 33 51  1  0  0  0  0
 33 52  1  0  0  0  0
 34 53  1  0  0  0  0
 34 54  1  0  0  0  0
 34 55  1  0  0  0  0
 35 56  1  0  0  0  0
M  END
>  <DRUGBANK_ID>
DB09093

>  <COMMON_NAME>
Chlortetracycline

>  <CAS_NUMBER>
57-62-5

>  <UNII>
WCK1KIQ23Q

>  <SYNONYMS>
Chlortetracycline; Chlort√©tracycline; Chlortetracyclinum; Clortetraciclina

$$$$
