
 OpenBabel10282417243D

 66 73  0  0  1  0  0  0  0  0999 V2000
   -2.2473   -1.1495   -0.5861 H   0  0  0  0  0  0  0  0  0  0  0  0
   -1.8856   -0.4269    0.1613 C   0  0  1  0  0  0  0  0  0  0  0  0
   -0.6293   -1.4707    0.8592 C   0  0  0  0  0  0  0  0  0  0  0  0
   -0.3576   -0.8180    2.1618 C   0  0  0  0  0  0  0  0  0  0  0  0
   -1.5013   -0.1593    2.4993 N   0  0  0  0  0  0  0  0  0  0  0  0
   -1.2751    0.8336    3.3706 N   0  0  0  0  0  0  0  0  0  0  0  0
    0.0105    0.7414    3.7292 C   0  0  0  0  0  0  0  0  0  0  0  0
    0.7577    1.6330    4.5425 C   0  0  0  0  0  0  0  0  0  0  0  0
    0.2906    3.0005    4.9427 C   0  0  0  0  0  0  0  0  0  0  0  0
    2.0102    1.0930    4.9181 C   0  0  0  0  0  0  0  0  0  0  0  0
    2.5113   -0.1513    4.3825 C   0  0  0  0  0  0  0  0  0  0  0  0
    1.8435   -0.9552    3.4044 C   0  0  0  0  0  0  0  0  0  0  0  0
    0.5676   -0.4610    3.1264 C   0  0  0  0  0  0  0  0  0  0  0  0
    2.9228    1.8298    5.8660 C   0  0  0  0  0  0  0  0  0  0  0  0
    2.2967    2.3674    6.9518 O   0  0  0  0  0  0  0  0  0  0  0  0
    4.1029    1.8986    5.7064 O   0  0  0  0  0  0  0  0  0  0  0  0
   -2.6414   -0.2062    1.5098 C   0  0  1  0  0  0  0  0  0  0  0  0
   -3.2196   -1.1108    1.7348 H   0  0  0  0  0  0  0  0  0  0  0  0
   -3.4586    1.1201    1.5170 C   0  0  2  0  0  0  0  0  0  0  0  0
   -4.5259    1.3328    2.5916 C   0  0  0  0  0  0  0  0  0  0  0  0
   -4.1147    1.5317    3.9241 C   0  0  0  0  0  0  0  0  0  0  0  0
   -4.9021    2.2119    4.8480 C   0  0  0  0  0  0  0  0  0  0  0  0
   -6.2322    2.4623    4.5625 C   0  0  0  0  0  0  0  0  0  0  0  0
   -6.7178    2.1226    3.3185 C   0  0  0  0  0  0  0  0  0  0  0  0
   -8.3739    2.3455    2.9118 Cl  0  0  0  0  0  0  0  0  0  0  0  0
   -5.8578    1.6130    2.3580 C   0  0  0  0  0  0  0  0  0  0  0  0
   -6.4007    1.3827    1.1834 F   0  0  0  0  0  0  0  0  0  0  0  0
   -3.3438    1.7614    0.0818 C   0  0  1  0  0  0  0  0  0  0  0  0
   -2.2495    0.8884   -0.6058 N   0  0  0  0  0  0  0  0  0  0  0  0
   -1.2422    1.6865   -1.3262 C   0  0  0  0  0  0  0  0  0  0  0  0
   -0.1743    2.3294   -0.4566 C   0  0  0  0  0  0  0  0  0  0  0  0
    0.6778    1.4840    0.4361 C   0  0  0  0  0  0  0  0  0  0  0  0
   -0.3741    2.3411    1.0257 C   0  0  0  0  0  0  0  0  0  0  0  0
   -2.9640    3.4215    0.1362 C   0  0  0  0  0  0  0  0  0  0  0  0
   -1.9465    4.0849    0.0720 O   0  0  0  0  0  0  0  0  0  0  0  0
   -4.1210    4.1379    0.0759 N   0  0  0  0  0  0  0  0  0  0  0  0
   -5.1024    3.3705   -0.4839 C   0  0  0  0  0  0  0  0  0  0  0  0
   -6.3308    3.9112   -0.8107 C   0  0  0  0  0  0  0  0  0  0  0  0
   -7.3002    3.0091   -1.1927 C   0  0  0  0  0  0  0  0  0  0  0  0
   -8.9021    3.5780   -1.4615 Cl  0  0  0  0  0  0  0  0  0  0  0  0
   -7.0009    1.6324   -1.2724 C   0  0  0  0  0  0  0  0  0  0  0  0
   -5.6940    1.1212   -1.0216 C   0  0  0  0  0  0  0  0  0  0  0  0
   -4.7119    2.0025   -0.6053 C   0  0  0  0  0  0  0  0  0  0  0  0
   -1.0954   -2.4351    1.1601 H   0  0  0  0  0  0  0  0  0  0  0  0
    0.2234   -1.7596    0.2340 H   0  0  0  0  0  0  0  0  0  0  0  0
   -0.1337    2.9661    5.9477 H   0  0  0  0  0  0  0  0  0  0  0  0
    1.1187    3.7215    4.9239 H   0  0  0  0  0  0  0  0  0  0  0  0
   -0.4757    3.3902    4.2663 H   0  0  0  0  0  0  0  0  0  0  0  0
    3.4844   -0.4927    4.7488 H   0  0  0  0  0  0  0  0  0  0  0  0
    2.2686   -1.8680    3.0123 H   0  0  0  0  0  0  0  0  0  0  0  0
    1.3522    2.1728    7.0640 H   0  0  0  0  0  0  0  0  0  0  0  0
   -2.8241    1.8319    2.0245 H   0  0  0  0  0  0  0  0  0  0  0  0
   -3.1307    1.2521    4.2730 H   0  0  0  0  0  0  0  0  0  0  0  0
   -4.4514    2.5525    5.7754 H   0  0  0  0  0  0  0  0  0  0  0  0
   -6.8857    2.8943    5.3066 H   0  0  0  0  0  0  0  0  0  0  0  0
   -0.7760    1.1083   -2.1297 H   0  0  0  0  0  0  0  0  0  0  0  0
   -1.7656    2.4865   -1.8823 H   0  0  0  0  0  0  0  0  0  0  0  0
    0.2164    3.2515   -0.8644 H   0  0  0  0  0  0  0  0  0  0  0  0
    0.5410    0.4411    0.2366 H   0  0  0  0  0  0  0  0  0  0  0  0
    1.6367    1.7234    0.8499 H   0  0  0  0  0  0  0  0  0  0  0  0
   -0.1997    3.1956    1.6609 H   0  0  0  0  0  0  0  0  0  0  0  0
   -1.2871    1.9357    1.3313 H   0  0  0  0  0  0  0  0  0  0  0  0
   -4.0723    5.1480    0.0509 H   0  0  0  0  0  0  0  0  0  0  0  0
   -6.5381    4.9709   -0.6880 H   0  0  0  0  0  0  0  0  0  0  0  0
   -7.8307    0.9350   -1.3727 H   0  0  0  0  0  0  0  0  0  0  0  0
   -5.5572    0.0521   -0.8954 H   0  0  0  0  0  0  0  0  0  0  0  0
  2  3  1  0  0  0  0
  2 29  1  0  0  0  0
  2  1  1  6  0  0  0
  3  4  1  0  0  0  0
  3 44  1  0  0  0  0
  3 45  1  0  0  0  0
  4  5  1  0  0  0  0
  4 13  2  0  0  0  0
  5  6  1  0  0  0  0
  6  7  2  0  0  0  0
  7  8  1  0  0  0  0
  7 13  1  0  0  0  0
  8 10  2  0  0  0  0
  8  9  1  0  0  0  0
  9 46  1  0  0  0  0
  9 47  1  0  0  0  0
  9 48  1  0  0  0  0
 10 11  1  0  0  0  0
 10 14  1  0  0  0  0
 11 12  2  0  0  0  0
 11 49  1  0  0  0  0
 12 13  1  0  0  0  0
 12 50  1  0  0  0  0
 14 15  1  0  0  0  0
 14 16  2  0  0  0  0
 15 51  1  0  0  0  0
 17  5  1  0  0  0  0
 17  2  1  0  0  0  0
 17 19  1  0  0  0  0
 17 18  1  1  0  0  0
 19 28  1  0  0  0  0
 19 20  1  0  0  0  0
 19 52  1  1  0  0  0
 20 21  2  0  0  0  0
 20 26  1  0  0  0  0
 21 22  1  0  0  0  0
 21 53  1  0  0  0  0
 22 23  2  0  0  0  0
 22 54  1  0  0  0  0
 23 24  1  0  0  0  0
 23 55  1  0  0  0  0
 24 25  1  0  0  0  0
 24 26  2  0  0  0  0
 26 27  1  0  0  0  0
 28 29  1  0  0  0  0
 28 34  1  6  0  0  0
 28 43  1  0  0  0  0
 29 30  1  0  0  0  0
 30 31  1  0  0  0  0
 30 56  1  0  0  0  0
 30 57  1  0  0  0  0
 31 32  1  0  0  0  0
 31 33  1  0  0  0  0
 31 58  1  0  0  0  0
 32 33  1  0  0  0  0
 32 59  1  0  0  0  0
 32 60  1  0  0  0  0
 33 61  1  0  0  0  0
 33 62  1  0  0  0  0
 34 36  1  0  0  0  0
 34 35  2  0  0  0  0
 36 37  1  0  0  0  0
 36 63  1  0  0  0  0
 37 38  2  0  0  0  0
 37 43  1  0  0  0  0
 38 39  1  0  0  0  0
 38 64  1  0  0  0  0
 39 41  2  0  0  0  0
 39 40  1  0  0  0  0
 41 42  1  0  0  0  0
 41 65  1  0  0  0  0
 42 43  2  0  0  0  0
 42 66  1  0  0  0  0
M  END
>  <DRUGBANK_ID>
DB18578

>  <COMMON_NAME>
Brigimadlin

>  <CAS_NUMBER>
2095116-40-6

>  <UNII>
9A934ZAN94

$$$$
