
 OpenBabel10282417143D

 15 15  0  0  0  0  0  0  0  0999 V2000
    0.8872    0.1097    0.1741 S   0  0  0  0  0  0  0  0  0  0  0  0
    0.3697   -1.5703   -0.2775 C   0  0  0  0  0  0  0  0  0  0  0  0
    0.8374   -2.0876   -1.6133 C   0  0  0  0  0  0  0  0  0  0  0  0
    1.3426   -1.2903   -2.6440 C   0  0  0  0  0  0  0  0  0  0  0  0
    1.7031   -1.8608   -3.8627 C   0  0  0  0  0  0  0  0  0  0  0  0
    1.5345   -3.2236   -4.0249 C   0  0  0  0  0  0  0  0  0  0  0  0
    1.0418   -4.0328   -3.0665 N   0  0  0  0  0  0  0  0  0  0  0  0
    0.7030   -3.4494   -1.8920 C   0  0  0  0  0  0  0  0  0  0  0  0
    2.2009   -0.0726   -0.0253 H   0  0  0  0  0  0  0  0  0  0  0  0
    0.7362   -2.2330    0.5144 H   0  0  0  0  0  0  0  0  0  0  0  0
   -0.7250   -1.5940   -0.2569 H   0  0  0  0  0  0  0  0  0  0  0  0
    1.4582   -0.2164   -2.5274 H   0  0  0  0  0  0  0  0  0  0  0  0
    2.0969   -1.2495   -4.6660 H   0  0  0  0  0  0  0  0  0  0  0  0
    1.7942   -3.7109   -4.9604 H   0  0  0  0  0  0  0  0  0  0  0  0
    0.2959   -4.1406   -1.1574 H   0  0  0  0  0  0  0  0  0  0  0  0
  1  2  1  0  0  0  0
  1  9  1  0  0  0  0
  2  3  1  0  0  0  0
  2 10  1  0  0  0  0
  2 11  1  0  0  0  0
  3  4  2  0  0  0  0
  3  8  1  0  0  0  0
  4  5  1  0  0  0  0
  4 12  1  0  0  0  0
  5  6  2  0  0  0  0
  5 13  1  0  0  0  0
  6  7  1  0  0  0  0
  6 14  1  0  0  0  0
  7  8  2  0  0  0  0
  8 15  1  0  0  0  0
M  END
>  <DRUGBANK_ID>
DB04490

>  <SECONDARY_ACCESSION_NUMBERS>
EXPT02713

>  <COMMON_NAME>
3-(Mercaptomethylene)Pyridine

>  <UNII>
YGR16Z02P2

$$$$
