MF2
 OpenBabel10282417133D

 49 49  0  0  0  0  0  0  0  0999 V2000
    0.7297    1.2097   -0.1506 C   0  0  0  0  0  0  0  0  0  0  0  0
    1.4535   -0.0658    0.3211 C   0  0  1  0  0  0  0  0  0  0  0  0
    0.7654   -1.2795   -0.0765 O   0  0  0  0  0  0  0  0  0  0  0  0
   -1.3866   -2.4510   -0.1860 C   0  0  0  0  0  0  0  0  0  0  0  0
    2.8501   -0.0576   -0.2864 C   0  0  0  0  0  0  0  0  0  0  0  0
   -1.3850    2.3725   -0.2782 C   0  0  0  0  0  0  0  0  0  0  0  0
   -1.4418    2.3588   -1.8272 C   0  0  0  0  0  0  0  0  0  0  0  0
   -2.2076    1.1862   -2.4622 C   0  0  0  0  0  0  0  0  0  0  0  0
   -3.6132    1.0824   -1.8647 C   0  0  0  0  0  0  0  0  0  0  0  0
   -4.4112    2.2775   -2.3554 C   0  0  0  0  0  0  0  0  0  0  0  0
   -4.4418    2.2711   -3.8860 C   0  0  0  0  0  0  0  0  0  0  0  0
   -5.0734    0.9750   -4.4123 C   0  0  0  0  0  0  0  0  0  0  0  0
   -6.5058    0.8447   -3.9118 C   0  0  0  0  0  0  0  0  0  0  0  0
   -0.6516    1.2602    0.3571 N   0  0  0  0  0  0  0  0  0  0  0  0
   -0.5772   -1.3057    0.4588 C   0  0  2  0  0  0  0  0  0  0  0  0
   -1.2730   -0.0271    0.0438 C   0  0  0  0  0  0  0  0  0  0  0  0
   -7.2847    1.9760   -4.3494 N   0  0  0  0  0  0  0  0  0  0  0  0
   -8.3554    1.8898   -5.1828 C   0  0  0  0  0  0  0  0  0  0  0  0
   -8.9429    2.8638   -5.6023 O   0  0  0  0  0  0  0  0  0  0  0  0
    1.5245   -0.0640    1.4122 H   0  0  0  0  0  0  0  0  0  0  0  0
   -0.5565   -1.4047    1.5452 H   0  0  0  0  0  0  0  0  0  0  0  0
    1.2643    2.1097    0.1754 H   0  0  0  0  0  0  0  0  0  0  0  0
    0.7525    1.2010   -1.2476 H   0  0  0  0  0  0  0  0  0  0  0  0
   -0.9767   -3.4257    0.0779 H   0  0  0  0  0  0  0  0  0  0  0  0
   -2.4403   -2.4145    0.1247 H   0  0  0  0  0  0  0  0  0  0  0  0
   -1.3828   -2.3903   -1.2852 H   0  0  0  0  0  0  0  0  0  0  0  0
    3.3983    0.8370    0.0295 H   0  0  0  0  0  0  0  0  0  0  0  0
    3.4072   -0.9440    0.0216 H   0  0  0  0  0  0  0  0  0  0  0  0
    2.8144   -0.0604   -1.3833 H   0  0  0  0  0  0  0  0  0  0  0  0
   -2.3975    2.4187    0.1454 H   0  0  0  0  0  0  0  0  0  0  0  0
   -0.9358    3.3202    0.0458 H   0  0  0  0  0  0  0  0  0  0  0  0
   -1.9084    3.2977   -2.1480 H   0  0  0  0  0  0  0  0  0  0  0  0
   -0.4426    2.4184   -2.2642 H   0  0  0  0  0  0  0  0  0  0  0  0
   -2.1882    1.3147   -3.5422 H   0  0  0  0  0  0  0  0  0  0  0  0
   -1.7297    0.2114   -2.4785 H   0  0  0  0  0  0  0  0  0  0  0  0
   -4.0673    0.1199   -2.1244 H   0  0  0  0  0  0  0  0  0  0  0  0
   -3.6439    1.0775   -0.7729 H   0  0  0  0  0  0  0  0  0  0  0  0
   -5.4106    2.2617   -1.9143 H   0  0  0  0  0  0  0  0  0  0  0  0
   -3.9718    3.2106   -1.9894 H   0  0  0  0  0  0  0  0  0  0  0  0
   -4.9600    3.1605   -4.2433 H   0  0  0  0  0  0  0  0  0  0  0  0
   -3.4450    2.3869   -4.3205 H   0  0  0  0  0  0  0  0  0  0  0  0
   -5.0335    0.9722   -5.5049 H   0  0  0  0  0  0  0  0  0  0  0  0
   -4.5013    0.0894   -4.1046 H   0  0  0  0  0  0  0  0  0  0  0  0
   -6.9482   -0.0897   -4.2638 H   0  0  0  0  0  0  0  0  0  0  0  0
   -6.5593    0.8222   -2.8186 H   0  0  0  0  0  0  0  0  0  0  0  0
   -1.1396   -0.1515   -1.0065 H   0  0  0  0  0  0  0  0  0  0  0  0
   -2.3315   -0.0539    0.3073 H   0  0  0  0  0  0  0  0  0  0  0  0
   -7.0019    2.9215   -4.1148 H   0  0  0  0  0  0  0  0  0  0  0  0
   -8.6379    0.8506   -5.4240 H   0  0  0  0  0  0  0  0  0  0  0  0
  1  2  1  0  0  0  0
  1 14  1  0  0  0  0
  1 22  1  0  0  0  0
  1 23  1  0  0  0  0
  2  3  1  0  0  0  0
  2  5  1  0  0  0  0
  2 20  1  1  0  0  0
  3 15  1  0  0  0  0
  4 24  1  0  0  0  0
  4 25  1  0  0  0  0
  4 26  1  0  0  0  0
  5 27  1  0  0  0  0
  5 28  1  0  0  0  0
  5 29  1  0  0  0  0
  6  7  1  0  0  0  0
  6 14  1  0  0  0  0
  6 30  1  0  0  0  0
  6 31  1  0  0  0  0
  7  8  1  0  0  0  0
  7 32  1  0  0  0  0
  7 33  1  0  0  0  0
  8  9  1  0  0  0  0
  8 34  1  0  0  0  0
  8 35  1  0  0  0  0
  9 10  1  0  0  0  0
  9 36  1  0  0  0  0
  9 37  1  0  0  0  0
 10 11  1  0  0  0  0
 10 38  1  0  0  0  0
 10 39  1  0  0  0  0
 11 12  1  0  0  0  0
 11 40  1  0  0  0  0
 11 41  1  0  0  0  0
 12 13  1  0  0  0  0
 12 42  1  0  0  0  0
 12 43  1  0  0  0  0
 13 17  1  0  0  0  0
 13 44  1  0  0  0  0
 13 45  1  0  0  0  0
 14 16  1  0  0  0  0
 15  4  1  0  0  0  0
 15 16  1  0  0  0  0
 15 21  1  1  0  0  0
 16 46  1  0  0  0  0
 16 47  1  0  0  0  0
 17 18  1  0  0  0  0
 17 48  1  0  0  0  0
 18 19  2  0  0  0  0
 18 49  1  0  0  0  0
M  END
>  <DRUGBANK_ID>
DB04021

>  <SECONDARY_ACCESSION_NUMBERS>
EXPT02157

>  <COMMON_NAME>
MF268

$$$$
