
 OpenBabel10282417233D

 47 49  0  0  1  0  0  0  0  0999 V2000
   -3.0372   -0.2599   -0.0250 C   0  0  0  0  0  0  0  0  0  0  0  0
   -1.5814   -0.3221   -0.0969 N   0  0  0  0  0  0  0  0  0  0  0  0
   -1.0214    0.6988   -0.7220 N   0  0  0  0  0  0  0  0  0  0  0  0
   -0.1458    1.0888    0.0577 N   0  0  0  0  0  0  0  0  0  0  0  0
    0.9572    0.4031    0.0250 C   0  0  0  0  0  0  0  0  0  0  0  0
    2.2923    0.6781    0.0055 C   0  0  0  0  0  0  0  0  0  0  0  0
    2.8860   -0.6005   -0.0209 N   0  0  0  0  0  0  0  0  0  0  0  0
    1.9026   -1.5044   -0.0015 C   0  0  0  0  0  0  0  0  0  0  0  0
    0.6718   -0.9232    0.0251 N   0  0  0  0  0  0  0  0  0  0  0  0
   -0.6984   -1.4043    0.0481 C   0  0  0  0  0  0  0  0  0  0  0  0
   -0.9641   -2.5734    0.1526 O   0  0  0  0  0  0  0  0  0  0  0  0
    3.0387    1.9876    0.0043 C   0  0  0  0  0  0  0  0  0  0  0  0
    4.2781    1.9980   -0.0038 O   0  0  0  0  0  0  0  0  0  0  0  0
    2.4515    3.2962    0.0067 N   0  0  0  0  0  0  0  0  0  0  0  0
    1.2143    3.9548   -0.0491 C   0  0  0  0  0  0  0  0  0  0  0  0
    1.1192    5.1724   -0.0858 O   0  0  0  0  0  0  0  0  0  0  0  0
    0.1963    3.1137   -0.0870 O   0  0  0  0  0  0  0  0  0  0  0  0
   -1.2499    3.2650   -0.0503 C   0  0  0  0  0  0  0  0  0  0  0  0
   -1.5990    3.6521    1.3007 C   0  0  0  0  0  0  0  0  0  0  0  0
   -1.6069    4.9719    1.3367 C   0  0  0  0  0  0  0  0  0  0  0  0
   -1.7470    5.7007    2.5720 C   0  0  0  0  0  0  0  0  0  0  0  0
   -1.6452    4.7927    3.8088 C   0  0  2  0  0  0  0  0  0  0  0  0
   -2.3608    3.4356    3.6539 C   0  0  0  0  0  0  0  0  0  0  0  0
   -1.8052    2.6776    2.4553 C   0  0  0  0  0  0  0  0  0  0  0  0
   -2.2423    5.5675    4.9443 C   0  0  0  0  0  0  0  0  0  0  0  0
   -1.3356    5.9456    6.0648 C   0  0  0  0  0  0  0  0  0  0  0  0
   -3.5296    5.9527    4.9024 C   0  0  0  0  0  0  0  0  0  0  0  0
   -3.4409   -0.7425   -0.9102 H   0  0  0  0  0  0  0  0  0  0  0  0
   -3.3836   -0.7281    0.8958 H   0  0  0  0  0  0  0  0  0  0  0  0
   -3.4054    0.7857   -0.0088 H   0  0  0  0  0  0  0  0  0  0  0  0
    1.9943   -2.5757   -0.0195 H   0  0  0  0  0  0  0  0  0  0  0  0
    3.1863    3.9962    0.0032 H   0  0  0  0  0  0  0  0  0  0  0  0
   -1.5829    3.7655   -0.9551 H   0  0  0  0  0  0  0  0  0  0  0  0
   -1.8839    2.3803   -0.0830 H   0  0  0  0  0  0  0  0  0  0  0  0
   -1.4037    5.5239    0.4208 H   0  0  0  0  0  0  0  0  0  0  0  0
   -2.7178    6.1852    2.4595 H   0  0  0  0  0  0  0  0  0  0  0  0
   -0.9603    6.4594    2.5792 H   0  0  0  0  0  0  0  0  0  0  0  0
   -0.5802    4.5659    3.9810 H   0  0  0  0  0  0  0  0  0  0  0  0
   -2.2661    2.8389    4.5734 H   0  0  0  0  0  0  0  0  0  0  0  0
   -3.4369    3.5758    3.4912 H   0  0  0  0  0  0  0  0  0  0  0  0
   -0.8706    2.1738    2.7450 H   0  0  0  0  0  0  0  0  0  0  0  0
   -2.5121    1.8669    2.2172 H   0  0  0  0  0  0  0  0  0  0  0  0
   -1.2584    7.0341    6.1315 H   0  0  0  0  0  0  0  0  0  0  0  0
   -1.7290    5.5411    6.9996 H   0  0  0  0  0  0  0  0  0  0  0  0
   -0.3235    5.5493    5.9283 H   0  0  0  0  0  0  0  0  0  0  0  0
   -4.1659    5.6903    4.0576 H   0  0  0  0  0  0  0  0  0  0  0  0
   -3.9708    6.5553    5.6812 H   0  0  0  0  0  0  0  0  0  0  0  0
  1  2  1  0  0  0  0
  1 28  1  0  0  0  0
  1 29  1  0  0  0  0
  1 30  1  0  0  0  0
  2  3  1  0  0  0  0
  2 10  1  0  0  0  0
  3  4  2  0  0  0  0
  4  5  1  0  0  0  0
  5  6  2  0  0  0  0
  5  9  1  0  0  0  0
  6  7  1  0  0  0  0
  6 12  1  0  0  0  0
  7  8  2  0  0  0  0
  8  9  1  0  0  0  0
  8 31  1  0  0  0  0
  9 10  1  0  0  0  0
 10 11  2  0  0  0  0
 12 13  2  0  0  0  0
 12 14  1  0  0  0  0
 14 15  1  0  0  0  0
 14 32  1  0  0  0  0
 15 16  2  0  0  0  0
 15 17  1  0  0  0  0
 17 18  1  0  0  0  0
 18 19  1  0  0  0  0
 18 33  1  0  0  0  0
 18 34  1  0  0  0  0
 19 20  2  0  0  0  0
 19 24  1  0  0  0  0
 20 21  1  0  0  0  0
 20 35  1  0  0  0  0
 21 36  1  0  0  0  0
 21 37  1  0  0  0  0
 22 21  1  0  0  0  0
 22 23  1  0  0  0  0
 22 25  1  0  0  0  0
 22 38  1  1  0  0  0
 23 24  1  0  0  0  0
 23 39  1  0  0  0  0
 23 40  1  0  0  0  0
 24 41  1  0  0  0  0
 24 42  1  0  0  0  0
 25 26  1  0  0  0  0
 25 27  2  0  0  0  0
 26 43  1  0  0  0  0
 26 44  1  0  0  0  0
 26 45  1  0  0  0  0
 27 46  1  0  0  0  0
 27 47  1  0  0  0  0
M  END
>  <DRUGBANK_ID>
DB17100

>  <COMMON_NAME>
NEO-212

>  <CAS_NUMBER>
1361198-79-9

>  <UNII>
237TB781D9

>  <SYNONYMS>
(s)-perillyl alcohol temozolomide carbamate; Carbamic acid, n-((3,4-dihydro-3-methyl-4-oxoimidazo(5,1-d)-1,2,3,5-tetrazin-8-yl)carbonyl)-, ((4s)-4-(1-methylethenyl)-1-cyclohexen-1-yl)methyl ester; Tmz-poh carbamate

$$$$
