
 OpenBabel10282417193D

 43 45  0  0  0  0  0  0  0  0999 V2000
    1.0225    0.7250    0.2215 C   0  0  0  0  0  0  0  0  0  0  0  0
    0.3331    1.8544    0.0031 C   0  0  0  0  0  0  0  0  0  0  0  0
   -1.0378    1.6796   -0.0951 C   0  0  0  0  0  0  0  0  0  0  0  0
   -1.7349    0.4895   -0.1916 N   0  0  0  0  0  0  0  0  0  0  0  0
   -1.0298   -0.6350   -0.1437 C   0  0  0  0  0  0  0  0  0  0  0  0
    0.3060   -0.4582    0.2204 C   0  0  0  0  0  0  0  0  0  0  0  0
   -1.5833   -1.9053   -0.4975 N   0  0  0  0  0  0  0  0  0  0  0  0
   -2.8188   -2.3339    0.0536 N   0  0  0  0  0  0  0  0  0  0  0  0
   -3.3562   -3.6089    0.0641 C   0  0  0  0  0  0  0  0  0  0  0  0
   -4.6093   -3.7203    0.1552 O   0  0  0  0  0  0  0  0  0  0  0  0
   -2.6426   -4.9255    0.0479 C   0  0  0  0  0  0  0  0  0  0  0  0
   -1.3356   -5.2775    0.0816 C   0  0  0  0  0  0  0  0  0  0  0  0
   -0.2737   -4.4243    0.1811 N   0  0  0  0  0  0  0  0  0  0  0  0
   -0.0799   -3.5203    1.1961 C   0  0  0  0  0  0  0  0  0  0  0  0
    1.1152   -2.9974    1.0281 N   0  0  0  0  0  0  0  0  0  0  0  0
    1.4077   -3.1804   -0.3450 C   0  0  0  0  0  0  0  0  0  0  0  0
    0.5796   -4.1015   -0.8619 N   0  0  0  0  0  0  0  0  0  0  0  0
    2.3002   -2.1744   -1.1498 C   0  0  0  0  0  0  0  0  0  0  0  0
    2.0516   -1.7074   -2.4804 C   0  0  0  0  0  0  0  0  0  0  0  0
    2.8829   -0.7111   -3.1167 C   0  0  0  0  0  0  0  0  0  0  0  0
    3.8889   -0.0665   -2.3812 C   0  0  0  0  0  0  0  0  0  0  0  0
    4.0431   -0.3471   -1.0246 C   0  0  0  0  0  0  0  0  0  0  0  0
    3.3074   -1.4403   -0.4569 C   0  0  0  0  0  0  0  0  0  0  0  0
    4.8520    0.6305   -0.1725 C   0  0  0  0  0  0  0  0  0  0  0  0
    4.0617    1.4218    0.6109 F   0  0  0  0  0  0  0  0  0  0  0  0
    5.7174    0.0208    0.6745 F   0  0  0  0  0  0  0  0  0  0  0  0
    5.5912    1.5129   -0.9070 F   0  0  0  0  0  0  0  0  0  0  0  0
    2.7627   -0.3063   -4.5818 C   0  0  0  0  0  0  0  0  0  0  0  0
    2.6400    1.0423   -4.7630 F   0  0  0  0  0  0  0  0  0  0  0  0
    3.8789   -0.6563   -5.2861 F   0  0  0  0  0  0  0  0  0  0  0  0
    1.7137   -0.8713   -5.2306 F   0  0  0  0  0  0  0  0  0  0  0  0
    2.0775    0.7184    0.4503 H   0  0  0  0  0  0  0  0  0  0  0  0
    0.8641    2.7941    0.0150 H   0  0  0  0  0  0  0  0  0  0  0  0
   -1.6640    2.5557   -0.0840 H   0  0  0  0  0  0  0  0  0  0  0  0
    0.9603   -1.1809    0.6115 H   0  0  0  0  0  0  0  0  0  0  0  0
   -0.9525   -2.5882   -0.9001 H   0  0  0  0  0  0  0  0  0  0  0  0
   -3.5220   -1.5963    0.0313 H   0  0  0  0  0  0  0  0  0  0  0  0
   -3.3325   -5.7722   -0.0184 H   0  0  0  0  0  0  0  0  0  0  0  0
   -1.0343   -6.3119   -0.0308 H   0  0  0  0  0  0  0  0  0  0  0  0
   -0.8796   -3.2409    1.8980 H   0  0  0  0  0  0  0  0  0  0  0  0
    1.1790   -2.0428   -3.0471 H   0  0  0  0  0  0  0  0  0  0  0  0
    4.5170    0.6964   -2.8574 H   0  0  0  0  0  0  0  0  0  0  0  0
    3.4196   -1.6227    0.6117 H   0  0  0  0  0  0  0  0  0  0  0  0
  1  2  2  0  0  0  0
  1  6  1  0  0  0  0
  1 32  1  0  0  0  0
  2  3  1  0  0  0  0
  2 33  1  0  0  0  0
  3  4  2  0  0  0  0
  3 34  1  0  0  0  0
  4  5  1  0  0  0  0
  5  6  2  0  0  0  0
  5  7  1  0  0  0  0
  6 35  1  0  0  0  0
  7  8  1  0  0  0  0
  7 36  1  0  0  0  0
  8  9  1  0  0  0  0
  8 37  1  0  0  0  0
  9 10  2  0  0  0  0
  9 11  1  0  0  0  0
 11 12  2  0  0  0  0
 11 38  1  0  0  0  0
 12 13  1  0  0  0  0
 12 39  1  0  0  0  0
 13 14  1  0  0  0  0
 13 17  1  0  0  0  0
 14 15  2  0  0  0  0
 14 40  1  0  0  0  0
 15 16  1  0  0  0  0
 16 17  2  0  0  0  0
 16 18  1  0  0  0  0
 18 19  2  0  0  0  0
 18 23  1  0  0  0  0
 19 20  1  0  0  0  0
 19 41  1  0  0  0  0
 20 21  2  0  0  0  0
 20 28  1  0  0  0  0
 21 22  1  0  0  0  0
 21 42  1  0  0  0  0
 22 23  2  0  0  0  0
 22 24  1  0  0  0  0
 23 43  1  0  0  0  0
 24 25  1  0  0  0  0
 24 26  1  0  0  0  0
 24 27  1  0  0  0  0
 28 29  1  0  0  0  0
 28 30  1  0  0  0  0
 28 31  1  0  0  0  0
M  END
>  <DRUGBANK_ID>
DB12207

>  <COMMON_NAME>
Verdinexor

>  <CAS_NUMBER>
1392136-43-4

>  <UNII>
85Q03215IW

>  <SYNONYMS>
Verdinexor

$$$$
