
 OpenBabel10282417133D

 12 11  0  0  0  0  0  0  0  0999 V2000
    1.0088   -0.0290   -0.0886 C   0  0  0  0  0  0  0  0  0  0  0  0
    0.2212   -1.2532    0.3188 C   0  0  0  0  0  0  0  0  0  0  0  0
    0.2774    1.0595   -0.4568 N   0  0  0  0  0  0  0  0  0  0  0  0
    2.2344    0.0009   -0.1153 O   0  0  0  0  0  0  0  0  0  0  0  0
   -0.6515   -0.9898    1.5318 C   0  0  0  0  0  0  0  0  0  0  0  0
   -0.3849   -1.5881   -0.5300 H   0  0  0  0  0  0  0  0  0  0  0  0
    0.9321   -2.0550    0.5499 H   0  0  0  0  0  0  0  0  0  0  0  0
    0.7842    1.8924   -0.7275 H   0  0  0  0  0  0  0  0  0  0  0  0
   -0.7320    1.0832   -0.4615 H   0  0  0  0  0  0  0  0  0  0  0  0
   -1.3959   -0.2136    1.3294 H   0  0  0  0  0  0  0  0  0  0  0  0
   -1.1837   -1.8997    1.8256 H   0  0  0  0  0  0  0  0  0  0  0  0
   -0.0442   -0.6572    2.3801 H   0  0  0  0  0  0  0  0  0  0  0  0
  1  2  1  0  0  0  0
  1  3  1  0  0  0  0
  1  4  2  0  0  0  0
  2  5  1  0  0  0  0
  2  6  1  0  0  0  0
  2  7  1  0  0  0  0
  3  8  1  0  0  0  0
  3  9  1  0  0  0  0
  5 10  1  0  0  0  0
  5 11  1  0  0  0  0
  5 12  1  0  0  0  0
M  END
>  <DRUGBANK_ID>
DB04161

>  <SECONDARY_ACCESSION_NUMBERS>
EXPT02807

>  <COMMON_NAME>
Propionamide

>  <CAS_NUMBER>
79-05-0

>  <UNII>
QK07G0HP47

>  <SYNONYMS>
Propanimidic acid; Propionic acid amide; Propionic amide

$$$$
