
 OpenBabel10282417213D

313306  0  0  0  0  0  0  0  0999 V2000
    1.2605   -0.9183   -2.1252 C   0  0  0  0  0  0  0  0  0  0  0  0
    0.2718   -2.4485   -1.7597 C   0  0  0  0  0  0  0  0  0  0  0  0
    0.9691   -3.6243   -0.2284 C   0  0  0  0  0  0  0  0  0  0  0  0
    0.0248   -3.5956    1.3087 C   0  0  0  0  0  0  0  0  0  0  0  0
   -1.3871   -3.0178    1.0467 C   0  0  0  0  0  0  0  0  0  0  0  0
   -1.8490   -4.2583    0.8327 C   0  0  0  0  0  0  0  0  0  0  0  0
   -1.1947   -5.1457    1.9327 C   0  0  0  0  0  0  0  0  0  0  0  0
   -1.5854   -4.9757    3.3476 C   0  0  0  0  0  0  0  0  0  0  0  0
   -3.0783   -4.7464    3.3553 C   0  0  0  0  0  0  0  0  0  0  0  0
   -3.5922   -6.0048    2.8128 C   0  0  0  0  0  0  0  0  0  0  0  0
   -3.0562   -7.1085    3.6968 C   0  0  0  0  0  0  0  0  0  0  0  0
   -3.5495   -6.9072    5.1206 C   0  0  0  0  0  0  0  0  0  0  0  0
   -5.0678   -6.9018    5.1200 C   0  0  0  0  0  0  0  0  0  0  0  0
   -5.5718   -8.2223    4.5640 C   0  0  0  0  0  0  0  0  0  0  0  0
   -5.0549   -9.3591    5.4322 C   0  0  0  0  0  0  0  0  0  0  0  0
   -5.5748   -9.2103    6.8471 C   0  0  0  0  0  0  0  0  0  0  0  0
   -7.0795   -9.1863    6.8257 C   0  0  0  0  0  0  0  0  0  0  0  0
   -7.7227  -13.2106    6.7380 C   0  0  0  0  0  0  0  0  0  0  0  0
   -7.7353  -12.1172    4.4903 C   0  0  0  0  0  0  0  0  0  0  0  0
   -7.2271  -13.2994    5.3153 C   0  0  2  0  0  0  0  0  0  0  0  0
   -7.6925  -10.4185    6.2683 C   0  0  0  0  0  0  0  0  0  0  0  0
   -9.1635  -13.2018    6.7212 O   0  0  0  0  0  0  0  0  0  0  0  0
   -7.6984  -14.5248    4.7576 O   0  0  0  0  0  0  0  0  0  0  0  0
   -8.5592  -10.9411    6.9529 O   0  0  0  0  0  0  0  0  0  0  0  0
   -7.3036  -10.8398    5.0294 O   0  0  0  0  0  0  0  0  0  0  0  0
  -18.2854   -0.9773   26.0533 C   0  0  0  0  0  0  0  0  0  0  0  0
  -16.9562   -0.2937   25.8242 C   0  0  0  0  0  0  0  0  0  0  0  0
  -15.8991   -1.3287   25.4792 C   0  0  0  0  0  0  0  0  0  0  0  0
  -16.2938   -2.0778   24.2146 C   0  0  0  0  0  0  0  0  0  0  0  0
  -16.4342   -1.1014   23.0563 C   0  0  0  0  0  0  0  0  0  0  0  0
  -15.1071   -0.3993   22.8178 C   0  0  0  0  0  0  0  0  0  0  0  0
  -14.0413   -1.4297   22.4815 C   0  0  0  0  0  0  0  0  0  0  0  0
  -14.4455   -2.1865   21.2266 C   0  0  0  0  0  0  0  0  0  0  0  0
  -14.5886   -1.2104   20.0702 C   0  0  0  0  0  0  0  0  0  0  0  0
  -13.2617   -0.5080   19.8330 C   0  0  0  0  0  0  0  0  0  0  0  0
  -12.1961   -1.5387   19.4977 C   0  0  0  0  0  0  0  0  0  0  0  0
  -12.6023   -2.2958   18.2438 C   0  0  0  0  0  0  0  0  0  0  0  0
  -12.7497   -1.3193   17.0893 C   0  0  0  0  0  0  0  0  0  0  0  0
  -11.4290   -0.6174   16.8604 C   0  0  0  0  0  0  0  0  0  0  0  0
  -10.3803   -1.6630   16.5471 C   0  0  0  0  0  0  0  0  0  0  0  0
  -10.7615   -2.4199   15.2962 C   0  0  0  0  0  0  0  0  0  0  0  0
  -11.0567   -1.4419   14.2271 C   0  0  0  0  0  0  0  0  0  0  0  0
   -7.3634   -1.0241   13.2715 C   0  0  0  0  0  0  0  0  0  0  0  0
   -7.7912    0.6517   14.8033 C   0  0  0  0  0  0  0  0  0  0  0  0
   -7.0632   -0.6090   14.5751 C   0  0  1  0  0  0  0  0  0  0  0  0
   -9.8975   -0.7202   13.8621 C   0  0  0  0  0  0  0  0  0  0  0  0
   -7.6414   -2.3472   13.3740 O   0  0  0  0  0  0  0  0  0  0  0  0
   -7.5570   -1.6713   15.3999 O   0  0  0  0  0  0  0  0  0  0  0  0
   -9.7583   -1.2056   12.7232 O   0  0  0  0  0  0  0  0  0  0  0  0
   -9.2329    0.1024   14.8338 O   0  0  0  0  0  0  0  0  0  0  0  0
    2.5295    0.2165    0.1689 C   0  0  0  0  0  0  0  0  0  0  0  0
    1.7949   -1.8313    0.2159 C   0  0  0  0  0  0  0  0  0  0  0  0
    1.5760   -2.5276    1.9202 C   0  0  0  0  0  0  0  0  0  0  0  0
   -0.1061   -1.5273    2.9219 C   0  0  0  0  0  0  0  0  0  0  0  0
   -1.4114   -1.4874    2.5506 C   0  0  0  0  0  0  0  0  0  0  0  0
   -1.9148   -2.6455    3.5579 C   0  0  0  0  0  0  0  0  0  0  0  0
   -1.2253   -2.7695    4.9794 C   0  0  0  0  0  0  0  0  0  0  0  0
   -2.0711   -1.8683    6.0402 C   0  0  0  0  0  0  0  0  0  0  0  0
   -3.3623   -1.8826    5.4119 C   0  0  0  0  0  0  0  0  0  0  0  0
   -3.7093   -2.9724    6.1685 C   0  0  0  0  0  0  0  0  0  0  0  0
   -3.0181   -3.1860    7.5206 C   0  0  0  0  0  0  0  0  0  0  0  0
   -3.5087   -2.3161    8.5549 C   0  0  0  0  0  0  0  0  0  0  0  0
   -5.0207   -2.1774    8.4602 C   0  0  0  0  0  0  0  0  0  0  0  0
   -5.5721   -3.4038    8.9220 C   0  0  0  0  0  0  0  0  0  0  0  0
   -4.9913   -3.6020   10.3194 C   0  0  0  0  0  0  0  0  0  0  0  0
   -5.5120   -2.6176   11.2704 C   0  0  0  0  0  0  0  0  0  0  0  0
   -6.9927   -2.6966   11.0289 C   0  0  0  0  0  0  0  0  0  0  0  0
   -7.1771   -6.5329   12.8181 C   0  0  0  0  0  0  0  0  0  0  0  0
   -9.2387   -6.2349   11.3901 C   0  0  0  0  0  0  0  0  0  0  0  0
   -7.7219   -6.2297   11.4222 C   0  0  0  0  0  0  0  0  0  0  0  0
   -7.6828   -3.9109   11.5530 C   0  0  0  0  0  0  0  0  0  0  0  0
   -7.5520   -5.6376   13.8463 O   0  0  0  0  0  0  0  0  0  0  0  0
   -9.6989   -5.9532   10.0676 O   0  0  0  0  0  0  0  0  0  0  0  0
   -8.4206   -4.0368   12.5112 O   0  0  0  0  0  0  0  0  0  0  0  0
   -7.2458   -4.9963   10.9005 O   0  0  0  0  0  0  0  0  0  0  0  0
   -0.5792    0.6328    0.0545 C   0  0  0  0  0  0  0  0  0  0  0  0
    0.0724   -1.0400    1.1180 C   0  0  0  0  0  0  0  0  0  0  0  0
    1.5335   -1.1087    3.0336 C   0  0  0  0  0  0  0  0  0  0  0  0
    0.1632    0.6966    3.1923 C   0  0  0  0  0  0  0  0  0  0  0  0
   -1.8575    0.6434    2.6315 C   0  0  0  0  0  0  0  0  0  0  0  0
   -2.0890   -0.5517    4.1693 C   0  0  0  0  0  0  0  0  0  0  0  0
   -0.6031   -0.6300    5.6060 C   0  0  0  0  0  0  0  0  0  0  0  0
   -1.9421    0.6809    6.1367 C   0  0  0  0  0  0  0  0  0  0  0  0
   -3.5439    0.5353    5.5443 C   0  0  0  0  0  0  0  0  0  0  0  0
   -4.1447   -0.0860    6.8973 C   0  0  0  0  0  0  0  0  0  0  0  0
   -3.2381    0.0842    8.1814 C   0  0  0  0  0  0  0  0  0  0  0  0
   -3.9649    0.9950    8.9132 C   0  0  0  0  0  0  0  0  0  0  0  0
   -5.4281    1.0031    8.5503 C   0  0  0  0  0  0  0  0  0  0  0  0
   -5.8485    0.1655    9.5670 C   0  0  0  0  0  0  0  0  0  0  0  0
   -5.1865    0.3547   10.8994 C   0  0  0  0  0  0  0  0  0  0  0  0
   -5.7419    1.5345   11.4833 C   0  0  0  0  0  0  0  0  0  0  0  0
   -7.2074    1.6933   11.2497 C   0  0  0  0  0  0  0  0  0  0  0  0
   -8.0960    0.7848   11.7576 C   0  0  0  0  0  0  0  0  0  0  0  0
   -8.8544    1.1307   12.6992 O   0  0  0  0  0  0  0  0  0  0  0  0
   -7.9843   -0.2377   11.0348 O   0  5  0  0  0  0  0  0  0  0  0  0
    1.0746    0.2767   -0.6774 C   0  0  0  0  0  0  0  0  0  0  0  0
    1.5424   -0.0196    1.4308 C   0  0  0  0  0  0  0  0  0  0  0  0
    2.1694    0.8352    2.9730 C   0  0  0  0  0  0  0  0  0  0  0  0
    1.1740    2.4646    2.9242 C   0  0  0  0  0  0  0  0  0  0  0  0
   -0.7161    2.3604    2.6493 C   0  0  0  0  0  0  0  0  0  0  0  0
   -1.1963    1.3628    4.2375 C   0  0  0  0  0  0  0  0  0  0  0  0
   -0.3396    1.7678    5.4138 C   0  0  0  0  0  0  0  0  0  0  0  0
   -1.2698    3.1043    5.2200 C   0  0  0  0  0  0  0  0  0  0  0  0
   -2.9623    3.0276    5.0929 C   0  0  0  0  0  0  0  0  0  0  0  0
   -3.5682    2.4371    6.5771 C   0  0  0  0  0  0  0  0  0  0  0  0
   -2.7675    2.9318    7.7046 C   0  0  0  0  0  0  0  0  0  0  0  0
   -3.5299    4.1183    7.7146 C   0  0  0  0  0  0  0  0  0  0  0  0
   -5.0542    3.9651    7.6658 C   0  0  0  0  0  0  0  0  0  0  0  0
   -5.5272    3.4406    8.9451 C   0  0  0  0  0  0  0  0  0  0  0  0
   -4.9750    3.9707   10.1866 C   0  0  0  0  0  0  0  0  0  0  0  0
   -5.6019    5.2614   10.2875 C   0  0  0  0  0  0  0  0  0  0  0  0
   -7.1500    5.1946   10.2589 C   0  0  0  0  0  0  0  0  0  0  0  0
   -7.6298    4.5562   11.5140 C   0  0  0  0  0  0  0  0  0  0  0  0
   -8.4727    5.0290   12.2879 O   0  0  0  0  0  0  0  0  0  0  0  0
   -6.8188    3.7031   11.8458 O   0  5  0  0  0  0  0  0  0  0  0  0
    3.4968    1.8532    1.5798 K   0  3  0  0  0  0  0  0  0  0  0  0
    1.4010    2.8269    0.5421 Na  0  3  0  0  0  0  0  0  0  0  0  0
   -6.1339  -13.2925    5.3201 H   0  0  0  0  0  0  0  0  0  0  0  0
   -6.0050   -0.6302   14.4065 H   0  0  0  0  0  0  0  0  0  0  0  0
    0.8562   -1.1287   -0.7208 H   0  0  0  0  0  0  0  0  0  0  0  0
    0.7119    0.2950   -2.4043 H   0  0  0  0  0  0  0  0  0  0  0  0
    2.5682   -0.2174   -1.9680 H   0  0  0  0  0  0  0  0  0  0  0  0
   -0.8888   -1.7942   -1.4396 H   0  0  0  0  0  0  0  0  0  0  0  0
    0.9665   -2.1304   -2.5110 H   0  0  0  0  0  0  0  0  0  0  0  0
    0.2679   -4.2324   -0.5996 H   0  0  0  0  0  0  0  0  0  0  0  0
    2.3591   -3.4735    0.0536 H   0  0  0  0  0  0  0  0  0  0  0  0
    0.6612   -4.1206    2.1029 H   0  0  0  0  0  0  0  0  0  0  0  0
   -0.0224   -2.9225    2.1181 H   0  0  0  0  0  0  0  0  0  0  0  0
   -2.0317   -2.7729    1.7980 H   0  0  0  0  0  0  0  0  0  0  0  0
   -1.9495   -2.1642    0.6077 H   0  0  0  0  0  0  0  0  0  0  0  0
   -2.8355   -3.8690    0.9789 H   0  0  0  0  0  0  0  0  0  0  0  0
   -1.3547   -4.0374   -0.0976 H   0  0  0  0  0  0  0  0  0  0  0  0
   -1.4134   -6.0339    1.4919 H   0  0  0  0  0  0  0  0  0  0  0  0
   -0.1196   -5.3305    1.9561 H   0  0  0  0  0  0  0  0  0  0  0  0
   -1.1499   -5.6403    4.0528 H   0  0  0  0  0  0  0  0  0  0  0  0
   -0.9131   -4.3429    3.8769 H   0  0  0  0  0  0  0  0  0  0  0  0
   -3.4550   -4.5711    4.3278 H   0  0  0  0  0  0  0  0  0  0  0  0
   -3.4893   -3.9206    2.7633 H   0  0  0  0  0  0  0  0  0  0  0  0
   -4.6633   -5.9460    2.7796 H   0  0  0  0  0  0  0  0  0  0  0  0
   -3.2548   -6.1158    1.7906 H   0  0  0  0  0  0  0  0  0  0  0  0
   -3.3669   -8.0512    3.2788 H   0  0  0  0  0  0  0  0  0  0  0  0
   -1.9667   -7.1580    3.6945 H   0  0  0  0  0  0  0  0  0  0  0  0
   -3.1504   -7.6933    5.7556 H   0  0  0  0  0  0  0  0  0  0  0  0
   -3.1771   -5.9809    5.5579 H   0  0  0  0  0  0  0  0  0  0  0  0
   -5.4358   -6.7294    6.1288 H   0  0  0  0  0  0  0  0  0  0  0  0
   -5.4633   -6.0776    4.5288 H   0  0  0  0  0  0  0  0  0  0  0  0
   -6.6594   -8.2106    4.5182 H   0  0  0  0  0  0  0  0  0  0  0  0
   -5.2510   -8.3706    3.5341 H   0  0  0  0  0  0  0  0  0  0  0  0
   -5.3474  -10.3114    5.0115 H   0  0  0  0  0  0  0  0  0  0  0  0
   -3.9706   -9.4044    5.4317 H   0  0  0  0  0  0  0  0  0  0  0  0
   -5.2029  -10.0175    7.4767 H   0  0  0  0  0  0  0  0  0  0  0  0
   -5.2083   -8.2776    7.2889 H   0  0  0  0  0  0  0  0  0  0  0  0
   -7.4475   -9.0586    7.8534 H   0  0  0  0  0  0  0  0  0  0  0  0
   -7.4898   -8.3556    6.2605 H   0  0  0  0  0  0  0  0  0  0  0  0
   -7.3828  -14.0068    7.3770 H   0  0  0  0  0  0  0  0  0  0  0  0
   -7.2356  -12.3611    7.2240 H   0  0  0  0  0  0  0  0  0  0  0  0
   -8.8239  -12.1205    4.4203 H   0  0  0  0  0  0  0  0  0  0  0  0
   -7.3704  -12.2358    3.4559 H   0  0  0  0  0  0  0  0  0  0  0  0
   -9.4585  -12.3700    6.2807 H   0  0  0  0  0  0  0  0  0  0  0  0
   -8.6747  -14.5094    4.8333 H   0  0  0  0  0  0  0  0  0  0  0  0
  -18.6138   -1.5164   25.1613 H   0  0  0  0  0  0  0  0  0  0  0  0
  -19.0545   -0.2467   26.2888 H   0  0  0  0  0  0  0  0  0  0  0  0
  -18.1935   -1.6939   26.8724 H   0  0  0  0  0  0  0  0  0  0  0  0
  -17.0566    0.4383   25.0178 H   0  0  0  0  0  0  0  0  0  0  0  0
  -16.6582    0.2593   26.7129 H   0  0  0  0  0  0  0  0  0  0  0  0
  -14.9327   -0.8355   25.3452 H   0  0  0  0  0  0  0  0  0  0  0  0
  -15.7772   -2.0316   26.3027 H   0  0  0  0  0  0  0  0  0  0  0  0
  -15.5542   -2.8463   23.9919 H   0  0  0  0  0  0  0  0  0  0  0  0
  -17.2280   -2.6163   24.3583 H   0  0  0  0  0  0  0  0  0  0  0  0
  -16.7664   -1.6311   22.1644 H   0  0  0  0  0  0  0  0  0  0  0  0
  -17.2110   -0.3646   23.2525 H   0  0  0  0  0  0  0  0  0  0  0  0
  -15.2149    0.3331   22.0193 H   0  0  0  0  0  0  0  0  0  0  0  0
  -14.8020    0.1759   23.6899 H   0  0  0  0  0  0  0  0  0  0  0  0
  -13.0789   -0.9370   22.3539 H   0  0  0  0  0  0  0  0  0  0  0  0
  -13.8939   -2.1289   23.3025 H   0  0  0  0  0  0  0  0  0  0  0  0
  -13.7079   -2.9561   21.0063 H   0  0  0  0  0  0  0  0  0  0  0  0
  -15.3802   -2.7249   21.3727 H   0  0  0  0  0  0  0  0  0  0  0  0
  -14.9213   -1.7402   19.1794 H   0  0  0  0  0  0  0  0  0  0  0  0
  -15.3656   -0.4740   20.2672 H   0  0  0  0  0  0  0  0  0  0  0  0
  -13.3695    0.2245   19.0350 H   0  0  0  0  0  0  0  0  0  0  0  0
  -12.9565    0.0675   20.7050 H   0  0  0  0  0  0  0  0  0  0  0  0
  -11.2336   -1.0461   19.3701 H   0  0  0  0  0  0  0  0  0  0  0  0
  -12.0484   -2.2379   20.3185 H   0  0  0  0  0  0  0  0  0  0  0  0
  -11.8646   -3.0659   18.0233 H   0  0  0  0  0  0  0  0  0  0  0  0
  -13.5358   -2.8344   18.3892 H   0  0  0  0  0  0  0  0  0  0  0  0
  -13.0777   -1.8492   16.1965 H   0  0  0  0  0  0  0  0  0  0  0  0
  -13.5237   -0.5823   17.2840 H   0  0  0  0  0  0  0  0  0  0  0  0
  -11.5282    0.1169   16.0607 H   0  0  0  0  0  0  0  0  0  0  0  0
  -11.1142   -0.0396   17.7251 H   0  0  0  0  0  0  0  0  0  0  0  0
   -9.4359   -1.1510   16.4778 H   0  0  0  0  0  0  0  0  0  0  0  0
  -10.2131   -2.3610   17.3540 H   0  0  0  0  0  0  0  0  0  0  0  0
   -9.9945   -3.1513   15.0196 H   0  0  0  0  0  0  0  0  0  0  0  0
  -11.6872   -2.9682   15.4232 H   0  0  0  0  0  0  0  0  0  0  0  0
  -11.3307   -2.0053   13.3062 H   0  0  0  0  0  0  0  0  0  0  0  0
  -11.7735   -0.6656   14.3417 H   0  0  0  0  0  0  0  0  0  0  0  0
   -8.2055   -0.6768   12.8543 H   0  0  0  0  0  0  0  0  0  0  0  0
   -6.6143   -0.5863   12.6655 H   0  0  0  0  0  0  0  0  0  0  0  0
   -7.6065    1.5194   14.1478 H   0  0  0  0  0  0  0  0  0  0  0  0
   -7.4734    1.1595   15.7152 H   0  0  0  0  0  0  0  0  0  0  0  0
   -6.8260   -2.7297   13.1027 H   0  0  0  0  0  0  0  0  0  0  0  0
   -8.4995   -1.7247   15.1022 H   0  0  0  0  0  0  0  0  0  0  0  0
    1.0779    0.8031    0.6613 H   0  0  0  0  0  0  0  0  0  0  0  0
    2.4913    1.0885   -0.7849 H   0  0  0  0  0  0  0  0  0  0  0  0
    3.4677    0.1430    0.4827 H   0  0  0  0  0  0  0  0  0  0  0  0
    0.2467   -2.0912   -0.2274 H   0  0  0  0  0  0  0  0  0  0  0  0
    1.8766   -2.2756   -0.7793 H   0  0  0  0  0  0  0  0  0  0  0  0
    1.6953   -3.2228    2.7518 H   0  0  0  0  0  0  0  0  0  0  0  0
    2.7012   -2.2534    1.7587 H   0  0  0  0  0  0  0  0  0  0  0  0
    0.4600   -1.1920    4.2319 H   0  0  0  0  0  0  0  0  0  0  0  0
    0.4789   -0.3344    2.4332 H   0  0  0  0  0  0  0  0  0  0  0  0
   -1.0256   -0.6224    2.8399 H   0  0  0  0  0  0  0  0  0  0  0  0
   -2.0405   -1.0259    1.8024 H   0  0  0  0  0  0  0  0  0  0  0  0
   -2.9418   -2.4141    3.2850 H   0  0  0  0  0  0  0  0  0  0  0  0
   -1.1393   -3.1182    3.1145 H   0  0  0  0  0  0  0  0  0  0  0  0
   -1.3516   -3.6917    5.4198 H   0  0  0  0  0  0  0  0  0  0  0  0
   -0.0864   -2.6193    4.9131 H   0  0  0  0  0  0  0  0  0  0  0  0
   -1.4614   -1.2678    7.1208 H   0  0  0  0  0  0  0  0  0  0  0  0
   -2.0359   -0.8661    5.9790 H   0  0  0  0  0  0  0  0  0  0  0  0
   -3.3168   -1.0395    5.8452 H   0  0  0  0  0  0  0  0  0  0  0  0
   -3.9810   -1.3188    4.6967 H   0  0  0  0  0  0  0  0  0  0  0  0
   -4.7380   -2.7739    6.1172 H   0  0  0  0  0  0  0  0  0  0  0  0
   -3.2227   -3.5658    5.4776 H   0  0  0  0  0  0  0  0  0  0  0  0
   -3.3191   -4.1051    7.8524 H   0  0  0  0  0  0  0  0  0  0  0  0
   -1.9126   -3.0526    7.5661 H   0  0  0  0  0  0  0  0  0  0  0  0
   -3.0990   -2.1583    9.5522 H   0  0  0  0  0  0  0  0  0  0  0  0
   -2.8123   -1.6395    8.1436 H   0  0  0  0  0  0  0  0  0  0  0  0
   -5.4938   -1.7317    9.2856 H   0  0  0  0  0  0  0  0  0  0  0  0
   -5.5162   -1.7516    7.5710 H   0  0  0  0  0  0  0  0  0  0  0  0
   -6.6483   -3.2719    8.8682 H   0  0  0  0  0  0  0  0  0  0  0  0
   -5.2335   -4.1011    8.2140 H   0  0  0  0  0  0  0  0  0  0  0  0
   -5.2987   -4.5477   10.6563 H   0  0  0  0  0  0  0  0  0  0  0  0
   -3.9185   -3.5578   10.3737 H   0  0  0  0  0  0  0  0  0  0  0  0
   -5.1605   -2.6828   12.3032 H   0  0  0  0  0  0  0  0  0  0  0  0
   -5.0693   -1.7025   10.9639 H   0  0  0  0  0  0  0  0  0  0  0  0
   -7.2420   -1.8850   11.5775 H   0  0  0  0  0  0  0  0  0  0  0  0
   -7.4660   -2.2686   10.1605 H   0  0  0  0  0  0  0  0  0  0  0  0
   -7.5417   -7.5086   13.1321 H   0  0  0  0  0  0  0  0  0  0  0  0
   -6.0902   -6.5240   12.8091 H   0  0  0  0  0  0  0  0  0  0  0  0
   -9.6033   -7.2050   11.7119 H   0  0  0  0  0  0  0  0  0  0  0  0
   -9.6661   -5.5021   12.0703 H   0  0  0  0  0  0  0  0  0  0  0  0
   -7.3388   -6.9763   10.7218 H   0  0  0  0  0  0  0  0  0  0  0  0
   -7.4015   -4.7156   13.5251 H   0  0  0  0  0  0  0  0  0  0  0  0
   -9.3721   -5.0583    9.8408 H   0  0  0  0  0  0  0  0  0  0  0  0
   -0.5574    1.6945    0.2264 H   0  0  0  0  0  0  0  0  0  0  0  0
   -0.9674    0.4905   -1.2534 H   0  0  0  0  0  0  0  0  0  0  0  0
    0.5709    1.6552   -0.0001 H   0  0  0  0  0  0  0  0  0  0  0  0
   -0.9956   -0.9304    0.6773 H   0  0  0  0  0  0  0  0  0  0  0  0
    0.1088   -1.9778    0.9817 H   0  0  0  0  0  0  0  0  0  0  0  0
    1.0609   -2.2948    3.6943 H   0  0  0  0  0  0  0  0  0  0  0  0
    2.5744   -1.1989    2.8964 H   0  0  0  0  0  0  0  0  0  0  0  0
    0.6005    0.9129    4.1019 H   0  0  0  0  0  0  0  0  0  0  0  0
    0.4678    1.2786    2.1197 H   0  0  0  0  0  0  0  0  0  0  0  0
   -2.3976    1.6284    2.7824 H   0  0  0  0  0  0  0  0  0  0  0  0
   -2.2538    0.4658    1.5907 H   0  0  0  0  0  0  0  0  0  0  0  0
   -3.0745   -0.7744    3.5833 H   0  0  0  0  0  0  0  0  0  0  0  0
   -1.3390   -1.2604    4.1876 H   0  0  0  0  0  0  0  0  0  0  0  0
   -0.3714   -1.8459    6.3184 H   0  0  0  0  0  0  0  0  0  0  0  0
    0.4603   -0.3861    5.5175 H   0  0  0  0  0  0  0  0  0  0  0  0
   -1.5447    1.2164    6.9971 H   0  0  0  0  0  0  0  0  0  0  0  0
   -2.0769    1.5536    5.6340 H   0  0  0  0  0  0  0  0  0  0  0  0
   -3.9605    1.4209    5.1809 H   0  0  0  0  0  0  0  0  0  0  0  0
   -3.9673    0.4277    4.5117 H   0  0  0  0  0  0  0  0  0  0  0  0
   -5.1531   -0.2449    6.5602 H   0  0  0  0  0  0  0  0  0  0  0  0
   -4.0377   -1.1091    7.0552 H   0  0  0  0  0  0  0  0  0  0  0  0
   -3.4753   -0.4871    9.0384 H   0  0  0  0  0  0  0  0  0  0  0  0
   -2.1217    0.0439    8.1441 H   0  0  0  0  0  0  0  0  0  0  0  0
   -3.3611    1.3250    9.7473 H   0  0  0  0  0  0  0  0  0  0  0  0
   -3.9440    1.6975    8.2592 H   0  0  0  0  0  0  0  0  0  0  0  0
   -6.1472    1.6647    8.8356 H   0  0  0  0  0  0  0  0  0  0  0  0
   -5.7385    1.0382    7.5032 H   0  0  0  0  0  0  0  0  0  0  0  0
   -6.8844    0.0453    9.4028 H   0  0  0  0  0  0  0  0  0  0  0  0
   -5.3012   -0.3947    8.9360 H   0  0  0  0  0  0  0  0  0  0  0  0
   -5.4811   -0.3351   11.5896 H   0  0  0  0  0  0  0  0  0  0  0  0
   -4.0928    0.3188   10.9426 H   0  0  0  0  0  0  0  0  0  0  0  0
   -5.3108    1.8307   12.4333 H   0  0  0  0  0  0  0  0  0  0  0  0
   -5.2646    2.0601   10.7255 H   0  0  0  0  0  0  0  0  0  0  0  0
   -7.8705    2.3318   11.7871 H   0  0  0  0  0  0  0  0  0  0  0  0
   -7.5733    1.6463   10.2396 H   0  0  0  0  0  0  0  0  0  0  0  0
    0.7609    1.5530   -1.2787 H   0  0  0  0  0  0  0  0  0  0  0  0
   -0.0726   -0.4585   -1.1558 H   0  0  0  0  0  0  0  0  0  0  0  0
    2.2143   -0.7633   -0.8636 H   0  0  0  0  0  0  0  0  0  0  0  0
   -0.0423    0.3004    1.5581 H   0  0  0  0  0  0  0  0  0  0  0  0
    1.7425   -0.9795    1.4334 H   0  0  0  0  0  0  0  0  0  0  0  0
    1.8369    0.1523    4.0319 H   0  0  0  0  0  0  0  0  0  0  0  0
    3.1102    0.2914    2.7780 H   0  0  0  0  0  0  0  0  0  0  0  0
    1.0777    2.4840    3.9419 H   0  0  0  0  0  0  0  0  0  0  0  0
    0.8899    2.9211    2.0399 H   0  0  0  0  0  0  0  0  0  0  0  0
   -1.4586    3.0926    2.5316 H   0  0  0  0  0  0  0  0  0  0  0  0
   -1.1427    1.8592    1.5583 H   0  0  0  0  0  0  0  0  0  0  0  0
   -2.4780    1.0505    4.1236 H   0  0  0  0  0  0  0  0  0  0  0  0
   -0.7372    0.2065    4.2869 H   0  0  0  0  0  0  0  0  0  0  0  0
   -0.2053    0.8931    6.4017 H   0  0  0  0  0  0  0  0  0  0  0  0
    0.7147    1.5518    5.4578 H   0  0  0  0  0  0  0  0  0  0  0  0
   -1.0098    3.2749    6.2088 H   0  0  0  0  0  0  0  0  0  0  0  0
   -0.9964    3.3867    4.2377 H   0  0  0  0  0  0  0  0  0  0  0  0
   -3.5480    3.8951    5.1172 H   0  0  0  0  0  0  0  0  0  0  0  0
   -3.3442    2.4858    4.1346 H   0  0  0  0  0  0  0  0  0  0  0  0
   -4.6646    1.9973    6.4612 H   0  0  0  0  0  0  0  0  0  0  0  0
   -3.2253    1.5191    6.9355 H   0  0  0  0  0  0  0  0  0  0  0  0
   -2.7856    2.6334    8.7474 H   0  0  0  0  0  0  0  0  0  0  0  0
   -1.7450    2.6201    7.7269 H   0  0  0  0  0  0  0  0  0  0  0  0
   -3.1649    4.4472    8.6482 H   0  0  0  0  0  0  0  0  0  0  0  0
   -3.1715    4.5832    6.8384 H   0  0  0  0  0  0  0  0  0  0  0  0
   -5.4696    4.9269    7.6509 H   0  0  0  0  0  0  0  0  0  0  0  0
   -5.4871    3.4044    6.8183 H   0  0  0  0  0  0  0  0  0  0  0  0
   -6.6010    3.1690    8.9062 H   0  0  0  0  0  0  0  0  0  0  0  0
   -4.8514    2.6814    9.0856 H   0  0  0  0  0  0  0  0  0  0  0  0
   -5.1834    3.5434   11.1307 H   0  0  0  0  0  0  0  0  0  0  0  0
   -3.9106    3.7490   10.2504 H   0  0  0  0  0  0  0  0  0  0  0  0
   -5.2105    5.6205   11.2226 H   0  0  0  0  0  0  0  0  0  0  0  0
   -5.2111    5.7695    9.4309 H   0  0  0  0  0  0  0  0  0  0  0  0
   -7.5023    6.1934   10.3017 H   0  0  0  0  0  0  0  0  0  0  0  0
   -7.5229    4.6718    9.3732 H   0  0  0  0  0  0  0  0  0  0  0  0
  1120  1  0  0  0  0
  1121  1  0  0  0  0
  1122  1  0  0  0  0
  2  1  1  0  0  0  0
  2123  1  0  0  0  0
  2124  1  0  0  0  0
  3  2  1  0  0  0  0
  3125  1  0  0  0  0
  3126  1  0  0  0  0
  4  3  1  0  0  0  0
  4127  1  0  0  0  0
  4128  1  0  0  0  0
  5  4  1  0  0  0  0
  5129  1  0  0  0  0
  5130  1  0  0  0  0
  6  5  1  0  0  0  0
  6131  1  0  0  0  0
  6132  1  0  0  0  0
  7  6  1  0  0  0  0
  7133  1  0  0  0  0
  7134  1  0  0  0  0
  8  7  1  0  0  0  0
  8135  1  0  0  0  0
  8136  1  0  0  0  0
  9  8  1  0  0  0  0
  9137  1  0  0  0  0
  9138  1  0  0  0  0
 10  9  1  0  0  0  0
 10139  1  0  0  0  0
 10140  1  0  0  0  0
 11 10  1  0  0  0  0
 11141  1  0  0  0  0
 11142  1  0  0  0  0
 12 11  1  0  0  0  0
 12143  1  0  0  0  0
 12144  1  0  0  0  0
 13 12  1  0  0  0  0
 13145  1  0  0  0  0
 13146  1  0  0  0  0
 14 13  1  0  0  0  0
 14147  1  0  0  0  0
 14148  1  0  0  0  0
 15 14  1  0  0  0  0
 15149  1  0  0  0  0
 15150  1  0  0  0  0
 16 15  1  0  0  0  0
 16151  1  0  0  0  0
 16152  1  0  0  0  0
 17 16  1  0  0  0  0
 17153  1  0  0  0  0
 17154  1  0  0  0  0
 18155  1  0  0  0  0
 18156  1  0  0  0  0
 19157  1  0  0  0  0
 19158  1  0  0  0  0
 20 18  1  0  0  0  0
 20 19  1  0  0  0  0
 20 23  1  0  0  0  0
 20118  1  6  0  0  0
 21 17  1  0  0  0  0
 22 18  1  0  0  0  0
 22159  1  0  0  0  0
 23160  1  0  0  0  0
 24 21  2  0  0  0  0
 25 19  1  0  0  0  0
 25 21  1  0  0  0  0
 26161  1  0  0  0  0
 26162  1  0  0  0  0
 26163  1  0  0  0  0
 27 26  1  0  0  0  0
 27164  1  0  0  0  0
 27165  1  0  0  0  0
 28 27  1  0  0  0  0
 28166  1  0  0  0  0
 28167  1  0  0  0  0
 29 28  1  0  0  0  0
 29168  1  0  0  0  0
 29169  1  0  0  0  0
 30 29  1  0  0  0  0
 30170  1  0  0  0  0
 30171  1  0  0  0  0
 31 30  1  0  0  0  0
 31172  1  0  0  0  0
 31173  1  0  0  0  0
 32 31  1  0  0  0  0
 32174  1  0  0  0  0
 32175  1  0  0  0  0
 33 32  1  0  0  0  0
 33176  1  0  0  0  0
 33177  1  0  0  0  0
 34 33  1  0  0  0  0
 34178  1  0  0  0  0
 34179  1  0  0  0  0
 35 34  1  0  0  0  0
 35180  1  0  0  0  0
 35181  1  0  0  0  0
 36 35  1  0  0  0  0
 36182  1  0  0  0  0
 36183  1  0  0  0  0
 37 36  1  0  0  0  0
 37184  1  0  0  0  0
 37185  1  0  0  0  0
 38 37  1  0  0  0  0
 38186  1  0  0  0  0
 38187  1  0  0  0  0
 39 38  1  0  0  0  0
 39188  1  0  0  0  0
 39189  1  0  0  0  0
 40 39  1  0  0  0  0
 40190  1  0  0  0  0
 40191  1  0  0  0  0
 41 40  1  0  0  0  0
 41192  1  0  0  0  0
 41193  1  0  0  0  0
 42 41  1  0  0  0  0
 42194  1  0  0  0  0
 42195  1  0  0  0  0
 43196  1  0  0  0  0
 43197  1  0  0  0  0
 44198  1  0  0  0  0
 44199  1  0  0  0  0
 45 48  1  0  0  0  0
 45119  1  1  0  0  0
 45 44  1  0  0  0  0
 45 43  1  0  0  0  0
 46 42  1  0  0  0  0
 47 43  1  0  0  0  0
 47200  1  0  0  0  0
 48201  1  0  0  0  0
 49 46  2  0  0  0  0
 50 44  1  0  0  0  0
 50 46  1  0  0  0  0
 51202  1  0  0  0  0
 51203  1  0  0  0  0
 51204  1  0  0  0  0
 52 51  1  0  0  0  0
 52205  1  0  0  0  0
 52206  1  0  0  0  0
 53 52  1  0  0  0  0
 53207  1  0  0  0  0
 53208  1  0  0  0  0
 54 53  1  0  0  0  0
 54209  1  0  0  0  0
 54210  1  0  0  0  0
 55 54  1  0  0  0  0
 55211  1  0  0  0  0
 55212  1  0  0  0  0
 56 55  1  0  0  0  0
 56213  1  0  0  0  0
 56214  1  0  0  0  0
 57 56  1  0  0  0  0
 57215  1  0  0  0  0
 57216  1  0  0  0  0
 58 57  1  0  0  0  0
 58217  1  0  0  0  0
 58218  1  0  0  0  0
 59 58  1  0  0  0  0
 59219  1  0  0  0  0
 59220  1  0  0  0  0
 60 59  1  0  0  0  0
 60221  1  0  0  0  0
 60222  1  0  0  0  0
 61 60  1  0  0  0  0
 61223  1  0  0  0  0
 61224  1  0  0  0  0
 62 61  1  0  0  0  0
 62225  1  0  0  0  0
 62226  1  0  0  0  0
 63 62  1  0  0  0  0
 63227  1  0  0  0  0
 63228  1  0  0  0  0
 64 63  1  0  0  0  0
 64229  1  0  0  0  0
 64230  1  0  0  0  0
 65 64  1  0  0  0  0
 65231  1  0  0  0  0
 65232  1  0  0  0  0
 66 65  1  0  0  0  0
 66233  1  0  0  0  0
 66234  1  0  0  0  0
 67 66  1  0  0  0  0
 67235  1  0  0  0  0
 67236  1  0  0  0  0
 68237  1  0  0  0  0
 68238  1  0  0  0  0
 69239  1  0  0  0  0
 69240  1  0  0  0  0
 70 68  1  0  0  0  0
 70 69  1  0  0  0  0
 70241  1  0  0  0  0
 71 67  1  0  0  0  0
 72 68  1  0  0  0  0
 72242  1  0  0  0  0
 73 69  1  0  0  0  0
 73243  1  0  0  0  0
 74 71  2  0  0  0  0
 75 70  1  0  0  0  0
 75 71  1  0  0  0  0
 76244  1  0  0  0  0
 76245  1  0  0  0  0
 76246  1  0  0  0  0
 77 76  1  0  0  0  0
 77247  1  0  0  0  0
 77248  1  0  0  0  0
 78 77  1  0  0  0  0
 78249  1  0  0  0  0
 78250  1  0  0  0  0
 79 78  1  0  0  0  0
 79251  1  0  0  0  0
 79252  1  0  0  0  0
 80 79  1  0  0  0  0
 80253  1  0  0  0  0
 80254  1  0  0  0  0
 81 80  1  0  0  0  0
 81255  1  0  0  0  0
 81256  1  0  0  0  0
 82 81  1  0  0  0  0
 82257  1  0  0  0  0
 82258  1  0  0  0  0
 83 82  1  0  0  0  0
 83259  1  0  0  0  0
 83260  1  0  0  0  0
 84 83  1  0  0  0  0
 84261  1  0  0  0  0
 84262  1  0  0  0  0
 85 84  1  0  0  0  0
 85263  1  0  0  0  0
 85264  1  0  0  0  0
 86 85  1  0  0  0  0
 86265  1  0  0  0  0
 86266  1  0  0  0  0
 87 86  1  0  0  0  0
 87267  1  0  0  0  0
 87268  1  0  0  0  0
 88 87  1  0  0  0  0
 88269  1  0  0  0  0
 88270  1  0  0  0  0
 89 88  1  0  0  0  0
 89271  1  0  0  0  0
 89272  1  0  0  0  0
 90 89  1  0  0  0  0
 90273  1  0  0  0  0
 90274  1  0  0  0  0
 91 90  1  0  0  0  0
 91275  1  0  0  0  0
 91276  1  0  0  0  0
 92 91  1  0  0  0  0
 92277  1  0  0  0  0
 92278  1  0  0  0  0
 93 92  1  0  0  0  0
 94 93  2  0  0  0  0
 95 93  1  0  0  0  0
 96279  1  0  0  0  0
 96280  1  0  0  0  0
 96281  1  0  0  0  0
 97 96  1  0  0  0  0
 97282  1  0  0  0  0
 97283  1  0  0  0  0
 98 97  1  0  0  0  0
 98284  1  0  0  0  0
 98285  1  0  0  0  0
 99 98  1  0  0  0  0
 99286  1  0  0  0  0
 99287  1  0  0  0  0
100 99  1  0  0  0  0
100288  1  0  0  0  0
100289  1  0  0  0  0
101100  1  0  0  0  0
101290  1  0  0  0  0
101291  1  0  0  0  0
102101  1  0  0  0  0
102292  1  0  0  0  0
102293  1  0  0  0  0
103102  1  0  0  0  0
103294  1  0  0  0  0
103295  1  0  0  0  0
104103  1  0  0  0  0
104296  1  0  0  0  0
104297  1  0  0  0  0
105104  1  0  0  0  0
105298  1  0  0  0  0
105299  1  0  0  0  0
106105  1  0  0  0  0
106300  1  0  0  0  0
106301  1  0  0  0  0
107106  1  0  0  0  0
107302  1  0  0  0  0
107303  1  0  0  0  0
108107  1  0  0  0  0
108304  1  0  0  0  0
108305  1  0  0  0  0
109108  1  0  0  0  0
109306  1  0  0  0  0
109307  1  0  0  0  0
110109  1  0  0  0  0
110308  1  0  0  0  0
110309  1  0  0  0  0
111110  1  0  0  0  0
111310  1  0  0  0  0
111311  1  0  0  0  0
112111  1  0  0  0  0
112312  1  0  0  0  0
112313  1  0  0  0  0
113112  1  0  0  0  0
114113  2  0  0  0  0
115113  1  0  0  0  0
M  CHG  4  95  -1 115  -1 116   1 117   1
M  END
>  <DRUGBANK_ID>
DB14149

>  <COMMON_NAME>
Glyceryl stearate SE

>  <UNII>
FCZ5MH785I

>  <SYNONYMS>
Glyceryl monostearate SE; Glyceryl monostearate self-emulsifying; Self-emulsifying glyceryl monostearate

$$$$
