
 OpenBabel10282417203D

 52 54  0  0  0  0  0  0  0  0999 V2000
    1.4666   -0.2067   -0.0603 C   0  0  0  0  0  0  0  0  0  0  0  0
   -5.3094   -5.1185    1.2666 C   0  0  0  0  0  0  0  0  0  0  0  0
    0.5880   -1.2915   -0.0925 C   0  0  0  0  0  0  0  0  0  0  0  0
    0.9884    1.1111   -0.0402 C   0  0  0  0  0  0  0  0  0  0  0  0
   -5.3262   -4.2411    2.5236 C   0  0  0  0  0  0  0  0  0  0  0  0
   -6.5969   -3.1027    4.9896 C   0  0  0  0  0  0  0  0  0  0  0  0
   -8.6356   -3.4195    3.6688 C   0  0  0  0  0  0  0  0  0  0  0  0
   -7.3263   -3.3167    6.1465 C   0  0  0  0  0  0  0  0  0  0  0  0
   -9.3472   -3.6685    4.8281 C   0  0  0  0  0  0  0  0  0  0  0  0
   -1.8874   -3.3052   -0.9650 C   0  0  0  0  0  0  0  0  0  0  0  0
   -3.1461   -1.4946    0.1950 C   0  0  0  0  0  0  0  0  0  0  0  0
   -5.4250   -4.4278   -0.1112 C   0  0  0  0  0  0  0  0  0  0  0  0
   -3.0494   -4.2568   -0.6218 C   0  0  0  0  0  0  0  0  0  0  0  0
   -4.2220   -2.4507    0.4709 C   0  0  0  0  0  0  0  0  0  0  0  0
   -1.2240    0.2812   -0.1530 C   0  0  0  0  0  0  0  0  0  0  0  0
   -7.2606   -3.2109    3.7716 C   0  0  0  0  0  0  0  0  0  0  0  0
   -0.7827   -1.0607   -0.1468 C   0  0  0  0  0  0  0  0  0  0  0  0
   -0.3758    1.3597   -0.0010 C   0  0  0  0  0  0  0  0  0  0  0  0
   -8.6856   -3.6188    6.0533 C   0  0  0  0  0  0  0  0  0  0  0  0
   -6.5040   -3.2679    2.5338 C   0  0  0  0  0  0  0  0  0  0  0  0
   -1.7857   -2.1773    0.0780 C   0  0  0  0  0  0  0  0  0  0  0  0
   -0.9795    2.6994    0.3252 C   0  0  0  0  0  0  0  0  0  0  0  0
   -9.3757   -3.8569    7.1735 F   0  0  0  0  0  0  0  0  0  0  0  0
   -0.5235    3.1897    1.5111 F   0  0  0  0  0  0  0  0  0  0  0  0
   -0.7177    3.6418   -0.6142 F   0  0  0  0  0  0  0  0  0  0  0  0
   -2.3418    2.6721    0.4553 F   0  0  0  0  0  0  0  0  0  0  0  0
   -4.3169   -3.5378   -0.4793 N   0  0  0  0  0  0  0  0  0  0  0  0
   -6.9198   -2.6001    1.6109 O   0  0  0  0  0  0  0  0  0  0  0  0
   -1.3879   -2.7302    1.3526 O   0  0  0  0  0  0  0  0  0  0  0  0
    2.5333   -0.3911    0.0191 H   0  0  0  0  0  0  0  0  0  0  0  0
   -6.1434   -5.8229    1.3530 H   0  0  0  0  0  0  0  0  0  0  0  0
   -4.4043   -5.7365    1.2865 H   0  0  0  0  0  0  0  0  0  0  0  0
    0.9662   -2.3073   -0.0002 H   0  0  0  0  0  0  0  0  0  0  0  0
    1.6818    1.9443   -0.0110 H   0  0  0  0  0  0  0  0  0  0  0  0
   -5.3526   -4.9042    3.3921 H   0  0  0  0  0  0  0  0  0  0  0  0
   -4.4024   -3.7049    2.7385 H   0  0  0  0  0  0  0  0  0  0  0  0
   -5.5346   -2.8735    5.0322 H   0  0  0  0  0  0  0  0  0  0  0  0
   -9.1231   -3.4242    2.6952 H   0  0  0  0  0  0  0  0  0  0  0  0
   -6.8418   -3.2727    7.1147 H   0  0  0  0  0  0  0  0  0  0  0  0
  -10.4005   -3.9181    4.7785 H   0  0  0  0  0  0  0  0  0  0  0  0
   -2.0549   -2.8897   -1.9657 H   0  0  0  0  0  0  0  0  0  0  0  0
   -0.9681   -3.9008   -0.9978 H   0  0  0  0  0  0  0  0  0  0  0  0
   -3.1453   -0.8173    1.0660 H   0  0  0  0  0  0  0  0  0  0  0  0
   -3.4259   -0.9527   -0.7156 H   0  0  0  0  0  0  0  0  0  0  0  0
   -6.3708   -3.8799   -0.1927 H   0  0  0  0  0  0  0  0  0  0  0  0
   -5.5176   -5.1981   -0.8866 H   0  0  0  0  0  0  0  0  0  0  0  0
   -3.1501   -5.0203   -1.4007 H   0  0  0  0  0  0  0  0  0  0  0  0
   -2.8006   -4.7928    0.3004 H   0  0  0  0  0  0  0  0  0  0  0  0
   -5.1372   -1.8688    0.5632 H   0  0  0  0  0  0  0  0  0  0  0  0
   -3.8979   -2.7950    1.4298 H   0  0  0  0  0  0  0  0  0  0  0  0
   -2.2787    0.5457   -0.1625 H   0  0  0  0  0  0  0  0  0  0  0  0
   -1.8651   -3.5543    1.5268 H   0  0  0  0  0  0  0  0  0  0  0  0
  1 30  1  0  0  0  0
  2 31  1  0  0  0  0
  2 32  1  0  0  0  0
  3  1  2  0  0  0  0
  3 33  1  0  0  0  0
  4  1  1  0  0  0  0
  4 34  1  0  0  0  0
  5  2  1  0  0  0  0
  5 35  1  0  0  0  0
  5 36  1  0  0  0  0
  6 37  1  0  0  0  0
  7 38  1  0  0  0  0
  8  6  1  0  0  0  0
  8 39  1  0  0  0  0
  9  7  2  0  0  0  0
  9 40  1  0  0  0  0
 10 41  1  0  0  0  0
 10 42  1  0  0  0  0
 11 43  1  0  0  0  0
 11 44  1  0  0  0  0
 12  2  1  0  0  0  0
 12 45  1  0  0  0  0
 12 46  1  0  0  0  0
 13 10  1  0  0  0  0
 13 47  1  0  0  0  0
 13 48  1  0  0  0  0
 14 11  1  0  0  0  0
 14 49  1  0  0  0  0
 14 50  1  0  0  0  0
 15 51  1  0  0  0  0
 16  6  2  0  0  0  0
 16  7  1  0  0  0  0
 17  3  1  0  0  0  0
 17 15  2  0  0  0  0
 18  4  2  0  0  0  0
 18 15  1  0  0  0  0
 19  8  2  0  0  0  0
 19  9  1  0  0  0  0
 20  5  1  0  0  0  0
 20 16  1  0  0  0  0
 21 10  1  0  0  0  0
 21 11  1  0  0  0  0
 21 17  1  0  0  0  0
 22 18  1  0  0  0  0
 23 19  1  0  0  0  0
 24 22  1  0  0  0  0
 25 22  1  0  0  0  0
 26 22  1  0  0  0  0
 27 12  1  0  0  0  0
 27 13  1  0  0  0  0
 27 14  1  0  0  0  0
 28 20  2  0  0  0  0
 29 21  1  0  0  0  0
 29 52  1  0  0  0  0
M  END
>  <DRUGBANK_ID>
DB13552

>  <COMMON_NAME>
Trifluperidol

>  <CAS_NUMBER>
749-13-3

>  <UNII>
R8869Q7R8I

>  <SYNONYMS>
Trifluperidol

$$$$
