
 OpenBabel10282417233D

 36 36  0  0  0  0  0  0  0  0999 V2000
    0.8760    0.0216   -0.0633 C   0  0  0  0  0  0  0  0  0  0  0  0
    0.2998   -0.2774    1.3261 C   0  0  0  0  0  0  0  0  0  0  0  0
    0.8853    0.7355    2.3268 C   0  0  0  0  0  0  0  0  0  0  0  0
   -1.2172   -0.2469    1.3304 C   0  0  0  0  0  0  0  0  0  0  0  0
    0.6441   -1.6905    1.7069 N   0  3  0  0  0  0  0  0  0  0  0  0
    0.9985   -2.5186    0.7969 O   0  5  0  0  0  0  0  0  0  0  0  0
    0.5383   -2.1278    2.9428 C   0  0  0  0  0  0  0  0  0  0  0  0
    1.0977   -3.4056    3.3798 C   0  0  0  0  0  0  0  0  0  0  0  0
    2.4377   -3.7653    3.1842 C   0  0  0  0  0  0  0  0  0  0  0  0
    2.9384   -4.9259    3.8055 C   0  0  0  0  0  0  0  0  0  0  0  0
    2.0977   -5.7119    4.6055 C   0  0  0  0  0  0  0  0  0  0  0  0
    0.7738   -5.3311    4.8348 C   0  0  0  0  0  0  0  0  0  0  0  0
    0.2660   -4.1991    4.1896 C   0  0  0  0  0  0  0  0  0  0  0  0
    2.6586   -7.2797    5.2485 S   0  0  0  0  0  0  0  0  0  0  0  0
    2.4742   -7.1258    6.8465 O   0  0  0  0  0  0  0  0  0  0  0  0
    1.7325   -8.2863    4.7835 O   0  0  0  0  0  0  0  0  0  0  0  0
    4.0826   -7.3657    5.0118 O   0  0  0  0  0  0  0  0  0  0  0  0
    3.6033   -2.8155    2.2127 S   0  0  0  0  0  0  0  0  0  0  0  0
    4.7944   -2.5825    3.2702 O   0  0  0  0  0  0  0  0  0  0  0  0
    4.0976   -3.6680    1.1507 O   0  0  0  0  0  0  0  0  0  0  0  0
    3.1685   -1.4572    2.0072 O   0  0  0  0  0  0  0  0  0  0  0  0
    0.5626    1.0148   -0.4019 H   0  0  0  0  0  0  0  0  0  0  0  0
    0.5395   -0.7025   -0.8119 H   0  0  0  0  0  0  0  0  0  0  0  0
    1.9737    0.0081   -0.0604 H   0  0  0  0  0  0  0  0  0  0  0  0
    0.5709    1.7509    2.0541 H   0  0  0  0  0  0  0  0  0  0  0  0
    0.5510    0.5719    3.3554 H   0  0  0  0  0  0  0  0  0  0  0  0
    1.9811    0.7426    2.3367 H   0  0  0  0  0  0  0  0  0  0  0  0
   -1.6136   -1.0130    0.6560 H   0  0  0  0  0  0  0  0  0  0  0  0
   -1.6075   -0.4573    2.3327 H   0  0  0  0  0  0  0  0  0  0  0  0
   -1.5886    0.7313    1.0197 H   0  0  0  0  0  0  0  0  0  0  0  0
    0.0315   -1.4919    3.6819 H   0  0  0  0  0  0  0  0  0  0  0  0
    3.9769   -5.2160    3.6453 H   0  0  0  0  0  0  0  0  0  0  0  0
    0.1322   -5.9211    5.4895 H   0  0  0  0  0  0  0  0  0  0  0  0
   -0.7918   -3.9616    4.2991 H   0  0  0  0  0  0  0  0  0  0  0  0
    3.2164   -6.6068    7.2163 H   0  0  0  0  0  0  0  0  0  0  0  0
    4.6142   -1.6916    3.6477 H   0  0  0  0  0  0  0  0  0  0  0  0
  1  2  1  0  0  0  0
  1 22  1  0  0  0  0
  1 23  1  0  0  0  0
  1 24  1  0  0  0  0
  2  3  1  0  0  0  0
  2  4  1  0  0  0  0
  2  5  1  0  0  0  0
  3 25  1  0  0  0  0
  3 26  1  0  0  0  0
  3 27  1  0  0  0  0
  4 28  1  0  0  0  0
  4 29  1  0  0  0  0
  4 30  1  0  0  0  0
  5  6  1  0  0  0  0
  5  7  2  0  0  0  0
  7  8  1  0  0  0  0
  7 31  1  0  0  0  0
  8  9  2  0  0  0  0
  8 13  1  0  0  0  0
  9 10  1  0  0  0  0
  9 18  1  0  0  0  0
 10 11  2  0  0  0  0
 10 32  1  0  0  0  0
 11 12  1  0  0  0  0
 11 14  1  0  0  0  0
 12 13  2  0  0  0  0
 12 33  1  0  0  0  0
 13 34  1  0  0  0  0
 14 15  1  0  0  0  0
 14 16  2  0  0  0  0
 14 17  2  0  0  0  0
 15 35  1  0  0  0  0
 18 19  1  0  0  0  0
 18 20  2  0  0  0  0
 18 21  2  0  0  0  0
 19 36  1  0  0  0  0
M  CHG  2   5   1   6  -1
M  END
>  <DRUGBANK_ID>
DB17298

>  <COMMON_NAME>
Disufenton

>  <CAS_NUMBER>
168021-77-0

>  <UNII>
797K01YF1M

>  <SYNONYMS>
1,3-benzenedisulfonic acid, 4-(((1,1-dimethylethyl)oxidoimino)methyl)-; 2,4-disulfonyl-.alpha.-phenyl-tert-butylnitrone; 4-(((1,1-dimethylethyl)imino)methyl)benzene-1,3-disulfonate n-oxide; 4-(((1,1-dimethylethyl)imino)methyl)benzene-1,3-disulphonate n-oxide; 4-(((1,1-dimethylethyl)oxidoimino)methyl)-1,3-benzenedisulfonic acid; 4-tert-butyliminomethyl)benzene-,3-disulfonate n-oxide; 4-tert-butyliminomethyl)benzene-,3-disulphonate n-oxide

$$$$
