
 OpenBabel10282417123D

 14 13  0  0  0  0  0  0  0  0999 V2000
    0.9235    0.1045    0.0346 C   0  0  0  0  0  0  0  0  0  0  0  0
    0.3962    0.6967   -1.2697 C   0  0  0  0  0  0  0  0  0  0  0  0
    0.9235   -0.1115   -2.4524 C   0  0  0  0  0  0  0  0  0  0  0  0
   -1.1214    0.6544   -1.2660 C   0  0  0  0  0  0  0  0  0  0  0  0
   -1.7235    1.8587   -1.3706 O   0  0  0  0  0  0  0  0  0  0  0  0
   -1.7707   -0.3797   -1.1762 O   0  0  0  0  0  0  0  0  0  0  0  0
    0.5865   -0.9309    0.1620 H   0  0  0  0  0  0  0  0  0  0  0  0
    0.5700    0.6756    0.8987 H   0  0  0  0  0  0  0  0  0  0  0  0
    2.0189    0.1019    0.0488 H   0  0  0  0  0  0  0  0  0  0  0  0
    0.7465    1.7316   -1.3596 H   0  0  0  0  0  0  0  0  0  0  0  0
    0.5864   -1.1534   -2.3993 H   0  0  0  0  0  0  0  0  0  0  0  0
    0.5699    0.3021   -3.4020 H   0  0  0  0  0  0  0  0  0  0  0  0
    2.0189   -0.1165   -2.4659 H   0  0  0  0  0  0  0  0  0  0  0  0
   -1.1326    2.6307   -1.4377 H   0  0  0  0  0  0  0  0  0  0  0  0
  1  2  1  0  0  0  0
  1  7  1  0  0  0  0
  1  8  1  0  0  0  0
  1  9  1  0  0  0  0
  2  3  1  0  0  0  0
  2  4  1  0  0  0  0
  2 10  1  0  0  0  0
  3 11  1  0  0  0  0
  3 12  1  0  0  0  0
  3 13  1  0  0  0  0
  4  5  1  0  0  0  0
  4  6  2  0  0  0  0
  5 14  1  0  0  0  0
M  END
>  <DRUGBANK_ID>
DB02531

>  <SECONDARY_ACCESSION_NUMBERS>
EXPT01932; DB04305

>  <COMMON_NAME>
Isobutyric acid

>  <CAS_NUMBER>
79-31-2

>  <UNII>
8LL210O1U0

>  <SYNONYMS>
2-methyl-propionic acid; 2-Methylpropanoate; 2-Methylpropanoic acid; 2-Methylpropionsäure; 2,2-dimethylacetic acid; Dimethylacetic acid; iso-butyric acid; Isobutanoate; Isobuttersäure; Isobutyrate; Isopropylformic acid; α-isobutyric acid; α-methylpropanoic acid; α-methylpropionic acid

$$$$
