822
 OpenBabel10282417113D

 36 35  0  0  0  0  0  0  0  0999 V2000
    0.9411   -0.0472    0.0792 S   0  0  0  0  0  0  0  0  0  0  0  0
    0.0438    0.1634    1.8903 S   0  0  0  0  0  0  0  0  0  0  0  0
    3.3659    0.5294   -1.3999 S   0  0  0  0  0  0  0  0  0  0  0  0
   -2.4854   -0.3785    0.3670 S   0  0  0  0  0  0  0  0  0  0  0  0
    3.5344   -0.0142    1.2909 N   0  0  0  0  0  0  0  0  0  0  0  0
   -2.2926   -0.1339    3.1190 N   0  0  0  0  0  0  0  0  0  0  0  0
    3.0977   -0.0968    2.6790 C   0  0  0  0  0  0  0  0  0  0  0  0
    5.0153   -0.0030    1.1948 C   0  0  0  0  0  0  0  0  0  0  0  0
   -1.5758   -0.2140    4.4278 C   0  0  0  0  0  0  0  0  0  0  0  0
   -3.7577   -0.1281    3.2186 C   0  0  0  0  0  0  0  0  0  0  0  0
    3.3019   -1.4530    3.3207 C   0  0  0  0  0  0  0  0  0  0  0  0
    5.5982   -1.2423    0.5294 C   0  0  0  0  0  0  0  0  0  0  0  0
   -1.8745    0.9447    5.3773 C   0  0  0  0  0  0  0  0  0  0  0  0
   -4.3509    1.2014    2.7664 C   0  0  0  0  0  0  0  0  0  0  0  0
    2.7195    0.1686    0.1387 C   0  0  0  0  0  0  0  0  0  0  0  0
   -1.6747   -0.1591    1.8323 C   0  0  0  0  0  0  0  0  0  0  0  0
    3.5775    0.7045    3.2481 H   0  0  0  0  0  0  0  0  0  0  0  0
    2.0654    0.1502    2.7952 H   0  0  0  0  0  0  0  0  0  0  0  0
    5.3442    0.9187    0.7049 H   0  0  0  0  0  0  0  0  0  0  0  0
    5.4282    0.0414    2.2108 H   0  0  0  0  0  0  0  0  0  0  0  0
   -1.8776   -1.1569    4.9013 H   0  0  0  0  0  0  0  0  0  0  0  0
   -0.4919   -0.2830    4.3160 H   0  0  0  0  0  0  0  0  0  0  0  0
   -4.1551   -0.9654    2.6372 H   0  0  0  0  0  0  0  0  0  0  0  0
   -4.0534   -0.3170    4.2567 H   0  0  0  0  0  0  0  0  0  0  0  0
    4.3572   -1.6128    3.5645 H   0  0  0  0  0  0  0  0  0  0  0  0
    2.7310   -1.5119    4.2524 H   0  0  0  0  0  0  0  0  0  0  0  0
    2.9696   -2.2625    2.6640 H   0  0  0  0  0  0  0  0  0  0  0  0
    5.3482   -1.3067   -0.5306 H   0  0  0  0  0  0  0  0  0  0  0  0
    6.6902   -1.2260    0.6018 H   0  0  0  0  0  0  0  0  0  0  0  0
    5.2322   -2.1559    1.0074 H   0  0  0  0  0  0  0  0  0  0  0  0
   -2.9308    0.9796    5.6607 H   0  0  0  0  0  0  0  0  0  0  0  0
   -1.2996    0.8368    6.3047 H   0  0  0  0  0  0  0  0  0  0  0  0
   -1.6130    1.9045    4.9232 H   0  0  0  0  0  0  0  0  0  0  0  0
   -4.1052    1.4428    1.7297 H   0  0  0  0  0  0  0  0  0  0  0  0
   -5.4401    1.1755    2.8408 H   0  0  0  0  0  0  0  0  0  0  0  0
   -3.9682    2.0276    3.3730 H   0  0  0  0  0  0  0  0  0  0  0  0
  1  2  1  0  0  0  0
  1 15  1  0  0  0  0
  2 16  1  0  0  0  0
  3 15  2  0  0  0  0
  4 16  2  0  0  0  0
  5  7  1  0  0  0  0
  5  8  1  0  0  0  0
  5 15  1  0  0  0  0
  6  9  1  0  0  0  0
  6 10  1  0  0  0  0
  6 16  1  0  0  0  0
  7 11  1  0  0  0  0
  7 17  1  0  0  0  0
  7 18  1  0  0  0  0
  8 12  1  0  0  0  0
  8 19  1  0  0  0  0
  8 20  1  0  0  0  0
  9 13  1  0  0  0  0
  9 21  1  0  0  0  0
  9 22  1  0  0  0  0
 10 14  1  0  0  0  0
 10 23  1  0  0  0  0
 10 24  1  0  0  0  0
 11 25  1  0  0  0  0
 11 26  1  0  0  0  0
 11 27  1  0  0  0  0
 12 28  1  0  0  0  0
 12 29  1  0  0  0  0
 12 30  1  0  0  0  0
 13 31  1  0  0  0  0
 13 32  1  0  0  0  0
 13 33  1  0  0  0  0
 14 34  1  0  0  0  0
 14 35  1  0  0  0  0
 14 36  1  0  0  0  0
M  END
>  <DRUGBANK_ID>
DB00822

>  <SECONDARY_ACCESSION_NUMBERS>
APRD00767

>  <COMMON_NAME>
Disulfiram

>  <CAS_NUMBER>
97-77-8

>  <UNII>
TR3MLJ1UAI

>  <SYNONYMS>
1,1'-dithiobis(N,N-diethylthioformamide); bis(diethylthiocarbamoyl) disulfide; Disulfiram; N,N,N',N'-tetraethylthiuram disulfide; Tetraethylthioperoxydicarbonic diamide; Tetraethylthiuram disulfide; Tetraethylthiuram disulphide

$$$$
