HII
 OpenBabel10282417133D

 21 21  0  0  0  0  0  0  0  0999 V2000
    0.9297   -0.0310   -0.0178 C   0  0  0  0  0  0  0  0  0  0  0  0
    0.3614    1.0599   -0.0826 O   0  0  0  0  0  0  0  0  0  0  0  0
    0.1990   -1.3578   -0.0743 C   0  0  1  0  0  0  0  0  0  0  0  0
    0.5669   -2.0537   -1.3818 C   0  0  0  0  0  0  0  0  0  0  0  0
    0.5777   -2.2435    1.1178 C   0  0  0  0  0  0  0  0  0  0  0  0
    0.2597   -1.6443    2.4504 C   0  0  0  0  0  0  0  0  0  0  0  0
   -0.1822   -2.3132    3.5732 C   0  0  0  0  0  0  0  0  0  0  0  0
   -0.3592   -1.2128    4.8763 S   0  0  0  0  0  0  0  0  0  0  0  0
    0.1675    0.0651    3.8612 C   0  0  0  0  0  0  0  0  0  0  0  0
    0.4726   -0.2930    2.6419 N   0  0  0  0  0  0  0  0  0  0  0  0
    0.2797    1.3228    4.2968 N   0  0  0  0  0  0  0  0  0  0  0  0
   -0.8787   -1.1542   -0.0617 H   0  0  0  0  0  0  0  0  0  0  0  0
    2.0292   -0.0871    0.0508 H   0  0  0  0  0  0  0  0  0  0  0  0
    1.6415   -2.2659   -1.4307 H   0  0  0  0  0  0  0  0  0  0  0  0
    0.0299   -3.0025   -1.4839 H   0  0  0  0  0  0  0  0  0  0  0  0
    0.3169   -1.4250   -2.2426 H   0  0  0  0  0  0  0  0  0  0  0  0
    0.0505   -3.2028    1.0257 H   0  0  0  0  0  0  0  0  0  0  0  0
    1.6511   -2.4718    1.0977 H   0  0  0  0  0  0  0  0  0  0  0  0
   -0.3905   -3.3666    3.6864 H   0  0  0  0  0  0  0  0  0  0  0  0
    0.0446    1.5933    5.2400 H   0  0  0  0  0  0  0  0  0  0  0  0
    0.5256    2.0536    3.6393 H   0  0  0  0  0  0  0  0  0  0  0  0
  1  2  2  0  0  0  0
  1  3  1  0  0  0  0
  1 13  1  0  0  0  0
  3  4  1  0  0  0  0
  3  5  1  0  0  0  0
  3 12  1  1  0  0  0
  4 14  1  0  0  0  0
  4 15  1  0  0  0  0
  4 16  1  0  0  0  0
  5  6  1  0  0  0  0
  5 17  1  0  0  0  0
  5 18  1  0  0  0  0
  6  7  2  0  0  0  0
  6 10  1  0  0  0  0
  7  8  1  0  0  0  0
  7 19  1  0  0  0  0
  8  9  1  0  0  0  0
  9 10  2  0  0  0  0
  9 11  1  0  0  0  0
 11 20  1  0  0  0  0
 11 21  1  0  0  0  0
M  END
>  <DRUGBANK_ID>
DB03024

>  <SECONDARY_ACCESSION_NUMBERS>
EXPT01750

>  <COMMON_NAME>
2-Methyl-3-(2-Aminothiazolo)Propanal

$$$$
