LK5
 OpenBabel10282417173D

 49 50  0  0  0  0  0  0  0  0999 V2000
    2.7032   -1.3686   -6.9629 C   0  0  0  0  0  0  0  0  0  0  0  0
    4.1427   -1.0619   -6.6927 C   0  0  0  0  0  0  0  0  0  0  0  0
    4.8091   -0.0037   -7.5409 C   0  0  0  0  0  0  0  0  0  0  0  0
    4.2308    1.3864   -7.2921 C   0  0  0  0  0  0  0  0  0  0  0  0
    4.6040    1.9586   -6.0303 O   0  0  0  0  0  0  0  0  0  0  0  0
    4.1167    1.3962   -4.7899 C   0  0  2  0  0  0  0  0  0  0  0  0
    5.1654    0.3262   -4.2453 C   0  0  0  0  0  0  0  0  0  0  0  0
    4.5987   -0.5968   -3.1615 C   0  0  0  0  0  0  0  0  0  0  0  0
    3.1956   -1.1754   -3.3642 C   0  0  0  0  0  0  0  0  0  0  0  0
    2.1759   -0.3259   -4.1561 C   0  0  2  0  0  0  0  0  0  0  0  0
    2.6106    1.0088   -4.7872 C   0  0  0  0  0  0  0  0  0  0  0  0
    1.5096    1.5908   -5.3544 C   0  0  0  0  0  0  0  0  0  0  0  0
    1.4005    2.8119   -6.2273 C   0  0  0  0  0  0  0  0  0  0  0  0
    0.4115    3.0903   -6.9318 O   0  0  0  0  0  0  0  0  0  0  0  0
    2.4804    3.5876   -6.2146 O   0  0  0  0  0  0  0  0  0  0  0  0
    0.3356    0.8368   -5.1193 N   0  0  0  0  0  0  0  0  0  0  0  0
    0.6483   -0.4658   -4.5243 C   0  0  2  0  0  0  0  0  0  0  0  0
   -0.2168   -0.8363   -3.3549 C   0  0  1  0  0  0  0  0  0  0  0  0
   -0.2496   -2.3702   -3.1994 C   0  0  0  0  0  0  0  0  0  0  0  0
   -1.1082   -2.7559   -2.0115 C   0  0  0  0  0  0  0  0  0  0  0  0
    0.4178   -0.1116   -2.1830 C   0  0  0  0  0  0  0  0  0  0  0  0
    0.6825   -0.6115   -1.0961 O   0  0  0  0  0  0  0  0  0  0  0  0
    4.2041    2.2158   -4.0619 H   0  0  0  0  0  0  0  0  0  0  0  0
    2.2337   -1.1399   -4.8226 H   0  0  0  0  0  0  0  0  0  0  0  0
    0.4729   -1.2015   -5.3379 H   0  0  0  0  0  0  0  0  0  0  0  0
   -1.2321   -0.4601   -3.5244 H   0  0  0  0  0  0  0  0  0  0  0  0
    2.1139   -0.4501   -6.8728 H   0  0  0  0  0  0  0  0  0  0  0  0
    2.3989   -2.0861   -6.1974 H   0  0  0  0  0  0  0  0  0  0  0  0
    2.4584   -1.8385   -7.8925 H   0  0  0  0  0  0  0  0  0  0  0  0
    4.0245   -0.6191   -5.7437 H   0  0  0  0  0  0  0  0  0  0  0  0
    4.7642   -1.9279   -6.4572 H   0  0  0  0  0  0  0  0  0  0  0  0
    5.8790    0.0449   -7.3042 H   0  0  0  0  0  0  0  0  0  0  0  0
    4.6875   -0.3040   -8.5813 H   0  0  0  0  0  0  0  0  0  0  0  0
    4.6031    2.0644   -8.0719 H   0  0  0  0  0  0  0  0  0  0  0  0
    3.1501    1.3887   -7.4312 H   0  0  0  0  0  0  0  0  0  0  0  0
    6.0978    0.8077   -3.9143 H   0  0  0  0  0  0  0  0  0  0  0  0
    5.6297   -0.3047   -5.0179 H   0  0  0  0  0  0  0  0  0  0  0  0
    5.2685   -1.4682   -3.0711 H   0  0  0  0  0  0  0  0  0  0  0  0
    4.6098   -0.0702   -2.2105 H   0  0  0  0  0  0  0  0  0  0  0  0
    3.3960   -2.1119   -3.9347 H   0  0  0  0  0  0  0  0  0  0  0  0
    2.7914   -1.5401   -2.4226 H   0  0  0  0  0  0  0  0  0  0  0  0
    2.3543    4.2917   -6.8812 H   0  0  0  0  0  0  0  0  0  0  0  0
   -0.3174    0.8513   -5.9160 H   0  0  0  0  0  0  0  0  0  0  0  0
   -0.6677   -2.8437   -4.1022 H   0  0  0  0  0  0  0  0  0  0  0  0
    0.7580   -2.7905   -3.0856 H   0  0  0  0  0  0  0  0  0  0  0  0
   -2.1098   -2.3339   -2.1278 H   0  0  0  0  0  0  0  0  0  0  0  0
   -1.1748   -3.8393   -1.9055 H   0  0  0  0  0  0  0  0  0  0  0  0
   -0.6919   -2.3768   -1.0780 H   0  0  0  0  0  0  0  0  0  0  0  0
    0.7232    0.9301   -2.3822 H   0  0  0  0  0  0  0  0  0  0  0  0
  1  2  1  0  0  0  0
  1 27  1  0  0  0  0
  1 28  1  0  0  0  0
  1 29  1  0  0  0  0
  2  3  1  0  0  0  0
  2 30  1  0  0  0  0
  2 31  1  0  0  0  0
  3  4  1  0  0  0  0
  3 32  1  0  0  0  0
  3 33  1  0  0  0  0
  4  5  1  0  0  0  0
  4 34  1  0  0  0  0
  4 35  1  0  0  0  0
  6  5  1  0  0  0  0
  6  7  1  0  0  0  0
  6 11  1  0  0  0  0
  6 23  1  1  0  0  0
  7  8  1  0  0  0  0
  7 36  1  0  0  0  0
  7 37  1  0  0  0  0
  8  9  1  0  0  0  0
  8 38  1  0  0  0  0
  8 39  1  0  0  0  0
  9 10  1  0  0  0  0
  9 40  1  0  0  0  0
  9 41  1  0  0  0  0
 10 17  1  0  0  0  0
 10 11  1  0  0  0  0
 10 24  1  6  0  0  0
 11 12  2  0  0  0  0
 12 16  1  0  0  0  0
 12 13  1  0  0  0  0
 13 14  2  0  0  0  0
 13 15  1  0  0  0  0
 15 42  1  0  0  0  0
 16 17  1  0  0  0  0
 16 43  1  0  0  0  0
 17 25  1  6  0  0  0
 18 19  1  0  0  0  0
 18 26  1  6  0  0  0
 18 21  1  0  0  0  0
 18 17  1  0  0  0  0
 19 20  1  0  0  0  0
 19 44  1  0  0  0  0
 19 45  1  0  0  0  0
 20 46  1  0  0  0  0
 20 47  1  0  0  0  0
 20 48  1  0  0  0  0
 21 22  2  0  0  0  0
 21 49  1  0  0  0  0
M  END
>  <DRUGBANK_ID>
DB08109

>  <COMMON_NAME>
(1S,4R,7AR)-4-BUTOXY-1-[(1R)-1-FORMYLPROPYL]-2,4,5,6,7,7A-HEXAHYDRO-1H-ISOINDOLE-3-CARBOXYLIC ACID

$$$$
