
 OpenBabel10282417223D

 37 28  0  0  0  0  0  0  0  0999 V2000
    0.9381   -0.0783    0.0058 K   0  3  0  0  0  0  0  0  0  0  0  0
    0.9544   -0.0883   -0.0112 Sb  0  1  0  0  0  0  0  0  0  0  0  0
    0.9188    0.0574   -0.0104 O   0  0  0  0  0  0  0  0  0  0  0  0
    0.6712   -2.5167   -0.0905 C   0  0  0  0  0  0  0  0  0  0  0  0
    0.3040   -1.2153    0.6037 C   0  0  1  0  0  0  0  0  0  0  0  0
    0.6712   -1.3053    2.0760 C   0  0  2  0  0  0  0  0  0  0  0  0
   -0.0888   -2.4542    2.7184 C   0  0  0  0  0  0  0  0  0  0  0  0
   -0.1579   -3.4800   -0.0855 O   0  0  0  0  0  0  0  0  0  0  0  0
    1.9222   -2.6602   -0.7468 O   0  5  0  0  0  0  0  0  0  0  0  0
    0.5466   -3.4149    3.2556 O   0  0  0  0  0  0  0  0  0  0  0  0
   -1.5088   -2.4542    2.7184 O   0  5  0  0  0  0  0  0  0  0  0  0
    0.3281   -0.0895    2.7245 O   0  5  0  0  0  0  0  0  0  0  0  0
    1.0140   -0.1420    0.0035 O   0  5  0  0  0  0  0  0  0  0  0  0
    0.5440    1.5164    1.9664 C   0  0  0  0  0  0  0  0  0  0  0  0
    0.1768    1.2822    0.5101 C   0  0  1  0  0  0  0  0  0  0  0  0
    0.5440    2.5091   -0.3086 C   0  0  2  0  0  0  0  0  0  0  0  0
   -0.2160    3.7156    0.2179 C   0  0  0  0  0  0  0  0  0  0  0  0
    0.5451    2.6979    2.4347 O   0  0  0  0  0  0  0  0  0  0  0  0
    0.8425    0.4166    2.8136 O   0  5  0  0  0  0  0  0  0  0  0  0
    0.4194    4.7244    0.6582 O   0  0  0  0  0  0  0  0  0  0  0  0
   -1.6360    3.7156    0.2179 O   0  5  0  0  0  0  0  0  0  0  0  0
    0.2009    2.2904   -1.6690 O   0  5  0  0  0  0  0  0  0  0  0  0
    0.8868    0.1551    0.0183 O   0  5  0  0  0  0  0  0  0  0  0  0
    0.9371    0.0175    0.0757 Sb  0  1  0  0  0  0  0  0  0  0  0  0
    0.9569   -0.0589    0.0684 K   0  3  0  0  0  0  0  0  0  0  0  0
    0.9629    0.0182   -0.0911 O   0  0  0  0  0  0  0  0  0  0  0  0
    0.9181    0.0535    0.0208 O   0  0  0  0  0  0  0  0  0  0  0  0
    0.5855   -0.7898    0.4032 H   0  0  0  0  0  0  0  0  0  0  0  0
    1.9188    0.0574   -0.0104 H   0  0  0  0  0  0  0  0  0  0  0  0
   -0.7480   -1.0447    0.5083 H   0  0  0  0  0  0  0  0  0  0  0  0
    1.7232   -1.4760    2.1714 H   0  0  0  0  0  0  0  0  0  0  0  0
   -0.8752    1.1030    0.4319 H   0  0  0  0  0  0  0  0  0  0  0  0
    1.5960    2.6883   -0.2303 H   0  0  0  0  0  0  0  0  0  0  0  0
    0.6296   -0.9023   -0.2952 H   0  0  0  0  0  0  0  0  0  0  0  0
    1.9629    0.0182   -0.0911 H   0  0  0  0  0  0  0  0  0  0  0  0
    0.5848   -0.8318   -0.3036 H   0  0  0  0  0  0  0  0  0  0  0  0
    1.9181    0.0535    0.0208 H   0  0  0  0  0  0  0  0  0  0  0  0
  3 28  1  0  0  0  0
  3 29  1  0  0  0  0
  4  9  1  0  0  0  0
  4  8  2  0  0  0  0
  5  6  1  0  0  0  0
  5 30  1  6  0  0  0
  5  4  1  0  0  0  0
  5 13  1  0  0  0  0
  6 12  1  0  0  0  0
  6  7  1  0  0  0  0
  6 31  1  1  0  0  0
  7 10  2  0  0  0  0
  7 11  1  0  0  0  0
 14 19  1  0  0  0  0
 14 18  2  0  0  0  0
 15 16  1  0  0  0  0
 15 32  1  6  0  0  0
 15 14  1  0  0  0  0
 15 23  1  0  0  0  0
 16 22  1  0  0  0  0
 16 17  1  0  0  0  0
 16 33  1  1  0  0  0
 17 20  2  0  0  0  0
 17 21  1  0  0  0  0
 26 34  1  0  0  0  0
 26 35  1  0  0  0  0
 27 36  1  0  0  0  0
 27 37  1  0  0  0  0
M  CHG  8   1   1   2   3   9  -1  11  -1  12  -1  13  -1  19  -1  21  -1
M  CHG  4  22  -1  23  -1  24   3  25   1
M  END
>  <DRUGBANK_ID>
DB15587

>  <COMMON_NAME>
Antimony potassium tartrate

>  <CAS_NUMBER>
28300-74-5

>  <UNII>
DL6OZ476V3

>  <SYNONYMS>
Antimony potassium tartrate; Potassium antimonyl D-tartrate; Potassium antimonyl tartrate; Tartar emetic; Tartarized antimony; Tartox; Tartrated antimony

$$$$
