
 OpenBabel10282417173D

 42 43  0  0  0  0  0  0  0  0999 V2000
   -0.5977   -3.6722   -2.0819 P   0  0  3  0  0  0  0  0  0  0  0  0
   -0.2381   -2.2799   -1.2146 O   0  0  0  0  0  0  0  0  0  0  0  0
   -1.6414   -4.5481   -1.3640 O   0  5  0  0  0  0  0  0  0  0  0  0
    0.5930   -4.4031   -1.4144 O   0  0  0  0  0  0  0  0  0  0  0  0
   -6.8877   -0.5667    2.8094 O   0  0  0  0  0  0  0  0  0  0  0  0
   -5.7977   -1.7780    1.2431 N   0  0  0  0  0  0  0  0  0  0  0  0
    0.9955   -2.3418   -0.4435 C   0  0  2  0  0  0  0  0  0  0  0  0
   -2.0050   -2.8085   -2.8708 C   0  0  0  0  0  0  0  0  0  0  0  0
   -3.1870   -2.4755   -1.9965 C   0  0  0  0  0  0  0  0  0  0  0  0
    1.0098   -1.3495    0.6861 C   0  0  0  0  0  0  0  0  0  0  0  0
    2.2090   -2.1700   -1.3846 C   0  0  0  0  0  0  0  0  0  0  0  0
   -4.1622   -3.4296   -1.6505 C   0  0  0  0  0  0  0  0  0  0  0  0
   -3.0861   -1.3155   -1.2712 C   0  0  0  0  0  0  0  0  0  0  0  0
    2.2240   -0.9831    1.2828 C   0  0  0  0  0  0  0  0  0  0  0  0
   -0.1892   -0.8888    1.2243 C   0  0  0  0  0  0  0  0  0  0  0  0
   -4.8910   -2.0499    0.1933 C   0  0  0  0  0  0  0  0  0  0  0  0
   -5.0227   -3.2163   -0.5634 C   0  0  0  0  0  0  0  0  0  0  0  0
   -3.8614   -1.1780   -0.1459 C   0  0  0  0  0  0  0  0  0  0  0  0
    2.2481   -0.0495    2.3015 C   0  0  0  0  0  0  0  0  0  0  0  0
   -0.1682    0.0822    2.2117 C   0  0  0  0  0  0  0  0  0  0  0  0
    1.0505    0.4988    2.7494 C   0  0  0  0  0  0  0  0  0  0  0  0
   -5.9302   -0.6567    2.0234 C   0  0  0  0  0  0  0  0  0  0  0  0
   -4.9370    0.4703    1.9396 C   0  0  0  0  0  0  0  0  0  0  0  0
   -6.5360   -2.4568    1.3900 H   0  0  0  0  0  0  0  0  0  0  0  0
    1.0687   -3.2743    0.1345 H   0  0  0  0  0  0  0  0  0  0  0  0
   -1.6292   -1.9011   -3.3612 H   0  0  0  0  0  0  0  0  0  0  0  0
   -2.3608   -3.4477   -3.6897 H   0  0  0  0  0  0  0  0  0  0  0  0
    3.1522   -2.4005   -0.8760 H   0  0  0  0  0  0  0  0  0  0  0  0
    2.1736   -2.8216   -2.2628 H   0  0  0  0  0  0  0  0  0  0  0  0
    2.2638   -1.1431   -1.7591 H   0  0  0  0  0  0  0  0  0  0  0  0
   -4.1364   -4.4047   -2.1374 H   0  0  0  0  0  0  0  0  0  0  0  0
   -2.2875   -0.6020   -1.4497 H   0  0  0  0  0  0  0  0  0  0  0  0
    3.1582   -1.4366    0.9627 H   0  0  0  0  0  0  0  0  0  0  0  0
   -1.1273   -1.3061    0.8647 H   0  0  0  0  0  0  0  0  0  0  0  0
   -5.7107   -4.0125   -0.2913 H   0  0  0  0  0  0  0  0  0  0  0  0
   -3.5030   -0.3849    0.4745 H   0  0  0  0  0  0  0  0  0  0  0  0
    3.2021    0.2455    2.7226 H   0  0  0  0  0  0  0  0  0  0  0  0
   -1.1037    0.5099    2.5510 H   0  0  0  0  0  0  0  0  0  0  0  0
    1.0658    1.2393    3.5385 H   0  0  0  0  0  0  0  0  0  0  0  0
   -3.9553    0.1068    2.2657 H   0  0  0  0  0  0  0  0  0  0  0  0
   -4.9307    0.8872    0.9254 H   0  0  0  0  0  0  0  0  0  0  0  0
   -5.1910    1.2959    2.6026 H   0  0  0  0  0  0  0  0  0  0  0  0
  1  2  1  0  0  0  0
  1  3  1  0  0  0  0
  1  4  2  0  0  0  0
  1  8  1  0  0  0  0
  5 22  2  0  0  0  0
  6 16  1  0  0  0  0
  6 22  1  0  0  0  0
  6 24  1  0  0  0  0
  7 11  1  0  0  0  0
  7 25  1  1  0  0  0
  7 10  1  0  0  0  0
  7  2  1  0  0  0  0
  8  9  1  0  0  0  0
  8 26  1  0  0  0  0
  8 27  1  0  0  0  0
  9 12  2  0  0  0  0
  9 13  1  0  0  0  0
 10 14  2  0  0  0  0
 10 15  1  0  0  0  0
 11 28  1  0  0  0  0
 11 29  1  0  0  0  0
 11 30  1  0  0  0  0
 12 17  1  0  0  0  0
 12 31  1  0  0  0  0
 13 18  2  0  0  0  0
 13 32  1  0  0  0  0
 14 19  1  0  0  0  0
 14 33  1  0  0  0  0
 15 20  2  0  0  0  0
 15 34  1  0  0  0  0
 16 17  2  0  0  0  0
 16 18  1  0  0  0  0
 17 35  1  0  0  0  0
 18 36  1  0  0  0  0
 19 21  2  0  0  0  0
 19 37  1  0  0  0  0
 20 21  1  0  0  0  0
 20 38  1  0  0  0  0
 21 39  1  0  0  0  0
 22 23  1  0  0  0  0
 23 40  1  0  0  0  0
 23 41  1  0  0  0  0
 23 42  1  0  0  0  0
M  CHG  1   3  -1
M  END
>  <DRUGBANK_ID>
DB08545

>  <COMMON_NAME>
(1S)-1-Phenylethyl (4-acetamidobenzyl)phosphonate

$$$$
