
 OpenBabel10282417173D

 21 21  0  0  0  0  0  0  0  0999 V2000
    1.0919   -0.1192   -0.3363 C   0  0  0  0  0  0  0  0  0  0  0  0
    3.0183    2.3013    1.2153 C   0  0  0  0  0  0  0  0  0  0  0  0
    0.4575    0.9829    2.5365 C   0  0  0  0  0  0  0  0  0  0  0  0
    0.5028    1.2717   -0.5572 C   0  0  3  0  0  0  0  0  0  0  0  0
    1.7929    2.9398    0.5712 C   0  0  3  0  0  0  0  0  0  0  0  0
   -0.1314    2.0224    1.5877 C   0  0  3  0  0  0  0  0  0  0  0  0
    1.4460    2.3254   -0.6541 O   0  0  0  0  0  0  0  0  0  0  0  0
   -0.5666    1.5348    0.3399 O   0  0  0  0  0  0  0  0  0  0  0  0
    0.7062    3.1509    1.4555 O   0  0  0  0  0  0  0  0  0  0  0  0
    0.8250   -0.7731   -1.1739 H   0  0  0  0  0  0  0  0  0  0  0  0
    0.6606   -0.6203    0.5336 H   0  0  0  0  0  0  0  0  0  0  0  0
    2.1817   -0.1167   -0.2661 H   0  0  0  0  0  0  0  0  0  0  0  0
    3.9038    2.5011    0.6035 H   0  0  0  0  0  0  0  0  0  0  0  0
    3.1824    2.6730    2.2302 H   0  0  0  0  0  0  0  0  0  0  0  0
    2.9612    1.2143    1.2604 H   0  0  0  0  0  0  0  0  0  0  0  0
    0.7659    1.4470    3.4750 H   0  0  0  0  0  0  0  0  0  0  0  0
   -0.2483    0.1701    2.7247 H   0  0  0  0  0  0  0  0  0  0  0  0
    1.3526    0.5082    2.1402 H   0  0  0  0  0  0  0  0  0  0  0  0
    0.0470    1.2357   -1.5509 H   0  0  0  0  0  0  0  0  0  0  0  0
    2.1152    3.9552    0.3099 H   0  0  0  0  0  0  0  0  0  0  0  0
   -1.0444    2.3844    2.0830 H   0  0  0  0  0  0  0  0  0  0  0  0
  1 10  1  0  0  0  0
  1 11  1  0  0  0  0
  1 12  1  0  0  0  0
  2 13  1  0  0  0  0
  2 14  1  0  0  0  0
  2 15  1  0  0  0  0
  3 16  1  0  0  0  0
  3 17  1  0  0  0  0
  3 18  1  0  0  0  0
  4  1  1  0  0  0  0
  4 19  1  0  0  0  0
  5  2  1  0  0  0  0
  5 20  1  0  0  0  0
  6  3  1  0  0  0  0
  6 21  1  0  0  0  0
  7  4  1  0  0  0  0
  7  5  1  0  0  0  0
  8  4  1  0  0  0  0
  8  6  1  0  0  0  0
  9  5  1  0  0  0  0
  9  6  1  0  0  0  0
M  END
>  <DRUGBANK_ID>
DB09117

>  <COMMON_NAME>
Paraldehyde

>  <CAS_NUMBER>
123-63-7

>  <UNII>
S6M3YBG8QA

>  <SYNONYMS>
Paraldehyde

$$$$
