
 OpenBabel10282417133D

 66 68  0  0  0  0  0  0  0  0999 V2000
    1.3296    3.7119    1.0176 C   0  0  0  0  0  0  0  0  0  0  0  0
   -1.5783    2.3514    1.1816 C   0  0  0  0  0  0  0  0  0  0  0  0
    3.2682    1.5504    1.5070 C   0  0  0  0  0  0  0  0  0  0  0  0
    0.7892    2.3167    0.6775 C   0  0  2  0  0  0  0  0  0  0  0  0
   -1.5463    0.8856   -0.0380 C   0  0  2  0  0  0  0  0  0  0  0  0
    3.3052    1.5608   -0.2921 C   0  0  2  0  0  0  0  0  0  0  0  0
    0.2378    2.5463   -0.7074 C   0  0  2  0  0  0  0  0  0  0  0  0
    0.5813    0.9397   -1.6813 C   0  0  1  0  0  0  0  0  0  0  0  0
   -0.9951   -0.6430   -2.7829 C   0  0  2  0  0  0  0  0  0  0  0  0
    3.0746   -0.0865   -2.2605 C   0  0  2  0  0  0  0  0  0  0  0  0
   -1.1250   -2.1217   -1.9153 C   0  0  2  0  0  0  0  0  0  0  0  0
    0.6007   -0.3628   -0.8678 C   0  0  2  0  0  0  0  0  0  0  0  0
    2.8215    1.2010   -3.3178 C   0  0  2  0  0  0  0  0  0  0  0  0
   -1.2716    1.1812   -1.9897 C   0  0  2  0  0  0  0  0  0  0  0  0
    3.2996    0.0891   -0.6569 C   0  0  2  0  0  0  0  0  0  0  0  0
   -0.7664   -2.1620   -0.1754 C   0  0  1  0  0  0  0  0  0  0  0  0
    1.0745   -0.2715    0.7229 C   0  0  2  0  0  0  0  0  0  0  0  0
    1.9853    2.5038   -2.6756 C   0  0  2  0  0  0  0  0  0  0  0  0
    2.7070    4.0051    0.6995 O   0  0  0  0  0  0  0  0  0  0  0  0
   -1.0438    2.3351    2.5446 O   0  0  0  0  0  0  0  0  0  0  0  0
    2.9015    2.5302    2.4716 O   0  0  0  0  0  0  0  0  0  0  0  0
    0.7520    3.8220   -1.2489 O   0  0  0  0  0  0  0  0  0  0  0  0
    0.1895    0.9117   -3.4874 O   0  0  0  0  0  0  0  0  0  0  0  0
   -1.2757   -0.8832   -4.1848 O   0  0  0  0  0  0  0  0  0  0  0  0
    3.1049   -1.3943   -2.8211 O   0  0  0  0  0  0  0  0  0  0  0  0
   -0.4123   -3.1668   -2.6789 O   0  0  0  0  0  0  0  0  0  0  0  0
    1.0984   -1.6153   -1.4898 O   0  0  0  0  0  0  0  0  0  0  0  0
    2.1599    0.9396   -4.5434 O   0  0  0  0  0  0  0  0  0  0  0  0
    0.7348   -2.6576    0.2873 O   0  0  0  0  0  0  0  0  0  0  0  0
   -1.5285   -0.7684    0.5634 O   0  0  0  0  0  0  0  0  0  0  0  0
    0.7534    1.0736    1.5240 O   0  0  0  0  0  0  0  0  0  0  0  0
    3.0881    2.6945   -1.3270 O   0  0  0  0  0  0  0  0  0  0  0  0
   -0.0252    2.4825   -2.6541 O   0  0  0  0  0  0  0  0  0  0  0  0
    2.4876   -0.6425    0.4216 O   0  0  0  0  0  0  0  0  0  0  0  0
    1.2159    1.5926    0.1576 H   0  0  0  0  0  0  0  0  0  0  0  0
   -0.5562    0.8449    0.2008 H   0  0  0  0  0  0  0  0  0  0  0  0
    2.3524    1.5810   -0.5730 H   0  0  0  0  0  0  0  0  0  0  0  0
   -0.8252    2.8241   -0.7948 H   0  0  0  0  0  0  0  0  0  0  0  0
    1.5283    1.0611   -1.9171 H   0  0  0  0  0  0  0  0  0  0  0  0
    0.1061   -0.7562   -3.0254 H   0  0  0  0  0  0  0  0  0  0  0  0
    2.0962   -0.2695   -2.1548 H   0  0  0  0  0  0  0  0  0  0  0  0
   -2.1870   -2.2610   -2.0189 H   0  0  0  0  0  0  0  0  0  0  0  0
   -0.4385   -0.4802   -0.9458 H   0  0  0  0  0  0  0  0  0  0  0  0
    3.8663    1.4345   -3.5080 H   0  0  0  0  0  0  0  0  0  0  0  0
   -2.2421    1.6477   -2.2335 H   0  0  0  0  0  0  0  0  0  0  0  0
    4.2666   -0.3197   -0.4731 H   0  0  0  0  0  0  0  0  0  0  0  0
   -1.1761   -3.0051    0.3692 H   0  0  0  0  0  0  0  0  0  0  0  0
    0.6268   -1.0320    1.4559 H   0  0  0  0  0  0  0  0  0  0  0  0
    2.2392    3.4241   -3.2096 H   0  0  0  0  0  0  0  0  0  0  0  0
    1.0881    3.9252    2.0414 H   0  0  0  0  0  0  0  0  0  0  0  0
    0.8010    4.5279    0.5247 H   0  0  0  0  0  0  0  0  0  0  0  0
   -1.1117    3.3339    0.8549 H   0  0  0  0  0  0  0  0  0  0  0  0
   -2.5749    2.7250    1.1868 H   0  0  0  0  0  0  0  0  0  0  0  0
    2.7124    0.7098    1.9580 H   0  0  0  0  0  0  0  0  0  0  0  0
    4.2654    1.2653    1.7491 H   0  0  0  0  0  0  0  0  0  0  0  0
    2.8870    3.7294   -0.2322 H   0  0  0  0  0  0  0  0  0  0  0  0
   -0.2367    1.7741    2.6660 H   0  0  0  0  0  0  0  0  0  0  0  0
    3.0249    3.4125    2.0774 H   0  0  0  0  0  0  0  0  0  0  0  0
    0.5382    3.7678   -2.2025 H   0  0  0  0  0  0  0  0  0  0  0  0
   -0.7125    1.3396   -3.7267 H   0  0  0  0  0  0  0  0  0  0  0  0
   -1.8345   -0.1933   -4.5249 H   0  0  0  0  0  0  0  0  0  0  0  0
    3.9650   -1.4997   -3.2193 H   0  0  0  0  0  0  0  0  0  0  0  0
    0.5530   -3.1069   -2.4994 H   0  0  0  0  0  0  0  0  0  0  0  0
    1.5392   -1.6735   -2.3720 H   0  0  0  0  0  0  0  0  0  0  0  0
    1.2060    1.1857   -4.3725 H   0  0  0  0  0  0  0  0  0  0  0  0
    1.4978   -2.1914   -0.1923 H   0  0  0  0  0  0  0  0  0  0  0  0
  1 50  1  0  0  0  0
  1 51  1  0  0  0  0
  2 52  1  0  0  0  0
  2 53  1  0  0  0  0
  3 54  1  0  0  0  0
  3 55  1  0  0  0  0
  4 35  1  6  0  0  0
  4  1  1  0  0  0  0
  5  2  1  0  0  0  0
  5 36  1  1  0  0  0
  6  3  1  0  0  0  0
  6 37  1  1  0  0  0
  7  4  1  0  0  0  0
  7 22  1  0  0  0  0
  7 38  1  1  0  0  0
  8  7  1  0  0  0  0
  8 23  1  0  0  0  0
  8 39  1  6  0  0  0
  9 24  1  0  0  0  0
  9 40  1  6  0  0  0
 10 25  1  0  0  0  0
 10 41  1  1  0  0  0
 11  9  1  0  0  0  0
 11 26  1  0  0  0  0
 11 42  1  6  0  0  0
 12  8  1  0  0  0  0
 12 27  1  0  0  0  0
 12 43  1  1  0  0  0
 13 10  1  0  0  0  0
 13 28  1  0  0  0  0
 13 44  1  6  0  0  0
 14  5  1  0  0  0  0
 14  9  1  0  0  0  0
 14 33  1  0  0  0  0
 14 45  1  6  0  0  0
 15  6  1  0  0  0  0
 15 10  1  0  0  0  0
 15 34  1  0  0  0  0
 15 46  1  1  0  0  0
 16 11  1  0  0  0  0
 16 47  1  1  0  0  0
 16 29  1  0  0  0  0
 17 12  1  0  0  0  0
 17 48  1  1  0  0  0
 17 34  1  0  0  0  0
 18 13  1  0  0  0  0
 18 49  1  6  0  0  0
 18 33  1  0  0  0  0
 19  1  1  0  0  0  0
 19 56  1  0  0  0  0
 20  2  1  0  0  0  0
 20 57  1  0  0  0  0
 21  3  1  0  0  0  0
 21 58  1  0  0  0  0
 22 59  1  0  0  0  0
 23 60  1  0  0  0  0
 24 61  1  0  0  0  0
 25 62  1  0  0  0  0
 26 63  1  0  0  0  0
 27 64  1  0  0  0  0
 28 65  1  0  0  0  0
 29 66  1  0  0  0  0
 30  5  1  0  0  0  0
 30 16  1  0  0  0  0
 31  4  1  0  0  0  0
 31 17  1  0  0  0  0
 32  6  1  0  0  0  0
 32 18  1  0  0  0  0
M  END
>  <DRUGBANK_ID>
DB03277

>  <SECONDARY_ACCESSION_NUMBERS>
EXPT02187

>  <COMMON_NAME>
alpha-maltotriose

>  <SYNONYMS>
Î±-maltotriose

$$$$
