
 OpenBabel10282417123D

 15 15  0  0  0  0  0  0  0  0999 V2000
    0.9372   -0.0226    0.0124 O   0  0  0  0  0  0  0  0  0  0  0  0
    0.3813   -1.0593    0.6624 C   0  0  0  0  0  0  0  0  0  0  0  0
    1.0496   -1.8927    1.2512 O   0  0  0  0  0  0  0  0  0  0  0  0
   -1.0984   -1.0158    0.6454 C   0  0  0  0  0  0  0  0  0  0  0  0
   -1.7439   -0.6901   -0.4788 C   0  0  0  0  0  0  0  0  0  0  0  0
   -3.2161   -0.6977   -0.4665 C   0  0  0  0  0  0  0  0  0  0  0  0
   -3.8534   -0.4077   -1.4718 O   0  0  0  0  0  0  0  0  0  0  0  0
   -3.8098   -1.0479    0.7119 N   0  0  0  0  0  0  0  0  0  0  0  0
   -3.1487   -1.3972    1.8546 C   0  0  0  0  0  0  0  0  0  0  0  0
   -3.7404   -1.7158    2.8796 O   0  0  0  0  0  0  0  0  0  0  0  0
   -1.7860   -1.3697    1.7788 N   0  0  0  0  0  0  0  0  0  0  0  0
    1.9051   -0.1251    0.1362 H   0  0  0  0  0  0  0  0  0  0  0  0
   -1.2521   -0.4411   -1.4096 H   0  0  0  0  0  0  0  0  0  0  0  0
   -4.8179   -1.0636    0.7392 H   0  0  0  0  0  0  0  0  0  0  0  0
   -1.2750   -1.6347    2.6152 H   0  0  0  0  0  0  0  0  0  0  0  0
  1  2  1  0  0  0  0
  1 12  1  0  0  0  0
  2  3  2  0  0  0  0
  2  4  1  0  0  0  0
  4  5  2  0  0  0  0
  4 11  1  0  0  0  0
  5  6  1  0  0  0  0
  5 13  1  0  0  0  0
  6  7  2  0  0  0  0
  6  8  1  0  0  0  0
  8  9  1  0  0  0  0
  8 14  1  0  0  0  0
  9 10  2  0  0  0  0
  9 11  1  0  0  0  0
 11 15  1  0  0  0  0
M  END
>  <DRUGBANK_ID>
DB02262

>  <SECONDARY_ACCESSION_NUMBERS>
EXPT02447

>  <COMMON_NAME>
Orotic acid

>  <CAS_NUMBER>
65-86-1

>  <UNII>
61H4T033E5

>  <SYNONYMS>
Acido orotico; Acidum oroticum; Orotic acid; Orots√§ure; Uracil-6-carboxylic acid; Vitamin B13

$$$$
