
 OpenBabel10282417203D

 46 49  0  0  1  0  0  0  0  0999 V2000
    0.9090    0.0191    0.0662 C   0  0  0  0  0  0  0  0  0  0  0  0
    0.3927    0.2971   -1.3179 C   0  0  0  0  0  0  0  0  0  0  0  0
   -0.0403   -0.7580   -2.1394 C   0  0  0  0  0  0  0  0  0  0  0  0
   -0.4824   -0.5342   -3.4391 C   0  0  0  0  0  0  0  0  0  0  0  0
   -0.4847    0.7599   -3.9378 C   0  0  0  0  0  0  0  0  0  0  0  0
   -0.0349    1.8315   -3.1472 C   0  0  0  0  0  0  0  0  0  0  0  0
    0.4092    1.6051   -1.8394 C   0  0  0  0  0  0  0  0  0  0  0  0
    0.8704    2.6068   -1.0211 O   0  0  0  0  0  0  0  0  0  0  0  0
    1.1414    3.8892   -1.6085 C   0  0  0  0  0  0  0  0  0  0  0  0
    0.1308    4.2989   -2.6847 C   0  0  2  0  0  0  0  0  0  0  0  0
    0.0771    3.1924   -3.7864 C   0  0  1  0  0  0  0  0  0  0  0  0
    1.2526    3.1889   -4.7722 C   0  0  0  0  0  0  0  0  0  0  0  0
    2.5642    2.8781   -4.3524 C   0  0  0  0  0  0  0  0  0  0  0  0
    3.6630    3.1999   -5.1444 C   0  0  0  0  0  0  0  0  0  0  0  0
    3.4503    3.8135   -6.3712 C   0  0  0  0  0  0  0  0  0  0  0  0
    2.1630    4.0665   -6.8338 C   0  0  0  0  0  0  0  0  0  0  0  0
    1.0593    3.6890   -6.0683 C   0  0  0  0  0  0  0  0  0  0  0  0
    4.5018    4.1905   -7.1506 O   0  0  0  0  0  0  0  0  0  0  0  0
    0.3663    5.7271   -3.1771 C   0  0  0  0  0  0  0  0  0  0  0  0
    1.4934    6.0577   -3.9474 C   0  0  0  0  0  0  0  0  0  0  0  0
    1.6902    7.3205   -4.4882 C   0  0  0  0  0  0  0  0  0  0  0  0
    0.8860    8.3451   -4.0601 C   0  0  0  0  0  0  0  0  0  0  0  0
   -0.1670    8.0948   -3.1817 C   0  0  0  0  0  0  0  0  0  0  0  0
   -0.4878    6.7741   -2.8303 C   0  0  0  0  0  0  0  0  0  0  0  0
    1.1124    9.6227   -4.4732 O   0  0  0  0  0  0  0  0  0  0  0  0
   -0.0166   -2.0365   -1.6526 O   0  0  0  0  0  0  0  0  0  0  0  0
    0.5601   -0.9466    0.4454 H   0  0  0  0  0  0  0  0  0  0  0  0
    0.5546    0.7761    0.7721 H   0  0  0  0  0  0  0  0  0  0  0  0
    2.0035    0.0105    0.0600 H   0  0  0  0  0  0  0  0  0  0  0  0
   -0.8052   -1.3467   -4.0820 H   0  0  0  0  0  0  0  0  0  0  0  0
   -0.7967    0.9363   -4.9656 H   0  0  0  0  0  0  0  0  0  0  0  0
    2.1734    3.9018   -1.9706 H   0  0  0  0  0  0  0  0  0  0  0  0
    1.1396    4.6228   -0.7926 H   0  0  0  0  0  0  0  0  0  0  0  0
   -0.8534    4.2822   -2.1870 H   0  0  0  0  0  0  0  0  0  0  0  0
   -0.8518    3.3677   -4.3509 H   0  0  0  0  0  0  0  0  0  0  0  0
    2.7573    2.4742   -3.3615 H   0  0  0  0  0  0  0  0  0  0  0  0
    4.6613    3.0324   -4.7531 H   0  0  0  0  0  0  0  0  0  0  0  0
    2.0151    4.6032   -7.7661 H   0  0  0  0  0  0  0  0  0  0  0  0
    0.0572    3.8743   -6.4472 H   0  0  0  0  0  0  0  0  0  0  0  0
    5.2992    3.7604   -6.7986 H   0  0  0  0  0  0  0  0  0  0  0  0
    2.2606    5.3368   -4.1600 H   0  0  0  0  0  0  0  0  0  0  0  0
    2.5058    7.4611   -5.1944 H   0  0  0  0  0  0  0  0  0  0  0  0
   -0.7330    8.9233   -2.7756 H   0  0  0  0  0  0  0  0  0  0  0  0
   -1.3960    6.5928   -2.2570 H   0  0  0  0  0  0  0  0  0  0  0  0
    1.7785    9.5868   -5.1821 H   0  0  0  0  0  0  0  0  0  0  0  0
   -0.3600   -2.6385   -2.3326 H   0  0  0  0  0  0  0  0  0  0  0  0
  1  2  1  0  0  0  0
  1 27  1  0  0  0  0
  1 28  1  0  0  0  0
  1 29  1  0  0  0  0
  2  3  2  0  0  0  0
  2  7  1  0  0  0  0
  3  4  1  0  0  0  0
  3 26  1  0  0  0  0
  4  5  2  0  0  0  0
  4 30  1  0  0  0  0
  5  6  1  0  0  0  0
  5 31  1  0  0  0  0
  6  7  2  0  0  0  0
  6 11  1  0  0  0  0
  7  8  1  0  0  0  0
  8  9  1  0  0  0  0
  9 10  1  0  0  0  0
  9 32  1  0  0  0  0
  9 33  1  0  0  0  0
 10 11  1  0  0  0  0
 10 34  1  1  0  0  0
 10 19  1  0  0  0  0
 11 35  1  6  0  0  0
 11 12  1  0  0  0  0
 12 13  2  0  0  0  0
 12 17  1  0  0  0  0
 13 14  1  0  0  0  0
 13 36  1  0  0  0  0
 14 15  2  0  0  0  0
 14 37  1  0  0  0  0
 15 16  1  0  0  0  0
 15 18  1  0  0  0  0
 16 17  2  0  0  0  0
 16 38  1  0  0  0  0
 17 39  1  0  0  0  0
 18 40  1  0  0  0  0
 19 20  2  0  0  0  0
 19 24  1  0  0  0  0
 20 21  1  0  0  0  0
 20 41  1  0  0  0  0
 21 22  2  0  0  0  0
 21 42  1  0  0  0  0
 22 23  1  0  0  0  0
 22 25  1  0  0  0  0
 23 24  2  0  0  0  0
 23 43  1  0  0  0  0
 24 44  1  0  0  0  0
 25 45  1  0  0  0  0
 26 46  1  0  0  0  0
M  END
>  <DRUGBANK_ID>
DB13062

>  <COMMON_NAME>
ME-344

>  <CAS_NUMBER>
1374524-68-1

>  <UNII>
843G0TDV51

$$$$
