
 OpenBabel10282417213D

 11 10  0  0  0  0  0  0  0  0999 V2000
    1.0552   -0.0194   -0.0909 C   0  0  0  0  0  0  0  0  0  0  0  0
    0.4273    1.4350   -0.9001 S   0  0  0  0  0  0  0  0  0  0  0  0
    1.0552    1.3281   -2.5610 C   0  0  0  0  0  0  0  0  0  0  0  0
   -1.0165    1.3081   -0.9694 O   0  0  0  0  0  0  0  0  0  0  0  0
    1.0435    2.5865   -0.2720 O   0  0  0  0  0  0  0  0  0  0  0  0
    0.6773   -0.9078   -0.5993 H   0  0  0  0  0  0  0  0  0  0  0  0
    0.6973   -0.0062    0.9421 H   0  0  0  0  0  0  0  0  0  0  0  0
    2.1462    0.0040   -0.1019 H   0  0  0  0  0  0  0  0  0  0  0  0
    0.6772    0.4198   -3.0329 H   0  0  0  0  0  0  0  0  0  0  0  0
    0.6973    2.2038   -3.1091 H   0  0  0  0  0  0  0  0  0  0  0  0
    2.1462    1.3316   -2.5355 H   0  0  0  0  0  0  0  0  0  0  0  0
  1  2  1  0  0  0  0
  1  6  1  0  0  0  0
  1  7  1  0  0  0  0
  1  8  1  0  0  0  0
  2  3  1  0  0  0  0
  2  4  2  0  0  0  0
  2  5  2  0  0  0  0
  3  9  1  0  0  0  0
  3 10  1  0  0  0  0
  3 11  1  0  0  0  0
M  END
>  <DRUGBANK_ID>
DB14090

>  <COMMON_NAME>
Dimethyl sulfone

>  <CAS_NUMBER>
67-71-0

>  <UNII>
9H4PO4Z4FT

>  <SYNONYMS>
Dimethyl sulphone; Methyl sulfone; Methylsulfonyl methane; Methylsulfonylmethane; MSM; Sulfonylbismethane

$$$$
