SB1
 OpenBabel10282417173D

 70 71  0  0  0  0  0  0  0  0999 V2000
   -1.2161    2.1126    1.9335 N   0  0  0  0  0  0  0  0  0  0  0  0
   -2.7730    2.6711    3.3755 C   0  0  0  0  0  0  0  0  0  0  0  0
   -2.8968    3.9057    3.9221 O   0  0  0  0  0  0  0  0  0  0  0  0
   -4.0462    2.7465    5.1768 C   0  0  0  0  0  0  0  0  0  0  0  0
   -4.3459    1.9042    6.3442 O   0  0  0  0  0  0  0  0  0  0  0  0
   -5.7938    2.4883    6.4025 C   0  0  0  0  0  0  0  0  0  0  0  0
   -7.0879    1.4765    5.9284 C   0  0  0  0  0  0  0  0  0  0  0  0
   -6.6770    0.1156    5.7010 O   0  0  0  0  0  0  0  0  0  0  0  0
   -5.5336   -0.1541    5.0394 C   0  0  0  0  0  0  0  0  0  0  0  0
   -5.1045   -1.2889    4.9067 O   0  0  0  0  0  0  0  0  0  0  0  0
   -4.7244    0.9284    4.4778 C   0  0  0  0  0  0  0  0  0  0  0  0
   -3.0455    0.9245    5.4224 C   0  0  0  0  0  0  0  0  0  0  0  0
   -2.4222   -0.2946    5.1455 C   0  0  0  0  0  0  0  0  0  0  0  0
   -2.3566   -0.3362    3.7258 C   0  0  0  0  0  0  0  0  0  0  0  0
   -1.3701    0.6505    3.4982 C   0  0  0  0  0  0  0  0  0  0  0  0
   -0.0983    1.1058    4.0963 C   0  0  0  0  0  0  0  0  0  0  0  0
    0.6747   -0.0892    3.8822 C   0  0  0  0  0  0  0  0  0  0  0  0
    0.9528   -0.0959    2.5117 C   0  0  0  0  0  0  0  0  0  0  0  0
    1.8286    1.4930    2.0840 C   0  0  0  0  0  0  0  0  0  0  0  0
    3.1578    1.3106    2.5510 C   0  0  0  0  0  0  0  0  0  0  0  0
    3.7015    0.0389    2.0135 C   0  0  0  0  0  0  0  0  0  0  0  0
    3.4648    0.1453    0.5933 O   0  0  0  0  0  0  0  0  0  0  0  0
    2.1246    0.5583   -0.1659 C   0  0  0  0  0  0  0  0  0  0  0  0
    2.4377    0.2007   -1.3205 O   0  0  0  0  0  0  0  0  0  0  0  0
    0.3020    1.1277    0.7362 C   0  0  2  0  0  0  0  0  0  0  0  0
    0.3470   -0.7553   -0.0690 C   0  0  0  0  0  0  0  0  0  0  0  0
   -0.9668   -1.1908    0.2648 C   0  0  0  0  0  0  0  0  0  0  0  0
   -1.6314    0.0932   -0.2061 C   0  0  0  0  0  0  0  0  0  0  0  0
   -1.7199    1.6370    0.5657 C   0  0  0  0  0  0  0  0  0  0  0  0
   -6.7214    3.6318    7.1259 C   0  0  0  0  0  0  0  0  0  0  0  0
   -5.9800    1.5199    8.1110 C   0  0  0  0  0  0  0  0  0  0  0  0
    1.2510    0.2375    0.9545 H   0  0  0  0  0  0  0  0  0  0  0  0
   -7.4198    1.9497    5.0276 H   0  0  0  0  0  0  0  0  0  0  0  0
   -8.0650    1.3836    6.5372 H   0  0  0  0  0  0  0  0  0  0  0  0
   -5.4504    1.8246    4.5189 H   0  0  0  0  0  0  0  0  0  0  0  0
   -4.5351    1.1313    3.4289 H   0  0  0  0  0  0  0  0  0  0  0  0
   -2.9673    0.9923    6.5693 H   0  0  0  0  0  0  0  0  0  0  0  0
   -2.4161    1.8692    5.3253 H   0  0  0  0  0  0  0  0  0  0  0  0
   -3.0608   -1.0423    5.4895 H   0  0  0  0  0  0  0  0  0  0  0  0
   -1.5014   -0.1609    5.6820 H   0  0  0  0  0  0  0  0  0  0  0  0
   -3.2501   -0.1100    3.0959 H   0  0  0  0  0  0  0  0  0  0  0  0
   -1.8251   -1.1474    3.3160 H   0  0  0  0  0  0  0  0  0  0  0  0
   -1.6927    1.5471    3.7423 H   0  0  0  0  0  0  0  0  0  0  0  0
   -1.6768    0.4815    2.5145 H   0  0  0  0  0  0  0  0  0  0  0  0
   -0.2728    1.2939    5.1323 H   0  0  0  0  0  0  0  0  0  0  0  0
    0.3280    2.0754    3.7398 H   0  0  0  0  0  0  0  0  0  0  0  0
    0.0935   -0.9905    3.9867 H   0  0  0  0  0  0  0  0  0  0  0  0
    1.6455   -0.0575    4.2618 H   0  0  0  0  0  0  0  0  0  0  0  0
   -0.0331   -0.1908    2.0512 H   0  0  0  0  0  0  0  0  0  0  0  0
    1.3753   -1.0444    2.1122 H   0  0  0  0  0  0  0  0  0  0  0  0
    1.1794    2.3560    2.1651 H   0  0  0  0  0  0  0  0  0  0  0  0
    2.0612    1.8437    1.0160 H   0  0  0  0  0  0  0  0  0  0  0  0
    2.9504    1.2865    3.5858 H   0  0  0  0  0  0  0  0  0  0  0  0
    3.6542    2.1788    2.1393 H   0  0  0  0  0  0  0  0  0  0  0  0
    3.2346   -0.9002    2.3010 H   0  0  0  0  0  0  0  0  0  0  0  0
    4.7342   -0.0245    2.4074 H   0  0  0  0  0  0  0  0  0  0  0  0
    0.6147   -0.9889   -1.1849 H   0  0  0  0  0  0  0  0  0  0  0  0
    1.0859   -1.7315    0.2553 H   0  0  0  0  0  0  0  0  0  0  0  0
   -1.2934   -2.1150   -0.2079 H   0  0  0  0  0  0  0  0  0  0  0  0
   -0.9388   -1.4257    1.3119 H   0  0  0  0  0  0  0  0  0  0  0  0
   -1.3800    0.0998   -1.2877 H   0  0  0  0  0  0  0  0  0  0  0  0
   -2.6228   -0.0787    0.0629 H   0  0  0  0  0  0  0  0  0  0  0  0
   -1.2362    0.9914    1.2354 H   0  0  0  0  0  0  0  0  0  0  0  0
   -1.3732    2.3556   -0.2121 H   0  0  0  0  0  0  0  0  0  0  0  0
   -7.7228    3.4018    7.6623 H   0  0  0  0  0  0  0  0  0  0  0  0
   -6.1642    4.1547    7.9021 H   0  0  0  0  0  0  0  0  0  0  0  0
   -7.0074    4.2220    6.2897 H   0  0  0  0  0  0  0  0  0  0  0  0
   -7.0361    1.4003    8.6247 H   0  0  0  0  0  0  0  0  0  0  0  0
   -5.6955    0.4511    8.0563 H   0  0  0  0  0  0  0  0  0  0  0  0
   -5.4134    1.9883    8.9281 H   0  0  0  0  0  0  0  0  0  0  0  0
  1  2  1  0  0  0  0
  1 25  1  0  0  0  0
  1 29  1  0  0  0  0
  2  3  2  0  0  0  0
  2  4  1  0  0  0  0
  4  5  2  0  0  0  0
  4  6  1  0  0  0  0
  6  7  1  0  0  0  0
  6 30  1  0  0  0  0
  6 31  1  0  0  0  0
  7  8  1  0  0  0  0
  7 33  1  0  0  0  0
  7 34  1  0  0  0  0
  8  9  1  0  0  0  0
  9 10  2  0  0  0  0
  9 11  1  0  0  0  0
 11 12  1  0  0  0  0
 11 35  1  0  0  0  0
 11 36  1  0  0  0  0
 12 13  1  0  0  0  0
 12 37  1  0  0  0  0
 12 38  1  0  0  0  0
 13 14  1  0  0  0  0
 13 39  1  0  0  0  0
 13 40  1  0  0  0  0
 14 15  1  0  0  0  0
 14 41  1  0  0  0  0
 14 42  1  0  0  0  0
 15 16  1  0  0  0  0
 15 43  1  0  0  0  0
 15 44  1  0  0  0  0
 16 17  1  0  0  0  0
 16 45  1  0  0  0  0
 16 46  1  0  0  0  0
 17 18  1  0  0  0  0
 17 47  1  0  0  0  0
 17 48  1  0  0  0  0
 18 19  1  0  0  0  0
 18 49  1  0  0  0  0
 18 50  1  0  0  0  0
 19 20  1  0  0  0  0
 19 51  1  0  0  0  0
 19 52  1  0  0  0  0
 20 21  1  0  0  0  0
 20 53  1  0  0  0  0
 20 54  1  0  0  0  0
 21 22  1  0  0  0  0
 21 55  1  0  0  0  0
 21 56  1  0  0  0  0
 22 23  1  0  0  0  0
 23 24  2  0  0  0  0
 23 25  1  0  0  0  0
 25 26  1  0  0  0  0
 25 32  1  1  0  0  0
 26 27  1  0  0  0  0
 26 57  1  0  0  0  0
 26 58  1  0  0  0  0
 27 28  1  0  0  0  0
 27 59  1  0  0  0  0
 27 60  1  0  0  0  0
 28 29  1  0  0  0  0
 28 61  1  0  0  0  0
 28 62  1  0  0  0  0
 29 63  1  0  0  0  0
 29 64  1  0  0  0  0
 30 65  1  0  0  0  0
 30 66  1  0  0  0  0
 30 67  1  0  0  0  0
 31 68  1  0  0  0  0
 31 69  1  0  0  0  0
 31 70  1  0  0  0  0
M  END
>  <DRUGBANK_ID>
DB08520

>  <COMMON_NAME>
(21S)-1AZA-4,4-DIMETHYL-6,19-DIOXA-2,3,7,20-TETRAOXOBICYCLO[19.4.0] PENTACOSANE

$$$$
