382
 OpenBabel10282417143D

 55 59  0  0  0  0  0  0  0  0999 V2000
   -0.7624    1.2910    0.1503 C   0  0  0  0  0  0  0  0  0  0  0  0
    0.6495    1.2308   -0.4186 C   0  0  0  0  0  0  0  0  0  0  0  0
    1.3346    0.0434    0.0445 N   0  0  0  0  0  0  0  0  0  0  0  0
    0.6600   -1.2176   -0.2739 C   0  0  2  0  0  0  0  0  0  0  0  0
   -0.8091   -1.2079    0.1817 C   0  0  0  0  0  0  0  0  0  0  0  0
   -1.5488    0.0505   -0.2496 C   0  0  0  0  0  0  0  0  0  0  0  0
    1.4008   -2.4229    0.3510 C   0  0  0  0  0  0  0  0  0  0  0  0
    0.8325   -3.5707   -0.1242 F   0  0  0  0  0  0  0  0  0  0  0  0
    2.6851   -2.4349   -0.1243 F   0  0  0  0  0  0  0  0  0  0  0  0
    1.4279   -2.4667    1.9036 C   0  0  0  0  0  0  0  0  0  0  0  0
    2.1732   -1.3677    2.5541 N   0  0  0  0  0  0  0  0  0  0  0  0
    1.4266   -0.3772    3.2162 C   0  0  0  0  0  0  0  0  0  0  0  0
    1.6605    1.0077    3.0122 C   0  0  0  0  0  0  0  0  0  0  0  0
    0.9856    1.9459    3.7812 C   0  0  0  0  0  0  0  0  0  0  0  0
    0.1241    1.6267    4.8011 C   0  0  0  0  0  0  0  0  0  0  0  0
   -0.0735    0.2579    4.9243 C   0  0  0  0  0  0  0  0  0  0  0  0
    0.5070   -0.7146    4.1616 N   0  0  0  0  0  0  0  0  0  0  0  0
    2.4748    1.6571    2.1282 N   0  0  0  0  0  0  0  0  0  0  0  0
    2.2264    2.9419    2.3285 C   0  0  0  0  0  0  0  0  0  0  0  0
    1.3423    3.1961    3.3410 O   0  0  0  0  0  0  0  0  0  0  0  0
    2.8301    4.0820    1.5775 C   0  0  0  0  0  0  0  0  0  0  0  0
    4.3445    3.9857    1.6151 C   0  0  0  0  0  0  0  0  0  0  0  0
    4.9501    2.8139    1.1087 C   0  0  0  0  0  0  0  0  0  0  0  0
    6.3009    2.5513    1.3116 C   0  0  0  0  0  0  0  0  0  0  0  0
    7.1116    3.5298    1.8693 C   0  0  0  0  0  0  0  0  0  0  0  0
    6.5736    4.7730    2.2053 C   0  0  0  0  0  0  0  0  0  0  0  0
    5.1850    4.9757    2.1403 C   0  0  0  0  0  0  0  0  0  0  0  0
    4.6718    6.1886    2.6325 N   0  0  0  0  0  0  0  0  0  0  0  0
    3.6923    6.2579    3.5628 N   0  0  0  0  0  0  0  0  0  0  0  0
    3.5811    7.5746    3.7444 C   0  0  0  0  0  0  0  0  0  0  0  0
    4.3778    8.3456    2.9472 N   0  0  0  0  0  0  0  0  0  0  0  0
    5.0503    7.4516    2.2655 C   0  0  0  0  0  0  0  0  0  0  0  0
    0.6859   -1.3332   -1.3663 H   0  0  0  0  0  0  0  0  0  0  0  0
   -1.2671    2.1915   -0.2111 H   0  0  0  0  0  0  0  0  0  0  0  0
   -0.7322    1.3643    1.2456 H   0  0  0  0  0  0  0  0  0  0  0  0
    0.6403    1.2557   -1.5112 H   0  0  0  0  0  0  0  0  0  0  0  0
    1.2013    2.1145   -0.0923 H   0  0  0  0  0  0  0  0  0  0  0  0
    2.3180    0.0333   -0.2233 H   0  0  0  0  0  0  0  0  0  0  0  0
   -0.8768   -1.2649    1.2728 H   0  0  0  0  0  0  0  0  0  0  0  0
   -1.3234   -2.0930   -0.2113 H   0  0  0  0  0  0  0  0  0  0  0  0
   -2.5390    0.0690    0.2181 H   0  0  0  0  0  0  0  0  0  0  0  0
   -1.6935    0.0402   -1.3348 H   0  0  0  0  0  0  0  0  0  0  0  0
    0.4123   -2.5824    2.2956 H   0  0  0  0  0  0  0  0  0  0  0  0
    1.9427   -3.3955    2.1740 H   0  0  0  0  0  0  0  0  0  0  0  0
    2.8256   -0.9096    1.9180 H   0  0  0  0  0  0  0  0  0  0  0  0
   -0.3427    2.3653    5.4379 H   0  0  0  0  0  0  0  0  0  0  0  0
   -0.7315   -0.1244    5.7002 H   0  0  0  0  0  0  0  0  0  0  0  0
    2.5156    4.0455    0.5254 H   0  0  0  0  0  0  0  0  0  0  0  0
    2.4396    5.0337    1.9431 H   0  0  0  0  0  0  0  0  0  0  0  0
    4.3477    2.0510    0.6149 H   0  0  0  0  0  0  0  0  0  0  0  0
    6.7053    1.5757    1.0523 H   0  0  0  0  0  0  0  0  0  0  0  0
    8.1616    3.3174    2.0518 H   0  0  0  0  0  0  0  0  0  0  0  0
    7.2381    5.5372    2.6003 H   0  0  0  0  0  0  0  0  0  0  0  0
    2.8941    7.9891    4.4723 H   0  0  0  0  0  0  0  0  0  0  0  0
    5.7652    7.6353    1.4740 H   0  0  0  0  0  0  0  0  0  0  0  0
  1  2  1  0  0  0  0
  1  6  1  0  0  0  0
  1 34  1  0  0  0  0
  1 35  1  0  0  0  0
  2  3  1  0  0  0  0
  2 36  1  0  0  0  0
  2 37  1  0  0  0  0
  3  4  1  0  0  0  0
  3 38  1  0  0  0  0
  4  5  1  0  0  0  0
  4  7  1  0  0  0  0
  4 33  1  6  0  0  0
  5  6  1  0  0  0  0
  5 39  1  0  0  0  0
  5 40  1  0  0  0  0
  6 41  1  0  0  0  0
  6 42  1  0  0  0  0
  7  8  1  0  0  0  0
  7  9  1  0  0  0  0
  7 10  1  0  0  0  0
 10 11  1  0  0  0  0
 10 43  1  0  0  0  0
 10 44  1  0  0  0  0
 11 12  1  0  0  0  0
 11 45  1  0  0  0  0
 12 13  1  0  0  0  0
 12 17  2  0  0  0  0
 13 14  2  0  0  0  0
 13 18  1  0  0  0  0
 14 15  1  0  0  0  0
 14 20  1  0  0  0  0
 15 16  2  0  0  0  0
 15 46  1  0  0  0  0
 16 17  1  0  0  0  0
 16 47  1  0  0  0  0
 18 19  2  0  0  0  0
 19 20  1  0  0  0  0
 19 21  1  0  0  0  0
 21 22  1  0  0  0  0
 21 48  1  0  0  0  0
 21 49  1  0  0  0  0
 22 23  2  0  0  0  0
 22 27  1  0  0  0  0
 23 24  1  0  0  0  0
 23 50  1  0  0  0  0
 24 25  2  0  0  0  0
 24 51  1  0  0  0  0
 25 26  1  0  0  0  0
 25 52  1  0  0  0  0
 26 27  2  0  0  0  0
 26 53  1  0  0  0  0
 27 28  1  0  0  0  0
 28 29  1  0  0  0  0
 28 32  1  0  0  0  0
 29 30  2  0  0  0  0
 30 31  1  0  0  0  0
 30 54  1  0  0  0  0
 31 32  2  0  0  0  0
 32 55  1  0  0  0  0
M  END
>  <DRUGBANK_ID>
DB04591

>  <COMMON_NAME>
N-{2,2-DIFLUORO-2-[(2R)-PIPERIDIN-2-YL]ETHYL}-2-[2-(1H-1,2,4-TRIAZOL-1-YL)BENZYL][1,3]OXAZOLO[4,5-C]PYRIDIN-4-AMINE

$$$$
