1558
 OpenBabel10282417113D

 29 31  0  0  0  0  0  0  0  0999 V2000
    1.1166   -0.0789   -0.0360 Br  0  0  0  0  0  0  0  0  0  0  0  0
    9.2735    0.5062   -0.5990 O   0  0  0  0  0  0  0  0  0  0  0  0
    7.2015   -0.1310   -0.0046 N   0  0  0  0  0  0  0  0  0  0  0  0
    6.8115    2.8689   -0.3910 N   0  0  0  0  0  0  0  0  0  0  0  0
    4.8777    2.9460    2.4611 N   0  0  0  0  0  0  0  0  0  0  0  0
    5.0893    1.1604    0.0910 C   0  0  0  0  0  0  0  0  0  0  0  0
    5.8030   -0.0443   -0.0010 C   0  0  0  0  0  0  0  0  0  0  0  0
    5.7541    2.4858    0.2488 C   0  0  0  0  0  0  0  0  0  0  0  0
    3.6851    1.1363    0.0829 C   0  0  0  0  0  0  0  0  0  0  0  0
    7.4629    1.9453   -1.3229 C   0  0  0  0  0  0  0  0  0  0  0  0
    5.1323    3.4414    1.2237 C   0  0  0  0  0  0  0  0  0  0  0  0
    5.1029   -1.2557   -0.0900 C   0  0  0  0  0  0  0  0  0  0  0  0
    8.0635    0.7592   -0.5854 C   0  0  0  0  0  0  0  0  0  0  0  0
    3.0056   -0.0724   -0.0268 C   0  0  0  0  0  0  0  0  0  0  0  0
    3.7069   -1.2687   -0.1244 C   0  0  0  0  0  0  0  0  0  0  0  0
    4.8305    4.7411    0.8368 C   0  0  0  0  0  0  0  0  0  0  0  0
    4.3427    5.6168    1.8047 C   0  0  0  0  0  0  0  0  0  0  0  0
    4.3699    3.8144    3.3642 C   0  0  0  0  0  0  0  0  0  0  0  0
    4.1261    5.1531    3.0984 C   0  0  0  0  0  0  0  0  0  0  0  0
    7.6477   -0.9888    0.2963 H   0  0  0  0  0  0  0  0  0  0  0  0
    3.1177    2.0591    0.1708 H   0  0  0  0  0  0  0  0  0  0  0  0
    6.7852    1.6017   -2.1140 H   0  0  0  0  0  0  0  0  0  0  0  0
    8.2825    2.4718   -1.8254 H   0  0  0  0  0  0  0  0  0  0  0  0
    5.6373   -2.1984   -0.1896 H   0  0  0  0  0  0  0  0  0  0  0  0
    3.1797   -2.2131   -0.2321 H   0  0  0  0  0  0  0  0  0  0  0  0
    4.9564    5.0598   -0.1916 H   0  0  0  0  0  0  0  0  0  0  0  0
    4.1317    6.6530    1.5539 H   0  0  0  0  0  0  0  0  0  0  0  0
    4.1447    3.3925    4.3401 H   0  0  0  0  0  0  0  0  0  0  0  0
    3.7591    5.8149    3.8763 H   0  0  0  0  0  0  0  0  0  0  0  0
  1 14  1  0  0  0  0
  2 13  2  0  0  0  0
  3  7  1  0  0  0  0
  3 13  1  0  0  0  0
  3 20  1  0  0  0  0
  4  8  2  0  0  0  0
  4 10  1  0  0  0  0
  5 11  1  0  0  0  0
  5 18  2  0  0  0  0
  6  7  2  0  0  0  0
  6  8  1  0  0  0  0
  6  9  1  0  0  0  0
  7 12  1  0  0  0  0
  8 11  1  0  0  0  0
  9 14  2  0  0  0  0
  9 21  1  0  0  0  0
 10 13  1  0  0  0  0
 10 22  1  0  0  0  0
 10 23  1  0  0  0  0
 11 16  2  0  0  0  0
 12 15  2  0  0  0  0
 12 24  1  0  0  0  0
 14 15  1  0  0  0  0
 15 25  1  0  0  0  0
 16 17  1  0  0  0  0
 16 26  1  0  0  0  0
 17 19  2  0  0  0  0
 17 27  1  0  0  0  0
 18 19  1  0  0  0  0
 18 28  1  0  0  0  0
 19 29  1  0  0  0  0
M  END
>  <DRUGBANK_ID>
DB01558

>  <COMMON_NAME>
Bromazepam

>  <CAS_NUMBER>
1812-30-2

>  <UNII>
X015L14V0O

>  <SYNONYMS>
Bromacepam; Bromazepam; Bromazepamum

$$$$
