
 OpenBabel10282417233D

 38 41  0  0  0  0  0  0  0  0999 V2000
    0.8181   -0.0611    0.0704 O   0  0  0  0  0  0  0  0  0  0  0  0
    0.2829    0.7502    1.0053 C   0  0  0  0  0  0  0  0  0  0  0  0
    0.9908    1.3595    1.7887 O   0  0  0  0  0  0  0  0  0  0  0  0
   -1.2103    0.7571    0.9808 C   0  0  0  0  0  0  0  0  0  0  0  0
   -1.7180    1.2159   -0.3527 C   0  0  0  0  0  0  0  0  0  0  0  0
   -1.5527    2.4644   -0.7055 N   0  0  0  0  0  0  0  0  0  0  0  0
   -1.9761    2.9201   -1.9696 N   0  0  0  0  0  0  0  0  0  0  0  0
   -1.7162    4.3501   -2.2663 C   0  0  0  0  0  0  0  0  0  0  0  0
   -0.7903    4.5157   -3.4487 C   0  0  0  0  0  0  0  0  0  0  0  0
    0.4221    5.0506   -3.5008 N   0  0  0  0  0  0  0  0  0  0  0  0
    0.9301    4.9167   -4.8030 C   0  0  0  0  0  0  0  0  0  0  0  0
    2.1602    5.3582   -5.3260 C   0  0  0  0  0  0  0  0  0  0  0  0
    2.4734    5.0567   -6.6770 C   0  0  0  0  0  0  0  0  0  0  0  0
    1.5995    4.3070   -7.4760 C   0  0  0  0  0  0  0  0  0  0  0  0
    0.3933    3.8723   -6.9791 C   0  0  0  0  0  0  0  0  0  0  0  0
    0.0841    4.2508   -5.6798 C   0  0  0  0  0  0  0  0  0  0  0  0
   -1.4209    4.0717   -4.9753 S   0  0  0  0  0  0  0  0  0  0  0  0
    3.7618    5.5285   -7.2844 C   0  0  0  0  0  0  0  0  0  0  0  0
    3.8755    6.8820   -7.2756 F   0  0  0  0  0  0  0  0  0  0  0  0
    4.8469    5.0390   -6.6309 F   0  0  0  0  0  0  0  0  0  0  0  0
    3.9038    5.1486   -8.5861 F   0  0  0  0  0  0  0  0  0  0  0  0
   -2.7287    2.1271   -2.8614 C   0  0  0  0  0  0  0  0  0  0  0  0
   -3.3438    2.5220   -3.8517 O   0  0  0  0  0  0  0  0  0  0  0  0
   -2.7689    0.7316   -2.5283 C   0  0  0  0  0  0  0  0  0  0  0  0
   -3.2598   -0.2743   -3.3303 C   0  0  0  0  0  0  0  0  0  0  0  0
   -3.1203   -1.7951   -2.5680 S   0  0  0  0  0  0  0  0  0  0  0  0
   -2.6015   -1.0617   -1.1039 C   0  0  0  0  0  0  0  0  0  0  0  0
   -2.3216    0.2765   -1.2736 C   0  0  0  0  0  0  0  0  0  0  0  0
    1.7898    0.0387    0.1678 H   0  0  0  0  0  0  0  0  0  0  0  0
   -1.5667   -0.2450    1.2334 H   0  0  0  0  0  0  0  0  0  0  0  0
   -1.5851    1.4351    1.7536 H   0  0  0  0  0  0  0  0  0  0  0  0
   -2.6763    4.8255   -2.5012 H   0  0  0  0  0  0  0  0  0  0  0  0
   -1.3008    4.8479   -1.3826 H   0  0  0  0  0  0  0  0  0  0  0  0
    2.8451    5.9344   -4.7074 H   0  0  0  0  0  0  0  0  0  0  0  0
    1.8336    4.0753   -8.5129 H   0  0  0  0  0  0  0  0  0  0  0  0
   -0.3181    3.3113   -7.5763 H   0  0  0  0  0  0  0  0  0  0  0  0
   -3.6769   -0.1726   -4.3249 H   0  0  0  0  0  0  0  0  0  0  0  0
   -2.4967   -1.6748   -0.2212 H   0  0  0  0  0  0  0  0  0  0  0  0
  1  2  1  0  0  0  0
  1 29  1  0  0  0  0
  2  3  2  0  0  0  0
  2  4  1  0  0  0  0
  4  5  1  0  0  0  0
  4 30  1  0  0  0  0
  4 31  1  0  0  0  0
  5  6  2  0  0  0  0
  5 28  1  0  0  0  0
  6  7  1  0  0  0  0
  7  8  1  0  0  0  0
  7 22  1  0  0  0  0
  8  9  1  0  0  0  0
  8 32  1  0  0  0  0
  8 33  1  0  0  0  0
  9 10  2  0  0  0  0
  9 17  1  0  0  0  0
 10 11  1  0  0  0  0
 11 12  2  0  0  0  0
 11 16  1  0  0  0  0
 12 13  1  0  0  0  0
 12 34  1  0  0  0  0
 13 14  2  0  0  0  0
 13 18  1  0  0  0  0
 14 15  1  0  0  0  0
 14 35  1  0  0  0  0
 15 16  2  0  0  0  0
 15 36  1  0  0  0  0
 16 17  1  0  0  0  0
 18 19  1  0  0  0  0
 18 20  1  0  0  0  0
 18 21  1  0  0  0  0
 22 23  2  0  0  0  0
 22 24  1  0  0  0  0
 24 25  2  0  0  0  0
 24 28  1  0  0  0  0
 25 26  1  0  0  0  0
 25 37  1  0  0  0  0
 26 27  1  0  0  0  0
 27 28  2  0  0  0  0
 27 38  1  0  0  0  0
M  END
>  <DRUGBANK_ID>
DB16707

>  <COMMON_NAME>
Gavorestat

>  <CAS_NUMBER>
2170729-29-8

>  <UNII>
6JLQ8K35KK

>  <SYNONYMS>
2-(4-Oxo-3-((5-(Trifluoromethyl)Benzo[D]Thiazol-2-Yl)Methyl)-3,4-Dihydrothieno[3,4-D]Pyridazin-1-Yl)Acetic Acid; AT-007; AT007; Gavorestat

$$$$
