460
 OpenBabel10282417143D

 37 40  0  0  0  0  0  0  0  0999 V2000
    2.4515   -0.0962   -0.0050 C   0  0  0  0  0  0  0  0  0  0  0  0
    0.9675   -0.0556    0.0319 C   0  0  0  0  0  0  0  0  0  0  0  0
    0.2652   -1.2639    0.0328 C   0  0  0  0  0  0  0  0  0  0  0  0
   -1.0321   -1.1010   -0.0318 C   0  0  0  0  0  0  0  0  0  0  0  0
   -1.2393    0.3567   -0.3216 C   0  0  0  0  0  0  0  0  0  0  0  0
   -0.9739    1.7569    0.1738 C   0  0  0  0  0  0  0  0  0  0  0  0
    0.3352    1.3742    0.0923 N   0  0  0  0  0  0  0  0  0  0  0  0
   -1.9791    3.4455    0.1215 C   0  0  0  0  0  0  0  0  0  0  0  0
   -2.6095    5.1516    0.6814 N   0  0  0  0  0  0  0  0  0  0  0  0
   -3.4004    4.4603    1.3742 N   0  0  0  0  0  0  0  0  0  0  0  0
   -3.7983    3.9291    0.0977 C   0  0  0  0  0  0  0  0  0  0  0  0
   -3.1111    2.6885    0.0804 C   0  0  0  0  0  0  0  0  0  0  0  0
   -3.9401    1.4690    0.0694 C   0  0  0  0  0  0  0  0  0  0  0  0
   -3.9077    0.0922    0.4016 C   0  0  0  0  0  0  0  0  0  0  0  0
   -5.1079   -0.7282   -0.0052 C   0  0  0  0  0  0  0  0  0  0  0  0
   -6.7354    0.1436   -0.0533 C   0  0  0  0  0  0  0  0  0  0  0  0
   -8.3171    1.4260    0.0160 N   0  0  0  0  0  0  0  0  0  0  0  0
   -9.2766    2.1604    0.0665 C   0  0  0  0  0  0  0  0  0  0  0  0
   -7.9525    2.1851    0.0655 C   0  0  0  0  0  0  0  0  0  0  0  0
   -6.9652    0.6445    0.0360 C   0  0  0  0  0  0  0  0  0  0  0  0
   -5.7958    0.8249   -0.0663 C   0  0  0  0  0  0  0  0  0  0  0  0
   -5.1366    1.9129   -0.0263 N   0  0  0  0  0  0  0  0  0  0  0  0
    2.8135    0.4073   -0.8967 H   0  0  0  0  0  0  0  0  0  0  0  0
    2.8246    0.4062    0.8805 H   0  0  0  0  0  0  0  0  0  0  0  0
    2.7983   -1.1280   -0.0090 H   0  0  0  0  0  0  0  0  0  0  0  0
    0.7026   -2.2322    0.0407 H   0  0  0  0  0  0  0  0  0  0  0  0
   -1.7498   -1.9824   -0.0367 H   0  0  0  0  0  0  0  0  0  0  0  0
   -2.1642    0.4648   -0.6052 H   0  0  0  0  0  0  0  0  0  0  0  0
   -3.4566    6.2743    0.4753 H   0  0  0  0  0  0  0  0  0  0  0  0
   -3.6519    4.1848    2.2904 H   0  0  0  0  0  0  0  0  0  0  0  0
   -3.4376    4.5449   -0.8944 H   0  0  0  0  0  0  0  0  0  0  0  0
   -4.8229    3.9435    0.0400 H   0  0  0  0  0  0  0  0  0  0  0  0
   -2.9932   -0.3678    0.5463 H   0  0  0  0  0  0  0  0  0  0  0  0
   -4.1307   -1.7438   -0.0802 H   0  0  0  0  0  0  0  0  0  0  0  0
  -10.0560    1.3995    0.0596 H   0  0  0  0  0  0  0  0  0  0  0  0
   -7.2253    3.0296    0.0653 H   0  0  0  0  0  0  0  0  0  0  0  0
   -8.2288   -0.2670    0.0169 H   0  0  0  0  0  0  0  0  0  0  0  0
  1  2  1  0  0  0  0
  1 23  1  0  0  0  0
  1 24  1  0  0  0  0
  1 25  1  0  0  0  0
  2  3  2  0  0  0  0
  2  7  1  0  0  0  0
  3  4  1  0  0  0  0
  3 26  1  0  0  0  0
  4  5  2  0  0  0  0
  4 27  1  0  0  0  0
  5  6  1  0  0  0  0
  5 28  1  0  0  0  0
  6  7  2  0  0  0  0
  6  8  1  0  0  0  0
  8  9  1  0  0  0  0
  8 12  2  0  0  0  0
  9 10  1  0  0  0  0
  9 29  1  0  0  0  0
 10 11  1  0  0  0  0
 10 30  1  0  0  0  0
 11 12  1  0  0  0  0
 11 31  1  0  0  0  0
 11 32  1  0  0  0  0
 12 13  1  0  0  0  0
 13 14  2  0  0  0  0
 13 22  1  0  0  0  0
 14 15  1  0  0  0  0
 14 33  1  0  0  0  0
 15 16  2  0  0  0  0
 15 34  1  0  0  0  0
 16 17  1  0  0  0  0
 16 21  1  0  0  0  0
 17 18  2  0  0  0  0
 18 19  1  0  0  0  0
 18 35  1  0  0  0  0
 19 20  2  0  0  0  0
 19 36  1  0  0  0  0
 20 21  1  0  0  0  0
 20 37  1  0  0  0  0
 21 22  2  0  0  0  0
M  END
>  <DRUGBANK_ID>
DB04434

>  <SECONDARY_ACCESSION_NUMBERS>
EXPT00199

>  <COMMON_NAME>
Naphthyridine Inhibitor

$$$$
