
 OpenBabel10282417213D

 42 45  0  0  0  0  0  0  0  0999 V2000
    0.1270   -1.2319    0.0471 C   0  0  0  0  0  0  0  0  0  0  0  0
   -1.2648   -1.2209   -0.0015 C   0  0  0  0  0  0  0  0  0  0  0  0
   -1.9464   -0.0017   -0.0358 C   0  0  0  0  0  0  0  0  0  0  0  0
   -1.2379    1.2053   -0.0119 C   0  0  0  0  0  0  0  0  0  0  0  0
    0.1664    1.2139   -0.0077 C   0  0  0  0  0  0  0  0  0  0  0  0
    0.8240   -0.0247    0.0150 C   0  0  0  0  0  0  0  0  0  0  0  0
    0.9173    2.4734   -0.0338 C   0  0  0  0  0  0  0  0  0  0  0  0
    0.7970    3.4206    0.9822 C   0  0  0  0  0  0  0  0  0  0  0  0
    1.4568    4.6040    1.0225 N   0  0  0  0  0  0  0  0  0  0  0  0
    2.2930    4.8796   -0.0119 C   0  0  0  0  0  0  0  0  0  0  0  0
    2.4885    4.0011   -1.0727 C   0  0  0  0  0  0  0  0  0  0  0  0
    1.7991    2.7866   -1.0749 C   0  0  0  0  0  0  0  0  0  0  0  0
    2.1654   -0.0703    0.0087 F   0  0  0  0  0  0  0  0  0  0  0  0
   -1.9895   -2.4177   -0.0040 N   0  0  0  0  0  0  0  0  0  0  0  0
   -2.8942   -2.7964   -0.9696 C   0  0  0  0  0  0  0  0  0  0  0  0
   -1.8692   -3.4128    1.0067 C   0  0  0  0  0  0  0  0  0  0  0  0
   -3.4591   -3.9936   -0.6221 O   0  0  0  0  0  0  0  0  0  0  0  0
   -3.0569   -4.3124    0.7176 C   0  0  1  0  0  0  0  0  0  0  0  0
   -3.1517   -2.2180   -2.0154 O   0  0  0  0  0  0  0  0  0  0  0  0
   -2.7178   -5.7921    0.8358 C   0  0  0  0  0  0  0  0  0  0  0  0
    2.9932    6.1583    0.0149 C   0  0  0  0  0  0  0  0  0  0  0  0
    2.8911    7.0760   -1.0089 N   0  0  0  0  0  0  0  0  0  0  0  0
    3.8364    6.5620    0.9854 N   0  0  0  0  0  0  0  0  0  0  0  0
    3.6541    8.1087   -0.6753 N   0  0  0  0  0  0  0  0  0  0  0  0
    4.1859    7.7682    0.5084 N   0  0  0  0  0  0  0  0  0  0  0  0
    5.0646    8.6452    1.2339 C   0  0  0  0  0  0  0  0  0  0  0  0
   -2.3313   -6.1239    2.1640 O   0  0  0  0  0  0  0  0  0  0  0  0
    0.6908   -2.1582    0.0385 H   0  0  0  0  0  0  0  0  0  0  0  0
   -3.0346    0.0196   -0.0464 H   0  0  0  0  0  0  0  0  0  0  0  0
   -1.7966    2.1401   -0.0166 H   0  0  0  0  0  0  0  0  0  0  0  0
    0.1468    3.2419    1.8358 H   0  0  0  0  0  0  0  0  0  0  0  0
    3.1736    4.2435   -1.8792 H   0  0  0  0  0  0  0  0  0  0  0  0
    1.9549    2.0871   -1.8940 H   0  0  0  0  0  0  0  0  0  0  0  0
   -0.9074   -3.9269    0.9129 H   0  0  0  0  0  0  0  0  0  0  0  0
   -1.9450   -2.9654    2.0042 H   0  0  0  0  0  0  0  0  0  0  0  0
   -3.8898   -4.0714    1.3903 H   0  0  0  0  0  0  0  0  0  0  0  0
   -3.5923   -6.3980    0.5743 H   0  0  0  0  0  0  0  0  0  0  0  0
   -1.9217   -6.0795    0.1393 H   0  0  0  0  0  0  0  0  0  0  0  0
    4.5946    8.8861    2.1903 H   0  0  0  0  0  0  0  0  0  0  0  0
    6.0162    8.1324    1.3949 H   0  0  0  0  0  0  0  0  0  0  0  0
    5.2289    9.5601    0.6589 H   0  0  0  0  0  0  0  0  0  0  0  0
   -1.5039   -5.6621    2.3796 H   0  0  0  0  0  0  0  0  0  0  0  0
  1  2  2  0  0  0  0
  1  6  1  0  0  0  0
  1 28  1  0  0  0  0
  2  3  1  0  0  0  0
  2 14  1  0  0  0  0
  3  4  2  0  0  0  0
  3 29  1  0  0  0  0
  4  5  1  0  0  0  0
  4 30  1  0  0  0  0
  5  6  2  0  0  0  0
  5  7  1  0  0  0  0
  6 13  1  0  0  0  0
  7  8  2  0  0  0  0
  7 12  1  0  0  0  0
  8  9  1  0  0  0  0
  8 31  1  0  0  0  0
  9 10  2  0  0  0  0
 10 11  1  0  0  0  0
 10 21  1  0  0  0  0
 11 12  2  0  0  0  0
 11 32  1  0  0  0  0
 12 33  1  0  0  0  0
 15 14  1  0  0  0  0
 15 19  2  0  0  0  0
 16 14  1  0  0  0  0
 16 34  1  0  0  0  0
 16 35  1  0  0  0  0
 17 15  1  0  0  0  0
 18 16  1  0  0  0  0
 18 17  1  0  0  0  0
 18 20  1  0  0  0  0
 18 36  1  1  0  0  0
 20 27  1  0  0  0  0
 20 37  1  0  0  0  0
 20 38  1  0  0  0  0
 22 21  1  0  0  0  0
 23 21  2  0  0  0  0
 24 22  2  0  0  0  0
 25 23  1  0  0  0  0
 25 24  1  0  0  0  0
 25 26  1  0  0  0  0
 26 39  1  0  0  0  0
 26 40  1  0  0  0  0
 26 41  1  0  0  0  0
 27 42  1  0  0  0  0
M  END
>  <DRUGBANK_ID>
DB14569

>  <COMMON_NAME>
Tedizolid

>  <CAS_NUMBER>
856866-72-3

>  <UNII>
97HLQ82NGL

>  <SYNONYMS>
Tedizolid; Torezolid

$$$$
