SD2
 OpenBabel10282417123D

 62 63  0  0  0  0  0  0  0  0999 V2000
    1.2736   -0.8354   -0.5207 C   0  0  0  0  0  0  0  0  0  0  0  0
    0.8923   -0.8321   -2.2912 S   0  0  0  0  0  0  0  0  0  0  0  0
    0.8243    0.9070   -2.7855 C   0  0  0  0  0  0  0  0  0  0  0  0
    0.4413    1.8976   -1.5965 C   0  0  0  0  0  0  0  0  0  0  0  0
    1.2057    2.2389    0.2305 C   0  0  1  0  0  0  0  0  0  0  0  0
    2.8681    2.4132    0.7343 C   0  0  0  0  0  0  0  0  0  0  0  0
    3.3831    3.4285    1.1319 O   0  0  0  0  0  0  0  0  0  0  0  0
    3.6605    1.2856    0.6079 N   0  0  0  0  0  0  0  0  0  0  0  0
    0.7396    3.2780    1.3026 N   0  0  0  0  0  0  0  0  0  0  0  0
   -0.3832    3.2271    2.1153 C   0  0  0  0  0  0  0  0  0  0  0  0
   -0.9447    4.0350    2.8000 O   0  0  0  0  0  0  0  0  0  0  0  0
   -0.9270    1.9439    2.3735 C   0  0  2  0  0  0  0  0  0  0  0  0
    0.1155    1.3653    3.3154 C   0  0  0  0  0  0  0  0  0  0  0  0
   -0.2932   -0.0669    3.2286 C   0  0  0  0  0  0  0  0  0  0  0  0
   -0.8782   -0.2198    1.7961 C   0  0  0  0  0  0  0  0  0  0  0  0
   -1.0306    1.1453    1.2389 N   0  0  0  0  0  0  0  0  0  0  0  0
   -1.4800    1.5973   -0.0187 C   0  0  0  0  0  0  0  0  0  0  0  0
   -1.8320    0.6693   -0.7771 O   0  0  0  0  0  0  0  0  0  0  0  0
   -1.2275    3.3377   -0.7307 C   0  0  1  0  0  0  0  0  0  0  0  0
   -2.1395    4.1651    0.0168 N   0  0  0  0  0  0  0  0  0  0  0  0
   -1.9881    5.1768    0.9428 C   0  0  0  0  0  0  0  0  0  0  0  0
   -3.0958    5.5461    1.3668 O   0  0  0  0  0  0  0  0  0  0  0  0
   -0.6154    6.0235    1.3490 C   0  0  0  0  0  0  0  0  0  0  0  0
    0.6946    5.9050    2.8306 S   0  0  0  0  0  0  0  0  0  0  0  0
    0.3619    4.2400   -1.1055 C   0  0  0  0  0  0  0  0  0  0  0  0
    2.0739    3.7422   -1.5708 C   0  0  0  0  0  0  0  0  0  0  0  0
    2.6167    2.3214   -1.7736 C   0  0  0  0  0  0  0  0  0  0  0  0
    3.7213    1.6378   -2.2186 C   0  0  0  0  0  0  0  0  0  0  0  0
    4.7140    2.4968   -2.3145 C   0  0  0  0  0  0  0  0  0  0  0  0
    5.9186    1.8904   -2.4743 O   0  0  0  0  0  0  0  0  0  0  0  0
    4.4627    3.8926   -2.0171 C   0  0  0  0  0  0  0  0  0  0  0  0
    3.1707    4.5396   -1.6455 C   0  0  0  0  0  0  0  0  0  0  0  0
    1.0022    1.3725    0.7919 H   0  0  0  0  0  0  0  0  0  0  0  0
   -1.9118    2.0323    2.8218 H   0  0  0  0  0  0  0  0  0  0  0  0
   -1.7035    3.3172   -1.7494 H   0  0  0  0  0  0  0  0  0  0  0  0
    0.8328   -1.7157   -0.0679 H   0  0  0  0  0  0  0  0  0  0  0  0
    0.8105   -0.0161   -0.0316 H   0  0  0  0  0  0  0  0  0  0  0  0
    2.3120   -0.8490   -0.1996 H   0  0  0  0  0  0  0  0  0  0  0  0
    1.7057    1.1981   -3.3884 H   0  0  0  0  0  0  0  0  0  0  0  0
    0.1118    1.1296   -3.6133 H   0  0  0  0  0  0  0  0  0  0  0  0
    0.4665    2.7702   -2.3163 H   0  0  0  0  0  0  0  0  0  0  0  0
   -0.6009    1.7762   -1.7709 H   0  0  0  0  0  0  0  0  0  0  0  0
    3.2968    0.5498    0.0542 H   0  0  0  0  0  0  0  0  0  0  0  0
    4.5839    1.5560    0.2680 H   0  0  0  0  0  0  0  0  0  0  0  0
    1.2766    4.1700    1.3517 H   0  0  0  0  0  0  0  0  0  0  0  0
    1.1674    1.5115    3.0000 H   0  0  0  0  0  0  0  0  0  0  0  0
    0.0603    1.8202    4.3105 H   0  0  0  0  0  0  0  0  0  0  0  0
    0.5781   -0.7013    3.4231 H   0  0  0  0  0  0  0  0  0  0  0  0
   -1.0613   -0.2560    3.9754 H   0  0  0  0  0  0  0  0  0  0  0  0
   -0.1451   -0.8330    1.3101 H   0  0  0  0  0  0  0  0  0  0  0  0
   -1.8185   -0.7578    1.7437 H   0  0  0  0  0  0  0  0  0  0  0  0
   -3.0971    3.8086   -0.0694 H   0  0  0  0  0  0  0  0  0  0  0  0
   -0.0137    6.2966    0.4875 H   0  0  0  0  0  0  0  0  0  0  0  0
   -1.0661    6.9221    1.7483 H   0  0  0  0  0  0  0  0  0  0  0  0
    0.3848    4.7190    3.4602 H   0  0  0  0  0  0  0  0  0  0  0  0
    0.2028    5.3034   -1.3172 H   0  0  0  0  0  0  0  0  0  0  0  0
    0.4058    4.3948   -0.0888 H   0  0  0  0  0  0  0  0  0  0  0  0
    2.1951    1.4324   -1.2927 H   0  0  0  0  0  0  0  0  0  0  0  0
    3.7558    0.5354   -2.1875 H   0  0  0  0  0  0  0  0  0  0  0  0
    5.7620    0.9197   -2.5365 H   0  0  0  0  0  0  0  0  0  0  0  0
    5.3484    4.5036   -1.9789 H   0  0  0  0  0  0  0  0  0  0  0  0
    3.1278    5.5630   -1.2899 H   0  0  0  0  0  0  0  0  0  0  0  0
  1  2  1  0  0  0  0
  1 36  1  0  0  0  0
  1 37  1  0  0  0  0
  1 38  1  0  0  0  0
  2  3  1  0  0  0  0
  3  4  1  0  0  0  0
  3 39  1  0  0  0  0
  3 40  1  0  0  0  0
  4  5  1  0  0  0  0
  4 41  1  0  0  0  0
  4 42  1  0  0  0  0
  5  6  1  0  0  0  0
  5  9  1  0  0  0  0
  5 33  1  1  0  0  0
  6  7  2  0  0  0  0
  6  8  1  0  0  0  0
  8 43  1  0  0  0  0
  8 44  1  0  0  0  0
  9 10  1  0  0  0  0
  9 45  1  0  0  0  0
 10 11  2  0  0  0  0
 12 10  1  0  0  0  0
 12 13  1  0  0  0  0
 12 16  1  0  0  0  0
 12 34  1  1  0  0  0
 13 14  1  0  0  0  0
 13 46  1  0  0  0  0
 13 47  1  0  0  0  0
 14 15  1  0  0  0  0
 14 48  1  0  0  0  0
 14 49  1  0  0  0  0
 15 16  1  0  0  0  0
 15 50  1  0  0  0  0
 15 51  1  0  0  0  0
 16 17  1  0  0  0  0
 17 18  2  0  0  0  0
 17 19  1  0  0  0  0
 19 20  1  0  0  0  0
 19 25  1  0  0  0  0
 19 35  1  6  0  0  0
 20 21  1  0  0  0  0
 20 52  1  0  0  0  0
 21 22  2  0  0  0  0
 21 23  1  0  0  0  0
 23 24  1  0  0  0  0
 23 53  1  0  0  0  0
 23 54  1  0  0  0  0
 24 55  1  0  0  0  0
 25 26  1  0  0  0  0
 25 56  1  0  0  0  0
 25 57  1  0  0  0  0
 26 27  2  0  0  0  0
 26 32  1  0  0  0  0
 27 28  1  0  0  0  0
 27 58  1  0  0  0  0
 28 29  2  0  0  0  0
 28 59  1  0  0  0  0
 29 30  1  0  0  0  0
 29 31  1  0  0  0  0
 30 60  1  0  0  0  0
 31 32  2  0  0  0  0
 31 61  1  0  0  0  0
 32 62  1  0  0  0  0
M  END
>  <DRUGBANK_ID>
DB01883

>  <SECONDARY_ACCESSION_NUMBERS>
EXPT02874

>  <COMMON_NAME>
N-(Sulfanylacetyl)Tyrosylprolylmethioninamide

$$$$
