
 OpenBabel10282417193D

100101  0  0  0  0  0  0  0  0999 V2000
    1.1229   -0.1076    0.0632 C   0  0  0  0  0  0  0  0  0  0  0  0
    0.6920   -1.6025    0.0931 C   0  0  3  0  0  0  0  0  0  0  0  0
    1.2466   -2.3720    1.2845 C   0  0  0  0  0  0  0  0  0  0  0  0
    0.7168   -1.8699    2.5091 O   0  0  0  0  0  0  0  0  0  0  0  0
   -0.7116   -1.8030    0.1234 O   0  0  0  0  0  0  0  0  0  0  0  0
    0.5752    0.7359    1.1421 N   0  0  0  0  0  0  0  0  0  0  0  0
   -0.2765    1.8063    1.1362 C   0  0  0  0  0  0  0  0  0  0  0  0
   -0.6970    2.2538    2.1995 O   0  0  0  0  0  0  0  0  0  0  0  0
   -0.6424    2.4398   -0.1353 C   0  0  0  0  0  0  0  0  0  0  0  0
   -0.2663    3.7750   -0.3995 C   0  0  0  0  0  0  0  0  0  0  0  0
   -0.3542    4.2390   -1.7092 C   0  0  0  0  0  0  0  0  0  0  0  0
   -0.4367    3.1806   -2.6879 C   0  0  0  0  0  0  0  0  0  0  0  0
   -0.9941    1.8472   -2.4582 C   0  0  0  0  0  0  0  0  0  0  0  0
   -1.2581    1.6177   -1.1053 C   0  0  0  0  0  0  0  0  0  0  0  0
   -2.8549    0.4242   -0.2934 I   0  0  0  0  0  0  0  0  0  0  0  0
   -1.2793    0.8491   -3.5254 N   0  0  0  0  0  0  0  0  0  0  0  0
   -1.3944    1.2577   -4.9084 C   0  0  0  0  0  0  0  0  0  0  0  0
   -0.8321    0.5291   -6.1091 C   0  0  3  0  0  0  0  0  0  0  0  0
   -1.4948   -0.8188   -6.2235 C   0  0  0  0  0  0  0  0  0  0  0  0
   -2.9895   -0.8452   -6.5698 N   0  0  0  0  0  0  0  0  0  0  0  0
   -3.2884   -1.5043   -7.7575 C   0  0  0  0  0  0  0  0  0  0  0  0
   -4.3973   -1.5984   -8.2648 O   0  0  0  0  0  0  0  0  0  0  0  0
   -4.1628   -0.3149   -5.7638 C   0  0  0  0  0  0  0  0  0  0  0  0
   -5.1232   -1.1225   -5.1076 C   0  0  0  0  0  0  0  0  0  0  0  0
   -6.1335   -0.5506   -4.2342 C   0  0  0  0  0  0  0  0  0  0  0  0
   -5.9317    0.8299   -3.8440 C   0  0  0  0  0  0  0  0  0  0  0  0
   -5.2034    1.7036   -4.6567 C   0  0  0  0  0  0  0  0  0  0  0  0
   -4.5102    1.0673   -5.7361 C   0  0  0  0  0  0  0  0  0  0  0  0
   -4.5002    1.9730   -7.7084 I   0  0  0  0  0  0  0  0  0  0  0  0
   -5.1424    3.1754   -4.2815 C   0  0  0  0  0  0  0  0  0  0  0  0
   -6.0510    3.8288   -3.7622 O   0  0  0  0  0  0  0  0  0  0  0  0
   -3.9833    3.8617   -4.3371 N   0  0  0  0  0  0  0  0  0  0  0  0
   -2.7942    3.6356   -5.1044 C   0  0  0  0  0  0  0  0  0  0  0  0
   -2.1337    4.3167   -6.4362 C   0  0  3  0  0  0  0  0  0  0  0  0
   -1.4936    5.6978   -6.7223 C   0  0  0  0  0  0  0  0  0  0  0  0
   -0.2788    6.1728   -6.1160 O   0  0  0  0  0  0  0  0  0  0  0  0
   -1.1147    3.4652   -6.9285 O   0  0  0  0  0  0  0  0  0  0  0  0
   -6.4638    1.7519   -1.6626 I   0  0  0  0  0  0  0  0  0  0  0  0
   -7.4563   -1.3493   -4.1242 C   0  0  0  0  0  0  0  0  0  0  0  0
   -7.5936   -2.4907   -4.5579 O   0  0  0  0  0  0  0  0  0  0  0  0
   -8.6396   -0.8409   -3.6625 N   0  0  0  0  0  0  0  0  0  0  0  0
   -8.8373    0.4917   -3.2480 C   0  0  0  0  0  0  0  0  0  0  0  0
   -9.9125    1.3523   -3.8405 C   0  0  3  0  0  0  0  0  0  0  0  0
  -11.2317    0.8136   -3.3691 C   0  0  0  0  0  0  0  0  0  0  0  0
  -11.3209    0.9039   -1.9432 O   0  0  0  0  0  0  0  0  0  0  0  0
   -9.7260    2.7114   -3.4151 O   0  0  0  0  0  0  0  0  0  0  0  0
   -4.8921   -3.2826   -5.3481 I   0  0  0  0  0  0  0  0  0  0  0  0
   -1.0013    1.1372   -7.3943 O   0  0  0  0  0  0  0  0  0  0  0  0
   -1.8407   -0.4199   -3.2889 C   0  0  0  0  0  0  0  0  0  0  0  0
   -1.5539   -1.2781   -2.4912 O   0  0  0  0  0  0  0  0  0  0  0  0
    1.2275    3.3889   -4.1948 I   0  0  0  0  0  0  0  0  0  0  0  0
   -0.3094    5.7543   -2.0308 C   0  0  0  0  0  0  0  0  0  0  0  0
    0.1102    6.6219   -1.2292 O   0  0  0  0  0  0  0  0  0  0  0  0
   -0.8285    6.3297   -3.1727 N   0  0  0  0  0  0  0  0  0  0  0  0
   -1.9262    5.7545   -3.8483 C   0  0  0  0  0  0  0  0  0  0  0  0
   -3.0548    6.6298   -4.5564 C   0  0  3  0  0  0  0  0  0  0  0  0
   -2.7016    8.0304   -5.1097 C   0  0  0  0  0  0  0  0  0  0  0  0
   -1.7887    8.3016   -6.1743 O   0  0  0  0  0  0  0  0  0  0  0  0
   -4.0330    5.9608   -5.4069 O   0  0  0  0  0  0  0  0  0  0  0  0
    0.5997    4.9572    1.1748 I   0  0  0  0  0  0  0  0  0  0  0  0
    0.8714    0.3239   -0.9061 H   0  0  0  0  0  0  0  0  0  0  0  0
    2.2148   -0.0538    0.1390 H   0  0  0  0  0  0  0  0  0  0  0  0
    1.0396   -2.0692   -0.8365 H   0  0  0  0  0  0  0  0  0  0  0  0
    0.9207   -3.4145    1.2259 H   0  0  0  0  0  0  0  0  0  0  0  0
    2.3376   -2.3312    1.3128 H   0  0  0  0  0  0  0  0  0  0  0  0
    1.1290   -1.0141    2.6777 H   0  0  0  0  0  0  0  0  0  0  0  0
   -1.0713   -1.2776    0.8602 H   0  0  0  0  0  0  0  0  0  0  0  0
    0.8622    0.5828    2.0964 H   0  0  0  0  0  0  0  0  0  0  0  0
   -2.4433    1.1916   -5.0443 H   0  0  0  0  0  0  0  0  0  0  0  0
   -1.0491    2.2508   -5.0316 H   0  0  0  0  0  0  0  0  0  0  0  0
    0.2509    0.5373   -5.9630 H   0  0  0  0  0  0  0  0  0  0  0  0
   -0.9353   -1.2989   -7.0376 H   0  0  0  0  0  0  0  0  0  0  0  0
   -1.2410   -1.4190   -5.3516 H   0  0  0  0  0  0  0  0  0  0  0  0
   -2.3931   -1.9239   -8.2451 H   0  0  0  0  0  0  0  0  0  0  0  0
   -4.1255    4.7141   -3.7958 H   0  0  0  0  0  0  0  0  0  0  0  0
   -2.1045    3.4329   -4.3055 H   0  0  0  0  0  0  0  0  0  0  0  0
   -3.0488    2.7049   -5.5049 H   0  0  0  0  0  0  0  0  0  0  0  0
   -2.9495    4.2748   -7.1511 H   0  0  0  0  0  0  0  0  0  0  0  0
   -1.2614    5.7933   -7.7815 H   0  0  0  0  0  0  0  0  0  0  0  0
   -2.2822    6.4120   -6.6874 H   0  0  0  0  0  0  0  0  0  0  0  0
   -0.1370    6.0962   -5.1539 H   0  0  0  0  0  0  0  0  0  0  0  0
   -0.2553    3.7185   -6.5407 H   0  0  0  0  0  0  0  0  0  0  0  0
   -9.3594   -1.5519   -3.5361 H   0  0  0  0  0  0  0  0  0  0  0  0
   -8.8257    0.4607   -2.1578 H   0  0  0  0  0  0  0  0  0  0  0  0
   -8.0117    1.0176   -3.6537 H   0  0  0  0  0  0  0  0  0  0  0  0
   -9.7999    1.3548   -4.9295 H   0  0  0  0  0  0  0  0  0  0  0  0
  -12.0341    1.4088   -3.7985 H   0  0  0  0  0  0  0  0  0  0  0  0
  -11.3275   -0.2321   -3.6763 H   0  0  0  0  0  0  0  0  0  0  0  0
  -10.6378    0.3431   -1.5347 H   0  0  0  0  0  0  0  0  0  0  0  0
   -9.8071    2.7505   -2.4433 H   0  0  0  0  0  0  0  0  0  0  0  0
   -1.9398    1.1895   -7.6589 H   0  0  0  0  0  0  0  0  0  0  0  0
   -2.6014   -0.6749   -4.0359 H   0  0  0  0  0  0  0  0  0  0  0  0
   -0.6991    7.3342   -3.2321 H   0  0  0  0  0  0  0  0  0  0  0  0
   -1.3691    5.0998   -4.4945 H   0  0  0  0  0  0  0  0  0  0  0  0
   -2.3704    5.0738   -3.1224 H   0  0  0  0  0  0  0  0  0  0  0  0
   -3.7158    6.7975   -3.7072 H   0  0  0  0  0  0  0  0  0  0  0  0
   -3.6440    8.4037   -5.5114 H   0  0  0  0  0  0  0  0  0  0  0  0
   -2.3397    8.6049   -4.2698 H   0  0  0  0  0  0  0  0  0  0  0  0
   -0.9406    7.8161   -6.1078 H   0  0  0  0  0  0  0  0  0  0  0  0
   -3.9477    5.9797   -6.3781 H   0  0  0  0  0  0  0  0  0  0  0  0
  1  2  1  0  0  0  0
  1  6  1  0  0  0  0
  1 61  1  0  0  0  0
  1 62  1  0  0  0  0
  2  3  1  0  0  0  0
  2  5  1  0  0  0  0
  2 63  1  0  0  0  0
  3  4  1  0  0  0  0
  3 64  1  0  0  0  0
  3 65  1  0  0  0  0
  4 66  1  0  0  0  0
  5 67  1  0  0  0  0
  6  7  1  0  0  0  0
  6 68  1  0  0  0  0
  7  8  2  0  0  0  0
  7  9  1  0  0  0  0
  9 10  2  0  0  0  0
  9 14  1  0  0  0  0
 10 11  1  0  0  0  0
 10 60  1  0  0  0  0
 11 12  2  0  0  0  0
 11 52  1  0  0  0  0
 12 13  1  0  0  0  0
 12 51  1  0  0  0  0
 13 14  2  0  0  0  0
 13 16  1  0  0  0  0
 14 15  1  0  0  0  0
 16 17  1  0  0  0  0
 16 49  1  0  0  0  0
 17 18  1  0  0  0  0
 17 69  1  0  0  0  0
 17 70  1  0  0  0  0
 18 19  1  0  0  0  0
 18 48  1  0  0  0  0
 18 71  1  0  0  0  0
 19 20  1  0  0  0  0
 19 72  1  0  0  0  0
 19 73  1  0  0  0  0
 20 21  1  0  0  0  0
 20 23  1  0  0  0  0
 21 22  2  0  0  0  0
 21 74  1  0  0  0  0
 23 24  2  0  0  0  0
 23 28  1  0  0  0  0
 24 25  1  0  0  0  0
 24 47  1  0  0  0  0
 25 26  2  0  0  0  0
 25 39  1  0  0  0  0
 26 27  1  0  0  0  0
 26 38  1  0  0  0  0
 27 28  2  0  0  0  0
 27 30  1  0  0  0  0
 28 29  1  0  0  0  0
 30 31  2  0  0  0  0
 30 32  1  0  0  0  0
 32 33  1  0  0  0  0
 32 75  1  0  0  0  0
 33 34  1  0  0  0  0
 33 76  1  0  0  0  0
 33 77  1  0  0  0  0
 34 35  1  0  0  0  0
 34 37  1  0  0  0  0
 34 78  1  0  0  0  0
 35 36  1  0  0  0  0
 35 79  1  0  0  0  0
 35 80  1  0  0  0  0
 36 81  1  0  0  0  0
 37 82  1  0  0  0  0
 39 40  2  0  0  0  0
 39 41  1  0  0  0  0
 41 42  1  0  0  0  0
 41 83  1  0  0  0  0
 42 43  1  0  0  0  0
 42 84  1  0  0  0  0
 42 85  1  0  0  0  0
 43 44  1  0  0  0  0
 43 46  1  0  0  0  0
 43 86  1  0  0  0  0
 44 45  1  0  0  0  0
 44 87  1  0  0  0  0
 44 88  1  0  0  0  0
 45 89  1  0  0  0  0
 46 90  1  0  0  0  0
 48 91  1  0  0  0  0
 49 50  2  0  0  0  0
 49 92  1  0  0  0  0
 52 53  2  0  0  0  0
 52 54  1  0  0  0  0
 54 55  1  0  0  0  0
 54 93  1  0  0  0  0
 55 56  1  0  0  0  0
 55 94  1  0  0  0  0
 55 95  1  0  0  0  0
 56 57  1  0  0  0  0
 56 59  1  0  0  0  0
 56 96  1  0  0  0  0
 57 58  1  0  0  0  0
 57 97  1  0  0  0  0
 57 98  1  0  0  0  0
 58 99  1  0  0  0  0
 59100  1  0  0  0  0
M  END
>  <DRUGBANK_ID>
DB12439

>  <COMMON_NAME>
Ioforminol

>  <CAS_NUMBER>
1095110-48-7

>  <UNII>
95FNF21CDN

>  <SYNONYMS>
Ioforminol

$$$$
