
 OpenBabel10282417123D

 33 33  0  0  0  0  0  0  0  0999 V2000
   -1.4371    1.2737    0.1415 O   0  0  0  0  0  0  0  0  0  0  0  0
   -1.7460    0.2300   -0.8053 C   0  0  1  0  0  0  0  0  0  0  0  0
   -0.8846   -0.9962   -0.4867 C   0  0  1  0  0  0  0  0  0  0  0  0
    0.5937   -0.6183   -0.6535 C   0  0  1  0  0  0  0  0  0  0  0  0
    0.9461    0.5906    0.2252 C   0  0  2  0  0  0  0  0  0  0  0  0
   -0.0819    1.7282    0.0443 C   0  0  2  0  0  0  0  0  0  0  0  0
    0.2099    3.1603    1.1616 S   0  0  0  0  0  0  0  0  0  0  0  0
    1.4154   -1.7358   -0.2928 O   0  0  0  0  0  0  0  0  0  0  0  0
   -1.1052   -1.4435    0.8648 O   0  0  0  0  0  0  0  0  0  0  0  0
   -3.2413   -0.0870   -0.7049 C   0  0  0  0  0  0  0  0  0  0  0  0
    2.2930    1.0189    0.0207 O   0  0  0  0  0  0  0  0  0  0  0  0
   -4.0033    1.0731   -1.0372 O   0  0  0  0  0  0  0  0  0  0  0  0
   -0.1271    2.5360    2.8636 C   0  0  0  0  0  0  0  0  0  0  0  0
   -1.5701    2.0878    3.0508 C   0  0  0  0  0  0  0  0  0  0  0  0
    0.8500    1.4904    3.3913 C   0  0  0  0  0  0  0  0  0  0  0  0
   -1.5362    0.6091   -1.8138 H   0  0  0  0  0  0  0  0  0  0  0  0
   -1.1312   -1.8405   -1.1378 H   0  0  0  0  0  0  0  0  0  0  0  0
    0.8148   -0.3930   -1.7020 H   0  0  0  0  0  0  0  0  0  0  0  0
    0.9162    0.2099    1.2364 H   0  0  0  0  0  0  0  0  0  0  0  0
    0.0518    2.1531   -0.9591 H   0  0  0  0  0  0  0  0  0  0  0  0
    1.1772   -1.9754    0.6247 H   0  0  0  0  0  0  0  0  0  0  0  0
   -1.2136   -0.6586    1.4340 H   0  0  0  0  0  0  0  0  0  0  0  0
   -3.5160   -0.8806   -1.4068 H   0  0  0  0  0  0  0  0  0  0  0  0
   -3.5307   -0.3914    0.3054 H   0  0  0  0  0  0  0  0  0  0  0  0
    2.4256    1.2206   -0.9228 H   0  0  0  0  0  0  0  0  0  0  0  0
   -3.7247    1.7685   -0.4112 H   0  0  0  0  0  0  0  0  0  0  0  0
    0.0165    3.4234    3.4922 H   0  0  0  0  0  0  0  0  0  0  0  0
   -1.8075    1.1958    2.4692 H   0  0  0  0  0  0  0  0  0  0  0  0
   -1.7515    1.8278    4.0991 H   0  0  0  0  0  0  0  0  0  0  0  0
   -2.2725    2.8824    2.7799 H   0  0  0  0  0  0  0  0  0  0  0  0
    1.8889    1.7354    3.1478 H   0  0  0  0  0  0  0  0  0  0  0  0
    0.7725    1.4185    4.4813 H   0  0  0  0  0  0  0  0  0  0  0  0
    0.6142    0.4850    3.0421 H   0  0  0  0  0  0  0  0  0  0  0  0
  1  2  1  0  0  0  0
  1  6  1  0  0  0  0
  2  3  1  0  0  0  0
  2 10  1  0  0  0  0
  2 16  1  6  0  0  0
  3  4  1  0  0  0  0
  3  9  1  0  0  0  0
  3 17  1  6  0  0  0
  4  5  1  0  0  0  0
  4  8  1  0  0  0  0
  4 18  1  6  0  0  0
  5  6  1  0  0  0  0
  5 11  1  0  0  0  0
  5 19  1  1  0  0  0
  6  7  1  0  0  0  0
  6 20  1  6  0  0  0
  7 13  1  0  0  0  0
  8 21  1  0  0  0  0
  9 22  1  0  0  0  0
 10 12  1  0  0  0  0
 10 23  1  0  0  0  0
 10 24  1  0  0  0  0
 11 25  1  0  0  0  0
 12 26  1  0  0  0  0
 13 14  1  0  0  0  0
 13 15  1  0  0  0  0
 13 27  1  0  0  0  0
 14 28  1  0  0  0  0
 14 29  1  0  0  0  0
 14 30  1  0  0  0  0
 15 31  1  0  0  0  0
 15 32  1  0  0  0  0
 15 33  1  0  0  0  0
M  END
>  <DRUGBANK_ID>
DB01862

>  <SECONDARY_ACCESSION_NUMBERS>
EXPT01924

>  <COMMON_NAME>
Isopropyl beta-D-thiogalactopyranoside

>  <CAS_NUMBER>
367-93-1

>  <UNII>
X73VV2246B

>  <SYNONYMS>
IPTG; isopropyl thiogalactoside; isopropyl β-D-1-thiogalactopyranoside; isopropyl β-D-thiogalactopyranoside; isopropyl β-D-thiogalactoside; isopropyl-β-D-thiogalactopyranoside; isopropyl-β-D-thiogalactoside

$$$$
