SEH
 OpenBabel10282417143D

 30 30  0  0  0  0  0  0  0  0999 V2000
    1.0277    0.0836   -0.0032 C   0  0  0  0  0  0  0  0  0  0  0  0
    0.3968    0.3256   -1.6916 S   0  0  0  0  0  0  0  0  0  0  0  0
    0.5400   -1.2593    0.5325 C   0  0  0  0  0  0  0  0  0  0  0  0
    1.8725    2.7383   -1.3577 C   0  0  0  0  0  0  0  0  0  0  0  0
    3.2294    3.0080   -1.9705 C   0  0  0  0  0  0  0  0  0  0  0  0
    3.6604    4.3239   -2.1906 C   0  0  0  0  0  0  0  0  0  0  0  0
    4.0942    1.9483   -2.2783 C   0  0  0  0  0  0  0  0  0  0  0  0
    4.9352    4.5737   -2.7000 C   0  0  0  0  0  0  0  0  0  0  0  0
    5.3852    2.2034   -2.7395 C   0  0  0  0  0  0  0  0  0  0  0  0
    5.7975    3.5137   -2.9717 C   0  0  0  0  0  0  0  0  0  0  0  0
    0.9807    1.8946   -2.2545 C   0  0  0  0  0  0  0  0  0  0  0  0
    0.6836    2.3934   -3.4220 N   0  0  0  0  0  0  0  0  0  0  0  0
   -0.1101    1.5425   -4.2353 O   0  0  0  0  0  0  0  0  0  0  0  0
   -0.4380    2.1620   -5.7324 S   0  0  0  0  0  0  0  0  0  0  0  0
   -1.2865    3.3272   -5.6145 O   0  0  0  0  0  0  0  0  0  0  0  0
    0.7702    2.2028   -6.5351 O   0  0  0  0  0  0  0  0  0  0  0  0
   -1.3629    1.0301   -6.4224 O   0  0  0  0  0  0  0  0  0  0  0  0
    0.6691    0.8765    0.6620 H   0  0  0  0  0  0  0  0  0  0  0  0
    2.1229    0.0861    0.0032 H   0  0  0  0  0  0  0  0  0  0  0  0
    0.9107   -1.4244    1.5510 H   0  0  0  0  0  0  0  0  0  0  0  0
   -0.5540   -1.3025    0.5740 H   0  0  0  0  0  0  0  0  0  0  0  0
    0.8984   -2.0918   -0.0828 H   0  0  0  0  0  0  0  0  0  0  0  0
    1.3498    3.6872   -1.1783 H   0  0  0  0  0  0  0  0  0  0  0  0
    2.0418    2.3059   -0.3719 H   0  0  0  0  0  0  0  0  0  0  0  0
    3.0045    5.1646   -1.9752 H   0  0  0  0  0  0  0  0  0  0  0  0
    3.7712    0.9161   -2.1655 H   0  0  0  0  0  0  0  0  0  0  0  0
    5.2586    5.5964   -2.8757 H   0  0  0  0  0  0  0  0  0  0  0  0
    6.0709    1.3790   -2.9153 H   0  0  0  0  0  0  0  0  0  0  0  0
    6.7887    3.7076   -3.3723 H   0  0  0  0  0  0  0  0  0  0  0  0
   -1.5881    1.3465   -7.3209 H   0  0  0  0  0  0  0  0  0  0  0  0
  1  2  1  0  0  0  0
  1  3  1  0  0  0  0
  1 18  1  0  0  0  0
  1 19  1  0  0  0  0
  2 11  1  0  0  0  0
  3 20  1  0  0  0  0
  3 21  1  0  0  0  0
  3 22  1  0  0  0  0
  4  5  1  0  0  0  0
  4 11  1  0  0  0  0
  4 23  1  0  0  0  0
  4 24  1  0  0  0  0
  5  6  2  0  0  0  0
  5  7  1  0  0  0  0
  6  8  1  0  0  0  0
  6 25  1  0  0  0  0
  7  9  2  0  0  0  0
  7 26  1  0  0  0  0
  8 10  2  0  0  0  0
  8 27  1  0  0  0  0
  9 10  1  0  0  0  0
  9 28  1  0  0  0  0
 10 29  1  0  0  0  0
 11 12  2  0  0  0  0
 12 13  1  0  0  0  0
 13 14  1  0  0  0  0
 14 15  2  0  0  0  0
 14 16  2  0  0  0  0
 14 17  1  0  0  0  0
 17 30  1  0  0  0  0
M  END
>  <DRUGBANK_ID>
DB04779

>  <COMMON_NAME>
ETHYL (1E)-2-PHENYL-N-(SULFOOXY)ETHANIMIDOTHIOATE

$$$$
