
 OpenBabel10282417133D

 53 59  0  0  0  0  0  0  0  0999 V2000
    1.0483    0.0664    0.0571 Os  0  2  0  0  0  0  0  0  0  0  0  0
    1.0483    0.8201    2.0706 N   0  0  0  0  0  0  0  0  0  0  0  0
    1.6912    2.1050    2.3265 C   0  0  0  0  0  0  0  0  0  0  0  0
    1.7387    2.6408    3.5176 C   0  0  0  0  0  0  0  0  0  0  0  0
    1.0818    1.8685    4.7057 C   0  0  0  0  0  0  0  0  0  0  0  0
    0.3707    0.4223    4.3557 C   0  0  0  0  0  0  0  0  0  0  0  0
    0.4045    0.0180    3.1086 C   0  0  0  0  0  0  0  0  0  0  0  0
   -0.2375   -1.3086    2.7363 C   0  0  0  0  0  0  0  0  0  0  0  0
   -1.6702   -1.5218    2.9295 C   0  0  0  0  0  0  0  0  0  0  0  0
    4.0009    1.1584    0.0571 C   0  0  0  0  0  0  0  0  0  0  0  0
   -2.2418   -2.6491    2.5800 C   0  0  0  0  0  0  0  0  0  0  0  0
   -1.2824   -3.8142    1.9154 C   0  0  0  0  0  0  0  0  0  0  0  0
    0.2346   -3.4775    1.7574 C   0  0  0  0  0  0  0  0  0  0  0  0
    0.6553   -2.3052    2.1537 N   0  0  0  0  0  0  0  0  0  0  0  0
   -1.2048   -2.6412    2.4891 N   0  0  0  0  0  0  0  0  0  0  0  0
   -0.5786   -3.3874    3.5784 C   0  0  0  0  0  0  0  0  0  0  0  0
    0.2149   -2.7954    4.4383 C   0  0  0  0  0  0  0  0  0  0  0  0
    0.4779   -1.1791    4.2426 C   0  0  0  0  0  0  0  0  0  0  0  0
   -0.2438   -0.4840    3.0445 C   0  0  0  0  0  0  0  0  0  0  0  0
   -1.0057   -1.2119    2.2713 C   0  0  0  0  0  0  0  0  0  0  0  0
   -1.8194   -0.5700    1.1595 C   0  0  0  0  0  0  0  0  0  0  0  0
   -3.2750   -0.6228    1.2509 C   0  0  0  0  0  0  0  0  0  0  0  0
   -4.0544   -0.0974    0.3428 C   0  0  0  0  0  0  0  0  0  0  0  0
   -3.3939    0.6094   -0.8834 C   0  0  0  0  0  0  0  0  0  0  0  0
   -1.7458    0.6376   -0.9322 C   0  0  0  0  0  0  0  0  0  0  0  0
   -1.1017    0.0664    0.0571 N   0  0  0  0  0  0  0  0  0  0  0  0
    3.1983    0.0664    0.0571 N   0  0  0  0  0  0  0  0  0  0  0  0
    5.2714    0.6869    0.0682 C   0  0  0  0  0  0  0  0  0  0  0  0
    3.9712   -0.9851    0.0570 C   0  0  0  0  0  0  0  0  0  0  0  0
    5.2032   -0.6164    0.0678 N   0  0  0  0  0  0  0  0  0  0  0  0
    0.2606    1.3643    1.7186 H   0  0  0  0  0  0  0  0  0  0  0  0
    2.1406    2.6280    1.5083 H   0  0  0  0  0  0  0  0  0  0  0  0
    2.2159    3.5854    3.6751 H   0  0  0  0  0  0  0  0  0  0  0  0
    1.0927    2.2599    5.7015 H   0  0  0  0  0  0  0  0  0  0  0  0
   -0.1003   -0.1638    5.1170 H   0  0  0  0  0  0  0  0  0  0  0  0
   -2.2633   -0.7443    3.3638 H   0  0  0  0  0  0  0  0  0  0  0  0
    3.6942    2.1835    0.0500 H   0  0  0  0  0  0  0  0  0  0  0  0
   -3.2907   -2.8070    2.7208 H   0  0  0  0  0  0  0  0  0  0  0  0
   -1.6809   -4.7579    1.6065 H   0  0  0  0  0  0  0  0  0  0  0  0
    0.9129   -4.1892    1.3350 H   0  0  0  0  0  0  0  0  0  0  0  0
    1.6445   -2.0785    2.0520 H   0  0  0  0  0  0  0  0  0  0  0  0
   -1.8141   -3.1467    1.8461 H   0  0  0  0  0  0  0  0  0  0  0  0
   -0.7711   -4.4354    3.6761 H   0  0  0  0  0  0  0  0  0  0  0  0
    0.6742   -3.3402    5.2365 H   0  0  0  0  0  0  0  0  0  0  0  0
    1.1141   -0.6316    4.9062 H   0  0  0  0  0  0  0  0  0  0  0  0
   -0.1177    0.5626    2.8613 H   0  0  0  0  0  0  0  0  0  0  0  0
   -3.7207   -1.1099    2.0929 H   0  0  0  0  0  0  0  0  0  0  0  0
   -5.1189   -0.1502    0.4372 H   0  0  0  0  0  0  0  0  0  0  0  0
   -3.9841    1.0552   -1.6567 H   0  0  0  0  0  0  0  0  0  0  0  0
   -1.2219    1.1041   -1.7402 H   0  0  0  0  0  0  0  0  0  0  0  0
   -1.6095    0.6730    0.7010 H   0  0  0  0  0  0  0  0  0  0  0  0
    6.1655    1.2746    0.0759 H   0  0  0  0  0  0  0  0  0  0  0  0
    3.6315   -1.9997    0.0491 H   0  0  0  0  0  0  0  0  0  0  0  0
  2  1  1  0  0  0  0
  2 31  1  0  0  0  0
  3  2  2  0  0  0  0
  3  4  1  0  0  0  0
  3 32  1  0  0  0  0
  4  5  2  0  0  0  0
  4 33  1  0  0  0  0
  5  6  1  0  0  0  0
  5 34  1  0  0  0  0
  6  7  2  0  0  0  0
  6 35  1  0  0  0  0
  7  2  1  0  0  0  0
  7  8  1  0  0  0  0
  8  9  1  0  0  0  0
  8 14  2  0  0  0  0
  9 36  1  0  0  0  0
 10 27  1  0  0  0  0
 10 37  1  0  0  0  0
 11  9  2  0  0  0  0
 11 12  1  0  0  0  0
 11 38  1  0  0  0  0
 12 13  2  0  0  0  0
 12 39  1  0  0  0  0
 13 14  1  0  0  0  0
 13 40  1  0  0  0  0
 14  1  1  0  0  0  0
 14 41  1  0  0  0  0
 15  1  1  0  0  0  0
 15 42  1  0  0  0  0
 16 15  1  0  0  0  0
 16 17  2  0  0  0  0
 16 43  1  0  0  0  0
 17 18  1  0  0  0  0
 17 44  1  0  0  0  0
 18 19  2  0  0  0  0
 18 45  1  0  0  0  0
 19 20  1  0  0  0  0
 19 46  1  0  0  0  0
 20 15  2  0  0  0  0
 20 21  1  0  0  0  0
 21 22  2  0  0  0  0
 21 26  1  0  0  0  0
 22 23  1  0  0  0  0
 22 47  1  0  0  0  0
 23 24  2  0  0  0  0
 23 48  1  0  0  0  0
 24 25  1  0  0  0  0
 24 49  1  0  0  0  0
 25 26  2  0  0  0  0
 25 50  1  0  0  0  0
 26  1  1  0  0  0  0
 26 51  1  0  0  0  0
 27  1  1  0  0  0  0
 28 10  2  0  0  0  0
 28 30  1  0  0  0  0
 28 52  1  0  0  0  0
 29 27  1  0  0  0  0
 29 30  2  0  0  0  0
 29 53  1  0  0  0  0
M  CHG  1   1   2
M  END
>  <DRUGBANK_ID>
DB03492

>  <SECONDARY_ACCESSION_NUMBERS>
EXPT02053; EXPT01250; DB04550

>  <COMMON_NAME>
lambda-bis(2,2'-bipyridine)imidazole osmium (II)

>  <SYNONYMS>
delta-bis(2,2'-bipyridine)imidazole osmium (II)

$$$$
