
 OpenBabel10282417193D

 44 46  0  0  1  0  0  0  0  0999 V2000
    1.8271   -0.5036    5.2226 C   0  0  0  0  0  0  0  0  0  0  0  0
    3.2323   -1.0414    5.2072 C   0  0  0  0  0  0  0  0  0  0  0  0
    4.1502   -0.5023    5.8180 O   0  0  0  0  0  0  0  0  0  0  0  0
    3.4721   -2.1652    4.4669 N   0  0  0  0  0  0  0  0  0  0  0  0
    2.5587   -2.8102    3.5401 C   0  0  0  0  0  0  0  0  0  0  0  0
    2.9785   -2.6979    2.0708 C   0  0  1  0  0  0  0  0  0  0  0  0
    3.9950   -1.6172    1.7270 C   0  0  0  0  0  0  0  0  0  0  0  0
    4.8747   -2.2980    0.8348 N   0  0  0  0  0  0  0  0  0  0  0  0
    4.6428   -3.6546    0.8389 C   0  0  0  0  0  0  0  0  0  0  0  0
    5.2697   -4.5240    0.2510 O   0  0  0  0  0  0  0  0  0  0  0  0
    3.5920   -3.9358    1.6644 O   0  0  0  0  0  0  0  0  0  0  0  0
    5.8511   -1.6627    0.0557 C   0  0  0  0  0  0  0  0  0  0  0  0
    5.7950   -1.7931   -1.3317 C   0  0  0  0  0  0  0  0  0  0  0  0
    6.7674   -1.1947   -2.1439 C   0  0  0  0  0  0  0  0  0  0  0  0
    7.8598   -0.5099   -1.5938 C   0  0  0  0  0  0  0  0  0  0  0  0
    7.8933   -0.4010   -0.1914 C   0  0  0  0  0  0  0  0  0  0  0  0
    6.8887   -0.9324    0.6301 C   0  0  0  0  0  0  0  0  0  0  0  0
    8.9105    0.2490    0.3984 F   0  0  0  0  0  0  0  0  0  0  0  0
    8.8488   -0.0030   -2.4156 N   0  0  0  0  0  0  0  0  0  0  0  0
   10.2590   -0.3683   -2.2402 C   0  0  0  0  0  0  0  0  0  0  0  0
   10.8051   -1.0039   -3.5316 C   0  0  0  0  0  0  0  0  0  0  0  0
   10.6955    0.1235   -4.9704 S   0  0  0  0  0  0  0  0  0  0  0  0
    8.9159    0.5139   -4.8214 C   0  0  0  0  0  0  0  0  0  0  0  0
    8.5560    1.0196   -3.4217 C   0  0  0  0  0  0  0  0  0  0  0  0
    1.7666    0.3553    5.8948 H   0  0  0  0  0  0  0  0  0  0  0  0
    1.1406   -1.2741    5.5856 H   0  0  0  0  0  0  0  0  0  0  0  0
    1.5371   -0.1797    4.2187 H   0  0  0  0  0  0  0  0  0  0  0  0
    4.4375   -2.4821    4.4995 H   0  0  0  0  0  0  0  0  0  0  0  0
    2.4893   -3.8584    3.8509 H   0  0  0  0  0  0  0  0  0  0  0  0
    1.5632   -2.3750    3.6472 H   0  0  0  0  0  0  0  0  0  0  0  0
    2.0740   -2.5960    1.4557 H   0  0  0  0  0  0  0  0  0  0  0  0
    4.5755   -1.2434    2.5718 H   0  0  0  0  0  0  0  0  0  0  0  0
    3.5111   -0.7680    1.2332 H   0  0  0  0  0  0  0  0  0  0  0  0
    4.9818   -2.3491   -1.7930 H   0  0  0  0  0  0  0  0  0  0  0  0
    6.6879   -1.3198   -3.2204 H   0  0  0  0  0  0  0  0  0  0  0  0
    6.9836   -0.8247    1.7056 H   0  0  0  0  0  0  0  0  0  0  0  0
   10.3914   -1.0852   -1.4220 H   0  0  0  0  0  0  0  0  0  0  0  0
   10.8456    0.5241   -1.9880 H   0  0  0  0  0  0  0  0  0  0  0  0
   11.8538   -1.2874   -3.4033 H   0  0  0  0  0  0  0  0  0  0  0  0
   10.2401   -1.9092   -3.7804 H   0  0  0  0  0  0  0  0  0  0  0  0
    8.3557   -0.3983   -5.0503 H   0  0  0  0  0  0  0  0  0  0  0  0
    8.6636    1.2665   -5.5736 H   0  0  0  0  0  0  0  0  0  0  0  0
    7.5010    1.3156   -3.3997 H   0  0  0  0  0  0  0  0  0  0  0  0
    9.1339    1.9256   -3.1915 H   0  0  0  0  0  0  0  0  0  0  0  0
  1  2  1  0  0  0  0
  1 25  1  0  0  0  0
  1 26  1  0  0  0  0
  1 27  1  0  0  0  0
  2  3  2  0  0  0  0
  2  4  1  0  0  0  0
  4  5  1  0  0  0  0
  4 28  1  0  0  0  0
  5 29  1  0  0  0  0
  5 30  1  0  0  0  0
  6  7  1  0  0  0  0
  6 11  1  0  0  0  0
  6 31  1  6  0  0  0
  6  5  1  0  0  0  0
  7  8  1  0  0  0  0
  7 32  1  0  0  0  0
  7 33  1  0  0  0  0
  8  9  1  0  0  0  0
  8 12  1  0  0  0  0
  9 10  2  0  0  0  0
  9 11  1  0  0  0  0
 12 13  2  0  0  0  0
 12 17  1  0  0  0  0
 13 14  1  0  0  0  0
 13 34  1  0  0  0  0
 14 15  2  0  0  0  0
 14 35  1  0  0  0  0
 15 16  1  0  0  0  0
 15 19  1  0  0  0  0
 16 17  2  0  0  0  0
 16 18  1  0  0  0  0
 17 36  1  0  0  0  0
 19 20  1  0  0  0  0
 19 24  1  0  0  0  0
 20 21  1  0  0  0  0
 20 37  1  0  0  0  0
 20 38  1  0  0  0  0
 21 22  1  0  0  0  0
 21 39  1  0  0  0  0
 21 40  1  0  0  0  0
 22 23  1  0  0  0  0
 23 24  1  0  0  0  0
 23 41  1  0  0  0  0
 23 42  1  0  0  0  0
 24 43  1  0  0  0  0
 24 44  1  0  0  0  0
M  END
>  <DRUGBANK_ID>
DB11905

>  <COMMON_NAME>
Sutezolid

>  <CAS_NUMBER>
168828-58-8

>  <UNII>
3A71182L8P

>  <SYNONYMS>
ACETAMIDE, N-((3-(3-FLUORO-4-(4-THIOMORPHOLINYL)PHENYL)-2-OXO-5-OXAZOLIDINYL)METHYL)-, (S)-; N-{[(5S)-3-(3-fluoro-4-thiomorpholin-4-ylphenyl)-2-oxo-1,3-oxazolidin-5-yl]methyl}acetamide; Sutezolid

$$$$
