
 OpenBabel10282417203D

 49 51  0  0  0  0  0  0  0  0999 V2000
    1.0417    0.0972    0.0462 C   0  0  0  0  0  0  0  0  0  0  0  0
    0.5948   -1.1675    0.7262 C   0  0  0  0  0  0  0  0  0  0  0  0
   -0.3050   -1.0496    1.9207 C   0  0  0  0  0  0  0  0  0  0  0  0
    0.9885   -2.3683    0.2568 C   0  0  0  0  0  0  0  0  0  0  0  0
    1.8109   -2.5427   -0.9426 C   0  0  3  0  0  0  0  0  0  0  0  0
    3.3149   -2.5321   -0.9227 C   0  0  3  0  0  0  0  0  0  0  0  0
    4.2495   -2.2672    0.2080 C   0  0  0  0  0  0  0  0  0  0  0  0
    5.2639   -1.6237   -0.0371 O   0  0  0  0  0  0  0  0  0  0  0  0
    3.9593   -2.7681    1.4379 O   0  0  0  0  0  0  0  0  0  0  0  0
    4.9424   -2.4545    2.4606 C   0  0  0  0  0  0  0  0  0  0  0  0
    6.2318   -3.0450    2.1789 N   0  0  0  0  0  0  0  0  0  0  0  0
    7.3781   -2.3387    1.9663 C   0  0  0  0  0  0  0  0  0  0  0  0
    7.5731   -1.1404    2.0439 O   0  0  0  0  0  0  0  0  0  0  0  0
    8.4249   -3.3226    1.6626 C   0  0  0  0  0  0  0  0  0  0  0  0
    7.8844   -4.5374    1.7645 C   0  0  0  0  0  0  0  0  0  0  0  0
    8.6000   -5.8124    1.5335 C   0  0  0  0  0  0  0  0  0  0  0  0
   10.1205   -5.5988    1.4447 C   0  0  0  0  0  0  0  0  0  0  0  0
   10.5242   -4.3008    0.7308 C   0  0  0  0  0  0  0  0  0  0  0  0
    9.8293   -3.0420    1.2800 C   0  0  0  0  0  0  0  0  0  0  0  0
    6.4760   -4.3792    2.1452 C   0  0  0  0  0  0  0  0  0  0  0  0
    5.7192   -5.3001    2.3781 O   0  0  0  0  0  0  0  0  0  0  0  0
    2.5685   -3.8153   -1.2639 C   0  0  0  0  0  0  0  0  0  0  0  0
    2.4767   -4.9819   -0.3210 C   0  0  0  0  0  0  0  0  0  0  0  0
    2.5695   -4.2223   -2.7286 C   0  0  0  0  0  0  0  0  0  0  0  0
    0.6854    0.9937    0.5583 H   0  0  0  0  0  0  0  0  0  0  0  0
    0.6655    0.1342   -0.9828 H   0  0  0  0  0  0  0  0  0  0  0  0
    2.1356    0.1445    0.0203 H   0  0  0  0  0  0  0  0  0  0  0  0
   -1.2774   -1.5153    1.7271 H   0  0  0  0  0  0  0  0  0  0  0  0
    0.1525   -1.5322    2.7902 H   0  0  0  0  0  0  0  0  0  0  0  0
   -0.4889   -0.0036    2.1854 H   0  0  0  0  0  0  0  0  0  0  0  0
    0.5999   -3.2640    0.7407 H   0  0  0  0  0  0  0  0  0  0  0  0
    1.3490   -2.0521   -1.8010 H   0  0  0  0  0  0  0  0  0  0  0  0
    3.7411   -2.0327   -1.7946 H   0  0  0  0  0  0  0  0  0  0  0  0
    5.0240   -1.3678    2.5923 H   0  0  0  0  0  0  0  0  0  0  0  0
    4.5777   -2.8779    3.4047 H   0  0  0  0  0  0  0  0  0  0  0  0
    8.3891   -6.5239    2.3393 H   0  0  0  0  0  0  0  0  0  0  0  0
    8.2414   -6.2609    0.5996 H   0  0  0  0  0  0  0  0  0  0  0  0
   10.5712   -6.4497    0.9197 H   0  0  0  0  0  0  0  0  0  0  0  0
   10.5434   -5.5940    2.4571 H   0  0  0  0  0  0  0  0  0  0  0  0
   10.2889   -4.4017   -0.3361 H   0  0  0  0  0  0  0  0  0  0  0  0
   11.6115   -4.1744    0.8012 H   0  0  0  0  0  0  0  0  0  0  0  0
    9.8749   -2.2574    0.5159 H   0  0  0  0  0  0  0  0  0  0  0  0
   10.3762   -2.6748    2.1561 H   0  0  0  0  0  0  0  0  0  0  0  0
    2.8163   -4.7446    0.6867 H   0  0  0  0  0  0  0  0  0  0  0  0
    1.4410   -5.3349   -0.2570 H   0  0  0  0  0  0  0  0  0  0  0  0
    3.0859   -5.8153   -0.6846 H   0  0  0  0  0  0  0  0  0  0  0  0
    1.5479   -4.3821   -3.0902 H   0  0  0  0  0  0  0  0  0  0  0  0
    3.0284   -3.4559   -3.3648 H   0  0  0  0  0  0  0  0  0  0  0  0
    3.1372   -5.1450   -2.8805 H   0  0  0  0  0  0  0  0  0  0  0  0
  1  2  1  0  0  0  0
  1 25  1  0  0  0  0
  1 26  1  0  0  0  0
  1 27  1  0  0  0  0
  2  3  1  0  0  0  0
  2  4  2  0  0  0  0
  3 28  1  0  0  0  0
  3 29  1  0  0  0  0
  3 30  1  0  0  0  0
  4  5  1  0  0  0  0
  4 31  1  0  0  0  0
  5  6  1  0  0  0  0
  5 22  1  0  0  0  0
  5 32  1  0  0  0  0
  6  7  1  0  0  0  0
  6 22  1  0  0  0  0
  6 33  1  0  0  0  0
  7  8  2  0  0  0  0
  7  9  1  0  0  0  0
  9 10  1  0  0  0  0
 10 11  1  0  0  0  0
 10 34  1  0  0  0  0
 10 35  1  0  0  0  0
 11 12  1  0  0  0  0
 11 20  1  0  0  0  0
 12 13  2  0  0  0  0
 12 14  1  0  0  0  0
 14 15  2  0  0  0  0
 14 19  1  0  0  0  0
 15 16  1  0  0  0  0
 15 20  1  0  0  0  0
 16 17  1  0  0  0  0
 16 36  1  0  0  0  0
 16 37  1  0  0  0  0
 17 18  1  0  0  0  0
 17 38  1  0  0  0  0
 17 39  1  0  0  0  0
 18 19  1  0  0  0  0
 18 40  1  0  0  0  0
 18 41  1  0  0  0  0
 19 42  1  0  0  0  0
 19 43  1  0  0  0  0
 20 21  2  0  0  0  0
 22 23  1  0  0  0  0
 22 24  1  0  0  0  0
 23 44  1  0  0  0  0
 23 45  1  0  0  0  0
 23 46  1  0  0  0  0
 24 47  1  0  0  0  0
 24 48  1  0  0  0  0
 24 49  1  0  0  0  0
M  END
>  <DRUGBANK_ID>
DB13752

>  <COMMON_NAME>
Tetramethrin

>  <CAS_NUMBER>
7696-12-0

>  <UNII>
Z72930Q46K

>  <SYNONYMS>
Tetramethrin

$$$$
