
 OpenBabel10282417123D

 24 24  0  0  1  0  0  0  0  0999 V2000
    0.7708    1.2829   -0.1452 C   0  0  0  0  0  0  0  0  0  0  0  0
   -1.4177   -0.0267   -1.8643 C   0  0  0  0  0  0  0  0  0  0  0  0
    1.4905    0.0005    0.3060 C   0  0  2  0  0  0  0  0  0  0  0  0
   -0.7131    1.2363    0.2294 C   0  0  1  0  0  0  0  0  0  0  0  0
   -1.3614   -0.0411   -0.3294 C   0  0  2  0  0  0  0  0  0  0  0  0
    0.7173   -1.2521   -0.2056 C   0  0  1  0  0  0  0  0  0  0  0  0
    1.6114   -0.0155    1.7858 N   0  0  0  0  0  0  0  0  0  0  0  0
   -2.0096   -1.2259   -2.3487 O   0  0  0  0  0  0  0  0  0  0  0  0
   -0.8384    1.2645    1.6561 O   0  0  0  0  0  0  0  0  0  0  0  0
    1.2562   -2.4463    0.3300 O   0  0  0  0  0  0  0  0  0  0  0  0
   -0.6652   -1.2148    0.1380 O   0  0  0  0  0  0  0  0  0  0  0  0
    2.5056   -0.0140   -0.1079 H   0  0  0  0  0  0  0  0  0  0  0  0
   -1.2288    2.1259   -0.1460 H   0  0  0  0  0  0  0  0  0  0  0  0
   -2.3780   -0.1388    0.0702 H   0  0  0  0  0  0  0  0  0  0  0  0
    0.8195   -1.3406   -1.2917 H   0  0  0  0  0  0  0  0  0  0  0  0
    1.2508    2.1658    0.2934 H   0  0  0  0  0  0  0  0  0  0  0  0
    0.8732    1.3933   -1.2318 H   0  0  0  0  0  0  0  0  0  0  0  0
   -1.9906    0.8306   -2.2271 H   0  0  0  0  0  0  0  0  0  0  0  0
   -0.4241    0.0317   -2.3157 H   0  0  0  0  0  0  0  0  0  0  0  0
    1.3692    0.9125    2.1514 H   0  0  0  0  0  0  0  0  0  0  0  0
    2.5973   -0.1283    2.0289 H   0  0  0  0  0  0  0  0  0  0  0  0
   -1.5883   -1.9615   -1.8611 H   0  0  0  0  0  0  0  0  0  0  0  0
   -0.5447    0.3838    1.9769 H   0  0  0  0  0  0  0  0  0  0  0  0
    1.1255   -2.3346    1.2938 H   0  0  0  0  0  0  0  0  0  0  0  0
  1 16  1  0  0  0  0
  1 17  1  0  0  0  0
  2 18  1  0  0  0  0
  2 19  1  0  0  0  0
  3  1  1  0  0  0  0
  3 12  1  6  0  0  0
  3  7  1  0  0  0  0
  4  1  1  0  0  0  0
  4  9  1  0  0  0  0
  4 13  1  6  0  0  0
  5  2  1  0  0  0  0
  5  4  1  0  0  0  0
  5 14  1  1  0  0  0
  6  3  1  0  0  0  0
  6 15  1  6  0  0  0
  6 10  1  0  0  0  0
  7 20  1  0  0  0  0
  7 21  1  0  0  0  0
  8  2  1  0  0  0  0
  8 22  1  0  0  0  0
  9 23  1  0  0  0  0
 10 24  1  0  0  0  0
 11  5  1  0  0  0  0
 11  6  1  0  0  0  0
M  END
>  <DRUGBANK_ID>
DB02700

>  <SECONDARY_ACCESSION_NUMBERS>
EXPT01559

>  <COMMON_NAME>
3-Deoxy-D-Glucosamine

$$$$
