
 OpenBabel10282417183D

 57 60  0  0  0  0  0  0  0  0999 V2000
   -0.4985    0.5595    0.4554 C   0  0  0  0  0  0  0  0  0  0  0  0
   -0.4764   -0.8412    0.3804 C   0  0  0  0  0  0  0  0  0  0  0  0
   -1.6282   -1.4863   -0.1220 C   0  0  0  0  0  0  0  0  0  0  0  0
   -2.7069   -0.6863   -0.5218 C   0  0  0  0  0  0  0  0  0  0  0  0
   -2.6222    0.6953   -0.4621 C   0  0  0  0  0  0  0  0  0  0  0  0
   -1.5331    1.3161    0.0085 N   0  0  0  0  0  0  0  0  0  0  0  0
    0.7590   -1.6158    0.7912 C   0  0  0  0  0  0  0  0  0  0  0  0
    1.8671   -1.6585   -0.2600 C   0  0  0  0  0  0  0  0  0  0  0  0
    0.6512    1.3495    1.0205 C   0  0  0  0  0  0  0  0  0  0  0  0
    2.7764   -0.4292   -0.3167 C   0  0  0  0  0  0  0  0  0  0  0  0
    1.6056    1.8490   -0.0572 C   0  0  0  0  0  0  0  0  0  0  0  0
    2.1495    0.7808   -1.0083 C   0  0  0  0  0  0  0  0  0  0  0  0
   -3.6961    1.4538   -0.8760 N   0  0  0  0  0  0  0  0  0  0  0  0
   -1.7466   -2.9499   -0.2400 C   0  0  0  0  0  0  0  0  0  0  0  0
   -1.6620   -3.7714    0.9008 C   0  0  0  0  0  0  0  0  0  0  0  0
   -1.6629   -5.1592    0.7915 C   0  0  0  0  0  0  0  0  0  0  0  0
   -1.8135   -5.7449   -0.4587 C   0  0  0  0  0  0  0  0  0  0  0  0
   -1.9538   -4.9607   -1.5991 C   0  0  0  0  0  0  0  0  0  0  0  0
   -1.9141   -3.5696   -1.4920 C   0  0  0  0  0  0  0  0  0  0  0  0
   -1.8205   -7.0770   -0.5650 F   0  0  0  0  0  0  0  0  0  0  0  0
   -3.4652    2.5593   -1.8027 C   0  0  0  0  0  0  0  0  0  0  0  0
   -4.1645    3.8621   -1.3734 C   0  0  0  0  0  0  0  0  0  0  0  0
   -5.5354    3.7137   -0.8471 N   0  0  0  0  0  0  0  0  0  0  0  0
   -5.5045    2.7435    0.2605 C   0  0  0  0  0  0  0  0  0  0  0  0
   -4.9194    1.3611   -0.0830 C   0  0  0  0  0  0  0  0  0  0  0  0
   -6.5701    3.4588   -1.8591 C   0  0  0  0  0  0  0  0  0  0  0  0
   -6.5513    2.1884   -2.7093 C   0  0  0  0  0  0  0  0  0  0  0  0
   -3.6148   -1.1398   -0.9108 H   0  0  0  0  0  0  0  0  0  0  0  0
    0.5070   -2.6560    0.9965 H   0  0  0  0  0  0  0  0  0  0  0  0
    1.1303   -1.2663    1.7596 H   0  0  0  0  0  0  0  0  0  0  0  0
    1.4512   -1.8708   -1.2527 H   0  0  0  0  0  0  0  0  0  0  0  0
    2.5084   -2.5140   -0.0098 H   0  0  0  0  0  0  0  0  0  0  0  0
    0.2452    2.2142    1.5618 H   0  0  0  0  0  0  0  0  0  0  0  0
    1.1919    0.7849    1.7843 H   0  0  0  0  0  0  0  0  0  0  0  0
    3.6575   -0.7207   -0.9029 H   0  0  0  0  0  0  0  0  0  0  0  0
    3.1501   -0.1751    0.6821 H   0  0  0  0  0  0  0  0  0  0  0  0
    2.4480    2.3468    0.4387 H   0  0  0  0  0  0  0  0  0  0  0  0
    1.1046    2.6181   -0.6588 H   0  0  0  0  0  0  0  0  0  0  0  0
    2.9212    1.2628   -1.6217 H   0  0  0  0  0  0  0  0  0  0  0  0
    1.3692    0.4641   -1.7108 H   0  0  0  0  0  0  0  0  0  0  0  0
   -1.5404   -3.3189    1.8846 H   0  0  0  0  0  0  0  0  0  0  0  0
   -1.5340   -5.7838    1.6696 H   0  0  0  0  0  0  0  0  0  0  0  0
   -2.0762   -5.4412   -2.5650 H   0  0  0  0  0  0  0  0  0  0  0  0
   -1.9936   -2.9664   -2.3956 H   0  0  0  0  0  0  0  0  0  0  0  0
   -2.4009    2.7575   -1.9803 H   0  0  0  0  0  0  0  0  0  0  0  0
   -3.8307    2.2505   -2.7834 H   0  0  0  0  0  0  0  0  0  0  0  0
   -3.5514    4.3173   -0.5817 H   0  0  0  0  0  0  0  0  0  0  0  0
   -4.1521    4.5918   -2.1926 H   0  0  0  0  0  0  0  0  0  0  0  0
   -4.8884    3.1755    1.0636 H   0  0  0  0  0  0  0  0  0  0  0  0
   -6.5035    2.6365    0.7000 H   0  0  0  0  0  0  0  0  0  0  0  0
   -5.6416    0.7562   -0.6290 H   0  0  0  0  0  0  0  0  0  0  0  0
   -4.7654    0.8107    0.8541 H   0  0  0  0  0  0  0  0  0  0  0  0
   -7.5433    3.4948   -1.3532 H   0  0  0  0  0  0  0  0  0  0  0  0
   -6.5795    4.3119   -2.5484 H   0  0  0  0  0  0  0  0  0  0  0  0
   -6.6760    1.2828   -2.1198 H   0  0  0  0  0  0  0  0  0  0  0  0
   -7.3854    2.1869   -3.4153 H   0  0  0  0  0  0  0  0  0  0  0  0
   -5.6549    2.1003   -3.3186 H   0  0  0  0  0  0  0  0  0  0  0  0
  1  2  2  0  0  0  0
  1  9  1  0  0  0  0
  2  3  1  0  0  0  0
  2  7  1  0  0  0  0
  3 14  1  0  0  0  0
  3  4  2  0  0  0  0
  4  5  1  0  0  0  0
  4 28  1  0  0  0  0
  5 13  1  0  0  0  0
  5  6  2  0  0  0  0
  6  1  1  0  0  0  0
  7  8  1  0  0  0  0
  7 29  1  0  0  0  0
  7 30  1  0  0  0  0
  8 10  1  0  0  0  0
  8 31  1  0  0  0  0
  8 32  1  0  0  0  0
  9 11  1  0  0  0  0
  9 33  1  0  0  0  0
  9 34  1  0  0  0  0
 10 12  1  0  0  0  0
 10 35  1  0  0  0  0
 10 36  1  0  0  0  0
 11 12  1  0  0  0  0
 11 37  1  0  0  0  0
 11 38  1  0  0  0  0
 12 39  1  0  0  0  0
 12 40  1  0  0  0  0
 13 21  1  0  0  0  0
 14 15  2  0  0  0  0
 15 16  1  0  0  0  0
 15 41  1  0  0  0  0
 16 17  2  0  0  0  0
 16 42  1  0  0  0  0
 17 18  1  0  0  0  0
 17 20  1  0  0  0  0
 18 19  2  0  0  0  0
 18 43  1  0  0  0  0
 19 14  1  0  0  0  0
 19 44  1  0  0  0  0
 21 22  1  0  0  0  0
 21 45  1  0  0  0  0
 21 46  1  0  0  0  0
 22 23  1  0  0  0  0
 22 47  1  0  0  0  0
 22 48  1  0  0  0  0
 23 24  1  0  0  0  0
 23 26  1  0  0  0  0
 24 25  1  0  0  0  0
 24 49  1  0  0  0  0
 24 50  1  0  0  0  0
 25 13  1  0  0  0  0
 25 51  1  0  0  0  0
 25 52  1  0  0  0  0
 26 27  1  0  0  0  0
 26 53  1  0  0  0  0
 26 54  1  0  0  0  0
 27 55  1  0  0  0  0
 27 56  1  0  0  0  0
 27 57  1  0  0  0  0
M  END
>  <DRUGBANK_ID>
DB09223

>  <COMMON_NAME>
Blonanserin

>  <CAS_NUMBER>
132810-10-7

>  <UNII>
AQ316B4F8C

>  <SYNONYMS>
Blonanserin

$$$$
