
 OpenBabel10282417233D

 10  9  0  0  0  0  0  0  0  0999 V2000
    0.9364   -0.0009    0.0978 O   0  0  0  0  0  0  0  0  0  0  0  0
    0.3781   -0.2489    1.2882 C   0  0  0  0  0  0  0  0  0  0  0  0
    1.0383   -0.4076    2.2973 O   0  0  0  0  0  0  0  0  0  0  0  0
   -1.1597   -0.2751    1.2413 C   0  0  0  0  0  0  0  0  0  0  0  0
   -1.7516   -0.0151    0.1977 O   0  0  0  0  0  0  0  0  0  0  0  0
   -1.8754   -0.5276    2.5338 C   0  0  0  0  0  0  0  0  0  0  0  0
   -1.4977   -2.3215    3.1588 Br  0  0  0  0  0  0  0  0  0  0  0  0
    1.9048   -0.0080    0.2381 H   0  0  0  0  0  0  0  0  0  0  0  0
   -1.5987    0.2000    3.2988 H   0  0  0  0  0  0  0  0  0  0  0  0
   -2.9560   -0.4912    2.3682 H   0  0  0  0  0  0  0  0  0  0  0  0
  1  2  1  0  0  0  0
  1  8  1  0  0  0  0
  2  3  2  0  0  0  0
  2  4  1  0  0  0  0
  4  5  2  0  0  0  0
  4  6  1  0  0  0  0
  6  7  1  0  0  0  0
  6  9  1  0  0  0  0
  6 10  1  0  0  0  0
M  END
>  <DRUGBANK_ID>
DB17135

>  <COMMON_NAME>
Bromopyruvate

>  <CAS_NUMBER>
1113-59-3

>  <UNII>
63JMV04GRK

>  <SYNONYMS>
3-bromo-2-oxopropanoic acid; 3-bromopyruvate; 3-bromopyruvic acid; Bromopyruvic acid

$$$$
