
 OpenBabel10282417233D

 52 55  0  0  0  0  0  0  0  0999 V2000
    0.9013   -0.1073   -0.1366 N   0  0  0  0  0  0  0  0  0  0  0  0
    0.2351    0.2098   -1.2940 C   0  0  0  0  0  0  0  0  0  0  0  0
   -0.8227    1.0101   -1.1797 N   0  0  0  0  0  0  0  0  0  0  0  0
   -1.3970    1.4109   -2.3217 C   0  0  0  0  0  0  0  0  0  0  0  0
   -1.0142    0.8934   -3.5605 C   0  0  0  0  0  0  0  0  0  0  0  0
    0.0514   -0.0085   -3.5528 C   0  0  0  0  0  0  0  0  0  0  0  0
    0.6189   -0.4680   -4.7429 N   0  0  0  0  0  0  0  0  0  0  0  0
    0.7154   -0.3044   -2.4257 N   0  0  0  0  0  0  0  0  0  0  0  0
   -1.6704    1.3377   -4.7252 C   0  0  0  0  0  0  0  0  0  0  0  0
   -1.5158    0.5960   -5.8651 O   0  0  0  0  0  0  0  0  0  0  0  0
   -2.2765    0.9597   -7.0196 C   0  0  0  0  0  0  0  0  0  0  0  0
   -3.8176    0.8675   -6.7937 C   0  0  0  0  0  0  0  0  0  0  0  0
   -4.4510   -0.2528   -7.6190 C   0  0  0  0  0  0  0  0  0  0  0  0
   -4.4315    0.1345   -9.0777 C   0  0  0  0  0  0  0  0  0  0  0  0
   -5.0163    1.4240   -9.4297 N   0  0  0  0  0  0  0  0  0  0  0  0
   -4.9051    1.6746  -10.8821 C   0  0  0  0  0  0  0  0  0  0  0  0
   -3.4939    1.8394  -11.4312 C   0  0  0  0  0  0  0  0  0  0  0  0
   -2.5635    0.7723  -11.5198 C   0  0  0  0  0  0  0  0  0  0  0  0
   -2.9497   -0.9238  -11.4473 Cl  0  0  0  0  0  0  0  0  0  0  0  0
   -1.2339    0.9931  -11.8575 C   0  0  0  0  0  0  0  0  0  0  0  0
   -0.9004    2.1699  -12.4928 C   0  0  0  0  0  0  0  0  0  0  0  0
   -1.7938    3.2327  -12.4796 C   0  0  0  0  0  0  0  0  0  0  0  0
   -3.0424    3.1009  -11.8659 C   0  0  0  0  0  0  0  0  0  0  0  0
   -3.9737    4.5532  -11.7182 Cl  0  0  0  0  0  0  0  0  0  0  0  0
   -4.4176    2.5056   -8.6573 C   0  0  0  0  0  0  0  0  0  0  0  0
   -4.5357    2.1859   -7.1774 C   0  0  0  0  0  0  0  0  0  0  0  0
   -2.4347    2.4873   -4.6418 C   0  0  0  0  0  0  0  0  0  0  0  0
   -2.8002    3.0307   -3.4282 C   0  0  0  0  0  0  0  0  0  0  0  0
   -2.3540    2.4165   -2.2665 C   0  0  0  0  0  0  0  0  0  0  0  0
    0.4329    0.0769    0.7297 H   0  0  0  0  0  0  0  0  0  0  0  0
    1.8932   -0.2445   -0.2142 H   0  0  0  0  0  0  0  0  0  0  0  0
   -0.0242   -0.4893   -5.5311 H   0  0  0  0  0  0  0  0  0  0  0  0
    1.2623   -1.2383   -4.6417 H   0  0  0  0  0  0  0  0  0  0  0  0
   -1.9373    1.9452   -7.3546 H   0  0  0  0  0  0  0  0  0  0  0  0
   -1.9404    0.2567   -7.7919 H   0  0  0  0  0  0  0  0  0  0  0  0
   -4.0291    0.6209   -5.7487 H   0  0  0  0  0  0  0  0  0  0  0  0
   -3.8867   -1.1874   -7.4967 H   0  0  0  0  0  0  0  0  0  0  0  0
   -5.4789   -0.4484   -7.2986 H   0  0  0  0  0  0  0  0  0  0  0  0
   -3.3703    0.1898   -9.2948 H   0  0  0  0  0  0  0  0  0  0  0  0
   -4.9064   -0.6609   -9.6564 H   0  0  0  0  0  0  0  0  0  0  0  0
   -5.4217    0.8858  -11.4401 H   0  0  0  0  0  0  0  0  0  0  0  0
   -5.5152    2.5633  -11.0876 H   0  0  0  0  0  0  0  0  0  0  0  0
   -0.4949    0.2059  -11.7294 H   0  0  0  0  0  0  0  0  0  0  0  0
    0.0392    2.2318  -13.0301 H   0  0  0  0  0  0  0  0  0  0  0  0
   -1.5053    4.1716  -12.9431 H   0  0  0  0  0  0  0  0  0  0  0  0
   -4.9193    3.4606   -8.8519 H   0  0  0  0  0  0  0  0  0  0  0  0
   -3.3597    2.6517   -8.9108 H   0  0  0  0  0  0  0  0  0  0  0  0
   -5.5880    2.1183   -6.8808 H   0  0  0  0  0  0  0  0  0  0  0  0
   -4.1539    3.0632   -6.6645 H   0  0  0  0  0  0  0  0  0  0  0  0
   -2.7640    2.9915   -5.5270 H   0  0  0  0  0  0  0  0  0  0  0  0
   -3.4208    3.9207   -3.4039 H   0  0  0  0  0  0  0  0  0  0  0  0
   -2.7034    2.7923   -1.3103 H   0  0  0  0  0  0  0  0  0  0  0  0
  1  2  1  0  0  0  0
  1 30  1  0  0  0  0
  1 31  1  0  0  0  0
  2  3  2  0  0  0  0
  2  8  1  0  0  0  0
  3  4  1  0  0  0  0
  4  5  2  0  0  0  0
  4 29  1  0  0  0  0
  5  6  1  0  0  0  0
  5  9  1  0  0  0  0
  6  7  1  0  0  0  0
  6  8  2  0  0  0  0
  7 32  1  0  0  0  0
  7 33  1  0  0  0  0
  9 10  1  0  0  0  0
  9 27  2  0  0  0  0
 10 11  1  0  0  0  0
 11 12  1  0  0  0  0
 11 34  1  0  0  0  0
 11 35  1  0  0  0  0
 12 13  1  0  0  0  0
 12 26  1  0  0  0  0
 12 36  1  0  0  0  0
 13 14  1  0  0  0  0
 13 37  1  0  0  0  0
 13 38  1  0  0  0  0
 14 15  1  0  0  0  0
 14 39  1  0  0  0  0
 14 40  1  0  0  0  0
 15 16  1  0  0  0  0
 15 25  1  0  0  0  0
 16 17  1  0  0  0  0
 16 41  1  0  0  0  0
 16 42  1  0  0  0  0
 17 18  2  0  0  0  0
 17 23  1  0  0  0  0
 18 19  1  0  0  0  0
 18 20  1  0  0  0  0
 20 21  2  0  0  0  0
 20 43  1  0  0  0  0
 21 22  1  0  0  0  0
 21 44  1  0  0  0  0
 22 23  2  0  0  0  0
 22 45  1  0  0  0  0
 23 24  1  0  0  0  0
 25 26  1  0  0  0  0
 25 46  1  0  0  0  0
 25 47  1  0  0  0  0
 26 48  1  0  0  0  0
 26 49  1  0  0  0  0
 27 28  1  0  0  0  0
 27 50  1  0  0  0  0
 28 29  2  0  0  0  0
 28 51  1  0  0  0  0
 29 52  1  0  0  0  0
M  END
>  <DRUGBANK_ID>
DB16938

>  <COMMON_NAME>
D-157495

>  <CAS_NUMBER>
1005504-62-0

>  <UNII>
KSV93L7URW

>  <SYNONYMS>
2,4-quinazolinediamine, 5-((1-((2,6-dichlorophenyl)methyl)-4-piperidinyl)methoxy)-; 5-(1-(2,6-dichlorobenzyl)-piperidin-4-yl)methoxyquinazoline-2,4-diamine; 5-[1-(2,6-Dichlorobenzyl)-Piperidin-4-yl]Methoxyquinazoline-2,4-Diamine; RG-3039; RG3039

$$$$
