
 OpenBabel10282417103D

 46 47  0  0  1  0  0  0  0  0999 V2000
    1.3615    0.0749    0.5084 O   0  0  0  0  0  0  0  0  0  0  0  0
    2.6616    0.0735    0.2115 C   0  0  0  0  0  0  0  0  0  0  0  0
    3.4299   -0.8360    1.0991 C   0  0  3  0  0  0  0  0  0  0  0  0
    3.1950    0.9238   -0.4979 O   0  0  0  0  0  0  0  0  0  0  0  0
    4.2496    0.0049    1.9174 O   0  0  0  0  0  0  0  0  0  0  0  0
    4.2031   -1.8343    0.3228 C   0  0  0  0  0  0  0  0  0  0  0  0
    5.3426   -1.4519   -0.3851 C   0  0  0  0  0  0  0  0  0  0  0  0
    3.7657   -3.1626    0.3168 C   0  0  0  0  0  0  0  0  0  0  0  0
    4.5754   -4.1346   -0.2377 C   0  0  0  0  0  0  0  0  0  0  0  0
    5.7311   -3.7576   -0.9201 C   0  0  0  0  0  0  0  0  0  0  0  0
    6.1106   -2.4184   -1.0039 C   0  0  0  0  0  0  0  0  0  0  0  0
   -0.4905    1.0190    1.2745 C   0  0  3  0  0  0  0  0  0  0  0  0
   -0.8533   -0.4999    0.8353 C   0  0  0  0  0  0  0  0  0  0  0  0
   -0.3132    1.5599    2.4143 C   0  0  3  0  0  0  0  0  0  0  0  0
    0.1775   -0.4060    2.6178 C   0  0  0  0  0  0  0  0  0  0  0  0
    0.4965   -0.9018    1.2093 C   0  0  3  0  0  0  0  0  0  0  0  0
   -1.5726    1.7988    1.7932 N   0  3  0  0  0  0  0  0  0  0  0  0
    0.4372   -0.1898   -2.6069 Br  0  5  0  0  0  0  0  0  0  0  0  0
   -0.1620    2.2261    3.6859 C   0  0  0  0  0  0  0  0  0  0  0  0
    0.8289    1.5050    2.8441 C   0  0  0  0  0  0  0  0  0  0  0  0
   -2.7217    1.3467    2.5408 C   0  0  0  0  0  0  0  0  0  0  0  0
   -1.6889    3.2049    1.1765 C   0  0  0  0  0  0  0  0  0  0  0  0
    2.7800   -1.3648    1.7905 H   0  0  0  0  0  0  0  0  0  0  0  0
    4.7205    0.5811    1.2830 H   0  0  0  0  0  0  0  0  0  0  0  0
    5.6196   -0.4026   -0.4632 H   0  0  0  0  0  0  0  0  0  0  0  0
    2.8091   -3.4401    0.7558 H   0  0  0  0  0  0  0  0  0  0  0  0
    4.3113   -5.1805   -0.1253 H   0  0  0  0  0  0  0  0  0  0  0  0
    6.3312   -4.5144   -1.4101 H   0  0  0  0  0  0  0  0  0  0  0  0
    7.0104   -2.1210   -1.5306 H   0  0  0  0  0  0  0  0  0  0  0  0
   -0.5336    1.4392    0.2347 H   0  0  0  0  0  0  0  0  0  0  0  0
   -1.0212   -0.7261   -0.2159 H   0  0  0  0  0  0  0  0  0  0  0  0
   -1.6651   -1.0158    1.3691 H   0  0  0  0  0  0  0  0  0  0  0  0
    0.5096    2.3853    1.4968 H   0  0  0  0  0  0  0  0  0  0  0  0
   -0.6318   -0.8629    3.1900 H   0  0  0  0  0  0  0  0  0  0  0  0
    1.1285   -0.7000    3.1073 H   0  0  0  0  0  0  0  0  0  0  0  0
    0.8159   -1.9333    1.0502 H   0  0  0  0  0  0  0  0  0  0  0  0
   -0.1021    3.3168    3.6344 H   0  0  0  0  0  0  0  0  0  0  0  0
   -0.6876    1.7476    4.5027 H   0  0  0  0  0  0  0  0  0  0  0  0
    1.6344    2.2974    2.8885 H   0  0  0  0  0  0  0  0  0  0  0  0
    1.3285    0.8286    3.6022 H   0  0  0  0  0  0  0  0  0  0  0  0
   -2.7825    1.9730    3.4348 H   0  0  0  0  0  0  0  0  0  0  0  0
   -3.5868    1.5119    1.9037 H   0  0  0  0  0  0  0  0  0  0  0  0
   -2.5970    0.3007    2.8000 H   0  0  0  0  0  0  0  0  0  0  0  0
   -0.8458    3.4372    0.5031 H   0  0  0  0  0  0  0  0  0  0  0  0
   -2.6113    3.2371    0.5996 H   0  0  0  0  0  0  0  0  0  0  0  0
   -1.7034    3.9380    1.9878 H   0  0  0  0  0  0  0  0  0  0  0  0
  2  1  1  0  0  0  0
  2  4  2  0  0  0  0
  3  2  1  0  0  0  0
  3  6  1  0  0  0  0
  3  5  1  0  0  0  0
  3 23  1  0  0  0  0
  5 24  1  0  0  0  0
  6  8  1  0  0  0  0
  7  6  2  0  0  0  0
  7 11  1  0  0  0  0
  7 25  1  0  0  0  0
  8  9  2  0  0  0  0
  8 26  1  0  0  0  0
  9 10  1  0  0  0  0
  9 27  1  0  0  0  0
 10 11  2  0  0  0  0
 10 28  1  0  0  0  0
 11 29  1  0  0  0  0
 12 17  1  0  0  0  0
 12 20  1  0  0  0  0
 12 30  1  0  0  0  0
 13 12  1  0  0  0  0
 13 31  1  0  0  0  0
 13 32  1  0  0  0  0
 14 17  1  0  0  0  0
 14 19  1  0  0  0  0
 14 33  1  0  0  0  0
 15 14  1  0  0  0  0
 15 16  1  0  0  0  0
 15 34  1  0  0  0  0
 15 35  1  0  0  0  0
 16  1  1  0  0  0  0
 16 13  1  0  0  0  0
 16 36  1  0  0  0  0
 17 21  1  0  0  0  0
 17 22  1  0  0  0  0
 19 37  1  0  0  0  0
 19 38  1  0  0  0  0
 20 19  1  0  0  0  0
 20 39  1  0  0  0  0
 20 40  1  0  0  0  0
 21 41  1  0  0  0  0
 21 42  1  0  0  0  0
 21 43  1  0  0  0  0
 22 44  1  0  0  0  0
 22 45  1  0  0  0  0
 22 46  1  0  0  0  0
M  CHG  2  17   1  18  -1
M  END
>  <DRUGBANK_ID>
DB00725

>  <SECONDARY_ACCESSION_NUMBERS>
APRD01017

>  <COMMON_NAME>
Homatropine methylbromide

>  <CAS_NUMBER>
80-49-9

>  <UNII>
68JRS2HC1C

>  <SYNONYMS>
3-alpha-Hydroxy-8-methyl-1-alpha-H,5-alpha-H-tropanium bromide mandelate; 8-Methylhomatropinium bromide; Homatropine methylbromide; Homatropini methylbromidum; MÃ©thylbromure d'homatropine; Methylhomatropine; Methylhomatropine bromide; Methylhomatropinum bromatum; Metilbromuro de homatropina; Omatropina metilbromuro; Tropinium methobromide mandelate

$$$$
