
 OpenBabel10282417203D

 36 37  0  0  0  0  0  0  0  0999 V2000
    1.0158   -0.0767   -0.0089 C   0  0  0  0  0  0  0  0  0  0  0  0
    1.8613   -2.6541    0.9982 C   0  0  0  0  0  0  0  0  0  0  0  0
   -1.4509   -2.3970   -3.8118 C   0  0  0  0  0  0  0  0  0  0  0  0
   -0.9515   -6.2804   -0.3181 C   0  0  0  0  0  0  0  0  0  0  0  0
    1.2478   -7.4076   -0.5143 C   0  0  0  0  0  0  0  0  0  0  0  0
   -0.4212   -4.9480   -2.9109 C   0  0  0  0  0  0  0  0  0  0  0  0
    0.4421   -6.1070   -2.4658 C   0  0  0  0  0  0  0  0  0  0  0  0
    0.5800   -1.3250   -0.7395 C   0  0  0  0  0  0  0  0  0  0  0  0
    1.0247   -2.5914   -0.2591 C   0  0  0  0  0  0  0  0  0  0  0  0
   -0.5735   -2.4533   -2.5858 C   0  0  0  0  0  0  0  0  0  0  0  0
   -0.0831   -3.6981   -2.1370 C   0  0  0  0  0  0  0  0  0  0  0  0
   -0.2370   -1.2832   -1.8839 C   0  0  0  0  0  0  0  0  0  0  0  0
    0.6735   -3.7719   -0.9519 C   0  0  0  0  0  0  0  0  0  0  0  0
    0.4525   -6.1613   -0.9384 C   0  0  0  0  0  0  0  0  0  0  0  0
   -0.7456   -0.1201   -2.3936 O   0  0  0  0  0  0  0  0  0  0  0  0
    1.1037   -4.9782   -0.4258 O   0  0  0  0  0  0  0  0  0  0  0  0
    0.6320   -0.0802    1.0163 H   0  0  0  0  0  0  0  0  0  0  0  0
    0.6826    0.8544   -0.4688 H   0  0  0  0  0  0  0  0  0  0  0  0
    2.1095   -0.0231    0.0102 H   0  0  0  0  0  0  0  0  0  0  0  0
    2.7801   -2.0722    0.8683 H   0  0  0  0  0  0  0  0  0  0  0  0
    1.2959   -2.2485    1.8446 H   0  0  0  0  0  0  0  0  0  0  0  0
    2.1628   -3.6693    1.2668 H   0  0  0  0  0  0  0  0  0  0  0  0
   -0.9021   -2.7745   -4.6804 H   0  0  0  0  0  0  0  0  0  0  0  0
   -2.3488   -3.0048   -3.6542 H   0  0  0  0  0  0  0  0  0  0  0  0
   -1.7860   -1.3879   -4.0619 H   0  0  0  0  0  0  0  0  0  0  0  0
   -1.4887   -7.1438   -0.7230 H   0  0  0  0  0  0  0  0  0  0  0  0
   -0.8840   -6.3829    0.7702 H   0  0  0  0  0  0  0  0  0  0  0  0
   -1.5639   -5.3894   -0.4876 H   0  0  0  0  0  0  0  0  0  0  0  0
    2.2734   -7.3868   -0.8972 H   0  0  0  0  0  0  0  0  0  0  0  0
    1.3141   -7.4877    0.5759 H   0  0  0  0  0  0  0  0  0  0  0  0
    0.7650   -8.3197   -0.8897 H   0  0  0  0  0  0  0  0  0  0  0  0
   -0.2706   -4.8011   -3.9845 H   0  0  0  0  0  0  0  0  0  0  0  0
   -1.4801   -5.1869   -2.7545 H   0  0  0  0  0  0  0  0  0  0  0  0
    1.4654   -5.9468   -2.8367 H   0  0  0  0  0  0  0  0  0  0  0  0
    0.0760   -7.0390   -2.9098 H   0  0  0  0  0  0  0  0  0  0  0  0
   -0.5214    0.6370   -1.8333 H   0  0  0  0  0  0  0  0  0  0  0  0
  1 17  1  0  0  0  0
  1 18  1  0  0  0  0
  1 19  1  0  0  0  0
  2 20  1  0  0  0  0
  2 21  1  0  0  0  0
  2 22  1  0  0  0  0
  3 23  1  0  0  0  0
  3 24  1  0  0  0  0
  3 25  1  0  0  0  0
  4 26  1  0  0  0  0
  4 27  1  0  0  0  0
  4 28  1  0  0  0  0
  5 29  1  0  0  0  0
  5 30  1  0  0  0  0
  5 31  1  0  0  0  0
  6 32  1  0  0  0  0
  6 33  1  0  0  0  0
  7  6  1  0  0  0  0
  7 34  1  0  0  0  0
  7 35  1  0  0  0  0
  8  1  1  0  0  0  0
  9  2  1  0  0  0  0
  9  8  1  0  0  0  0
 10  3  1  0  0  0  0
 11  6  1  0  0  0  0
 11 10  2  0  0  0  0
 12  8  2  0  0  0  0
 12 10  1  0  0  0  0
 13  9  2  0  0  0  0
 13 11  1  0  0  0  0
 14  4  1  0  0  0  0
 14  5  1  0  0  0  0
 14  7  1  0  0  0  0
 15 12  1  0  0  0  0
 15 36  1  0  0  0  0
 16 13  1  0  0  0  0
 16 14  1  0  0  0  0
M  END
>  <DRUGBANK_ID>
DB13111

>  <COMMON_NAME>
Chromanol

>  <CAS_NUMBER>
950-99-2

>  <UNII>
7G73627R36

$$$$
