
 OpenBabel10282417203D

 47 49  0  0  1  0  0  0  0  0999 V2000
   -0.4437    1.3831    0.4104 C   0  0  0  0  0  0  0  0  0  0  0  0
   -1.1660    0.1301    0.1216 C   0  0  0  0  0  0  0  0  0  0  0  0
   -0.6228   -1.2351    0.3528 C   0  0  2  0  0  0  0  0  0  0  0  0
    0.7949   -1.2355   -0.2199 C   0  0  0  0  0  0  0  0  0  0  0  0
    1.5386   -0.0313    0.2394 N   0  0  0  0  0  0  0  0  0  0  0  0
    0.9222    1.2274   -0.2091 C   0  0  0  0  0  0  0  0  0  0  0  0
   -1.5827   -2.2424   -0.3202 C   0  0  0  0  0  0  0  0  0  0  0  0
   -1.2825   -3.4375   -0.3794 O   0  0  0  0  0  0  0  0  0  0  0  0
   -2.8546   -1.8392   -0.7547 N   0  0  0  0  0  0  0  0  0  0  0  0
   -3.1522   -0.5543   -1.3293 N   0  0  0  0  0  0  0  0  0  0  0  0
   -4.3740   -0.0290   -1.4020 C   0  0  0  0  0  0  0  0  0  0  0  0
   -4.5015    1.1894   -1.2556 O   0  0  0  0  0  0  0  0  0  0  0  0
   -5.4860   -0.9456   -1.6777 C   0  0  2  0  0  0  0  0  0  0  0  0
   -6.4957   -0.8767   -0.5481 C   0  0  0  0  0  0  0  0  0  0  0  0
   -7.7155   -1.7121   -0.9965 C   0  0  0  0  0  0  0  0  0  0  0  0
   -7.2252   -2.9046   -1.7969 C   0  0  2  0  0  0  0  0  0  0  0  0
   -6.3439   -2.5912   -2.9887 C   0  0  0  0  0  0  0  0  0  0  0  0
   -5.2104   -2.3641   -2.2392 N   0  0  0  0  0  0  0  0  0  0  0  0
   -5.3365   -3.9128   -1.5694 C   0  0  0  0  0  0  0  0  0  0  0  0
   -4.3449   -4.6252   -1.6439 O   0  0  0  0  0  0  0  0  0  0  0  0
   -6.9560   -4.2305   -1.8421 N   0  0  0  0  0  0  0  0  0  0  0  0
   -8.1062   -4.7271   -1.1006 O   0  0  0  0  0  0  0  0  0  0  0  0
   -9.4985   -5.1953   -2.0627 S   0  0  0  0  0  0  0  0  0  0  0  0
   -9.9550   -4.1223   -2.9668 O   0  0  0  0  0  0  0  0  0  0  0  0
   -9.2781   -6.5040   -2.5904 O   0  0  0  0  0  0  0  0  0  0  0  0
  -10.7618   -5.3665   -1.0459 O   0  0  0  0  0  0  0  0  0  0  0  0
   -1.0138    2.1914   -0.0768 H   0  0  0  0  0  0  0  0  0  0  0  0
   -0.4523    1.5556    1.4848 H   0  0  0  0  0  0  0  0  0  0  0  0
   -2.1248    0.1920    0.6459 H   0  0  0  0  0  0  0  0  0  0  0  0
   -1.1436    0.1667   -0.9831 H   0  0  0  0  0  0  0  0  0  0  0  0
   -0.6137   -1.4548    1.4259 H   0  0  0  0  0  0  0  0  0  0  0  0
    1.3266   -2.1377    0.1007 H   0  0  0  0  0  0  0  0  0  0  0  0
    0.7744   -1.2629   -1.3190 H   0  0  0  0  0  0  0  0  0  0  0  0
    2.4898   -0.0713   -0.1166 H   0  0  0  0  0  0  0  0  0  0  0  0
    0.8426    1.2337   -1.3074 H   0  0  0  0  0  0  0  0  0  0  0  0
    1.5111    2.0983    0.0787 H   0  0  0  0  0  0  0  0  0  0  0  0
   -3.3342   -2.6070   -1.2322 H   0  0  0  0  0  0  0  0  0  0  0  0
   -2.7157    0.2948   -1.0254 H   0  0  0  0  0  0  0  0  0  0  0  0
   -5.9216   -0.3772   -2.5296 H   0  0  0  0  0  0  0  0  0  0  0  0
   -6.7966    0.1497   -0.2988 H   0  0  0  0  0  0  0  0  0  0  0  0
   -5.9970   -1.2671    0.3528 H   0  0  0  0  0  0  0  0  0  0  0  0
   -8.3049   -1.9857   -0.1151 H   0  0  0  0  0  0  0  0  0  0  0  0
   -8.3211   -1.1570   -1.7048 H   0  0  0  0  0  0  0  0  0  0  0  0
   -6.7312   -3.0140   -0.7450 H   0  0  0  0  0  0  0  0  0  0  0  0
   -6.0259   -3.4181   -3.6551 H   0  0  0  0  0  0  0  0  0  0  0  0
   -6.7066   -1.8078   -3.6380 H   0  0  0  0  0  0  0  0  0  0  0  0
  -11.5125   -5.7952   -1.5305 H   0  0  0  0  0  0  0  0  0  0  0  0
  1  2  1  0  0  0  0
  1  6  1  0  0  0  0
  1 27  1  0  0  0  0
  1 28  1  0  0  0  0
  2  3  1  0  0  0  0
  2 29  1  0  0  0  0
  2 30  1  0  0  0  0
  3  4  1  0  0  0  0
  3 31  1  1  0  0  0
  3  7  1  0  0  0  0
  4  5  1  0  0  0  0
  4 32  1  0  0  0  0
  4 33  1  0  0  0  0
  5  6  1  0  0  0  0
  5 34  1  0  0  0  0
  6 35  1  0  0  0  0
  6 36  1  0  0  0  0
  7  8  2  0  0  0  0
  7  9  1  0  0  0  0
  9 10  1  0  0  0  0
  9 37  1  0  0  0  0
 10 11  1  0  0  0  0
 10 38  1  0  0  0  0
 11 12  2  0  0  0  0
 13 11  1  0  0  0  0
 13 14  1  0  0  0  0
 13 18  1  0  0  0  0
 13 39  1  6  0  0  0
 14 15  1  0  0  0  0
 14 40  1  0  0  0  0
 14 41  1  0  0  0  0
 15 16  1  0  0  0  0
 15 42  1  0  0  0  0
 15 43  1  0  0  0  0
 16 17  1  0  0  0  0
 16 21  1  0  0  0  0
 16 44  1  1  0  0  0
 17 45  1  0  0  0  0
 17 46  1  0  0  0  0
 18 17  1  0  0  0  0
 18 19  1  0  0  0  0
 19 20  2  0  0  0  0
 19 21  1  0  0  0  0
 21 22  1  0  0  0  0
 22 23  1  0  0  0  0
 23 24  2  0  0  0  0
 23 25  2  0  0  0  0
 23 26  1  0  0  0  0
 26 47  1  0  0  0  0
M  END
>  <DRUGBANK_ID>
DB13090

>  <COMMON_NAME>
Zidebactam

>  <CAS_NUMBER>
1436861-97-0

>  <UNII>
YPM97423DB

>  <SYNONYMS>
Zidebactam

$$$$
