Y15
 OpenBabel10282417173D

 69 71  0  0  0  0  0  0  0  0999 V2000
   11.9073   -0.4550    0.5409 C   0  0  0  0  0  0  0  0  0  0  0  0
   12.3060    1.4509   -0.7913 C   0  0  0  0  0  0  0  0  0  0  0  0
   12.2237    1.6166   -2.2974 C   0  0  0  0  0  0  0  0  0  0  0  0
   13.8028   -0.1438   -2.6135 C   0  0  0  0  0  0  0  0  0  0  0  0
   13.8663   -0.3608   -1.0908 C   0  0  0  0  0  0  0  0  0  0  0  0
   12.4091   -0.4097    1.6627 O   0  0  0  0  0  0  0  0  0  0  0  0
   13.4604    1.2253   -2.9282 O   0  0  0  0  0  0  0  0  0  0  0  0
   12.5426    0.0482   -0.5650 N   0  0  0  0  0  0  0  0  0  0  0  0
   10.6861   -1.0235    0.2084 N   0  0  0  0  0  0  0  0  0  0  0  0
    9.8878   -1.8807    1.1169 C   0  0  1  0  0  0  0  0  0  0  0  0
   10.7872   -2.6637    2.1023 C   0  0  0  0  0  0  0  0  0  0  0  0
   11.8634   -3.4872    1.3497 C   0  0  0  0  0  0  0  0  0  0  0  0
   13.3305   -3.0424    1.5686 C   0  0  0  0  0  0  0  0  0  0  0  0
   14.3167   -3.9098    0.8098 C   0  0  0  0  0  0  0  0  0  0  0  0
   14.1619   -5.3496    1.2323 C   0  0  0  0  0  0  0  0  0  0  0  0
   12.7268   -5.8199    1.0209 C   0  0  0  0  0  0  0  0  0  0  0  0
   11.7262   -4.9482    1.7669 C   0  0  0  0  0  0  0  0  0  0  0  0
    8.8814   -1.0391    1.9140 C   0  0  0  0  0  0  0  0  0  0  0  0
    9.3386   -0.0894    2.5413 O   0  0  0  0  0  0  0  0  0  0  0  0
    5.5242   -1.5220    3.4384 C   0  0  0  0  0  0  0  0  0  0  0  0
    5.5919    0.2503    1.7094 C   0  0  0  0  0  0  0  0  0  0  0  0
    7.5112   -1.3719    1.8876 N   0  0  0  0  0  0  0  0  0  0  0  0
    4.5566   -0.8491    4.2665 O   0  0  0  0  0  0  0  0  0  0  0  0
    5.0857   -0.0205    5.3257 C   0  0  0  0  0  0  0  0  0  0  0  0
    5.9995   -0.7904    6.2514 C   0  0  0  0  0  0  0  0  0  0  0  0
    6.8953   -0.1448    7.1101 C   0  0  0  0  0  0  0  0  0  0  0  0
    7.6095   -0.8885    8.0534 C   0  0  0  0  0  0  0  0  0  0  0  0
    7.4774   -2.2776    8.1102 C   0  0  0  0  0  0  0  0  0  0  0  0
    6.6413   -2.9331    7.2232 C   0  0  0  0  0  0  0  0  0  0  0  0
    5.9064   -2.1907    6.3191 C   0  0  0  0  0  0  0  0  0  0  0  0
    7.1899    0.3295    3.6096 C   0  0  0  0  0  0  0  0  0  0  0  0
    7.8204    1.0986    4.3849 N   0  0  0  0  0  0  0  0  0  0  0  0
    6.4299   -0.5976    2.6751 C   0  0  2  0  0  0  0  0  0  0  0  0
    9.3271   -2.5795    0.4846 H   0  0  0  0  0  0  0  0  0  0  0  0
   13.1406    2.0179   -0.3570 H   0  0  0  0  0  0  0  0  0  0  0  0
   11.3861    1.7556   -0.2839 H   0  0  0  0  0  0  0  0  0  0  0  0
   11.4176    0.9850   -2.6925 H   0  0  0  0  0  0  0  0  0  0  0  0
   12.0113    2.6561   -2.5478 H   0  0  0  0  0  0  0  0  0  0  0  0
   14.7547   -0.3751   -3.1030 H   0  0  0  0  0  0  0  0  0  0  0  0
   13.0370   -0.8001   -3.0458 H   0  0  0  0  0  0  0  0  0  0  0  0
   14.6543    0.2738   -0.6579 H   0  0  0  0  0  0  0  0  0  0  0  0
   14.1093   -1.4011   -0.8605 H   0  0  0  0  0  0  0  0  0  0  0  0
   10.1663   -0.4568   -0.4470 H   0  0  0  0  0  0  0  0  0  0  0  0
   11.2453   -1.9947    2.8421 H   0  0  0  0  0  0  0  0  0  0  0  0
   10.1412   -3.3085    2.7138 H   0  0  0  0  0  0  0  0  0  0  0  0
   11.6575   -3.4320    0.2718 H   0  0  0  0  0  0  0  0  0  0  0  0
   13.5621   -2.0658    1.1718 H   0  0  0  0  0  0  0  0  0  0  0  0
   13.5663   -3.0059    2.6380 H   0  0  0  0  0  0  0  0  0  0  0  0
   15.3353   -3.5506    0.9977 H   0  0  0  0  0  0  0  0  0  0  0  0
   14.1391   -3.8029   -0.2691 H   0  0  0  0  0  0  0  0  0  0  0  0
   14.4296   -5.4334    2.2920 H   0  0  0  0  0  0  0  0  0  0  0  0
   14.8553   -5.9688    0.6581 H   0  0  0  0  0  0  0  0  0  0  0  0
   12.6259   -6.8528    1.3594 H   0  0  0  0  0  0  0  0  0  0  0  0
   12.4891   -5.7917   -0.0502 H   0  0  0  0  0  0  0  0  0  0  0  0
   11.8858   -5.0313    2.8492 H   0  0  0  0  0  0  0  0  0  0  0  0
   10.7069   -5.2950    1.5593 H   0  0  0  0  0  0  0  0  0  0  0  0
    4.9506   -2.1558    2.7503 H   0  0  0  0  0  0  0  0  0  0  0  0
    6.1688   -2.2216    3.9702 H   0  0  0  0  0  0  0  0  0  0  0  0
    4.9772   -0.3890    1.0646 H   0  0  0  0  0  0  0  0  0  0  0  0
    4.9127    0.9190    2.2535 H   0  0  0  0  0  0  0  0  0  0  0  0
    6.2182    0.8709    1.0611 H   0  0  0  0  0  0  0  0  0  0  0  0
    7.1910   -2.0986    1.2610 H   0  0  0  0  0  0  0  0  0  0  0  0
    5.5025    0.8960    4.8992 H   0  0  0  0  0  0  0  0  0  0  0  0
    4.2566    0.3864    5.9075 H   0  0  0  0  0  0  0  0  0  0  0  0
    7.0475    0.9334    7.0583 H   0  0  0  0  0  0  0  0  0  0  0  0
    8.2541   -0.3798    8.7646 H   0  0  0  0  0  0  0  0  0  0  0  0
    8.0144   -2.8539    8.8549 H   0  0  0  0  0  0  0  0  0  0  0  0
    6.5094   -4.0092    7.2462 H   0  0  0  0  0  0  0  0  0  0  0  0
    5.2530   -2.7424    5.6491 H   0  0  0  0  0  0  0  0  0  0  0  0
  1  6  2  0  0  0  0
  2 35  1  0  0  0  0
  2 36  1  0  0  0  0
  3  2  1  0  0  0  0
  3 37  1  0  0  0  0
  3 38  1  0  0  0  0
  4  7  1  0  0  0  0
  4  5  1  0  0  0  0
  4 39  1  0  0  0  0
  4 40  1  0  0  0  0
  5  8  1  0  0  0  0
  5 41  1  0  0  0  0
  5 42  1  0  0  0  0
  7  3  1  0  0  0  0
  8  2  1  0  0  0  0
  8  1  1  0  0  0  0
  9  1  1  0  0  0  0
  9 43  1  0  0  0  0
 10  9  1  0  0  0  0
 10 18  1  0  0  0  0
 10 34  1  6  0  0  0
 11 10  1  0  0  0  0
 11 44  1  0  0  0  0
 11 45  1  0  0  0  0
 12 11  1  0  0  0  0
 12 17  1  0  0  0  0
 12 46  1  0  0  0  0
 13 12  1  0  0  0  0
 13 47  1  0  0  0  0
 13 48  1  0  0  0  0
 14 13  1  0  0  0  0
 14 15  1  0  0  0  0
 14 49  1  0  0  0  0
 14 50  1  0  0  0  0
 15 16  1  0  0  0  0
 15 51  1  0  0  0  0
 15 52  1  0  0  0  0
 16 17  1  0  0  0  0
 16 53  1  0  0  0  0
 16 54  1  0  0  0  0
 17 55  1  0  0  0  0
 17 56  1  0  0  0  0
 18 22  1  0  0  0  0
 19 18  2  0  0  0  0
 20 23  1  0  0  0  0
 20 57  1  0  0  0  0
 20 58  1  0  0  0  0
 21 59  1  0  0  0  0
 21 60  1  0  0  0  0
 21 61  1  0  0  0  0
 22 62  1  0  0  0  0
 23 24  1  0  0  0  0
 24 25  1  0  0  0  0
 24 63  1  0  0  0  0
 24 64  1  0  0  0  0
 25 26  1  0  0  0  0
 26 27  2  0  0  0  0
 26 65  1  0  0  0  0
 27 66  1  0  0  0  0
 28 27  1  0  0  0  0
 28 67  1  0  0  0  0
 29 28  2  0  0  0  0
 29 68  1  0  0  0  0
 30 25  2  0  0  0  0
 30 29  1  0  0  0  0
 30 69  1  0  0  0  0
 31 32  3  0  0  0  0
 33 31  1  1  0  0  0
 33 20  1  0  0  0  0
 33 22  1  0  0  0  0
 33 21  1  0  0  0  0
M  END
>  <DRUGBANK_ID>
DB08755

>  <COMMON_NAME>
N-[(1S)-2-{[(1R)-2-(benzyloxy)-1-cyano-1-methylethyl]amino}-1-(cyclohexylmethyl)-2-oxoethyl]morpholine-4-carboxamide

$$$$
