
 OpenBabel10282417183D

 57 61  0  0  0  0  0  0  0  0999 V2000
   -0.9365    6.6899   -1.2007 C   0  0  2  0  0  0  0  0  0  0  0  0
    0.1044    6.6153   -0.0837 C   0  0  0  0  0  0  0  0  0  0  0  0
   -2.1382    7.5951   -0.8693 C   0  0  2  0  0  0  0  0  0  0  0  0
   -1.3733    5.3791   -1.5873 O   0  0  0  0  0  0  0  0  0  0  0  0
   -0.2161    6.1001    1.1879 C   0  0  0  0  0  0  0  0  0  0  0  0
    1.4081    7.0672   -0.2930 C   0  0  0  0  0  0  0  0  0  0  0  0
   -2.9206    7.0832    0.2152 O   0  0  0  0  0  0  0  0  0  0  0  0
   -3.0834    7.7611   -2.0654 C   0  0  0  0  0  0  0  0  0  0  0  0
   -2.4008    4.9200   -0.8057 C   0  0  0  0  0  0  0  0  0  0  0  0
    0.6920    6.0211    2.2294 C   0  0  0  0  0  0  0  0  0  0  0  0
    2.3411    7.0082    0.7460 C   0  0  0  0  0  0  0  0  0  0  0  0
   -3.1262    5.7347    0.0801 C   0  0  0  0  0  0  0  0  0  0  0  0
   -2.4408    8.3868   -3.1625 O   0  0  0  0  0  0  0  0  0  0  0  0
   -2.5876    3.5491   -0.8255 C   0  0  0  0  0  0  0  0  0  0  0  0
    1.9773    6.4910    1.9902 C   0  0  0  0  0  0  0  0  0  0  0  0
    0.4042    5.5157    3.4727 O   0  0  0  0  0  0  0  0  0  0  0  0
   -3.9975    5.1787    0.9903 C   0  0  0  0  0  0  0  0  0  0  0  0
   -3.4215    2.9653    0.1276 C   0  0  0  0  0  0  0  0  0  0  0  0
    2.9181    6.4569    2.9801 O   0  0  0  0  0  0  0  0  0  0  0  0
   -0.9294    5.0226    3.6644 C   0  0  0  0  0  0  0  0  0  0  0  0
   -4.1664    3.8058    0.9883 C   0  0  0  0  0  0  0  0  0  0  0  0
   -3.3241    1.4596    0.3235 C   0  0  1  0  0  0  0  0  0  0  0  0
   -1.9202    1.1646    0.5812 O   0  0  0  0  0  0  0  0  0  0  0  0
   -4.3390    0.9544    1.3646 C   0  0  2  0  0  0  0  0  0  0  0  0
   -1.5691    0.6703    1.7978 C   0  0  0  0  0  0  0  0  0  0  0  0
   -3.7336    1.2728    2.7085 C   0  0  0  0  0  0  0  0  0  0  0  0
   -4.6275   -0.4289    1.1953 O   0  0  0  0  0  0  0  0  0  0  0  0
   -2.4065    0.7209    2.9015 C   0  0  0  0  0  0  0  0  0  0  0  0
   -0.3101    0.0849    1.9251 C   0  0  0  0  0  0  0  0  0  0  0  0
   -4.2929    1.8806    3.6240 O   0  0  0  0  0  0  0  0  0  0  0  0
   -2.0369    0.1650    4.1191 C   0  0  0  0  0  0  0  0  0  0  0  0
    0.0637   -0.4752    3.1468 C   0  0  0  0  0  0  0  0  0  0  0  0
   -0.7938   -0.4406    4.2470 C   0  0  0  0  0  0  0  0  0  0  0  0
   -2.8860    0.1456    5.1898 O   0  0  0  0  0  0  0  0  0  0  0  0
    1.2898   -1.0683    3.2240 O   0  0  0  0  0  0  0  0  0  0  0  0
   -3.5128    0.9357   -0.6214 H   0  0  0  0  0  0  0  0  0  0  0  0
   -0.4407    7.0994   -2.0894 H   0  0  0  0  0  0  0  0  0  0  0  0
   -1.7590    8.5783   -0.5636 H   0  0  0  0  0  0  0  0  0  0  0  0
   -1.2092    5.7452    1.3835 H   0  0  0  0  0  0  0  0  0  0  0  0
    1.7067    7.4669   -1.2595 H   0  0  0  0  0  0  0  0  0  0  0  0
   -3.4714    6.7947   -2.4066 H   0  0  0  0  0  0  0  0  0  0  0  0
   -3.9621    8.3438   -1.7677 H   0  0  0  0  0  0  0  0  0  0  0  0
    3.3535    7.3635    0.5844 H   0  0  0  0  0  0  0  0  0  0  0  0
   -2.1578    9.2690   -2.8712 H   0  0  0  0  0  0  0  0  0  0  0  0
   -1.9827    2.9353   -1.4904 H   0  0  0  0  0  0  0  0  0  0  0  0
   -4.4778    5.7890    1.7505 H   0  0  0  0  0  0  0  0  0  0  0  0
    2.4592    6.0640    3.7476 H   0  0  0  0  0  0  0  0  0  0  0  0
   -1.6704    5.8253    3.5598 H   0  0  0  0  0  0  0  0  0  0  0  0
   -1.1569    4.1937    2.9818 H   0  0  0  0  0  0  0  0  0  0  0  0
   -1.0100    4.6362    4.6840 H   0  0  0  0  0  0  0  0  0  0  0  0
   -4.8525    3.4333    1.7425 H   0  0  0  0  0  0  0  0  0  0  0  0
   -5.3028    1.4649    1.2583 H   0  0  0  0  0  0  0  0  0  0  0  0
   -4.4346   -0.8948    2.0270 H   0  0  0  0  0  0  0  0  0  0  0  0
    0.3729    0.0438    1.0790 H   0  0  0  0  0  0  0  0  0  0  0  0
   -0.5154   -0.8787    5.1985 H   0  0  0  0  0  0  0  0  0  0  0  0
   -3.6552    0.7255    4.9908 H   0  0  0  0  0  0  0  0  0  0  0  0
    1.4294   -1.4017    4.1266 H   0  0  0  0  0  0  0  0  0  0  0  0
  1  3  1  0  0  0  0
  1  4  1  0  0  0  0
  1 37  1  6  0  0  0
  1  2  1  0  0  0  0
  2  5  2  0  0  0  0
  2  6  1  0  0  0  0
  3  7  1  0  0  0  0
  3 38  1  1  0  0  0
  3  8  1  0  0  0  0
  4  9  1  0  0  0  0
  5 10  1  0  0  0  0
  5 39  1  0  0  0  0
  6 11  2  0  0  0  0
  6 40  1  0  0  0  0
  7 12  1  0  0  0  0
  8 13  1  0  0  0  0
  8 41  1  0  0  0  0
  8 42  1  0  0  0  0
  9 14  1  0  0  0  0
  9 12  2  0  0  0  0
 10 15  2  0  0  0  0
 10 16  1  0  0  0  0
 11 15  1  0  0  0  0
 11 43  1  0  0  0  0
 12 17  1  0  0  0  0
 13 44  1  0  0  0  0
 14 18  2  0  0  0  0
 14 45  1  0  0  0  0
 15 19  1  0  0  0  0
 16 20  1  0  0  0  0
 17 21  2  0  0  0  0
 17 46  1  0  0  0  0
 18 21  1  0  0  0  0
 19 47  1  0  0  0  0
 20 48  1  0  0  0  0
 20 49  1  0  0  0  0
 20 50  1  0  0  0  0
 21 51  1  0  0  0  0
 22 23  1  0  0  0  0
 22 24  1  0  0  0  0
 22 36  1  6  0  0  0
 22 18  1  0  0  0  0
 23 25  1  0  0  0  0
 24 26  1  0  0  0  0
 24 52  1  6  0  0  0
 24 27  1  0  0  0  0
 25 28  2  0  0  0  0
 25 29  1  0  0  0  0
 26 30  2  0  0  0  0
 26 28  1  0  0  0  0
 27 53  1  0  0  0  0
 28 31  1  0  0  0  0
 29 32  2  0  0  0  0
 29 54  1  0  0  0  0
 31 33  2  0  0  0  0
 31 34  1  0  0  0  0
 32 35  1  0  0  0  0
 32 33  1  0  0  0  0
 33 55  1  0  0  0  0
 34 56  1  0  0  0  0
 35 57  1  0  0  0  0
M  END
>  <DRUGBANK_ID>
DB09298

>  <COMMON_NAME>
Silibinin

>  <CAS_NUMBER>
22888-70-6

>  <UNII>
33X338MNE4

>  <SYNONYMS>
Silibinin; Silibinin A; Silibinina; Silibinine; Silibininum; Silybin A; Silybin A (constituent of milk thistle); Silymarin I

$$$$
