311
 OpenBabel10282417163D

 47 49  0  0  0  0  0  0  0  0999 V2000
    0.1264    1.2491    0.4010 C   0  0  0  0  0  0  0  0  0  0  0  0
   -2.2427    8.4063    1.0061 C   0  0  0  0  0  0  0  0  0  0  0  0
   -1.0375    3.4280   -1.3017 C   0  0  0  0  0  0  0  0  0  0  0  0
   -0.8101    5.7330   -1.2115 C   0  0  0  0  0  0  0  0  0  0  0  0
   -1.3797    7.0078   -0.7705 C   0  0  0  0  0  0  0  0  0  0  0  0
   -1.8272    2.2063   -0.9312 C   0  0  0  0  0  0  0  0  0  0  0  0
    0.9446   -0.0054    0.0135 C   0  0  0  0  0  0  0  0  0  0  0  0
    0.1617   -1.2794    0.3984 C   0  0  0  0  0  0  0  0  0  0  0  0
   -2.0046    0.0043    0.1963 C   0  0  0  0  0  0  0  0  0  0  0  0
   -3.2301   10.6687    0.5874 C   0  0  0  0  0  0  0  0  0  0  0  0
    1.2301   -0.0091   -1.4995 C   0  0  0  0  0  0  0  0  0  0  0  0
    2.2952    0.0100    0.7435 C   0  0  0  0  0  0  0  0  0  0  0  0
    0.8707    4.4470   -2.3310 C   0  0  0  0  0  0  0  0  0  0  0  0
    0.3947    5.6799   -1.9094 C   0  0  0  0  0  0  0  0  0  0  0  0
    0.1207    3.3096   -2.0607 C   0  0  0  0  0  0  0  0  0  0  0  0
   -2.2663    9.2317   -1.2514 C   0  0  0  0  0  0  0  0  0  0  0  0
   -1.6704    8.0407   -1.6808 C   0  0  0  0  0  0  0  0  0  0  0  0
   -1.6618    7.2166    0.5845 C   0  0  0  0  0  0  0  0  0  0  0  0
   -1.2574   -1.2764   -0.1733 C   0  0  0  0  0  0  0  0  0  0  0  0
   -2.5639    9.4197    0.1014 C   0  0  0  0  0  0  0  0  0  0  0  0
   -1.5170    4.6226   -0.8767 N   0  0  0  0  0  0  0  0  0  0  0  0
   -1.2238    1.1925   -0.1676 N   0  0  0  0  0  0  0  0  0  0  0  0
   -2.9863    2.1189   -1.3460 O   0  0  0  0  0  0  0  0  0  0  0  0
   -2.5029    8.5704    2.3110 F   0  0  0  0  0  0  0  0  0  0  0  0
    0.0177    1.3294    1.4903 H   0  0  0  0  0  0  0  0  0  0  0  0
    0.6573    2.1493    0.0912 H   0  0  0  0  0  0  0  0  0  0  0  0
    0.6927   -2.1709    0.0418 H   0  0  0  0  0  0  0  0  0  0  0  0
    0.1049   -1.3654    1.4915 H   0  0  0  0  0  0  0  0  0  0  0  0
   -2.9842    0.0035   -0.2922 H   0  0  0  0  0  0  0  0  0  0  0  0
   -2.1825    0.0346    1.2788 H   0  0  0  0  0  0  0  0  0  0  0  0
   -4.1921   10.4251    1.0502 H   0  0  0  0  0  0  0  0  0  0  0  0
   -2.5946   11.1756    1.3200 H   0  0  0  0  0  0  0  0  0  0  0  0
   -3.4206   11.3662   -0.2346 H   0  0  0  0  0  0  0  0  0  0  0  0
    0.3114    0.0346   -2.0936 H   0  0  0  0  0  0  0  0  0  0  0  0
    1.8484    0.8503   -1.7765 H   0  0  0  0  0  0  0  0  0  0  0  0
    1.7734   -0.9097   -1.8008 H   0  0  0  0  0  0  0  0  0  0  0  0
    2.8905    0.8818    0.4485 H   0  0  0  0  0  0  0  0  0  0  0  0
    2.1650    0.0447    1.8299 H   0  0  0  0  0  0  0  0  0  0  0  0
    2.8776   -0.8865    0.5022 H   0  0  0  0  0  0  0  0  0  0  0  0
    1.8122    4.3736   -2.8676 H   0  0  0  0  0  0  0  0  0  0  0  0
    0.9575    6.5851   -2.1159 H   0  0  0  0  0  0  0  0  0  0  0  0
    0.4481    2.3473   -2.4209 H   0  0  0  0  0  0  0  0  0  0  0  0
   -2.5104    9.9995   -1.9824 H   0  0  0  0  0  0  0  0  0  0  0  0
   -1.4616    7.9128   -2.7420 H   0  0  0  0  0  0  0  0  0  0  0  0
   -1.4362    6.4472    1.3175 H   0  0  0  0  0  0  0  0  0  0  0  0
   -1.2142   -1.3669   -1.2649 H   0  0  0  0  0  0  0  0  0  0  0  0
   -1.8021   -2.1553    0.1890 H   0  0  0  0  0  0  0  0  0  0  0  0
  1  7  1  0  0  0  0
  1 22  1  0  0  0  0
  1 25  1  0  0  0  0
  1 26  1  0  0  0  0
  2 18  2  0  0  0  0
  2 20  1  0  0  0  0
  2 24  1  0  0  0  0
  3  6  1  0  0  0  0
  3 15  2  0  0  0  0
  3 21  1  0  0  0  0
  4  5  1  0  0  0  0
  4 14  1  0  0  0  0
  4 21  2  0  0  0  0
  5 17  2  0  0  0  0
  5 18  1  0  0  0  0
  6 22  1  0  0  0  0
  6 23  2  0  0  0  0
  7  8  1  0  0  0  0
  7 11  1  0  0  0  0
  7 12  1  0  0  0  0
  8 19  1  0  0  0  0
  8 27  1  0  0  0  0
  8 28  1  0  0  0  0
  9 19  1  0  0  0  0
  9 22  1  0  0  0  0
  9 29  1  0  0  0  0
  9 30  1  0  0  0  0
 10 20  1  0  0  0  0
 10 31  1  0  0  0  0
 10 32  1  0  0  0  0
 10 33  1  0  0  0  0
 11 34  1  0  0  0  0
 11 35  1  0  0  0  0
 11 36  1  0  0  0  0
 12 37  1  0  0  0  0
 12 38  1  0  0  0  0
 12 39  1  0  0  0  0
 13 14  2  0  0  0  0
 13 15  1  0  0  0  0
 13 40  1  0  0  0  0
 14 41  1  0  0  0  0
 15 42  1  0  0  0  0
 16 17  1  0  0  0  0
 16 20  2  0  0  0  0
 16 43  1  0  0  0  0
 17 44  1  0  0  0  0
 18 45  1  0  0  0  0
 19 46  1  0  0  0  0
 19 47  1  0  0  0  0
M  END
>  <DRUGBANK_ID>
DB06992

>  <COMMON_NAME>
(3,3-dimethylpiperidin-1-yl)(6-(3-fluoro-4-methylphenyl)pyridin-2-yl)methanone

$$$$
