
 OpenBabel10282417203D

 50 53  0  0  1  0  0  0  0  0999 V2000
    3.0016    1.1771    0.0603 C   0  0  0  0  0  0  0  0  0  0  0  0
    3.4167   -0.1492    0.0104 C   0  0  0  0  0  0  0  0  0  0  0  0
    1.6459    1.4777    0.0711 C   0  0  0  0  0  0  0  0  0  0  0  0
    2.4919   -1.2100   -0.0307 C   0  0  0  0  0  0  0  0  0  0  0  0
   -8.7369    4.1737   -0.9791 C   0  0  0  0  0  0  0  0  0  0  0  0
   -6.9214    5.7431   -0.6434 C   0  0  0  0  0  0  0  0  0  0  0  0
   -3.4218   -0.0886    0.2294 C   0  0  0  0  0  0  0  0  0  0  0  0
   -7.8145    3.1428   -1.1325 C   0  0  0  0  0  0  0  0  0  0  0  0
   -5.9980    4.6985   -0.6816 C   0  0  0  0  0  0  0  0  0  0  0  0
   -2.5809   -1.1893   -0.4463 C   0  0  0  0  0  0  0  0  0  0  0  0
   -0.6660   -3.7506    1.2278 C   0  0  0  0  0  0  0  0  0  0  0  0
   -0.0886   -3.1395   -0.0523 C   0  0  0  0  0  0  0  0  0  0  0  0
   -1.6162    1.6286    0.0187 C   0  0  0  0  0  0  0  0  0  0  0  0
   -8.2785    5.4731   -0.7990 C   0  0  0  0  0  0  0  0  0  0  0  0
   -3.0199    1.2150   -0.4589 C   0  0  2  0  0  0  0  0  0  0  0  0
   -6.4466    3.4147   -0.9981 C   0  0  0  0  0  0  0  0  0  0  0  0
    0.7035    0.4370    0.0051 C   0  0  0  0  0  0  0  0  0  0  0  0
   -0.6996    0.4489   -0.0478 C   0  0  0  0  0  0  0  0  0  0  0  0
    1.1165   -0.9002   -0.0418 C   0  0  0  0  0  0  0  0  0  0  0  0
   -1.1366   -0.8523   -0.2169 C   0  0  0  0  0  0  0  0  0  0  0  0
   -2.0987   -3.4343    1.5301 C   0  0  0  0  0  0  0  0  0  0  0  0
   -9.1559    6.4840   -0.7856 F   0  0  0  0  0  0  0  0  0  0  0  0
   -4.0405    2.2783   -0.2335 N   0  0  0  0  0  0  0  0  0  0  0  0
   -0.0417   -1.6827   -0.0893 N   0  0  0  0  0  0  0  0  0  0  0  0
   -3.0685   -4.0725    1.1546 O   0  0  0  0  0  0  0  0  0  0  0  0
   -2.2454   -2.2679    2.1902 O   0  0  0  0  0  0  0  0  0  0  0  0
   -4.7265    2.4289   -2.6667 O   0  0  0  0  0  0  0  0  0  0  0  0
   -5.9770    0.8680   -1.1260 O   0  0  0  0  0  0  0  0  0  0  0  0
   -5.3108    2.1183   -1.3726 S   0  0  0  0  0  0  0  0  0  0  0  0
   -2.9351    1.0369   -1.5394 H   0  0  0  0  0  0  0  0  0  0  0  0
    3.7240    1.9884    0.0835 H   0  0  0  0  0  0  0  0  0  0  0  0
    4.4837   -0.3616   -0.0004 H   0  0  0  0  0  0  0  0  0  0  0  0
    1.3089    2.5092    0.1007 H   0  0  0  0  0  0  0  0  0  0  0  0
    2.8548   -2.2316   -0.0718 H   0  0  0  0  0  0  0  0  0  0  0  0
   -9.8026    3.9765   -1.0281 H   0  0  0  0  0  0  0  0  0  0  0  0
   -6.5944    6.7689   -0.5061 H   0  0  0  0  0  0  0  0  0  0  0  0
   -4.4804   -0.3351    0.1550 H   0  0  0  0  0  0  0  0  0  0  0  0
   -3.2242    0.0085    1.3087 H   0  0  0  0  0  0  0  0  0  0  0  0
   -8.1612    2.1417   -1.3840 H   0  0  0  0  0  0  0  0  0  0  0  0
   -4.9500    4.9102   -0.5013 H   0  0  0  0  0  0  0  0  0  0  0  0
   -2.7841   -1.2227   -1.5217 H   0  0  0  0  0  0  0  0  0  0  0  0
   -2.9238   -2.1519   -0.1091 H   0  0  0  0  0  0  0  0  0  0  0  0
   -0.6168   -4.8429    1.1516 H   0  0  0  0  0  0  0  0  0  0  0  0
   -0.0739   -3.4617    2.1001 H   0  0  0  0  0  0  0  0  0  0  0  0
   -0.6124   -3.4714   -0.9566 H   0  0  0  0  0  0  0  0  0  0  0  0
    0.9427   -3.5034   -0.1461 H   0  0  0  0  0  0  0  0  0  0  0  0
   -1.2306    2.4361   -0.6123 H   0  0  0  0  0  0  0  0  0  0  0  0
   -1.6444    2.0007    1.0509 H   0  0  0  0  0  0  0  0  0  0  0  0
   -3.6033    3.1930   -0.3422 H   0  0  0  0  0  0  0  0  0  0  0  0
   -3.1782   -1.9995    2.0448 H   0  0  0  0  0  0  0  0  0  0  0  0
  1 31  1  0  0  0  0
  2  1  2  0  0  0  0
  2 32  1  0  0  0  0
  3  1  1  0  0  0  0
  3 33  1  0  0  0  0
  4  2  1  0  0  0  0
  4 34  1  0  0  0  0
  5 35  1  0  0  0  0
  6 36  1  0  0  0  0
  7 37  1  0  0  0  0
  7 38  1  0  0  0  0
  8  5  1  0  0  0  0
  8 39  1  0  0  0  0
  9  6  2  0  0  0  0
  9 40  1  0  0  0  0
 10  7  1  0  0  0  0
 10 41  1  0  0  0  0
 10 42  1  0  0  0  0
 11 43  1  0  0  0  0
 11 44  1  0  0  0  0
 12 11  1  0  0  0  0
 12 45  1  0  0  0  0
 12 46  1  0  0  0  0
 13 47  1  0  0  0  0
 13 48  1  0  0  0  0
 14  5  2  0  0  0  0
 14  6  1  0  0  0  0
 15  7  1  0  0  0  0
 15 13  1  0  0  0  0
 15 30  1  6  0  0  0
 15 23  1  0  0  0  0
 16  8  2  0  0  0  0
 16  9  1  0  0  0  0
 17  3  2  0  0  0  0
 18 13  1  0  0  0  0
 18 17  1  0  0  0  0
 19  4  2  0  0  0  0
 19 17  1  0  0  0  0
 20 10  1  0  0  0  0
 20 18  2  0  0  0  0
 21 11  1  0  0  0  0
 22 14  1  0  0  0  0
 23 49  1  0  0  0  0
 24 12  1  0  0  0  0
 24 19  1  0  0  0  0
 24 20  1  0  0  0  0
 25 21  2  0  0  0  0
 26 21  1  0  0  0  0
 26 50  1  0  0  0  0
 29 16  1  0  0  0  0
 29 23  1  0  0  0  0
 29 27  2  0  0  0  0
 29 28  2  0  0  0  0
M  END
>  <DRUGBANK_ID>
DB13036

>  <COMMON_NAME>
Ramatroban

>  <CAS_NUMBER>
116649-85-5

>  <UNII>
P1ALI72U6C

>  <SYNONYMS>
Ramatroban

$$$$
