
 OpenBabel10282417193D

 58 59  0  0  1  0  0  0  0  0999 V2000
    3.4201    6.1641   -2.6835 B   0  0  0  0  0  0  0  0  0  0  0  0
    2.4071    5.4185   -1.6947 C   0  0  2  0  0  0  0  0  0  0  0  0
    2.4243    6.1058   -0.3390 C   0  0  0  0  0  0  0  0  0  0  0  0
    3.8847    6.3649   -0.0069 C   0  0  0  0  0  0  0  0  0  0  0  0
    4.4912    7.2734   -1.0639 C   0  0  0  0  0  0  0  0  0  0  0  0
    3.9837    7.0345    1.3540 C   0  0  0  0  0  0  0  0  0  0  0  0
    2.8182    4.0159   -1.5382 N   0  0  0  0  0  0  0  0  0  0  0  0
    1.9018    2.9337   -1.9256 C   0  0  0  0  0  0  0  0  0  0  0  0
    2.2573    1.7211   -1.7903 O   0  0  0  0  0  0  0  0  0  0  0  0
    0.5434    3.2799   -2.5130 C   0  0  2  0  0  0  0  0  0  0  0  0
   -0.5333    3.0626   -1.4623 C   0  0  1  0  0  0  0  0  0  0  0  0
   -0.9692    4.4047   -0.8974 C   0  0  0  0  0  0  0  0  0  0  0  0
   -1.6506    2.4097   -2.0470 O   0  0  0  0  0  0  0  0  0  0  0  0
    0.2770    2.4174   -3.6732 N   0  0  0  0  0  0  0  0  0  0  0  0
    0.0566    3.0149   -4.9981 C   0  0  0  0  0  0  0  0  0  0  0  0
   -0.1736    2.2692   -6.0011 O   0  0  0  0  0  0  0  0  0  0  0  0
    0.1041    4.5246   -5.1684 C   0  0  0  0  0  0  0  0  0  0  0  0
    1.1286    5.2286   -4.5668 C   0  0  0  0  0  0  0  0  0  0  0  0
    1.1573    6.6217   -4.6687 C   0  0  0  0  0  0  0  0  0  0  0  0
    0.1466    7.2353   -5.3978 C   0  0  0  0  0  0  0  0  0  0  0  0
   -0.8230    6.4557   -5.9857 C   0  0  0  0  0  0  0  0  0  0  0  0
   -0.8675    5.1246   -5.8737 N   0  0  0  0  0  0  0  0  0  0  0  0
   -1.9009    7.1452   -6.8062 C   0  0  0  0  0  0  0  0  0  0  0  0
   -1.5945    7.8748   -7.8726 C   0  0  0  0  0  0  0  0  0  0  0  0
   -2.5839    8.4086   -8.6625 C   0  0  0  0  0  0  0  0  0  0  0  0
   -3.9018    8.2802   -8.3218 C   0  0  0  0  0  0  0  0  0  0  0  0
   -4.1698    7.4876   -7.2999 C   0  0  0  0  0  0  0  0  0  0  0  0
   -3.2096    7.0273   -6.3681 C   0  0  0  0  0  0  0  0  0  0  0  0
    3.8099    5.3135   -3.8559 O   0  0  0  0  0  0  0  0  0  0  0  0
    4.1343    7.4576   -2.4250 O   0  0  0  0  0  0  0  0  0  0  0  0
    1.4182    5.4570   -2.1016 H   0  0  0  0  0  0  0  0  0  0  0  0
    1.8928    7.0342   -0.3588 H   0  0  0  0  0  0  0  0  0  0  0  0
    1.9973    5.4662    0.4050 H   0  0  0  0  0  0  0  0  0  0  0  0
    4.4162    5.4364    0.0129 H   0  0  0  0  0  0  0  0  0  0  0  0
    3.9598    8.2019   -1.0837 H   0  0  0  0  0  0  0  0  0  0  0  0
    5.5193    7.4558   -0.8301 H   0  0  0  0  0  0  0  0  0  0  0  0
    4.4215    6.8020   -2.0219 H   0  0  0  0  0  0  0  0  0  0  0  0
    3.5568    6.3950    2.0981 H   0  0  0  0  0  0  0  0  0  0  0  0
    5.0118    7.2169    1.5878 H   0  0  0  0  0  0  0  0  0  0  0  0
    3.4523    7.9630    1.3342 H   0  0  0  0  0  0  0  0  0  0  0  0
    3.7394    3.7935   -1.1609 H   0  0  0  0  0  0  0  0  0  0  0  0
    0.5389    4.3044   -2.8217 H   0  0  0  0  0  0  0  0  0  0  0  0
   -0.1375    2.4558   -0.6749 H   0  0  0  0  0  0  0  0  0  0  0  0
   -1.3651    5.0115   -1.6848 H   0  0  0  0  0  0  0  0  0  0  0  0
   -1.7221    4.2507   -0.1529 H   0  0  0  0  0  0  0  0  0  0  0  0
   -0.1273    4.8966   -0.4568 H   0  0  0  0  0  0  0  0  0  0  0  0
   -2.0205    2.9768   -2.7829 H   0  0  0  0  0  0  0  0  0  0  0  0
    0.2452    1.4043   -3.5589 H   0  0  0  0  0  0  0  0  0  0  0  0
    1.8942    4.7114   -4.0271 H   0  0  0  0  0  0  0  0  0  0  0  0
    1.9303    7.1955   -4.2017 H   0  0  0  0  0  0  0  0  0  0  0  0
    0.1223    8.3001   -5.5008 H   0  0  0  0  0  0  0  0  0  0  0  0
   -0.5679    8.0486   -8.1188 H   0  0  0  0  0  0  0  0  0  0  0  0
   -2.3193    8.9323   -9.5573 H   0  0  0  0  0  0  0  0  0  0  0  0
   -4.6745    8.7942   -8.8544 H   0  0  0  0  0  0  0  0  0  0  0  0
   -5.1834    7.1717   -7.1674 H   0  0  0  0  0  0  0  0  0  0  0  0
   -3.4708    6.6247   -5.4118 H   0  0  0  0  0  0  0  0  0  0  0  0
    3.2367    4.4944   -3.8786 H   0  0  0  0  0  0  0  0  0  0  0  0
    3.7509    7.8930   -1.6105 H   0  0  0  0  0  0  0  0  0  0  0  0
  1 29  1  0  0  0  0
  1 30  1  0  0  0  0
  2  7  1  0  0  0  0
  2 31  1  6  0  0  0
  2  3  1  0  0  0  0
  2  1  1  0  0  0  0
  3  4  1  0  0  0  0
  3 32  1  0  0  0  0
  3 33  1  0  0  0  0
  4  5  1  0  0  0  0
  4  6  1  0  0  0  0
  4 34  1  0  0  0  0
  5 35  1  0  0  0  0
  5 36  1  0  0  0  0
  5 37  1  0  0  0  0
  6 38  1  0  0  0  0
  6 39  1  0  0  0  0
  6 40  1  0  0  0  0
  7  8  1  0  0  0  0
  7 41  1  0  0  0  0
  8  9  2  0  0  0  0
 10 14  1  0  0  0  0
 10 42  1  6  0  0  0
 10 11  1  0  0  0  0
 10  8  1  0  0  0  0
 11 12  1  0  0  0  0
 11 13  1  0  0  0  0
 11 43  1  1  0  0  0
 12 44  1  0  0  0  0
 12 45  1  0  0  0  0
 12 46  1  0  0  0  0
 13 47  1  0  0  0  0
 14 15  1  0  0  0  0
 14 48  1  0  0  0  0
 15 16  2  0  0  0  0
 15 17  1  0  0  0  0
 17 18  2  0  0  0  0
 17 22  1  0  0  0  0
 18 19  1  0  0  0  0
 18 49  1  0  0  0  0
 19 20  2  0  0  0  0
 19 50  1  0  0  0  0
 20 21  1  0  0  0  0
 20 51  1  0  0  0  0
 21 22  2  0  0  0  0
 21 23  1  0  0  0  0
 23 24  2  0  0  0  0
 23 28  1  0  0  0  0
 24 25  1  0  0  0  0
 24 52  1  0  0  0  0
 25 26  2  0  0  0  0
 25 53  1  0  0  0  0
 26 27  1  0  0  0  0
 26 54  1  0  0  0  0
 27 28  2  0  0  0  0
 27 55  1  0  0  0  0
 28 56  1  0  0  0  0
 29 57  1  0  0  0  0
 30 58  1  0  0  0  0
M  END
>  <DRUGBANK_ID>
DB11956

>  <COMMON_NAME>
Delanzomib

>  <CAS_NUMBER>
847499-27-8

>  <UNII>
6IF28942WO

>  <SYNONYMS>
Delanzomib

$$$$
