
 OpenBabel10282417133D

 87 89  0  0  0  0  0  0  0  0999 V2000
   -1.5186   -2.2897    0.1188 O   0  0  0  0  0  0  0  0  0  0  0  0
   -1.8875    3.9771    0.5106 O   0  0  0  0  0  0  0  0  0  0  0  0
   -1.5004   -1.2348   -2.2403 O   0  0  0  0  0  0  0  0  0  0  0  0
   -3.8008    3.9063    1.1213 O   0  0  0  0  0  0  0  0  0  0  0  0
    1.1608    0.8402    0.1802 O   0  0  0  0  0  0  0  0  0  0  0  0
    2.0411   -2.0488    0.0686 O   0  0  0  0  0  0  0  0  0  0  0  0
   -2.5059    1.3711   -2.1648 O   0  0  0  0  0  0  0  0  0  0  0  0
   -0.3974    1.5575    0.8819 O   0  0  0  0  0  0  0  0  0  0  0  0
   -2.1443    0.0653    0.9792 O   0  0  0  0  0  0  0  0  0  0  0  0
   -1.8478    3.9944   -2.2886 O   0  0  0  0  0  0  0  0  0  0  0  0
   -0.4768   -4.5609    0.8247 O   0  0  0  0  0  0  0  0  0  0  0  0
    0.5821    3.7743    3.5133 O   0  0  0  0  0  0  0  0  0  0  0  0
    3.1185   -0.6189    1.4761 O   0  0  0  0  0  0  0  0  0  0  0  0
    2.6530    6.2889    2.1151 O   0  0  0  0  0  0  0  0  0  0  0  0
    2.6931    0.0115   -1.0224 N   0  0  0  0  0  0  0  0  0  0  0  0
    0.6515    5.5313    1.7385 N   0  0  0  0  0  0  0  0  0  0  0  0
    6.2621    1.8263    3.6436 N   0  0  0  0  0  0  0  0  0  0  0  0
    5.3955    1.9821    4.5299 N   0  3  0  0  0  0  0  0  0  0  0  0
    4.6334    2.0959    5.3729 N   0  5  0  0  0  0  0  0  0  0  0  0
    0.2979   -0.2892   -0.0044 C   0  0  1  0  0  0  0  0  0  0  0  0
    0.8533   -1.3890    0.7272 C   0  0  1  0  0  0  0  0  0  0  0  0
   -2.4408    2.1115   -0.9331 C   0  0  1  0  0  0  0  0  0  0  0  0
   -1.0237    2.2218   -0.1744 C   0  0  1  0  0  0  0  0  0  0  0  0
   -1.2391   -0.1848   -0.1371 C   0  0  1  0  0  0  0  0  0  0  0  0
   -2.8664    3.4864   -1.3423 C   0  0  1  0  0  0  0  0  0  0  0  0
   -0.1026   -2.4213    0.2831 C   0  0  1  0  0  0  0  0  0  0  0  0
   -1.3284    2.7793    1.0829 C   0  0  1  0  0  0  0  0  0  0  0  0
   -1.8678   -1.2700   -0.8354 C   0  0  2  0  0  0  0  0  0  0  0  0
   -3.0575    4.2571   -0.0271 C   0  0  2  0  0  0  0  0  0  0  0  0
    0.3443   -3.4982    1.1838 C   0  0  0  0  0  0  0  0  0  0  0  0
    0.1655    2.7974    2.4493 C   0  0  0  0  0  0  0  0  0  0  0  0
   -0.1736   -1.1742   -2.8105 C   0  0  0  0  0  0  0  0  0  0  0  0
   -3.1400    4.3092    2.4207 C   0  0  0  0  0  0  0  0  0  0  0  0
    0.8065    0.1034   -3.0736 C   0  0  0  0  0  0  0  0  0  0  0  0
   -1.6561    4.0504    2.7465 C   0  0  0  0  0  0  0  0  0  0  0  0
    1.5695    0.9197   -2.0002 C   0  0  0  0  0  0  0  0  0  0  0  0
   -0.2788    4.7209    1.3661 C   0  0  0  0  0  0  0  0  0  0  0  0
    3.1353    0.1881    0.5234 C   0  0  0  0  0  0  0  0  0  0  0  0
    2.0829    5.3060    1.8021 C   0  0  0  0  0  0  0  0  0  0  0  0
    3.5415    1.4726    0.9638 C   0  0  0  0  0  0  0  0  0  0  0  0
    2.9152    3.8272    1.5970 C   0  0  0  0  0  0  0  0  0  0  0  0
    2.6983    2.4246    1.5076 C   0  0  0  0  0  0  0  0  0  0  0  0
    4.8274    1.5804    1.1982 C   0  0  0  0  0  0  0  0  0  0  0  0
    4.2598    3.9643    1.7551 C   0  0  0  0  0  0  0  0  0  0  0  0
    5.1217    2.8108    1.7337 C   0  0  0  0  0  0  0  0  0  0  0  0
    6.3372    2.8080    2.5499 C   0  0  0  0  0  0  0  0  0  0  0  0
    2.2315   -0.8909   -1.1033 H   0  0  0  0  0  0  0  0  0  0  0  0
    0.2031    6.4528    1.7248 H   0  0  0  0  0  0  0  0  0  0  0  0
    0.8364    1.7487    0.3140 H   0  0  0  0  0  0  0  0  0  0  0  0
    2.9390   -1.6580   -0.0021 H   0  0  0  0  0  0  0  0  0  0  0  0
   -1.7345    1.5632   -2.7215 H   0  0  0  0  0  0  0  0  0  0  0  0
   -0.5581    0.7533    1.4056 H   0  0  0  0  0  0  0  0  0  0  0  0
   -1.9273    0.3961    1.8662 H   0  0  0  0  0  0  0  0  0  0  0  0
   -0.9340    4.0088   -1.9463 H   0  0  0  0  0  0  0  0  0  0  0  0
   -1.3315   -4.1041    0.6687 H   0  0  0  0  0  0  0  0  0  0  0  0
    0.5213    4.7174    3.2183 H   0  0  0  0  0  0  0  0  0  0  0  0
    0.5114   -0.6179   -0.9671 H   0  0  0  0  0  0  0  0  0  0  0  0
    0.9266   -1.0410    1.7839 H   0  0  0  0  0  0  0  0  0  0  0  0
   -3.1892    1.6906   -0.2597 H   0  0  0  0  0  0  0  0  0  0  0  0
   -0.2699    2.6940   -0.8210 H   0  0  0  0  0  0  0  0  0  0  0  0
   -1.2628    0.4817   -0.9609 H   0  0  0  0  0  0  0  0  0  0  0  0
   -3.7771    3.4184   -1.9161 H   0  0  0  0  0  0  0  0  0  0  0  0
    0.1828   -2.6870   -0.7220 H   0  0  0  0  0  0  0  0  0  0  0  0
   -2.0458    2.1313    1.5666 H   0  0  0  0  0  0  0  0  0  0  0  0
   -2.9482   -0.9930   -0.7740 H   0  0  0  0  0  0  0  0  0  0  0  0
   -3.1064    5.3359   -0.2606 H   0  0  0  0  0  0  0  0  0  0  0  0
    1.3998   -3.7325    0.9980 H   0  0  0  0  0  0  0  0  0  0  0  0
    0.2401   -3.1425    2.2156 H   0  0  0  0  0  0  0  0  0  0  0  0
    0.4056    1.8439    2.9057 H   0  0  0  0  0  0  0  0  0  0  0  0
    0.9305    3.0686    1.7987 H   0  0  0  0  0  0  0  0  0  0  0  0
    0.4258   -1.9418   -2.3494 H   0  0  0  0  0  0  0  0  0  0  0  0
   -0.3463   -1.5463   -3.8173 H   0  0  0  0  0  0  0  0  0  0  0  0
   -3.7160    3.7451    3.1786 H   0  0  0  0  0  0  0  0  0  0  0  0
   -3.0472    5.3636    2.5502 H   0  0  0  0  0  0  0  0  0  0  0  0
    1.6660   -0.3111   -3.5757 H   0  0  0  0  0  0  0  0  0  0  0  0
    0.2137    0.8605   -3.6076 H   0  0  0  0  0  0  0  0  0  0  0  0
   -2.0337    2.9381    2.8772 H   0  0  0  0  0  0  0  0  0  0  0  0
   -1.2648    3.5444    3.6912 H   0  0  0  0  0  0  0  0  0  0  0  0
    1.6398    2.0163   -1.9204 H   0  0  0  0  0  0  0  0  0  0  0  0
    0.5662    1.0348   -1.5966 H   0  0  0  0  0  0  0  0  0  0  0  0
   -0.5024    5.0147    0.2869 H   0  0  0  0  0  0  0  0  0  0  0  0
    0.2905    3.9536    0.7263 H   0  0  0  0  0  0  0  0  0  0  0  0
    1.9075    1.7898    1.8856 H   0  0  0  0  0  0  0  0  0  0  0  0
    5.4138    0.6616    1.1656 H   0  0  0  0  0  0  0  0  0  0  0  0
    4.6152    4.9288    2.0833 H   0  0  0  0  0  0  0  0  0  0  0  0
    7.0847    2.5166    1.8104 H   0  0  0  0  0  0  0  0  0  0  0  0
    6.4662    3.8242    2.9034 H   0  0  0  0  0  0  0  0  0  0  0  0
  1 26  1  0  0  0  0
  1 28  1  0  0  0  0
  2 27  1  0  0  0  0
  2 29  1  0  0  0  0
  3 32  1  0  0  0  0
  4 33  1  0  0  0  0
  5 49  1  0  0  0  0
  6 50  1  0  0  0  0
  7 51  1  0  0  0  0
  8 52  1  0  0  0  0
  9 53  1  0  0  0  0
 10 54  1  0  0  0  0
 11 30  1  0  0  0  0
 11 55  1  0  0  0  0
 12 31  1  0  0  0  0
 12 56  1  0  0  0  0
 13 38  2  0  0  0  0
 14 39  2  0  0  0  0
 15 36  1  0  0  0  0
 15 38  1  0  0  0  0
 15 47  1  0  0  0  0
 16 37  1  0  0  0  0
 16 39  1  0  0  0  0
 16 48  1  0  0  0  0
 17 18  2  0  0  0  0
 17 46  1  0  0  0  0
 18 19  2  0  0  0  0
 20  5  1  0  0  0  0
 20 21  1  0  0  0  0
 20 24  1  0  0  0  0
 20 57  1  6  0  0  0
 21  6  1  0  0  0  0
 21 26  1  0  0  0  0
 21 58  1  1  0  0  0
 22  7  1  0  0  0  0
 22 23  1  0  0  0  0
 22 25  1  0  0  0  0
 22 59  1  1  0  0  0
 23  8  1  0  0  0  0
 23 27  1  0  0  0  0
 23 60  1  6  0  0  0
 24  9  1  0  0  0  0
 24 28  1  0  0  0  0
 24 61  1  6  0  0  0
 25 10  1  0  0  0  0
 25 29  1  0  0  0  0
 25 62  1  6  0  0  0
 26 30  1  0  0  0  0
 26 63  1  6  0  0  0
 27 31  1  0  0  0  0
 27 64  1  1  0  0  0
 28 65  1  1  0  0  0
 28  3  1  0  0  0  0
 29  4  1  0  0  0  0
 29 66  1  6  0  0  0
 30 67  1  0  0  0  0
 30 68  1  0  0  0  0
 31 69  1  0  0  0  0
 31 70  1  0  0  0  0
 32 34  1  0  0  0  0
 32 71  1  0  0  0  0
 32 72  1  0  0  0  0
 33 35  1  0  0  0  0
 33 73  1  0  0  0  0
 33 74  1  0  0  0  0
 34 36  1  0  0  0  0
 34 75  1  0  0  0  0
 34 76  1  0  0  0  0
 35 37  1  0  0  0  0
 35 77  1  0  0  0  0
 35 78  1  0  0  0  0
 36 79  1  0  0  0  0
 36 80  1  0  0  0  0
 37 81  1  0  0  0  0
 37 82  1  0  0  0  0
 38 40  1  0  0  0  0
 39 41  1  0  0  0  0
 40 42  2  0  0  0  0
 40 43  1  0  0  0  0
 41 42  1  0  0  0  0
 41 44  2  0  0  0  0
 42 83  1  0  0  0  0
 43 45  2  0  0  0  0
 43 84  1  0  0  0  0
 44 45  1  0  0  0  0
 44 85  1  0  0  0  0
 45 46  1  0  0  0  0
 46 86  1  0  0  0  0
 46 87  1  0  0  0  0
M  CHG  2  18   1  19  -1
M  END
>  <DRUGBANK_ID>
DB03634

>  <SECONDARY_ACCESSION_NUMBERS>
EXPT01335

>  <COMMON_NAME>
1,3-DI(N-Propyloxy-A-mannopyranosyl)-carbomyl 5-methyazido-benzene

$$$$
