
 OpenBabel10282417133D

 89 91  0  0  0  0  0  0  0  0999 V2000
    2.8396   -1.6683   -1.3727 C   0  0  0  0  0  0  0  0  0  0  0  0
    3.1351   -3.0965   -1.1608 C   0  0  0  0  0  0  0  0  0  0  0  0
    0.5816   -2.1975   -2.2037 C   0  0  0  0  0  0  0  0  0  0  0  0
    0.9659   -3.5515   -2.1779 C   0  0  0  0  0  0  0  0  0  0  0  0
   -0.7013   -1.8853   -2.6908 C   0  0  0  0  0  0  0  0  0  0  0  0
    0.1181   -4.5289   -2.6918 C   0  0  0  0  0  0  0  0  0  0  0  0
   -1.1256   -4.1859   -3.2156 C   0  0  0  0  0  0  0  0  0  0  0  0
   -1.5310   -2.8661   -3.1973 C   0  0  0  0  0  0  0  0  0  0  0  0
    4.8678   -1.2396   -0.2429 C   0  0  0  0  0  0  0  0  0  0  0  0
    3.8391   -0.8727   -1.0896 N   0  0  0  0  0  0  0  0  0  0  0  0
    4.4293   -3.5254   -0.5891 C   0  0  0  0  0  0  0  0  0  0  0  0
    4.7795   -4.6949   -0.5060 O   0  0  0  0  0  0  0  0  0  0  0  0
    5.4499   -0.4617    0.5186 O   0  0  0  0  0  0  0  0  0  0  0  0
    5.2197   -2.5248   -0.1551 N   0  0  0  0  0  0  0  0  0  0  0  0
    1.5293   -1.2227   -1.8093 N   0  0  0  0  0  0  0  0  0  0  0  0
    0.9555    0.1410   -1.6599 C   0  0  0  0  0  0  0  0  0  0  0  0
    0.7893    0.5572   -0.1838 C   0  0  1  0  0  0  0  0  0  0  0  0
    2.2210    0.5656    0.3700 C   0  0  1  0  0  0  0  0  0  0  0  0
    0.0259    1.7684   -0.0616 O   0  0  0  0  0  0  0  0  0  0  0  0
    3.0921    1.5398   -0.5184 C   0  0  1  0  0  0  0  0  0  0  0  0
    2.4483    0.4596    1.7516 O   0  0  0  0  0  0  0  0  0  0  0  0
    2.5228    2.9666   -0.4550 C   0  0  0  0  0  0  0  0  0  0  0  0
    4.5362    1.5291   -0.4638 O   0  0  0  0  0  0  0  0  0  0  0  0
    1.7769    3.4213    0.6877 O   0  0  0  0  0  0  0  0  0  0  0  0
   -2.7317   -2.4551   -3.6889 O   0  0  0  0  0  0  0  0  0  0  0  0
    2.2470   -3.9768   -1.6145 C   0  0  0  0  0  0  0  0  0  0  0  0
    1.4692    3.1878    2.2567 P   0  0  3  0  0  0  0  0  0  0  0  0
    2.7889    2.6260    2.9906 O   0  0  0  0  0  0  0  0  0  0  0  0
    4.1358    3.0368    2.8486 C   0  0  2  0  0  0  0  0  0  0  0  0
    4.2362    4.3808    3.4189 C   0  0  0  0  0  0  0  0  0  0  0  0
    4.3060    5.3836    2.4811 N   0  0  0  0  0  0  0  0  0  0  0  0
    4.1749    4.5445    4.6296 O   0  0  0  0  0  0  0  0  0  0  0  0
    4.5218    3.0777    1.4399 C   0  0  0  0  0  0  0  0  0  0  0  0
    0.7581    4.3173    2.9175 O   0  0  0  0  0  0  0  0  0  0  0  0
    0.6286    1.8297    2.4518 O   0  0  0  0  0  0  0  0  0  0  0  0
    5.5533    7.3655    2.3668 C   0  0  0  0  0  0  0  0  0  0  0  0
    2.9096    7.3693    2.5368 C   0  0  0  0  0  0  0  0  0  0  0  0
    5.8279    7.3936    0.8429 C   0  0  0  0  0  0  0  0  0  0  0  0
    2.4429    8.3311    3.1266 O   0  0  0  0  0  0  0  0  0  0  0  0
    2.3619    6.9117    1.3921 O   0  0  0  0  0  0  0  0  0  0  0  0
    4.8080    8.1245    0.0015 C   0  0  0  0  0  0  0  0  0  0  0  0
    5.0296    9.4250   -0.3433 N   0  0  0  0  0  0  0  0  0  0  0  0
    3.7643    7.5778   -0.3438 O   0  0  0  0  0  0  0  0  0  0  0  0
    4.2572    6.7306    2.8868 C   0  0  1  0  0  0  0  0  0  0  0  0
    3.9020   11.5908   -0.5158 C   0  0  0  0  0  0  0  0  0  0  0  0
    3.7644    9.9252   -2.5301 C   0  0  0  0  0  0  0  0  0  0  0  0
    5.1988   12.3744   -0.7591 C   0  0  0  0  0  0  0  0  0  0  0  0
    2.7329   10.1035   -3.1600 O   0  0  0  0  0  0  0  0  0  0  0  0
    4.9380    9.6985   -3.1526 O   0  0  0  0  0  0  0  0  0  0  0  0
    5.5347   12.6353   -2.2026 C   0  0  0  0  0  0  0  0  0  0  0  0
    5.3039   13.8573   -2.6789 O   0  0  0  0  0  0  0  0  0  0  0  0
    6.0120   11.7693   -2.9601 O   0  0  0  0  0  0  0  0  0  0  0  0
    3.9138   10.1323   -1.0033 C   0  0  1  0  0  0  0  0  0  0  0  0
   -1.1193   -0.8875   -2.7435 H   0  0  0  0  0  0  0  0  0  0  0  0
    0.4384   -5.5656   -2.6969 H   0  0  0  0  0  0  0  0  0  0  0  0
   -1.7563   -4.9610   -3.6288 H   0  0  0  0  0  0  0  0  0  0  0  0
    6.0400   -2.7002    0.4032 H   0  0  0  0  0  0  0  0  0  0  0  0
    1.5278    0.8333   -2.2776 H   0  0  0  0  0  0  0  0  0  0  0  0
   -0.0155    0.3473   -2.1061 H   0  0  0  0  0  0  0  0  0  0  0  0
    0.1820   -0.1546    0.3772 H   0  0  0  0  0  0  0  0  0  0  0  0
    2.4554   -0.4703    0.3054 H   0  0  0  0  0  0  0  0  0  0  0  0
    0.3042    2.4428   -0.7060 H   0  0  0  0  0  0  0  0  0  0  0  0
    3.0660    1.2842   -1.5742 H   0  0  0  0  0  0  0  0  0  0  0  0
    2.6045    1.3154    2.1545 H   0  0  0  0  0  0  0  0  0  0  0  0
    3.3113    3.6703   -0.7579 H   0  0  0  0  0  0  0  0  0  0  0  0
    1.8609    3.1218   -1.3126 H   0  0  0  0  0  0  0  0  0  0  0  0
    4.8295    0.9482    0.2811 H   0  0  0  0  0  0  0  0  0  0  0  0
   -3.2149   -3.2263   -4.0237 H   0  0  0  0  0  0  0  0  0  0  0  0
    2.4880   -5.0306   -1.5810 H   0  0  0  0  0  0  0  0  0  0  0  0
    4.7914    2.2809    3.3008 H   0  0  0  0  0  0  0  0  0  0  0  0
    4.2655    5.2908    1.4767 H   0  0  0  0  0  0  0  0  0  0  0  0
    5.5538    3.0960    1.1013 H   0  0  0  0  0  0  0  0  0  0  0  0
    4.0382    2.1702    1.2318 H   0  0  0  0  0  0  0  0  0  0  0  0
    4.0032    3.8268    0.8726 H   0  0  0  0  0  0  0  0  0  0  0  0
   -0.2239    1.6668    2.0129 H   0  0  0  0  0  0  0  0  0  0  0  0
    5.6453    8.3567    2.8058 H   0  0  0  0  0  0  0  0  0  0  0  0
    6.3760    6.7571    2.7888 H   0  0  0  0  0  0  0  0  0  0  0  0
    6.8266    7.8108    0.6688 H   0  0  0  0  0  0  0  0  0  0  0  0
    5.8637    6.3729    0.4392 H   0  0  0  0  0  0  0  0  0  0  0  0
    2.2980    7.6832    0.7755 H   0  0  0  0  0  0  0  0  0  0  0  0
    5.9766    9.6634   -0.6216 H   0  0  0  0  0  0  0  0  0  0  0  0
    4.2770    6.7135    3.9740 H   0  0  0  0  0  0  0  0  0  0  0  0
    3.0289   12.1300   -0.9012 H   0  0  0  0  0  0  0  0  0  0  0  0
    3.7592   11.5428    0.5782 H   0  0  0  0  0  0  0  0  0  0  0  0
    5.1631   13.3238   -0.2148 H   0  0  0  0  0  0  0  0  0  0  0  0
    6.0432   11.8285   -0.3222 H   0  0  0  0  0  0  0  0  0  0  0  0
    5.0882   10.4763   -3.7524 H   0  0  0  0  0  0  0  0  0  0  0  0
    5.2551   14.5642   -2.0094 H   0  0  0  0  0  0  0  0  0  0  0  0
    2.9800    9.6971   -0.6211 H   0  0  0  0  0  0  0  0  0  0  0  0
  2  1  1  0  0  0  0
  2 11  1  0  0  0  0
  3  4  1  0  0  0  0
  4 26  1  0  0  0  0
  5  3  2  0  0  0  0
  5  8  1  0  0  0  0
  5 54  1  0  0  0  0
  6  4  2  0  0  0  0
  6 55  1  0  0  0  0
  7  6  1  0  0  0  0
  7 56  1  0  0  0  0
  8  7  2  0  0  0  0
  8 25  1  0  0  0  0
  9 13  2  0  0  0  0
 10  1  2  0  0  0  0
 10  9  1  0  0  0  0
 11 14  1  0  0  0  0
 11 12  2  0  0  0  0
 14  9  1  0  0  0  0
 14 57  1  0  0  0  0
 15  3  1  0  0  0  0
 15  1  1  0  0  0  0
 15 16  1  0  0  0  0
 16 17  1  0  0  0  0
 16 58  1  0  0  0  0
 16 59  1  0  0  0  0
 17 18  1  0  0  0  0
 17 19  1  0  0  0  0
 17 60  1  1  0  0  0
 18 20  1  0  0  0  0
 18 21  1  0  0  0  0
 18 61  1  6  0  0  0
 19 62  1  0  0  0  0
 20 22  1  0  0  0  0
 20 23  1  0  0  0  0
 20 63  1  6  0  0  0
 21 64  1  0  0  0  0
 22 24  1  0  0  0  0
 22 65  1  0  0  0  0
 22 66  1  0  0  0  0
 23 67  1  0  0  0  0
 24 27  1  0  0  0  0
 25 68  1  0  0  0  0
 26  2  2  0  0  0  0
 26 69  1  0  0  0  0
 27 28  1  0  0  0  0
 27 34  2  0  0  0  0
 27 35  1  0  0  0  0
 29 33  1  0  0  0  0
 29 70  1  1  0  0  0
 29 30  1  0  0  0  0
 29 28  1  0  0  0  0
 30 31  1  0  0  0  0
 30 32  2  0  0  0  0
 31 71  1  0  0  0  0
 33 72  1  0  0  0  0
 33 73  1  0  0  0  0
 33 74  1  0  0  0  0
 35 75  1  0  0  0  0
 36 38  1  0  0  0  0
 36 76  1  0  0  0  0
 36 77  1  0  0  0  0
 37 39  2  0  0  0  0
 37 40  1  0  0  0  0
 38 41  1  0  0  0  0
 38 78  1  0  0  0  0
 38 79  1  0  0  0  0
 40 80  1  0  0  0  0
 41 42  1  0  0  0  0
 41 43  2  0  0  0  0
 42 81  1  0  0  0  0
 44 31  1  0  0  0  0
 44 36  1  0  0  0  0
 44 37  1  0  0  0  0
 44 82  1  1  0  0  0
 45 47  1  0  0  0  0
 45 83  1  0  0  0  0
 45 84  1  0  0  0  0
 46 48  2  0  0  0  0
 46 49  1  0  0  0  0
 47 50  1  0  0  0  0
 47 85  1  0  0  0  0
 47 86  1  0  0  0  0
 49 87  1  0  0  0  0
 50 51  1  0  0  0  0
 50 52  2  0  0  0  0
 51 88  1  0  0  0  0
 53 42  1  0  0  0  0
 53 45  1  0  0  0  0
 53 46  1  0  0  0  0
 53 89  1  1  0  0  0
M  END
>  <DRUGBANK_ID>
DB03913

>  <SECONDARY_ACCESSION_NUMBERS>
EXPT01381

>  <COMMON_NAME>
Coenzyme F420

>  <CAS_NUMBER>
64885-97-8

>  <SYNONYMS>
Coenzyme F(420); coenzyme γ-F420-2; F420; Factor F420; N-{N-[O-(7,8-didemethyl-8-hydroxy-5-deazariboflavin phospho)-(S)-lactyl]-γ-L-glutamyl}-L-glutamate

$$$$
