
 OpenBabel10282417133D

 26 25  0  0  0  0  0  0  0  0999 V2000
    3.3261    1.7487    2.5020 O   0  0  0  0  0  0  0  0  0  0  0  0
    2.6242    0.7605    2.3124 C   0  0  0  0  0  0  0  0  0  0  0  0
    1.4796    0.5687    3.0047 O   0  0  0  0  0  0  0  0  0  0  0  0
    2.9257   -0.2956    1.2371 C   0  0  2  0  0  0  0  0  0  0  0  0
    2.2284    0.0368   -0.0141 N   0  0  0  0  0  0  0  0  0  0  0  0
    2.6259   -1.7310    1.6977 C   0  0  0  0  0  0  0  0  0  0  0  0
    3.0624   -2.8030    0.6947 C   0  0  0  0  0  0  0  0  0  0  0  0
    4.5520   -2.7562    0.3755 C   0  0  0  0  0  0  0  0  0  0  0  0
    5.3223   -3.1255    1.5418 N   0  0  0  0  0  0  0  0  0  0  0  0
    6.1735   -4.1613    1.6751 C   0  0  0  0  0  0  0  0  0  0  0  0
    6.8295   -4.4104    2.7524 N   0  0  0  0  0  0  0  0  0  0  0  0
    6.3200   -4.9875    0.6356 N   0  0  0  0  0  0  0  0  0  0  0  0
    0.9698   -0.2268    2.7724 H   0  0  0  0  0  0  0  0  0  0  0  0
    4.0041   -0.2035    1.0625 H   0  0  0  0  0  0  0  0  0  0  0  0
    1.2943    0.3977    0.1631 H   0  0  0  0  0  0  0  0  0  0  0  0
    2.1297   -0.7678   -0.6273 H   0  0  0  0  0  0  0  0  0  0  0  0
    3.1126   -1.9098    2.6651 H   0  0  0  0  0  0  0  0  0  0  0  0
    1.5530   -1.8667    1.8731 H   0  0  0  0  0  0  0  0  0  0  0  0
    2.7893   -3.7909    1.0859 H   0  0  0  0  0  0  0  0  0  0  0  0
    2.4997   -2.6942   -0.2395 H   0  0  0  0  0  0  0  0  0  0  0  0
    4.7190   -3.4182   -0.4751 H   0  0  0  0  0  0  0  0  0  0  0  0
    4.8694   -1.7699    0.0263 H   0  0  0  0  0  0  0  0  0  0  0  0
    5.2515   -2.5020    2.3364 H   0  0  0  0  0  0  0  0  0  0  0  0
    6.6103   -3.7220    3.4716 H   0  0  0  0  0  0  0  0  0  0  0  0
    5.9342   -4.8290   -0.2759 H   0  0  0  0  0  0  0  0  0  0  0  0
    7.0112   -5.7163    0.7328 H   0  0  0  0  0  0  0  0  0  0  0  0
  2  1  2  0  0  0  0
  3  2  1  0  0  0  0
  3 13  1  0  0  0  0
  4 14  1  6  0  0  0
  4  5  1  0  0  0  0
  4  2  1  0  0  0  0
  5 15  1  0  0  0  0
  5 16  1  0  0  0  0
  6  4  1  0  0  0  0
  6 17  1  0  0  0  0
  6 18  1  0  0  0  0
  7  6  1  0  0  0  0
  7  8  1  0  0  0  0
  7 19  1  0  0  0  0
  7 20  1  0  0  0  0
  8 21  1  0  0  0  0
  8 22  1  0  0  0  0
  9  8  1  0  0  0  0
  9 23  1  0  0  0  0
 10  9  1  0  0  0  0
 11 10  2  0  0  0  0
 11 24  1  0  0  0  0
 12 10  1  0  0  0  0
 12 25  1  0  0  0  0
 12 26  1  0  0  0  0
M  END
>  <DRUGBANK_ID>
DB04027

>  <SECONDARY_ACCESSION_NUMBERS>
EXPT01113

>  <COMMON_NAME>
D-arginine

>  <CAS_NUMBER>
157-06-2

>  <UNII>
R54Z304Z7C

>  <SYNONYMS>
(2R)-2-amino-5-(carbamimidamido)pentanoic acid; (2R)-2-amino-5-guanidinopentanoic acid; (R)-2-amino-5-guanidinopentanoic acid; D-2-Amino-5-guanidinovaleric acid; D-Arginin

$$$$
