PGG
 OpenBabel10282417173D

 38 38  0  0  0  0  0  0  0  0999 V2000
    1.3742   -0.2814    0.0595 C   0  0  0  0  0  0  0  0  0  0  0  0
    0.4686   -1.3447    0.0200 C   0  0  0  0  0  0  0  0  0  0  0  0
   -0.9069   -1.1054   -0.0272 C   0  0  0  0  0  0  0  0  0  0  0  0
   -1.3828    0.2094   -0.0365 C   0  0  0  0  0  0  0  0  0  0  0  0
   -0.4859    1.2838    0.0170 C   0  0  0  0  0  0  0  0  0  0  0  0
    0.8956    1.0327    0.0175 C   0  0  0  0  0  0  0  0  0  0  0  0
    3.3163   -2.0939    0.3243 P   0  0  1  0  0  0  0  0  0  0  0  0
    2.7341   -0.4703    0.1904 O   0  0  0  0  0  0  0  0  0  0  0  0
    3.8778   -1.9407   -1.2119 O   0  0  0  0  0  0  0  0  0  0  0  0
    4.3506   -1.6041    1.3274 O   0  0  0  0  0  0  0  0  0  0  0  0
    3.9322   -3.8113    0.4660 C   0  0  0  0  0  0  0  0  0  0  0  0
    5.0697   -4.1353   -0.5199 C   0  0  0  0  0  0  0  0  0  0  0  0
    6.2796   -3.2015   -0.3578 C   0  0  0  0  0  0  0  0  0  0  0  0
    6.8965   -3.3549    1.0171 C   0  0  0  0  0  0  0  0  0  0  0  0
    8.2332   -3.6361    1.0411 N   0  0  0  0  0  0  0  0  0  0  0  0
    6.2698   -3.2426    2.0661 O   0  0  0  0  0  0  0  0  0  0  0  0
    8.8583   -3.9001    2.3239 C   0  0  0  0  0  0  0  0  0  0  0  0
    9.2906   -5.3521    2.4540 C   0  0  0  0  0  0  0  0  0  0  0  0
   10.6085   -5.5165    2.7113 O   0  0  0  0  0  0  0  0  0  0  0  0
    8.5438   -6.3183    2.3004 O   0  0  0  0  0  0  0  0  0  0  0  0
   -2.8264    0.4510   -0.1680 N   0  3  0  0  0  0  0  0  0  0  0  0
   -3.2162    1.6260   -0.1992 O   0  0  0  0  0  0  0  0  0  0  0  0
   -3.5662   -0.5391   -0.2699 O   0  5  0  0  0  0  0  0  0  0  0  0
    0.7887   -2.3793    0.0289 H   0  0  0  0  0  0  0  0  0  0  0  0
   -1.5881   -1.9540   -0.0454 H   0  0  0  0  0  0  0  0  0  0  0  0
   -0.8444    2.3110    0.0646 H   0  0  0  0  0  0  0  0  0  0  0  0
    1.5914    1.8699   -0.0071 H   0  0  0  0  0  0  0  0  0  0  0  0
    3.2302   -2.0973   -1.9184 H   0  0  0  0  0  0  0  0  0  0  0  0
    4.2103   -4.0507    1.4953 H   0  0  0  0  0  0  0  0  0  0  0  0
    3.0805   -4.4674    0.2497 H   0  0  0  0  0  0  0  0  0  0  0  0
    5.3752   -5.1799   -0.4141 H   0  0  0  0  0  0  0  0  0  0  0  0
    4.6804   -4.0527   -1.5461 H   0  0  0  0  0  0  0  0  0  0  0  0
    7.0010   -3.3981   -1.1576 H   0  0  0  0  0  0  0  0  0  0  0  0
    6.0231   -2.1423   -0.4722 H   0  0  0  0  0  0  0  0  0  0  0  0
    8.7133   -3.8455    0.1764 H   0  0  0  0  0  0  0  0  0  0  0  0
    9.6998   -3.2120    2.4165 H   0  0  0  0  0  0  0  0  0  0  0  0
    8.1792   -3.6979    3.1610 H   0  0  0  0  0  0  0  0  0  0  0  0
   11.1262   -4.6924    2.7883 H   0  0  0  0  0  0  0  0  0  0  0  0
  1  2  2  0  0  0  0
  1  6  1  0  0  0  0
  1  8  1  0  0  0  0
  2  3  1  0  0  0  0
  2 24  1  0  0  0  0
  3  4  2  0  0  0  0
  3 25  1  0  0  0  0
  4  5  1  0  0  0  0
  4 21  1  0  0  0  0
  5  6  2  0  0  0  0
  5 26  1  0  0  0  0
  6 27  1  0  0  0  0
  7  8  1  0  0  0  0
  7  9  1  0  0  0  0
  7 10  2  1  0  0  0
  7 11  1  0  0  0  0
  9 28  1  0  0  0  0
 11 12  1  0  0  0  0
 11 29  1  0  0  0  0
 11 30  1  0  0  0  0
 12 13  1  0  0  0  0
 12 31  1  0  0  0  0
 12 32  1  0  0  0  0
 13 14  1  0  0  0  0
 13 33  1  0  0  0  0
 13 34  1  0  0  0  0
 14 15  1  0  0  0  0
 14 16  2  0  0  0  0
 15 17  1  0  0  0  0
 15 35  1  0  0  0  0
 17 18  1  0  0  0  0
 17 36  1  0  0  0  0
 17 37  1  0  0  0  0
 18 19  1  0  0  0  0
 18 20  2  0  0  0  0
 19 38  1  0  0  0  0
 21 22  2  0  0  0  0
 21 23  1  0  0  0  0
M  CHG  2  21   1  23  -1
M  END
>  <DRUGBANK_ID>
DB08394

>  <COMMON_NAME>
PARA-NITROPHENYLPHOSPHONOBUTANOYL-GLYCINE

$$$$
