
 OpenBabel10282417243D

 32 34  0  0  1  0  0  0  0  0999 V2000
    0.9459    0.0952   -0.1743 N   0  0  0  0  0  0  0  0  0  0  0  0
    0.2779    1.2740   -0.0675 C   0  0  0  0  0  0  0  0  0  0  0  0
   -0.7665    1.4340    0.7153 N   0  0  0  0  0  0  0  0  0  0  0  0
   -1.3530    2.6617    0.6020 C   0  0  0  0  0  0  0  0  0  0  0  0
   -2.4460    3.1609    1.2744 N   0  0  0  0  0  0  0  0  0  0  0  0
   -2.6845    4.4202    0.7702 C   0  0  0  0  0  0  0  0  0  0  0  0
   -1.8102    4.7733   -0.1421 N   0  0  0  0  0  0  0  0  0  0  0  0
   -0.9867    3.6896   -0.2507 C   0  0  0  0  0  0  0  0  0  0  0  0
    0.1557    3.4769   -1.0925 C   0  0  0  0  0  0  0  0  0  0  0  0
    0.6535    4.5976   -2.2050 S   0  0  0  0  0  0  0  0  0  0  0  0
    0.7694    2.2594   -0.9009 N   0  0  0  0  0  0  0  0  0  0  0  0
   -3.1859    2.5818    2.3816 C   0  0  1  0  0  0  0  0  0  0  0  0
   -3.1815    3.4554    3.6349 C   0  0  0  0  0  0  0  0  0  0  0  0
   -4.5200    3.1639    4.2637 C   0  0  2  0  0  0  0  0  0  0  0  0
   -4.4113    2.0152    5.1065 O   0  0  0  0  0  0  0  0  0  0  0  0
   -5.4266    2.8853    3.0666 C   0  0  1  0  0  0  0  0  0  0  0  0
   -6.2102    4.1167    2.5885 C   0  0  0  0  0  0  0  0  0  0  0  0
   -6.7958    4.8423    3.6621 O   0  0  0  0  0  0  0  0  0  0  0  0
   -4.5736    2.4107    1.9988 O   0  0  0  0  0  0  0  0  0  0  0  0
    0.5467   -0.6774    0.3457 H   0  0  0  0  0  0  0  0  0  0  0  0
    1.9572    0.1368   -0.0955 H   0  0  0  0  0  0  0  0  0  0  0  0
   -3.4914    5.0465    1.1242 H   0  0  0  0  0  0  0  0  0  0  0  0
    1.5291    2.0327   -1.5247 H   0  0  0  0  0  0  0  0  0  0  0  0
   -2.7810    1.5861    2.5935 H   0  0  0  0  0  0  0  0  0  0  0  0
   -3.1380    4.5217    3.3851 H   0  0  0  0  0  0  0  0  0  0  0  0
   -2.3301    3.2296    4.2827 H   0  0  0  0  0  0  0  0  0  0  0  0
   -4.8666    3.9838    4.8983 H   0  0  0  0  0  0  0  0  0  0  0  0
   -4.1643    1.2429    4.5699 H   0  0  0  0  0  0  0  0  0  0  0  0
   -6.1415    2.0884    3.3052 H   0  0  0  0  0  0  0  0  0  0  0  0
   -5.5667    4.8018    2.0308 H   0  0  0  0  0  0  0  0  0  0  0  0
   -7.0080    3.8152    1.9002 H   0  0  0  0  0  0  0  0  0  0  0  0
   -7.3686    4.2386    4.1668 H   0  0  0  0  0  0  0  0  0  0  0  0
  1  2  1  0  0  0  0
  1 20  1  0  0  0  0
  1 21  1  0  0  0  0
  2  3  2  0  0  0  0
  2 11  1  0  0  0  0
  3  4  1  0  0  0  0
  4  5  1  0  0  0  0
  4  8  2  0  0  0  0
  5  6  1  0  0  0  0
  6  7  2  0  0  0  0
  6 22  1  0  0  0  0
  7  8  1  0  0  0  0
  8  9  1  0  0  0  0
  9 10  2  0  0  0  0
  9 11  1  0  0  0  0
 11 23  1  0  0  0  0
 12  5  1  0  0  0  0
 12 13  1  0  0  0  0
 12 19  1  0  0  0  0
 12 24  1  1  0  0  0
 13 25  1  0  0  0  0
 13 26  1  0  0  0  0
 14 13  1  0  0  0  0
 14 15  1  0  0  0  0
 14 16  1  0  0  0  0
 14 27  1  1  0  0  0
 15 28  1  0  0  0  0
 16 19  1  0  0  0  0
 16 29  1  1  0  0  0
 16 17  1  0  0  0  0
 17 18  1  0  0  0  0
 17 30  1  0  0  0  0
 17 31  1  0  0  0  0
 18 32  1  0  0  0  0
M  END
>  <DRUGBANK_ID>
DB18117

>  <COMMON_NAME>
2'-deoxythioguanosine

>  <CAS_NUMBER>
789-61-7

>  <UNII>
KR0RFB46DF

>  <SYNONYMS>
2-amino-9-(2-deoxy-.beta.-d-erythro-pentofuranosyl)-6-mercaptopurine; 2'-deoxy-6-thioguanosine; 2'-desoxy-6-thioguanosine; Beta-2'-deoxythioguanosine; Thioguanine deoxyriboside

$$$$
