
 OpenBabel10282417133D

 72 77  0  0  0  0  0  0  0  0999 V2000
    1.2767    0.6821   -0.2692 O   0  0  0  0  0  0  0  0  0  0  0  0
   -1.7580    0.1292   -0.6047 O   0  0  0  0  0  0  0  0  0  0  0  0
    0.0130    2.9578    2.0434 O   0  0  0  0  0  0  0  0  0  0  0  0
   -1.7485   -3.7185   -1.6481 O   0  0  0  0  0  0  0  0  0  0  0  0
    0.7215   -2.3699   -5.9437 O   0  0  0  0  0  0  0  0  0  0  0  0
    4.1747   -3.0429   -2.8388 O   0  0  0  0  0  0  0  0  0  0  0  0
    2.2694   -1.2613    0.3562 N   0  0  0  0  0  0  0  0  0  0  0  0
   -0.7742   -2.3923   -0.1062 N   0  0  0  0  0  0  0  0  0  0  0  0
    3.9608   -2.7047    0.6040 N   0  0  0  0  0  0  0  0  0  0  0  0
    2.1065   -0.5782    2.5629 N   0  0  0  0  0  0  0  0  0  0  0  0
    5.9486   -2.3926    2.9293 N   0  0  0  0  0  0  0  0  0  0  0  0
    4.0741   -1.2674    3.8407 N   0  0  0  0  0  0  0  0  0  0  0  0
   -0.0728   -1.2219    0.4430 C   0  0  2  0  0  0  0  0  0  0  0  0
   -0.8820    0.0577    0.5194 C   0  0  1  0  0  0  0  0  0  0  0  0
    1.1344   -0.7238   -0.3040 C   0  0  1  0  0  0  0  0  0  0  0  0
    0.1535    1.1869    0.4392 C   0  0  1  0  0  0  0  0  0  0  0  0
    0.5945    1.6819    1.8106 C   0  0  0  0  0  0  0  0  0  0  0  0
    2.7159   -1.2065    1.5998 C   0  0  0  0  0  0  0  0  0  0  0  0
    3.1213   -2.0879   -0.1642 C   0  0  0  0  0  0  0  0  0  0  0  0
   -0.7887   -3.0097   -1.3535 C   0  0  0  0  0  0  0  0  0  0  0  0
    3.8800   -1.9515    1.6715 C   0  0  0  0  0  0  0  0  0  0  0  0
    4.6746   -1.8835    2.8003 C   0  0  0  0  0  0  0  0  0  0  0  0
    0.3163   -2.9152   -2.3779 C   0  0  0  0  0  0  0  0  0  0  0  0
    2.8519   -0.6926    3.6551 C   0  0  0  0  0  0  0  0  0  0  0  0
    1.6520   -3.2329   -2.0835 C   0  0  0  0  0  0  0  0  0  0  0  0
    0.0471   -2.6444   -3.7049 C   0  0  0  0  0  0  0  0  0  0  0  0
    6.8496   -2.6704    1.8477 C   0  0  0  0  0  0  0  0  0  0  0  0
    1.0987   -2.5389   -4.6392 C   0  0  0  0  0  0  0  0  0  0  0  0
    2.7687   -3.0194   -2.9859 C   0  0  0  0  0  0  0  0  0  0  0  0
    8.5051   -1.8567    1.8804 C   0  0  0  0  0  0  0  0  0  0  0  0
    2.4398   -2.6420   -4.2602 C   0  0  0  0  0  0  0  0  0  0  0  0
    9.4401   -0.3293    2.0917 C   0  0  0  0  0  0  0  0  0  0  0  0
    9.1299   -3.0498    1.1929 C   0  0  0  0  0  0  0  0  0  0  0  0
    9.6781   -0.5820    0.9702 C   0  0  0  0  0  0  0  0  0  0  0  0
   10.6034    1.2230    2.3797 C   0  0  0  0  0  0  0  0  0  0  0  0
   10.4328   -2.8906    0.8637 C   0  0  0  0  0  0  0  0  0  0  0  0
   10.7896   -1.5818    0.8825 C   0  0  0  0  0  0  0  0  0  0  0  0
    9.2067    0.6637    0.7068 C   0  0  0  0  0  0  0  0  0  0  0  0
   10.4824    2.3713    1.5760 C   0  0  0  0  0  0  0  0  0  0  0  0
   10.3650    1.4492    0.6036 C   0  0  0  0  0  0  0  0  0  0  0  0
    1.8028   -2.3106   -6.8736 C   0  0  0  0  0  0  0  0  0  0  0  0
    4.8538   -3.1211   -1.5845 C   0  0  0  0  0  0  0  0  0  0  0  0
   -1.6022   -2.6077    0.4484 H   0  0  0  0  0  0  0  0  0  0  0  0
    6.3343   -2.4825    3.8461 H   0  0  0  0  0  0  0  0  0  0  0  0
   -1.2304    0.0413   -1.4174 H   0  0  0  0  0  0  0  0  0  0  0  0
    0.3649    3.5546    1.3581 H   0  0  0  0  0  0  0  0  0  0  0  0
    0.1900   -1.5377    1.4614 H   0  0  0  0  0  0  0  0  0  0  0  0
   -1.4889    0.1145    1.4265 H   0  0  0  0  0  0  0  0  0  0  0  0
    1.0480   -0.9311   -1.3721 H   0  0  0  0  0  0  0  0  0  0  0  0
   -0.2097    2.0156   -0.1671 H   0  0  0  0  0  0  0  0  0  0  0  0
    0.2372    1.0111    2.5969 H   0  0  0  0  0  0  0  0  0  0  0  0
    1.6827    1.7823    1.9040 H   0  0  0  0  0  0  0  0  0  0  0  0
    3.1087   -2.0676   -1.1991 H   0  0  0  0  0  0  0  0  0  0  0  0
    2.3782   -0.2147    4.4837 H   0  0  0  0  0  0  0  0  0  0  0  0
    1.7397   -3.5341   -1.0441 H   0  0  0  0  0  0  0  0  0  0  0  0
   -0.9849   -2.5686   -4.0274 H   0  0  0  0  0  0  0  0  0  0  0  0
    7.0316   -3.7934    2.0024 H   0  0  0  0  0  0  0  0  0  0  0  0
    6.3302   -2.8872    0.8594 H   0  0  0  0  0  0  0  0  0  0  0  0
    3.2612   -2.5015   -4.9540 H   0  0  0  0  0  0  0  0  0  0  0  0
    8.7228   -4.0714    1.0769 H   0  0  0  0  0  0  0  0  0  0  0  0
   11.8705    1.5934    1.7323 H   0  0  0  0  0  0  0  0  0  0  0  0
   11.1293   -3.6775    0.6219 H   0  0  0  0  0  0  0  0  0  0  0  0
   11.8110   -1.2463    0.7961 H   0  0  0  0  0  0  0  0  0  0  0  0
    8.3965    1.2099    1.5525 H   0  0  0  0  0  0  0  0  0  0  0  0
    9.8867    3.2984    1.7748 H   0  0  0  0  0  0  0  0  0  0  0  0
   11.4065    0.5973    0.6617 H   0  0  0  0  0  0  0  0  0  0  0  0
    2.4309   -1.4325   -6.6783 H   0  0  0  0  0  0  0  0  0  0  0  0
    2.4094   -3.2270   -6.8579 H   0  0  0  0  0  0  0  0  0  0  0  0
    1.3767   -2.2075   -7.8696 H   0  0  0  0  0  0  0  0  0  0  0  0
    4.9152   -2.0676   -1.2229 H   0  0  0  0  0  0  0  0  0  0  0  0
    4.3516   -3.9223   -1.0129 H   0  0  0  0  0  0  0  0  0  0  0  0
    5.9239   -3.2501   -1.3912 H   0  0  0  0  0  0  0  0  0  0  0  0
  1 15  1  0  0  0  0
  1 16  1  0  0  0  0
  2 45  1  0  0  0  0
  3 17  1  0  0  0  0
  3 46  1  0  0  0  0
  4 20  2  0  0  0  0
  5 28  1  0  0  0  0
  5 41  1  0  0  0  0
  6 29  1  0  0  0  0
  6 42  1  0  0  0  0
  7 18  1  0  0  0  0
  7 19  1  0  0  0  0
  8 20  1  0  0  0  0
  8 43  1  0  0  0  0
  9 19  2  0  0  0  0
  9 21  1  0  0  0  0
 10 18  2  0  0  0  0
 10 24  1  0  0  0  0
 11 22  1  0  0  0  0
 11 27  1  0  0  0  0
 11 44  1  0  0  0  0
 12 22  1  0  0  0  0
 12 24  2  0  0  0  0
 13 14  1  0  0  0  0
 13 15  1  0  0  0  0
 13 47  1  1  0  0  0
 13  8  1  0  0  0  0
 14  2  1  0  0  0  0
 14 16  1  0  0  0  0
 14 48  1  1  0  0  0
 15 49  1  6  0  0  0
 15  7  1  0  0  0  0
 16 50  1  6  0  0  0
 16 17  1  0  0  0  0
 17 51  1  0  0  0  0
 17 52  1  0  0  0  0
 18 21  1  0  0  0  0
 19 53  1  0  0  0  0
 20 23  1  0  0  0  0
 21 22  2  0  0  0  0
 23 25  2  0  0  0  0
 23 26  1  0  0  0  0
 24 54  1  0  0  0  0
 25 29  1  0  0  0  0
 25 55  1  0  0  0  0
 26 28  2  0  0  0  0
 26 56  1  0  0  0  0
 27 30  1  0  0  0  0
 27 57  1  0  0  0  0
 27 58  1  0  0  0  0
 28 31  1  0  0  0  0
 29 31  2  0  0  0  0
 30 32  1  0  0  0  0
 30 33  2  0  0  0  0
 31 59  1  0  0  0  0
 32 34  1  0  0  0  0
 32 35  2  0  0  0  0
 33 36  1  0  0  0  0
 33 60  1  0  0  0  0
 34 37  1  0  0  0  0
 34 38  2  0  0  0  0
 35 39  1  0  0  0  0
 35 61  1  0  0  0  0
 36 37  2  0  0  0  0
 36 62  1  0  0  0  0
 37 63  1  0  0  0  0
 38 40  1  0  0  0  0
 38 64  1  0  0  0  0
 39 40  2  0  0  0  0
 39 65  1  0  0  0  0
 40 66  1  0  0  0  0
 41 67  1  0  0  0  0
 41 68  1  0  0  0  0
 41 69  1  0  0  0  0
 42 70  1  0  0  0  0
 42 71  1  0  0  0  0
 42 72  1  0  0  0  0
M  END
>  <DRUGBANK_ID>
DB03331

>  <SECONDARY_ACCESSION_NUMBERS>
EXPT02362

>  <COMMON_NAME>
N-naphthalen-1-ylmethyl-2'-[3,5-dimethoxybenzamido]-2'-deoxy-adenosine

>  <SYNONYMS>
2'-Deoxy-2'-[(3,5-dimethoxybenzoyl)amino]-N-(1-naphthylmethyl)adenosine

$$$$
