
 OpenBabel10282417223D

 29 29  0  0  0  0  0  0  0  0999 V2000
    0.7196    1.2621   -0.2167 C   0  0  3  0  0  0  0  0  0  0  0  0
    1.3755   -0.0435    0.2469 C   0  0  0  0  0  0  0  0  0  0  0  0
   -0.7415    1.2244    0.2564 C   0  0  0  0  0  0  0  0  0  0  0  0
    1.4310    2.5324    0.2817 C   0  0  0  0  0  0  0  0  0  0  0  0
    0.7037   -1.3029   -0.2399 C   0  0  0  0  0  0  0  0  0  0  0  0
    2.3862   -0.1033    0.9476 O   0  0  0  0  0  0  0  0  0  0  0  0
   -1.4488   -0.0165   -0.2537 C   0  0  0  0  0  0  0  0  0  0  0  0
    2.8713    2.6017   -0.2333 C   0  0  0  0  0  0  0  0  0  0  0  0
    0.6910    3.7926   -0.1891 C   0  0  0  0  0  0  0  0  0  0  0  0
   -0.7466   -1.2818    0.2375 C   0  0  3  0  0  0  0  0  0  0  0  0
   -1.5076   -2.4894   -0.2775 C   0  0  0  0  0  0  0  0  0  0  0  0
    0.7449    1.2527   -1.3157 H   0  0  0  0  0  0  0  0  0  0  0  0
   -0.7812    1.2527    1.3533 H   0  0  0  0  0  0  0  0  0  0  0  0
   -1.3079    2.0819   -0.1152 H   0  0  0  0  0  0  0  0  0  0  0  0
    1.4489    2.5249    1.3794 H   0  0  0  0  0  0  0  0  0  0  0  0
    0.7736   -1.3266   -1.3336 H   0  0  0  0  0  0  0  0  0  0  0  0
    1.2382   -2.1748    0.1520 H   0  0  0  0  0  0  0  0  0  0  0  0
   -1.4585    0.0052   -1.3514 H   0  0  0  0  0  0  0  0  0  0  0  0
   -2.4916   -0.0001    0.0807 H   0  0  0  0  0  0  0  0  0  0  0  0
    2.8927    2.6089   -1.3280 H   0  0  0  0  0  0  0  0  0  0  0  0
    3.3647    3.5066    0.1322 H   0  0  0  0  0  0  0  0  0  0  0  0
    3.4771    1.7571    0.1010 H   0  0  0  0  0  0  0  0  0  0  0  0
   -0.3318    3.8420    0.1941 H   0  0  0  0  0  0  0  0  0  0  0  0
    1.1955    4.6962    0.1619 H   0  0  0  0  0  0  0  0  0  0  0  0
    0.6411    3.8245   -1.2838 H   0  0  0  0  0  0  0  0  0  0  0  0
   -0.7584   -1.2870    1.3368 H   0  0  0  0  0  0  0  0  0  0  0  0
   -1.0479   -3.4177    0.0691 H   0  0  0  0  0  0  0  0  0  0  0  0
   -2.5434   -2.4601    0.0762 H   0  0  0  0  0  0  0  0  0  0  0  0
   -1.5238   -2.4930   -1.3724 H   0  0  0  0  0  0  0  0  0  0  0  0
  1  2  1  0  0  0  0
  1  3  1  0  0  0  0
  1  4  1  0  0  0  0
  1 12  1  0  0  0  0
  2  5  1  0  0  0  0
  2  6  2  0  0  0  0
  3  7  1  0  0  0  0
  3 13  1  0  0  0  0
  3 14  1  0  0  0  0
  4  8  1  0  0  0  0
  4  9  1  0  0  0  0
  4 15  1  0  0  0  0
  5 10  1  0  0  0  0
  5 16  1  0  0  0  0
  5 17  1  0  0  0  0
  7 10  1  0  0  0  0
  7 18  1  0  0  0  0
  7 19  1  0  0  0  0
  8 20  1  0  0  0  0
  8 21  1  0  0  0  0
  8 22  1  0  0  0  0
  9 23  1  0  0  0  0
  9 24  1  0  0  0  0
  9 25  1  0  0  0  0
 10 11  1  0  0  0  0
 10 26  1  0  0  0  0
 11 27  1  0  0  0  0
 11 28  1  0  0  0  0
 11 29  1  0  0  0  0
M  END
>  <DRUGBANK_ID>
DB15920

>  <COMMON_NAME>
Menthone

>  <CAS_NUMBER>
89-80-5

>  <UNII>
9NH5J4V8FN

>  <SYNONYMS>
DL-Menthone; Menthone G

$$$$
