
 OpenBabel10282417223D

 53 56  0  0  0  0  0  0  0  0999 V2000
    1.2654   -0.0200   -0.2130 C   0  0  0  0  0  0  0  0  0  0  0  0
    0.8140    0.5576    1.1131 C   0  0  0  0  0  0  0  0  0  0  0  0
    1.2462    2.0531    1.2577 C   0  0  0  0  0  0  0  0  0  0  0  0
   -0.6990    0.6208    1.0104 C   0  0  0  0  0  0  0  0  0  0  0  0
   -1.7496   -0.4063    1.1409 N   0  0  0  0  0  0  0  0  0  0  0  0
   -2.7451    0.3852    1.9140 C   0  0  0  0  0  0  0  0  0  0  0  0
   -2.1257    0.5872    3.3316 C   0  0  0  0  0  0  0  0  0  0  0  0
   -2.2457   -0.6611    4.0158 N   0  0  0  0  0  0  0  0  0  0  0  0
   -1.4223   -1.7239    3.4295 C   0  0  0  0  0  0  0  0  0  0  0  0
   -1.6386   -1.7166    1.8742 C   0  0  0  0  0  0  0  0  0  0  0  0
   -3.0049   -0.7745    5.1468 C   0  0  0  0  0  0  0  0  0  0  0  0
   -2.4393   -1.2526    6.2194 N   0  0  0  0  0  0  0  0  0  0  0  0
   -3.1591   -1.4528    7.4018 C   0  0  0  0  0  0  0  0  0  0  0  0
   -2.5534   -1.1463    8.6239 C   0  0  0  0  0  0  0  0  0  0  0  0
   -3.1895   -1.4605    9.8293 C   0  0  0  0  0  0  0  0  0  0  0  0
   -4.4373   -2.0852    9.8211 C   0  0  0  0  0  0  0  0  0  0  0  0
   -5.0588   -2.3789    8.6119 C   0  0  0  0  0  0  0  0  0  0  0  0
   -4.4244   -2.0518    7.4173 C   0  0  0  0  0  0  0  0  0  0  0  0
   -5.1004   -2.3415    6.2534 O   0  0  0  0  0  0  0  0  0  0  0  0
   -5.4237   -1.2054    5.5547 C   0  0  0  0  0  0  0  0  0  0  0  0
   -6.7798   -0.9132    5.3841 C   0  0  0  0  0  0  0  0  0  0  0  0
   -7.1804    0.2359    4.7006 C   0  0  0  0  0  0  0  0  0  0  0  0
   -6.2295    1.0926    4.1826 C   0  0  0  0  0  0  0  0  0  0  0  0
   -4.8862    0.7966    4.3653 C   0  0  0  0  0  0  0  0  0  0  0  0
   -4.4526   -0.3602    5.0388 C   0  0  0  0  0  0  0  0  0  0  0  0
    1.3181   -0.1430    2.3753 C   0  0  0  0  0  0  0  0  0  0  0  0
    1.9441   -1.3244    2.1854 O   0  0  0  0  0  0  0  0  0  0  0  0
    1.1885    0.3093    3.4957 O   0  0  0  0  0  0  0  0  0  0  0  0
    0.8703    0.5786   -1.0432 H   0  0  0  0  0  0  0  0  0  0  0  0
    0.8628   -1.0325   -0.3342 H   0  0  0  0  0  0  0  0  0  0  0  0
    2.3510   -0.0416   -0.2907 H   0  0  0  0  0  0  0  0  0  0  0  0
    0.8324    2.6645    0.4452 H   0  0  0  0  0  0  0  0  0  0  0  0
    0.8512    2.4954    2.1897 H   0  0  0  0  0  0  0  0  0  0  0  0
    2.3284    2.1758    1.2877 H   0  0  0  0  0  0  0  0  0  0  0  0
   -0.9222    1.4900    1.6403 H   0  0  0  0  0  0  0  0  0  0  0  0
   -0.9465    1.0807    0.0408 H   0  0  0  0  0  0  0  0  0  0  0  0
   -2.9127    1.3503    1.4142 H   0  0  0  0  0  0  0  0  0  0  0  0
   -3.7180   -0.1159    1.8956 H   0  0  0  0  0  0  0  0  0  0  0  0
   -1.0615    0.8150    3.3639 H   0  0  0  0  0  0  0  0  0  0  0  0
   -2.4820    1.4746    3.8421 H   0  0  0  0  0  0  0  0  0  0  0  0
   -0.3656   -1.5757    3.6501 H   0  0  0  0  0  0  0  0  0  0  0  0
   -1.6833   -2.7073    3.8429 H   0  0  0  0  0  0  0  0  0  0  0  0
   -2.6365   -2.1799    1.7486 H   0  0  0  0  0  0  0  0  0  0  0  0
   -0.9748   -2.4339    1.3756 H   0  0  0  0  0  0  0  0  0  0  0  0
   -1.5712   -0.6790    8.6341 H   0  0  0  0  0  0  0  0  0  0  0  0
   -2.7003   -1.2381   10.7739 H   0  0  0  0  0  0  0  0  0  0  0  0
   -4.9250   -2.3485   10.7547 H   0  0  0  0  0  0  0  0  0  0  0  0
   -6.0326   -2.8556    8.5866 H   0  0  0  0  0  0  0  0  0  0  0  0
   -7.5252   -1.5744    5.8103 H   0  0  0  0  0  0  0  0  0  0  0  0
   -8.2311    0.4763    4.5858 H   0  0  0  0  0  0  0  0  0  0  0  0
   -6.5057    1.9978    3.6475 H   0  0  0  0  0  0  0  0  0  0  0  0
   -4.2299    1.5427    3.9589 H   0  0  0  0  0  0  0  0  0  0  0  0
    2.0726   -1.5980    1.2635 H   0  0  0  0  0  0  0  0  0  0  0  0
  1  2  1  0  0  0  0
  1 29  1  0  0  0  0
  1 30  1  0  0  0  0
  1 31  1  0  0  0  0
  2  3  1  0  0  0  0
  2  4  1  0  0  0  0
  2 26  1  0  0  0  0
  3 32  1  0  0  0  0
  3 33  1  0  0  0  0
  3 34  1  0  0  0  0
  4  5  1  0  0  0  0
  4 35  1  0  0  0  0
  4 36  1  0  0  0  0
  5  6  1  0  0  0  0
  5 10  1  0  0  0  0
  6  7  1  0  0  0  0
  6 37  1  0  0  0  0
  6 38  1  0  0  0  0
  7  8  1  0  0  0  0
  7 39  1  0  0  0  0
  7 40  1  0  0  0  0
  8  9  1  0  0  0  0
  8 11  1  0  0  0  0
  9 10  1  0  0  0  0
  9 41  1  0  0  0  0
  9 42  1  0  0  0  0
 10 43  1  0  0  0  0
 10 44  1  0  0  0  0
 11 12  2  0  0  0  0
 11 25  1  0  0  0  0
 12 13  1  0  0  0  0
 13 14  2  0  0  0  0
 13 18  1  0  0  0  0
 14 15  1  0  0  0  0
 14 45  1  0  0  0  0
 15 16  2  0  0  0  0
 15 46  1  0  0  0  0
 16 17  1  0  0  0  0
 16 47  1  0  0  0  0
 17 18  2  0  0  0  0
 17 48  1  0  0  0  0
 18 19  1  0  0  0  0
 19 20  1  0  0  0  0
 20 21  2  0  0  0  0
 20 25  1  0  0  0  0
 21 22  1  0  0  0  0
 21 49  1  0  0  0  0
 22 23  2  0  0  0  0
 22 50  1  0  0  0  0
 23 24  1  0  0  0  0
 23 51  1  0  0  0  0
 24 25  2  0  0  0  0
 24 52  1  0  0  0  0
 26 27  1  0  0  0  0
 26 28  2  0  0  0  0
 27 53  1  0  0  0  0
M  END
>  <DRUGBANK_ID>
DB15092

>  <COMMON_NAME>
LY-2624803

>  <CAS_NUMBER>
879409-35-5

>  <UNII>
63J9EQ81YC

$$$$
