
 OpenBabel10282417203D

 41 42  0  0  0  0  0  0  0  0999 V2000
    1.0907    0.2623    0.1336 C   0  0  0  0  0  0  0  0  0  0  0  0
    0.3289   -0.4538    1.1989 N   0  3  0  0  0  0  0  0  0  0  0  0
    0.9651   -0.0749    2.5336 C   0  0  0  0  0  0  0  0  0  0  0  0
   -1.1622   -0.6893    1.1981 C   0  0  0  0  0  0  0  0  0  0  0  0
   -1.6843   -1.4648   -0.0278 C   0  0  0  0  0  0  0  0  0  0  0  0
   -1.3221   -2.9271   -0.0867 O   0  0  0  0  0  0  0  0  0  0  0  0
   -0.0474   -3.5190   -0.3012 C   0  0  0  0  0  0  0  0  0  0  0  0
    1.4339   -3.4679    1.0330 C   0  0  0  0  0  0  0  0  0  0  0  0
    3.1095   -3.4673    0.8033 C   0  0  0  0  0  0  0  0  0  0  0  0
    3.6541   -3.7328   -0.5453 C   0  0  0  0  0  0  0  0  0  0  0  0
    2.7946   -3.9961   -1.8688 C   0  0  0  0  0  0  0  0  0  0  0  0
    1.0532   -3.6895   -2.0190 C   0  0  0  0  0  0  0  0  0  0  0  0
    0.6094   -1.7873    1.1212 C   0  0  0  0  0  0  0  0  0  0  0  0
    1.3367   -2.5038   -0.6383 C   0  0  0  0  0  0  0  0  0  0  0  0
    1.3336   -4.6073   -0.4934 C   0  0  0  0  0  0  0  0  0  0  0  0
    0.0216   -5.3999   -1.4794 C   0  0  0  0  0  0  0  0  0  0  0  0
   -0.9580   -4.4004   -2.5651 C   0  0  0  0  0  0  0  0  0  0  0  0
   -0.8841   -2.7047   -2.6695 C   0  0  0  0  0  0  0  0  0  0  0  0
    0.1913   -1.7773   -1.8452 C   0  0  0  0  0  0  0  0  0  0  0  0
    0.7256    1.2678    0.1187 H   0  0  0  0  0  0  0  0  0  0  0  0
    0.9581   -0.0996   -0.8512 H   0  0  0  0  0  0  0  0  0  0  0  0
    2.1796    0.1068    0.2199 H   0  0  0  0  0  0  0  0  0  0  0  0
    0.6830    0.9389    2.6891 H   0  0  0  0  0  0  0  0  0  0  0  0
    0.6522   -0.7918    3.3180 H   0  0  0  0  0  0  0  0  0  0  0  0
    2.0710   -0.1726    2.4169 H   0  0  0  0  0  0  0  0  0  0  0  0
   -1.4252   -1.3340    2.0586 H   0  0  0  0  0  0  0  0  0  0  0  0
   -1.5525    0.3055    1.2737 H   0  0  0  0  0  0  0  0  0  0  0  0
   -2.7739   -1.4475   -0.0519 H   0  0  0  0  0  0  0  0  0  0  0  0
   -1.5313   -0.8073   -0.8865 H   0  0  0  0  0  0  0  0  0  0  0  0
    2.2281   -2.2246    0.7349 H   0  0  0  0  0  0  0  0  0  0  0  0
    3.6788   -2.6461    1.3662 H   0  0  0  0  0  0  0  0  0  0  0  0
    4.6709   -4.0852   -0.4616 H   0  0  0  0  0  0  0  0  0  0  0  0
    2.8992   -5.1486   -1.9688 H   0  0  0  0  0  0  0  0  0  0  0  0
    0.9278   -3.9814   -3.0552 H   0  0  0  0  0  0  0  0  0  0  0  0
    1.4790   -1.8423    1.9468 H   0  0  0  0  0  0  0  0  0  0  0  0
    0.0311   -2.5986    1.9273 H   0  0  0  0  0  0  0  0  0  0  0  0
    1.5432   -5.2615    0.3968 H   0  0  0  0  0  0  0  0  0  0  0  0
    0.4480   -6.2720   -1.9895 H   0  0  0  0  0  0  0  0  0  0  0  0
   -0.8171   -4.6908   -3.6613 H   0  0  0  0  0  0  0  0  0  0  0  0
   -1.5297   -2.1681   -3.3660 H   0  0  0  0  0  0  0  0  0  0  0  0
   -0.1027   -0.7350   -1.9442 H   0  0  0  0  0  0  0  0  0  0  0  0
  1  2  1  0  0  0  0
  1 20  1  0  0  0  0
  1 21  1  0  0  0  0
  1 22  1  0  0  0  0
  2  3  1  0  0  0  0
  2  4  1  0  0  0  0
  2 13  1  0  0  0  0
  3 23  1  0  0  0  0
  3 24  1  0  0  0  0
  3 25  1  0  0  0  0
  4  5  1  0  0  0  0
  4 26  1  0  0  0  0
  4 27  1  0  0  0  0
  5  6  1  0  0  0  0
  5 28  1  0  0  0  0
  5 29  1  0  0  0  0
  6  7  1  0  0  0  0
  7  8  2  0  0  0  0
  7 12  1  0  0  0  0
  8  9  1  0  0  0  0
  8 30  1  0  0  0  0
  9 10  2  0  0  0  0
  9 31  1  0  0  0  0
 10 11  1  0  0  0  0
 10 32  1  0  0  0  0
 11 12  2  0  0  0  0
 11 33  1  0  0  0  0
 12 34  1  0  0  0  0
 13 14  1  0  0  0  0
 13 35  1  0  0  0  0
 13 36  1  0  0  0  0
 14 15  2  0  0  0  0
 14 19  1  0  0  0  0
 15 16  1  0  0  0  0
 15 37  1  0  0  0  0
 16 17  2  0  0  0  0
 16 38  1  0  0  0  0
 17 18  1  0  0  0  0
 17 39  1  0  0  0  0
 18 19  2  0  0  0  0
 18 40  1  0  0  0  0
 19 41  1  0  0  0  0
M  CHG  1   2   1
M  END
>  <DRUGBANK_ID>
DB13462

>  <COMMON_NAME>
Bephenium

>  <CAS_NUMBER>
7181-73-9

>  <UNII>
PXO9B4983I

$$$$
