VIN
 OpenBabel10282417173D

 56 61  0  0  0  0  0  0  0  0999 V2000
    1.3180   -0.5835   -0.7479 C   0  0  0  0  0  0  0  0  0  0  0  0
    0.8850    0.6658   -0.2363 C   0  0  0  0  0  0  0  0  0  0  0  0
    2.6982   -0.7281   -1.1058 C   0  0  0  0  0  0  0  0  0  0  0  0
    0.2317   -1.4485   -0.3066 N   0  0  0  0  0  0  0  0  0  0  0  0
    1.8937    1.7230   -0.1061 C   0  0  0  0  0  0  0  0  0  0  0  0
   -0.5315    0.6955   -0.1160 C   0  0  0  0  0  0  0  0  0  0  0  0
    3.5160   -0.1501   -0.1104 C   0  0  0  0  0  0  0  0  0  0  0  0
    3.6432   -0.9519   -2.4312 C   0  0  0  0  0  0  0  0  0  0  0  0
   -0.9363   -0.6582   -0.2255 C   0  0  0  0  0  0  0  0  0  0  0  0
    0.1459   -2.9207   -0.0853 C   0  0  0  0  0  0  0  0  0  0  0  0
    3.2158    1.2017    0.0071 C   0  0  0  0  0  0  0  0  0  0  0  0
    2.1520    3.1324    0.0010 C   0  0  0  0  0  0  0  0  0  0  0  0
   -1.5897    1.6308    0.0258 C   0  0  0  0  0  0  0  0  0  0  0  0
    4.8669   -0.6491    0.1128 C   0  0  0  0  0  0  0  0  0  0  0  0
    4.4432   -2.1267   -1.9023 C   0  0  0  0  0  0  0  0  0  0  0  0
   -2.3137   -1.0443   -0.2252 C   0  0  0  0  0  0  0  0  0  0  0  0
   -0.5428   -3.5255    1.2181 C   0  0  0  0  0  0  0  0  0  0  0  0
    4.1666    2.2922    0.0315 C   0  0  0  0  0  0  0  0  0  0  0  0
    3.4196    3.4467    0.0810 N   0  0  0  0  0  0  0  0  0  0  0  0
   -2.9543    1.2317    0.0317 C   0  0  0  0  0  0  0  0  0  0  0  0
    5.3517   -1.5533   -0.8321 C   0  0  0  0  0  0  0  0  0  0  0  0
    5.7230   -0.1982    1.1313 C   0  0  0  0  0  0  0  0  0  0  0  0
   -3.3163   -0.0981   -0.0620 C   0  0  0  0  0  0  0  0  0  0  0  0
   -1.9382   -3.2927    1.3896 O   0  0  0  0  0  0  0  0  0  0  0  0
    5.4085    2.2982   -0.0709 O   0  0  0  0  0  0  0  0  0  0  0  0
    6.7147   -1.7268   -0.9176 C   0  0  0  0  0  0  0  0  0  0  0  0
    7.1056   -0.3453    0.9969 C   0  0  0  0  0  0  0  0  0  0  0  0
    7.6117   -1.0771   -0.0687 C   0  0  0  0  0  0  0  0  0  0  0  0
    8.9710   -1.1005   -0.2091 O   0  0  0  0  0  0  0  0  0  0  0  0
    9.5311   -1.8461   -1.3026 C   0  0  0  0  0  0  0  0  0  0  0  0
    9.1791   -1.2516   -2.6760 C   0  0  0  0  0  0  0  0  0  0  0  0
    9.2784   -3.3526   -1.1492 C   0  0  0  0  0  0  0  0  0  0  0  0
    3.2463   -1.2097   -3.4206 H   0  0  0  0  0  0  0  0  0  0  0  0
    4.3282   -0.0784   -2.6229 H   0  0  0  0  0  0  0  0  0  0  0  0
   -0.4133   -3.3116   -0.9453 H   0  0  0  0  0  0  0  0  0  0  0  0
    1.1618   -3.3246   -0.1093 H   0  0  0  0  0  0  0  0  0  0  0  0
    1.4047    3.9332   -0.0083 H   0  0  0  0  0  0  0  0  0  0  0  0
   -1.3756    2.6908    0.0514 H   0  0  0  0  0  0  0  0  0  0  0  0
    4.9857   -2.7958   -2.5804 H   0  0  0  0  0  0  0  0  0  0  0  0
    3.6528   -2.7789   -1.5250 H   0  0  0  0  0  0  0  0  0  0  0  0
   -2.6357   -2.0795   -0.3572 H   0  0  0  0  0  0  0  0  0  0  0  0
   -0.4836   -4.6251    1.1803 H   0  0  0  0  0  0  0  0  0  0  0  0
   -0.0496   -3.2156    2.1418 H   0  0  0  0  0  0  0  0  0  0  0  0
   -3.7483    1.9762    0.0669 H   0  0  0  0  0  0  0  0  0  0  0  0
    5.3380    0.3845    1.9640 H   0  0  0  0  0  0  0  0  0  0  0  0
   -4.3656   -0.4039   -0.0432 H   0  0  0  0  0  0  0  0  0  0  0  0
   -2.0369   -2.3692    1.6871 H   0  0  0  0  0  0  0  0  0  0  0  0
    7.0276   -2.3309   -1.7512 H   0  0  0  0  0  0  0  0  0  0  0  0
    7.7742    0.1710    1.6825 H   0  0  0  0  0  0  0  0  0  0  0  0
   10.6178   -1.7199   -1.2033 H   0  0  0  0  0  0  0  0  0  0  0  0
    9.5069   -0.2085   -2.7353 H   0  0  0  0  0  0  0  0  0  0  0  0
    9.6358   -1.8283   -3.4831 H   0  0  0  0  0  0  0  0  0  0  0  0
    8.1118   -1.2086   -2.8947 H   0  0  0  0  0  0  0  0  0  0  0  0
    8.2282   -3.6435   -1.1269 H   0  0  0  0  0  0  0  0  0  0  0  0
    9.7328   -3.9155   -1.9650 H   0  0  0  0  0  0  0  0  0  0  0  0
    9.6628   -3.6994   -0.1851 H   0  0  0  0  0  0  0  0  0  0  0  0
  1  2  2  0  0  0  0
  1  4  1  0  0  0  0
  2  6  1  0  0  0  0
  3  1  1  0  0  0  0
  3  8  1  0  0  0  0
  4 10  1  0  0  0  0
  5  2  1  0  0  0  0
  6  9  1  0  0  0  0
  7  3  2  0  0  0  0
  8 33  1  0  0  0  0
  8 34  1  0  0  0  0
  9  4  1  0  0  0  0
  9 16  2  0  0  0  0
 10 17  1  0  0  0  0
 10 35  1  0  0  0  0
 10 36  1  0  0  0  0
 11  5  2  0  0  0  0
 11  7  1  0  0  0  0
 12  5  1  0  0  0  0
 12 37  1  0  0  0  0
 13  6  2  0  0  0  0
 13 20  1  0  0  0  0
 13 38  1  0  0  0  0
 14  7  1  0  0  0  0
 14 21  1  0  0  0  0
 15  8  1  0  0  0  0
 15 39  1  0  0  0  0
 15 40  1  0  0  0  0
 16 41  1  0  0  0  0
 17 42  1  0  0  0  0
 17 43  1  0  0  0  0
 18 11  1  0  0  0  0
 19 12  2  0  0  0  0
 19 18  1  0  0  0  0
 20 23  2  0  0  0  0
 20 44  1  0  0  0  0
 21 15  1  0  0  0  0
 22 14  2  0  0  0  0
 22 45  1  0  0  0  0
 23 16  1  0  0  0  0
 23 46  1  0  0  0  0
 24 17  1  0  0  0  0
 24 47  1  0  0  0  0
 25 18  2  0  0  0  0
 26 21  2  0  0  0  0
 26 48  1  0  0  0  0
 27 22  1  0  0  0  0
 27 28  2  0  0  0  0
 27 49  1  0  0  0  0
 28 26  1  0  0  0  0
 29 28  1  0  0  0  0
 30 29  1  0  0  0  0
 30 32  1  0  0  0  0
 30 50  1  0  0  0  0
 31 30  1  0  0  0  0
 31 51  1  0  0  0  0
 31 52  1  0  0  0  0
 31 53  1  0  0  0  0
 32 54  1  0  0  0  0
 32 55  1  0  0  0  0
 32 56  1  0  0  0  0
M  END
>  <DRUGBANK_ID>
DB08703

>  <COMMON_NAME>
12-(2-hydroxyethyl)-2-(1-methylethoxy)-13,14-dihydronaphtho[2,1-a]pyrrolo[3,4-c]carbazol-5(12H)-one

$$$$
