
 OpenBabel10282417133D

139138  0  0  1  0  0  0  0  0999 V2000
   -6.1673    4.2715  -14.8911 C   0  0  0  0  0  0  0  0  0  0  0  0
   -7.2631    4.9128  -14.0554 C   0  0  0  0  0  0  0  0  0  0  0  0
   -6.9355    4.7910  -12.5666 C   0  0  0  0  0  0  0  0  0  0  0  0
   -5.6163    5.4938  -12.2337 C   0  0  0  0  0  0  0  0  0  0  0  0
   -5.6881    6.9750  -12.6245 C   0  0  0  0  0  0  0  0  0  0  0  0
   -6.8107    7.6779  -11.8496 C   0  0  0  0  0  0  0  0  0  0  0  0
   -6.5454    7.5737  -10.3567 C   0  0  0  0  0  0  0  0  0  0  0  0
   -5.1694    8.1278  -10.0659 C   0  0  0  0  0  0  0  0  0  0  0  0
   -5.1652    9.5832  -10.4242 C   0  0  0  0  0  0  0  0  0  0  0  0
   -4.9785   10.5120   -9.5045 C   0  0  0  0  0  0  0  0  0  0  0  0
   -4.5357   10.0804   -8.1763 C   0  0  0  0  0  0  0  0  0  0  0  0
   -3.1690   10.7274   -7.9186 C   0  0  0  0  0  0  0  0  0  0  0  0
   -2.8771   12.2523   -8.2399 C   0  0  0  0  0  0  0  0  0  0  0  0
   -3.6421   13.2704   -7.4414 C   0  0  0  0  0  0  0  0  0  0  0  0
   -3.2903   12.9455   -5.9946 C   0  0  0  0  0  0  0  0  0  0  0  0
   -2.2268   13.4221   -5.0904 C   0  0  0  0  0  0  0  0  0  0  0  0
   -2.5099   14.9184   -4.9899 C   0  0  0  0  0  0  0  0  0  0  0  0
   -3.5531   15.4998   -4.0086 C   0  0  0  0  0  0  0  0  0  0  0  0
   -3.2314   15.9203   -2.9211 O   0  0  0  0  0  0  0  0  0  0  0  0
   -4.8543   15.4879   -4.4199 O   0  0  0  0  0  0  0  0  0  0  0  0
   -5.7819   16.0511   -3.4376 C   0  0  0  0  0  0  0  0  0  0  0  0
   -5.8839   15.1435   -1.9868 C   0  0  2  0  0  0  0  0  0  0  0  0
   -6.6889   13.6323   -1.6057 C   0  0  0  0  0  0  0  0  0  0  0  0
   -6.8170   12.5369   -2.6091 O   0  0  0  0  0  0  0  0  0  0  0  0
   -6.8312   13.2216   -4.1978 P   0  0  3  0  0  0  0  0  0  0  0  0
   -8.2077   12.5739   -4.4136 O   0  0  0  0  0  0  0  0  0  0  0  0
   -7.4255   14.5596   -3.6153 O   0  0  0  0  0  0  0  0  0  0  0  0
   -6.8454   13.9063   -5.7865 O   0  0  0  0  0  0  0  0  0  0  0  0
   -6.9649   12.7424   -6.6193 C   0  0  0  0  0  0  0  0  0  0  0  0
   -5.7472   11.9314   -6.1494 C   0  0  0  0  0  0  0  0  0  0  0  0
   -5.2776   11.2191   -4.7457 N   0  3  0  0  0  0  0  0  0  0  0  0
   -6.4691   10.2492   -4.6622 C   0  0  0  0  0  0  0  0  0  0  0  0
   -4.0609   10.2476   -4.6206 C   0  0  0  0  0  0  0  0  0  0  0  0
   -4.7567   12.0903   -3.5195 C   0  0  0  0  0  0  0  0  0  0  0  0
   -6.3786   16.1198   -1.0561 O   0  0  0  0  0  0  0  0  0  0  0  0
   -7.6911   16.4101   -1.0772 C   0  0  0  0  0  0  0  0  0  0  0  0
   -8.5245   15.8759   -1.8616 O   0  0  0  0  0  0  0  0  0  0  0  0
   -8.0633   17.4324   -0.0719 C   0  0  0  0  0  0  0  0  0  0  0  0
   -7.6632   16.9733    1.3308 C   0  0  0  0  0  0  0  0  0  0  0  0
   -6.1481   16.7707    1.4866 C   0  0  0  0  0  0  0  0  0  0  0  0
   -5.3937   18.0348    1.0462 C   0  0  0  0  0  0  0  0  0  0  0  0
   -5.7545   19.1935    1.9785 C   0  0  0  0  0  0  0  0  0  0  0  0
   -5.3798   18.8320    3.4118 C   0  0  0  0  0  0  0  0  0  0  0  0
   -3.9061   18.4698    3.4854 C   0  0  0  0  0  0  0  0  0  0  0  0
   -3.1014   19.6841    3.1572 C   0  0  0  0  0  0  0  0  0  0  0  0
   -2.3251   20.2882    4.0508 C   0  0  0  0  0  0  0  0  0  0  0  0
   -2.0673   19.7217    5.4097 C   0  0  0  0  0  0  0  0  0  0  0  0
   -0.5990   19.3475    5.5126 C   0  0  0  0  0  0  0  0  0  0  0  0
    0.2677   20.5996    5.4226 C   0  0  0  0  0  0  0  0  0  0  0  0
   -0.1368   21.6031    6.5095 C   0  0  0  0  0  0  0  0  0  0  0  0
    0.0412   20.9899    7.9039 C   0  0  0  0  0  0  0  0  0  0  0  0
    1.5070   20.6160    8.1465 C   0  0  0  0  0  0  0  0  0  0  0  0
    2.4187   21.8372    8.0164 C   0  0  0  0  0  0  0  0  0  0  0  0
    2.0342   22.8960    9.0371 C   0  0  0  0  0  0  0  0  0  0  0  0
   -5.1945    4.7495  -14.7347 H   0  0  0  0  0  0  0  0  0  0  0  0
   -6.3908    4.3576  -15.9546 H   0  0  0  0  0  0  0  0  0  0  0  0
   -6.0689    3.2157  -14.6230 H   0  0  0  0  0  0  0  0  0  0  0  0
   -7.3859    5.9615  -14.3516 H   0  0  0  0  0  0  0  0  0  0  0  0
   -8.2268    4.4398  -14.2600 H   0  0  0  0  0  0  0  0  0  0  0  0
   -7.7595    5.2099  -11.9758 H   0  0  0  0  0  0  0  0  0  0  0  0
   -6.8776    3.7395  -12.2712 H   0  0  0  0  0  0  0  0  0  0  0  0
   -5.3871    5.3606  -11.1701 H   0  0  0  0  0  0  0  0  0  0  0  0
   -4.7691    5.0214  -12.7375 H   0  0  0  0  0  0  0  0  0  0  0  0
   -4.7103    7.4400  -12.4603 H   0  0  0  0  0  0  0  0  0  0  0  0
   -5.8427    7.1188  -13.6950 H   0  0  0  0  0  0  0  0  0  0  0  0
   -6.8800    8.7225  -12.1667 H   0  0  0  0  0  0  0  0  0  0  0  0
   -7.7966    7.2660  -12.0696 H   0  0  0  0  0  0  0  0  0  0  0  0
   -7.3164    8.1017   -9.7811 H   0  0  0  0  0  0  0  0  0  0  0  0
   -6.5852    6.5396   -9.9971 H   0  0  0  0  0  0  0  0  0  0  0  0
   -5.0044    7.8653   -9.0258 H   0  0  0  0  0  0  0  0  0  0  0  0
   -4.3290    7.6452  -10.5650 H   0  0  0  0  0  0  0  0  0  0  0  0
   -5.3696    9.9188  -11.4362 H   0  0  0  0  0  0  0  0  0  0  0  0
   -5.0958   11.5654   -9.7496 H   0  0  0  0  0  0  0  0  0  0  0  0
   -5.4668   10.0981   -7.5953 H   0  0  0  0  0  0  0  0  0  0  0  0
   -4.3468    9.0370   -7.9401 H   0  0  0  0  0  0  0  0  0  0  0  0
   -2.8542   10.4237   -6.9178 H   0  0  0  0  0  0  0  0  0  0  0  0
   -2.4595   10.1718   -8.5370 H   0  0  0  0  0  0  0  0  0  0  0  0
   -1.8325   12.4480   -7.9985 H   0  0  0  0  0  0  0  0  0  0  0  0
   -3.0581   12.4627   -9.2927 H   0  0  0  0  0  0  0  0  0  0  0  0
   -3.6366   14.3467   -7.6091 H   0  0  0  0  0  0  0  0  0  0  0  0
   -4.6651   13.0844   -7.7998 H   0  0  0  0  0  0  0  0  0  0  0  0
   -4.0404   13.3968   -5.3918 H   0  0  0  0  0  0  0  0  0  0  0  0
   -3.3321   11.8873   -5.9330 H   0  0  0  0  0  0  0  0  0  0  0  0
   -2.3046   12.9396   -4.1087 H   0  0  0  0  0  0  0  0  0  0  0  0
   -1.2711   13.0600   -5.4558 H   0  0  0  0  0  0  0  0  0  0  0  0
   -1.5698   15.3436   -4.6761 H   0  0  0  0  0  0  0  0  0  0  0  0
   -2.7627   15.2925   -5.9815 H   0  0  0  0  0  0  0  0  0  0  0  0
   -5.6225   17.1334   -3.2705 H   0  0  0  0  0  0  0  0  0  0  0  0
   -6.7346   16.2406   -3.9774 H   0  0  0  0  0  0  0  0  0  0  0  0
   -4.8520   14.9093   -1.6942 H   0  0  0  0  0  0  0  0  0  0  0  0
   -6.2940   13.1952   -0.6685 H   0  0  0  0  0  0  0  0  0  0  0  0
   -7.7224   13.8330   -1.2959 H   0  0  0  0  0  0  0  0  0  0  0  0
   -8.3016   14.6290   -3.1892 H   0  0  0  0  0  0  0  0  0  0  0  0
   -7.9270   12.2262   -6.6035 H   0  0  0  0  0  0  0  0  0  0  0  0
   -6.8440   13.1306   -7.6416 H   0  0  0  0  0  0  0  0  0  0  0  0
   -5.2439   11.4983   -6.9289 H   0  0  0  0  0  0  0  0  0  0  0  0
   -5.2835   12.8469   -6.0391 H   0  0  0  0  0  0  0  0  0  0  0  0
   -6.3091    9.5281   -5.4744 H   0  0  0  0  0  0  0  0  0  0  0  0
   -6.5164    9.8071   -3.6807 H   0  0  0  0  0  0  0  0  0  0  0  0
   -7.3980   10.7374   -4.9407 H   0  0  0  0  0  0  0  0  0  0  0  0
   -3.1031   10.7831   -4.5934 H   0  0  0  0  0  0  0  0  0  0  0  0
   -4.1183    9.8268   -3.6079 H   0  0  0  0  0  0  0  0  0  0  0  0
   -4.0934    9.4897   -5.3874 H   0  0  0  0  0  0  0  0  0  0  0  0
   -3.7649   12.4822   -3.3303 H   0  0  0  0  0  0  0  0  0  0  0  0
   -4.9546   13.1017   -3.8033 H   0  0  0  0  0  0  0  0  0  0  0  0
   -5.0492   11.6295   -2.5855 H   0  0  0  0  0  0  0  0  0  0  0  0
   -7.6054   18.3817   -0.3708 H   0  0  0  0  0  0  0  0  0  0  0  0
   -9.1441   17.5961   -0.1175 H   0  0  0  0  0  0  0  0  0  0  0  0
   -8.0128   17.7225    2.0511 H   0  0  0  0  0  0  0  0  0  0  0  0
   -8.1805   16.0458    1.5929 H   0  0  0  0  0  0  0  0  0  0  0  0
   -5.9172   16.4782    2.5143 H   0  0  0  0  0  0  0  0  0  0  0  0
   -5.7811   15.8956    0.9473 H   0  0  0  0  0  0  0  0  0  0  0  0
   -4.3182   17.8335    1.0205 H   0  0  0  0  0  0  0  0  0  0  0  0
   -5.6018   18.3291    0.0144 H   0  0  0  0  0  0  0  0  0  0  0  0
   -5.2486   20.1060    1.6503 H   0  0  0  0  0  0  0  0  0  0  0  0
   -6.8189   19.4384    1.9301 H   0  0  0  0  0  0  0  0  0  0  0  0
   -5.6261   19.6545    4.0918 H   0  0  0  0  0  0  0  0  0  0  0  0
   -5.9657   17.9844    3.7832 H   0  0  0  0  0  0  0  0  0  0  0  0
   -3.7457   18.0520    4.4741 H   0  0  0  0  0  0  0  0  0  0  0  0
   -3.5960   17.6547    2.8285 H   0  0  0  0  0  0  0  0  0  0  0  0
   -3.1848   20.1336    2.1688 H   0  0  0  0  0  0  0  0  0  0  0  0
   -1.8266   21.2096    3.7534 H   0  0  0  0  0  0  0  0  0  0  0  0
   -2.4123   20.4347    6.1605 H   0  0  0  0  0  0  0  0  0  0  0  0
   -2.6265   18.8240    5.6547 H   0  0  0  0  0  0  0  0  0  0  0  0
   -0.4403   18.8137    6.4561 H   0  0  0  0  0  0  0  0  0  0  0  0
   -0.3180   18.6301    4.7319 H   0  0  0  0  0  0  0  0  0  0  0  0
    1.3210   20.3168    5.4959 H   0  0  0  0  0  0  0  0  0  0  0  0
    0.1825   21.0691    4.4379 H   0  0  0  0  0  0  0  0  0  0  0  0
    0.4387   22.5234    6.3870 H   0  0  0  0  0  0  0  0  0  0  0  0
   -1.1703   21.9436    6.3914 H   0  0  0  0  0  0  0  0  0  0  0  0
   -0.3244   21.6881    8.6617 H   0  0  0  0  0  0  0  0  0  0  0  0
   -0.5911   20.1060    8.0432 H   0  0  0  0  0  0  0  0  0  0  0  0
    1.6129   20.1646    9.1375 H   0  0  0  0  0  0  0  0  0  0  0  0
    1.8322   19.8410    7.4416 H   0  0  0  0  0  0  0  0  0  0  0  0
    3.4603   21.5354    8.1539 H   0  0  0  0  0  0  0  0  0  0  0  0
    2.3700   22.2634    7.0073 H   0  0  0  0  0  0  0  0  0  0  0  0
    2.1185   22.4840   10.0468 H   0  0  0  0  0  0  0  0  0  0  0  0
    2.6769   23.7721    8.9474 H   0  0  0  0  0  0  0  0  0  0  0  0
    1.0053   23.2456    8.9020 H   0  0  0  0  0  0  0  0  0  0  0  0
  1  2  1  0  0  0  0
  1 55  1  0  0  0  0
  1 56  1  0  0  0  0
  1 57  1  0  0  0  0
  2  3  1  0  0  0  0
  2 58  1  0  0  0  0
  2 59  1  0  0  0  0
  3  4  1  0  0  0  0
  3 60  1  0  0  0  0
  3 61  1  0  0  0  0
  4  5  1  0  0  0  0
  4 62  1  0  0  0  0
  4 63  1  0  0  0  0
  5  6  1  0  0  0  0
  5 64  1  0  0  0  0
  5 65  1  0  0  0  0
  6  7  1  0  0  0  0
  6 66  1  0  0  0  0
  6 67  1  0  0  0  0
  7  8  1  0  0  0  0
  7 68  1  0  0  0  0
  7 69  1  0  0  0  0
  8  9  1  0  0  0  0
  8 70  1  0  0  0  0
  8 71  1  0  0  0  0
  9 10  2  0  0  0  0
  9 72  1  0  0  0  0
 10 11  1  0  0  0  0
 10 73  1  0  0  0  0
 11 12  1  0  0  0  0
 11 74  1  0  0  0  0
 11 75  1  0  0  0  0
 12 13  1  0  0  0  0
 12 76  1  0  0  0  0
 12 77  1  0  0  0  0
 13 14  1  0  0  0  0
 13 78  1  0  0  0  0
 13 79  1  0  0  0  0
 14 15  1  0  0  0  0
 14 80  1  0  0  0  0
 14 81  1  0  0  0  0
 15 16  1  0  0  0  0
 15 82  1  0  0  0  0
 15 83  1  0  0  0  0
 16 17  1  0  0  0  0
 16 84  1  0  0  0  0
 16 85  1  0  0  0  0
 17 18  1  0  0  0  0
 17 86  1  0  0  0  0
 17 87  1  0  0  0  0
 18 19  2  0  0  0  0
 18 20  1  0  0  0  0
 20 21  1  0  0  0  0
 21 88  1  0  0  0  0
 21 89  1  0  0  0  0
 22 35  1  0  0  0  0
 22 90  1  1  0  0  0
 22 23  1  0  0  0  0
 22 21  1  0  0  0  0
 23 24  1  0  0  0  0
 23 91  1  0  0  0  0
 23 92  1  0  0  0  0
 24 25  1  0  0  0  0
 25 26  2  0  0  0  0
 25 27  1  0  0  0  0
 25 28  1  0  0  0  0
 27 93  1  0  0  0  0
 28 29  1  0  0  0  0
 29 30  1  0  0  0  0
 29 94  1  0  0  0  0
 29 95  1  0  0  0  0
 30 31  1  0  0  0  0
 30 96  1  0  0  0  0
 30 97  1  0  0  0  0
 31 32  1  0  0  0  0
 31 33  1  0  0  0  0
 31 34  1  0  0  0  0
 32 98  1  0  0  0  0
 32 99  1  0  0  0  0
 32100  1  0  0  0  0
 33101  1  0  0  0  0
 33102  1  0  0  0  0
 33103  1  0  0  0  0
 34104  1  0  0  0  0
 34105  1  0  0  0  0
 34106  1  0  0  0  0
 35 36  1  0  0  0  0
 36 37  2  0  0  0  0
 36 38  1  0  0  0  0
 38 39  1  0  0  0  0
 38107  1  0  0  0  0
 38108  1  0  0  0  0
 39 40  1  0  0  0  0
 39109  1  0  0  0  0
 39110  1  0  0  0  0
 40 41  1  0  0  0  0
 40111  1  0  0  0  0
 40112  1  0  0  0  0
 41 42  1  0  0  0  0
 41113  1  0  0  0  0
 41114  1  0  0  0  0
 42 43  1  0  0  0  0
 42115  1  0  0  0  0
 42116  1  0  0  0  0
 43 44  1  0  0  0  0
 43117  1  0  0  0  0
 43118  1  0  0  0  0
 44 45  1  0  0  0  0
 44119  1  0  0  0  0
 44120  1  0  0  0  0
 45 46  2  0  0  0  0
 45121  1  0  0  0  0
 46 47  1  0  0  0  0
 46122  1  0  0  0  0
 47 48  1  0  0  0  0
 47123  1  0  0  0  0
 47124  1  0  0  0  0
 48 49  1  0  0  0  0
 48125  1  0  0  0  0
 48126  1  0  0  0  0
 49 50  1  0  0  0  0
 49127  1  0  0  0  0
 49128  1  0  0  0  0
 50 51  1  0  0  0  0
 50129  1  0  0  0  0
 50130  1  0  0  0  0
 51 52  1  0  0  0  0
 51131  1  0  0  0  0
 51132  1  0  0  0  0
 52 53  1  0  0  0  0
 52133  1  0  0  0  0
 52134  1  0  0  0  0
 53 54  1  0  0  0  0
 53135  1  0  0  0  0
 53136  1  0  0  0  0
 54137  1  0  0  0  0
 54138  1  0  0  0  0
 54139  1  0  0  0  0
M  CHG  1  31   1
M  END
>  <DRUGBANK_ID>
DB03690

>  <SECONDARY_ACCESSION_NUMBERS>
EXPT02526

>  <COMMON_NAME>
(Z,Z)-4-Hydroxy-N,N,N-Trimethyl-10-Oxo-7-[(1-Oxo-9-Octadecenyl)Oxy]-3,5,9-Trioxa-4-Phosphaheptacos-18-En-1-Aminium-4-Oxide

$$$$
