
 OpenBabel10282417143D

106111  0  0  0  0  0  0  0  0999 V2000
    9.8665    0.0358    5.0336 C   0  0  3  0  0  0  0  0  0  0  0  0
   10.8676    0.9303    6.7762 C   0  0  0  0  0  0  0  0  0  0  0  0
    9.2302   -2.8683    1.1714 C   0  0  0  0  0  0  0  0  0  0  0  0
    7.3438   -2.6562    2.3137 C   0  0  0  0  0  0  0  0  0  0  0  0
    8.5333   -2.7128    3.1999 C   0  0  0  0  0  0  0  0  0  0  0  0
    9.6257   -2.8526    2.4925 N   0  0  0  0  0  0  0  0  0  0  0  0
    7.8227   -2.7708    1.0793 C   0  0  0  0  0  0  0  0  0  0  0  0
    6.9590   -2.7743   -0.0504 C   0  0  0  0  0  0  0  0  0  0  0  0
    6.9906   -3.5120   -1.1676 C   0  0  0  0  0  0  0  0  0  0  0  0
    5.9270   -2.5231    2.6444 C   0  0  0  0  0  0  0  0  0  0  0  0
    9.5399   -3.0239   -1.3002 C   0  0  0  0  0  0  0  0  0  0  0  0
    8.0671   -2.1482   -1.7680 N   0  0  0  0  0  0  0  0  0  0  0  0
    8.5457   -2.5087   -3.1520 C   0  0  0  0  0  0  0  0  0  0  0  0
    8.9070   -3.9388   -2.9989 C   0  0  0  0  0  0  0  0  0  0  0  0
    9.6139   -4.1598   -2.0296 C   0  0  0  0  0  0  0  0  0  0  0  0
   10.0828   -2.9979    0.1193 C   0  0  0  0  0  0  0  0  0  0  0  0
    7.7532   -1.7812   -4.2258 C   0  0  0  0  0  0  0  0  0  0  0  0
    8.4802   -2.6113    4.7174 C   0  0  0  0  0  0  0  0  0  0  0  0
   10.1440   -5.3134   -1.7793 C   0  0  0  0  0  0  0  0  0  0  0  0
    7.5456   -2.3701   -5.4345 C   0  0  0  0  0  0  0  0  0  0  0  0
    7.9195   -1.0294   -4.0047 N   0  0  0  0  0  0  0  0  0  0  0  0
    9.1625   -1.6190    5.2726 C   0  0  0  0  0  0  0  0  0  0  0  0
    9.9625   -0.6586    4.3441 N   0  0  0  0  0  0  0  0  0  0  0  0
    9.5198   -0.5189    0.2028 C   0  0  0  0  0  0  0  0  0  0  0  0
    9.6826   -0.2256    2.4360 C   0  0  0  0  0  0  0  0  0  0  0  0
    9.2241   -1.0564   -2.5574 C   0  0  0  0  0  0  0  0  0  0  0  0
    9.0208   -2.4203   -4.8056 C   0  0  0  0  0  0  0  0  0  0  0  0
    7.9097   -3.4951   -5.7467 C   0  0  0  0  0  0  0  0  0  0  0  0
    9.2018   -1.1905    6.6440 C   0  0  0  0  0  0  0  0  0  0  0  0
    8.7905   -1.8832    8.0160 C   0  0  0  0  0  0  0  0  0  0  0  0
    8.9407   -1.4706    9.4140 C   0  0  0  0  0  0  0  0  0  0  0  0
    9.6850   -0.3661    9.4441 C   0  0  0  0  0  0  0  0  0  0  0  0
   10.0505    0.1832    7.4308 C   0  0  3  0  0  0  0  0  0  0  0  0
    9.9570    0.1402   11.0189 C   0  0  0  0  0  0  0  0  0  0  0  0
   10.7318    1.2516   11.2646 O   0  0  0  0  0  0  0  0  0  0  0  0
    9.4750   -0.4639   11.9949 O   0  0  0  0  0  0  0  0  0  0  0  0
   11.3996    1.9477   10.2531 C   0  0  0  0  0  0  0  0  0  0  0  0
    9.3635    1.7276    8.4488 C   0  0  0  0  0  0  0  0  0  0  0  0
    9.9127    2.8775    8.4920 O   0  0  0  0  0  0  0  0  0  0  0  0
    8.0512    1.6545    8.3603 O   0  0  0  0  0  0  0  0  0  0  0  0
    7.4263    2.9324    8.3687 C   0  0  0  0  0  0  0  0  0  0  0  0
    8.2720   -3.8167   -6.6840 C   0  0  0  0  0  0  0  0  0  0  0  0
    8.6885   -4.7661   -5.4083 C   0  0  0  0  0  0  0  0  0  0  0  0
   10.3092   -3.5284   -4.7104 C   0  0  0  0  0  0  0  0  0  0  0  0
   10.5827   -2.1958   -3.9263 C   0  0  0  0  0  0  0  0  0  0  0  0
   10.8048   -2.2460   -2.7542 O   0  0  0  0  0  0  0  0  0  0  0  0
    9.9403   -0.9759   -4.5404 O   0  0  0  0  0  0  0  0  0  0  0  0
    8.9989    0.3248   -3.8000 C   0  0  0  0  0  0  0  0  0  0  0  0
    7.7733   -0.1962   -2.2862 C   0  0  0  0  0  0  0  0  0  0  0  0
    9.1662   -1.1830   -1.1130 O   0  0  0  0  0  0  0  0  0  0  0  0
    9.2853   -5.0242   -3.8049 C   0  0  0  0  0  0  0  0  0  0  0  0
   10.7127   -5.2810   -5.0305 C   0  0  0  0  0  0  0  0  0  0  0  0
   11.4843   -5.7169   -4.0008 C   0  0  0  0  0  0  0  0  0  0  0  0
   11.7585   -6.8555   -4.1731 O   0  0  0  0  0  0  0  0  0  0  0  0
   11.8686   -4.9771   -2.9333 O   0  0  0  0  0  0  0  0  0  0  0  0
   12.3826   -5.7667   -1.5863 C   0  0  0  0  0  0  0  0  0  0  0  0
   11.5349   -7.0111   -1.2603 C   0  0  0  0  0  0  0  0  0  0  0  0
   11.3654   -7.8329   -2.3660 O   0  0  0  0  0  0  0  0  0  0  0  0
   10.6237    1.9334    7.2687 H   0  0  0  0  0  0  0  0  0  0  0  0
   11.9347    0.8550    7.5352 H   0  0  0  0  0  0  0  0  0  0  0  0
   11.3951    1.1247    6.0307 H   0  0  0  0  0  0  0  0  0  0  0  0
    5.9658   -2.6059   -0.1669 H   0  0  0  0  0  0  0  0  0  0  0  0
    6.8462   -3.0595   -2.2916 H   0  0  0  0  0  0  0  0  0  0  0  0
    8.0065   -3.6395   -1.2078 H   0  0  0  0  0  0  0  0  0  0  0  0
    5.5071   -1.6239    2.1896 H   0  0  0  0  0  0  0  0  0  0  0  0
    5.3649   -3.3820    2.2724 H   0  0  0  0  0  0  0  0  0  0  0  0
    5.7990   -2.4626    3.7146 H   0  0  0  0  0  0  0  0  0  0  0  0
    8.0501   -1.0547   -1.0863 H   0  0  0  0  0  0  0  0  0  0  0  0
    9.7006   -3.0162   -0.8800 H   0  0  0  0  0  0  0  0  0  0  0  0
    8.3111   -2.2933   -3.4699 H   0  0  0  0  0  0  0  0  0  0  0  0
    7.9269   -3.3538    5.2808 H   0  0  0  0  0  0  0  0  0  0  0  0
   10.9890   -4.8570   -1.4199 H   0  0  0  0  0  0  0  0  0  0  0  0
    9.7449   -5.7107   -0.9663 H   0  0  0  0  0  0  0  0  0  0  0  0
   10.2081   -5.9846   -2.6152 H   0  0  0  0  0  0  0  0  0  0  0  0
   10.5879   -0.0707    3.7698 H   0  0  0  0  0  0  0  0  0  0  0  0
   10.1087    0.3508    1.4692 H   0  0  0  0  0  0  0  0  0  0  0  0
    8.1515   -2.7933    7.9730 H   0  0  0  0  0  0  0  0  0  0  0  0
    8.4967   -2.0420   10.2321 H   0  0  0  0  0  0  0  0  0  0  0  0
   11.1877    0.2173    8.5921 H   0  0  0  0  0  0  0  0  0  0  0  0
   11.9913    1.3504    9.6128 H   0  0  0  0  0  0  0  0  0  0  0  0
   10.5959    2.2736    9.7796 H   0  0  0  0  0  0  0  0  0  0  0  0
   11.8777    2.8611   10.5115 H   0  0  0  0  0  0  0  0  0  0  0  0
    7.5780    3.4256    9.3242 H   0  0  0  0  0  0  0  0  0  0  0  0
    7.8012    3.5694    7.5686 H   0  0  0  0  0  0  0  0  0  0  0  0
    6.3643    2.7718    8.2173 H   0  0  0  0  0  0  0  0  0  0  0  0
    8.9142   -4.9601   -7.6500 H   0  0  0  0  0  0  0  0  0  0  0  0
    7.6229   -5.3950   -7.0279 H   0  0  0  0  0  0  0  0  0  0  0  0
    7.6397   -4.5449   -8.1009 H   0  0  0  0  0  0  0  0  0  0  0  0
    7.6522   -4.7707   -4.2547 H   0  0  0  0  0  0  0  0  0  0  0  0
    8.9812   -5.7401   -5.6292 H   0  0  0  0  0  0  0  0  0  0  0  0
   10.7453   -4.0212   -3.8453 H   0  0  0  0  0  0  0  0  0  0  0  0
   10.5516   -3.2059   -5.6448 H   0  0  0  0  0  0  0  0  0  0  0  0
    9.8666    0.3609   -3.3554 H   0  0  0  0  0  0  0  0  0  0  0  0
    8.1794    0.5399   -4.4242 H   0  0  0  0  0  0  0  0  0  0  0  0
    7.6802    0.5659   -1.7471 H   0  0  0  0  0  0  0  0  0  0  0  0
    6.8930   -1.0238   -2.5660 H   0  0  0  0  0  0  0  0  0  0  0  0
    9.7614   -2.0770   -2.1091 H   0  0  0  0  0  0  0  0  0  0  0  0
    8.6237   -5.8375   -4.0482 H   0  0  0  0  0  0  0  0  0  0  0  0
    8.6827   -3.9493   -4.2562 H   0  0  0  0  0  0  0  0  0  0  0  0
   10.4650   -5.5939   -5.9868 H   0  0  0  0  0  0  0  0  0  0  0  0
   11.4145   -4.4369   -5.3088 H   0  0  0  0  0  0  0  0  0  0  0  0
   13.2968   -5.8560   -1.9951 H   0  0  0  0  0  0  0  0  0  0  0  0
   12.3021   -5.0213   -0.7041 H   0  0  0  0  0  0  0  0  0  0  0  0
   12.0171   -7.4672   -0.4577 H   0  0  0  0  0  0  0  0  0  0  0  0
   10.5350   -6.9272   -0.8487 H   0  0  0  0  0  0  0  0  0  0  0  0
   10.8973   -7.3630   -3.1018 H   0  0  0  0  0  0  0  0  0  0  0  0
  1 29  1  0  0  0  0
  1 33  1  0  0  0  0
  1 25  1  0  0  0  0
  2  1  1  0  0  0  0
  2 59  1  0  0  0  0
  2 60  1  0  0  0  0
  2 61  1  0  0  0  0
  3  7  1  0  0  0  0
  4 10  1  0  0  0  0
  4  5  1  0  0  0  0
  5  6  2  0  0  0  0
  5 18  1  0  0  0  0
  6  3  1  0  0  0  0
  7  8  1  0  0  0  0
  7  4  2  0  0  0  0
  8  9  2  0  0  0  0
  8 62  1  0  0  0  0
  9 63  1  0  0  0  0
  9 64  1  0  0  0  0
 10 65  1  0  0  0  0
 10 66  1  0  0  0  0
 10 67  1  0  0  0  0
 11 16  1  0  0  0  0
 11 12  1  0  0  0  0
 12 13  1  0  0  0  0
 12 68  1  0  0  0  0
 13 17  1  0  0  0  0
 13 14  2  0  0  0  0
 14 15  1  0  0  0  0
 14 51  1  0  0  0  0
 15 11  2  0  0  0  0
 15 19  1  0  0  0  0
 16  3  2  0  0  0  0
 16 69  1  0  0  0  0
 17 20  2  0  0  0  0
 17 70  1  0  0  0  0
 18 71  1  0  0  0  0
 19 72  1  0  0  0  0
 19 73  1  0  0  0  0
 19 74  1  0  0  0  0
 20 21  1  0  0  0  0
 21 26  2  0  0  0  0
 22 18  2  0  0  0  0
 22 23  1  0  0  0  0
 22 29  1  0  0  0  0
 23 75  1  0  0  0  0
 24 25  2  0  0  0  0
 24 76  1  0  0  0  0
 25 23  1  0  0  0  0
 26 27  1  0  0  0  0
 26 24  1  0  0  0  0
 27 28  2  0  0  0  0
 27 42  1  0  0  0  0
 28 20  1  0  0  0  0
 28 43  1  0  0  0  0
 29 30  2  0  0  0  0
 30 31  1  0  0  0  0
 30 77  1  0  0  0  0
 31 32  2  0  0  0  0
 31 78  1  0  0  0  0
 32 33  1  0  0  0  0
 32 34  1  0  0  0  0
 33 38  1  0  0  0  0
 33 79  1  0  0  0  0
 34 35  1  0  0  0  0
 34 36  2  0  0  0  0
 35 37  1  0  0  0  0
 37 80  1  0  0  0  0
 37 81  1  0  0  0  0
 37 82  1  0  0  0  0
 38 39  2  0  0  0  0
 38 40  1  0  0  0  0
 40 41  1  0  0  0  0
 41 83  1  0  0  0  0
 41 84  1  0  0  0  0
 41 85  1  0  0  0  0
 42 86  1  0  0  0  0
 42 87  1  0  0  0  0
 42 88  1  0  0  0  0
 43 44  1  0  0  0  0
 43 89  1  0  0  0  0
 43 90  1  0  0  0  0
 44 45  1  0  0  0  0
 44 91  1  0  0  0  0
 44 92  1  0  0  0  0
 45 46  2  0  0  0  0
 45 47  1  0  0  0  0
 47 48  1  0  0  0  0
 48 49  1  0  0  0  0
 48 93  1  0  0  0  0
 48 94  1  0  0  0  0
 49 50  1  0  0  0  0
 49 95  1  0  0  0  0
 49 96  1  0  0  0  0
 50 97  1  0  0  0  0
 51 52  1  0  0  0  0
 51 98  1  0  0  0  0
 51 99  1  0  0  0  0
 52 53  1  0  0  0  0
 52100  1  0  0  0  0
 52101  1  0  0  0  0
 53 54  2  0  0  0  0
 53 55  1  0  0  0  0
 55 56  1  0  0  0  0
 56 57  1  0  0  0  0
 56102  1  0  0  0  0
 56103  1  0  0  0  0
 57 58  1  0  0  0  0
 57104  1  0  0  0  0
 57105  1  0  0  0  0
 58106  1  0  0  0  0
M  END
>  <DRUGBANK_ID>
DB04980

>  <COMMON_NAME>
Lemuteporfin

>  <CAS_NUMBER>
215808-49-4

>  <UNII>
EZ109VJ012

>  <SYNONYMS>
Lemuteporfin

$$$$
