590
 OpenBabel10282417103D

 58 62  0  0  1  0  0  0  0  0999 V2000
    1.1215    1.4392    0.0988 O   0  0  0  0  0  0  0  0  0  0  0  0
    1.0924   -1.4519   -0.1817 O   0  0  0  0  0  0  0  0  0  0  0  0
    4.3192    1.9828   -0.5064 O   0  0  0  0  0  0  0  0  0  0  0  0
    0.2031    4.8557   10.4543 O   0  0  0  0  0  0  0  0  0  0  0  0
    2.5309    3.9286   11.8837 O   0  0  0  0  0  0  0  0  0  0  0  0
    3.6233    1.6898    1.6557 N   0  0  0  0  0  0  0  0  0  0  0  0
    2.7443    2.2019    4.3184 N   0  0  0  0  0  0  0  0  0  0  0  0
    1.9654    3.1428    6.3459 N   0  0  0  0  0  0  0  0  0  0  0  0
    3.9691    1.9095    6.2729 N   0  0  0  0  0  0  0  0  0  0  0  0
    5.2648    1.5569    8.1486 N   0  0  0  0  0  0  0  0  0  0  0  0
    3.7872    0.6621    2.6907 C   0  0  0  0  0  0  0  0  0  0  0  0
    3.7431    3.0513    2.1967 C   0  0  0  0  0  0  0  0  0  0  0  0
    2.7124    0.8370    3.7847 C   0  0  0  0  0  0  0  0  0  0  0  0
    2.6710    3.2758    3.3182 C   0  0  0  0  0  0  0  0  0  0  0  0
    3.5283    1.4591    0.2913 C   0  0  0  0  0  0  0  0  0  0  0  0
    2.2970    0.6797   -0.2325 C   0  0  3  0  0  0  0  0  0  0  0  0
    2.8941    2.4342    5.6675 C   0  0  0  0  0  0  0  0  0  0  0  0
    2.2177   -0.7299    0.3186 C   0  0  0  0  0  0  0  0  0  0  0  0
   -0.0296    0.6984    0.0229 C   0  0  0  0  0  0  0  0  0  0  0  0
    2.0988    3.3089    7.6938 C   0  0  0  0  0  0  0  0  0  0  0  0
   -0.0455   -0.6964   -0.0721 C   0  0  0  0  0  0  0  0  0  0  0  0
    3.2099    2.8261    8.3802 C   0  0  0  0  0  0  0  0  0  0  0  0
    4.1363    2.1366    7.5910 C   0  0  0  0  0  0  0  0  0  0  0  0
    1.1350    3.9711    8.4804 C   0  0  0  0  0  0  0  0  0  0  0  0
   -1.2332    1.4004    0.0707 C   0  0  0  0  0  0  0  0  0  0  0  0
    3.3579    3.0440    9.7842 C   0  0  0  0  0  0  0  0  0  0  0  0
   -1.2549   -1.3886   -0.0860 C   0  0  0  0  0  0  0  0  0  0  0  0
    1.2618    4.1825    9.8815 C   0  0  0  0  0  0  0  0  0  0  0  0
    2.4031    3.7150   10.5415 C   0  0  0  0  0  0  0  0  0  0  0  0
   -2.4470    0.7087    0.0372 C   0  0  0  0  0  0  0  0  0  0  0  0
   -2.4576   -0.6853   -0.0292 C   0  0  0  0  0  0  0  0  0  0  0  0
    0.2592    5.1201   11.8580 C   0  0  0  0  0  0  0  0  0  0  0  0
    3.6756    3.4711   12.5856 C   0  0  0  0  0  0  0  0  0  0  0  0
    5.5800    1.7647    9.0803 H   0  0  0  0  0  0  0  0  0  0  0  0
    5.9152    1.1559    7.4886 H   0  0  0  0  0  0  0  0  0  0  0  0
    3.8045   -0.3392    2.2608 H   0  0  0  0  0  0  0  0  0  0  0  0
    4.7852    0.8028    3.1237 H   0  0  0  0  0  0  0  0  0  0  0  0
    4.7511    3.1466    2.6197 H   0  0  0  0  0  0  0  0  0  0  0  0
    3.6363    3.7891    1.3944 H   0  0  0  0  0  0  0  0  0  0  0  0
    1.7272    0.6958    3.3174 H   0  0  0  0  0  0  0  0  0  0  0  0
    2.8161    0.0669    4.5543 H   0  0  0  0  0  0  0  0  0  0  0  0
    1.6802    3.2304    2.8469 H   0  0  0  0  0  0  0  0  0  0  0  0
    2.7908    4.2695    3.7593 H   0  0  0  0  0  0  0  0  0  0  0  0
    2.3529    0.6444   -1.3313 H   0  0  0  0  0  0  0  0  0  0  0  0
    3.1235   -1.2881    0.0612 H   0  0  0  0  0  0  0  0  0  0  0  0
    2.0997   -0.7325    1.4015 H   0  0  0  0  0  0  0  0  0  0  0  0
    0.2374    4.3387    7.9834 H   0  0  0  0  0  0  0  0  0  0  0  0
   -1.2292    2.4857    0.1214 H   0  0  0  0  0  0  0  0  0  0  0  0
    4.2450    2.6726   10.2803 H   0  0  0  0  0  0  0  0  0  0  0  0
   -1.2587   -2.4741   -0.1323 H   0  0  0  0  0  0  0  0  0  0  0  0
   -3.3854    1.2571    0.0651 H   0  0  0  0  0  0  0  0  0  0  0  0
   -3.4015   -1.2242   -0.0443 H   0  0  0  0  0  0  0  0  0  0  0  0
    0.2732    4.1883   12.4364 H   0  0  0  0  0  0  0  0  0  0  0  0
    1.1074    5.7704   12.1046 H   0  0  0  0  0  0  0  0  0  0  0  0
   -0.6433    5.6594   12.1592 H   0  0  0  0  0  0  0  0  0  0  0  0
    3.7524    2.3807   12.5463 H   0  0  0  0  0  0  0  0  0  0  0  0
    4.5841    3.9548   12.2155 H   0  0  0  0  0  0  0  0  0  0  0  0
    3.5541    3.7561   13.6367 H   0  0  0  0  0  0  0  0  0  0  0  0
  1 16  1  0  0  0  0
  1 19  1  0  0  0  0
  2 18  1  0  0  0  0
  2 21  1  0  0  0  0
  3 15  2  0  0  0  0
  4 28  1  0  0  0  0
  4 32  1  0  0  0  0
  5 29  1  0  0  0  0
  5 33  1  0  0  0  0
  6 11  1  0  0  0  0
  6 12  1  0  0  0  0
  6 15  1  0  0  0  0
  7 13  1  0  0  0  0
  7 14  1  0  0  0  0
  7 17  1  0  0  0  0
  8 17  2  0  0  0  0
  8 20  1  0  0  0  0
  9 17  1  0  0  0  0
  9 23  2  0  0  0  0
 10 23  1  0  0  0  0
 10 34  1  0  0  0  0
 10 35  1  0  0  0  0
 11 13  1  0  0  0  0
 11 36  1  0  0  0  0
 11 37  1  0  0  0  0
 12 14  1  0  0  0  0
 12 38  1  0  0  0  0
 12 39  1  0  0  0  0
 13 40  1  0  0  0  0
 13 41  1  0  0  0  0
 14 42  1  0  0  0  0
 14 43  1  0  0  0  0
 15 16  1  0  0  0  0
 16 18  1  0  0  0  0
 16 44  1  0  0  0  0
 18 45  1  0  0  0  0
 18 46  1  0  0  0  0
 19 21  1  0  0  0  0
 19 25  2  0  0  0  0
 20 22  1  0  0  0  0
 20 24  2  0  0  0  0
 21 27  2  0  0  0  0
 22 23  1  0  0  0  0
 22 26  2  0  0  0  0
 24 28  1  0  0  0  0
 24 47  1  0  0  0  0
 25 30  1  0  0  0  0
 25 48  1  0  0  0  0
 26 29  1  0  0  0  0
 26 49  1  0  0  0  0
 27 31  1  0  0  0  0
 27 50  1  0  0  0  0
 28 29  2  0  0  0  0
 30 31  2  0  0  0  0
 30 51  1  0  0  0  0
 31 52  1  0  0  0  0
 32 53  1  0  0  0  0
 32 54  1  0  0  0  0
 32 55  1  0  0  0  0
 33 56  1  0  0  0  0
 33 57  1  0  0  0  0
 33 58  1  0  0  0  0
M  END
>  <DRUGBANK_ID>
DB00590

>  <SECONDARY_ACCESSION_NUMBERS>
APRD00474

>  <COMMON_NAME>
Doxazosin

>  <CAS_NUMBER>
74191-85-8

>  <UNII>
NW1291F1W8

>  <SYNONYMS>
1-(4-Amino-6,7-dimethoxy-2-chinazolinyl)-4-(2,3-dihydro-1,4-benzodioxixin-2-ylcarbonyl)piperazin; 1-(4-Amino-6,7-Dimethoxy-2-quinazolinyl)-4-(1,4-benzodioxan-2-ylcarbonyl)piperazin; Doxazosin; Doxazosina; Doxazosine; Doxazosinum

$$$$
