1382
 OpenBabel10282417113D

 36 37  0  0  0  0  0  0  0  0999 V2000
    0.9775   -0.0013   -0.0145 S   0  0  0  0  0  0  0  0  0  0  0  0
    4.1141    5.5345    0.4455 O   0  0  0  0  0  0  0  0  0  0  0  0
    0.5797   -0.6885   -1.2447 O   0  0  0  0  0  0  0  0  0  0  0  0
    0.4733   -0.4825    1.2454 O   0  0  0  0  0  0  0  0  0  0  0  0
    1.2530    6.9370    0.8060 O   0  0  0  0  0  0  0  0  0  0  0  0
    0.3841    1.5826   -0.2004 N   0  0  0  0  0  0  0  0  0  0  0  0
    1.2714    3.2574    1.1972 N   0  0  0  0  0  0  0  0  0  0  0  0
    2.1195    2.9021   -0.9989 N   0  0  0  0  0  0  0  0  0  0  0  0
    2.7612   -0.1399    0.0933 C   0  0  0  0  0  0  0  0  0  0  0  0
    3.5480    0.9568    0.3675 C   0  0  0  0  0  0  0  0  0  0  0  0
    3.4318   -1.3537    0.0303 C   0  0  0  0  0  0  0  0  0  0  0  0
    1.2315    2.6824   -0.0181 C   0  0  0  0  0  0  0  0  0  0  0  0
    3.7649    6.7046    1.2202 C   0  0  0  0  0  0  0  0  0  0  0  0
    4.9272    1.0045    0.3006 C   0  0  0  0  0  0  0  0  0  0  0  0
    4.8364   -1.3711    0.2057 C   0  0  0  0  0  0  0  0  0  0  0  0
    3.2866    4.4434    0.4826 C   0  0  0  0  0  0  0  0  0  0  0  0
    5.5876   -0.1905    0.2601 C   0  0  0  0  0  0  0  0  0  0  0  0
    2.5322    7.5762    0.8082 C   0  0  0  0  0  0  0  0  0  0  0  0
    2.2785    4.1728    1.3999 C   0  0  0  0  0  0  0  0  0  0  0  0
    3.1698    3.7237   -0.7039 C   0  0  0  0  0  0  0  0  0  0  0  0
    1.0638    6.1470   -0.3551 C   0  0  0  0  0  0  0  0  0  0  0  0
   -0.4590    1.6889    0.3604 H   0  0  0  0  0  0  0  0  0  0  0  0
    3.0992    1.8309    0.7526 H   0  0  0  0  0  0  0  0  0  0  0  0
    2.8902   -2.2894   -0.0790 H   0  0  0  0  0  0  0  0  0  0  0  0
    3.7403    6.4361    2.2795 H   0  0  0  0  0  0  0  0  0  0  0  0
    4.6261    7.3783    1.1020 H   0  0  0  0  0  0  0  0  0  0  0  0
    5.4330    1.9619    0.3869 H   0  0  0  0  0  0  0  0  0  0  0  0
    5.3605   -2.3133    0.3283 H   0  0  0  0  0  0  0  0  0  0  0  0
    6.6685   -0.1881    0.3462 H   0  0  0  0  0  0  0  0  0  0  0  0
    2.4498    8.3886    1.5423 H   0  0  0  0  0  0  0  0  0  0  0  0
    2.6804    8.0461   -0.1694 H   0  0  0  0  0  0  0  0  0  0  0  0
    2.1264    4.8165    2.2637 H   0  0  0  0  0  0  0  0  0  0  0  0
    3.9005    3.8185   -1.5028 H   0  0  0  0  0  0  0  0  0  0  0  0
    0.8865    6.6735   -1.2866 H   0  0  0  0  0  0  0  0  0  0  0  0
    2.0028    5.7108   -0.5962 H   0  0  0  0  0  0  0  0  0  0  0  0
    0.3347    5.3569   -0.1582 H   0  0  0  0  0  0  0  0  0  0  0  0
  1  3  2  0  0  0  0
  1  4  2  0  0  0  0
  1  6  1  0  0  0  0
  1  9  1  0  0  0  0
  2 13  1  0  0  0  0
  2 16  1  0  0  0  0
  5 18  1  0  0  0  0
  5 21  1  0  0  0  0
  6 12  1  0  0  0  0
  6 22  1  0  0  0  0
  7 12  1  0  0  0  0
  7 19  2  0  0  0  0
  8 12  2  0  0  0  0
  8 20  1  0  0  0  0
  9 10  2  0  0  0  0
  9 11  1  0  0  0  0
 10 14  1  0  0  0  0
 10 23  1  0  0  0  0
 11 15  2  0  0  0  0
 11 24  1  0  0  0  0
 13 18  1  0  0  0  0
 13 25  1  0  0  0  0
 13 26  1  0  0  0  0
 14 17  2  0  0  0  0
 14 27  1  0  0  0  0
 15 17  1  0  0  0  0
 15 28  1  0  0  0  0
 16 19  1  0  0  0  0
 16 20  2  0  0  0  0
 17 29  1  0  0  0  0
 18 30  1  0  0  0  0
 18 31  1  0  0  0  0
 19 32  1  0  0  0  0
 20 33  1  0  0  0  0
 21 34  1  0  0  0  0
 21 35  1  0  0  0  0
 21 36  1  0  0  0  0
M  END
>  <DRUGBANK_ID>
DB01382

>  <COMMON_NAME>
Glymidine

>  <CAS_NUMBER>
339-44-6

>  <UNII>
4C5I4BQZ8F

>  <SYNONYMS>
Glidiazine; Glycodiazine; Glymidine; Glymidinum

$$$$
