PPL
 OpenBabel10282417173D

 33 33  0  0  0  0  0  0  0  0999 V2000
    1.3449   -0.0560    0.2136 N   0  0  0  0  0  0  0  0  0  0  0  0
    0.6878    1.2040   -0.2455 C   0  0  1  0  0  0  0  0  0  0  0  0
   -0.7561    1.1001    0.2630 C   0  0  0  0  0  0  0  0  0  0  0  0
   -1.5012   -0.1502   -0.1660 C   0  0  0  0  0  0  0  0  0  0  0  0
   -0.7291   -1.3745    0.2315 C   0  0  0  0  0  0  0  0  0  0  0  0
    0.7017   -1.2657   -0.2844 C   0  0  0  0  0  0  0  0  0  0  0  0
    1.6317    2.4029    0.2161 C   0  0  0  0  0  0  0  0  0  0  0  0
    2.7993    2.1410    0.5827 O   0  0  0  0  0  0  0  0  0  0  0  0
    1.3877    3.7423    0.1448 N   0  0  0  0  0  0  0  0  0  0  0  0
    0.2631    4.6418   -0.1994 C   0  0  0  0  0  0  0  0  0  0  0  0
   -0.0479    5.5676    0.9889 C   0  0  0  0  0  0  0  0  0  0  0  0
    0.5708    5.4721   -1.4480 C   0  0  0  0  0  0  0  0  0  0  0  0
   -1.0036    3.8971   -0.4822 C   0  0  0  0  0  0  0  0  0  0  0  0
    0.7089    1.2280   -1.3434 H   0  0  0  0  0  0  0  0  0  0  0  0
    2.3346   -0.0184   -0.0408 H   0  0  0  0  0  0  0  0  0  0  0  0
   -1.4219    1.7984   -0.2045 H   0  0  0  0  0  0  0  0  0  0  0  0
   -0.7992    1.2567    1.3465 H   0  0  0  0  0  0  0  0  0  0  0  0
   -2.5042   -0.1415    0.2775 H   0  0  0  0  0  0  0  0  0  0  0  0
   -1.6419   -0.1233   -1.2561 H   0  0  0  0  0  0  0  0  0  0  0  0
   -0.7385   -1.4571    1.3249 H   0  0  0  0  0  0  0  0  0  0  0  0
   -1.2272   -2.2597   -0.1743 H   0  0  0  0  0  0  0  0  0  0  0  0
    1.2588   -2.1396    0.0639 H   0  0  0  0  0  0  0  0  0  0  0  0
    0.7171   -1.2775   -1.3804 H   0  0  0  0  0  0  0  0  0  0  0  0
    2.2317    4.2326    0.4290 H   0  0  0  0  0  0  0  0  0  0  0  0
    0.7657    6.2678    1.1932 H   0  0  0  0  0  0  0  0  0  0  0  0
   -0.9570    6.1503    0.7910 H   0  0  0  0  0  0  0  0  0  0  0  0
   -0.2289    4.9869    1.9027 H   0  0  0  0  0  0  0  0  0  0  0  0
    0.8320    4.8282   -2.2953 H   0  0  0  0  0  0  0  0  0  0  0  0
   -0.3126    6.0556   -1.7406 H   0  0  0  0  0  0  0  0  0  0  0  0
    1.3931    6.1726   -1.2826 H   0  0  0  0  0  0  0  0  0  0  0  0
   -0.8157    3.1947   -1.3022 H   0  0  0  0  0  0  0  0  0  0  0  0
   -1.2970    3.4405    0.4672 H   0  0  0  0  0  0  0  0  0  0  0  0
   -1.8546    4.5085   -0.7814 H   0  0  0  0  0  0  0  0  0  0  0  0
  1  2  1  0  0  0  0
  1  6  1  0  0  0  0
  1 15  1  0  0  0  0
  2  3  1  0  0  0  0
  2 14  1  6  0  0  0
  2  7  1  0  0  0  0
  3  4  1  0  0  0  0
  3 16  1  0  0  0  0
  3 17  1  0  0  0  0
  4  5  1  0  0  0  0
  4 18  1  0  0  0  0
  4 19  1  0  0  0  0
  5  6  1  0  0  0  0
  5 20  1  0  0  0  0
  5 21  1  0  0  0  0
  6 22  1  0  0  0  0
  6 23  1  0  0  0  0
  7  8  2  0  0  0  0
  7  9  1  0  0  0  0
  9 10  1  0  0  0  0
  9 24  1  0  0  0  0
 10 11  1  0  0  0  0
 10 12  1  0  0  0  0
 10 13  1  0  0  0  0
 11 25  1  0  0  0  0
 11 26  1  0  0  0  0
 11 27  1  0  0  0  0
 12 28  1  0  0  0  0
 12 29  1  0  0  0  0
 12 30  1  0  0  0  0
 13 31  1  0  0  0  0
 13 32  1  0  0  0  0
 13 33  1  0  0  0  0
M  END
>  <DRUGBANK_ID>
DB08421

>  <COMMON_NAME>
PIPERIDINE-2-CARBOXYLIC ACID TERT-BUTYLAMIDE

$$$$
