
 OpenBabel10282417123D

 18 17  0  0  1  0  0  0  0  0999 V2000
    0.9792   -0.0163    0.0413 C   0  0  0  0  0  0  0  0  0  0  0  0
    0.5161    4.4141   -1.0589 C   0  0  0  0  0  0  0  0  0  0  0  0
    1.0267    4.4195   -2.5119 C   0  0  1  0  0  0  0  0  0  0  0  0
    0.5251    3.2192   -3.3208 C   0  0  0  0  0  0  0  0  0  0  0  0
    0.5626    5.6659   -3.1961 N   0  0  0  0  0  0  0  0  0  0  0  0
   -0.4069    3.2228   -4.1032 O   0  0  0  0  0  0  0  0  0  0  0  0
    1.2115    2.0888   -3.0649 O   0  0  0  0  0  0  0  0  0  0  0  0
   -0.0258    1.4069   -0.4881 S   0  0  0  0  0  0  0  0  0  0  0  0
    1.1109    3.0498    0.0443 S   0  0  0  0  0  0  0  0  0  0  0  0
    2.1211    4.4329   -2.5366 H   0  0  0  0  0  0  0  0  0  0  0  0
    0.6498   -0.9108   -0.4998 H   0  0  0  0  0  0  0  0  0  0  0  0
    0.7848   -0.1785    1.1031 H   0  0  0  0  0  0  0  0  0  0  0  0
    2.0551    0.0982   -0.1273 H   0  0  0  0  0  0  0  0  0  0  0  0
   -0.5795    4.4477   -1.0133 H   0  0  0  0  0  0  0  0  0  0  0  0
    0.8611    5.3407   -0.5775 H   0  0  0  0  0  0  0  0  0  0  0  0
    0.8550    5.6080   -4.1755 H   0  0  0  0  0  0  0  0  0  0  0  0
   -0.4602    5.6294   -3.2555 H   0  0  0  0  0  0  0  0  0  0  0  0
    0.5729    1.3652   -3.2386 H   0  0  0  0  0  0  0  0  0  0  0  0
  1 11  1  0  0  0  0
  1 12  1  0  0  0  0
  1 13  1  0  0  0  0
  2 14  1  0  0  0  0
  2 15  1  0  0  0  0
  3  2  1  0  0  0  0
  3  5  1  0  0  0  0
  3 10  1  1  0  0  0
  4  3  1  0  0  0  0
  5 16  1  0  0  0  0
  5 17  1  0  0  0  0
  6  4  2  0  0  0  0
  7  4  1  0  0  0  0
  7 18  1  0  0  0  0
  8  1  1  0  0  0  0
  9  2  1  0  0  0  0
  9  8  1  0  0  0  0
M  END
>  <DRUGBANK_ID>
DB02361

>  <SECONDARY_ACCESSION_NUMBERS>
EXPT02865

>  <COMMON_NAME>
S-Methyl Thiocysteine Group

$$$$
