CAT
 OpenBabel10282417123D

 50 49  0  0  0  0  0  0  0  0999 V2000
    0.9872    0.0787   -0.0462 C   0  0  0  0  0  0  0  0  0  0  0  0
    0.5459   -1.4106   -0.3198 C   0  0  0  0  0  0  0  0  0  0  0  0
    1.0576   -2.5828    0.5880 C   0  0  0  0  0  0  0  0  0  0  0  0
    0.4675   -2.8220    1.9988 C   0  0  0  0  0  0  0  0  0  0  0  0
   -1.0469   -2.5889    1.9703 C   0  0  0  0  0  0  0  0  0  0  0  0
   -1.6743   -3.8911    1.5770 C   0  0  0  0  0  0  0  0  0  0  0  0
   -1.2450   -4.9113    2.6242 C   0  0  0  0  0  0  0  0  0  0  0  0
   -1.6645   -4.4116    4.0184 C   0  0  0  0  0  0  0  0  0  0  0  0
   -3.1899   -4.3037    4.0506 C   0  0  0  0  0  0  0  0  0  0  0  0
   -3.7934   -5.6582    3.6614 C   0  0  0  0  0  0  0  0  0  0  0  0
   -3.2676   -6.7659    4.5788 C   0  0  0  0  0  0  0  0  0  0  0  0
   -3.6658   -6.4732    6.0144 C   0  0  0  0  0  0  0  0  0  0  0  0
    1.0083    2.1050    1.5994 C   0  0  0  0  0  0  0  0  0  0  0  0
   -1.0409    0.7532    1.3270 C   0  0  0  0  0  0  0  0  0  0  0  0
    1.0809   -0.0418    2.3963 C   0  0  0  0  0  0  0  0  0  0  0  0
    0.4908    0.7325    1.2895 N   0  3  0  0  0  0  0  0  0  0  0  0
    0.6085    0.7219   -0.8488 H   0  0  0  0  0  0  0  0  0  0  0  0
    2.0805    0.1218   -0.0374 H   0  0  0  0  0  0  0  0  0  0  0  0
   -0.5374   -1.4783   -0.4744 H   0  0  0  0  0  0  0  0  0  0  0  0
    0.9281   -1.6544   -1.3230 H   0  0  0  0  0  0  0  0  0  0  0  0
    0.8273   -3.5118    0.0437 H   0  0  0  0  0  0  0  0  0  0  0  0
    2.1459   -2.5426    0.6631 H   0  0  0  0  0  0  0  0  0  0  0  0
    0.8593   -3.7759    2.3254 H   0  0  0  0  0  0  0  0  0  0  0  0
    0.8790   -2.3102    2.8856 H   0  0  0  0  0  0  0  0  0  0  0  0
   -1.4208   -2.1488    2.9060 H   0  0  0  0  0  0  0  0  0  0  0  0
   -1.3873   -1.8642    1.2491 H   0  0  0  0  0  0  0  0  0  0  0  0
   -2.7603   -3.7703    1.4995 H   0  0  0  0  0  0  0  0  0  0  0  0
   -1.3433   -4.1646    0.5716 H   0  0  0  0  0  0  0  0  0  0  0  0
   -1.6289   -5.8897    2.3472 H   0  0  0  0  0  0  0  0  0  0  0  0
   -0.1782   -5.1225    2.6321 H   0  0  0  0  0  0  0  0  0  0  0  0
   -1.2620   -5.0778    4.7842 H   0  0  0  0  0  0  0  0  0  0  0  0
   -1.2221   -3.4497    4.3048 H   0  0  0  0  0  0  0  0  0  0  0  0
   -3.5237   -3.9688    5.0352 H   0  0  0  0  0  0  0  0  0  0  0  0
   -3.5559   -3.5236    3.3724 H   0  0  0  0  0  0  0  0  0  0  0  0
   -4.8827   -5.6039    3.6871 H   0  0  0  0  0  0  0  0  0  0  0  0
   -3.5600   -5.9081    2.6186 H   0  0  0  0  0  0  0  0  0  0  0  0
   -3.6578   -7.7317    4.2519 H   0  0  0  0  0  0  0  0  0  0  0  0
   -2.1760   -6.8674    4.5172 H   0  0  0  0  0  0  0  0  0  0  0  0
   -4.7544   -6.4001    6.0813 H   0  0  0  0  0  0  0  0  0  0  0  0
   -3.3076   -7.2550    6.6833 H   0  0  0  0  0  0  0  0  0  0  0  0
   -3.2435   -5.5295    6.3770 H   0  0  0  0  0  0  0  0  0  0  0  0
    0.6223    2.8082    0.8735 H   0  0  0  0  0  0  0  0  0  0  0  0
    0.6507    2.3468    2.6134 H   0  0  0  0  0  0  0  0  0  0  0  0
    2.1025    2.0609    1.6091 H   0  0  0  0  0  0  0  0  0  0  0  0
   -1.4485   -0.0798    0.7646 H   0  0  0  0  0  0  0  0  0  0  0  0
   -1.3803    0.7041    2.3660 H   0  0  0  0  0  0  0  0  0  0  0  0
   -1.3907    1.6551    0.8240 H   0  0  0  0  0  0  0  0  0  0  0  0
    0.7488   -0.9179    2.0608 H   0  0  0  0  0  0  0  0  0  0  0  0
    2.1822   -0.0696    2.3777 H   0  0  0  0  0  0  0  0  0  0  0  0
    0.6266    0.1339    3.3804 H   0  0  0  0  0  0  0  0  0  0  0  0
  1  2  1  0  0  0  0
  1 16  1  0  0  0  0
  1 17  1  0  0  0  0
  1 18  1  0  0  0  0
  2  3  1  0  0  0  0
  2 19  1  0  0  0  0
  2 20  1  0  0  0  0
  3  4  1  0  0  0  0
  3 21  1  0  0  0  0
  3 22  1  0  0  0  0
  4  5  1  0  0  0  0
  4 23  1  0  0  0  0
  4 24  1  0  0  0  0
  5  6  1  0  0  0  0
  5 25  1  0  0  0  0
  5 26  1  0  0  0  0
  6  7  1  0  0  0  0
  6 27  1  0  0  0  0
  6 28  1  0  0  0  0
  7  8  1  0  0  0  0
  7 29  1  0  0  0  0
  7 30  1  0  0  0  0
  8  9  1  0  0  0  0
  8 31  1  0  0  0  0
  8 32  1  0  0  0  0
  9 10  1  0  0  0  0
  9 33  1  0  0  0  0
  9 34  1  0  0  0  0
 10 11  1  0  0  0  0
 10 35  1  0  0  0  0
 10 36  1  0  0  0  0
 11 12  1  0  0  0  0
 11 37  1  0  0  0  0
 11 38  1  0  0  0  0
 12 39  1  0  0  0  0
 12 40  1  0  0  0  0
 12 41  1  0  0  0  0
 13 16  1  0  0  0  0
 13 42  1  0  0  0  0
 13 43  1  0  0  0  0
 13 44  1  0  0  0  0
 14 16  1  0  0  0  0
 14 45  1  0  0  0  0
 14 46  1  0  0  0  0
 14 47  1  0  0  0  0
 15 16  1  0  0  0  0
 15 48  1  0  0  0  0
 15 49  1  0  0  0  0
 15 50  1  0  0  0  0
M  CHG  1  16   1
M  END
>  <DRUGBANK_ID>
DB02779

>  <SECONDARY_ACCESSION_NUMBERS>
EXPT00833

>  <COMMON_NAME>
Dodecyltrimethylammonium

>  <CAS_NUMBER>
10182-91-9

>  <UNII>
GT3793XV5S

>  <SYNONYMS>
Dodecane-trimethylamine; Dodecyl-trimethyl-azanium; Dodecyltrimethylammonium ion; laurtrimonium; laurtrimonium cation; laurtrimonium ion; n-Dodecyltrimethylammonium; N,N,N-Trimethyl-1-dodecanaminium

$$$$
