1359
 OpenBabel10282417113D

 50 51  0  0  1  0  0  0  0  0999 V2000
    0.8340   -0.0820    0.2920 O   0  0  0  0  0  0  0  0  0  0  0  0
    2.4295   -2.5206    0.2442 O   0  0  0  0  0  0  0  0  0  0  0  0
    5.0559   -0.1458    1.5196 N   0  0  0  0  0  0  0  0  0  0  0  0
    2.1220    1.1122   -2.4160 C   0  0  0  0  0  0  0  0  0  0  0  0
    2.2129   -0.3898   -2.6939 C   0  0  0  0  0  0  0  0  0  0  0  0
    3.4042    1.5709   -1.7129 C   0  0  0  0  0  0  0  0  0  0  0  0
    3.6932   -0.7233   -2.6326 C   0  0  0  0  0  0  0  0  0  0  0  0
    4.4219    0.5052   -2.0803 C   0  0  0  0  0  0  0  0  0  0  0  0
    0.8635    1.5134   -1.6848 C   0  0  0  0  0  0  0  0  0  0  0  0
    0.3816    1.0125   -0.4402 C   0  0  0  0  0  0  0  0  0  0  0  0
    0.1016    2.5042   -2.3525 C   0  0  0  0  0  0  0  0  0  0  0  0
    6.5377   -0.1260    1.4687 C   0  0  0  0  0  0  0  0  0  0  0  0
    2.8494   -1.4165    1.0679 C   0  0  1  0  0  0  0  0  0  0  0  0
    4.4129   -1.3574    0.9752 C   0  0  0  0  0  0  0  0  0  0  0  0
    2.2348   -0.1183    0.5421 C   0  0  0  0  0  0  0  0  0  0  0  0
   -0.7832    1.5758    0.0935 C   0  0  0  0  0  0  0  0  0  0  0  0
   -1.0435    3.0510   -1.8012 C   0  0  0  0  0  0  0  0  0  0  0  0
    7.1139   -0.0185    0.0437 C   0  0  0  0  0  0  0  0  0  0  0  0
    6.9943    1.1335    2.2330 C   0  0  0  0  0  0  0  0  0  0  0  0
    7.1113   -1.3654    2.1624 C   0  0  0  0  0  0  0  0  0  0  0  0
   -1.4863    2.5917   -0.5622 C   0  0  0  0  0  0  0  0  0  0  0  0
    1.4904   -2.3717    0.0273 H   0  0  0  0  0  0  0  0  0  0  0  0
    4.7152    0.6863    1.0378 H   0  0  0  0  0  0  0  0  0  0  0  0
    2.1661    1.5982   -3.4012 H   0  0  0  0  0  0  0  0  0  0  0  0
    1.6472   -0.9995   -1.9801 H   0  0  0  0  0  0  0  0  0  0  0  0
    1.7828   -0.6459   -3.6668 H   0  0  0  0  0  0  0  0  0  0  0  0
    3.7309    2.5747   -1.9983 H   0  0  0  0  0  0  0  0  0  0  0  0
    3.3066    1.6820   -0.6274 H   0  0  0  0  0  0  0  0  0  0  0  0
    3.8463   -1.6113   -2.0078 H   0  0  0  0  0  0  0  0  0  0  0  0
    4.0824   -0.9813   -3.6193 H   0  0  0  0  0  0  0  0  0  0  0  0
    4.9711    0.2350   -1.1901 H   0  0  0  0  0  0  0  0  0  0  0  0
    5.1516    0.8861   -2.7956 H   0  0  0  0  0  0  0  0  0  0  0  0
    0.4055    2.8509   -3.3456 H   0  0  0  0  0  0  0  0  0  0  0  0
    2.5258   -1.6190    2.0892 H   0  0  0  0  0  0  0  0  0  0  0  0
    4.7776   -2.2605    1.4701 H   0  0  0  0  0  0  0  0  0  0  0  0
    4.7159   -1.4935   -0.0670 H   0  0  0  0  0  0  0  0  0  0  0  0
    2.6977   -0.1007   -0.4097 H   0  0  0  0  0  0  0  0  0  0  0  0
    2.5272    0.7410    1.1503 H   0  0  0  0  0  0  0  0  0  0  0  0
   -1.1611    1.2159    1.0514 H   0  0  0  0  0  0  0  0  0  0  0  0
   -1.5896    3.8278   -2.3287 H   0  0  0  0  0  0  0  0  0  0  0  0
    6.7982    0.9104   -0.4466 H   0  0  0  0  0  0  0  0  0  0  0  0
    8.2096    0.0023    0.0576 H   0  0  0  0  0  0  0  0  0  0  0  0
    6.8230   -0.8661   -0.5851 H   0  0  0  0  0  0  0  0  0  0  0  0
    6.6381    1.1289    3.2686 H   0  0  0  0  0  0  0  0  0  0  0  0
    8.0891    1.1973    2.2596 H   0  0  0  0  0  0  0  0  0  0  0  0
    6.6287    2.0524    1.7567 H   0  0  0  0  0  0  0  0  0  0  0  0
    6.7225   -1.4530    3.1829 H   0  0  0  0  0  0  0  0  0  0  0  0
    6.8628   -2.2844    1.6212 H   0  0  0  0  0  0  0  0  0  0  0  0
    8.2029   -1.3204    2.2146 H   0  0  0  0  0  0  0  0  0  0  0  0
   -2.3864    3.0076   -0.1279 H   0  0  0  0  0  0  0  0  0  0  0  0
  1 10  1  0  0  0  0
  1 15  1  0  0  0  0
  2 22  1  0  0  0  0
  3 12  1  0  0  0  0
  3 14  1  0  0  0  0
  3 23  1  0  0  0  0
  4  5  1  0  0  0  0
  4  6  1  0  0  0  0
  4  9  1  0  0  0  0
  4 24  1  0  0  0  0
  5  7  1  0  0  0  0
  5 25  1  0  0  0  0
  5 26  1  0  0  0  0
  6  8  1  0  0  0  0
  6 27  1  0  0  0  0
  6 28  1  0  0  0  0
  7  8  1  0  0  0  0
  7 29  1  0  0  0  0
  7 30  1  0  0  0  0
  8 31  1  0  0  0  0
  8 32  1  0  0  0  0
  9 10  1  0  0  0  0
  9 11  2  0  0  0  0
 10 16  2  0  0  0  0
 11 17  1  0  0  0  0
 11 33  1  0  0  0  0
 12 18  1  0  0  0  0
 12 19  1  0  0  0  0
 12 20  1  0  0  0  0
 13  2  1  0  0  0  0
 13 14  1  0  0  0  0
 13 15  1  0  0  0  0
 13 34  1  1  0  0  0
 14 35  1  0  0  0  0
 14 36  1  0  0  0  0
 15 37  1  0  0  0  0
 15 38  1  0  0  0  0
 16 21  1  0  0  0  0
 16 39  1  0  0  0  0
 17 21  2  0  0  0  0
 17 40  1  0  0  0  0
 18 41  1  0  0  0  0
 18 42  1  0  0  0  0
 18 43  1  0  0  0  0
 19 44  1  0  0  0  0
 19 45  1  0  0  0  0
 19 46  1  0  0  0  0
 20 47  1  0  0  0  0
 20 48  1  0  0  0  0
 20 49  1  0  0  0  0
 21 50  1  0  0  0  0
M  END
>  <DRUGBANK_ID>
DB01359

>  <COMMON_NAME>
Penbutolol

>  <CAS_NUMBER>
38363-40-5

>  <UNII>
78W62V43DY

>  <SYNONYMS>
(2S)-1-(tert-butylamino)-3-(2-cyclopentylphenoxy)propan-2-ol; Penbutolol; Penbutololum

$$$$
