
 OpenBabel10282417133D

 35 37  0  0  0  0  0  0  0  0999 V2000
    0.9435   -0.0579   -0.0490 O   0  0  0  0  0  0  0  0  0  0  0  0
    0.3969   -0.9475    0.7931 C   0  0  0  0  0  0  0  0  0  0  0  0
    1.0793   -1.6666    1.5083 O   0  0  0  0  0  0  0  0  0  0  0  0
   -1.0770   -0.9301    0.7620 C   0  0  0  0  0  0  0  0  0  0  0  0
   -1.7856   -0.8563   -0.4379 C   0  0  0  0  0  0  0  0  0  0  0  0
   -3.1873   -0.9861   -0.4346 C   0  0  0  0  0  0  0  0  0  0  0  0
   -3.9062   -1.1782    0.7590 C   0  0  0  0  0  0  0  0  0  0  0  0
   -3.1530   -1.3081    1.9317 C   0  0  0  0  0  0  0  0  0  0  0  0
   -1.7675   -1.1297    1.9521 C   0  0  0  0  0  0  0  0  0  0  0  0
   -5.2873   -1.3677    0.7200 N   0  0  0  0  0  0  0  0  0  0  0  0
   -6.1111   -1.3691    1.9343 C   0  0  0  0  0  0  0  0  0  0  0  0
   -6.9631   -0.1284    2.1337 C   0  0  0  0  0  0  0  0  0  0  0  0
   -8.2957   -0.2736    2.5299 C   0  0  0  0  0  0  0  0  0  0  0  0
   -9.1243    0.7706    2.7851 N   0  0  0  0  0  0  0  0  0  0  0  0
   -8.5758    1.9990    2.6531 C   0  0  0  0  0  0  0  0  0  0  0  0
   -7.2406    2.1470    2.2971 C   0  0  0  0  0  0  0  0  0  0  0  0
   -6.4006    1.1046    2.0344 N   0  0  0  0  0  0  0  0  0  0  0  0
   -6.7447    3.5340    2.1920 C   0  0  0  0  0  0  0  0  0  0  0  0
   -5.5880    3.8223    1.9064 O   0  0  0  0  0  0  0  0  0  0  0  0
   -7.6801    4.5167    2.4360 N   0  0  0  0  0  0  0  0  0  0  0  0
   -8.9797    4.2674    2.7675 C   0  0  0  0  0  0  0  0  0  0  0  0
   -9.4494    3.0694    2.8864 N   0  0  0  0  0  0  0  0  0  0  0  0
   -9.7763    5.3357    2.9714 N   0  0  0  0  0  0  0  0  0  0  0  0
    1.9100   -0.1581    0.0855 H   0  0  0  0  0  0  0  0  0  0  0  0
   -1.2522   -0.7299   -1.3764 H   0  0  0  0  0  0  0  0  0  0  0  0
   -3.7074   -0.9572   -1.3902 H   0  0  0  0  0  0  0  0  0  0  0  0
   -3.6116   -1.5740    2.8751 H   0  0  0  0  0  0  0  0  0  0  0  0
   -1.2432   -1.1700    2.9032 H   0  0  0  0  0  0  0  0  0  0  0  0
   -5.7440   -0.9630   -0.0932 H   0  0  0  0  0  0  0  0  0  0  0  0
   -6.7645   -2.2453    1.8593 H   0  0  0  0  0  0  0  0  0  0  0  0
   -5.5482   -1.5098    2.8585 H   0  0  0  0  0  0  0  0  0  0  0  0
   -8.7475   -1.2526    2.6630 H   0  0  0  0  0  0  0  0  0  0  0  0
   -7.3456    5.4638    2.3544 H   0  0  0  0  0  0  0  0  0  0  0  0
   -9.4713    6.2948    2.9143 H   0  0  0  0  0  0  0  0  0  0  0  0
  -10.7402    5.1556    3.2285 H   0  0  0  0  0  0  0  0  0  0  0  0
  1  2  1  0  0  0  0
  1 24  1  0  0  0  0
  2  3  2  0  0  0  0
  2  4  1  0  0  0  0
  4  5  1  0  0  0  0
  4  9  2  0  0  0  0
  5  6  2  0  0  0  0
  5 25  1  0  0  0  0
  6  7  1  0  0  0  0
  6 26  1  0  0  0  0
  7  8  2  0  0  0  0
  7 10  1  0  0  0  0
  8  9  1  0  0  0  0
  8 27  1  0  0  0  0
  9 28  1  0  0  0  0
 10 11  1  0  0  0  0
 10 29  1  0  0  0  0
 11 12  1  0  0  0  0
 11 30  1  0  0  0  0
 11 31  1  0  0  0  0
 12 13  2  0  0  0  0
 12 17  1  0  0  0  0
 13 14  1  0  0  0  0
 13 32  1  0  0  0  0
 14 15  2  0  0  0  0
 15 16  1  0  0  0  0
 15 22  1  0  0  0  0
 16 17  2  0  0  0  0
 16 18  1  0  0  0  0
 18 19  2  0  0  0  0
 18 20  1  0  0  0  0
 20 21  1  0  0  0  0
 20 33  1  0  0  0  0
 21 22  2  0  0  0  0
 21 23  1  0  0  0  0
 23 34  1  0  0  0  0
 23 35  1  0  0  0  0
M  END
>  <DRUGBANK_ID>
DB04196

>  <SECONDARY_ACCESSION_NUMBERS>
EXPT02678

>  <COMMON_NAME>
Pteroic acid

>  <CAS_NUMBER>
119-24-4

>  <UNII>
8258W48TBZ

$$$$
