
 OpenBabel10282417153D

 60 61  0  0  0  0  0  0  0  0999 V2000
    1.0169   -0.0674   -0.0719 C   0  0  0  0  0  0  0  0  0  0  0  0
    0.5102   -0.5346    1.2829 C   0  0  3  0  0  0  0  0  0  0  0  0
    1.0169    0.4051    2.3648 C   0  0  0  0  0  0  0  0  0  0  0  0
    1.6306   -0.0436    3.5297 C   0  0  0  0  0  0  0  0  0  0  0  0
    1.8892    0.8655    4.5419 C   0  0  0  0  0  0  0  0  0  0  0  0
    1.6021    2.2162    4.4120 C   0  0  0  0  0  0  0  0  0  0  0  0
    0.9791    2.6485    3.2419 C   0  0  0  0  0  0  0  0  0  0  0  0
    0.6838    1.7483    2.2307 C   0  0  0  0  0  0  0  0  0  0  0  0
    0.0370    2.2004    1.0502 O   0  0  0  0  0  0  0  0  0  0  0  0
   -0.2677    1.2816    0.0112 C   0  0  0  0  0  0  0  0  0  0  0  0
    0.6453    4.0198    3.0855 O   0  0  0  0  0  0  0  0  0  0  0  0
    0.0108    4.4649    1.8956 C   0  0  0  0  0  0  0  0  0  0  0  0
    2.6405    0.2913    5.9990 Cl  0  0  0  0  0  0  0  0  0  0  0  0
   -0.9598   -0.5346    1.2828 N   0  0  0  0  0  0  0  0  0  0  0  0
   -1.6948   -1.7843    1.5252 C   0  0  0  0  0  0  0  0  0  0  0  0
   -1.3017   -2.5752    2.5168 C   0  0  0  0  0  0  0  0  0  0  0  0
   -2.0535   -3.6660    2.8814 C   0  0  0  0  0  0  0  0  0  0  0  0
   -3.1719   -4.0164    2.1772 C   0  0  0  0  0  0  0  0  0  0  0  0
   -3.5711   -3.1668    1.2482 C   0  0  0  0  0  0  0  0  0  0  0  0
   -2.7805   -2.1138    0.7306 C   0  0  0  0  0  0  0  0  0  0  0  0
   -3.1539   -1.2734   -0.8283 S   0  0  0  0  0  0  0  0  0  0  0  0
   -3.1345   -2.2892   -1.9729 O   0  0  0  0  0  0  0  0  0  0  0  0
   -4.5394   -0.6291   -0.7415 O   0  0  0  0  0  0  0  0  0  0  0  0
   -1.9116    0.0065   -1.1365 C   0  0  0  0  0  0  0  0  0  0  0  0
   -1.6495   -4.4679    4.0453 N   0  0  0  0  0  0  0  0  0  0  0  0
   -1.5086   -4.0153    5.4344 C   0  0  0  0  0  0  0  0  0  0  0  0
   -0.0779   -4.1985    5.9029 C   0  0  0  0  0  0  0  0  0  0  0  0
    0.3387   -5.6037    5.8201 N   0  0  0  0  0  0  0  0  0  0  0  0
    0.1978   -6.0563    4.4310 C   0  0  0  0  0  0  0  0  0  0  0  0
   -1.2329   -5.8732    3.9625 C   0  0  0  0  0  0  0  0  0  0  0  0
    0.9937   -0.0738   -0.0672 Cl  0  0  0  0  0  0  0  0  0  0  0  0
    0.6602    0.9230   -0.2640 H   0  0  0  0  0  0  0  0  0  0  0  0
    0.6602   -0.7289   -0.8336 H   0  0  0  0  0  0  0  0  0  0  0  0
    2.0869   -0.0674   -0.0719 H   0  0  0  0  0  0  0  0  0  0  0  0
    0.8669   -1.5249    1.4749 H   0  0  0  0  0  0  0  0  0  0  0  0
    1.8983   -1.0735    3.6418 H   0  0  0  0  0  0  0  0  0  0  0  0
    1.8520    2.9080    5.1890 H   0  0  0  0  0  0  0  0  0  0  0  0
    0.6362    0.8332   -0.3448 H   0  0  0  0  0  0  0  0  0  0  0  0
   -0.9190    0.5207    0.3876 H   0  0  0  0  0  0  0  0  0  0  0  0
   -0.7498    1.7986   -0.7920 H   0  0  0  0  0  0  0  0  0  0  0  0
    0.6397    4.2546    1.0559 H   0  0  0  0  0  0  0  0  0  0  0  0
   -0.9233    3.9564    1.7779 H   0  0  0  0  0  0  0  0  0  0  0  0
   -0.1622    5.5190    1.9565 H   0  0  0  0  0  0  0  0  0  0  0  0
   -1.4698    0.3326    1.1147 H   0  0  0  0  0  0  0  0  0  0  0  0
   -0.3914   -2.3610    3.0367 H   0  0  0  0  0  0  0  0  0  0  0  0
   -3.6954   -4.9297    2.3684 H   0  0  0  0  0  0  0  0  0  0  0  0
   -4.5614   -3.2829    0.8600 H   0  0  0  0  0  0  0  0  0  0  0  0
   -1.9252    0.7167   -0.3363 H   0  0  0  0  0  0  0  0  0  0  0  0
   -0.9429   -0.4440   -1.1972 H   0  0  0  0  0  0  0  0  0  0  0  0
   -2.1323    0.5033   -2.0581 H   0  0  0  0  0  0  0  0  0  0  0  0
   -1.7642   -2.9778    5.4910 H   0  0  0  0  0  0  0  0  0  0  0  0
   -2.1614   -4.5872    6.0603 H   0  0  0  0  0  0  0  0  0  0  0  0
    0.5603   -3.6208    5.2675 H   0  0  0  0  0  0  0  0  0  0  0  0
   -0.0000   -3.8718    6.9188 H   0  0  0  0  0  0  0  0  0  0  0  0
   -0.2509   -6.1727    6.4277 H   0  0  0  0  0  0  0  0  0  0  0  0
    0.8460   -5.4765    3.8076 H   0  0  0  0  0  0  0  0  0  0  0  0
    0.4603   -7.0917    4.3683 H   0  0  0  0  0  0  0  0  0  0  0  0
   -1.8712   -6.4509    4.5979 H   0  0  0  0  0  0  0  0  0  0  0  0
   -1.3108   -6.1998    2.9466 H   0  0  0  0  0  0  0  0  0  0  0  0
    2.3237   -0.0738   -0.0672 H   0  0  0  0  0  0  0  0  0  0  0  0
  1  2  1  0  0  0  0
  1 32  1  0  0  0  0
  1 33  1  0  0  0  0
  1 34  1  0  0  0  0
  2  3  1  0  0  0  0
  2 14  1  0  0  0  0
  2 35  1  0  0  0  0
  3  4  2  0  0  0  0
  3  8  1  0  0  0  0
  4  5  1  0  0  0  0
  4 36  1  0  0  0  0
  5  6  2  0  0  0  0
  5 13  1  0  0  0  0
  6  7  1  0  0  0  0
  6 37  1  0  0  0  0
  7  8  2  0  0  0  0
  7 11  1  0  0  0  0
  8  9  1  0  0  0  0
  9 10  1  0  0  0  0
 10 38  1  0  0  0  0
 10 39  1  0  0  0  0
 10 40  1  0  0  0  0
 11 12  1  0  0  0  0
 12 41  1  0  0  0  0
 12 42  1  0  0  0  0
 12 43  1  0  0  0  0
 14 15  1  0  0  0  0
 14 44  1  0  0  0  0
 15 16  2  0  0  0  0
 15 20  1  0  0  0  0
 16 17  1  0  0  0  0
 16 45  1  0  0  0  0
 17 18  2  0  0  0  0
 17 25  1  0  0  0  0
 18 19  1  0  0  0  0
 18 46  1  0  0  0  0
 19 20  2  0  0  0  0
 19 47  1  0  0  0  0
 20 21  1  0  0  0  0
 21 22  2  0  0  0  0
 21 23  2  0  0  0  0
 21 24  1  0  0  0  0
 24 48  1  0  0  0  0
 24 49  1  0  0  0  0
 24 50  1  0  0  0  0
 25 26  1  0  0  0  0
 25 30  1  0  0  0  0
 26 27  1  0  0  0  0
 26 51  1  0  0  0  0
 26 52  1  0  0  0  0
 27 28  1  0  0  0  0
 27 53  1  0  0  0  0
 27 54  1  0  0  0  0
 28 29  1  0  0  0  0
 28 55  1  0  0  0  0
 29 30  1  0  0  0  0
 29 56  1  0  0  0  0
 29 57  1  0  0  0  0
 30 58  1  0  0  0  0
 30 59  1  0  0  0  0
 31 60  1  0  0  0  0
M  END
>  <DRUGBANK_ID>
DB05993

>  <COMMON_NAME>
PRX-07034

>  <CAS_NUMBER>
903580-39-2

>  <UNII>
336H22ETCG

$$$$
