4BT
 OpenBabel10282417123D

 36 36  0  0  0  0  0  0  0  0999 V2000
    1.0863   -0.1779    0.0531 C   0  0  0  0  0  0  0  0  0  0  0  0
    0.5337   -0.7029   -1.2809 C   0  0  0  0  0  0  0  0  0  0  0  0
    2.0052   -4.7213   -1.6543 C   0  0  0  0  0  0  0  0  0  0  0  0
    0.6833   -4.4993   -1.2558 C   0  0  0  0  0  0  0  0  0  0  0  0
    0.1921   -3.1958   -1.1880 C   0  0  0  0  0  0  0  0  0  0  0  0
    1.0052   -2.1054   -1.5366 C   0  0  0  0  0  0  0  0  0  0  0  0
    2.3386   -2.3262   -1.8968 C   0  0  0  0  0  0  0  0  0  0  0  0
    2.8501   -3.6233   -1.8764 C   0  0  0  0  0  0  0  0  0  0  0  0
    2.4988   -6.1021   -1.9802 C   0  0  0  0  0  0  0  0  0  0  0  0
    2.4969   -6.3971   -3.4961 C   0  0  0  0  0  0  0  0  0  0  0  0
    1.5555   -3.5504   -4.5218 N   0  0  0  0  0  0  0  0  0  0  0  0
    2.8837   -3.7847   -4.6792 C   0  0  0  0  0  0  0  0  0  0  0  0
    3.5333   -5.4087   -4.6319 S   0  0  0  0  0  0  0  0  0  0  0  0
    3.7382   -2.8262   -4.8023 N   0  0  0  0  0  0  0  0  0  0  0  0
    2.3881   -2.9121    1.0738 N   0  0  0  0  0  0  0  0  0  0  0  0
    1.1979   -2.6204    1.6193 C   0  0  0  0  0  0  0  0  0  0  0  0
    0.5169   -1.0174    1.5755 S   0  0  0  0  0  0  0  0  0  0  0  0
    0.5193   -3.5628    2.2044 N   0  0  0  0  0  0  0  0  0  0  0  0
    0.7480    0.8620    0.1427 H   0  0  0  0  0  0  0  0  0  0  0  0
    2.1811   -0.1320    0.0345 H   0  0  0  0  0  0  0  0  0  0  0  0
   -0.5606   -0.6432   -1.3154 H   0  0  0  0  0  0  0  0  0  0  0  0
    0.8862   -0.0616   -2.1034 H   0  0  0  0  0  0  0  0  0  0  0  0
    0.0397   -5.3232   -0.9507 H   0  0  0  0  0  0  0  0  0  0  0  0
   -0.7908   -3.0249   -0.7461 H   0  0  0  0  0  0  0  0  0  0  0  0
    2.9999   -1.5022   -2.1638 H   0  0  0  0  0  0  0  0  0  0  0  0
    3.8915   -3.7793   -2.1650 H   0  0  0  0  0  0  0  0  0  0  0  0
    3.4867   -6.2626   -1.5329 H   0  0  0  0  0  0  0  0  0  0  0  0
    1.8382   -6.8349   -1.4923 H   0  0  0  0  0  0  0  0  0  0  0  0
    2.8691   -7.4241   -3.6025 H   0  0  0  0  0  0  0  0  0  0  0  0
    1.4735   -6.4047   -3.8823 H   0  0  0  0  0  0  0  0  0  0  0  0
    1.3631   -2.6168   -4.1705 H   0  0  0  0  0  0  0  0  0  0  0  0
    1.1141   -4.1954   -3.8765 H   0  0  0  0  0  0  0  0  0  0  0  0
    3.2627   -1.9238   -4.7778 H   0  0  0  0  0  0  0  0  0  0  0  0
    2.3882   -3.8438    0.6622 H   0  0  0  0  0  0  0  0  0  0  0  0
    2.6450   -2.2637    0.3430 H   0  0  0  0  0  0  0  0  0  0  0  0
    1.0841   -4.4124    2.1666 H   0  0  0  0  0  0  0  0  0  0  0  0
  1  2  1  0  0  0  0
  1 17  1  0  0  0  0
  1 19  1  0  0  0  0
  1 20  1  0  0  0  0
  2  6  1  0  0  0  0
  2 21  1  0  0  0  0
  2 22  1  0  0  0  0
  3  4  2  0  0  0  0
  3  8  1  0  0  0  0
  3  9  1  0  0  0  0
  4  5  1  0  0  0  0
  4 23  1  0  0  0  0
  5  6  2  0  0  0  0
  5 24  1  0  0  0  0
  6  7  1  0  0  0  0
  7  8  2  0  0  0  0
  7 25  1  0  0  0  0
  8 26  1  0  0  0  0
  9 10  1  0  0  0  0
  9 27  1  0  0  0  0
  9 28  1  0  0  0  0
 10 13  1  0  0  0  0
 10 29  1  0  0  0  0
 10 30  1  0  0  0  0
 11 12  1  0  0  0  0
 11 31  1  0  0  0  0
 11 32  1  0  0  0  0
 12 13  1  0  0  0  0
 12 14  2  0  0  0  0
 14 33  1  0  0  0  0
 15 16  1  0  0  0  0
 15 34  1  0  0  0  0
 15 35  1  0  0  0  0
 16 17  1  0  0  0  0
 16 18  2  0  0  0  0
 18 36  1  0  0  0  0
M  END
>  <DRUGBANK_ID>
DB02141

>  <SECONDARY_ACCESSION_NUMBERS>
EXPT00205

>  <COMMON_NAME>
S,S'-(1,4-Phenylene-Bis(1,2-Ethanediyl))Bis-Isothiourea

$$$$
