
 OpenBabel10282417113D

 29 30  0  0  0  0  0  0  0  0999 V2000
    1.3156   -0.2175    0.0837 C   0  0  0  0  0  0  0  0  0  0  0  0
   -0.9510   -1.0989   -0.0203 C   0  0  0  0  0  0  0  0  0  0  0  0
    0.4251   -1.3046    0.0208 C   0  0  0  0  0  0  0  0  0  0  0  0
    0.7690    1.0762    0.1181 C   0  0  0  0  0  0  0  0  0  0  0  0
   -0.6061    1.2812    0.0755 C   0  0  0  0  0  0  0  0  0  0  0  0
   -1.4648    0.1939   -0.0064 C   0  0  0  0  0  0  0  0  0  0  0  0
    3.6281   -2.6655   -0.7699 N   0  0  0  0  0  0  0  0  0  0  0  0
    3.4355   -2.4972    1.5229 N   0  0  0  0  0  0  0  0  0  0  0  0
    3.2252   -1.3893   -1.0272 C   0  0  0  0  0  0  0  0  0  0  0  0
    3.1381   -1.0448   -2.2069 O   0  0  0  0  0  0  0  0  0  0  0  0
    3.0944   -1.1740    1.5214 C   0  0  0  0  0  0  0  0  0  0  0  0
    2.9796   -0.5906    2.6014 O   0  0  0  0  0  0  0  0  0  0  0  0
    3.7208   -3.2663    0.4419 C   0  0  0  0  0  0  0  0  0  0  0  0
    4.0510   -4.4379    0.5518 O   0  0  0  0  0  0  0  0  0  0  0  0
    2.8274   -0.4989    0.1619 C   0  0  0  0  0  0  0  0  0  0  0  0
    3.7169    0.7815    0.1507 C   0  0  0  0  0  0  0  0  0  0  0  0
    3.6753    1.6092   -1.1357 C   0  0  0  0  0  0  0  0  0  0  0  0
   -1.6208   -1.9528   -0.0526 H   0  0  0  0  0  0  0  0  0  0  0  0
    0.7884   -2.3299    0.0095 H   0  0  0  0  0  0  0  0  0  0  0  0
    1.3849    1.9682    0.1789 H   0  0  0  0  0  0  0  0  0  0  0  0
   -0.9954    2.2947    0.1214 H   0  0  0  0  0  0  0  0  0  0  0  0
   -2.5362    0.3570   -0.0503 H   0  0  0  0  0  0  0  0  0  0  0  0
    3.8201   -3.2388   -1.5798 H   0  0  0  0  0  0  0  0  0  0  0  0
    3.5523   -2.9325    2.4277 H   0  0  0  0  0  0  0  0  0  0  0  0
    3.4454    1.4305    0.9968 H   0  0  0  0  0  0  0  0  0  0  0  0
    4.7624    0.4982    0.3338 H   0  0  0  0  0  0  0  0  0  0  0  0
    2.6664    1.9040   -1.4308 H   0  0  0  0  0  0  0  0  0  0  0  0
    4.2570    2.5256   -1.0131 H   0  0  0  0  0  0  0  0  0  0  0  0
    4.1009    1.0623   -1.9771 H   0  0  0  0  0  0  0  0  0  0  0  0
  1  4  2  0  0  0  0
  2  3  2  0  0  0  0
  2  6  1  0  0  0  0
  2 18  1  0  0  0  0
  3  1  1  0  0  0  0
  3 19  1  0  0  0  0
  4  5  1  0  0  0  0
  4 20  1  0  0  0  0
  5  6  2  0  0  0  0
  5 21  1  0  0  0  0
  6 22  1  0  0  0  0
  7 13  1  0  0  0  0
  7 23  1  0  0  0  0
  8 11  1  0  0  0  0
  8 24  1  0  0  0  0
  9  7  1  0  0  0  0
  9 15  1  0  0  0  0
  9 10  2  0  0  0  0
 11 15  1  0  0  0  0
 11 12  2  0  0  0  0
 13  8  1  0  0  0  0
 13 14  2  0  0  0  0
 15  1  1  0  0  0  0
 15 16  1  0  0  0  0
 16 17  1  0  0  0  0
 16 25  1  0  0  0  0
 16 26  1  0  0  0  0
 17 27  1  0  0  0  0
 17 28  1  0  0  0  0
 17 29  1  0  0  0  0
M  END
>  <DRUGBANK_ID>
DB01174

>  <SECONDARY_ACCESSION_NUMBERS>
APRD00184

>  <COMMON_NAME>
Phenobarbital

>  <CAS_NUMBER>
50-06-6

>  <UNII>
YQE403BP4D

>  <SYNONYMS>
5-ethyl-5-phenyl-2,4,6(1H,3H,5H)-pyrimidinetrione; 5-Ethyl-5-phenyl-pyrimidine-2,4,6-trione; 5-Ethyl-5-phenylbarbituric acid; 5-ethyl-5-phenylpyrimidine-2,4,6(1H,3H,5H)-trione; 5-Phenyl-5-ethylbarbituric acid; Fenobarbital; Phenobarbital; Phenobarbitol; Phenobarbitone; Phenobarbituric Acid; Phenyläthylbarbitursäure; Phenylethylbarbiturate; Phenylethylbarbituric Acid; Phenylethylbarbitursäure; Phenylethylmalonylurea

$$$$
