
 OpenBabel10282417173D

 73 76  0  0  0  0  0  0  0  0999 V2000
   -1.6516    0.8122    0.0441 Br  0  0  0  0  0  0  0  0  0  0  0  0
   -0.4474   -4.0619    1.7321 O   0  0  0  0  0  0  0  0  0  0  0  0
    2.4543   -2.9099   -3.8100 O   0  0  0  0  0  0  0  0  0  0  0  0
    4.4262    0.0258    0.1261 O   0  0  0  0  0  0  0  0  0  0  0  0
    3.1378    2.6488   -0.0563 O   0  0  0  0  0  0  0  0  0  0  0  0
    0.4125   -2.8113   -1.4422 N   0  3  0  0  0  0  0  0  0  0  0  0
    1.4445   -5.6638   -0.8357 C   0  0  3  0  0  0  0  0  0  0  0  0
    1.3650   -6.2025   -2.4138 C   0  0  0  0  0  0  0  0  0  0  0  0
    1.7985   -7.4573   -1.5544 C   0  0  3  0  0  0  0  0  0  0  0  0
    0.5563   -7.1272   -0.6713 C   0  0  0  0  0  0  0  0  0  0  0  0
    2.5275   -5.3085    0.2845 C   0  0  3  0  0  0  0  0  0  0  0  0
    3.0663   -7.4759   -0.6129 C   0  0  0  0  0  0  0  0  0  0  0  0
    2.9214   -6.6715    0.7098 C   0  0  0  0  0  0  0  0  0  0  0  0
   -0.0536   -6.1270   -3.1626 C   0  0  0  0  0  0  0  0  0  0  0  0
    2.3801   -6.0603   -3.5489 C   0  0  0  0  0  0  0  0  0  0  0  0
    2.1919   -4.3971    1.5994 C   0  0  0  0  0  0  0  0  0  0  0  0
    0.8923   -3.5973    1.8048 C   0  0  0  0  0  0  0  0  0  0  0  0
   -0.7293   -4.7590    0.5434 C   0  0  0  0  0  0  0  0  0  0  0  0
   -0.7731   -4.0177   -0.9357 C   0  0  0  0  0  0  0  0  0  0  0  0
    0.1903   -2.2295   -2.8822 C   0  0  0  0  0  0  0  0  0  0  0  0
    2.0355   -2.7999   -1.4575 C   0  0  0  0  0  0  0  0  0  0  0  0
   -0.1116   -1.7985   -0.4317 C   0  0  0  0  0  0  0  0  0  0  0  0
    1.0391   -2.8748   -4.0139 C   0  0  0  0  0  0  0  0  0  0  0  0
    2.8499   -3.4027   -2.5546 C   0  0  0  0  0  0  0  0  0  0  0  0
    0.7983   -0.6949    0.0068 C   0  0  0  0  0  0  0  0  0  0  0  0
    2.1857   -0.8499    0.3372 C   0  0  0  0  0  0  0  0  0  0  0  0
    0.2288    0.5311    0.0263 C   0  0  0  0  0  0  0  0  0  0  0  0
    3.0774    0.2056    0.1834 C   0  0  0  0  0  0  0  0  0  0  0  0
    1.0847    1.6240    0.0414 C   0  0  0  0  0  0  0  0  0  0  0  0
    2.4858    1.4449    0.0514 C   0  0  0  0  0  0  0  0  0  0  0  0
    5.1094   -1.2287    0.1164 C   0  0  0  0  0  0  0  0  0  0  0  0
    4.5519    2.5915   -0.0278 C   0  0  0  0  0  0  0  0  0  0  0  0
    1.0406   -4.7078   -0.7805 H   0  0  0  0  0  0  0  0  0  0  0  0
    1.7540   -8.3181   -2.2277 H   0  0  0  0  0  0  0  0  0  0  0  0
    0.3847   -8.2201   -0.7019 H   0  0  0  0  0  0  0  0  0  0  0  0
    0.3946   -7.2497    0.4107 H   0  0  0  0  0  0  0  0  0  0  0  0
    3.4095   -4.8399   -0.1841 H   0  0  0  0  0  0  0  0  0  0  0  0
    3.2638   -8.5024   -0.3359 H   0  0  0  0  0  0  0  0  0  0  0  0
    3.9027   -7.0422   -1.1709 H   0  0  0  0  0  0  0  0  0  0  0  0
    2.1251   -7.0245    1.3762 H   0  0  0  0  0  0  0  0  0  0  0  0
    3.8365   -6.6090    1.3007 H   0  0  0  0  0  0  0  0  0  0  0  0
   -0.3575   -5.0996   -3.4173 H   0  0  0  0  0  0  0  0  0  0  0  0
   -0.0427   -6.6189   -4.1378 H   0  0  0  0  0  0  0  0  0  0  0  0
   -0.9035   -6.5283   -2.5970 H   0  0  0  0  0  0  0  0  0  0  0  0
    3.4079   -6.0677   -3.1834 H   0  0  0  0  0  0  0  0  0  0  0  0
    2.2600   -6.8142   -4.3213 H   0  0  0  0  0  0  0  0  0  0  0  0
    2.2129   -5.1420   -4.1048 H   0  0  0  0  0  0  0  0  0  0  0  0
    2.9373   -3.5712    1.5422 H   0  0  0  0  0  0  0  0  0  0  0  0
    2.5122   -4.8514    2.5419 H   0  0  0  0  0  0  0  0  0  0  0  0
    1.0139   -3.0186    0.9356 H   0  0  0  0  0  0  0  0  0  0  0  0
    0.9184   -2.8390    2.5988 H   0  0  0  0  0  0  0  0  0  0  0  0
   -1.6118   -5.4128    0.6357 H   0  0  0  0  0  0  0  0  0  0  0  0
    0.0169   -5.5069    0.6685 H   0  0  0  0  0  0  0  0  0  0  0  0
   -1.7535   -3.5654   -1.1099 H   0  0  0  0  0  0  0  0  0  0  0  0
   -0.7154   -4.7868   -1.6575 H   0  0  0  0  0  0  0  0  0  0  0  0
    0.5523   -1.1959   -2.8095 H   0  0  0  0  0  0  0  0  0  0  0  0
   -0.8761   -2.2365   -3.0934 H   0  0  0  0  0  0  0  0  0  0  0  0
    2.3967   -3.1803   -0.5318 H   0  0  0  0  0  0  0  0  0  0  0  0
    2.3326   -1.7673   -1.6314 H   0  0  0  0  0  0  0  0  0  0  0  0
   -0.4995   -2.2714    0.4604 H   0  0  0  0  0  0  0  0  0  0  0  0
   -1.0633   -1.5107   -0.8746 H   0  0  0  0  0  0  0  0  0  0  0  0
    0.9075   -2.2863   -4.9259 H   0  0  0  0  0  0  0  0  0  0  0  0
    0.6896   -3.8583   -4.2934 H   0  0  0  0  0  0  0  0  0  0  0  0
    2.7928   -4.4401   -2.3654 H   0  0  0  0  0  0  0  0  0  0  0  0
    3.9415   -3.2697   -2.4624 H   0  0  0  0  0  0  0  0  0  0  0  0
    2.6725   -1.7718    0.5525 H   0  0  0  0  0  0  0  0  0  0  0  0
    0.6433    2.5988    0.0065 H   0  0  0  0  0  0  0  0  0  0  0  0
    4.8884   -1.8236    1.0065 H   0  0  0  0  0  0  0  0  0  0  0  0
    4.9123   -1.7998   -0.7974 H   0  0  0  0  0  0  0  0  0  0  0  0
    6.1892   -1.0243    0.1283 H   0  0  0  0  0  0  0  0  0  0  0  0
    4.9151    2.1360    0.9014 H   0  0  0  0  0  0  0  0  0  0  0  0
    4.9323    2.0765   -0.9181 H   0  0  0  0  0  0  0  0  0  0  0  0
    4.9179    3.6152   -0.0518 H   0  0  0  0  0  0  0  0  0  0  0  0
  1 27  1  0  0  0  0
  2 17  1  0  0  0  0
  2 18  1  0  0  0  0
  3 23  1  0  0  0  0
  3 24  1  0  0  0  0
  4 28  1  0  0  0  0
  4 31  1  0  0  0  0
  5 30  1  0  0  0  0
  5 32  1  0  0  0  0
  6 19  1  0  0  0  0
  6 20  1  0  0  0  0
  6 21  1  0  0  0  0
  6 22  1  0  0  0  0
  7  8  1  0  0  0  0
  7 10  1  0  0  0  0
  7 11  1  0  0  0  0
  7 33  1  0  0  0  0
  8  9  1  0  0  0  0
  8 14  1  0  0  0  0
  8 15  1  0  0  0  0
  9 10  1  0  0  0  0
  9 12  1  0  0  0  0
  9 34  1  0  0  0  0
 10 35  1  0  0  0  0
 10 36  1  0  0  0  0
 11 13  1  0  0  0  0
 11 16  1  0  0  0  0
 11 37  1  0  0  0  0
 12 13  1  0  0  0  0
 12 38  1  0  0  0  0
 12 39  1  0  0  0  0
 13 40  1  0  0  0  0
 13 41  1  0  0  0  0
 14 42  1  0  0  0  0
 14 43  1  0  0  0  0
 14 44  1  0  0  0  0
 15 45  1  0  0  0  0
 15 46  1  0  0  0  0
 15 47  1  0  0  0  0
 16 17  1  0  0  0  0
 16 48  1  0  0  0  0
 16 49  1  0  0  0  0
 17 50  1  0  0  0  0
 17 51  1  0  0  0  0
 18 19  1  0  0  0  0
 18 52  1  0  0  0  0
 18 53  1  0  0  0  0
 19 54  1  0  0  0  0
 19 55  1  0  0  0  0
 20 23  1  0  0  0  0
 20 56  1  0  0  0  0
 20 57  1  0  0  0  0
 21 24  1  0  0  0  0
 21 58  1  0  0  0  0
 21 59  1  0  0  0  0
 22 25  1  0  0  0  0
 22 60  1  0  0  0  0
 22 61  1  0  0  0  0
 23 62  1  0  0  0  0
 23 63  1  0  0  0  0
 24 64  1  0  0  0  0
 24 65  1  0  0  0  0
 25 26  2  0  0  0  0
 25 27  1  0  0  0  0
 26 28  1  0  0  0  0
 26 66  1  0  0  0  0
 27 29  2  0  0  0  0
 28 30  2  0  0  0  0
 29 30  1  0  0  0  0
 29 67  1  0  0  0  0
 31 68  1  0  0  0  0
 31 69  1  0  0  0  0
 31 70  1  0  0  0  0
 32 71  1  0  0  0  0
 32 72  1  0  0  0  0
 32 73  1  0  0  0  0
M  CHG  1   6   1
M  END
>  <DRUGBANK_ID>
DB09090

>  <COMMON_NAME>
Pinaverium

>  <CAS_NUMBER>
59995-65-2

>  <UNII>
U2368VVE7O

$$$$
