
 OpenBabel10282417123D

 29 29  0  0  0  0  0  0  0  0999 V2000
   -4.4693    2.4277   -0.6130 N   0  0  0  0  0  0  0  0  0  0  0  0
   -3.4455    3.1306    0.0015 C   0  0  0  0  0  0  0  0  0  0  0  0
   -2.4510    2.4661    0.9782 C   0  0  2  0  0  0  0  0  0  0  0  0
   -2.1294    1.0138    0.6673 C   0  0  0  0  0  0  0  0  0  0  0  0
   -0.6018    0.3689    1.3920 S   0  0  0  0  0  0  0  0  0  0  0  0
   -2.8989    2.6495    2.4302 C   0  0  0  0  0  0  0  0  0  0  0  0
   -3.3369    4.3519   -0.1459 O   0  0  0  0  0  0  0  0  0  0  0  0
   -5.4068    3.0714   -1.5524 C   0  0  2  0  0  0  0  0  0  0  0  0
   -6.0690    4.4282   -1.2727 C   0  0  0  0  0  0  0  0  0  0  0  0
   -5.7705    5.3101   -0.4829 O   0  0  0  0  0  0  0  0  0  0  0  0
   -7.1703    4.5981   -2.0477 O   0  0  0  0  0  0  0  0  0  0  0  0
   -6.5676    2.0532   -1.5200 C   0  0  0  0  0  0  0  0  0  0  0  0
   -5.9037    0.7035   -1.4778 C   0  0  0  0  0  0  0  0  0  0  0  0
   -4.6178    0.9769   -0.7295 C   0  0  0  0  0  0  0  0  0  0  0  0
   -1.5210    3.0399    0.8434 H   0  0  0  0  0  0  0  0  0  0  0  0
   -2.9152    0.3690    1.0631 H   0  0  0  0  0  0  0  0  0  0  0  0
   -2.0376    0.8801   -0.4117 H   0  0  0  0  0  0  0  0  0  0  0  0
    0.2112    1.2444    0.7908 H   0  0  0  0  0  0  0  0  0  0  0  0
   -2.1811    2.1981    3.1247 H   0  0  0  0  0  0  0  0  0  0  0  0
   -2.9733    3.7107    2.6937 H   0  0  0  0  0  0  0  0  0  0  0  0
   -3.8767    2.1920    2.6081 H   0  0  0  0  0  0  0  0  0  0  0  0
   -4.9330    3.0957   -2.5443 H   0  0  0  0  0  0  0  0  0  0  0  0
   -7.5902    5.4001   -1.6758 H   0  0  0  0  0  0  0  0  0  0  0  0
   -7.1452    2.1963   -0.5946 H   0  0  0  0  0  0  0  0  0  0  0  0
   -7.2577    2.1380   -2.3625 H   0  0  0  0  0  0  0  0  0  0  0  0
   -6.5101   -0.0483   -0.9631 H   0  0  0  0  0  0  0  0  0  0  0  0
   -5.7023    0.3356   -2.4897 H   0  0  0  0  0  0  0  0  0  0  0  0
   -4.6732    0.5342    0.2619 H   0  0  0  0  0  0  0  0  0  0  0  0
   -3.7958    0.5556   -1.3181 H   0  0  0  0  0  0  0  0  0  0  0  0
  2  1  1  0  0  0  0
  3  6  1  0  0  0  0
  3 15  1  6  0  0  0
  3  4  1  0  0  0  0
  3  2  1  0  0  0  0
  4 16  1  0  0  0  0
  4 17  1  0  0  0  0
  5  4  1  0  0  0  0
  5 18  1  0  0  0  0
  6 19  1  0  0  0  0
  6 20  1  0  0  0  0
  6 21  1  0  0  0  0
  7  2  2  0  0  0  0
  8  1  1  0  0  0  0
  8 22  1  6  0  0  0
  8  9  1  0  0  0  0
 10  9  2  0  0  0  0
 11  9  1  0  0  0  0
 11 23  1  0  0  0  0
 12  8  1  0  0  0  0
 12 13  1  0  0  0  0
 12 24  1  0  0  0  0
 12 25  1  0  0  0  0
 13 14  1  0  0  0  0
 13 26  1  0  0  0  0
 13 27  1  0  0  0  0
 14  1  1  0  0  0  0
 14 28  1  0  0  0  0
 14 29  1  0  0  0  0
M  END
>  <DRUGBANK_ID>
DB02032

>  <SECONDARY_ACCESSION_NUMBERS>
EXPT02137

>  <COMMON_NAME>
Epicaptopril

>  <CAS_NUMBER>
63250-36-2

>  <UNII>
PPW0ENH1HA

>  <SYNONYMS>
(2S)-1-((2R)-2-Methyl-3-sulfanylpropanoyl)pyrrolidine-2-carboxylic acid; 2-D-Methyl-3-mercaptopropanoyl-L-proline

$$$$
