
 OpenBabel10282417233D

 46 49  0  0  1  0  0  0  0  0999 V2000
   -0.2713    1.2285    0.1111 C   0  0  0  0  0  0  0  0  0  0  0  0
   -0.8757   -0.0660   -0.4571 C   0  0  2  0  0  0  0  0  0  0  0  0
   -0.2610   -1.3136    0.2303 C   0  0  2  0  0  0  0  0  0  0  0  0
    1.2654   -1.2990    0.1599 C   0  0  0  0  0  0  0  0  0  0  0  0
    1.9279    0.0439    0.4708 C   0  0  0  0  0  0  0  0  0  0  0  0
    1.2306    1.2810   -0.0987 C   0  0  0  0  0  0  0  0  0  0  0  0
   -0.8538   -0.1330   -1.9444 N   0  0  0  0  0  0  0  0  0  0  0  0
   -0.8358   -2.5340   -0.3520 N   0  0  0  0  0  0  0  0  0  0  0  0
    0.2802   -0.1892   -2.7534 C   0  0  0  0  0  0  0  0  0  0  0  0
    1.1271   -1.2660   -2.6989 N   0  0  0  0  0  0  0  0  0  0  0  0
    2.4316   -1.1831   -3.1229 C   0  0  0  0  0  0  0  0  0  0  0  0
    2.8016   -0.0903   -3.8415 C   0  0  0  0  0  0  0  0  0  0  0  0
    1.8780    0.9180   -4.1145 C   0  0  0  0  0  0  0  0  0  0  0  0
    0.6248    0.9067   -3.5409 C   0  0  0  0  0  0  0  0  0  0  0  0
    3.3859   -2.2070   -2.6855 C   0  0  0  0  0  0  0  0  0  0  0  0
    4.6547   -2.0880   -2.0482 C   0  0  0  0  0  0  0  0  0  0  0  0
    5.2327   -3.2694   -1.7975 N   0  0  0  0  0  0  0  0  0  0  0  0
    4.3437   -4.1584   -2.2750 N   0  0  0  0  0  0  0  0  0  0  0  0
    3.2212   -3.5733   -2.7989 C   0  0  0  0  0  0  0  0  0  0  0  0
    4.6183   -5.5708   -2.1374 C   0  0  0  0  0  0  0  0  0  0  0  0
   -0.1901    1.9626   -3.6777 F   0  0  0  0  0  0  0  0  0  0  0  0
    2.4591    1.8761   -5.0797 C   0  0  0  0  0  0  0  0  0  0  0  0
    3.6274    1.1604   -5.5271 N   0  0  0  0  0  0  0  0  0  0  0  0
    3.9940    0.1508   -4.6579 C   0  0  0  0  0  0  0  0  0  0  0  0
    5.0447   -0.4296   -4.6302 O   0  0  0  0  0  0  0  0  0  0  0  0
   -0.7548    2.1089   -0.3288 H   0  0  0  0  0  0  0  0  0  0  0  0
   -0.4605    1.2867    1.1947 H   0  0  0  0  0  0  0  0  0  0  0  0
   -1.9386   -0.0424   -0.1649 H   0  0  0  0  0  0  0  0  0  0  0  0
   -0.5195   -1.3029    1.2976 H   0  0  0  0  0  0  0  0  0  0  0  0
    1.5648   -1.5503   -0.8255 H   0  0  0  0  0  0  0  0  0  0  0  0
    1.7265   -2.1296    0.7005 H   0  0  0  0  0  0  0  0  0  0  0  0
    2.9531    0.0305    0.0796 H   0  0  0  0  0  0  0  0  0  0  0  0
    1.9877    0.1411    1.5563 H   0  0  0  0  0  0  0  0  0  0  0  0
    1.4453    1.3863   -1.1607 H   0  0  0  0  0  0  0  0  0  0  0  0
    1.6501    2.1900    0.3456 H   0  0  0  0  0  0  0  0  0  0  0  0
   -1.7412   -0.0257   -2.4142 H   0  0  0  0  0  0  0  0  0  0  0  0
   -1.8497   -2.5225   -0.3017 H   0  0  0  0  0  0  0  0  0  0  0  0
   -0.4701   -3.3740    0.0764 H   0  0  0  0  0  0  0  0  0  0  0  0
    5.1869   -1.1937   -1.7468 H   0  0  0  0  0  0  0  0  0  0  0  0
    2.4156   -4.1618   -3.2091 H   0  0  0  0  0  0  0  0  0  0  0  0
    5.5701   -5.8052   -2.6241 H   0  0  0  0  0  0  0  0  0  0  0  0
    4.6765   -5.8077   -1.0711 H   0  0  0  0  0  0  0  0  0  0  0  0
    3.8144   -6.1465   -2.6015 H   0  0  0  0  0  0  0  0  0  0  0  0
    2.8032    2.7888   -4.5850 H   0  0  0  0  0  0  0  0  0  0  0  0
    1.7887    2.0855   -5.9125 H   0  0  0  0  0  0  0  0  0  0  0  0
    4.1636    1.3451   -6.3638 H   0  0  0  0  0  0  0  0  0  0  0  0
  1  2  1  0  0  0  0
  1  6  1  0  0  0  0
  1 26  1  0  0  0  0
  1 27  1  0  0  0  0
  2 28  1  1  0  0  0
  2  7  1  0  0  0  0
  3  2  1  0  0  0  0
  3 29  1  1  0  0  0
  3  8  1  0  0  0  0
  4  3  1  0  0  0  0
  4 30  1  0  0  0  0
  4 31  1  0  0  0  0
  5  4  1  0  0  0  0
  5 32  1  0  0  0  0
  5 33  1  0  0  0  0
  6  5  1  0  0  0  0
  6 34  1  0  0  0  0
  6 35  1  0  0  0  0
  7  9  1  0  0  0  0
  7 36  1  0  0  0  0
  8 37  1  0  0  0  0
  8 38  1  0  0  0  0
  9 14  1  0  0  0  0
 10  9  2  0  0  0  0
 11 10  1  0  0  0  0
 11 15  1  0  0  0  0
 12 11  2  0  0  0  0
 12 24  1  0  0  0  0
 13 12  1  0  0  0  0
 13 22  1  0  0  0  0
 14 13  2  0  0  0  0
 14 21  1  0  0  0  0
 16 17  2  0  0  0  0
 16 15  1  0  0  0  0
 16 39  1  0  0  0  0
 17 18  1  0  0  0  0
 18 19  1  0  0  0  0
 18 20  1  0  0  0  0
 19 15  2  0  0  0  0
 19 40  1  0  0  0  0
 20 41  1  0  0  0  0
 20 42  1  0  0  0  0
 20 43  1  0  0  0  0
 22 23  1  0  0  0  0
 22 44  1  0  0  0  0
 22 45  1  0  0  0  0
 23 24  1  0  0  0  0
 23 46  1  0  0  0  0
 24 25  2  0  0  0  0
M  END
>  <DRUGBANK_ID>
DB16849

>  <COMMON_NAME>
Mivavotinib

>  <CAS_NUMBER>
1312691-33-0

>  <UNII>
8QR88H79VX

>  <SYNONYMS>
6-{[(1r,2s)-2-Aminocyclohexyl]amino}-7-Fluoro-4-(1-Methyl-1h-Pyrazol-4-Yl)-1,2-Dihydro-3h-Pyrrolo[3,4-C]pyridin-3-One; Mivavotinib

$$$$
