
 OpenBabel10282417173D

 41 43  0  0  0  0  0  0  0  0999 V2000
   -1.9512   -0.9964   -0.0921 C   0  0  0  0  0  0  0  0  0  0  0  0
   -3.0379   -0.1367   -0.0441 C   0  0  0  0  0  0  0  0  0  0  0  0
   -2.8219    1.2387    0.0348 C   0  0  0  0  0  0  0  0  0  0  0  0
   -1.5238    1.7545    0.0675 C   0  0  0  0  0  0  0  0  0  0  0  0
   -0.6498   -0.4809   -0.0780 C   0  0  0  0  0  0  0  0  0  0  0  0
   -0.4472    0.8820    0.0186 C   0  0  0  0  0  0  0  0  0  0  0  0
    1.7452   -0.8854    0.0622 C   0  0  0  0  0  0  0  0  0  0  0  0
    3.0210   -2.6005    1.4335 C   0  0  0  0  0  0  0  0  0  0  0  0
    2.9920   -1.7501    0.1551 C   0  0  1  0  0  0  0  0  0  0  0  0
    3.2118   -2.6135   -1.1172 C   0  0  0  0  0  0  0  0  0  0  0  0
    0.4999   -1.3505   -0.1434 C   0  0  0  0  0  0  0  0  0  0  0  0
    0.1483   -2.6476   -0.4248 O   0  0  0  0  0  0  0  0  0  0  0  0
    0.8472    1.4168    0.0566 O   0  0  0  0  0  0  0  0  0  0  0  0
    1.9714    0.5949    0.0578 C   0  0  0  0  0  0  0  0  0  0  0  0
    3.0946    1.0685   -0.0214 O   0  0  0  0  0  0  0  0  0  0  0  0
    2.0018   -3.5036    1.7833 C   0  0  0  0  0  0  0  0  0  0  0  0
    4.1184   -2.5275    2.2991 C   0  0  0  0  0  0  0  0  0  0  0  0
    4.2201   -3.4063    3.3860 C   0  0  0  0  0  0  0  0  0  0  0  0
    3.2081   -4.3250    3.6648 C   0  0  0  0  0  0  0  0  0  0  0  0
    2.0929   -4.3720    2.8585 C   0  0  0  0  0  0  0  0  0  0  0  0
    3.2222   -1.7848   -2.4059 C   0  0  1  0  0  0  0  0  0  0  0  0
    4.3823   -0.9664   -2.4369 O   0  0  0  0  0  0  0  0  0  0  0  0
    3.2295   -2.7081   -3.6148 C   0  0  0  0  0  0  0  0  0  0  0  0
    3.8776   -1.1010    0.2116 H   0  0  0  0  0  0  0  0  0  0  0  0
    2.3410   -1.1390   -2.4883 H   0  0  0  0  0  0  0  0  0  0  0  0
   -2.1221   -2.0712   -0.1410 H   0  0  0  0  0  0  0  0  0  0  0  0
   -4.0432   -0.5463   -0.0743 H   0  0  0  0  0  0  0  0  0  0  0  0
   -3.6723    1.9115    0.0713 H   0  0  0  0  0  0  0  0  0  0  0  0
   -1.3521    2.8235    0.1248 H   0  0  0  0  0  0  0  0  0  0  0  0
    4.1552   -3.1643   -1.0171 H   0  0  0  0  0  0  0  0  0  0  0  0
    2.4622   -3.3977   -1.2282 H   0  0  0  0  0  0  0  0  0  0  0  0
    0.9251   -3.2143   -0.4624 H   0  0  0  0  0  0  0  0  0  0  0  0
    1.0539   -3.5801    1.2866 H   0  0  0  0  0  0  0  0  0  0  0  0
    4.9049   -1.7897    2.1446 H   0  0  0  0  0  0  0  0  0  0  0  0
    5.1029   -3.3846    4.0171 H   0  0  0  0  0  0  0  0  0  0  0  0
    3.2681   -4.9892    4.5192 H   0  0  0  0  0  0  0  0  0  0  0  0
    1.2758   -5.0654    3.0392 H   0  0  0  0  0  0  0  0  0  0  0  0
    4.3145   -0.3006   -1.7256 H   0  0  0  0  0  0  0  0  0  0  0  0
    2.3295   -3.3331   -3.6349 H   0  0  0  0  0  0  0  0  0  0  0  0
    3.2693   -2.1279   -4.5413 H   0  0  0  0  0  0  0  0  0  0  0  0
    4.1076   -3.3612   -3.5992 H   0  0  0  0  0  0  0  0  0  0  0  0
  1  2  2  0  0  0  0
  1  5  1  0  0  0  0
  1 26  1  0  0  0  0
  2  3  1  0  0  0  0
  2 27  1  0  0  0  0
  3  4  2  0  0  0  0
  3 28  1  0  0  0  0
  4  6  1  0  0  0  0
  4 29  1  0  0  0  0
  6  5  2  0  0  0  0
  6 13  1  0  0  0  0
  7  9  1  0  0  0  0
  8 16  2  0  0  0  0
  8 17  1  0  0  0  0
  9  8  1  0  0  0  0
  9 10  1  0  0  0  0
  9 24  1  1  0  0  0
 10 21  1  0  0  0  0
 10 30  1  0  0  0  0
 10 31  1  0  0  0  0
 11  5  1  0  0  0  0
 11  7  2  0  0  0  0
 11 12  1  0  0  0  0
 12 32  1  0  0  0  0
 13 14  1  0  0  0  0
 14  7  1  0  0  0  0
 14 15  2  0  0  0  0
 16 33  1  0  0  0  0
 17 18  2  0  0  0  0
 17 34  1  0  0  0  0
 18 19  1  0  0  0  0
 18 35  1  0  0  0  0
 19 20  2  0  0  0  0
 19 36  1  0  0  0  0
 20 16  1  0  0  0  0
 20 37  1  0  0  0  0
 21 22  1  0  0  0  0
 21 23  1  0  0  0  0
 21 25  1  6  0  0  0
 22 38  1  0  0  0  0
 23 39  1  0  0  0  0
 23 40  1  0  0  0  0
 23 41  1  0  0  0  0
M  END
>  <DRUGBANK_ID>
DB08735

>  <COMMON_NAME>
R,S-Warfarin alcohol

>  <CAS_NUMBER>
37571-78-1

>  <UNII>
7FF8Z7G342

$$$$
