379
 OpenBabel10282417103D

 30 30  0  0  1  0  0  0  0  0999 V2000
    1.2005    0.0061   -0.0107 O   0  0  0  0  0  0  0  0  0  0  0  0
    1.8252    2.0145    2.2591 N   0  0  0  0  0  0  0  0  0  0  0  0
    0.5328    1.9063    1.5503 C   0  0  3  0  0  0  0  0  0  0  0  0
    0.4094    1.1739    0.1650 C   0  0  0  0  0  0  0  0  0  0  0  0
    2.5517    0.1201   -0.1972 C   0  0  0  0  0  0  0  0  0  0  0  0
    3.3038    1.3171   -0.3486 C   0  0  0  0  0  0  0  0  0  0  0  0
    3.2310   -1.1292   -0.1088 C   0  0  0  0  0  0  0  0  0  0  0  0
   -0.1032    3.2998    1.3982 C   0  0  0  0  0  0  0  0  0  0  0  0
    4.6946    1.2401   -0.2222 C   0  0  0  0  0  0  0  0  0  0  0  0
    4.6253   -1.1568   -0.0729 C   0  0  0  0  0  0  0  0  0  0  0  0
    5.3575    0.0242   -0.0896 C   0  0  0  0  0  0  0  0  0  0  0  0
    2.7854    2.7096   -0.6203 C   0  0  0  0  0  0  0  0  0  0  0  0
    2.4975   -2.4502   -0.0270 C   0  0  0  0  0  0  0  0  0  0  0  0
    2.2904    2.9076    2.1078 H   0  0  0  0  0  0  0  0  0  0  0  0
    2.4758    1.2959    1.9376 H   0  0  0  0  0  0  0  0  0  0  0  0
   -0.0716    1.3268    2.2518 H   0  0  0  0  0  0  0  0  0  0  0  0
    0.5031    1.8174   -0.7155 H   0  0  0  0  0  0  0  0  0  0  0  0
   -0.6344    0.8348    0.1013 H   0  0  0  0  0  0  0  0  0  0  0  0
   -1.1897    3.2034    1.3346 H   0  0  0  0  0  0  0  0  0  0  0  0
    0.1383    3.9582    2.2381 H   0  0  0  0  0  0  0  0  0  0  0  0
    0.2178    3.8185    0.4847 H   0  0  0  0  0  0  0  0  0  0  0  0
    5.2903    2.1520   -0.2151 H   0  0  0  0  0  0  0  0  0  0  0  0
    5.1620   -2.1014   -0.0015 H   0  0  0  0  0  0  0  0  0  0  0  0
    6.4349    0.0048   -0.0135 H   0  0  0  0  0  0  0  0  0  0  0  0
    2.2939    2.7812   -1.5917 H   0  0  0  0  0  0  0  0  0  0  0  0
    2.1068    3.0797    0.1288 H   0  0  0  0  0  0  0  0  0  0  0  0
    3.5851    3.4564   -0.5775 H   0  0  0  0  0  0  0  0  0  0  0  0
    1.8890   -2.5141    0.8799 H   0  0  0  0  0  0  0  0  0  0  0  0
    1.8671   -2.6006   -0.9088 H   0  0  0  0  0  0  0  0  0  0  0  0
    3.2035   -3.2916    0.0023 H   0  0  0  0  0  0  0  0  0  0  0  0
  1  4  1  0  0  0  0
  1  5  1  0  0  0  0
  2  3  1  0  0  0  0
  2 14  1  0  0  0  0
  2 15  1  0  0  0  0
  3  4  1  0  0  0  0
  3  8  1  0  0  0  0
  3 16  1  0  0  0  0
  4 17  1  0  0  0  0
  4 18  1  0  0  0  0
  5  6  2  0  0  0  0
  5  7  1  0  0  0  0
  6  9  1  0  0  0  0
  6 12  1  0  0  0  0
  7 10  2  0  0  0  0
  7 13  1  0  0  0  0
  8 19  1  0  0  0  0
  8 20  1  0  0  0  0
  8 21  1  0  0  0  0
  9 11  2  0  0  0  0
  9 22  1  0  0  0  0
 10 11  1  0  0  0  0
 10 23  1  0  0  0  0
 11 24  1  0  0  0  0
 12 25  1  0  0  0  0
 12 26  1  0  0  0  0
 12 27  1  0  0  0  0
 13 28  1  0  0  0  0
 13 29  1  0  0  0  0
 13 30  1  0  0  0  0
M  END
>  <DRUGBANK_ID>
DB00379

>  <SECONDARY_ACCESSION_NUMBERS>
APRD00242

>  <COMMON_NAME>
Mexiletine

>  <CAS_NUMBER>
31828-71-4

>  <UNII>
1U511HHV4Z

>  <SYNONYMS>
(±)-1-(2,6-dimethylphenoxy)propan-2-amine; (2RS)-1-(2,6-dimethylphenoxy)-2-aminopropane; 1-(2,6-dimethylphenoxy)-2-propanamine; 1-(2',6'-dimethylphenoxy)-2-aminopropane; 1-methyl-2-(2,6-xylyloxy)ethanamine; Mexiletina; Mexiletine; Mexilétine; Mexiletinum

$$$$
