
 OpenBabel10282417123D

 45 45  0  0  0  0  0  0  0  0999 V2000
    0.8553   -0.0406   -0.3600 O   0  0  0  0  0  0  0  0  0  0  0  0
    6.4562   -1.9123    3.5142 O   0  0  0  0  0  0  0  0  0  0  0  0
    3.6704    6.2352    5.3540 O   0  5  0  0  0  0  0  0  0  0  0  0
    3.4744    4.5025    4.0171 O   0  0  0  0  0  0  0  0  0  0  0  0
    2.2795    0.4412    2.0183 N   0  0  0  0  0  0  0  0  0  0  0  0
    4.2420   -2.1032    3.2134 N   0  0  0  0  0  0  0  0  0  0  0  0
    2.8921    0.2281   -1.3080 N   0  0  0  0  0  0  0  0  0  0  0  0
    5.0248    1.0025    2.7464 N   0  0  0  0  0  0  0  0  0  0  0  0
    5.4259    2.3468    6.7985 N   0  0  0  0  0  0  0  0  0  0  0  0
    4.5055    4.3449    6.0223 N   0  0  0  0  0  0  0  0  0  0  0  0
    5.2223    2.8828    4.5097 N   0  0  0  0  0  0  0  0  0  0  0  0
    3.8682    5.0754    5.0666 N   0  3  0  0  0  0  0  0  0  0  0  0
    2.8125   -1.7501    3.0334 C   0  0  2  0  0  0  0  0  0  0  0  0
    2.4226   -1.8780    1.5740 C   0  0  0  0  0  0  0  0  0  0  0  0
    2.7704   -0.5079    1.0067 C   0  0  1  0  0  0  0  0  0  0  0  0
    2.3046   -0.3154    3.2515 C   0  0  0  0  0  0  0  0  0  0  0  0
    2.0749   -0.1275   -0.2788 C   0  0  0  0  0  0  0  0  0  0  0  0
    5.3512   -1.3772    3.5018 C   0  0  0  0  0  0  0  0  0  0  0  0
    5.2032    0.0575    3.9000 C   0  0  2  0  0  0  0  0  0  0  0  0
    4.2401    0.1741    5.1978 C   0  0  0  0  0  0  0  0  0  0  0  0
    4.9291   -0.0664    6.4949 C   0  0  0  0  0  0  0  0  0  0  0  0
    6.0074    0.9855    6.6672 C   0  0  0  0  0  0  0  0  0  0  0  0
    5.0660    3.1180    5.8250 C   0  0  0  0  0  0  0  0  0  0  0  0
    1.3229    0.7400    1.8187 H   0  0  0  0  0  0  0  0  0  0  0  0
    4.5031   -3.0818    3.1365 H   0  0  0  0  0  0  0  0  0  0  0  0
    3.8969    0.3138   -1.2290 H   0  0  0  0  0  0  0  0  0  0  0  0
    2.4405    0.5829   -2.1385 H   0  0  0  0  0  0  0  0  0  0  0  0
    4.0674    1.3518    2.6013 H   0  0  0  0  0  0  0  0  0  0  0  0
    5.2887    0.5907    1.8504 H   0  0  0  0  0  0  0  0  0  0  0  0
    4.6794    4.7564    6.9242 H   0  0  0  0  0  0  0  0  0  0  0  0
    5.4786    1.9635    4.2418 H   0  0  0  0  0  0  0  0  0  0  0  0
    4.3811    3.0662    3.9517 H   0  0  0  0  0  0  0  0  0  0  0  0
    2.2784   -2.4499    3.6854 H   0  0  0  0  0  0  0  0  0  0  0  0
    1.3414   -2.0391    1.5199 H   0  0  0  0  0  0  0  0  0  0  0  0
    2.9383   -2.6908    1.0607 H   0  0  0  0  0  0  0  0  0  0  0  0
    3.8569   -0.4302    0.8828 H   0  0  0  0  0  0  0  0  0  0  0  0
    1.4829   -0.1869    3.9619 H   0  0  0  0  0  0  0  0  0  0  0  0
    3.0296    0.2939    3.6734 H   0  0  0  0  0  0  0  0  0  0  0  0
    6.2282    0.3238    4.1618 H   0  0  0  0  0  0  0  0  0  0  0  0
    3.6805    1.1245    5.2522 H   0  0  0  0  0  0  0  0  0  0  0  0
    3.4479   -0.5862    5.2404 H   0  0  0  0  0  0  0  0  0  0  0  0
    4.1894   -0.0262    7.3076 H   0  0  0  0  0  0  0  0  0  0  0  0
    5.2971   -1.1002    6.4606 H   0  0  0  0  0  0  0  0  0  0  0  0
    6.5386    0.7042    7.5807 H   0  0  0  0  0  0  0  0  0  0  0  0
    6.7598    0.9121    5.8789 H   0  0  0  0  0  0  0  0  0  0  0  0
  1 17  2  0  0  0  0
  2 18  2  0  0  0  0
  3 12  1  0  0  0  0
  4 12  2  0  0  0  0
  5 15  1  0  0  0  0
  5 16  1  0  0  0  0
  5 24  1  0  0  0  0
  6 18  1  0  0  0  0
  6 25  1  0  0  0  0
  7 17  1  0  0  0  0
  7 26  1  0  0  0  0
  7 27  1  0  0  0  0
  8 28  1  0  0  0  0
  8 29  1  0  0  0  0
  9 22  1  0  0  0  0
  9 23  2  0  0  0  0
 10 12  1  0  0  0  0
 10 23  1  0  0  0  0
 10 30  1  0  0  0  0
 11 23  1  0  0  0  0
 11 31  1  0  0  0  0
 11 32  1  0  0  0  0
 13 14  1  0  0  0  0
 13 16  1  0  0  0  0
 13 33  1  1  0  0  0
 13  6  1  0  0  0  0
 14 15  1  0  0  0  0
 14 34  1  0  0  0  0
 14 35  1  0  0  0  0
 15 17  1  0  0  0  0
 15 36  1  6  0  0  0
 16 37  1  0  0  0  0
 16 38  1  0  0  0  0
 18 19  1  0  0  0  0
 19  8  1  0  0  0  0
 19 20  1  0  0  0  0
 19 39  1  1  0  0  0
 20 21  1  0  0  0  0
 20 40  1  0  0  0  0
 20 41  1  0  0  0  0
 21 22  1  0  0  0  0
 21 42  1  0  0  0  0
 21 43  1  0  0  0  0
 22 44  1  0  0  0  0
 22 45  1  0  0  0  0
M  CHG  2   3  -1  12   1
M  END
>  <DRUGBANK_ID>
DB02077

>  <SECONDARY_ACCESSION_NUMBERS>
EXPT01254

>  <COMMON_NAME>
L-N(omega)-nitroarginine-(4R)-amino-L-proline amide

$$$$
