
 OpenBabel10282417193D

 93 96  0  0  1  0  0  0  0  0999 V2000
   -2.9213   13.4315    3.2032 C   0  0  0  0  0  0  0  0  0  0  0  0
   -4.1610   13.1307    3.9697 C   0  0  0  0  0  0  0  0  0  0  0  0
   -5.4068   13.3301    3.0706 C   0  0  0  0  0  0  0  0  0  0  0  0
   -5.5717   12.2512    2.0272 C   0  0  0  0  0  0  0  0  0  0  0  0
   -5.5813   10.7355    2.5462 C   0  0  0  0  0  0  0  0  0  0  0  0
   -4.1277   10.1019    2.6926 C   0  0  0  0  0  0  0  0  0  0  0  0
   -4.0570    8.6251    3.0600 N   0  0  0  0  0  0  0  0  0  0  0  0
   -4.0472    7.8338    1.8737 C   0  0  0  0  0  0  0  0  0  0  0  0
   -2.8902    7.2008    1.4255 C   0  0  0  0  0  0  0  0  0  0  0  0
   -2.9028    6.3628    0.2948 C   0  0  0  0  0  0  0  0  0  0  0  0
   -4.0335    6.3241   -0.5447 C   0  0  0  0  0  0  0  0  0  0  0  0
   -5.1801    6.9936   -0.1549 C   0  0  0  0  0  0  0  0  0  0  0  0
   -5.1901    7.6638    1.0659 C   0  0  0  0  0  0  0  0  0  0  0  0
   -6.7474    8.3114    1.5339 S   0  0  0  0  0  0  0  0  0  0  0  0
   -7.7208    8.0322    0.5122 O   0  0  0  0  0  0  0  0  0  0  0  0
   -7.0221    7.8248    2.8881 O   0  0  0  0  0  0  0  0  0  0  0  0
   -6.3446   10.0457    1.3828 C   0  0  0  0  0  0  0  0  0  0  0  0
   -4.2106    5.6275   -1.7044 O   0  0  0  0  0  0  0  0  0  0  0  0
   -3.0842    5.0271   -2.3215 C   0  0  0  0  0  0  0  0  0  0  0  0
   -2.0432    6.0112   -2.8517 C   0  0  0  0  0  0  0  0  0  0  0  0
   -0.8380    5.9256   -2.6146 O   0  0  0  0  0  0  0  0  0  0  0  0
   -2.4555    7.0166   -3.6736 N   0  0  0  0  0  0  0  0  0  0  0  0
   -3.7675    7.2143   -4.3243 C   0  0  2  0  0  0  0  0  0  0  0  0
   -4.3905    5.9290   -4.9020 C   0  0  0  0  0  0  0  0  0  0  0  0
   -5.2485    5.0495   -4.2603 C   0  0  0  0  0  0  0  0  0  0  0  0
   -5.3184    3.6948   -4.6699 C   0  0  0  0  0  0  0  0  0  0  0  0
   -4.7314    3.2555   -5.8535 C   0  0  0  0  0  0  0  0  0  0  0  0
   -4.1227    4.1887   -6.6440 C   0  0  0  0  0  0  0  0  0  0  0  0
   -3.9878    5.4720   -6.1339 C   0  0  0  0  0  0  0  0  0  0  0  0
   -3.4930    8.3286   -5.4039 C   0  0  0  0  0  0  0  0  0  0  0  0
   -4.1931    9.3471   -5.4377 O   0  0  0  0  0  0  0  0  0  0  0  0
   -2.4889    8.2217   -6.3533 N   0  0  0  0  0  0  0  0  0  0  0  0
   -1.5289    7.1377   -6.6913 C   0  0  0  0  0  0  0  0  0  0  0  0
   -1.6841    6.4517   -8.0986 C   0  0  0  0  0  0  0  0  0  0  0  0
   -0.8001    5.8311   -8.6756 O   0  0  0  0  0  0  0  0  0  0  0  0
   -2.9448    6.3885   -8.5930 O   0  0  0  0  0  0  0  0  0  0  0  0
   -1.6727    5.0539    0.2507 S   0  0  0  0  0  0  0  0  0  0  0  0
   -0.1257    5.8298    0.6816 C   0  0  0  0  0  0  0  0  0  0  0  0
   -3.7619    8.2095    4.4076 C   0  0  0  0  0  0  0  0  0  0  0  0
   -4.6822    8.3748    5.4589 C   0  0  0  0  0  0  0  0  0  0  0  0
   -4.4659    8.1922    6.8373 C   0  0  0  0  0  0  0  0  0  0  0  0
   -3.3622    7.4927    7.2261 C   0  0  0  0  0  0  0  0  0  0  0  0
   -2.5093    7.0575    6.2151 C   0  0  0  0  0  0  0  0  0  0  0  0
   -2.6624    7.4702    4.8460 C   0  0  0  0  0  0  0  0  0  0  0  0
   -6.4215   10.4617    3.8246 C   0  0  0  0  0  0  0  0  0  0  0  0
   -6.0647   10.8791    5.2671 C   0  0  0  0  0  0  0  0  0  0  0  0
   -6.4835   12.2543    5.6519 C   0  0  0  0  0  0  0  0  0  0  0  0
   -7.8642   12.6665    5.2181 C   0  0  0  0  0  0  0  0  0  0  0  0
   -2.9144   12.8569    2.2759 H   0  0  0  0  0  0  0  0  0  0  0  0
   -2.0472   13.1499    3.7932 H   0  0  0  0  0  0  0  0  0  0  0  0
   -2.9277   14.4988    2.9953 H   0  0  0  0  0  0  0  0  0  0  0  0
   -4.0526   12.1173    4.3426 H   0  0  0  0  0  0  0  0  0  0  0  0
   -4.1839   13.7268    4.8939 H   0  0  0  0  0  0  0  0  0  0  0  0
   -6.3991   13.2599    3.5005 H   0  0  0  0  0  0  0  0  0  0  0  0
   -5.4801   14.3829    2.7804 H   0  0  0  0  0  0  0  0  0  0  0  0
   -6.5574   12.4621    1.5724 H   0  0  0  0  0  0  0  0  0  0  0  0
   -4.8596   12.4131    1.2118 H   0  0  0  0  0  0  0  0  0  0  0  0
   -3.6094   10.2815    1.7314 H   0  0  0  0  0  0  0  0  0  0  0  0
   -3.4966   10.6405    3.3947 H   0  0  0  0  0  0  0  0  0  0  0  0
   -1.9761    7.2917    1.9967 H   0  0  0  0  0  0  0  0  0  0  0  0
   -6.0921    6.9331   -0.7511 H   0  0  0  0  0  0  0  0  0  0  0  0
   -7.3085   10.5333    1.1850 H   0  0  0  0  0  0  0  0  0  0  0  0
   -5.7740   10.1504    0.4448 H   0  0  0  0  0  0  0  0  0  0  0  0
   -2.7340    4.1992   -1.7179 H   0  0  0  0  0  0  0  0  0  0  0  0
   -3.3641    4.4352   -3.1836 H   0  0  0  0  0  0  0  0  0  0  0  0
   -1.7253    7.7039   -3.8385 H   0  0  0  0  0  0  0  0  0  0  0  0
   -4.4312    7.6443   -3.5644 H   0  0  0  0  0  0  0  0  0  0  0  0
   -5.7439    5.3369   -3.3401 H   0  0  0  0  0  0  0  0  0  0  0  0
   -5.7843    2.9651   -4.0161 H   0  0  0  0  0  0  0  0  0  0  0  0
   -4.7859    2.2242   -6.1836 H   0  0  0  0  0  0  0  0  0  0  0  0
   -3.7491    3.9448   -7.6320 H   0  0  0  0  0  0  0  0  0  0  0  0
   -3.5897    6.2263   -6.7454 H   0  0  0  0  0  0  0  0  0  0  0  0
   -2.5326    8.9762   -7.0293 H   0  0  0  0  0  0  0  0  0  0  0  0
   -0.5258    7.5637   -6.6361 H   0  0  0  0  0  0  0  0  0  0  0  0
   -1.5737    6.3612   -5.9205 H   0  0  0  0  0  0  0  0  0  0  0  0
   -3.0190    5.5762   -9.1451 H   0  0  0  0  0  0  0  0  0  0  0  0
   -0.0587    6.9060    0.5059 H   0  0  0  0  0  0  0  0  0  0  0  0
   -0.0202    5.6032    1.7394 H   0  0  0  0  0  0  0  0  0  0  0  0
    0.6733    5.3289    0.1273 H   0  0  0  0  0  0  0  0  0  0  0  0
   -5.7210    8.5449    5.2602 H   0  0  0  0  0  0  0  0  0  0  0  0
   -5.2160    8.5205    7.5563 H   0  0  0  0  0  0  0  0  0  0  0  0
   -3.2277    7.2350    8.2739 H   0  0  0  0  0  0  0  0  0  0  0  0
   -1.7185    6.3665    6.4953 H   0  0  0  0  0  0  0  0  0  0  0  0
   -1.8876    7.1537    4.1622 H   0  0  0  0  0  0  0  0  0  0  0  0
   -7.4932   10.5231    3.6284 H   0  0  0  0  0  0  0  0  0  0  0  0
   -6.3001    9.4092    3.8963 H   0  0  0  0  0  0  0  0  0  0  0  0
   -6.5417   10.2154    5.9955 H   0  0  0  0  0  0  0  0  0  0  0  0
   -4.9831   10.7748    5.4125 H   0  0  0  0  0  0  0  0  0  0  0  0
   -6.0801   12.6762    6.5747 H   0  0  0  0  0  0  0  0  0  0  0  0
   -5.8612   12.8011    5.0333 H   0  0  0  0  0  0  0  0  0  0  0  0
   -8.5926   12.3749    5.9618 H   0  0  0  0  0  0  0  0  0  0  0  0
   -7.8690   13.7470    5.0420 H   0  0  0  0  0  0  0  0  0  0  0  0
   -8.1592   12.2344    4.2549 H   0  0  0  0  0  0  0  0  0  0  0  0
  1  2  1  0  0  0  0
  1 49  1  0  0  0  0
  1 50  1  0  0  0  0
  1 51  1  0  0  0  0
  2  3  1  0  0  0  0
  2 52  1  0  0  0  0
  2 53  1  0  0  0  0
  3  4  1  0  0  0  0
  3 54  1  0  0  0  0
  3 55  1  0  0  0  0
  4  5  1  0  0  0  0
  4 56  1  0  0  0  0
  4 57  1  0  0  0  0
  5  6  1  0  0  0  0
  5 17  1  0  0  0  0
  5 45  1  0  0  0  0
  6  7  1  0  0  0  0
  6 58  1  0  0  0  0
  6 59  1  0  0  0  0
  7  8  1  0  0  0  0
  7 39  1  0  0  0  0
  8  9  2  0  0  0  0
  8 13  1  0  0  0  0
  9 10  1  0  0  0  0
  9 60  1  0  0  0  0
 10 11  2  0  0  0  0
 10 37  1  0  0  0  0
 11 12  1  0  0  0  0
 11 18  1  0  0  0  0
 12 13  2  0  0  0  0
 12 61  1  0  0  0  0
 13 14  1  0  0  0  0
 14 15  2  0  0  0  0
 14 16  2  0  0  0  0
 14 17  1  0  0  0  0
 17 62  1  0  0  0  0
 17 63  1  0  0  0  0
 18 19  1  0  0  0  0
 19 20  1  0  0  0  0
 19 64  1  0  0  0  0
 19 65  1  0  0  0  0
 20 21  2  0  0  0  0
 20 22  1  0  0  0  0
 22 66  1  0  0  0  0
 23 30  1  0  0  0  0
 23 67  1  1  0  0  0
 23 24  1  0  0  0  0
 23 22  1  0  0  0  0
 24 25  2  0  0  0  0
 24 29  1  0  0  0  0
 25 26  1  0  0  0  0
 25 68  1  0  0  0  0
 26 27  2  0  0  0  0
 26 69  1  0  0  0  0
 27 28  1  0  0  0  0
 27 70  1  0  0  0  0
 28 29  2  0  0  0  0
 28 71  1  0  0  0  0
 29 72  1  0  0  0  0
 30 31  2  0  0  0  0
 30 32  1  0  0  0  0
 32 33  1  0  0  0  0
 32 73  1  0  0  0  0
 33 34  1  0  0  0  0
 33 74  1  0  0  0  0
 33 75  1  0  0  0  0
 34 35  2  0  0  0  0
 34 36  1  0  0  0  0
 36 76  1  0  0  0  0
 37 38  1  0  0  0  0
 38 77  1  0  0  0  0
 38 78  1  0  0  0  0
 38 79  1  0  0  0  0
 39 40  2  0  0  0  0
 39 44  1  0  0  0  0
 40 41  1  0  0  0  0
 40 80  1  0  0  0  0
 41 42  2  0  0  0  0
 41 81  1  0  0  0  0
 42 43  1  0  0  0  0
 42 82  1  0  0  0  0
 43 44  2  0  0  0  0
 43 83  1  0  0  0  0
 44 84  1  0  0  0  0
 45 46  1  0  0  0  0
 45 85  1  0  0  0  0
 45 86  1  0  0  0  0
 46 47  1  0  0  0  0
 46 87  1  0  0  0  0
 46 88  1  0  0  0  0
 47 48  1  0  0  0  0
 47 89  1  0  0  0  0
 47 90  1  0  0  0  0
 48 91  1  0  0  0  0
 48 92  1  0  0  0  0
 48 93  1  0  0  0  0
M  END
>  <DRUGBANK_ID>
DB12486

>  <COMMON_NAME>
Elobixibat

>  <CAS_NUMBER>
439087-18-0

>  <UNII>
865UEK4EJC

>  <SYNONYMS>
Elobixibat

$$$$
