
 OpenBabel10282417243D

 56 58  0  0  1  0  0  0  0  0999 V2000
   -0.5224   -8.6299    2.3240 C   0  0  0  0  0  0  0  0  0  0  0  0
    0.1992   -7.4208    2.7556 N   0  0  0  0  0  0  0  0  0  0  0  0
   -0.1630   -6.6720    3.8692 C   0  0  0  0  0  0  0  0  0  0  0  0
   -0.8334   -7.0671    5.0402 C   0  0  0  0  0  0  0  0  0  0  0  0
   -1.1861   -8.4459    5.4233 C   0  0  0  0  0  0  0  0  0  0  0  0
   -1.9496   -8.6606    6.5334 N   0  0  0  0  0  0  0  0  0  0  0  0
   -0.8361   -9.4660    4.8310 O   0  0  0  0  0  0  0  0  0  0  0  0
   -1.0873   -5.8479    5.7489 C   0  0  0  0  0  0  0  0  0  0  0  0
   -0.5694   -4.7623    5.1280 N   0  0  0  0  0  0  0  0  0  0  0  0
    0.0855   -5.2481    3.9998 N   0  0  0  0  0  0  0  0  0  0  0  0
    0.5975   -4.2974    2.9498 C   0  0  1  0  0  0  0  0  0  0  0  0
    1.5744   -3.0657    3.1322 C   0  0  0  0  0  0  0  0  0  0  0  0
    2.2534   -2.9036    1.7535 C   0  0  0  0  0  0  0  0  0  0  0  0
    2.4232   -4.2482    1.2881 N   0  0  0  0  0  0  0  0  0  0  0  0
    1.3734   -5.0704    1.8651 C   0  0  0  0  0  0  0  0  0  0  0  0
    3.4570   -4.8459    0.5930 C   0  0  0  0  0  0  0  0  0  0  0  0
    3.5144   -6.0714    0.4502 O   0  0  0  0  0  0  0  0  0  0  0  0
    4.5893   -4.0547    0.0130 C   0  0  0  0  0  0  0  0  0  0  0  0
    4.7468   -2.7302   -0.0880 C   0  0  0  0  0  0  0  0  0  0  0  0
   -1.8334   -5.7430    7.0211 C   0  0  0  0  0  0  0  0  0  0  0  0
   -2.4697   -5.8994    8.0638 C   0  0  0  0  0  0  0  0  0  0  0  0
   -3.2136   -6.1955    9.3060 C   0  0  0  0  0  0  0  0  0  0  0  0
   -4.3157   -7.0849    9.3615 C   0  0  0  0  0  0  0  0  0  0  0  0
   -5.0580   -7.2619   10.5539 C   0  0  0  0  0  0  0  0  0  0  0  0
   -6.1673   -8.0527   10.7297 O   0  0  0  0  0  0  0  0  0  0  0  0
   -6.6279   -8.7944    9.6107 C   0  0  0  0  0  0  0  0  0  0  0  0
   -4.6934   -6.5733   11.7133 C   0  0  0  0  0  0  0  0  0  0  0  0
   -3.5845   -5.7329   11.7030 C   0  0  0  0  0  0  0  0  0  0  0  0
   -3.1417   -5.0179   12.7889 O   0  0  0  0  0  0  0  0  0  0  0  0
   -3.8914   -5.1431   14.0000 C   0  0  0  0  0  0  0  0  0  0  0  0
   -2.8497   -5.5618   10.5077 C   0  0  0  0  0  0  0  0  0  0  0  0
   -1.5490   -8.6655    2.6981 H   0  0  0  0  0  0  0  0  0  0  0  0
    0.0046   -9.5590    2.5909 H   0  0  0  0  0  0  0  0  0  0  0  0
   -0.5949   -8.6360    1.2313 H   0  0  0  0  0  0  0  0  0  0  0  0
    1.1968   -7.5802    2.5767 H   0  0  0  0  0  0  0  0  0  0  0  0
   -2.1239   -9.6218    6.7872 H   0  0  0  0  0  0  0  0  0  0  0  0
   -2.2011   -7.9639    7.2031 H   0  0  0  0  0  0  0  0  0  0  0  0
   -0.3147   -3.8199    2.5614 H   0  0  0  0  0  0  0  0  0  0  0  0
    2.3677   -3.2258    3.8706 H   0  0  0  0  0  0  0  0  0  0  0  0
    1.0933   -2.1015    3.3441 H   0  0  0  0  0  0  0  0  0  0  0  0
    1.6290   -2.3995    1.0015 H   0  0  0  0  0  0  0  0  0  0  0  0
    3.1876   -2.3636    1.8828 H   0  0  0  0  0  0  0  0  0  0  0  0
    1.9142   -5.8947    2.3156 H   0  0  0  0  0  0  0  0  0  0  0  0
    0.6895   -5.3933    1.0743 H   0  0  0  0  0  0  0  0  0  0  0  0
    5.3738   -4.6892   -0.4050 H   0  0  0  0  0  0  0  0  0  0  0  0
    5.6462   -2.2929   -0.5060 H   0  0  0  0  0  0  0  0  0  0  0  0
    4.0060   -2.0144    0.2210 H   0  0  0  0  0  0  0  0  0  0  0  0
   -4.6114   -7.6309    8.4722 H   0  0  0  0  0  0  0  0  0  0  0  0
   -6.9167   -8.1276    8.7934 H   0  0  0  0  0  0  0  0  0  0  0  0
   -5.8714   -9.5169    9.2927 H   0  0  0  0  0  0  0  0  0  0  0  0
   -7.5199   -9.3567    9.9108 H   0  0  0  0  0  0  0  0  0  0  0  0
   -5.2983   -6.7109   12.6072 H   0  0  0  0  0  0  0  0  0  0  0  0
   -4.9205   -4.7875   13.8725 H   0  0  0  0  0  0  0  0  0  0  0  0
   -3.8775   -6.1739   14.3719 H   0  0  0  0  0  0  0  0  0  0  0  0
   -3.4212   -4.5138   14.7630 H   0  0  0  0  0  0  0  0  0  0  0  0
   -1.9858   -4.9026   10.5236 H   0  0  0  0  0  0  0  0  0  0  0  0
  1  2  1  0  0  0  0
  1 32  1  0  0  0  0
  1 33  1  0  0  0  0
  1 34  1  0  0  0  0
  2  3  1  0  0  0  0
  2 35  1  0  0  0  0
  3  4  2  0  0  0  0
  3 10  1  0  0  0  0
  4  5  1  0  0  0  0
  4  8  1  0  0  0  0
  5  6  1  0  0  0  0
  5  7  2  0  0  0  0
  6 36  1  0  0  0  0
  6 37  1  0  0  0  0
  8  9  2  0  0  0  0
  8 20  1  0  0  0  0
  9 10  1  0  0  0  0
 11 12  1  0  0  0  0
 11 15  1  0  0  0  0
 11 38  1  6  0  0  0
 11 10  1  0  0  0  0
 12 13  1  0  0  0  0
 12 39  1  0  0  0  0
 12 40  1  0  0  0  0
 13 14  1  0  0  0  0
 13 41  1  0  0  0  0
 13 42  1  0  0  0  0
 14 15  1  0  0  0  0
 14 16  1  0  0  0  0
 15 43  1  0  0  0  0
 15 44  1  0  0  0  0
 16 17  2  0  0  0  0
 16 18  1  0  0  0  0
 18 19  2  0  0  0  0
 18 45  1  0  0  0  0
 19 46  1  0  0  0  0
 19 47  1  0  0  0  0
 20 21  3  0  0  0  0
 21 22  1  0  0  0  0
 22 23  2  0  0  0  0
 22 31  1  0  0  0  0
 23 24  1  0  0  0  0
 23 48  1  0  0  0  0
 24 25  1  0  0  0  0
 24 27  2  0  0  0  0
 25 26  1  0  0  0  0
 26 49  1  0  0  0  0
 26 50  1  0  0  0  0
 26 51  1  0  0  0  0
 27 28  1  0  0  0  0
 27 52  1  0  0  0  0
 28 29  1  0  0  0  0
 28 31  2  0  0  0  0
 29 30  1  0  0  0  0
 30 53  1  0  0  0  0
 30 54  1  0  0  0  0
 30 55  1  0  0  0  0
 31 56  1  0  0  0  0
M  END
>  <DRUGBANK_ID>
DB18191

>  <COMMON_NAME>
Gunagratinib

>  <CAS_NUMBER>
2211082-53-8

>  <UNII>
9D589FD91A

>  <SYNONYMS>
(s)-1-(1-acryloylpyrrolidin-3-yl)-3-((3,5-dimethoxyphenyl)ethynyl)-5-(methylamino)-1h-pyrazole-4-carboxamide; 1h-pyrazole-4-carboxamide, 3-(2-(3,5-dimethoxyphenyl)ethynyl)-5-(methylamino)-1-((3s)-1-(1-oxo-2-propen-1-yl)-3-pyrrolidinyl)-

$$$$
