
 OpenBabel10282417133D

 38 38  0  0  0  0  0  0  0  0999 V2000
   -2.6689    0.8764    2.8145 O   0  0  0  0  0  0  0  0  0  0  0  0
   -2.2902    3.0026    0.0842 O   0  0  0  0  0  0  0  0  0  0  0  0
    0.8283    2.5350    1.3929 O   0  0  0  0  0  0  0  0  0  0  0  0
    1.0768    4.3027    3.1870 O   0  0  0  0  0  0  0  0  0  0  0  0
   -0.5744   -1.4096   -1.9809 O   0  0  0  0  0  0  0  0  0  0  0  0
   -3.8095    0.7610    5.2184 O   0  0  0  0  0  0  0  0  0  0  0  0
   -2.1009   -0.4081    6.1206 O   0  0  0  0  0  0  0  0  0  0  0  0
   -0.9542   -0.6456    0.0966 N   0  0  0  0  0  0  0  0  0  0  0  0
    1.2816    0.3689    2.6755 N   0  0  0  0  0  0  0  0  0  0  0  0
   -2.0173    1.1072    1.5510 C   0  0  2  0  0  0  0  0  0  0  0  0
   -0.7756    0.2844    1.2012 C   0  0  1  0  0  0  0  0  0  0  0  0
   -1.7907    2.6382    1.3856 C   0  0  1  0  0  0  0  0  0  0  0  0
    0.0114   -0.3105    2.3847 C   0  0  2  0  0  0  0  0  0  0  0  0
   -0.3737    3.3027    1.5493 C   0  0  1  0  0  0  0  0  0  0  0  0
   -0.7624   -0.3102    3.6489 C   0  0  0  0  0  0  0  0  0  0  0  0
   -1.9754    0.2345    3.8050 C   0  0  0  0  0  0  0  0  0  0  0  0
   -0.2552    3.8503    2.9645 C   0  0  0  0  0  0  0  0  0  0  0  0
   -0.3682   -0.5362   -1.1429 C   0  0  0  0  0  0  0  0  0  0  0  0
   -2.6049    0.1409    5.1658 C   0  0  0  0  0  0  0  0  0  0  0  0
    0.5259    0.6575   -1.4507 C   0  0  0  0  0  0  0  0  0  0  0  0
   -2.7937    0.8178    0.8259 H   0  0  0  0  0  0  0  0  0  0  0  0
   -2.7819    3.8398    0.1931 H   0  0  0  0  0  0  0  0  0  0  0  0
    1.0396    2.4541    0.4463 H   0  0  0  0  0  0  0  0  0  0  0  0
    1.6480    3.5706    2.8718 H   0  0  0  0  0  0  0  0  0  0  0  0
   -4.0871    1.1387    4.3626 H   0  0  0  0  0  0  0  0  0  0  0  0
   -1.5175   -1.4748    0.2408 H   0  0  0  0  0  0  0  0  0  0  0  0
    1.0824    1.2519    3.1527 H   0  0  0  0  0  0  0  0  0  0  0  0
    1.6824    0.7159    1.7998 H   0  0  0  0  0  0  0  0  0  0  0  0
   -0.1457    0.9703    0.6953 H   0  0  0  0  0  0  0  0  0  0  0  0
   -2.4727    3.1348    2.0891 H   0  0  0  0  0  0  0  0  0  0  0  0
    0.2725   -1.3427    2.1331 H   0  0  0  0  0  0  0  0  0  0  0  0
   -0.2655    4.1017    0.8088 H   0  0  0  0  0  0  0  0  0  0  0  0
   -0.2683   -0.7931    4.4911 H   0  0  0  0  0  0  0  0  0  0  0  0
   -0.9523    4.6765    3.1096 H   0  0  0  0  0  0  0  0  0  0  0  0
   -0.4576    3.0638    3.6977 H   0  0  0  0  0  0  0  0  0  0  0  0
   -0.0245    1.6005   -1.3541 H   0  0  0  0  0  0  0  0  0  0  0  0
    1.4035    0.6663   -0.7942 H   0  0  0  0  0  0  0  0  0  0  0  0
    0.8905    0.5988   -2.4789 H   0  0  0  0  0  0  0  0  0  0  0  0
  1 10  1  0  0  0  0
  1 16  1  0  0  0  0
  2 22  1  0  0  0  0
  3 23  1  0  0  0  0
  4 17  1  0  0  0  0
  4 24  1  0  0  0  0
  5 18  2  0  0  0  0
  6 19  1  0  0  0  0
  6 25  1  0  0  0  0
  7 19  2  0  0  0  0
  8 18  1  0  0  0  0
  8 26  1  0  0  0  0
  9 27  1  0  0  0  0
  9 28  1  0  0  0  0
 10 11  1  0  0  0  0
 10 21  1  6  0  0  0
 11  8  1  0  0  0  0
 11 13  1  0  0  0  0
 11 29  1  6  0  0  0
 12 30  1  1  0  0  0
 12 10  1  0  0  0  0
 12  2  1  0  0  0  0
 13 15  1  0  0  0  0
 13 31  1  6  0  0  0
 13  9  1  0  0  0  0
 14 17  1  0  0  0  0
 14 32  1  6  0  0  0
 14 12  1  0  0  0  0
 14  3  1  0  0  0  0
 15 16  2  0  0  0  0
 15 33  1  0  0  0  0
 16 19  1  0  0  0  0
 17 34  1  0  0  0  0
 17 35  1  0  0  0  0
 18 20  1  0  0  0  0
 20 36  1  0  0  0  0
 20 37  1  0  0  0  0
 20 38  1  0  0  0  0
M  END
>  <DRUGBANK_ID>
DB03321

>  <SECONDARY_ACCESSION_NUMBERS>
EXPT00202

>  <COMMON_NAME>
Des(carbamimidoyl) zanamivir

>  <CAS_NUMBER>
130525-62-1

>  <UNII>
OE4L5BBV9M

>  <SYNONYMS>
4-AM-DANA; 4-Amino-2-deoxy-2,3-dehydro-N-neuraminic acid; 4-amino-4-deoxy-Neu5Ac2en

$$$$
