GG1
 OpenBabel10282417163D

 52 55  0  0  0  0  0  0  0  0999 V2000
    1.1858    1.4060    0.0709 N   0  0  0  0  0  0  0  0  0  0  0  0
    3.6054   -1.3921   -0.1716 C   0  0  0  0  0  0  0  0  0  0  0  0
    1.1757   -1.3712   -0.1454 C   0  0  0  0  0  0  0  0  0  0  0  0
   -2.4621    0.6309   -0.1507 C   0  0  0  0  0  0  0  0  0  0  0  0
   -3.6806   -1.5163   -0.0162 C   0  0  0  0  0  0  0  0  0  0  0  0
   -2.4685   -0.7588   -0.0267 C   0  0  0  0  0  0  0  0  0  0  0  0
    4.2612   -3.7308    3.4098 C   0  0  0  0  0  0  0  0  0  0  0  0
    5.2425   -2.8457    2.9458 C   0  0  0  0  0  0  0  0  0  0  0  0
    5.0086   -2.0586    1.8145 C   0  0  0  0  0  0  0  0  0  0  0  0
    3.0223   -3.3274    1.4061 C   0  0  0  0  0  0  0  0  0  0  0  0
   -6.8389   -2.3462    1.3800 C   0  0  0  0  0  0  0  0  0  0  0  0
    3.8765   -2.2782    1.0319 C   0  0  0  0  0  0  0  0  0  0  0  0
   -0.0699   -0.6654    0.0804 C   0  0  0  0  0  0  0  0  0  0  0  0
    4.3645   -4.4427    4.7014 C   0  0  0  0  0  0  0  0  0  0  0  0
   -4.7004   -2.1647    0.0821 C   0  0  0  0  0  0  0  0  0  0  0  0
    3.5210   -5.1797    5.1783 O   0  0  0  0  0  0  0  0  0  0  0  0
    5.5131   -4.1696    5.3439 O   0  0  0  0  0  0  0  0  0  0  0  0
    3.1361   -3.9635    2.6339 C   0  0  0  0  0  0  0  0  0  0  0  0
    2.3527   -0.6523   -0.0434 N   0  0  0  0  0  0  0  0  0  0  0  0
    1.0784   -2.5456   -0.4912 O   0  0  0  0  0  0  0  0  0  0  0  0
   -0.0533    0.7174    0.1066 C   0  0  0  0  0  0  0  0  0  0  0  0
   -1.2868    1.3640    0.0831 C   0  0  0  0  0  0  0  0  0  0  0  0
    1.1961    2.8610    0.0612 C   0  0  0  0  0  0  0  0  0  0  0  0
    2.4061    0.7368   -0.0214 C   0  0  0  0  0  0  0  0  0  0  0  0
    3.4708    1.3531   -0.1106 O   0  0  0  0  0  0  0  0  0  0  0  0
   -1.2580   -1.4079    0.1349 C   0  0  0  0  0  0  0  0  0  0  0  0
   -5.9790   -2.8877    0.2514 C   0  0  0  0  0  0  0  0  0  0  0  0
   -7.6853   -3.1783    2.1337 C   0  0  0  0  0  0  0  0  0  0  0  0
   -8.5766   -2.6279    3.0642 C   0  0  0  0  0  0  0  0  0  0  0  0
   -6.8518   -0.9710    1.6521 C   0  0  0  0  0  0  0  0  0  0  0  0
   -7.6294   -0.4489    2.6817 C   0  0  0  0  0  0  0  0  0  0  0  0
   -8.5420   -1.2632    3.3414 C   0  0  0  0  0  0  0  0  0  0  0  0
    3.5922   -1.9888   -1.0904 H   0  0  0  0  0  0  0  0  0  0  0  0
    4.4397   -0.6877   -0.2811 H   0  0  0  0  0  0  0  0  0  0  0  0
   -3.3646    1.1642   -0.4345 H   0  0  0  0  0  0  0  0  0  0  0  0
    6.1889   -2.7474    3.4667 H   0  0  0  0  0  0  0  0  0  0  0  0
    5.7204   -1.2830    1.5400 H   0  0  0  0  0  0  0  0  0  0  0  0
    2.2308   -3.6898    0.7649 H   0  0  0  0  0  0  0  0  0  0  0  0
    5.4535   -4.6709    6.1830 H   0  0  0  0  0  0  0  0  0  0  0  0
    2.3526   -4.6503    2.9476 H   0  0  0  0  0  0  0  0  0  0  0  0
   -1.3632    2.4396    0.2024 H   0  0  0  0  0  0  0  0  0  0  0  0
    0.6363    3.2240   -0.8068 H   0  0  0  0  0  0  0  0  0  0  0  0
    0.7461    3.2251    0.9894 H   0  0  0  0  0  0  0  0  0  0  0  0
    2.2091    3.2666   -0.0036 H   0  0  0  0  0  0  0  0  0  0  0  0
   -1.2212   -2.4911    0.2364 H   0  0  0  0  0  0  0  0  0  0  0  0
   -6.5584   -2.8115   -0.6780 H   0  0  0  0  0  0  0  0  0  0  0  0
   -5.7802   -3.9531    0.4182 H   0  0  0  0  0  0  0  0  0  0  0  0
   -7.6658   -4.2593    2.0097 H   0  0  0  0  0  0  0  0  0  0  0  0
   -9.2893   -3.2609    3.5883 H   0  0  0  0  0  0  0  0  0  0  0  0
   -6.2340   -0.2926    1.0698 H   0  0  0  0  0  0  0  0  0  0  0  0
   -7.5207    0.5953    2.9576 H   0  0  0  0  0  0  0  0  0  0  0  0
   -9.2180   -0.8338    4.0755 H   0  0  0  0  0  0  0  0  0  0  0  0
  1 23  1  0  0  0  0
  1 21  1  0  0  0  0
  1 24  1  0  0  0  0
  2 19  1  0  0  0  0
  2 12  1  0  0  0  0
  2 33  1  0  0  0  0
  2 34  1  0  0  0  0
  3 13  1  0  0  0  0
  3 19  1  0  0  0  0
  3 20  2  0  0  0  0
  4 22  2  0  0  0  0
  4  6  1  0  0  0  0
  4 35  1  0  0  0  0
  5 15  3  0  0  0  0
  5  6  1  0  0  0  0
  6 26  2  0  0  0  0
  7  8  2  0  0  0  0
  7 18  1  0  0  0  0
  7 14  1  0  0  0  0
  8  9  1  0  0  0  0
  8 36  1  0  0  0  0
  9 12  2  0  0  0  0
  9 37  1  0  0  0  0
 10 12  1  0  0  0  0
 10 18  2  0  0  0  0
 10 38  1  0  0  0  0
 11 28  1  0  0  0  0
 11 27  1  0  0  0  0
 11 30  2  0  0  0  0
 13 21  2  0  0  0  0
 13 26  1  0  0  0  0
 14 16  2  0  0  0  0
 14 17  1  0  0  0  0
 15 27  1  0  0  0  0
 17 39  1  0  0  0  0
 18 40  1  0  0  0  0
 19 24  1  0  0  0  0
 21 22  1  0  0  0  0
 22 41  1  0  0  0  0
 23 42  1  0  0  0  0
 23 43  1  0  0  0  0
 23 44  1  0  0  0  0
 24 25  2  0  0  0  0
 26 45  1  0  0  0  0
 27 46  1  0  0  0  0
 27 47  1  0  0  0  0
 28 29  2  0  0  0  0
 28 48  1  0  0  0  0
 29 32  1  0  0  0  0
 29 49  1  0  0  0  0
 30 31  1  0  0  0  0
 30 50  1  0  0  0  0
 31 32  2  0  0  0  0
 31 51  1  0  0  0  0
 32 52  1  0  0  0  0
M  END
>  <DRUGBANK_ID>
DB07827

>  <COMMON_NAME>
4-{[1-METHYL-2,4-DIOXO-6-(3-PHENYLPROP-1-YN-1-YL)-1,4-DIHYDROQUINAZOLIN-3(2H)-YL]METHYL}BENZOIC ACID

$$$$
