
 OpenBabel10282417243D

 56 59  0  0  0  0  0  0  0  0999 V2000
    0.8100    0.1076   -0.0033 C   0  0  0  0  0  0  0  0  0  0  0  0
    0.4772    0.3899   -1.4603 C   0  0  0  0  0  0  0  0  0  0  0  0
    0.9393   -0.5976   -2.4020 O   0  0  0  0  0  0  0  0  0  0  0  0
    2.2901   -0.7098   -2.5782 C   0  0  0  0  0  0  0  0  0  0  0  0
    2.7854   -0.7729   -3.8754 C   0  0  0  0  0  0  0  0  0  0  0  0
    4.1573   -0.9773   -4.0878 C   0  0  0  0  0  0  0  0  0  0  0  0
    5.0492   -1.1069   -3.0286 C   0  0  0  0  0  0  0  0  0  0  0  0
    6.3448   -1.3345   -3.2523 N   0  0  0  0  0  0  0  0  0  0  0  0
    7.1850   -1.5600   -2.2076 C   0  0  0  0  0  0  0  0  0  0  0  0
    8.4326   -1.9463   -2.6033 N   0  0  0  0  0  0  0  0  0  0  0  0
    9.2492   -2.9769   -1.9912 C   0  0  0  0  0  0  0  0  0  0  0  0
    9.3696   -4.1344   -2.9638 C   0  0  0  0  0  0  0  0  0  0  0  0
    9.9637   -3.8651   -4.3482 C   0  0  0  0  0  0  0  0  0  0  0  0
   10.7175   -2.6066   -4.5093 N   0  0  0  0  0  0  0  0  0  0  0  0
    9.7568   -1.4849   -4.6496 C   0  0  0  0  0  0  0  0  0  0  0  0
    9.1616   -0.9287   -3.3210 C   0  0  0  0  0  0  0  0  0  0  0  0
   12.1220   -2.5730   -4.6078 C   0  0  0  0  0  0  0  0  0  0  0  0
   13.1064   -3.9454   -4.4597 S   0  0  0  0  0  0  0  0  0  0  0  0
   12.8298   -1.4242   -4.9308 N   0  0  0  0  0  0  0  0  0  0  0  0
   12.4362   -0.0727   -4.9195 C   0  0  0  0  0  0  0  0  0  0  0  0
   12.7005    0.8043   -5.9619 C   0  0  0  0  0  0  0  0  0  0  0  0
   11.9593    1.9996   -6.0511 C   0  0  0  0  0  0  0  0  0  0  0  0
   10.9558    2.2969   -5.1256 C   0  0  0  0  0  0  0  0  0  0  0  0
   10.8300    1.4926   -4.0073 C   0  0  0  0  0  0  0  0  0  0  0  0
   11.6789    0.3900   -3.8672 C   0  0  0  0  0  0  0  0  0  0  0  0
   11.6790   -0.3711   -2.7654 F   0  0  0  0  0  0  0  0  0  0  0  0
    6.7733   -1.4097   -0.8854 C   0  0  0  0  0  0  0  0  0  0  0  0
    5.4273   -1.1612   -0.6455 C   0  0  0  0  0  0  0  0  0  0  0  0
    4.5484   -1.0507   -1.7283 C   0  0  0  0  0  0  0  0  0  0  0  0
    3.1773   -0.9203   -1.5277 C   0  0  0  0  0  0  0  0  0  0  0  0
    7.6879   -1.4651    0.2061 C   0  0  0  0  0  0  0  0  0  0  0  0
    8.4464   -1.5226    1.0953 N   0  0  0  0  0  0  0  0  0  0  0  0
    0.5919   -0.9365    0.2480 H   0  0  0  0  0  0  0  0  0  0  0  0
    0.2881    0.7750    0.6825 H   0  0  0  0  0  0  0  0  0  0  0  0
    1.8614    0.3147    0.1988 H   0  0  0  0  0  0  0  0  0  0  0  0
   -0.6175    0.3928   -1.5423 H   0  0  0  0  0  0  0  0  0  0  0  0
    0.8164    1.3889   -1.7563 H   0  0  0  0  0  0  0  0  0  0  0  0
    2.1181   -0.6956   -4.7298 H   0  0  0  0  0  0  0  0  0  0  0  0
    4.5405   -1.0607   -5.1019 H   0  0  0  0  0  0  0  0  0  0  0  0
    8.8024   -3.3634   -1.0720 H   0  0  0  0  0  0  0  0  0  0  0  0
   10.2476   -2.6055   -1.7204 H   0  0  0  0  0  0  0  0  0  0  0  0
    9.9744   -4.9036   -2.4803 H   0  0  0  0  0  0  0  0  0  0  0  0
    8.3650   -4.5525   -3.1120 H   0  0  0  0  0  0  0  0  0  0  0  0
   10.5417   -4.7392   -4.6519 H   0  0  0  0  0  0  0  0  0  0  0  0
    9.1410   -3.8384   -5.0784 H   0  0  0  0  0  0  0  0  0  0  0  0
    8.9007   -1.8338   -5.2376 H   0  0  0  0  0  0  0  0  0  0  0  0
   10.1694   -0.7399   -5.3210 H   0  0  0  0  0  0  0  0  0  0  0  0
    8.5624   -0.0410   -3.5554 H   0  0  0  0  0  0  0  0  0  0  0  0
    9.8407   -0.5750   -2.5502 H   0  0  0  0  0  0  0  0  0  0  0  0
   13.8311   -1.5722   -5.0352 H   0  0  0  0  0  0  0  0  0  0  0  0
   13.4155    0.5546   -6.7381 H   0  0  0  0  0  0  0  0  0  0  0  0
   12.1344    2.6908   -6.8705 H   0  0  0  0  0  0  0  0  0  0  0  0
   10.3047    3.1603   -5.2473 H   0  0  0  0  0  0  0  0  0  0  0  0
   10.0252    1.6746   -3.2992 H   0  0  0  0  0  0  0  0  0  0  0  0
    5.0631   -1.0626    0.3762 H   0  0  0  0  0  0  0  0  0  0  0  0
    2.8319   -1.0825   -0.5204 H   0  0  0  0  0  0  0  0  0  0  0  0
  1  2  1  0  0  0  0
  1 33  1  0  0  0  0
  1 34  1  0  0  0  0
  1 35  1  0  0  0  0
  2  3  1  0  0  0  0
  2 36  1  0  0  0  0
  2 37  1  0  0  0  0
  3  4  1  0  0  0  0
  4  5  1  0  0  0  0
  4 30  2  0  0  0  0
  5  6  2  0  0  0  0
  5 38  1  0  0  0  0
  6  7  1  0  0  0  0
  6 39  1  0  0  0  0
  7  8  2  0  0  0  0
  7 29  1  0  0  0  0
  8  9  1  0  0  0  0
  9 10  1  0  0  0  0
  9 27  2  0  0  0  0
 10 11  1  0  0  0  0
 10 16  1  0  0  0  0
 11 12  1  0  0  0  0
 11 40  1  0  0  0  0
 11 41  1  0  0  0  0
 12 13  1  0  0  0  0
 12 42  1  0  0  0  0
 12 43  1  0  0  0  0
 13 14  1  0  0  0  0
 13 44  1  0  0  0  0
 13 45  1  0  0  0  0
 14 15  1  0  0  0  0
 14 17  1  0  0  0  0
 15 16  1  0  0  0  0
 15 46  1  0  0  0  0
 15 47  1  0  0  0  0
 16 48  1  0  0  0  0
 16 49  1  0  0  0  0
 17 18  2  0  0  0  0
 17 19  1  0  0  0  0
 19 20  1  0  0  0  0
 19 50  1  0  0  0  0
 20 21  2  0  0  0  0
 20 25  1  0  0  0  0
 21 22  1  0  0  0  0
 21 51  1  0  0  0  0
 22 23  2  0  0  0  0
 22 52  1  0  0  0  0
 23 24  1  0  0  0  0
 23 53  1  0  0  0  0
 24 25  2  0  0  0  0
 24 54  1  0  0  0  0
 25 26  1  0  0  0  0
 27 28  1  0  0  0  0
 27 31  1  0  0  0  0
 28 29  2  0  0  0  0
 28 55  1  0  0  0  0
 29 30  1  0  0  0  0
 30 56  1  0  0  0  0
 31 32  3  0  0  0  0
M  END
>  <DRUGBANK_ID>
DB18048

>  <COMMON_NAME>
NNI-351

>  <CAS_NUMBER>
929607-23-8

>  <UNII>
97LG4X5P2E

>  <SYNONYMS>
1H-1,4-DIAZEPINE-1-CARBOTHIOAMIDE, 4-(3-CYANO-6-ETHOXY-2-QUINOLINYL)-N-(2-FLUOROPHENYL)HEXAHYDRO-; 4-(3-CYANO-6-ETHOXY-2-QUINOLINYL)-N-(2-FLUOROPHENYL)HEXAHYDRO-1H-1,4-DIAZEPINE-1-CARBOTHIOAMIDE; 4-(3-cyano-6-ethoxyquinolin-2-yl)-N- (2-fluorophenyl)-1,4-diazepane-1-carbothiomide

$$$$
