3IB
 OpenBabel10282417123D

 28 29  0  0  0  0  0  0  0  0999 V2000
   -1.5083    1.0727   -0.0212 N   0  0  0  0  0  0  0  0  0  0  0  0
   -2.3182   -0.0166   -0.1571 C   0  0  0  0  0  0  0  0  0  0  0  0
   -1.5537   -1.1621   -0.0275 C   0  0  0  0  0  0  0  0  0  0  0  0
    1.0322   -1.4059    0.0321 C   0  0  0  0  0  0  0  0  0  0  0  0
    2.2152   -0.6685   -0.0057 C   0  0  0  0  0  0  0  0  0  0  0  0
    2.1829    0.7245   -0.0200 C   0  0  0  0  0  0  0  0  0  0  0  0
    0.9740    1.4247    0.0086 C   0  0  0  0  0  0  0  0  0  0  0  0
   -0.1987    0.6688    0.0071 C   0  0  0  0  0  0  0  0  0  0  0  0
   -0.1982   -0.7262    0.0149 C   0  0  0  0  0  0  0  0  0  0  0  0
   -2.0185   -2.5869   -0.0071 C   0  0  0  0  0  0  0  0  0  0  0  0
   -2.9736   -2.8879    1.1559 C   0  0  0  0  0  0  0  0  0  0  0  0
   -4.2714   -2.0768    1.1358 C   0  0  0  0  0  0  0  0  0  0  0  0
   -5.0401   -2.2465   -0.1629 C   0  0  0  0  0  0  0  0  0  0  0  0
   -6.3128   -2.6551   -0.0018 O   0  0  0  0  0  0  0  0  0  0  0  0
   -4.5938   -2.0270   -1.2822 O   0  0  0  0  0  0  0  0  0  0  0  0
   -1.8267    2.0316   -0.0180 H   0  0  0  0  0  0  0  0  0  0  0  0
   -3.3780    0.1307   -0.3081 H   0  0  0  0  0  0  0  0  0  0  0  0
    1.0608   -2.4908    0.0316 H   0  0  0  0  0  0  0  0  0  0  0  0
    3.1648   -1.1940   -0.0374 H   0  0  0  0  0  0  0  0  0  0  0  0
    3.1160    1.2785   -0.0638 H   0  0  0  0  0  0  0  0  0  0  0  0
    0.9496    2.5086   -0.0025 H   0  0  0  0  0  0  0  0  0  0  0  0
   -2.4615   -2.8497   -0.9716 H   0  0  0  0  0  0  0  0  0  0  0  0
   -1.1581   -3.2624    0.0849 H   0  0  0  0  0  0  0  0  0  0  0  0
   -3.2217   -3.9563    1.1453 H   0  0  0  0  0  0  0  0  0  0  0  0
   -2.4490   -2.6992    2.1033 H   0  0  0  0  0  0  0  0  0  0  0  0
   -4.8904   -2.3597    1.9923 H   0  0  0  0  0  0  0  0  0  0  0  0
   -4.0800   -1.0140    1.3009 H   0  0  0  0  0  0  0  0  0  0  0  0
   -6.5896   -2.7681    0.9238 H   0  0  0  0  0  0  0  0  0  0  0  0
  1  2  1  0  0  0  0
  1  8  1  0  0  0  0
  1 16  1  0  0  0  0
  2  3  2  0  0  0  0
  2 17  1  0  0  0  0
  3  9  1  0  0  0  0
  3 10  1  0  0  0  0
  4  5  2  0  0  0  0
  4  9  1  0  0  0  0
  4 18  1  0  0  0  0
  5  6  1  0  0  0  0
  5 19  1  0  0  0  0
  6  7  2  0  0  0  0
  6 20  1  0  0  0  0
  7  8  1  0  0  0  0
  7 21  1  0  0  0  0
  8  9  2  0  0  0  0
 10 11  1  0  0  0  0
 10 22  1  0  0  0  0
 10 23  1  0  0  0  0
 11 12  1  0  0  0  0
 11 24  1  0  0  0  0
 11 25  1  0  0  0  0
 12 13  1  0  0  0  0
 12 26  1  0  0  0  0
 12 27  1  0  0  0  0
 13 14  1  0  0  0  0
 13 15  2  0  0  0  0
 14 28  1  0  0  0  0
M  END
>  <DRUGBANK_ID>
DB02740

>  <SECONDARY_ACCESSION_NUMBERS>
EXPT00173

>  <COMMON_NAME>
3-Indolebutyric Acid

>  <CAS_NUMBER>
133-32-4

>  <UNII>
061SKE27JP

$$$$
