K7I
 OpenBabel10282417173D

 47 47  0  0  0  0  0  0  0  0999 V2000
    1.7418   -1.6393    0.7179 C   0  0  0  0  0  0  0  0  0  0  0  0
    1.7862   -2.1240   -0.5854 C   0  0  0  0  0  0  0  0  0  0  0  0
    2.0858   -1.2577   -1.6352 C   0  0  0  0  0  0  0  0  0  0  0  0
    2.2349    0.1083   -1.3967 C   0  0  0  0  0  0  0  0  0  0  0  0
    2.0916    0.6165   -0.1079 C   0  0  0  0  0  0  0  0  0  0  0  0
    1.9930   -0.2799    0.9596 C   0  0  0  0  0  0  0  0  0  0  0  0
    2.4150    0.1719    2.3235 C   0  0  0  0  0  0  0  0  0  0  0  0
    3.9019    0.5718    2.5985 C   0  0  2  0  0  0  0  0  0  0  0  0
    4.6434    0.2750    0.2101 O   0  0  0  0  0  0  0  0  0  0  0  0
    3.9688    1.8364    3.3579 N   0  0  0  0  0  0  0  0  0  0  0  0
    3.9099    2.0901    4.6974 C   0  0  0  0  0  0  0  0  0  0  0  0
    3.7624    3.2692    5.0377 O   0  0  0  0  0  0  0  0  0  0  0  0
    3.9458    0.9804    5.7887 C   0  0  2  0  0  0  0  0  0  0  0  0
    4.9234    1.3345    6.9029 C   0  0  0  0  0  0  0  0  0  0  0  0
    4.1936   -0.4074    5.4132 N   0  0  0  0  0  0  0  0  0  0  0  0
    3.2924   -1.4314    5.2577 C   0  0  0  0  0  0  0  0  0  0  0  0
    3.6305   -2.4145    4.6127 O   0  0  0  0  0  0  0  0  0  0  0  0
    1.8927   -1.3112    5.8999 C   0  0  2  0  0  0  0  0  0  0  0  0
    1.0321   -0.2274    5.2540 C   0  0  0  0  0  0  0  0  0  0  0  0
    2.0454   -1.1208    7.3554 N   0  0  0  0  0  0  0  0  0  0  0  0
    5.0421    0.4924    1.5394 C   0  0  2  0  0  0  0  0  0  0  0  0
    5.9863   -0.6741    1.8155 C   0  0  0  0  0  0  0  0  0  0  0  0
    4.2332   -0.1694    3.2974 H   0  0  0  0  0  0  0  0  0  0  0  0
    2.9463    1.0576    6.2152 H   0  0  0  0  0  0  0  0  0  0  0  0
    1.3909   -2.2742    5.7555 H   0  0  0  0  0  0  0  0  0  0  0  0
    5.6099    1.4287    1.5344 H   0  0  0  0  0  0  0  0  0  0  0  0
    1.6083   -2.3419    1.5402 H   0  0  0  0  0  0  0  0  0  0  0  0
    1.6736   -3.1885   -0.7719 H   0  0  0  0  0  0  0  0  0  0  0  0
    2.2479   -1.6496   -2.6349 H   0  0  0  0  0  0  0  0  0  0  0  0
    2.6141    0.7608   -2.1799 H   0  0  0  0  0  0  0  0  0  0  0  0
    2.3351    1.6614    0.0811 H   0  0  0  0  0  0  0  0  0  0  0  0
    1.7354    0.9719    2.6404 H   0  0  0  0  0  0  0  0  0  0  0  0
    2.2080   -0.6784    2.9818 H   0  0  0  0  0  0  0  0  0  0  0  0
    4.1565   -0.5739    0.2105 H   0  0  0  0  0  0  0  0  0  0  0  0
    3.8781    2.6899    2.8139 H   0  0  0  0  0  0  0  0  0  0  0  0
    4.3671    1.5753    7.8155 H   0  0  0  0  0  0  0  0  0  0  0  0
    5.5792    0.4909    7.1490 H   0  0  0  0  0  0  0  0  0  0  0  0
    5.5520    2.1899    6.6481 H   0  0  0  0  0  0  0  0  0  0  0  0
    5.0901   -0.6015    4.9798 H   0  0  0  0  0  0  0  0  0  0  0  0
    0.3244   -0.6782    4.5494 H   0  0  0  0  0  0  0  0  0  0  0  0
    0.4631    0.3663    5.9728 H   0  0  0  0  0  0  0  0  0  0  0  0
    1.6193    0.4886    4.6847 H   0  0  0  0  0  0  0  0  0  0  0  0
    2.6281   -1.8812    7.7105 H   0  0  0  0  0  0  0  0  0  0  0  0
    2.5814   -0.2796    7.5512 H   0  0  0  0  0  0  0  0  0  0  0  0
    6.6553   -0.8160    0.9595 H   0  0  0  0  0  0  0  0  0  0  0  0
    6.5770   -0.5199    2.7194 H   0  0  0  0  0  0  0  0  0  0  0  0
    5.4169   -1.6077    1.9133 H   0  0  0  0  0  0  0  0  0  0  0  0
  1  2  2  0  0  0  0
  1  6  1  0  0  0  0
  1 27  1  0  0  0  0
  2  3  1  0  0  0  0
  2 28  1  0  0  0  0
  3  4  2  0  0  0  0
  3 29  1  0  0  0  0
  4  5  1  0  0  0  0
  4 30  1  0  0  0  0
  5  6  2  0  0  0  0
  5 31  1  0  0  0  0
  6  7  1  0  0  0  0
  7 32  1  0  0  0  0
  7 33  1  0  0  0  0
  8 23  1  1  0  0  0
  8 10  1  0  0  0  0
  8  7  1  0  0  0  0
  9 34  1  0  0  0  0
 10 11  1  0  0  0  0
 10 35  1  0  0  0  0
 11 12  2  0  0  0  0
 13 15  1  0  0  0  0
 13 24  1  1  0  0  0
 13 14  1  0  0  0  0
 13 11  1  0  0  0  0
 14 36  1  0  0  0  0
 14 37  1  0  0  0  0
 14 38  1  0  0  0  0
 15 16  1  0  0  0  0
 15 39  1  0  0  0  0
 16 17  2  0  0  0  0
 18 20  1  0  0  0  0
 18 25  1  6  0  0  0
 18 19  1  0  0  0  0
 18 16  1  0  0  0  0
 19 40  1  0  0  0  0
 19 41  1  0  0  0  0
 19 42  1  0  0  0  0
 20 43  1  0  0  0  0
 20 44  1  0  0  0  0
 21 22  1  0  0  0  0
 21 26  1  1  0  0  0
 21  9  1  0  0  0  0
 21  8  1  0  0  0  0
 22 45  1  0  0  0  0
 22 46  1  0  0  0  0
 22 47  1  0  0  0  0
M  END
>  <DRUGBANK_ID>
DB08038

>  <COMMON_NAME>
L-alanyl-N-[(1S,2R)-1-benzyl-2-hydroxypropyl]-L-alaninamide

$$$$
