
 OpenBabel10282417193D

 61 62  0  0  0  0  0  0  0  0999 V2000
    1.2337   -0.0874    0.2366 C   0  0  0  0  0  0  0  0  0  0  0  0
    0.6227    0.8283    1.2965 C   0  0  0  0  0  0  0  0  0  0  0  0
    1.4778    2.1106    1.2679 C   0  0  0  0  0  0  0  0  0  0  0  0
   -0.8574    0.9414    1.1692 N   0  0  0  0  0  0  0  0  0  0  0  0
   -1.4846    1.6668    2.3367 C   0  0  0  0  0  0  0  0  0  0  0  0
   -1.3247    3.2043    2.5072 C   0  0  0  0  0  0  0  0  0  0  0  0
   -1.9801    3.9570    1.4334 N   0  0  0  0  0  0  0  0  0  0  0  0
   -2.4732    5.1598    1.3008 C   0  0  0  0  0  0  0  0  0  0  0  0
   -2.8001    5.5718    0.1704 O   0  0  0  0  0  0  0  0  0  0  0  0
   -2.7220    5.8114    2.4980 C   0  0  0  0  0  0  0  0  0  0  0  0
   -3.9813    6.3030    2.7121 C   0  0  0  0  0  0  0  0  0  0  0  0
   -3.7025    7.5173    3.8456 S   0  0  0  0  0  0  0  0  0  0  0  0
   -2.3312    6.6491    4.4341 C   0  0  0  0  0  0  0  0  0  0  0  0
   -1.8060    5.8739    3.5306 N   0  0  0  0  0  0  0  0  0  0  0  0
   -1.7635    6.8370    5.6642 N   0  0  0  0  0  0  0  0  0  0  0  0
   -2.2988    7.4414    6.7802 C   0  0  0  0  0  0  0  0  0  0  0  0
   -1.5834    7.6950    7.7476 O   0  0  0  0  0  0  0  0  0  0  0  0
   -3.7407    7.7863    6.8486 C   0  0  0  0  0  0  0  0  0  0  0  0
   -4.1106    9.1199    7.0772 C   0  0  0  0  0  0  0  0  0  0  0  0
   -5.4513    9.5171    6.9175 C   0  0  0  0  0  0  0  0  0  0  0  0
   -6.4036    8.5777    6.4634 C   0  0  0  0  0  0  0  0  0  0  0  0
   -6.0226    7.2507    6.2448 C   0  0  0  0  0  0  0  0  0  0  0  0
   -4.7197    6.8409    6.5137 C   0  0  0  0  0  0  0  0  0  0  0  0
   -4.3728    5.5356    6.2767 O   0  0  0  0  0  0  0  0  0  0  0  0
   -7.6803    9.0119    6.2531 O   0  0  0  0  0  0  0  0  0  0  0  0
   -8.6732    8.1026    5.8221 C   0  0  0  0  0  0  0  0  0  0  0  0
   -5.6877   10.8407    7.2190 O   0  0  0  0  0  0  0  0  0  0  0  0
   -7.0369   11.3025    7.1434 C   0  0  0  0  0  0  0  0  0  0  0  0
   -1.4126    1.3387   -0.1578 C   0  0  0  0  0  0  0  0  0  0  0  0
   -0.8243    2.6443   -0.6485 C   0  0  0  0  0  0  0  0  0  0  0  0
   -1.2251    0.4679   -1.3895 C   0  0  0  0  0  0  0  0  0  0  0  0
    1.2464    0.4034   -0.7334 H   0  0  0  0  0  0  0  0  0  0  0  0
    0.7194   -1.0501    0.1695 H   0  0  0  0  0  0  0  0  0  0  0  0
    2.2941   -0.2567    0.4315 H   0  0  0  0  0  0  0  0  0  0  0  0
    0.8152    0.3435    2.2635 H   0  0  0  0  0  0  0  0  0  0  0  0
    1.3817    2.6772    0.3450 H   0  0  0  0  0  0  0  0  0  0  0  0
    1.2931    2.7721    2.1045 H   0  0  0  0  0  0  0  0  0  0  0  0
    2.5429    1.8861    1.3070 H   0  0  0  0  0  0  0  0  0  0  0  0
   -2.5702    1.4764    2.3429 H   0  0  0  0  0  0  0  0  0  0  0  0
   -1.1343    1.1974    3.2693 H   0  0  0  0  0  0  0  0  0  0  0  0
   -1.7418    3.4976    3.4725 H   0  0  0  0  0  0  0  0  0  0  0  0
   -0.2874    3.5224    2.5783 H   0  0  0  0  0  0  0  0  0  0  0  0
   -1.8085    3.8384    0.4698 H   0  0  0  0  0  0  0  0  0  0  0  0
   -4.8358    6.1517    2.0582 H   0  0  0  0  0  0  0  0  0  0  0  0
   -0.8389    6.4386    5.7822 H   0  0  0  0  0  0  0  0  0  0  0  0
   -3.3523    9.8524    7.3520 H   0  0  0  0  0  0  0  0  0  0  0  0
   -6.7162    6.5370    5.8178 H   0  0  0  0  0  0  0  0  0  0  0  0
   -4.9234    5.1855    5.5539 H   0  0  0  0  0  0  0  0  0  0  0  0
   -8.4681    7.7850    4.7966 H   0  0  0  0  0  0  0  0  0  0  0  0
   -8.7613    7.2523    6.5043 H   0  0  0  0  0  0  0  0  0  0  0  0
   -9.6278    8.6365    5.8293 H   0  0  0  0  0  0  0  0  0  0  0  0
   -7.3921   11.2884    6.1060 H   0  0  0  0  0  0  0  0  0  0  0  0
   -7.6935   10.7332    7.8135 H   0  0  0  0  0  0  0  0  0  0  0  0
   -7.0834   12.3431    7.4731 H   0  0  0  0  0  0  0  0  0  0  0  0
   -2.5041    1.4304   -0.0093 H   0  0  0  0  0  0  0  0  0  0  0  0
    0.1110    2.7381   -1.1896 H   0  0  0  0  0  0  0  0  0  0  0  0
   -1.5796    3.2141   -1.2019 H   0  0  0  0  0  0  0  0  0  0  0  0
   -0.4620    3.0900    0.2563 H   0  0  0  0  0  0  0  0  0  0  0  0
   -1.4530   -0.5812   -1.2247 H   0  0  0  0  0  0  0  0  0  0  0  0
   -1.8310    0.8711   -2.2104 H   0  0  0  0  0  0  0  0  0  0  0  0
   -0.2167    0.5737   -1.7849 H   0  0  0  0  0  0  0  0  0  0  0  0
  1  2  1  0  0  0  0
  1 32  1  0  0  0  0
  1 33  1  0  0  0  0
  1 34  1  0  0  0  0
  2  3  1  0  0  0  0
  2  4  1  0  0  0  0
  2 35  1  0  0  0  0
  3 36  1  0  0  0  0
  3 37  1  0  0  0  0
  3 38  1  0  0  0  0
  4  5  1  0  0  0  0
  4 29  1  0  0  0  0
  5  6  1  0  0  0  0
  5 39  1  0  0  0  0
  5 40  1  0  0  0  0
  6  7  1  0  0  0  0
  6 41  1  0  0  0  0
  6 42  1  0  0  0  0
  7  8  1  0  0  0  0
  7 43  1  0  0  0  0
  8  9  2  0  0  0  0
  8 10  1  0  0  0  0
 10 11  2  0  0  0  0
 10 14  1  0  0  0  0
 11 12  1  0  0  0  0
 11 44  1  0  0  0  0
 12 13  1  0  0  0  0
 13 14  2  0  0  0  0
 13 15  1  0  0  0  0
 15 16  1  0  0  0  0
 15 45  1  0  0  0  0
 16 17  2  0  0  0  0
 16 18  1  0  0  0  0
 18 19  2  0  0  0  0
 18 23  1  0  0  0  0
 19 20  1  0  0  0  0
 19 46  1  0  0  0  0
 20 21  2  0  0  0  0
 20 27  1  0  0  0  0
 21 22  1  0  0  0  0
 21 25  1  0  0  0  0
 22 23  2  0  0  0  0
 22 47  1  0  0  0  0
 23 24  1  0  0  0  0
 24 48  1  0  0  0  0
 25 26  1  0  0  0  0
 26 49  1  0  0  0  0
 26 50  1  0  0  0  0
 26 51  1  0  0  0  0
 27 28  1  0  0  0  0
 28 52  1  0  0  0  0
 28 53  1  0  0  0  0
 28 54  1  0  0  0  0
 29 30  1  0  0  0  0
 29 31  1  0  0  0  0
 29 55  1  0  0  0  0
 30 56  1  0  0  0  0
 30 57  1  0  0  0  0
 30 58  1  0  0  0  0
 31 59  1  0  0  0  0
 31 60  1  0  0  0  0
 31 61  1  0  0  0  0
M  END
>  <DRUGBANK_ID>
DB12482

>  <COMMON_NAME>
Acotiamide

>  <CAS_NUMBER>
185106-16-5

>  <UNII>
D42OWK5383

>  <SYNONYMS>
Acotiamide

$$$$
