
 OpenBabel10282417223D

 59 62  0  0  0  0  0  0  0  0999 V2000
    2.3291    0.0433    0.0846 N   0  0  0  0  0  0  0  0  0  0  0  0
    0.9497    0.0759    0.0383 C   0  0  0  0  0  0  0  0  0  0  0  0
    0.3717   -1.1339   -0.0003 N   0  0  0  0  0  0  0  0  0  0  0  0
   -0.9621   -1.1504    0.0054 C   0  0  0  0  0  0  0  0  0  0  0  0
   -1.7592   -0.0837   -0.0108 N   0  0  0  0  0  0  0  0  0  0  0  0
   -1.1680    1.1213    0.0208 C   0  0  0  0  0  0  0  0  0  0  0  0
   -1.9913    2.2384    0.0612 N   0  0  0  0  0  0  0  0  0  0  0  0
   -3.4160    2.0962   -0.1280 C   0  0  0  0  0  0  0  0  0  0  0  0
   -4.1170    2.8233    1.0325 C   0  0  0  0  0  0  0  0  0  0  0  0
   -5.6263    2.5131    1.0230 C   0  0  0  0  0  0  0  0  0  0  0  0
   -6.3481    3.1889   -0.1532 C   0  0  0  0  0  0  0  0  0  0  0  0
   -6.0329    4.6234   -0.1919 N   0  0  0  0  0  0  0  0  0  0  0  0
   -4.6089    4.8657   -0.2992 C   0  0  0  0  0  0  0  0  0  0  0  0
   -3.9039    4.3402    0.9408 C   0  0  0  0  0  0  0  0  0  0  0  0
   -7.0540    5.5492   -0.0658 C   0  0  0  0  0  0  0  0  0  0  0  0
   -8.2293    5.2053    0.0208 O   0  0  0  0  0  0  0  0  0  0  0  0
   -6.8034    7.0350   -0.0443 C   0  0  0  0  0  0  0  0  0  0  0  0
   -5.7121    7.8089   -0.0535 C   0  0  0  0  0  0  0  0  0  0  0  0
    0.2217    1.2666    0.1082 C   0  0  0  0  0  0  0  0  0  0  0  0
    0.8529    2.5969    0.1916 C   0  0  0  0  0  0  0  0  0  0  0  0
    1.7141    3.0288   -0.8212 C   0  0  0  0  0  0  0  0  0  0  0  0
    2.2838    4.2963   -0.7794 C   0  0  0  0  0  0  0  0  0  0  0  0
    1.9586    5.1947    0.2386 C   0  0  0  0  0  0  0  0  0  0  0  0
    2.5215    6.4467    0.3895 O   0  0  0  0  0  0  0  0  0  0  0  0
    3.4133    6.8874   -0.5627 C   0  0  0  0  0  0  0  0  0  0  0  0
    3.0192    7.0655   -1.8918 C   0  0  0  0  0  0  0  0  0  0  0  0
    3.9386    7.5072   -2.8401 C   0  0  0  0  0  0  0  0  0  0  0  0
    5.2289    7.8552   -2.4452 C   0  0  0  0  0  0  0  0  0  0  0  0
    5.6030    7.7471   -1.1043 C   0  0  0  0  0  0  0  0  0  0  0  0
    4.7078    7.2259   -0.1657 C   0  0  0  0  0  0  0  0  0  0  0  0
    1.0482    4.8034    1.2224 C   0  0  0  0  0  0  0  0  0  0  0  0
    0.5503    3.4954    1.2322 C   0  0  0  0  0  0  0  0  0  0  0  0
    2.7471   -0.8647   -0.0619 H   0  0  0  0  0  0  0  0  0  0  0  0
    2.8799    0.8767   -0.0418 H   0  0  0  0  0  0  0  0  0  0  0  0
   -1.4501   -2.1175    0.0314 H   0  0  0  0  0  0  0  0  0  0  0  0
   -1.5731    3.1245   -0.1971 H   0  0  0  0  0  0  0  0  0  0  0  0
   -3.6842    2.5009   -1.1086 H   0  0  0  0  0  0  0  0  0  0  0  0
   -3.7569    1.0578   -0.1526 H   0  0  0  0  0  0  0  0  0  0  0  0
   -3.6845    2.4692    1.9788 H   0  0  0  0  0  0  0  0  0  0  0  0
   -5.7802    1.4282    0.9869 H   0  0  0  0  0  0  0  0  0  0  0  0
   -6.0638    2.8683    1.9641 H   0  0  0  0  0  0  0  0  0  0  0  0
   -5.9940    2.7626   -1.1005 H   0  0  0  0  0  0  0  0  0  0  0  0
   -7.4224    2.9902   -0.1050 H   0  0  0  0  0  0  0  0  0  0  0  0
   -4.3157    5.8779   -0.4608 H   0  0  0  0  0  0  0  0  0  0  0  0
   -4.2763    4.3865   -1.2222 H   0  0  0  0  0  0  0  0  0  0  0  0
   -4.3059    4.8229    1.8425 H   0  0  0  0  0  0  0  0  0  0  0  0
   -2.8412    4.6003    0.8997 H   0  0  0  0  0  0  0  0  0  0  0  0
   -7.7552    7.5695    0.0035 H   0  0  0  0  0  0  0  0  0  0  0  0
   -5.7876    8.8897   -0.0476 H   0  0  0  0  0  0  0  0  0  0  0  0
   -4.6885    7.4889   -0.0599 H   0  0  0  0  0  0  0  0  0  0  0  0
    1.9641    2.3750   -1.6543 H   0  0  0  0  0  0  0  0  0  0  0  0
    2.9782    4.5509   -1.5715 H   0  0  0  0  0  0  0  0  0  0  0  0
    2.0078    6.8140   -2.1971 H   0  0  0  0  0  0  0  0  0  0  0  0
    3.6423    7.5895   -3.8819 H   0  0  0  0  0  0  0  0  0  0  0  0
    5.9414    8.2164   -3.1827 H   0  0  0  0  0  0  0  0  0  0  0  0
    6.5924    8.0741   -0.7936 H   0  0  0  0  0  0  0  0  0  0  0  0
    5.0262    7.0839    0.8636 H   0  0  0  0  0  0  0  0  0  0  0  0
    0.7305    5.5034    1.9922 H   0  0  0  0  0  0  0  0  0  0  0  0
   -0.0981    3.1794    2.0500 H   0  0  0  0  0  0  0  0  0  0  0  0
  1  2  1  0  0  0  0
  1 33  1  0  0  0  0
  1 34  1  0  0  0  0
  2  3  2  0  0  0  0
  2 19  1  0  0  0  0
  3  4  1  0  0  0  0
  4  5  2  0  0  0  0
  4 35  1  0  0  0  0
  5  6  1  0  0  0  0
  6  7  1  0  0  0  0
  6 19  2  0  0  0  0
  7  8  1  0  0  0  0
  7 36  1  0  0  0  0
  8  9  1  0  0  0  0
  8 37  1  0  0  0  0
  8 38  1  0  0  0  0
  9 10  1  0  0  0  0
  9 14  1  0  0  0  0
  9 39  1  0  0  0  0
 10 11  1  0  0  0  0
 10 40  1  0  0  0  0
 10 41  1  0  0  0  0
 11 12  1  0  0  0  0
 11 42  1  0  0  0  0
 11 43  1  0  0  0  0
 12 13  1  0  0  0  0
 12 15  1  0  0  0  0
 13 14  1  0  0  0  0
 13 44  1  0  0  0  0
 13 45  1  0  0  0  0
 14 46  1  0  0  0  0
 14 47  1  0  0  0  0
 15 16  2  0  0  0  0
 15 17  1  0  0  0  0
 17 18  2  0  0  0  0
 17 48  1  0  0  0  0
 18 49  1  0  0  0  0
 18 50  1  0  0  0  0
 19 20  1  0  0  0  0
 20 21  2  0  0  0  0
 20 32  1  0  0  0  0
 21 22  1  0  0  0  0
 21 51  1  0  0  0  0
 22 23  2  0  0  0  0
 22 52  1  0  0  0  0
 23 24  1  0  0  0  0
 23 31  1  0  0  0  0
 24 25  1  0  0  0  0
 25 26  2  0  0  0  0
 25 30  1  0  0  0  0
 26 27  1  0  0  0  0
 26 53  1  0  0  0  0
 27 28  2  0  0  0  0
 27 54  1  0  0  0  0
 28 29  1  0  0  0  0
 28 55  1  0  0  0  0
 29 30  2  0  0  0  0
 29 56  1  0  0  0  0
 30 57  1  0  0  0  0
 31 32  2  0  0  0  0
 31 58  1  0  0  0  0
 32 59  1  0  0  0  0
M  END
>  <DRUGBANK_ID>
DB15170

>  <COMMON_NAME>
Evobrutinib

>  <CAS_NUMBER>
1415823-73-2

>  <UNII>
ZA45457L1K

>  <SYNONYMS>
Evobrutinib

$$$$
