
 OpenBabel10282417203D

 45 47  0  0  0  0  0  0  0  0999 V2000
   -0.7986    0.3989    0.6919 N   0  0  0  0  0  0  0  0  0  0  0  0
    0.9421   -1.1272   -0.5421 S   0  0  0  0  0  0  0  0  0  0  0  0
    2.4181    1.0959   -1.0938 C   0  0  0  0  0  0  0  0  0  0  0  0
    1.5283    0.5454    0.0197 C   0  0  0  0  0  0  0  0  0  0  0  0
    2.3519    0.3423    1.3005 C   0  0  0  0  0  0  0  0  0  0  0  0
    0.2133    1.3535    0.2148 C   0  0  2  0  0  0  0  0  0  0  0  0
   -0.4845    3.6031    0.9106 O   0  0  0  0  0  0  0  0  0  0  0  0
    0.3515    2.5688    1.1614 C   0  0  0  0  0  0  0  0  0  0  0  0
    1.1135    2.6350    2.1154 O   0  0  0  0  0  0  0  0  0  0  0  0
   -1.9001   -1.2669    0.0041 C   0  0  2  0  0  0  0  0  0  0  0  0
   -2.0159   -1.9936   -1.3036 N   0  0  0  0  0  0  0  0  0  0  0  0
   -1.9566   -3.3695   -1.2601 C   0  0  0  0  0  0  0  0  0  0  0  0
   -1.6966   -3.9180   -0.1863 O   0  0  0  0  0  0  0  0  0  0  0  0
   -2.2236   -4.1644   -2.5648 C   0  0  3  0  0  0  0  0  0  0  0  0
   -1.9833    0.2737    0.0071 C   0  0  0  0  0  0  0  0  0  0  0  0
   -2.6741    1.1197   -0.5045 O   0  0  0  0  0  0  0  0  0  0  0  0
   -0.4893   -1.0505    0.5904 C   0  0  2  0  0  0  0  0  0  0  0  0
   -0.3178   -1.5161    1.5660 H   0  0  0  0  0  0  0  0  0  0  0  0
   -1.1242   -5.2216   -2.6817 C   0  0  0  0  0  0  0  0  0  0  0  0
   -3.5158   -4.7431   -2.8117 O   0  0  0  0  0  0  0  0  0  0  0  0
   -3.9608   -5.7154   -1.9534 C   0  0  0  0  0  0  0  0  0  0  0  0
   -4.0229   -5.5408   -0.5746 C   0  0  0  0  0  0  0  0  0  0  0  0
   -4.4294   -6.5679    0.2736 C   0  0  0  0  0  0  0  0  0  0  0  0
   -4.4790   -6.8933   -2.4940 C   0  0  0  0  0  0  0  0  0  0  0  0
   -4.9359   -7.7401   -0.2645 C   0  0  0  0  0  0  0  0  0  0  0  0
   -5.0137   -7.8788   -1.6501 C   0  0  0  0  0  0  0  0  0  0  0  0
    2.7804    2.0978   -0.8445 H   0  0  0  0  0  0  0  0  0  0  0  0
    3.2987    0.4585   -1.2480 H   0  0  0  0  0  0  0  0  0  0  0  0
    1.8865    1.1617   -2.0503 H   0  0  0  0  0  0  0  0  0  0  0  0
    3.1620   -0.3816    1.1708 H   0  0  0  0  0  0  0  0  0  0  0  0
    2.8469    1.2734    1.5968 H   0  0  0  0  0  0  0  0  0  0  0  0
    1.7274    0.0129    2.1395 H   0  0  0  0  0  0  0  0  0  0  0  0
   -0.1100    1.7406   -0.7639 H   0  0  0  0  0  0  0  0  0  0  0  0
   -1.1744    3.4642    0.2345 H   0  0  0  0  0  0  0  0  0  0  0  0
   -2.5997   -1.7056    0.7293 H   0  0  0  0  0  0  0  0  0  0  0  0
   -1.8723   -1.5116   -2.1851 H   0  0  0  0  0  0  0  0  0  0  0  0
   -2.0737   -3.4586   -3.3945 H   0  0  0  0  0  0  0  0  0  0  0  0
   -1.2393   -5.9888   -1.9085 H   0  0  0  0  0  0  0  0  0  0  0  0
   -1.1636   -5.7275   -3.6502 H   0  0  0  0  0  0  0  0  0  0  0  0
   -0.1351   -4.7699   -2.5507 H   0  0  0  0  0  0  0  0  0  0  0  0
   -3.7841   -4.5971   -0.1093 H   0  0  0  0  0  0  0  0  0  0  0  0
   -4.3775   -6.4193    1.3485 H   0  0  0  0  0  0  0  0  0  0  0  0
   -4.4827   -7.0537   -3.5689 H   0  0  0  0  0  0  0  0  0  0  0  0
   -5.2944   -8.5239    0.3966 H   0  0  0  0  0  0  0  0  0  0  0  0
   -5.5003   -8.7551   -2.0700 H   0  0  0  0  0  0  0  0  0  0  0  0
  1  6  1  0  0  0  0
  2 17  1  0  0  0  0
  2  4  1  0  0  0  0
  3 27  1  0  0  0  0
  3 28  1  0  0  0  0
  3 29  1  0  0  0  0
  4  3  1  0  0  0  0
  4  5  1  0  0  0  0
  5 30  1  0  0  0  0
  5 31  1  0  0  0  0
  5 32  1  0  0  0  0
  6  4  1  0  0  0  0
  6 33  1  6  0  0  0
  6  8  1  0  0  0  0
  7 34  1  0  0  0  0
  8  7  1  0  0  0  0
  8  9  2  0  0  0  0
 10 15  1  0  0  0  0
 10 35  1  1  0  0  0
 10 11  1  0  0  0  0
 11 12  1  0  0  0  0
 11 36  1  0  0  0  0
 12 14  1  0  0  0  0
 12 13  2  0  0  0  0
 14 19  1  0  0  0  0
 14 20  1  0  0  0  0
 14 37  1  0  0  0  0
 15  1  1  0  0  0  0
 15 16  2  0  0  0  0
 17 10  1  0  0  0  0
 17  1  1  0  0  0  0
 17 18  1  1  0  0  0
 19 38  1  0  0  0  0
 19 39  1  0  0  0  0
 19 40  1  0  0  0  0
 20 21  1  0  0  0  0
 21 22  1  0  0  0  0
 22 41  1  0  0  0  0
 23 22  2  0  0  0  0
 23 42  1  0  0  0  0
 24 21  2  0  0  0  0
 24 43  1  0  0  0  0
 25 23  1  0  0  0  0
 25 44  1  0  0  0  0
 26 24  1  0  0  0  0
 26 25  2  0  0  0  0
 26 45  1  0  0  0  0
M  END
>  <DRUGBANK_ID>
DB13337

>  <COMMON_NAME>
Pheneticillin

>  <CAS_NUMBER>
147-55-7

>  <UNII>
EFA30X554H

>  <SYNONYMS>
Feneticilina; penicillin B; Pheneticillin; Pheneticilline; Pheneticillinum; phenoxypropylpenicillin

$$$$
