
 OpenBabel10282417233D

 32 33  0  0  0  0  0  0  0  0999 V2000
    1.0283    0.1135   -0.0573 C   0  0  0  0  0  0  0  0  0  0  0  0
    0.5279   -0.7067    1.1127 C   0  0  0  0  0  0  0  0  0  0  0  0
    1.0546   -0.1469    2.3600 N   0  0  0  0  0  0  0  0  0  0  0  0
    0.5759   -0.9164    3.5179 C   0  0  0  0  0  0  0  0  0  0  0  0
    1.0386   -2.3843    3.4329 C   0  0  0  0  0  0  0  0  0  0  0  0
    2.2859   -2.6166    3.1489 N   0  0  0  0  0  0  0  0  0  0  0  0
    2.7435   -3.9407    3.0040 C   0  0  0  0  0  0  0  0  0  0  0  0
    1.8904   -5.0366    3.1944 C   0  0  0  0  0  0  0  0  0  0  0  0
    0.4865   -4.7295    3.5372 C   0  0  0  0  0  0  0  0  0  0  0  0
   -0.3319   -5.6282    3.7308 O   0  0  0  0  0  0  0  0  0  0  0  0
    0.1197   -3.3892    3.6331 N   0  0  0  0  0  0  0  0  0  0  0  0
   -1.2852   -3.1817    3.9674 C   0  0  0  0  0  0  0  0  0  0  0  0
    2.3792   -6.3491    3.0597 C   0  0  0  0  0  0  0  0  0  0  0  0
    1.4296   -7.7788    3.2808 Cl  0  0  0  0  0  0  0  0  0  0  0  0
    3.7186   -6.5703    2.7311 C   0  0  0  0  0  0  0  0  0  0  0  0
    4.5705   -5.4920    2.5284 C   0  0  0  0  0  0  0  0  0  0  0  0
    6.2184   -5.8028    2.1235 Cl  0  0  0  0  0  0  0  0  0  0  0  0
    4.0910   -4.1840    2.6586 C   0  0  0  0  0  0  0  0  0  0  0  0
    4.9338   -3.1161    2.4505 O   0  0  0  0  0  0  0  0  0  0  0  0
    0.6734    1.1464    0.0085 H   0  0  0  0  0  0  0  0  0  0  0  0
    0.6649   -0.3177   -0.9948 H   0  0  0  0  0  0  0  0  0  0  0  0
    2.1228    0.1200   -0.0879 H   0  0  0  0  0  0  0  0  0  0  0  0
   -0.5687   -0.7052    1.1202 H   0  0  0  0  0  0  0  0  0  0  0  0
    0.8578   -1.7413    0.9688 H   0  0  0  0  0  0  0  0  0  0  0  0
    2.0758   -0.2121    2.3513 H   0  0  0  0  0  0  0  0  0  0  0  0
    0.9705   -0.4913    4.4464 H   0  0  0  0  0  0  0  0  0  0  0  0
   -0.5009   -0.7838    3.5459 H   0  0  0  0  0  0  0  0  0  0  0  0
   -1.9020   -3.6422    3.1882 H   0  0  0  0  0  0  0  0  0  0  0  0
   -1.4940   -3.6778    4.9204 H   0  0  0  0  0  0  0  0  0  0  0  0
   -1.5915   -2.1467    4.0715 H   0  0  0  0  0  0  0  0  0  0  0  0
    4.0896   -7.5887    2.6358 H   0  0  0  0  0  0  0  0  0  0  0  0
    5.8212   -3.4569    2.2318 H   0  0  0  0  0  0  0  0  0  0  0  0
  1  2  1  0  0  0  0
  1 20  1  0  0  0  0
  1 21  1  0  0  0  0
  1 22  1  0  0  0  0
  2  3  1  0  0  0  0
  2 23  1  0  0  0  0
  2 24  1  0  0  0  0
  3  4  1  0  0  0  0
  3 25  1  0  0  0  0
  4  5  1  0  0  0  0
  4 26  1  0  0  0  0
  4 27  1  0  0  0  0
  5  6  2  0  0  0  0
  5 11  1  0  0  0  0
  6  7  1  0  0  0  0
  7  8  2  0  0  0  0
  7 18  1  0  0  0  0
  8  9  1  0  0  0  0
  8 13  1  0  0  0  0
  9 10  2  0  0  0  0
  9 11  1  0  0  0  0
 11 12  1  0  0  0  0
 12 28  1  0  0  0  0
 12 29  1  0  0  0  0
 12 30  1  0  0  0  0
 13 14  1  0  0  0  0
 13 15  2  0  0  0  0
 15 16  1  0  0  0  0
 15 31  1  0  0  0  0
 16 17  1  0  0  0  0
 16 18  2  0  0  0  0
 18 19  1  0  0  0  0
 19 32  1  0  0  0  0
M  END
>  <DRUGBANK_ID>
DB16965

>  <COMMON_NAME>
PBT-434

>  <CAS_NUMBER>
1232840-87-7

>  <UNII>
UK4JEM5WVX

>  <SYNONYMS>
5,7-dichloro-2-((ethylamino)methyl)-8-hydroxy-3-methylquinazolin-4(3h)-one

$$$$
