1100
 OpenBabel10282417113D

 63 67  0  0  0  0  0  0  0  0999 V2000
    2.2606    0.0504   -0.0391 F   0  0  0  0  0  0  0  0  0  0  0  0
   -5.5050   -2.2049    4.9813 F   0  0  0  0  0  0  0  0  0  0  0  0
  -10.0244   -4.8325    0.1148 O   0  0  0  0  0  0  0  0  0  0  0  0
   -5.5051   -3.0556   -0.4309 N   0  0  0  0  0  0  0  0  0  0  0  0
   -9.6491   -2.8841   -1.1790 N   0  0  0  0  0  0  0  0  0  0  0  0
  -11.7031   -3.3742   -0.4416 N   0  0  0  0  0  0  0  0  0  0  0  0
   -8.2316   -2.9393   -1.3615 C   0  0  0  0  0  0  0  0  0  0  0  0
   -7.6278   -1.7389   -0.7137 C   0  0  0  0  0  0  0  0  0  0  0  0
   -7.5544   -4.2095   -0.7901 C   0  0  0  0  0  0  0  0  0  0  0  0
   -6.1784   -1.8636   -1.0165 C   0  0  0  0  0  0  0  0  0  0  0  0
   -6.0502   -4.2709   -0.9617 C   0  0  0  0  0  0  0  0  0  0  0  0
   -4.0253   -3.0813   -0.4098 C   0  0  0  0  0  0  0  0  0  0  0  0
   -3.4566   -2.1566   -1.4737 C   0  0  0  0  0  0  0  0  0  0  0  0
  -10.5051   -1.8373   -1.5841 C   0  0  0  0  0  0  0  0  0  0  0  0
   -3.6822   -0.6193   -1.2601 C   0  0  0  0  0  0  0  0  0  0  0  0
  -10.3868   -3.8293   -0.4322 C   0  0  0  0  0  0  0  0  0  0  0  0
   -3.3407    0.0601    0.1538 C   0  0  0  0  0  0  0  0  0  0  0  0
  -11.7780   -2.1771   -1.1304 C   0  0  0  0  0  0  0  0  0  0  0  0
  -10.2958   -0.6549   -2.2764 C   0  0  0  0  0  0  0  0  0  0  0  0
   -1.8320    0.0640    0.1502 C   0  0  0  0  0  0  0  0  0  0  0  0
   -3.8893   -0.3529    1.5461 C   0  0  0  0  0  0  0  0  0  0  0  0
  -12.8850   -1.4043   -1.3677 C   0  0  0  0  0  0  0  0  0  0  0  0
  -11.4093    0.1623   -2.5169 C   0  0  0  0  0  0  0  0  0  0  0  0
  -12.6920   -0.2183   -2.0770 C   0  0  0  0  0  0  0  0  0  0  0  0
   -1.1526    1.2728    0.0371 C   0  0  0  0  0  0  0  0  0  0  0  0
   -3.4699    0.0261    2.7970 C   0  0  0  0  0  0  0  0  0  0  0  0
   -1.1118   -1.1432    0.1996 C   0  0  0  0  0  0  0  0  0  0  0  0
   -4.9198   -1.2506    1.6515 C   0  0  0  0  0  0  0  0  0  0  0  0
    0.2342    1.2607   -0.0082 C   0  0  0  0  0  0  0  0  0  0  0  0
   -4.0431   -0.5876    3.9599 C   0  0  0  0  0  0  0  0  0  0  0  0
    0.2613   -1.1600    0.0715 C   0  0  0  0  0  0  0  0  0  0  0  0
   -5.4649   -1.9778    2.6890 C   0  0  0  0  0  0  0  0  0  0  0  0
    0.9245    0.0493   -0.0017 C   0  0  0  0  0  0  0  0  0  0  0  0
   -5.0098   -1.6054    3.8953 C   0  0  0  0  0  0  0  0  0  0  0  0
  -12.4328   -3.8911    0.0127 H   0  0  0  0  0  0  0  0  0  0  0  0
   -8.0291   -2.8865   -2.4397 H   0  0  0  0  0  0  0  0  0  0  0  0
   -7.9433   -0.7852   -1.1535 H   0  0  0  0  0  0  0  0  0  0  0  0
   -7.8535   -1.6402    0.3596 H   0  0  0  0  0  0  0  0  0  0  0  0
   -7.7464   -4.2530    0.2933 H   0  0  0  0  0  0  0  0  0  0  0  0
   -7.9714   -5.0969   -1.2637 H   0  0  0  0  0  0  0  0  0  0  0  0
   -5.9911   -1.8153   -2.0870 H   0  0  0  0  0  0  0  0  0  0  0  0
   -5.9304   -0.8830   -0.6055 H   0  0  0  0  0  0  0  0  0  0  0  0
   -5.6625   -5.1313   -0.3995 H   0  0  0  0  0  0  0  0  0  0  0  0
   -5.7466   -4.3637   -2.0056 H   0  0  0  0  0  0  0  0  0  0  0  0
   -3.6302   -4.1066   -0.4670 H   0  0  0  0  0  0  0  0  0  0  0  0
   -3.6063   -2.8121    0.5694 H   0  0  0  0  0  0  0  0  0  0  0  0
   -3.8773   -2.4857   -2.4315 H   0  0  0  0  0  0  0  0  0  0  0  0
   -2.3902   -2.3519   -1.5967 H   0  0  0  0  0  0  0  0  0  0  0  0
   -4.6630   -0.2748   -1.5852 H   0  0  0  0  0  0  0  0  0  0  0  0
   -3.1162   -0.1332   -2.0692 H   0  0  0  0  0  0  0  0  0  0  0  0
   -3.7207    1.0867    0.0187 H   0  0  0  0  0  0  0  0  0  0  0  0
   -9.3245   -0.3326   -2.6341 H   0  0  0  0  0  0  0  0  0  0  0  0
  -13.8633   -1.7111   -1.0246 H   0  0  0  0  0  0  0  0  0  0  0  0
  -11.2898    1.0995   -3.0592 H   0  0  0  0  0  0  0  0  0  0  0  0
  -13.5458    0.4183   -2.2944 H   0  0  0  0  0  0  0  0  0  0  0  0
   -1.7023    2.2106   -0.0002 H   0  0  0  0  0  0  0  0  0  0  0  0
   -2.6933    0.7738    2.8923 H   0  0  0  0  0  0  0  0  0  0  0  0
   -1.6096   -2.0989    0.3136 H   0  0  0  0  0  0  0  0  0  0  0  0
   -5.2742   -1.5296    0.7442 H   0  0  0  0  0  0  0  0  0  0  0  0
    0.7826    2.1924   -0.0440 H   0  0  0  0  0  0  0  0  0  0  0  0
   -3.7209   -0.2810    4.9417 H   0  0  0  0  0  0  0  0  0  0  0  0
    0.7934   -2.1039    0.0534 H   0  0  0  0  0  0  0  0  0  0  0  0
   -6.1619   -2.7894    2.4828 H   0  0  0  0  0  0  0  0  0  0  0  0
  1 33  1  0  0  0  0
  2 34  1  0  0  0  0
  3 16  2  0  0  0  0
  4 10  1  0  0  0  0
  4 11  1  0  0  0  0
  4 12  1  0  0  0  0
  5  7  1  0  0  0  0
  5 14  1  0  0  0  0
  5 16  1  0  0  0  0
  6 16  1  0  0  0  0
  6 18  1  0  0  0  0
  6 35  1  0  0  0  0
  7  8  1  0  0  0  0
  7  9  1  0  0  0  0
  7 36  1  0  0  0  0
  8 10  1  0  0  0  0
  8 37  1  0  0  0  0
  8 38  1  0  0  0  0
  9 11  1  0  0  0  0
  9 39  1  0  0  0  0
  9 40  1  0  0  0  0
 10 41  1  0  0  0  0
 10 42  1  0  0  0  0
 11 43  1  0  0  0  0
 11 44  1  0  0  0  0
 12 13  1  0  0  0  0
 12 45  1  0  0  0  0
 12 46  1  0  0  0  0
 13 15  1  0  0  0  0
 13 47  1  0  0  0  0
 13 48  1  0  0  0  0
 14 18  1  0  0  0  0
 14 19  2  0  0  0  0
 15 17  1  0  0  0  0
 15 49  1  0  0  0  0
 15 50  1  0  0  0  0
 17 20  1  0  0  0  0
 17 21  1  0  0  0  0
 17 51  1  0  0  0  0
 18 22  2  0  0  0  0
 19 23  1  0  0  0  0
 19 52  1  0  0  0  0
 20 25  2  0  0  0  0
 20 27  1  0  0  0  0
 21 26  2  0  0  0  0
 21 28  1  0  0  0  0
 22 24  1  0  0  0  0
 22 53  1  0  0  0  0
 23 24  2  0  0  0  0
 23 54  1  0  0  0  0
 24 55  1  0  0  0  0
 25 29  1  0  0  0  0
 25 56  1  0  0  0  0
 26 30  1  0  0  0  0
 26 57  1  0  0  0  0
 27 31  2  0  0  0  0
 27 58  1  0  0  0  0
 28 32  2  0  0  0  0
 28 59  1  0  0  0  0
 29 33  2  0  0  0  0
 29 60  1  0  0  0  0
 30 34  2  0  0  0  0
 30 61  1  0  0  0  0
 31 33  1  0  0  0  0
 31 62  1  0  0  0  0
 32 34  1  0  0  0  0
 32 63  1  0  0  0  0
M  END
>  <DRUGBANK_ID>
DB01100

>  <SECONDARY_ACCESSION_NUMBERS>
APRD00218

>  <COMMON_NAME>
Pimozide

>  <CAS_NUMBER>
2062-78-4

>  <UNII>
1HIZ4DL86F

>  <SYNONYMS>
Pimozida; Pimozide; Pimozidum

$$$$
