1PL
 OpenBabel10282417163D

 39 41  0  0  0  0  0  0  0  0999 V2000
   -5.9571   -1.1111    1.1921 C   0  0  0  0  0  0  0  0  0  0  0  0
   -5.5231   -0.2321    2.3390 C   0  0  1  0  0  0  0  0  0  0  0  0
   -6.5710   -0.1131    3.4571 C   0  0  0  0  0  0  0  0  0  0  0  0
   -6.3217   -1.3029    4.3935 C   0  0  0  0  0  0  0  0  0  0  0  0
   -4.9787   -1.9765    3.9966 C   0  0  1  0  0  0  0  0  0  0  0  0
   -4.2549   -0.8107    3.0490 C   0  0  1  0  0  0  0  0  0  0  0  0
   -3.2682    0.4130    3.0431 C   0  0  0  0  0  0  0  0  0  0  0  0
   -2.4024    0.2181    1.6745 C   0  0  0  0  0  0  0  0  0  0  0  0
   -3.1005    0.6095    0.3483 C   0  0  0  0  0  0  0  0  0  0  0  0
   -1.0653    0.9631    1.6379 C   0  0  0  0  0  0  0  0  0  0  0  0
   -2.1979   -1.2819    1.5897 C   0  0  0  0  0  0  0  0  0  0  0  0
   -3.1969   -1.7884    2.5650 C   0  0  2  0  0  0  0  0  0  0  0  0
   -3.9765   -2.9191    2.1072 C   0  0  0  0  0  0  0  0  0  0  0  0
   -4.8682   -3.3007    2.9740 C   0  0  0  0  0  0  0  0  0  0  0  0
   -5.1188   -4.7197    2.4767 C   0  0  0  0  0  0  0  0  0  0  0  0
   -6.2013   -5.4711    2.6246 O   0  0  0  0  0  0  0  0  0  0  0  0
   -4.2442   -5.2779    1.7775 O   0  0  0  0  0  0  0  0  0  0  0  0
   -5.3940    0.7804    1.9329 H   0  0  0  0  0  0  0  0  0  0  0  0
   -4.3759   -2.1336    4.9042 H   0  0  0  0  0  0  0  0  0  0  0  0
   -2.6128   -2.1363    3.4401 H   0  0  0  0  0  0  0  0  0  0  0  0
   -6.5647   -0.6074    0.4468 H   0  0  0  0  0  0  0  0  0  0  0  0
   -6.4777   -2.0012    1.5446 H   0  0  0  0  0  0  0  0  0  0  0  0
   -5.0635   -1.4146    0.6566 H   0  0  0  0  0  0  0  0  0  0  0  0
   -6.4695    0.8248    4.0352 H   0  0  0  0  0  0  0  0  0  0  0  0
   -7.5881   -0.0739    3.0488 H   0  0  0  0  0  0  0  0  0  0  0  0
   -6.2373   -0.8935    5.4157 H   0  0  0  0  0  0  0  0  0  0  0  0
   -7.1717   -1.9881    4.4132 H   0  0  0  0  0  0  0  0  0  0  0  0
   -2.6253    0.4743    3.9278 H   0  0  0  0  0  0  0  0  0  0  0  0
   -3.7755    1.3867    2.9768 H   0  0  0  0  0  0  0  0  0  0  0  0
   -2.3690    0.6432   -0.4724 H   0  0  0  0  0  0  0  0  0  0  0  0
   -3.8144   -0.1275   -0.0140 H   0  0  0  0  0  0  0  0  0  0  0  0
   -3.5883    1.5796    0.4130 H   0  0  0  0  0  0  0  0  0  0  0  0
   -1.2166    2.0221    1.8580 H   0  0  0  0  0  0  0  0  0  0  0  0
   -0.3155    0.5445    2.3127 H   0  0  0  0  0  0  0  0  0  0  0  0
   -0.6223    0.9091    0.6310 H   0  0  0  0  0  0  0  0  0  0  0  0
   -1.2038   -1.6292    1.8974 H   0  0  0  0  0  0  0  0  0  0  0  0
   -2.3695   -1.7037    0.5921 H   0  0  0  0  0  0  0  0  0  0  0  0
   -3.8599   -3.2999    1.0815 H   0  0  0  0  0  0  0  0  0  0  0  0
   -7.0505   -5.2224    3.0106 H   0  0  0  0  0  0  0  0  0  0  0  0
  1 21  1  0  0  0  0
  1 22  1  0  0  0  0
  1 23  1  0  0  0  0
  2  3  1  0  0  0  0
  2  6  1  0  0  0  0
  2 18  1  6  0  0  0
  2  1  1  0  0  0  0
  3  4  1  0  0  0  0
  3 24  1  0  0  0  0
  3 25  1  0  0  0  0
  4  5  1  0  0  0  0
  4 26  1  0  0  0  0
  4 27  1  0  0  0  0
  5 14  1  0  0  0  0
  5 19  1  6  0  0  0
  6  5  1  0  0  0  0
  6 12  1  0  0  0  0
  6  7  1  6  0  0  0
  7  8  1  0  0  0  0
  7 28  1  0  0  0  0
  7 29  1  0  0  0  0
  8 11  1  0  0  0  0
  8 10  1  0  0  0  0
  9 30  1  0  0  0  0
  9 31  1  0  0  0  0
  9 32  1  0  0  0  0
  9  8  1  0  0  0  0
 10 33  1  0  0  0  0
 10 34  1  0  0  0  0
 10 35  1  0  0  0  0
 11 36  1  0  0  0  0
 11 37  1  0  0  0  0
 12 11  1  0  0  0  0
 12 13  1  0  0  0  0
 12 20  1  1  0  0  0
 13 38  1  0  0  0  0
 14 13  2  0  0  0  0
 14 15  1  0  0  0  0
 15 16  1  0  0  0  0
 16 39  1  0  0  0  0
 17 15  2  0  0  0  0
M  END
>  <DRUGBANK_ID>
DB06903

>  <COMMON_NAME>
(1S,3aS,5aR,8aS)-1,7,7-trimethyl-1,2,3,3a,5a,6,7,8-octahydrocyclopenta[c]pentalene-4-carboxylic acid

$$$$
