
 OpenBabel10282417123D

 61 65  0  0  0  0  0  0  0  0999 V2000
    3.3563    0.3347   -0.0126 Cl  0  0  0  0  0  0  0  0  0  0  0  0
    1.7027   -0.1236    0.0242 C   0  0  0  0  0  0  0  0  0  0  0  0
    1.3320   -1.4720    0.0094 C   0  0  0  0  0  0  0  0  0  0  0  0
   -0.0132   -1.8632    0.0378 C   0  0  0  0  0  0  0  0  0  0  0  0
   -1.0084   -0.8999    0.0402 C   0  0  0  0  0  0  0  0  0  0  0  0
   -2.3798   -1.2462   -0.0156 C   0  0  0  0  0  0  0  0  0  0  0  0
   -3.3051   -0.2558   -0.3168 C   0  0  0  0  0  0  0  0  0  0  0  0
   -2.7594    1.0387   -0.5518 C   0  0  0  0  0  0  0  0  0  0  0  0
   -1.5025    1.4435   -0.1290 C   0  0  0  0  0  0  0  0  0  0  0  0
   -0.5867    0.4611    0.0377 C   0  0  0  0  0  0  0  0  0  0  0  0
    0.7403    0.8601    0.0542 C   0  0  0  0  0  0  0  0  0  0  0  0
   -5.1479   -0.7600   -0.2358 S   0  0  0  0  0  0  0  0  0  0  0  0
   -5.5562   -1.1602   -1.5434 O   0  0  0  0  0  0  0  0  0  0  0  0
   -5.1835   -1.7294    0.8726 O   0  0  0  0  0  0  0  0  0  0  0  0
   -6.1766    0.5094    0.3832 N   0  0  0  0  0  0  0  0  0  0  0  0
   -6.8670    1.6001   -0.4166 C   0  0  0  0  0  0  0  0  0  0  0  0
   -5.9361    2.7386   -0.8100 C   0  0  0  0  0  0  0  0  0  0  0  0
   -5.2436    3.2778    0.3851 N   0  0  0  0  0  0  0  0  0  0  0  0
   -4.6681    2.2027    1.1301 C   0  0  0  0  0  0  0  0  0  0  0  0
   -5.5702    1.1124    1.6253 C   0  0  0  0  0  0  0  0  0  0  0  0
   -4.7464    4.5177    0.6895 C   0  0  0  0  0  0  0  0  0  0  0  0
   -3.8353    4.6207    1.5250 O   0  0  0  0  0  0  0  0  0  0  0  0
   -5.2178    5.7938    0.0180 C   0  0  0  0  0  0  0  0  0  0  0  0
   -6.6996    6.1625    0.0507 C   0  0  0  0  0  0  0  0  0  0  0  0
   -7.5381    5.5152   -1.0279 C   0  0  0  0  0  0  0  0  0  0  0  0
   -6.8371    5.5366   -2.3230 N   0  0  0  0  0  0  0  0  0  0  0  0
   -5.4022    5.2593   -2.4677 C   0  0  0  0  0  0  0  0  0  0  0  0
   -4.5931    5.9218   -1.3657 C   0  0  0  0  0  0  0  0  0  0  0  0
   -7.5095    6.0163   -3.4354 C   0  0  0  0  0  0  0  0  0  0  0  0
   -7.6209    5.2465   -4.5935 C   0  0  0  0  0  0  0  0  0  0  0  0
   -8.3469    5.7447   -5.6644 C   0  0  0  0  0  0  0  0  0  0  0  0
   -8.9285    6.9611   -5.6770 N   0  0  0  0  0  0  0  0  0  0  0  0
   -8.7783    7.7067   -4.5639 C   0  0  0  0  0  0  0  0  0  0  0  0
   -8.0973    7.2805   -3.4353 C   0  0  0  0  0  0  0  0  0  0  0  0
    2.0966   -2.2372   -0.0312 H   0  0  0  0  0  0  0  0  0  0  0  0
   -0.2793   -2.9154    0.0008 H   0  0  0  0  0  0  0  0  0  0  0  0
   -2.7012   -2.2831    0.0787 H   0  0  0  0  0  0  0  0  0  0  0  0
   -3.2721    1.8968   -0.9662 H   0  0  0  0  0  0  0  0  0  0  0  0
   -1.2466    2.5041   -0.0826 H   0  0  0  0  0  0  0  0  0  0  0  0
    1.0131    1.9150    0.0119 H   0  0  0  0  0  0  0  0  0  0  0  0
   -7.4831    1.2780   -1.2604 H   0  0  0  0  0  0  0  0  0  0  0  0
   -7.5718    2.0825    0.2834 H   0  0  0  0  0  0  0  0  0  0  0  0
   -5.2206    2.3919   -1.5691 H   0  0  0  0  0  0  0  0  0  0  0  0
   -6.5077    3.4892   -1.2849 H   0  0  0  0  0  0  0  0  0  0  0  0
   -4.3946    1.6832    0.2693 H   0  0  0  0  0  0  0  0  0  0  0  0
   -3.7245    2.3584    1.6500 H   0  0  0  0  0  0  0  0  0  0  0  0
   -6.3077    1.4943    2.3198 H   0  0  0  0  0  0  0  0  0  0  0  0
   -4.9403    0.3635    2.1120 H   0  0  0  0  0  0  0  0  0  0  0  0
   -4.7571    6.5650    0.6597 H   0  0  0  0  0  0  0  0  0  0  0  0
   -7.1384    5.9709    1.0375 H   0  0  0  0  0  0  0  0  0  0  0  0
   -6.7673    7.2449   -0.1179 H   0  0  0  0  0  0  0  0  0  0  0  0
   -7.8125    4.5082   -0.6979 H   0  0  0  0  0  0  0  0  0  0  0  0
   -8.5304    5.9787   -1.0830 H   0  0  0  0  0  0  0  0  0  0  0  0
   -5.0067    5.5465   -3.4487 H   0  0  0  0  0  0  0  0  0  0  0  0
   -5.1958    4.1925   -2.4780 H   0  0  0  0  0  0  0  0  0  0  0  0
   -4.4955    6.9859   -1.6022 H   0  0  0  0  0  0  0  0  0  0  0  0
   -3.5787    5.5009   -1.3564 H   0  0  0  0  0  0  0  0  0  0  0  0
   -7.1850    4.2562   -4.6533 H   0  0  0  0  0  0  0  0  0  0  0  0
   -8.4914    5.1535   -6.5638 H   0  0  0  0  0  0  0  0  0  0  0  0
   -9.2335    8.6915   -4.6003 H   0  0  0  0  0  0  0  0  0  0  0  0
   -8.0061    7.9394   -2.5796 H   0  0  0  0  0  0  0  0  0  0  0  0
  1  2  1  0  0  0  0
  2  3  2  0  0  0  0
  2 11  1  0  0  0  0
  3  4  1  0  0  0  0
  3 35  1  0  0  0  0
  4  5  2  0  0  0  0
  4 36  1  0  0  0  0
  5  6  1  0  0  0  0
  5 10  1  0  0  0  0
  6  7  2  0  0  0  0
  6 37  1  0  0  0  0
  7  8  1  0  0  0  0
  7 12  1  0  0  0  0
  8  9  2  0  0  0  0
  8 38  1  0  0  0  0
  9 10  1  0  0  0  0
  9 39  1  0  0  0  0
 10 11  2  0  0  0  0
 11 40  1  0  0  0  0
 12 13  2  0  0  0  0
 12 14  2  0  0  0  0
 12 15  1  0  0  0  0
 15 16  1  0  0  0  0
 15 20  1  0  0  0  0
 16 17  1  0  0  0  0
 16 41  1  0  0  0  0
 16 42  1  0  0  0  0
 17 18  1  0  0  0  0
 17 43  1  0  0  0  0
 17 44  1  0  0  0  0
 18 19  1  0  0  0  0
 18 21  1  0  0  0  0
 19 20  1  0  0  0  0
 19 45  1  0  0  0  0
 19 46  1  0  0  0  0
 20 47  1  0  0  0  0
 20 48  1  0  0  0  0
 21 22  2  0  0  0  0
 21 23  1  0  0  0  0
 23 24  1  0  0  0  0
 23 28  1  0  0  0  0
 23 49  1  0  0  0  0
 24 25  1  0  0  0  0
 24 50  1  0  0  0  0
 24 51  1  0  0  0  0
 25 26  1  0  0  0  0
 25 52  1  0  0  0  0
 25 53  1  0  0  0  0
 26 27  1  0  0  0  0
 26 29  1  0  0  0  0
 27 28  1  0  0  0  0
 27 54  1  0  0  0  0
 27 55  1  0  0  0  0
 28 56  1  0  0  0  0
 28 57  1  0  0  0  0
 29 30  2  0  0  0  0
 29 34  1  0  0  0  0
 30 31  1  0  0  0  0
 30 58  1  0  0  0  0
 31 32  2  0  0  0  0
 31 59  1  0  0  0  0
 32 33  1  0  0  0  0
 33 34  2  0  0  0  0
 33 60  1  0  0  0  0
 34 61  1  0  0  0  0
M  END
>  <DRUGBANK_ID>
DB01836

>  <SECONDARY_ACCESSION_NUMBERS>
EXPT03286

>  <COMMON_NAME>
[4-(6-Chloro-Naphthalene-2-Sulfonyl)-Piperazin-1-Yl]-(3,4,5,6-Tetrahydro-2h-[1,4']Bipyridinyl-4-Yl)-Methanone

$$$$
