586
 OpenBabel10282417103D

 30 31  0  0  0  0  0  0  0  0999 V2000
   -2.6684    0.8128   -0.0088 Cl  0  0  0  0  0  0  0  0  0  0  0  0
    2.8370    0.3697    0.6258 Cl  0  0  0  0  0  0  0  0  0  0  0  0
    2.6466    1.9215   -4.4796 O   0  0  0  0  0  0  0  0  0  0  0  0
    0.8818    3.1976   -3.8785 O   0  0  0  0  0  0  0  0  0  0  0  0
    0.0867    2.0471    0.1350 N   0  0  0  0  0  0  0  0  0  0  0  0
    2.0862    2.7987   -1.1070 C   0  0  0  0  0  0  0  0  0  0  0  0
    1.1925    2.9006   -0.0183 C   0  0  0  0  0  0  0  0  0  0  0  0
    1.8965    1.7858   -2.2164 C   0  0  0  0  0  0  0  0  0  0  0  0
    0.0688    0.6298    0.1500 C   0  0  0  0  0  0  0  0  0  0  0  0
    3.2781    3.5432   -1.0760 C   0  0  0  0  0  0  0  0  0  0  0  0
    1.4618    3.8052    1.0199 C   0  0  0  0  0  0  0  0  0  0  0  0
    3.5833    4.3532    0.0177 C   0  0  0  0  0  0  0  0  0  0  0  0
    2.6609    4.5144    1.0466 C   0  0  0  0  0  0  0  0  0  0  0  0
   -1.1654   -0.0500    0.0438 C   0  0  0  0  0  0  0  0  0  0  0  0
    1.2326   -0.1803    0.2424 C   0  0  0  0  0  0  0  0  0  0  0  0
    1.7542    2.3895   -3.5772 C   0  0  0  0  0  0  0  0  0  0  0  0
   -1.2256   -1.4488   -0.0067 C   0  0  0  0  0  0  0  0  0  0  0  0
    1.1679   -1.5642    0.0819 C   0  0  0  0  0  0  0  0  0  0  0  0
   -0.0565   -2.2018   -0.0142 C   0  0  0  0  0  0  0  0  0  0  0  0
    3.2834    1.2706   -4.1266 H   0  0  0  0  0  0  0  0  0  0  0  0
   -0.8172    2.5131    0.0696 H   0  0  0  0  0  0  0  0  0  0  0  0
    2.7288    1.0699   -2.1875 H   0  0  0  0  0  0  0  0  0  0  0  0
    0.9948    1.1814   -2.0998 H   0  0  0  0  0  0  0  0  0  0  0  0
    4.0036    3.4534   -1.8808 H   0  0  0  0  0  0  0  0  0  0  0  0
    0.7859    3.8747    1.8697 H   0  0  0  0  0  0  0  0  0  0  0  0
    4.5525    4.8410    0.0773 H   0  0  0  0  0  0  0  0  0  0  0  0
    2.8904    5.1625    1.8879 H   0  0  0  0  0  0  0  0  0  0  0  0
   -2.1836   -1.9608   -0.0412 H   0  0  0  0  0  0  0  0  0  0  0  0
    2.0866   -2.1458    0.0736 H   0  0  0  0  0  0  0  0  0  0  0  0
   -0.0881   -3.2858   -0.0567 H   0  0  0  0  0  0  0  0  0  0  0  0
  1 14  1  0  0  0  0
  2 15  1  0  0  0  0
  3 16  1  0  0  0  0
  3 20  1  0  0  0  0
  4 16  2  0  0  0  0
  5  7  1  0  0  0  0
  5  9  1  0  0  0  0
  5 21  1  0  0  0  0
  6  7  1  0  0  0  0
  6  8  1  0  0  0  0
  6 10  2  0  0  0  0
  7 11  2  0  0  0  0
  8 16  1  0  0  0  0
  8 22  1  0  0  0  0
  8 23  1  0  0  0  0
  9 14  2  0  0  0  0
  9 15  1  0  0  0  0
 10 12  1  0  0  0  0
 10 24  1  0  0  0  0
 11 13  1  0  0  0  0
 11 25  1  0  0  0  0
 12 13  2  0  0  0  0
 12 26  1  0  0  0  0
 13 27  1  0  0  0  0
 14 17  1  0  0  0  0
 15 18  2  0  0  0  0
 17 19  2  0  0  0  0
 17 28  1  0  0  0  0
 18 19  1  0  0  0  0
 18 29  1  0  0  0  0
 19 30  1  0  0  0  0
M  END
>  <DRUGBANK_ID>
DB00586

>  <SECONDARY_ACCESSION_NUMBERS>
APRD00527

>  <COMMON_NAME>
Diclofenac

>  <CAS_NUMBER>
15307-86-5

>  <UNII>
144O8QL0L1

>  <SYNONYMS>
[2-(2,6-dichloroanilino)phenyl]acetic acid; 2-((2,6-dichlorophenyl)amino)benzeneacetic acid; Diclofenac; Diclofenac acid; Diclofenaco; Diclofenacum

$$$$
