
 OpenBabel10282417173D

 58 62  0  0  0  0  0  0  0  0999 V2000
    2.8213    0.7847    0.1037 C   0  0  0  0  0  0  0  0  0  0  0  0
    3.0625   -0.5613   -0.0322 C   0  0  0  0  0  0  0  0  0  0  0  0
    1.9675   -1.4745   -0.0244 C   0  0  0  0  0  0  0  0  0  0  0  0
    1.5116    1.0863    0.3988 C   0  0  0  0  0  0  0  0  0  0  0  0
    0.3898    0.2916    0.1999 C   0  0  0  0  0  0  0  0  0  0  0  0
    0.6224   -1.0463    0.0242 C   0  0  0  0  0  0  0  0  0  0  0  0
   -1.8023   -1.4209   -0.0363 C   0  0  0  0  0  0  0  0  0  0  0  0
   -2.0495    0.0377    0.0170 C   0  0  0  0  0  0  0  0  0  0  0  0
   -0.9259    0.8020    0.1818 N   0  0  0  0  0  0  0  0  0  0  0  0
   -3.1631    0.5135   -0.0388 O   0  0  0  0  0  0  0  0  0  0  0  0
    3.8076    1.7287   -0.0308 O   0  0  0  0  0  0  0  0  0  0  0  0
    3.5101    3.1620   -0.0579 C   0  0  0  0  0  0  0  0  0  0  0  0
    2.7844    3.7175   -1.3154 C   0  0  0  0  0  0  0  0  0  0  0  0
    1.3288    3.2783   -1.4816 C   0  0  0  0  0  0  0  0  0  0  0  0
    0.4592    3.6979   -0.2922 C   0  0  0  0  0  0  0  0  0  0  0  0
    0.4119    5.0581    0.0617 N   0  0  0  0  0  0  0  0  0  0  0  0
   -0.1533    5.9389   -0.9366 C   0  0  0  0  0  0  0  0  0  0  0  0
    0.3049    7.3286   -0.5024 C   0  0  0  0  0  0  0  0  0  0  0  0
   -0.1004    7.5763    0.8838 N   0  0  0  0  0  0  0  0  0  0  0  0
    0.2933    6.5847    1.8832 C   0  0  0  0  0  0  0  0  0  0  0  0
   -0.2005    5.2357    1.4010 C   0  0  0  0  0  0  0  0  0  0  0  0
   -0.8488    8.6544    1.2577 C   0  0  0  0  0  0  0  0  0  0  0  0
   -0.3490    9.5444    2.2435 C   0  0  0  0  0  0  0  0  0  0  0  0
   -1.1152   10.6475    2.6101 C   0  0  0  0  0  0  0  0  0  0  0  0
   -2.3808   10.8826    2.0422 C   0  0  0  0  0  0  0  0  0  0  0  0
   -2.8672    9.9915    1.0848 C   0  0  0  0  0  0  0  0  0  0  0  0
   -2.1068    8.8999    0.6900 C   0  0  0  0  0  0  0  0  0  0  0  0
   -0.5547   -1.9192   -0.0217 C   0  0  0  0  0  0  0  0  0  0  0  0
    0.9063    9.5217    2.9481 C   0  0  0  0  0  0  0  0  0  0  0  0
    1.0581   10.5745    3.8110 C   0  0  0  0  0  0  0  0  0  0  0  0
   -0.2976   11.6062    3.7878 S   0  0  0  0  0  0  0  0  0  0  0  0
    4.0867   -0.9140   -0.1095 H   0  0  0  0  0  0  0  0  0  0  0  0
    2.1828   -2.5350   -0.0751 H   0  0  0  0  0  0  0  0  0  0  0  0
    1.4154    2.0076    0.8723 H   0  0  0  0  0  0  0  0  0  0  0  0
   -2.6947   -2.0315   -0.0609 H   0  0  0  0  0  0  0  0  0  0  0  0
   -1.1613    1.7770    0.2278 H   0  0  0  0  0  0  0  0  0  0  0  0
    3.0392    3.4860    0.8790 H   0  0  0  0  0  0  0  0  0  0  0  0
    4.4861    3.6718   -0.0379 H   0  0  0  0  0  0  0  0  0  0  0  0
    2.7893    4.8168   -1.2859 H   0  0  0  0  0  0  0  0  0  0  0  0
    3.3411    3.4269   -2.2120 H   0  0  0  0  0  0  0  0  0  0  0  0
    0.8761    3.6509   -2.4028 H   0  0  0  0  0  0  0  0  0  0  0  0
    1.3370    2.1992   -1.6531 H   0  0  0  0  0  0  0  0  0  0  0  0
   -0.5341    3.2805   -0.3384 H   0  0  0  0  0  0  0  0  0  0  0  0
    0.9224    3.4413    0.6365 H   0  0  0  0  0  0  0  0  0  0  0  0
    0.2553    5.7158   -1.9277 H   0  0  0  0  0  0  0  0  0  0  0  0
   -1.2431    5.8354   -0.9897 H   0  0  0  0  0  0  0  0  0  0  0  0
    1.4057    7.3408   -0.5299 H   0  0  0  0  0  0  0  0  0  0  0  0
   -0.0450    8.0829   -1.2078 H   0  0  0  0  0  0  0  0  0  0  0  0
    1.3907    6.5479    1.9511 H   0  0  0  0  0  0  0  0  0  0  0  0
   -0.0930    6.7720    2.8911 H   0  0  0  0  0  0  0  0  0  0  0  0
   -1.2953    5.1630    1.3583 H   0  0  0  0  0  0  0  0  0  0  0  0
    0.1334    4.4823    2.1323 H   0  0  0  0  0  0  0  0  0  0  0  0
   -2.9683   11.7445    2.3408 H   0  0  0  0  0  0  0  0  0  0  0  0
   -3.8483   10.1520    0.6458 H   0  0  0  0  0  0  0  0  0  0  0  0
   -2.5103    8.2072   -0.0455 H   0  0  0  0  0  0  0  0  0  0  0  0
   -0.3871   -2.9846   -0.0152 H   0  0  0  0  0  0  0  0  0  0  0  0
    1.6613    8.7588    2.8048 H   0  0  0  0  0  0  0  0  0  0  0  0
    1.9105   10.7786    4.4421 H   0  0  0  0  0  0  0  0  0  0  0  0
  1 11  1  0  0  0  0
  1  2  2  0  0  0  0
  2  3  1  0  0  0  0
  2 32  1  0  0  0  0
  3  6  2  0  0  0  0
  3 33  1  0  0  0  0
  4  1  1  0  0  0  0
  4 34  1  0  0  0  0
  5  4  2  0  0  0  0
  5  6  1  0  0  0  0
  6 28  1  0  0  0  0
  7  8  1  0  0  0  0
  7 35  1  0  0  0  0
  8  9  1  0  0  0  0
  8 10  2  0  0  0  0
  9  5  1  0  0  0  0
  9 36  1  0  0  0  0
 11 12  1  0  0  0  0
 12 13  1  0  0  0  0
 12 37  1  0  0  0  0
 12 38  1  0  0  0  0
 13 14  1  0  0  0  0
 13 39  1  0  0  0  0
 13 40  1  0  0  0  0
 14 15  1  0  0  0  0
 14 41  1  0  0  0  0
 14 42  1  0  0  0  0
 15 16  1  0  0  0  0
 15 43  1  0  0  0  0
 15 44  1  0  0  0  0
 16 17  1  0  0  0  0
 17 18  1  0  0  0  0
 17 45  1  0  0  0  0
 17 46  1  0  0  0  0
 18 19  1  0  0  0  0
 18 47  1  0  0  0  0
 18 48  1  0  0  0  0
 19 20  1  0  0  0  0
 19 22  1  0  0  0  0
 20 21  1  0  0  0  0
 20 49  1  0  0  0  0
 20 50  1  0  0  0  0
 21 16  1  0  0  0  0
 21 51  1  0  0  0  0
 21 52  1  0  0  0  0
 22 23  2  0  0  0  0
 23 24  1  0  0  0  0
 23 29  1  0  0  0  0
 24 25  2  0  0  0  0
 24 31  1  0  0  0  0
 25 26  1  0  0  0  0
 25 53  1  0  0  0  0
 26 27  2  0  0  0  0
 26 54  1  0  0  0  0
 27 22  1  0  0  0  0
 27 55  1  0  0  0  0
 28  7  2  0  0  0  0
 28 56  1  0  0  0  0
 29 30  2  0  0  0  0
 29 57  1  0  0  0  0
 30 31  1  0  0  0  0
 30 58  1  0  0  0  0
M  END
>  <DRUGBANK_ID>
DB09128

>  <COMMON_NAME>
Brexpiprazole

>  <CAS_NUMBER>
913611-97-9

>  <UNII>
2J3YBM1K8C

>  <SYNONYMS>
Brexpiprazole; Lu-AF41156

$$$$
