
 OpenBabel10282417143D

 60 63  0  0  0  0  0  0  0  0999 V2000
    0.8899    0.0518    0.1966 O   0  0  0  0  0  0  0  0  0  0  0  0
    7.4085    1.8079   -2.0454 N   0  0  0  0  0  0  0  0  0  0  0  0
    5.7401    2.6328    2.4343 N   0  0  0  0  0  0  0  0  0  0  0  0
    5.0229    1.0604   -0.7187 C   0  0  0  0  0  0  0  0  0  0  0  0
    5.4625    2.5255   -0.7341 C   0  0  0  0  0  0  0  0  0  0  0  0
    6.1836    0.1039   -0.7916 C   0  0  0  0  0  0  0  0  0  0  0  0
    6.2853    2.7434   -1.9487 C   0  0  0  0  0  0  0  0  0  0  0  0
    6.9917    0.3940   -2.0128 C   0  0  0  0  0  0  0  0  0  0  0  0
    3.8365    0.8257   -1.6582 C   0  0  0  0  0  0  0  0  0  0  0  0
    2.9231   -0.2368   -1.0644 C   0  0  0  0  0  0  0  0  0  0  0  0
    8.1713    2.0666   -3.2777 C   0  0  0  0  0  0  0  0  0  0  0  0
    2.0978    0.1930    0.2000 C   0  0  0  0  0  0  0  0  0  0  0  0
    7.3683    1.8321   -4.5483 C   0  0  0  0  0  0  0  0  0  0  0  0
    2.7580    0.6494    1.5090 C   0  0  0  0  0  0  0  0  0  0  0  0
    4.3902    1.1692    3.7689 C   0  0  0  0  0  0  0  0  0  0  0  0
    5.2878    1.5109    4.9426 C   0  0  0  0  0  0  0  0  0  0  0  0
    4.5634    1.9070    2.6087 C   0  0  0  0  0  0  0  0  0  0  0  0
    6.7308    1.0079    4.7753 C   0  0  0  0  0  0  0  0  0  0  0  0
    7.5882    1.8974    3.8647 C   0  0  0  0  0  0  0  0  0  0  0  0
    3.5782    1.7865    1.6088 C   0  0  0  0  0  0  0  0  0  0  0  0
    7.0370    1.9345    2.4504 C   0  0  0  0  0  0  0  0  0  0  0  0
    2.5797   -0.0823    2.6744 C   0  0  0  0  0  0  0  0  0  0  0  0
    6.2283    2.5993   -4.8526 C   0  0  0  0  0  0  0  0  0  0  0  0
    7.6503    0.7286   -5.3510 C   0  0  0  0  0  0  0  0  0  0  0  0
    3.3353    0.2397    3.8246 C   0  0  0  0  0  0  0  0  0  0  0  0
    5.2496    2.1138   -5.7091 C   0  0  0  0  0  0  0  0  0  0  0  0
    6.7754    0.3786   -6.3777 C   0  0  0  0  0  0  0  0  0  0  0  0
    5.5386    1.0132   -6.4975 C   0  0  0  0  0  0  0  0  0  0  0  0
    5.7119    3.5461    2.0040 H   0  0  0  0  0  0  0  0  0  0  0  0
    4.7136    0.7491    0.2468 H   0  0  0  0  0  0  0  0  0  0  0  0
    4.6096    3.2202   -0.7754 H   0  0  0  0  0  0  0  0  0  0  0  0
    6.0613    2.8077    0.1212 H   0  0  0  0  0  0  0  0  0  0  0  0
    6.8000    0.2338    0.1046 H   0  0  0  0  0  0  0  0  0  0  0  0
    5.8276   -0.9317   -0.7626 H   0  0  0  0  0  0  0  0  0  0  0  0
    5.5408    2.5840   -2.7205 H   0  0  0  0  0  0  0  0  0  0  0  0
    6.6190    3.7872   -1.9879 H   0  0  0  0  0  0  0  0  0  0  0  0
    7.8595   -0.2710   -1.9955 H   0  0  0  0  0  0  0  0  0  0  0  0
    6.3724    0.1246   -2.8722 H   0  0  0  0  0  0  0  0  0  0  0  0
    4.1798    0.5398   -2.6621 H   0  0  0  0  0  0  0  0  0  0  0  0
    3.2418    1.7394   -1.7959 H   0  0  0  0  0  0  0  0  0  0  0  0
    3.4774   -1.1634   -0.8741 H   0  0  0  0  0  0  0  0  0  0  0  0
    2.1993   -0.4965   -1.8543 H   0  0  0  0  0  0  0  0  0  0  0  0
    8.5689    3.0855   -3.2564 H   0  0  0  0  0  0  0  0  0  0  0  0
    9.0460    1.4036   -3.2462 H   0  0  0  0  0  0  0  0  0  0  0  0
    4.8520    1.1227    5.8664 H   0  0  0  0  0  0  0  0  0  0  0  0
    5.2993    2.6064    5.0662 H   0  0  0  0  0  0  0  0  0  0  0  0
    6.7281   -0.0175    4.3857 H   0  0  0  0  0  0  0  0  0  0  0  0
    7.2186    0.9805    5.7555 H   0  0  0  0  0  0  0  0  0  0  0  0
    7.6438    2.9178    4.2624 H   0  0  0  0  0  0  0  0  0  0  0  0
    8.6160    1.5097    3.8467 H   0  0  0  0  0  0  0  0  0  0  0  0
    3.5911    2.4693    0.7753 H   0  0  0  0  0  0  0  0  0  0  0  0
    7.7544    2.4594    1.8014 H   0  0  0  0  0  0  0  0  0  0  0  0
    6.9789    0.9100    2.0624 H   0  0  0  0  0  0  0  0  0  0  0  0
    1.8388   -0.8767    2.7046 H   0  0  0  0  0  0  0  0  0  0  0  0
    6.0168    3.5242   -4.3209 H   0  0  0  0  0  0  0  0  0  0  0  0
    8.5317    0.1224   -5.1590 H   0  0  0  0  0  0  0  0  0  0  0  0
    3.1044   -0.2579    4.7612 H   0  0  0  0  0  0  0  0  0  0  0  0
    4.2756    2.5953   -5.7505 H   0  0  0  0  0  0  0  0  0  0  0  0
    7.0434   -0.4177   -7.0627 H   0  0  0  0  0  0  0  0  0  0  0  0
    4.8066    0.6634   -7.2176 H   0  0  0  0  0  0  0  0  0  0  0  0
  1 12  2  0  0  0  0
  2  7  1  0  0  0  0
  2  8  1  0  0  0  0
  2 11  1  0  0  0  0
  3 17  1  0  0  0  0
  3 21  1  0  0  0  0
  3 29  1  0  0  0  0
  4  5  1  0  0  0  0
  4  6  1  0  0  0  0
  4  9  1  0  0  0  0
  4 30  1  0  0  0  0
  5  7  1  0  0  0  0
  5 31  1  0  0  0  0
  5 32  1  0  0  0  0
  6  8  1  0  0  0  0
  6 33  1  0  0  0  0
  6 34  1  0  0  0  0
  7 35  1  0  0  0  0
  7 36  1  0  0  0  0
  8 37  1  0  0  0  0
  8 38  1  0  0  0  0
  9 10  1  0  0  0  0
  9 39  1  0  0  0  0
  9 40  1  0  0  0  0
 10 12  1  0  0  0  0
 10 41  1  0  0  0  0
 10 42  1  0  0  0  0
 11 13  1  0  0  0  0
 11 43  1  0  0  0  0
 11 44  1  0  0  0  0
 12 14  1  0  0  0  0
 13 23  2  0  0  0  0
 13 24  1  0  0  0  0
 14 20  2  0  0  0  0
 14 22  1  0  0  0  0
 15 16  1  0  0  0  0
 15 17  2  0  0  0  0
 15 25  1  0  0  0  0
 16 18  1  0  0  0  0
 16 45  1  0  0  0  0
 16 46  1  0  0  0  0
 17 20  1  0  0  0  0
 18 19  1  0  0  0  0
 18 47  1  0  0  0  0
 18 48  1  0  0  0  0
 19 21  1  0  0  0  0
 19 49  1  0  0  0  0
 19 50  1  0  0  0  0
 20 51  1  0  0  0  0
 21 52  1  0  0  0  0
 21 53  1  0  0  0  0
 22 25  2  0  0  0  0
 22 54  1  0  0  0  0
 23 26  1  0  0  0  0
 23 55  1  0  0  0  0
 24 27  2  0  0  0  0
 24 56  1  0  0  0  0
 25 57  1  0  0  0  0
 26 28  2  0  0  0  0
 26 58  1  0  0  0  0
 27 28  1  0  0  0  0
 27 59  1  0  0  0  0
 28 60  1  0  0  0  0
M  END
>  <DRUGBANK_ID>
DB04859

>  <COMMON_NAME>
Zanapezil

>  <CAS_NUMBER>
142852-50-4

>  <UNII>
0A0800O89N

>  <SYNONYMS>
Zanapezil; Zanepezil

$$$$
