
 OpenBabel10282417163D

 35 36  0  0  0  0  0  0  0  0999 V2000
    1.1765   -0.1912   -0.4439 O   0  0  0  0  0  0  0  0  0  0  0  0
    3.1729    0.4689   -1.2110 N   0  0  0  0  0  0  0  0  0  0  0  0
    2.9142   -0.2333    1.0721 N   0  0  0  0  0  0  0  0  0  0  0  0
    2.2763   -0.7007    2.2286 N   0  0  0  0  0  0  0  0  0  0  0  0
    0.0096   -0.2366    1.5924 N   0  0  0  0  0  0  0  0  0  0  0  0
    0.4043   -1.1546    3.5275 N   0  0  0  0  0  0  0  0  0  0  0  0
    4.5842    0.3873   -1.2686 C   0  0  0  0  0  0  0  0  0  0  0  0
    2.4931    0.8648   -2.4333 C   0  0  0  0  0  0  0  0  0  0  0  0
    5.2746   -0.7068   -0.7352 C   0  0  0  0  0  0  0  0  0  0  0  0
    1.3767    1.7201   -2.3739 C   0  0  0  0  0  0  0  0  0  0  0  0
    5.3054    1.4163   -1.8927 C   0  0  0  0  0  0  0  0  0  0  0  0
    2.8598    0.3487   -3.6857 C   0  0  0  0  0  0  0  0  0  0  0  0
    2.3576   -0.0110   -0.1861 C   0  0  0  0  0  0  0  0  0  0  0  0
    6.6629   -0.7647   -0.8123 C   0  0  0  0  0  0  0  0  0  0  0  0
    0.6780    2.0882   -3.5254 C   0  0  0  0  0  0  0  0  0  0  0  0
    6.6864    1.3254   -2.0275 C   0  0  0  0  0  0  0  0  0  0  0  0
    2.1898    0.7579   -4.8462 C   0  0  0  0  0  0  0  0  0  0  0  0
    7.3656    0.2488   -1.4615 C   0  0  0  0  0  0  0  0  0  0  0  0
    1.0937    1.6164   -4.7648 C   0  0  0  0  0  0  0  0  0  0  0  0
    0.9880   -0.7082    2.3939 C   0  0  0  0  0  0  0  0  0  0  0  0
    3.9187   -0.1910    1.1914 H   0  0  0  0  0  0  0  0  0  0  0  0
   -0.9262   -0.6012    1.6033 H   0  0  0  0  0  0  0  0  0  0  0  0
    0.3177   -0.1541    0.6266 H   0  0  0  0  0  0  0  0  0  0  0  0
    0.9582   -1.3517    4.3472 H   0  0  0  0  0  0  0  0  0  0  0  0
   -0.5951   -1.0802    3.6243 H   0  0  0  0  0  0  0  0  0  0  0  0
    4.7433   -1.5453   -0.2907 H   0  0  0  0  0  0  0  0  0  0  0  0
    1.0239    2.0978   -1.4168 H   0  0  0  0  0  0  0  0  0  0  0  0
    4.7924    2.3045   -2.2596 H   0  0  0  0  0  0  0  0  0  0  0  0
    3.6243   -0.4203   -3.7677 H   0  0  0  0  0  0  0  0  0  0  0  0
    7.1889   -1.6156   -0.3877 H   0  0  0  0  0  0  0  0  0  0  0  0
   -0.1845    2.7449   -3.4465 H   0  0  0  0  0  0  0  0  0  0  0  0
    7.2259    2.0937   -2.5741 H   0  0  0  0  0  0  0  0  0  0  0  0
    2.5191    0.3995   -5.8179 H   0  0  0  0  0  0  0  0  0  0  0  0
    8.4479    0.1976   -1.5303 H   0  0  0  0  0  0  0  0  0  0  0  0
    0.5545    1.9054   -5.6633 H   0  0  0  0  0  0  0  0  0  0  0  0
  1 13  2  0  0  0  0
  2  7  1  0  0  0  0
  2  8  1  0  0  0  0
  2 13  1  0  0  0  0
  3  4  1  0  0  0  0
  3 13  1  0  0  0  0
  3 21  1  0  0  0  0
  4 20  2  0  0  0  0
  5 20  1  0  0  0  0
  5 22  1  0  0  0  0
  5 23  1  0  0  0  0
  6 20  1  0  0  0  0
  6 24  1  0  0  0  0
  6 25  1  0  0  0  0
  7  9  2  0  0  0  0
  7 11  1  0  0  0  0
  8 10  2  0  0  0  0
  8 12  1  0  0  0  0
  9 14  1  0  0  0  0
  9 26  1  0  0  0  0
 10 15  1  0  0  0  0
 10 27  1  0  0  0  0
 11 16  2  0  0  0  0
 11 28  1  0  0  0  0
 12 17  2  0  0  0  0
 12 29  1  0  0  0  0
 14 18  2  0  0  0  0
 14 30  1  0  0  0  0
 15 19  2  0  0  0  0
 15 31  1  0  0  0  0
 16 18  1  0  0  0  0
 16 32  1  0  0  0  0
 17 19  1  0  0  0  0
 17 33  1  0  0  0  0
 18 34  1  0  0  0  0
 19 35  1  0  0  0  0
M  END
>  <DRUGBANK_ID>
DB07120

>  <COMMON_NAME>
3-Carbamimidamido-1,1-diphenylurea

$$$$
