AL3
 OpenBabel10282417133D

 34 36  0  0  0  0  0  0  0  0999 V2000
    2.6008   -0.0630    0.0024 C   0  0  0  0  0  0  0  0  0  0  0  0
   -0.8831   -2.1865    1.2545 O   0  0  0  0  0  0  0  0  0  0  0  0
   -2.2511   -0.6920   -0.0891 C   0  0  0  0  0  0  0  0  0  0  0  0
   -0.8940   -1.4467    0.0253 C   0  0  1  0  0  0  0  0  0  0  0  0
   -2.9346    1.2301    1.3324 C   0  0  0  0  0  0  0  0  0  0  0  0
   -2.0918    0.8700    2.5273 C   0  0  0  0  0  0  0  0  0  0  0  0
   -0.8046    1.2308    2.9039 C   0  0  0  0  0  0  0  0  0  0  0  0
   -0.4101    0.6715    4.1463 C   0  0  0  0  0  0  0  0  0  0  0  0
   -1.4014   -0.1125    4.6765 C   0  0  0  0  0  0  0  0  0  0  0  0
    4.7153    0.5919   -1.2595 O   0  0  0  0  0  0  0  0  0  0  0  0
    4.7141    0.6069    1.2853 O   0  0  0  0  0  0  0  0  0  0  0  0
    4.8701   -1.5650   -0.0051 N   0  0  0  0  0  0  0  0  0  0  0  0
    4.3475    0.0277    0.0162 S   0  0  0  0  0  0  0  0  0  0  0  0
    1.6944   -1.1067    0.0021 C   0  0  0  0  0  0  0  0  0  0  0  0
    0.3510   -0.6240   -0.0437 C   0  0  0  0  0  0  0  0  0  0  0  0
    0.3444    0.7485   -0.1584 C   0  0  0  0  0  0  0  0  0  0  0  0
    1.8579    1.4635   -0.0540 S   0  0  0  0  0  0  0  0  0  0  0  0
   -1.0257    1.8025   -0.4142 S   0  0  0  0  0  0  0  0  0  0  0  0
   -1.0616    1.9854   -1.8362 O   0  0  0  0  0  0  0  0  0  0  0  0
   -0.8925    2.9224    0.5029 O   0  0  0  0  0  0  0  0  0  0  0  0
   -2.2903    0.8045    0.0884 N   0  0  0  0  0  0  0  0  0  0  0  0
   -2.7803   -0.1929    3.6840 S   0  0  0  0  0  0  0  0  0  0  0  0
   -0.8718   -2.2005   -0.7727 H   0  0  0  0  0  0  0  0  0  0  0  0
   -0.9140   -1.5346    1.9803 H   0  0  0  0  0  0  0  0  0  0  0  0
   -2.8898   -1.1274    0.6932 H   0  0  0  0  0  0  0  0  0  0  0  0
   -2.7538   -0.9543   -1.0246 H   0  0  0  0  0  0  0  0  0  0  0  0
   -3.1730    2.2975    1.2890 H   0  0  0  0  0  0  0  0  0  0  0  0
   -3.9127    0.7307    1.3628 H   0  0  0  0  0  0  0  0  0  0  0  0
   -0.1256    1.8833    2.3696 H   0  0  0  0  0  0  0  0  0  0  0  0
    0.5456    0.8669    4.6192 H   0  0  0  0  0  0  0  0  0  0  0  0
   -1.3970   -0.6434    5.6132 H   0  0  0  0  0  0  0  0  0  0  0  0
    4.5256   -2.0320   -0.8436 H   0  0  0  0  0  0  0  0  0  0  0  0
    5.8879   -1.5703    0.0425 H   0  0  0  0  0  0  0  0  0  0  0  0
    1.9743   -2.1560    0.0406 H   0  0  0  0  0  0  0  0  0  0  0  0
  1 13  1  0  0  0  0
  1 14  2  0  0  0  0
  1 17  1  0  0  0  0
  2 24  1  0  0  0  0
  3  4  1  0  0  0  0
  3 21  1  0  0  0  0
  3 25  1  0  0  0  0
  3 26  1  0  0  0  0
  4  2  1  0  0  0  0
  4 15  1  0  0  0  0
  4 23  1  6  0  0  0
  5  6  1  0  0  0  0
  5 21  1  0  0  0  0
  5 27  1  0  0  0  0
  5 28  1  0  0  0  0
  6  7  2  0  0  0  0
  6 22  1  0  0  0  0
  7  8  1  0  0  0  0
  7 29  1  0  0  0  0
  8  9  2  0  0  0  0
  8 30  1  0  0  0  0
  9 22  1  0  0  0  0
  9 31  1  0  0  0  0
 10 13  2  0  0  0  0
 11 13  2  0  0  0  0
 12 13  1  0  0  0  0
 12 32  1  0  0  0  0
 12 33  1  0  0  0  0
 14 15  1  0  0  0  0
 14 34  1  0  0  0  0
 15 16  2  0  0  0  0
 16 17  1  0  0  0  0
 16 18  1  0  0  0  0
 18 19  2  0  0  0  0
 18 20  2  0  0  0  0
 18 21  1  0  0  0  0
M  END
>  <DRUGBANK_ID>
DB04089

>  <SECONDARY_ACCESSION_NUMBERS>
EXPT00488

>  <COMMON_NAME>
AL5300

$$$$
