
 OpenBabel10282417233D

 41 43  0  0  0  0  0  0  0  0999 V2000
   -0.3872    0.2815    0.0185 C   0  0  0  0  0  0  0  0  0  0  0  0
   -1.8469    0.5216   -0.0131 C   0  0  0  0  0  0  0  0  0  0  0  0
    0.5688    1.3096    0.0055 C   0  0  0  0  0  0  0  0  0  0  0  0
    0.0437   -1.0437    0.0339 C   0  0  0  0  0  0  0  0  0  0  0  0
   -2.1473   -1.8850   -0.1000 C   0  0  0  0  0  0  0  0  0  0  0  0
   -2.7037   -0.6684   -0.1014 C   0  0  0  0  0  0  0  0  0  0  0  0
   -0.7986   -2.1278    0.0277 O   0  0  0  0  0  0  0  0  0  0  0  0
    1.9591    1.0301   -0.0158 C   0  0  0  0  0  0  0  0  0  0  0  0
    1.4003   -1.3354    0.0378 C   0  0  0  0  0  0  0  0  0  0  0  0
    2.3538   -0.3163    0.0010 C   0  0  0  0  0  0  0  0  0  0  0  0
   -3.0070   -3.0719   -0.1352 C   0  0  0  0  0  0  0  0  0  0  0  0
   -2.9937   -3.9581    0.9454 C   0  0  0  0  0  0  0  0  0  0  0  0
   -3.9106   -5.0133    1.0271 C   0  0  0  0  0  0  0  0  0  0  0  0
   -2.3809    1.6261    0.0154 O   0  0  0  0  0  0  0  0  0  0  0  0
   -4.8443   -5.2005   -0.0088 C   0  0  0  0  0  0  0  0  0  0  0  0
   -3.9246   -3.2690   -1.1690 C   0  0  0  0  0  0  0  0  0  0  0  0
   -4.8644   -4.2978   -1.0819 C   0  0  0  0  0  0  0  0  0  0  0  0
    0.1470    2.6176    0.0012 O   0  0  0  0  0  0  0  0  0  0  0  0
    2.7401    2.1607   -0.0568 O   0  0  0  0  0  0  0  0  0  0  0  0
    3.6150   -0.8359   -0.0201 O   0  0  0  0  0  0  0  0  0  0  0  0
   -3.9666   -5.8551    2.1021 O   0  0  0  0  0  0  0  0  0  0  0  0
   -5.7809   -6.2015   -0.1164 O   0  0  0  0  0  0  0  0  0  0  0  0
    4.1499    2.0178   -0.1113 C   0  0  0  0  0  0  0  0  0  0  0  0
   -3.0692   -5.6491    3.1770 C   0  0  0  0  0  0  0  0  0  0  0  0
   -5.7298   -7.2517    0.8450 C   0  0  0  0  0  0  0  0  0  0  0  0
   -3.7718   -0.5009   -0.1491 H   0  0  0  0  0  0  0  0  0  0  0  0
    1.7325   -2.3714    0.0504 H   0  0  0  0  0  0  0  0  0  0  0  0
   -2.2720   -3.7836    1.7365 H   0  0  0  0  0  0  0  0  0  0  0  0
   -3.9249   -2.6137   -2.0375 H   0  0  0  0  0  0  0  0  0  0  0  0
   -5.6283   -4.3854   -1.8518 H   0  0  0  0  0  0  0  0  0  0  0  0
    0.9330    3.1909   -0.0105 H   0  0  0  0  0  0  0  0  0  0  0  0
    4.3017   -0.1687   -0.0755 H   0  0  0  0  0  0  0  0  0  0  0  0
    4.5190    1.5279    0.7968 H   0  0  0  0  0  0  0  0  0  0  0  0
    4.4483    1.4923   -1.0259 H   0  0  0  0  0  0  0  0  0  0  0  0
    4.6205    3.0034   -0.1491 H   0  0  0  0  0  0  0  0  0  0  0  0
   -2.0362   -5.7860    2.8452 H   0  0  0  0  0  0  0  0  0  0  0  0
   -3.2237   -4.6666    3.6334 H   0  0  0  0  0  0  0  0  0  0  0  0
   -3.2850   -6.4086    3.9332 H   0  0  0  0  0  0  0  0  0  0  0  0
   -4.7442   -7.7329    0.8675 H   0  0  0  0  0  0  0  0  0  0  0  0
   -6.0317   -6.8814    1.8305 H   0  0  0  0  0  0  0  0  0  0  0  0
   -6.4516   -8.0231    0.5648 H   0  0  0  0  0  0  0  0  0  0  0  0
  2  1  1  0  0  0  0
  3  1  2  0  0  0  0
  4  1  1  0  0  0  0
  5  6  2  0  0  0  0
  5  7  1  0  0  0  0
  6  2  1  0  0  0  0
  6 26  1  0  0  0  0
  7  4  1  0  0  0  0
  8  3  1  0  0  0  0
  9  4  2  0  0  0  0
  9 27  1  0  0  0  0
 10  9  1  0  0  0  0
 10  8  2  0  0  0  0
 11  5  1  0  0  0  0
 12 11  1  0  0  0  0
 12 28  1  0  0  0  0
 13 12  2  0  0  0  0
 13 15  1  0  0  0  0
 14  2  2  0  0  0  0
 15 17  2  0  0  0  0
 16 11  2  0  0  0  0
 16 29  1  0  0  0  0
 17 16  1  0  0  0  0
 17 30  1  0  0  0  0
 18  3  1  0  0  0  0
 18 31  1  0  0  0  0
 19  8  1  0  0  0  0
 20 10  1  0  0  0  0
 20 32  1  0  0  0  0
 21 13  1  0  0  0  0
 22 15  1  0  0  0  0
 23 19  1  0  0  0  0
 23 33  1  0  0  0  0
 23 34  1  0  0  0  0
 23 35  1  0  0  0  0
 24 21  1  0  0  0  0
 24 36  1  0  0  0  0
 24 37  1  0  0  0  0
 24 38  1  0  0  0  0
 25 22  1  0  0  0  0
 25 39  1  0  0  0  0
 25 40  1  0  0  0  0
 25 41  1  0  0  0  0
M  END
>  <DRUGBANK_ID>
DB16885

>  <COMMON_NAME>
Eupatilin

>  <CAS_NUMBER>
22368-21-4

>  <UNII>
4D58O05490

$$$$
