
 OpenBabel10282417213D

 53 56  0  0  0  0  0  0  0  0999 V2000
    1.0247    0.1047    0.0327 C   0  0  0  0  0  0  0  0  0  0  0  0
    0.4586    1.2775    0.6167 O   0  0  0  0  0  0  0  0  0  0  0  0
    0.8994    1.6125    1.8688 C   0  0  0  0  0  0  0  0  0  0  0  0
    2.2075    1.4712    2.3109 C   0  0  0  0  0  0  0  0  0  0  0  0
    2.5694    1.9131    3.5994 C   0  0  0  0  0  0  0  0  0  0  0  0
    1.6302    2.4801    4.4874 C   0  0  0  0  0  0  0  0  0  0  0  0
    0.3695    2.7624    3.9640 C   0  0  0  0  0  0  0  0  0  0  0  0
   -0.0152    2.2584    2.7053 C   0  0  0  0  0  0  0  0  0  0  0  0
    2.0536    2.9534    5.8276 C   0  0  0  0  0  0  0  0  0  0  0  0
    2.7298    4.1354    6.0522 C   0  0  0  0  0  0  0  0  0  0  0  0
    2.8331    5.1076    5.0214 C   0  0  0  0  0  0  0  0  0  0  0  0
    2.8403    5.8217    4.1250 N   0  0  0  0  0  0  0  0  0  0  0  0
    3.2120    4.1563    7.3705 C   0  0  0  0  0  0  0  0  0  0  0  0
    2.4506    3.2565    8.0704 N   0  0  0  0  0  0  0  0  0  0  0  0
    1.6378    2.6087    7.1254 N   0  0  0  0  0  0  0  0  0  0  0  0
    0.6525    1.6171    7.5209 C   0  0  0  0  0  0  0  0  0  0  0  0
    0.7406    0.3049    7.0212 C   0  0  0  0  0  0  0  0  0  0  0  0
   -0.1654   -0.7024    7.4278 C   0  0  0  0  0  0  0  0  0  0  0  0
   -1.1907   -0.4138    8.3221 C   0  0  0  0  0  0  0  0  0  0  0  0
   -2.3608   -1.6191    8.7198 Cl  0  0  0  0  0  0  0  0  0  0  0  0
   -1.2945    0.8703    8.8440 C   0  0  0  0  0  0  0  0  0  0  0  0
   -0.4065    1.8917    8.4140 C   0  0  0  0  0  0  0  0  0  0  0  0
   -0.8535    3.5063    8.8444 Cl  0  0  0  0  0  0  0  0  0  0  0  0
    4.3094    5.0579    7.9440 C   0  0  0  0  0  0  0  0  0  0  0  0
    4.4981    5.1838    9.1600 O   0  0  0  0  0  0  0  0  0  0  0  0
    5.2056    5.7804    7.0907 N   0  0  0  0  0  0  0  0  0  0  0  0
    5.2767    5.6893    5.6759 N   0  0  0  0  0  0  0  0  0  0  0  0
    5.8336    6.8510    4.9548 C   0  0  0  0  0  0  0  0  0  0  0  0
    5.5997    6.7750    3.4279 C   0  0  0  0  0  0  0  0  0  0  0  0
    5.9934    5.4122    2.8456 C   0  0  0  0  0  0  0  0  0  0  0  0
    5.4873    4.2237    3.6526 C   0  0  0  0  0  0  0  0  0  0  0  0
    5.7763    4.4081    5.1576 C   0  0  0  0  0  0  0  0  0  0  0  0
    0.6534    0.0210   -0.9955 H   0  0  0  0  0  0  0  0  0  0  0  0
    0.6895   -0.7786    0.5837 H   0  0  0  0  0  0  0  0  0  0  0  0
    2.1167    0.1284   -0.0322 H   0  0  0  0  0  0  0  0  0  0  0  0
    2.9704    1.0387    1.6713 H   0  0  0  0  0  0  0  0  0  0  0  0
    3.6239    1.8503    3.8636 H   0  0  0  0  0  0  0  0  0  0  0  0
   -0.3139    3.4237    4.4922 H   0  0  0  0  0  0  0  0  0  0  0  0
   -1.0486    2.3666    2.3838 H   0  0  0  0  0  0  0  0  0  0  0  0
    1.5339    0.0226    6.3362 H   0  0  0  0  0  0  0  0  0  0  0  0
   -0.0563   -1.7202    7.0552 H   0  0  0  0  0  0  0  0  0  0  0  0
   -2.0818    1.0753    9.5704 H   0  0  0  0  0  0  0  0  0  0  0  0
    5.8312    6.4304    7.5729 H   0  0  0  0  0  0  0  0  0  0  0  0
    6.9136    6.9110    5.1265 H   0  0  0  0  0  0  0  0  0  0  0  0
    5.3925    7.7900    5.3184 H   0  0  0  0  0  0  0  0  0  0  0  0
    6.1771    7.5601    2.9241 H   0  0  0  0  0  0  0  0  0  0  0  0
    4.5659    7.0268    3.1638 H   0  0  0  0  0  0  0  0  0  0  0  0
    5.6405    5.3344    1.8096 H   0  0  0  0  0  0  0  0  0  0  0  0
    7.0834    5.3488    2.8308 H   0  0  0  0  0  0  0  0  0  0  0  0
    4.4305    4.0744    3.4090 H   0  0  0  0  0  0  0  0  0  0  0  0
    5.9359    3.2829    3.3122 H   0  0  0  0  0  0  0  0  0  0  0  0
    5.2973    3.5797    5.6893 H   0  0  0  0  0  0  0  0  0  0  0  0
    6.8466    4.3154    5.3530 H   0  0  0  0  0  0  0  0  0  0  0  0
  1  2  1  0  0  0  0
  1 33  1  0  0  0  0
  1 34  1  0  0  0  0
  1 35  1  0  0  0  0
  2  3  1  0  0  0  0
  3  4  2  0  0  0  0
  3  8  1  0  0  0  0
  4  5  1  0  0  0  0
  4 36  1  0  0  0  0
  5  6  2  0  0  0  0
  5 37  1  0  0  0  0
  6  7  1  0  0  0  0
  6  9  1  0  0  0  0
  7  8  2  0  0  0  0
  7 38  1  0  0  0  0
  8 39  1  0  0  0  0
  9 10  2  0  0  0  0
  9 15  1  0  0  0  0
 10 11  1  0  0  0  0
 10 13  1  0  0  0  0
 11 12  3  0  0  0  0
 13 14  2  0  0  0  0
 13 24  1  0  0  0  0
 14 15  1  0  0  0  0
 15 16  1  0  0  0  0
 16 17  2  0  0  0  0
 16 22  1  0  0  0  0
 17 18  1  0  0  0  0
 17 40  1  0  0  0  0
 18 19  2  0  0  0  0
 18 41  1  0  0  0  0
 19 20  1  0  0  0  0
 19 21  1  0  0  0  0
 21 22  2  0  0  0  0
 21 42  1  0  0  0  0
 22 23  1  0  0  0  0
 24 25  2  0  0  0  0
 24 26  1  0  0  0  0
 26 27  1  0  0  0  0
 26 43  1  0  0  0  0
 27 28  1  0  0  0  0
 27 32  1  0  0  0  0
 28 29  1  0  0  0  0
 28 44  1  0  0  0  0
 28 45  1  0  0  0  0
 29 30  1  0  0  0  0
 29 46  1  0  0  0  0
 29 47  1  0  0  0  0
 30 31  1  0  0  0  0
 30 48  1  0  0  0  0
 30 49  1  0  0  0  0
 31 32  1  0  0  0  0
 31 50  1  0  0  0  0
 31 51  1  0  0  0  0
 32 52  1  0  0  0  0
 32 53  1  0  0  0  0
M  ISO  1   1  11
M  END
>  <DRUGBANK_ID>
DB14902

>  <COMMON_NAME>
JHU-75528 C-11

>  <CAS_NUMBER>
942063-86-7

>  <UNII>
8YHH21923L

>  <SYNONYMS>
11C-OMAR

$$$$
