
 OpenBabel10282417193D

 44 47  0  0  0  0  0  0  0  0999 V2000
   -1.0871   -0.6761   -0.6618 N   0  0  0  0  0  0  0  0  0  0  0  0
   -1.4417    0.5904   -0.2600 C   0  0  0  0  0  0  0  0  0  0  0  0
   -0.3382    1.3735   -0.0698 C   0  0  0  0  0  0  0  0  0  0  0  0
    0.7828    0.5269   -0.1367 C   0  0  0  0  0  0  0  0  0  0  0  0
    0.2971   -0.7654   -0.3571 C   0  0  0  0  0  0  0  0  0  0  0  0
   -2.1606   -1.6685   -0.8822 C   0  0  0  0  0  0  0  0  0  0  0  0
   -3.5522   -1.2891   -1.3288 C   0  0  0  0  0  0  0  0  0  0  0  0
   -3.0067   -2.1753    1.0992 C   0  0  0  0  0  0  0  0  0  0  0  0
   -2.1549   -2.6184    0.0992 C   0  0  0  0  0  0  0  0  0  0  0  0
   -5.2575   -3.1426    1.0914 N   0  0  0  0  0  0  0  0  0  0  0  0
   -4.2579   -2.4063    0.5775 C   0  0  0  0  0  0  0  0  0  0  0  0
   -4.6808   -1.9250   -0.6404 C   0  0  0  0  0  0  0  0  0  0  0  0
   -6.1056   -2.1685   -0.6920 N   0  0  0  0  0  0  0  0  0  0  0  0
   -6.3763   -2.9972    0.3419 C   0  0  0  0  0  0  0  0  0  0  0  0
   -7.8250   -3.8183    0.9605 S   0  0  3  0  0  0  0  0  0  0  0  0
   -8.4439   -4.6908   -0.0910 O   0  0  0  0  0  0  0  0  0  0  0  0
   -7.1144   -4.9588    2.2938 C   0  0  0  0  0  0  0  0  0  0  0  0
   -6.1767   -6.0527    1.7741 C   0  0  0  0  0  0  0  0  0  0  0  0
   -5.0135   -5.6008    1.2400 N   0  0  0  0  0  0  0  0  0  0  0  0
   -4.1891   -6.4678    0.6308 C   0  0  0  0  0  0  0  0  0  0  0  0
   -4.4151   -7.8199    0.6283 C   0  0  0  0  0  0  0  0  0  0  0  0
   -5.5516   -8.3216    1.2802 C   0  0  0  0  0  0  0  0  0  0  0  0
   -6.4679   -7.4277    1.8764 C   0  0  0  0  0  0  0  0  0  0  0  0
   -7.7189   -7.7717    2.6314 C   0  0  0  0  0  0  0  0  0  0  0  0
   -5.5851   -9.6908    1.2105 O   0  0  0  0  0  0  0  0  0  0  0  0
   -6.6702  -10.3710    1.8053 C   0  0  0  0  0  0  0  0  0  0  0  0
   -2.4821    0.8010   -0.0979 H   0  0  0  0  0  0  0  0  0  0  0  0
   -0.3819    2.4259    0.1647 H   0  0  0  0  0  0  0  0  0  0  0  0
    1.8106    0.8480    0.0349 H   0  0  0  0  0  0  0  0  0  0  0  0
    0.8810   -1.6858   -0.3439 H   0  0  0  0  0  0  0  0  0  0  0  0
   -3.7321   -0.4737   -2.0279 H   0  0  0  0  0  0  0  0  0  0  0  0
   -2.8977   -1.0862    1.3080 H   0  0  0  0  0  0  0  0  0  0  0  0
   -2.3452   -3.6625   -0.2097 H   0  0  0  0  0  0  0  0  0  0  0  0
   -5.0732   -3.8688    1.7336 H   0  0  0  0  0  0  0  0  0  0  0  0
   -6.6078   -4.3669    3.0693 H   0  0  0  0  0  0  0  0  0  0  0  0
   -7.9826   -5.3805    2.8054 H   0  0  0  0  0  0  0  0  0  0  0  0
   -3.3348   -6.0285    0.1217 H   0  0  0  0  0  0  0  0  0  0  0  0
   -3.7108   -8.4768    0.1260 H   0  0  0  0  0  0  0  0  0  0  0  0
   -7.6144   -7.4227    3.6648 H   0  0  0  0  0  0  0  0  0  0  0  0
   -8.5755   -7.3034    2.1389 H   0  0  0  0  0  0  0  0  0  0  0  0
   -8.0116   -8.8047    2.7303 H   0  0  0  0  0  0  0  0  0  0  0  0
   -6.6628  -10.2048    2.8885 H   0  0  0  0  0  0  0  0  0  0  0  0
   -7.6073  -10.0855    1.3143 H   0  0  0  0  0  0  0  0  0  0  0  0
   -6.5652  -11.4471    1.6617 H   0  0  0  0  0  0  0  0  0  0  0  0
  1  2  1  0  0  0  0
  1  6  1  0  0  0  0
  2  3  2  0  0  0  0
  2 27  1  0  0  0  0
  3  4  1  0  0  0  0
  3 28  1  0  0  0  0
  4  5  2  0  0  0  0
  4 29  1  0  0  0  0
  5  1  1  0  0  0  0
  5 30  1  0  0  0  0
  6  7  2  0  0  0  0
  7 12  1  0  0  0  0
  7 31  1  0  0  0  0
  8  9  2  0  0  0  0
  8 32  1  0  0  0  0
  9  6  1  0  0  0  0
  9 33  1  0  0  0  0
 10 11  1  0  0  0  0
 10 34  1  0  0  0  0
 11  8  1  0  0  0  0
 11 12  2  0  0  0  0
 12 13  1  0  0  0  0
 13 14  2  0  0  0  0
 14 10  1  0  0  0  0
 14 15  1  0  0  0  0
 15 16  2  0  0  0  0
 15 17  1  0  0  0  0
 17 18  1  0  0  0  0
 17 35  1  0  0  0  0
 17 36  1  0  0  0  0
 18 19  2  0  0  0  0
 19 20  1  0  0  0  0
 20 21  2  0  0  0  0
 20 37  1  0  0  0  0
 21 22  1  0  0  0  0
 21 38  1  0  0  0  0
 22 23  2  0  0  0  0
 22 25  1  0  0  0  0
 23 18  1  0  0  0  0
 23 24  1  0  0  0  0
 24 39  1  0  0  0  0
 24 40  1  0  0  0  0
 24 41  1  0  0  0  0
 25 26  1  0  0  0  0
 26 42  1  0  0  0  0
 26 43  1  0  0  0  0
 26 44  1  0  0  0  0
M  END
>  <DRUGBANK_ID>
DB11964

>  <COMMON_NAME>
Ilaprazole

>  <CAS_NUMBER>
172152-36-2

>  <UNII>
776Q6XX45J

>  <SYNONYMS>
Ilaprazole; Ilaprazolum

$$$$
