
 OpenBabel10282417133D

 47 47  0  0  0  0  0  0  0  0999 V2000
    0.9266    0.0248   -0.0636 C   0  0  0  0  0  0  0  0  0  0  0  0
    0.2020   -0.9552   -0.1606 O   0  0  0  0  0  0  0  0  0  0  0  0
    0.4177    1.2626    0.0599 O   0  0  0  0  0  0  0  0  0  0  0  0
    2.4175    0.0169   -0.0628 C   0  0  0  0  0  0  0  0  0  0  0  0
    3.0646   -1.1567   -0.1587 C   0  0  0  0  0  0  0  0  0  0  0  0
    4.5611   -1.2830   -0.1293 C   0  0  1  0  0  0  0  0  0  0  0  0
    5.2476    0.0318    0.3215 C   0  0  1  0  0  0  0  0  0  0  0  0
    6.6929    0.0467    0.0298 N   0  0  0  0  0  0  0  0  0  0  0  0
    7.7288    0.1657    0.9181 C   0  0  0  0  0  0  0  0  0  0  0  0
    8.8869    0.1939    0.5109 O   0  0  0  0  0  0  0  0  0  0  0  0
    7.4086    0.3047    2.3787 C   0  0  0  0  0  0  0  0  0  0  0  0
    4.4560    1.1891   -0.3198 C   0  0  1  0  0  0  0  0  0  0  0  0
    3.0698    1.2209    0.0392 O   0  0  0  0  0  0  0  0  0  0  0  0
    4.9360    2.5899    0.0260 C   0  0  0  0  0  0  0  0  0  0  0  0
    5.0701    3.3932   -0.9034 O   0  0  0  0  0  0  0  0  0  0  0  0
    5.2046    2.9234    1.3556 N   0  0  0  0  0  0  0  0  0  0  0  0
    4.5441    2.2848    2.4923 C   0  0  0  0  0  0  0  0  0  0  0  0
    5.8980    4.1871    1.6439 C   0  0  0  0  0  0  0  0  0  0  0  0
    7.3891    4.1892    1.2624 C   0  0  0  0  0  0  0  0  0  0  0  0
    7.6463    4.0279   -0.2263 C   0  0  0  0  0  0  0  0  0  0  0  0
    4.9029   -2.3820    0.7621 N   0  0  0  0  0  0  0  0  0  0  0  0
    5.0890   -3.6773    0.4318 C   0  0  0  0  0  0  0  0  0  0  0  0
    5.4344   -4.5912    1.2671 N   0  0  0  0  0  0  0  0  0  0  0  0
    4.9208   -4.0261   -0.8476 N   0  0  0  0  0  0  0  0  0  0  0  0
   -0.5544    1.1411    0.0372 H   0  0  0  0  0  0  0  0  0  0  0  0
    2.4900   -2.0734   -0.2665 H   0  0  0  0  0  0  0  0  0  0  0  0
    4.9116   -1.4980   -1.1443 H   0  0  0  0  0  0  0  0  0  0  0  0
    5.1518    0.0571    1.4024 H   0  0  0  0  0  0  0  0  0  0  0  0
    7.0120   -0.0284   -0.9323 H   0  0  0  0  0  0  0  0  0  0  0  0
    6.9070    1.2531    2.5181 H   0  0  0  0  0  0  0  0  0  0  0  0
    6.7897   -0.5219    2.7358 H   0  0  0  0  0  0  0  0  0  0  0  0
    8.3187    0.3512    2.9799 H   0  0  0  0  0  0  0  0  0  0  0  0
    4.5231    1.0980   -1.4158 H   0  0  0  0  0  0  0  0  0  0  0  0
    5.2840    2.0473    3.2590 H   0  0  0  0  0  0  0  0  0  0  0  0
    3.8085    2.9626    2.9236 H   0  0  0  0  0  0  0  0  0  0  0  0
    4.0161    1.3738    2.2276 H   0  0  0  0  0  0  0  0  0  0  0  0
    5.3675    5.0095    1.1510 H   0  0  0  0  0  0  0  0  0  0  0  0
    5.8363    4.3667    2.7256 H   0  0  0  0  0  0  0  0  0  0  0  0
    7.8332    5.1388    1.5856 H   0  0  0  0  0  0  0  0  0  0  0  0
    7.9136    3.3924    1.8006 H   0  0  0  0  0  0  0  0  0  0  0  0
    7.0714    4.7669   -0.7950 H   0  0  0  0  0  0  0  0  0  0  0  0
    8.7000    4.1516   -0.4802 H   0  0  0  0  0  0  0  0  0  0  0  0
    7.3786    3.0192   -0.5515 H   0  0  0  0  0  0  0  0  0  0  0  0
    5.0216   -2.1506    1.7399 H   0  0  0  0  0  0  0  0  0  0  0  0
    5.5565   -4.2087    2.2034 H   0  0  0  0  0  0  0  0  0  0  0  0
    4.5377   -3.4322   -1.5597 H   0  0  0  0  0  0  0  0  0  0  0  0
    5.0194   -5.0099   -1.0594 H   0  0  0  0  0  0  0  0  0  0  0  0
  1  2  2  0  0  0  0
  1  3  1  0  0  0  0
  1  4  1  0  0  0  0
  3 25  1  0  0  0  0
  4  5  2  0  0  0  0
  4 13  1  0  0  0  0
  5  6  1  0  0  0  0
  5 26  1  0  0  0  0
  6  7  1  0  0  0  0
  6 27  1  6  0  0  0
  6 21  1  0  0  0  0
  7  8  1  0  0  0  0
  7 12  1  0  0  0  0
  7 28  1  1  0  0  0
  8 29  1  0  0  0  0
  9  8  1  0  0  0  0
  9 10  2  0  0  0  0
  9 11  1  0  0  0  0
 11 30  1  0  0  0  0
 11 31  1  0  0  0  0
 11 32  1  0  0  0  0
 12 13  1  0  0  0  0
 12 14  1  0  0  0  0
 12 33  1  6  0  0  0
 14 15  2  0  0  0  0
 14 16  1  0  0  0  0
 17 16  1  0  0  0  0
 17 34  1  0  0  0  0
 17 35  1  0  0  0  0
 17 36  1  0  0  0  0
 18 16  1  0  0  0  0
 18 19  1  0  0  0  0
 18 37  1  0  0  0  0
 18 38  1  0  0  0  0
 19 20  1  0  0  0  0
 19 39  1  0  0  0  0
 19 40  1  0  0  0  0
 20 41  1  0  0  0  0
 20 42  1  0  0  0  0
 20 43  1  0  0  0  0
 21 44  1  0  0  0  0
 22 21  1  0  0  0  0
 22 23  2  0  0  0  0
 22 24  1  0  0  0  0
 23 45  1  0  0  0  0
 24 46  1  0  0  0  0
 24 47  1  0  0  0  0
M  END
>  <DRUGBANK_ID>
DB03503

>  <SECONDARY_ACCESSION_NUMBERS>
EXPT01521

>  <COMMON_NAME>
4-Acetyl-4-guanidino-6-methyl(propyl)carboxamide-4,5-dihydro-2H-pyran-2-carboxylic acid

$$$$
