
 OpenBabel10282417123D

 33 34  0  0  1  0  0  0  0  0999 V2000
   -5.4574    6.3349   -0.9371 N   0  0  0  0  0  0  0  0  0  0  0  0
   -4.6375    5.5361   -1.6899 C   0  0  0  0  0  0  0  0  0  0  0  0
   -4.5706    4.2686   -1.4217 N   0  0  0  0  0  0  0  0  0  0  0  0
   -3.6907    3.4760   -2.1224 C   0  0  0  0  0  0  0  0  0  0  0  0
   -3.7382    2.2437   -2.0251 O   0  0  0  0  0  0  0  0  0  0  0  0
   -2.7380    4.0910   -2.9429 N   0  0  0  0  0  0  0  0  0  0  0  0
   -2.7557    5.4577   -3.1261 C   0  0  0  0  0  0  0  0  0  0  0  0
   -3.7807    6.1886   -2.6956 C   0  0  0  0  0  0  0  0  0  0  0  0
   -1.8242    3.2245   -3.6912 C   0  0  1  0  0  0  0  0  0  0  0  0
   -2.5242    2.2774   -4.6751 C   0  0  0  0  0  0  0  0  0  0  0  0
   -2.5137    3.0344   -5.9749 C   0  0  0  0  0  0  0  0  0  0  0  0
   -1.2111    3.7944   -5.8840 C   0  0  1  0  0  0  0  0  0  0  0  0
   -1.2567    5.1230   -6.6506 C   0  0  0  0  0  0  0  0  0  0  0  0
   -0.8771    4.9514   -8.0153 O   0  0  0  0  0  0  0  0  0  0  0  0
    0.7542    4.3805   -8.0908 P   0  0  0  0  0  0  0  0  0  0  0  0
    0.1025    3.0936   -8.8605 O   0  0  0  0  0  0  0  0  0  0  0  0
    0.8745    5.3685   -9.3863 O   0  0  0  0  0  0  0  0  0  0  0  0
    2.2143    3.8696   -8.1584 O   0  0  0  0  0  0  0  0  0  0  0  0
   -0.9311    4.0262   -4.4973 O   0  0  0  0  0  0  0  0  0  0  0  0
   -6.1079    6.9330   -1.4352 H   0  0  0  0  0  0  0  0  0  0  0  0
   -5.8814    5.8705   -0.1408 H   0  0  0  0  0  0  0  0  0  0  0  0
   -1.9379    5.9171   -3.6705 H   0  0  0  0  0  0  0  0  0  0  0  0
   -3.9079    7.2384   -2.9096 H   0  0  0  0  0  0  0  0  0  0  0  0
   -1.2222    2.6586   -2.9697 H   0  0  0  0  0  0  0  0  0  0  0  0
   -1.9328    1.3602   -4.7855 H   0  0  0  0  0  0  0  0  0  0  0  0
   -3.5403    1.9868   -4.4035 H   0  0  0  0  0  0  0  0  0  0  0  0
   -2.5613    2.3868   -6.8565 H   0  0  0  0  0  0  0  0  0  0  0  0
   -3.3716    3.7138   -6.0106 H   0  0  0  0  0  0  0  0  0  0  0  0
   -0.4059    3.1435   -6.2379 H   0  0  0  0  0  0  0  0  0  0  0  0
   -2.2615    5.5574   -6.6316 H   0  0  0  0  0  0  0  0  0  0  0  0
   -0.5882    5.8618   -6.1947 H   0  0  0  0  0  0  0  0  0  0  0  0
    0.1198    2.3012   -8.3003 H   0  0  0  0  0  0  0  0  0  0  0  0
    0.2998    6.1444   -9.2759 H   0  0  0  0  0  0  0  0  0  0  0  0
  1  2  1  0  0  0  0
  1 20  1  0  0  0  0
  1 21  1  0  0  0  0
  2  3  2  0  0  0  0
  2  8  1  0  0  0  0
  3  4  1  0  0  0  0
  4  5  2  0  0  0  0
  4  6  1  0  0  0  0
  6  7  1  0  0  0  0
  7  8  2  0  0  0  0
  7 22  1  0  0  0  0
  8 23  1  0  0  0  0
  9 10  1  0  0  0  0
  9 19  1  0  0  0  0
  9 24  1  1  0  0  0
  9  6  1  0  0  0  0
 10 11  1  0  0  0  0
 10 25  1  0  0  0  0
 10 26  1  0  0  0  0
 11 12  1  0  0  0  0
 11 27  1  0  0  0  0
 11 28  1  0  0  0  0
 12 19  1  0  0  0  0
 12 29  1  6  0  0  0
 12 13  1  0  0  0  0
 13 14  1  0  0  0  0
 13 30  1  0  0  0  0
 13 31  1  0  0  0  0
 14 15  1  0  0  0  0
 15 16  1  0  0  0  0
 15 17  1  0  0  0  0
 15 18  2  0  0  0  0
 16 32  1  0  0  0  0
 17 33  1  0  0  0  0
M  END
>  <DRUGBANK_ID>
DB02883

>  <SECONDARY_ACCESSION_NUMBERS>
EXPT01242

>  <COMMON_NAME>
2',3'-Dideoxycytidine-5'-Monophosphate

>  <UNII>
X9M2W80KR9

$$$$
