
 OpenBabel10282417153D

 46 49  0  0  1  0  0  0  0  0999 V2000
    2.4873    0.8063    0.3212 C   0  0  0  0  0  0  0  0  0  0  0  0
    2.4961   -0.5789    0.4656 C   0  0  0  0  0  0  0  0  0  0  0  0
    1.3423   -1.2238    0.9130 C   0  0  0  0  0  0  0  0  0  0  0  0
    0.1138   -0.5226    1.0386 C   0  0  0  0  0  0  0  0  0  0  0  0
    0.0801    0.8873    0.8752 C   0  0  0  0  0  0  0  0  0  0  0  0
    1.3114    1.5618    0.5763 C   0  0  0  0  0  0  0  0  0  0  0  0
    1.3337    3.0509    0.3560 C   0  0  0  0  0  0  0  0  0  0  0  0
    0.3561    3.7615    0.3995 O   0  0  0  0  0  0  0  0  0  0  0  0
    2.5442    3.6577    0.1457 N   0  0  0  0  0  0  0  0  0  0  0  0
   -1.2912    1.5165    0.5726 C   0  0  0  0  0  0  0  0  0  0  0  0
   -2.2660    0.5807   -0.2282 C   0  0  2  0  0  0  0  0  0  0  0  0
   -2.2912   -0.6722    0.6768 C   0  0  0  0  0  0  0  0  0  0  0  0
   -1.0252   -1.3065    0.9495 O   0  0  0  0  0  0  0  0  0  0  0  0
   -2.2637    0.4270   -1.7662 N   0  0  0  0  0  0  0  0  0  0  0  0
   -2.3955    1.6740   -2.5802 C   0  0  0  0  0  0  0  0  0  0  0  0
   -1.1977    2.6513   -2.4935 C   0  0  0  0  0  0  0  0  0  0  0  0
   -2.2219    3.7986   -2.4407 C   0  0  0  0  0  0  0  0  0  0  0  0
   -3.3001    2.7732   -2.0139 C   0  0  0  0  0  0  0  0  0  0  0  0
   -1.2601   -0.3993   -2.5177 C   0  0  0  0  0  0  0  0  0  0  0  0
   -1.0418   -1.8575   -2.0817 C   0  0  0  0  0  0  0  0  0  0  0  0
    0.4617   -1.5422   -1.9695 C   0  0  0  0  0  0  0  0  0  0  0  0
    0.1067   -0.0656   -1.9879 C   0  0  0  0  0  0  0  0  0  0  0  0
    1.3606   -2.5706    0.9004 F   0  0  0  0  0  0  0  0  0  0  0  0
    3.3943    1.2568   -0.0769 H   0  0  0  0  0  0  0  0  0  0  0  0
    3.3497   -1.1662    0.1200 H   0  0  0  0  0  0  0  0  0  0  0  0
    3.4429    3.2197    0.2260 H   0  0  0  0  0  0  0  0  0  0  0  0
    2.5033    4.6687    0.1722 H   0  0  0  0  0  0  0  0  0  0  0  0
   -1.2667    2.4501    0.0379 H   0  0  0  0  0  0  0  0  0  0  0  0
   -1.7294    1.7973    1.5374 H   0  0  0  0  0  0  0  0  0  0  0  0
   -3.2707    1.0021   -0.0592 H   0  0  0  0  0  0  0  0  0  0  0  0
   -2.6797   -0.3844    1.6628 H   0  0  0  0  0  0  0  0  0  0  0  0
   -3.0163   -1.3980    0.2864 H   0  0  0  0  0  0  0  0  0  0  0  0
   -2.6253    1.4696   -3.6385 H   0  0  0  0  0  0  0  0  0  0  0  0
   -0.5291    2.6153   -1.6423 H   0  0  0  0  0  0  0  0  0  0  0  0
   -0.5229    2.6716   -3.3555 H   0  0  0  0  0  0  0  0  0  0  0  0
   -2.0276    4.5865   -1.7069 H   0  0  0  0  0  0  0  0  0  0  0  0
   -2.3789    4.2520   -3.4238 H   0  0  0  0  0  0  0  0  0  0  0  0
   -4.2638    2.8759   -2.5233 H   0  0  0  0  0  0  0  0  0  0  0  0
   -3.4878    2.8046   -0.9402 H   0  0  0  0  0  0  0  0  0  0  0  0
   -1.2949   -0.3249   -3.6119 H   0  0  0  0  0  0  0  0  0  0  0  0
   -1.5284   -2.1762   -1.1601 H   0  0  0  0  0  0  0  0  0  0  0  0
   -1.1773   -2.6818   -2.7835 H   0  0  0  0  0  0  0  0  0  0  0  0
    0.8374   -2.0803   -1.1135 H   0  0  0  0  0  0  0  0  0  0  0  0
    1.1947   -1.7257   -2.7521 H   0  0  0  0  0  0  0  0  0  0  0  0
    0.7682    0.6906   -2.4081 H   0  0  0  0  0  0  0  0  0  0  0  0
   -0.0947    0.3535   -1.0552 H   0  0  0  0  0  0  0  0  0  0  0  0
  1  2  2  0  0  0  0
  1  6  1  0  0  0  0
  1 24  1  0  0  0  0
  2  3  1  0  0  0  0
  2 25  1  0  0  0  0
  3  4  2  0  0  0  0
  3 23  1  0  0  0  0
  4  5  1  0  0  0  0
  4 13  1  0  0  0  0
  5  6  2  0  0  0  0
  5 10  1  0  0  0  0
  6  7  1  0  0  0  0
  7  8  2  0  0  0  0
  7  9  1  0  0  0  0
  9 26  1  0  0  0  0
  9 27  1  0  0  0  0
 10 11  1  0  0  0  0
 10 28  1  0  0  0  0
 10 29  1  0  0  0  0
 11 12  1  0  0  0  0
 11 14  1  0  0  0  0
 11 30  1  1  0  0  0
 12 13  1  0  0  0  0
 12 31  1  0  0  0  0
 12 32  1  0  0  0  0
 14 15  1  0  0  0  0
 14 19  1  0  0  0  0
 15 16  1  0  0  0  0
 15 18  1  0  0  0  0
 15 33  1  0  0  0  0
 16 17  1  0  0  0  0
 16 34  1  0  0  0  0
 16 35  1  0  0  0  0
 17 18  1  0  0  0  0
 17 36  1  0  0  0  0
 17 37  1  0  0  0  0
 18 38  1  0  0  0  0
 18 39  1  0  0  0  0
 19 20  1  0  0  0  0
 19 22  1  0  0  0  0
 19 40  1  0  0  0  0
 20 21  1  0  0  0  0
 20 41  1  0  0  0  0
 20 42  1  0  0  0  0
 21 22  1  0  0  0  0
 21 43  1  0  0  0  0
 21 44  1  0  0  0  0
 22 45  1  0  0  0  0
 22 46  1  0  0  0  0
M  END
>  <DRUGBANK_ID>
DB06538

>  <COMMON_NAME>
Robalzotan

>  <CAS_NUMBER>
169758-66-1

>  <UNII>
I18M56OGME

>  <SYNONYMS>
(R)-3-(Dicyclobutylamino)-8-fluoro-5-chromancarboxamide; Robalzotan

$$$$
