
 OpenBabel10282417193D

 79 82  0  0  1  0  0  0  0  0999 V2000
    0.5541   -0.9656    3.9393 C   0  0  0  0  0  0  0  0  0  0  0  0
    1.2165    0.0519    3.0586 C   0  0  0  0  0  0  0  0  0  0  0  0
    0.9335    1.6757    3.5197 C   0  0  0  0  0  0  0  0  0  0  0  0
    1.6861    3.1366    2.3589 C   0  0  0  0  0  0  0  0  0  0  0  0
    2.3544    2.5898    0.5406 C   0  0  1  0  0  0  0  0  0  0  0  0
    3.5365    1.2193    0.5796 C   0  0  0  0  0  0  0  0  0  0  0  0
    2.7630   -0.2596    1.6071 C   0  0  0  0  0  0  0  0  0  0  0  0
    1.2239    1.8916   -0.4712 C   0  0  0  0  0  0  0  0  0  0  0  0
    1.0408    2.4326   -1.5638 O   0  0  0  0  0  0  0  0  0  0  0  0
    0.5123    0.6973   -0.1043 N   0  0  0  0  0  0  0  0  0  0  0  0
    0.8633   -0.0364    1.0327 C   0  0  1  0  0  0  0  0  0  0  0  0
    1.2389   -1.8202    1.0807 C   0  0  0  0  0  0  0  0  0  0  0  0
    2.0017   -2.4608    2.4660 C   0  0  0  0  0  0  0  0  0  0  0  0
    3.1705   -1.4995    3.3179 C   0  0  2  0  0  0  0  0  0  0  0  0
    2.9859    0.4048    3.5907 C   0  0  0  0  0  0  0  0  0  0  0  0
    1.9926    1.2283    1.9883 C   0  0  0  0  0  0  0  0  0  0  0  0
    4.1756   -1.8081    2.3067 O   0  0  0  0  0  0  0  0  0  0  0  0
    3.6392   -1.9598    4.6869 C   0  0  0  0  0  0  0  0  0  0  0  0
    4.6757   -1.0742    5.1540 O   0  0  0  0  0  0  0  0  0  0  0  0
    5.7980   -0.9047    4.2767 C   0  0  2  0  0  0  0  0  0  0  0  0
    5.7979    0.2754    3.2927 C   0  0  0  0  0  0  0  0  0  0  0  0
    6.3845   -0.1160    2.0634 O   0  0  0  0  0  0  0  0  0  0  0  0
    6.6295   -1.5287    2.1156 C   0  0  0  0  0  0  0  0  0  0  0  0
    6.1481   -2.1235    3.4423 C   0  0  0  0  0  0  0  0  0  0  0  0
   -0.6375    0.2411   -0.7177 C   0  0  0  0  0  0  0  0  0  0  0  0
   -1.8491   -0.1601   -0.1089 C   0  0  0  0  0  0  0  0  0  0  0  0
   -2.8453   -0.8575   -1.3483 S   0  0  0  0  0  0  0  0  0  0  0  0
   -1.6644   -0.6508   -2.5573 C   0  0  0  0  0  0  0  0  0  0  0  0
   -0.5135   -0.1106   -2.0755 C   0  0  0  0  0  0  0  0  0  0  0  0
   -1.8346   -0.9863   -3.9221 C   0  0  0  0  0  0  0  0  0  0  0  0
   -1.9879   -1.2364   -5.0841 C   0  0  0  0  0  0  0  0  0  0  0  0
   -2.2361   -1.5519   -6.5006 C   0  0  0  0  0  0  0  0  0  0  0  0
   -1.2386   -0.8023   -7.3870 C   0  0  0  0  0  0  0  0  0  0  0  0
   -2.0907   -3.0617   -6.7118 C   0  0  0  0  0  0  0  0  0  0  0  0
   -3.6569   -1.1159   -6.8707 C   0  0  0  0  0  0  0  0  0  0  0  0
   -2.4454   -0.0978    1.2600 C   0  0  0  0  0  0  0  0  0  0  0  0
   -3.4883   -0.6135    1.6472 O   0  0  0  0  0  0  0  0  0  0  0  0
   -1.7224    0.6119    2.1691 O   0  0  0  0  0  0  0  0  0  0  0  0
   -0.0573   -1.5757    3.2855 H   0  0  0  0  0  0  0  0  0  0  0  0
    1.2917   -1.5461    4.4694 H   0  0  0  0  0  0  0  0  0  0  0  0
    0.0108   -0.5174    4.7546 H   0  0  0  0  0  0  0  0  0  0  0  0
    0.1760    1.9740    4.2243 H   0  0  0  0  0  0  0  0  0  0  0  0
    0.8629    3.7602    2.0539 H   0  0  0  0  0  0  0  0  0  0  0  0
    2.5910    3.5786    2.8320 H   0  0  0  0  0  0  0  0  0  0  0  0
    2.9273    3.3989    0.0777 H   0  0  0  0  0  0  0  0  0  0  0  0
    3.9302    0.8322   -0.3657 H   0  0  0  0  0  0  0  0  0  0  0  0
    4.4287    1.5795    1.1551 H   0  0  0  0  0  0  0  0  0  0  0  0
    3.7969   -0.1712    1.8852 H   0  0  0  0  0  0  0  0  0  0  0  0
    2.6308   -0.5568    0.5429 H   0  0  0  0  0  0  0  0  0  0  0  0
   -0.0614   -0.1555    1.5819 H   0  0  0  0  0  0  0  0  0  0  0  0
    1.9359   -2.0551    0.2551 H   0  0  0  0  0  0  0  0  0  0  0  0
    0.3379   -2.3711    0.8177 H   0  0  0  0  0  0  0  0  0  0  0  0
    2.5142   -3.3728    2.1113 H   0  0  0  0  0  0  0  0  0  0  0  0
    1.2937   -2.9465    3.1375 H   0  0  0  0  0  0  0  0  0  0  0  0
    2.4468    0.4042    4.5850 H   0  0  0  0  0  0  0  0  0  0  0  0
    3.6897    1.1536    3.9952 H   0  0  0  0  0  0  0  0  0  0  0  0
    2.9317    1.7837    2.1326 H   0  0  0  0  0  0  0  0  0  0  0  0
    0.9298    1.7090    1.7559 H   0  0  0  0  0  0  0  0  0  0  0  0
    4.1083   -2.6298    1.8028 H   0  0  0  0  0  0  0  0  0  0  0  0
    2.8497   -1.9226    5.4406 H   0  0  0  0  0  0  0  0  0  0  0  0
    3.9739   -2.9939    4.6676 H   0  0  0  0  0  0  0  0  0  0  0  0
    6.6318   -0.6905    4.9366 H   0  0  0  0  0  0  0  0  0  0  0  0
    4.8587    0.5967    2.9636 H   0  0  0  0  0  0  0  0  0  0  0  0
    6.1168    1.2510    3.6701 H   0  0  0  0  0  0  0  0  0  0  0  0
    7.7000   -1.6116    2.0639 H   0  0  0  0  0  0  0  0  0  0  0  0
    6.1895   -2.0004    1.2195 H   0  0  0  0  0  0  0  0  0  0  0  0
    6.7786   -2.8568    3.9229 H   0  0  0  0  0  0  0  0  0  0  0  0
    5.3431   -2.8527    3.3030 H   0  0  0  0  0  0  0  0  0  0  0  0
    0.4047    0.0383   -2.6360 H   0  0  0  0  0  0  0  0  0  0  0  0
   -1.4202   -1.0186   -8.4459 H   0  0  0  0  0  0  0  0  0  0  0  0
   -1.3247    0.2819   -7.2476 H   0  0  0  0  0  0  0  0  0  0  0  0
   -0.2056   -1.0850   -7.1561 H   0  0  0  0  0  0  0  0  0  0  0  0
   -2.8007   -3.6184   -6.0883 H   0  0  0  0  0  0  0  0  0  0  0  0
   -2.2774   -3.3316   -7.7564 H   0  0  0  0  0  0  0  0  0  0  0  0
   -1.0834   -3.4054   -6.4485 H   0  0  0  0  0  0  0  0  0  0  0  0
   -3.8744   -1.3446   -7.9195 H   0  0  0  0  0  0  0  0  0  0  0  0
   -4.4039   -1.6245   -6.2507 H   0  0  0  0  0  0  0  0  0  0  0  0
   -3.7878   -0.0367   -6.7273 H   0  0  0  0  0  0  0  0  0  0  0  0
   -1.9643    0.3706    3.0906 H   0  0  0  0  0  0  0  0  0  0  0  0
  1  2  1  0  0  0  0
  1 39  1  0  0  0  0
  1 40  1  0  0  0  0
  1 41  1  0  0  0  0
  2  3  2  0  0  0  0
  2  7  1  0  0  0  0
  3  4  1  0  0  0  0
  3 42  1  0  0  0  0
  4  5  1  0  0  0  0
  4 43  1  0  0  0  0
  4 44  1  0  0  0  0
  5  6  1  0  0  0  0
  5  8  1  0  0  0  0
  5 45  1  6  0  0  0
  6  7  1  0  0  0  0
  6 46  1  0  0  0  0
  6 47  1  0  0  0  0
  7 48  1  0  0  0  0
  7 49  1  0  0  0  0
  8  9  2  0  0  0  0
  8 10  1  0  0  0  0
 10 25  1  0  0  0  0
 11 12  1  0  0  0  0
 11 16  1  0  0  0  0
 11 50  1  1  0  0  0
 11 10  1  0  0  0  0
 12 13  1  0  0  0  0
 12 51  1  0  0  0  0
 12 52  1  0  0  0  0
 13 14  1  0  0  0  0
 13 53  1  0  0  0  0
 13 54  1  0  0  0  0
 14 15  1  0  0  0  0
 14 18  1  0  0  0  0
 14 17  1  6  0  0  0
 15 16  1  0  0  0  0
 15 55  1  0  0  0  0
 15 56  1  0  0  0  0
 16 57  1  0  0  0  0
 16 58  1  0  0  0  0
 17 59  1  0  0  0  0
 18 19  1  0  0  0  0
 18 60  1  0  0  0  0
 18 61  1  0  0  0  0
 20 19  1  0  0  0  0
 20 21  1  0  0  0  0
 20 24  1  0  0  0  0
 20 62  1  1  0  0  0
 21 22  1  0  0  0  0
 21 63  1  0  0  0  0
 21 64  1  0  0  0  0
 22 23  1  0  0  0  0
 23 24  1  0  0  0  0
 23 65  1  0  0  0  0
 23 66  1  0  0  0  0
 24 67  1  0  0  0  0
 24 68  1  0  0  0  0
 25 26  2  0  0  0  0
 25 29  1  0  0  0  0
 26 27  1  0  0  0  0
 26 36  1  0  0  0  0
 27 28  1  0  0  0  0
 28 29  2  0  0  0  0
 28 30  1  0  0  0  0
 29 69  1  0  0  0  0
 30 31  3  0  0  0  0
 31 32  1  0  0  0  0
 32 33  1  0  0  0  0
 32 34  1  0  0  0  0
 32 35  1  0  0  0  0
 33 70  1  0  0  0  0
 33 71  1  0  0  0  0
 33 72  1  0  0  0  0
 34 73  1  0  0  0  0
 34 74  1  0  0  0  0
 34 75  1  0  0  0  0
 35 76  1  0  0  0  0
 35 77  1  0  0  0  0
 35 78  1  0  0  0  0
 36 37  2  0  0  0  0
 36 38  1  0  0  0  0
 38 79  1  0  0  0  0
M  END
>  <DRUGBANK_ID>
DB12065

>  <COMMON_NAME>
Radalbuvir

>  <CAS_NUMBER>
1314795-11-3

>  <UNII>
273K4V0SPC

>  <SYNONYMS>
Radalbuvir

$$$$
