
 OpenBabel10282417163D

 49 50  0  0  0  0  0  0  0  0999 V2000
    1.0383   -0.0480   -0.0416 S   0  0  0  0  0  0  0  0  0  0  0  0
    3.2466   -4.7213    5.6239 O   0  0  0  0  0  0  0  0  0  0  0  0
    6.5075   -3.6099    3.3241 O   0  0  0  0  0  0  0  0  0  0  0  0
    5.4131   -4.5326    6.1324 O   0  0  0  0  0  0  0  0  0  0  0  0
    0.5324   -1.4287    0.6161 O   0  0  0  0  0  0  0  0  0  0  0  0
    0.6303    1.0309    0.8086 O   0  0  0  0  0  0  0  0  0  0  0  0
    0.6447   -0.1178   -1.4387 O   0  0  0  0  0  0  0  0  0  0  0  0
    4.5206   -2.7034    5.0566 N   0  0  0  0  0  0  0  0  0  0  0  0
    8.0330   -2.0617    3.8433 N   0  0  0  0  0  0  0  0  0  0  0  0
    2.7107   -0.1878   -0.0401 N   0  0  0  0  0  0  0  0  0  0  0  0
    5.8550   -2.0307    5.0946 C   0  0  2  0  0  0  0  0  0  0  0  0
    5.6731   -0.4847    4.8506 C   0  0  0  0  0  0  0  0  0  0  0  0
    3.4707   -1.8173    4.5451 C   0  0  0  0  0  0  0  0  0  0  0  0
    4.9717   -0.2549    3.5362 C   0  0  0  0  0  0  0  0  0  0  0  0
    3.8636   -1.0494    3.3479 C   0  0  0  0  0  0  0  0  0  0  0  0
    6.8002   -2.6366    4.0221 C   0  0  0  0  0  0  0  0  0  0  0  0
    3.1172   -1.0361    2.1787 C   0  0  0  0  0  0  0  0  0  0  0  0
    4.4300   -4.0018    5.6098 C   0  0  0  0  0  0  0  0  0  0  0  0
    5.3223    0.6340    2.5412 C   0  0  0  0  0  0  0  0  0  0  0  0
    1.9992   -4.2533    5.0859 C   0  0  0  0  0  0  0  0  0  0  0  0
    3.4487   -0.1535    1.1753 C   0  0  0  0  0  0  0  0  0  0  0  0
    4.5558    0.6881    1.3598 C   0  0  0  0  0  0  0  0  0  0  0  0
    1.5468   -3.0823    6.0197 C   0  0  0  0  0  0  0  0  0  0  0  0
    2.1926   -4.1694    3.5344 C   0  0  0  0  0  0  0  0  0  0  0  0
    0.8407   -5.2394    5.2324 C   0  0  0  0  0  0  0  0  0  0  0  0
    8.6129   -0.9415    4.5447 C   0  0  0  0  0  0  0  0  0  0  0  0
    8.5580   -2.4810    3.0847 H   0  0  0  0  0  0  0  0  0  0  0  0
    3.1609    0.1145   -0.8986 H   0  0  0  0  0  0  0  0  0  0  0  0
    0.7539   -2.1672    0.0166 H   0  0  0  0  0  0  0  0  0  0  0  0
    6.3070   -2.2250    6.0767 H   0  0  0  0  0  0  0  0  0  0  0  0
    5.0789   -0.0774    5.6804 H   0  0  0  0  0  0  0  0  0  0  0  0
    6.5581    0.1305    4.8287 H   0  0  0  0  0  0  0  0  0  0  0  0
    2.5169   -2.2131    4.2894 H   0  0  0  0  0  0  0  0  0  0  0  0
    3.2424   -1.0844    5.3277 H   0  0  0  0  0  0  0  0  0  0  0  0
    2.2818   -1.7155    2.0742 H   0  0  0  0  0  0  0  0  0  0  0  0
    6.1816    1.2800    2.6834 H   0  0  0  0  0  0  0  0  0  0  0  0
    4.8425    1.4052    0.5993 H   0  0  0  0  0  0  0  0  0  0  0  0
    2.3626   -2.4598    6.3929 H   0  0  0  0  0  0  0  0  0  0  0  0
    0.7848   -2.4502    5.5553 H   0  0  0  0  0  0  0  0  0  0  0  0
    1.1791   -3.4465    6.9843 H   0  0  0  0  0  0  0  0  0  0  0  0
    2.2321   -5.1625    3.0731 H   0  0  0  0  0  0  0  0  0  0  0  0
    1.3923   -3.5938    3.0612 H   0  0  0  0  0  0  0  0  0  0  0  0
    3.1626   -3.7743    3.2094 H   0  0  0  0  0  0  0  0  0  0  0  0
    1.0269   -6.1738    4.7016 H   0  0  0  0  0  0  0  0  0  0  0  0
    0.6440   -5.4785    6.2793 H   0  0  0  0  0  0  0  0  0  0  0  0
   -0.0636   -4.7740    4.8104 H   0  0  0  0  0  0  0  0  0  0  0  0
    9.6277   -1.1811    4.8466 H   0  0  0  0  0  0  0  0  0  0  0  0
    8.6068   -0.0805    3.8664 H   0  0  0  0  0  0  0  0  0  0  0  0
    8.0748   -0.7142    5.4648 H   0  0  0  0  0  0  0  0  0  0  0  0
  1  5  1  0  0  0  0
  1  6  2  0  0  0  0
  1  7  2  0  0  0  0
  1 10  1  0  0  0  0
  2 18  1  0  0  0  0
  2 20  1  0  0  0  0
  3 16  2  0  0  0  0
  4 18  2  0  0  0  0
  5 29  1  0  0  0  0
  8 11  1  0  0  0  0
  8 13  1  0  0  0  0
  8 18  1  0  0  0  0
  9 16  1  0  0  0  0
  9 26  1  0  0  0  0
  9 27  1  0  0  0  0
 10 21  1  0  0  0  0
 10 28  1  0  0  0  0
 11 12  1  0  0  0  0
 11 30  1  1  0  0  0
 11 16  1  0  0  0  0
 12 14  1  0  0  0  0
 12 31  1  0  0  0  0
 12 32  1  0  0  0  0
 13 15  1  0  0  0  0
 13 33  1  0  0  0  0
 13 34  1  0  0  0  0
 14 15  2  0  0  0  0
 14 19  1  0  0  0  0
 15 17  1  0  0  0  0
 17 21  2  0  0  0  0
 17 35  1  0  0  0  0
 19 22  2  0  0  0  0
 19 36  1  0  0  0  0
 20 23  1  0  0  0  0
 20 24  1  0  0  0  0
 20 25  1  0  0  0  0
 21 22  1  0  0  0  0
 22 37  1  0  0  0  0
 23 38  1  0  0  0  0
 23 39  1  0  0  0  0
 23 40  1  0  0  0  0
 24 41  1  0  0  0  0
 24 42  1  0  0  0  0
 24 43  1  0  0  0  0
 25 44  1  0  0  0  0
 25 45  1  0  0  0  0
 25 46  1  0  0  0  0
 26 47  1  0  0  0  0
 26 48  1  0  0  0  0
 26 49  1  0  0  0  0
M  END
>  <DRUGBANK_ID>
DB07719

>  <COMMON_NAME>
[(3R)-3-(Methylcarbamoyl)-2-{[(2-methyl-2-propanyl)oxy]carbonyl}-1,2,3,4-tetrahydro-7-isoquinolinyl]sulfamic acid

$$$$
