
 OpenBabel10282417213D

 67 70  0  0  0  0  0  0  0  0999 V2000
   -3.2584    0.3047   -1.6203 C   0  0  0  0  0  0  0  0  0  0  0  0
   -2.0792   -0.8550   -1.2405 C   0  0  0  0  0  0  0  0  0  0  0  0
   -2.3156   -1.9285   -0.0821 C   0  0  0  0  0  0  0  0  0  0  0  0
   -1.6385   -3.0869    0.4441 C   0  0  0  0  0  0  0  0  0  0  0  0
   -2.6712   -2.3732    2.4714 C   0  0  0  0  0  0  0  0  0  0  0  0
   -3.7708   -1.5528    1.8801 C   0  0  0  0  0  0  0  0  0  0  0  0
   -7.3893    0.0280   -0.2144 C   0  0  0  0  0  0  0  0  0  0  0  0
   -7.0413    3.0463   -1.3359 C   0  0  0  0  0  0  0  0  0  0  0  0
   -5.7891    2.1490   -1.0743 C   0  0  0  0  0  0  0  0  0  0  0  0
   -4.9129   -0.6872   -0.1373 C   0  0  2  0  0  0  0  0  0  0  0  0
   -4.8381    0.1870    0.5493 H   0  0  0  0  0  0  0  0  0  0  0  0
   -5.8327    0.8357   -1.9193 C   0  0  1  0  0  0  0  0  0  0  0  0
   -5.6287    0.9410   -2.9852 H   0  0  0  0  0  0  0  0  0  0  0  0
   -4.7452   -0.1504   -1.5147 C   0  0  2  0  0  0  0  0  0  0  0  0
   -4.9179   -0.9056   -2.2742 H   0  0  0  0  0  0  0  0  0  0  0  0
   -7.3515    0.6193   -1.9067 C   0  0  1  0  0  0  0  0  0  0  0  0
   -7.4431    2.3722   -2.6499 C   0  0  1  0  0  0  0  0  0  0  0  0
   -2.7264   -3.4719    1.4747 C   0  0  0  0  0  0  0  0  0  0  0  0
   -3.5702   -4.3161    1.3060 O   0  0  0  0  0  0  0  0  0  0  0  0
   -6.3916   -1.2153    0.0430 C   0  0  1  0  0  0  0  0  0  0  0  0
   -7.1811   -2.3541    0.4450 O   0  0  0  0  0  0  0  0  0  0  0  0
   -8.0467    3.6149   -3.6411 C   0  0  0  0  0  0  0  0  0  0  0  0
   -7.4428    4.7218   -3.6606 O   0  0  0  0  0  0  0  0  0  0  0  0
   -9.2487    3.5761   -4.5414 C   0  0  0  0  0  0  0  0  0  0  0  0
  -10.0670    4.7704   -4.3930 O   0  0  0  0  0  0  0  0  0  0  0  0
   -6.1454    2.7323   -3.5726 O   0  0  0  0  0  0  0  0  0  0  0  0
   -8.1063   -0.7116   -2.4125 C   0  0  0  0  0  0  0  0  0  0  0  0
   -3.8148   -1.7149    0.2548 C   0  0  2  0  0  0  0  0  0  0  0  0
   -4.1552   -2.8530   -0.7926 C   0  0  0  0  0  0  0  0  0  0  0  0
  -10.5121    5.2897   -3.2138 C   0  0  0  0  0  0  0  0  0  0  0  0
  -10.0247    4.6558   -1.9206 C   0  0  0  0  0  0  0  0  0  0  0  0
   -9.1523    5.5429   -1.0338 C   0  0  0  0  0  0  0  0  0  0  0  0
   -9.9654    6.7100   -0.5017 C   0  0  0  0  0  0  0  0  0  0  0  0
  -10.1475    6.6869    0.8487 O   0  0  0  0  0  0  0  0  0  0  0  0
  -10.4020    7.5784   -1.1788 O   0  0  0  0  0  0  0  0  0  0  0  0
  -11.3502    6.1625   -3.2120 O   0  0  0  0  0  0  0  0  0  0  0  0
   -3.1893    0.6935   -2.6489 H   0  0  0  0  0  0  0  0  0  0  0  0
   -3.0302    1.2051   -1.0252 H   0  0  0  0  0  0  0  0  0  0  0  0
   -1.9465   -1.4025   -2.1804 H   0  0  0  0  0  0  0  0  0  0  0  0
   -1.1772   -0.2873   -0.9902 H   0  0  0  0  0  0  0  0  0  0  0  0
   -1.3489   -4.0466    1.0285 H   0  0  0  0  0  0  0  0  0  0  0  0
   -2.6064   -2.7150    3.4923 H   0  0  0  0  0  0  0  0  0  0  0  0
   -1.7457   -1.7854    2.3249 H   0  0  0  0  0  0  0  0  0  0  0  0
   -4.7013   -1.8184    2.3779 H   0  0  0  0  0  0  0  0  0  0  0  0
   -3.5539   -0.4995    2.1643 H   0  0  0  0  0  0  0  0  0  0  0  0
   -8.4019   -0.3190    0.0328 H   0  0  0  0  0  0  0  0  0  0  0  0
   -7.1367    0.7299    0.5805 H   0  0  0  0  0  0  0  0  0  0  0  0
   -8.1304    2.9226   -1.1706 H   0  0  0  0  0  0  0  0  0  0  0  0
   -7.2994    3.0560   -0.2573 H   0  0  0  0  0  0  0  0  0  0  0  0
   -5.7661    1.9883    0.0102 H   0  0  0  0  0  0  0  0  0  0  0  0
   -4.8380    2.6351   -1.2650 H   0  0  0  0  0  0  0  0  0  0  0  0
   -6.0059   -1.3560    1.0301 H   0  0  0  0  0  0  0  0  0  0  0  0
   -6.6858   -3.0085    0.9850 H   0  0  0  0  0  0  0  0  0  0  0  0
   -8.9090    3.6101   -5.5926 H   0  0  0  0  0  0  0  0  0  0  0  0
   -9.8397    2.6963   -4.3497 H   0  0  0  0  0  0  0  0  0  0  0  0
   -6.1366    3.7002   -3.8414 H   0  0  0  0  0  0  0  0  0  0  0  0
   -7.6759   -1.6266   -1.9441 H   0  0  0  0  0  0  0  0  0  0  0  0
   -9.1346   -0.7799   -1.9864 H   0  0  0  0  0  0  0  0  0  0  0  0
   -8.1479   -0.9930   -3.4610 H   0  0  0  0  0  0  0  0  0  0  0  0
   -4.3344   -2.4588   -1.7962 H   0  0  0  0  0  0  0  0  0  0  0  0
   -3.3336   -3.5114   -1.1253 H   0  0  0  0  0  0  0  0  0  0  0  0
   -5.0003   -3.4397   -0.4944 H   0  0  0  0  0  0  0  0  0  0  0  0
  -10.8724    4.2395   -1.3783 H   0  0  0  0  0  0  0  0  0  0  0  0
   -9.5146    3.7432   -2.1569 H   0  0  0  0  0  0  0  0  0  0  0  0
   -8.7449    4.9618   -0.1961 H   0  0  0  0  0  0  0  0  0  0  0  0
   -8.2795    5.9530   -1.5559 H   0  0  0  0  0  0  0  0  0  0  0  0
   -9.6845    6.0112    1.3637 H   0  0  0  0  0  0  0  0  0  0  0  0
  1  2  1  0  0  0  0
  1 37  1  0  0  0  0
  1 38  1  0  0  0  0
  2  3  1  0  0  0  0
  2 39  1  0  0  0  0
  2 40  1  0  0  0  0
  3  4  2  0  0  0  0
  3 28  1  0  0  0  0
  4 18  1  0  0  0  0
  4 41  1  0  0  0  0
  5  6  1  0  0  0  0
  5 42  1  0  0  0  0
  5 43  1  0  0  0  0
  6 28  1  0  0  0  0
  6 44  1  0  0  0  0
  6 45  1  0  0  0  0
  7 16  1  0  0  0  0
  7 46  1  0  0  0  0
  7 47  1  0  0  0  0
  8  9  1  0  0  0  0
  8 48  1  0  0  0  0
  8 49  1  0  0  0  0
  9 12  1  0  0  0  0
  9 50  1  0  0  0  0
  9 51  1  0  0  0  0
 10 20  1  0  0  0  0
 10 11  1  6  0  0  0
 12 13  1  6  0  0  0
 14  1  1  0  0  0  0
 14 10  1  0  0  0  0
 14 12  1  0  0  0  0
 14 15  1  1  0  0  0
 16 17  1  0  0  0  0
 16 12  1  0  0  0  0
 16 27  1  1  0  0  0
 17  8  1  0  0  0  0
 17 22  1  6  0  0  0
 17 26  1  0  0  0  0
 18  5  1  0  0  0  0
 18 19  2  0  0  0  0
 20  7  1  0  0  0  0
 20 21  1  0  0  0  0
 20 52  1  6  0  0  0
 21 53  1  0  0  0  0
 22 24  1  0  0  0  0
 22 23  2  0  0  0  0
 24 25  1  0  0  0  0
 24 54  1  0  0  0  0
 24 55  1  0  0  0  0
 25 30  1  0  0  0  0
 26 56  1  0  0  0  0
 27 57  1  0  0  0  0
 27 58  1  0  0  0  0
 27 59  1  0  0  0  0
 28 10  1  0  0  0  0
 28 29  1  1  0  0  0
 29 60  1  0  0  0  0
 29 61  1  0  0  0  0
 29 62  1  0  0  0  0
 30 31  1  0  0  0  0
 30 36  2  0  0  0  0
 31 32  1  0  0  0  0
 31 63  1  0  0  0  0
 31 64  1  0  0  0  0
 32 33  1  0  0  0  0
 32 65  1  0  0  0  0
 32 66  1  0  0  0  0
 33 34  1  0  0  0  0
 33 35  2  0  0  0  0
 34 67  1  0  0  0  0
M  END
>  <DRUGBANK_ID>
DB14545

>  <COMMON_NAME>
Hydrocortisone succinate

>  <CAS_NUMBER>
2203-97-6

>  <UNII>
IHV1VP592V

>  <SYNONYMS>
Cortisol 21-(hydrogen succinate); Cortisol succinate; Hydrocortisone hemisuccinate anhydrous; Hydrocortisone hydrogen succinate; Hydrocortisone succinate; Hydroxycortisone succinate

$$$$
