
 OpenBabel10282417223D

 61 66  0  0  0  0  0  0  0  0999 V2000
    0.7146    0.0767   -0.0399 O   0  0  0  0  0  0  0  0  0  0  0  0
    0.1655    0.9413   -0.9085 C   0  0  0  0  0  0  0  0  0  0  0  0
    0.8458    1.6465   -1.6407 O   0  0  0  0  0  0  0  0  0  0  0  0
   -1.3092    0.8876   -0.8993 C   0  0  0  0  0  0  0  0  0  0  0  0
   -2.0099    0.8428    0.2971 C   0  0  0  0  0  0  0  0  0  0  0  0
   -3.3893    0.8991    0.2174 C   0  0  0  0  0  0  0  0  0  0  0  0
   -4.0894    0.9926   -0.9449 N   0  0  0  0  0  0  0  0  0  0  0  0
   -3.4013    0.9804   -2.1061 C   0  0  0  0  0  0  0  0  0  0  0  0
   -2.0072    0.9483   -2.1094 C   0  0  0  0  0  0  0  0  0  0  0  0
   -4.0636    1.0675   -3.3355 N   0  0  0  0  0  0  0  0  0  0  0  0
   -4.1009    0.1959   -4.4655 C   0  0  0  0  0  0  0  0  0  0  0  0
   -4.7316    1.3862   -5.2530 C   0  0  0  0  0  0  0  0  0  0  0  0
   -3.7619    2.2398   -5.9400 O   0  0  0  0  0  0  0  0  0  0  0  0
   -5.0994    1.9142   -3.8130 C   0  0  0  0  0  0  0  0  0  0  0  0
   -5.8977    1.0883   -6.2704 C   0  0  0  0  0  0  0  0  0  0  0  0
   -5.7064    0.4004   -7.4891 C   0  0  0  0  0  0  0  0  0  0  0  0
   -4.1820   -0.3316   -7.8564 Cl  0  0  0  0  0  0  0  0  0  0  0  0
   -6.7053    0.3251   -8.4638 C   0  0  0  0  0  0  0  0  0  0  0  0
   -7.9345    0.9355   -8.2419 C   0  0  0  0  0  0  0  0  0  0  0  0
   -8.8918    0.8009   -9.2077 O   0  0  0  0  0  0  0  0  0  0  0  0
  -10.2415    1.1894   -8.8653 C   0  0  0  0  0  0  0  0  0  0  0  0
  -10.8030    0.5362   -7.6407 C   0  0  0  0  0  0  0  0  0  0  0  0
  -10.8074   -0.7944   -7.2714 C   0  0  0  0  0  0  0  0  0  0  0  0
  -11.3574   -0.8926   -6.0238 O   0  0  0  0  0  0  0  0  0  0  0  0
  -11.7457    0.3509   -5.5659 N   0  0  0  0  0  0  0  0  0  0  0  0
  -11.4549    1.2107   -6.5478 C   0  0  0  0  0  0  0  0  0  0  0  0
  -11.7626    2.6403   -6.4461 C   0  0  0  0  0  0  0  0  0  0  0  0
  -12.6364    3.2381   -7.3757 C   0  0  0  0  0  0  0  0  0  0  0  0
  -13.4637    2.3334   -8.6031 Cl  0  0  0  0  0  0  0  0  0  0  0  0
  -12.8767    4.6157   -7.3539 C   0  0  0  0  0  0  0  0  0  0  0  0
  -12.2435    5.4243   -6.4159 C   0  0  0  0  0  0  0  0  0  0  0  0
  -11.3740    4.8553   -5.4904 C   0  0  0  0  0  0  0  0  0  0  0  0
  -11.1491    3.4720   -5.4866 C   0  0  0  0  0  0  0  0  0  0  0  0
  -10.0685    2.8851   -4.2675 Cl  0  0  0  0  0  0  0  0  0  0  0  0
  -10.3834   -2.0315   -8.0631 C   0  0  0  0  0  0  0  0  0  0  0  0
   -9.0144   -2.2509   -8.6547 C   0  0  0  0  0  0  0  0  0  0  0  0
  -10.1450   -1.9081   -9.5608 C   0  0  0  0  0  0  0  0  0  0  0  0
   -8.1352    1.6027   -7.0499 C   0  0  0  0  0  0  0  0  0  0  0  0
   -7.1581    1.6582   -6.0763 C   0  0  0  0  0  0  0  0  0  0  0  0
    1.6849    0.1584   -0.1711 H   0  0  0  0  0  0  0  0  0  0  0  0
   -1.5033    0.7984    1.2551 H   0  0  0  0  0  0  0  0  0  0  0  0
   -3.9931    0.8783    1.1221 H   0  0  0  0  0  0  0  0  0  0  0  0
   -1.4680    1.0178   -3.0479 H   0  0  0  0  0  0  0  0  0  0  0  0
   -4.7556   -0.6738   -4.3250 H   0  0  0  0  0  0  0  0  0  0  0  0
   -3.1183   -0.1253   -4.8129 H   0  0  0  0  0  0  0  0  0  0  0  0
   -2.9882    2.2382   -5.3554 H   0  0  0  0  0  0  0  0  0  0  0  0
   -4.9005    2.9815   -3.6789 H   0  0  0  0  0  0  0  0  0  0  0  0
   -6.0934    1.6664   -3.4277 H   0  0  0  0  0  0  0  0  0  0  0  0
   -6.5296   -0.2361   -9.3788 H   0  0  0  0  0  0  0  0  0  0  0  0
  -10.2571    2.2821   -8.8086 H   0  0  0  0  0  0  0  0  0  0  0  0
  -10.8898    0.9389   -9.7144 H   0  0  0  0  0  0  0  0  0  0  0  0
  -13.5615    5.0622   -8.0718 H   0  0  0  0  0  0  0  0  0  0  0  0
  -12.4355    6.4944   -6.3994 H   0  0  0  0  0  0  0  0  0  0  0  0
  -10.8729    5.4960   -4.7663 H   0  0  0  0  0  0  0  0  0  0  0  0
  -10.7833   -2.9433   -7.6356 H   0  0  0  0  0  0  0  0  0  0  0  0
   -8.2290   -1.5607   -8.4232 H   0  0  0  0  0  0  0  0  0  0  0  0
   -8.6197   -3.2589   -8.7211 H   0  0  0  0  0  0  0  0  0  0  0  0
  -10.5237   -2.6648  -10.2320 H   0  0  0  0  0  0  0  0  0  0  0  0
  -10.1081   -0.9598  -10.0733 H   0  0  0  0  0  0  0  0  0  0  0  0
   -9.0531    2.1138   -6.8315 H   0  0  0  0  0  0  0  0  0  0  0  0
   -7.3861    2.2214   -5.1765 H   0  0  0  0  0  0  0  0  0  0  0  0
  1  2  1  0  0  0  0
  1 40  1  0  0  0  0
  2  3  2  0  0  0  0
  2  4  1  0  0  0  0
  4  5  2  0  0  0  0
  4  9  1  0  0  0  0
  5  6  1  0  0  0  0
  5 41  1  0  0  0  0
  6  7  2  0  0  0  0
  6 42  1  0  0  0  0
  7  8  1  0  0  0  0
  8  9  2  0  0  0  0
  8 10  1  0  0  0  0
  9 43  1  0  0  0  0
 10 11  1  0  0  0  0
 10 14  1  0  0  0  0
 11 12  1  0  0  0  0
 11 44  1  0  0  0  0
 11 45  1  0  0  0  0
 12 13  1  0  0  0  0
 12 14  1  0  0  0  0
 12 15  1  0  0  0  0
 13 46  1  0  0  0  0
 14 47  1  0  0  0  0
 14 48  1  0  0  0  0
 15 16  2  0  0  0  0
 15 39  1  0  0  0  0
 16 17  1  0  0  0  0
 16 18  1  0  0  0  0
 18 19  2  0  0  0  0
 18 49  1  0  0  0  0
 19 20  1  0  0  0  0
 19 38  1  0  0  0  0
 20 21  1  0  0  0  0
 21 22  1  0  0  0  0
 21 50  1  0  0  0  0
 21 51  1  0  0  0  0
 22 23  2  0  0  0  0
 22 26  1  0  0  0  0
 23 24  1  0  0  0  0
 23 35  1  0  0  0  0
 24 25  1  0  0  0  0
 25 26  2  0  0  0  0
 26 27  1  0  0  0  0
 27 28  2  0  0  0  0
 27 33  1  0  0  0  0
 28 29  1  0  0  0  0
 28 30  1  0  0  0  0
 30 31  2  0  0  0  0
 30 52  1  0  0  0  0
 31 32  1  0  0  0  0
 31 53  1  0  0  0  0
 32 33  2  0  0  0  0
 32 54  1  0  0  0  0
 33 34  1  0  0  0  0
 35 36  1  0  0  0  0
 35 37  1  0  0  0  0
 35 55  1  0  0  0  0
 36 37  1  0  0  0  0
 36 56  1  0  0  0  0
 36 57  1  0  0  0  0
 37 58  1  0  0  0  0
 37 59  1  0  0  0  0
 38 39  2  0  0  0  0
 38 60  1  0  0  0  0
 39 61  1  0  0  0  0
M  END
>  <DRUGBANK_ID>
DB15168

>  <COMMON_NAME>
Cilofexor

>  <CAS_NUMBER>
1418274-28-8

>  <UNII>
YUN2306954

>  <SYNONYMS>
2-[3-(2-chloro-4-{[5-cyclopropyl-3-(2,6-dichlorophenyl)-1,2-oxazol-4-yl]methoxy}phenyl)-3-hydroxyazetidin-1-yl]pyridine-4-carboxylic acid; Cilofexor

$$$$
