
 OpenBabel10282417193D

 54 57  0  0  1  0  0  0  0  0999 V2000
   -0.3733    3.7710    0.0839 C   0  0  0  0  0  0  0  0  0  0  0  0
   -0.8705    2.4499   -0.0815 O   0  0  0  0  0  0  0  0  0  0  0  0
   -2.0539    2.3245   -0.7592 C   0  0  0  0  0  0  0  0  0  0  0  0
   -2.3272    2.9928   -1.9533 C   0  0  0  0  0  0  0  0  0  0  0  0
   -3.5008    2.7265   -2.6733 C   0  0  0  0  0  0  0  0  0  0  0  0
   -4.3887    1.7500   -2.2196 C   0  0  0  0  0  0  0  0  0  0  0  0
   -4.1070    1.0607   -1.0409 C   0  0  0  0  0  0  0  0  0  0  0  0
   -2.9642    1.3757   -0.2723 C   0  0  0  0  0  0  0  0  0  0  0  0
   -2.7692    0.7621    1.0973 C   0  0  0  0  0  0  0  0  0  0  0  0
   -3.8511    1.1977    1.9822 N   0  0  0  0  0  0  0  0  0  0  0  0
   -3.7804    0.5600    3.3042 C   0  0  1  0  0  0  0  0  0  0  0  0
   -4.4828    1.4426    4.3509 C   0  0  0  0  0  0  0  0  0  0  0  0
   -4.3482    0.8245    5.7438 C   0  0  0  0  0  0  0  0  0  0  0  0
   -4.7899   -0.6301    5.7583 C   0  0  0  0  0  0  0  0  0  0  0  0
   -4.1162   -1.4278    4.7295 N   0  0  0  0  0  0  0  0  0  0  0  0
   -4.3665   -0.9072    3.3654 C   0  0  1  0  0  0  0  0  0  0  0  0
   -5.8290   -1.0697    2.9048 C   0  0  0  0  0  0  0  0  0  0  0  0
   -6.2448   -0.5462    1.6785 C   0  0  0  0  0  0  0  0  0  0  0  0
   -7.5731   -0.5850    1.2505 C   0  0  0  0  0  0  0  0  0  0  0  0
   -8.5285   -1.1724    2.0618 C   0  0  0  0  0  0  0  0  0  0  0  0
   -8.1483   -1.7566    3.2583 C   0  0  0  0  0  0  0  0  0  0  0  0
   -6.8081   -1.7369    3.6557 C   0  0  0  0  0  0  0  0  0  0  0  0
   -5.5729    1.4557   -2.9328 N   0  0  0  0  0  0  0  0  0  0  0  0
   -5.7730    1.1747   -4.2616 C   0  0  0  0  0  0  0  0  0  0  0  0
   -7.0779    1.1026   -4.4825 N   0  0  0  0  0  0  0  0  0  0  0  0
   -7.6807    1.3088   -3.2743 N   0  0  0  0  0  0  0  0  0  0  0  0
   -6.7789    1.4644   -2.3153 N   0  0  0  0  0  0  0  0  0  0  0  0
   -4.6940    0.8560   -5.2026 C   0  0  0  0  0  0  0  0  0  0  0  0
   -4.7986   -0.4108   -5.6826 F   0  0  0  0  0  0  0  0  0  0  0  0
   -4.7069    1.6866   -6.2763 F   0  0  0  0  0  0  0  0  0  0  0  0
   -3.4471    0.9432   -4.6757 F   0  0  0  0  0  0  0  0  0  0  0  0
    0.5718    3.6984    0.6332 H   0  0  0  0  0  0  0  0  0  0  0  0
   -1.0651    4.3698    0.6841 H   0  0  0  0  0  0  0  0  0  0  0  0
   -0.1549    4.2561   -0.8700 H   0  0  0  0  0  0  0  0  0  0  0  0
   -1.6255    3.7131   -2.3591 H   0  0  0  0  0  0  0  0  0  0  0  0
   -3.6908    3.2905   -3.5820 H   0  0  0  0  0  0  0  0  0  0  0  0
   -4.7515    0.2409   -0.7389 H   0  0  0  0  0  0  0  0  0  0  0  0
   -2.7316   -0.3280    0.9942 H   0  0  0  0  0  0  0  0  0  0  0  0
   -1.8178    1.0729    1.5424 H   0  0  0  0  0  0  0  0  0  0  0  0
   -3.8594    2.2124    2.0530 H   0  0  0  0  0  0  0  0  0  0  0  0
   -2.7209    0.5224    3.6024 H   0  0  0  0  0  0  0  0  0  0  0  0
   -4.0479    2.4491    4.3663 H   0  0  0  0  0  0  0  0  0  0  0  0
   -5.5441    1.5592    4.0969 H   0  0  0  0  0  0  0  0  0  0  0  0
   -3.3106    0.8938    6.0881 H   0  0  0  0  0  0  0  0  0  0  0  0
   -4.9669    1.3897    6.4500 H   0  0  0  0  0  0  0  0  0  0  0  0
   -4.6008   -1.0843    6.7354 H   0  0  0  0  0  0  0  0  0  0  0  0
   -5.8766   -0.6264    5.6516 H   0  0  0  0  0  0  0  0  0  0  0  0
   -4.4149   -2.4003    4.7627 H   0  0  0  0  0  0  0  0  0  0  0  0
   -3.7658   -1.5291    2.6870 H   0  0  0  0  0  0  0  0  0  0  0  0
   -5.5380   -0.0632    1.0299 H   0  0  0  0  0  0  0  0  0  0  0  0
   -7.8413   -0.1410    0.2973 H   0  0  0  0  0  0  0  0  0  0  0  0
   -9.5700   -1.1827    1.7531 H   0  0  0  0  0  0  0  0  0  0  0  0
   -8.8821   -2.2299    3.9026 H   0  0  0  0  0  0  0  0  0  0  0  0
   -6.5746   -2.2252    4.5932 H   0  0  0  0  0  0  0  0  0  0  0  0
  1  2  1  0  0  0  0
  1 32  1  0  0  0  0
  1 33  1  0  0  0  0
  1 34  1  0  0  0  0
  2  3  1  0  0  0  0
  3  4  2  0  0  0  0
  3  8  1  0  0  0  0
  4  5  1  0  0  0  0
  4 35  1  0  0  0  0
  5  6  2  0  0  0  0
  5 36  1  0  0  0  0
  6  7  1  0  0  0  0
  6 23  1  0  0  0  0
  7  8  2  0  0  0  0
  7 37  1  0  0  0  0
  8  9  1  0  0  0  0
  9 10  1  0  0  0  0
  9 38  1  0  0  0  0
  9 39  1  0  0  0  0
 10 40  1  0  0  0  0
 11 12  1  0  0  0  0
 11 16  1  0  0  0  0
 11 41  1  1  0  0  0
 11 10  1  0  0  0  0
 12 13  1  0  0  0  0
 12 42  1  0  0  0  0
 12 43  1  0  0  0  0
 13 14  1  0  0  0  0
 13 44  1  0  0  0  0
 13 45  1  0  0  0  0
 14 15  1  0  0  0  0
 14 46  1  0  0  0  0
 14 47  1  0  0  0  0
 15 16  1  0  0  0  0
 15 48  1  0  0  0  0
 16 17  1  0  0  0  0
 16 49  1  6  0  0  0
 17 18  2  0  0  0  0
 17 22  1  0  0  0  0
 18 19  1  0  0  0  0
 18 50  1  0  0  0  0
 19 20  2  0  0  0  0
 19 51  1  0  0  0  0
 20 21  1  0  0  0  0
 20 52  1  0  0  0  0
 21 22  2  0  0  0  0
 21 53  1  0  0  0  0
 22 54  1  0  0  0  0
 23 24  1  0  0  0  0
 23 27  1  0  0  0  0
 24 25  2  0  0  0  0
 24 28  1  0  0  0  0
 25 26  1  0  0  0  0
 26 27  2  0  0  0  0
 28 29  1  0  0  0  0
 28 30  1  0  0  0  0
 28 31  1  0  0  0  0
M  END
>  <DRUGBANK_ID>
DB12436

>  <COMMON_NAME>
Vofopitant

>  <CAS_NUMBER>
168266-90-8

>  <UNII>
K08BK043YS

>  <SYNONYMS>
Vofopitant

$$$$
