
 OpenBabel10282417133D

258257  0  0  0  0  0  0  0  0999 V2000
   -0.1405    5.1078    0.1329 C   0  0  1  0  0  0  0  0  0  0  0  0
   -1.3201    4.8372    0.9458 C   0  0  0  0  0  0  0  0  0  0  0  0
    1.8566    4.9910    1.0018 C   0  0  0  0  0  0  0  0  0  0  0  0
   -0.3539    4.0352    1.8986 O   0  0  0  0  0  0  0  0  0  0  0  0
    0.9309    4.6651    2.7841 P   0  0  3  0  0  0  0  0  0  0  0  0
    0.6926    6.2395    1.4616 O   0  0  0  0  0  0  0  0  0  0  0  0
    0.5534    3.6904    3.9013 O   0  0  0  0  0  0  0  0  0  0  0  0
    2.2982    3.8395    2.6359 O   0  0  0  0  0  0  0  0  0  0  0  0
    1.4708    5.9427   -0.4315 C   0  0  0  0  0  0  0  0  0  0  0  0
    3.2038    4.7495   -0.5726 C   0  0  3  0  0  0  0  0  0  0  0  0
    3.3540    3.2349   -0.1781 C   0  0  0  0  0  0  0  0  0  0  0  0
    3.9299    4.4423   -1.7871 O   0  0  0  0  0  0  0  0  0  0  0  0
    2.2415    2.5076   -0.7620 O   0  0  0  0  0  0  0  0  0  0  0  0
    0.5673    2.7941   -0.4334 P   0  0  3  0  0  0  0  0  0  0  0  0
    0.4311    0.8390   -0.9548 O   0  0  0  0  0  0  0  0  0  0  0  0
    1.1098    2.2301    1.0109 O   0  0  0  0  0  0  0  0  0  0  0  0
   -0.9310    3.0505   -0.1394 O   0  0  0  0  0  0  0  0  0  0  0  0
   -0.6626    0.3545   -2.1638 C   0  0  0  0  0  0  0  0  0  0  0  0
   -1.5624    1.6362   -2.5705 C   0  0  1  0  0  0  0  0  0  0  0  0
   -1.8625    1.7863   -4.1187 C   0  0  0  0  0  0  0  0  0  0  0  0
    3.7309   -1.5051   -5.9128 C   0  0  0  0  0  0  0  0  0  0  0  0
    4.0566   -2.8717   -5.3145 C   0  0  0  0  0  0  0  0  0  0  0  0
    0.6272    3.9909   -2.8046 C   0  0  0  0  0  0  0  0  0  0  0  0
    1.6244    2.8650   -2.7387 C   0  0  0  0  0  0  0  0  0  0  0  0
    0.6030    4.2902   -3.9975 O   0  0  0  0  0  0  0  0  0  0  0  0
    0.9836    1.6708   -3.0854 C   0  0  0  0  0  0  0  0  0  0  0  0
    1.0945    1.4786   -4.4656 C   0  0  0  0  0  0  0  0  0  0  0  0
    2.5475    1.0958   -4.3958 C   0  0  0  0  0  0  0  0  0  0  0  0
    2.7848   -0.2408   -3.6221 C   0  0  0  0  0  0  0  0  0  0  0  0
    1.9112   -1.2964   -4.2770 C   0  0  0  0  0  0  0  0  0  0  0  0
    2.2355   -1.2538   -5.7571 C   0  0  0  0  0  0  0  0  0  0  0  0
   -0.1431    4.6675   -1.7077 O   0  0  0  0  0  0  0  0  0  0  0  0
    3.2388   -3.9357   -6.0448 C   0  0  0  0  0  0  0  0  0  0  0  0
    3.5878   -3.8992   -7.5326 C   0  0  0  0  0  0  0  0  0  0  0  0
    5.0815   -4.1739   -7.7068 C   0  0  0  0  0  0  0  0  0  0  0  0
    5.4145   -5.5497   -7.1288 C   0  0  0  0  0  0  0  0  0  0  0  0
    4.6067   -6.6238   -7.8612 C   0  0  0  0  0  0  0  0  0  0  0  0
    4.9566   -6.6215   -9.3514 C   0  0  0  0  0  0  0  0  0  0  0  0
    6.4464   -6.8892   -9.5523 C   0  0  0  0  0  0  0  0  0  0  0  0
    6.8108   -8.2432   -8.9699 C   0  0  0  0  0  0  0  0  0  0  0  0
    4.5600    7.3059   -7.3947 C   0  0  0  0  0  0  0  0  0  0  0  0
    4.2041    6.4004   -8.5717 C   0  0  0  0  0  0  0  0  0  0  0  0
    3.1773    7.0323   -0.8724 C   0  0  0  0  0  0  0  0  0  0  0  0
    2.4098    6.1048   -2.2777 C   0  0  0  0  0  0  0  0  0  0  0  0
    3.9217    7.9848   -0.9781 O   0  0  0  0  0  0  0  0  0  0  0  0
    1.3927    6.6707   -3.1543 C   0  0  0  0  0  0  0  0  0  0  0  0
    2.3588    7.6456   -3.6327 C   0  0  0  0  0  0  0  0  0  0  0  0
    3.6638    6.9200   -4.2009 C   0  0  0  0  0  0  0  0  0  0  0  0
    3.2680    5.8857   -5.2808 C   0  0  0  0  0  0  0  0  0  0  0  0
    2.4352    6.6423   -6.2999 C   0  0  0  0  0  0  0  0  0  0  0  0
    3.2676    7.8312   -6.7722 C   0  0  0  0  0  0  0  0  0  0  0  0
    2.8952    6.5055    0.5443 O   0  0  0  0  0  0  0  0  0  0  0  0
    3.3986    7.2043   -9.5919 C   0  0  0  0  0  0  0  0  0  0  0  0
    4.2360    8.3899  -10.0720 C   0  0  0  0  0  0  0  0  0  0  0  0
    5.5223    7.8722  -10.7159 C   0  0  0  0  0  0  0  0  0  0  0  0
    5.1700    6.9731  -11.9015 C   0  0  0  0  0  0  0  0  0  0  0  0
    4.3673    7.7716  -12.9315 C   0  0  0  0  0  0  0  0  0  0  0  0
    5.1947    8.9534  -13.4432 C   0  0  0  0  0  0  0  0  0  0  0  0
    6.4894    8.4623  -14.0867 C   0  0  0  0  0  0  0  0  0  0  0  0
    6.1702    7.5497  -15.2575 C   0  0  0  0  0  0  0  0  0  0  0  0
   -0.9207    0.0607    6.3901 C   0  0  0  0  0  0  0  0  0  0  0  0
    0.4968    0.0931    6.9757 C   0  0  0  0  0  0  0  0  0  0  0  0
   -2.5859    1.0193   -0.2541 C   0  0  0  0  0  0  0  0  0  0  0  0
   -1.4502    0.8512    0.5860 C   0  0  0  0  0  0  0  0  0  0  0  0
   -3.6409    0.7925    0.3140 O   0  0  0  0  0  0  0  0  0  0  0  0
   -1.3935    1.8852    1.6421 C   0  0  0  0  0  0  0  0  0  0  0  0
   -2.2308    1.8824    2.7866 C   0  0  0  0  0  0  0  0  0  0  0  0
   -1.7023    0.5658    3.2260 C   0  0  0  0  0  0  0  0  0  0  0  0
   -0.2426    0.6592    3.7335 C   0  0  0  0  0  0  0  0  0  0  0  0
   -0.2395    1.6814    4.8586 C   0  0  0  0  0  0  0  0  0  0  0  0
   -1.2654    1.4203    5.8817 C   0  0  0  0  0  0  0  0  0  0  0  0
   -2.4769    1.6247   -1.4677 O   0  0  0  0  0  0  0  0  0  0  0  0
    0.5602    1.1601    8.0696 C   0  0  0  0  0  0  0  0  0  0  0  0
   -0.5009    0.8408    9.1212 C   0  0  0  0  0  0  0  0  0  0  0  0
   -0.2298   -0.5486    9.6985 C   0  0  0  0  0  0  0  0  0  0  0  0
    1.1587   -0.5676   10.3376 C   0  0  0  0  0  0  0  0  0  0  0  0
    1.2227    0.4763   11.4548 C   0  0  0  0  0  0  0  0  0  0  0  0
    0.1819    0.1594   12.5316 C   0  0  0  0  0  0  0  0  0  0  0  0
    0.4287   -1.2264   13.1234 C   0  0  0  0  0  0  0  0  0  0  0  0
    1.8100   -1.2808   13.7515 C   0  0  0  0  0  0  0  0  0  0  0  0
   -9.8122    1.9496   -0.2477 C   0  0  0  0  0  0  0  0  0  0  0  0
  -10.0633    0.8739    0.8088 C   0  0  0  0  0  0  0  0  0  0  0  0
   -3.9770    2.8094   -3.9268 C   0  0  0  0  0  0  0  0  0  0  0  0
   -4.2875    1.7661   -2.8974 C   0  0  0  0  0  0  0  0  0  0  0  0
   -4.7755    3.6717   -4.2630 O   0  0  0  0  0  0  0  0  0  0  0  0
   -4.5587    2.5227   -1.5700 C   0  0  0  0  0  0  0  0  0  0  0  0
   -5.7739    3.3465   -1.6173 C   0  0  0  0  0  0  0  0  0  0  0  0
   -6.8795    2.3959   -2.0261 C   0  0  0  0  0  0  0  0  0  0  0  0
   -7.0807    1.3037   -0.9605 C   0  0  0  0  0  0  0  0  0  0  0  0
   -7.4013    1.9706    0.3759 C   0  0  0  0  0  0  0  0  0  0  0  0
   -8.6496    2.8344    0.2032 C   0  0  0  0  0  0  0  0  0  0  0  0
   -2.7615    2.8181   -4.4633 O   0  0  0  0  0  0  0  0  0  0  0  0
  -10.4018    1.5455    2.1396 C   0  0  0  0  0  0  0  0  0  0  0  0
  -11.6523    2.4080    1.9659 C   0  0  0  0  0  0  0  0  0  0  0  0
  -12.8185    1.5255    1.5200 C   0  0  0  0  0  0  0  0  0  0  0  0
  -13.0752    0.4508    2.5770 C   0  0  0  0  0  0  0  0  0  0  0  0
  -13.4182    1.1147    3.9128 C   0  0  0  0  0  0  0  0  0  0  0  0
  -14.6801    1.9690    3.7681 C   0  0  0  0  0  0  0  0  0  0  0  0
  -15.8595    1.1105    3.3168 C   0  0  0  0  0  0  0  0  0  0  0  0
  -16.1257    0.0203    4.3395 C   0  0  0  0  0  0  0  0  0  0  0  0
   -0.5280    6.1928   -0.0615 H   0  0  0  0  0  0  0  0  0  0  0  0
   -2.3049    4.2728    0.7360 H   0  0  0  0  0  0  0  0  0  0  0  0
   -1.5562    4.7554   -0.1930 H   0  0  0  0  0  0  0  0  0  0  0  0
    2.2922    5.5428    1.8946 H   0  0  0  0  0  0  0  0  0  0  0  0
    2.0376    4.0403    0.7548 H   0  0  0  0  0  0  0  0  0  0  0  0
    0.6294    2.8170    3.3946 H   0  0  0  0  0  0  0  0  0  0  0  0
    1.2507    4.8949   -0.7504 H   0  0  0  0  0  0  0  0  0  0  0  0
    0.9554    6.7613   -0.8950 H   0  0  0  0  0  0  0  0  0  0  0  0
    4.0270    5.1758    0.0130 H   0  0  0  0  0  0  0  0  0  0  0  0
    4.3362    2.8583   -0.5058 H   0  0  0  0  0  0  0  0  0  0  0  0
    3.5115    3.0809    0.8925 H   0  0  0  0  0  0  0  0  0  0  0  0
    3.3419    4.0000   -2.4036 H   0  0  0  0  0  0  0  0  0  0  0  0
    2.0639    2.1918    1.1933 H   0  0  0  0  0  0  0  0  0  0  0  0
   -0.0164    0.0478   -2.9802 H   0  0  0  0  0  0  0  0  0  0  0  0
   -0.8901   -0.7298   -2.3194 H   0  0  0  0  0  0  0  0  0  0  0  0
   -1.2850    2.7275   -2.4961 H   0  0  0  0  0  0  0  0  0  0  0  0
   -1.0328    2.1556   -4.7320 H   0  0  0  0  0  0  0  0  0  0  0  0
   -2.1001    0.8171   -4.5300 H   0  0  0  0  0  0  0  0  0  0  0  0
    4.0038   -1.4143   -6.9619 H   0  0  0  0  0  0  0  0  0  0  0  0
    4.3496   -0.7398   -5.4362 H   0  0  0  0  0  0  0  0  0  0  0  0
    5.1308   -3.0492   -5.3734 H   0  0  0  0  0  0  0  0  0  0  0  0
    3.8561   -2.9248   -4.2410 H   0  0  0  0  0  0  0  0  0  0  0  0
    2.6760    2.7491   -2.7014 H   0  0  0  0  0  0  0  0  0  0  0  0
    1.5648    2.1441   -2.0321 H   0  0  0  0  0  0  0  0  0  0  0  0
    1.3873    0.7502   -2.5316 H   0  0  0  0  0  0  0  0  0  0  0  0
    0.1467    2.0088   -2.5503 H   0  0  0  0  0  0  0  0  0  0  0  0
    0.3740    0.7331   -4.7764 H   0  0  0  0  0  0  0  0  0  0  0  0
    0.8448    2.4199   -4.9163 H   0  0  0  0  0  0  0  0  0  0  0  0
    2.8455    1.1613   -5.4147 H   0  0  0  0  0  0  0  0  0  0  0  0
    3.2151    1.8313   -3.9583 H   0  0  0  0  0  0  0  0  0  0  0  0
    3.8516   -0.4186   -3.6346 H   0  0  0  0  0  0  0  0  0  0  0  0
    2.6542   -0.3058   -2.5247 H   0  0  0  0  0  0  0  0  0  0  0  0
    2.0777   -2.2582   -3.7938 H   0  0  0  0  0  0  0  0  0  0  0  0
    0.8358   -1.1611   -4.1721 H   0  0  0  0  0  0  0  0  0  0  0  0
    1.6049   -1.9606   -6.2876 H   0  0  0  0  0  0  0  0  0  0  0  0
    1.9620   -0.3029   -6.2204 H   0  0  0  0  0  0  0  0  0  0  0  0
    3.4212   -4.9130   -5.5953 H   0  0  0  0  0  0  0  0  0  0  0  0
    2.1623   -3.7994   -5.9145 H   0  0  0  0  0  0  0  0  0  0  0  0
    2.9671   -4.6149   -8.0745 H   0  0  0  0  0  0  0  0  0  0  0  0
    3.3312   -2.9441   -7.9975 H   0  0  0  0  0  0  0  0  0  0  0  0
    5.3515   -4.0917   -8.7614 H   0  0  0  0  0  0  0  0  0  0  0  0
    5.7013   -3.4116   -7.2273 H   0  0  0  0  0  0  0  0  0  0  0  0
    6.4901   -5.7258   -7.1926 H   0  0  0  0  0  0  0  0  0  0  0  0
    5.2135   -5.6045   -6.0553 H   0  0  0  0  0  0  0  0  0  0  0  0
    4.7900   -7.5983   -7.4056 H   0  0  0  0  0  0  0  0  0  0  0  0
    3.5298   -6.4811   -7.7335 H   0  0  0  0  0  0  0  0  0  0  0  0
    4.3576   -7.3724   -9.8728 H   0  0  0  0  0  0  0  0  0  0  0  0
    4.6905   -5.6651   -9.8169 H   0  0  0  0  0  0  0  0  0  0  0  0
    6.6903   -6.8499  -10.6160 H   0  0  0  0  0  0  0  0  0  0  0  0
    7.0572   -6.1101   -9.0813 H   0  0  0  0  0  0  0  0  0  0  0  0
    6.2243   -9.0242   -9.4620 H   0  0  0  0  0  0  0  0  0  0  0  0
    7.8734   -8.4440   -9.0966 H   0  0  0  0  0  0  0  0  0  0  0  0
    6.6086   -8.2968   -7.8953 H   0  0  0  0  0  0  0  0  0  0  0  0
    5.1948    8.1450   -7.6817 H   0  0  0  0  0  0  0  0  0  0  0  0
    5.1845    6.7580   -6.6839 H   0  0  0  0  0  0  0  0  0  0  0  0
    5.1144    5.9750   -8.9973 H   0  0  0  0  0  0  0  0  0  0  0  0
    3.6367    5.5184   -8.2649 H   0  0  0  0  0  0  0  0  0  0  0  0
    3.0859    5.5811   -2.8993 H   0  0  0  0  0  0  0  0  0  0  0  0
    1.9969    5.1552   -2.0856 H   0  0  0  0  0  0  0  0  0  0  0  0
    1.0991    6.0705   -3.9999 H   0  0  0  0  0  0  0  0  0  0  0  0
    0.4496    6.9030   -2.6655 H   0  0  0  0  0  0  0  0  0  0  0  0
    1.7845    8.2059   -4.3367 H   0  0  0  0  0  0  0  0  0  0  0  0
    2.5911    8.2587   -2.7749 H   0  0  0  0  0  0  0  0  0  0  0  0
    4.3355    7.7010   -4.4968 H   0  0  0  0  0  0  0  0  0  0  0  0
    4.3487    6.4160   -3.4821 H   0  0  0  0  0  0  0  0  0  0  0  0
    4.1663    5.4206   -5.6945 H   0  0  0  0  0  0  0  0  0  0  0  0
    2.7093    5.0087   -4.9332 H   0  0  0  0  0  0  0  0  0  0  0  0
    2.1223    5.9785   -7.1042 H   0  0  0  0  0  0  0  0  0  0  0  0
    1.4860    6.9933   -5.8894 H   0  0  0  0  0  0  0  0  0  0  0  0
    2.6781    8.4460   -7.4483 H   0  0  0  0  0  0  0  0  0  0  0  0
    3.5075    8.5315   -5.9685 H   0  0  0  0  0  0  0  0  0  0  0  0
    3.0878    6.5536  -10.4112 H   0  0  0  0  0  0  0  0  0  0  0  0
    2.4499    7.5630   -9.1855 H   0  0  0  0  0  0  0  0  0  0  0  0
    3.6474    9.0044  -10.7560 H   0  0  0  0  0  0  0  0  0  0  0  0
    4.4807    9.0815   -9.2622 H   0  0  0  0  0  0  0  0  0  0  0  0
    6.1535    8.7137  -11.0085 H   0  0  0  0  0  0  0  0  0  0  0  0
    6.1470    7.3220  -10.0074 H   0  0  0  0  0  0  0  0  0  0  0  0
    6.0820    6.5493  -12.3266 H   0  0  0  0  0  0  0  0  0  0  0  0
    4.6017    6.0910  -11.5939 H   0  0  0  0  0  0  0  0  0  0  0  0
    4.0554    7.1154  -13.7456 H   0  0  0  0  0  0  0  0  0  0  0  0
    3.4211    8.1332  -12.5186 H   0  0  0  0  0  0  0  0  0  0  0  0
    4.6066    9.5342  -14.1582 H   0  0  0  0  0  0  0  0  0  0  0  0
    5.4313    9.6498  -12.6301 H   0  0  0  0  0  0  0  0  0  0  0  0
    7.0870    9.3150  -14.4157 H   0  0  0  0  0  0  0  0  0  0  0  0
    7.1145    7.9264  -13.3629 H   0  0  0  0  0  0  0  0  0  0  0  0
    5.5731    8.0939  -15.9948 H   0  0  0  0  0  0  0  0  0  0  0  0
    7.0847    7.1829  -15.7208 H   0  0  0  0  0  0  0  0  0  0  0  0
    5.6009    6.6673  -14.9481 H   0  0  0  0  0  0  0  0  0  0  0  0
   -1.6949   -0.2170    7.0908 H   0  0  0  0  0  0  0  0  0  0  0  0
   -0.9758   -0.6958    5.6060 H   0  0  0  0  0  0  0  0  0  0  0  0
    0.7458   -0.9041    7.3318 H   0  0  0  0  0  0  0  0  0  0  0  0
    1.2851    0.2840    6.2382 H   0  0  0  0  0  0  0  0  0  0  0  0
   -0.8283   -0.0239    0.7097 H   0  0  0  0  0  0  0  0  0  0  0  0
   -0.9440    1.2780   -0.1691 H   0  0  0  0  0  0  0  0  0  0  0  0
   -0.3905    1.9703    1.9688 H   0  0  0  0  0  0  0  0  0  0  0  0
   -1.8289    2.8017    1.3783 H   0  0  0  0  0  0  0  0  0  0  0  0
   -1.9878    2.8126    3.3369 H   0  0  0  0  0  0  0  0  0  0  0  0
   -3.2181    2.0261    2.3465 H   0  0  0  0  0  0  0  0  0  0  0  0
   -2.4372    0.2478    3.9255 H   0  0  0  0  0  0  0  0  0  0  0  0
   -1.7152   -0.1812    2.4319 H   0  0  0  0  0  0  0  0  0  0  0  0
    0.0732   -0.3322    4.0332 H   0  0  0  0  0  0  0  0  0  0  0  0
    0.5630    0.8650    2.9988 H   0  0  0  0  0  0  0  0  0  0  0  0
    0.7840    1.8198    5.2281 H   0  0  0  0  0  0  0  0  0  0  0  0
   -0.6614    2.6461    4.6240 H   0  0  0  0  0  0  0  0  0  0  0  0
   -1.2306    2.2452    6.5977 H   0  0  0  0  0  0  0  0  0  0  0  0
   -2.2582    1.5049    5.4364 H   0  0  0  0  0  0  0  0  0  0  0  0
    1.5680    1.2023    8.4861 H   0  0  0  0  0  0  0  0  0  0  0  0
    0.4091    2.1734    7.6858 H   0  0  0  0  0  0  0  0  0  0  0  0
   -0.5094    1.6181    9.8862 H   0  0  0  0  0  0  0  0  0  0  0  0
   -1.5148    0.8805    8.7152 H   0  0  0  0  0  0  0  0  0  0  0  0
   -1.0169   -0.8136   10.4064 H   0  0  0  0  0  0  0  0  0  0  0  0
   -0.2983   -1.3343    8.9411 H   0  0  0  0  0  0  0  0  0  0  0  0
    1.3850   -1.5733   10.6970 H   0  0  0  0  0  0  0  0  0  0  0  0
    1.9509   -0.3766    9.6082 H   0  0  0  0  0  0  0  0  0  0  0  0
    2.2319    0.5135   11.8678 H   0  0  0  0  0  0  0  0  0  0  0  0
    1.0653    1.4899   11.0747 H   0  0  0  0  0  0  0  0  0  0  0  0
    0.2146    0.9225   13.3131 H   0  0  0  0  0  0  0  0  0  0  0  0
   -0.8346    0.2072   12.1232 H   0  0  0  0  0  0  0  0  0  0  0  0
   -0.3399   -1.4556   13.8644 H   0  0  0  0  0  0  0  0  0  0  0  0
    0.3420   -2.0066   12.3582 H   0  0  0  0  0  0  0  0  0  0  0  0
    1.8861   -0.5234   14.5368 H   0  0  0  0  0  0  0  0  0  0  0  0
    2.0048   -2.2672   14.1694 H   0  0  0  0  0  0  0  0  0  0  0  0
    2.6021   -1.0891   13.0206 H   0  0  0  0  0  0  0  0  0  0  0  0
  -10.6938    2.5660   -0.4341 H   0  0  0  0  0  0  0  0  0  0  0  0
   -9.6289    1.4792   -1.2165 H   0  0  0  0  0  0  0  0  0  0  0  0
  -10.8530    0.2004    0.4691 H   0  0  0  0  0  0  0  0  0  0  0  0
   -9.2065    0.2087    0.9381 H   0  0  0  0  0  0  0  0  0  0  0  0
   -5.0762    1.1009   -3.2058 H   0  0  0  0  0  0  0  0  0  0  0  0
   -3.5749    0.9331   -2.8590 H   0  0  0  0  0  0  0  0  0  0  0  0
   -4.7695    1.7917   -0.8136 H   0  0  0  0  0  0  0  0  0  0  0  0
   -3.7641    3.1764   -1.1713 H   0  0  0  0  0  0  0  0  0  0  0  0
   -5.9131    3.8139   -0.6401 H   0  0  0  0  0  0  0  0  0  0  0  0
   -5.6031    4.1650   -2.2999 H   0  0  0  0  0  0  0  0  0  0  0  0
   -7.7648    2.9887   -2.2120 H   0  0  0  0  0  0  0  0  0  0  0  0
   -6.6898    1.9205   -2.9880 H   0  0  0  0  0  0  0  0  0  0  0  0
   -7.8634    0.6208   -1.2931 H   0  0  0  0  0  0  0  0  0  0  0  0
   -6.2256    0.6299   -0.8371 H   0  0  0  0  0  0  0  0  0  0  0  0
   -7.5203    1.2110    1.1513 H   0  0  0  0  0  0  0  0  0  0  0  0
   -6.5754    2.5808    0.7499 H   0  0  0  0  0  0  0  0  0  0  0  0
   -8.8630    3.3657    1.1321 H   0  0  0  0  0  0  0  0  0  0  0  0
   -8.5011    3.6427   -0.5163 H   0  0  0  0  0  0  0  0  0  0  0  0
  -10.5242    0.7867    2.9153 H   0  0  0  0  0  0  0  0  0  0  0  0
   -9.5801    2.1583    2.5171 H   0  0  0  0  0  0  0  0  0  0  0  0
  -11.8663    2.9393    2.8956 H   0  0  0  0  0  0  0  0  0  0  0  0
  -11.5031    3.2152    1.2450 H   0  0  0  0  0  0  0  0  0  0  0  0
  -13.7000    2.1431    1.3362 H   0  0  0  0  0  0  0  0  0  0  0  0
  -12.6332    1.0544    0.5512 H   0  0  0  0  0  0  0  0  0  0  0  0
  -13.8647   -0.2216    2.2351 H   0  0  0  0  0  0  0  0  0  0  0  0
  -12.2161   -0.2136    2.7049 H   0  0  0  0  0  0  0  0  0  0  0  0
  -13.5339    0.3524    4.6850 H   0  0  0  0  0  0  0  0  0  0  0  0
  -12.5944    1.7311    4.2842 H   0  0  0  0  0  0  0  0  0  0  0  0
  -14.9043    2.4610    4.7179 H   0  0  0  0  0  0  0  0  0  0  0  0
  -14.5243    2.7832    3.0505 H   0  0  0  0  0  0  0  0  0  0  0  0
  -16.7442    1.7363    3.1829 H   0  0  0  0  0  0  0  0  0  0  0  0
  -15.6688    0.6567    2.3372 H   0  0  0  0  0  0  0  0  0  0  0  0
  -16.3472    0.4736    5.3099 H   0  0  0  0  0  0  0  0  0  0  0  0
  -16.9584   -0.6073    4.0262 H   0  0  0  0  0  0  0  0  0  0  0  0
  -15.2646   -0.6437    4.4667 H   0  0  0  0  0  0  0  0  0  0  0  0
  1  3  1  0  0  0  0
  1101  1  6  0  0  0
  1  2  1  0  0  0  0
  1 32  1  0  0  0  0
  2  4  1  0  0  0  0
  2102  1  0  0  0  0
  2103  1  0  0  0  0
  3 52  1  0  0  0  0
  3104  1  0  0  0  0
  3105  1  0  0  0  0
  4  5  1  0  0  0  0
  5  6  1  0  0  0  0
  5  7  1  0  0  0  0
  5  8  2  0  0  0  0
  6  9  1  0  0  0  0
  7106  1  0  0  0  0
  9 10  1  0  0  0  0
  9107  1  0  0  0  0
  9108  1  0  0  0  0
 10 11  1  0  0  0  0
 10 12  1  0  0  0  0
 10109  1  0  0  0  0
 11 13  1  0  0  0  0
 11110  1  0  0  0  0
 11111  1  0  0  0  0
 12112  1  0  0  0  0
 13 14  1  0  0  0  0
 14 15  1  0  0  0  0
 14 16  1  0  0  0  0
 14 17  2  0  0  0  0
 15 18  1  0  0  0  0
 16113  1  0  0  0  0
 18114  1  0  0  0  0
 18115  1  0  0  0  0
 19 20  1  0  0  0  0
 19116  1  1  0  0  0
 19 72  1  0  0  0  0
 19 18  1  0  0  0  0
 20 92  1  0  0  0  0
 20117  1  0  0  0  0
 20118  1  0  0  0  0
 21 22  1  0  0  0  0
 21119  1  0  0  0  0
 21120  1  0  0  0  0
 22121  1  0  0  0  0
 22122  1  0  0  0  0
 23 24  1  0  0  0  0
 23 25  2  0  0  0  0
 23 32  1  0  0  0  0
 24 26  1  0  0  0  0
 24123  1  0  0  0  0
 24124  1  0  0  0  0
 26 27  1  0  0  0  0
 26125  1  0  0  0  0
 26126  1  0  0  0  0
 27 28  1  0  0  0  0
 27127  1  0  0  0  0
 27128  1  0  0  0  0
 28 29  1  0  0  0  0
 28129  1  0  0  0  0
 28130  1  0  0  0  0
 29 30  1  0  0  0  0
 29131  1  0  0  0  0
 29132  1  0  0  0  0
 30 31  1  0  0  0  0
 30133  1  0  0  0  0
 30134  1  0  0  0  0
 31 21  1  0  0  0  0
 31135  1  0  0  0  0
 31136  1  0  0  0  0
 33 22  1  0  0  0  0
 33137  1  0  0  0  0
 33138  1  0  0  0  0
 34 33  1  0  0  0  0
 34139  1  0  0  0  0
 34140  1  0  0  0  0
 35 34  1  0  0  0  0
 35141  1  0  0  0  0
 35142  1  0  0  0  0
 36 35  1  0  0  0  0
 36143  1  0  0  0  0
 36144  1  0  0  0  0
 37 36  1  0  0  0  0
 37145  1  0  0  0  0
 37146  1  0  0  0  0
 38 37  1  0  0  0  0
 38147  1  0  0  0  0
 38148  1  0  0  0  0
 39 38  1  0  0  0  0
 39149  1  0  0  0  0
 39150  1  0  0  0  0
 40 39  1  0  0  0  0
 40151  1  0  0  0  0
 40152  1  0  0  0  0
 40153  1  0  0  0  0
 41 42  1  0  0  0  0
 41154  1  0  0  0  0
 41155  1  0  0  0  0
 42156  1  0  0  0  0
 42157  1  0  0  0  0
 43 44  1  0  0  0  0
 43 45  2  0  0  0  0
 43 52  1  0  0  0  0
 44 46  1  0  0  0  0
 44158  1  0  0  0  0
 44159  1  0  0  0  0
 46 47  1  0  0  0  0
 46160  1  0  0  0  0
 46161  1  0  0  0  0
 47 48  1  0  0  0  0
 47162  1  0  0  0  0
 47163  1  0  0  0  0
 48 49  1  0  0  0  0
 48164  1  0  0  0  0
 48165  1  0  0  0  0
 49 50  1  0  0  0  0
 49166  1  0  0  0  0
 49167  1  0  0  0  0
 50 51  1  0  0  0  0
 50168  1  0  0  0  0
 50169  1  0  0  0  0
 51 41  1  0  0  0  0
 51170  1  0  0  0  0
 51171  1  0  0  0  0
 53 42  1  0  0  0  0
 53172  1  0  0  0  0
 53173  1  0  0  0  0
 54 53  1  0  0  0  0
 54174  1  0  0  0  0
 54175  1  0  0  0  0
 55 54  1  0  0  0  0
 55176  1  0  0  0  0
 55177  1  0  0  0  0
 56 55  1  0  0  0  0
 56178  1  0  0  0  0
 56179  1  0  0  0  0
 57 56  1  0  0  0  0
 57180  1  0  0  0  0
 57181  1  0  0  0  0
 58 57  1  0  0  0  0
 58182  1  0  0  0  0
 58183  1  0  0  0  0
 59 58  1  0  0  0  0
 59184  1  0  0  0  0
 59185  1  0  0  0  0
 60 59  1  0  0  0  0
 60186  1  0  0  0  0
 60187  1  0  0  0  0
 60188  1  0  0  0  0
 61 62  1  0  0  0  0
 61189  1  0  0  0  0
 61190  1  0  0  0  0
 62191  1  0  0  0  0
 62192  1  0  0  0  0
 63 64  1  0  0  0  0
 63 65  2  0  0  0  0
 63 72  1  0  0  0  0
 64 66  1  0  0  0  0
 64193  1  0  0  0  0
 64194  1  0  0  0  0
 66 67  1  0  0  0  0
 66195  1  0  0  0  0
 66196  1  0  0  0  0
 67 68  1  0  0  0  0
 67197  1  0  0  0  0
 67198  1  0  0  0  0
 68 69  1  0  0  0  0
 68199  1  0  0  0  0
 68200  1  0  0  0  0
 69 70  1  0  0  0  0
 69201  1  0  0  0  0
 69202  1  0  0  0  0
 70 71  1  0  0  0  0
 70203  1  0  0  0  0
 70204  1  0  0  0  0
 71 61  1  0  0  0  0
 71205  1  0  0  0  0
 71206  1  0  0  0  0
 73 62  1  0  0  0  0
 73207  1  0  0  0  0
 73208  1  0  0  0  0
 74 73  1  0  0  0  0
 74209  1  0  0  0  0
 74210  1  0  0  0  0
 75 74  1  0  0  0  0
 75211  1  0  0  0  0
 75212  1  0  0  0  0
 76 75  1  0  0  0  0
 76213  1  0  0  0  0
 76214  1  0  0  0  0
 77 76  1  0  0  0  0
 77215  1  0  0  0  0
 77216  1  0  0  0  0
 78 77  1  0  0  0  0
 78217  1  0  0  0  0
 78218  1  0  0  0  0
 79 78  1  0  0  0  0
 79219  1  0  0  0  0
 79220  1  0  0  0  0
 80 79  1  0  0  0  0
 80221  1  0  0  0  0
 80222  1  0  0  0  0
 80223  1  0  0  0  0
 81 82  1  0  0  0  0
 81224  1  0  0  0  0
 81225  1  0  0  0  0
 82226  1  0  0  0  0
 82227  1  0  0  0  0
 83 84  1  0  0  0  0
 83 85  2  0  0  0  0
 83 92  1  0  0  0  0
 84 86  1  0  0  0  0
 84228  1  0  0  0  0
 84229  1  0  0  0  0
 86 87  1  0  0  0  0
 86230  1  0  0  0  0
 86231  1  0  0  0  0
 87 88  1  0  0  0  0
 87232  1  0  0  0  0
 87233  1  0  0  0  0
 88 89  1  0  0  0  0
 88234  1  0  0  0  0
 88235  1  0  0  0  0
 89 90  1  0  0  0  0
 89236  1  0  0  0  0
 89237  1  0  0  0  0
 90 91  1  0  0  0  0
 90238  1  0  0  0  0
 90239  1  0  0  0  0
 91 81  1  0  0  0  0
 91240  1  0  0  0  0
 91241  1  0  0  0  0
 93 82  1  0  0  0  0
 93242  1  0  0  0  0
 93243  1  0  0  0  0
 94 93  1  0  0  0  0
 94244  1  0  0  0  0
 94245  1  0  0  0  0
 95 94  1  0  0  0  0
 95246  1  0  0  0  0
 95247  1  0  0  0  0
 96 95  1  0  0  0  0
 96248  1  0  0  0  0
 96249  1  0  0  0  0
 97 96  1  0  0  0  0
 97250  1  0  0  0  0
 97251  1  0  0  0  0
 98 97  1  0  0  0  0
 98252  1  0  0  0  0
 98253  1  0  0  0  0
 99 98  1  0  0  0  0
 99254  1  0  0  0  0
 99255  1  0  0  0  0
100 99  1  0  0  0  0
100256  1  0  0  0  0
100257  1  0  0  0  0
100258  1  0  0  0  0
M  END
>  <DRUGBANK_ID>
DB03429

>  <SECONDARY_ACCESSION_NUMBERS>
EXPT00874

>  <COMMON_NAME>
Tetrastearoyl cardiolipin

>  <SYNONYMS>
1,1'2,2'-tetra-dodecanoyl cardiolipin; 1,1'2,2'-tetra-dodecanoylcardiolipin; 1,1'2,2'-tetrastearoyl cardiolipin; 1,1'2,2'-tetrastearoylcardiolipin; tetra-dodecanoyl cardiolipin; tetra-dodecanoylcardiolipin; tetrastearoylcardiolipin

$$$$
