
 OpenBabel10282417203D

 75 79  0  0  1  0  0  0  0  0999 V2000
    0.9832   -0.1224   -0.1669 C   0  0  0  0  0  0  0  0  0  0  0  0
    0.4409    1.5579    0.0084 S   0  0  0  0  0  0  0  0  0  0  0  0
    0.9728    2.3358   -1.0911 O   0  0  0  0  0  0  0  0  0  0  0  0
   -0.9747    1.5596    0.3001 O   0  0  0  0  0  0  0  0  0  0  0  0
    1.2049    2.1443    1.3408 N   0  0  0  0  0  0  0  0  0  0  0  0
    1.8562    1.4073    2.3687 C   0  0  0  0  0  0  0  0  0  0  0  0
    3.0333    0.7658    1.9458 C   0  0  0  0  0  0  0  0  0  0  0  0
    3.9039    0.1526    2.8182 C   0  0  0  0  0  0  0  0  0  0  0  0
    3.6722    0.3219    4.1625 C   0  0  0  0  0  0  0  0  0  0  0  0
    2.5672    1.0710    4.6312 C   0  0  0  0  0  0  0  0  0  0  0  0
    1.5926    1.5530    3.7539 C   0  0  0  0  0  0  0  0  0  0  0  0
    0.5242    2.1162    4.4282 O   0  0  0  0  0  0  0  0  0  0  0  0
   -0.6325    2.6136    3.7200 C   0  0  0  0  0  0  0  0  0  0  0  0
   -0.2057    3.8158    2.9645 C   0  0  0  0  0  0  0  0  0  0  0  0
   -0.1026    5.2478    3.3431 C   0  0  0  0  0  0  0  0  0  0  0  0
   -1.0590    4.8132    2.2483 C   0  0  0  0  0  0  0  0  0  0  0  0
    4.5394   -0.3000    5.1369 C   0  0  0  0  0  0  0  0  0  0  0  0
    4.2683   -0.0590    6.3182 O   0  0  0  0  0  0  0  0  0  0  0  0
    5.5059   -1.1060    4.6761 O   0  0  0  0  0  0  0  0  0  0  0  0
    6.2969   -1.8461    5.6394 C   0  0  1  0  0  0  0  0  0  0  0  0
    7.2264   -0.9439    6.5637 C   0  0  0  0  0  0  0  0  0  0  0  0
    6.5550    0.0017    7.5540 C   0  0  0  0  0  0  0  0  0  0  0  0
    6.4903    1.3826    7.3857 C   0  0  0  0  0  0  0  0  0  0  0  0
    5.5560    2.1287    8.1060 C   0  0  0  0  0  0  0  0  0  0  0  0
    4.5767    1.5133    8.8657 N   0  3  0  0  0  0  0  0  0  0  0  0
    4.6682    0.1661    9.0760 C   0  0  0  0  0  0  0  0  0  0  0  0
    5.7943   -0.5073    8.6077 C   0  0  0  0  0  0  0  0  0  0  0  0
    6.4485   -1.7986    9.5510 Cl  0  0  0  0  0  0  0  0  0  0  0  0
    3.6794    2.2013    9.4429 O   0  5  0  0  0  0  0  0  0  0  0  0
    7.5755    2.2265    6.3491 Cl  0  0  0  0  0  0  0  0  0  0  0  0
    5.5354   -2.9906    6.3106 C   0  0  0  0  0  0  0  0  0  0  0  0
    5.9920   -4.2972    6.1547 C   0  0  0  0  0  0  0  0  0  0  0  0
    5.6471   -5.2741    7.0750 C   0  0  0  0  0  0  0  0  0  0  0  0
    4.9397   -4.9466    8.2200 C   0  0  0  0  0  0  0  0  0  0  0  0
    4.3580   -3.6772    8.3105 C   0  0  0  0  0  0  0  0  0  0  0  0
    4.5129   -2.7935    7.2399 C   0  0  0  0  0  0  0  0  0  0  0  0
    3.6887   -3.1106    9.3717 O   0  0  0  0  0  0  0  0  0  0  0  0
    3.4343   -3.9334   10.5034 C   0  0  0  0  0  0  0  0  0  0  0  0
    2.1717   -4.7037   10.2106 C   0  0  0  0  0  0  0  0  0  0  0  0
    2.0814   -6.2061   10.2470 C   0  0  0  0  0  0  0  0  0  0  0  0
    1.9926   -5.4890    8.9213 C   0  0  0  0  0  0  0  0  0  0  0  0
    4.7889   -5.8752    9.2120 O   0  0  0  0  0  0  0  0  0  0  0  0
    4.5849   -7.2318    8.8060 C   0  0  0  0  0  0  0  0  0  0  0  0
    3.9984   -7.3174    7.5843 F   0  0  0  0  0  0  0  0  0  0  0  0
    5.7926   -7.8285    8.7428 F   0  0  0  0  0  0  0  0  0  0  0  0
    0.5301   -0.5235   -1.0703 H   0  0  0  0  0  0  0  0  0  0  0  0
    0.6589   -0.6790    0.7139 H   0  0  0  0  0  0  0  0  0  0  0  0
    2.0614   -0.1567   -0.2982 H   0  0  0  0  0  0  0  0  0  0  0  0
    1.5366    3.0969    1.1675 H   0  0  0  0  0  0  0  0  0  0  0  0
    3.3144    0.7615    0.9019 H   0  0  0  0  0  0  0  0  0  0  0  0
    4.7608   -0.3948    2.4422 H   0  0  0  0  0  0  0  0  0  0  0  0
    2.4693    1.2711    5.7032 H   0  0  0  0  0  0  0  0  0  0  0  0
   -1.0085    1.8046    3.0788 H   0  0  0  0  0  0  0  0  0  0  0  0
   -1.4368    2.8288    4.4387 H   0  0  0  0  0  0  0  0  0  0  0  0
    0.7834    3.6173    2.6571 H   0  0  0  0  0  0  0  0  0  0  0  0
   -0.4108    5.5309    4.3317 H   0  0  0  0  0  0  0  0  0  0  0  0
    0.8570    5.6765    3.0366 H   0  0  0  0  0  0  0  0  0  0  0  0
   -0.7891    5.0302    1.2164 H   0  0  0  0  0  0  0  0  0  0  0  0
   -2.1230    4.8420    2.4337 H   0  0  0  0  0  0  0  0  0  0  0  0
    7.0406   -2.3592    5.0049 H   0  0  0  0  0  0  0  0  0  0  0  0
    7.9273   -1.5774    7.1210 H   0  0  0  0  0  0  0  0  0  0  0  0
    7.8511   -0.3637    5.8747 H   0  0  0  0  0  0  0  0  0  0  0  0
    5.4861    3.2029    8.1147 H   0  0  0  0  0  0  0  0  0  0  0  0
    3.8506   -0.2552    9.6416 H   0  0  0  0  0  0  0  0  0  0  0  0
    6.6723   -4.5770    5.3589 H   0  0  0  0  0  0  0  0  0  0  0  0
    5.9975   -6.2865    6.9276 H   0  0  0  0  0  0  0  0  0  0  0  0
    3.9384   -1.8786    7.2872 H   0  0  0  0  0  0  0  0  0  0  0  0
    4.3325   -4.4704   10.8442 H   0  0  0  0  0  0  0  0  0  0  0  0
    3.2360   -3.2734   11.3616 H   0  0  0  0  0  0  0  0  0  0  0  0
    1.3206   -4.1404   10.5575 H   0  0  0  0  0  0  0  0  0  0  0  0
    2.9468   -6.6560   10.7164 H   0  0  0  0  0  0  0  0  0  0  0  0
    1.1796   -6.7444   10.4982 H   0  0  0  0  0  0  0  0  0  0  0  0
    1.0670   -5.4044    8.3672 H   0  0  0  0  0  0  0  0  0  0  0  0
    2.7363   -5.5776    8.1480 H   0  0  0  0  0  0  0  0  0  0  0  0
    3.9601   -7.7853    9.5083 H   0  0  0  0  0  0  0  0  0  0  0  0
  1  2  1  0  0  0  0
  1 46  1  0  0  0  0
  1 47  1  0  0  0  0
  1 48  1  0  0  0  0
  2  3  2  0  0  0  0
  2  4  2  0  0  0  0
  2  5  1  0  0  0  0
  5  6  1  0  0  0  0
  5 49  1  0  0  0  0
  6  7  2  0  0  0  0
  6 11  1  0  0  0  0
  7  8  1  0  0  0  0
  7 50  1  0  0  0  0
  8  9  2  0  0  0  0
  8 51  1  0  0  0  0
  9 10  1  0  0  0  0
  9 17  1  0  0  0  0
 10 11  2  0  0  0  0
 10 52  1  0  0  0  0
 11 12  1  0  0  0  0
 12 13  1  0  0  0  0
 13 14  1  0  0  0  0
 13 53  1  0  0  0  0
 13 54  1  0  0  0  0
 14 15  1  0  0  0  0
 14 16  1  0  0  0  0
 14 55  1  0  0  0  0
 15 16  1  0  0  0  0
 15 56  1  0  0  0  0
 15 57  1  0  0  0  0
 16 58  1  0  0  0  0
 16 59  1  0  0  0  0
 17 18  2  0  0  0  0
 17 19  1  0  0  0  0
 20 19  1  0  0  0  0
 20 21  1  0  0  0  0
 20 31  1  0  0  0  0
 20 60  1  6  0  0  0
 21 22  1  0  0  0  0
 21 61  1  0  0  0  0
 21 62  1  0  0  0  0
 22 23  2  0  0  0  0
 22 27  1  0  0  0  0
 23 24  1  0  0  0  0
 23 30  1  0  0  0  0
 24 25  2  0  0  0  0
 24 63  1  0  0  0  0
 25 26  1  0  0  0  0
 25 29  1  0  0  0  0
 26 27  2  0  0  0  0
 26 64  1  0  0  0  0
 27 28  1  0  0  0  0
 31 32  2  0  0  0  0
 31 36  1  0  0  0  0
 32 33  1  0  0  0  0
 32 65  1  0  0  0  0
 33 34  2  0  0  0  0
 33 66  1  0  0  0  0
 34 35  1  0  0  0  0
 34 42  1  0  0  0  0
 35 36  2  0  0  0  0
 35 37  1  0  0  0  0
 36 67  1  0  0  0  0
 37 38  1  0  0  0  0
 38 39  1  0  0  0  0
 38 68  1  0  0  0  0
 38 69  1  0  0  0  0
 39 40  1  0  0  0  0
 39 41  1  0  0  0  0
 39 70  1  0  0  0  0
 40 41  1  0  0  0  0
 40 71  1  0  0  0  0
 40 72  1  0  0  0  0
 41 73  1  0  0  0  0
 41 74  1  0  0  0  0
 42 43  1  0  0  0  0
 43 44  1  0  0  0  0
 43 45  1  0  0  0  0
 43 75  1  0  0  0  0
M  CHG  2  25   1  29  -1
M  END
>  <DRUGBANK_ID>
DB12800

>  <COMMON_NAME>
CHF-6001

>  <CAS_NUMBER>
1239278-59-1

>  <UNII>
0984EU6E2F

$$$$
