1CN
 OpenBabel10282417163D

 29 30  0  0  0  0  0  0  0  0999 V2000
    0.8673    0.1621    0.0662 S   0  0  0  0  0  0  0  0  0  0  0  0
    0.4730   -0.4170   -1.2160 O   0  0  0  0  0  0  0  0  0  0  0  0
    0.4672   -0.4198    1.3091 O   0  0  0  0  0  0  0  0  0  0  0  0
    0.2513    1.7288    0.0089 N   0  0  0  0  0  0  0  0  0  0  0  0
    3.3244   -0.8433   -0.3155 N   0  0  0  0  0  0  0  0  0  0  0  0
    4.5663   -0.4663   -0.7469 N   0  0  0  0  0  0  0  0  0  0  0  0
    3.5785    1.6420    0.1844 S   0  0  0  0  0  0  0  0  0  0  0  0
    2.6260    0.2090    0.0228 C   0  0  0  0  0  0  0  0  0  0  0  0
    4.9581    0.6529   -0.2057 C   0  0  0  0  0  0  0  0  0  0  0  0
    6.3244    0.9736   -0.0515 N   0  0  0  0  0  0  0  0  0  0  0  0
    7.6288   -0.1169   -0.0855 S   0  0  0  0  0  0  0  0  0  0  0  0
    8.2885    0.1102   -1.3564 O   0  0  0  0  0  0  0  0  0  0  0  0
    8.3551    0.1351    1.1447 O   0  0  0  0  0  0  0  0  0  0  0  0
    5.9619   -2.2884    0.2811 C   0  0  0  0  0  0  0  0  0  0  0  0
    8.1927   -2.8699   -0.1777 C   0  0  0  0  0  0  0  0  0  0  0  0
    5.5242   -3.5800    0.0709 C   0  0  0  0  0  0  0  0  0  0  0  0
    6.4279   -4.6087   -0.1002 C   0  0  0  0  0  0  0  0  0  0  0  0
    7.7854   -4.2332   -0.1534 C   0  0  0  0  0  0  0  0  0  0  0  0
    7.2333   -1.8635   -0.0169 C   0  0  0  0  0  0  0  0  0  0  0  0
    4.2097   -3.8329    0.1651 F   0  0  0  0  0  0  0  0  0  0  0  0
    9.0016   -5.4644   -0.1511 Cl  0  0  0  0  0  0  0  0  0  0  0  0
    5.9669   -5.9148    0.0863 N   0  0  0  0  0  0  0  0  0  0  0  0
    0.5504    2.1797   -0.8551 H   0  0  0  0  0  0  0  0  0  0  0  0
   -0.7697    1.6667    0.0473 H   0  0  0  0  0  0  0  0  0  0  0  0
    6.5988    1.9445    0.0760 H   0  0  0  0  0  0  0  0  0  0  0  0
    5.2628   -1.6420    0.7704 H   0  0  0  0  0  0  0  0  0  0  0  0
    9.2531   -2.6255   -0.2318 H   0  0  0  0  0  0  0  0  0  0  0  0
    6.5846   -6.6900   -0.1106 H   0  0  0  0  0  0  0  0  0  0  0  0
    4.9656   -6.0661   -0.0269 H   0  0  0  0  0  0  0  0  0  0  0  0
  1  2  2  0  0  0  0
  1  3  2  0  0  0  0
  1  4  1  0  0  0  0
  1  8  1  0  0  0  0
  4 23  1  0  0  0  0
  4 24  1  0  0  0  0
  5  6  1  0  0  0  0
  5  8  2  0  0  0  0
  6  9  2  0  0  0  0
  7  8  1  0  0  0  0
  7  9  1  0  0  0  0
  9 10  1  0  0  0  0
 10 11  1  0  0  0  0
 10 25  1  0  0  0  0
 11 12  2  0  0  0  0
 11 13  2  0  0  0  0
 11 19  1  0  0  0  0
 14 16  1  0  0  0  0
 14 19  2  0  0  0  0
 14 26  1  0  0  0  0
 15 18  2  0  0  0  0
 15 19  1  0  0  0  0
 15 27  1  0  0  0  0
 16 17  2  0  0  0  0
 16 20  1  0  0  0  0
 17 18  1  0  0  0  0
 17 22  1  0  0  0  0
 18 21  1  0  0  0  0
 22 28  1  0  0  0  0
 22 29  1  0  0  0  0
M  END
>  <DRUGBANK_ID>
DB06891

>  <COMMON_NAME>
5-{[(4-AMINO-3-CHLORO-5-FLUOROPHENYL)SULFONYL]AMINO}-1,3,4-THIADIAZOLE-2-SULFONAMIDE

$$$$
