
 OpenBabel10282417203D

 56 58  0  0  0  0  0  0  0  0999 V2000
    1.0480    0.0597    0.0595 C   0  0  0  0  0  0  0  0  0  0  0  0
    0.5495   -1.2435   -0.3810 N   0  0  0  0  0  0  0  0  0  0  0  0
   -0.9120   -1.2719   -0.3711 C   0  0  0  0  0  0  0  0  0  0  0  0
    1.0860   -1.6096   -1.7019 C   0  0  0  0  0  0  0  0  0  0  0  0
    0.6763   -0.7207   -2.8212 C   0  0  0  0  0  0  0  0  0  0  0  0
    0.0118   -0.9791   -3.9933 C   0  0  0  0  0  0  0  0  0  0  0  0
   -0.0372    0.2506   -4.6684 C   0  0  0  0  0  0  0  0  0  0  0  0
    0.4980    1.2154   -3.8464 C   0  0  0  0  0  0  0  0  0  0  0  0
    0.9965    0.6046   -2.7390 O   0  0  0  0  0  0  0  0  0  0  0  0
    0.7043    2.6801   -3.9717 C   0  0  0  0  0  0  0  0  0  0  0  0
   -0.1713    3.6857   -2.7347 S   0  0  0  0  0  0  0  0  0  0  0  0
   -1.9089    3.2045   -3.0170 C   0  0  0  0  0  0  0  0  0  0  0  0
   -2.4355    3.6179   -4.3919 C   0  0  0  0  0  0  0  0  0  0  0  0
   -2.0940    2.6994   -5.4701 N   0  0  0  0  0  0  0  0  0  0  0  0
   -2.8133    1.7444   -6.1858 C   0  0  0  0  0  0  0  0  0  0  0  0
   -2.1361    1.0840   -7.1696 C   0  0  0  0  0  0  0  0  0  0  0  0
   -2.6836   -0.0144   -7.9378 N   0  3  0  0  0  0  0  0  0  0  0  0
   -1.8618   -0.6093   -8.6663 O   0  0  0  0  0  0  0  0  0  0  0  0
   -3.8741   -0.3045   -7.8473 O   0  5  0  0  0  0  0  0  0  0  0  0
   -4.1205    1.4485   -5.9054 N   0  0  0  0  0  0  0  0  0  0  0  0
   -5.0905    2.0377   -5.0281 C   0  0  0  0  0  0  0  0  0  0  0  0
   -6.0039    2.9501   -5.7938 C   0  0  0  0  0  0  0  0  0  0  0  0
   -5.8384    4.3595   -5.8137 C   0  0  0  0  0  0  0  0  0  0  0  0
   -6.7261    5.1792   -6.5154 C   0  0  0  0  0  0  0  0  0  0  0  0
   -7.7540    4.5588   -7.1872 C   0  0  0  0  0  0  0  0  0  0  0  0
   -7.9071    3.1914   -7.1820 C   0  0  0  0  0  0  0  0  0  0  0  0
   -7.0491    2.3617   -6.5097 C   0  0  0  0  0  0  0  0  0  0  0  0
   -8.9866    2.7770   -7.8903 O   0  0  0  0  0  0  0  0  0  0  0  0
   -9.5402    4.0456   -8.2820 C   0  0  0  0  0  0  0  0  0  0  0  0
   -8.7213    5.1766   -7.9145 O   0  0  0  0  0  0  0  0  0  0  0  0
    0.7509    0.2570    1.0928 H   0  0  0  0  0  0  0  0  0  0  0  0
    0.6614    0.8937   -0.5325 H   0  0  0  0  0  0  0  0  0  0  0  0
    2.1432    0.0849    0.0242 H   0  0  0  0  0  0  0  0  0  0  0  0
   -1.3554   -0.5538   -1.0702 H   0  0  0  0  0  0  0  0  0  0  0  0
   -1.2790   -2.2723   -0.6278 H   0  0  0  0  0  0  0  0  0  0  0  0
   -1.2921   -1.0423    0.6295 H   0  0  0  0  0  0  0  0  0  0  0  0
    2.1812   -1.6549   -1.6723 H   0  0  0  0  0  0  0  0  0  0  0  0
    0.7623   -2.6328   -1.9388 H   0  0  0  0  0  0  0  0  0  0  0  0
   -0.3516   -1.9401   -4.3293 H   0  0  0  0  0  0  0  0  0  0  0  0
   -0.4212    0.3957   -5.6487 H   0  0  0  0  0  0  0  0  0  0  0  0
    1.7669    2.9092   -3.8662 H   0  0  0  0  0  0  0  0  0  0  0  0
    0.4566    3.0324   -4.9741 H   0  0  0  0  0  0  0  0  0  0  0  0
   -2.0665    2.1434   -2.7958 H   0  0  0  0  0  0  0  0  0  0  0  0
   -2.4925    3.7515   -2.2617 H   0  0  0  0  0  0  0  0  0  0  0  0
   -3.4932    3.7701   -4.2735 H   0  0  0  0  0  0  0  0  0  0  0  0
   -2.1100    4.6257   -4.6677 H   0  0  0  0  0  0  0  0  0  0  0  0
   -1.1707    2.8692   -5.8422 H   0  0  0  0  0  0  0  0  0  0  0  0
   -1.0984    1.2153   -7.4314 H   0  0  0  0  0  0  0  0  0  0  0  0
   -4.5461    0.7978   -6.5755 H   0  0  0  0  0  0  0  0  0  0  0  0
   -5.6576    1.2294   -4.5575 H   0  0  0  0  0  0  0  0  0  0  0  0
   -4.7011    2.5444   -4.1580 H   0  0  0  0  0  0  0  0  0  0  0  0
   -5.0224    4.8350   -5.2772 H   0  0  0  0  0  0  0  0  0  0  0  0
   -6.6162    6.2586   -6.5225 H   0  0  0  0  0  0  0  0  0  0  0  0
   -7.1849    1.2860   -6.5237 H   0  0  0  0  0  0  0  0  0  0  0  0
   -9.6737    4.0406   -9.3679 H   0  0  0  0  0  0  0  0  0  0  0  0
  -10.5160    4.1549   -7.7966 H   0  0  0  0  0  0  0  0  0  0  0  0
  1  2  1  0  0  0  0
  1 31  1  0  0  0  0
  1 32  1  0  0  0  0
  1 33  1  0  0  0  0
  2  3  1  0  0  0  0
  2  4  1  0  0  0  0
  3 34  1  0  0  0  0
  3 35  1  0  0  0  0
  3 36  1  0  0  0  0
  4  5  1  0  0  0  0
  4 37  1  0  0  0  0
  4 38  1  0  0  0  0
  5  6  2  0  0  0  0
  5  9  1  0  0  0  0
  6  7  1  0  0  0  0
  6 39  1  0  0  0  0
  7  8  2  0  0  0  0
  7 40  1  0  0  0  0
  8  9  1  0  0  0  0
  8 10  1  0  0  0  0
 10 11  1  0  0  0  0
 10 41  1  0  0  0  0
 10 42  1  0  0  0  0
 11 12  1  0  0  0  0
 12 13  1  0  0  0  0
 12 43  1  0  0  0  0
 12 44  1  0  0  0  0
 13 14  1  0  0  0  0
 13 45  1  0  0  0  0
 13 46  1  0  0  0  0
 14 15  1  0  0  0  0
 14 47  1  0  0  0  0
 15 16  2  3  0  0  0
 15 20  1  0  0  0  0
 16 17  1  0  0  0  0
 16 48  1  0  0  0  0
 17 18  2  0  0  0  0
 17 19  1  0  0  0  0
 20 21  1  0  0  0  0
 20 49  1  0  0  0  0
 21 22  1  0  0  0  0
 21 50  1  0  0  0  0
 21 51  1  0  0  0  0
 22 23  2  0  0  0  0
 22 27  1  0  0  0  0
 23 24  1  0  0  0  0
 23 52  1  0  0  0  0
 24 25  2  0  0  0  0
 24 53  1  0  0  0  0
 25 26  1  0  0  0  0
 25 30  1  0  0  0  0
 26 27  2  0  0  0  0
 26 28  1  0  0  0  0
 27 54  1  0  0  0  0
 28 29  1  0  0  0  0
 29 30  1  0  0  0  0
 29 55  1  0  0  0  0
 29 56  1  0  0  0  0
M  CHG  2  17   1  19  -1
M  END
>  <DRUGBANK_ID>
DB13760

>  <COMMON_NAME>
Niperotidine

>  <CAS_NUMBER>
84845-75-0

>  <UNII>
12JBD7U72K

>  <SYNONYMS>
Niperotidine

$$$$
