S14
 OpenBabel10282417173D

 56 59  0  0  0  0  0  0  0  0999 V2000
    0.2993   -0.7725    0.0114 C   0  0  0  0  0  0  0  0  0  0  0  0
   -0.9139   -1.5123    0.0208 C   0  0  0  0  0  0  0  0  0  0  0  0
   -2.0862   -0.8621    0.0312 C   0  0  0  0  0  0  0  0  0  0  0  0
   -2.1408    0.5821    0.0763 C   0  0  0  0  0  0  0  0  0  0  0  0
   -0.9933    1.2939    0.0224 C   0  0  0  0  0  0  0  0  0  0  0  0
    0.2199    0.6226   -0.0047 N   0  0  0  0  0  0  0  0  0  0  0  0
    1.4737    1.1361   -0.0234 N   0  0  0  0  0  0  0  0  0  0  0  0
    2.2253    0.0352   -0.0061 C   0  0  0  0  0  0  0  0  0  0  0  0
    1.5554   -1.1507    0.0090 N   0  0  0  0  0  0  0  0  0  0  0  0
   -3.4041    1.2858    0.1516 C   0  0  0  0  0  0  0  0  0  0  0  0
   -4.3144    1.1593    1.2116 C   0  0  0  0  0  0  0  0  0  0  0  0
   -5.4828    1.9422    1.2550 C   0  0  0  0  0  0  0  0  0  0  0  0
   -5.6828    2.9288    0.2882 C   0  0  0  0  0  0  0  0  0  0  0  0
   -4.6126    3.1061   -0.5961 C   0  0  0  0  0  0  0  0  0  0  0  0
   -3.6313    2.1925   -0.8370 C   0  0  0  0  0  0  0  0  0  0  0  0
   -6.9911    3.7457    0.1676 C   0  0  1  0  0  0  0  0  0  0  0  0
   -6.8669    5.2986    0.3961 C   0  0  1  0  0  0  0  0  0  0  0  0
   -6.1094    6.1515   -0.7088 C   0  0  0  0  0  0  0  0  0  0  0  0
   -6.9308    6.7852   -1.6512 N   0  0  0  0  0  0  0  0  0  0  0  0
   -7.9117    3.3449   -1.0800 C   0  0  0  0  0  0  0  0  0  0  0  0
   -8.2278    5.8648    0.6095 N   0  0  0  0  0  0  0  0  0  0  0  0
   -4.8673    6.1461   -0.8099 O   0  0  0  0  0  0  0  0  0  0  0  0
   -9.0370    2.8703   -0.8819 O   0  0  0  0  0  0  0  0  0  0  0  0
   -7.4972    3.5959   -2.3962 N   0  0  0  0  0  0  0  0  0  0  0  0
   -6.1603    3.9152   -2.7316 C   0  0  0  0  0  0  0  0  0  0  0  0
   -8.3224    3.3331   -3.5436 C   0  0  0  0  0  0  0  0  0  0  0  0
   -7.4278    8.0835   -1.2623 C   0  0  0  0  0  0  0  0  0  0  0  0
   -7.2184    8.9933   -2.4615 C   0  0  2  0  0  0  0  0  0  0  0  0
   -7.3365    8.0756   -3.6448 C   0  0  0  0  0  0  0  0  0  0  0  0
   -6.6996    6.8200   -3.1035 C   0  0  0  0  0  0  0  0  0  0  0  0
   -5.9551    9.4930   -2.4336 F   0  0  0  0  0  0  0  0  0  0  0  0
   -7.5991    3.3960    1.0279 H   0  0  0  0  0  0  0  0  0  0  0  0
   -6.3238    5.4612    1.3379 H   0  0  0  0  0  0  0  0  0  0  0  0
   -7.9273    9.8189   -2.4839 H   0  0  0  0  0  0  0  0  0  0  0  0
   -0.8829   -2.5923    0.0127 H   0  0  0  0  0  0  0  0  0  0  0  0
   -3.0354   -1.3897   -0.0016 H   0  0  0  0  0  0  0  0  0  0  0  0
   -0.9318    2.3786    0.0158 H   0  0  0  0  0  0  0  0  0  0  0  0
    3.3052    0.0950   -0.0055 H   0  0  0  0  0  0  0  0  0  0  0  0
   -4.1059    0.4518    2.0083 H   0  0  0  0  0  0  0  0  0  0  0  0
   -6.1800    1.8030    2.0795 H   0  0  0  0  0  0  0  0  0  0  0  0
   -4.4128    3.9837   -1.1825 H   0  0  0  0  0  0  0  0  0  0  0  0
   -2.9902    2.3247   -1.7053 H   0  0  0  0  0  0  0  0  0  0  0  0
   -8.1407    6.8640    0.7703 H   0  0  0  0  0  0  0  0  0  0  0  0
   -8.7405    5.7563   -0.2707 H   0  0  0  0  0  0  0  0  0  0  0  0
   -5.5581    3.0668   -3.0330 H   0  0  0  0  0  0  0  0  0  0  0  0
   -5.9978    4.6934   -3.4554 H   0  0  0  0  0  0  0  0  0  0  0  0
   -5.8685    4.3790   -1.8433 H   0  0  0  0  0  0  0  0  0  0  0  0
   -8.4871    2.2607   -3.6278 H   0  0  0  0  0  0  0  0  0  0  0  0
   -9.2556    3.8889   -3.4519 H   0  0  0  0  0  0  0  0  0  0  0  0
   -7.7919    3.6904   -4.4370 H   0  0  0  0  0  0  0  0  0  0  0  0
   -6.9196    8.4422   -0.3631 H   0  0  0  0  0  0  0  0  0  0  0  0
   -8.4939    7.9321   -1.0840 H   0  0  0  0  0  0  0  0  0  0  0  0
   -8.3832    7.8684   -3.9010 H   0  0  0  0  0  0  0  0  0  0  0  0
   -6.8168    8.4213   -4.5426 H   0  0  0  0  0  0  0  0  0  0  0  0
   -5.6438    6.7322   -3.3868 H   0  0  0  0  0  0  0  0  0  0  0  0
   -7.2968    6.0197   -3.5465 H   0  0  0  0  0  0  0  0  0  0  0  0
  1  2  1  0  0  0  0
  1  6  1  0  0  0  0
  1  9  2  0  0  0  0
  2  3  2  0  0  0  0
  2 35  1  0  0  0  0
  3  4  1  0  0  0  0
  3 36  1  0  0  0  0
  4  5  2  0  0  0  0
  4 10  1  0  0  0  0
  5  6  1  0  0  0  0
  5 37  1  0  0  0  0
  6  7  1  0  0  0  0
  7  8  2  0  0  0  0
  8  9  1  0  0  0  0
  8 38  1  0  0  0  0
 10 11  2  0  0  0  0
 10 15  1  0  0  0  0
 11 12  1  0  0  0  0
 11 39  1  0  0  0  0
 12 13  2  0  0  0  0
 12 40  1  0  0  0  0
 13 14  1  0  0  0  0
 13 16  1  0  0  0  0
 14 15  2  0  0  0  0
 14 41  1  0  0  0  0
 15 42  1  0  0  0  0
 16 17  1  0  0  0  0
 16 20  1  0  0  0  0
 16 32  1  1  0  0  0
 17 18  1  0  0  0  0
 17 21  1  0  0  0  0
 17 33  1  1  0  0  0
 18 19  1  0  0  0  0
 18 22  2  0  0  0  0
 19 27  1  0  0  0  0
 19 30  1  0  0  0  0
 20 23  2  0  0  0  0
 20 24  1  0  0  0  0
 21 43  1  0  0  0  0
 21 44  1  0  0  0  0
 24 25  1  0  0  0  0
 24 26  1  0  0  0  0
 25 45  1  0  0  0  0
 25 46  1  0  0  0  0
 25 47  1  0  0  0  0
 26 48  1  0  0  0  0
 26 49  1  0  0  0  0
 26 50  1  0  0  0  0
 27 28  1  0  0  0  0
 27 51  1  0  0  0  0
 27 52  1  0  0  0  0
 28 29  1  0  0  0  0
 28 31  1  0  0  0  0
 28 34  1  6  0  0  0
 29 30  1  0  0  0  0
 29 53  1  0  0  0  0
 29 54  1  0  0  0  0
 30 55  1  0  0  0  0
 30 56  1  0  0  0  0
M  END
>  <DRUGBANK_ID>
DB08504

>  <COMMON_NAME>
6-(4-{(1S,2S)-2-AMINO-1-[(DIMETHYLAMINO)CARBONYL]-3-[(3S)-3-FLUOROPYRROLIDIN-1-YL]-3-OXOPROPYL}PHENYL)-1H-[1,2,4]TRIAZOLO[1,5-A]PYRIDIN-4-IUM

$$$$
