
 OpenBabel10282417213D

 59 63  0  0  1  0  0  0  0  0999 V2000
   -2.8648   -2.3826    0.5071 O   0  0  0  0  0  0  0  0  0  0  0  0
   -2.9788   -1.8694    1.7523 C   0  0  0  0  0  0  0  0  0  0  0  0
   -3.0490   -2.5912    2.7200 O   0  0  0  0  0  0  0  0  0  0  0  0
   -3.0086   -0.3607    1.7554 C   0  0  0  0  0  0  0  0  0  0  0  0
   -1.6889    0.1919    1.2167 C   0  0  1  0  0  0  0  0  0  0  0  0
   -1.8525    1.3892    0.1973 C   0  0  0  0  0  0  0  0  0  0  0  0
   -1.5518    2.7304    0.9547 C   0  0  0  0  0  0  0  0  0  0  0  0
   -0.8404    2.2486    2.1448 C   0  0  0  0  0  0  0  0  0  0  0  0
   -0.9310    0.8920    2.2717 C   0  0  0  0  0  0  0  0  0  0  0  0
   -0.3417    0.4963    3.4164 N   0  0  0  0  0  0  0  0  0  0  0  0
    0.1884    1.6247    4.0110 C   0  0  0  0  0  0  0  0  0  0  0  0
   -0.1179    2.7539    3.2303 C   0  0  0  0  0  0  0  0  0  0  0  0
    0.2964    4.0372    3.6597 C   0  0  0  0  0  0  0  0  0  0  0  0
    1.0849    4.1386    4.8020 C   0  0  0  0  0  0  0  0  0  0  0  0
    1.3926    5.3878    5.2806 O   0  0  0  0  0  0  0  0  0  0  0  0
    2.0597    5.5037    6.5607 C   0  0  0  0  0  0  0  0  0  0  0  0
    1.2772    5.0574    7.7876 C   0  0  0  0  0  0  0  0  0  0  0  0
    1.3510    3.7224    8.2026 C   0  0  0  0  0  0  0  0  0  0  0  0
    0.5933    3.1208    9.2022 C   0  0  0  0  0  0  0  0  0  0  0  0
   -0.1430    3.9962   10.0090 C   0  0  0  0  0  0  0  0  0  0  0  0
   -0.0949    5.3943    9.7310 C   0  0  0  0  0  0  0  0  0  0  0  0
    0.5332    5.9093    8.5846 C   0  0  0  0  0  0  0  0  0  0  0  0
   -0.9675    3.5276   11.1774 C   0  0  0  0  0  0  0  0  0  0  0  0
   -0.1551    2.7856   12.2333 C   0  0  0  0  0  0  0  0  0  0  0  0
   -1.1292    1.8448   12.9168 C   0  0  0  0  0  0  0  0  0  0  0  0
   -2.3969    1.8093   12.0645 C   0  0  0  0  0  0  0  0  0  0  0  0
   -2.0950    2.5734   10.7896 C   0  0  0  0  0  0  0  0  0  0  0  0
    0.7835    1.6026    9.3008 C   0  0  0  0  0  0  0  0  0  0  0  0
    1.5428    1.2193   10.3619 F   0  0  0  0  0  0  0  0  0  0  0  0
   -0.3435    0.8485    9.3435 F   0  0  0  0  0  0  0  0  0  0  0  0
    1.4631    1.0826    8.2272 F   0  0  0  0  0  0  0  0  0  0  0  0
    1.5232    2.9589    5.3795 C   0  0  0  0  0  0  0  0  0  0  0  0
    0.9622    1.7089    5.1466 C   0  0  0  0  0  0  0  0  0  0  0  0
   -2.8369   -3.3541    0.6367 H   0  0  0  0  0  0  0  0  0  0  0  0
   -3.8733   -0.0408    1.1666 H   0  0  0  0  0  0  0  0  0  0  0  0
   -3.1957   -0.0488    2.7917 H   0  0  0  0  0  0  0  0  0  0  0  0
   -1.0755   -0.5866    0.7489 H   0  0  0  0  0  0  0  0  0  0  0  0
   -1.0886    1.2685   -0.5838 H   0  0  0  0  0  0  0  0  0  0  0  0
   -2.8256    1.4124   -0.2994 H   0  0  0  0  0  0  0  0  0  0  0  0
   -0.9552    3.4160    0.3461 H   0  0  0  0  0  0  0  0  0  0  0  0
   -2.4816    3.2224    1.2545 H   0  0  0  0  0  0  0  0  0  0  0  0
   -0.2693   -0.4447    3.7833 H   0  0  0  0  0  0  0  0  0  0  0  0
    0.0497    4.9213    3.0809 H   0  0  0  0  0  0  0  0  0  0  0  0
    3.0295    4.9895    6.5256 H   0  0  0  0  0  0  0  0  0  0  0  0
    2.3198    6.5620    6.6870 H   0  0  0  0  0  0  0  0  0  0  0  0
    2.0611    3.0562    7.7482 H   0  0  0  0  0  0  0  0  0  0  0  0
   -0.5460    6.1069   10.4227 H   0  0  0  0  0  0  0  0  0  0  0  0
    0.4712    6.9714    8.3555 H   0  0  0  0  0  0  0  0  0  0  0  0
   -1.4336    4.3935   11.6673 H   0  0  0  0  0  0  0  0  0  0  0  0
    0.6461    2.1843   11.8238 H   0  0  0  0  0  0  0  0  0  0  0  0
    0.3529    3.4688   12.9211 H   0  0  0  0  0  0  0  0  0  0  0  0
   -0.6867    0.8454   13.0085 H   0  0  0  0  0  0  0  0  0  0  0  0
   -1.3511    2.2013   13.9256 H   0  0  0  0  0  0  0  0  0  0  0  0
   -2.7025    0.7803   11.8454 H   0  0  0  0  0  0  0  0  0  0  0  0
   -3.2169    2.2989   12.5958 H   0  0  0  0  0  0  0  0  0  0  0  0
   -2.9641    3.0965   10.3786 H   0  0  0  0  0  0  0  0  0  0  0  0
   -1.8356    1.8643   10.0133 H   0  0  0  0  0  0  0  0  0  0  0  0
    2.3746    2.9788    6.0309 H   0  0  0  0  0  0  0  0  0  0  0  0
    1.2119    0.8473    5.7549 H   0  0  0  0  0  0  0  0  0  0  0  0
  1  2  1  0  0  0  0
  1 34  1  0  0  0  0
  2  3  2  0  0  0  0
  2  4  1  0  0  0  0
  4 35  1  0  0  0  0
  4 36  1  0  0  0  0
  5  6  1  0  0  0  0
  5  9  1  0  0  0  0
  5 37  1  6  0  0  0
  5  4  1  0  0  0  0
  6  7  1  0  0  0  0
  6 38  1  0  0  0  0
  6 39  1  0  0  0  0
  7  8  1  0  0  0  0
  7 40  1  0  0  0  0
  7 41  1  0  0  0  0
  8  9  2  0  0  0  0
  8 12  1  0  0  0  0
  9 10  1  0  0  0  0
 10 11  1  0  0  0  0
 10 42  1  0  0  0  0
 11 12  2  0  0  0  0
 11 33  1  0  0  0  0
 12 13  1  0  0  0  0
 13 14  2  0  0  0  0
 13 43  1  0  0  0  0
 14 15  1  0  0  0  0
 14 32  1  0  0  0  0
 15 16  1  0  0  0  0
 16 17  1  0  0  0  0
 16 44  1  0  0  0  0
 16 45  1  0  0  0  0
 17 18  2  0  0  0  0
 17 22  1  0  0  0  0
 18 19  1  0  0  0  0
 18 46  1  0  0  0  0
 19 20  2  0  0  0  0
 19 28  1  0  0  0  0
 20 21  1  0  0  0  0
 20 23  1  0  0  0  0
 21 22  2  0  0  0  0
 21 47  1  0  0  0  0
 22 48  1  0  0  0  0
 23 24  1  0  0  0  0
 23 27  1  0  0  0  0
 23 49  1  0  0  0  0
 24 25  1  0  0  0  0
 24 50  1  0  0  0  0
 24 51  1  0  0  0  0
 25 26  1  0  0  0  0
 25 52  1  0  0  0  0
 25 53  1  0  0  0  0
 26 27  1  0  0  0  0
 26 54  1  0  0  0  0
 26 55  1  0  0  0  0
 27 56  1  0  0  0  0
 27 57  1  0  0  0  0
 28 29  1  0  0  0  0
 28 30  1  0  0  0  0
 28 31  1  0  0  0  0
 32 33  2  0  0  0  0
 32 58  1  0  0  0  0
 33 59  1  0  0  0  0
M  END
>  <DRUGBANK_ID>
DB14766

>  <COMMON_NAME>
Etrasimod

>  <CAS_NUMBER>
1206123-37-6

>  <UNII>
6WH8495MMH

>  <SYNONYMS>
Etrasimod

$$$$
