T1D
 OpenBabel10282417173D

 36 38  0  0  0  0  0  0  0  0999 V2000
    1.1240   -0.1077    0.0193 O   0  0  0  0  0  0  0  0  0  0  0  0
    2.3286   -0.0431   -0.1559 C   0  0  0  0  0  0  0  0  0  0  0  0
    3.1598   -1.1627   -0.2300 N   0  0  0  0  0  0  0  0  0  0  0  0
    4.6877   -0.8236   -0.7725 S   0  0  0  0  0  0  0  0  0  0  0  0
    5.6049   -1.0581    0.3045 O   0  0  0  0  0  0  0  0  0  0  0  0
    4.8290   -1.4324   -2.0764 O   0  0  0  0  0  0  0  0  0  0  0  0
    4.3784    0.8231   -0.8885 N   0  0  0  0  0  0  0  0  0  0  0  0
    3.1726    1.2178   -0.1274 C   0  0  0  0  0  0  0  0  0  0  0  0
    5.1180    1.6643   -1.7798 C   0  0  0  0  0  0  0  0  0  0  0  0
    5.0138    1.3898   -3.1531 C   0  0  0  0  0  0  0  0  0  0  0  0
    5.6878    2.1445   -4.1265 C   0  0  0  0  0  0  0  0  0  0  0  0
    6.4397    3.2431   -3.7097 C   0  0  0  0  0  0  0  0  0  0  0  0
    6.5149    3.5636   -2.3532 C   0  0  0  0  0  0  0  0  0  0  0  0
    5.9203    2.7468   -1.3738 C   0  0  0  0  0  0  0  0  0  0  0  0
    6.2884    3.1223   -0.1053 O   0  0  0  0  0  0  0  0  0  0  0  0
    5.9156    2.2716    0.9601 C   0  0  0  0  0  0  0  0  0  0  0  0
    5.5097    1.8411   -5.5482 C   0  0  0  0  0  0  0  0  0  0  0  0
    4.2204    1.8944   -6.1019 C   0  0  0  0  0  0  0  0  0  0  0  0
    4.0099    1.6541   -7.4567 C   0  0  0  0  0  0  0  0  0  0  0  0
    5.0935    1.3776   -8.2844 C   0  0  0  0  0  0  0  0  0  0  0  0
    6.3846    1.3459   -7.7581 C   0  0  0  0  0  0  0  0  0  0  0  0
    6.5886    1.5329   -6.3886 C   0  0  0  0  0  0  0  0  0  0  0  0
    2.8709   -2.1147   -0.0605 H   0  0  0  0  0  0  0  0  0  0  0  0
    2.6598    2.1087   -0.4867 H   0  0  0  0  0  0  0  0  0  0  0  0
    3.3936    1.3140    0.9410 H   0  0  0  0  0  0  0  0  0  0  0  0
    4.4123    0.5489   -3.4947 H   0  0  0  0  0  0  0  0  0  0  0  0
    6.9566    3.8651   -4.4392 H   0  0  0  0  0  0  0  0  0  0  0  0
    7.0596    4.4582   -2.0556 H   0  0  0  0  0  0  0  0  0  0  0  0
    4.8579    2.4191    1.1304 H   0  0  0  0  0  0  0  0  0  0  0  0
    6.2037    1.2339    0.7853 H   0  0  0  0  0  0  0  0  0  0  0  0
    6.3845    2.5784    1.8950 H   0  0  0  0  0  0  0  0  0  0  0  0
    3.3696    2.1353   -5.4679 H   0  0  0  0  0  0  0  0  0  0  0  0
    3.0032    1.7002   -7.8616 H   0  0  0  0  0  0  0  0  0  0  0  0
    4.9310    1.1827   -9.3406 H   0  0  0  0  0  0  0  0  0  0  0  0
    7.2334    1.1803   -8.4165 H   0  0  0  0  0  0  0  0  0  0  0  0
    7.5929    1.4304   -5.9817 H   0  0  0  0  0  0  0  0  0  0  0  0
  1  2  2  0  0  0  0
  2  3  1  0  0  0  0
  2  8  1  0  0  0  0
  3  4  1  0  0  0  0
  3 23  1  0  0  0  0
  4  5  2  0  0  0  0
  4  6  2  0  0  0  0
  4  7  1  0  0  0  0
  7  8  1  0  0  0  0
  7  9  1  0  0  0  0
  8 24  1  0  0  0  0
  8 25  1  0  0  0  0
  9 10  2  0  0  0  0
  9 14  1  0  0  0  0
 10 11  1  0  0  0  0
 10 26  1  0  0  0  0
 11 12  2  0  0  0  0
 11 17  1  0  0  0  0
 12 13  1  0  0  0  0
 12 27  1  0  0  0  0
 13 14  2  0  0  0  0
 13 28  1  0  0  0  0
 14 15  1  0  0  0  0
 15 16  1  0  0  0  0
 16 29  1  0  0  0  0
 16 30  1  0  0  0  0
 16 31  1  0  0  0  0
 17 18  2  0  0  0  0
 17 22  1  0  0  0  0
 18 19  1  0  0  0  0
 18 32  1  0  0  0  0
 19 20  2  0  0  0  0
 19 33  1  0  0  0  0
 20 21  1  0  0  0  0
 20 34  1  0  0  0  0
 21 22  2  0  0  0  0
 21 35  1  0  0  0  0
 22 36  1  0  0  0  0
M  END
>  <DRUGBANK_ID>
DB08591

>  <COMMON_NAME>
5-(4-METHOXYBIPHENYL-3-YL)-1,2,5-THIADIAZOLIDIN-3-ONE 1,1-DIOXIDE

$$$$
