
 OpenBabel10282417133D

 23 22  0  0  1  0  0  0  0  0999 V2000
    0.9780    0.0981    0.1424 N   0  0  0  0  0  0  0  0  0  0  0  0
    0.4328    1.4475   -0.0999 C   0  0  1  0  0  0  0  0  0  0  0  0
    0.9527    1.9504   -1.4734 C   0  0  0  0  0  0  0  0  0  0  0  0
    0.5436    1.1254   -2.7113 C   0  0  0  0  0  0  0  0  0  0  0  0
   -0.9624    1.1117   -2.9613 C   0  0  0  0  0  0  0  0  0  0  0  0
   -1.5691    2.5116   -2.9792 C   0  0  0  0  0  0  0  0  0  0  0  0
   -1.1266    3.1941   -4.1454 O   0  0  0  0  0  0  0  0  0  0  0  0
   -1.1139    1.4308    0.1631 C   0  0  0  0  0  0  0  0  0  0  0  0
   -1.5915    2.4585    0.8955 O   0  0  0  0  0  0  0  0  0  0  0  0
   -1.8941    0.5558   -0.2121 O   0  0  0  0  0  0  0  0  0  0  0  0
    0.5983   -0.5330   -0.5697 H   0  0  0  0  0  0  0  0  0  0  0  0
    1.9864    0.1014   -0.0023 H   0  0  0  0  0  0  0  0  0  0  0  0
    0.8652    2.0995    0.6670 H   0  0  0  0  0  0  0  0  0  0  0  0
    0.6933    3.0060   -1.6142 H   0  0  0  0  0  0  0  0  0  0  0  0
    2.0541    1.9566   -1.4509 H   0  0  0  0  0  0  0  0  0  0  0  0
    1.0521    1.5167   -3.6022 H   0  0  0  0  0  0  0  0  0  0  0  0
    0.9018    0.0940   -2.6127 H   0  0  0  0  0  0  0  0  0  0  0  0
   -1.1921    0.5904   -3.8950 H   0  0  0  0  0  0  0  0  0  0  0  0
   -1.4190    0.4791   -2.2127 H   0  0  0  0  0  0  0  0  0  0  0  0
   -2.6605    2.4700   -2.9843 H   0  0  0  0  0  0  0  0  0  0  0  0
   -1.2941    3.1221   -2.1133 H   0  0  0  0  0  0  0  0  0  0  0  0
   -0.1565    3.1428   -4.1711 H   0  0  0  0  0  0  0  0  0  0  0  0
   -0.9276    2.8972    1.4549 H   0  0  0  0  0  0  0  0  0  0  0  0
  1 11  1  0  0  0  0
  1 12  1  0  0  0  0
  2  1  1  0  0  0  0
  2  3  1  0  0  0  0
  2  8  1  0  0  0  0
  2 13  1  1  0  0  0
  3  4  1  0  0  0  0
  3 14  1  0  0  0  0
  3 15  1  0  0  0  0
  4  5  1  0  0  0  0
  4 16  1  0  0  0  0
  4 17  1  0  0  0  0
  5  6  1  0  0  0  0
  5 18  1  0  0  0  0
  5 19  1  0  0  0  0
  6  7  1  0  0  0  0
  6 20  1  0  0  0  0
  6 21  1  0  0  0  0
  7 22  1  0  0  0  0
  8  9  1  0  0  0  0
  8 10  2  0  0  0  0
  9 23  1  0  0  0  0
M  END
>  <DRUGBANK_ID>
DB03412

>  <SECONDARY_ACCESSION_NUMBERS>
EXPT02015

>  <COMMON_NAME>
6-hydroxynorleucine

>  <CAS_NUMBER>
6033-32-5

>  <UNII>
874D12O72W

>  <SYNONYMS>
2-Amino-6-hydroxycaproic acid; 6-hydroxy-L-norleucine; alpha-Amino-epsilon-hydroxycaproic acid

$$$$
