
 OpenBabel10282417213D

142141  0  0  0  0  0  0  0  0999 V2000
    1.1448    0.2918    0.6940 N   0  3  0  0  0  0  0  0  0  0  0  0
    3.1745   -0.4724    0.7727 C   0  0  0  0  0  0  0  0  0  0  0  0
    3.4820   -2.3260    0.4781 C   0  0  0  0  0  0  0  0  0  0  0  0
    2.5973   -3.4421   -0.2755 O   0  0  0  0  0  0  0  0  0  0  0  0
    1.6324   -3.4885   -1.6690 P   0  0  3  0  0  0  0  0  0  0  0  0
   -0.0353   -3.4072   -1.3140 O   0  0  0  0  0  0  0  0  0  0  0  0
   -1.1329   -3.4213   -2.2447 C   0  0  0  0  0  0  0  0  0  0  0  0
   -1.0060   -2.9727   -3.7432 C   0  0  3  0  0  0  0  0  0  0  0  0
    0.2592   -3.0232   -4.2814 O   0  0  0  0  0  0  0  0  0  0  0  0
    0.9008   -1.9242   -3.9201 C   0  0  0  0  0  0  0  0  0  0  0  0
    2.0114   -1.7694   -4.4313 O   0  0  0  0  0  0  0  0  0  0  0  0
   -1.6022   -3.9697   -4.6267 C   0  0  0  0  0  0  0  0  0  0  0  0
   -3.0028   -3.9383   -4.5047 O   0  0  0  0  0  0  0  0  0  0  0  0
   -3.6036   -4.3382   -3.3653 C   0  0  0  0  0  0  0  0  0  0  0  0
   -3.1233   -4.9387   -2.4196 O   0  0  0  0  0  0  0  0  0  0  0  0
    2.1308   -2.2660   -2.3347 O   0  0  0  0  0  0  0  0  0  0  0  0
    1.5955   -4.7469   -2.4467 O   0  5  0  0  0  0  0  0  0  0  0  0
    0.4321    0.5799   -1.0684 C   0  0  0  0  0  0  0  0  0  0  0  0
    0.3863   -0.5332    1.8495 C   0  0  0  0  0  0  0  0  0  0  0  0
    0.1402    1.8415    0.3010 C   0  0  0  0  0  0  0  0  0  0  0  0
   -0.0145   -1.2319   -2.5116 C   0  0  0  0  0  0  0  0  0  0  0  0
    0.4221   -1.4911   -0.7365 C   0  0  0  0  0  0  0  0  0  0  0  0
    1.9566   -0.9421   -0.6657 C   0  0  0  0  0  0  0  0  0  0  0  0
    2.6508    0.9718   -0.7003 C   0  0  0  0  0  0  0  0  0  0  0  0
    2.5154    1.9502    0.7915 C   0  0  0  0  0  0  0  0  0  0  0  0
    2.7623    1.3714    2.2766 C   0  0  0  0  0  0  0  0  0  0  0  0
    4.2298    1.4946    2.4513 C   0  0  0  0  0  0  0  0  0  0  0  0
    4.4619    2.8982    1.9866 C   0  0  0  0  0  0  0  0  0  0  0  0
    3.5453    3.7664    2.8526 C   0  0  0  0  0  0  0  0  0  0  0  0
    3.8506    3.3771    4.3026 C   0  0  0  0  0  0  0  0  0  0  0  0
    5.3618    3.5192    4.4863 C   0  0  0  0  0  0  0  0  0  0  0  0
    5.7357    4.9584    4.1394 C   0  0  0  0  0  0  0  0  0  0  0  0
    4.9575    5.8943    5.0629 C   0  0  0  0  0  0  0  0  0  0  0  0
    5.3141    5.5763    6.5171 C   0  0  0  0  0  0  0  0  0  0  0  0
    6.8147    5.7793    6.7442 C   0  0  0  0  0  0  0  0  0  0  0  0
    7.2164    7.2180    6.4236 C   0  0  0  0  0  0  0  0  0  0  0  0
    6.4545    8.1797    7.3192 C   0  0  0  0  0  0  0  0  0  0  0  0
   -5.0482   -4.0509   -3.3471 C   0  0  0  0  0  0  0  0  0  0  0  0
   -5.4387   -2.6251   -3.6917 C   0  0  0  0  0  0  0  0  0  0  0  0
   -4.9872   -2.2400   -5.0988 C   0  0  0  0  0  0  0  0  0  0  0  0
   -5.4908   -3.2784   -6.1090 C   0  0  0  0  0  0  0  0  0  0  0  0
   -7.0195   -3.2868   -6.0998 C   0  0  0  0  0  0  0  0  0  0  0  0
   -7.5278   -1.8935   -6.4716 C   0  0  0  0  0  0  0  0  0  0  0  0
   -7.0088   -1.5214   -7.8623 C   0  0  0  0  0  0  0  0  0  0  0  0
   -7.5145   -2.5466   -8.8789 C   0  0  0  0  0  0  0  0  0  0  0  0
   -9.0444   -2.5484   -8.8729 C   0  0  0  0  0  0  0  0  0  0  0  0
   -9.5517   -1.1527   -9.2410 C   0  0  0  0  0  0  0  0  0  0  0  0
   -9.0367   -0.7786  -10.6325 C   0  0  0  0  0  0  0  0  0  0  0  0
   -9.5442   -1.7996  -11.6529 C   0  0  0  0  0  0  0  0  0  0  0  0
  -11.0744   -1.8028  -11.6524 C   0  0  0  0  0  0  0  0  0  0  0  0
  -11.5940   -0.4102  -12.0229 C   0  0  0  0  0  0  0  0  0  0  0  0
  -11.1106   -0.0189  -13.4228 C   0  0  0  0  0  0  0  0  0  0  0  0
  -11.5960   -1.0272  -14.4634 C   0  0  0  0  0  0  0  0  0  0  0  0
  -13.1144   -1.0727  -14.4731 C   0  0  0  0  0  0  0  0  0  0  0  0
    3.9081   -0.3067   -0.1769 H   0  0  0  0  0  0  0  0  0  0  0  0
    3.7134   -0.2920    1.6142 H   0  0  0  0  0  0  0  0  0  0  0  0
    4.5345   -2.2725    0.0632 H   0  0  0  0  0  0  0  0  0  0  0  0
    3.3750   -2.6678    1.4931 H   0  0  0  0  0  0  0  0  0  0  0  0
   -1.2476   -4.4709   -2.1679 H   0  0  0  0  0  0  0  0  0  0  0  0
   -2.0880   -2.9112   -1.8800 H   0  0  0  0  0  0  0  0  0  0  0  0
   -1.4478   -1.9764   -4.0077 H   0  0  0  0  0  0  0  0  0  0  0  0
   -1.2859   -3.6601   -5.6394 H   0  0  0  0  0  0  0  0  0  0  0  0
   -1.1280   -4.9186   -4.3820 H   0  0  0  0  0  0  0  0  0  0  0  0
    1.0610    0.0199   -1.7148 H   0  0  0  0  0  0  0  0  0  0  0  0
   -0.6413    0.3222   -1.0527 H   0  0  0  0  0  0  0  0  0  0  0  0
    0.8013    1.2431   -1.8855 H   0  0  0  0  0  0  0  0  0  0  0  0
    0.6062   -0.0296    2.7809 H   0  0  0  0  0  0  0  0  0  0  0  0
   -0.6886   -0.5273    1.6772 H   0  0  0  0  0  0  0  0  0  0  0  0
    0.7656   -1.5667    1.9448 H   0  0  0  0  0  0  0  0  0  0  0  0
    0.0849    2.5608    1.1014 H   0  0  0  0  0  0  0  0  0  0  0  0
    0.5848    2.4202   -0.5896 H   0  0  0  0  0  0  0  0  0  0  0  0
   -0.9050    1.5177    0.1903 H   0  0  0  0  0  0  0  0  0  0  0  0
   -0.1676   -0.2023   -2.9052 H   0  0  0  0  0  0  0  0  0  0  0  0
   -1.1127   -1.2655   -2.3882 H   0  0  0  0  0  0  0  0  0  0  0  0
   -0.4516   -1.1440   -0.1194 H   0  0  0  0  0  0  0  0  0  0  0  0
    0.4494   -2.3736    0.0259 H   0  0  0  0  0  0  0  0  0  0  0  0
    1.8386   -1.4803    0.4019 H   0  0  0  0  0  0  0  0  0  0  0  0
    2.8450   -1.3528   -1.0826 H   0  0  0  0  0  0  0  0  0  0  0  0
    3.7416    1.1585   -0.7549 H   0  0  0  0  0  0  0  0  0  0  0  0
    2.5076    1.3818   -1.6987 H   0  0  0  0  0  0  0  0  0  0  0  0
    2.4517    3.0007    0.4746 H   0  0  0  0  0  0  0  0  0  0  0  0
    1.5964    2.0772    1.2799 H   0  0  0  0  0  0  0  0  0  0  0  0
    2.0570    1.8374    3.0120 H   0  0  0  0  0  0  0  0  0  0  0  0
    2.4492    0.3564    2.5612 H   0  0  0  0  0  0  0  0  0  0  0  0
    4.4315    1.1103    3.4547 H   0  0  0  0  0  0  0  0  0  0  0  0
    4.9042    0.9030    1.8345 H   0  0  0  0  0  0  0  0  0  0  0  0
    5.5281    3.0554    2.0062 H   0  0  0  0  0  0  0  0  0  0  0  0
    4.2722    3.0573    0.9188 H   0  0  0  0  0  0  0  0  0  0  0  0
    3.7000    4.8029    2.5811 H   0  0  0  0  0  0  0  0  0  0  0  0
    2.4646    3.6584    2.6793 H   0  0  0  0  0  0  0  0  0  0  0  0
    3.2438    3.9723    4.9780 H   0  0  0  0  0  0  0  0  0  0  0  0
    3.5444    2.3599    4.5780 H   0  0  0  0  0  0  0  0  0  0  0  0
    5.6418    3.2148    5.4917 H   0  0  0  0  0  0  0  0  0  0  0  0
    5.9491    2.8304    3.8690 H   0  0  0  0  0  0  0  0  0  0  0  0
    6.8154    5.0839    4.2074 H   0  0  0  0  0  0  0  0  0  0  0  0
    5.5282    5.2149    3.0951 H   0  0  0  0  0  0  0  0  0  0  0  0
    5.1637    6.9304    4.7931 H   0  0  0  0  0  0  0  0  0  0  0  0
    3.8744    5.8160    4.9237 H   0  0  0  0  0  0  0  0  0  0  0  0
    4.7125    6.1923    7.1865 H   0  0  0  0  0  0  0  0  0  0  0  0
    5.0333    4.5555    6.7962 H   0  0  0  0  0  0  0  0  0  0  0  0
    7.0683    5.5283    7.7770 H   0  0  0  0  0  0  0  0  0  0  0  0
    7.4055    5.0891    6.1292 H   0  0  0  0  0  0  0  0  0  0  0  0
    8.2937    7.3397    6.5559 H   0  0  0  0  0  0  0  0  0  0  0  0
    7.0221    7.4619    5.3723 H   0  0  0  0  0  0  0  0  0  0  0  0
    6.6741    7.9572    8.3672 H   0  0  0  0  0  0  0  0  0  0  0  0
    6.7246    9.2110    7.0969 H   0  0  0  0  0  0  0  0  0  0  0  0
    5.3711    8.1038    7.1797 H   0  0  0  0  0  0  0  0  0  0  0  0
   -5.4736   -4.8094   -4.0033 H   0  0  0  0  0  0  0  0  0  0  0  0
   -5.3945   -4.2730   -2.3365 H   0  0  0  0  0  0  0  0  0  0  0  0
   -6.5313   -2.5650   -3.6108 H   0  0  0  0  0  0  0  0  0  0  0  0
   -5.0584   -1.9026   -2.9639 H   0  0  0  0  0  0  0  0  0  0  0  0
   -5.3206   -1.2276   -5.3359 H   0  0  0  0  0  0  0  0  0  0  0  0
   -3.9057   -2.1328   -5.1657 H   0  0  0  0  0  0  0  0  0  0  0  0
   -5.0769   -3.0624   -7.0970 H   0  0  0  0  0  0  0  0  0  0  0  0
   -5.1222   -4.2880   -5.9099 H   0  0  0  0  0  0  0  0  0  0  0  0
   -7.3894   -4.0615   -6.7771 H   0  0  0  0  0  0  0  0  0  0  0  0
   -7.4284   -3.5843   -5.1309 H   0  0  0  0  0  0  0  0  0  0  0  0
   -8.6180   -1.8692   -6.4099 H   0  0  0  0  0  0  0  0  0  0  0  0
   -7.2260   -1.1323   -5.7488 H   0  0  0  0  0  0  0  0  0  0  0  0
   -7.3131   -0.5014   -8.1087 H   0  0  0  0  0  0  0  0  0  0  0  0
   -5.9181   -1.4680   -7.9033 H   0  0  0  0  0  0  0  0  0  0  0  0
   -7.1001   -2.3243   -9.8651 H   0  0  0  0  0  0  0  0  0  0  0  0
   -7.1430   -3.5543   -8.6774 H   0  0  0  0  0  0  0  0  0  0  0  0
   -9.4155   -3.3207   -9.5507 H   0  0  0  0  0  0  0  0  0  0  0  0
   -9.4585   -2.8492   -7.9073 H   0  0  0  0  0  0  0  0  0  0  0  0
  -10.6422   -1.1277   -9.1782 H   0  0  0  0  0  0  0  0  0  0  0  0
   -9.2463   -0.3927   -8.5174 H   0  0  0  0  0  0  0  0  0  0  0  0
   -9.3416    0.2414  -10.8774 H   0  0  0  0  0  0  0  0  0  0  0  0
   -7.9456   -0.7265  -10.6729 H   0  0  0  0  0  0  0  0  0  0  0  0
   -9.1304   -1.5744  -12.6385 H   0  0  0  0  0  0  0  0  0  0  0  0
   -9.1724   -2.8080  -11.4501 H   0  0  0  0  0  0  0  0  0  0  0  0
  -11.4420   -2.5764  -12.3304 H   0  0  0  0  0  0  0  0  0  0  0  0
  -11.4855   -2.1041  -10.6843 H   0  0  0  0  0  0  0  0  0  0  0  0
  -12.6832   -0.3913  -11.9513 H   0  0  0  0  0  0  0  0  0  0  0  0
  -11.2803    0.3479  -11.2986 H   0  0  0  0  0  0  0  0  0  0  0  0
  -11.4636    0.9864  -13.6677 H   0  0  0  0  0  0  0  0  0  0  0  0
  -10.0163    0.0452  -13.4585 H   0  0  0  0  0  0  0  0  0  0  0  0
  -11.2132   -0.7550  -15.4497 H   0  0  0  0  0  0  0  0  0  0  0  0
  -11.1990   -2.0293  -14.2624 H   0  0  0  0  0  0  0  0  0  0  0  0
  -13.5102   -0.0802  -14.7066 H   0  0  0  0  0  0  0  0  0  0  0  0
  -13.4748   -1.7943  -15.2051 H   0  0  0  0  0  0  0  0  0  0  0  0
  -13.5243   -1.3786  -13.5050 H   0  0  0  0  0  0  0  0  0  0  0  0
  1 18  1  0  0  0  0
  1 19  1  0  0  0  0
  1 20  1  0  0  0  0
  1  2  1  0  0  0  0
  2  3  1  0  0  0  0
  2 55  1  0  0  0  0
  2 56  1  0  0  0  0
  3  4  1  0  0  0  0
  3 57  1  0  0  0  0
  3 58  1  0  0  0  0
  4  5  1  0  0  0  0
  5 16  2  0  0  0  0
  5 17  1  0  0  0  0
  5  6  1  0  0  0  0
  6  7  1  0  0  0  0
  7  8  1  0  0  0  0
  7 59  1  0  0  0  0
  7 60  1  0  0  0  0
  8  9  1  0  0  0  0
  8 12  1  0  0  0  0
  8 61  1  0  0  0  0
  9 10  1  0  0  0  0
 10 21  1  0  0  0  0
 10 11  2  0  0  0  0
 12 13  1  0  0  0  0
 12 62  1  0  0  0  0
 12 63  1  0  0  0  0
 13 14  1  0  0  0  0
 14 15  2  0  0  0  0
 14 38  1  0  0  0  0
 18 64  1  0  0  0  0
 18 65  1  0  0  0  0
 18 66  1  0  0  0  0
 19 67  1  0  0  0  0
 19 68  1  0  0  0  0
 19 69  1  0  0  0  0
 20 70  1  0  0  0  0
 20 71  1  0  0  0  0
 20 72  1  0  0  0  0
 21 22  1  0  0  0  0
 21 73  1  0  0  0  0
 21 74  1  0  0  0  0
 22 23  1  0  0  0  0
 22 75  1  0  0  0  0
 22 76  1  0  0  0  0
 23 24  1  0  0  0  0
 23 77  1  0  0  0  0
 23 78  1  0  0  0  0
 24 25  1  0  0  0  0
 24 79  1  0  0  0  0
 24 80  1  0  0  0  0
 25 26  1  0  0  0  0
 25 81  1  0  0  0  0
 25 82  1  0  0  0  0
 26 27  1  0  0  0  0
 26 83  1  0  0  0  0
 26 84  1  0  0  0  0
 27 28  1  0  0  0  0
 27 85  1  0  0  0  0
 27 86  1  0  0  0  0
 28 29  1  0  0  0  0
 28 87  1  0  0  0  0
 28 88  1  0  0  0  0
 29 30  1  0  0  0  0
 29 89  1  0  0  0  0
 29 90  1  0  0  0  0
 30 31  1  0  0  0  0
 30 91  1  0  0  0  0
 30 92  1  0  0  0  0
 31 32  1  0  0  0  0
 31 93  1  0  0  0  0
 31 94  1  0  0  0  0
 32 33  1  0  0  0  0
 32 95  1  0  0  0  0
 32 96  1  0  0  0  0
 33 34  1  0  0  0  0
 33 97  1  0  0  0  0
 33 98  1  0  0  0  0
 34 35  1  0  0  0  0
 34 99  1  0  0  0  0
 34100  1  0  0  0  0
 35 36  1  0  0  0  0
 35101  1  0  0  0  0
 35102  1  0  0  0  0
 36 37  1  0  0  0  0
 36103  1  0  0  0  0
 36104  1  0  0  0  0
 37105  1  0  0  0  0
 37106  1  0  0  0  0
 37107  1  0  0  0  0
 38 39  1  0  0  0  0
 38108  1  0  0  0  0
 38109  1  0  0  0  0
 39 40  1  0  0  0  0
 39110  1  0  0  0  0
 39111  1  0  0  0  0
 40 41  1  0  0  0  0
 40112  1  0  0  0  0
 40113  1  0  0  0  0
 41 42  1  0  0  0  0
 41114  1  0  0  0  0
 41115  1  0  0  0  0
 42 43  1  0  0  0  0
 42116  1  0  0  0  0
 42117  1  0  0  0  0
 43 44  1  0  0  0  0
 43118  1  0  0  0  0
 43119  1  0  0  0  0
 44 45  1  0  0  0  0
 44120  1  0  0  0  0
 44121  1  0  0  0  0
 45 46  1  0  0  0  0
 45122  1  0  0  0  0
 45123  1  0  0  0  0
 46 47  1  0  0  0  0
 46124  1  0  0  0  0
 46125  1  0  0  0  0
 47 48  1  0  0  0  0
 47126  1  0  0  0  0
 47127  1  0  0  0  0
 48 49  1  0  0  0  0
 48128  1  0  0  0  0
 48129  1  0  0  0  0
 49 50  1  0  0  0  0
 49130  1  0  0  0  0
 49131  1  0  0  0  0
 50 51  1  0  0  0  0
 50132  1  0  0  0  0
 50133  1  0  0  0  0
 51 52  1  0  0  0  0
 51134  1  0  0  0  0
 51135  1  0  0  0  0
 52 53  1  0  0  0  0
 52136  1  0  0  0  0
 52137  1  0  0  0  0
 53 54  1  0  0  0  0
 53138  1  0  0  0  0
 53139  1  0  0  0  0
 54140  1  0  0  0  0
 54141  1  0  0  0  0
 54142  1  0  0  0  0
M  CHG  2   1   1  17  -1
M  END
>  <DRUGBANK_ID>
DB14099

>  <COMMON_NAME>
1,2-Distearoyllecithin

>  <CAS_NUMBER>
4539-70-2

>  <UNII>
EAG959U971

>  <SYNONYMS>
1,2-Distearoyl-sn-glycero-3-phosphocholine; 1,2-Distearoylphosphatidylcholine; Dioctadecanoyl phosphatidylcholine; Dioctadecanoyllecithin; Distearoyl-DL-phosphatidylcholine

$$$$
