RHS
 OpenBabel10282417173D

 43 42  0  0  0  0  0  0  0  0999 V2000
    0.9020    0.1605   -0.4964 N   0  0  0  0  0  0  0  0  0  0  0  0
    0.2563   -0.8526   -1.1644 C   0  0  0  0  0  0  0  0  0  0  0  0
   -0.9158   -0.6932   -1.5379 O   0  0  0  0  0  0  0  0  0  0  0  0
    1.0545   -2.0977   -1.5550 C   0  0  1  0  0  0  0  0  0  0  0  0
    1.9849   -1.5541   -2.6879 C   0  0  0  0  0  0  0  0  0  0  0  0
    3.0790   -0.6066   -2.1467 C   0  0  0  0  0  0  0  0  0  0  0  0
    2.6882   -2.6990   -3.4172 C   0  0  0  0  0  0  0  0  0  0  0  0
    1.1018   -0.7959   -3.7186 C   0  0  0  0  0  0  0  0  0  0  0  0
    1.7711   -2.9214   -0.4447 C   0  0  0  0  0  0  0  0  0  0  0  0
    0.8964   -3.6522    0.5998 C   0  0  0  0  0  0  0  0  0  0  0  0
    0.9215   -4.8819    0.6905 O   0  0  0  0  0  0  0  0  0  0  0  0
    0.1486   -2.9502    1.5141 N   0  0  0  0  0  0  0  0  0  0  0  0
    0.0371   -1.5199    1.5901 C   0  0  0  0  0  0  0  0  0  0  0  0
   -1.3475   -1.0025    1.1793 C   0  0  0  0  0  0  0  0  0  0  0  0
   -2.3788   -1.2427    2.2371 C   0  0  0  0  0  0  0  0  0  0  0  0
    0.6329   -0.7672    2.7670 C   0  0  0  0  0  0  0  0  0  0  0  0
    2.0868   -1.1530    2.9791 C   0  0  0  0  0  0  0  0  0  0  0  0
    0.3231   -2.7966   -1.9922 H   0  0  0  0  0  0  0  0  0  0  0  0
    0.3347    0.8711   -0.0530 H   0  0  0  0  0  0  0  0  0  0  0  0
    1.8052    0.0038   -0.0572 H   0  0  0  0  0  0  0  0  0  0  0  0
    3.6553   -1.0776   -1.3432 H   0  0  0  0  0  0  0  0  0  0  0  0
    3.7636   -0.2907   -2.9330 H   0  0  0  0  0  0  0  0  0  0  0  0
    2.6868    0.3370   -1.7680 H   0  0  0  0  0  0  0  0  0  0  0  0
    1.9657   -3.3973   -3.8502 H   0  0  0  0  0  0  0  0  0  0  0  0
    3.3065   -2.2970   -4.2258 H   0  0  0  0  0  0  0  0  0  0  0  0
    3.3526   -3.2565   -2.7511 H   0  0  0  0  0  0  0  0  0  0  0  0
    0.3357   -1.4637   -4.1331 H   0  0  0  0  0  0  0  0  0  0  0  0
    0.5698    0.0587   -3.2825 H   0  0  0  0  0  0  0  0  0  0  0  0
    1.6967   -0.3743   -4.5266 H   0  0  0  0  0  0  0  0  0  0  0  0
    2.3264   -3.7382   -0.9337 H   0  0  0  0  0  0  0  0  0  0  0  0
    2.5354   -2.3462    0.0862 H   0  0  0  0  0  0  0  0  0  0  0  0
   -0.4027   -3.5183    2.1433 H   0  0  0  0  0  0  0  0  0  0  0  0
    0.7907   -1.2850    0.8897 H   0  0  0  0  0  0  0  0  0  0  0  0
   -1.3266    0.0730    0.9479 H   0  0  0  0  0  0  0  0  0  0  0  0
   -1.7250   -1.5299    0.2980 H   0  0  0  0  0  0  0  0  0  0  0  0
   -2.1073   -0.7302    3.1590 H   0  0  0  0  0  0  0  0  0  0  0  0
   -3.3448   -0.8694    1.8907 H   0  0  0  0  0  0  0  0  0  0  0  0
   -2.4495   -2.3180    2.4061 H   0  0  0  0  0  0  0  0  0  0  0  0
    0.6023    0.3112    2.5369 H   0  0  0  0  0  0  0  0  0  0  0  0
    0.0501   -0.9369    3.6684 H   0  0  0  0  0  0  0  0  0  0  0  0
    2.7111   -0.8595    2.1248 H   0  0  0  0  0  0  0  0  0  0  0  0
    2.4742   -0.6552    3.8681 H   0  0  0  0  0  0  0  0  0  0  0  0
    2.1760   -2.2345    3.1048 H   0  0  0  0  0  0  0  0  0  0  0  0
  1  2  1  0  0  0  0
  1 19  1  0  0  0  0
  1 20  1  0  0  0  0
  2  3  2  0  0  0  0
  2  4  1  0  0  0  0
  4  5  1  0  0  0  0
  4  9  1  0  0  0  0
  4 18  1  6  0  0  0
  5  6  1  0  0  0  0
  5  7  1  0  0  0  0
  5  8  1  0  0  0  0
  6 21  1  0  0  0  0
  6 22  1  0  0  0  0
  6 23  1  0  0  0  0
  7 24  1  0  0  0  0
  7 25  1  0  0  0  0
  7 26  1  0  0  0  0
  8 27  1  0  0  0  0
  8 28  1  0  0  0  0
  8 29  1  0  0  0  0
  9 10  1  0  0  0  0
  9 30  1  0  0  0  0
  9 31  1  0  0  0  0
 10 11  2  0  0  0  0
 10 12  1  0  0  0  0
 12 13  1  0  0  0  0
 12 32  1  0  0  0  0
 13 14  1  0  0  0  0
 13 16  1  0  0  0  0
 13 33  1  0  0  0  0
 14 15  1  0  0  0  0
 14 34  1  0  0  0  0
 14 35  1  0  0  0  0
 15 36  1  0  0  0  0
 15 37  1  0  0  0  0
 15 38  1  0  0  0  0
 16 17  1  0  0  0  0
 16 39  1  0  0  0  0
 16 40  1  0  0  0  0
 17 41  1  0  0  0  0
 17 42  1  0  0  0  0
 17 43  1  0  0  0  0
M  END
>  <DRUGBANK_ID>
DB08474

>  <COMMON_NAME>
3-(CARBOXYAMIDE(2-CARBOXYAMIDE-2-TERTBUTYLETHYL))PENTAN

$$$$
