4MB
 OpenBabel10282417163D

 23 23  0  0  0  0  0  0  0  0999 V2000
    1.3206   -0.2655   -0.0191 C   0  0  0  0  0  0  0  0  0  0  0  0
   -0.5141    1.3434    0.0710 C   0  0  0  0  0  0  0  0  0  0  0  0
    0.8892   -2.6858   -0.2125 N   0  0  0  0  0  0  0  0  0  0  0  0
    0.4111   -1.3382   -0.0289 C   0  0  0  0  0  0  0  0  0  0  0  0
    0.8586    1.0709    0.0070 C   0  0  0  0  0  0  0  0  0  0  0  0
   -1.0198    2.7120    0.3230 C   0  0  0  0  0  0  0  0  0  0  0  0
   -1.4085    0.2878   -0.0013 C   0  0  0  0  0  0  0  0  0  0  0  0
    0.2637   -4.9092   -1.5824 C   0  0  0  0  0  0  0  0  0  0  0  0
   -0.9429   -1.0203   -0.0321 C   0  0  0  0  0  0  0  0  0  0  0  0
   -0.3337    3.7115    0.4736 O   0  0  0  0  0  0  0  0  0  0  0  0
   -2.3589    2.7412    0.4649 O   0  0  0  0  0  0  0  0  0  0  0  0
   -0.0895   -4.0719   -0.0591 S   0  0  0  0  0  0  0  0  0  0  0  0
    0.4540   -4.8645    1.0195 O   0  0  0  0  0  0  0  0  0  0  0  0
   -1.5054   -3.7834   -0.1231 O   0  0  0  0  0  0  0  0  0  0  0  0
    2.3967   -0.4338   -0.0130 H   0  0  0  0  0  0  0  0  0  0  0  0
    1.8620   -2.8581    0.0524 H   0  0  0  0  0  0  0  0  0  0  0  0
    1.5684    1.8972   -0.0158 H   0  0  0  0  0  0  0  0  0  0  0  0
   -2.4837    0.4432   -0.0119 H   0  0  0  0  0  0  0  0  0  0  0  0
    1.2962   -5.2550   -1.5844 H   0  0  0  0  0  0  0  0  0  0  0  0
   -0.4176   -5.7635   -1.6401 H   0  0  0  0  0  0  0  0  0  0  0  0
    0.0581   -4.2383   -2.4192 H   0  0  0  0  0  0  0  0  0  0  0  0
   -1.7260   -1.7575   -0.0244 H   0  0  0  0  0  0  0  0  0  0  0  0
   -2.5890    3.6586    0.7165 H   0  0  0  0  0  0  0  0  0  0  0  0
  1  4  1  0  0  0  0
  1  5  2  0  0  0  0
  1 15  1  0  0  0  0
  2  5  1  0  0  0  0
  2  6  1  0  0  0  0
  2  7  2  0  0  0  0
  3  4  1  0  0  0  0
  3 12  1  0  0  0  0
  3 16  1  0  0  0  0
  4  9  2  0  0  0  0
  5 17  1  0  0  0  0
  6 10  2  0  0  0  0
  6 11  1  0  0  0  0
  7  9  1  0  0  0  0
  7 18  1  0  0  0  0
  8 12  1  0  0  0  0
  8 19  1  0  0  0  0
  8 20  1  0  0  0  0
  8 21  1  0  0  0  0
  9 22  1  0  0  0  0
 11 23  1  0  0  0  0
 12 13  2  0  0  0  0
 12 14  2  0  0  0  0
M  END
>  <DRUGBANK_ID>
DB07114

>  <COMMON_NAME>
4-[(METHYLSULFONYL)AMINO]BENZOIC ACID

>  <UNII>
UHN43WS7FF

$$$$
