
 OpenBabel10282417173D

 37 40  0  0  0  0  0  0  0  0999 V2000
   -2.1351   -2.4346    0.0312 C   0  0  0  0  0  0  0  0  0  0  0  0
   -2.9207   -1.2615    0.0554 C   0  0  0  0  0  0  0  0  0  0  0  0
   -2.3079    0.0074    0.0294 C   0  0  0  0  0  0  0  0  0  0  0  0
   -2.9204    1.2745    0.0434 C   0  0  0  0  0  0  0  0  0  0  0  0
   -2.1332    2.4480    0.0531 C   0  0  0  0  0  0  0  0  0  0  0  0
   -0.7282    2.3923    0.0249 C   0  0  0  0  0  0  0  0  0  0  0  0
   -0.1237    1.1516   -0.0222 C   0  0  0  0  0  0  0  0  0  0  0  0
   -0.9178    0.0115   -0.0132 C   0  0  0  0  0  0  0  0  0  0  0  0
   -0.1303   -1.1276   -0.0633 C   0  0  0  0  0  0  0  0  0  0  0  0
   -0.7325   -2.3732   -0.0396 C   0  0  0  0  0  0  0  0  0  0  0  0
    1.2538   -0.6959   -0.1560 C   0  0  0  0  0  0  0  0  0  0  0  0
    1.2662    0.7277   -0.1074 C   0  0  0  0  0  0  0  0  0  0  0  0
    2.4543    1.4397   -0.1259 C   0  0  0  0  0  0  0  0  0  0  0  0
    3.6458    0.7139   -0.2696 C   0  0  0  0  0  0  0  0  0  0  0  0
    3.6001   -0.6873   -0.4650 C   0  0  0  0  0  0  0  0  0  0  0  0
    2.4163   -1.4122   -0.3065 C   0  0  0  0  0  0  0  0  0  0  0  0
    4.9515    1.4199   -0.0474 C   0  0  0  0  0  0  0  0  0  0  0  0
    4.9751    2.6496   -0.0052 O   0  0  0  0  0  0  0  0  0  0  0  0
    6.2313    0.6117    0.1430 C   0  0  0  0  0  0  0  0  0  0  0  0
    6.3736   -0.1139    1.4834 C   0  0  0  0  0  0  0  0  0  0  0  0
    5.3485   -1.1792    1.7755 C   0  0  0  0  0  0  0  0  0  0  0  0
    5.4278   -2.3516    1.4763 O   0  0  0  0  0  0  0  0  0  0  0  0
    4.2098   -0.6523    2.2754 O   0  0  0  0  0  0  0  0  0  0  0  0
   -2.6273   -3.4046    0.0658 H   0  0  0  0  0  0  0  0  0  0  0  0
   -4.0033   -1.3435    0.1045 H   0  0  0  0  0  0  0  0  0  0  0  0
   -4.0040    1.3559    0.0494 H   0  0  0  0  0  0  0  0  0  0  0  0
   -2.6261    3.4172    0.0849 H   0  0  0  0  0  0  0  0  0  0  0  0
   -0.1406    3.3043    0.0324 H   0  0  0  0  0  0  0  0  0  0  0  0
   -0.1474   -3.2863   -0.0758 H   0  0  0  0  0  0  0  0  0  0  0  0
    2.4658    2.5187   -0.0010 H   0  0  0  0  0  0  0  0  0  0  0  0
    4.5093   -1.2632   -0.6128 H   0  0  0  0  0  0  0  0  0  0  0  0
    2.4302   -2.4967   -0.2702 H   0  0  0  0  0  0  0  0  0  0  0  0
    6.3690   -0.0493   -0.7192 H   0  0  0  0  0  0  0  0  0  0  0  0
    7.0616    1.3313    0.0796 H   0  0  0  0  0  0  0  0  0  0  0  0
    7.3471   -0.6177    1.5064 H   0  0  0  0  0  0  0  0  0  0  0  0
    6.3649    0.5958    2.3155 H   0  0  0  0  0  0  0  0  0  0  0  0
    3.5015   -1.3082    2.0917 H   0  0  0  0  0  0  0  0  0  0  0  0
  1  2  1  0  0  0  0
  1 10  2  0  0  0  0
  1 24  1  0  0  0  0
  2  3  2  0  0  0  0
  2 25  1  0  0  0  0
  3  4  1  0  0  0  0
  3  8  1  0  0  0  0
  4  5  2  0  0  0  0
  4 26  1  0  0  0  0
  5  6  1  0  0  0  0
  5 27  1  0  0  0  0
  6  7  2  0  0  0  0
  6 28  1  0  0  0  0
  7  8  1  0  0  0  0
  7 12  1  0  0  0  0
  8  9  2  0  0  0  0
  9 10  1  0  0  0  0
  9 11  1  0  0  0  0
 10 29  1  0  0  0  0
 11 12  2  0  0  0  0
 11 16  1  0  0  0  0
 12 13  1  0  0  0  0
 13 14  2  0  0  0  0
 13 30  1  0  0  0  0
 14 15  1  0  0  0  0
 14 17  1  0  0  0  0
 15 16  2  0  0  0  0
 15 31  1  0  0  0  0
 16 32  1  0  0  0  0
 17 18  2  0  0  0  0
 17 19  1  0  0  0  0
 19 20  1  0  0  0  0
 19 33  1  0  0  0  0
 19 34  1  0  0  0  0
 20 21  1  0  0  0  0
 20 35  1  0  0  0  0
 20 36  1  0  0  0  0
 21 22  2  0  0  0  0
 21 23  1  0  0  0  0
 23 37  1  0  0  0  0
M  END
>  <DRUGBANK_ID>
DB08975

>  <COMMON_NAME>
Florantyrone

>  <CAS_NUMBER>
519-95-9

>  <UNII>
UZ5LMI200P

>  <SYNONYMS>
Florantyrone

$$$$
