1621
 OpenBabel10282417123D

 65 68  0  0  0  0  0  0  0  0999 V2000
    0.0498    1.7988    0.4672 S   0  0  0  0  0  0  0  0  0  0  0  0
    4.8207   -2.2249   -0.8095 S   0  0  0  0  0  0  0  0  0  0  0  0
   -2.9669   -6.5094   -1.5858 O   0  0  0  0  0  0  0  0  0  0  0  0
    5.2190   -2.7579    0.4682 O   0  0  0  0  0  0  0  0  0  0  0  0
    4.3679   -3.1071   -1.8781 O   0  0  0  0  0  0  0  0  0  0  0  0
   -2.9561   -2.6573    2.8068 N   0  0  0  0  0  0  0  0  0  0  0  0
    0.0290   -1.2212    0.6357 N   0  0  0  0  0  0  0  0  0  0  0  0
    6.1497   -1.3152   -1.4086 N   0  0  0  0  0  0  0  0  0  0  0  0
   -3.1301   -5.1133    1.0822 C   0  0  0  0  0  0  0  0  0  0  0  0
   -3.8753   -3.8485    0.7039 C   0  0  0  0  0  0  0  0  0  0  0  0
   -2.9223   -5.1386    2.6071 C   0  0  0  0  0  0  0  0  0  0  0  0
   -3.2356   -2.6811    1.3922 C   0  0  0  0  0  0  0  0  0  0  0  0
   -2.2379   -3.8885    3.1516 C   0  0  0  0  0  0  0  0  0  0  0  0
   -3.9543   -6.3145    0.6273 C   0  0  0  0  0  0  0  0  0  0  0  0
   -2.1837   -1.3961    3.0304 C   0  0  0  0  0  0  0  0  0  0  0  0
   -0.6652   -1.5350    3.1199 C   0  0  0  0  0  0  0  0  0  0  0  0
   -4.1906   -6.3672   -0.8803 C   0  0  0  0  0  0  0  0  0  0  0  0
    0.0501   -2.0676    1.8540 C   0  0  0  0  0  0  0  0  0  0  0  0
    1.2915   -0.6959    0.3281 C   0  0  0  0  0  0  0  0  0  0  0  0
   -1.1000   -0.6649    0.0103 C   0  0  0  0  0  0  0  0  0  0  0  0
    1.4092    0.6847    0.0972 C   0  0  0  0  0  0  0  0  0  0  0  0
   -1.2937    0.7237   -0.0230 C   0  0  0  0  0  0  0  0  0  0  0  0
    2.3566   -1.5710    0.0747 C   0  0  0  0  0  0  0  0  0  0  0  0
    3.5082   -1.0722   -0.5122 C   0  0  0  0  0  0  0  0  0  0  0  0
   -2.0217   -1.4200   -0.7234 C   0  0  0  0  0  0  0  0  0  0  0  0
    2.5596    1.1683   -0.4924 C   0  0  0  0  0  0  0  0  0  0  0  0
    3.5771    0.2818   -0.8487 C   0  0  0  0  0  0  0  0  0  0  0  0
   -2.5012    1.2724   -0.4855 C   0  0  0  0  0  0  0  0  0  0  0  0
   -3.2929   -0.9038   -1.0343 C   0  0  0  0  0  0  0  0  0  0  0  0
   -3.5453    0.4459   -0.8851 C   0  0  0  0  0  0  0  0  0  0  0  0
    6.6882   -0.2984   -0.4702 C   0  0  0  0  0  0  0  0  0  0  0  0
    7.2635   -2.2168   -1.8220 C   0  0  0  0  0  0  0  0  0  0  0  0
   -2.4248   -5.7198   -1.4221 H   0  0  0  0  0  0  0  0  0  0  0  0
   -2.1443   -5.1230    0.5869 H   0  0  0  0  0  0  0  0  0  0  0  0
   -3.8034   -3.7074   -0.3855 H   0  0  0  0  0  0  0  0  0  0  0  0
   -4.9365   -3.8856    0.9503 H   0  0  0  0  0  0  0  0  0  0  0  0
   -3.8881   -5.2396    3.1041 H   0  0  0  0  0  0  0  0  0  0  0  0
   -2.2929   -5.9981    2.8561 H   0  0  0  0  0  0  0  0  0  0  0  0
   -2.2393   -2.7094    0.9855 H   0  0  0  0  0  0  0  0  0  0  0  0
   -3.8032   -1.7867    1.1435 H   0  0  0  0  0  0  0  0  0  0  0  0
   -2.1000   -3.9366    4.2321 H   0  0  0  0  0  0  0  0  0  0  0  0
   -1.2397   -3.9515    2.7295 H   0  0  0  0  0  0  0  0  0  0  0  0
   -3.4469   -7.2268    0.9540 H   0  0  0  0  0  0  0  0  0  0  0  0
   -4.9261   -6.2689    1.1333 H   0  0  0  0  0  0  0  0  0  0  0  0
   -2.5823   -0.9178    3.9314 H   0  0  0  0  0  0  0  0  0  0  0  0
   -2.3957   -0.6384    2.2615 H   0  0  0  0  0  0  0  0  0  0  0  0
   -0.4582   -2.2069    3.9683 H   0  0  0  0  0  0  0  0  0  0  0  0
   -0.2254   -0.5789    3.4288 H   0  0  0  0  0  0  0  0  0  0  0  0
   -4.8202   -7.2283   -1.1168 H   0  0  0  0  0  0  0  0  0  0  0  0
   -4.7122   -5.4797   -1.2543 H   0  0  0  0  0  0  0  0  0  0  0  0
   -0.2388   -3.0625    1.5225 H   0  0  0  0  0  0  0  0  0  0  0  0
    1.0789   -2.2454    2.2126 H   0  0  0  0  0  0  0  0  0  0  0  0
    2.2484   -2.6427    0.2459 H   0  0  0  0  0  0  0  0  0  0  0  0
   -1.8373   -2.4801   -0.8944 H   0  0  0  0  0  0  0  0  0  0  0  0
    2.6439    2.2235   -0.7256 H   0  0  0  0  0  0  0  0  0  0  0  0
    4.4121    0.6853   -1.4042 H   0  0  0  0  0  0  0  0  0  0  0  0
   -2.6376    2.3469   -0.5232 H   0  0  0  0  0  0  0  0  0  0  0  0
   -4.1197   -1.5775   -1.2632 H   0  0  0  0  0  0  0  0  0  0  0  0
   -4.5328    0.8421   -1.1048 H   0  0  0  0  0  0  0  0  0  0  0  0
    7.0693   -0.7670    0.4374 H   0  0  0  0  0  0  0  0  0  0  0  0
    7.4908    0.2560   -0.9667 H   0  0  0  0  0  0  0  0  0  0  0  0
    5.9552    0.4487   -0.1775 H   0  0  0  0  0  0  0  0  0  0  0  0
    7.6647   -2.7406   -0.9473 H   0  0  0  0  0  0  0  0  0  0  0  0
    6.9387   -2.9462   -2.5684 H   0  0  0  0  0  0  0  0  0  0  0  0
    8.0720   -1.6271   -2.2661 H   0  0  0  0  0  0  0  0  0  0  0  0
  1 21  1  0  0  0  0
  1 22  1  0  0  0  0
  2  4  2  0  0  0  0
  2  5  2  0  0  0  0
  2  8  1  0  0  0  0
  2 24  1  0  0  0  0
  3 17  1  0  0  0  0
  3 33  1  0  0  0  0
  6 12  1  0  0  0  0
  6 13  1  0  0  0  0
  6 15  1  0  0  0  0
  7 18  1  0  0  0  0
  7 19  1  0  0  0  0
  7 20  1  0  0  0  0
  8 31  1  0  0  0  0
  8 32  1  0  0  0  0
  9 10  1  0  0  0  0
  9 11  1  0  0  0  0
  9 14  1  0  0  0  0
  9 34  1  0  0  0  0
 10 12  1  0  0  0  0
 10 35  1  0  0  0  0
 10 36  1  0  0  0  0
 11 13  1  0  0  0  0
 11 37  1  0  0  0  0
 11 38  1  0  0  0  0
 12 39  1  0  0  0  0
 12 40  1  0  0  0  0
 13 41  1  0  0  0  0
 13 42  1  0  0  0  0
 14 17  1  0  0  0  0
 14 43  1  0  0  0  0
 14 44  1  0  0  0  0
 15 16  1  0  0  0  0
 15 45  1  0  0  0  0
 15 46  1  0  0  0  0
 16 18  1  0  0  0  0
 16 47  1  0  0  0  0
 16 48  1  0  0  0  0
 17 49  1  0  0  0  0
 17 50  1  0  0  0  0
 18 51  1  0  0  0  0
 18 52  1  0  0  0  0
 19 21  2  0  0  0  0
 19 23  1  0  0  0  0
 20 22  1  0  0  0  0
 20 25  2  0  0  0  0
 21 26  1  0  0  0  0
 22 28  2  0  0  0  0
 23 24  2  0  0  0  0
 23 53  1  0  0  0  0
 24 27  1  0  0  0  0
 25 29  1  0  0  0  0
 25 54  1  0  0  0  0
 26 27  2  0  0  0  0
 26 55  1  0  0  0  0
 27 56  1  0  0  0  0
 28 30  1  0  0  0  0
 28 57  1  0  0  0  0
 29 30  2  0  0  0  0
 29 58  1  0  0  0  0
 30 59  1  0  0  0  0
 31 60  1  0  0  0  0
 31 61  1  0  0  0  0
 31 62  1  0  0  0  0
 32 63  1  0  0  0  0
 32 64  1  0  0  0  0
 32 65  1  0  0  0  0
M  END
>  <DRUGBANK_ID>
DB01621

>  <COMMON_NAME>
Pipotiazine

>  <CAS_NUMBER>
39860-99-6

>  <UNII>
L903J9JPYV

>  <SYNONYMS>
Piportil; Pipothiazine; Pipotiazina; Pipotiazine; Pipotiazinum

$$$$
