
 OpenBabel10282417183D

 34 35  0  0  1  0  0  0  0  0999 V2000
    1.0931    0.1592    0.0181 C   0  0  0  0  0  0  0  0  0  0  0  0
    0.7034    0.3324   -1.4490 C   0  0  0  0  0  0  0  0  0  0  0  0
    1.2359   -0.7596   -2.3384 C   0  0  0  0  0  0  0  0  0  0  0  0
    1.7547   -1.9307   -1.9237 C   0  0  0  0  0  0  0  0  0  0  0  0
    1.8097   -2.8992   -3.0366 C   0  0  2  0  0  0  0  0  0  0  0  0
    1.7117   -2.0153   -4.3180 C   0  0  2  0  0  0  0  0  0  0  0  0
    1.0713   -0.6917   -3.8431 C   0  0  0  0  0  0  0  0  0  0  0  0
    0.8488   -3.1495   -4.9332 C   0  0  0  0  0  0  0  0  0  0  0  0
    0.4024   -3.5830   -3.4752 C   0  0  2  0  0  0  0  0  0  0  0  0
   -0.8811   -2.8779   -2.9364 C   0  0  0  0  0  0  0  0  0  0  0  0
   -0.9574   -2.7644   -1.4391 C   0  0  0  0  0  0  0  0  0  0  0  0
   -1.3816   -1.7960   -0.8176 O   0  0  0  0  0  0  0  0  0  0  0  0
   -0.4940   -3.8271   -0.7625 O   0  0  0  0  0  0  0  0  0  0  0  0
    0.2367   -5.1180   -3.2905 C   0  0  0  0  0  0  0  0  0  0  0  0
   -1.1418   -5.5508   -3.5981 N   0  0  0  0  0  0  0  0  0  0  0  0
    0.7089   -0.7773    0.4408 H   0  0  0  0  0  0  0  0  0  0  0  0
    0.6986    0.9743    0.6296 H   0  0  0  0  0  0  0  0  0  0  0  0
    2.1833    0.1470    0.1173 H   0  0  0  0  0  0  0  0  0  0  0  0
   -0.3932    0.3609   -1.5218 H   0  0  0  0  0  0  0  0  0  0  0  0
    1.0551    1.3039   -1.8058 H   0  0  0  0  0  0  0  0  0  0  0  0
    1.9339   -2.2208   -0.8973 H   0  0  0  0  0  0  0  0  0  0  0  0
    2.6713   -3.5765   -2.9840 H   0  0  0  0  0  0  0  0  0  0  0  0
    2.6687   -1.8158   -4.8182 H   0  0  0  0  0  0  0  0  0  0  0  0
    0.0295   -0.6170   -4.1647 H   0  0  0  0  0  0  0  0  0  0  0  0
    1.5640    0.1848   -4.2668 H   0  0  0  0  0  0  0  0  0  0  0  0
    1.4790   -3.8797   -5.4655 H   0  0  0  0  0  0  0  0  0  0  0  0
    0.0677   -2.8185   -5.6186 H   0  0  0  0  0  0  0  0  0  0  0  0
   -1.0097   -1.8884   -3.3547 H   0  0  0  0  0  0  0  0  0  0  0  0
   -1.8028   -3.3333   -3.2960 H   0  0  0  0  0  0  0  0  0  0  0  0
   -0.4704   -3.5173    0.1671 H   0  0  0  0  0  0  0  0  0  0  0  0
    0.9253   -5.6869   -3.9225 H   0  0  0  0  0  0  0  0  0  0  0  0
    0.4566   -5.4029   -2.2574 H   0  0  0  0  0  0  0  0  0  0  0  0
   -1.2585   -6.5447   -3.4160 H   0  0  0  0  0  0  0  0  0  0  0  0
   -1.7758   -5.1334   -2.9121 H   0  0  0  0  0  0  0  0  0  0  0  0
  1  2  1  0  0  0  0
  1 16  1  0  0  0  0
  1 17  1  0  0  0  0
  1 18  1  0  0  0  0
  2  3  1  0  0  0  0
  2 19  1  0  0  0  0
  2 20  1  0  0  0  0
  3  4  2  0  0  0  0
  3  7  1  0  0  0  0
  4 21  1  0  0  0  0
  5  4  1  0  0  0  0
  5  6  1  0  0  0  0
  5  9  1  0  0  0  0
  5 22  1  1  0  0  0
  6  7  1  0  0  0  0
  6  8  1  0  0  0  0
  6 23  1  6  0  0  0
  7 24  1  0  0  0  0
  7 25  1  0  0  0  0
  8  9  1  0  0  0  0
  8 26  1  0  0  0  0
  8 27  1  0  0  0  0
  9 14  1  1  0  0  0
  9 10  1  0  0  0  0
 10 11  1  0  0  0  0
 10 28  1  0  0  0  0
 10 29  1  0  0  0  0
 11 12  2  0  0  0  0
 11 13  1  0  0  0  0
 13 30  1  0  0  0  0
 14 15  1  0  0  0  0
 14 31  1  0  0  0  0
 14 32  1  0  0  0  0
 15 33  1  0  0  0  0
 15 34  1  0  0  0  0
M  END
>  <DRUGBANK_ID>
DB11825

>  <COMMON_NAME>
Mirogabalin

>  <CAS_NUMBER>
1138245-13-2

>  <UNII>
S7LK2KDM5U

>  <SYNONYMS>
Mirogabalin

$$$$
