
 OpenBabel10282417223D

 33 34  0  0  0  0  0  0  0  0999 V2000
   -0.4227   -1.2762    0.0415 C   0  0  0  0  0  0  0  0  0  0  0  0
    0.8673   -0.8565    0.2028 N   0  0  0  0  0  0  0  0  0  0  0  0
   -0.8556   -2.6192   -0.0400 N   0  3  0  0  0  0  0  0  0  0  0  0
   -1.2058   -0.1479    0.0978 C   0  0  0  0  0  0  0  0  0  0  0  0
   -0.4530    0.9090    0.5179 N   0  0  0  0  0  0  0  0  0  0  0  0
    0.7596    0.4193    0.7047 C   0  0  0  0  0  0  0  0  0  0  0  0
    2.4066    1.2498   -1.9060 C   0  0  0  0  0  0  0  0  0  0  0  0
    0.0059   -3.5034   -0.0352 O   0  5  0  0  0  0  0  0  0  0  0  0
   -2.0770   -2.8044   -0.0446 O   0  0  0  0  0  0  0  0  0  0  0  0
    1.3038    0.9331   -2.3600 O   0  0  0  0  0  0  0  0  0  0  0  0
    2.7989    2.7160   -1.6373 C   0  0  0  0  0  0  0  0  0  0  0  0
    2.1521   -1.4906   -0.0388 C   0  0  0  0  0  0  0  0  0  0  0  0
    3.3170    0.3219   -1.4538 O   0  0  0  0  0  0  0  0  0  0  0  0
    2.8843   -1.0865   -1.3529 C   0  0  0  0  0  0  0  0  0  0  0  0
    1.9406    1.2386    0.9612 C   0  0  0  0  0  0  0  0  0  0  0  0
    3.8961    3.1882   -2.3259 C   0  0  0  0  0  0  0  0  0  0  0  0
    2.0681    3.6689   -0.8309 C   0  0  0  0  0  0  0  0  0  0  0  0
    2.4074    5.0147   -0.7354 C   0  0  0  0  0  0  0  0  0  0  0  0
    4.1860    4.5594   -2.2905 C   0  0  0  0  0  0  0  0  0  0  0  0
    3.4561    5.4643   -1.5038 C   0  0  0  0  0  0  0  0  0  0  0  0
   -2.2724   -0.0425   -0.0592 H   0  0  0  0  0  0  0  0  0  0  0  0
    2.7769   -1.2670    0.8353 H   0  0  0  0  0  0  0  0  0  0  0  0
    2.0251   -2.5712   -0.0199 H   0  0  0  0  0  0  0  0  0  0  0  0
    3.8050   -1.6911   -1.3770 H   0  0  0  0  0  0  0  0  0  0  0  0
    2.3039   -1.3829   -2.2337 H   0  0  0  0  0  0  0  0  0  0  0  0
    1.7317    1.8103    0.1036 H   0  0  0  0  0  0  0  0  0  0  0  0
    1.9660    1.9841    1.7449 H   0  0  0  0  0  0  0  0  0  0  0  0
    2.9332    0.8422    0.7490 H   0  0  0  0  0  0  0  0  0  0  0  0
    4.4786    2.5074   -2.9362 H   0  0  0  0  0  0  0  0  0  0  0  0
    1.2114    3.4382   -0.1916 H   0  0  0  0  0  0  0  0  0  0  0  0
    1.8174    5.6867   -0.1100 H   0  0  0  0  0  0  0  0  0  0  0  0
    4.9758    4.9401   -2.9268 H   0  0  0  0  0  0  0  0  0  0  0  0
    3.6898    6.5243   -1.5061 H   0  0  0  0  0  0  0  0  0  0  0  0
  2  1  1  0  0  0  0
  3  1  1  0  0  0  0
  4  1  2  0  0  0  0
  4 21  1  0  0  0  0
  5  4  1  0  0  0  0
  5  6  2  0  0  0  0
  6  2  1  0  0  0  0
  7 13  1  0  0  0  0
  8  3  1  0  0  0  0
  9  3  2  0  0  0  0
 10  7  2  0  0  0  0
 11  7  1  0  0  0  0
 12  2  1  0  0  0  0
 12 22  1  0  0  0  0
 12 23  1  0  0  0  0
 13 14  1  0  0  0  0
 14 12  1  0  0  0  0
 14 24  1  0  0  0  0
 14 25  1  0  0  0  0
 15  6  1  0  0  0  0
 15 26  1  0  0  0  0
 15 27  1  0  0  0  0
 15 28  1  0  0  0  0
 16 11  2  0  0  0  0
 16 29  1  0  0  0  0
 17 11  1  0  0  0  0
 17 30  1  0  0  0  0
 18 17  2  0  0  0  0
 18 31  1  0  0  0  0
 19 16  1  0  0  0  0
 19 32  1  0  0  0  0
 20 18  1  0  0  0  0
 20 19  2  0  0  0  0
 20 33  1  0  0  0  0
M  CHG  2   3   1   8  -1
M  END
>  <DRUGBANK_ID>
DB15759

>  <COMMON_NAME>
Metronidazole benzoate

>  <CAS_NUMBER>
13182-89-3

>  <UNII>
A355C835XC

>  <SYNONYMS>
2-(2-Methyl-5-nitroimidazol-1-yl)ethyl benzoate; Benzoyl metronidazole; Benzoylmetronidazole; Metronidazol benzoilo; Metronidazole benzoate

$$$$
