
 OpenBabel10282417203D

 24 24  0  0  0  0  0  0  0  0999 V2000
    0.7327    1.2169   -0.2213 C   0  0  0  0  0  0  0  0  0  0  0  0
    1.3972   -0.0988    0.1082 C   0  0  0  0  0  0  0  0  0  0  0  0
   -0.7324    1.2221    0.2568 C   0  0  0  0  0  0  0  0  0  0  0  0
    0.6887   -1.1949   -0.3131 N   0  0  0  0  0  0  0  0  0  0  0  0
    2.4668   -0.1846    0.6973 O   0  0  0  0  0  0  0  0  0  0  0  0
   -1.4173   -0.0640   -0.2348 C   0  0  0  0  0  0  0  0  0  0  0  0
   -0.6041   -1.2702    0.1304 C   0  0  0  0  0  0  0  0  0  0  0  0
   -1.0515   -2.2225    0.7618 O   0  0  0  0  0  0  0  0  0  0  0  0
   -0.7656    1.2682    1.8019 C   0  0  0  0  0  0  0  0  0  0  0  0
   -1.4938    2.4445   -0.3102 C   0  0  0  0  0  0  0  0  0  0  0  0
   -1.5407    2.4874   -1.8372 C   0  0  0  0  0  0  0  0  0  0  0  0
    1.2983    2.0566    0.1994 H   0  0  0  0  0  0  0  0  0  0  0  0
    0.8068    1.2938   -1.3107 H   0  0  0  0  0  0  0  0  0  0  0  0
    1.1926   -2.0541   -0.1498 H   0  0  0  0  0  0  0  0  0  0  0  0
   -1.4635   -0.1013   -1.3280 H   0  0  0  0  0  0  0  0  0  0  0  0
   -2.4437   -0.1459    0.1383 H   0  0  0  0  0  0  0  0  0  0  0  0
   -0.2931    2.1799    2.1835 H   0  0  0  0  0  0  0  0  0  0  0  0
   -1.7943    1.2341    2.1765 H   0  0  0  0  0  0  0  0  0  0  0  0
   -0.2330    0.4197    2.2479 H   0  0  0  0  0  0  0  0  0  0  0  0
   -2.5254    2.4331    0.0662 H   0  0  0  0  0  0  0  0  0  0  0  0
   -1.0370    3.3717    0.0572 H   0  0  0  0  0  0  0  0  0  0  0  0
   -2.0432    1.6100   -2.2536 H   0  0  0  0  0  0  0  0  0  0  0  0
   -2.0933    3.3628   -2.1820 H   0  0  0  0  0  0  0  0  0  0  0  0
   -0.5384    2.5389   -2.2695 H   0  0  0  0  0  0  0  0  0  0  0  0
  1  2  1  0  0  0  0
  1  3  1  0  0  0  0
  1 12  1  0  0  0  0
  1 13  1  0  0  0  0
  2  4  1  0  0  0  0
  2  5  2  0  0  0  0
  3  6  1  0  0  0  0
  3  9  1  0  0  0  0
  3 10  1  0  0  0  0
  4  7  1  0  0  0  0
  4 14  1  0  0  0  0
  6  7  1  0  0  0  0
  6 15  1  0  0  0  0
  6 16  1  0  0  0  0
  7  8  2  0  0  0  0
  9 17  1  0  0  0  0
  9 18  1  0  0  0  0
  9 19  1  0  0  0  0
 10 11  1  0  0  0  0
 10 20  1  0  0  0  0
 10 21  1  0  0  0  0
 11 22  1  0  0  0  0
 11 23  1  0  0  0  0
 11 24  1  0  0  0  0
M  END
>  <DRUGBANK_ID>
DB13740

>  <COMMON_NAME>
Bemegride

>  <CAS_NUMBER>
64-65-3

>  <UNII>
57DQA39DO2

>  <SYNONYMS>
Bemegrida; Bemegride; Bemegridum

$$$$
