
 OpenBabel10282417203D

 48 51  0  0  1  0  0  0  0  0999 V2000
    1.2534    0.1440    0.3130 C   0  0  0  0  0  0  0  0  0  0  0  0
    0.5759    1.4292    0.2898 N   0  0  0  0  0  0  0  0  0  0  0  0
   -0.2685    2.0848   -0.5624 C   0  0  0  0  0  0  0  0  0  0  0  0
   -0.6664    3.1859   -0.1893 O   0  0  0  0  0  0  0  0  0  0  0  0
   -0.7064    1.5412   -1.9478 C   0  0  2  0  0  0  0  0  0  0  0  0
   -0.3396    0.0966   -2.2351 C   0  0  2  0  0  0  0  0  0  0  0  0
    1.0225    0.2705   -2.9022 C   0  0  2  0  0  0  0  0  0  0  0  0
    0.8076    1.5467   -3.7178 C   0  0  1  0  0  0  0  0  0  0  0  0
   -0.1293    2.3456   -3.0002 O   0  0  0  0  0  0  0  0  0  0  0  0
    2.0654    2.2276   -3.9655 N   0  0  0  0  0  0  0  0  0  0  0  0
    3.0451    1.5706   -4.6689 C   0  0  0  0  0  0  0  0  0  0  0  0
    4.1603    2.2352   -4.6827 N   0  0  0  0  0  0  0  0  0  0  0  0
    3.9045    3.3916   -3.9919 C   0  0  0  0  0  0  0  0  0  0  0  0
    2.5885    3.4268   -3.5454 C   0  0  0  0  0  0  0  0  0  0  0  0
    2.0271    4.4304   -2.8485 N   0  0  0  0  0  0  0  0  0  0  0  0
    2.9205    5.4279   -2.6407 C   0  0  0  0  0  0  0  0  0  0  0  0
    4.2245    5.5072   -2.9933 N   0  0  0  0  0  0  0  0  0  0  0  0
    4.7566    4.4679   -3.6786 C   0  0  0  0  0  0  0  0  0  0  0  0
    6.0943    4.5149   -4.0059 N   0  0  0  0  0  0  0  0  0  0  0  0
    6.7842    3.4844   -4.7620 C   0  0  0  0  0  0  0  0  0  0  0  0
    7.2335    3.9526   -6.1256 C   0  0  0  0  0  0  0  0  0  0  0  0
    7.5100    5.2977   -6.3950 C   0  0  0  0  0  0  0  0  0  0  0  0
    7.9584    5.6929   -7.6529 C   0  0  0  0  0  0  0  0  0  0  0  0
    8.1492    4.7472   -8.6585 C   0  0  0  0  0  0  0  0  0  0  0  0
    7.8849    3.4037   -8.4039 C   0  0  0  0  0  0  0  0  0  0  0  0
    7.4302    3.0027   -7.1475 C   0  0  0  0  0  0  0  0  0  0  0  0
    8.1783    1.9940   -9.9037 I   0  0  0  0  0  0  0  0  0  0  0  0
    2.3250    6.7979   -1.7965 Cl  0  0  0  0  0  0  0  0  0  0  0  0
    1.4204   -0.8613   -3.6678 O   0  0  0  0  0  0  0  0  0  0  0  0
   -1.2221   -0.6149   -3.1139 O   0  0  0  0  0  0  0  0  0  0  0  0
    1.2932   -0.3862   -0.6226 H   0  0  0  0  0  0  0  0  0  0  0  0
    0.7375   -0.5144    1.0125 H   0  0  0  0  0  0  0  0  0  0  0  0
    2.2953    0.3032    0.5876 H   0  0  0  0  0  0  0  0  0  0  0  0
    0.6917    1.9761    1.1384 H   0  0  0  0  0  0  0  0  0  0  0  0
   -1.7932    1.6694   -2.0075 H   0  0  0  0  0  0  0  0  0  0  0  0
   -0.4019   -0.5062   -1.3323 H   0  0  0  0  0  0  0  0  0  0  0  0
    1.8422    0.4807   -2.2064 H   0  0  0  0  0  0  0  0  0  0  0  0
    0.3891    1.3094   -4.7025 H   0  0  0  0  0  0  0  0  0  0  0  0
    2.9079    0.5922   -5.1105 H   0  0  0  0  0  0  0  0  0  0  0  0
    6.5914    5.3449   -3.7211 H   0  0  0  0  0  0  0  0  0  0  0  0
    7.6512    3.1386   -4.1906 H   0  0  0  0  0  0  0  0  0  0  0  0
    6.1970    2.5860   -4.9231 H   0  0  0  0  0  0  0  0  0  0  0  0
    7.3660    6.0563   -5.6312 H   0  0  0  0  0  0  0  0  0  0  0  0
    8.1569    6.7437   -7.8425 H   0  0  0  0  0  0  0  0  0  0  0  0
    8.5021    5.0745   -9.6317 H   0  0  0  0  0  0  0  0  0  0  0  0
    7.2184    1.9515   -6.9558 H   0  0  0  0  0  0  0  0  0  0  0  0
    0.6305   -1.2239   -4.1089 H   0  0  0  0  0  0  0  0  0  0  0  0
   -1.3580   -0.1272   -3.9389 H   0  0  0  0  0  0  0  0  0  0  0  0
  1  2  1  0  0  0  0
  1 31  1  0  0  0  0
  1 32  1  0  0  0  0
  1 33  1  0  0  0  0
  2  3  1  0  0  0  0
  2 34  1  0  0  0  0
  3  4  2  0  0  0  0
  5  3  1  0  0  0  0
  5  6  1  0  0  0  0
  5  9  1  0  0  0  0
  5 35  1  6  0  0  0
  6  7  1  0  0  0  0
  6 30  1  0  0  0  0
  6 36  1  1  0  0  0
  7  8  1  0  0  0  0
  7 29  1  0  0  0  0
  7 37  1  1  0  0  0
  8  9  1  0  0  0  0
  8 38  1  6  0  0  0
  8 10  1  0  0  0  0
 10 11  1  0  0  0  0
 10 14  1  0  0  0  0
 11 12  2  0  0  0  0
 11 39  1  0  0  0  0
 12 13  1  0  0  0  0
 13 14  1  0  0  0  0
 13 18  2  0  0  0  0
 14 15  2  0  0  0  0
 15 16  1  0  0  0  0
 16 17  2  0  0  0  0
 16 28  1  0  0  0  0
 17 18  1  0  0  0  0
 18 19  1  0  0  0  0
 19 20  1  0  0  0  0
 19 40  1  0  0  0  0
 20 21  1  0  0  0  0
 20 41  1  0  0  0  0
 20 42  1  0  0  0  0
 21 22  2  0  0  0  0
 21 26  1  0  0  0  0
 22 23  1  0  0  0  0
 22 43  1  0  0  0  0
 23 24  2  0  0  0  0
 23 44  1  0  0  0  0
 24 25  1  0  0  0  0
 24 45  1  0  0  0  0
 25 26  2  0  0  0  0
 25 27  1  0  0  0  0
 26 46  1  0  0  0  0
 29 47  1  0  0  0  0
 30 48  1  0  0  0  0
M  END
>  <DRUGBANK_ID>
DB12885

>  <COMMON_NAME>
Namodenoson

>  <CAS_NUMBER>
163042-96-4

>  <UNII>
Z07JR07J6C

>  <SYNONYMS>
2-Chloro-N(6)-(3-iodobenzyl)adenosine-5'-N-methyluronamide

$$$$
