
 OpenBabel10282417203D

 40 42  0  0  0  0  0  0  0  0999 V2000
    0.7829    0.1581    0.1214 C   0  0  0  0  0  0  0  0  0  0  0  0
    0.4863    0.2321   -1.3674 C   0  0  0  0  0  0  0  0  0  0  0  0
    4.3118   -1.6891    9.0997 C   0  0  0  0  0  0  0  0  0  0  0  0
    4.3926   -0.6720    8.1491 C   0  0  0  0  0  0  0  0  0  0  0  0
    3.8889   -2.9546    8.7111 C   0  0  0  0  0  0  0  0  0  0  0  0
    4.0356   -0.9125    6.8101 C   0  0  0  0  0  0  0  0  0  0  0  0
    3.5756   -3.2046    7.3692 C   0  0  0  0  0  0  0  0  0  0  0  0
    2.4853   -2.4985    0.1101 C   0  0  0  0  0  0  0  0  0  0  0  0
    1.8109   -3.0963    1.1540 C   0  0  0  0  0  0  0  0  0  0  0  0
    4.1451   -1.6084    1.6220 C   0  0  0  0  0  0  0  0  0  0  0  0
    1.9414   -3.0303    4.8108 C   0  0  0  0  0  0  0  0  0  0  0  0
    3.3860   -0.2900   -1.6219 C   0  0  0  0  0  0  0  0  0  0  0  0
    3.5969   -2.1777    6.4022 C   0  0  0  0  0  0  0  0  0  0  0  0
    3.6064   -1.6900    0.3268 C   0  0  0  0  0  0  0  0  0  0  0  0
    2.3363   -2.9796    2.4227 C   0  0  0  0  0  0  0  0  0  0  0  0
    1.6085   -3.5866    3.5112 C   0  0  0  0  0  0  0  0  0  0  0  0
    3.1523   -2.4834    5.0202 C   0  0  0  0  0  0  0  0  0  0  0  0
    3.4858   -2.2302    2.6864 C   0  0  0  0  0  0  0  0  0  0  0  0
    2.3421   -1.0822   -2.4054 C   0  0  0  0  0  0  0  0  0  0  0  0
    0.6894   -4.3947    3.3521 O   0  0  0  0  0  0  0  0  0  0  0  0
    2.6715   -2.0116   -3.1434 O   0  0  0  0  0  0  0  0  0  0  0  0
    1.0262   -0.8543   -2.1513 O   0  0  0  0  0  0  0  0  0  0  0  0
    4.2175   -0.9616   -0.6628 O   0  0  0  0  0  0  0  0  0  0  0  0
    3.9725   -2.0633    3.9724 O   0  0  0  0  0  0  0  0  0  0  0  0
    0.3824   -0.7630    0.5503 H   0  0  0  0  0  0  0  0  0  0  0  0
    0.3596    1.0098    0.6550 H   0  0  0  0  0  0  0  0  0  0  0  0
    1.8454    0.1770    0.3475 H   0  0  0  0  0  0  0  0  0  0  0  0
   -0.6021    0.1706   -1.4840 H   0  0  0  0  0  0  0  0  0  0  0  0
    0.8077    1.1769   -1.8111 H   0  0  0  0  0  0  0  0  0  0  0  0
    4.5855   -1.4999   10.1359 H   0  0  0  0  0  0  0  0  0  0  0  0
    4.7235    0.3172    8.4589 H   0  0  0  0  0  0  0  0  0  0  0  0
    3.7975   -3.7487    9.4490 H   0  0  0  0  0  0  0  0  0  0  0  0
    4.0958   -0.0928    6.1001 H   0  0  0  0  0  0  0  0  0  0  0  0
    3.3185   -4.2239    7.0845 H   0  0  0  0  0  0  0  0  0  0  0  0
    2.0514   -2.6894   -0.8574 H   0  0  0  0  0  0  0  0  0  0  0  0
    0.8644   -3.6038    0.9784 H   0  0  0  0  0  0  0  0  0  0  0  0
    5.0606   -1.0545    1.8079 H   0  0  0  0  0  0  0  0  0  0  0  0
    1.0872   -2.4576    5.1584 H   0  0  0  0  0  0  0  0  0  0  0  0
    4.0605    0.1064   -2.3918 H   0  0  0  0  0  0  0  0  0  0  0  0
    2.9795    0.6300   -1.1963 H   0  0  0  0  0  0  0  0  0  0  0  0
  1 25  1  0  0  0  0
  1 26  1  0  0  0  0
  1 27  1  0  0  0  0
  2  1  1  0  0  0  0
  2 28  1  0  0  0  0
  2 29  1  0  0  0  0
  3 30  1  0  0  0  0
  4  3  2  0  0  0  0
  4 31  1  0  0  0  0
  5  3  1  0  0  0  0
  5 32  1  0  0  0  0
  6  4  1  0  0  0  0
  6 33  1  0  0  0  0
  7  5  2  0  0  0  0
  7 34  1  0  0  0  0
  8 35  1  0  0  0  0
  9  8  2  0  0  0  0
  9 36  1  0  0  0  0
 10 37  1  0  0  0  0
 11 38  1  0  0  0  0
 12 39  1  0  0  0  0
 12 40  1  0  0  0  0
 13  6  2  0  0  0  0
 13  7  1  0  0  0  0
 14  8  1  0  0  0  0
 14 10  2  0  0  0  0
 15  9  1  0  0  0  0
 16 11  1  0  0  0  0
 16 15  1  0  0  0  0
 17 11  2  0  0  0  0
 17 13  1  0  0  0  0
 18 10  1  0  0  0  0
 18 15  2  0  0  0  0
 19 12  1  0  0  0  0
 20 16  2  0  0  0  0
 21 19  2  0  0  0  0
 22  2  1  0  0  0  0
 22 19  1  0  0  0  0
 23 12  1  0  0  0  0
 23 14  1  0  0  0  0
 24 17  1  0  0  0  0
 24 18  1  0  0  0  0
M  END
>  <DRUGBANK_ID>
DB13333

>  <COMMON_NAME>
Efloxate

>  <CAS_NUMBER>
119-41-5

>  <UNII>
CZU6V3902K

>  <SYNONYMS>
Efloxate

$$$$
