
 OpenBabel10282417133D

 63 68  0  0  0  0  0  0  0  0999 V2000
    0.9349   -0.1036    0.0543 C   0  0  0  0  0  0  0  0  0  0  0  0
   -0.3959   -1.9329    1.1282 C   0  0  0  0  0  0  0  0  0  0  0  0
    7.6705  -15.2781  -13.0070 C   0  0  0  0  0  0  0  0  0  0  0  0
    2.5745   -3.2602   -2.4231 C   0  0  0  0  0  0  0  0  0  0  0  0
    0.4097   -4.2268   -2.5734 C   0  0  0  0  0  0  0  0  0  0  0  0
    4.6309   -8.2961   -6.4227 C   0  0  0  0  0  0  0  0  0  0  0  0
    2.1337   -2.3372   -1.4607 C   0  0  0  0  0  0  0  0  0  0  0  0
   -0.0220   -3.3123   -1.5611 C   0  0  0  0  0  0  0  0  0  0  0  0
    6.5578   -9.8014   -9.9918 C   0  0  0  0  0  0  0  0  0  0  0  0
    3.3447   -7.7162   -6.3624 C   0  0  0  0  0  0  0  0  0  0  0  0
    6.5112   -8.5566   -9.3448 C   0  0  0  0  0  0  0  0  0  0  0  0
    7.9568  -12.9190  -12.5337 C   0  0  0  0  0  0  0  0  0  0  0  0
    7.1420  -14.3922  -10.8136 C   0  0  0  0  0  0  0  0  0  0  0  0
    8.3385  -11.8637  -11.4660 C   0  0  0  0  0  0  0  0  0  0  0  0
    7.5115  -13.3607   -9.7160 C   0  0  0  0  0  0  0  0  0  0  0  0
    5.3975   -7.1148   -4.4797 C   0  0  0  0  0  0  0  0  0  0  0  0
    7.8196  -10.8241   -8.1924 C   0  0  0  0  0  0  0  0  0  0  0  0
    1.7439   -4.2555   -2.9776 C   0  0  0  0  0  0  0  0  0  0  0  0
    5.6895   -7.9592   -5.5466 C   0  0  0  0  0  0  0  0  0  0  0  0
    0.8282   -2.3521   -0.9766 C   0  0  0  0  0  0  0  0  0  0  0  0
    7.2965  -10.8895   -9.4946 C   0  0  0  0  0  0  0  0  0  0  0  0
    3.1005   -6.8557   -5.2835 C   0  0  0  0  0  0  0  0  0  0  0  0
    7.1902   -8.4517   -8.1242 C   0  0  0  0  0  0  0  0  0  0  0  0
    4.1227   -6.5199   -4.4085 C   0  0  0  0  0  0  0  0  0  0  0  0
    7.6754   -9.5912   -7.5250 C   0  0  0  0  0  0  0  0  0  0  0  0
    2.4438   -5.2872   -3.7928 C   0  0  0  0  0  0  0  0  0  0  0  0
    7.0817   -8.0336   -6.1002 C   0  0  0  0  0  0  0  0  0  0  0  0
    1.9895   -6.1971   -4.7472 N   0  0  0  0  0  0  0  0  0  0  0  0
    7.2838   -7.3990   -7.2510 N   0  0  0  0  0  0  0  0  0  0  0  0
    3.7277   -5.5157   -3.5828 N   0  0  0  0  0  0  0  0  0  0  0  0
    7.9142   -9.1718   -6.2120 N   0  0  0  0  0  0  0  0  0  0  0  0
    0.4045   -1.4632    0.0049 N   0  0  0  0  0  0  0  0  0  0  0  0
    8.0408  -14.2981  -11.9911 N   0  0  0  0  0  0  0  0  0  0  0  0
    7.4240  -12.0164  -10.3056 N   0  0  0  0  0  0  0  0  0  0  0  0
    0.5592    0.4526    0.9217 H   0  0  0  0  0  0  0  0  0  0  0  0
    0.6149    0.4473   -0.8367 H   0  0  0  0  0  0  0  0  0  0  0  0
    2.0268   -0.0708    0.1188 H   0  0  0  0  0  0  0  0  0  0  0  0
   -1.3881   -2.2546    0.8001 H   0  0  0  0  0  0  0  0  0  0  0  0
    0.0999   -2.7599    1.6487 H   0  0  0  0  0  0  0  0  0  0  0  0
   -0.5528   -1.1417    1.8731 H   0  0  0  0  0  0  0  0  0  0  0  0
    7.7505  -16.2939  -12.6043 H   0  0  0  0  0  0  0  0  0  0  0  0
    6.6497  -15.1310  -13.3759 H   0  0  0  0  0  0  0  0  0  0  0  0
    8.3579  -15.2239  -13.8586 H   0  0  0  0  0  0  0  0  0  0  0  0
    3.6245   -3.2190   -2.7124 H   0  0  0  0  0  0  0  0  0  0  0  0
   -0.3251   -4.9113   -2.9857 H   0  0  0  0  0  0  0  0  0  0  0  0
    4.8452   -8.9428   -7.2719 H   0  0  0  0  0  0  0  0  0  0  0  0
    2.8728   -1.6527   -1.0557 H   0  0  0  0  0  0  0  0  0  0  0  0
   -1.0624   -3.3470   -1.2437 H   0  0  0  0  0  0  0  0  0  0  0  0
    5.9547   -9.9344  -10.8894 H   0  0  0  0  0  0  0  0  0  0  0  0
    2.6661   -7.8707   -7.1979 H   0  0  0  0  0  0  0  0  0  0  0  0
    5.8678   -7.7579   -9.6831 H   0  0  0  0  0  0  0  0  0  0  0  0
    8.6211  -12.8147  -13.3995 H   0  0  0  0  0  0  0  0  0  0  0  0
    6.9331  -12.7115  -12.8753 H   0  0  0  0  0  0  0  0  0  0  0  0
    6.1040  -14.2083  -11.1256 H   0  0  0  0  0  0  0  0  0  0  0  0
    7.1854  -15.3994  -10.3856 H   0  0  0  0  0  0  0  0  0  0  0  0
    9.3825  -12.0214  -11.1556 H   0  0  0  0  0  0  0  0  0  0  0  0
    8.2793  -10.8650  -11.9142 H   0  0  0  0  0  0  0  0  0  0  0  0
    8.5215  -13.5654   -9.3347 H   0  0  0  0  0  0  0  0  0  0  0  0
    6.8031  -13.4641   -8.8866 H   0  0  0  0  0  0  0  0  0  0  0  0
    6.1404   -6.7958   -3.7620 H   0  0  0  0  0  0  0  0  0  0  0  0
    8.2690  -11.6713   -7.7070 H   0  0  0  0  0  0  0  0  0  0  0  0
    1.0283   -6.4533   -4.9068 H   0  0  0  0  0  0  0  0  0  0  0  0
    8.8861   -9.0838   -5.9727 H   0  0  0  0  0  0  0  0  0  0  0  0
  1 35  1  0  0  0  0
  1 36  1  0  0  0  0
  1 37  1  0  0  0  0
  2 38  1  0  0  0  0
  2 39  1  0  0  0  0
  2 40  1  0  0  0  0
  3 41  1  0  0  0  0
  3 42  1  0  0  0  0
  3 43  1  0  0  0  0
  4 44  1  0  0  0  0
  5 45  1  0  0  0  0
  6 46  1  0  0  0  0
  7  4  1  0  0  0  0
  7 47  1  0  0  0  0
  8  5  2  0  0  0  0
  8 48  1  0  0  0  0
  9 49  1  0  0  0  0
 10  6  2  0  0  0  0
 10 50  1  0  0  0  0
 11  9  2  0  0  0  0
 11 51  1  0  0  0  0
 12 52  1  0  0  0  0
 12 53  1  0  0  0  0
 13 54  1  0  0  0  0
 13 55  1  0  0  0  0
 14 12  1  0  0  0  0
 14 56  1  0  0  0  0
 14 57  1  0  0  0  0
 15 13  1  0  0  0  0
 15 58  1  0  0  0  0
 15 59  1  0  0  0  0
 16 60  1  0  0  0  0
 17 61  1  0  0  0  0
 18  4  2  0  0  0  0
 18  5  1  0  0  0  0
 19  6  1  0  0  0  0
 19 16  2  0  0  0  0
 20  7  2  0  0  0  0
 20  8  1  0  0  0  0
 21  9  1  0  0  0  0
 21 17  2  0  0  0  0
 22 10  1  0  0  0  0
 23 11  1  0  0  0  0
 24 16  1  0  0  0  0
 24 22  2  0  0  0  0
 25 17  1  0  0  0  0
 25 23  2  0  0  0  0
 26 18  1  0  0  0  0
 27 19  1  0  0  0  0
 28 22  1  0  0  0  0
 28 26  1  0  0  0  0
 28 62  1  0  0  0  0
 29 23  1  0  0  0  0
 29 27  2  0  0  0  0
 30 24  1  0  0  0  0
 30 26  2  0  0  0  0
 31 25  1  0  0  0  0
 31 27  1  0  0  0  0
 31 63  1  0  0  0  0
 32  1  1  0  0  0  0
 32  2  1  0  0  0  0
 32 20  1  0  0  0  0
 33  3  1  0  0  0  0
 33 12  1  0  0  0  0
 33 13  1  0  0  0  0
 34 14  1  0  0  0  0
 34 15  1  0  0  0  0
 34 21  1  0  0  0  0
M  END
>  <DRUGBANK_ID>
DB04011

>  <SECONDARY_ACCESSION_NUMBERS>
EXPT00636

>  <COMMON_NAME>
2'-(4-Dimethylaminophenyl)-5-(4-Methyl-1-Piperazinyl)-2,5'-Bi-Benzimidazole

$$$$
