
 OpenBabel10282417123D

 40 41  0  0  1  0  0  0  0  0999 V2000
    1.4399   -0.2928    0.0122 C   0  0  0  0  0  0  0  0  0  0  0  0
   -8.1985    6.2932   -2.3782 C   0  0  0  0  0  0  0  0  0  0  0  0
    0.5312   -1.3518    0.0218 C   0  0  0  0  0  0  0  0  0  0  0  0
    0.9772    1.0071   -0.0796 C   0  0  0  0  0  0  0  0  0  0  0  0
   -7.3481    7.3803   -2.1752 C   0  0  0  0  0  0  0  0  0  0  0  0
   -7.7052    4.9915   -2.2755 C   0  0  0  0  0  0  0  0  0  0  0  0
   -0.8470   -1.1138   -0.0202 C   0  0  0  0  0  0  0  0  0  0  0  0
   -0.3896    1.2352   -0.1594 C   0  0  0  0  0  0  0  0  0  0  0  0
   -5.9968    7.1699   -1.8897 C   0  0  0  0  0  0  0  0  0  0  0  0
   -6.3652    4.7704   -1.9438 C   0  0  0  0  0  0  0  0  0  0  0  0
   -2.8197    0.4586   -0.1838 C   0  0  0  0  0  0  0  0  0  0  0  0
   -3.3991    1.2676    0.9944 C   0  0  0  0  0  0  0  0  0  0  0  0
   -2.9951    3.5146   -0.0939 C   0  0  0  0  0  0  0  0  0  0  0  0
   -3.5925    4.7167   -0.1507 C   0  0  0  0  0  0  0  0  0  0  0  0
   -1.3312    0.1931   -0.1019 C   0  0  0  0  0  0  0  0  0  0  0  0
   -2.7972    2.6758    1.1538 C   0  0  1  0  0  0  0  0  0  0  0  0
   -5.5050    5.8639   -1.7895 C   0  0  0  0  0  0  0  0  0  0  0  0
   -3.3053    3.3301    2.3508 N   0  0  0  0  0  0  0  0  0  0  0  0
   -3.1209    6.8850   -1.4411 O   0  0  0  0  0  0  0  0  0  0  0  0
   -3.3704    4.7547   -2.7660 O   0  0  0  0  0  0  0  0  0  0  0  0
   -3.7441    5.5856   -1.6412 S   0  0  0  0  0  0  0  0  0  0  0  0
   -1.7358    2.5756    1.3794 H   0  0  0  0  0  0  0  0  0  0  0  0
    2.5079   -0.4764    0.0606 H   0  0  0  0  0  0  0  0  0  0  0  0
   -9.2453    6.4616   -2.6243 H   0  0  0  0  0  0  0  0  0  0  0  0
    0.9012   -2.3718    0.0527 H   0  0  0  0  0  0  0  0  0  0  0  0
    1.6591    1.8525   -0.1106 H   0  0  0  0  0  0  0  0  0  0  0  0
   -7.7339    8.3928   -2.2726 H   0  0  0  0  0  0  0  0  0  0  0  0
   -8.3630    4.1501   -2.4828 H   0  0  0  0  0  0  0  0  0  0  0  0
   -1.5326   -1.9580   -0.0046 H   0  0  0  0  0  0  0  0  0  0  0  0
   -0.6774    2.2726   -0.2631 H   0  0  0  0  0  0  0  0  0  0  0  0
   -5.3369    8.0274   -1.7774 H   0  0  0  0  0  0  0  0  0  0  0  0
   -6.0013    3.7512   -1.8446 H   0  0  0  0  0  0  0  0  0  0  0  0
   -3.0315    0.9514   -1.1398 H   0  0  0  0  0  0  0  0  0  0  0  0
   -3.3660   -0.4935   -0.2387 H   0  0  0  0  0  0  0  0  0  0  0  0
   -4.4866    1.3519    0.8566 H   0  0  0  0  0  0  0  0  0  0  0  0
   -3.2485    0.6946    1.9197 H   0  0  0  0  0  0  0  0  0  0  0  0
   -2.6036    3.0935   -1.0239 H   0  0  0  0  0  0  0  0  0  0  0  0
   -3.9567    5.2207    0.7277 H   0  0  0  0  0  0  0  0  0  0  0  0
   -2.7913    4.2024    2.4746 H   0  0  0  0  0  0  0  0  0  0  0  0
   -4.2904    3.5438    2.2467 H   0  0  0  0  0  0  0  0  0  0  0  0
  1 23  1  0  0  0  0
  2 24  1  0  0  0  0
  3  1  2  0  0  0  0
  3 25  1  0  0  0  0
  4  1  1  0  0  0  0
  4 26  1  0  0  0  0
  5  2  2  0  0  0  0
  5 27  1  0  0  0  0
  6  2  1  0  0  0  0
  6 28  1  0  0  0  0
  7  3  1  0  0  0  0
  7 29  1  0  0  0  0
  8  4  2  0  0  0  0
  8 30  1  0  0  0  0
  9  5  1  0  0  0  0
  9 31  1  0  0  0  0
 10  6  2  0  0  0  0
 10 32  1  0  0  0  0
 11 33  1  0  0  0  0
 11 34  1  0  0  0  0
 12 11  1  0  0  0  0
 12 35  1  0  0  0  0
 12 36  1  0  0  0  0
 13 37  1  0  0  0  0
 14 13  2  3  0  0  0
 14 21  1  0  0  0  0
 14 38  1  0  0  0  0
 15  7  2  0  0  0  0
 15  8  1  0  0  0  0
 15 11  1  0  0  0  0
 16 12  1  0  0  0  0
 16 13  1  0  0  0  0
 16 18  1  0  0  0  0
 16 22  1  1  0  0  0
 17  9  2  0  0  0  0
 17 10  1  0  0  0  0
 18 39  1  0  0  0  0
 18 40  1  0  0  0  0
 21 17  1  0  0  0  0
 21 19  2  0  0  0  0
 21 20  2  0  0  0  0
M  END
>  <DRUGBANK_ID>
DB02869

>  <SECONDARY_ACCESSION_NUMBERS>
EXPT02332

>  <COMMON_NAME>
3-amino-5-phenylpentane

$$$$
