1459
 OpenBabel10282417113D

 69 73  0  0  0  0  0  0  0  0999 V2000
    1.2342   -0.1671   -0.1835 O   0  0  0  0  0  0  0  0  0  0  0  0
    1.5169   -2.7036    0.0218 O   0  0  0  0  0  0  0  0  0  0  0  0
    1.2706    5.2754    0.3412 N   0  0  0  0  0  0  0  0  0  0  0  0
    3.3024    1.1903    0.0347 N   0  0  0  0  0  0  0  0  0  0  0  0
    3.2690   -1.1488    0.0588 N   0  0  0  0  0  0  0  0  0  0  0  0
    0.7311    1.9656    0.2277 N   0  0  0  0  0  0  0  0  0  0  0  0
    2.9037    2.6397    0.0901 C   0  0  0  0  0  0  0  0  0  0  0  0
    2.3732    3.1151    1.5289 C   0  0  0  0  0  0  0  0  0  0  0  0
    3.2268    3.9389   -0.6816 C   0  0  0  0  0  0  0  0  0  0  0  0
    1.3203    4.2920    1.4574 C   0  0  0  0  0  0  0  0  0  0  0  0
    1.8883    4.7413   -0.8959 C   0  0  0  0  0  0  0  0  0  0  0  0
   -0.1630    5.6711    0.0288 C   0  0  0  0  0  0  0  0  0  0  0  0
   -1.1702    4.7621   -0.8306 C   0  0  0  0  0  0  0  0  0  0  0  0
    4.5943    0.7299    0.0678 C   0  0  0  0  0  0  0  0  0  0  0  0
   -1.6272    3.3593   -0.2515 C   0  0  0  0  0  0  0  0  0  0  0  0
    2.4074   -0.0185   -0.0326 C   0  0  0  0  0  0  0  0  0  0  0  0
    4.5892   -0.6734    0.1162 C   0  0  0  0  0  0  0  0  0  0  0  0
   -2.4296    3.5559    1.0757 C   0  0  0  0  0  0  0  0  0  0  0  0
   -2.4664    2.5249   -1.2431 C   0  0  0  0  0  0  0  0  0  0  0  0
    5.7333    1.4894    0.0307 C   0  0  0  0  0  0  0  0  0  0  0  0
    5.7882   -1.3369    0.1888 C   0  0  0  0  0  0  0  0  0  0  0  0
    2.7197   -2.4288    0.0007 C   0  0  0  0  0  0  0  0  0  0  0  0
   -0.3382    2.5976    0.0104 C   0  0  0  0  0  0  0  0  0  0  0  0
    6.9356    0.8022    0.0119 C   0  0  0  0  0  0  0  0  0  0  0  0
    6.9615   -0.5976    0.0796 C   0  0  0  0  0  0  0  0  0  0  0  0
   -2.8926    2.4565    1.8190 C   0  0  0  0  0  0  0  0  0  0  0  0
   -2.3975    1.1116   -1.2033 C   0  0  0  0  0  0  0  0  0  0  0  0
   -2.7534    4.8288    1.5869 C   0  0  0  0  0  0  0  0  0  0  0  0
   -3.2991    3.1076   -2.2058 C   0  0  0  0  0  0  0  0  0  0  0  0
    3.6498   -3.6068   -0.0639 C   0  0  0  0  0  0  0  0  0  0  0  0
   -3.7248    2.6383    2.9286 C   0  0  0  0  0  0  0  0  0  0  0  0
   -2.9594    0.3321   -2.2053 C   0  0  0  0  0  0  0  0  0  0  0  0
   -3.3870    5.0052    2.8118 C   0  0  0  0  0  0  0  0  0  0  0  0
   -3.9459    2.3121   -3.1538 C   0  0  0  0  0  0  0  0  0  0  0  0
    4.4131   -3.6511   -1.3748 C   0  0  0  0  0  0  0  0  0  0  0  0
   -3.9521    3.9120    3.4379 C   0  0  0  0  0  0  0  0  0  0  0  0
   -3.7173    0.9380   -3.1957 C   0  0  0  0  0  0  0  0  0  0  0  0
    2.2268    2.4265   -0.7395 H   0  0  0  0  0  0  0  0  0  0  0  0
    1.9080    2.2527    2.0550 H   0  0  0  0  0  0  0  0  0  0  0  0
    3.1824    3.3930    2.2022 H   0  0  0  0  0  0  0  0  0  0  0  0
    3.9034    4.5750   -0.1156 H   0  0  0  0  0  0  0  0  0  0  0  0
    3.6339    3.7246   -1.6720 H   0  0  0  0  0  0  0  0  0  0  0  0
    0.5356    3.8153    1.0213 H   0  0  0  0  0  0  0  0  0  0  0  0
    0.6549    4.3666    2.3458 H   0  0  0  0  0  0  0  0  0  0  0  0
    2.0330    5.5881   -1.5715 H   0  0  0  0  0  0  0  0  0  0  0  0
    1.1956    4.0853   -1.4450 H   0  0  0  0  0  0  0  0  0  0  0  0
   -0.6101    5.9294    0.9918 H   0  0  0  0  0  0  0  0  0  0  0  0
   -0.1286    6.6325   -0.4994 H   0  0  0  0  0  0  0  0  0  0  0  0
   -2.0723    5.3693   -1.0131 H   0  0  0  0  0  0  0  0  0  0  0  0
   -0.7609    4.6226   -1.8396 H   0  0  0  0  0  0  0  0  0  0  0  0
    5.6889    2.5695   -0.0092 H   0  0  0  0  0  0  0  0  0  0  0  0
    5.8746   -2.4066    0.2887 H   0  0  0  0  0  0  0  0  0  0  0  0
    7.8652    1.3554   -0.0422 H   0  0  0  0  0  0  0  0  0  0  0  0
    7.9061   -1.1299    0.0474 H   0  0  0  0  0  0  0  0  0  0  0  0
   -2.6522    1.4351    1.5345 H   0  0  0  0  0  0  0  0  0  0  0  0
   -1.8597    0.5855   -0.4117 H   0  0  0  0  0  0  0  0  0  0  0  0
   -2.5358    5.7483    1.0583 H   0  0  0  0  0  0  0  0  0  0  0  0
   -3.4478    4.1819   -2.2531 H   0  0  0  0  0  0  0  0  0  0  0  0
    4.2688   -3.5968    0.8368 H   0  0  0  0  0  0  0  0  0  0  0  0
    3.0472   -4.5223    0.0119 H   0  0  0  0  0  0  0  0  0  0  0  0
   -4.1901    1.7774    3.3999 H   0  0  0  0  0  0  0  0  0  0  0  0
   -2.7807   -0.7401   -2.2092 H   0  0  0  0  0  0  0  0  0  0  0  0
   -3.4676    6.0024    3.2360 H   0  0  0  0  0  0  0  0  0  0  0  0
   -4.6115    2.7711   -3.8789 H   0  0  0  0  0  0  0  0  0  0  0  0
    4.9361   -2.7259   -1.6185 H   0  0  0  0  0  0  0  0  0  0  0  0
    5.1548   -4.4514   -1.3404 H   0  0  0  0  0  0  0  0  0  0  0  0
    3.7340   -3.8060   -2.2162 H   0  0  0  0  0  0  0  0  0  0  0  0
   -4.5790    4.0577    4.3108 H   0  0  0  0  0  0  0  0  0  0  0  0
   -4.1343    0.3354   -3.9960 H   0  0  0  0  0  0  0  0  0  0  0  0
  1 16  2  0  0  0  0
  2 22  2  0  0  0  0
  3 10  1  0  0  0  0
  3 11  1  0  0  0  0
  3 12  1  0  0  0  0
  4  7  1  0  0  0  0
  4 14  1  0  0  0  0
  4 16  1  0  0  0  0
  5 16  1  0  0  0  0
  5 17  1  0  0  0  0
  5 22  1  0  0  0  0
  6 23  3  0  0  0  0
  7  8  1  0  0  0  0
  7  9  1  0  0  0  0
  7 38  1  0  0  0  0
  8 10  1  0  0  0  0
  8 39  1  0  0  0  0
  8 40  1  0  0  0  0
  9 11  1  0  0  0  0
  9 41  1  0  0  0  0
  9 42  1  0  0  0  0
 10 43  1  0  0  0  0
 10 44  1  0  0  0  0
 11 45  1  0  0  0  0
 11 46  1  0  0  0  0
 12 13  1  0  0  0  0
 12 47  1  0  0  0  0
 12 48  1  0  0  0  0
 13 15  1  0  0  0  0
 13 49  1  0  0  0  0
 13 50  1  0  0  0  0
 14 17  1  0  0  0  0
 14 20  2  0  0  0  0
 15 18  1  0  0  0  0
 15 19  1  0  0  0  0
 15 23  1  0  0  0  0
 17 21  2  0  0  0  0
 18 26  2  0  0  0  0
 18 28  1  0  0  0  0
 19 27  2  0  0  0  0
 19 29  1  0  0  0  0
 20 24  1  0  0  0  0
 20 51  1  0  0  0  0
 21 25  1  0  0  0  0
 21 52  1  0  0  0  0
 22 30  1  0  0  0  0
 24 25  2  0  0  0  0
 24 53  1  0  0  0  0
 25 54  1  0  0  0  0
 26 31  1  0  0  0  0
 26 55  1  0  0  0  0
 27 32  1  0  0  0  0
 27 56  1  0  0  0  0
 28 33  2  0  0  0  0
 28 57  1  0  0  0  0
 29 34  2  0  0  0  0
 29 58  1  0  0  0  0
 30 35  1  0  0  0  0
 30 59  1  0  0  0  0
 30 60  1  0  0  0  0
 31 36  2  0  0  0  0
 31 61  1  0  0  0  0
 32 37  2  0  0  0  0
 32 62  1  0  0  0  0
 33 36  1  0  0  0  0
 33 63  1  0  0  0  0
 34 37  1  0  0  0  0
 34 64  1  0  0  0  0
 35 65  1  0  0  0  0
 35 66  1  0  0  0  0
 35 67  1  0  0  0  0
 36 68  1  0  0  0  0
 37 69  1  0  0  0  0
M  END
>  <DRUGBANK_ID>
DB01459

>  <COMMON_NAME>
Bezitramide

>  <CAS_NUMBER>
15301-48-1

>  <UNII>
3KXW0Y310I

>  <SYNONYMS>
Bezitramida; Bezitramide; Bezitramidum

$$$$
