HTG
 OpenBabel10282417143D

 45 45  0  0  0  0  0  0  0  0999 V2000
    1.1960    1.4242   -0.4328 C   0  0  1  0  0  0  0  0  0  0  0  0
    2.5553    2.5255    0.2962 S   0  0  0  0  0  0  0  0  0  0  0  0
    1.2804   -0.0507    0.0072 C   0  0  2  0  0  0  0  0  0  0  0  0
    2.4539   -0.6949   -0.5302 O   0  0  0  0  0  0  0  0  0  0  0  0
    0.0181   -0.8440   -0.3766 C   0  0  1  0  0  0  0  0  0  0  0  0
    0.0379   -2.1380    0.2536 O   0  0  0  0  0  0  0  0  0  0  0  0
   -1.2824   -0.1152   -0.0215 C   0  0  2  0  0  0  0  0  0  0  0  0
   -2.4358   -0.8139   -0.5104 O   0  0  0  0  0  0  0  0  0  0  0  0
   -1.2862    1.3331   -0.5232 C   0  0  2  0  0  0  0  0  0  0  0  0
   -0.0736    2.0681   -0.3030 O   0  0  0  0  0  0  0  0  0  0  0  0
   -2.4583    2.0748    0.1856 C   0  0  0  0  0  0  0  0  0  0  0  0
   -2.4629    3.4648   -0.1216 O   0  0  0  0  0  0  0  0  0  0  0  0
    2.5459    2.3339    2.1455 C   0  0  0  0  0  0  0  0  0  0  0  0
    1.3488    2.9403    2.8851 C   0  0  0  0  0  0  0  0  0  0  0  0
    0.0887    2.1439    2.6646 C   0  0  0  0  0  0  0  0  0  0  0  0
    0.2018    0.6919    3.1087 C   0  0  0  0  0  0  0  0  0  0  0  0
    0.0333    0.5206    4.5882 C   0  0  0  0  0  0  0  0  0  0  0  0
   -1.3114    1.0722    5.0353 C   0  0  0  0  0  0  0  0  0  0  0  0
   -2.4782    0.3695    4.3479 C   0  0  0  0  0  0  0  0  0  0  0  0
    1.4289    1.4536   -1.5007 H   0  0  0  0  0  0  0  0  0  0  0  0
    1.4231   -0.1391    1.0691 H   0  0  0  0  0  0  0  0  0  0  0  0
    0.0293   -1.0536   -1.4485 H   0  0  0  0  0  0  0  0  0  0  0  0
   -1.4341   -0.1438    1.0504 H   0  0  0  0  0  0  0  0  0  0  0  0
   -1.4817    1.3592   -1.5986 H   0  0  0  0  0  0  0  0  0  0  0  0
    2.4384   -0.6373   -1.4859 H   0  0  0  0  0  0  0  0  0  0  0  0
    0.1108   -2.0259    1.2174 H   0  0  0  0  0  0  0  0  0  0  0  0
   -2.3794   -0.8866   -1.4727 H   0  0  0  0  0  0  0  0  0  0  0  0
   -3.4244    1.6551   -0.1124 H   0  0  0  0  0  0  0  0  0  0  0  0
   -2.4002    1.9905    1.2775 H   0  0  0  0  0  0  0  0  0  0  0  0
   -1.6050    3.8112    0.1892 H   0  0  0  0  0  0  0  0  0  0  0  0
    2.7423    1.2955    2.4243 H   0  0  0  0  0  0  0  0  0  0  0  0
    3.4292    2.8718    2.5137 H   0  0  0  0  0  0  0  0  0  0  0  0
    1.5387    2.9849    3.9649 H   0  0  0  0  0  0  0  0  0  0  0  0
    1.1936    3.9766    2.5617 H   0  0  0  0  0  0  0  0  0  0  0  0
   -0.7943    2.6661    3.0374 H   0  0  0  0  0  0  0  0  0  0  0  0
   -0.0956    2.1642    1.6237 H   0  0  0  0  0  0  0  0  0  0  0  0
   -0.5344    0.0732    2.6115 H   0  0  0  0  0  0  0  0  0  0  0  0
    1.1525    0.2351    2.8566 H   0  0  0  0  0  0  0  0  0  0  0  0
    0.1108   -0.5493    4.8132 H   0  0  0  0  0  0  0  0  0  0  0  0
    0.8656    1.0198    5.0929 H   0  0  0  0  0  0  0  0  0  0  0  0
   -1.3834    0.9683    6.1172 H   0  0  0  0  0  0  0  0  0  0  0  0
   -1.3736    2.1466    4.8353 H   0  0  0  0  0  0  0  0  0  0  0  0
   -2.4421   -0.7065    4.5419 H   0  0  0  0  0  0  0  0  0  0  0  0
   -3.4246    0.7702    4.7136 H   0  0  0  0  0  0  0  0  0  0  0  0
   -2.4821    0.5092    3.2606 H   0  0  0  0  0  0  0  0  0  0  0  0
  1  2  1  0  0  0  0
  1  3  1  0  0  0  0
  1 10  1  0  0  0  0
  1 20  1  6  0  0  0
  2 13  1  0  0  0  0
  3  4  1  0  0  0  0
  3  5  1  0  0  0  0
  3 21  1  1  0  0  0
  4 25  1  0  0  0  0
  5  6  1  0  0  0  0
  5  7  1  0  0  0  0
  5 22  1  6  0  0  0
  6 26  1  0  0  0  0
  7  8  1  0  0  0  0
  7  9  1  0  0  0  0
  7 23  1  1  0  0  0
  8 27  1  0  0  0  0
  9 10  1  0  0  0  0
  9 11  1  0  0  0  0
  9 24  1  6  0  0  0
 11 12  1  0  0  0  0
 11 28  1  0  0  0  0
 11 29  1  0  0  0  0
 12 30  1  0  0  0  0
 13 14  1  0  0  0  0
 13 31  1  0  0  0  0
 13 32  1  0  0  0  0
 14 15  1  0  0  0  0
 14 33  1  0  0  0  0
 14 34  1  0  0  0  0
 15 16  1  0  0  0  0
 15 35  1  0  0  0  0
 15 36  1  0  0  0  0
 16 17  1  0  0  0  0
 16 37  1  0  0  0  0
 16 38  1  0  0  0  0
 17 18  1  0  0  0  0
 17 39  1  0  0  0  0
 17 40  1  0  0  0  0
 18 19  1  0  0  0  0
 18 41  1  0  0  0  0
 18 42  1  0  0  0  0
 19 43  1  0  0  0  0
 19 44  1  0  0  0  0
 19 45  1  0  0  0  0
M  END
>  <DRUGBANK_ID>
DB04450

>  <SECONDARY_ACCESSION_NUMBERS>
EXPT01788

>  <COMMON_NAME>
Heptyl 1-Thiohexopyranoside

$$$$
