
 OpenBabel10282417113D

 59 63  0  0  0  0  0  0  0  0999 V2000
    0.4042    1.1224   -0.0016 C   0  0  0  0  0  0  0  0  0  0  0  0
    0.7285    2.5156    0.0180 C   0  0  0  0  0  0  0  0  0  0  0  0
    1.4941    2.9281   -1.0745 O   0  0  0  0  0  0  0  0  0  0  0  0
    1.8183    4.2650   -1.1920 C   0  0  0  0  0  0  0  0  0  0  0  0
   -0.9112    0.7247    0.0439 N   0  0  0  0  0  0  0  0  0  0  0  0
   -0.9081   -0.6014    0.0194 N   0  0  0  0  0  0  0  0  0  0  0  0
    0.3266    3.3263    1.0066 C   0  0  0  0  0  0  0  0  0  0  0  0
    0.3874   -0.9357   -0.0154 N   0  0  0  0  0  0  0  0  0  0  0  0
    0.6690    4.7527    0.9578 C   0  0  0  0  0  0  0  0  0  0  0  0
    1.4305    5.1998   -0.2185 C   0  0  0  0  0  0  0  0  0  0  0  0
    1.2582    0.0874   -0.0507 N   0  0  0  0  0  0  0  0  0  0  0  0
    3.8205    4.1528   -4.3839 C   0  0  0  0  0  0  0  0  0  0  0  0
    3.0172    3.7871   -3.3110 N   0  0  0  0  0  0  0  0  0  0  0  0
    2.5564    4.7001   -2.3100 C   0  0  0  0  0  0  0  0  0  0  0  0
    4.3387    3.1318   -5.2959 C   0  0  0  0  0  0  0  0  0  0  0  0
    0.3261    5.5118    1.8432 O   0  0  0  0  0  0  0  0  0  0  0  0
    4.1575    5.3017   -4.7123 O   0  0  0  0  0  0  0  0  0  0  0  0
    3.4466    2.3801   -6.0109 C   0  0  0  0  0  0  0  0  0  0  0  0
    5.6771    3.1829   -5.7370 C   0  0  0  0  0  0  0  0  0  0  0  0
    5.2812    1.4819   -7.3822 C   0  0  0  0  0  0  0  0  0  0  0  0
    1.7476    6.5574   -0.3352 C   0  0  0  0  0  0  0  0  0  0  0  0
    6.1544    2.3372   -6.7573 C   0  0  0  0  0  0  0  0  0  0  0  0
    3.9487    1.7355   -7.1427 C   0  0  0  0  0  0  0  0  0  0  0  0
    2.8523    6.0707   -2.4018 C   0  0  0  0  0  0  0  0  0  0  0  0
    5.7525    0.4862   -8.1861 O   0  0  0  0  0  0  0  0  0  0  0  0
    1.1601   -1.4733   -7.6484 C   0  0  0  0  0  0  0  0  0  0  0  0
    2.4589    6.9911   -1.4368 C   0  0  0  0  0  0  0  0  0  0  0  0
    2.0798   -0.4074   -7.2078 C   0  0  0  0  0  0  0  0  0  0  0  0
    4.9079   -0.6332   -8.5315 C   0  0  0  0  0  0  0  0  0  0  0  0
    1.5726   -2.7950   -7.5394 C   0  0  0  0  0  0  0  0  0  0  0  0
   -0.0592   -1.1456   -8.2320 C   0  0  0  0  0  0  0  0  0  0  0  0
    3.3483   -0.9251   -6.4589 C   0  0  0  0  0  0  0  0  0  0  0  0
    4.4334   -1.5361   -7.3804 C   0  0  0  0  0  0  0  0  0  0  0  0
   -0.8972   -2.1901   -8.5738 C   0  0  0  0  0  0  0  0  0  0  0  0
    0.8275   -3.8133   -8.0471 C   0  0  0  0  0  0  0  0  0  0  0  0
   -0.4348   -3.5126   -8.5186 C   0  0  0  0  0  0  0  0  0  0  0  0
   -0.2456    2.9946    1.8654 H   0  0  0  0  0  0  0  0  0  0  0  0
    0.6883   -1.9072   -0.0113 H   0  0  0  0  0  0  0  0  0  0  0  0
    2.7860    2.8066   -3.1666 H   0  0  0  0  0  0  0  0  0  0  0  0
    2.3874    2.3448   -5.7694 H   0  0  0  0  0  0  0  0  0  0  0  0
    6.3475    3.9135   -5.2967 H   0  0  0  0  0  0  0  0  0  0  0  0
    1.4421    7.2777    0.4193 H   0  0  0  0  0  0  0  0  0  0  0  0
    7.1808    2.3905   -7.1032 H   0  0  0  0  0  0  0  0  0  0  0  0
    3.2689    1.3743   -7.8708 H   0  0  0  0  0  0  0  0  0  0  0  0
    3.4070    6.4929   -3.2294 H   0  0  0  0  0  0  0  0  0  0  0  0
    2.7214    8.0377   -1.5674 H   0  0  0  0  0  0  0  0  0  0  0  0
    1.5339    0.3205   -6.5929 H   0  0  0  0  0  0  0  0  0  0  0  0
    2.2733    0.0484   -8.1833 H   0  0  0  0  0  0  0  0  0  0  0  0
    4.0794   -0.3250   -9.1784 H   0  0  0  0  0  0  0  0  0  0  0  0
    5.5145   -1.2856   -9.1777 H   0  0  0  0  0  0  0  0  0  0  0  0
    2.4853   -3.0748   -7.0379 H   0  0  0  0  0  0  0  0  0  0  0  0
   -0.3625   -0.1073   -8.3768 H   0  0  0  0  0  0  0  0  0  0  0  0
    3.0282   -1.6117   -5.6658 H   0  0  0  0  0  0  0  0  0  0  0  0
    3.8514   -0.1706   -5.8556 H   0  0  0  0  0  0  0  0  0  0  0  0
    4.0807   -2.4529   -7.8649 H   0  0  0  0  0  0  0  0  0  0  0  0
    5.2727   -1.8623   -6.7561 H   0  0  0  0  0  0  0  0  0  0  0  0
   -1.9203   -1.9794   -8.8602 H   0  0  0  0  0  0  0  0  0  0  0  0
    1.2407   -4.8113   -7.9857 H   0  0  0  0  0  0  0  0  0  0  0  0
   -1.0736   -4.3317   -8.8113 H   0  0  0  0  0  0  0  0  0  0  0  0
  2  1  1  0  0  0  0
  3  2  1  0  0  0  0
  4  3  1  0  0  0  0
  4 10  1  0  0  0  0
  5  1  1  0  0  0  0
  6  5  2  0  0  0  0
  6  8  1  0  0  0  0
  7  2  2  0  0  0  0
  7 37  1  0  0  0  0
  8 11  1  0  0  0  0
  8 38  1  0  0  0  0
  9  7  1  0  0  0  0
 10  9  1  0  0  0  0
 11  1  2  0  0  0  0
 12 13  1  0  0  0  0
 13 14  1  0  0  0  0
 13 39  1  0  0  0  0
 14  4  2  0  0  0  0
 15 12  1  0  0  0  0
 16  9  2  0  0  0  0
 17 12  2  0  0  0  0
 18 15  2  0  0  0  0
 18 40  1  0  0  0  0
 19 15  1  0  0  0  0
 19 41  1  0  0  0  0
 20 22  1  0  0  0  0
 20 23  2  0  0  0  0
 21 10  2  0  0  0  0
 21 42  1  0  0  0  0
 22 19  2  0  0  0  0
 22 43  1  0  0  0  0
 23 18  1  0  0  0  0
 23 44  1  0  0  0  0
 24 14  1  0  0  0  0
 24 27  2  0  0  0  0
 24 45  1  0  0  0  0
 25 20  1  0  0  0  0
 26 28  1  0  0  0  0
 27 21  1  0  0  0  0
 27 46  1  0  0  0  0
 28 32  1  0  0  0  0
 28 47  1  0  0  0  0
 28 48  1  0  0  0  0
 29 25  1  0  0  0  0
 29 49  1  0  0  0  0
 29 50  1  0  0  0  0
 30 26  2  0  0  0  0
 30 51  1  0  0  0  0
 31 26  1  0  0  0  0
 31 52  1  0  0  0  0
 32 33  1  0  0  0  0
 32 53  1  0  0  0  0
 32 54  1  0  0  0  0
 33 29  1  0  0  0  0
 33 55  1  0  0  0  0
 33 56  1  0  0  0  0
 34 31  2  0  0  0  0
 34 57  1  0  0  0  0
 35 30  1  0  0  0  0
 35 58  1  0  0  0  0
 36 34  1  0  0  0  0
 36 35  2  0  0  0  0
 36 59  1  0  0  0  0
M  END
>  <DRUGBANK_ID>
DB01411

>  <COMMON_NAME>
Pranlukast

>  <CAS_NUMBER>
103177-37-3

>  <UNII>
TB8Z891092

>  <SYNONYMS>
Pranlukast

$$$$
