
 OpenBabel10282417123D

 71 73  0  0  1  0  0  0  0  0999 V2000
    0.6013   -0.8929    0.7096 C   0  0  0  0  0  0  0  0  0  0  0  0
    5.0752    1.4650   -1.8614 C   0  0  0  0  0  0  0  0  0  0  0  0
    2.3185   -1.3979   -4.7579 C   0  0  0  0  0  0  0  0  0  0  0  0
    0.0720    0.8945    1.4284 C   0  0  2  0  0  0  0  0  0  0  0  0
    3.7216    2.1569   -0.8840 C   0  0  2  0  0  0  0  0  0  0  0  0
    1.7431   -0.3544   -3.9231 C   0  0  2  0  0  0  0  0  0  0  0  0
    2.4335    0.9798   -4.3137 C   0  0  2  0  0  0  0  0  0  0  0  0
   -1.3355    1.4715    0.6495 C   0  0  2  0  0  0  0  0  0  0  0  0
    3.5086    1.4691    0.4958 C   0  0  2  0  0  0  0  0  0  0  0  0
    3.7752    0.6443   -3.7482 C   0  0  1  0  0  0  0  0  0  0  0  0
    3.5464   -0.1069   -2.0376 C   0  0  1  0  0  0  0  0  0  0  0  0
   -0.4984    3.5211   -0.9193 C   0  0  1  0  0  0  0  0  0  0  0  0
    0.9556    0.5898   -0.5032 C   0  0  1  0  0  0  0  0  0  0  0  0
   -1.1482    2.1581   -1.0056 C   0  0  1  0  0  0  0  0  0  0  0  0
    2.5376    0.2043    0.3784 C   0  0  1  0  0  0  0  0  0  0  0  0
    0.7039    3.4879    0.0744 C   0  0  1  0  0  0  0  0  0  0  0  0
    2.9191   -1.3684   -1.9305 C   0  0  2  0  0  0  0  0  0  0  0  0
    1.1465    1.3817   -1.7424 C   0  0  2  0  0  0  0  0  0  0  0  0
    0.4786   -1.2458   -1.0149 O   0  0  0  0  0  0  0  0  0  0  0  0
    5.4969   -0.2766   -2.3254 O   0  0  0  0  0  0  0  0  0  0  0  0
    1.8079    2.2270   -3.9112 O   0  0  0  0  0  0  0  0  0  0  0  0
   -2.0515    2.3762    1.4260 O   0  0  0  0  0  0  0  0  0  0  0  0
    3.1826    2.3631    1.5710 O   0  0  0  0  0  0  0  0  0  0  0  0
    4.6429   -0.1594   -4.5159 O   0  0  0  0  0  0  0  0  0  0  0  0
    4.7307   -0.1659   -0.6366 O   0  0  0  0  0  0  0  0  0  0  0  0
   -0.1123    3.9418   -2.2869 O   0  0  0  0  0  0  0  0  0  0  0  0
   -0.6318   -0.2106   -0.5255 O   0  0  0  0  0  0  0  0  0  0  0  0
    1.7036    4.5189   -0.2278 O   0  0  0  0  0  0  0  0  0  0  0  0
   -0.4369   -0.0379   -5.9804 O   0  0  0  0  0  0  0  0  0  0  0  0
   -0.1819   -2.4103   -6.7439 O   0  0  0  0  0  0  0  0  0  0  0  0
   -1.6317   -1.8051   -5.0096 O   0  0  0  0  0  0  0  0  0  0  0  0
    1.5032   -1.2219   -5.7711 O   0  0  0  0  0  0  0  0  0  0  0  0
    0.8146    2.4989    1.3066 O   0  0  0  0  0  0  0  0  0  0  0  0
    2.3209    2.3390   -1.7301 O   0  0  0  0  0  0  0  0  0  0  0  0
    1.7684   -1.1674   -2.7401 O   0  0  0  0  0  0  0  0  0  0  0  0
   -0.2580    1.5670   -2.1034 O   0  0  0  0  0  0  0  0  0  0  0  0
    3.0255   -1.2982   -0.4061 O   0  0  0  0  0  0  0  0  0  0  0  0
   -0.1511   -1.5297   -5.3693 P   0  0  0  0  0  0  0  0  0  0  0  0
    0.2851    0.8761    2.5054 H   0  0  0  0  0  0  0  0  0  0  0  0
    4.0052    3.2091   -0.8930 H   0  0  0  0  0  0  0  0  0  0  0  0
    0.6840   -0.0485   -3.9629 H   0  0  0  0  0  0  0  0  0  0  0  0
    2.4743    1.2137   -5.3795 H   0  0  0  0  0  0  0  0  0  0  0  0
   -2.0026    0.5934    0.6034 H   0  0  0  0  0  0  0  0  0  0  0  0
    4.4836    1.1686    0.8653 H   0  0  0  0  0  0  0  0  0  0  0  0
    4.2556    1.6310   -3.9382 H   0  0  0  0  0  0  0  0  0  0  0  0
    2.8950    0.4677   -1.5011 H   0  0  0  0  0  0  0  0  0  0  0  0
   -1.1690    4.2582   -0.5202 H   0  0  0  0  0  0  0  0  0  0  0  0
    0.4999    1.4494   -0.1682 H   0  0  0  0  0  0  0  0  0  0  0  0
   -2.1501    2.1640   -1.4547 H   0  0  0  0  0  0  0  0  0  0  0  0
    2.5134   -0.1821    1.4528 H   0  0  0  0  0  0  0  0  0  0  0  0
    1.3246    2.8357   -0.3822 H   0  0  0  0  0  0  0  0  0  0  0  0
    3.5423   -2.1340   -2.3818 H   0  0  0  0  0  0  0  0  0  0  0  0
    1.4247    0.6834   -2.3789 H   0  0  0  0  0  0  0  0  0  0  0  0
    0.2567   -1.8016    1.2522 H   0  0  0  0  0  0  0  0  0  0  0  0
    1.5238   -1.3395    0.4713 H   0  0  0  0  0  0  0  0  0  0  0  0
    4.1775    1.7179   -2.4056 H   0  0  0  0  0  0  0  0  0  0  0  0
    5.7309    1.8541   -2.6084 H   0  0  0  0  0  0  0  0  0  0  0  0
    3.2554   -1.2261   -5.2213 H   0  0  0  0  0  0  0  0  0  0  0  0
    2.2812   -2.3984   -4.3477 H   0  0  0  0  0  0  0  0  0  0  0  0
   -0.0791   -0.4809   -1.5650 H   0  0  0  0  0  0  0  0  0  0  0  0
    5.0578   -1.0215   -1.6251 H   0  0  0  0  0  0  0  0  0  0  0  0
    2.2704    2.6428   -3.1438 H   0  0  0  0  0  0  0  0  0  0  0  0
   -2.7989    1.8211    1.7165 H   0  0  0  0  0  0  0  0  0  0  0  0
    2.2202    2.4913    1.6974 H   0  0  0  0  0  0  0  0  0  0  0  0
    4.7157   -0.9631   -3.9697 H   0  0  0  0  0  0  0  0  0  0  0  0
    5.6930   -0.0162   -0.9687 H   0  0  0  0  0  0  0  0  0  0  0  0
    0.1630    3.1544   -2.8265 H   0  0  0  0  0  0  0  0  0  0  0  0
   -0.5958   -1.2320   -0.5667 H   0  0  0  0  0  0  0  0  0  0  0  0
    1.9057    4.4716   -1.2061 H   0  0  0  0  0  0  0  0  0  0  0  0
   -0.6486    0.5942   -5.2642 H   0  0  0  0  0  0  0  0  0  0  0  0
    0.6947   -2.7485   -6.9919 H   0  0  0  0  0  0  0  0  0  0  0  0
  1 54  1  0  0  0  0
  1 55  1  0  0  0  0
  2 56  1  0  0  0  0
  2 57  1  0  0  0  0
  3 58  1  0  0  0  0
  3 59  1  0  0  0  0
  4  1  1  0  0  0  0
  4 39  1  1  0  0  0
  5 40  1  1  0  0  0
  5  2  1  0  0  0  0
  6 41  1  6  0  0  0
  6  3  1  0  0  0  0
  7  6  1  0  0  0  0
  7 42  1  6  0  0  0
  7 21  1  0  0  0  0
  8  4  1  0  0  0  0
  8 43  1  6  0  0  0
  8 22  1  0  0  0  0
  9  5  1  0  0  0  0
  9 44  1  1  0  0  0
  9 23  1  0  0  0  0
 10  7  1  0  0  0  0
 10 24  1  0  0  0  0
 10 45  1  1  0  0  0
 11 10  1  0  0  0  0
 11 25  1  0  0  0  0
 11 46  1  1  0  0  0
 12 26  1  0  0  0  0
 12 47  1  1  0  0  0
 13 27  1  0  0  0  0
 13 48  1  1  0  0  0
 14  8  1  0  0  0  0
 14 12  1  0  0  0  0
 14 36  1  0  0  0  0
 14 49  1  6  0  0  0
 15  9  1  0  0  0  0
 15 13  1  0  0  0  0
 15 37  1  0  0  0  0
 15 50  1  1  0  0  0
 16 12  1  0  0  0  0
 16 51  1  6  0  0  0
 16 28  1  0  0  0  0
 17 11  1  0  0  0  0
 17 37  1  0  0  0  0
 17 52  1  6  0  0  0
 18 13  1  0  0  0  0
 18 36  1  0  0  0  0
 18 53  1  6  0  0  0
 19  1  1  0  0  0  0
 19 60  1  0  0  0  0
 20  2  1  0  0  0  0
 20 61  1  0  0  0  0
 21 62  1  0  0  0  0
 22 63  1  0  0  0  0
 23 64  1  0  0  0  0
 24 65  1  0  0  0  0
 25 66  1  0  0  0  0
 26 67  1  0  0  0  0
 27 68  1  0  0  0  0
 28 69  1  0  0  0  0
 29 70  1  0  0  0  0
 30 71  1  0  0  0  0
 32  3  1  0  0  0  0
 33  4  1  0  0  0  0
 33 16  1  0  0  0  0
 34  5  1  0  0  0  0
 34 18  1  0  0  0  0
 35  6  1  0  0  0  0
 35 17  1  0  0  0  0
 38 29  1  0  0  0  0
 38 30  1  0  0  0  0
 38 31  2  0  0  0  0
 38 32  1  0  0  0  0
M  END
>  <DRUGBANK_ID>
DB02755

>  <SECONDARY_ACCESSION_NUMBERS>
EXPT02479

>  <COMMON_NAME>
1-3 Sugar Ring of Pentamannosyl 6-Phosphate

$$$$
