
 OpenBabel10282417153D

 60 64  0  0  0  0  0  0  0  0999 V2000
   -5.0218   -0.6366   -0.5998 C   0  0  0  0  0  0  0  0  0  0  0  0
   -5.1055    0.8686   -0.3145 C   0  0  2  0  0  0  0  0  0  0  0  0
   -3.7841    1.5981   -0.6603 C   0  0  0  0  0  0  0  0  0  0  0  0
   -3.8108   -1.3601    0.0509 C   0  0  1  0  0  0  0  0  0  0  0  0
   -2.4908   -0.6461   -0.2538 C   0  0  0  0  0  0  0  0  0  0  0  0
   -2.4785    0.7694   -0.4560 C   0  0  0  0  0  0  0  0  0  0  0  0
   -1.2343    1.4257   -0.3092 C   0  0  0  0  0  0  0  0  0  0  0  0
   -1.2633   -1.3559   -0.1257 C   0  0  0  0  0  0  0  0  0  0  0  0
   -0.0296   -0.6789   -0.1040 C   0  0  0  0  0  0  0  0  0  0  0  0
   -0.0177    0.7168   -0.1576 C   0  0  0  0  0  0  0  0  0  0  0  0
    1.2794    1.4450   -0.0587 C   0  0  0  0  0  0  0  0  0  0  0  0
    1.2451   -1.4291    0.0160 C   0  0  0  0  0  0  0  0  0  0  0  0
    2.5268   -0.7021    0.0228 C   0  0  0  0  0  0  0  0  0  0  0  0
    2.5374    0.6860   -0.0109 C   0  0  0  0  0  0  0  0  0  0  0  0
    3.7541    1.3824   -0.0243 C   0  0  0  0  0  0  0  0  0  0  0  0
    4.9583    0.6839   -0.0084 C   0  0  0  0  0  0  0  0  0  0  0  0
    4.9501   -0.7093    0.0262 C   0  0  0  0  0  0  0  0  0  0  0  0
    3.7379   -1.4047    0.0443 C   0  0  0  0  0  0  0  0  0  0  0  0
   -5.0370    0.9953    1.0824 N   0  0  0  0  0  0  0  0  0  0  0  0
   -6.5708    1.4798   -0.4688 C   0  0  0  0  0  0  0  0  0  0  0  0
   -7.2620    1.2241   -1.4224 O   0  0  0  0  0  0  0  0  0  0  0  0
   -7.1810    2.2458    0.7756 C   0  0  0  0  0  0  0  0  0  0  0  0
   -4.0270   -1.7857    1.4375 O   0  0  0  0  0  0  0  0  0  0  0  0
   -3.9668   -0.9948    2.6616 C   0  0  1  0  0  0  0  0  0  0  0  0
   -2.6976   -0.1382    2.7669 C   0  0  0  0  0  0  0  0  0  0  0  0
   -2.7855    1.0943    3.6482 C   0  0  1  0  0  0  0  0  0  0  0  0
   -4.0568    1.9119    3.4299 C   0  0  1  0  0  0  0  0  0  0  0  0
   -5.2554    0.9582    3.6419 C   0  0  0  0  0  0  0  0  0  0  0  0
   -5.2203   -0.3329    2.9662 O   0  0  0  0  0  0  0  0  0  0  0  0
   -4.1572    3.0330    4.3047 O   0  0  0  0  0  0  0  0  0  0  0  0
   -2.7590    0.6538    4.9970 O   0  0  0  0  0  0  0  0  0  0  0  0
   -3.7580   -2.3146   -0.4978 H   0  0  0  0  0  0  0  0  0  0  0  0
   -1.3277   -2.7219    0.0232 O   0  0  0  0  0  0  0  0  0  0  0  0
   -1.1755    2.7878   -0.1984 O   0  0  0  0  0  0  0  0  0  0  0  0
    1.2274   -2.6548    0.0904 O   0  0  0  0  0  0  0  0  0  0  0  0
    1.3600    2.6667   -0.0382 O   0  0  0  0  0  0  0  0  0  0  0  0
   -5.9381   -1.1489   -0.2857 H   0  0  0  0  0  0  0  0  0  0  0  0
   -4.9391   -0.7412   -1.6886 H   0  0  0  0  0  0  0  0  0  0  0  0
   -3.7994    2.0269   -1.6609 H   0  0  0  0  0  0  0  0  0  0  0  0
   -3.6961    2.4578    0.0274 H   0  0  0  0  0  0  0  0  0  0  0  0
    3.7637    2.4716   -0.0572 H   0  0  0  0  0  0  0  0  0  0  0  0
    5.8986    1.2298   -0.0267 H   0  0  0  0  0  0  0  0  0  0  0  0
    5.8906   -1.2552    0.0358 H   0  0  0  0  0  0  0  0  0  0  0  0
    3.7448   -2.4927    0.0660 H   0  0  0  0  0  0  0  0  0  0  0  0
   -5.6576    0.2906    1.5126 H   0  0  0  0  0  0  0  0  0  0  0  0
   -4.1236    0.7223    1.3701 H   0  0  0  0  0  0  0  0  0  0  0  0
   -7.3669    1.5553    1.6123 H   0  0  0  0  0  0  0  0  0  0  0  0
   -6.5318    3.0568    1.1322 H   0  0  0  0  0  0  0  0  0  0  0  0
   -8.1583    2.6623    0.5380 H   0  0  0  0  0  0  0  0  0  0  0  0
   -3.9140   -1.7465    3.4542 H   0  0  0  0  0  0  0  0  0  0  0  0
   -1.8541   -0.7919    3.0087 H   0  0  0  0  0  0  0  0  0  0  0  0
   -2.4153    0.2624    1.8160 H   0  0  0  0  0  0  0  0  0  0  0  0
   -1.9123    1.7307    3.4533 H   0  0  0  0  0  0  0  0  0  0  0  0
   -4.0130    2.3942    2.4459 H   0  0  0  0  0  0  0  0  0  0  0  0
   -5.4640    0.7767    4.6953 H   0  0  0  0  0  0  0  0  0  0  0  0
   -6.1545    1.4966    3.3102 H   0  0  0  0  0  0  0  0  0  0  0  0
   -4.3367    2.6870    5.1926 H   0  0  0  0  0  0  0  0  0  0  0  0
   -3.4863    0.0142    5.0953 H   0  0  0  0  0  0  0  0  0  0  0  0
   -0.4149   -3.0940    0.0776 H   0  0  0  0  0  0  0  0  0  0  0  0
   -2.0307    3.2337   -0.1941 H   0  0  0  0  0  0  0  0  0  0  0  0
  1  2  1  0  0  0  0
  1  4  1  0  0  0  0
  1 37  1  0  0  0  0
  1 38  1  0  0  0  0
  2  3  1  0  0  0  0
  2 20  1  6  0  0  0
  2 19  1  0  0  0  0
  3  6  1  0  0  0  0
  3 39  1  0  0  0  0
  3 40  1  0  0  0  0
  4 23  1  0  0  0  0
  4 32  1  6  0  0  0
  5  4  1  0  0  0  0
  5  6  2  0  0  0  0
  5  8  1  0  0  0  0
  6  7  1  0  0  0  0
  7 34  1  0  0  0  0
  7 10  2  0  0  0  0
  8 33  1  0  0  0  0
  9  8  2  0  0  0  0
  9 10  1  0  0  0  0
  9 12  1  0  0  0  0
 10 11  1  0  0  0  0
 11 14  1  0  0  0  0
 11 36  2  0  0  0  0
 12 35  2  0  0  0  0
 13 12  1  0  0  0  0
 13 14  1  0  0  0  0
 13 18  2  0  0  0  0
 14 15  2  0  0  0  0
 15 16  1  0  0  0  0
 15 41  1  0  0  0  0
 16 17  2  0  0  0  0
 16 42  1  0  0  0  0
 17 18  1  0  0  0  0
 17 43  1  0  0  0  0
 18 44  1  0  0  0  0
 19 45  1  0  0  0  0
 19 46  1  0  0  0  0
 20 21  2  0  0  0  0
 20 22  1  0  0  0  0
 22 47  1  0  0  0  0
 22 48  1  0  0  0  0
 22 49  1  0  0  0  0
 24 23  1  0  0  0  0
 24 25  1  0  0  0  0
 24 29  1  0  0  0  0
 24 50  1  1  0  0  0
 25 26  1  0  0  0  0
 25 51  1  0  0  0  0
 25 52  1  0  0  0  0
 26 27  1  0  0  0  0
 26 31  1  0  0  0  0
 26 53  1  6  0  0  0
 27 28  1  0  0  0  0
 27 30  1  0  0  0  0
 27 54  1  6  0  0  0
 28 29  1  0  0  0  0
 28 55  1  0  0  0  0
 28 56  1  0  0  0  0
 30 57  1  0  0  0  0
 31 58  1  0  0  0  0
 33 59  1  0  0  0  0
 34 60  1  0  0  0  0
M  END
>  <DRUGBANK_ID>
DB06263

>  <COMMON_NAME>
Amrubicin

>  <CAS_NUMBER>
110267-81-7

>  <UNII>
93N13LB4Z2

>  <SYNONYMS>
Amrubicin

$$$$
