1476
 OpenBabel10282417113D

 37 40  0  0  1  0  0  0  0  0999 V2000
    1.1561   -0.3310    0.0766 Br  0  0  0  0  0  0  0  0  0  0  0  0
    6.0184   -4.5757    2.3375 F   0  0  0  0  0  0  0  0  0  0  0  0
    6.4125   -4.2425   -0.0187 O   0  0  0  0  0  0  0  0  0  0  0  0
    8.0840    0.5293   -2.3041 O   0  0  0  0  0  0  0  0  0  0  0  0
    6.8399   -2.5935   -1.4709 N   0  0  3  0  0  0  0  0  0  0  0  0
    7.0956    0.0956   -0.3037 N   0  0  0  0  0  0  0  0  0  0  0  0
    6.3350   -2.7702   -0.0488 C   0  0  3  0  0  0  0  0  0  0  0  0
    7.1111   -3.9424   -2.0217 C   0  0  0  0  0  0  0  0  0  0  0  0
    5.2345   -1.5374    0.0339 C   0  0  0  0  0  0  0  0  0  0  0  0
    7.6475   -4.5747   -0.7985 C   0  0  0  0  0  0  0  0  0  0  0  0
    8.0131   -1.7567   -1.5936 C   0  0  0  0  0  0  0  0  0  0  0  0
    7.1438   -2.6969    1.2985 C   0  0  0  0  0  0  0  0  0  0  0  0
    5.7615   -0.1884   -0.0062 C   0  0  0  0  0  0  0  0  0  0  0  0
    7.6627   -0.2803   -1.5103 C   0  0  0  0  0  0  0  0  0  0  0  0
    3.8235   -1.5509    0.0916 C   0  0  0  0  0  0  0  0  0  0  0  0
    7.0038   -3.6583    2.3371 C   0  0  0  0  0  0  0  0  0  0  0  0
    8.1590   -1.7763    1.5048 C   0  0  0  0  0  0  0  0  0  0  0  0
    5.0103    1.0070    0.1290 C   0  0  0  0  0  0  0  0  0  0  0  0
    3.0581   -0.3193    0.1195 C   0  0  0  0  0  0  0  0  0  0  0  0
    3.6410    0.9494    0.1480 C   0  0  0  0  0  0  0  0  0  0  0  0
    7.9801   -3.7978    3.3292 C   0  0  0  0  0  0  0  0  0  0  0  0
    9.1446   -1.9087    2.4549 C   0  0  0  0  0  0  0  0  0  0  0  0
    9.0898   -2.9600    3.3366 C   0  0  0  0  0  0  0  0  0  0  0  0
    7.4979    0.9164    0.1301 H   0  0  0  0  0  0  0  0  0  0  0  0
    6.1786   -4.4810   -2.2515 H   0  0  0  0  0  0  0  0  0  0  0  0
    7.7261   -3.9745   -2.9251 H   0  0  0  0  0  0  0  0  0  0  0  0
    7.8767   -5.6433   -0.8863 H   0  0  0  0  0  0  0  0  0  0  0  0
    8.5960   -4.0895   -0.4710 H   0  0  0  0  0  0  0  0  0  0  0  0
    8.7871   -1.9941   -0.8612 H   0  0  0  0  0  0  0  0  0  0  0  0
    8.4940   -1.9074   -2.5614 H   0  0  0  0  0  0  0  0  0  0  0  0
    3.2604   -2.4776    0.0752 H   0  0  0  0  0  0  0  0  0  0  0  0
    8.3352   -0.9559    0.8583 H   0  0  0  0  0  0  0  0  0  0  0  0
    5.4932    1.9855    0.0802 H   0  0  0  0  0  0  0  0  0  0  0  0
    3.0688    1.8797    0.1230 H   0  0  0  0  0  0  0  0  0  0  0  0
    7.9061   -4.6097    4.0453 H   0  0  0  0  0  0  0  0  0  0  0  0
    9.9706   -1.2079    2.4088 H   0  0  0  0  0  0  0  0  0  0  0  0
    9.9219   -3.1183    4.0088 H   0  0  0  0  0  0  0  0  0  0  0  0
  1 19  1  0  0  0  0
  2 16  1  0  0  0  0
  3  7  1  0  0  0  0
  3 10  1  0  0  0  0
  4 14  2  0  0  0  0
  5  7  1  0  0  0  0
  5  8  1  0  0  0  0
  5 11  1  0  0  0  0
  6 13  1  0  0  0  0
  6 14  1  0  0  0  0
  6 24  1  0  0  0  0
  7  9  1  0  0  0  0
  7 12  1  0  0  0  0
  8 10  1  0  0  0  0
  8 25  1  0  0  0  0
  8 26  1  0  0  0  0
  9 13  2  0  0  0  0
  9 15  1  0  0  0  0
 10 27  1  0  0  0  0
 10 28  1  0  0  0  0
 11 14  1  0  0  0  0
 11 29  1  0  0  0  0
 11 30  1  0  0  0  0
 12 16  1  0  0  0  0
 12 17  2  0  0  0  0
 13 18  1  0  0  0  0
 15 19  2  0  0  0  0
 15 31  1  0  0  0  0
 16 21  2  0  0  0  0
 17 22  1  0  0  0  0
 17 32  1  0  0  0  0
 18 20  2  0  0  0  0
 18 33  1  0  0  0  0
 19 20  1  0  0  0  0
 20 34  1  0  0  0  0
 21 23  1  0  0  0  0
 21 35  1  0  0  0  0
 22 23  2  0  0  0  0
 22 36  1  0  0  0  0
 23 37  1  0  0  0  0
M  END
>  <DRUGBANK_ID>
DB01476

>  <COMMON_NAME>
Haloxazolam

>  <CAS_NUMBER>
59128-97-1

>  <UNII>
M448L2V8XP

>  <SYNONYMS>
Haloxazolam; Haloxazolamum

$$$$
