
 OpenBabel10282417123D

151154  0  0  0  0  0  0  0  0999 V2000
   20.8300   18.7848    0.1174 N   0  0  0  0  0  0  0  0  0  0  0  0
   18.7210   18.3597    1.1698 C   0  0  2  0  0  0  0  0  0  0  0  0
   21.2691   19.1170   -1.6817 C   0  0  0  0  0  0  0  0  0  0  0  0
   22.9584   18.5716   -0.4365 C   0  0  0  0  0  0  0  0  0  0  0  0
   16.2423   17.3005    2.0362 C   0  0  0  0  0  0  0  0  0  0  0  0
   21.1594   19.5099    0.3619 C   0  0  0  0  0  0  0  0  0  0  0  0
   21.3546   17.7505   -2.3929 C   0  0  0  0  0  0  0  0  0  0  0  0
   20.6669   20.0674   -2.2020 O   0  0  0  0  0  0  0  0  0  0  0  0
   24.8078   19.0842   -1.2782 C   0  0  0  0  0  0  0  0  0  0  0  0
   13.8543   16.4148    2.4879 O   0  0  0  0  0  0  0  0  0  0  0  0
   15.2381   16.2433    3.0902 O   0  0  0  0  0  0  0  0  0  0  0  0
   23.5861   20.0876   -0.2403 C   0  0  0  0  0  0  0  0  0  0  0  0
   20.0650   17.3528   -3.1181 C   0  0  2  0  0  0  0  0  0  0  0  0
   22.2850   16.9822   -2.1850 O   0  0  0  0  0  0  0  0  0  0  0  0
   11.5141   15.6495    3.2095 C   0  0  2  0  0  0  0  0  0  0  0  0
   19.0530   17.0022   -2.0811 O   0  0  0  0  0  0  0  0  0  0  0  0
   20.1165   16.2455   -4.1607 C   0  0  1  0  0  0  0  0  0  0  0  0
   19.8100   18.4749   -3.9581 O   0  0  0  0  0  0  0  0  0  0  0  0
   10.0879   14.5925    2.5872 C   0  0  1  0  0  0  0  0  0  0  0  0
    9.5266   16.4062    4.1708 C   0  0  0  0  0  0  0  0  0  0  0  0
   19.3900   15.6826   -1.4949 C   0  0  2  0  0  0  0  0  0  0  0  0
   20.4153   14.9627   -3.5220 C   0  0  0  0  0  0  0  0  0  0  0  0
   18.7776   16.1372   -4.8658 C   0  0  0  0  0  0  0  0  0  0  0  0
    9.3229   13.8163    1.5596 C   0  0  0  0  0  0  0  0  0  0  0  0
   10.6761   15.8275    2.0126 C   0  0  0  0  0  0  0  0  0  0  0  0
   10.5959   16.3255    5.0493 C   0  0  0  0  0  0  0  0  0  0  0  0
   20.6556   15.7100   -0.6969 C   0  0  0  0  0  0  0  0  0  0  0  0
   19.4082   14.5981   -2.5234 C   0  0  0  0  0  0  0  0  0  0  0  0
    8.2797   14.6365    0.8334 C   0  0  1  0  0  0  0  0  0  0  0  0
   11.6937   17.2434    4.5949 C   0  0  1  0  0  0  0  0  0  0  0  0
   10.7138   15.4915    5.9351 O   0  0  0  0  0  0  0  0  0  0  0  0
   20.6255   16.6851    0.3995 C   0  0  1  0  0  0  0  0  0  0  0  0
    8.6834   16.0732    0.6792 C   0  0  0  0  0  0  0  0  0  0  0  0
    8.1294   14.0688   -0.5467 C   0  0  0  0  0  0  0  0  0  0  0  0
   12.2461   18.0690    5.6421 C   0  0  0  0  0  0  0  0  0  0  0  0
   12.8260   16.4389    4.1912 C   0  0  0  0  0  0  0  0  0  0  0  0
   19.5496   16.3491    1.3911 C   0  0  0  0  0  0  0  0  0  0  0  0
   21.8912   16.8286    1.0404 O   0  0  0  0  0  0  0  0  0  0  0  0
    7.7847   16.9398   -0.0817 C   0  0  2  0  0  0  0  0  0  0  0  0
    7.5095   15.0244   -1.4578 C   0  0  0  0  0  0  0  0  0  0  0  0
   13.5356   18.0037    6.1025 C   0  0  0  0  0  0  0  0  0  0  0  0
   19.8059   16.2093    2.7018 C   0  0  0  0  0  0  0  0  0  0  0  0
   18.1189   16.2570    0.9276 C   0  0  0  0  0  0  0  0  0  0  0  0
   22.2207   15.5839    1.5968 C   0  0  0  0  0  0  0  0  0  0  0  0
    7.6464   16.4027   -1.4750 C   0  0  1  0  0  0  0  0  0  0  0  0
    8.2682   18.2462   -0.2394 O   0  0  0  0  0  0  0  0  0  0  0  0
   13.9677   18.7756    7.3058 C   0  0  2  0  0  0  0  0  0  0  0  0
   14.5571   17.0548    5.5854 C   0  0  0  0  0  0  0  0  0  0  0  0
   18.8056   15.8295    3.6837 C   0  0  0  0  0  0  0  0  0  0  0  0
    6.6044   16.9931   -2.2028 O   0  0  0  0  0  0  0  0  0  0  0  0
   14.3895   17.8934    8.4742 C   0  0  2  0  0  0  0  0  0  0  0  0
   12.8952   19.6312    7.7191 O   0  0  0  0  0  0  0  0  0  0  0  0
   19.0817   15.6108    4.9772 C   0  0  0  0  0  0  0  0  0  0  0  0
   15.5588   17.0270    8.1062 C   0  0  0  0  0  0  0  0  0  0  0  0
   13.2787   17.1038    8.9049 O   0  0  0  0  0  0  0  0  0  0  0  0
   18.0472   15.2162    5.9533 C   0  0  0  0  0  0  0  0  0  0  0  0
   16.8672   17.0787    8.7693 C   0  0  1  0  0  0  0  0  0  0  0  0
   15.5385   16.1307    7.3075 O   0  0  0  0  0  0  0  0  0  0  0  0
   12.8443   16.2578    7.8587 C   0  0  0  0  0  0  0  0  0  0  0  0
   18.3344   14.9196    7.2454 C   0  0  0  0  0  0  0  0  0  0  0  0
   17.1864   15.7149    9.3648 C   0  0  0  0  0  0  0  0  0  0  0  0
   17.9275   17.4812    7.7798 C   0  0  0  0  0  0  0  0  0  0  0  0
   17.2714   14.6429    8.2796 C   0  0  2  0  0  0  0  0  0  0  0  0
   17.5733   13.3120    8.8898 C   0  0  0  0  0  0  0  0  0  0  0  0
   20.0562   19.2969    1.2860 H   0  0  0  0  0  0  0  0  0  0  0  0
    9.5292   15.3526    3.2679 H   0  0  0  0  0  0  0  0  0  0  0  0
   18.6482   15.3612   -0.8715 H   0  0  0  0  0  0  0  0  0  0  0  0
    7.3549   14.6027    1.4096 H   0  0  0  0  0  0  0  0  0  0  0  0
    5.3688   16.9659   -1.4876 C   0  0  0  0  0  0  0  0  0  0  0  0
    4.8397   15.5343   -1.3136 C   0  0  0  0  0  0  0  0  0  0  0  0
    5.4242   14.5159   -0.4795 O   0  0  0  0  0  0  0  0  0  0  0  0
    8.1582   19.0106    0.9375 C   0  0  0  0  0  0  0  0  0  0  0  0
   23.8671   18.5416    0.3675 H   0  0  0  0  0  0  0  0  0  0  0  0
   23.5929   17.6546   -1.1132 H   0  0  0  0  0  0  0  0  0  0  0  0
   22.3379   20.3585   -0.7183 H   0  0  0  0  0  0  0  0  0  0  0  0
   22.4342   20.7044   -0.0865 H   0  0  0  0  0  0  0  0  0  0  0  0
   24.9349   19.2089   -2.3787 H   0  0  0  0  0  0  0  0  0  0  0  0
   25.8397   18.4385   -1.0199 H   0  0  0  0  0  0  0  0  0  0  0  0
   25.2893   20.5155   -0.9385 H   0  0  0  0  0  0  0  0  0  0  0  0
   25.2549   20.3664    0.2389 H   0  0  0  0  0  0  0  0  0  0  0  0
   20.8904   16.4347   -4.8937 H   0  0  0  0  0  0  0  0  0  0  0  0
   19.0297   18.3061   -4.4984 H   0  0  0  0  0  0  0  0  0  0  0  0
   10.6906   13.9679    3.1490 H   0  0  0  0  0  0  0  0  0  0  0  0
    8.5383   16.6872    4.9566 H   0  0  0  0  0  0  0  0  0  0  0  0
    9.3349   17.1759    3.4739 H   0  0  0  0  0  0  0  0  0  0  0  0
   21.3423   15.0853   -3.0034 H   0  0  0  0  0  0  0  0  0  0  0  0
   20.4585   14.1999   -4.2683 H   0  0  0  0  0  0  0  0  0  0  0  0
   18.5489   17.0605   -5.3701 H   0  0  0  0  0  0  0  0  0  0  0  0
   18.7928   15.3458   -5.5981 H   0  0  0  0  0  0  0  0  0  0  0  0
   17.9914   15.9408   -4.1452 H   0  0  0  0  0  0  0  0  0  0  0  0
   10.0634   13.4851    0.8564 H   0  0  0  0  0  0  0  0  0  0  0  0
    8.8417   12.9281    1.9941 H   0  0  0  0  0  0  0  0  0  0  0  0
   11.0672   16.7416    2.5814 H   0  0  0  0  0  0  0  0  0  0  0  0
   11.3847   15.5453    1.3186 H   0  0  0  0  0  0  0  0  0  0  0  0
   10.0868   16.5183    1.6030 H   0  0  0  0  0  0  0  0  0  0  0  0
   20.9136   14.7569   -0.2991 H   0  0  0  0  0  0  0  0  0  0  0  0
   21.4222   15.8944   -1.3557 H   0  0  0  0  0  0  0  0  0  0  0  0
   19.6868   13.6412   -2.1100 H   0  0  0  0  0  0  0  0  0  0  0  0
   18.4492   14.5067   -3.0082 H   0  0  0  0  0  0  0  0  0  0  0  0
   11.4737   17.8006    3.7053 H   0  0  0  0  0  0  0  0  0  0  0  0
   20.2743   17.4904   -0.1165 H   0  0  0  0  0  0  0  0  0  0  0  0
    8.6864   16.5179    1.7088 H   0  0  0  0  0  0  0  0  0  0  0  0
    9.6994   16.0981    0.1843 H   0  0  0  0  0  0  0  0  0  0  0  0
    9.0366   14.0396   -1.0824 H   0  0  0  0  0  0  0  0  0  0  0  0
    7.6690   13.0817   -0.5052 H   0  0  0  0  0  0  0  0  0  0  0  0
   11.5520   18.7279    6.1094 H   0  0  0  0  0  0  0  0  0  0  0  0
   12.9993   15.0801    3.4341 H   0  0  0  0  0  0  0  0  0  0  0  0
   13.4816   17.3473    3.5013 H   0  0  0  0  0  0  0  0  0  0  0  0
   13.1390   16.0440    5.1257 H   0  0  0  0  0  0  0  0  0  0  0  0
    6.8368   16.9518    0.4569 H   0  0  0  0  0  0  0  0  0  0  0  0
    6.6826   15.4822   -0.6056 H   0  0  0  0  0  0  0  0  0  0  0  0
    7.0146   14.4986   -2.3027 H   0  0  0  0  0  0  0  0  0  0  0  0
   20.8359   16.3570    3.0554 H   0  0  0  0  0  0  0  0  0  0  0  0
   17.7351   17.1620    0.4608 H   0  0  0  0  0  0  0  0  0  0  0  0
   17.9420   15.4856    0.2831 H   0  0  0  0  0  0  0  0  0  0  0  0
   17.4840   15.9882    1.7248 H   0  0  0  0  0  0  0  0  0  0  0  0
   21.4817   15.2432    2.2856 H   0  0  0  0  0  0  0  0  0  0  0  0
   22.2541   14.8328    0.8404 H   0  0  0  0  0  0  0  0  0  0  0  0
   23.1459   15.6420    2.1196 H   0  0  0  0  0  0  0  0  0  0  0  0
    8.5420   16.3154   -2.0030 H   0  0  0  0  0  0  0  0  0  0  0  0
   14.8050   19.3837    6.9923 H   0  0  0  0  0  0  0  0  0  0  0  0
   15.3793   17.4549    5.1490 H   0  0  0  0  0  0  0  0  0  0  0  0
   14.6372   16.1534    6.0701 H   0  0  0  0  0  0  0  0  0  0  0  0
   14.4088   16.5656    4.7206 H   0  0  0  0  0  0  0  0  0  0  0  0
   17.7728   15.7184    3.3675 H   0  0  0  0  0  0  0  0  0  0  0  0
   14.7046   18.5193    9.2997 H   0  0  0  0  0  0  0  0  0  0  0  0
   12.1414   19.0677    8.0039 H   0  0  0  0  0  0  0  0  0  0  0  0
   20.1168   15.7132    5.3081 H   0  0  0  0  0  0  0  0  0  0  0  0
   17.0030   15.1431    5.6410 H   0  0  0  0  0  0  0  0  0  0  0  0
   16.8183   17.8151    9.5407 H   0  0  0  0  0  0  0  0  0  0  0  0
   12.5045   16.8307    7.0602 H   0  0  0  0  0  0  0  0  0  0  0  0
   13.6338   15.6189    7.5206 H   0  0  0  0  0  0  0  0  0  0  0  0
   12.0074   15.6767    8.1389 H   0  0  0  0  0  0  0  0  0  0  0  0
   19.3586   15.1107    7.6069 H   0  0  0  0  0  0  0  0  0  0  0  0
   16.4172   15.4451   10.0836 H   0  0  0  0  0  0  0  0  0  0  0  0
   18.1393   15.7649    9.8838 H   0  0  0  0  0  0  0  0  0  0  0  0
   18.4769   16.6670    7.4436 H   0  0  0  0  0  0  0  0  0  0  0  0
   17.5107   17.9465    6.9069 H   0  0  0  0  0  0  0  0  0  0  0  0
   18.6654   18.1030    8.2383 H   0  0  0  0  0  0  0  0  0  0  0  0
   16.3131   14.5733    7.7810 H   0  0  0  0  0  0  0  0  0  0  0  0
   18.5282   13.3538    9.4012 H   0  0  0  0  0  0  0  0  0  0  0  0
   16.8048   13.0381    9.6020 H   0  0  0  0  0  0  0  0  0  0  0  0
   17.6220   12.5550    8.1160 H   0  0  0  0  0  0  0  0  0  0  0  0
    5.4897   17.4452   -0.5263 H   0  0  0  0  0  0  0  0  0  0  0  0
    4.6376   17.5311   -2.0505 H   0  0  0  0  0  0  0  0  0  0  0  0
    3.9390   15.5505   -0.7822 H   0  0  0  0  0  0  0  0  0  0  0  0
    4.7667   15.0794   -2.2812 H   0  0  0  0  0  0  0  0  0  0  0  0
    6.2366   14.2655   -0.9988 H   0  0  0  0  0  0  0  0  0  0  0  0
    7.1235   19.2734    1.1157 H   0  0  0  0  0  0  0  0  0  0  0  0
    8.5340   18.4550    1.7836 H   0  0  0  0  0  0  0  0  0  0  0  0
    8.7415   19.9160    0.8287 H   0  0  0  0  0  0  0  0  0  0  0  0
  1  2  1  0  0  0  0
  1  3  1  0  0  0  0
  1  4  1  0  0  0  0
  2  5  1  0  0  0  0
  2  6  1  0  0  0  0
  2 65  1  1  0  0  0
  3  7  1  0  0  0  0
  3  8  2  0  0  0  0
  4  9  1  0  0  0  0
  4 73  1  0  0  0  0
  4 74  1  0  0  0  0
  5 10  1  0  0  0  0
  5 11  2  0  0  0  0
  6 12  1  0  0  0  0
  6 75  1  0  0  0  0
  6 76  1  0  0  0  0
  7 13  1  0  0  0  0
  7 14  2  0  0  0  0
  9 12  1  0  0  0  0
  9 77  1  0  0  0  0
  9 78  1  0  0  0  0
 10 15  1  0  0  0  0
 12 79  1  0  0  0  0
 12 80  1  0  0  0  0
 13 16  1  0  0  0  0
 13 17  1  0  0  0  0
 13 18  1  6  0  0  0
 15 20  1  0  0  0  0
 15 66  1  1  0  0  0
 15 19  1  0  0  0  0
 17 22  1  0  0  0  0
 17 23  1  0  0  0  0
 17 81  1  6  0  0  0
 18 82  1  0  0  0  0
 19 24  1  0  0  0  0
 19 25  1  0  0  0  0
 19 83  1  6  0  0  0
 20 26  1  0  0  0  0
 20 84  1  0  0  0  0
 20 85  1  0  0  0  0
 21 16  1  0  0  0  0
 21 27  1  0  0  0  0
 21 28  1  0  0  0  0
 21 67  1  1  0  0  0
 22 28  1  0  0  0  0
 22 86  1  0  0  0  0
 22 87  1  0  0  0  0
 23 88  1  0  0  0  0
 23 89  1  0  0  0  0
 23 90  1  0  0  0  0
 24 91  1  0  0  0  0
 24 92  1  0  0  0  0
 25 93  1  0  0  0  0
 25 94  1  0  0  0  0
 25 95  1  0  0  0  0
 26 30  1  0  0  0  0
 26 31  2  0  0  0  0
 27 32  1  0  0  0  0
 27 96  1  0  0  0  0
 27 97  1  0  0  0  0
 28 98  1  0  0  0  0
 28 99  1  0  0  0  0
 29 33  1  0  0  0  0
 29 34  1  0  0  0  0
 29 68  1  1  0  0  0
 29 24  1  0  0  0  0
 30 35  1  0  0  0  0
 30100  1  6  0  0  0
 30 36  1  0  0  0  0
 32 37  1  0  0  0  0
 32 38  1  0  0  0  0
 32101  1  6  0  0  0
 33 39  1  0  0  0  0
 33102  1  0  0  0  0
 33103  1  0  0  0  0
 34 40  1  0  0  0  0
 34104  1  0  0  0  0
 34105  1  0  0  0  0
 35 41  2  0  0  0  0
 35106  1  0  0  0  0
 36107  1  0  0  0  0
 36108  1  0  0  0  0
 36109  1  0  0  0  0
 37 42  2  0  0  0  0
 37 43  1  0  0  0  0
 38 44  1  0  0  0  0
 39 45  1  0  0  0  0
 39110  1  1  0  0  0
 39 46  1  0  0  0  0
 40 45  1  0  0  0  0
 40111  1  0  0  0  0
 40112  1  0  0  0  0
 41 47  1  0  0  0  0
 41 48  1  0  0  0  0
 42 49  1  0  0  0  0
 42113  1  0  0  0  0
 43114  1  0  0  0  0
 43115  1  0  0  0  0
 43116  1  0  0  0  0
 44117  1  0  0  0  0
 44118  1  0  0  0  0
 44119  1  0  0  0  0
 45 50  1  0  0  0  0
 45120  1  6  0  0  0
 46 72  1  0  0  0  0
 47 51  1  0  0  0  0
 47 52  1  0  0  0  0
 47121  1  6  0  0  0
 48122  1  0  0  0  0
 48123  1  0  0  0  0
 48124  1  0  0  0  0
 49 53  2  0  0  0  0
 49125  1  0  0  0  0
 50 69  1  0  0  0  0
 51 54  1  0  0  0  0
 51 55  1  0  0  0  0
 51126  1  1  0  0  0
 52127  1  0  0  0  0
 53 56  1  0  0  0  0
 53128  1  0  0  0  0
 54 57  1  0  0  0  0
 54 58  2  0  0  0  0
 55 59  1  0  0  0  0
 56 60  2  0  0  0  0
 56129  1  0  0  0  0
 57 61  1  0  0  0  0
 57130  1  1  0  0  0
 57 62  1  0  0  0  0
 59131  1  0  0  0  0
 59132  1  0  0  0  0
 59133  1  0  0  0  0
 60 63  1  0  0  0  0
 60134  1  0  0  0  0
 61 63  1  0  0  0  0
 61135  1  0  0  0  0
 61136  1  0  0  0  0
 62137  1  0  0  0  0
 62138  1  0  0  0  0
 62139  1  0  0  0  0
 63 64  1  0  0  0  0
 63140  1  6  0  0  0
 64141  1  0  0  0  0
 64142  1  0  0  0  0
 64143  1  0  0  0  0
 69 70  1  0  0  0  0
 69144  1  0  0  0  0
 69145  1  0  0  0  0
 70 71  1  0  0  0  0
 70146  1  0  0  0  0
 70147  1  0  0  0  0
 71148  1  0  0  0  0
 72149  1  0  0  0  0
 72150  1  0  0  0  0
 72151  1  0  0  0  0
M  END
>  <DRUGBANK_ID>
DB01590

>  <COMMON_NAME>
Everolimus

>  <CAS_NUMBER>
159351-69-6

>  <UNII>
9HW64Q8G6G

>  <SYNONYMS>
40-O-(2-hydroxyethyl)-rapamycin; 42-O-(2-Hydroxyethyl)rapamycin; Everolimus; évérolimus

$$$$
