
 OpenBabel10282417123D

107109  0  0  0  0  0  0  0  0999 V2000
  -15.7575   -5.4542    2.0590 C   0  0  2  0  0  0  0  0  0  0  0  0
  -14.7277   -6.3151    1.5524 O   0  0  0  0  0  0  0  0  0  0  0  0
  -14.9648   -4.2774    2.5923 C   0  0  1  0  0  0  0  0  0  0  0  0
  -13.4408   -6.0490    2.1652 C   0  0  1  0  0  0  0  0  0  0  0  0
  -13.6217   -4.8704    3.0927 C   0  0  1  0  0  0  0  0  0  0  0  0
  -14.8134   -3.4236    1.4569 O   0  0  0  0  0  0  0  0  0  0  0  0
   -8.1504   -9.1241    2.2033 C   0  0  0  0  0  0  0  0  0  0  0  0
   -9.1126   -8.0656    2.6851 C   0  0  0  0  0  0  0  0  0  0  0  0
   -8.0410  -10.2073    3.1837 N   0  0  0  0  0  0  0  0  0  0  0  0
   -8.7755  -11.3350    3.0341 C   0  0  0  0  0  0  0  0  0  0  0  0
   -9.2530  -11.5825    1.9409 O   0  0  0  0  0  0  0  0  0  0  0  0
  -10.3125  -12.7681    4.5271 C   0  0  0  0  0  0  0  0  0  0  0  0
   -8.8768  -12.2895    4.2242 C   0  0  0  0  0  0  0  0  0  0  0  0
  -10.8248  -13.4596    3.3769 N   0  0  0  0  0  0  0  0  0  0  0  0
  -11.4391  -15.4784    4.1672 O   0  0  0  0  0  0  0  0  0  0  0  0
  -11.3672  -14.7084    3.2096 C   0  0  0  0  0  0  0  0  0  0  0  0
  -13.4811  -13.3757    1.0809 C   0  0  0  0  0  0  0  0  0  0  0  0
  -10.8972  -13.1874    0.7334 C   0  0  0  0  0  0  0  0  0  0  0  0
  -12.1338  -14.0876    0.6737 C   0  0  0  0  0  0  0  0  0  0  0  0
  -12.3135  -14.6713   -0.7413 C   0  0  0  0  0  0  0  0  0  0  0  0
  -11.7947  -15.1839    1.7333 C   0  0  1  0  0  0  0  0  0  0  0  0
  -10.7753  -16.0570    1.2151 O   0  0  0  0  0  0  0  0  0  0  0  0
  -13.8077  -12.2518    0.2687 O   0  0  0  0  0  0  0  0  0  0  0  0
  -13.4697  -10.3031    1.5179 O   0  0  0  0  0  0  0  0  0  0  0  0
  -12.3367   -8.1400    1.6700 O   0  0  0  0  0  0  0  0  0  0  0  0
  -12.8763   -9.9454   -0.6949 O   0  0  0  0  0  0  0  0  0  0  0  0
  -11.7526  -11.9483   -0.9953 O   0  5  0  0  0  0  0  0  0  0  0  0
  -14.5833   -8.4230    2.3063 O   0  0  0  0  0  0  0  0  0  0  0  0
  -15.3357   -9.2431    0.3430 O   0  0  0  0  0  0  0  0  0  0  0  0
  -12.6112  -11.1257    0.2613 P   0  0  3  0  0  0  0  0  0  0  0  0
  -13.8362   -8.6915    1.0065 P   0  0  3  0  0  0  0  0  0  0  0  0
  -12.6010   -7.2048    2.7508 C   0  0  0  0  0  0  0  0  0  0  0  0
  -12.4367   -4.0424    3.1262 O   0  0  0  0  0  0  0  0  0  0  0  0
  -12.5344   -3.9278    0.6576 O   0  0  0  0  0  0  0  0  0  0  0  0
  -13.1680   -1.8778    2.1892 O   0  0  0  0  0  0  0  0  0  0  0  0
  -12.1126   -3.0298    1.9083 P   0  0  0  0  0  0  0  0  0  0  0  0
  -10.7109   -2.5566    1.7591 O   0  0  0  0  0  0  0  0  0  0  0  0
  -16.6805   -6.0944    2.9788 N   0  0  0  0  0  0  0  0  0  0  0  0
  -17.7498   -5.4463    3.5546 C   0  0  0  0  0  0  0  0  0  0  0  0
  -16.8217   -7.3971    3.3447 C   0  0  0  0  0  0  0  0  0  0  0  0
  -18.4101   -6.4277    4.2714 C   0  0  0  0  0  0  0  0  0  0  0  0
  -18.1008   -4.1536    3.4706 N   0  0  0  0  0  0  0  0  0  0  0  0
  -17.8068   -7.6271    4.1693 N   0  0  0  0  0  0  0  0  0  0  0  0
  -19.5510   -6.0835    4.9828 C   0  0  0  0  0  0  0  0  0  0  0  0
  -19.2307   -3.9339    4.1917 C   0  0  0  0  0  0  0  0  0  0  0  0
  -19.9623   -4.8034    4.9339 N   0  0  0  0  0  0  0  0  0  0  0  0
  -20.2102   -7.0343    5.7293 N   0  0  0  0  0  0  0  0  0  0  0  0
   -8.4902   -7.6198    4.2503 S   0  0  0  0  0  0  0  0  0  0  0  0
   -9.3009   -9.6204    5.6441 O   0  0  0  0  0  0  0  0  0  0  0  0
   -8.7190   -8.5240    5.6802 C   0  0  0  0  0  0  0  0  0  0  0  0
   -8.1997   -7.9242    6.9956 C   0  0  0  0  0  0  0  0  0  0  0  0
   -7.0102   -6.9321    7.0758 C   0  0  2  0  0  0  0  0  0  0  0  0
   -6.5060   -6.3180    5.7666 C   0  0  0  0  0  0  0  0  0  0  0  0
   -7.4038   -5.0973    5.2931 N   0  3  0  0  0  0  0  0  0  0  0  0
   -5.9046   -7.4501    7.8211 O   0  0  0  0  0  0  0  0  0  0  0  0
   -6.9275   -3.9272    6.1286 C   0  0  0  0  0  0  0  0  0  0  0  0
   -7.0942   -4.7831    3.8150 C   0  0  0  0  0  0  0  0  0  0  0  0
   -8.9633   -5.1006    5.5509 C   0  0  0  0  0  0  0  0  0  0  0  0
  -16.3608   -5.1647    1.1854 H   0  0  0  0  0  0  0  0  0  0  0  0
  -15.4670   -3.6873    3.3588 H   0  0  0  0  0  0  0  0  0  0  0  0
  -12.8313   -5.8651    1.2976 H   0  0  0  0  0  0  0  0  0  0  0  0
  -13.7760   -5.2411    4.1165 H   0  0  0  0  0  0  0  0  0  0  0  0
  -14.2535   -3.8843    0.7826 H   0  0  0  0  0  0  0  0  0  0  0  0
   -7.1446   -8.6942    2.0996 H   0  0  0  0  0  0  0  0  0  0  0  0
   -8.4737   -9.4624    1.2176 H   0  0  0  0  0  0  0  0  0  0  0  0
   -9.0388   -7.1701    2.0376 H   0  0  0  0  0  0  0  0  0  0  0  0
  -10.1552   -8.3361    2.7632 H   0  0  0  0  0  0  0  0  0  0  0  0
   -7.9187   -9.9451    4.1467 H   0  0  0  0  0  0  0  0  0  0  0  0
  -10.9686  -11.9029    4.6854 H   0  0  0  0  0  0  0  0  0  0  0  0
  -10.3562  -13.4374    5.3838 H   0  0  0  0  0  0  0  0  0  0  0  0
   -8.4445  -11.8448    5.1200 H   0  0  0  0  0  0  0  0  0  0  0  0
   -8.2572  -13.1476    3.9411 H   0  0  0  0  0  0  0  0  0  0  0  0
  -10.3319  -13.0627    2.6083 H   0  0  0  0  0  0  0  0  0  0  0  0
  -13.4617  -13.0290    2.1208 H   0  0  0  0  0  0  0  0  0  0  0  0
  -14.3250  -14.0747    1.0106 H   0  0  0  0  0  0  0  0  0  0  0  0
  -11.2328  -12.4667    1.4810 H   0  0  0  0  0  0  0  0  0  0  0  0
   -9.9702  -13.7331    0.8613 H   0  0  0  0  0  0  0  0  0  0  0  0
  -10.4300  -12.4417    0.0988 H   0  0  0  0  0  0  0  0  0  0  0  0
  -13.0873  -15.4439   -0.7541 H   0  0  0  0  0  0  0  0  0  0  0  0
  -12.6406  -13.9279   -1.4772 H   0  0  0  0  0  0  0  0  0  0  0  0
  -11.3767  -15.0913   -1.1136 H   0  0  0  0  0  0  0  0  0  0  0  0
  -12.6838  -15.8097    1.8622 H   0  0  0  0  0  0  0  0  0  0  0  0
  -10.0412  -15.5120    0.8861 H   0  0  0  0  0  0  0  0  0  0  0  0
  -16.0067   -8.5841    0.5664 H   0  0  0  0  0  0  0  0  0  0  0  0
  -11.6461   -6.8147    3.1094 H   0  0  0  0  0  0  0  0  0  0  0  0
  -13.0485   -7.7192    3.6137 H   0  0  0  0  0  0  0  0  0  0  0  0
  -11.7984   -4.5663    0.5041 H   0  0  0  0  0  0  0  0  0  0  0  0
  -13.9332   -2.1710    2.7221 H   0  0  0  0  0  0  0  0  0  0  0  0
  -16.2555   -8.2335    3.0270 H   0  0  0  0  0  0  0  0  0  0  0  0
  -19.6015   -2.9140    4.1839 H   0  0  0  0  0  0  0  0  0  0  0  0
  -19.8901   -7.9951    5.6398 H   0  0  0  0  0  0  0  0  0  0  0  0
  -21.0827   -6.8037    6.1659 H   0  0  0  0  0  0  0  0  0  0  0  0
   -9.0658   -7.4071    7.4299 H   0  0  0  0  0  0  0  0  0  0  0  0
   -7.9936   -8.7673    7.6652 H   0  0  0  0  0  0  0  0  0  0  0  0
   -7.3459   -6.1177    7.7243 H   0  0  0  0  0  0  0  0  0  0  0  0
   -5.4714   -5.9521    5.8204 H   0  0  0  0  0  0  0  0  0  0  0  0
   -6.3639   -7.0942    5.0063 H   0  0  0  0  0  0  0  0  0  0  0  0
   -5.4643   -8.1789    7.3518 H   0  0  0  0  0  0  0  0  0  0  0  0
   -5.8538   -3.8205    5.9805 H   0  0  0  0  0  0  0  0  0  0  0  0
   -7.4777   -3.0465    5.8017 H   0  0  0  0  0  0  0  0  0  0  0  0
   -7.1586   -4.1477    7.1731 H   0  0  0  0  0  0  0  0  0  0  0  0
   -7.3790   -5.6040    3.1545 H   0  0  0  0  0  0  0  0  0  0  0  0
   -7.6569   -3.8926    3.5344 H   0  0  0  0  0  0  0  0  0  0  0  0
   -6.0156   -4.6346    3.7214 H   0  0  0  0  0  0  0  0  0  0  0  0
   -9.5555   -5.7562    4.9178 H   0  0  0  0  0  0  0  0  0  0  0  0
   -9.1492   -5.3580    6.5946 H   0  0  0  0  0  0  0  0  0  0  0  0
   -9.3543   -4.1161    5.3018 H   0  0  0  0  0  0  0  0  0  0  0  0
  1 38  1  0  0  0  0
  1 59  1  6  0  0  0
  2  1  1  0  0  0  0
  3  1  1  0  0  0  0
  3  6  1  0  0  0  0
  3 60  1  1  0  0  0
  4  2  1  0  0  0  0
  4 32  1  0  0  0  0
  4 61  1  6  0  0  0
  5  3  1  0  0  0  0
  5  4  1  0  0  0  0
  5 33  1  0  0  0  0
  5 62  1  1  0  0  0
  6 63  1  0  0  0  0
  7  8  1  0  0  0  0
  7 64  1  0  0  0  0
  7 65  1  0  0  0  0
  8 48  1  0  0  0  0
  8 66  1  0  0  0  0
  8 67  1  0  0  0  0
  9  7  1  0  0  0  0
  9 68  1  0  0  0  0
 10  9  1  0  0  0  0
 10 11  2  0  0  0  0
 12 14  1  0  0  0  0
 12 69  1  0  0  0  0
 12 70  1  0  0  0  0
 13 10  1  0  0  0  0
 13 12  1  0  0  0  0
 13 71  1  0  0  0  0
 13 72  1  0  0  0  0
 14 73  1  0  0  0  0
 16 14  1  0  0  0  0
 16 15  2  0  0  0  0
 17 23  1  0  0  0  0
 17 74  1  0  0  0  0
 17 75  1  0  0  0  0
 18 76  1  0  0  0  0
 18 77  1  0  0  0  0
 18 78  1  0  0  0  0
 19 17  1  0  0  0  0
 19 18  1  0  0  0  0
 19 20  1  0  0  0  0
 20 79  1  0  0  0  0
 20 80  1  0  0  0  0
 20 81  1  0  0  0  0
 21 22  1  0  0  0  0
 21 82  1  1  0  0  0
 21 19  1  0  0  0  0
 21 16  1  0  0  0  0
 22 83  1  0  0  0  0
 23 30  1  0  0  0  0
 24 31  1  0  0  0  0
 29 84  1  0  0  0  0
 30 24  1  0  0  0  0
 30 26  2  0  0  0  0
 30 27  1  0  0  0  0
 31 25  1  0  0  0  0
 31 28  2  0  0  0  0
 31 29  1  0  0  0  0
 32 25  1  0  0  0  0
 32 85  1  0  0  0  0
 32 86  1  0  0  0  0
 33 36  1  0  0  0  0
 34 87  1  0  0  0  0
 35 88  1  0  0  0  0
 36 34  1  0  0  0  0
 36 35  1  0  0  0  0
 36 37  2  0  0  0  0
 39 38  1  0  0  0  0
 40 38  1  0  0  0  0
 40 89  1  0  0  0  0
 41 39  2  0  0  0  0
 42 39  1  0  0  0  0
 43 40  2  0  0  0  0
 43 41  1  0  0  0  0
 44 41  1  0  0  0  0
 45 42  2  0  0  0  0
 45 90  1  0  0  0  0
 46 44  2  0  0  0  0
 46 45  1  0  0  0  0
 47 44  1  0  0  0  0
 47 91  1  0  0  0  0
 47 92  1  0  0  0  0
 48 50  1  0  0  0  0
 50 49  2  0  0  0  0
 50 51  1  0  0  0  0
 51 93  1  0  0  0  0
 51 94  1  0  0  0  0
 52 55  1  0  0  0  0
 52 95  1  1  0  0  0
 52 53  1  0  0  0  0
 52 51  1  0  0  0  0
 53 54  1  0  0  0  0
 53 96  1  0  0  0  0
 53 97  1  0  0  0  0
 54 56  1  0  0  0  0
 54 57  1  0  0  0  0
 54 58  1  0  0  0  0
 55 98  1  0  0  0  0
 56 99  1  0  0  0  0
 56100  1  0  0  0  0
 56101  1  0  0  0  0
 57102  1  0  0  0  0
 57103  1  0  0  0  0
 57104  1  0  0  0  0
 58105  1  0  0  0  0
 58106  1  0  0  0  0
 58107  1  0  0  0  0
M  CHG  2  27  -1  54   1
M  END
>  <DRUGBANK_ID>
DB02516

>  <SECONDARY_ACCESSION_NUMBERS>
EXPT00863

>  <COMMON_NAME>
(R)-carnitinyl-CoA betaine

>  <SYNONYMS>
(R)-carnitinyl-CoA βine; L-carnitinyl-CoA betaine; R-carnitinyl-CoA inner salt

$$$$
