
 OpenBabel10282417193D

 69 73  0  0  0  0  0  0  0  0999 V2000
    0.8462   -1.1497    4.4690 C   0  0  0  0  0  0  0  0  0  0  0  0
    0.9104   -1.5691    2.9258 C   0  0  0  0  0  0  0  0  0  0  0  0
   -0.3241   -1.5919    2.0036 N   0  0  0  0  0  0  0  0  0  0  0  0
   -1.3005   -0.4784    2.0496 C   0  0  0  0  0  0  0  0  0  0  0  0
   -1.9800   -0.3053    3.4086 C   0  0  0  0  0  0  0  0  0  0  0  0
   -2.6219   -1.5330    3.7480 N   0  0  0  0  0  0  0  0  0  0  0  0
   -1.9259   -2.7911    3.5564 C   0  0  0  0  0  0  0  0  0  0  0  0
   -1.2065   -2.7770    2.1796 C   0  0  0  0  0  0  0  0  0  0  0  0
   -3.9277   -1.4384    4.0894 C   0  0  0  0  0  0  0  0  0  0  0  0
   -4.2999   -1.9641    5.2628 N   0  0  0  0  0  0  0  0  0  0  0  0
   -5.5742   -1.7662    5.6334 C   0  0  0  0  0  0  0  0  0  0  0  0
   -6.5067   -1.0909    4.8581 C   0  0  0  0  0  0  0  0  0  0  0  0
   -6.0984   -0.5466    3.6463 C   0  0  0  0  0  0  0  0  0  0  0  0
   -4.7890   -0.7122    3.2674 C   0  0  0  0  0  0  0  0  0  0  0  0
   -7.9144   -0.9930    5.3209 C   0  0  0  0  0  0  0  0  0  0  0  0
   -8.4780   -2.2163    5.5028 F   0  0  0  0  0  0  0  0  0  0  0  0
   -8.0269   -0.3367    6.5048 F   0  0  0  0  0  0  0  0  0  0  0  0
   -8.7188   -0.3335    4.4428 F   0  0  0  0  0  0  0  0  0  0  0  0
    2.1438   -0.8538    2.0916 C   0  0  0  0  0  0  0  0  0  0  0  0
    3.2035   -1.4741    1.9090 O   0  0  0  0  0  0  0  0  0  0  0  0
    2.1522    0.4531    1.6083 N   0  0  0  0  0  0  0  0  0  0  0  0
    1.1320    1.5060    1.7134 C   0  0  1  0  0  0  0  0  0  0  0  0
    0.6425    1.4968    3.1500 C   0  0  3  0  0  0  0  0  0  0  0  0
    1.8036    1.7606    4.1041 C   0  0  0  0  0  0  0  0  0  0  0  0
    2.1753    3.2188    3.9083 C   0  0  1  0  0  0  0  0  0  0  0  0
    2.5942    3.3693    2.4007 C   0  0  0  0  0  0  0  0  0  0  0  0
    1.4553    2.9895    1.4464 C   0  0  3  0  0  0  0  0  0  0  0  0
    0.1513    3.8087    1.7300 C   0  0  0  0  0  0  0  0  0  0  0  0
   -0.2328    3.7656    3.2201 C   0  0  3  0  0  0  0  0  0  0  0  0
   -0.5852    2.3323    3.4705 C   0  0  0  0  0  0  0  0  0  0  0  0
    0.9125    4.0942    4.1988 C   0  0  0  0  0  0  0  0  0  0  0  0
    3.3418    3.6039    4.8072 C   0  0  0  0  0  0  0  0  0  0  0  0
    4.1243    4.5207    4.5032 O   0  0  0  0  0  0  0  0  0  0  0  0
    3.4867    2.9965    6.0138 N   0  0  0  0  0  0  0  0  0  0  0  0
    1.3848   -3.0440    3.1589 C   0  0  0  0  0  0  0  0  0  0  0  0
    0.5025   -0.1754    4.7965 H   0  0  0  0  0  0  0  0  0  0  0  0
    1.8421   -1.1947    4.9211 H   0  0  0  0  0  0  0  0  0  0  0  0
    0.1714   -1.7760    5.0476 H   0  0  0  0  0  0  0  0  0  0  0  0
   -0.9115    0.4483    1.6980 H   0  0  0  0  0  0  0  0  0  0  0  0
   -2.0708   -0.6078    1.2740 H   0  0  0  0  0  0  0  0  0  0  0  0
   -1.3180   -0.0738    4.2333 H   0  0  0  0  0  0  0  0  0  0  0  0
   -2.6507    0.5623    3.3989 H   0  0  0  0  0  0  0  0  0  0  0  0
   -1.2097   -2.9145    4.3646 H   0  0  0  0  0  0  0  0  0  0  0  0
   -2.5918   -3.6516    3.6178 H   0  0  0  0  0  0  0  0  0  0  0  0
   -1.9741   -2.7371    1.3897 H   0  0  0  0  0  0  0  0  0  0  0  0
   -0.6721   -3.7032    1.9648 H   0  0  0  0  0  0  0  0  0  0  0  0
   -5.8278   -2.1928    6.5994 H   0  0  0  0  0  0  0  0  0  0  0  0
   -6.7787   -0.0087    2.9935 H   0  0  0  0  0  0  0  0  0  0  0  0
   -4.4338   -0.2822    2.3349 H   0  0  0  0  0  0  0  0  0  0  0  0
    3.0187    0.6771    1.1293 H   0  0  0  0  0  0  0  0  0  0  0  0
    0.4286    1.2425    0.9245 H   0  0  0  0  0  0  0  0  0  0  0  0
    0.3167    0.5178    3.2592 H   0  0  0  0  0  0  0  0  0  0  0  0
    1.5349    1.5309    5.1406 H   0  0  0  0  0  0  0  0  0  0  0  0
    2.6575    1.0976    3.8938 H   0  0  0  0  0  0  0  0  0  0  0  0
    2.9876    4.3663    2.1950 H   0  0  0  0  0  0  0  0  0  0  0  0
    3.4203    2.6820    2.1642 H   0  0  0  0  0  0  0  0  0  0  0  0
    1.7314    3.1183    0.3946 H   0  0  0  0  0  0  0  0  0  0  0  0
    0.1996    4.8475    1.4036 H   0  0  0  0  0  0  0  0  0  0  0  0
   -0.6646    3.3517    1.1365 H   0  0  0  0  0  0  0  0  0  0  0  0
   -1.1359    4.3549    3.4190 H   0  0  0  0  0  0  0  0  0  0  0  0
   -0.9372    2.1499    4.4958 H   0  0  0  0  0  0  0  0  0  0  0  0
   -1.4175    2.0804    2.8114 H   0  0  0  0  0  0  0  0  0  0  0  0
    1.2015    5.1468    4.2007 H   0  0  0  0  0  0  0  0  0  0  0  0
    0.4937    3.9258    5.2063 H   0  0  0  0  0  0  0  0  0  0  0  0
    2.9750    2.1837    6.3318 H   0  0  0  0  0  0  0  0  0  0  0  0
    4.3050    3.2514    6.5525 H   0  0  0  0  0  0  0  0  0  0  0  0
    2.2727   -3.0704    3.8022 H   0  0  0  0  0  0  0  0  0  0  0  0
    0.6365   -3.6247    3.7103 H   0  0  0  0  0  0  0  0  0  0  0  0
    1.6150   -3.5705    2.2329 H   0  0  0  0  0  0  0  0  0  0  0  0
  1  2  1  0  0  0  0
  1 36  1  0  0  0  0
  1 37  1  0  0  0  0
  1 38  1  0  0  0  0
  2  3  1  0  0  0  0
  2 19  1  0  0  0  0
  2 35  1  0  0  0  0
  3  4  1  0  0  0  0
  3  8  1  0  0  0  0
  4  5  1  0  0  0  0
  4 39  1  0  0  0  0
  4 40  1  0  0  0  0
  5  6  1  0  0  0  0
  5 41  1  0  0  0  0
  5 42  1  0  0  0  0
  6  7  1  0  0  0  0
  6  9  1  0  0  0  0
  7  8  1  0  0  0  0
  7 43  1  0  0  0  0
  7 44  1  0  0  0  0
  8 45  1  0  0  0  0
  8 46  1  0  0  0  0
  9 10  2  0  0  0  0
  9 14  1  0  0  0  0
 10 11  1  0  0  0  0
 11 12  2  0  0  0  0
 11 47  1  0  0  0  0
 12 13  1  0  0  0  0
 12 15  1  0  0  0  0
 13 14  2  0  0  0  0
 13 48  1  0  0  0  0
 14 49  1  0  0  0  0
 15 16  1  0  0  0  0
 15 17  1  0  0  0  0
 15 18  1  0  0  0  0
 19 20  2  0  0  0  0
 19 21  1  0  0  0  0
 21 50  1  0  0  0  0
 22 23  1  0  0  0  0
 22 27  1  0  0  0  0
 22 21  1  0  0  0  0
 22 51  1  6  0  0  0
 23 30  1  0  0  0  0
 23 24  1  0  0  0  0
 23 52  1  0  0  0  0
 24 25  1  0  0  0  0
 24 53  1  0  0  0  0
 24 54  1  0  0  0  0
 25 31  1  0  0  0  0
 25 26  1  0  0  0  0
 25 32  1  1  0  0  0
 26 27  1  0  0  0  0
 26 55  1  0  0  0  0
 26 56  1  0  0  0  0
 27 28  1  0  0  0  0
 27 57  1  0  0  0  0
 28 29  1  0  0  0  0
 28 58  1  0  0  0  0
 28 59  1  0  0  0  0
 29 30  1  0  0  0  0
 29 31  1  0  0  0  0
 29 60  1  0  0  0  0
 30 61  1  0  0  0  0
 30 62  1  0  0  0  0
 31 63  1  0  0  0  0
 31 64  1  0  0  0  0
 32 33  2  0  0  0  0
 32 34  1  0  0  0  0
 34 65  1  0  0  0  0
 34 66  1  0  0  0  0
 35 67  1  0  0  0  0
 35 68  1  0  0  0  0
 35 69  1  0  0  0  0
M  END
>  <DRUGBANK_ID>
DB12501

>  <COMMON_NAME>
ABT-384

>  <CAS_NUMBER>
868623-40-9

>  <UNII>
R5TH77F919

$$$$
