F1K
 OpenBabel10282417163D

 43 44  0  0  0  0  0  0  0  0999 V2000
   -1.2039    1.3346    0.2863 C   0  0  0  0  0  0  0  0  0  0  0  0
    0.1971    1.3211    0.1488 C   0  0  0  0  0  0  0  0  0  0  0  0
    0.8865    0.1176    0.1929 C   0  0  0  0  0  0  0  0  0  0  0  0
   -1.1407   -0.9745    0.9226 C   0  0  0  0  0  0  0  0  0  0  0  0
    0.8286   -3.8483   -4.9290 C   0  0  0  0  0  0  0  0  0  0  0  0
   -0.4260   -3.0475   -4.6685 C   0  0  0  0  0  0  0  0  0  0  0  0
   -1.4534   -3.8370   -3.8448 C   0  0  0  0  0  0  0  0  0  0  0  0
   -1.3446   -3.4951   -1.4139 C   0  0  0  0  0  0  0  0  0  0  0  0
   -3.5268   -2.0598   -1.2427 C   0  0  0  0  0  0  0  0  0  0  0  0
   -2.0586   -2.1609   -1.6368 C   0  0  2  0  0  0  0  0  0  0  0  0
   -3.5108    0.0733   -2.3704 C   0  0  0  0  0  0  0  0  0  0  0  0
   -2.0080    0.0788   -2.6446 C   0  0  0  0  0  0  0  0  0  0  0  0
    2.1857    0.0681   -0.1334 F   0  0  0  0  0  0  0  0  0  0  0  0
    0.2235   -1.0367    0.5574 C   0  0  0  0  0  0  0  0  0  0  0  0
   -1.9106    0.1454    0.5330 C   0  0  0  0  0  0  0  0  0  0  0  0
   -3.4159    0.0281    0.1577 C   0  0  0  0  0  0  0  0  0  0  0  0
   -3.8970   -0.6269   -1.1208 N   0  0  0  0  0  0  0  0  0  0  0  0
   -1.5154   -1.2846   -2.7162 N   0  0  0  0  0  0  0  0  0  0  0  0
   -1.0621   -3.9401   -0.3175 O   0  0  0  0  0  0  0  0  0  0  0  0
   -0.9527   -4.1548   -2.5390 N   0  0  0  0  0  0  0  0  0  0  0  0
    0.4583   -5.3619   -5.8553 S   0  0  0  0  0  0  0  0  0  0  0  0
   -1.5716   -1.6574   -0.8767 H   0  0  0  0  0  0  0  0  0  0  0  0
   -1.7407    2.2504    0.0535 H   0  0  0  0  0  0  0  0  0  0  0  0
    0.7404    2.2247   -0.1020 H   0  0  0  0  0  0  0  0  0  0  0  0
   -1.6373   -1.9254    1.1351 H   0  0  0  0  0  0  0  0  0  0  0  0
    1.5337   -3.2324   -5.4924 H   0  0  0  0  0  0  0  0  0  0  0  0
    1.3077   -4.0950   -3.9737 H   0  0  0  0  0  0  0  0  0  0  0  0
   -0.8998   -2.6800   -5.5856 H   0  0  0  0  0  0  0  0  0  0  0  0
   -0.0503   -2.1464   -4.1651 H   0  0  0  0  0  0  0  0  0  0  0  0
   -1.7746   -4.7651   -4.3019 H   0  0  0  0  0  0  0  0  0  0  0  0
   -2.4115   -3.3124   -3.7517 H   0  0  0  0  0  0  0  0  0  0  0  0
   -3.7558   -2.5882   -0.3073 H   0  0  0  0  0  0  0  0  0  0  0  0
   -4.1445   -2.5556   -2.0077 H   0  0  0  0  0  0  0  0  0  0  0  0
   -3.9828   -0.4483   -3.2227 H   0  0  0  0  0  0  0  0  0  0  0  0
   -3.9034    1.0905   -2.3991 H   0  0  0  0  0  0  0  0  0  0  0  0
   -1.4566    0.6574   -1.9223 H   0  0  0  0  0  0  0  0  0  0  0  0
   -1.7678    0.5568   -3.5985 H   0  0  0  0  0  0  0  0  0  0  0  0
    0.7165   -1.9996    0.4042 H   0  0  0  0  0  0  0  0  0  0  0  0
   -3.9214   -0.4811    0.9849 H   0  0  0  0  0  0  0  0  0  0  0  0
   -3.8341    1.0417    0.1362 H   0  0  0  0  0  0  0  0  0  0  0  0
   -1.8802   -1.6012   -3.5975 H   0  0  0  0  0  0  0  0  0  0  0  0
   -0.2039   -4.8199   -2.3809 H   0  0  0  0  0  0  0  0  0  0  0  0
   -0.4174   -5.8871   -4.9799 H   0  0  0  0  0  0  0  0  0  0  0  0
  1  2  2  0  0  0  0
  1 15  1  0  0  0  0
  1 23  1  0  0  0  0
  2  3  1  0  0  0  0
  2 24  1  0  0  0  0
  3 13  1  0  0  0  0
  3 14  2  0  0  0  0
  4 14  1  0  0  0  0
  4 15  2  0  0  0  0
  4 25  1  0  0  0  0
  5  6  1  0  0  0  0
  5 21  1  0  0  0  0
  5 26  1  0  0  0  0
  5 27  1  0  0  0  0
  6  7  1  0  0  0  0
  6 28  1  0  0  0  0
  6 29  1  0  0  0  0
  7 20  1  0  0  0  0
  7 30  1  0  0  0  0
  7 31  1  0  0  0  0
  8 19  2  0  0  0  0
  8 20  1  0  0  0  0
  9 10  1  0  0  0  0
  9 17  1  0  0  0  0
  9 32  1  0  0  0  0
  9 33  1  0  0  0  0
 10 18  1  0  0  0  0
 10 22  1  1  0  0  0
 10  8  1  0  0  0  0
 11 12  1  0  0  0  0
 11 17  1  0  0  0  0
 11 34  1  0  0  0  0
 11 35  1  0  0  0  0
 12 18  1  0  0  0  0
 12 36  1  0  0  0  0
 12 37  1  0  0  0  0
 14 38  1  0  0  0  0
 15 16  1  0  0  0  0
 16 17  1  0  0  0  0
 16 39  1  0  0  0  0
 16 40  1  0  0  0  0
 18 41  1  0  0  0  0
 20 42  1  0  0  0  0
 21 43  1  0  0  0  0
M  END
>  <DRUGBANK_ID>
DB07737

>  <COMMON_NAME>
(2S)-4-(4-fluorobenzyl)-N-(3-sulfanylpropyl)piperazine-2-carboxamide

$$$$
