
 OpenBabel10282417193D

 34 33  0  0  0  0  0  0  0  0999 V2000
    0.9505    0.0148   -0.1072 C   0  0  0  0  0  0  0  0  0  0  0  0
   -5.4856   -5.3580    2.2533 C   0  0  0  0  0  0  0  0  0  0  0  0
   -1.3919   -4.3698    4.0337 C   0  0  0  0  0  0  0  0  0  0  0  0
    0.5298   -1.3913   -0.5003 C   0  0  0  0  0  0  0  0  0  0  0  0
    1.0627   -2.4058    0.5149 C   0  0  0  0  0  0  0  0  0  0  0  0
    0.5232   -2.1360    1.9253 C   0  0  0  0  0  0  0  0  0  0  0  0
   -0.9994   -2.1518    1.9374 C   0  0  0  0  0  0  0  0  0  0  0  0
   -1.4903   -3.5189    1.4987 C   0  0  0  0  0  0  0  0  0  0  0  0
   -4.0294   -3.6592    2.8700 C   0  0  0  0  0  0  0  0  0  0  0  0
   -4.2029   -4.9931    2.4042 C   0  0  0  0  0  0  0  0  0  0  0  0
   -1.1744   -4.6072    2.5361 C   0  0  3  0  0  0  0  0  0  0  0  0
   -3.1697   -6.0266    2.0664 C   0  0  0  0  0  0  0  0  0  0  0  0
   -3.9384   -2.5579    3.2387 N   0  0  0  0  0  0  0  0  0  0  0  0
   -3.5283   -7.1443    1.6904 O   0  0  0  0  0  0  0  0  0  0  0  0
   -1.8380   -5.8153    2.1467 O   0  0  0  0  0  0  0  0  0  0  0  0
    0.5425    0.3080    0.8659 H   0  0  0  0  0  0  0  0  0  0  0  0
    0.5933    0.7454   -0.8335 H   0  0  0  0  0  0  0  0  0  0  0  0
    2.0411    0.0683   -0.0443 H   0  0  0  0  0  0  0  0  0  0  0  0
   -6.2738   -4.6450    2.4764 H   0  0  0  0  0  0  0  0  0  0  0  0
   -5.7681   -6.3473    1.9191 H   0  0  0  0  0  0  0  0  0  0  0  0
   -2.4239   -4.5035    4.3541 H   0  0  0  0  0  0  0  0  0  0  0  0
   -0.8640   -5.1363    4.6094 H   0  0  0  0  0  0  0  0  0  0  0  0
   -1.0466   -3.3928    4.3730 H   0  0  0  0  0  0  0  0  0  0  0  0
   -0.5633   -1.4398   -0.5842 H   0  0  0  0  0  0  0  0  0  0  0  0
    0.9067   -1.6382   -1.4967 H   0  0  0  0  0  0  0  0  0  0  0  0
    0.8059   -3.4180    0.1813 H   0  0  0  0  0  0  0  0  0  0  0  0
    2.1554   -2.3915    0.5367 H   0  0  0  0  0  0  0  0  0  0  0  0
    0.9191   -2.8828    2.6216 H   0  0  0  0  0  0  0  0  0  0  0  0
    0.8772   -1.1769    2.3124 H   0  0  0  0  0  0  0  0  0  0  0  0
   -1.3644   -1.8869    2.9328 H   0  0  0  0  0  0  0  0  0  0  0  0
   -1.4288   -1.3820    1.2871 H   0  0  0  0  0  0  0  0  0  0  0  0
   -2.5299   -3.4508    1.1881 H   0  0  0  0  0  0  0  0  0  0  0  0
   -1.0721   -3.8359    0.5356 H   0  0  0  0  0  0  0  0  0  0  0  0
   -0.1012   -4.8217    2.4331 H   0  0  0  0  0  0  0  0  0  0  0  0
  1 16  1  0  0  0  0
  1 17  1  0  0  0  0
  1 18  1  0  0  0  0
  2 19  1  0  0  0  0
  2 20  1  0  0  0  0
  3 21  1  0  0  0  0
  3 22  1  0  0  0  0
  3 23  1  0  0  0  0
  4  1  1  0  0  0  0
  4 24  1  0  0  0  0
  4 25  1  0  0  0  0
  5  4  1  0  0  0  0
  5 26  1  0  0  0  0
  5 27  1  0  0  0  0
  6  5  1  0  0  0  0
  6 28  1  0  0  0  0
  6 29  1  0  0  0  0
  7  6  1  0  0  0  0
  7 30  1  0  0  0  0
  7 31  1  0  0  0  0
  8  7  1  0  0  0  0
  8 32  1  0  0  0  0
  8 33  1  0  0  0  0
 10  2  2  0  0  0  0
 10  9  1  0  0  0  0
 11  3  1  0  0  0  0
 11  8  1  0  0  0  0
 11 34  1  0  0  0  0
 12 10  1  0  0  0  0
 13  9  3  0  0  0  0
 14 12  2  0  0  0  0
 15 11  1  0  0  0  0
 15 12  1  0  0  0  0
M  END
>  <DRUGBANK_ID>
DB12040

>  <COMMON_NAME>
2-octyl cyanoacrylate

>  <CAS_NUMBER>
133978-15-1

>  <UNII>
L23GHX71SK

>  <SYNONYMS>
1-methylheptyl cyanoacrylate; 2-octylcyanoacrylate; Liquid bandage

$$$$
