
 OpenBabel10282417223D

333333  0  0  0  0  0  0  0  0999 V2000
    1.4509    0.1946   -0.6640 C   0  0  0  0  0  0  0  0  0  0  0  0
    2.6340   -7.7562    5.3218 C   0  0  0  0  0  0  0  0  0  0  0  0
    2.9437   -7.2563    4.0416 C   0  0  0  0  0  0  0  0  0  0  0  0
   -3.7866   -1.4071    0.6201 C   0  0  0  0  0  0  0  0  0  0  0  0
   -2.6087   -0.4773    2.2542 C   0  0  0  0  0  0  0  0  0  0  0  0
    0.4555  -12.2720    8.8735 C   0  0  0  0  0  0  0  0  0  0  0  0
   -3.4886   -0.4401    4.0070 C   0  0  0  0  0  0  0  0  0  0  0  0
   -1.3004    1.8061   -0.0463 C   0  0  0  0  0  0  0  0  0  0  0  0
    1.4178   -0.1678   -2.6351 C   0  0  0  0  0  0  0  0  0  0  0  0
    2.1045   -0.1401   -4.3944 C   0  0  0  0  0  0  0  0  0  0  0  0
    0.0470    1.3880   -0.5588 C   0  0  0  0  0  0  0  0  0  0  0  0
    0.5929   -2.1447    3.2978 C   0  0  0  0  0  0  0  0  0  0  0  0
    1.0566   -5.7496    8.5101 C   0  0  0  0  0  0  0  0  0  0  0  0
    0.6753   -2.1656    5.0006 C   0  0  0  0  0  0  0  0  0  0  0  0
    1.9433   -8.9825    5.6162 C   0  0  0  0  0  0  0  0  0  0  0  0
   -1.5888   -0.9570    1.2200 C   0  0  0  0  0  0  0  0  0  0  0  0
   -1.6743    0.9678    3.4807 C   0  0  0  0  0  0  0  0  0  0  0  0
   -0.0834  -11.0914    8.4514 C   0  0  0  0  0  0  0  0  0  0  0  0
   -3.5773    0.7517    2.3389 C   0  0  0  0  0  0  0  0  0  0  0  0
   -0.8512    0.0240   -1.5007 C   0  0  0  0  0  0  0  0  0  0  0  0
    0.6134    0.4956   -3.4359 C   0  0  0  0  0  0  0  0  0  0  0  0
    2.8678    1.2891   -3.1863 C   0  0  0  0  0  0  0  0  0  0  0  0
    1.4890    0.3925    0.9231 C   0  0  0  0  0  0  0  0  0  0  0  0
    1.5345   -0.7619    4.1235 C   0  0  0  0  0  0  0  0  0  0  0  0
    0.4599   -6.4737    7.5119 C   0  0  0  0  0  0  0  0  0  0  0  0
   -0.6173   -0.9352    3.7957 C   0  0  0  0  0  0  0  0  0  0  0  0
   -2.3000   -7.0528    3.1647 C   0  0  0  0  0  0  0  0  0  0  0  0
   -1.7966   -8.1217    2.3232 C   0  0  0  0  0  0  0  0  0  0  0  0
    1.7534   -6.5958    3.9900 C   0  0  0  0  0  0  0  0  0  0  0  0
   -4.4621   -2.6204    0.5580 C   0  0  0  0  0  0  0  0  0  0  0  0
   -1.6515   -2.4957    1.4883 C   0  0  0  0  0  0  0  0  0  0  0  0
    1.8441  -12.3317    8.4661 C   0  0  0  0  0  0  0  0  0  0  0  0
   -2.1710   -1.2476    4.9399 C   0  0  0  0  0  0  0  0  0  0  0  0
   -1.0493    1.6835    2.0583 C   0  0  0  0  0  0  0  0  0  0  0  0
    1.6513   -1.0014   -1.4935 C   0  0  0  0  0  0  0  0  0  0  0  0
   -0.1053   -0.4348   -4.6619 C   0  0  0  0  0  0  0  0  0  0  0  0
   -2.1536    0.7478   -0.9582 C   0  0  0  0  0  0  0  0  0  0  0  0
    1.7176   -3.3499    3.2519 C   0  0  0  0  0  0  0  0  0  0  0  0
    2.2334   -6.5953    8.8146 C   0  0  0  0  0  0  0  0  0  0  0  0
    2.7295   -1.8202    4.4411 C   0  0  0  0  0  0  0  0  0  0  0  0
   -1.4036   -8.5084    5.5469 C   0  0  0  0  0  0  0  0  0  0  0  0
   -3.9088   -6.4670    5.2952 C   0  0  0  0  0  0  0  0  0  0  0  0
   -1.3281   -4.1762    2.3901 C   0  0  0  0  0  0  0  0  0  0  0  0
    0.1691   -1.4665   -1.4381 C   0  0  0  0  0  0  0  0  0  0  0  0
   -0.2152   -2.7013    0.8266 C   0  0  2  0  0  0  0  0  0  0  0  0
    1.3613  -10.4151    4.4120 C   0  0  2  0  0  0  0  0  0  0  0  0
    0.4586    1.5964    2.7963 C   0  0  2  0  0  0  0  0  0  0  0  0
   -0.2334  -11.6530    6.4695 C   0  0  2  0  0  0  0  0  0  0  0  0
   -2.8374   -0.1183    0.3931 C   0  0  2  0  0  0  0  0  0  0  0  0
   -1.3974   -2.0109   -2.0222 C   0  0  2  0  0  0  0  0  0  0  0  0
   -1.4067    0.7908   -3.0776 C   0  0  2  0  0  0  0  0  0  0  0  0
    2.6636    0.5966   -1.8856 C   0  0  2  0  0  0  0  0  0  0  0  0
    1.9622   -0.9724    0.7619 C   0  0  2  0  0  0  0  0  0  0  0  0
    3.2836    0.1853    3.0539 C   0  0  2  0  0  0  0  0  0  0  0  0
    0.0055   -7.8435    7.8910 C   0  0  2  0  0  0  0  0  0  0  0  0
    0.5258   -0.5624    1.9204 C   0  0  2  0  0  0  0  0  0  0  0  0
   -1.3333   -5.8154    3.3581 C   0  0  2  0  0  0  0  0  0  0  0  0
   -1.9843   -9.7171    5.8003 C   0  0  2  0  0  0  0  0  0  0  0  0
   -2.7175   -6.5681    6.0241 C   0  0  2  0  0  0  0  0  0  0  0  0
   -0.1083   -3.9956    2.6387 C   0  0  2  0  0  0  0  0  0  0  0  0
   -0.4378   -8.6725    2.1961 C   0  0  0  0  0  0  0  0  0  0  0  0
   -0.0828   -8.2963    4.3755 C   0  0  0  0  0  0  0  0  0  0  0  0
    1.7240   -2.0538    2.1153 C   0  0  0  0  0  0  0  0  0  0  0  0
    1.0925  -12.1094    5.5676 C   0  0  0  0  0  0  0  0  0  0  0  0
    0.2069    1.7075    0.9540 C   0  0  0  0  0  0  0  0  0  0  0  0
   -2.3317   -1.9209    0.1121 C   0  0  0  0  0  0  0  0  0  0  0  0
   -2.4775   -1.7831   -2.5872 C   0  0  0  0  0  0  0  0  0  0  0  0
   -0.5830    2.2351   -2.2010 C   0  0  0  0  0  0  0  0  0  0  0  0
    2.5353   -1.7712   -2.4204 C   0  0  0  0  0  0  0  0  0  0  0  0
    3.7069   -1.4247    1.4776 C   0  0  0  0  0  0  0  0  0  0  0  0
    2.8944    1.5176    2.4772 C   0  0  0  0  0  0  0  0  0  0  0  0
    0.1284   -8.5866    6.6406 C   0  0  0  0  0  0  0  0  0  0  0  0
   -0.4046  -11.1049    3.9841 C   0  0  0  0  0  0  0  0  0  0  0  0
    1.3525   -2.6583    0.6985 C   0  0  0  0  0  0  0  0  0  0  0  0
   -1.1081   -5.1539    5.2778 C   0  0  0  0  0  0  0  0  0  0  0  0
   -2.5653   -7.2761    7.5489 C   0  0  0  0  0  0  0  0  0  0  0  0
   -1.6351   -4.7073    2.2909 C   0  0  0  0  0  0  0  0  0  0  0  0
   -1.2142  -10.0942    7.1408 C   0  0  0  0  0  0  0  0  0  0  0  0
   -5.6771   -2.5344    2.7454 C   0  0  0  0  0  0  0  0  0  0  0  0
   -3.4930   -4.7984    2.5026 C   0  0  0  0  0  0  0  0  0  0  0  0
    3.8598  -11.4441    9.3202 C   0  0  0  0  0  0  0  0  0  0  0  0
    0.0221    0.0828    6.4050 C   0  0  0  0  0  0  0  0  0  0  0  0
    0.8898    1.3622    4.4449 C   0  0  0  0  0  0  0  0  0  0  0  0
    1.7947   -4.2359   -1.1437 C   0  0  0  0  0  0  0  0  0  0  0  0
   -1.6641    0.8721   -5.4081 C   0  0  0  0  0  0  0  0  0  0  0  0
   -4.2023    2.1221    1.1045 C   0  0  0  0  0  0  0  0  0  0  0  0
    2.3986   -4.9656    3.7567 C   0  0  0  0  0  0  0  0  0  0  0  0
    4.5394   -6.0093    8.0569 C   0  0  0  0  0  0  0  0  0  0  0  0
    3.5749    0.0497    6.2253 C   0  0  0  0  0  0  0  0  0  0  0  0
    0.8680   -5.6306    4.8000 N   0  0  0  0  0  0  0  0  0  0  0  0
   -0.6811   -9.4636    3.0910 N   0  0  0  0  0  0  0  0  0  0  0  0
   -0.4516   -7.3724    3.7368 N   0  0  0  0  0  0  0  0  0  0  0  0
   -5.6653   -2.5519    4.0048 N   0  0  0  0  0  0  0  0  0  0  0  0
   -6.4146   -2.5711    1.6713 N   0  0  0  0  0  0  0  0  0  0  0  0
   -3.1676   -5.3779    3.4564 N   0  0  0  0  0  0  0  0  0  0  0  0
   -3.5404   -4.9944    0.9401 N   0  0  0  0  0  0  0  0  0  0  0  0
    4.6500  -10.4899    9.6444 N   0  0  0  0  0  0  0  0  0  0  0  0
    4.1153  -12.7344    9.7070 N   0  0  0  0  0  0  0  0  0  0  0  0
    0.9218    1.0193    6.4596 N   0  0  0  0  0  0  0  0  0  0  0  0
   -0.3148   -1.0796    6.9372 N   0  0  0  0  0  0  0  0  0  0  0  0
    2.1558    1.4180    4.4367 N   0  0  0  0  0  0  0  0  0  0  0  0
    0.0900    2.4565    4.5966 N   0  0  0  0  0  0  0  0  0  0  0  0
    1.5876   -5.2964   -1.7512 N   0  0  0  0  0  0  0  0  0  0  0  0
    2.8486   -4.1010   -0.4010 N   0  0  0  0  0  0  0  0  0  0  0  0
   -2.2703    1.9680   -5.3076 N   0  0  0  0  0  0  0  0  0  0  0  0
   -1.6907   -0.3163   -5.9990 N   0  0  0  0  0  0  0  0  0  0  0  0
   -4.8377    2.1632    2.3883 N   0  0  0  0  0  0  0  0  0  0  0  0
   -4.5957    1.6471   -0.0471 N   0  0  0  0  0  0  0  0  0  0  0  0
    2.8858   -5.1896    5.0499 N   0  0  0  0  0  0  0  0  0  0  0  0
    0.9689   -5.5615    2.6481 N   0  0  0  0  0  0  0  0  0  0  0  0
    5.4455   -5.9758    7.1426 N   0  0  0  0  0  0  0  0  0  0  0  0
    4.7741   -5.5123    9.2928 N   0  0  0  0  0  0  0  0  0  0  0  0
    3.4505    1.2439    6.5307 N   0  0  0  0  0  0  0  0  0  0  0  0
    3.9668   -1.1604    6.2094 N   0  0  0  0  0  0  0  0  0  0  0  0
   -4.6538   -2.3204    2.0754 N   0  0  0  0  0  0  0  0  0  0  0  0
   -2.3798   -3.2347    3.0399 N   0  0  0  0  0  0  0  0  0  0  0  0
    2.7274  -11.2307    8.6298 N   0  0  0  0  0  0  0  0  0  0  0  0
   -0.7499   -0.3665    5.4956 N   0  0  0  0  0  0  0  0  0  0  0  0
    0.0541    0.3817    3.2695 N   0  0  0  0  0  0  0  0  0  0  0  0
    1.5668   -3.2036   -2.0010 N   0  0  0  0  0  0  0  0  0  0  0  0
   -0.5632    0.9216   -4.8279 N   0  0  0  0  0  0  0  0  0  0  0  0
   -2.9990    1.6242    0.7507 N   0  0  0  0  0  0  0  0  0  0  0  0
    2.3414   -3.8423    4.1707 N   0  0  0  0  0  0  0  0  0  0  0  0
    3.3117   -6.5149    7.8771 N   0  0  0  0  0  0  0  0  0  0  0  0
    2.9307   -0.3081    5.2871 N   0  0  0  0  0  0  0  0  0  0  0  0
   -0.3632   -2.1532   -0.5725 N   0  0  0  0  0  0  0  0  0  0  0  0
    2.0329  -11.4148    5.0344 N   0  0  0  0  0  0  0  0  0  0  0  0
    1.7652   -0.2931    2.5893 N   0  0  0  0  0  0  0  0  0  0  0  0
   -0.7808    0.2661    0.1874 N   0  0  0  0  0  0  0  0  0  0  0  0
   -1.8640   -3.1269   -0.6913 N   0  0  0  0  0  0  0  0  0  0  0  0
   -2.6200   -0.5867   -2.9269 N   0  0  0  0  0  0  0  0  0  0  0  0
    1.1738    2.2552   -1.9036 N   0  0  0  0  0  0  0  0  0  0  0  0
    1.7413   -2.2852   -0.7833 N   0  0  0  0  0  0  0  0  0  0  0  0
    4.2175   -0.6298    2.2488 N   0  0  0  0  0  0  0  0  0  0  0  0
   -0.0573   -9.8913    5.6917 N   0  0  0  0  0  0  0  0  0  0  0  0
    1.7415    1.2496    2.0554 N   0  0  0  0  0  0  0  0  0  0  0  0
   -1.5480   -7.8199    8.2766 N   0  0  0  0  0  0  0  0  0  0  0  0
   -1.7092   -5.9367    1.9445 N   0  0  0  0  0  0  0  0  0  0  0  0
   -1.7582  -10.6951    4.5086 N   0  0  0  0  0  0  0  0  0  0  0  0
    0.9063   -4.0033    1.1038 N   0  0  0  0  0  0  0  0  0  0  0  0
   -1.8422   -5.4926    6.2468 N   0  0  0  0  0  0  0  0  0  0  0  0
    0.1556   -1.4136   -2.6990 O   0  0  0  0  0  0  0  0  0  0  0  0
    0.8110   -8.0385    2.1029 O   0  0  0  0  0  0  0  0  0  0  0  0
    1.0840   -8.6467    3.9508 O   0  0  0  0  0  0  0  0  0  0  0  0
    2.7643   -3.5976    1.6180 O   0  0  0  0  0  0  0  0  0  0  0  0
    1.5842  -13.2160    6.0209 O   0  0  0  0  0  0  0  0  0  0  0  0
    1.6196    2.6179    0.3622 O   0  0  0  0  0  0  0  0  0  0  0  0
   -2.7534   -1.9370    2.1852 O   0  0  0  0  0  0  0  0  0  0  0  0
   -2.7888   -2.9967   -2.2483 O   0  0  0  0  0  0  0  0  0  0  0  0
   -2.0884    2.9017   -1.6257 O   0  0  0  0  0  0  0  0  0  0  0  0
    1.2014   -2.6895   -3.5699 O   0  0  0  0  0  0  0  0  0  0  0  0
    4.4365   -2.4340    0.7835 O   0  0  0  0  0  0  0  0  0  0  0  0
    3.2110    2.7262    2.3030 O   0  0  0  0  0  0  0  0  0  0  0  0
   -0.0315   -7.0846    5.7673 O   0  0  0  0  0  0  0  0  0  0  0  0
   -0.2742  -11.1781    2.3995 O   0  0  0  0  0  0  0  0  0  0  0  0
    2.7758   -2.3389    0.3507 O   0  0  0  0  0  0  0  0  0  0  0  0
   -0.3011   -4.0762    5.5621 O   0  0  0  0  0  0  0  0  0  0  0  0
   -3.8316   -7.5303    7.7590 O   0  0  0  0  0  0  0  0  0  0  0  0
   -3.2094   -3.5335    1.7687 O   0  0  0  0  0  0  0  0  0  0  0  0
   -2.0352  -10.7713    7.7738 O   0  0  0  0  0  0  0  0  0  0  0  0
    0.7089  -10.2440    7.1272 O   0  0  0  0  0  0  0  0  0  0  0  0
   -4.8225   -5.2234    4.5867 S   0  0  0  0  0  0  0  0  0  0  0  0
   -2.6288   -3.8147    4.7343 S   0  0  0  0  0  0  0  0  0  0  0  0
   -0.6683   -3.6760    0.5646 H   0  0  0  0  0  0  0  0  0  0  0  0
    1.7283  -10.2230    3.3813 H   0  0  0  0  0  0  0  0  0  0  0  0
    1.0791    2.4418    3.1132 H   0  0  0  0  0  0  0  0  0  0  0  0
   -1.2561  -11.9962    6.2500 H   0  0  0  0  0  0  0  0  0  0  0  0
   -3.4396   -0.0349   -0.4042 H   0  0  0  0  0  0  0  0  0  0  0  0
   -0.5430   -2.9419   -1.9558 H   0  0  0  0  0  0  0  0  0  0  0  0
   -2.0790    1.4462   -3.4113 H   0  0  0  0  0  0  0  0  0  0  0  0
    3.4660    0.5163   -1.0207 H   0  0  0  0  0  0  0  0  0  0  0  0
    0.6123   -1.8018    1.3389 H   0  0  0  0  0  0  0  0  0  0  0  0
    3.9226    0.4678    3.7403 H   0  0  0  0  0  0  0  0  0  0  0  0
    0.8033   -8.4400    8.2651 H   0  0  0  0  0  0  0  0  0  0  0  0
    0.0041   -0.4493    1.1752 H   0  0  0  0  0  0  0  0  0  0  0  0
   -0.5965   -6.0262    2.7258 H   0  0  0  0  0  0  0  0  0  0  0  0
   -2.9214   -9.4375    6.2428 H   0  0  0  0  0  0  0  0  0  0  0  0
   -2.6610   -7.6042    5.1682 H   0  0  0  0  0  0  0  0  0  0  0  0
    0.1950   -4.0726    3.5784 H   0  0  0  0  0  0  0  0  0  0  0  0
    0.7065   -0.0256   -0.0924 H   0  0  0  0  0  0  0  0  0  0  0  0
    1.6791    1.1523   -0.3559 H   0  0  0  0  0  0  0  0  0  0  0  0
    2.6558    0.0952   -0.1220 H   0  0  0  0  0  0  0  0  0  0  0  0
    2.2231   -7.0235    5.9656 H   0  0  0  0  0  0  0  0  0  0  0  0
    3.3944   -8.3041    5.6314 H   0  0  0  0  0  0  0  0  0  0  0  0
    3.5505   -6.4287    3.8199 H   0  0  0  0  0  0  0  0  0  0  0  0
    2.8845   -7.7091    3.0691 H   0  0  0  0  0  0  0  0  0  0  0  0
   -4.4426   -0.4438    0.6488 H   0  0  0  0  0  0  0  0  0  0  0  0
   -3.5151   -1.4470   -0.8144 H   0  0  0  0  0  0  0  0  0  0  0  0
   -3.8662   -0.7767    2.1376 H   0  0  0  0  0  0  0  0  0  0  0  0
   -2.0393    0.4961    1.1649 H   0  0  0  0  0  0  0  0  0  0  0  0
    0.3831  -12.0420    9.8863 H   0  0  0  0  0  0  0  0  0  0  0  0
   -0.2802  -12.9270    8.4070 H   0  0  0  0  0  0  0  0  0  0  0  0
   -3.4760    0.4101    4.5113 H   0  0  0  0  0  0  0  0  0  0  0  0
   -4.0127   -1.1868    3.5795 H   0  0  0  0  0  0  0  0  0  0  0  0
    0.0196    2.7851   -0.5866 H   0  0  0  0  0  0  0  0  0  0  0  0
   -2.1181    1.9976   -0.3285 H   0  0  0  0  0  0  0  0  0  0  0  0
    2.8167   -0.4166   -2.8302 H   0  0  0  0  0  0  0  0  0  0  0  0
    1.1968    0.7779   -2.3649 H   0  0  0  0  0  0  0  0  0  0  0  0
    2.2752    0.3357   -5.1676 H   0  0  0  0  0  0  0  0  0  0  0  0
    2.5452   -1.1973   -4.0133 H   0  0  0  0  0  0  0  0  0  0  0  0
   -0.4817    2.8272    0.4024 H   0  0  0  0  0  0  0  0  0  0  0  0
    0.5128    1.2072   -1.2612 H   0  0  0  0  0  0  0  0  0  0  0  0
   -0.2927   -2.4916    3.6791 H   0  0  0  0  0  0  0  0  0  0  0  0
   -0.1506   -1.8784    2.6100 H   0  0  0  0  0  0  0  0  0  0  0  0
    1.2518   -4.7617    8.1225 H   0  0  0  0  0  0  0  0  0  0  0  0
    0.1959   -5.8137    9.1492 H   0  0  0  0  0  0  0  0  0  0  0  0
   -0.2767   -2.2376    5.2770 H   0  0  0  0  0  0  0  0  0  0  0  0
    0.6619   -3.0991    4.6659 H   0  0  0  0  0  0  0  0  0  0  0  0
    1.1802   -8.2810    5.5394 H   0  0  0  0  0  0  0  0  0  0  0  0
    1.8826   -9.0081    6.6871 H   0  0  0  0  0  0  0  0  0  0  0  0
   -1.2275   -0.9282    2.2126 H   0  0  0  0  0  0  0  0  0  0  0  0
   -0.9947    0.2291    1.4298 H   0  0  0  0  0  0  0  0  0  0  0  0
   -2.0475    0.5342    4.4532 H   0  0  0  0  0  0  0  0  0  0  0  0
   -2.1258    1.8114    3.6776 H   0  0  0  0  0  0  0  0  0  0  0  0
    0.5051  -10.0624    8.6444 H   0  0  0  0  0  0  0  0  0  0  0  0
   -0.9338  -10.6972    9.1078 H   0  0  0  0  0  0  0  0  0  0  0  0
   -2.8902    1.9978    2.4571 H   0  0  0  0  0  0  0  0  0  0  0  0
   -4.4475    0.4935    2.0134 H   0  0  0  0  0  0  0  0  0  0  0  0
    0.0339   -0.0509   -1.2863 H   0  0  0  0  0  0  0  0  0  0  0  0
   -0.2466    0.4029   -2.1304 H   0  0  0  0  0  0  0  0  0  0  0  0
    1.0178   -0.9389   -4.0948 H   0  0  0  0  0  0  0  0  0  0  0  0
    1.0371    1.2680   -4.1374 H   0  0  0  0  0  0  0  0  0  0  0  0
    2.0725    2.0762   -3.1251 H   0  0  0  0  0  0  0  0  0  0  0  0
    3.6386    1.1006   -2.4309 H   0  0  0  0  0  0  0  0  0  0  0  0
    0.5254    0.6418    1.6872 H   0  0  0  0  0  0  0  0  0  0  0  0
    2.6034    0.5922    1.0755 H   0  0  0  0  0  0  0  0  0  0  0  0
    1.6448   -1.1373    5.3277 H   0  0  0  0  0  0  0  0  0  0  0  0
    0.9875   -0.3488    4.8199 H   0  0  0  0  0  0  0  0  0  0  0  0
    1.1597   -6.3864    6.7459 H   0  0  0  0  0  0  0  0  0  0  0  0
   -0.2846   -5.8472    7.1312 H   0  0  0  0  0  0  0  0  0  0  0  0
   -0.8300    0.6902    4.5808 H   0  0  0  0  0  0  0  0  0  0  0  0
   -1.7140   -0.6506    3.4925 H   0  0  0  0  0  0  0  0  0  0  0  0
   -2.3221   -6.8010    4.1357 H   0  0  0  0  0  0  0  0  0  0  0  0
   -3.2371   -6.8844    2.6898 H   0  0  0  0  0  0  0  0  0  0  0  0
   -2.5229   -8.8020    2.7277 H   0  0  0  0  0  0  0  0  0  0  0  0
   -1.5366   -7.6649    1.4459 H   0  0  0  0  0  0  0  0  0  0  0  0
    2.1504   -6.4696    2.5541 H   0  0  0  0  0  0  0  0  0  0  0  0
    0.8175   -6.5973    4.0642 H   0  0  0  0  0  0  0  0  0  0  0  0
   -4.9012   -2.2672   -0.3080 H   0  0  0  0  0  0  0  0  0  0  0  0
   -3.7112   -3.1606    0.0815 H   0  0  0  0  0  0  0  0  0  0  0  0
   -2.3426   -3.1409    0.7879 H   0  0  0  0  0  0  0  0  0  0  0  0
   -0.5750   -1.4965    0.7526 H   0  0  0  0  0  0  0  0  0  0  0  0
    2.1592  -13.3352    8.5483 H   0  0  0  0  0  0  0  0  0  0  0  0
    1.9582  -12.2559    7.4642 H   0  0  0  0  0  0  0  0  0  0  0  0
   -1.8436   -2.1529    5.2417 H   0  0  0  0  0  0  0  0  0  0  0  0
   -1.7346   -1.8311    3.8266 H   0  0  0  0  0  0  0  0  0  0  0  0
   -0.8255    2.5742    2.4765 H   0  0  0  0  0  0  0  0  0  0  0  0
   -0.8573    0.5059    2.4765 H   0  0  0  0  0  0  0  0  0  0  0  0
    2.7086   -1.0325   -0.9294 H   0  0  0  0  0  0  0  0  0  0  0  0
    0.6906   -1.1826   -0.1922 H   0  0  0  0  0  0  0  0  0  0  0  0
   -0.3517   -1.5487   -4.7028 H   0  0  0  0  0  0  0  0  0  0  0  0
   -0.8521   -0.7517   -3.6164 H   0  0  0  0  0  0  0  0  0  0  0  0
   -2.9597    0.8598   -1.6201 H   0  0  0  0  0  0  0  0  0  0  0  0
   -2.0664   -0.6613   -1.0060 H   0  0  0  0  0  0  0  0  0  0  0  0
    1.5296   -4.1175    2.5404 H   0  0  0  0  0  0  0  0  0  0  0  0
    2.7540   -2.9047    3.0006 H   0  0  0  0  0  0  0  0  0  0  0  0
    2.5265   -6.2037    9.7398 H   0  0  0  0  0  0  0  0  0  0  0  0
    1.9746   -7.6286    9.0136 H   0  0  0  0  0  0  0  0  0  0  0  0
    3.2164   -2.5641    4.7216 H   0  0  0  0  0  0  0  0  0  0  0  0
    3.3659   -1.5168    3.6121 H   0  0  0  0  0  0  0  0  0  0  0  0
   -1.5572   -7.6158    6.1419 H   0  0  0  0  0  0  0  0  0  0  0  0
   -1.2136   -7.8417    6.5249 H   0  0  0  0  0  0  0  0  0  0  0  0
   -4.1500   -7.4504    4.9588 H   0  0  0  0  0  0  0  0  0  0  0  0
   -4.0657   -5.6702    5.9167 H   0  0  0  0  0  0  0  0  0  0  0  0
   -1.8719   -4.2786    0.9792 H   0  0  0  0  0  0  0  0  0  0  0  0
   -0.4542   -3.3612    2.2766 H   0  0  0  0  0  0  0  0  0  0  0  0
    0.3661   -4.8543    4.5360 H   0  0  0  0  0  0  0  0  0  0  0  0
    0.7964   -5.4830    5.7340 H   0  0  0  0  0  0  0  0  0  0  0  0
   -1.5406   -9.8726    3.4375 H   0  0  0  0  0  0  0  0  0  0  0  0
   -0.5042   -6.5309    4.2720 H   0  0  0  0  0  0  0  0  0  0  0  0
   -4.7517   -2.5124    4.5108 H   0  0  0  0  0  0  0  0  0  0  0  0
   -6.1149   -2.4895    0.7154 H   0  0  0  0  0  0  0  0  0  0  0  0
   -7.3285   -2.6771    1.8570 H   0  0  0  0  0  0  0  0  0  0  0  0
   -2.5023   -4.9168    4.0881 H   0  0  0  0  0  0  0  0  0  0  0  0
   -3.1057   -4.4851    0.1258 H   0  0  0  0  0  0  0  0  0  0  0  0
   -3.9161   -5.8023    0.9744 H   0  0  0  0  0  0  0  0  0  0  0  0
    4.3837   -9.5574    9.3098 H   0  0  0  0  0  0  0  0  0  0  0  0
    3.5607  -13.5550    9.4938 H   0  0  0  0  0  0  0  0  0  0  0  0
    4.9300  -12.9516   10.2721 H   0  0  0  0  0  0  0  0  0  0  0  0
    1.4537    1.9619    5.6902 H   0  0  0  0  0  0  0  0  0  0  0  0
   -0.8973   -1.7670    6.4147 H   0  0  0  0  0  0  0  0  0  0  0  0
    0.5558   -1.3987    7.1978 H   0  0  0  0  0  0  0  0  0  0  0  0
    2.5707    0.2847    4.2796 H   0  0  0  0  0  0  0  0  0  0  0  0
   -0.7385    2.3389    4.0363 H   0  0  0  0  0  0  0  0  0  0  0  0
   -0.1407    2.0680    5.4456 H   0  0  0  0  0  0  0  0  0  0  0  0
    1.0566   -4.9223   -2.5223 H   0  0  0  0  0  0  0  0  0  0  0  0
    2.5401   -3.4024    0.2565 H   0  0  0  0  0  0  0  0  0  0  0  0
    2.8466   -4.4703    0.5138 H   0  0  0  0  0  0  0  0  0  0  0  0
   -1.9301    2.6358   -4.5769 H   0  0  0  0  0  0  0  0  0  0  0  0
   -1.1350   -1.1661   -5.8766 H   0  0  0  0  0  0  0  0  0  0  0  0
   -2.1844   -0.2849   -6.8075 H   0  0  0  0  0  0  0  0  0  0  0  0
   -4.2881    1.5886    3.4468 H   0  0  0  0  0  0  0  0  0  0  0  0
   -3.8956    1.5821   -0.7563 H   0  0  0  0  0  0  0  0  0  0  0  0
   -5.3473    2.1985   -0.0738 H   0  0  0  0  0  0  0  0  0  0  0  0
    2.4725   -4.9507    5.9593 H   0  0  0  0  0  0  0  0  0  0  0  0
    0.5859   -5.4199    1.6888 H   0  0  0  0  0  0  0  0  0  0  0  0
    0.5903   -6.6169    2.5144 H   0  0  0  0  0  0  0  0  0  0  0  0
    5.2048   -6.3626    6.2183 H   0  0  0  0  0  0  0  0  0  0  0  0
    4.1125   -5.5128   10.0547 H   0  0  0  0  0  0  0  0  0  0  0  0
    5.6774   -5.1207    9.5298 H   0  0  0  0  0  0  0  0  0  0  0  0
    2.7699    1.8812    6.0744 H   0  0  0  0  0  0  0  0  0  0  0  0
    3.7520   -1.9730    5.7341 H   0  0  0  0  0  0  0  0  0  0  0  0
    4.5297   -1.2864    6.9115 H   0  0  0  0  0  0  0  0  0  0  0  0
   -3.7112   -2.5021    2.9639 H   0  0  0  0  0  0  0  0  0  0  0  0
   -2.2597   -2.8864    3.8832 H   0  0  0  0  0  0  0  0  0  0  0  0
    2.4922  -10.3046    8.2228 H   0  0  0  0  0  0  0  0  0  0  0  0
    0.0118    0.1096    4.3728 H   0  0  0  0  0  0  0  0  0  0  0  0
    0.9369    0.0504    3.0065 H   0  0  0  0  0  0  0  0  0  0  0  0
    0.6994   -3.4524   -2.3135 H   0  0  0  0  0  0  0  0  0  0  0  0
   -0.3814    1.7256   -3.9192 H   0  0  0  0  0  0  0  0  0  0  0  0
   -2.3300    1.1215    1.9279 H   0  0  0  0  0  0  0  0  0  0  0  0
    2.2212   -3.5493    5.0718 H   0  0  0  0  0  0  0  0  0  0  0  0
    3.2155   -6.9349    6.9900 H   0  0  0  0  0  0  0  0  0  0  0  0
    2.2270    0.5261    5.3760 H   0  0  0  0  0  0  0  0  0  0  0  0
    0.6542   -1.8338   -3.3291 H   0  0  0  0  0  0  0  0  0  0  0  0
    1.1045   -7.8421    3.0503 H   0  0  0  0  0  0  0  0  0  0  0  0
    1.9638   -8.7927    3.4683 H   0  0  0  0  0  0  0  0  0  0  0  0
    2.9152   -4.2334    2.3239 H   0  0  0  0  0  0  0  0  0  0  0  0
    2.5404  -13.0022    6.1643 H   0  0  0  0  0  0  0  0  0  0  0  0
    1.7575    2.4348   -0.6593 H   0  0  0  0  0  0  0  0  0  0  0  0
   -1.5627   -2.4763    2.7920 H   0  0  0  0  0  0  0  0  0  0  0  0
   -3.6574   -3.0864   -2.3236 H   0  0  0  0  0  0  0  0  0  0  0  0
   -2.2960    3.1399   -0.5408 H   0  0  0  0  0  0  0  0  0  0  0  0
   -0.1219   -2.7741   -3.3624 H   0  0  0  0  0  0  0  0  0  0  0  0
    4.0599   -3.3823    0.7294 H   0  0  0  0  0  0  0  0  0  0  0  0
    2.4463    2.9656    1.7207 H   0  0  0  0  0  0  0  0  0  0  0  0
   -0.8798   -7.1080    5.1633 H   0  0  0  0  0  0  0  0  0  0  0  0
   -1.1687  -10.8971    2.0625 H   0  0  0  0  0  0  0  0  0  0  0  0
    3.1061   -2.3815   -0.5588 H   0  0  0  0  0  0  0  0  0  0  0  0
    0.2547   -3.6656    6.2799 H   0  0  0  0  0  0  0  0  0  0  0  0
   -3.8455   -7.9418    8.6073 H   0  0  0  0  0  0  0  0  0  0  0  0
   -3.3740   -2.5939    1.7968 H   0  0  0  0  0  0  0  0  0  0  0  0
    1.3078  -11.0160    7.0391 H   0  0  0  0  0  0  0  0  0  0  0  0
  1180  1  0  0  0  0
  1181  1  0  0  0  0
  1182  1  0  0  0  0
  2183  1  0  0  0  0
  2184  1  0  0  0  0
  3  2  1  0  0  0  0
  3185  1  0  0  0  0
  3186  1  0  0  0  0
  4187  1  0  0  0  0
  4188  1  0  0  0  0
  5189  1  0  0  0  0
  5190  1  0  0  0  0
  6191  1  0  0  0  0
  6192  1  0  0  0  0
  7193  1  0  0  0  0
  7194  1  0  0  0  0
  8195  1  0  0  0  0
  8196  1  0  0  0  0
  9197  1  0  0  0  0
  9198  1  0  0  0  0
 10199  1  0  0  0  0
 10200  1  0  0  0  0
 11201  1  0  0  0  0
 11202  1  0  0  0  0
 12203  1  0  0  0  0
 12204  1  0  0  0  0
 13205  1  0  0  0  0
 13206  1  0  0  0  0
 14207  1  0  0  0  0
 14208  1  0  0  0  0
 15  2  1  0  0  0  0
 15209  1  0  0  0  0
 15210  1  0  0  0  0
 16  4  1  0  0  0  0
 16211  1  0  0  0  0
 16212  1  0  0  0  0
 17  5  1  0  0  0  0
 17213  1  0  0  0  0
 17214  1  0  0  0  0
 18  6  1  0  0  0  0
 18215  1  0  0  0  0
 18216  1  0  0  0  0
 19  7  1  0  0  0  0
 19217  1  0  0  0  0
 19218  1  0  0  0  0
 20  8  1  0  0  0  0
 20219  1  0  0  0  0
 20220  1  0  0  0  0
 21  9  1  0  0  0  0
 21221  1  0  0  0  0
 21222  1  0  0  0  0
 22 10  1  0  0  0  0
 22223  1  0  0  0  0
 22224  1  0  0  0  0
 23 11  1  0  0  0  0
 23225  1  0  0  0  0
 23226  1  0  0  0  0
 24 12  1  0  0  0  0
 24227  1  0  0  0  0
 24228  1  0  0  0  0
 25 13  1  0  0  0  0
 25229  1  0  0  0  0
 25230  1  0  0  0  0
 26 14  1  0  0  0  0
 26231  1  0  0  0  0
 26232  1  0  0  0  0
 27233  1  0  0  0  0
 27234  1  0  0  0  0
 28 27  1  0  0  0  0
 28235  1  0  0  0  0
 28236  1  0  0  0  0
 29  3  1  0  0  0  0
 29237  1  0  0  0  0
 29238  1  0  0  0  0
 30  4  1  0  0  0  0
 30239  1  0  0  0  0
 30240  1  0  0  0  0
 31  5  1  0  0  0  0
 31241  1  0  0  0  0
 31242  1  0  0  0  0
 32  6  1  0  0  0  0
 32243  1  0  0  0  0
 32244  1  0  0  0  0
 33  7  1  0  0  0  0
 33245  1  0  0  0  0
 33246  1  0  0  0  0
 34  8  1  0  0  0  0
 34247  1  0  0  0  0
 34248  1  0  0  0  0
 35  9  1  0  0  0  0
 35249  1  0  0  0  0
 35250  1  0  0  0  0
 36 10  1  0  0  0  0
 36251  1  0  0  0  0
 36252  1  0  0  0  0
 37 11  1  0  0  0  0
 37253  1  0  0  0  0
 37254  1  0  0  0  0
 38 12  1  0  0  0  0
 38255  1  0  0  0  0
 38256  1  0  0  0  0
 39 13  1  0  0  0  0
 39257  1  0  0  0  0
 39258  1  0  0  0  0
 40 14  1  0  0  0  0
 40259  1  0  0  0  0
 40260  1  0  0  0  0
 41261  1  0  0  0  0
 41262  1  0  0  0  0
 42263  1  0  0  0  0
 42264  1  0  0  0  0
 43265  1  0  0  0  0
 43266  1  0  0  0  0
 44  1  1  0  0  0  0
 45126  1  0  0  0  0
 45164  1  1  0  0  0
 45 63  1  0  0  0  0
 45 16  1  0  0  0  0
 46127  1  0  0  0  0
 46165  1  6  0  0  0
 46 73  1  0  0  0  0
 46 15  1  0  0  0  0
 47128  1  0  0  0  0
 47166  1  1  0  0  0
 47 65  1  0  0  0  0
 47 17  1  0  0  0  0
 48135  1  0  0  0  0
 48167  1  6  0  0  0
 48 64  1  0  0  0  0
 48 18  1  0  0  0  0
 49129  1  0  0  0  0
 49168  1  6  0  0  0
 49 66  1  0  0  0  0
 49 19  1  0  0  0  0
 50130  1  0  0  0  0
 50169  1  6  0  0  0
 50 67  1  0  0  0  0
 50 20  1  0  0  0  0
 51131  1  0  0  0  0
 51170  1  6  0  0  0
 51 68  1  0  0  0  0
 51 21  1  0  0  0  0
 52132  1  0  0  0  0
 52171  1  1  0  0  0
 52 69  1  0  0  0  0
 52 22  1  0  0  0  0
 53133  1  0  0  0  0
 53172  1  1  0  0  0
 53 70  1  0  0  0  0
 53 23  1  0  0  0  0
 54134  1  0  0  0  0
 54173  1  1  0  0  0
 54 71  1  0  0  0  0
 54 24  1  0  0  0  0
 55137  1  0  0  0  0
 55174  1  1  0  0  0
 55 72  1  0  0  0  0
 55 25  1  0  0  0  0
 56136  1  0  0  0  0
 56175  1  6  0  0  0
 56 74  1  0  0  0  0
 56 26  1  0  0  0  0
 57 75  1  0  0  0  0
 57138  1  0  0  0  0
 57176  1  6  0  0  0
 57 27  1  0  0  0  0
 58139  1  0  0  0  0
 58177  1  1  0  0  0
 58 78  1  0  0  0  0
 58 41  1  0  0  0  0
 59 42  1  0  0  0  0
 59141  1  0  0  0  0
 59178  1  6  0  0  0
 59 76  1  0  0  0  0
 60 43  1  0  0  0  0
 60 77  1  0  0  0  0
 60140  1  0  0  0  0
 60179  1  6  0  0  0
 61 28  1  0  0  0  0
 62 41  1  0  0  0  0
 63145  1  0  0  0  0
 64146  1  0  0  0  0
 65147  1  0  0  0  0
 66148  1  0  0  0  0
 67149  1  0  0  0  0
 68150  1  0  0  0  0
 69151  1  0  0  0  0
 70152  1  0  0  0  0
 71153  1  0  0  0  0
 72154  1  0  0  0  0
 73155  1  0  0  0  0
 74156  1  0  0  0  0
 75157  1  0  0  0  0
 76158  1  0  0  0  0
 77159  1  0  0  0  0
 90 29  1  0  0  0  0
 90267  1  0  0  0  0
 90268  1  0  0  0  0
 91 61  2  0  0  0  0
 91269  1  0  0  0  0
 92 62  2  0  0  0  0
 92270  1  0  0  0  0
 93 79  2  0  0  0  0
 93271  1  0  0  0  0
 94 79  1  0  0  0  0
 94272  1  0  0  0  0
 94273  1  0  0  0  0
 95 80  2  0  0  0  0
 95274  1  0  0  0  0
 96 80  1  0  0  0  0
 96275  1  0  0  0  0
 96276  1  0  0  0  0
 97 81  2  0  0  0  0
 97277  1  0  0  0  0
 98 81  1  0  0  0  0
 98278  1  0  0  0  0
 98279  1  0  0  0  0
 99 82  2  0  0  0  0
 99280  1  0  0  0  0
100 82  1  0  0  0  0
100281  1  0  0  0  0
100282  1  0  0  0  0
101 83  2  0  0  0  0
101283  1  0  0  0  0
102 83  1  0  0  0  0
102284  1  0  0  0  0
102285  1  0  0  0  0
103 84  2  0  0  0  0
103286  1  0  0  0  0
104 84  1  0  0  0  0
104287  1  0  0  0  0
104288  1  0  0  0  0
105 85  2  0  0  0  0
105289  1  0  0  0  0
106 85  1  0  0  0  0
106290  1  0  0  0  0
106291  1  0  0  0  0
107 86  2  0  0  0  0
107292  1  0  0  0  0
108 86  1  0  0  0  0
108293  1  0  0  0  0
108294  1  0  0  0  0
109 87  2  0  0  0  0
109295  1  0  0  0  0
110 87  1  0  0  0  0
110296  1  0  0  0  0
110297  1  0  0  0  0
111 88  2  0  0  0  0
111298  1  0  0  0  0
112 88  1  0  0  0  0
112299  1  0  0  0  0
112300  1  0  0  0  0
113 89  2  0  0  0  0
113301  1  0  0  0  0
114 89  1  0  0  0  0
114302  1  0  0  0  0
114303  1  0  0  0  0
115 30  1  0  0  0  0
115 79  1  0  0  0  0
115304  1  0  0  0  0
116 31  1  0  0  0  0
116 80  1  0  0  0  0
116305  1  0  0  0  0
117 32  1  0  0  0  0
117 81  1  0  0  0  0
117306  1  0  0  0  0
118 33  1  0  0  0  0
118 82  1  0  0  0  0
118307  1  0  0  0  0
119 34  1  0  0  0  0
119 83  1  0  0  0  0
119308  1  0  0  0  0
120 35  1  0  0  0  0
120 84  1  0  0  0  0
120309  1  0  0  0  0
121 36  1  0  0  0  0
121 85  1  0  0  0  0
121310  1  0  0  0  0
122 37  1  0  0  0  0
122 86  1  0  0  0  0
122311  1  0  0  0  0
123 38  1  0  0  0  0
123 87  1  0  0  0  0
123312  1  0  0  0  0
124 39  1  0  0  0  0
124 88  1  0  0  0  0
124313  1  0  0  0  0
125 40  1  0  0  0  0
125 89  1  0  0  0  0
125314  1  0  0  0  0
126 44  2  3  0  0  0
127 64  2  3  0  0  0
128 63  2  3  0  0  0
129 65  2  3  0  0  0
130 66  2  3  0  0  0
131 67  2  3  0  0  0
132 68  2  3  0  0  0
133 69  2  3  0  0  0
134 70  2  3  0  0  0
135 72  2  3  0  0  0
136 71  2  3  0  0  0
137 76  2  3  0  0  0
138 77  2  3  0  0  0
139 73  2  3  0  0  0
140 74  2  3  0  0  0
141 75  2  3  0  0  0
142 44  1  0  0  0  0
142315  1  0  0  0  0
143 61  1  0  0  0  0
143316  1  0  0  0  0
144 62  1  0  0  0  0
144317  1  0  0  0  0
145318  1  0  0  0  0
146319  1  0  0  0  0
147320  1  0  0  0  0
148321  1  0  0  0  0
149322  1  0  0  0  0
150323  1  0  0  0  0
151324  1  0  0  0  0
152325  1  0  0  0  0
153326  1  0  0  0  0
154327  1  0  0  0  0
155328  1  0  0  0  0
156329  1  0  0  0  0
157330  1  0  0  0  0
158331  1  0  0  0  0
159332  1  0  0  0  0
160 78  2  0  0  0  0
161 78  1  0  0  0  0
161333  1  0  0  0  0
162 42  1  0  0  0  0
163 43  1  0  0  0  0
163162  1  0  0  0  0
M  END
>  <DRUGBANK_ID>
DB15008

>  <COMMON_NAME>
GO-203-2C

>  <CAS_NUMBER>
1469735-88-3

>  <UNII>
5YSY733NA3

>  <SYNONYMS>
Acetyl-D-arginyl-D-arginyl-D-arginyl-D-arginyl-D-arginyl-D-arginyl-D-arginyl-D-arginyl-D-arginyl-D-cysteinyl-D-glutaminyl-D-cysteinyl-D-arginyl-D-arginyl-D-lysyl-dasparaginylamide disulfide

$$$$
