
 OpenBabel10282417203D

 52 56  0  0  1  0  0  0  0  0999 V2000
   -8.1644   -4.3772    5.7432 C   0  0  0  0  0  0  0  0  0  0  0  0
   -7.6748   -3.1285    6.2183 O   0  0  0  0  0  0  0  0  0  0  0  0
   -6.3854   -2.8375    5.8457 C   0  0  0  0  0  0  0  0  0  0  0  0
   -6.0693   -2.8931    4.4667 C   0  0  0  0  0  0  0  0  0  0  0  0
   -4.8333   -2.5200    3.9705 C   0  0  0  0  0  0  0  0  0  0  0  0
   -3.8768   -2.1008    4.9558 C   0  0  0  0  0  0  0  0  0  0  0  0
   -4.1951   -1.9450    6.3350 C   0  0  0  0  0  0  0  0  0  0  0  0
   -5.4637   -2.3611    6.8026 C   0  0  0  0  0  0  0  0  0  0  0  0
   -5.6768   -2.2770    8.1672 O   0  0  0  0  0  0  0  0  0  0  0  0
   -6.9049   -2.7720    8.7026 C   0  0  0  0  0  0  0  0  0  0  0  0
   -3.3358   -1.3965    7.2704 O   0  0  0  0  0  0  0  0  0  0  0  0
   -2.1136   -0.8145    6.8182 C   0  0  0  0  0  0  0  0  0  0  0  0
   -4.4274   -2.8725    2.5290 C   0  0  2  0  0  0  0  0  0  0  0  0
   -4.8679   -2.2396    0.9998 C   0  0  0  0  0  0  0  0  0  0  0  0
   -5.6634   -1.1089    0.7107 C   0  0  0  0  0  0  0  0  0  0  0  0
   -5.0582    0.0897    0.9647 C   0  0  0  0  0  0  0  0  0  0  0  0
   -3.7372    0.0490    1.2688 C   0  0  0  0  0  0  0  0  0  0  0  0
   -2.9466   -1.0281    0.8435 C   0  0  0  0  0  0  0  0  0  0  0  0
   -3.5855   -2.2159    0.4123 C   0  0  0  0  0  0  0  0  0  0  0  0
   -2.8229   -3.5915    0.4411 C   0  0  1  0  0  0  0  0  0  0  0  0
   -3.8361   -4.7079    0.8632 C   0  0  2  0  0  0  0  0  0  0  0  0
   -4.4697   -4.3844    2.2321 C   0  0  1  0  0  0  0  0  0  0  0  0
   -3.7204   -5.3355    3.1518 C   0  0  0  0  0  0  0  0  0  0  0  0
   -4.0085   -5.6150    4.2853 O   0  0  0  0  0  0  0  0  0  0  0  0
   -2.7442   -5.9886    2.4387 O   0  0  0  0  0  0  0  0  0  0  0  0
   -3.2218   -6.0647    1.1093 C   0  0  0  0  0  0  0  0  0  0  0  0
   -2.0650   -3.9519   -0.7065 O   0  0  0  0  0  0  0  0  0  0  0  0
   -3.4292    1.0430    2.1438 O   0  0  0  0  0  0  0  0  0  0  0  0
   -4.6115    1.8785    2.0229 C   0  0  0  0  0  0  0  0  0  0  0  0
   -5.5795    1.3330    1.0925 O   0  0  0  0  0  0  0  0  0  0  0  0
   -9.2014   -4.4605    6.0775 H   0  0  0  0  0  0  0  0  0  0  0  0
   -7.5906   -5.2066    6.1676 H   0  0  0  0  0  0  0  0  0  0  0  0
   -8.1829   -4.4394    4.6529 H   0  0  0  0  0  0  0  0  0  0  0  0
   -6.7875   -3.2929    3.7657 H   0  0  0  0  0  0  0  0  0  0  0  0
   -2.8363   -1.9610    4.6633 H   0  0  0  0  0  0  0  0  0  0  0  0
   -7.7479   -2.1568    8.3711 H   0  0  0  0  0  0  0  0  0  0  0  0
   -7.0539   -3.8325    8.4675 H   0  0  0  0  0  0  0  0  0  0  0  0
   -6.8834   -2.7003    9.7965 H   0  0  0  0  0  0  0  0  0  0  0  0
   -1.3974   -1.6021    6.5668 H   0  0  0  0  0  0  0  0  0  0  0  0
   -2.2595   -0.1305    5.9747 H   0  0  0  0  0  0  0  0  0  0  0  0
   -1.6738   -0.2225    7.6323 H   0  0  0  0  0  0  0  0  0  0  0  0
   -3.3775   -2.5616    2.6253 H   0  0  0  0  0  0  0  0  0  0  0  0
   -6.2992   -1.0876   -0.1968 H   0  0  0  0  0  0  0  0  0  0  0  0
   -1.9163   -1.0668    1.1757 H   0  0  0  0  0  0  0  0  0  0  0  0
   -2.0753   -3.4308    1.2186 H   0  0  0  0  0  0  0  0  0  0  0  0
   -4.6305   -4.8052    0.1109 H   0  0  0  0  0  0  0  0  0  0  0  0
   -5.5102   -4.7205    2.2389 H   0  0  0  0  0  0  0  0  0  0  0  0
   -3.9688   -6.8707    1.0706 H   0  0  0  0  0  0  0  0  0  0  0  0
   -2.4258   -6.3412    0.4166 H   0  0  0  0  0  0  0  0  0  0  0  0
   -2.1764   -4.8969   -0.9188 H   0  0  0  0  0  0  0  0  0  0  0  0
   -5.1385    2.0177    2.9803 H   0  0  0  0  0  0  0  0  0  0  0  0
   -4.2363    2.8574    1.7093 H   0  0  0  0  0  0  0  0  0  0  0  0
  1  2  1  0  0  0  0
  1 31  1  0  0  0  0
  1 32  1  0  0  0  0
  1 33  1  0  0  0  0
  2  3  1  0  0  0  0
  3  4  2  0  0  0  0
  3  8  1  0  0  0  0
  4  5  1  0  0  0  0
  4 34  1  0  0  0  0
  5  6  2  0  0  0  0
  6  7  1  0  0  0  0
  6 35  1  0  0  0  0
  7  8  2  0  0  0  0
  7 11  1  0  0  0  0
  8  9  1  0  0  0  0
  9 10  1  0  0  0  0
 10 36  1  0  0  0  0
 10 37  1  0  0  0  0
 10 38  1  0  0  0  0
 11 12  1  0  0  0  0
 12 39  1  0  0  0  0
 12 40  1  0  0  0  0
 12 41  1  0  0  0  0
 13 14  1  0  0  0  0
 13 22  1  0  0  0  0
 13  5  1  0  0  0  0
 13 42  1  1  0  0  0
 14 15  2  0  0  0  0
 14 19  1  0  0  0  0
 15 16  1  0  0  0  0
 15 43  1  0  0  0  0
 16 17  2  0  0  0  0
 16 30  1  0  0  0  0
 17 18  1  0  0  0  0
 17 28  1  0  0  0  0
 18 19  2  0  0  0  0
 18 44  1  0  0  0  0
 19 20  1  0  0  0  0
 20 21  1  0  0  0  0
 20 27  1  0  0  0  0
 20 45  1  1  0  0  0
 21 22  1  0  0  0  0
 21 26  1  0  0  0  0
 21 46  1  6  0  0  0
 22 23  1  0  0  0  0
 22 47  1  6  0  0  0
 23 25  1  0  0  0  0
 23 24  2  0  0  0  0
 25 26  1  0  0  0  0
 26 48  1  0  0  0  0
 26 49  1  0  0  0  0
 27 50  1  0  0  0  0
 28 29  1  0  0  0  0
 29 30  1  0  0  0  0
 29 51  1  0  0  0  0
 29 52  1  0  0  0  0
M  END
>  <DRUGBANK_ID>
DB12802

>  <COMMON_NAME>
Picropodophyllin

>  <CAS_NUMBER>
477-47-4

>  <UNII>
0F35AOI227

$$$$
