
 OpenBabel10282417153D

 22 22  0  0  0  0  0  0  0  0999 V2000
    1.0572    0.1116    0.0042 C   0  0  0  0  0  0  0  0  0  0  0  0
    0.5243    0.5978    1.2693 N   0  0  0  0  0  0  0  0  0  0  0  0
   -0.9453    0.5026    1.3207 C   0  0  0  0  0  0  0  0  0  0  0  0
   -1.5169   -0.9220    1.2043 C   0  0  0  0  0  0  0  0  0  0  0  0
   -1.0875   -1.8839    2.2897 C   0  0  0  0  0  0  0  0  0  0  0  0
   -0.4709   -1.4560    3.4683 C   0  0  0  0  0  0  0  0  0  0  0  0
   -0.0971   -2.3880    4.4282 C   0  0  0  0  0  0  0  0  0  0  0  0
   -0.3939   -3.7200    4.2178 C   0  0  0  0  0  0  0  0  0  0  0  0
   -1.0248   -4.0727    3.0367 C   0  0  0  0  0  0  0  0  0  0  0  0
   -1.3643   -3.1890    2.0679 N   0  0  0  0  0  0  0  0  0  0  0  0
    0.7021    0.7302   -0.8229 H   0  0  0  0  0  0  0  0  0  0  0  0
    0.7975   -0.9346   -0.1826 H   0  0  0  0  0  0  0  0  0  0  0  0
    2.1489    0.1630    0.0324 H   0  0  0  0  0  0  0  0  0  0  0  0
    0.9376    0.0259    2.0054 H   0  0  0  0  0  0  0  0  0  0  0  0
   -1.2856    0.9434    2.2676 H   0  0  0  0  0  0  0  0  0  0  0  0
   -1.3747    1.1422    0.5413 H   0  0  0  0  0  0  0  0  0  0  0  0
   -2.6123   -0.8654    1.2196 H   0  0  0  0  0  0  0  0  0  0  0  0
   -1.2592   -1.3465    0.2252 H   0  0  0  0  0  0  0  0  0  0  0  0
   -0.2636   -0.4130    3.6692 H   0  0  0  0  0  0  0  0  0  0  0  0
    0.4054   -2.0554    5.3316 H   0  0  0  0  0  0  0  0  0  0  0  0
   -0.1506   -4.4669    4.9652 H   0  0  0  0  0  0  0  0  0  0  0  0
   -1.2911   -5.1038    2.8332 H   0  0  0  0  0  0  0  0  0  0  0  0
  1  2  1  0  0  0  0
  1 11  1  0  0  0  0
  1 12  1  0  0  0  0
  1 13  1  0  0  0  0
  2  3  1  0  0  0  0
  2 14  1  0  0  0  0
  3  4  1  0  0  0  0
  3 15  1  0  0  0  0
  3 16  1  0  0  0  0
  4  5  1  0  0  0  0
  4 17  1  0  0  0  0
  4 18  1  0  0  0  0
  5  6  2  0  0  0  0
  5 10  1  0  0  0  0
  6  7  1  0  0  0  0
  6 19  1  0  0  0  0
  7  8  2  0  0  0  0
  7 20  1  0  0  0  0
  8  9  1  0  0  0  0
  8 21  1  0  0  0  0
  9 10  2  0  0  0  0
  9 22  1  0  0  0  0
M  END
>  <DRUGBANK_ID>
DB06698

>  <COMMON_NAME>
Betahistine

>  <CAS_NUMBER>
5638-76-6

>  <UNII>
X32KK4201D

>  <SYNONYMS>
[2-(2-pyridyl)ethyl]methylamine; 2-(β-methylaminoethyl)pyridine; 2-[2-(methylamino)ethyl]pyridine; Betahistina; Bétahistine; Betahistine; Betahistinum; N-methyl-2-(2-pyridinyl)ethanamine; N-methyl-2-pyridineethanamine

$$$$
