
 OpenBabel10282417233D

 92 98  0  0  1  0  0  0  0  0999 V2000
    5.0174   -2.4219    4.0813 H   0  0  0  0  0  0  0  0  0  0  0  0
    4.0899   -2.6752    3.5563 C   0  0  2  0  0  0  0  0  0  0  0  0
    4.2077   -3.7329    4.7295 O   0  0  0  0  0  0  0  0  0  0  0  0
    4.2108   -5.0167    4.1869 C   0  0  0  0  0  0  0  0  0  0  0  0
    4.1987   -4.8371    2.8340 C   0  0  0  0  0  0  0  0  0  0  0  0
    4.6519   -5.7661    1.9143 C   0  0  0  0  0  0  0  0  0  0  0  0
    4.7344   -5.4555    0.4631 C   0  0  0  0  0  0  0  0  0  0  0  0
    3.7941   -4.2992    0.1104 C   0  0  1  0  0  0  0  0  0  0  0  0
    2.3021   -4.5063    0.1002 N   0  0  0  0  0  0  0  0  0  0  0  0
    1.8442   -5.4722   -0.9312 C   0  0  0  0  0  0  0  0  0  0  0  0
    2.5467   -6.7837   -0.8319 C   0  0  0  0  0  0  0  0  0  0  0  0
    2.3926   -8.2934   -0.6081 C   0  0  0  0  0  0  0  0  0  0  0  0
    2.2785   -7.4229    0.5410 C   0  0  0  0  0  0  0  0  0  0  0  0
    1.6459   -4.6527    1.4192 C   0  0  0  0  0  0  0  0  0  0  0  0
    2.0369   -3.6048    2.4657 C   0  0  0  0  0  0  0  0  0  0  0  0
    3.6153   -3.5418    2.4651 C   0  0  1  0  0  0  0  0  0  0  0  0
    4.1708   -3.1860    1.1194 C   0  0  1  0  0  0  0  0  0  0  0  0
    5.7747   -2.9321    1.2168 C   0  0  0  0  0  0  0  0  0  0  0  0
    6.1546   -1.9257    2.3171 C   0  0  0  0  0  0  0  0  0  0  0  0
    4.7812   -1.2788    2.6967 C   0  0  2  0  0  0  0  0  0  0  0  0
    4.6227   -0.2118    3.6740 O   0  0  0  0  0  0  0  0  0  0  0  0
    3.4051   -0.4919    4.4367 C   0  0  0  0  0  0  0  0  0  0  0  0
    3.9654   -0.7861    1.3401 C   0  0  2  0  0  0  0  0  0  0  0  0
    3.1631   -0.2202    1.8026 H   0  0  0  0  0  0  0  0  0  0  0  0
    3.3633   -1.9868    0.7737 C   0  0  0  0  0  0  0  0  0  0  0  0
    4.3285    0.0638    0.0256 C   0  0  2  0  0  0  0  0  0  0  0  0
    4.0486   -0.5831   -1.4551 C   0  0  0  0  0  0  0  0  0  0  0  0
    5.7289    0.3383    0.0544 O   0  0  0  0  0  0  0  0  0  0  0  0
    3.5227    1.4376    0.0570 C   0  0  0  0  0  0  0  0  0  0  0  0
    3.8708    2.2810   -1.1950 C   0  0  0  0  0  0  0  0  0  0  0  0
    1.9830    1.1987    0.0981 C   0  0  0  0  0  0  0  0  0  0  0  0
    3.9202    2.2879    1.2830 C   0  0  0  0  0  0  0  0  0  0  0  0
    4.9822   -7.0024    2.3600 C   0  0  0  0  0  0  0  0  0  0  0  0
    4.6444   -7.3100    3.6504 C   0  0  0  0  0  0  0  0  0  0  0  0
    4.2615   -6.3613    4.6117 C   0  0  0  0  0  0  0  0  0  0  0  0
    3.8711   -6.9583    5.8741 O   0  0  0  0  0  0  0  0  0  0  0  0
    4.0081   -8.3657    6.2142 C   0  0  0  0  0  0  0  0  0  0  0  0
    4.3630   -9.2818    5.4740 O   0  0  0  0  0  0  0  0  0  0  0  0
    3.7254   -8.7365    7.6453 C   0  0  0  0  0  0  0  0  0  0  0  0
    4.6038   -7.9514    8.5962 C   0  0  0  0  0  0  0  0  0  0  0  0
    4.1836   -6.4848    8.6618 C   0  0  0  0  0  0  0  0  0  0  0  0
    2.7004   -6.3078    8.9896 C   0  0  0  0  0  0  0  0  0  0  0  0
    2.3908   -6.8160   10.3722 C   0  0  0  0  0  0  0  0  0  0  0  0
    1.9395   -5.8874   11.2254 O   0  0  0  0  0  0  0  0  0  0  0  0
    2.5318   -8.0017   10.7201 O   0  0  0  0  0  0  0  0  0  0  0  0
    4.6151   -6.3579   -0.1071 H   0  0  0  0  0  0  0  0  0  0  0  0
    5.7639   -5.1995    0.2035 H   0  0  0  0  0  0  0  0  0  0  0  0
    4.0702   -3.9547   -0.8977 H   0  0  0  0  0  0  0  0  0  0  0  0
    0.7552   -5.5683   -0.9528 H   0  0  0  0  0  0  0  0  0  0  0  0
    2.1140   -5.0193   -1.8971 H   0  0  0  0  0  0  0  0  0  0  0  0
    3.4391   -6.6920   -1.4454 H   0  0  0  0  0  0  0  0  0  0  0  0
    1.5252   -8.8689   -0.8554 H   0  0  0  0  0  0  0  0  0  0  0  0
    3.3351   -8.8515   -0.6263 H   0  0  0  0  0  0  0  0  0  0  0  0
    3.0221   -7.4991    1.3016 H   0  0  0  0  0  0  0  0  0  0  0  0
    1.3019   -7.2829    0.9924 H   0  0  0  0  0  0  0  0  0  0  0  0
    1.9437   -5.5706    1.9096 H   0  0  0  0  0  0  0  0  0  0  0  0
    0.5557   -4.7201    1.3211 H   0  0  0  0  0  0  0  0  0  0  0  0
    1.6515   -3.8738    3.4560 H   0  0  0  0  0  0  0  0  0  0  0  0
    1.4894   -2.6600    2.2967 H   0  0  0  0  0  0  0  0  0  0  0  0
    6.1876   -2.6477    0.2461 H   0  0  0  0  0  0  0  0  0  0  0  0
    6.3124   -3.8479    1.5008 H   0  0  0  0  0  0  0  0  0  0  0  0
    7.0711   -1.3562    2.1136 H   0  0  0  0  0  0  0  0  0  0  0  0
    6.5362   -2.5379    3.1607 H   0  0  0  0  0  0  0  0  0  0  0  0
    2.5883   -0.8431    3.7796 H   0  0  0  0  0  0  0  0  0  0  0  0
    3.6629   -1.2769    5.1526 H   0  0  0  0  0  0  0  0  0  0  0  0
    3.0196    0.2913    5.0835 H   0  0  0  0  0  0  0  0  0  0  0  0
    3.2566   -2.1082   -0.2564 H   0  0  0  0  0  0  0  0  0  0  0  0
    2.2991   -1.8908    0.9603 H   0  0  0  0  0  0  0  0  0  0  0  0
    3.4364   -1.4675   -1.6542 H   0  0  0  0  0  0  0  0  0  0  0  0
    3.3984    0.0406   -2.0630 H   0  0  0  0  0  0  0  0  0  0  0  0
    4.9808   -0.8067   -1.9705 H   0  0  0  0  0  0  0  0  0  0  0  0
    6.1949   -0.5123    0.0256 H   0  0  0  0  0  0  0  0  0  0  0  0
    3.5790    1.8195   -2.1397 H   0  0  0  0  0  0  0  0  0  0  0  0
    3.3496    3.2393   -1.1878 H   0  0  0  0  0  0  0  0  0  0  0  0
    4.9493    2.4535   -1.2540 H   0  0  0  0  0  0  0  0  0  0  0  0
    1.6446    0.7028    1.0153 H   0  0  0  0  0  0  0  0  0  0  0  0
    1.4346    2.1451    0.0595 H   0  0  0  0  0  0  0  0  0  0  0  0
    1.6366    0.5761   -0.7330 H   0  0  0  0  0  0  0  0  0  0  0  0
    3.6464    1.8162    2.2300 H   0  0  0  0  0  0  0  0  0  0  0  0
    4.9989    2.4737    1.3033 H   0  0  0  0  0  0  0  0  0  0  0  0
    3.4127    3.2583    1.2629 H   0  0  0  0  0  0  0  0  0  0  0  0
    5.2518   -7.7910    1.6698 H   0  0  0  0  0  0  0  0  0  0  0  0
    4.6496   -8.3674    3.8095 H   0  0  0  0  0  0  0  0  0  0  0  0
    2.6543   -8.7311    7.8613 H   0  0  0  0  0  0  0  0  0  0  0  0
    4.0060   -9.7980    7.7581 H   0  0  0  0  0  0  0  0  0  0  0  0
    4.5637   -8.4058    9.5919 H   0  0  0  0  0  0  0  0  0  0  0  0
    5.6533   -8.0351    8.2877 H   0  0  0  0  0  0  0  0  0  0  0  0
    4.8134   -5.9558    9.3797 H   0  0  0  0  0  0  0  0  0  0  0  0
    4.4015   -5.9969    7.7102 H   0  0  0  0  0  0  0  0  0  0  0  0
    2.4326   -5.2526    8.8888 H   0  0  0  0  0  0  0  0  0  0  0  0
    2.0414   -6.8280    8.2837 H   0  0  0  0  0  0  0  0  0  0  0  0
    1.8372   -4.9996   10.8338 H   0  0  0  0  0  0  0  0  0  0  0  0
  2  1  1  1  0  0  0
  2  3  1  0  0  0  0
  2 16  1  0  0  0  0
  2 20  1  0  0  0  0
  3  4  1  0  0  0  0
  4  5  2  0  0  0  0
  4 35  1  0  0  0  0
  5  6  1  0  0  0  0
  6  7  1  0  0  0  0
  6 33  2  0  0  0  0
  7 46  1  0  0  0  0
  7 47  1  0  0  0  0
  8  7  1  0  0  0  0
  8  9  1  0  0  0  0
  8 48  1  6  0  0  0
  9 10  1  0  0  0  0
  9 14  1  0  0  0  0
 10 11  1  0  0  0  0
 10 49  1  0  0  0  0
 10 50  1  0  0  0  0
 11 12  1  0  0  0  0
 11 13  1  0  0  0  0
 11 51  1  0  0  0  0
 12 13  1  0  0  0  0
 12 52  1  0  0  0  0
 12 53  1  0  0  0  0
 13 54  1  0  0  0  0
 13 55  1  0  0  0  0
 14 15  1  0  0  0  0
 14 56  1  0  0  0  0
 14 57  1  0  0  0  0
 15 58  1  0  0  0  0
 15 59  1  0  0  0  0
 16 15  1  0  0  0  0
 16  5  1  1  0  0  0
 16 17  1  0  0  0  0
 17  8  1  0  0  0  0
 17 18  1  1  0  0  0
 17 25  1  0  0  0  0
 18 19  1  0  0  0  0
 18 60  1  0  0  0  0
 18 61  1  0  0  0  0
 19 62  1  0  0  0  0
 19 63  1  0  0  0  0
 20 19  1  0  0  0  0
 20 21  1  1  0  0  0
 20 23  1  0  0  0  0
 21 22  1  0  0  0  0
 22 64  1  0  0  0  0
 22 65  1  0  0  0  0
 22 66  1  0  0  0  0
 23 24  1  1  0  0  0
 23 25  1  0  0  0  0
 25 67  1  0  0  0  0
 25 68  1  0  0  0  0
 26 28  1  1  0  0  0
 26 29  1  0  0  0  0
 26 27  1  0  0  0  0
 26 23  1  0  0  0  0
 27 69  1  0  0  0  0
 27 70  1  0  0  0  0
 27 71  1  0  0  0  0
 28 72  1  0  0  0  0
 29 30  1  0  0  0  0
 29 31  1  0  0  0  0
 29 32  1  0  0  0  0
 30 73  1  0  0  0  0
 30 74  1  0  0  0  0
 30 75  1  0  0  0  0
 31 76  1  0  0  0  0
 31 77  1  0  0  0  0
 31 78  1  0  0  0  0
 32 79  1  0  0  0  0
 32 80  1  0  0  0  0
 32 81  1  0  0  0  0
 33 34  1  0  0  0  0
 33 82  1  0  0  0  0
 34 35  2  0  0  0  0
 34 83  1  0  0  0  0
 35 36  1  0  0  0  0
 36 37  1  0  0  0  0
 37 38  2  0  0  0  0
 37 39  1  0  0  0  0
 39 40  1  0  0  0  0
 39 84  1  0  0  0  0
 39 85  1  0  0  0  0
 40 41  1  0  0  0  0
 40 86  1  0  0  0  0
 40 87  1  0  0  0  0
 41 42  1  0  0  0  0
 41 88  1  0  0  0  0
 41 89  1  0  0  0  0
 42 43  1  0  0  0  0
 42 90  1  0  0  0  0
 42 91  1  0  0  0  0
 43 44  1  0  0  0  0
 43 45  2  0  0  0  0
 44 92  1  0  0  0  0
M  END
>  <DRUGBANK_ID>
DB16117

>  <COMMON_NAME>
Buprenorphine hemiadipate

>  <CAS_NUMBER>
951123-45-8

>  <UNII>
968KUA5J54

>  <SYNONYMS>
Buprenorphine adipate ester

$$$$
