
 OpenBabel10282417193D

 76 80  0  0  1  0  0  0  0  0999 V2000
    0.8811   -0.1843   -0.1215 C   0  0  0  0  0  0  0  0  0  0  0  0
    0.4776    0.2733    1.2807 C   0  0  1  0  0  0  0  0  0  0  0  0
    1.0279    1.6788    1.3500 C   0  0  0  0  0  0  0  0  0  0  0  0
    0.3488    2.6779    1.5386 O   0  0  0  0  0  0  0  0  0  0  0  0
    2.3818    1.8327    1.1943 N   0  0  0  0  0  0  0  0  0  0  0  0
    3.5932    0.9202    1.4005 C   0  0  1  0  0  0  0  0  0  0  0  0
    4.4786    1.2353    0.1765 C   0  0  0  0  0  0  0  0  0  0  0  0
    5.7541    0.4036    0.1696 C   0  0  0  0  0  0  0  0  0  0  0  0
    6.6915    0.8772   -0.9158 C   0  0  0  0  0  0  0  0  0  0  0  0
    7.0303    2.3619   -0.7752 C   0  0  0  0  0  0  0  0  0  0  0  0
    5.7832    3.2159   -0.8663 C   0  0  0  0  0  0  0  0  0  0  0  0
    4.7618    2.7407    0.1185 C   0  0  0  0  0  0  0  0  0  0  0  0
    4.6210    0.5698    2.7227 C   0  0  0  0  0  0  0  0  0  0  0  0
    4.4436   -0.5330    3.3317 O   0  0  0  0  0  0  0  0  0  0  0  0
    5.7238    1.3842    3.0070 N   0  0  0  0  0  0  0  0  0  0  0  0
    5.4229    2.6838    3.3082 C   0  0  0  0  0  0  0  0  0  0  0  0
    6.6169    3.5565    3.0535 C   0  0  0  0  0  0  0  0  0  0  0  0
    7.6938    2.6635    3.5969 C   0  0  0  0  0  0  0  0  0  0  0  0
    6.9926    1.2620    3.7490 C   0  0  1  0  0  0  0  0  0  0  0  0
    6.8331    0.9493    5.2808 C   0  0  0  0  0  0  0  0  0  0  0  0
    6.8432   -0.2412    5.6121 O   0  0  0  0  0  0  0  0  0  0  0  0
    6.6955    1.8913    6.3152 N   0  0  0  0  0  0  0  0  0  0  0  0
    6.5917    3.3106    6.3347 C   0  0  0  0  0  0  0  0  0  0  0  0
    5.7247    4.3402    5.8601 C   0  0  0  0  0  0  0  0  0  0  0  0
    6.3111    5.5812    5.8246 N   0  0  0  0  0  0  0  0  0  0  0  0
    7.4100    5.6159    6.5446 C   0  0  0  0  0  0  0  0  0  0  0  0
    7.9101    4.0980    7.1839 S   0  0  0  0  0  0  0  0  0  0  0  0
    7.9640    6.9078    6.8732 C   0  0  0  0  0  0  0  0  0  0  0  0
    7.1772    7.8685    7.3392 N   0  0  0  0  0  0  0  0  0  0  0  0
    7.9720    8.9706    7.4390 C   0  0  0  0  0  0  0  0  0  0  0  0
    9.2336    8.6651    7.0032 C   0  0  0  0  0  0  0  0  0  0  0  0
    9.2539    7.3453    6.6374 O   0  0  0  0  0  0  0  0  0  0  0  0
    4.3349    4.2349    5.2873 C   0  0  0  0  0  0  0  0  0  0  0  0
    3.9814    4.8155    4.0017 C   0  0  0  0  0  0  0  0  0  0  0  0
    3.0177    4.1531    3.2161 C   0  0  0  0  0  0  0  0  0  0  0  0
    2.4608    2.9534    3.7516 C   0  0  0  0  0  0  0  0  0  0  0  0
    2.7176    2.4536    5.0104 C   0  0  0  0  0  0  0  0  0  0  0  0
    3.5765    3.1611    5.8168 C   0  0  0  0  0  0  0  0  0  0  0  0
   -0.9953    0.2874    1.4087 N   0  0  0  0  0  0  0  0  0  0  0  0
   -1.4314    0.6356    2.7636 C   0  0  0  0  0  0  0  0  0  0  0  0
    0.5582    0.5499   -0.8709 H   0  0  0  0  0  0  0  0  0  0  0  0
    0.5047   -1.1749   -0.3573 H   0  0  0  0  0  0  0  0  0  0  0  0
    1.9647   -0.2365   -0.2492 H   0  0  0  0  0  0  0  0  0  0  0  0
    0.9343   -0.3319    2.0709 H   0  0  0  0  0  0  0  0  0  0  0  0
    2.5117    2.8312    1.1510 H   0  0  0  0  0  0  0  0  0  0  0  0
    3.1572   -0.0763    1.2851 H   0  0  0  0  0  0  0  0  0  0  0  0
    3.9117    0.9929   -0.7331 H   0  0  0  0  0  0  0  0  0  0  0  0
    6.3241    0.4853    1.0902 H   0  0  0  0  0  0  0  0  0  0  0  0
    5.5011   -0.6590    0.0822 H   0  0  0  0  0  0  0  0  0  0  0  0
    7.6080    0.2871   -0.8565 H   0  0  0  0  0  0  0  0  0  0  0  0
    6.2082    0.6992   -1.8784 H   0  0  0  0  0  0  0  0  0  0  0  0
    7.5287    2.5451    0.1870 H   0  0  0  0  0  0  0  0  0  0  0  0
    7.7230    2.6685   -1.5606 H   0  0  0  0  0  0  0  0  0  0  0  0
    6.0165    4.2629   -0.6294 H   0  0  0  0  0  0  0  0  0  0  0  0
    5.3419    3.1922   -1.8644 H   0  0  0  0  0  0  0  0  0  0  0  0
    3.8597    3.3288   -0.0441 H   0  0  0  0  0  0  0  0  0  0  0  0
    5.1528    3.0318    1.0671 H   0  0  0  0  0  0  0  0  0  0  0  0
    5.2167    2.5186    4.3520 H   0  0  0  0  0  0  0  0  0  0  0  0
    4.5625    2.8944    2.7623 H   0  0  0  0  0  0  0  0  0  0  0  0
    6.7347    3.7568    1.9933 H   0  0  0  0  0  0  0  0  0  0  0  0
    6.6254    4.5462    3.5173 H   0  0  0  0  0  0  0  0  0  0  0  0
    8.5655    2.7035    2.9510 H   0  0  0  0  0  0  0  0  0  0  0  0
    8.0413    3.0823    4.5365 H   0  0  0  0  0  0  0  0  0  0  0  0
    7.5827    0.5127    3.2225 H   0  0  0  0  0  0  0  0  0  0  0  0
    7.0259    1.4541    7.1756 H   0  0  0  0  0  0  0  0  0  0  0  0
    7.5868    9.9058    7.8218 H   0  0  0  0  0  0  0  0  0  0  0  0
   10.1541    9.2233    6.9102 H   0  0  0  0  0  0  0  0  0  0  0  0
    4.6759    5.4526    3.4202 H   0  0  0  0  0  0  0  0  0  0  0  0
    3.1258    4.2891    2.1163 H   0  0  0  0  0  0  0  0  0  0  0  0
    2.0548    2.1372    3.1879 H   0  0  0  0  0  0  0  0  0  0  0  0
    2.4482    1.4115    5.2226 H   0  0  0  0  0  0  0  0  0  0  0  0
    3.8726    2.6774    6.7380 H   0  0  0  0  0  0  0  0  0  0  0  0
   -1.3462    1.0180    0.7829 H   0  0  0  0  0  0  0  0  0  0  0  0
   -1.1184    1.6343    3.0856 H   0  0  0  0  0  0  0  0  0  0  0  0
   -2.5254    0.6306    2.7934 H   0  0  0  0  0  0  0  0  0  0  0  0
   -1.0675   -0.0892    3.4970 H   0  0  0  0  0  0  0  0  0  0  0  0
  1 41  1  0  0  0  0
  1 42  1  0  0  0  0
  1 43  1  0  0  0  0
  2  1  1  0  0  0  0
  2  3  1  0  0  0  0
  2 39  1  0  0  0  0
  2 44  1  1  0  0  0
  3  4  2  0  0  0  0
  3  5  1  0  0  0  0
  5 45  1  0  0  0  0
  6  5  1  0  0  0  0
  6  7  1  0  0  0  0
  6 13  1  0  0  0  0
  6 46  1  6  0  0  0
  7  8  1  0  0  0  0
  7 12  1  0  0  0  0
  7 47  1  0  0  0  0
  8  9  1  0  0  0  0
  8 48  1  0  0  0  0
  8 49  1  0  0  0  0
  9 10  1  0  0  0  0
  9 50  1  0  0  0  0
  9 51  1  0  0  0  0
 10 11  1  0  0  0  0
 10 52  1  0  0  0  0
 10 53  1  0  0  0  0
 11 12  1  0  0  0  0
 11 54  1  0  0  0  0
 11 55  1  0  0  0  0
 12 56  1  0  0  0  0
 12 57  1  0  0  0  0
 13 14  2  0  0  0  0
 13 15  1  0  0  0  0
 15 16  1  0  0  0  0
 15 19  1  0  0  0  0
 16 17  1  0  0  0  0
 16 58  1  0  0  0  0
 16 59  1  0  0  0  0
 17 18  1  0  0  0  0
 17 60  1  0  0  0  0
 17 61  1  0  0  0  0
 18 19  1  0  0  0  0
 18 62  1  0  0  0  0
 18 63  1  0  0  0  0
 19 64  1  6  0  0  0
 19 20  1  0  0  0  0
 20 21  2  0  0  0  0
 20 22  1  0  0  0  0
 22 23  1  0  0  0  0
 22 65  1  0  0  0  0
 23 24  2  0  0  0  0
 23 27  1  0  0  0  0
 24 25  1  0  0  0  0
 24 33  1  0  0  0  0
 25 26  2  0  0  0  0
 26 27  1  0  0  0  0
 26 28  1  0  0  0  0
 28 29  2  0  0  0  0
 28 32  1  0  0  0  0
 29 30  1  0  0  0  0
 30 31  2  0  0  0  0
 30 66  1  0  0  0  0
 31 32  1  0  0  0  0
 31 67  1  0  0  0  0
 33 34  2  0  0  0  0
 33 38  1  0  0  0  0
 34 35  1  0  0  0  0
 34 68  1  0  0  0  0
 35 36  2  0  0  0  0
 35 69  1  0  0  0  0
 36 37  1  0  0  0  0
 36 70  1  0  0  0  0
 37 38  2  0  0  0  0
 37 71  1  0  0  0  0
 38 72  1  0  0  0  0
 39 40  1  0  0  0  0
 39 73  1  0  0  0  0
 40 74  1  0  0  0  0
 40 75  1  0  0  0  0
 40 76  1  0  0  0  0
M  END
>  <DRUGBANK_ID>
DB12336

>  <COMMON_NAME>
GDC-0917

>  <CAS_NUMBER>
1446182-94-0

>  <UNII>
KWH46ZDG32

$$$$
