TFI
 OpenBabel10282417133D

 55 56  0  0  0  0  0  0  0  0999 V2000
   -2.7786    0.5473    1.2325 C   0  0  0  0  0  0  0  0  0  0  0  0
   -1.7535    1.0204    2.2422 C   0  0  0  0  0  0  0  0  0  0  0  0
   -0.4011    1.4437    1.6709 C   0  0  2  0  0  0  0  0  0  0  0  0
    0.5138    0.2320    1.3560 C   0  0  0  0  0  0  0  0  0  0  0  0
    1.9944    0.6060    1.4443 C   0  0  0  0  0  0  0  0  0  0  0  0
    0.2596   -0.9639    2.2782 C   0  0  0  0  0  0  0  0  0  0  0  0
    0.6057    3.6231    2.3003 C   0  0  0  0  0  0  0  0  0  0  0  0
    1.3304    4.3796    3.4005 C   0  0  0  0  0  0  0  0  0  0  0  0
    3.6110    4.0347    2.6093 C   0  0  0  0  0  0  0  0  0  0  0  0
    4.8877    4.6047    2.0678 C   0  0  0  0  0  0  0  0  0  0  0  0
    4.9213    5.9332    1.9624 C   0  0  0  0  0  0  0  0  0  0  0  0
    2.7991    6.3009    2.7455 C   0  0  0  0  0  0  0  0  0  0  0  0
    1.7470    7.2740    3.1488 C   0  0  0  0  0  0  0  0  0  0  0  0
    1.2657    8.1941    2.2182 C   0  0  0  0  0  0  0  0  0  0  0  0
    0.3897    9.2044    2.6351 C   0  0  0  0  0  0  0  0  0  0  0  0
   -0.0746    9.2593    3.9539 C   0  0  0  0  0  0  0  0  0  0  0  0
    0.2929    8.2356    4.8287 C   0  0  0  0  0  0  0  0  0  0  0  0
    1.2786    7.3139    4.4664 C   0  0  0  0  0  0  0  0  0  0  0  0
    8.6795    3.5927    2.1166 C   0  0  0  0  0  0  0  0  0  0  0  0
    0.2114    2.3514    2.6429 N   0  0  0  0  0  0  0  0  0  0  0  0
    2.5909    4.9389    2.9065 N   0  0  0  0  0  0  0  0  0  0  0  0
    3.9051    6.7900    2.2845 N   0  0  0  0  0  0  0  0  0  0  0  0
    6.0125    3.7399    1.8118 N   0  0  0  0  0  0  0  0  0  0  0  0
   -1.0597   10.1820    4.3185 N   0  0  0  0  0  0  0  0  0  0  0  0
   -1.9464    0.9892    3.4659 O   0  0  0  0  0  0  0  0  0  0  0  0
    0.3819    4.1182    1.1991 O   0  0  0  0  0  0  0  0  0  0  0  0
    3.5251    2.8213    2.7985 O   0  0  0  0  0  0  0  0  0  0  0  0
    7.5020    3.4189   -0.2037 O   0  0  0  0  0  0  0  0  0  0  0  0
    7.5962    5.6314    0.9848 O   0  0  0  0  0  0  0  0  0  0  0  0
   -2.3452    0.6376   -0.0544 F   0  0  0  0  0  0  0  0  0  0  0  0
   -3.9342    1.2591    1.3015 F   0  0  0  0  0  0  0  0  0  0  0  0
   -3.1148   -0.7588    1.4220 F   0  0  0  0  0  0  0  0  0  0  0  0
    7.4209    4.1928    1.0097 S   0  0  0  0  0  0  0  0  0  0  0  0
   -0.5752    2.0103    0.7494 H   0  0  0  0  0  0  0  0  0  0  0  0
    0.3060   -0.0933    0.3280 H   0  0  0  0  0  0  0  0  0  0  0  0
    2.2465    0.8678    2.4766 H   0  0  0  0  0  0  0  0  0  0  0  0
    2.6468   -0.2271    1.1712 H   0  0  0  0  0  0  0  0  0  0  0  0
    2.2255    1.4548    0.7922 H   0  0  0  0  0  0  0  0  0  0  0  0
   -0.7576   -1.3478    2.1585 H   0  0  0  0  0  0  0  0  0  0  0  0
    0.9379   -1.7903    2.0470 H   0  0  0  0  0  0  0  0  0  0  0  0
    0.4017   -0.6843    3.3273 H   0  0  0  0  0  0  0  0  0  0  0  0
    0.6121    5.1466    3.6883 H   0  0  0  0  0  0  0  0  0  0  0  0
    1.5256    3.7684    4.2866 H   0  0  0  0  0  0  0  0  0  0  0  0
    5.7898    6.4713    1.6252 H   0  0  0  0  0  0  0  0  0  0  0  0
    1.5653    8.1318    1.1746 H   0  0  0  0  0  0  0  0  0  0  0  0
    0.0716    9.9543    1.9155 H   0  0  0  0  0  0  0  0  0  0  0  0
   -0.1697    8.1580    5.8088 H   0  0  0  0  0  0  0  0  0  0  0  0
    1.6447    6.6072    5.2057 H   0  0  0  0  0  0  0  0  0  0  0  0
    8.6782    2.5028    2.1322 H   0  0  0  0  0  0  0  0  0  0  0  0
    9.6420    3.9548    1.7413 H   0  0  0  0  0  0  0  0  0  0  0  0
    8.5115    4.0092    3.1117 H   0  0  0  0  0  0  0  0  0  0  0  0
    0.4546    1.9686    3.5515 H   0  0  0  0  0  0  0  0  0  0  0  0
    5.7562    2.7496    1.7123 H   0  0  0  0  0  0  0  0  0  0  0  0
   -1.0414   11.0497    3.7895 H   0  0  0  0  0  0  0  0  0  0  0  0
   -1.1552   10.3401    5.3172 H   0  0  0  0  0  0  0  0  0  0  0  0
  1  2  1  0  0  0  0
  1 30  1  0  0  0  0
  1 31  1  0  0  0  0
  1 32  1  0  0  0  0
  2 25  2  0  0  0  0
  3 20  1  0  0  0  0
  3 34  1  6  0  0  0
  3  4  1  0  0  0  0
  3  2  1  0  0  0  0
  4  5  1  0  0  0  0
  4  6  1  0  0  0  0
  4 35  1  0  0  0  0
  5 36  1  0  0  0  0
  5 37  1  0  0  0  0
  5 38  1  0  0  0  0
  6 39  1  0  0  0  0
  6 40  1  0  0  0  0
  6 41  1  0  0  0  0
  7  8  1  0  0  0  0
  7 20  1  0  0  0  0
  7 26  2  0  0  0  0
  8 21  1  0  0  0  0
  8 42  1  0  0  0  0
  8 43  1  0  0  0  0
  9 10  1  0  0  0  0
  9 21  1  0  0  0  0
  9 27  2  0  0  0  0
 10 11  2  0  0  0  0
 10 23  1  0  0  0  0
 11 22  1  0  0  0  0
 11 44  1  0  0  0  0
 12 13  1  0  0  0  0
 12 21  1  0  0  0  0
 12 22  2  0  0  0  0
 13 14  1  0  0  0  0
 13 18  2  0  0  0  0
 14 15  2  0  0  0  0
 14 45  1  0  0  0  0
 15 16  1  0  0  0  0
 15 46  1  0  0  0  0
 16 17  2  0  0  0  0
 16 24  1  0  0  0  0
 17 18  1  0  0  0  0
 17 47  1  0  0  0  0
 18 48  1  0  0  0  0
 19 33  1  0  0  0  0
 19 49  1  0  0  0  0
 19 50  1  0  0  0  0
 19 51  1  0  0  0  0
 20 52  1  0  0  0  0
 23 33  1  0  0  0  0
 23 53  1  0  0  0  0
 24 54  1  0  0  0  0
 24 55  1  0  0  0  0
 28 33  2  0  0  0  0
 29 33  2  0  0  0  0
M  END
>  <DRUGBANK_ID>
DB03202

>  <SECONDARY_ACCESSION_NUMBERS>
EXPT03043

>  <COMMON_NAME>
2-[5-Methanesulfonylamino-2-(4-Aminophenyl)-6-Oxo-1,6-Dihydro-1-Pyrimidinyl]-N-(3,3,3-Trifluoro-1-Isopropyl-2-Oxopropyl)Acetamide

$$$$
