
 OpenBabel10282417183D

 50 49  0  0  0  0  0  0  0  0999 V2000
    0.9314    0.0018    0.0086 Si  0  0  0  0  0  0  0  0  0  0  0  0
    0.3791    1.5055   -0.4622 O   0  0  0  0  0  0  0  0  0  0  0  0
    0.2748   -1.1504   -1.0187 O   0  0  0  0  0  0  0  0  0  0  0  0
    0.2228   -0.2160    1.5029 O   0  0  0  0  0  0  0  0  0  0  0  0
    2.8340   -0.0562   -0.0309 C   0  0  0  0  0  0  0  0  0  0  0  0
    3.4876    0.1742   -1.4103 C   0  0  0  0  0  0  0  0  0  0  0  0
    0.7567    2.7341    0.1566 C   0  0  0  0  0  0  0  0  0  0  0  0
    0.5936   -1.2245   -2.4011 C   0  0  0  0  0  0  0  0  0  0  0  0
   -1.2074   -0.2965    1.5822 C   0  0  0  0  0  0  0  0  0  0  0  0
    3.1016    1.5043   -2.0586 C   0  0  0  0  0  0  0  0  0  0  0  0
    3.6840    2.6681   -1.2705 C   0  0  0  0  0  0  0  0  0  0  0  0
    0.3906    2.9624    1.6070 C   0  0  0  0  0  0  0  0  0  0  0  0
    0.0882   -0.0440   -3.2151 C   0  0  0  0  0  0  0  0  0  0  0  0
   -2.0105    0.9333    1.1439 C   0  0  0  0  0  0  0  0  0  0  0  0
    5.1858    2.7354   -1.3600 C   0  0  0  0  0  0  0  0  0  0  0  0
    5.6283    2.9143   -2.8003 C   0  0  0  0  0  0  0  0  0  0  0  0
    5.0354    4.1812   -3.4218 C   0  0  0  0  0  0  0  0  0  0  0  0
    5.4135    5.4119   -2.6111 C   0  0  0  0  0  0  0  0  0  0  0  0
    3.2044    0.6939    0.6773 H   0  0  0  0  0  0  0  0  0  0  0  0
    3.1840   -1.0190    0.3563 H   0  0  0  0  0  0  0  0  0  0  0  0
    4.5747    0.1124   -1.3059 H   0  0  0  0  0  0  0  0  0  0  0  0
    3.2735   -0.6396   -2.0994 H   0  0  0  0  0  0  0  0  0  0  0  0
    1.7970    2.8765    0.1058 H   0  0  0  0  0  0  0  0  0  0  0  0
    0.3176    3.5345   -0.4611 H   0  0  0  0  0  0  0  0  0  0  0  0
    1.6549   -1.4091   -2.5603 H   0  0  0  0  0  0  0  0  0  0  0  0
    0.1209   -2.1320   -2.7937 H   0  0  0  0  0  0  0  0  0  0  0  0
   -1.5588   -1.1834    1.0457 H   0  0  0  0  0  0  0  0  0  0  0  0
   -1.4331   -0.4526    2.6422 H   0  0  0  0  0  0  0  0  0  0  0  0
    3.3903    1.5146   -3.1142 H   0  0  0  0  0  0  0  0  0  0  0  0
    2.0283    1.6440   -2.1137 H   0  0  0  0  0  0  0  0  0  0  0  0
    3.1890    3.5991   -1.5768 H   0  0  0  0  0  0  0  0  0  0  0  0
    3.5070    2.5631   -0.2041 H   0  0  0  0  0  0  0  0  0  0  0  0
    0.5566    2.0791    2.2268 H   0  0  0  0  0  0  0  0  0  0  0  0
    1.0125    3.7665    2.0199 H   0  0  0  0  0  0  0  0  0  0  0  0
   -0.6392    3.2889    1.6923 H   0  0  0  0  0  0  0  0  0  0  0  0
    0.3228    0.9220   -2.7756 H   0  0  0  0  0  0  0  0  0  0  0  0
    0.5131   -0.0500   -4.2215 H   0  0  0  0  0  0  0  0  0  0  0  0
   -1.0016   -0.0738   -3.2715 H   0  0  0  0  0  0  0  0  0  0  0  0
   -1.7497    1.3147    0.1550 H   0  0  0  0  0  0  0  0  0  0  0  0
   -3.0797    0.7221    1.1090 H   0  0  0  0  0  0  0  0  0  0  0  0
   -1.8763    1.7397    1.8647 H   0  0  0  0  0  0  0  0  0  0  0  0
    5.5320    3.5479   -0.7146 H   0  0  0  0  0  0  0  0  0  0  0  0
    5.6255    1.8333   -0.9259 H   0  0  0  0  0  0  0  0  0  0  0  0
    6.7191    2.9416   -2.8250 H   0  0  0  0  0  0  0  0  0  0  0  0
    5.3391    2.0439   -3.4008 H   0  0  0  0  0  0  0  0  0  0  0  0
    5.3980    4.2754   -4.4484 H   0  0  0  0  0  0  0  0  0  0  0  0
    3.9419    4.1170   -3.4976 H   0  0  0  0  0  0  0  0  0  0  0  0
    6.5006    5.4664   -2.5032 H   0  0  0  0  0  0  0  0  0  0  0  0
    5.0530    6.3205   -3.0950 H   0  0  0  0  0  0  0  0  0  0  0  0
    4.9758    5.3929   -1.6066 H   0  0  0  0  0  0  0  0  0  0  0  0
  1  2  1  0  0  0  0
  1  3  1  0  0  0  0
  1  4  1  0  0  0  0
  1  5  1  0  0  0  0
  2  7  1  0  0  0  0
  3  8  1  0  0  0  0
  4  9  1  0  0  0  0
  5  6  1  0  0  0  0
  5 19  1  0  0  0  0
  5 20  1  0  0  0  0
  6 10  1  0  0  0  0
  6 21  1  0  0  0  0
  6 22  1  0  0  0  0
  7 12  1  0  0  0  0
  7 23  1  0  0  0  0
  7 24  1  0  0  0  0
  8 13  1  0  0  0  0
  8 25  1  0  0  0  0
  8 26  1  0  0  0  0
  9 14  1  0  0  0  0
  9 27  1  0  0  0  0
  9 28  1  0  0  0  0
 10 11  1  0  0  0  0
 10 29  1  0  0  0  0
 10 30  1  0  0  0  0
 11 15  1  0  0  0  0
 11 31  1  0  0  0  0
 11 32  1  0  0  0  0
 12 33  1  0  0  0  0
 12 34  1  0  0  0  0
 12 35  1  0  0  0  0
 13 36  1  0  0  0  0
 13 37  1  0  0  0  0
 13 38  1  0  0  0  0
 14 39  1  0  0  0  0
 14 40  1  0  0  0  0
 14 41  1  0  0  0  0
 15 16  1  0  0  0  0
 15 42  1  0  0  0  0
 15 43  1  0  0  0  0
 16 17  1  0  0  0  0
 16 44  1  0  0  0  0
 16 45  1  0  0  0  0
 17 18  1  0  0  0  0
 17 46  1  0  0  0  0
 17 47  1  0  0  0  0
 18 48  1  0  0  0  0
 18 49  1  0  0  0  0
 18 50  1  0  0  0  0
M  END
>  <DRUGBANK_ID>
DB11267

>  <COMMON_NAME>
Triethoxycaprylylsilane

>  <CAS_NUMBER>
2943-75-1

>  <UNII>
LDC331P08E

>  <SYNONYMS>
Caprylyltriethoxysilane; n-Octyltriethoxysilane; Octyl(triethoxy)silane; Octyltriethoxysilane; Triethoxyoctylsilane

$$$$
