
 OpenBabel10282417163D

 28 27  0  0  0  0  0  0  0  0999 V2000
    0.9392   -0.1430   -0.0317 C   0  0  0  0  0  0  0  0  0  0  0  0
    2.5082    4.6950   -1.3657 C   0  0  0  0  0  0  0  0  0  0  0  0
    0.4280    0.8487   -1.0892 C   0  0  0  0  0  0  0  0  0  0  0  0
    2.9076    4.2536   -2.7916 C   0  0  0  0  0  0  0  0  0  0  0  0
    0.4412    1.4324   -3.4614 C   0  0  0  0  0  0  0  0  0  0  0  0
    0.9558    2.8711   -3.2554 C   0  0  0  0  0  0  0  0  0  0  0  0
    0.5016   -1.5051   -0.3365 N   0  0  0  0  0  0  0  0  0  0  0  0
    2.9612    3.7448   -0.3463 N   0  0  0  0  0  0  0  0  0  0  0  0
    0.8849    0.4744   -2.4351 N   0  0  0  0  0  0  0  0  0  0  0  0
    2.4202    2.9203   -3.1709 N   0  0  0  0  0  0  0  0  0  0  0  0
    0.5768    0.1541    0.9579 H   0  0  0  0  0  0  0  0  0  0  0  0
    2.0350   -0.1186    0.0013 H   0  0  0  0  0  0  0  0  0  0  0  0
    2.9350    5.6793   -1.1575 H   0  0  0  0  0  0  0  0  0  0  0  0
    1.4210    4.8054   -1.2918 H   0  0  0  0  0  0  0  0  0  0  0  0
   -0.6680    0.8716   -1.0696 H   0  0  0  0  0  0  0  0  0  0  0  0
    0.7803    1.8397   -0.7985 H   0  0  0  0  0  0  0  0  0  0  0  0
    4.0026    4.2340   -2.8566 H   0  0  0  0  0  0  0  0  0  0  0  0
    2.5691    4.9945   -3.5247 H   0  0  0  0  0  0  0  0  0  0  0  0
    0.7850    1.0697   -4.4376 H   0  0  0  0  0  0  0  0  0  0  0  0
   -0.6543    1.4411   -3.5035 H   0  0  0  0  0  0  0  0  0  0  0  0
    0.6073    3.5048   -4.0772 H   0  0  0  0  0  0  0  0  0  0  0  0
    0.4899    3.2605   -2.3458 H   0  0  0  0  0  0  0  0  0  0  0  0
   -0.5183   -1.5063   -0.3847 H   0  0  0  0  0  0  0  0  0  0  0  0
    0.7801   -1.6857   -1.3067 H   0  0  0  0  0  0  0  0  0  0  0  0
    2.5571    4.0042    0.5560 H   0  0  0  0  0  0  0  0  0  0  0  0
    2.6129    2.8195   -0.5589 H   0  0  0  0  0  0  0  0  0  0  0  0
    1.9024    0.4135   -2.4613 H   0  0  0  0  0  0  0  0  0  0  0  0
    2.7667    2.2480   -2.4929 H   0  0  0  0  0  0  0  0  0  0  0  0
  1 11  1  0  0  0  0
  1 12  1  0  0  0  0
  2 13  1  0  0  0  0
  2 14  1  0  0  0  0
  3  1  1  0  0  0  0
  3 15  1  0  0  0  0
  3 16  1  0  0  0  0
  4  2  1  0  0  0  0
  4 17  1  0  0  0  0
  4 18  1  0  0  0  0
  5 19  1  0  0  0  0
  5 20  1  0  0  0  0
  6  5  1  0  0  0  0
  6 21  1  0  0  0  0
  6 22  1  0  0  0  0
  7  1  1  0  0  0  0
  7 23  1  0  0  0  0
  7 24  1  0  0  0  0
  8  2  1  0  0  0  0
  8 25  1  0  0  0  0
  8 26  1  0  0  0  0
  9  3  1  0  0  0  0
  9  5  1  0  0  0  0
  9 27  1  0  0  0  0
 10  4  1  0  0  0  0
 10  6  1  0  0  0  0
 10 28  1  0  0  0  0
M  END
>  <DRUGBANK_ID>
DB06824

>  <COMMON_NAME>
Triethylenetetramine

>  <CAS_NUMBER>
112-24-3

>  <UNII>
SJ76Y07H5F

>  <SYNONYMS>
TETA; Trien; Trientine

$$$$
