
 OpenBabel10282417143D

 18 17  0  0  1  0  0  0  0  0999 V2000
    2.9491   -5.5954    1.5145 S   0  0  0  0  0  0  0  0  0  0  0  0
    2.4138   -3.9979    2.2128 C   0  0  0  0  0  0  0  0  0  0  0  0
    2.9550   -2.7597    1.4717 C   0  0  1  0  0  0  0  0  0  0  0  0
    2.3382   -2.5134    0.0694 C   0  0  2  0  0  0  0  0  0  0  0  0
    0.7993   -2.5364    0.0150 C   0  0  0  0  0  0  0  0  0  0  0  0
   -0.0408   -1.3385    1.1028 S   0  0  0  0  0  0  0  0  0  0  0  0
    2.7766   -1.6208    2.3290 O   0  0  0  0  0  0  0  0  0  0  0  0
    2.8285   -3.4530   -0.8939 O   0  0  0  0  0  0  0  0  0  0  0  0
    2.0164   -5.7273    0.5588 H   0  0  0  0  0  0  0  0  0  0  0  0
    1.3212   -3.9840    2.2693 H   0  0  0  0  0  0  0  0  0  0  0  0
    2.7557   -3.9644    3.2529 H   0  0  0  0  0  0  0  0  0  0  0  0
    4.0412   -2.8710    1.3626 H   0  0  0  0  0  0  0  0  0  0  0  0
    2.6758   -1.5310   -0.2863 H   0  0  0  0  0  0  0  0  0  0  0  0
    0.4794   -2.3300   -1.0120 H   0  0  0  0  0  0  0  0  0  0  0  0
    0.4256   -3.5408    0.2400 H   0  0  0  0  0  0  0  0  0  0  0  0
    0.1989   -1.9527    2.2753 H   0  0  0  0  0  0  0  0  0  0  0  0
    2.0212   -1.0902    2.0119 H   0  0  0  0  0  0  0  0  0  0  0  0
    2.8687   -4.3380   -0.4862 H   0  0  0  0  0  0  0  0  0  0  0  0
  1  9  1  0  0  0  0
  2  1  1  0  0  0  0
  2 10  1  0  0  0  0
  2 11  1  0  0  0  0
  3  2  1  0  0  0  0
  3  7  1  0  0  0  0
  3 12  1  6  0  0  0
  4  8  1  0  0  0  0
  4 13  1  6  0  0  0
  4  5  1  0  0  0  0
  4  3  1  0  0  0  0
  5 14  1  0  0  0  0
  5 15  1  0  0  0  0
  6  5  1  0  0  0  0
  6 16  1  0  0  0  0
  7 17  1  0  0  0  0
  8 18  1  0  0  0  0
M  END
>  <DRUGBANK_ID>
DB04447

>  <SECONDARY_ACCESSION_NUMBERS>
EXPT01291

>  <COMMON_NAME>
1,4-Dithiothreitol

>  <CAS_NUMBER>
3483-12-3

>  <UNII>
T8ID5YZU6Y

>  <SYNONYMS>
2,3-dihydroxy-1,4-dithiobutane

$$$$
