1268
 OpenBabel10282417113D

 56 58  0  0  0  0  0  0  0  0999 V2000
    0.9887   -0.2336    0.0746 F   0  0  0  0  0  0  0  0  0  0  0  0
    5.3510    8.9423    0.0813 O   0  0  0  0  0  0  0  0  0  0  0  0
    7.6660    2.2363    0.0461 O   0  0  0  0  0  0  0  0  0  0  0  0
   10.0891   10.0140   -1.5260 N   0  0  0  0  0  0  0  0  0  0  0  0
    6.7561    4.6017    0.0355 N   0  0  0  0  0  0  0  0  0  0  0  0
    7.5473    8.9854    0.1918 N   0  0  0  0  0  0  0  0  0  0  0  0
    6.4312    0.2897    0.0501 N   0  0  0  0  0  0  0  0  0  0  0  0
    9.6897    8.6427   -1.2824 C   0  0  0  0  0  0  0  0  0  0  0  0
    6.3500    6.7816    0.0424 C   0  0  0  0  0  0  0  0  0  0  0  0
    5.0889    6.0304    0.0558 C   0  0  0  0  0  0  0  0  0  0  0  0
    5.4181    4.6889    0.0480 C   0  0  0  0  0  0  0  0  0  0  0  0
    8.9060    8.5431    0.0313 C   0  0  0  0  0  0  0  0  0  0  0  0
    7.3606    5.7993    0.0266 C   0  0  0  0  0  0  0  0  0  0  0  0
   10.9174   10.1557   -2.7186 C   0  0  0  0  0  0  0  0  0  0  0  0
    8.9409   10.9212   -1.4837 C   0  0  0  0  0  0  0  0  0  0  0  0
    6.3841    8.2659    0.0867 C   0  0  0  0  0  0  0  0  0  0  0  0
    5.1996    2.2492    0.0584 C   0  0  0  0  0  0  0  0  0  0  0  0
    4.6911    3.4916    0.0597 C   0  0  0  0  0  0  0  0  0  0  0  0
    4.2970    1.1121    0.0624 C   0  0  0  0  0  0  0  0  0  0  0  0
    3.7010    6.5986    0.0985 C   0  0  0  0  0  0  0  0  0  0  0  0
    5.0806   -0.0444    0.0574 C   0  0  0  0  0  0  0  0  0  0  0  0
    8.8570    5.6490    0.0046 C   0  0  0  0  0  0  0  0  0  0  0  0
    6.6076    1.6658    0.0506 C   0  0  0  0  0  0  0  0  0  0  0  0
   10.2501    9.7936   -4.0383 C   0  0  0  0  0  0  0  0  0  0  0  0
    7.7588   10.5588   -2.3954 C   0  0  0  0  0  0  0  0  0  0  0  0
    2.9192    1.0746    0.0674 C   0  0  0  0  0  0  0  0  0  0  0  0
    4.4959   -1.2905    0.0600 C   0  0  0  0  0  0  0  0  0  0  0  0
    2.3247   -0.1669    0.0704 C   0  0  0  0  0  0  0  0  0  0  0  0
    3.0920   -1.3396    0.0685 C   0  0  0  0  0  0  0  0  0  0  0  0
    7.3022    3.7542    0.0418 H   0  0  0  0  0  0  0  0  0  0  0  0
    7.3500    9.9542    0.3823 H   0  0  0  0  0  0  0  0  0  0  0  0
    7.2292   -0.3285    0.0459 H   0  0  0  0  0  0  0  0  0  0  0  0
   10.5743    7.9830   -1.2209 H   0  0  0  0  0  0  0  0  0  0  0  0
    9.1030    8.2018   -2.1017 H   0  0  0  0  0  0  0  0  0  0  0  0
    9.5043    8.6294    0.9387 H   0  0  0  0  0  0  0  0  0  0  0  0
    8.6575    7.5580   -0.0644 H   0  0  0  0  0  0  0  0  0  0  0  0
   11.2573   11.1957   -2.7522 H   0  0  0  0  0  0  0  0  0  0  0  0
   11.8263    9.5504   -2.6046 H   0  0  0  0  0  0  0  0  0  0  0  0
    8.6149   10.9789   -0.4434 H   0  0  0  0  0  0  0  0  0  0  0  0
    9.2686   11.9463   -1.6516 H   0  0  0  0  0  0  0  0  0  0  0  0
    3.6159    3.6321    0.0680 H   0  0  0  0  0  0  0  0  0  0  0  0
    3.5600    7.2151    0.9925 H   0  0  0  0  0  0  0  0  0  0  0  0
    3.4987    7.2068   -0.7890 H   0  0  0  0  0  0  0  0  0  0  0  0
    2.9374    5.8136    0.1311 H   0  0  0  0  0  0  0  0  0  0  0  0
    9.2285    6.0388   -0.9525 H   0  0  0  0  0  0  0  0  0  0  0  0
    9.2886    6.1485    0.8833 H   0  0  0  0  0  0  0  0  0  0  0  0
    9.2500    4.6347    0.0429 H   0  0  0  0  0  0  0  0  0  0  0  0
    9.4820   10.5144   -4.3004 H   0  0  0  0  0  0  0  0  0  0  0  0
   10.9605    9.8416   -4.8621 H   0  0  0  0  0  0  0  0  0  0  0  0
    9.8034    8.7944   -4.0226 H   0  0  0  0  0  0  0  0  0  0  0  0
    7.5599    9.4831   -2.4828 H   0  0  0  0  0  0  0  0  0  0  0  0
    6.8345   11.0251   -2.0563 H   0  0  0  0  0  0  0  0  0  0  0  0
    7.9198   10.9328   -3.4011 H   0  0  0  0  0  0  0  0  0  0  0  0
    2.3107    1.9687    0.0689 H   0  0  0  0  0  0  0  0  0  0  0  0
    5.0790   -2.2032    0.0557 H   0  0  0  0  0  0  0  0  0  0  0  0
    2.5682   -2.2891    0.0740 H   0  0  0  0  0  0  0  0  0  0  0  0
  1 28  1  0  0  0  0
  2 16  2  0  0  0  0
  3 23  2  0  0  0  0
  4  8  1  0  0  0  0
  4 14  1  0  0  0  0
  4 15  1  0  0  0  0
  5 11  1  0  0  0  0
  5 13  1  0  0  0  0
  5 30  1  0  0  0  0
  6 12  1  0  0  0  0
  6 16  1  0  0  0  0
  6 31  1  0  0  0  0
  7 21  1  0  0  0  0
  7 23  1  0  0  0  0
  7 32  1  0  0  0  0
  8 12  1  0  0  0  0
  8 33  1  0  0  0  0
  8 34  1  0  0  0  0
  9 10  1  0  0  0  0
  9 13  2  0  0  0  0
  9 16  1  0  0  0  0
 10 11  2  0  0  0  0
 10 20  1  0  0  0  0
 11 18  1  0  0  0  0
 12 35  1  0  0  0  0
 12 36  1  0  0  0  0
 13 22  1  0  0  0  0
 14 24  1  0  0  0  0
 14 37  1  0  0  0  0
 14 38  1  0  0  0  0
 15 25  1  0  0  0  0
 15 39  1  0  0  0  0
 15 40  1  0  0  0  0
 17 18  2  0  0  0  0
 17 19  1  0  0  0  0
 17 23  1  0  0  0  0
 18 41  1  0  0  0  0
 19 21  2  0  0  0  0
 19 26  1  0  0  0  0
 20 42  1  0  0  0  0
 20 43  1  0  0  0  0
 20 44  1  0  0  0  0
 21 27  1  0  0  0  0
 22 45  1  0  0  0  0
 22 46  1  0  0  0  0
 22 47  1  0  0  0  0
 24 48  1  0  0  0  0
 24 49  1  0  0  0  0
 24 50  1  0  0  0  0
 25 51  1  0  0  0  0
 25 52  1  0  0  0  0
 25 53  1  0  0  0  0
 26 28  2  0  0  0  0
 26 54  1  0  0  0  0
 27 29  2  0  0  0  0
 27 55  1  0  0  0  0
 28 29  1  0  0  0  0
 29 56  1  0  0  0  0
M  END
>  <DRUGBANK_ID>
DB01268

>  <SECONDARY_ACCESSION_NUMBERS>
DB07417

>  <COMMON_NAME>
Sunitinib

>  <CAS_NUMBER>
557795-19-4

>  <UNII>
V99T50803M

>  <SYNONYMS>
Sunitinib; Sunitinibum

$$$$
