
 OpenBabel10282417193D

 66 69  0  0  0  0  0  0  0  0999 V2000
    0.9726    0.0797   -0.0539 P   0  0  0  0  0  0  0  0  0  0  0  0
    0.9414   -1.0214    1.1459 O   0  0  0  0  0  0  0  0  0  0  0  0
    0.8888   -2.3843    0.7212 C   0  0  0  0  0  0  0  0  0  0  0  0
   -0.3464   -2.7291    0.0482 N   0  0  0  0  0  0  0  0  0  0  0  0
   -1.0937   -1.9389   -0.8021 C   0  0  0  0  0  0  0  0  0  0  0  0
   -2.5507   -1.9217   -0.2539 C   0  0  0  0  0  0  0  0  0  0  0  0
   -3.0396   -3.1991   -0.7374 O   0  0  0  0  0  0  0  0  0  0  0  0
   -2.1221   -4.2258   -0.5304 C   0  0  0  0  0  0  0  0  0  0  0  0
   -0.7965   -4.0462   -0.0633 C   0  0  0  0  0  0  0  0  0  0  0  0
   -2.5443   -5.5045   -0.7892 C   0  0  0  0  0  0  0  0  0  0  0  0
   -1.6569   -6.5514   -0.5326 C   0  0  0  0  0  0  0  0  0  0  0  0
   -0.3658   -6.2951   -0.0381 C   0  0  0  0  0  0  0  0  0  0  0  0
    0.0603   -5.0413    0.1952 N   0  0  0  0  0  0  0  0  0  0  0  0
   -0.6722   -1.4962   -1.8606 O   0  0  0  0  0  0  0  0  0  0  0  0
   -2.6855   -1.8991    1.2998 C   0  0  0  0  0  0  0  0  0  0  0  0
   -3.3896   -0.7294   -0.7513 C   0  0  0  0  0  0  0  0  0  0  0  0
    0.4828   -7.3657    0.2830 N   0  0  0  0  0  0  0  0  0  0  0  0
    1.8361   -7.2231    0.6777 C   0  0  0  0  0  0  0  0  0  0  0  0
    2.1330   -6.5861    1.8426 N   0  0  0  0  0  0  0  0  0  0  0  0
    3.4284   -6.4297    2.1702 C   0  0  0  0  0  0  0  0  0  0  0  0
    4.4384   -6.8644    1.3947 N   0  0  0  0  0  0  0  0  0  0  0  0
    4.1271   -7.4935    0.2512 C   0  0  0  0  0  0  0  0  0  0  0  0
    2.8377   -7.6985   -0.1568 C   0  0  0  0  0  0  0  0  0  0  0  0
    2.5776   -8.3211   -1.3150 F   0  0  0  0  0  0  0  0  0  0  0  0
    3.7448   -5.8221    3.3898 N   0  0  0  0  0  0  0  0  0  0  0  0
    5.0347   -5.5453    3.8732 C   0  0  0  0  0  0  0  0  0  0  0  0
    5.9247   -4.8105    3.0809 C   0  0  0  0  0  0  0  0  0  0  0  0
    7.2531   -4.6001    3.4603 C   0  0  0  0  0  0  0  0  0  0  0  0
    7.7316   -5.1454    4.6662 C   0  0  0  0  0  0  0  0  0  0  0  0
    6.8472   -5.8846    5.4854 C   0  0  0  0  0  0  0  0  0  0  0  0
    5.5044   -6.0661    5.0841 C   0  0  0  0  0  0  0  0  0  0  0  0
    7.1507   -6.4992    6.6850 O   0  0  0  0  0  0  0  0  0  0  0  0
    8.4831   -6.3780    7.1837 C   0  0  0  0  0  0  0  0  0  0  0  0
    9.0188   -5.0209    5.1177 O   0  0  0  0  0  0  0  0  0  0  0  0
    9.9948   -4.2995    4.3912 C   0  0  0  0  0  0  0  0  0  0  0  0
    8.1357   -3.8872    2.7008 O   0  0  0  0  0  0  0  0  0  0  0  0
    7.7162   -3.3151    1.4793 C   0  0  0  0  0  0  0  0  0  0  0  0
    0.9211    1.4706    0.5680 O   0  0  0  0  0  0  0  0  0  0  0  0
   -0.7574    0.0797   -0.0539 O   0  0  0  0  0  0  0  0  0  0  0  0
    2.7026    0.0797   -0.0539 O   0  0  0  0  0  0  0  0  0  0  0  0
    1.7760   -2.6118    0.1305 H   0  0  0  0  0  0  0  0  0  0  0  0
    0.9222   -2.9534    1.6596 H   0  0  0  0  0  0  0  0  0  0  0  0
   -3.5465   -5.6738   -1.1675 H   0  0  0  0  0  0  0  0  0  0  0  0
   -1.9928   -7.5646   -0.7197 H   0  0  0  0  0  0  0  0  0  0  0  0
   -2.3274   -0.9617    1.7409 H   0  0  0  0  0  0  0  0  0  0  0  0
   -3.7340   -2.0368    1.5867 H   0  0  0  0  0  0  0  0  0  0  0  0
   -2.1440   -2.7087    1.7992 H   0  0  0  0  0  0  0  0  0  0  0  0
   -3.3016   -0.5577   -1.8255 H   0  0  0  0  0  0  0  0  0  0  0  0
   -4.4495   -0.8672   -0.5113 H   0  0  0  0  0  0  0  0  0  0  0  0
   -3.0988    0.2099   -0.2541 H   0  0  0  0  0  0  0  0  0  0  0  0
    0.2892   -8.2256   -0.2098 H   0  0  0  0  0  0  0  0  0  0  0  0
    4.9730   -7.8311   -0.3370 H   0  0  0  0  0  0  0  0  0  0  0  0
    2.9469   -5.6604    3.9836 H   0  0  0  0  0  0  0  0  0  0  0  0
    5.5479   -4.4102    2.1457 H   0  0  0  0  0  0  0  0  0  0  0  0
    4.8464   -6.6686    5.7074 H   0  0  0  0  0  0  0  0  0  0  0  0
    9.2051   -6.8535    6.5084 H   0  0  0  0  0  0  0  0  0  0  0  0
    8.7332   -5.3302    7.3888 H   0  0  0  0  0  0  0  0  0  0  0  0
    8.5585   -6.9065    8.1377 H   0  0  0  0  0  0  0  0  0  0  0  0
   10.1892   -4.7692    3.4220 H   0  0  0  0  0  0  0  0  0  0  0  0
    9.7183   -3.2441    4.3082 H   0  0  0  0  0  0  0  0  0  0  0  0
   10.9282   -4.3409    4.9586 H   0  0  0  0  0  0  0  0  0  0  0  0
    7.4058   -4.0879    0.7711 H   0  0  0  0  0  0  0  0  0  0  0  0
    6.9320   -2.5722    1.6470 H   0  0  0  0  0  0  0  0  0  0  0  0
    8.5836   -2.7995    1.0564 H   0  0  0  0  0  0  0  0  0  0  0  0
   -0.9326    0.9631    0.3416 H   0  0  0  0  0  0  0  0  0  0  0  0
    3.0135   -0.4734    0.6840 H   0  0  0  0  0  0  0  0  0  0  0  0
  1  2  1  0  0  0  0
  1 38  2  0  0  0  0
  1 39  1  0  0  0  0
  1 40  1  0  0  0  0
  2  3  1  0  0  0  0
  3  4  1  0  0  0  0
  3 41  1  0  0  0  0
  3 42  1  0  0  0  0
  4  5  1  0  0  0  0
  5 14  2  0  0  0  0
  5  6  1  0  0  0  0
  6 15  1  0  0  0  0
  6 16  1  0  0  0  0
  6  7  1  0  0  0  0
  7  8  1  0  0  0  0
  8  9  2  0  0  0  0
  8 10  1  0  0  0  0
  9  4  1  0  0  0  0
 10 11  2  0  0  0  0
 10 43  1  0  0  0  0
 11 12  1  0  0  0  0
 11 44  1  0  0  0  0
 12 13  2  0  0  0  0
 12 17  1  0  0  0  0
 13  9  1  0  0  0  0
 15 45  1  0  0  0  0
 15 46  1  0  0  0  0
 15 47  1  0  0  0  0
 16 48  1  0  0  0  0
 16 49  1  0  0  0  0
 16 50  1  0  0  0  0
 17 18  1  0  0  0  0
 17 51  1  0  0  0  0
 18 19  2  0  0  0  0
 19 20  1  0  0  0  0
 20 21  2  0  0  0  0
 20 25  1  0  0  0  0
 21 22  1  0  0  0  0
 22 23  2  0  0  0  0
 22 52  1  0  0  0  0
 23 18  1  0  0  0  0
 23 24  1  0  0  0  0
 25 26  1  0  0  0  0
 25 53  1  0  0  0  0
 26 27  1  0  0  0  0
 27 28  2  0  0  0  0
 27 54  1  0  0  0  0
 28 29  1  0  0  0  0
 28 36  1  0  0  0  0
 29 30  2  0  0  0  0
 29 34  1  0  0  0  0
 30 31  1  0  0  0  0
 30 32  1  0  0  0  0
 31 26  2  0  0  0  0
 31 55  1  0  0  0  0
 32 33  1  0  0  0  0
 33 56  1  0  0  0  0
 33 57  1  0  0  0  0
 33 58  1  0  0  0  0
 34 35  1  0  0  0  0
 35 59  1  0  0  0  0
 35 60  1  0  0  0  0
 35 61  1  0  0  0  0
 36 37  1  0  0  0  0
 37 62  1  0  0  0  0
 37 63  1  0  0  0  0
 37 64  1  0  0  0  0
 39 65  1  0  0  0  0
 40 66  1  0  0  0  0
M  END
>  <DRUGBANK_ID>
DB12010

>  <COMMON_NAME>
Fostamatinib

>  <CAS_NUMBER>
901119-35-5

>  <UNII>
SQ8A3S5101

>  <SYNONYMS>
Fostamatinib

$$$$
