
 OpenBabel10282417163D

123125  0  0  0  0  0  0  0  0999 V2000
   -0.0989   -2.4016   -5.9187 C   0  0  0  0  0  0  0  0  0  0  0  0
    0.6704   -1.6053   -4.9645 C   0  0  0  0  0  0  0  0  0  0  0  0
    1.1196   -0.3612   -5.0794 C   0  0  0  0  0  0  0  0  0  0  0  0
    2.0129    0.3555   -4.0567 C   0  0  0  0  0  0  0  0  0  0  0  0
   -0.4795   -1.8145   -6.9229 O   0  0  0  0  0  0  0  0  0  0  0  0
   -0.4638   -3.7190   -5.7204 O   0  0  0  0  0  0  0  0  0  0  0  0
    2.3218    1.5315   -4.2626 O   0  0  0  0  0  0  0  0  0  0  0  0
    2.4538   -0.3566   -2.8918 N   0  0  0  0  0  0  0  0  0  0  0  0
    2.1858   -1.6437   -2.6263 C   0  0  0  0  0  0  0  0  0  0  0  0
    2.4402   -2.5563   -3.5009 C   0  0  0  0  0  0  0  0  0  0  0  0
    1.7698   -3.5854   -3.0700 C   0  0  0  0  0  0  0  0  0  0  0  0
    1.4033   -3.3648   -1.5286 C   0  0  0  0  0  0  0  0  0  0  0  0
    1.7475   -2.1352   -1.4252 C   0  0  0  0  0  0  0  0  0  0  0  0
    1.3728   -1.5392   -0.4817 O   0  0  0  0  0  0  0  0  0  0  0  0
    2.7064   -2.4454   -4.8302 O   0  0  0  0  0  0  0  0  0  0  0  0
   -0.1526   -4.4154   -2.2445 C   0  0  1  0  0  0  0  0  0  0  0  0
   -0.5357   -3.6025   -3.3750 C   0  0  0  0  0  0  0  0  0  0  0  0
   -0.0914   -4.4342   -4.6395 C   0  0  2  0  0  0  0  0  0  0  0  0
    1.4957   -4.6760   -4.8178 C   0  0  1  0  0  0  0  0  0  0  0  0
    2.0113   -5.5500   -3.5950 C   0  0  2  0  0  0  0  0  0  0  0  0
    1.5718   -5.1054   -2.2693 O   0  0  0  0  0  0  0  0  0  0  0  0
    3.7147   -5.3375   -3.5134 C   0  0  0  0  0  0  0  0  0  0  0  0
    4.1945   -5.2432   -2.0765 C   0  0  0  0  0  0  0  0  0  0  0  0
    3.8386   -6.5728   -4.1235 C   0  0  0  0  0  0  0  0  0  0  0  0
    1.9608   -5.4166   -5.8280 C   0  0  0  0  0  0  0  0  0  0  0  0
   -0.4510   -3.2916   -0.6960 C   0  0  2  0  0  0  0  0  0  0  0  0
    0.2615   -4.0270    0.5423 C   0  0  1  0  0  0  0  0  0  0  0  0
    0.6200   -4.9369    1.8112 C   0  0  2  0  0  0  0  0  0  0  0  0
    2.1057   -5.0251    0.1486 C   0  0  0  0  0  0  0  0  0  0  0  0
   -1.7887   -3.2941   -0.6624 C   0  0  0  0  0  0  0  0  0  0  0  0
   -2.7712   -5.7961    5.6001 O   0  0  0  0  0  0  0  0  0  0  0  0
   -0.3474   -5.2539    3.9392 C   0  0  3  0  0  0  0  0  0  0  0  0
    2.0679   -3.5775    2.7922 C   0  0  2  0  0  0  0  0  0  0  0  0
    0.5528   -3.6555    2.8849 C   0  0  0  0  0  0  0  0  0  0  0  0
   -0.0360   -4.1291    4.0162 C   0  0  0  0  0  0  0  0  0  0  0  0
   -1.7186   -3.6675    4.1762 C   0  0  0  0  0  0  0  0  0  0  0  0
   -2.1513   -4.2955    5.2643 C   0  0  0  0  0  0  0  0  0  0  0  0
   -3.7179   -4.4562    5.1355 C   0  0  0  0  0  0  0  0  0  0  0  0
   -4.2713   -6.3837    5.1531 C   0  0  1  0  0  0  0  0  0  0  0  0
   -3.3778   -6.9446    6.8926 C   0  0  1  0  0  0  0  0  0  0  0  0
   -3.7579   -5.7296    8.1282 C   0  0  1  0  0  0  0  0  0  0  0  0
   -5.1019   -5.3305    8.6503 C   0  0  0  0  0  0  0  0  0  0  0  0
   -5.8052   -5.9533    9.5529 C   0  0  0  0  0  0  0  0  0  0  0  0
   -7.1156   -5.7735    9.4986 C   0  0  0  0  0  0  0  0  0  0  0  0
   -6.7510   -6.8844    8.9056 C   0  0  0  0  0  0  0  0  0  0  0  0
   -4.9834   -6.2463    7.0052 C   0  0  0  0  0  0  0  0  0  0  0  0
   -6.8804   -6.4085    7.5782 O   0  0  0  0  0  0  0  0  0  0  0  0
   -5.1678   -6.8639   10.4968 C   0  0  0  0  0  0  0  0  0  0  0  0
   -3.2216   -6.3469    9.3213 C   0  0  0  0  0  0  0  0  0  0  0  0
   -5.6442   -6.3136    5.4596 C   0  0  0  0  0  0  0  0  0  0  0  0
   -1.2562   -5.0850    6.4264 C   0  0  0  0  0  0  0  0  0  0  0  0
   -7.3077   -7.2803   11.0708 O   0  0  0  0  0  0  0  0  0  0  0  0
   -7.9784   -7.8655   12.6854 C   0  0  0  0  0  0  0  0  0  0  0  0
    2.4632   -2.1770    2.6411 O   0  0  0  0  0  0  0  0  0  0  0  0
    2.2298   -1.3648    1.5378 C   0  0  0  0  0  0  0  0  0  0  0  0
   -3.8672   -8.1547    7.0929 O   0  0  0  0  0  0  0  0  0  0  0  0
   -0.2556   -3.1321    1.3425 O   0  0  0  0  0  0  0  0  0  0  0  0
   -0.4419   -5.6227   -1.8662 O   0  0  0  0  0  0  0  0  0  0  0  0
    0.9457   -2.0806   -4.1121 H   0  0  0  0  0  0  0  0  0  0  0  0
    0.7996    0.1418   -5.9686 H   0  0  0  0  0  0  0  0  0  0  0  0
    3.0345    0.1332   -2.1929 H   0  0  0  0  0  0  0  0  0  0  0  0
    0.9252   -4.3476   -3.4214 H   0  0  0  0  0  0  0  0  0  0  0  0
    2.7189   -4.2294   -2.9754 H   0  0  0  0  0  0  0  0  0  0  0  0
    1.7758   -3.8909   -0.8559 H   0  0  0  0  0  0  0  0  0  0  0  0
    0.7680   -4.0989   -1.0980 H   0  0  0  0  0  0  0  0  0  0  0  0
    2.7812   -1.5802   -5.1354 H   0  0  0  0  0  0  0  0  0  0  0  0
   -1.5322   -3.5853   -3.2465 H   0  0  0  0  0  0  0  0  0  0  0  0
   -0.1407   -2.6176   -3.3525 H   0  0  0  0  0  0  0  0  0  0  0  0
   -0.4278   -5.4432   -4.4668 H   0  0  0  0  0  0  0  0  0  0  0  0
    1.8462   -3.7335   -4.8538 H   0  0  0  0  0  0  0  0  0  0  0  0
    1.4684   -6.2559   -3.2058 H   0  0  0  0  0  0  0  0  0  0  0  0
    4.0364   -4.4023   -4.0230 H   0  0  0  0  0  0  0  0  0  0  0  0
    3.7042   -6.0368   -1.5493 H   0  0  0  0  0  0  0  0  0  0  0  0
    5.2108   -5.4004   -2.0788 H   0  0  0  0  0  0  0  0  0  0  0  0
    4.1310   -4.2629   -1.5703 H   0  0  0  0  0  0  0  0  0  0  0  0
    3.4217   -6.5711   -5.0837 H   0  0  0  0  0  0  0  0  0  0  0  0
    4.8638   -6.7161   -4.1725 H   0  0  0  0  0  0  0  0  0  0  0  0
    3.3164   -7.3092   -3.5476 H   0  0  0  0  0  0  0  0  0  0  0  0
    1.5915   -4.9608   -6.6753 H   0  0  0  0  0  0  0  0  0  0  0  0
    3.0242   -5.3732   -5.8251 H   0  0  0  0  0  0  0  0  0  0  0  0
    1.5588   -6.3860   -5.6234 H   0  0  0  0  0  0  0  0  0  0  0  0
    0.0204   -2.3720   -0.9420 H   0  0  0  0  0  0  0  0  0  0  0  0
    0.0692   -5.0595    0.4600 H   0  0  0  0  0  0  0  0  0  0  0  0
    1.5550   -3.7259    1.0104 H   0  0  0  0  0  0  0  0  0  0  0  0
    2.8228   -4.2956   -1.2342 H   0  0  0  0  0  0  0  0  0  0  0  0
    3.0508   -5.5916   -0.3281 H   0  0  0  0  0  0  0  0  0  0  0  0
    1.4722   -5.4739   -0.8305 H   0  0  0  0  0  0  0  0  0  0  0  0
   -2.1680   -3.5786   -1.6044 H   0  0  0  0  0  0  0  0  0  0  0  0
   -2.0129   -4.0016    0.0909 H   0  0  0  0  0  0  0  0  0  0  0  0
   -2.0135   -2.3005   -0.4053 H   0  0  0  0  0  0  0  0  0  0  0  0
    0.4144   -5.6586    3.2280 H   0  0  0  0  0  0  0  0  0  0  0  0
    2.5608   -3.9557    3.7623 H   0  0  0  0  0  0  0  0  0  0  0  0
    1.6194   -3.6006    2.8197 H   0  0  0  0  0  0  0  0  0  0  0  0
    0.6322   -4.4052    4.8910 H   0  0  0  0  0  0  0  0  0  0  0  0
   -0.8079   -3.9806    3.3661 H   0  0  0  0  0  0  0  0  0  0  0  0
   -4.0261   -4.1039    6.1246 H   0  0  0  0  0  0  0  0  0  0  0  0
   -4.1503   -4.3489    4.2988 H   0  0  0  0  0  0  0  0  0  0  0  0
   -3.6508   -6.9515    4.5868 H   0  0  0  0  0  0  0  0  0  0  0  0
   -2.3433   -6.7775    6.8013 H   0  0  0  0  0  0  0  0  0  0  0  0
   -3.5841   -4.7550    7.8532 H   0  0  0  0  0  0  0  0  0  0  0  0
   -4.3774   -6.0484    8.2026 H   0  0  0  0  0  0  0  0  0  0  0  0
   -6.4785   -6.7194    9.4544 H   0  0  0  0  0  0  0  0  0  0  0  0
   -4.6443   -7.7086   10.1552 H   0  0  0  0  0  0  0  0  0  0  0  0
   -4.6629   -6.0511   10.8676 H   0  0  0  0  0  0  0  0  0  0  0  0
   -5.7565   -7.2025   11.2386 H   0  0  0  0  0  0  0  0  0  0  0  0
   -2.2190   -6.3042    9.2478 H   0  0  0  0  0  0  0  0  0  0  0  0
   -3.5448   -5.7054   10.0908 H   0  0  0  0  0  0  0  0  0  0  0  0
   -3.5106   -7.3727    9.4060 H   0  0  0  0  0  0  0  0  0  0  0  0
   -6.0602   -5.9110    4.6943 H   0  0  0  0  0  0  0  0  0  0  0  0
   -5.9097   -7.3161    5.7893 H   0  0  0  0  0  0  0  0  0  0  0  0
   -6.0065   -5.5200    6.2103 H   0  0  0  0  0  0  0  0  0  0  0  0
   -0.6392   -5.9378    6.1066 H   0  0  0  0  0  0  0  0  0  0  0  0
   -0.6709   -4.2977    6.7697 H   0  0  0  0  0  0  0  0  0  0  0  0
   -1.8630   -5.4088    7.2488 H   0  0  0  0  0  0  0  0  0  0  0  0
   -8.6007   -7.1027   13.1540 H   0  0  0  0  0  0  0  0  0  0  0  0
   -8.5584   -8.7432   12.4925 H   0  0  0  0  0  0  0  0  0  0  0  0
   -7.2025   -8.1356   13.4426 H   0  0  0  0  0  0  0  0  0  0  0  0
    2.2437   -1.9795    0.7191 H   0  0  0  0  0  0  0  0  0  0  0  0
    1.3007   -0.8231    1.6401 H   0  0  0  0  0  0  0  0  0  0  0  0
    3.0372   -0.6787    1.3663 H   0  0  0  0  0  0  0  0  0  0  0  0
   -4.8332   -8.1240    7.1302 H   0  0  0  0  0  0  0  0  0  0  0  0
    0.2301   -2.3167    1.4707 H   0  0  0  0  0  0  0  0  0  0  0  0
   -1.3588   -5.5048   -1.7468 H   0  0  0  0  0  0  0  0  0  0  0  0
  1  2  1  0  0  0  0
  1  5  2  0  0  0  0
  1  6  1  0  0  0  0
  2  3  2  0  0  0  0
  2 59  1  0  0  0  0
  3  4  1  0  0  0  0
  3 60  1  0  0  0  0
  4  7  2  0  0  0  0
  4  8  1  0  0  0  0
  8  9  1  0  0  0  0
  8 61  1  0  0  0  0
  9 10  2  0  0  0  0
  9 13  1  0  0  0  0
 10 11  1  0  0  0  0
 10 15  1  0  0  0  0
 11 12  1  0  0  0  0
 11 62  1  0  0  0  0
 11 63  1  0  0  0  0
 12 13  1  0  0  0  0
 12 64  1  0  0  0  0
 12 65  1  0  0  0  0
 13 14  2  0  0  0  0
 15 66  1  0  0  0  0
 16 17  1  0  0  0  0
 16 21  1  0  0  0  0
 16 26  1  0  0  0  0
 16 58  1  1  0  0  0
 17 18  1  0  0  0  0
 17 67  1  0  0  0  0
 17 68  1  0  0  0  0
 18 19  1  0  0  0  0
 18  6  1  0  0  0  0
 18 69  1  6  0  0  0
 19 20  1  0  0  0  0
 19 25  1  0  0  0  0
 19 70  1  1  0  0  0
 20 21  1  0  0  0  0
 20 71  1  6  0  0  0
 20 22  1  0  0  0  0
 22 23  1  0  0  0  0
 22 24  1  0  0  0  0
 22 72  1  0  0  0  0
 23 73  1  0  0  0  0
 23 74  1  0  0  0  0
 23 75  1  0  0  0  0
 24 76  1  0  0  0  0
 24 77  1  0  0  0  0
 24 78  1  0  0  0  0
 25 79  1  0  0  0  0
 25 80  1  0  0  0  0
 25 81  1  0  0  0  0
 26 82  1  6  0  0  0
 26 30  1  0  0  0  0
 26 27  1  0  0  0  0
 27 57  1  0  0  0  0
 27 83  1  1  0  0  0
 28 32  1  0  0  0  0
 28 84  1  1  0  0  0
 28 29  1  0  0  0  0
 28 27  1  0  0  0  0
 29 85  1  0  0  0  0
 29 86  1  0  0  0  0
 29 87  1  0  0  0  0
 30 88  1  0  0  0  0
 30 89  1  0  0  0  0
 30 90  1  0  0  0  0
 31 32  1  0  0  0  0
 31 46  1  0  0  0  0
 32 33  1  0  0  0  0
 32 91  1  0  0  0  0
 33 34  1  0  0  0  0
 33 92  1  1  0  0  0
 33 54  1  0  0  0  0
 34 35  2  0  0  0  0
 34 93  1  0  0  0  0
 35 36  1  0  0  0  0
 35 94  1  0  0  0  0
 36 37  2  0  0  0  0
 36 95  1  0  0  0  0
 37 38  1  0  0  0  0
 37 51  1  0  0  0  0
 38 39  1  0  0  0  0
 38 96  1  0  0  0  0
 38 97  1  0  0  0  0
 39 40  1  0  0  0  0
 39 50  1  0  0  0  0
 39 98  1  6  0  0  0
 40 41  1  0  0  0  0
 40 56  1  0  0  0  0
 40 99  1  6  0  0  0
 41 42  1  0  0  0  0
 41 49  1  0  0  0  0
 41100  1  6  0  0  0
 42 43  2  0  0  0  0
 42101  1  0  0  0  0
 43 44  1  0  0  0  0
 43 48  1  0  0  0  0
 44 45  2  0  0  0  0
 44102  1  0  0  0  0
 45 46  1  0  0  0  0
 45 52  1  0  0  0  0
 46 47  2  0  0  0  0
 48103  1  0  0  0  0
 48104  1  0  0  0  0
 48105  1  0  0  0  0
 49106  1  0  0  0  0
 49107  1  0  0  0  0
 49108  1  0  0  0  0
 50109  1  0  0  0  0
 50110  1  0  0  0  0
 50111  1  0  0  0  0
 51112  1  0  0  0  0
 51113  1  0  0  0  0
 51114  1  0  0  0  0
 52 53  1  0  0  0  0
 53115  1  0  0  0  0
 53116  1  0  0  0  0
 53117  1  0  0  0  0
 54 55  1  0  0  0  0
 55118  1  0  0  0  0
 55119  1  0  0  0  0
 55120  1  0  0  0  0
 56121  1  0  0  0  0
 57122  1  0  0  0  0
 58123  1  0  0  0  0
M  END
>  <DRUGBANK_ID>
DB06734

>  <COMMON_NAME>
Bafilomycin B1

>  <CAS_NUMBER>
88899-56-3

>  <SYNONYMS>
Setamycin

$$$$
