
 OpenBabel10282417173D

 82 84  0  0  1  0  0  0  0  0999 V2000
    5.4533   -0.3408    1.1995 O   0  0  0  0  0  0  0  0  0  0  0  0
    3.9980   -3.3682    1.4523 O   0  0  0  0  0  0  0  0  0  0  0  0
    2.7923   -5.0172   -0.6122 O   0  0  0  0  0  0  0  0  0  0  0  0
    0.8238   -3.8282    6.0082 O   0  0  0  0  0  0  0  0  0  0  0  0
    6.1658   -4.4627   -0.7913 O   0  0  0  0  0  0  0  0  0  0  0  0
    2.5113   -1.6252    1.9362 N   0  0  0  0  0  0  0  0  0  0  0  0
    4.5552   -1.7431   -0.3314 N   0  0  0  0  0  0  0  0  0  0  0  0
    1.9149   -4.1118    4.0960 N   0  0  0  0  0  0  0  0  0  0  0  0
   -0.6368   -4.0883    4.0258 N   0  0  0  0  0  0  0  0  0  0  0  0
    4.9788   -6.3097   -1.1482 N   0  0  0  0  0  0  0  0  0  0  0  0
    2.9847    0.5332    2.3266 C   0  0  1  0  0  0  0  0  0  0  0  0
    1.7568    1.4347    2.6298 C   0  0  0  0  0  0  0  0  0  0  0  0
    1.9541    0.1385    3.3270 C   0  0  1  0  0  0  0  0  0  0  0  0
    3.0712   -0.5274    1.2218 C   0  0  1  0  0  0  0  0  0  0  0  0
    1.5217   -1.0626    2.8090 C   0  0  0  0  0  0  0  0  0  0  0  0
    0.7206    1.8185    1.6147 C   0  0  0  0  0  0  0  0  0  0  0  0
    1.9170    2.6273    3.4788 C   0  0  0  0  0  0  0  0  0  0  0  0
    4.4495   -0.8520    0.7061 C   0  0  0  0  0  0  0  0  0  0  0  0
    3.0259   -2.9016    2.0540 C   0  0  0  0  0  0  0  0  0  0  0  0
    2.1329   -3.9373    2.7296 C   0  0  2  0  0  0  0  0  0  0  0  0
    0.5003   -3.8081    2.0590 C   0  0  0  0  0  0  0  0  0  0  0  0
    3.5434   -2.5971   -0.9770 C   0  0  3  0  0  0  0  0  0  0  0  0
    3.4380   -2.1965   -2.4668 C   0  0  0  0  0  0  0  0  0  0  0  0
    4.7071   -2.4949   -3.2962 C   0  0  0  0  0  0  0  0  0  0  0  0
    0.1060   -4.2107    0.0018 C   0  0  0  0  0  0  0  0  0  0  0  0
    0.0485   -5.7544    2.9360 C   0  0  0  0  0  0  0  0  0  0  0  0
    0.0188   -2.5171    2.2895 C   0  0  0  0  0  0  0  0  0  0  0  0
    3.7118   -4.2180   -0.6993 C   0  0  0  0  0  0  0  0  0  0  0  0
    5.3057   -3.8613   -3.1695 C   0  0  0  0  0  0  0  0  0  0  0  0
    6.0818   -1.9315   -2.7901 C   0  0  0  0  0  0  0  0  0  0  0  0
    6.7264   -3.3120   -3.0193 C   0  0  0  0  0  0  0  0  0  0  0  0
    0.7176   -3.9947    4.7968 C   0  0  0  0  0  0  0  0  0  0  0  0
    5.0729   -4.9926   -0.7677 C   0  0  0  0  0  0  0  0  0  0  0  0
   -1.0626   -4.5250    2.1448 C   0  0  0  0  0  0  0  0  0  0  0  0
   -2.0358   -5.6079    1.8141 C   0  0  0  0  0  0  0  0  0  0  0  0
   -1.8925   -2.9634    1.4768 C   0  0  0  0  0  0  0  0  0  0  0  0
    0.8740   -5.3119    1.3345 C   0  0  0  0  0  0  0  0  0  0  0  0
    3.9686    0.7920    2.6445 H   0  0  0  0  0  0  0  0  0  0  0  0
    1.8387   -0.0207    4.3912 H   0  0  0  0  0  0  0  0  0  0  0  0
    5.4934   -2.1151   -0.3722 H   0  0  0  0  0  0  0  0  0  0  0  0
    2.8289   -4.1790    4.5110 H   0  0  0  0  0  0  0  0  0  0  0  0
   -1.3976   -3.8373    4.6661 H   0  0  0  0  0  0  0  0  0  0  0  0
    4.2698   -6.8568   -0.6821 H   0  0  0  0  0  0  0  0  0  0  0  0
    5.8425   -6.7197   -1.4834 H   0  0  0  0  0  0  0  0  0  0  0  0
    2.4196   -0.2348    0.3909 H   0  0  0  0  0  0  0  0  0  0  0  0
    0.6055   -0.6844    2.2769 H   0  0  0  0  0  0  0  0  0  0  0  0
    1.4278   -1.6910    3.6765 H   0  0  0  0  0  0  0  0  0  0  0  0
   -0.1796    2.1656    2.1486 H   0  0  0  0  0  0  0  0  0  0  0  0
    1.1210    2.7120    1.1119 H   0  0  0  0  0  0  0  0  0  0  0  0
    0.4139    1.0931    0.8719 H   0  0  0  0  0  0  0  0  0  0  0  0
    2.2330    2.3903    4.4869 H   0  0  0  0  0  0  0  0  0  0  0  0
    2.5976    3.2869    2.9474 H   0  0  0  0  0  0  0  0  0  0  0  0
    0.9442    3.1299    3.5431 H   0  0  0  0  0  0  0  0  0  0  0  0
    2.7936   -4.8824    2.4202 H   0  0  0  0  0  0  0  0  0  0  0  0
    2.5731   -2.2908   -0.5597 H   0  0  0  0  0  0  0  0  0  0  0  0
    2.5818   -2.7256   -2.9068 H   0  0  0  0  0  0  0  0  0  0  0  0
    3.2520   -1.1184   -2.5612 H   0  0  0  0  0  0  0  0  0  0  0  0
    4.4373   -2.4027   -4.3361 H   0  0  0  0  0  0  0  0  0  0  0  0
    0.4895   -5.3607   -0.3582 H   0  0  0  0  0  0  0  0  0  0  0  0
   -0.9144   -4.3784   -0.3710 H   0  0  0  0  0  0  0  0  0  0  0  0
    0.7552   -3.5415   -0.5592 H   0  0  0  0  0  0  0  0  0  0  0  0
    0.4391   -5.8431    3.8547 H   0  0  0  0  0  0  0  0  0  0  0  0
   -0.9553   -6.0112    3.3740 H   0  0  0  0  0  0  0  0  0  0  0  0
    0.1640   -6.7301    2.2102 H   0  0  0  0  0  0  0  0  0  0  0  0
    0.2952   -2.5657    3.2782 H   0  0  0  0  0  0  0  0  0  0  0  0
    0.3708   -2.0399    1.3475 H   0  0  0  0  0  0  0  0  0  0  0  0
   -0.8465   -2.2070    2.8443 H   0  0  0  0  0  0  0  0  0  0  0  0
    4.7427   -3.9502   -2.3108 H   0  0  0  0  0  0  0  0  0  0  0  0
    5.0520   -4.8784   -3.4822 H   0  0  0  0  0  0  0  0  0  0  0  0
    6.4878   -1.0728   -3.2965 H   0  0  0  0  0  0  0  0  0  0  0  0
    6.1706   -1.5809   -1.7679 H   0  0  0  0  0  0  0  0  0  0  0  0
    7.4618   -3.6266   -2.2550 H   0  0  0  0  0  0  0  0  0  0  0  0
    7.2250   -3.5203   -3.9539 H   0  0  0  0  0  0  0  0  0  0  0  0
   -2.8974   -5.2766    2.3642 H   0  0  0  0  0  0  0  0  0  0  0  0
   -1.7787   -5.5743    0.7714 H   0  0  0  0  0  0  0  0  0  0  0  0
   -1.8075   -6.6621    2.0521 H   0  0  0  0  0  0  0  0  0  0  0  0
   -1.5361   -1.7682    1.4891 H   0  0  0  0  0  0  0  0  0  0  0  0
   -1.6510   -2.9924    0.4408 H   0  0  0  0  0  0  0  0  0  0  0  0
   -2.7420   -2.7795    2.1254 H   0  0  0  0  0  0  0  0  0  0  0  0
    1.6363   -4.0215    1.0293 H   0  0  0  0  0  0  0  0  0  0  0  0
    1.6061   -5.8855    2.0649 H   0  0  0  0  0  0  0  0  0  0  0  0
    1.7063   -4.8920    0.7319 H   0  0  0  0  0  0  0  0  0  0  0  0
  1 18  2  0  0  0  0
  2 19  2  0  0  0  0
  3 28  2  0  0  0  0
  4 32  2  0  0  0  0
  5 33  2  0  0  0  0
  6 14  1  0  0  0  0
  6 15  1  0  0  0  0
  6 19  1  0  0  0  0
  7 18  1  0  0  0  0
  7 22  1  0  0  0  0
  7 40  1  0  0  0  0
  8 32  1  0  0  0  0
  8 41  1  0  0  0  0
  9 32  1  0  0  0  0
  9 34  1  0  0  0  0
  9 42  1  0  0  0  0
 10 33  1  0  0  0  0
 10 43  1  0  0  0  0
 10 44  1  0  0  0  0
 11 12  1  0  0  0  0
 11 13  1  0  0  0  0
 11 14  1  0  0  0  0
 11 38  1  1  0  0  0
 12 13  1  0  0  0  0
 12 16  1  0  0  0  0
 12 17  1  0  0  0  0
 13 15  1  0  0  0  0
 13 39  1  1  0  0  0
 14 45  1  6  0  0  0
 14 18  1  0  0  0  0
 15 46  1  0  0  0  0
 15 47  1  0  0  0  0
 16 48  1  0  0  0  0
 16 49  1  0  0  0  0
 16 50  1  0  0  0  0
 17 51  1  0  0  0  0
 17 52  1  0  0  0  0
 17 53  1  0  0  0  0
 19 20  1  0  0  0  0
 20  8  1  0  0  0  0
 20 21  1  0  0  0  0
 20 54  1  6  0  0  0
 21 25  1  0  0  0  0
 21 26  1  0  0  0  0
 21 27  1  0  0  0  0
 22 23  1  0  0  0  0
 22 28  1  0  0  0  0
 22 55  1  0  0  0  0
 23 24  1  0  0  0  0
 23 56  1  0  0  0  0
 23 57  1  0  0  0  0
 24 29  1  0  0  0  0
 24 30  1  0  0  0  0
 24 58  1  0  0  0  0
 25 59  1  0  0  0  0
 25 60  1  0  0  0  0
 25 61  1  0  0  0  0
 26 62  1  0  0  0  0
 26 63  1  0  0  0  0
 26 64  1  0  0  0  0
 27 65  1  0  0  0  0
 27 66  1  0  0  0  0
 27 67  1  0  0  0  0
 28 33  1  0  0  0  0
 29 31  1  0  0  0  0
 29 68  1  0  0  0  0
 29 69  1  0  0  0  0
 30 31  1  0  0  0  0
 30 70  1  0  0  0  0
 30 71  1  0  0  0  0
 31 72  1  0  0  0  0
 31 73  1  0  0  0  0
 34 35  1  0  0  0  0
 34 36  1  0  0  0  0
 34 37  1  0  0  0  0
 35 74  1  0  0  0  0
 35 75  1  0  0  0  0
 35 76  1  0  0  0  0
 36 77  1  0  0  0  0
 36 78  1  0  0  0  0
 36 79  1  0  0  0  0
 37 80  1  0  0  0  0
 37 81  1  0  0  0  0
 37 82  1  0  0  0  0
M  END
>  <DRUGBANK_ID>
DB08873

>  <SECONDARY_ACCESSION_NUMBERS>
DB05665

>  <COMMON_NAME>
Boceprevir

>  <CAS_NUMBER>
394730-60-0

>  <UNII>
89BT58KELH

>  <SYNONYMS>
Boceprevir

$$$$
