
 OpenBabel10282417173D

 34 33  0  0  0  0  0  0  0  0999 V2000
    0.9498    0.0585    0.0489 C   0  0  0  0  0  0  0  0  0  0  0  0
    0.5253   -0.9613    1.0509 C   0  0  0  0  0  0  0  0  0  0  0  0
   -0.4270   -0.5305    2.1481 C   0  0  0  0  0  0  0  0  0  0  0  0
   -1.7541   -1.2770    2.0524 C   0  0  0  0  0  0  0  0  0  0  0  0
   -1.5732   -2.7914    2.2005 C   0  0  0  0  0  0  0  0  0  0  0  0
   -0.8970   -3.1414    3.5312 C   0  0  0  0  0  0  0  0  0  0  0  0
   -1.7753   -2.7071    4.7079 C   0  0  0  0  0  0  0  0  0  0  0  0
   -3.1319   -3.4195    4.6572 C   0  0  0  0  0  0  0  0  0  0  0  0
   -2.9608   -4.9406    4.7509 C   0  0  0  0  0  0  0  0  0  0  0  0
   -2.2607   -5.3465    6.0488 C   0  0  0  0  0  0  0  0  0  0  0  0
   -3.0723   -4.8975    7.2532 C   0  0  0  0  0  0  0  0  0  0  0  0
    0.9556   -2.1178    0.9582 O   0  0  0  0  0  0  0  0  0  0  0  0
    0.5811    1.0477    0.3232 H   0  0  0  0  0  0  0  0  0  0  0  0
    0.5550   -0.2196   -0.9306 H   0  0  0  0  0  0  0  0  0  0  0  0
    2.0417    0.0763    0.0343 H   0  0  0  0  0  0  0  0  0  0  0  0
    0.0745   -0.6847    3.1099 H   0  0  0  0  0  0  0  0  0  0  0  0
   -0.6115    0.5460    2.0942 H   0  0  0  0  0  0  0  0  0  0  0  0
   -2.4331   -0.8985    2.8276 H   0  0  0  0  0  0  0  0  0  0  0  0
   -2.2511   -1.0591    1.1022 H   0  0  0  0  0  0  0  0  0  0  0  0
   -2.5434   -3.2870    2.0989 H   0  0  0  0  0  0  0  0  0  0  0  0
   -0.9987   -3.2077    1.3708 H   0  0  0  0  0  0  0  0  0  0  0  0
   -0.6835   -4.2145    3.5629 H   0  0  0  0  0  0  0  0  0  0  0  0
    0.0915   -2.6811    3.6221 H   0  0  0  0  0  0  0  0  0  0  0  0
   -1.2516   -2.9012    5.6492 H   0  0  0  0  0  0  0  0  0  0  0  0
   -1.9289   -1.6232    4.7140 H   0  0  0  0  0  0  0  0  0  0  0  0
   -3.7770   -3.0404    5.4540 H   0  0  0  0  0  0  0  0  0  0  0  0
   -3.6810   -3.1694    3.7439 H   0  0  0  0  0  0  0  0  0  0  0  0
   -3.9400   -5.4243    4.6802 H   0  0  0  0  0  0  0  0  0  0  0  0
   -2.3908   -5.3233    3.8953 H   0  0  0  0  0  0  0  0  0  0  0  0
   -2.1221   -6.4312    6.0681 H   0  0  0  0  0  0  0  0  0  0  0  0
   -1.2517   -4.9210    6.1041 H   0  0  0  0  0  0  0  0  0  0  0  0
   -4.0677   -5.3497    7.2190 H   0  0  0  0  0  0  0  0  0  0  0  0
   -2.5774   -5.1821    8.1822 H   0  0  0  0  0  0  0  0  0  0  0  0
   -3.1978   -3.8103    7.2828 H   0  0  0  0  0  0  0  0  0  0  0  0
  1 13  1  0  0  0  0
  1 14  1  0  0  0  0
  1 15  1  0  0  0  0
  2  1  1  0  0  0  0
  3  2  1  0  0  0  0
  3 16  1  0  0  0  0
  3 17  1  0  0  0  0
  4  3  1  0  0  0  0
  4 18  1  0  0  0  0
  4 19  1  0  0  0  0
  5  4  1  0  0  0  0
  5 20  1  0  0  0  0
  5 21  1  0  0  0  0
  6  5  1  0  0  0  0
  6 22  1  0  0  0  0
  6 23  1  0  0  0  0
  7  6  1  0  0  0  0
  7 24  1  0  0  0  0
  7 25  1  0  0  0  0
  8  7  1  0  0  0  0
  8 26  1  0  0  0  0
  8 27  1  0  0  0  0
  9  8  1  0  0  0  0
  9 28  1  0  0  0  0
  9 29  1  0  0  0  0
 10  9  1  0  0  0  0
 10 30  1  0  0  0  0
 10 31  1  0  0  0  0
 11 10  1  0  0  0  0
 11 32  1  0  0  0  0
 11 33  1  0  0  0  0
 11 34  1  0  0  0  0
 12  2  2  0  0  0  0
M  END
>  <DRUGBANK_ID>
DB08688

>  <COMMON_NAME>
2-Undecanone

>  <CAS_NUMBER>
112-12-9

>  <UNII>
YV5DSO8CY9

>  <SYNONYMS>
2-hendecanone; Methyl nonyl ketone; Rue ketone; Undecan-2-one

$$$$
