1483
 OpenBabel10282417113D

 25 25  0  0  0  0  0  0  0  0999 V2000
   -2.4325   -1.0927   -0.1114 O   0  0  0  0  0  0  0  0  0  0  0  0
    2.3702   -1.2299    0.0886 O   0  0  0  0  0  0  0  0  0  0  0  0
    0.0472    2.6191   -0.0062 O   0  0  0  0  0  0  0  0  0  0  0  0
   -1.1403    0.7086    0.0339 N   0  0  0  0  0  0  0  0  0  0  0  0
    1.1668    0.6600   -0.0183 N   0  0  0  0  0  0  0  0  0  0  0  0
   -0.0337   -1.4986   -0.0833 C   0  0  0  0  0  0  0  0  0  0  0  0
   -0.0463   -2.5046    1.0970 C   0  0  0  0  0  0  0  0  0  0  0  0
   -0.0105   -2.2307   -1.4492 C   0  0  0  0  0  0  0  0  0  0  0  0
   -1.2911   -0.6395   -0.0300 C   0  0  0  0  0  0  0  0  0  0  0  0
    1.2604   -0.7002    0.0255 C   0  0  0  0  0  0  0  0  0  0  0  0
   -1.2392   -3.4540    1.1208 C   0  0  0  0  0  0  0  0  0  0  0  0
    0.0507   -1.2696   -2.6323 C   0  0  0  0  0  0  0  0  0  0  0  0
    0.0266    1.3965   -0.0001 C   0  0  0  0  0  0  0  0  0  0  0  0
   -1.9937    1.2492    0.0190 H   0  0  0  0  0  0  0  0  0  0  0  0
    2.0352    1.1763   -0.0058 H   0  0  0  0  0  0  0  0  0  0  0  0
    0.8681   -3.1140    1.0790 H   0  0  0  0  0  0  0  0  0  0  0  0
   -0.0185   -1.9504    2.0451 H   0  0  0  0  0  0  0  0  0  0  0  0
    0.8483   -2.9134   -1.5006 H   0  0  0  0  0  0  0  0  0  0  0  0
   -0.9087   -2.8466   -1.5738 H   0  0  0  0  0  0  0  0  0  0  0  0
   -1.2915   -4.0517    0.2072 H   0  0  0  0  0  0  0  0  0  0  0  0
   -1.1690   -4.1388    1.9687 H   0  0  0  0  0  0  0  0  0  0  0  0
   -2.1827   -2.9173    1.2371 H   0  0  0  0  0  0  0  0  0  0  0  0
    0.9599   -0.6627   -2.6052 H   0  0  0  0  0  0  0  0  0  0  0  0
    0.0437   -1.8240   -3.5736 H   0  0  0  0  0  0  0  0  0  0  0  0
   -0.8119   -0.5966   -2.6337 H   0  0  0  0  0  0  0  0  0  0  0  0
  1  9  2  0  0  0  0
  2 10  2  0  0  0  0
  3 13  2  0  0  0  0
  4  9  1  0  0  0  0
  4 13  1  0  0  0  0
  4 14  1  0  0  0  0
  5 10  1  0  0  0  0
  5 13  1  0  0  0  0
  5 15  1  0  0  0  0
  6  7  1  0  0  0  0
  6  8  1  0  0  0  0
  6  9  1  0  0  0  0
  6 10  1  0  0  0  0
  7 11  1  0  0  0  0
  7 16  1  0  0  0  0
  7 17  1  0  0  0  0
  8 12  1  0  0  0  0
  8 18  1  0  0  0  0
  8 19  1  0  0  0  0
 11 20  1  0  0  0  0
 11 21  1  0  0  0  0
 11 22  1  0  0  0  0
 12 23  1  0  0  0  0
 12 24  1  0  0  0  0
 12 25  1  0  0  0  0
M  END
>  <DRUGBANK_ID>
DB01483

>  <COMMON_NAME>
Barbital

>  <CAS_NUMBER>
57-44-3

>  <UNII>
5WZ53ENE2P

>  <SYNONYMS>
Barbital

$$$$
