
 OpenBabel10282417133D

 52 54  0  0  0  0  0  0  0  0999 V2000
    2.5834    1.0259    0.1638 C   0  0  0  0  0  0  0  0  0  0  0  0
    1.2286    0.3515    0.1584 C   0  0  0  0  0  0  0  0  0  0  0  0
    1.2079   -1.0377    0.1436 C   0  0  0  0  0  0  0  0  0  0  0  0
    0.0280   -1.7686    0.0603 C   0  0  0  0  0  0  0  0  0  0  0  0
   -0.0292   -3.1360    0.0023 O   0  0  0  0  0  0  0  0  0  0  0  0
    1.2207   -3.8194   -0.0565 C   0  0  0  0  0  0  0  0  0  0  0  0
    2.0332   -3.5916   -1.3366 C   0  0  0  0  0  0  0  0  0  0  0  0
    3.3010   -3.1481   -1.1448 O   0  0  0  0  0  0  0  0  0  0  0  0
    1.5910   -3.7684   -2.4707 O   0  0  0  0  0  0  0  0  0  0  0  0
   -1.1850   -1.0848    0.0307 C   0  0  0  0  0  0  0  0  0  0  0  0
   -1.2182    0.3216    0.0472 C   0  0  0  0  0  0  0  0  0  0  0  0
   -2.5531    1.0188   -0.0006 C   0  0  0  0  0  0  0  0  0  0  0  0
    0.0005    1.0454    0.0829 C   0  0  0  0  0  0  0  0  0  0  0  0
    0.0319    2.5492   -0.0958 C   0  0  0  0  0  0  0  0  0  0  0  0
    0.6837    2.9935   -1.3970 C   0  0  0  0  0  0  0  0  0  0  0  0
    1.0848    2.1074   -2.4087 C   0  0  0  0  0  0  0  0  0  0  0  0
    1.8195    2.5384   -3.5064 C   0  0  0  0  0  0  0  0  0  0  0  0
    2.0259    3.8941   -3.6938 C   0  0  0  0  0  0  0  0  0  0  0  0
    2.6981    4.3281   -4.7996 O   0  0  0  0  0  0  0  0  0  0  0  0
    1.5596    4.8227   -2.7620 C   0  0  0  0  0  0  0  0  0  0  0  0
    1.6927    6.3040   -3.0237 C   0  0  0  0  0  0  0  0  0  0  0  0
    0.3729    7.0438   -3.0959 C   0  0  0  0  0  0  0  0  0  0  0  0
   -0.4493    7.1483   -1.9645 C   0  0  0  0  0  0  0  0  0  0  0  0
   -1.6521    7.8370   -1.9957 C   0  0  0  0  0  0  0  0  0  0  0  0
   -2.0126    8.5182   -3.1468 C   0  0  0  0  0  0  0  0  0  0  0  0
   -1.1856    8.4748   -4.2702 C   0  0  0  0  0  0  0  0  0  0  0  0
   -0.0284    7.6918   -4.2687 C   0  0  0  0  0  0  0  0  0  0  0  0
    0.9629    4.3434   -1.5791 C   0  0  0  0  0  0  0  0  0  0  0  0
    2.7762    1.6215   -0.7285 H   0  0  0  0  0  0  0  0  0  0  0  0
    2.6824    1.6664    1.0403 H   0  0  0  0  0  0  0  0  0  0  0  0
    3.3967    0.2925    0.1680 H   0  0  0  0  0  0  0  0  0  0  0  0
    2.1697   -1.5140    0.1721 H   0  0  0  0  0  0  0  0  0  0  0  0
    1.8088   -3.6150    0.8480 H   0  0  0  0  0  0  0  0  0  0  0  0
    1.0070   -4.8940   -0.0200 H   0  0  0  0  0  0  0  0  0  0  0  0
    3.5702   -2.9689   -0.2237 H   0  0  0  0  0  0  0  0  0  0  0  0
   -2.1132   -1.6512   -0.0229 H   0  0  0  0  0  0  0  0  0  0  0  0
   -2.6645    1.6706    0.8729 H   0  0  0  0  0  0  0  0  0  0  0  0
   -2.6480    1.6128   -0.9155 H   0  0  0  0  0  0  0  0  0  0  0  0
   -3.3849    0.3072    0.0193 H   0  0  0  0  0  0  0  0  0  0  0  0
    0.5725    2.9682    0.7656 H   0  0  0  0  0  0  0  0  0  0  0  0
   -0.9713    2.9856   -0.0470 H   0  0  0  0  0  0  0  0  0  0  0  0
    0.9317    1.0363   -2.3107 H   0  0  0  0  0  0  0  0  0  0  0  0
    2.2168    1.7949   -4.1880 H   0  0  0  0  0  0  0  0  0  0  0  0
    2.9403    3.5559   -5.3356 H   0  0  0  0  0  0  0  0  0  0  0  0
    2.3204    6.7570   -2.2477 H   0  0  0  0  0  0  0  0  0  0  0  0
    2.2365    6.4740   -3.9615 H   0  0  0  0  0  0  0  0  0  0  0  0
   -0.1682    6.7027   -1.0217 H   0  0  0  0  0  0  0  0  0  0  0  0
   -2.2736    7.8581   -1.1060 H   0  0  0  0  0  0  0  0  0  0  0  0
   -2.9335    9.0908   -3.1615 H   0  0  0  0  0  0  0  0  0  0  0  0
   -1.4391    9.0638   -5.1464 H   0  0  0  0  0  0  0  0  0  0  0  0
    0.5650    7.6128   -5.1777 H   0  0  0  0  0  0  0  0  0  0  0  0
    0.6956    5.0129   -0.7708 H   0  0  0  0  0  0  0  0  0  0  0  0
  1  2  1  0  0  0  0
  1 29  1  0  0  0  0
  1 30  1  0  0  0  0
  1 31  1  0  0  0  0
  2  3  2  0  0  0  0
  2 13  1  0  0  0  0
  3  4  1  0  0  0  0
  3 32  1  0  0  0  0
  4  5  1  0  0  0  0
  4 10  2  0  0  0  0
  5  6  1  0  0  0  0
  6  7  1  0  0  0  0
  6 33  1  0  0  0  0
  6 34  1  0  0  0  0
  7  8  1  0  0  0  0
  7  9  2  0  0  0  0
  8 35  1  0  0  0  0
 10 11  1  0  0  0  0
 10 36  1  0  0  0  0
 11 12  1  0  0  0  0
 11 13  2  0  0  0  0
 12 37  1  0  0  0  0
 12 38  1  0  0  0  0
 12 39  1  0  0  0  0
 13 14  1  0  0  0  0
 14 15  1  0  0  0  0
 14 40  1  0  0  0  0
 14 41  1  0  0  0  0
 15 16  2  0  0  0  0
 15 28  1  0  0  0  0
 16 17  1  0  0  0  0
 16 42  1  0  0  0  0
 17 18  2  0  0  0  0
 17 43  1  0  0  0  0
 18 19  1  0  0  0  0
 18 20  1  0  0  0  0
 19 44  1  0  0  0  0
 20 21  1  0  0  0  0
 20 28  2  0  0  0  0
 21 22  1  0  0  0  0
 21 45  1  0  0  0  0
 21 46  1  0  0  0  0
 22 23  2  0  0  0  0
 22 27  1  0  0  0  0
 23 24  1  0  0  0  0
 23 47  1  0  0  0  0
 24 25  2  0  0  0  0
 24 48  1  0  0  0  0
 25 26  1  0  0  0  0
 25 49  1  0  0  0  0
 26 27  2  0  0  0  0
 26 50  1  0  0  0  0
 27 51  1  0  0  0  0
 28 52  1  0  0  0  0
M  END
>  <DRUGBANK_ID>
DB03788

>  <SECONDARY_ACCESSION_NUMBERS>
EXPT01522

>  <COMMON_NAME>
GC-24

$$$$
