
 OpenBabel10282417143D

153161  0  0  0  0  0  0  0  0999 V2000
   -4.2793    7.7779    1.0544 C   0  0  0  0  0  0  0  0  0  0  0  0
   -3.6357    9.3954    0.5557 C   0  0  0  0  0  0  0  0  0  0  0  0
   -4.6181    8.9452    2.5540 C   0  0  0  0  0  0  0  0  0  0  0  0
   -2.5272    7.1254    2.9213 C   0  0  0  0  0  0  0  0  0  0  0  0
   -3.7517    7.7206    2.8957 C   0  0  0  0  0  0  0  0  0  0  0  0
   -2.4350    8.1261    1.4993 C   0  0  0  0  0  0  0  0  0  0  0  0
   -4.3696   11.2704    0.4825 O   0  0  0  0  0  0  0  0  0  0  0  0
   -4.2293   10.7920    3.4119 O   0  0  0  0  0  0  0  0  0  0  0  0
   -3.7001   12.5678    8.9866 C   0  0  1  0  0  0  0  0  0  0  0  0
   -4.1327   14.3563    2.2269 C   0  0  1  0  0  0  0  0  0  0  0  0
   -4.6780   13.6161    7.6670 C   0  0  0  0  0  0  0  0  0  0  0  0
   -5.2896   14.8919    1.3788 C   0  0  0  0  0  0  0  0  0  0  0  0
   -4.5578   12.5365    4.4871 C   0  0  0  0  0  0  0  0  0  0  0  0
   -4.8378   13.2734   -0.2478 C   0  0  0  0  0  0  0  0  0  0  0  0
   -5.7339   12.6652    4.8721 C   0  0  0  0  0  0  0  0  0  0  0  0
   -5.9720   13.6881   -0.8166 C   0  0  0  0  0  0  0  0  0  0  0  0
   -6.4196   13.8520    0.4175 C   0  0  0  0  0  0  0  0  0  0  0  0
   -4.9929   16.1115    1.1910 C   0  0  0  0  0  0  0  0  0  0  0  0
   -4.0790   14.6347    7.2036 C   0  0  0  0  0  0  0  0  0  0  0  0
   -4.2716   14.2160    5.5070 C   0  0  0  0  0  0  0  0  0  0  0  0
   -5.0327   15.2056    0.1404 C   0  0  0  0  0  0  0  0  0  0  0  0
   -6.8672   13.9726   -2.2989 Cl  0  0  0  0  0  0  0  0  0  0  0  0
   -3.3047   13.4565    9.9577 O   0  0  0  0  0  0  0  0  0  0  0  0
   -6.1441   11.5212    3.8828 Cl  0  0  0  0  0  0  0  0  0  0  0  0
   -4.8545   13.2809    2.5434 O   0  0  0  0  0  0  0  0  0  0  0  0
   -3.3539    2.0957    1.3135 C   0  0  1  0  0  0  0  0  0  0  0  0
   -3.1538    3.7664    0.2759 C   0  0  1  0  0  0  0  0  0  0  0  0
   -2.9252    0.4042    1.1578 C   0  0  2  0  0  0  0  0  0  0  0  0
   -3.3969    2.3929   -1.0888 O   0  0  0  0  0  0  0  0  0  0  0  0
   -3.3489   -0.2569   -0.1312 C   0  0  1  0  0  0  0  0  0  0  0  0
   -2.8405    0.6759   -1.2376 C   0  0  1  0  0  0  0  0  0  0  0  0
   -2.7269    2.3932    2.5289 O   0  0  0  0  0  0  0  0  0  0  0  0
   -3.5359   -0.3525    2.2663 O   0  0  0  0  0  0  0  0  0  0  0  0
   -2.9055   -1.6409   -0.2405 O   0  0  0  0  0  0  0  0  0  0  0  0
   -3.5431    5.8360    0.7282 O   0  0  0  0  0  0  0  0  0  0  0  0
   -3.3490   -0.0206   -2.5874 C   0  0  0  0  0  0  0  0  0  0  0  0
   -2.8807    0.7066   -3.7131 O   0  0  0  0  0  0  0  0  0  0  0  0
   -5.5532   12.8333    6.1971 C   0  0  0  0  0  0  0  0  0  0  0  0
   -2.9179   13.8470    1.5095 C   0  0  2  0  0  0  0  0  0  0  0  0
   -1.1009    8.5745    3.8614 N   0  0  0  0  0  0  0  0  0  0  0  0
   -2.1306   13.1096    2.5456 C   0  0  0  0  0  0  0  0  0  0  0  0
   -3.4317    7.9651    5.1698 C   0  0  0  0  0  0  0  0  0  0  0  0
   -1.7620   11.7784    2.3213 N   0  0  0  0  0  0  0  0  0  0  0  0
   -1.9576    7.4819    4.3858 C   0  0  1  0  0  0  0  0  0  0  0  0
   -1.6528    9.8397    3.8682 C   0  0  0  0  0  0  0  0  0  0  0  0
   -0.9339   11.0242    3.2910 C   0  0  2  0  0  0  0  0  0  0  0  0
   -1.7836   13.7981    3.5069 O   0  0  0  0  0  0  0  0  0  0  0  0
   -4.3781    8.4228    4.5600 O   0  0  0  0  0  0  0  0  0  0  0  0
   -2.6151   10.0812    4.5782 O   0  0  0  0  0  0  0  0  0  0  0  0
   -0.5700   11.9021    4.4849 C   0  0  0  0  0  0  0  0  0  0  0  0
    0.2986   11.2229    5.4992 C   0  0  0  0  0  0  0  0  0  0  0  0
   -0.2045   10.1206    6.1417 N   0  0  0  0  0  0  0  0  0  0  0  0
    1.4232   11.6505    5.7379 O   0  0  0  0  0  0  0  0  0  0  0  0
   -2.2262   14.9785    0.9252 N   0  0  0  0  0  0  0  0  0  0  0  0
   -2.0557   15.0513   -0.4345 C   0  0  0  0  0  0  0  0  0  0  0  0
   -1.2842   16.2720   -0.9821 C   0  0  1  0  0  0  0  0  0  0  0  0
   -2.4726   14.1598   -1.1768 O   0  0  0  0  0  0  0  0  0  0  0  0
   -0.0229   15.7679   -1.6913 C   0  0  0  0  0  0  0  0  0  0  0  0
   -2.1571   17.0899   -1.8355 N   0  0  0  0  0  0  0  0  0  0  0  0
   -0.3335   14.8210   -2.8533 C   0  0  0  0  0  0  0  0  0  0  0  0
   -1.4246   18.1396   -2.5221 C   0  0  0  0  0  0  0  0  0  0  0  0
   -1.1552   15.4606   -3.9456 C   0  0  0  0  0  0  0  0  0  0  0  0
    0.9328   14.3440   -3.5018 C   0  0  0  0  0  0  0  0  0  0  0  0
   -4.4666   11.1784    9.5154 C   0  0  2  0  0  0  0  0  0  0  0  0
   -4.1257    8.3133    6.2127 N   0  0  0  0  0  0  0  0  0  0  0  0
   -5.8560    9.3301    6.2149 C   0  0  1  0  0  0  0  0  0  0  0  0
   -5.9739   11.5354   11.2279 O   0  0  0  0  0  0  0  0  0  0  0  0
   -5.1045   10.1011    8.6497 N   0  0  0  0  0  0  0  0  0  0  0  0
   -4.8138    9.0483    7.9277 C   0  0  0  0  0  0  0  0  0  0  0  0
   -3.8723    8.4604    8.5125 O   0  0  0  0  0  0  0  0  0  0  0  0
   -4.6373   11.6763    7.3768 C   0  0  0  0  0  0  0  0  0  0  0  0
   -4.4852   10.7429    6.6354 O   0  0  0  0  0  0  0  0  0  0  0  0
   -3.4579   12.3394    6.9360 O   0  0  0  0  0  0  0  0  0  0  0  0
   -6.4550   12.5301    7.9667 C   0  0  1  0  0  0  0  0  0  0  0  0
   -6.7171   12.3286    9.2921 N   0  0  0  0  0  0  0  0  0  0  0  0
   -5.7752   11.6930   10.0386 C   0  0  0  0  0  0  0  0  0  0  0  0
   -7.9753   13.7787    5.2619 C   0  0  0  0  0  0  0  0  0  0  0  0
   -7.6574   14.0090    3.8971 C   0  0  0  0  0  0  0  0  0  0  0  0
   -7.5602   10.5080    5.5352 C   0  0  0  0  0  0  0  0  0  0  0  0
   -8.1893   12.1599    5.8545 C   0  0  0  0  0  0  0  0  0  0  0  0
   -8.0850   12.8816    3.1891 C   0  0  0  0  0  0  0  0  0  0  0  0
   -8.3242   11.3174    4.0225 C   0  0  0  0  0  0  0  0  0  0  0  0
   -6.5994   14.8395    3.5634 O   0  0  0  0  0  0  0  0  0  0  0  0
   -6.9583   14.2744    7.6651 C   0  0  0  0  0  0  0  0  0  0  0  0
   -6.3763   15.2140    8.6214 C   0  0  0  0  0  0  0  0  0  0  0  0
   -6.7354   17.0199    7.0433 C   0  0  0  0  0  0  0  0  0  0  0  0
   -7.4685   14.7455    6.3672 C   0  0  0  0  0  0  0  0  0  0  0  0
   -6.2148   16.5614    8.2748 C   0  0  0  0  0  0  0  0  0  0  0  0
   -5.4172   17.4054    9.0183 O   0  0  0  0  0  0  0  0  0  0  0  0
   -7.3274   16.1354    6.1068 C   0  0  0  0  0  0  0  0  0  0  0  0
   -7.7362   16.5810    4.8751 O   0  0  0  0  0  0  0  0  0  0  0  0
   -3.3080    8.7485    2.8104 H   0  0  0  0  0  0  0  0  0  0  0  0
   -2.1575    6.6654    1.9092 H   0  0  0  0  0  0  0  0  0  0  0  0
   -2.7123   12.0758    8.6255 H   0  0  0  0  0  0  0  0  0  0  0  0
   -3.9921   15.0206    3.0744 H   0  0  0  0  0  0  0  0  0  0  0  0
   -6.5216   12.7733    0.6193 H   0  0  0  0  0  0  0  0  0  0  0  0
   -5.0208   16.9574    1.9126 H   0  0  0  0  0  0  0  0  0  0  0  0
   -4.0398   15.2063    8.2151 H   0  0  0  0  0  0  0  0  0  0  0  0
   -5.1612   15.3278    6.0589 H   0  0  0  0  0  0  0  0  0  0  0  0
   -5.9894   16.4495   -0.0053 H   0  0  0  0  0  0  0  0  0  0  0  0
   -4.1808   13.7117   10.2522 H   0  0  0  0  0  0  0  0  0  0  0  0
   -5.4125   13.1135    1.8198 H   0  0  0  0  0  0  0  0  0  0  0  0
   -4.4244    1.9073    1.3226 H   0  0  0  0  0  0  0  0  0  0  0  0
   -1.8841    3.0420    0.1152 H   0  0  0  0  0  0  0  0  0  0  0  0
   -1.8496    0.2077    1.2992 H   0  0  0  0  0  0  0  0  0  0  0  0
   -4.4343   -0.3075   -0.1706 H   0  0  0  0  0  0  0  0  0  0  0  0
   -1.7349    0.5797   -1.3144 H   0  0  0  0  0  0  0  0  0  0  0  0
   -1.7667    2.2779    2.3885 H   0  0  0  0  0  0  0  0  0  0  0  0
   -4.5064   -0.2603    2.2177 H   0  0  0  0  0  0  0  0  0  0  0  0
   -1.9342   -1.7045   -0.1941 H   0  0  0  0  0  0  0  0  0  0  0  0
   -3.0047   -1.0744   -2.7108 H   0  0  0  0  0  0  0  0  0  0  0  0
   -4.4417   -0.0505   -2.6098 H   0  0  0  0  0  0  0  0  0  0  0  0
   -3.2010    1.6192   -3.5999 H   0  0  0  0  0  0  0  0  0  0  0  0
   -5.9814   11.7944    6.2698 H   0  0  0  0  0  0  0  0  0  0  0  0
   -3.1650   13.1252    0.7566 H   0  0  0  0  0  0  0  0  0  0  0  0
   -0.3094    8.3483    3.2536 H   0  0  0  0  0  0  0  0  0  0  0  0
   -2.1373   11.2557    1.5309 H   0  0  0  0  0  0  0  0  0  0  0  0
   -1.2858    6.7930    4.9838 H   0  0  0  0  0  0  0  0  0  0  0  0
   -0.0337   10.6724    2.8008 H   0  0  0  0  0  0  0  0  0  0  0  0
   -0.0209   12.7768    4.0936 H   0  0  0  0  0  0  0  0  0  0  0  0
   -1.4777   12.2742    4.9861 H   0  0  0  0  0  0  0  0  0  0  0  0
   -1.1457    9.7542    5.9882 H   0  0  0  0  0  0  0  0  0  0  0  0
    0.3543    9.6206    6.8202 H   0  0  0  0  0  0  0  0  0  0  0  0
   -1.9836   15.7231    1.5655 H   0  0  0  0  0  0  0  0  0  0  0  0
   -1.0148   16.9360   -0.1693 H   0  0  0  0  0  0  0  0  0  0  0  0
    0.5667   16.6106   -2.0674 H   0  0  0  0  0  0  0  0  0  0  0  0
    0.6207   15.2653   -0.9634 H   0  0  0  0  0  0  0  0  0  0  0  0
   -2.5971   16.4808   -2.5010 H   0  0  0  0  0  0  0  0  0  0  0  0
   -0.8544   13.9465   -2.4720 H   0  0  0  0  0  0  0  0  0  0  0  0
   -0.5133   17.8307   -3.0414 H   0  0  0  0  0  0  0  0  0  0  0  0
   -2.0448   18.6274   -3.2757 H   0  0  0  0  0  0  0  0  0  0  0  0
   -1.1415   18.8430   -1.7522 H   0  0  0  0  0  0  0  0  0  0  0  0
   -0.6909   16.3750   -4.3127 H   0  0  0  0  0  0  0  0  0  0  0  0
   -1.4243   14.7933   -4.7415 H   0  0  0  0  0  0  0  0  0  0  0  0
   -2.1592   15.6633   -3.6655 H   0  0  0  0  0  0  0  0  0  0  0  0
    1.5582   13.8298   -2.7756 H   0  0  0  0  0  0  0  0  0  0  0  0
    0.6836   13.6573   -4.3144 H   0  0  0  0  0  0  0  0  0  0  0  0
    1.4756   15.1968   -3.9138 H   0  0  0  0  0  0  0  0  0  0  0  0
   -3.7492   10.6622   10.1270 H   0  0  0  0  0  0  0  0  0  0  0  0
   -3.4462    7.5934    6.8521 H   0  0  0  0  0  0  0  0  0  0  0  0
   -6.0232    8.2921    5.9796 H   0  0  0  0  0  0  0  0  0  0  0  0
   -5.5003   10.3012    7.7520 H   0  0  0  0  0  0  0  0  0  0  0  0
   -2.5141   12.2783    7.0071 H   0  0  0  0  0  0  0  0  0  0  0  0
   -7.2687   12.1106    7.4043 H   0  0  0  0  0  0  0  0  0  0  0  0
   -7.5749   12.7327    9.6452 H   0  0  0  0  0  0  0  0  0  0  0  0
   -8.9346   12.5925    6.6832 H   0  0  0  0  0  0  0  0  0  0  0  0
   -7.5058   12.6702    2.2304 H   0  0  0  0  0  0  0  0  0  0  0  0
   -9.3729   11.4286    3.1696 H   0  0  0  0  0  0  0  0  0  0  0  0
   -6.0866   14.4276    2.8662 H   0  0  0  0  0  0  0  0  0  0  0  0
   -5.6966   14.7890    9.3847 H   0  0  0  0  0  0  0  0  0  0  0  0
   -6.5871   18.0469    6.7329 H   0  0  0  0  0  0  0  0  0  0  0  0
   -5.0254   17.0033    9.8193 H   0  0  0  0  0  0  0  0  0  0  0  0
   -7.6689   17.5306    4.7434 H   0  0  0  0  0  0  0  0  0  0  0  0
  2  1  2  0  0  0  0
  3  1  1  0  0  0  0
  4 44  1  0  0  0  0
  5  4  1  0  0  0  0
  5  3  2  0  0  0  0
  5 92  1  0  0  0  0
  6  2  1  0  0  0  0
  6  4  2  0  0  0  0
  6 93  1  0  0  0  0
  7  2  1  0  0  0  0
  8  3  1  0  0  0  0
  9 23  1  0  0  0  0
  9 64  1  0  0  0  0
  9 94  1  6  0  0  0
 10 39  1  0  0  0  0
 10 95  1  1  0  0  0
 10 25  1  0  0  0  0
 11  9  1  0  0  0  0
 12 10  1  0  0  0  0
 13  8  1  0  0  0  0
 14  7  1  0  0  0  0
 15 13  2  0  0  0  0
 16 14  1  0  0  0  0
 17 12  1  0  0  0  0
 17 16  2  0  0  0  0
 17 96  1  0  0  0  0
 18 12  2  0  0  0  0
 18 97  1  0  0  0  0
 19 11  1  0  0  0  0
 19 98  1  0  0  0  0
 20 13  1  0  0  0  0
 20 19  2  0  0  0  0
 20 99  1  0  0  0  0
 21 14  2  0  0  0  0
 21 18  1  0  0  0  0
 21100  1  0  0  0  0
 22 16  1  0  0  0  0
 23101  1  0  0  0  0
 24 15  1  0  0  0  0
 25102  1  0  0  0  0
 26 32  1  0  0  0  0
 26103  1  1  0  0  0
 27 26  1  0  0  0  0
 27104  1  6  0  0  0
 27 35  1  0  0  0  0
 28 26  1  0  0  0  0
 28 33  1  0  0  0  0
 28105  1  1  0  0  0
 29 27  1  0  0  0  0
 30 28  1  0  0  0  0
 30 34  1  0  0  0  0
 30106  1  6  0  0  0
 31 29  1  0  0  0  0
 31 30  1  0  0  0  0
 31 36  1  0  0  0  0
 31107  1  1  0  0  0
 32108  1  0  0  0  0
 33109  1  0  0  0  0
 34110  1  0  0  0  0
 35  1  1  0  0  0  0
 36 37  1  0  0  0  0
 36111  1  0  0  0  0
 36112  1  0  0  0  0
 37113  1  0  0  0  0
 38 11  2  0  0  0  0
 38 15  1  0  0  0  0
 38114  1  0  0  0  0
 39 54  1  0  0  0  0
 39115  1  6  0  0  0
 40116  1  0  0  0  0
 41 39  1  0  0  0  0
 42 65  1  0  0  0  0
 43 41  1  0  0  0  0
 43117  1  0  0  0  0
 44 40  1  0  0  0  0
 44 42  1  0  0  0  0
 44118  1  1  0  0  0
 45 40  1  0  0  0  0
 46 43  1  0  0  0  0
 46 45  1  0  0  0  0
 46 50  1  0  0  0  0
 46119  1  6  0  0  0
 47 41  2  0  0  0  0
 48 42  2  0  0  0  0
 49 45  2  0  0  0  0
 50 51  1  0  0  0  0
 50120  1  0  0  0  0
 50121  1  0  0  0  0
 51 53  2  0  0  0  0
 51 52  1  0  0  0  0
 52122  1  0  0  0  0
 52123  1  0  0  0  0
 54124  1  0  0  0  0
 55 54  1  0  0  0  0
 56 55  1  0  0  0  0
 56 59  1  0  0  0  0
 56125  1  1  0  0  0
 57 55  2  0  0  0  0
 58 56  1  0  0  0  0
 58126  1  0  0  0  0
 58127  1  0  0  0  0
 59128  1  0  0  0  0
 60 58  1  0  0  0  0
 60129  1  0  0  0  0
 61 59  1  0  0  0  0
 61130  1  0  0  0  0
 61131  1  0  0  0  0
 61132  1  0  0  0  0
 62 60  1  0  0  0  0
 62133  1  0  0  0  0
 62134  1  0  0  0  0
 62135  1  0  0  0  0
 63 60  1  0  0  0  0
 63136  1  0  0  0  0
 63137  1  0  0  0  0
 63138  1  0  0  0  0
 64 68  1  0  0  0  0
 64139  1  1  0  0  0
 65140  1  0  0  0  0
 66 79  1  0  0  0  0
 66 65  1  0  0  0  0
 66 69  1  0  0  0  0
 66141  1  1  0  0  0
 67 76  2  0  0  0  0
 68142  1  0  0  0  0
 69 68  1  0  0  0  0
 69 70  2  0  0  0  0
 71 72  2  0  0  0  0
 71 73  1  0  0  0  0
 73143  1  0  0  0  0
 74 84  1  0  0  0  0
 74 75  1  0  0  0  0
 74144  1  6  0  0  0
 74 71  1  0  0  0  0
 75145  1  0  0  0  0
 76 64  1  0  0  0  0
 76 75  1  0  0  0  0
 78 77  2  0  0  0  0
 79 80  2  0  0  0  0
 80 77  1  0  0  0  0
 80146  1  0  0  0  0
 81 82  2  0  0  0  0
 81 78  1  0  0  0  0
 81147  1  0  0  0  0
 82 79  1  0  0  0  0
 82148  1  0  0  0  0
 83 78  1  0  0  0  0
 83149  1  0  0  0  0
 84 85  2  0  0  0  0
 84 87  1  0  0  0  0
 85 88  1  0  0  0  0
 85150  1  0  0  0  0
 86 90  1  0  0  0  0
 86151  1  0  0  0  0
 87 77  1  0  0  0  0
 88 86  2  0  0  0  0
 88 89  1  0  0  0  0
 89152  1  0  0  0  0
 90 87  2  0  0  0  0
 90 91  1  0  0  0  0
 91153  1  0  0  0  0
M  END
>  <DRUGBANK_ID>
DB04529

>  <SECONDARY_ACCESSION_NUMBERS>
EXPT01304

>  <COMMON_NAME>
Desvancosaminyl vancomycin

>  <CAS_NUMBER>
101485-50-1

>  <SYNONYMS>
Pseudovancomycin; Vancomycin pseudoaglycone

$$$$
