
 OpenBabel10282417233D

 47 50  0  0  0  0  0  0  0  0999 V2000
    3.2881   -1.9018   -0.0904 O   0  0  0  0  0  0  0  0  0  0  0  0
    2.0796   -1.7864   -0.2583 C   0  0  0  0  0  0  0  0  0  0  0  0
    1.4175   -1.8463   -1.6180 C   0  0  0  0  0  0  0  0  0  0  0  0
    0.0750   -1.7883   -1.6593 C   0  0  0  0  0  0  0  0  0  0  0  0
   -0.8169   -1.5200   -0.4565 C   0  0  1  0  0  0  0  0  0  0  0  0
   -0.0357   -0.7632    0.6544 C   0  0  1  0  0  0  0  0  0  0  0  0
    0.3109    0.6744    0.1950 C   0  0  0  0  0  0  0  0  0  0  0  0
    1.3703    1.4137    0.7565 C   0  0  0  0  0  0  0  0  0  0  0  0
    1.7392    2.6733    0.2576 C   0  0  0  0  0  0  0  0  0  0  0  0
    0.9963    3.2294   -0.7871 C   0  0  0  0  0  0  0  0  0  0  0  0
   -0.1037    2.5527   -1.3144 C   0  0  0  0  0  0  0  0  0  0  0  0
   -0.4682    1.2907   -0.8196 C   0  0  0  0  0  0  0  0  0  0  0  0
   -1.6901    0.6249   -1.4252 C   0  0  0  0  0  0  0  0  0  0  0  0
   -2.0941   -0.7160   -0.7705 C   0  0  2  0  0  0  0  0  0  0  0  0
   -2.9213   -0.6553    0.4632 N   0  0  0  0  0  0  0  0  0  0  0  0
   -2.2742    0.0256    1.5845 C   0  0  0  0  0  0  0  0  0  0  0  0
   -0.9351   -0.6416    1.9053 C   0  0  0  0  0  0  0  0  0  0  0  0
   -4.2622   -0.1302    0.2376 C   0  0  0  0  0  0  0  0  0  0  0  0
    2.7785    3.4586    0.6978 O   0  0  0  0  0  0  0  0  0  0  0  0
    3.5984    2.9266    1.7372 C   0  0  0  0  0  0  0  0  0  0  0  0
    2.0678    0.9129    1.8181 O   0  0  0  0  0  0  0  0  0  0  0  0
    1.1710   -1.6831    0.9448 C   0  0  0  0  0  0  0  0  0  0  0  0
    2.1060   -1.9814   -2.8128 O   0  0  0  0  0  0  0  0  0  0  0  0
    3.5265   -2.0079   -2.7334 C   0  0  0  0  0  0  0  0  0  0  0  0
   -1.1292   -2.5060   -0.0798 H   0  0  0  0  0  0  0  0  0  0  0  0
   -0.4158   -1.8854   -2.6253 H   0  0  0  0  0  0  0  0  0  0  0  0
    1.2665    4.2040   -1.1878 H   0  0  0  0  0  0  0  0  0  0  0  0
   -0.6738    3.0119   -2.1214 H   0  0  0  0  0  0  0  0  0  0  0  0
   -1.4653    0.4295   -2.4837 H   0  0  0  0  0  0  0  0  0  0  0  0
   -2.5323    1.3250   -1.4242 H   0  0  0  0  0  0  0  0  0  0  0  0
   -2.6767   -1.2837   -1.5094 H   0  0  0  0  0  0  0  0  0  0  0  0
   -2.9009   -0.0460    2.4820 H   0  0  0  0  0  0  0  0  0  0  0  0
   -2.1472    1.0971    1.3871 H   0  0  0  0  0  0  0  0  0  0  0  0
   -1.1258   -1.6412    2.3167 H   0  0  0  0  0  0  0  0  0  0  0  0
   -0.4454   -0.0719    2.7039 H   0  0  0  0  0  0  0  0  0  0  0  0
   -4.2589    0.8949   -0.1428 H   0  0  0  0  0  0  0  0  0  0  0  0
   -4.8066   -0.7693   -0.4646 H   0  0  0  0  0  0  0  0  0  0  0  0
   -4.8369   -0.1369    1.1714 H   0  0  0  0  0  0  0  0  0  0  0  0
    3.0248    2.8128    2.6654 H   0  0  0  0  0  0  0  0  0  0  0  0
    4.0793    1.9901    1.4281 H   0  0  0  0  0  0  0  0  0  0  0  0
    4.4004    3.6344    1.9556 H   0  0  0  0  0  0  0  0  0  0  0  0
    1.5145    0.3416    2.3623 H   0  0  0  0  0  0  0  0  0  0  0  0
    0.8336   -2.6975    1.1920 H   0  0  0  0  0  0  0  0  0  0  0  0
    1.7804   -1.3867    1.7985 H   0  0  0  0  0  0  0  0  0  0  0  0
    3.9209   -1.0825   -2.2989 H   0  0  0  0  0  0  0  0  0  0  0  0
    3.8630   -2.8934   -2.1853 H   0  0  0  0  0  0  0  0  0  0  0  0
    3.9210   -2.0864   -3.7498 H   0  0  0  0  0  0  0  0  0  0  0  0
  1  2  2  0  0  0  0
  2  3  1  0  0  0  0
  3  4  2  0  0  0  0
  3 23  1  0  0  0  0
  4  5  1  0  0  0  0
  4 26  1  0  0  0  0
  5  6  1  0  0  0  0
  5 25  1  1  0  0  0
  6  7  1  6  0  0  0
  6 17  1  0  0  0  0
  6 22  1  0  0  0  0
  7  8  1  0  0  0  0
  8  9  2  0  0  0  0
  8 21  1  0  0  0  0
  9 10  1  0  0  0  0
  9 19  1  0  0  0  0
 10 11  2  0  0  0  0
 10 27  1  0  0  0  0
 11 12  1  0  0  0  0
 11 28  1  0  0  0  0
 12  7  2  0  0  0  0
 12 13  1  0  0  0  0
 13 14  1  0  0  0  0
 13 29  1  0  0  0  0
 13 30  1  0  0  0  0
 14  5  1  0  0  0  0
 14 15  1  0  0  0  0
 14 31  1  6  0  0  0
 15 16  1  0  0  0  0
 15 18  1  0  0  0  0
 16 17  1  0  0  0  0
 16 32  1  0  0  0  0
 16 33  1  0  0  0  0
 17 34  1  0  0  0  0
 17 35  1  0  0  0  0
 18 36  1  0  0  0  0
 18 37  1  0  0  0  0
 18 38  1  0  0  0  0
 19 20  1  0  0  0  0
 20 39  1  0  0  0  0
 20 40  1  0  0  0  0
 20 41  1  0  0  0  0
 21 42  1  0  0  0  0
 22  2  1  0  0  0  0
 22 43  1  0  0  0  0
 22 44  1  0  0  0  0
 23 24  1  0  0  0  0
 24 45  1  0  0  0  0
 24 46  1  0  0  0  0
 24 47  1  0  0  0  0
M  END
>  <DRUGBANK_ID>
DB16892

>  <COMMON_NAME>
Sinomenine

>  <CAS_NUMBER>
115-53-7

>  <UNII>
63LT81K70N

>  <SYNONYMS>
Coculine; Kukoline

$$$$
