
 OpenBabel10282417123D

 62 66  0  0  0  0  0  0  0  0999 V2000
    1.0691   -0.0339    0.0639 P   0  0  3  0  0  0  0  0  0  0  0  0
    4.6241    1.0880   -2.6513 O   0  0  0  0  0  0  0  0  0  0  0  0
    4.0347    2.9107    1.6649 O   0  0  0  0  0  0  0  0  0  0  0  0
    0.9959    1.2633    1.0740 O   0  0  0  0  0  0  0  0  0  0  0  0
    0.8998    0.3324   -1.5246 O   0  0  0  0  0  0  0  0  0  0  0  0
    2.4769    4.1886   -0.8131 O   0  0  0  0  0  0  0  0  0  0  0  0
    3.3414    2.2202   -2.7100 O   0  0  0  0  0  0  0  0  0  0  0  0
   -0.6609   -0.0339    0.0639 O   0  0  0  0  0  0  0  0  0  0  0  0
    2.6174   -0.0339    0.0639 O   0  0  0  0  0  0  0  0  0  0  0  0
    3.6914    4.4394    5.0199 O   0  0  0  0  0  0  0  0  0  0  0  0
    4.6901    2.2701   -5.0439 N   0  0  0  0  0  0  0  0  0  0  0  0
    3.6333    4.7716    2.7671 N   0  0  0  0  0  0  0  0  0  0  0  0
    6.2074    2.1010   -6.6334 N   0  0  0  0  0  0  0  0  0  0  0  0
    3.0323    0.4849   -6.1015 N   0  0  0  0  0  0  0  0  0  0  0  0
    4.8233    6.2464    4.1755 N   0  0  0  0  0  0  0  0  0  0  0  0
    4.4384   -0.9426   -7.5685 N   0  0  0  0  0  0  0  0  0  0  0  0
    6.7548   -0.4207   -7.7540 N   0  0  0  0  0  0  0  0  0  0  0  0
    5.7781    8.1337    3.2241 N   0  0  0  0  0  0  0  0  0  0  0  0
    1.8156    2.3776    0.7771 C   0  0  2  0  0  0  0  0  0  0  0  0
    3.0132    1.1276   -1.5683 C   0  0  1  0  0  0  0  0  0  0  0  0
    2.2279    3.0448   -1.7144 C   0  0  2  0  0  0  0  0  0  0  0  0
    3.4598    2.2268    0.5629 C   0  0  1  0  0  0  0  0  0  0  0  0
    1.7031    3.5676    1.7080 C   0  0  0  0  0  0  0  0  0  0  0  0
    3.1226    3.8815   -3.2505 C   0  0  0  0  0  0  0  0  0  0  0  0
    4.6862    2.7090   -3.6696 C   0  0  1  0  0  0  0  0  0  0  0  0
    3.0177    3.4932    2.4917 C   0  0  1  0  0  0  0  0  0  0  0  0
    2.1154    0.0912   -2.2246 C   0  0  0  0  0  0  0  0  0  0  0  0
    4.3118    2.6642   -1.1076 C   0  0  0  0  0  0  0  0  0  0  0  0
    4.1570    1.2779   -5.9263 C   0  0  0  0  0  0  0  0  0  0  0  0
    5.8198    2.7857   -5.6135 C   0  0  0  0  0  0  0  0  0  0  0  0
    3.9557    5.5795    1.7104 C   0  0  0  0  0  0  0  0  0  0  0  0
    4.0255    5.1168    4.0502 C   0  0  0  0  0  0  0  0  0  0  0  0
    5.2794    1.1017   -6.7280 C   0  0  0  0  0  0  0  0  0  0  0  0
    4.3595    6.8185    1.8583 C   0  0  0  0  0  0  0  0  0  0  0  0
    5.4613   -0.1092   -7.3908 C   0  0  0  0  0  0  0  0  0  0  0  0
    4.9736    7.0407    3.1590 C   0  0  0  0  0  0  0  0  0  0  0  0
    3.2681   -0.5526   -7.0203 C   0  0  0  0  0  0  0  0  0  0  0  0
    7.0003   -1.3774   -7.9291 H   0  0  0  0  0  0  0  0  0  0  0  0
    7.4363    0.2400   -7.3812 H   0  0  0  0  0  0  0  0  0  0  0  0
    5.9746    8.6939    2.4039 H   0  0  0  0  0  0  0  0  0  0  0  0
    6.3252    8.2885    4.0562 H   0  0  0  0  0  0  0  0  0  0  0  0
    3.2211    4.0534   -0.2108 H   0  0  0  0  0  0  0  0  0  0  0  0
    3.5718    1.3431   -3.1743 H   0  0  0  0  0  0  0  0  0  0  0  0
   -0.9575    0.8011   -0.3418 H   0  0  0  0  0  0  0  0  0  0  0  0
    1.2024    2.6471   -0.0536 H   0  0  0  0  0  0  0  0  0  0  0  0
    3.7934    0.8054   -0.8613 H   0  0  0  0  0  0  0  0  0  0  0  0
    1.1454    3.0537   -1.8854 H   0  0  0  0  0  0  0  0  0  0  0  0
    3.8223    1.2448    0.8951 H   0  0  0  0  0  0  0  0  0  0  0  0
    1.6743    4.5041    1.1348 H   0  0  0  0  0  0  0  0  0  0  0  0
    0.7706    3.6215    2.2737 H   0  0  0  0  0  0  0  0  0  0  0  0
    2.3684    3.6545   -4.0169 H   0  0  0  0  0  0  0  0  0  0  0  0
    3.3780    4.9004   -3.0021 H   0  0  0  0  0  0  0  0  0  0  0  0
    5.5725    3.1528   -3.1970 H   0  0  0  0  0  0  0  0  0  0  0  0
    2.8163    2.8739    3.3778 H   0  0  0  0  0  0  0  0  0  0  0  0
    2.5764   -0.8975   -2.0581 H   0  0  0  0  0  0  0  0  0  0  0  0
    2.0252    0.2214   -3.3016 H   0  0  0  0  0  0  0  0  0  0  0  0
    4.5223    3.7254   -1.2738 H   0  0  0  0  0  0  0  0  0  0  0  0
    5.3341    2.2451   -1.0889 H   0  0  0  0  0  0  0  0  0  0  0  0
    6.3861    3.5585   -5.1140 H   0  0  0  0  0  0  0  0  0  0  0  0
    3.8382    5.2608    0.7056 H   0  0  0  0  0  0  0  0  0  0  0  0
    4.4134    7.4924    1.0216 H   0  0  0  0  0  0  0  0  0  0  0  0
    2.4509   -1.2169   -7.3493 H   0  0  0  0  0  0  0  0  0  0  0  0
  1  4  1  0  0  0  0
  1  5  1  0  0  0  0
  1  8  1  0  0  0  0
  1  9  2  0  0  0  0
  2 20  1  0  0  0  0
  2 25  1  0  0  0  0
  3 22  1  0  0  0  0
  3 26  1  0  0  0  0
  5 27  1  0  0  0  0
  6 42  1  0  0  0  0
  7 28  1  0  0  0  0
  7 43  1  0  0  0  0
  8 44  1  0  0  0  0
 10 32  2  0  0  0  0
 11 29  1  0  0  0  0
 11 30  1  0  0  0  0
 12 31  1  0  0  0  0
 12 32  1  0  0  0  0
 13 30  2  0  0  0  0
 13 33  1  0  0  0  0
 14 29  2  0  0  0  0
 14 37  1  0  0  0  0
 15 32  1  0  0  0  0
 15 36  2  0  0  0  0
 16 35  1  0  0  0  0
 16 37  2  0  0  0  0
 17 35  1  0  0  0  0
 17 38  1  0  0  0  0
 17 39  1  0  0  0  0
 18 36  1  0  0  0  0
 18 40  1  0  0  0  0
 18 41  1  0  0  0  0
 19  4  1  0  0  0  0
 19 22  1  0  0  0  0
 19 23  1  0  0  0  0
 19 45  1  6  0  0  0
 20 21  1  0  0  0  0
 20 27  1  0  0  0  0
 20 46  1  1  0  0  0
 21  6  1  0  0  0  0
 21 24  1  0  0  0  0
 21 47  1  6  0  0  0
 22 48  1  1  0  0  0
 22 28  1  0  0  0  0
 23 26  1  0  0  0  0
 23 49  1  0  0  0  0
 23 50  1  0  0  0  0
 24 25  1  0  0  0  0
 24 51  1  0  0  0  0
 24 52  1  0  0  0  0
 25 53  1  1  0  0  0
 25 11  1  0  0  0  0
 26 54  1  1  0  0  0
 26 12  1  0  0  0  0
 27 55  1  0  0  0  0
 27 56  1  0  0  0  0
 28 57  1  0  0  0  0
 28 58  1  0  0  0  0
 29 33  1  0  0  0  0
 30 59  1  0  0  0  0
 31 34  2  0  0  0  0
 31 60  1  0  0  0  0
 33 35  2  0  0  0  0
 34 36  1  0  0  0  0
 34 61  1  0  0  0  0
 37 62  1  0  0  0  0
M  END
>  <DRUGBANK_ID>
DB02573

>  <SECONDARY_ACCESSION_NUMBERS>
EXPT00997

>  <COMMON_NAME>
2'-deoxycytidine-2'-deoxyadenosine-3',5'-monophosphate

$$$$
