
 OpenBabel10282417193D

 52 55  0  0  1  0  0  0  0  0999 V2000
    1.6303   -7.0969    4.2899 C   0  0  0  0  0  0  0  0  0  0  0  0
    1.1104   -5.9284    5.1709 C   0  0  0  0  0  0  0  0  0  0  0  0
    0.1777   -5.0657    4.2765 C   0  0  0  0  0  0  0  0  0  0  0  0
    0.9256   -4.2765    3.2601 N   0  0  3  0  0  0  0  0  0  0  0  0
    1.9276   -3.4173    3.8867 C   0  0  0  0  0  0  0  0  0  0  0  0
    2.8651   -4.2454    4.7591 C   0  0  0  0  0  0  0  0  0  0  0  0
    2.1337   -5.0239    5.7713 N   0  0  0  0  0  0  0  0  0  0  0  0
    3.0717   -5.6625    6.6753 C   0  0  0  0  0  0  0  0  0  0  0  0
    0.0665   -3.4859    2.3923 C   0  0  2  0  0  0  0  0  0  0  0  0
   -0.9610   -2.6244    3.1437 C   0  0  0  0  0  0  0  0  0  0  0  0
   -2.3752   -3.2370    2.9020 C   0  0  2  0  0  0  0  0  0  0  0  0
   -2.1098   -4.3628    1.9162 C   0  0  0  0  0  0  0  0  0  0  0  0
   -0.7557   -4.4147    1.5655 C   0  0  0  0  0  0  0  0  0  0  0  0
   -0.2496   -5.3453    0.6628 C   0  0  0  0  0  0  0  0  0  0  0  0
   -1.1218   -6.2536    0.1027 C   0  0  0  0  0  0  0  0  0  0  0  0
   -2.4858   -6.2283    0.4444 C   0  0  0  0  0  0  0  0  0  0  0  0
   -2.9800   -5.2786    1.3595 C   0  0  0  0  0  0  0  0  0  0  0  0
   -0.5217   -7.4388   -0.9919 Cl  0  0  0  0  0  0  0  0  0  0  0  0
   -3.2212   -2.1162    2.3344 C   0  0  0  0  0  0  0  0  0  0  0  0
   -2.8264   -1.5949    1.0891 C   0  0  0  0  0  0  0  0  0  0  0  0
   -3.2993   -0.3739    0.6433 C   0  0  0  0  0  0  0  0  0  0  0  0
   -4.2774    0.2828    1.3709 C   0  0  0  0  0  0  0  0  0  0  0  0
   -4.7844   -0.2851    2.5437 C   0  0  0  0  0  0  0  0  0  0  0  0
   -4.2255   -1.4633    3.0561 C   0  0  0  0  0  0  0  0  0  0  0  0
    0.2804   -6.5341    6.3265 C   0  0  0  0  0  0  0  0  0  0  0  0
    1.1342   -7.1249    3.3094 H   0  0  0  0  0  0  0  0  0  0  0  0
    1.4270   -8.0687    4.7532 H   0  0  0  0  0  0  0  0  0  0  0  0
    2.7013   -7.0401    4.0912 H   0  0  0  0  0  0  0  0  0  0  0  0
   -0.5238   -5.7470    3.7746 H   0  0  0  0  0  0  0  0  0  0  0  0
   -0.4380   -4.4268    4.9182 H   0  0  0  0  0  0  0  0  0  0  0  0
    2.5257   -2.9167    3.1137 H   0  0  0  0  0  0  0  0  0  0  0  0
    1.4613   -2.6286    4.4900 H   0  0  0  0  0  0  0  0  0  0  0  0
    3.4716   -4.9007    4.1231 H   0  0  0  0  0  0  0  0  0  0  0  0
    3.5481   -3.5423    5.2495 H   0  0  0  0  0  0  0  0  0  0  0  0
    3.6669   -6.4247    6.1686 H   0  0  0  0  0  0  0  0  0  0  0  0
    3.7460   -4.9102    7.0982 H   0  0  0  0  0  0  0  0  0  0  0  0
    2.5641   -6.1072    7.5342 H   0  0  0  0  0  0  0  0  0  0  0  0
    0.6548   -2.8635    1.7020 H   0  0  0  0  0  0  0  0  0  0  0  0
   -0.7576   -2.5312    4.2173 H   0  0  0  0  0  0  0  0  0  0  0  0
   -0.8526   -1.5841    2.8039 H   0  0  0  0  0  0  0  0  0  0  0  0
   -2.7694   -3.6333    3.8473 H   0  0  0  0  0  0  0  0  0  0  0  0
    0.8203   -5.3765    0.4586 H   0  0  0  0  0  0  0  0  0  0  0  0
   -3.1577   -6.9507   -0.0022 H   0  0  0  0  0  0  0  0  0  0  0  0
   -4.0375   -5.2771    1.6172 H   0  0  0  0  0  0  0  0  0  0  0  0
   -2.0700   -2.1069    0.5014 H   0  0  0  0  0  0  0  0  0  0  0  0
   -2.8737    0.0532   -0.2586 H   0  0  0  0  0  0  0  0  0  0  0  0
   -4.6431    1.2438    1.0207 H   0  0  0  0  0  0  0  0  0  0  0  0
   -5.5916    0.2158    3.0702 H   0  0  0  0  0  0  0  0  0  0  0  0
   -4.5620   -1.8260    4.0261 H   0  0  0  0  0  0  0  0  0  0  0  0
   -0.5894   -7.0913    5.9643 H   0  0  0  0  0  0  0  0  0  0  0  0
    0.8840   -7.2420    6.9068 H   0  0  0  0  0  0  0  0  0  0  0  0
   -0.0750   -5.7592    7.0160 H   0  0  0  0  0  0  0  0  0  0  0  0
  1  2  1  0  0  0  0
  1 26  1  0  0  0  0
  1 27  1  0  0  0  0
  1 28  1  0  0  0  0
  2  3  1  0  0  0  0
  2  7  1  0  0  0  0
  2 25  1  0  0  0  0
  3  4  1  0  0  0  0
  3 29  1  0  0  0  0
  3 30  1  0  0  0  0
  4  5  1  0  0  0  0
  5  6  1  0  0  0  0
  5 31  1  0  0  0  0
  5 32  1  0  0  0  0
  6  7  1  0  0  0  0
  6 33  1  0  0  0  0
  6 34  1  0  0  0  0
  7  8  1  0  0  0  0
  8 35  1  0  0  0  0
  8 36  1  0  0  0  0
  8 37  1  0  0  0  0
  9 10  1  0  0  0  0
  9 13  1  0  0  0  0
  9 38  1  6  0  0  0
  9  4  1  0  0  0  0
 10 11  1  0  0  0  0
 10 39  1  0  0  0  0
 10 40  1  0  0  0  0
 11 12  1  0  0  0  0
 11 41  1  1  0  0  0
 11 19  1  0  0  0  0
 12 13  2  0  0  0  0
 12 17  1  0  0  0  0
 13 14  1  0  0  0  0
 14 15  2  0  0  0  0
 14 42  1  0  0  0  0
 15 16  1  0  0  0  0
 15 18  1  0  0  0  0
 16 17  2  0  0  0  0
 16 43  1  0  0  0  0
 17 44  1  0  0  0  0
 19 20  2  0  0  0  0
 19 24  1  0  0  0  0
 20 21  1  0  0  0  0
 20 45  1  0  0  0  0
 21 22  2  0  0  0  0
 21 46  1  0  0  0  0
 22 23  1  0  0  0  0
 22 47  1  0  0  0  0
 23 24  2  0  0  0  0
 23 48  1  0  0  0  0
 24 49  1  0  0  0  0
 25 50  1  0  0  0  0
 25 51  1  0  0  0  0
 25 52  1  0  0  0  0
M  END
>  <DRUGBANK_ID>
DB12188

>  <COMMON_NAME>
Zicronapine

>  <CAS_NUMBER>
170381-16-5

>  <UNII>
QZV11V7G6A

>  <SYNONYMS>
Zicronapine

$$$$
