
 OpenBabel10282417203D

 48 49  0  0  1  0  0  0  0  0999 V2000
    1.4925    0.3159   -0.0763 C   0  0  0  0  0  0  0  0  0  0  0  0
    0.8863   -1.0253    0.2705 C   0  0  0  0  0  0  0  0  0  0  0  0
   -0.4670   -0.8329   -0.3249 C   0  0  1  0  0  0  0  0  0  0  0  0
   -0.8625    0.5400    0.0502 N   0  0  0  0  0  0  0  0  0  0  0  0
    0.3409    1.3373    0.0393 C   0  0  0  0  0  0  0  0  0  0  0  0
   -2.0738    1.0846    0.4892 C   0  0  0  0  0  0  0  0  0  0  0  0
   -2.1461    2.2548    0.8848 O   0  0  0  0  0  0  0  0  0  0  0  0
   -3.3770    0.2671    0.5006 C   0  0  0  0  0  0  0  0  0  0  0  0
   -3.7781   -0.1637   -0.9310 C   0  0  0  0  0  0  0  0  0  0  0  0
   -3.0049   -1.3340   -1.3733 C   0  0  0  0  0  0  0  0  0  0  0  0
   -2.8885   -2.4708   -0.3520 C   0  0  0  0  0  0  0  0  0  0  0  0
   -4.1347   -3.2684   -0.1460 C   0  0  0  0  0  0  0  0  0  0  0  0
   -4.0707   -4.4931   -0.2579 O   0  0  0  0  0  0  0  0  0  0  0  0
   -5.1463   -2.6025    0.5408 N   0  0  0  0  0  0  0  0  0  0  0  0
   -5.9594   -1.4467    0.1837 C   0  0  0  0  0  0  0  0  0  0  0  0
   -6.5411   -1.0416    1.4886 C   0  0  0  0  0  0  0  0  0  0  0  0
   -7.0110   -2.3803    1.9684 C   0  0  0  0  0  0  0  0  0  0  0  0
   -5.9537   -3.3895    1.4535 C   0  0  2  0  0  0  0  0  0  0  0  0
   -5.1339   -3.9476    2.6024 C   0  0  0  0  0  0  0  0  0  0  0  0
   -5.2302   -5.0966    3.0569 O   0  0  0  0  0  0  0  0  0  0  0  0
   -4.3457   -3.0494    3.2249 O   0  0  0  0  0  0  0  0  0  0  0  0
   -0.3224   -1.2314   -1.8755 C   0  0  0  0  0  0  0  0  0  0  0  0
   -0.5674   -2.3236   -2.3719 O   0  0  0  0  0  0  0  0  0  0  0  0
   -0.0387   -0.1993   -2.6996 O   0  0  0  0  0  0  0  0  0  0  0  0
    2.3396    0.5376    0.5653 H   0  0  0  0  0  0  0  0  0  0  0  0
    1.8423    0.2755   -1.1138 H   0  0  0  0  0  0  0  0  0  0  0  0
    0.7865   -1.1822    1.3514 H   0  0  0  0  0  0  0  0  0  0  0  0
    1.3671   -1.9071   -0.1657 H   0  0  0  0  0  0  0  0  0  0  0  0
   -1.0681   -1.4960    0.2534 H   0  0  0  0  0  0  0  0  0  0  0  0
    0.4063    1.9552    0.9371 H   0  0  0  0  0  0  0  0  0  0  0  0
    0.2839    1.9798   -0.8457 H   0  0  0  0  0  0  0  0  0  0  0  0
   -3.2900   -0.5104    1.2711 H   0  0  0  0  0  0  0  0  0  0  0  0
   -4.1725    0.9079    0.9151 H   0  0  0  0  0  0  0  0  0  0  0  0
   -4.6971   -0.6023   -1.2842 H   0  0  0  0  0  0  0  0  0  0  0  0
   -3.7855    0.7183   -1.5702 H   0  0  0  0  0  0  0  0  0  0  0  0
   -3.2989   -1.7373   -2.3403 H   0  0  0  0  0  0  0  0  0  0  0  0
   -2.1812   -0.7153   -1.6229 H   0  0  0  0  0  0  0  0  0  0  0  0
   -2.0608   -3.1495   -0.6137 H   0  0  0  0  0  0  0  0  0  0  0  0
   -2.6472   -2.1926    0.6870 H   0  0  0  0  0  0  0  0  0  0  0  0
   -6.6256   -1.7240   -0.6407 H   0  0  0  0  0  0  0  0  0  0  0  0
   -5.6043   -0.4614   -0.0198 H   0  0  0  0  0  0  0  0  0  0  0  0
   -5.7327   -0.6303    2.1176 H   0  0  0  0  0  0  0  0  0  0  0  0
   -7.2818   -0.2521    1.3399 H   0  0  0  0  0  0  0  0  0  0  0  0
   -7.1282   -2.3472    3.0485 H   0  0  0  0  0  0  0  0  0  0  0  0
   -7.9683   -2.5612    1.4740 H   0  0  0  0  0  0  0  0  0  0  0  0
   -6.4198   -4.2054    0.8926 H   0  0  0  0  0  0  0  0  0  0  0  0
   -3.9558   -3.5523    3.9712 H   0  0  0  0  0  0  0  0  0  0  0  0
   -0.2107   -0.5649   -3.5964 H   0  0  0  0  0  0  0  0  0  0  0  0
  1  2  1  0  0  0  0
  1  5  1  0  0  0  0
  1 25  1  0  0  0  0
  1 26  1  0  0  0  0
  2  3  1  0  0  0  0
  2 27  1  0  0  0  0
  2 28  1  0  0  0  0
  3  4  1  0  0  0  0
  3 22  1  0  0  0  0
  3 29  1  1  0  0  0
  4  5  1  0  0  0  0
  4  6  1  0  0  0  0
  5 30  1  0  0  0  0
  5 31  1  0  0  0  0
  6  7  2  0  0  0  0
  6  8  1  0  0  0  0
  8  9  1  0  0  0  0
  8 32  1  0  0  0  0
  8 33  1  0  0  0  0
  9 10  1  0  0  0  0
  9 34  1  0  0  0  0
  9 35  1  0  0  0  0
 10 11  1  0  0  0  0
 10 36  1  0  0  0  0
 10 37  1  0  0  0  0
 11 12  1  0  0  0  0
 11 38  1  0  0  0  0
 11 39  1  0  0  0  0
 12 13  2  0  0  0  0
 12 14  1  0  0  0  0
 14 15  1  0  0  0  0
 14 18  1  0  0  0  0
 15 16  1  0  0  0  0
 15 40  1  0  0  0  0
 15 41  1  0  0  0  0
 16 17  1  0  0  0  0
 16 42  1  0  0  0  0
 16 43  1  0  0  0  0
 17 18  1  0  0  0  0
 17 44  1  0  0  0  0
 17 45  1  0  0  0  0
 18 19  1  0  0  0  0
 18 46  1  6  0  0  0
 19 20  2  0  0  0  0
 19 21  1  0  0  0  0
 21 47  1  0  0  0  0
 22 23  2  0  0  0  0
 22 24  1  0  0  0  0
 24 48  1  0  0  0  0
M  END
>  <DRUGBANK_ID>
DB13087

>  <COMMON_NAME>
Miridesap

>  <CAS_NUMBER>
224624-80-0

>  <UNII>
WO97N24A47

>  <SYNONYMS>
1,1'-hexanedioyldi-D-proline; CPHPC; Miridesap

$$$$
