1115
 OpenBabel10282417113D

 43 44  0  0  0  0  0  0  0  0999 V2000
    1.0191   -0.0085    0.0797 O   0  0  0  0  0  0  0  0  0  0  0  0
   -5.4291    0.6322    3.9835 O   0  0  0  0  0  0  0  0  0  0  0  0
    1.0323   -0.7787    2.2379 O   0  0  0  0  0  0  0  0  0  0  0  0
   -3.7619    2.0494    3.9584 O   0  0  0  0  0  0  0  0  0  0  0  0
    2.1561    2.1804    2.6474 O   0  5  0  0  0  0  0  0  0  0  0  0
    0.2995    2.4610    1.5329 O   0  0  0  0  0  0  0  0  0  0  0  0
   -3.0165   -0.8504    0.2324 N   0  0  0  0  0  0  0  0  0  0  0  0
    0.9223    2.1051    2.5430 N   0  3  0  0  0  0  0  0  0  0  0  0
   -1.8409    0.7532    2.2156 C   0  0  3  0  0  0  0  0  0  0  0  0
   -1.0306   -0.1645    1.2186 C   0  0  0  0  0  0  0  0  0  0  0  0
   -3.4178    0.3558    2.2883 C   0  0  0  0  0  0  0  0  0  0  0  0
   -1.1040    0.9043    3.5582 C   0  0  0  0  0  0  0  0  0  0  0  0
   -1.6648   -0.9079    0.3013 C   0  0  0  0  0  0  0  0  0  0  0  0
   -3.8133   -0.4618    1.2667 C   0  0  0  0  0  0  0  0  0  0  0  0
    0.1664    1.5319    3.6820 C   0  0  0  0  0  0  0  0  0  0  0  0
   -1.6862    0.4258    4.7516 C   0  0  0  0  0  0  0  0  0  0  0  0
    0.4432   -0.3828    1.2654 C   0  0  0  0  0  0  0  0  0  0  0  0
   -4.2507    1.0532    3.4150 C   0  0  0  0  0  0  0  0  0  0  0  0
   -1.0811   -1.8971   -0.6614 C   0  0  0  0  0  0  0  0  0  0  0  0
   -5.1109   -1.1115    1.0643 C   0  0  0  0  0  0  0  0  0  0  0  0
    0.8162    1.5815    4.9242 C   0  0  0  0  0  0  0  0  0  0  0  0
   -1.1422    0.7107    5.9985 C   0  0  0  0  0  0  0  0  0  0  0  0
    0.1436    1.2109    6.0819 C   0  0  0  0  0  0  0  0  0  0  0  0
    2.4518   -0.0499    0.0563 C   0  0  0  0  0  0  0  0  0  0  0  0
   -6.4683   -0.1886    3.4439 C   0  0  0  0  0  0  0  0  0  0  0  0
   -3.4473   -1.4757   -0.4464 H   0  0  0  0  0  0  0  0  0  0  0  0
   -1.8971    1.7657    1.7857 H   0  0  0  0  0  0  0  0  0  0  0  0
   -2.6296   -0.1117    4.7631 H   0  0  0  0  0  0  0  0  0  0  0  0
   -1.4208   -2.8994   -0.3781 H   0  0  0  0  0  0  0  0  0  0  0  0
   -1.4491   -1.6706   -1.6669 H   0  0  0  0  0  0  0  0  0  0  0  0
    0.0036   -1.9209   -0.6953 H   0  0  0  0  0  0  0  0  0  0  0  0
   -5.7282   -0.7887    0.2294 H   0  0  0  0  0  0  0  0  0  0  0  0
   -5.1429   -2.1833    1.2795 H   0  0  0  0  0  0  0  0  0  0  0  0
   -5.5636   -0.6762    1.8588 H   0  0  0  0  0  0  0  0  0  0  0  0
    1.8434    1.9268    4.9999 H   0  0  0  0  0  0  0  0  0  0  0  0
   -1.7320    0.5317    6.8940 H   0  0  0  0  0  0  0  0  0  0  0  0
    0.6233    1.3087    7.0487 H   0  0  0  0  0  0  0  0  0  0  0  0
    2.7850   -0.0514   -0.9869 H   0  0  0  0  0  0  0  0  0  0  0  0
    2.8465    0.8515    0.5287 H   0  0  0  0  0  0  0  0  0  0  0  0
    2.8513   -0.9450    0.5433 H   0  0  0  0  0  0  0  0  0  0  0  0
   -6.7726    0.2757    2.4910 H   0  0  0  0  0  0  0  0  0  0  0  0
   -6.0778   -1.2180    3.4442 H   0  0  0  0  0  0  0  0  0  0  0  0
   -7.4138   -0.2567    3.9782 H   0  0  0  0  0  0  0  0  0  0  0  0
  1 17  1  0  0  0  0
  1 24  1  0  0  0  0
  2 18  1  0  0  0  0
  2 25  1  0  0  0  0
  3 17  2  0  0  0  0
  4 18  2  0  0  0  0
  5  8  1  0  0  0  0
  6  8  2  0  0  0  0
  7 13  1  0  0  0  0
  7 14  1  0  0  0  0
  7 26  1  0  0  0  0
  8 15  1  0  0  0  0
  9 10  1  0  0  0  0
  9 11  1  0  0  0  0
  9 12  1  0  0  0  0
  9 27  1  0  0  0  0
 10 13  2  0  0  0  0
 10 17  1  0  0  0  0
 11 14  2  0  0  0  0
 11 18  1  0  0  0  0
 12 15  1  0  0  0  0
 12 16  2  0  0  0  0
 13 19  1  0  0  0  0
 14 20  1  0  0  0  0
 15 21  2  0  0  0  0
 16 22  1  0  0  0  0
 16 28  1  0  0  0  0
 19 29  1  0  0  0  0
 19 30  1  0  0  0  0
 19 31  1  0  0  0  0
 20 32  1  0  0  0  0
 20 33  1  0  0  0  0
 20 34  1  0  0  0  0
 21 23  1  0  0  0  0
 21 35  1  0  0  0  0
 22 23  2  0  0  0  0
 22 36  1  0  0  0  0
 23 37  1  0  0  0  0
 24 38  1  0  0  0  0
 24 39  1  0  0  0  0
 24 40  1  0  0  0  0
 25 41  1  0  0  0  0
 25 42  1  0  0  0  0
 25 43  1  0  0  0  0
M  CHG  2   5  -1   8   1
M  END
>  <DRUGBANK_ID>
DB01115

>  <SECONDARY_ACCESSION_NUMBERS>
APRD00590

>  <COMMON_NAME>
Nifedipine

>  <CAS_NUMBER>
21829-25-4

>  <UNII>
I9ZF7L6G2L

>  <SYNONYMS>
4-(2'-Nitrophenyl)-2,6-dimethyl-1,4-dihydropyridin-3,5-dicarbons√§uredimethylester; Nifedipine; Nifedipino; Nifedipinum

$$$$
