521
 OpenBabel10282417103D

 45 46  0  0  1  0  0  0  0  0999 V2000
    1.1013   -0.0174    0.0175 O   0  0  0  0  0  0  0  0  0  0  0  0
    1.6853   -2.2073   -1.9221 O   0  0  0  0  0  0  0  0  0  0  0  0
    5.5201   -4.7572    0.1641 O   0  0  0  0  0  0  0  0  0  0  0  0
   -1.6448   -3.2957   -1.0098 N   0  0  0  0  0  0  0  0  0  0  0  0
    5.3533   -2.4827    0.2628 N   0  0  0  0  0  0  0  0  0  0  0  0
   -2.3120   -4.5916   -0.8873 C   0  0  0  0  0  0  0  0  0  0  0  0
   -0.2008   -3.3925   -1.1188 C   0  0  0  0  0  0  0  0  0  0  0  0
    0.3945   -1.9966   -1.3457 C   0  0  3  0  0  0  0  0  0  0  0  0
   -1.9559   -5.2813    0.4389 C   0  0  0  0  0  0  0  0  0  0  0  0
   -3.8096   -4.2665   -0.9037 C   0  0  0  0  0  0  0  0  0  0  0  0
   -1.9720   -5.4925   -2.0817 C   0  0  0  0  0  0  0  0  0  0  0  0
    3.1995   -1.3650    0.3508 C   0  0  0  0  0  0  0  0  0  0  0  0
    0.2806   -1.1676   -0.0262 C   0  0  0  0  0  0  0  0  0  0  0  0
    2.6951   -2.7636    0.6228 C   0  0  0  0  0  0  0  0  0  0  0  0
    2.4519   -0.1752    0.1816 C   0  0  0  0  0  0  0  0  0  0  0  0
    4.5978   -1.2950    0.2387 C   0  0  0  0  0  0  0  0  0  0  0  0
    3.3873   -3.7952   -0.2503 C   0  0  0  0  0  0  0  0  0  0  0  0
    4.8353   -3.7533    0.1066 C   0  0  0  0  0  0  0  0  0  0  0  0
    3.1176    1.0500    0.0085 C   0  0  0  0  0  0  0  0  0  0  0  0
    5.2458   -0.0726    0.0674 C   0  0  0  0  0  0  0  0  0  0  0  0
    4.5066    1.1037   -0.0364 C   0  0  0  0  0  0  0  0  0  0  0  0
    2.2397   -1.4228   -1.7892 H   0  0  0  0  0  0  0  0  0  0  0  0
   -1.8935   -2.7157   -0.2096 H   0  0  0  0  0  0  0  0  0  0  0  0
    6.3565   -2.4415    0.3587 H   0  0  0  0  0  0  0  0  0  0  0  0
    0.1450   -4.0463   -1.9259 H   0  0  0  0  0  0  0  0  0  0  0  0
    0.1868   -3.8597   -0.2068 H   0  0  0  0  0  0  0  0  0  0  0  0
   -0.1437   -1.4691   -2.1334 H   0  0  0  0  0  0  0  0  0  0  0  0
   -2.1852   -4.6372    1.2967 H   0  0  0  0  0  0  0  0  0  0  0  0
   -2.5213   -6.2106    0.5538 H   0  0  0  0  0  0  0  0  0  0  0  0
   -0.8946   -5.5466    0.4998 H   0  0  0  0  0  0  0  0  0  0  0  0
   -4.0934   -3.7496   -1.8289 H   0  0  0  0  0  0  0  0  0  0  0  0
   -4.4037   -5.1814   -0.8322 H   0  0  0  0  0  0  0  0  0  0  0  0
   -4.0885   -3.6170   -0.0643 H   0  0  0  0  0  0  0  0  0  0  0  0
   -2.1909   -4.9846   -3.0289 H   0  0  0  0  0  0  0  0  0  0  0  0
   -0.9159   -5.7838   -2.0970 H   0  0  0  0  0  0  0  0  0  0  0  0
   -2.5477   -6.4202   -2.0467 H   0  0  0  0  0  0  0  0  0  0  0  0
    0.3833   -1.7112    0.9228 H   0  0  0  0  0  0  0  0  0  0  0  0
   -0.7597   -0.8273    0.0424 H   0  0  0  0  0  0  0  0  0  0  0  0
    1.6625   -2.9077    0.4316 H   0  0  0  0  0  0  0  0  0  0  0  0
    2.7835   -2.9891    1.6895 H   0  0  0  0  0  0  0  0  0  0  0  0
    3.3280   -3.6091   -1.3298 H   0  0  0  0  0  0  0  0  0  0  0  0
    2.9498   -4.7849   -0.0837 H   0  0  0  0  0  0  0  0  0  0  0  0
    2.5433    1.9677   -0.1307 H   0  0  0  0  0  0  0  0  0  0  0  0
    6.3254   -0.0290   -0.0275 H   0  0  0  0  0  0  0  0  0  0  0  0
    5.0070    2.0569   -0.1877 H   0  0  0  0  0  0  0  0  0  0  0  0
  1 13  1  0  0  0  0
  1 15  1  0  0  0  0
  2  8  1  0  0  0  0
  2 22  1  0  0  0  0
  3 18  2  0  0  0  0
  4  6  1  0  0  0  0
  4  7  1  0  0  0  0
  4 23  1  0  0  0  0
  5 16  1  0  0  0  0
  5 18  1  0  0  0  0
  5 24  1  0  0  0  0
  6  9  1  0  0  0  0
  6 10  1  0  0  0  0
  6 11  1  0  0  0  0
  7  8  1  0  0  0  0
  7 25  1  0  0  0  0
  7 26  1  0  0  0  0
  8 13  1  0  0  0  0
  8 27  1  0  0  0  0
  9 28  1  0  0  0  0
  9 29  1  0  0  0  0
  9 30  1  0  0  0  0
 10 31  1  0  0  0  0
 10 32  1  0  0  0  0
 10 33  1  0  0  0  0
 11 34  1  0  0  0  0
 11 35  1  0  0  0  0
 11 36  1  0  0  0  0
 12 14  1  0  0  0  0
 12 15  1  0  0  0  0
 12 16  2  0  0  0  0
 13 37  1  0  0  0  0
 13 38  1  0  0  0  0
 14 17  1  0  0  0  0
 14 39  1  0  0  0  0
 14 40  1  0  0  0  0
 15 19  2  0  0  0  0
 16 20  1  0  0  0  0
 17 18  1  0  0  0  0
 17 41  1  0  0  0  0
 17 42  1  0  0  0  0
 19 21  1  0  0  0  0
 19 43  1  0  0  0  0
 20 21  2  0  0  0  0
 20 44  1  0  0  0  0
 21 45  1  0  0  0  0
M  END
>  <DRUGBANK_ID>
DB00521

>  <SECONDARY_ACCESSION_NUMBERS>
APRD00195

>  <COMMON_NAME>
Carteolol

>  <CAS_NUMBER>
51781-06-7

>  <UNII>
8NF31401XG

>  <SYNONYMS>
Carteolol; CartÃ©olol; Carteololum

$$$$
