
 OpenBabel10282417183D

 30 30  0  0  1  0  0  0  0  0999 V2000
    0.9920   -0.5604    0.0837 O   0  0  0  0  0  0  0  0  0  0  0  0
   -2.7931   -0.6384    2.3736 O   0  0  0  0  0  0  0  0  0  0  0  0
    1.0256   -1.7444   -1.8137 O   0  0  0  0  0  0  0  0  0  0  0  0
   -1.7162   -1.1511    0.4906 N   0  0  0  0  0  0  0  0  0  0  0  0
   -0.6712   -0.3099   -3.8733 N   0  0  0  0  0  0  0  0  0  0  0  0
   -0.5227    1.7557   -4.6679 N   0  0  0  0  0  0  0  0  0  0  0  0
   -0.1989    1.7045    0.1090 N   0  0  0  0  0  0  0  0  0  0  0  0
   -1.1929   -1.0935   -0.8978 C   0  0  1  0  0  0  0  0  0  0  0  0
   -1.8754   -0.0009   -1.7419 C   0  0  0  0  0  0  0  0  0  0  0  0
   -1.2450    0.5012   -2.9557 C   0  0  0  0  0  0  0  0  0  0  0  0
   -2.3942   -0.2579    1.2709 C   0  0  0  0  0  0  0  0  0  0  0  0
   -2.7231    1.1366    0.7808 C   0  0  0  0  0  0  0  0  0  0  0  0
    0.3662   -1.2020   -0.9219 C   0  0  0  0  0  0  0  0  0  0  0  0
   -1.0967    1.7888   -3.4328 C   0  0  0  0  0  0  0  0  0  0  0  0
   -1.5111    2.1022    0.6055 C   0  0  0  0  0  0  0  0  0  0  0  0
   -0.3113    0.4827   -4.9158 C   0  0  0  0  0  0  0  0  0  0  0  0
    1.9331   -0.3944   -0.1584 H   0  0  0  0  0  0  0  0  0  0  0  0
   -1.5195   -2.0081    0.9990 H   0  0  0  0  0  0  0  0  0  0  0  0
   -0.5460   -1.3090   -3.7812 H   0  0  0  0  0  0  0  0  0  0  0  0
   -0.0175    1.8757   -0.8807 H   0  0  0  0  0  0  0  0  0  0  0  0
   -0.0286    0.7161    0.3004 H   0  0  0  0  0  0  0  0  0  0  0  0
   -1.5082   -2.0465   -1.3404 H   0  0  0  0  0  0  0  0  0  0  0  0
   -2.9335   -0.2454   -1.8986 H   0  0  0  0  0  0  0  0  0  0  0  0
   -1.9299    0.9340   -1.2309 H   0  0  0  0  0  0  0  0  0  0  0  0
   -3.3918    1.0395   -0.0888 H   0  0  0  0  0  0  0  0  0  0  0  0
   -3.4021    1.6075    1.5021 H   0  0  0  0  0  0  0  0  0  0  0  0
   -1.3855    2.7276   -2.9630 H   0  0  0  0  0  0  0  0  0  0  0  0
   -1.8350    2.9467   -0.0126 H   0  0  0  0  0  0  0  0  0  0  0  0
   -1.2733    2.4625    1.6012 H   0  0  0  0  0  0  0  0  0  0  0  0
    0.0976    0.0655   -5.8190 H   0  0  0  0  0  0  0  0  0  0  0  0
  1 13  1  0  0  0  0
  1 17  1  0  0  0  0
  2 11  2  0  0  0  0
  3 13  2  0  0  0  0
  4 11  1  0  0  0  0
  4 18  1  0  0  0  0
  5 10  1  0  0  0  0
  5 16  1  0  0  0  0
  5 19  1  0  0  0  0
  6 14  1  0  0  0  0
  6 16  2  0  0  0  0
  7 15  1  0  0  0  0
  7 20  1  0  0  0  0
  7 21  1  0  0  0  0
  8  4  1  0  0  0  0
  8  9  1  0  0  0  0
  8 13  1  0  0  0  0
  8 22  1  6  0  0  0
  9 10  1  0  0  0  0
  9 23  1  0  0  0  0
  9 24  1  0  0  0  0
 10 14  2  0  0  0  0
 11 12  1  0  0  0  0
 12 15  1  0  0  0  0
 12 25  1  0  0  0  0
 12 26  1  0  0  0  0
 14 27  1  0  0  0  0
 15 28  1  0  0  0  0
 15 29  1  0  0  0  0
 16 30  1  0  0  0  0
M  END
>  <DRUGBANK_ID>
DB11695

>  <COMMON_NAME>
Carnosine

>  <CAS_NUMBER>
305-84-0

>  <UNII>
8HO6PVN24W

>  <SYNONYMS>
L-Carnosine

$$$$
