
 OpenBabel10282417103D

 48 51  0  0  0  0  0  0  0  0999 V2000
    1.0813   -1.3711    0.1432 C   0  0  0  0  0  0  0  0  0  0  0  0
   -0.1353   -0.5388   -0.4411 C   0  0  2  0  0  0  0  0  0  0  0  0
    2.0500    1.9843   -0.1321 C   0  0  2  0  0  0  0  0  0  0  0  0
    2.4685   -0.6734   -0.2640 C   0  0  0  0  0  0  0  0  0  0  0  0
    2.7165    0.7087    0.3187 C   0  0  0  0  0  0  0  0  0  0  0  0
    3.5229    3.1841    0.4419 C   0  0  0  0  0  0  0  0  0  0  0  0
    3.3324    0.8478    1.5054 C   0  0  0  0  0  0  0  0  0  0  0  0
    4.2234    3.0098    1.9468 C   0  0  0  0  0  0  0  0  0  0  0  0
    3.0818    2.1799    2.1701 C   0  0  0  0  0  0  0  0  0  0  0  0
    0.3316    1.1576    0.2153 C   0  0  1  0  0  0  0  0  0  0  0  0
   -3.8523   -1.0283   -1.3304 C   0  0  0  0  0  0  0  0  0  0  0  0
   -2.2642    1.0199    0.3617 C   0  0  0  0  0  0  0  0  0  0  0  0
   -4.8440   -0.8087   -0.1349 C   0  0  0  0  0  0  0  0  0  0  0  0
   -1.0114    1.8200   -0.1272 C   0  0  0  0  0  0  0  0  0  0  0  0
    1.9967    2.7476    2.3406 O   0  0  0  0  0  0  0  0  0  0  0  0
    2.0325    2.1990   -1.2078 H   0  0  0  0  0  0  0  0  0  0  0  0
    0.3596    0.9985    1.3102 H   0  0  0  0  0  0  0  0  0  0  0  0
    0.2180   -0.4990   -1.4687 H   0  0  0  0  0  0  0  0  0  0  0  0
   -2.5515   -0.2518   -0.3576 C   0  0  1  0  0  0  0  0  0  0  0  0
   -2.1269   -0.0973   -2.1942 C   0  0  0  0  0  0  0  0  0  0  0  0
   -1.8899   -1.3838   -0.7851 C   0  0  2  0  0  0  0  0  0  0  0  0
   -1.7886   -2.3006   -0.1979 H   0  0  0  0  0  0  0  0  0  0  0  0
   -3.7076   -1.4387    0.4767 C   0  0  1  0  0  0  0  0  0  0  0  0
   -3.6406   -1.3952    1.8598 O   0  0  0  0  0  0  0  0  0  0  0  0
   -3.8036   -3.0126   -0.0194 C   0  0  0  0  0  0  0  0  0  0  0  0
   -3.8078   -4.0274   -0.6208 C   0  0  0  0  0  0  0  0  0  0  0  0
    1.0510   -1.4356    1.2422 H   0  0  0  0  0  0  0  0  0  0  0  0
    1.0961   -2.4020   -0.2308 H   0  0  0  0  0  0  0  0  0  0  0  0
    3.2815   -1.3116    0.1060 H   0  0  0  0  0  0  0  0  0  0  0  0
    2.5671   -0.6734   -1.3561 H   0  0  0  0  0  0  0  0  0  0  0  0
    3.4386    4.2911    0.5040 H   0  0  0  0  0  0  0  0  0  0  0  0
    4.4019    3.1156   -0.2635 H   0  0  0  0  0  0  0  0  0  0  0  0
    4.3266    0.4111    1.5647 H   0  0  0  0  0  0  0  0  0  0  0  0
    4.1811    3.7955    2.7308 H   0  0  0  0  0  0  0  0  0  0  0  0
    5.1827    2.4666    2.0753 H   0  0  0  0  0  0  0  0  0  0  0  0
   -4.4873   -1.5098   -2.1129 H   0  0  0  0  0  0  0  0  0  0  0  0
   -4.0553   -0.0429   -1.8215 H   0  0  0  0  0  0  0  0  0  0  0  0
   -3.1504    1.6304    0.1292 H   0  0  0  0  0  0  0  0  0  0  0  0
   -2.2984    0.8531    1.4434 H   0  0  0  0  0  0  0  0  0  0  0  0
   -5.8061   -1.3431   -0.1112 H   0  0  0  0  0  0  0  0  0  0  0  0
   -5.0153    0.2404    0.1487 H   0  0  0  0  0  0  0  0  0  0  0  0
   -1.0756    1.8669   -1.2151 H   0  0  0  0  0  0  0  0  0  0  0  0
   -1.1064    2.8249    0.2656 H   0  0  0  0  0  0  0  0  0  0  0  0
   -1.1038    0.1539   -2.4082 H   0  0  0  0  0  0  0  0  0  0  0  0
   -2.2627   -1.1021   -2.7427 H   0  0  0  0  0  0  0  0  0  0  0  0
   -2.7307    0.6184   -2.7401 H   0  0  0  0  0  0  0  0  0  0  0  0
   -2.6830   -1.3483    2.0005 H   0  0  0  0  0  0  0  0  0  0  0  0
   -3.7404   -4.9297   -1.2570 H   0  0  0  0  0  0  0  0  0  0  0  0
  1  4  1  0  0  0  0
  1 27  1  0  0  0  0
  1 28  1  0  0  0  0
  2  1  1  0  0  0  0
  2 21  1  0  0  0  0
  2 18  1  6  0  0  0
  3 16  1  6  0  0  0
  3  5  1  0  0  0  0
  3  6  1  0  0  0  0
  4  5  1  0  0  0  0
  4 29  1  0  0  0  0
  4 30  1  0  0  0  0
  5  7  2  0  0  0  0
  6  8  1  0  0  0  0
  6 31  1  0  0  0  0
  6 32  1  0  0  0  0
  7  9  1  0  0  0  0
  7 33  1  0  0  0  0
  8  9  1  0  0  0  0
  8 34  1  0  0  0  0
  8 35  1  0  0  0  0
  9 15  2  0  0  0  0
 10  2  1  0  0  0  0
 10  3  1  0  0  0  0
 10 14  1  0  0  0  0
 10 17  1  1  0  0  0
 11 13  1  0  0  0  0
 11 36  1  0  0  0  0
 11 37  1  0  0  0  0
 12 14  1  0  0  0  0
 12 38  1  0  0  0  0
 12 39  1  0  0  0  0
 13 40  1  0  0  0  0
 13 41  1  0  0  0  0
 14 42  1  0  0  0  0
 14 43  1  0  0  0  0
 19 12  1  0  0  0  0
 19 23  1  0  0  0  0
 19 20  1  6  0  0  0
 20 44  1  0  0  0  0
 20 45  1  0  0  0  0
 20 46  1  0  0  0  0
 21 11  1  0  0  0  0
 21 19  1  0  0  0  0
 21 22  1  1  0  0  0
 23 13  1  0  0  0  0
 23 25  1  6  0  0  0
 23 24  1  0  0  0  0
 24 47  1  0  0  0  0
 25 26  3  0  0  0  0
 26 48  1  0  0  0  0
M  END
>  <DRUGBANK_ID>
DB00717

>  <SECONDARY_ACCESSION_NUMBERS>
APRD00679

>  <COMMON_NAME>
Norethisterone

>  <CAS_NUMBER>
68-22-4

>  <UNII>
T18F433X4S

>  <SYNONYMS>
(17alpha)-17-ethynyl-17-hydroxyestra-4,8(14),9-trien-3-one; 17-hydroxy-19-nor-17-α-pregn-4-en-20-yn-3-one; 17-hydroxy-19-nor-17α-pregn-4-en-20-yn-3-one; 17-α-ethynyl-17-hydroxy-4-estren-3-one; 17-α-ethynyl-19-norandrost-4-en-17-β-ol-3-one; 17-α-ethynyl-19-nortestosterone; 17-α-ethynyl-4-estren-17-ol-3-one; 17-β-hydroxy-19-norpregn-4-en-20-yn-3-one; 17α-ethinyl-19-nortestosterone; 17α-ethinylestra-4-en-17β-ol-3-one; 17α-ethynyl-17-hydroxy-4-estren-3-one; 17α-ethynyl-17β-hydroxy-19-norandrost-4-en-3-one; 17α-ethynyl-19-nor-4-androsten-17β-ol-3-one; 17α-ethynyl-19-norandrost-4-en-17β-ol-3-one; 17α-ethynyl-19-nortestosterone; 17α-ethynyl-4-estren-17-ol-3-one; 17β-hydroxy-19-norpregn-4-en-20-yn-3-one; 19-nor-17-α-ethynyl-17-β-hydroxy-4-androsten-3-one; 19-nor-17-α-ethynylandrosten-17-β-ol-3-one; 19-nor-17-α-ethynyltestosterone; 19-Nor-17alpha-ethynyl-17beta-hydroxy-4-androsten-3-one; 19-nor-17α-ethynyl-17β-hydroxy-4-androsten-3-one; 19-nor-17α-ethynylandrosten-17β-ol-3-one; 19-nor-17α-ethynyltestosterone; 19-nor-ethindrone; 19-norethisterone; 4-estren-17α-ethynyl-17β-ol-3-one; Norethindrone; Norethisteron; Noréthistérone; Norethisterone; Norethisteronum; Noretisterona

$$$$
