DKA
 OpenBabel10282417133D

 32 31  0  0  0  0  0  0  0  0999 V2000
    0.9679   -0.2220   -0.0632 C   0  0  0  0  0  0  0  0  0  0  0  0
    0.4315   -1.2836    0.2266 O   0  0  0  0  0  0  0  0  0  0  0  0
    0.2594    1.0935   -0.2496 C   0  0  0  0  0  0  0  0  0  0  0  0
    0.6477    2.1116    0.8232 C   0  0  0  0  0  0  0  0  0  0  0  0
    2.1318    2.4847    0.7536 C   0  0  0  0  0  0  0  0  0  0  0  0
    2.4909    3.0426   -0.6293 C   0  0  0  0  0  0  0  0  0  0  0  0
    1.7297    4.3455   -0.8872 C   0  0  0  0  0  0  0  0  0  0  0  0
    2.0935    5.3913    0.1727 C   0  0  0  0  0  0  0  0  0  0  0  0
    3.5932    5.7100    0.1353 C   0  0  0  0  0  0  0  0  0  0  0  0
    4.0124    6.2502   -1.2326 C   0  0  0  0  0  0  0  0  0  0  0  0
    3.2542    7.5286   -1.5505 C   0  0  0  0  0  0  0  0  0  0  0  0
    2.3011   -0.1559   -0.2309 O   0  0  0  0  0  0  0  0  0  0  0  0
    0.4404    1.4589   -1.2663 H   0  0  0  0  0  0  0  0  0  0  0  0
   -0.8197    0.9187   -0.1998 H   0  0  0  0  0  0  0  0  0  0  0  0
    0.0285    3.0111    0.7050 H   0  0  0  0  0  0  0  0  0  0  0  0
    0.4113    1.7320    1.8218 H   0  0  0  0  0  0  0  0  0  0  0  0
    2.3736    3.1918    1.5526 H   0  0  0  0  0  0  0  0  0  0  0  0
    2.7703    1.6342    0.9957 H   0  0  0  0  0  0  0  0  0  0  0  0
    3.5737    3.1846   -0.6989 H   0  0  0  0  0  0  0  0  0  0  0  0
    2.2778    2.3311   -1.4325 H   0  0  0  0  0  0  0  0  0  0  0  0
    1.9418    4.7022   -1.8999 H   0  0  0  0  0  0  0  0  0  0  0  0
    0.6469    4.1846   -0.8905 H   0  0  0  0  0  0  0  0  0  0  0  0
    1.4883    6.2895    0.0281 H   0  0  0  0  0  0  0  0  0  0  0  0
    1.8150    5.0584    1.1773 H   0  0  0  0  0  0  0  0  0  0  0  0
    3.8343    6.4324    0.9209 H   0  0  0  0  0  0  0  0  0  0  0  0
    4.1896    4.8207    0.3737 H   0  0  0  0  0  0  0  0  0  0  0  0
    5.0902    6.4347   -1.2413 H   0  0  0  0  0  0  0  0  0  0  0  0
    3.8359    5.5103   -2.0225 H   0  0  0  0  0  0  0  0  0  0  0  0
    3.4571    8.2798   -0.7817 H   0  0  0  0  0  0  0  0  0  0  0  0
    3.5446    7.9195   -2.5258 H   0  0  0  0  0  0  0  0  0  0  0  0
    2.1717    7.3679   -1.5856 H   0  0  0  0  0  0  0  0  0  0  0  0
    2.6668   -1.0116    0.0723 H   0  0  0  0  0  0  0  0  0  0  0  0
  1  2  2  0  0  0  0
  1  3  1  0  0  0  0
  1 12  1  0  0  0  0
  3  4  1  0  0  0  0
  3 13  1  0  0  0  0
  3 14  1  0  0  0  0
  4  5  1  0  0  0  0
  4 15  1  0  0  0  0
  4 16  1  0  0  0  0
  5  6  1  0  0  0  0
  5 17  1  0  0  0  0
  5 18  1  0  0  0  0
  6  7  1  0  0  0  0
  6 19  1  0  0  0  0
  6 20  1  0  0  0  0
  7  8  1  0  0  0  0
  7 21  1  0  0  0  0
  7 22  1  0  0  0  0
  8  9  1  0  0  0  0
  8 23  1  0  0  0  0
  8 24  1  0  0  0  0
  9 10  1  0  0  0  0
  9 25  1  0  0  0  0
  9 26  1  0  0  0  0
 10 11  1  0  0  0  0
 10 27  1  0  0  0  0
 10 28  1  0  0  0  0
 11 29  1  0  0  0  0
 11 30  1  0  0  0  0
 11 31  1  0  0  0  0
 12 32  1  0  0  0  0
M  END
>  <DRUGBANK_ID>
DB03600

>  <SECONDARY_ACCESSION_NUMBERS>
EXPT01213; DB03838

>  <COMMON_NAME>
Capric acid

>  <CAS_NUMBER>
334-48-5

>  <UNII>
4G9EDB6V73

>  <SYNONYMS>
1-nonanecarboxylic acid; Capric acid; Decanoic acid; n-capric acid; n-decanoic acid; n-decylic acid

$$$$
