
 OpenBabel10282417133D

 23 22  0  0  0  0  0  0  0  0999 V2000
    1.4917   -1.2993   -3.7354 C   0  0  0  0  0  0  0  0  0  0  0  0
    0.1829   -1.2000   -1.4300 C   0  0  0  0  0  0  0  0  0  0  0  0
    1.0927    0.2381   -3.8501 C   0  0  1  0  0  0  0  0  0  0  0  0
   -1.1120   -1.0734   -2.3653 C   0  0  1  0  0  0  0  0  0  0  0  0
   -0.1924    0.2994   -4.6190 C   0  0  1  0  0  0  0  0  0  0  0  0
   -1.3545   -0.2469   -3.7398 C   0  0  1  0  0  0  0  0  0  0  0  0
    0.9584   -0.2908   -1.0589 O   0  0  0  0  0  0  0  0  0  0  0  0
    0.8481    1.2168   -2.8158 O   0  0  0  0  0  0  0  0  0  0  0  0
   -1.4651   -2.4511   -2.6224 O   0  0  0  0  0  0  0  0  0  0  0  0
   -0.4817    1.6666   -4.9774 O   0  0  0  0  0  0  0  0  0  0  0  0
   -2.1953   -1.0469   -4.6215 O   0  0  0  0  0  0  0  0  0  0  0  0
    1.9278    0.7071   -4.3609 H   0  0  0  0  0  0  0  0  0  0  0  0
   -1.8543   -0.6942   -1.6601 H   0  0  0  0  0  0  0  0  0  0  0  0
   -0.0703   -0.2233   -5.5737 H   0  0  0  0  0  0  0  0  0  0  0  0
   -1.9888    0.6113   -3.4691 H   0  0  0  0  0  0  0  0  0  0  0  0
    0.7215   -2.0120   -3.4206 H   0  0  0  0  0  0  0  0  0  0  0  0
    2.3399   -1.5034   -3.0785 H   0  0  0  0  0  0  0  0  0  0  0  0
    1.6894   -1.7237   -4.7288 H   0  0  0  0  0  0  0  0  0  0  0  0
    0.4329   -2.2072   -1.0781 H   0  0  0  0  0  0  0  0  0  0  0  0
    0.2731    0.9364   -2.0781 H   0  0  0  0  0  0  0  0  0  0  0  0
   -1.3565   -2.5999   -3.5823 H   0  0  0  0  0  0  0  0  0  0  0  0
   -0.3166    2.1913   -4.1647 H   0  0  0  0  0  0  0  0  0  0  0  0
   -1.7053   -1.2749   -5.4330 H   0  0  0  0  0  0  0  0  0  0  0  0
  1 16  1  0  0  0  0
  1 17  1  0  0  0  0
  1 18  1  0  0  0  0
  2 19  1  0  0  0  0
  3  1  1  0  0  0  0
  3  8  1  0  0  0  0
  3 12  1  6  0  0  0
  4  9  1  0  0  0  0
  4 13  1  1  0  0  0
  4  6  1  0  0  0  0
  4  2  1  0  0  0  0
  5  3  1  0  0  0  0
  5 10  1  0  0  0  0
  5 14  1  6  0  0  0
  6 15  1  1  0  0  0
  6 11  1  0  0  0  0
  6  5  1  0  0  0  0
  7  2  2  0  0  0  0
  8 20  1  0  0  0  0
  9 21  1  0  0  0  0
 10 22  1  0  0  0  0
 11 23  1  0  0  0  0
M  END
>  <DRUGBANK_ID>
DB02961

>  <SECONDARY_ACCESSION_NUMBERS>
EXPT02795; DB01869

>  <COMMON_NAME>
Rhamnose

>  <CAS_NUMBER>
3615-41-6

>  <UNII>
QN34XC755A

>  <SYNONYMS>
L-rhamnose

$$$$
