
 OpenBabel10282417123D

 19 19  0  0  0  0  0  0  0  0999 V2000
    1.0308    0.0031    0.1330 C   0  0  0  0  0  0  0  0  0  0  0  0
    0.4366    1.2918    0.2248 O   0  0  0  0  0  0  0  0  0  0  0  0
    0.9257    2.1410    1.1762 C   0  0  0  0  0  0  0  0  0  0  0  0
    2.2390    2.1769    1.6344 C   0  0  0  0  0  0  0  0  0  0  0  0
    2.6476    3.1901    2.5150 C   0  0  0  0  0  0  0  0  0  0  0  0
    1.7523    4.1844    2.9464 C   0  0  0  0  0  0  0  0  0  0  0  0
    0.4437    4.1561    2.4561 C   0  0  0  0  0  0  0  0  0  0  0  0
    0.0273    3.1146    1.6172 C   0  0  0  0  0  0  0  0  0  0  0  0
    2.2477    5.1890    3.9365 C   0  0  0  0  0  0  0  0  0  0  0  0
    1.3647    6.1104    4.3702 O   0  0  0  0  0  0  0  0  0  0  0  0
    3.3958    5.1613    4.3635 O   0  0  0  0  0  0  0  0  0  0  0  0
    0.6526   -0.4730   -0.7779 H   0  0  0  0  0  0  0  0  0  0  0  0
    0.7182   -0.6024    0.9880 H   0  0  0  0  0  0  0  0  0  0  0  0
    2.1204    0.0241    0.0461 H   0  0  0  0  0  0  0  0  0  0  0  0
    2.9788    1.4537    1.3094 H   0  0  0  0  0  0  0  0  0  0  0  0
    3.6860    3.2067    2.8469 H   0  0  0  0  0  0  0  0  0  0  0  0
   -0.2821    4.9264    2.6820 H   0  0  0  0  0  0  0  0  0  0  0  0
   -1.0129    3.0666    1.3009 H   0  0  0  0  0  0  0  0  0  0  0  0
    0.4561    6.0801    4.0310 H   0  0  0  0  0  0  0  0  0  0  0  0
  1  2  1  0  0  0  0
  1 12  1  0  0  0  0
  1 13  1  0  0  0  0
  1 14  1  0  0  0  0
  2  3  1  0  0  0  0
  3  4  2  0  0  0  0
  3  8  1  0  0  0  0
  4  5  1  0  0  0  0
  4 15  1  0  0  0  0
  5  6  2  0  0  0  0
  5 16  1  0  0  0  0
  6  7  1  0  0  0  0
  6  9  1  0  0  0  0
  7  8  2  0  0  0  0
  7 17  1  0  0  0  0
  8 18  1  0  0  0  0
  9 10  1  0  0  0  0
  9 11  2  0  0  0  0
 10 19  1  0  0  0  0
M  END
>  <DRUGBANK_ID>
DB02795

>  <SECONDARY_ACCESSION_NUMBERS>
EXPT00523

>  <COMMON_NAME>
P-Anisic Acid

>  <CAS_NUMBER>
100-09-4

>  <UNII>
4SB6Y7DMM3

$$$$
