
 OpenBabel10282417133D

 50 51  0  0  0  0  0  0  0  0999 V2000
   -2.5559   -1.2526    6.8547 P   0  0  0  0  0  0  0  0  0  0  0  0
    3.6018   -0.3486    9.0229 O   0  0  0  0  0  0  0  0  0  0  0  0
    5.3347   -2.8862    7.0917 O   0  0  0  0  0  0  0  0  0  0  0  0
    5.9661   -0.2040    6.4756 O   0  0  0  0  0  0  0  0  0  0  0  0
    1.3353   -1.7583    5.4421 O   0  0  0  0  0  0  0  0  0  0  0  0
   -2.6391   -2.2474    5.5585 O   0  0  0  0  0  0  0  0  0  0  0  0
   -1.4076    2.4498    7.5215 O   0  0  0  0  0  0  0  0  0  0  0  0
    7.1141    1.2600    8.7237 O   0  0  0  0  0  0  0  0  0  0  0  0
    1.6766    2.4277   10.8749 O   0  0  0  0  0  0  0  0  0  0  0  0
   -4.0432   -1.3655    7.4978 O   0  0  0  0  0  0  0  0  0  0  0  0
   -3.2415   -0.0851    5.7778 O   0  0  0  0  0  0  0  0  0  0  0  0
   -1.9423   -2.2975    7.8185 O   0  0  0  0  0  0  0  0  0  0  0  0
    1.4323   -1.1085    7.6885 N   0  0  0  0  0  0  0  0  0  0  0  0
    0.1630    0.0955    6.3318 N   0  0  0  0  0  0  0  0  0  0  0  0
    1.4996    0.6118    9.5071 N   0  0  0  0  0  0  0  0  0  0  0  0
    0.1272    2.4551    9.2114 N   0  0  0  0  0  0  0  0  0  0  0  0
    2.4660   -2.0744    7.9720 C   0  0  0  0  0  0  0  0  0  0  0  0
    3.7065   -1.2742    7.9139 C   0  0  2  0  0  0  0  0  0  0  0  0
    5.0713   -1.8825    8.0644 C   0  0  2  0  0  0  0  0  0  0  0  0
    1.0490    0.0576    8.3449 C   0  0  0  0  0  0  0  0  0  0  0  0
    0.2283    0.7312    7.5514 C   0  0  0  0  0  0  0  0  0  0  0  0
    1.0054   -1.0076    6.3657 C   0  0  0  0  0  0  0  0  0  0  0  0
   -0.7495    0.3904    5.2858 C   0  0  0  0  0  0  0  0  0  0  0  0
    5.8578   -0.5539    7.8552 C   0  0  1  0  0  0  0  0  0  0  0  0
   -1.0283   -0.7889    4.3071 C   0  0  0  0  0  0  0  0  0  0  0  0
   -0.4244    1.9549    8.0550 C   0  0  0  0  0  0  0  0  0  0  0  0
    7.0140   -0.1858    8.7377 C   0  0  0  0  0  0  0  0  0  0  0  0
    1.1351    1.8653    9.9282 C   0  0  0  0  0  0  0  0  0  0  0  0
   -1.3916   -2.2096    4.8647 C   0  0  0  0  0  0  0  0  0  0  0  0
    2.3010    0.1926    9.9811 H   0  0  0  0  0  0  0  0  0  0  0  0
   -0.2510    3.3123    9.5871 H   0  0  0  0  0  0  0  0  0  0  0  0
    3.4333    0.5088    8.5722 H   0  0  0  0  0  0  0  0  0  0  0  0
    4.6081   -3.5373    7.0861 H   0  0  0  0  0  0  0  0  0  0  0  0
    6.7778    0.3056    6.3589 H   0  0  0  0  0  0  0  0  0  0  0  0
    6.7320    1.6018    7.8920 H   0  0  0  0  0  0  0  0  0  0  0  0
   -3.9359   -1.9354    8.2880 H   0  0  0  0  0  0  0  0  0  0  0  0
   -3.7898    0.5184    6.3160 H   0  0  0  0  0  0  0  0  0  0  0  0
    2.3000   -2.5385    8.9408 H   0  0  0  0  0  0  0  0  0  0  0  0
    2.4968   -2.8411    7.1861 H   0  0  0  0  0  0  0  0  0  0  0  0
    3.6788   -0.7256    6.9522 H   0  0  0  0  0  0  0  0  0  0  0  0
    5.1763   -2.3210    9.0650 H   0  0  0  0  0  0  0  0  0  0  0  0
   -0.5373    1.3326    4.7812 H   0  0  0  0  0  0  0  0  0  0  0  0
   -1.5777    0.7113    5.8834 H   0  0  0  0  0  0  0  0  0  0  0  0
    5.2382    0.2759    8.1811 H   0  0  0  0  0  0  0  0  0  0  0  0
   -0.1280   -0.8822    3.6909 H   0  0  0  0  0  0  0  0  0  0  0  0
   -1.8395   -0.4910    3.6357 H   0  0  0  0  0  0  0  0  0  0  0  0
    6.8195   -0.4820    9.7746 H   0  0  0  0  0  0  0  0  0  0  0  0
    7.9411   -0.5840    8.3472 H   0  0  0  0  0  0  0  0  0  0  0  0
   -0.6702   -2.6195    5.5724 H   0  0  0  0  0  0  0  0  0  0  0  0
   -1.4061   -2.9355    4.0451 H   0  0  0  0  0  0  0  0  0  0  0  0
  1  6  1  0  0  0  0
  1 10  1  0  0  0  0
  1 11  1  0  0  0  0
  1 12  2  0  0  0  0
  2 32  1  0  0  0  0
  3 33  1  0  0  0  0
  4 34  1  0  0  0  0
  5 22  2  0  0  0  0
  6 29  1  0  0  0  0
  7 26  2  0  0  0  0
  8 27  1  0  0  0  0
  8 35  1  0  0  0  0
  9 28  2  0  0  0  0
 10 36  1  0  0  0  0
 11 37  1  0  0  0  0
 13 17  1  0  0  0  0
 13 20  1  0  0  0  0
 13 22  1  0  0  0  0
 14 21  1  0  0  0  0
 14 22  1  0  0  0  0
 14 23  1  0  0  0  0
 15 20  1  0  0  0  0
 15 28  1  0  0  0  0
 15 30  1  0  0  0  0
 16 26  1  0  0  0  0
 16 28  1  0  0  0  0
 16 31  1  0  0  0  0
 17 18  1  0  0  0  0
 17 38  1  0  0  0  0
 17 39  1  0  0  0  0
 18  2  1  0  0  0  0
 18 19  1  0  0  0  0
 18 40  1  6  0  0  0
 19  3  1  0  0  0  0
 19 41  1  1  0  0  0
 20 21  2  0  0  0  0
 21 26  1  0  0  0  0
 23 25  1  0  0  0  0
 23 42  1  0  0  0  0
 23 43  1  0  0  0  0
 24 27  1  0  0  0  0
 24 44  1  1  0  0  0
 24 19  1  0  0  0  0
 24  4  1  0  0  0  0
 25 29  1  0  0  0  0
 25 45  1  0  0  0  0
 25 46  1  0  0  0  0
 27 47  1  0  0  0  0
 27 48  1  0  0  0  0
 29 49  1  0  0  0  0
 29 50  1  0  0  0  0
M  END
>  <DRUGBANK_ID>
DB03973

>  <SECONDARY_ACCESSION_NUMBERS>
EXPT02995

>  <COMMON_NAME>
3-[2,6,8-Trioxo-9-[(2R,3R,4R)-2,3,4,5-tetrahydroxypentyl]-3H-purin-7-yl]propyl dihydrogen phosphate

>  <SYNONYMS>
5-Deoxy-5-{2,6,8-trioxo-7-[3-(phosphonooxy)propyl]-1,2,3,6,7,8-hexahydro-9H-purin-9-yl}-D-arabinitol

$$$$
