1511
 OpenBabel10282417113D

 30 32  0  0  0  0  0  0  0  0999 V2000
    1.0222   -0.0149   -0.1005 Cl  0  0  0  0  0  0  0  0  0  0  0  0
    5.2306    1.5058    3.0700 Cl  0  0  0  0  0  0  0  0  0  0  0  0
    9.0204    0.5744   -0.6662 O   0  0  0  0  0  0  0  0  0  0  0  0
    6.9373   -0.0652   -0.1118 N   0  0  0  0  0  0  0  0  0  0  0  0
    6.5704    2.9323   -0.4838 N   0  0  0  0  0  0  0  0  0  0  0  0
    4.8243    1.2269   -0.0751 C   0  0  0  0  0  0  0  0  0  0  0  0
    5.5040    2.5415    0.1299 C   0  0  0  0  0  0  0  0  0  0  0  0
    5.5387    0.0190   -0.1363 C   0  0  0  0  0  0  0  0  0  0  0  0
    4.9164    3.4642    1.1483 C   0  0  0  0  0  0  0  0  0  0  0  0
    3.4205    1.2062   -0.0546 C   0  0  0  0  0  0  0  0  0  0  0  0
    7.2198    2.0132   -1.4224 C   0  0  0  0  0  0  0  0  0  0  0  0
    4.8386   -1.1926   -0.1886 C   0  0  0  0  0  0  0  0  0  0  0  0
    7.8092    0.8248   -0.6786 C   0  0  0  0  0  0  0  0  0  0  0  0
    2.7410   -0.0050   -0.1274 C   0  0  0  0  0  0  0  0  0  0  0  0
    3.4425   -1.2032   -0.2098 C   0  0  0  0  0  0  0  0  0  0  0  0
    4.7134    3.0438    2.4713 C   0  0  0  0  0  0  0  0  0  0  0  0
    4.5602    4.7684    0.7707 C   0  0  0  0  0  0  0  0  0  0  0  0
    4.1149    3.9056    3.3904 C   0  0  0  0  0  0  0  0  0  0  0  0
    4.0666    5.6588    1.7301 C   0  0  0  0  0  0  0  0  0  0  0  0
    3.8393    5.2247    3.0360 C   0  0  0  0  0  0  0  0  0  0  0  0
    7.3803   -0.9159    0.2140 H   0  0  0  0  0  0  0  0  0  0  0  0
    2.8521    2.1277    0.0420 H   0  0  0  0  0  0  0  0  0  0  0  0
    6.5410    1.6714   -2.2132 H   0  0  0  0  0  0  0  0  0  0  0  0
    8.0421    2.5374   -1.9214 H   0  0  0  0  0  0  0  0  0  0  0  0
    5.3725   -2.1380   -0.2593 H   0  0  0  0  0  0  0  0  0  0  0  0
    2.9109   -2.1478   -0.2907 H   0  0  0  0  0  0  0  0  0  0  0  0
    4.6681    5.0983   -0.2607 H   0  0  0  0  0  0  0  0  0  0  0  0
    3.8850    3.5565    4.3936 H   0  0  0  0  0  0  0  0  0  0  0  0
    3.8555    6.6927    1.4637 H   0  0  0  0  0  0  0  0  0  0  0  0
    3.4580    5.9142    3.7857 H   0  0  0  0  0  0  0  0  0  0  0  0
  1 14  1  0  0  0  0
  2 16  1  0  0  0  0
  3 13  2  0  0  0  0
  4  8  1  0  0  0  0
  4 13  1  0  0  0  0
  4 21  1  0  0  0  0
  5  7  2  0  0  0  0
  5 11  1  0  0  0  0
  6  7  1  0  0  0  0
  6  8  2  0  0  0  0
  6 10  1  0  0  0  0
  7  9  1  0  0  0  0
  8 12  1  0  0  0  0
  9 16  1  0  0  0  0
  9 17  2  0  0  0  0
 10 14  2  0  0  0  0
 10 22  1  0  0  0  0
 11 13  1  0  0  0  0
 11 23  1  0  0  0  0
 11 24  1  0  0  0  0
 12 15  2  0  0  0  0
 12 25  1  0  0  0  0
 14 15  1  0  0  0  0
 15 26  1  0  0  0  0
 16 18  2  0  0  0  0
 17 19  1  0  0  0  0
 17 27  1  0  0  0  0
 18 20  1  0  0  0  0
 18 28  1  0  0  0  0
 19 20  2  0  0  0  0
 19 29  1  0  0  0  0
 20 30  1  0  0  0  0
M  END
>  <DRUGBANK_ID>
DB01511

>  <COMMON_NAME>
Delorazepam

>  <CAS_NUMBER>
2894-67-9

>  <UNII>
O91W32476G

>  <SYNONYMS>
Chlordesmethyldiazepam; Clordesmetildiazepam; Delorazepam; Delorazepamum

$$$$
