
 OpenBabel10282417103D

 85 87  0  0  0  0  0  0  0  0999 V2000
   -0.5496    1.5781   -0.2446 C   0  0  0  0  0  0  0  0  0  0  0  0
   -0.8716    3.1897    0.0362 C   0  0  0  0  0  0  0  0  0  0  0  0
   -2.1845    3.9638   -0.9767 P   0  0  1  0  0  0  0  0  0  0  0  0
   -1.0922    4.6279   -1.9772 O   0  0  0  0  0  0  0  0  0  0  0  0
    0.2643    4.3836   -1.8484 C   0  0  2  0  0  0  0  0  0  0  0  0
    0.2364    3.0149   -2.3975 O   0  0  0  0  0  0  0  0  0  0  0  0
    0.2334    2.5104   -3.6824 C   0  0  0  0  0  0  0  0  0  0  0  0
    0.6073    3.4785   -4.7649 C   0  0  0  0  0  0  0  0  0  0  0  0
    2.0100    3.4131   -5.3644 C   0  0  0  0  0  0  0  0  0  0  0  0
    0.0484    1.3125   -3.9059 O   0  0  0  0  0  0  0  0  0  0  0  0
    0.8383    4.8834   -0.1712 C   0  0  0  0  0  0  0  0  0  0  0  0
    1.9262    4.1553    0.6822 C   0  0  0  0  0  0  0  0  0  0  0  0
    0.3830    6.2621    0.1674 C   0  0  0  0  0  0  0  0  0  0  0  0
   -3.0618    2.3846   -1.2355 C   0  0  0  0  0  0  0  0  0  0  0  0
   -4.4758    2.4762   -0.5777 C   0  0  0  0  0  0  0  0  0  0  0  0
   -5.4491    3.4306   -1.2827 C   0  0  0  0  0  0  0  0  0  0  0  0
   -5.4803    3.1453   -2.8000 C   0  0  0  0  0  0  0  0  0  0  0  0
   -6.0877    1.7824   -2.9972 C   0  0  0  0  0  0  0  0  0  0  0  0
   -5.2954    0.6633   -3.2948 C   0  0  0  0  0  0  0  0  0  0  0  0
   -5.8467   -0.6127   -3.2464 C   0  0  0  0  0  0  0  0  0  0  0  0
   -7.1841   -0.7733   -2.8903 C   0  0  0  0  0  0  0  0  0  0  0  0
   -7.9662    0.3351   -2.5695 C   0  0  0  0  0  0  0  0  0  0  0  0
   -7.4336    1.6120   -2.6677 C   0  0  0  0  0  0  0  0  0  0  0  0
   -3.2954    4.6187   -1.8337 O   0  0  0  0  0  0  0  0  0  0  0  0
   -1.2592    0.7144    0.2934 O   0  0  0  0  0  0  0  0  0  0  0  0
    0.6655    1.1553   -0.9526 N   0  0  0  0  0  0  0  0  0  0  0  0
    0.7974   -0.2618   -1.2282 C   0  0  0  0  0  0  0  0  0  0  0  0
    2.2175   -0.5753   -0.7528 C   0  0  2  0  0  0  0  0  0  0  0  0
    2.3217   -0.7412    0.7740 C   0  0  0  0  0  0  0  0  0  0  0  0
    1.5566   -2.0068    1.1379 C   0  0  0  0  0  0  0  0  0  0  0  0
    1.5142   -2.2225    2.6332 C   0  0  0  0  0  0  0  0  0  0  0  0
    0.9151   -1.0200    3.3550 C   0  0  0  0  0  0  0  0  0  0  0  0
    1.7263    0.2341    3.0843 C   0  0  0  0  0  0  0  0  0  0  0  0
    1.8358    0.4592    1.6014 C   0  0  0  0  0  0  0  0  0  0  0  0
    3.0345    0.5955   -1.2177 C   0  0  0  0  0  0  0  0  0  0  0  0
    2.0755    1.7847   -1.2118 C   0  0  1  0  0  0  0  0  0  0  0  0
    2.6407    2.5407   -2.4067 C   0  0  0  0  0  0  0  0  0  0  0  0
    2.9087    3.8537   -2.3391 O   0  0  0  0  0  0  0  0  0  0  0  0
    2.8631    1.9380   -3.4849 O   0  0  0  0  0  0  0  0  0  0  0  0
   -1.1264    3.1910    1.1036 H   0  0  0  0  0  0  0  0  0  0  0  0
    0.1436    3.1524   -0.2151 H   0  0  0  0  0  0  0  0  0  0  0  0
    0.8312    5.0101   -2.5202 H   0  0  0  0  0  0  0  0  0  0  0  0
   -0.1252    3.3235   -5.5576 H   0  0  0  0  0  0  0  0  0  0  0  0
    0.4474    4.4734   -4.3740 H   0  0  0  0  0  0  0  0  0  0  0  0
    2.2673    2.4127   -5.7355 H   0  0  0  0  0  0  0  0  0  0  0  0
    2.1010    4.1314   -6.1762 H   0  0  0  0  0  0  0  0  0  0  0  0
    2.8011    3.7311   -4.6790 H   0  0  0  0  0  0  0  0  0  0  0  0
    0.1225    4.6201    0.6132 H   0  0  0  0  0  0  0  0  0  0  0  0
    2.9318    4.2041    0.2841 H   0  0  0  0  0  0  0  0  0  0  0  0
    1.9505    4.4381    1.7390 H   0  0  0  0  0  0  0  0  0  0  0  0
    1.6213    3.1176    0.8757 H   0  0  0  0  0  0  0  0  0  0  0  0
   -0.6637    6.3557   -0.1595 H   0  0  0  0  0  0  0  0  0  0  0  0
    0.3534    6.3701    1.2657 H   0  0  0  0  0  0  0  0  0  0  0  0
    1.0453    6.9630   -0.2982 H   0  0  0  0  0  0  0  0  0  0  0  0
   -3.0482    2.1092   -2.2865 H   0  0  0  0  0  0  0  0  0  0  0  0
   -2.7095    1.5164   -0.7321 H   0  0  0  0  0  0  0  0  0  0  0  0
   -4.9144    1.4716   -0.5488 H   0  0  0  0  0  0  0  0  0  0  0  0
   -4.3682    2.7779    0.4736 H   0  0  0  0  0  0  0  0  0  0  0  0
   -6.4412    3.3518   -0.8275 H   0  0  0  0  0  0  0  0  0  0  0  0
   -5.1985    4.4752   -1.0679 H   0  0  0  0  0  0  0  0  0  0  0  0
   -6.0479    3.9162   -3.3274 H   0  0  0  0  0  0  0  0  0  0  0  0
   -4.4894    3.1620   -3.2689 H   0  0  0  0  0  0  0  0  0  0  0  0
   -4.2353    0.7679   -3.5151 H   0  0  0  0  0  0  0  0  0  0  0  0
   -5.2244   -1.4786   -3.4548 H   0  0  0  0  0  0  0  0  0  0  0  0
   -7.6196   -1.7661   -2.8578 H   0  0  0  0  0  0  0  0  0  0  0  0
   -8.9844    0.2085   -2.2181 H   0  0  0  0  0  0  0  0  0  0  0  0
   -8.0405    2.4811   -2.4246 H   0  0  0  0  0  0  0  0  0  0  0  0
    0.7065   -0.4090   -2.3079 H   0  0  0  0  0  0  0  0  0  0  0  0
    0.0174   -0.8704   -0.7728 H   0  0  0  0  0  0  0  0  0  0  0  0
    2.6057   -1.4669   -1.2559 H   0  0  0  0  0  0  0  0  0  0  0  0
    3.3841   -0.8747    1.0175 H   0  0  0  0  0  0  0  0  0  0  0  0
    0.5213   -1.9556    0.7887 H   0  0  0  0  0  0  0  0  0  0  0  0
    2.0140   -2.8611    0.6261 H   0  0  0  0  0  0  0  0  0  0  0  0
    0.9114   -3.1111    2.8334 H   0  0  0  0  0  0  0  0  0  0  0  0
    2.5312   -2.4027    2.9935 H   0  0  0  0  0  0  0  0  0  0  0  0
   -0.1221   -0.8679    3.0217 H   0  0  0  0  0  0  0  0  0  0  0  0
    0.8886   -1.2026    4.4305 H   0  0  0  0  0  0  0  0  0  0  0  0
    1.2288    1.1053    3.5315 H   0  0  0  0  0  0  0  0  0  0  0  0
    2.7305    0.1665    3.5061 H   0  0  0  0  0  0  0  0  0  0  0  0
    2.4781    1.3226    1.4354 H   0  0  0  0  0  0  0  0  0  0  0  0
    0.8249    0.7174    1.3289 H   0  0  0  0  0  0  0  0  0  0  0  0
    3.9066    0.8492   -0.6056 H   0  0  0  0  0  0  0  0  0  0  0  0
    3.4358    0.3611   -2.2085 H   0  0  0  0  0  0  0  0  0  0  0  0
    2.4260    2.3244   -0.3734 H   0  0  0  0  0  0  0  0  0  0  0  0
    2.8363    4.3925   -1.5322 H   0  0  0  0  0  0  0  0  0  0  0  0
  1  2  1  0  0  0  0
  1 25  2  0  0  0  0
  1 26  1  0  0  0  0
  2  3  1  0  0  0  0
  2 40  1  0  0  0  0
  2 41  1  0  0  0  0
  3  4  1  0  0  0  0
  3 14  1  0  0  0  0
  3 24  2  1  0  0  0
  5 11  1  0  0  0  0
  5 42  1  6  0  0  0
  5  6  1  0  0  0  0
  5  4  1  0  0  0  0
  6  7  1  0  0  0  0
  7  8  1  0  0  0  0
  7 10  2  0  0  0  0
  8  9  1  0  0  0  0
  8 43  1  0  0  0  0
  8 44  1  0  0  0  0
  9 45  1  0  0  0  0
  9 46  1  0  0  0  0
  9 47  1  0  0  0  0
 11 12  1  0  0  0  0
 11 13  1  0  0  0  0
 11 48  1  0  0  0  0
 12 49  1  0  0  0  0
 12 50  1  0  0  0  0
 12 51  1  0  0  0  0
 13 52  1  0  0  0  0
 13 53  1  0  0  0  0
 13 54  1  0  0  0  0
 14 15  1  0  0  0  0
 14 55  1  0  0  0  0
 14 56  1  0  0  0  0
 15 16  1  0  0  0  0
 15 57  1  0  0  0  0
 15 58  1  0  0  0  0
 16 17  1  0  0  0  0
 16 59  1  0  0  0  0
 16 60  1  0  0  0  0
 17 18  1  0  0  0  0
 17 61  1  0  0  0  0
 17 62  1  0  0  0  0
 18 19  2  0  0  0  0
 18 23  1  0  0  0  0
 19 20  1  0  0  0  0
 19 63  1  0  0  0  0
 20 21  2  0  0  0  0
 20 64  1  0  0  0  0
 21 65  1  0  0  0  0
 22 21  1  0  0  0  0
 22 66  1  0  0  0  0
 23 22  2  0  0  0  0
 23 67  1  0  0  0  0
 26 27  1  0  0  0  0
 26 36  1  0  0  0  0
 27 28  1  0  0  0  0
 27 68  1  0  0  0  0
 27 69  1  0  0  0  0
 28 29  1  0  0  0  0
 28 35  1  0  0  0  0
 28 70  1  6  0  0  0
 29 30  1  0  0  0  0
 29 34  1  0  0  0  0
 29 71  1  0  0  0  0
 30 31  1  0  0  0  0
 30 72  1  0  0  0  0
 30 73  1  0  0  0  0
 31 32  1  0  0  0  0
 31 74  1  0  0  0  0
 31 75  1  0  0  0  0
 32 76  1  0  0  0  0
 32 77  1  0  0  0  0
 33 32  1  0  0  0  0
 33 78  1  0  0  0  0
 33 79  1  0  0  0  0
 34 33  1  0  0  0  0
 34 80  1  0  0  0  0
 34 81  1  0  0  0  0
 35 82  1  0  0  0  0
 35 83  1  0  0  0  0
 36 35  1  0  0  0  0
 36 84  1  1  0  0  0
 36 37  1  0  0  0  0
 37 38  1  0  0  0  0
 37 39  2  0  0  0  0
 38 85  1  0  0  0  0
M  END
>  <DRUGBANK_ID>
DB00492

>  <SECONDARY_ACCESSION_NUMBERS>
APRD00526

>  <COMMON_NAME>
Fosinopril

>  <CAS_NUMBER>
98048-97-6

>  <UNII>
R43D2573WO

>  <SYNONYMS>
Fosenopril; Fosinopril

$$$$
