
 OpenBabel10282417183D

  6  5  0  0  0  0  0  0  0  0999 V2000
    0.9824   -0.0001    0.1376 O   0  0  0  0  0  0  0  0  0  0  0  0
    0.4002    1.1108    1.2201 Si  0  0  0  0  0  0  0  0  0  0  0  0
    1.9479   -0.0600    0.0792 H   0  0  0  0  0  0  0  0  0  0  0  0
    0.9123    0.7622    2.5648 H   0  0  0  0  0  0  0  0  0  0  0  0
    0.9123    2.4460    0.8369 H   0  0  0  0  0  0  0  0  0  0  0  0
   -1.0802    1.0960    1.2057 H   0  0  0  0  0  0  0  0  0  0  0  0
  1  2  1  0  0  0  0
  1  3  1  0  0  0  0
  2  4  1  0  0  0  0
  2  5  1  0  0  0  0
  2  6  1  0  0  0  0
M  END
>  <DRUGBANK_ID>
DB11343

>  <COMMON_NAME>
Silanol

>  <CAS_NUMBER>
70131-67-8

>  <UNII>
079V3J9O3X

$$$$
