
 OpenBabel10282417213D

 37 39  0  0  0  0  0  0  0  0999 V2000
    0.8525    0.0778   -0.2273 C   0  0  0  0  0  0  0  0  0  0  0  0
    0.4513   -1.4054   -0.1767 C   0  0  0  0  0  0  0  0  0  0  0  0
    1.0165   -2.2855    0.9977 C   0  0  0  0  0  0  0  0  0  0  0  0
    2.5367   -2.3562    0.9077 C   0  0  0  0  0  0  0  0  0  0  0  0
    3.2876   -1.3972    1.0845 O   0  0  0  0  0  0  0  0  0  0  0  0
    3.0954   -3.5564    0.5981 N   0  0  0  0  0  0  0  0  0  0  0  0
    2.4586   -4.7479    0.5006 C   0  0  0  0  0  0  0  0  0  0  0  0
    3.0741   -5.7837    0.2808 O   0  0  0  0  0  0  0  0  0  0  0  0
    1.1123   -4.7405    0.6606 N   0  0  0  0  0  0  0  0  0  0  0  0
    0.3220   -3.6497    0.8787 C   0  0  0  0  0  0  0  0  0  0  0  0
   -0.8948   -3.8109    0.9745 O   0  0  0  0  0  0  0  0  0  0  0  0
    0.6518   -1.6859    2.3330 C   0  0  0  0  0  0  0  0  0  0  0  0
    0.6233   -0.3355    2.5119 C   0  0  0  0  0  0  0  0  0  0  0  0
    0.0455    0.3844    3.9687 C   0  0  3  0  0  0  0  0  0  0  0  0
    0.3581   -0.4128    5.7101 C   0  0  0  0  0  0  0  0  0  0  0  0
   -0.8201   -1.1921    5.6893 C   0  0  0  0  0  0  0  0  0  0  0  0
   -0.1138   -1.2810    4.3681 C   0  0  3  0  0  0  0  0  0  0  0  0
    1.3749    0.1198    4.3427 C   0  0  0  0  0  0  0  0  0  0  0  0
    0.2353   -2.4781    3.5413 C   0  0  0  0  0  0  0  0  0  0  0  0
    0.3445    0.6728    0.5385 H   0  0  0  0  0  0  0  0  0  0  0  0
    0.5293    0.5724   -1.1375 H   0  0  0  0  0  0  0  0  0  0  0  0
    1.9351    0.2018   -0.1264 H   0  0  0  0  0  0  0  0  0  0  0  0
   -0.6479   -1.4364   -0.1452 H   0  0  0  0  0  0  0  0  0  0  0  0
    0.7535   -1.8555   -1.1262 H   0  0  0  0  0  0  0  0  0  0  0  0
    4.1028   -3.5602    0.5308 H   0  0  0  0  0  0  0  0  0  0  0  0
    0.6382   -5.6302    0.5901 H   0  0  0  0  0  0  0  0  0  0  0  0
    1.4223    0.1922    1.9673 H   0  0  0  0  0  0  0  0  0  0  0  0
   -0.4347    1.3296    3.8793 H   0  0  0  0  0  0  0  0  0  0  0  0
    1.2601   -1.2031    5.7604 H   0  0  0  0  0  0  0  0  0  0  0  0
    0.6047    0.2495    6.5367 H   0  0  0  0  0  0  0  0  0  0  0  0
   -0.8827   -2.0496    6.3443 H   0  0  0  0  0  0  0  0  0  0  0  0
   -1.6309   -0.4545    5.7803 H   0  0  0  0  0  0  0  0  0  0  0  0
   -1.1262   -1.0876    3.8243 H   0  0  0  0  0  0  0  0  0  0  0  0
    1.8682    0.7639    3.5916 H   0  0  0  0  0  0  0  0  0  0  0  0
    1.4033    1.0058    5.0698 H   0  0  0  0  0  0  0  0  0  0  0  0
   -0.6545   -3.0849    3.3311 H   0  0  0  0  0  0  0  0  0  0  0  0
    0.9883   -3.0893    4.0344 H   0  0  0  0  0  0  0  0  0  0  0  0
  1  2  1  0  0  0  0
  1 20  1  0  0  0  0
  1 21  1  0  0  0  0
  1 22  1  0  0  0  0
  2  3  1  0  0  0  0
  2 23  1  0  0  0  0
  2 24  1  0  0  0  0
  3  4  1  0  0  0  0
  3 10  1  0  0  0  0
  3 12  1  0  0  0  0
  4  5  2  0  0  0  0
  4  6  1  0  0  0  0
  6  7  1  0  0  0  0
  6 25  1  0  0  0  0
  7  8  2  0  0  0  0
  7  9  1  0  0  0  0
  9 10  1  0  0  0  0
  9 26  1  0  0  0  0
 10 11  2  0  0  0  0
 12 13  2  0  0  0  0
 12 19  1  0  0  0  0
 13 14  1  0  0  0  0
 13 27  1  0  0  0  0
 14 15  1  0  0  0  0
 14 18  1  0  0  0  0
 14 28  1  0  0  0  0
 15 16  1  0  0  0  0
 15 29  1  0  0  0  0
 15 30  1  0  0  0  0
 16 17  1  0  0  0  0
 16 31  1  0  0  0  0
 16 32  1  0  0  0  0
 17 18  1  0  0  0  0
 17 19  1  0  0  0  0
 17 33  1  0  0  0  0
 18 34  1  0  0  0  0
 18 35  1  0  0  0  0
 19 36  1  0  0  0  0
 19 37  1  0  0  0  0
M  END
>  <DRUGBANK_ID>
DB13805

>  <COMMON_NAME>
Reposal

>  <CAS_NUMBER>
3625-25-0

>  <UNII>
3T5TIX1AYI

$$$$
