
 OpenBabel10282417213D

138141  0  0  0  0  0  0  0  0999 V2000
    4.1119   -2.1483    0.0325 S   0  0  0  0  0  0  0  0  0  0  0  0
    6.5945   -3.2117    0.0123 S   0  0  0  0  0  0  0  0  0  0  0  0
    1.5467   -2.9980   -2.0904 O   0  0  0  0  0  0  0  0  0  0  0  0
    2.3623   -1.8186    2.1555 O   0  0  0  0  0  0  0  0  0  0  0  0
    4.6103   -7.8457   -2.2511 O   0  0  0  0  0  0  0  0  0  0  0  0
    3.1869   -2.4632   -3.8855 O   0  0  0  0  0  0  0  0  0  0  0  0
    6.4301    1.1469   -0.6275 O   0  0  0  0  0  0  0  0  0  0  0  0
    5.5734   -5.5976   -2.1400 O   0  0  0  0  0  0  0  0  0  0  0  0
    3.6904   -4.3372    1.7653 O   0  0  0  0  0  0  0  0  0  0  0  0
    5.9783   -4.1671   -6.7798 O   0  0  0  0  0  0  0  0  0  0  0  0
    8.1495   -3.3652   -2.8121 O   0  0  0  0  0  0  0  0  0  0  0  0
    8.6981   -2.4216    2.9735 O   0  0  0  0  0  0  0  0  0  0  0  0
   10.7754   -1.0076    0.7723 O   0  0  0  0  0  0  0  0  0  0  0  0
   10.1678   -8.1413   -4.7905 O   0  0  0  0  0  0  0  0  0  0  0  0
    1.4222   -3.3523    0.6813 N   0  0  0  0  0  0  0  0  0  0  0  0
    2.3979   -4.8817   -2.8106 N   0  0  0  0  0  0  0  0  0  0  0  0
    2.6548   -1.1173   -2.0205 N   0  0  0  0  0  0  0  0  0  0  0  0
    5.2112   -6.3464   -4.0225 N   0  0  0  0  0  0  0  0  0  0  0  0
    5.5409   -0.4244   -2.0189 N   0  0  0  0  0  0  0  0  0  0  0  0
    5.3935   -2.1641    1.7037 N   0  0  0  0  0  0  0  0  0  0  0  0
    2.7812   -9.2642   -6.3347 N   0  0  0  0  0  0  0  0  0  0  0  0
    7.0899   -4.7895   -1.2538 N   0  0  0  0  0  0  0  0  0  0  0  0
    9.2642   -2.9435    0.8759 N   0  0  0  0  0  0  0  0  0  0  0  0
    3.9969   -4.9770   -1.1342 N   0  0  0  0  0  0  0  0  0  0  0  0
    9.0207   -5.1588    3.5639 N   0  0  0  0  0  0  0  0  0  0  0  0
    5.8748   -3.4881   -4.6401 N   0  0  0  0  0  0  0  0  0  0  0  0
    8.9125    0.1654    1.2259 N   0  0  0  0  0  0  0  0  0  0  0  0
    1.6813   -4.4751   -0.3296 C   0  0  1  0  0  0  0  0  0  0  0  0
    0.3374   -5.0598   -0.4026 C   0  0  0  0  0  0  0  0  0  0  0  0
   -0.0068   -5.1220    1.0587 C   0  0  0  0  0  0  0  0  0  0  0  0
    0.7062   -3.9658    1.7611 C   0  0  0  0  0  0  0  0  0  0  0  0
    1.7570   -4.1646   -1.8316 C   0  0  0  0  0  0  0  0  0  0  0  0
    2.0242   -2.0922    0.9682 C   0  0  0  0  0  0  0  0  0  0  0  0
    2.8064   -1.1663   -0.5172 C   0  0  2  0  0  0  0  0  0  0  0  0
    2.7263   -6.3282   -2.9017 C   0  0  1  0  0  0  0  0  0  0  0  0
    3.2331   -0.0319    0.2355 C   0  0  0  0  0  0  0  0  0  0  0  0
    1.7733   -6.8525   -3.9166 C   0  0  0  0  0  0  0  0  0  0  0  0
    2.1942   -6.5394   -5.3424 C   0  0  0  0  0  0  0  0  0  0  0  0
    4.2589   -6.9589   -3.0477 C   0  0  0  0  0  0  0  0  0  0  0  0
    3.5433   -1.6617   -3.0064 C   0  0  0  0  0  0  0  0  0  0  0  0
    4.9968   -1.6873   -2.7279 C   0  0  2  0  0  0  0  0  0  0  0  0
    3.4026   -7.3909   -5.7535 C   0  0  0  0  0  0  0  0  0  0  0  0
    5.1404   -3.0785   -2.2132 C   0  0  0  0  0  0  0  0  0  0  0  0
    3.6507   -8.7839   -5.3359 C   0  0  0  0  0  0  0  0  0  0  0  0
    6.3725   -0.9659    0.5531 C   0  0  2  0  0  0  0  0  0  0  0  0
    6.0031   -0.0107   -0.7264 C   0  0  0  0  0  0  0  0  0  0  0  0
    4.8293   -5.3739   -5.0677 C   0  0  0  0  0  0  0  0  0  0  0  0
    7.6932   -1.3018   -0.7147 C   0  0  0  0  0  0  0  0  0  0  0  0
    7.7815   -5.1361    0.8446 C   0  0  0  0  0  0  0  0  0  0  0  0
    4.8739   -4.6181   -2.0368 C   0  0  0  0  0  0  0  0  0  0  0  0
    5.8155   -5.0079    0.2372 C   0  0  2  0  0  0  0  0  0  0  0  0
    9.0079   -4.7595    2.1905 C   0  0  1  0  0  0  0  0  0  0  0  0
    4.7698   -3.8756    1.3588 C   0  0  0  0  0  0  0  0  0  0  0  0
    9.3702   -3.7336   -0.5588 C   0  0  2  0  0  0  0  0  0  0  0  0
    9.0570   -0.8370   -0.9458 C   0  0  0  0  0  0  0  0  0  0  0  0
    6.4318   -4.2331    1.8729 C   0  0  0  0  0  0  0  0  0  0  0  0
    5.6723   -4.3273   -5.6201 C   0  0  0  0  0  0  0  0  0  0  0  0
    8.2027   -3.9438   -1.7086 C   0  0  0  0  0  0  0  0  0  0  0  0
    9.1461   -3.2590    2.1771 C   0  0  0  0  0  0  0  0  0  0  0  0
    9.6992   -5.1429   -0.4193 C   0  0  0  0  0  0  0  0  0  0  0  0
    6.1833   -4.9871    3.0283 C   0  0  0  0  0  0  0  0  0  0  0  0
    9.7282   -0.5076    0.3725 C   0  0  0  0  0  0  0  0  0  0  0  0
    9.9904   -5.9779   -1.5283 C   0  0  0  0  0  0  0  0  0  0  0  0
    6.2948   -6.3842    3.0153 C   0  0  0  0  0  0  0  0  0  0  0  0
    6.1481   -3.9791    3.9697 C   0  0  0  0  0  0  0  0  0  0  0  0
    9.5574   -7.3105   -1.3674 C   0  0  0  0  0  0  0  0  0  0  0  0
   10.3065   -5.3190   -2.6849 C   0  0  0  0  0  0  0  0  0  0  0  0
    6.5796   -6.8649    4.2101 C   0  0  0  0  0  0  0  0  0  0  0  0
    6.5057   -4.4959    5.1202 C   0  0  0  0  0  0  0  0  0  0  0  0
    6.6270   -5.9127    5.2406 C   0  0  0  0  0  0  0  0  0  0  0  0
    9.5885   -8.0625   -2.4758 C   0  0  0  0  0  0  0  0  0  0  0  0
   10.3063   -6.0795   -3.7784 C   0  0  0  0  0  0  0  0  0  0  0  0
    9.9997   -7.4311   -3.6534 C   0  0  0  0  0  0  0  0  0  0  0  0
    2.3713   -6.7104   -1.9339 H   0  0  0  0  0  0  0  0  0  0  0  0
    5.8321   -1.8277   -3.3971 H   0  0  0  0  0  0  0  0  0  0  0  0
    3.4031   -4.2596   -1.4153 H   0  0  0  0  0  0  0  0  0  0  0  0
    3.8302   -5.9708   -1.1039 H   0  0  0  0  0  0  0  0  0  0  0  0
    9.9825   -9.0604   -4.5624 H   0  0  0  0  0  0  0  0  0  0  0  0
    2.8491   -4.2437   -3.4751 H   0  0  0  0  0  0  0  0  0  0  0  0
    1.7808   -1.6020   -2.1154 H   0  0  0  0  0  0  0  0  0  0  0  0
    6.0840   -6.8600   -4.1209 H   0  0  0  0  0  0  0  0  0  0  0  0
    5.4918    0.3209   -2.6994 H   0  0  0  0  0  0  0  0  0  0  0  0
    4.5163   -1.6594    1.7868 H   0  0  0  0  0  0  0  0  0  0  0  0
    2.6919  -10.2476   -6.2239 H   0  0  0  0  0  0  0  0  0  0  0  0
    1.8836   -8.7931   -6.2102 H   0  0  0  0  0  0  0  0  0  0  0  0
    6.6589   -4.4739   -2.1534 H   0  0  0  0  0  0  0  0  0  0  0  0
    8.6390   -2.1372    1.0013 H   0  0  0  0  0  0  0  0  0  0  0  0
    8.5935   -6.0643    3.6414 H   0  0  0  0  0  0  0  0  0  0  0  0
    8.3836   -4.4985    4.0076 H   0  0  0  0  0  0  0  0  0  0  0  0
    5.2482   -3.7014   -3.9032 H   0  0  0  0  0  0  0  0  0  0  0  0
    6.3841   -2.6475   -4.7844 H   0  0  0  0  0  0  0  0  0  0  0  0
    8.0164    0.5234    0.9397 H   0  0  0  0  0  0  0  0  0  0  0  0
    9.1307    0.2325    2.2108 H   0  0  0  0  0  0  0  0  0  0  0  0
    2.3373   -5.2681    0.0856 H   0  0  0  0  0  0  0  0  0  0  0  0
   -0.2585   -4.3250   -0.9629 H   0  0  0  0  0  0  0  0  0  0  0  0
    0.3819   -6.0024   -0.9538 H   0  0  0  0  0  0  0  0  0  0  0  0
   -1.0779   -5.0193    1.1416 H   0  0  0  0  0  0  0  0  0  0  0  0
    0.3564   -6.0770    1.4429 H   0  0  0  0  0  0  0  0  0  0  0  0
    0.0488   -3.1835    2.1317 H   0  0  0  0  0  0  0  0  0  0  0  0
    1.3517   -4.3172    2.5859 H   0  0  0  0  0  0  0  0  0  0  0  0
    3.9275   -0.5216   -0.6926 H   0  0  0  0  0  0  0  0  0  0  0  0
    3.1034    0.7703   -0.5869 H   0  0  0  0  0  0  0  0  0  0  0  0
    3.2616    0.2897    1.2582 H   0  0  0  0  0  0  0  0  0  0  0  0
    1.6994   -7.9161   -3.7249 H   0  0  0  0  0  0  0  0  0  0  0  0
    0.8133   -6.3764   -3.7016 H   0  0  0  0  0  0  0  0  0  0  0  0
    1.4248   -6.7599   -6.0566 H   0  0  0  0  0  0  0  0  0  0  0  0
    2.2927   -5.4384   -5.4301 H   0  0  0  0  0  0  0  0  0  0  0  0
    3.9081   -7.1720   -6.7018 H   0  0  0  0  0  0  0  0  0  0  0  0
    4.0677   -7.1801   -5.0291 H   0  0  0  0  0  0  0  0  0  0  0  0
    5.7002   -2.4882   -1.5990 H   0  0  0  0  0  0  0  0  0  0  0  0
    4.6160   -3.2288   -1.3699 H   0  0  0  0  0  0  0  0  0  0  0  0
    4.7354   -9.0006   -5.4173 H   0  0  0  0  0  0  0  0  0  0  0  0
    3.3800   -8.9520   -4.2830 H   0  0  0  0  0  0  0  0  0  0  0  0
    6.9019   -0.6223    1.3980 H   0  0  0  0  0  0  0  0  0  0  0  0
    4.6559   -5.7884   -6.0310 H   0  0  0  0  0  0  0  0  0  0  0  0
    3.9041   -4.9379   -4.7307 H   0  0  0  0  0  0  0  0  0  0  0  0
    8.1298   -2.2120   -0.5092 H   0  0  0  0  0  0  0  0  0  0  0  0
    7.2879   -1.6667   -1.6749 H   0  0  0  0  0  0  0  0  0  0  0  0
    7.9837   -6.3319    0.6611 H   0  0  0  0  0  0  0  0  0  0  0  0
    7.0329   -5.8856    1.1633 H   0  0  0  0  0  0  0  0  0  0  0  0
    5.5465   -6.1153    0.2319 H   0  0  0  0  0  0  0  0  0  0  0  0
    9.9717   -5.1088    1.9383 H   0  0  0  0  0  0  0  0  0  0  0  0
   10.2578   -3.3193   -0.9946 H   0  0  0  0  0  0  0  0  0  0  0  0
    9.6072   -1.6726   -1.4222 H   0  0  0  0  0  0  0  0  0  0  0  0
    8.8472   -0.2078   -1.7727 H   0  0  0  0  0  0  0  0  0  0  0  0
    7.4140   -3.8292    1.6493 H   0  0  0  0  0  0  0  0  0  0  0  0
    6.7678   -3.1762    2.1177 H   0  0  0  0  0  0  0  0  0  0  0  0
   10.3617   -5.2798    0.3754 H   0  0  0  0  0  0  0  0  0  0  0  0
    8.7759   -5.6580   -0.5026 H   0  0  0  0  0  0  0  0  0  0  0  0
    6.4742   -7.0900    2.1890 H   0  0  0  0  0  0  0  0  0  0  0  0
    6.2794   -2.8969    3.7159 H   0  0  0  0  0  0  0  0  0  0  0  0
    9.1028   -7.6690   -0.4319 H   0  0  0  0  0  0  0  0  0  0  0  0
   10.4072   -4.2367   -2.7557 H   0  0  0  0  0  0  0  0  0  0  0  0
    6.9515   -7.8835    4.2076 H   0  0  0  0  0  0  0  0  0  0  0  0
    7.0007   -3.7781    5.7545 H   0  0  0  0  0  0  0  0  0  0  0  0
    6.9022   -6.2691    6.1965 H   0  0  0  0  0  0  0  0  0  0  0  0
    9.3190   -9.0978   -2.3598 H   0  0  0  0  0  0  0  0  0  0  0  0
   10.5847   -5.5885   -4.6905 H   0  0  0  0  0  0  0  0  0  0  0  0
  1  2  1  0  0  0  0
  1 36  1  0  0  0  0
  2 49  1  0  0  0  0
  3 32  2  0  0  0  0
  4 33  2  0  0  0  0
  5 39  2  0  0  0  0
  6 40  2  0  0  0  0
  7 46  2  0  0  0  0
  8 50  2  0  0  0  0
  9 53  2  0  0  0  0
 10 57  2  0  0  0  0
 11 58  2  0  0  0  0
 12 59  2  0  0  0  0
 13 62  2  0  0  0  0
 14 73  1  0  0  0  0
 14 78  1  0  0  0  0
 15 28  1  0  0  0  0
 15 31  1  0  0  0  0
 15 33  1  0  0  0  0
 16 32  1  0  0  0  0
 16 35  1  0  0  0  0
 16 79  1  0  0  0  0
 17 34  1  0  0  0  0
 17 40  1  0  0  0  0
 17 80  1  0  0  0  0
 18 39  1  0  0  0  0
 18 47  1  0  0  0  0
 18 81  1  0  0  0  0
 19 41  1  0  0  0  0
 19 46  1  0  0  0  0
 19 82  1  0  0  0  0
 20 45  1  0  0  0  0
 20 53  1  0  0  0  0
 20 83  1  0  0  0  0
 21 44  1  0  0  0  0
 21 84  1  0  0  0  0
 21 85  1  0  0  0  0
 22 51  1  0  0  0  0
 22 58  1  0  0  0  0
 22 86  1  0  0  0  0
 23 54  1  0  0  0  0
 23 59  1  0  0  0  0
 23 87  1  0  0  0  0
 24 50  1  0  0  0  0
 24 76  1  0  0  0  0
 24 77  1  0  0  0  0
 25 88  1  0  0  0  0
 25 89  1  0  0  0  0
 26 57  1  0  0  0  0
 26 90  1  0  0  0  0
 26 91  1  0  0  0  0
 27 62  1  0  0  0  0
 27 92  1  0  0  0  0
 27 93  1  0  0  0  0
 28 29  1  0  0  0  0
 28 94  1  1  0  0  0
 28 32  1  0  0  0  0
 29 30  1  0  0  0  0
 29 95  1  0  0  0  0
 29 96  1  0  0  0  0
 30 31  1  0  0  0  0
 30 97  1  0  0  0  0
 30 98  1  0  0  0  0
 31 99  1  0  0  0  0
 31100  1  0  0  0  0
 34 36  1  0  0  0  0
 34101  1  1  0  0  0
 34 33  1  0  0  0  0
 35 37  1  0  0  0  0
 35 39  1  0  0  0  0
 35 74  1  1  0  0  0
 36102  1  0  0  0  0
 36103  1  0  0  0  0
 37 38  1  0  0  0  0
 37104  1  0  0  0  0
 37105  1  0  0  0  0
 38 42  1  0  0  0  0
 38106  1  0  0  0  0
 38107  1  0  0  0  0
 40 41  1  0  0  0  0
 41 43  1  0  0  0  0
 41 75  1  6  0  0  0
 42 44  1  0  0  0  0
 42108  1  0  0  0  0
 42109  1  0  0  0  0
 43 50  1  0  0  0  0
 43110  1  0  0  0  0
 43111  1  0  0  0  0
 44112  1  0  0  0  0
 44113  1  0  0  0  0
 45 46  1  0  0  0  0
 45 48  1  0  0  0  0
 45114  1  1  0  0  0
 47 57  1  0  0  0  0
 47115  1  0  0  0  0
 47116  1  0  0  0  0
 48 55  1  0  0  0  0
 48117  1  0  0  0  0
 48118  1  0  0  0  0
 49 52  1  0  0  0  0
 49119  1  0  0  0  0
 49120  1  0  0  0  0
 51 53  1  0  0  0  0
 51 56  1  0  0  0  0
 51121  1  1  0  0  0
 52 59  1  0  0  0  0
 52122  1  6  0  0  0
 52 25  1  0  0  0  0
 54 58  1  0  0  0  0
 54 60  1  0  0  0  0
 54123  1  6  0  0  0
 55 62  1  0  0  0  0
 55124  1  0  0  0  0
 55125  1  0  0  0  0
 56 61  1  0  0  0  0
 56126  1  0  0  0  0
 56127  1  0  0  0  0
 60 63  1  0  0  0  0
 60128  1  0  0  0  0
 60129  1  0  0  0  0
 61 64  2  0  0  0  0
 61 65  1  0  0  0  0
 63 66  2  0  0  0  0
 63 67  1  0  0  0  0
 64 68  1  0  0  0  0
 64130  1  0  0  0  0
 65 69  2  0  0  0  0
 65131  1  0  0  0  0
 66 71  1  0  0  0  0
 66132  1  0  0  0  0
 67 72  2  0  0  0  0
 67133  1  0  0  0  0
 68 70  2  0  0  0  0
 68134  1  0  0  0  0
 69 70  1  0  0  0  0
 69135  1  0  0  0  0
 70136  1  0  0  0  0
 71 73  2  0  0  0  0
 71137  1  0  0  0  0
 72 73  1  0  0  0  0
 72138  1  0  0  0  0
M  END
>  <DRUGBANK_ID>
DB14642

>  <SECONDARY_ACCESSION_NUMBERS>
DBSALT002465

>  <COMMON_NAME>
Lypressin

>  <CAS_NUMBER>
50-57-7

>  <UNII>
7CZF3L922Y

>  <SYNONYMS>
8-L-lysinevasopressin; Lypressin; Lysine vasopressin; Vasopressin pig; Vasopressin, 8-L-lysine

$$$$
