
 OpenBabel10282417193D

 32 34  0  0  0  0  0  0  0  0999 V2000
    2.4353    0.0016    0.0562 C   0  0  0  0  0  0  0  0  0  0  0  0
    1.0205   -0.0002   -0.2987 N   0  0  0  0  0  0  0  0  0  0  0  0
    0.3394   -1.1948    0.2557 C   0  0  0  0  0  0  0  0  0  0  0  0
   -1.1451   -1.2424   -0.1700 C   0  0  0  0  0  0  0  0  0  0  0  0
   -1.8291   -0.0010    0.2160 N   0  0  0  0  0  0  0  0  0  0  0  0
   -1.1659    1.2448   -0.1794 C   0  0  0  0  0  0  0  0  0  0  0  0
    0.3314    1.1987    0.2360 C   0  0  0  0  0  0  0  0  0  0  0  0
   -3.0757   -0.0291    0.7907 C   0  0  0  0  0  0  0  0  0  0  0  0
   -4.1978    0.5833    0.2074 C   0  0  0  0  0  0  0  0  0  0  0  0
   -5.4777    0.5479    0.8177 C   0  0  0  0  0  0  0  0  0  0  0  0
   -5.6718   -0.0868    2.0456 C   0  0  0  0  0  0  0  0  0  0  0  0
   -4.5643   -0.6752    2.6037 C   0  0  0  0  0  0  0  0  0  0  0  0
   -3.3177   -0.6612    2.0035 C   0  0  0  0  0  0  0  0  0  0  0  0
   -2.3615   -1.3102    2.7820 O   0  0  0  0  0  0  0  0  0  0  0  0
   -3.1038   -1.7357    3.8861 C   0  0  0  0  0  0  0  0  0  0  0  0
   -2.6350   -2.3696    4.8181 O   0  0  0  0  0  0  0  0  0  0  0  0
   -4.4202   -1.3526    3.7802 N   0  0  0  0  0  0  0  0  0  0  0  0
    2.9343    0.8799   -0.3683 H   0  0  0  0  0  0  0  0  0  0  0  0
    2.5938    0.0008    1.1396 H   0  0  0  0  0  0  0  0  0  0  0  0
    2.9354   -0.8765   -0.3685 H   0  0  0  0  0  0  0  0  0  0  0  0
    0.8355   -2.1061   -0.0970 H   0  0  0  0  0  0  0  0  0  0  0  0
    0.4000   -1.1887    1.3528 H   0  0  0  0  0  0  0  0  0  0  0  0
   -1.1987   -1.3478   -1.2618 H   0  0  0  0  0  0  0  0  0  0  0  0
   -1.6197   -2.1307    0.2610 H   0  0  0  0  0  0  0  0  0  0  0  0
   -1.2395    1.3761   -1.2655 H   0  0  0  0  0  0  0  0  0  0  0  0
   -1.6313    2.1134    0.3009 H   0  0  0  0  0  0  0  0  0  0  0  0
    0.3980    1.2042    1.3335 H   0  0  0  0  0  0  0  0  0  0  0  0
    0.8260    2.1071   -0.1257 H   0  0  0  0  0  0  0  0  0  0  0  0
   -4.1007    1.0708   -0.7607 H   0  0  0  0  0  0  0  0  0  0  0  0
   -6.3215    1.0196    0.3174 H   0  0  0  0  0  0  0  0  0  0  0  0
   -6.6445   -0.1106    2.5227 H   0  0  0  0  0  0  0  0  0  0  0  0
   -5.1195   -1.5590    4.4734 H   0  0  0  0  0  0  0  0  0  0  0  0
  1  2  1  0  0  0  0
  1 18  1  0  0  0  0
  1 19  1  0  0  0  0
  1 20  1  0  0  0  0
  2  3  1  0  0  0  0
  2  7  1  0  0  0  0
  3  4  1  0  0  0  0
  3 21  1  0  0  0  0
  3 22  1  0  0  0  0
  4  5  1  0  0  0  0
  4 23  1  0  0  0  0
  4 24  1  0  0  0  0
  5  6  1  0  0  0  0
  5  8  1  0  0  0  0
  6  7  1  0  0  0  0
  6 25  1  0  0  0  0
  6 26  1  0  0  0  0
  7 27  1  0  0  0  0
  7 28  1  0  0  0  0
  8  9  1  0  0  0  0
  8 13  2  0  0  0  0
  9 10  2  0  0  0  0
  9 29  1  0  0  0  0
 10 11  1  0  0  0  0
 10 30  1  0  0  0  0
 11 12  2  0  0  0  0
 11 31  1  0  0  0  0
 12 13  1  0  0  0  0
 12 17  1  0  0  0  0
 13 14  1  0  0  0  0
 14 15  1  0  0  0  0
 15 16  2  0  0  0  0
 15 17  1  0  0  0  0
 17 32  1  0  0  0  0
M  END
>  <DRUGBANK_ID>
DB12061

>  <SECONDARY_ACCESSION_NUMBERS>
DB05280

>  <COMMON_NAME>
Pardoprunox

>  <CAS_NUMBER>
269718-84-5

>  <UNII>
5R72CHP32S

>  <SYNONYMS>
Pardoprunox

$$$$
