
 OpenBabel10282417123D

 54 57  0  0  0  0  0  0  0  0999 V2000
    0.5143    0.1223   -0.0724 C   0  0  0  0  0  0  0  0  0  0  0  0
    1.1587    1.3552   -0.0230 C   0  0  0  0  0  0  0  0  0  0  0  0
    2.5219    1.3775    0.0567 C   0  0  0  0  0  0  0  0  0  0  0  0
    3.1831    0.1619    0.1571 C   0  0  0  0  0  0  0  0  0  0  0  0
    2.6049   -1.1064   -0.0362 C   0  0  0  0  0  0  0  0  0  0  0  0
    1.2245   -1.0805   -0.1335 C   0  0  0  0  0  0  0  0  0  0  0  0
   -1.5454    0.0443   -0.0178 I   0  0  0  0  0  0  0  0  0  0  0  0
    3.2877   -2.4827   -0.1028 C   0  0  0  0  0  0  0  0  0  0  0  0
    3.3560   -3.2006    1.2254 C   0  0  0  0  0  0  0  0  0  0  0  0
    1.7820   -4.2333    3.0182 C   0  0  0  0  0  0  0  0  0  0  0  0
    2.0220   -3.8131    1.6020 C   0  0  0  0  0  0  0  0  0  0  0  0
    4.4575   -3.3973    2.0039 C   0  0  0  0  0  0  0  0  0  0  0  0
    4.2593   -4.0596    3.3857 C   0  0  0  0  0  0  0  0  0  0  0  0
    3.0144   -4.9473    3.5155 C   0  0  0  0  0  0  0  0  0  0  0  0
    1.1358   -3.9822    0.7679 O   0  0  0  0  0  0  0  0  0  0  0  0
    5.8115   -3.1073    1.6656 N   0  0  0  0  0  0  0  0  0  0  0  0
    6.2797   -2.3818    0.5419 C   0  0  0  0  0  0  0  0  0  0  0  0
    5.9131   -1.0646    0.3804 C   0  0  0  0  0  0  0  0  0  0  0  0
    7.0165   -2.9315   -0.5075 C   0  0  0  0  0  0  0  0  0  0  0  0
    7.1637   -2.2529   -1.7589 C   0  0  0  0  0  0  0  0  0  0  0  0
    6.5189   -1.0449   -1.9968 C   0  0  0  0  0  0  0  0  0  0  0  0
    5.9172   -0.4585   -0.9066 C   0  0  0  0  0  0  0  0  0  0  0  0
    6.4020   -0.3664   -3.3373 C   0  0  0  0  0  0  0  0  0  0  0  0
    7.3657    1.4460   -4.7177 C   0  0  0  0  0  0  0  0  0  0  0  0
    6.6638    1.1439   -3.4011 C   0  0  1  0  0  0  0  0  0  0  0  0
    5.4156    2.0275   -3.2676 C   0  0  0  0  0  0  0  0  0  0  0  0
    6.6402    0.8139   -5.8785 C   0  0  0  0  0  0  0  0  0  0  0  0
    6.6404    1.3020   -6.9951 O   0  0  0  0  0  0  0  0  0  0  0  0
    6.0784   -1.0548   -4.3952 N   0  0  0  0  0  0  0  0  0  0  0  0
    6.0466   -0.3983   -5.5992 N   0  0  0  0  0  0  0  0  0  0  0  0
    0.6275    2.2964   -0.0052 H   0  0  0  0  0  0  0  0  0  0  0  0
    3.0972    2.3015    0.0990 H   0  0  0  0  0  0  0  0  0  0  0  0
    4.1892    0.3785    0.4271 H   0  0  0  0  0  0  0  0  0  0  0  0
    0.6908   -2.0189   -0.2266 H   0  0  0  0  0  0  0  0  0  0  0  0
    2.7725   -3.1193   -0.8377 H   0  0  0  0  0  0  0  0  0  0  0  0
    4.2473   -2.4520   -0.5978 H   0  0  0  0  0  0  0  0  0  0  0  0
    1.5191   -3.3556    3.6166 H   0  0  0  0  0  0  0  0  0  0  0  0
    0.9227   -4.9175    3.0310 H   0  0  0  0  0  0  0  0  0  0  0  0
    4.1938   -3.2655    4.1436 H   0  0  0  0  0  0  0  0  0  0  0  0
    5.1290   -4.6733    3.6454 H   0  0  0  0  0  0  0  0  0  0  0  0
    2.8572   -5.2526    4.5567 H   0  0  0  0  0  0  0  0  0  0  0  0
    3.1604   -5.8656    2.9320 H   0  0  0  0  0  0  0  0  0  0  0  0
    6.4767   -3.1608    2.4342 H   0  0  0  0  0  0  0  0  0  0  0  0
    5.3754   -0.6534    1.2314 H   0  0  0  0  0  0  0  0  0  0  0  0
    7.3958   -3.9422   -0.4136 H   0  0  0  0  0  0  0  0  0  0  0  0
    7.7457   -2.7019   -2.5558 H   0  0  0  0  0  0  0  0  0  0  0  0
    5.2928    0.3986   -1.1208 H   0  0  0  0  0  0  0  0  0  0  0  0
    7.4239    2.5272   -4.8856 H   0  0  0  0  0  0  0  0  0  0  0  0
    8.3846    1.0455   -4.7104 H   0  0  0  0  0  0  0  0  0  0  0  0
    7.3475    1.3986   -2.5834 H   0  0  0  0  0  0  0  0  0  0  0  0
    4.9006    1.9033   -2.3148 H   0  0  0  0  0  0  0  0  0  0  0  0
    5.6987    3.0862   -3.3175 H   0  0  0  0  0  0  0  0  0  0  0  0
    4.6802    1.8336   -4.0541 H   0  0  0  0  0  0  0  0  0  0  0  0
    5.6530   -0.9009   -6.3907 H   0  0  0  0  0  0  0  0  0  0  0  0
  1  2  2  0  0  0  0
  1  6  1  0  0  0  0
  1  7  1  0  0  0  0
  2  3  1  0  0  0  0
  2 31  1  0  0  0  0
  3  4  2  0  0  0  0
  3 32  1  0  0  0  0
  4  5  1  0  0  0  0
  4 33  1  0  0  0  0
  5  6  2  0  0  0  0
  5  8  1  0  0  0  0
  6 34  1  0  0  0  0
  8  9  1  0  0  0  0
  8 35  1  0  0  0  0
  8 36  1  0  0  0  0
  9 11  1  0  0  0  0
  9 12  2  0  0  0  0
 10 11  1  0  0  0  0
 10 14  1  0  0  0  0
 10 37  1  0  0  0  0
 10 38  1  0  0  0  0
 11 15  2  0  0  0  0
 12 13  1  0  0  0  0
 12 16  1  0  0  0  0
 13 14  1  0  0  0  0
 13 39  1  0  0  0  0
 13 40  1  0  0  0  0
 14 41  1  0  0  0  0
 14 42  1  0  0  0  0
 16 17  1  0  0  0  0
 16 43  1  0  0  0  0
 17 18  2  0  0  0  0
 17 19  1  0  0  0  0
 18 22  1  0  0  0  0
 18 44  1  0  0  0  0
 19 20  2  0  0  0  0
 19 45  1  0  0  0  0
 20 21  1  0  0  0  0
 20 46  1  0  0  0  0
 21 22  2  0  0  0  0
 21 23  1  0  0  0  0
 22 47  1  0  0  0  0
 23 25  1  0  0  0  0
 23 29  2  0  0  0  0
 24 25  1  0  0  0  0
 24 27  1  0  0  0  0
 24 48  1  0  0  0  0
 24 49  1  0  0  0  0
 25 26  1  0  0  0  0
 25 50  1  1  0  0  0
 26 51  1  0  0  0  0
 26 52  1  0  0  0  0
 26 53  1  0  0  0  0
 27 30  1  0  0  0  0
 27 28  2  0  0  0  0
 29 30  1  0  0  0  0
 30 54  1  0  0  0  0
M  END
>  <DRUGBANK_ID>
DB01640

>  <SECONDARY_ACCESSION_NUMBERS>
EXPT00272

>  <COMMON_NAME>
6-(4-{[2-(3-iodobenzyl)-3-oxocyclohex-1-en-1-yl]amino}phenyl)-5-methyl-4,5-dihydropyridazin-3(2H)-one

>  <SYNONYMS>
(4R)-3-[4-[[2-[(3-Iodophenyl)methyl]-3-oxocyclohexen-1-yl]amino]phenyl]-4-methyl-4,5-dihydro-1H-pyridazin-6-one

$$$$
