PC0
 OpenBabel10282417173D

 42 43  0  0  0  0  0  0  0  0999 V2000
   -1.6365    0.2700   -0.0146 C   0  0  0  0  0  0  0  0  0  0  0  0
   -0.8101   -0.7663    0.0154 N   0  0  0  0  0  0  0  0  0  0  0  0
    0.4831   -0.8367   -0.0221 C   0  0  0  0  0  0  0  0  0  0  0  0
    1.2141    0.3001   -0.0102 C   0  0  0  0  0  0  0  0  0  0  0  0
    0.4516    1.4806    0.0042 C   0  0  0  0  0  0  0  0  0  0  0  0
   -0.9832    1.4767   -0.0033 C   0  0  0  0  0  0  0  0  0  0  0  0
    2.6739    0.0810    0.0016 C   0  0  0  0  0  0  0  0  0  0  0  0
   -3.0451    0.0205   -0.0384 N   0  0  0  0  0  0  0  0  0  0  0  0
   -3.8654   -1.0956   -0.0606 C   0  0  0  0  0  0  0  0  0  0  0  0
   -5.5311   -0.8447   -0.0548 S   0  0  0  0  0  0  0  0  0  0  0  0
   -3.5003   -2.4061   -0.0934 N   0  0  0  0  0  0  0  0  0  0  0  0
   -2.1930   -2.9893   -0.0623 C   0  0  0  0  0  0  0  0  0  0  0  0
   -1.5778   -3.3461    1.2756 C   0  0  0  0  0  0  0  0  0  0  0  0
   -2.0056   -4.7454    1.4702 C   0  0  0  0  0  0  0  0  0  0  0  0
   -3.3408   -4.9650    1.4260 N   0  0  0  0  0  0  0  0  0  0  0  0
   -3.7352   -6.2358    1.3342 C   0  0  0  0  0  0  0  0  0  0  0  0
   -2.8459   -7.2962    1.2743 C   0  0  0  0  0  0  0  0  0  0  0  0
   -1.4698   -7.0439    1.3075 C   0  0  0  0  0  0  0  0  0  0  0  0
   -1.0498   -5.7357    1.4551 C   0  0  0  0  0  0  0  0  0  0  0  0
   -0.6530   -8.1284    1.1419 O   0  0  0  0  0  0  0  0  0  0  0  0
    0.7580   -7.8806    1.0826 C   0  0  0  0  0  0  0  0  0  0  0  0
    1.1920   -7.2121   -0.2226 C   0  0  0  0  0  0  0  0  0  0  0  0
    0.2429   -5.3787    1.5114 F   0  0  0  0  0  0  0  0  0  0  0  0
    0.8945   -1.8425   -0.0424 H   0  0  0  0  0  0  0  0  0  0  0  0
    0.9827    2.4283    0.0166 H   0  0  0  0  0  0  0  0  0  0  0  0
   -1.5320    2.4125    0.0063 H   0  0  0  0  0  0  0  0  0  0  0  0
    2.9506   -0.5007    0.8939 H   0  0  0  0  0  0  0  0  0  0  0  0
    2.9605   -0.5239   -0.8717 H   0  0  0  0  0  0  0  0  0  0  0  0
    3.2180    1.0191   -0.0093 H   0  0  0  0  0  0  0  0  0  0  0  0
   -3.6048    0.8661   -0.0289 H   0  0  0  0  0  0  0  0  0  0  0  0
   -4.2393   -3.0974   -0.0260 H   0  0  0  0  0  0  0  0  0  0  0  0
   -1.8281   -3.4936   -0.9668 H   0  0  0  0  0  0  0  0  0  0  0  0
   -1.7508   -2.1249   -0.2840 H   0  0  0  0  0  0  0  0  0  0  0  0
   -0.4804   -3.2675    1.2290 H   0  0  0  0  0  0  0  0  0  0  0  0
   -1.8959   -2.7112    2.1068 H   0  0  0  0  0  0  0  0  0  0  0  0
   -4.8113   -6.3632    1.2946 H   0  0  0  0  0  0  0  0  0  0  0  0
   -3.2308   -8.3043    1.2046 H   0  0  0  0  0  0  0  0  0  0  0  0
    1.0981   -7.3439    1.9777 H   0  0  0  0  0  0  0  0  0  0  0  0
    1.2431   -8.8607    1.1343 H   0  0  0  0  0  0  0  0  0  0  0  0
    0.7162   -6.2445   -0.4066 H   0  0  0  0  0  0  0  0  0  0  0  0
    2.2723   -7.0436   -0.2232 H   0  0  0  0  0  0  0  0  0  0  0  0
    0.9122   -7.8309   -1.0780 H   0  0  0  0  0  0  0  0  0  0  0  0
  1  2  1  0  0  0  0
  1  6  2  0  0  0  0
  1  8  1  0  0  0  0
  2  3  2  0  0  0  0
  3  4  1  0  0  0  0
  3 24  1  0  0  0  0
  4  5  2  0  0  0  0
  4  7  1  0  0  0  0
  5  6  1  0  0  0  0
  5 25  1  0  0  0  0
  6 26  1  0  0  0  0
  7 27  1  0  0  0  0
  7 28  1  0  0  0  0
  7 29  1  0  0  0  0
  8  9  1  0  0  0  0
  8 30  1  0  0  0  0
  9 10  2  0  0  0  0
  9 11  1  0  0  0  0
 11 12  1  0  0  0  0
 11 31  1  0  0  0  0
 12 13  1  0  0  0  0
 12 32  1  0  0  0  0
 12 33  1  0  0  0  0
 13 14  1  0  0  0  0
 13 34  1  0  0  0  0
 13 35  1  0  0  0  0
 14 15  2  0  0  0  0
 14 19  1  0  0  0  0
 15 16  1  0  0  0  0
 16 17  2  0  0  0  0
 16 36  1  0  0  0  0
 17 18  1  0  0  0  0
 17 37  1  0  0  0  0
 18 19  2  0  0  0  0
 18 20  1  0  0  0  0
 19 23  1  0  0  0  0
 20 21  1  0  0  0  0
 21 22  1  0  0  0  0
 21 38  1  0  0  0  0
 21 39  1  0  0  0  0
 22 40  1  0  0  0  0
 22 41  1  0  0  0  0
 22 42  1  0  0  0  0
M  END
>  <DRUGBANK_ID>
DB08372

>  <COMMON_NAME>
1-[2-(4-ETHOXY-3-FLUOROPYRIDIN-2-YL)ETHYL]-3-(5-METHYLPYRIDIN-2-YL)THIOUREA

$$$$
