5MS
 OpenBabel10282417163D

 43 45  0  0  0  0  0  0  0  0999 V2000
    0.9817   -0.0574   -0.0033 C   0  0  0  0  0  0  0  0  0  0  0  0
    0.2792    1.1770    0.0107 C   0  0  0  0  0  0  0  0  0  0  0  0
   -1.1252    1.2339    0.0132 C   0  0  0  0  0  0  0  0  0  0  0  0
   -1.8579    0.0598   -0.0165 C   0  0  0  0  0  0  0  0  0  0  0  0
   -1.1297   -1.1377   -0.0448 C   0  0  0  0  0  0  0  0  0  0  0  0
    0.2531   -1.2587   -0.0147 C   0  0  0  0  0  0  0  0  0  0  0  0
   -3.2768    0.0379    0.0878 N   0  0  0  0  0  0  0  0  0  0  0  0
   -4.0506   -1.1566    0.0236 C   0  0  0  0  0  0  0  0  0  0  0  0
   -3.8551   -2.0844    1.0296 C   0  0  0  0  0  0  0  0  0  0  0  0
   -4.4957   -3.2971    0.9365 C   0  0  0  0  0  0  0  0  0  0  0  0
   -5.3105   -3.5905   -0.0941 N   0  0  0  0  0  0  0  0  0  0  0  0
   -5.4601   -2.6201   -1.0106 C   0  0  0  0  0  0  0  0  0  0  0  0
   -4.8835   -1.3981   -1.0020 N   0  0  0  0  0  0  0  0  0  0  0  0
   -4.4007   -4.2771    2.0215 C   0  0  0  0  0  0  0  0  0  0  0  0
   -4.6875   -3.8818    3.3411 C   0  0  0  0  0  0  0  0  0  0  0  0
   -4.7275   -4.8092    4.3792 C   0  0  0  0  0  0  0  0  0  0  0  0
   -4.4797   -6.1517    4.1131 C   0  0  0  0  0  0  0  0  0  0  0  0
   -4.1660   -6.5597    2.8169 C   0  0  0  0  0  0  0  0  0  0  0  0
   -4.0801   -5.6204    1.7858 C   0  0  0  0  0  0  0  0  0  0  0  0
    2.4851   -0.0200   -0.0185 C   0  0  0  0  0  0  0  0  0  0  0  0
    0.8885   -2.5528   -0.1841 N   0  0  0  0  0  0  0  0  0  0  0  0
    0.1057   -4.0612    0.0465 S   0  0  0  0  0  0  0  0  0  0  0  0
    0.5684   -4.9025   -1.4443 C   0  0  0  0  0  0  0  0  0  0  0  0
    0.7544   -4.7199    1.1503 O   0  0  0  0  0  0  0  0  0  0  0  0
   -1.3418   -3.9905   -0.0204 O   0  0  0  0  0  0  0  0  0  0  0  0
    0.8284    2.1186    0.0130 H   0  0  0  0  0  0  0  0  0  0  0  0
   -1.6270    2.1970    0.0278 H   0  0  0  0  0  0  0  0  0  0  0  0
   -1.7176   -2.0244   -0.1195 H   0  0  0  0  0  0  0  0  0  0  0  0
   -3.7353    0.8040   -0.3881 H   0  0  0  0  0  0  0  0  0  0  0  0
   -3.1842   -1.8680    1.8509 H   0  0  0  0  0  0  0  0  0  0  0  0
   -6.1237   -2.8527   -1.8389 H   0  0  0  0  0  0  0  0  0  0  0  0
   -4.9128   -2.8397    3.5590 H   0  0  0  0  0  0  0  0  0  0  0  0
   -4.9846   -4.4832    5.3826 H   0  0  0  0  0  0  0  0  0  0  0  0
   -4.5311   -6.8809    4.9164 H   0  0  0  0  0  0  0  0  0  0  0  0
   -4.0094   -7.6133    2.6031 H   0  0  0  0  0  0  0  0  0  0  0  0
   -3.7682   -5.9378    0.7924 H   0  0  0  0  0  0  0  0  0  0  0  0
    2.8885   -0.5263    0.8639 H   0  0  0  0  0  0  0  0  0  0  0  0
    2.8683   -0.4957   -0.9259 H   0  0  0  0  0  0  0  0  0  0  0  0
    2.8638    1.0095   -0.0034 H   0  0  0  0  0  0  0  0  0  0  0  0
    1.8640   -2.5981    0.1162 H   0  0  0  0  0  0  0  0  0  0  0  0
    1.6395   -5.0975   -1.4348 H   0  0  0  0  0  0  0  0  0  0  0  0
    0.0151   -5.8465   -1.4672 H   0  0  0  0  0  0  0  0  0  0  0  0
    0.2721   -4.3005   -2.3058 H   0  0  0  0  0  0  0  0  0  0  0  0
  1  2  2  0  0  0  0
  1  6  1  0  0  0  0
  1 20  1  0  0  0  0
  2  3  1  0  0  0  0
  2 26  1  0  0  0  0
  3  4  2  0  0  0  0
  3 27  1  0  0  0  0
  4  5  1  0  0  0  0
  4  7  1  0  0  0  0
  5  6  2  0  0  0  0
  5 28  1  0  0  0  0
  6 21  1  0  0  0  0
  7  8  1  0  0  0  0
  7 29  1  0  0  0  0
  8  9  2  0  0  0  0
  8 13  1  0  0  0  0
  9 10  1  0  0  0  0
  9 30  1  0  0  0  0
 10 11  2  0  0  0  0
 10 14  1  0  0  0  0
 11 12  1  0  0  0  0
 12 13  2  0  0  0  0
 12 31  1  0  0  0  0
 14 15  2  0  0  0  0
 14 19  1  0  0  0  0
 15 16  1  0  0  0  0
 15 32  1  0  0  0  0
 16 17  2  0  0  0  0
 16 33  1  0  0  0  0
 17 18  1  0  0  0  0
 17 34  1  0  0  0  0
 18 19  2  0  0  0  0
 18 35  1  0  0  0  0
 19 36  1  0  0  0  0
 20 37  1  0  0  0  0
 20 38  1  0  0  0  0
 20 39  1  0  0  0  0
 21 22  1  0  0  0  0
 21 40  1  0  0  0  0
 22 23  1  0  0  0  0
 22 24  2  0  0  0  0
 22 25  2  0  0  0  0
 23 41  1  0  0  0  0
 23 42  1  0  0  0  0
 23 43  1  0  0  0  0
M  END
>  <DRUGBANK_ID>
DB07175

>  <COMMON_NAME>
N-{2-methyl-5-[(6-phenylpyrimidin-4-yl)amino]phenyl}methanesulfonamide

$$$$
