
 OpenBabel10282417203D

 29 28  0  0  0  0  0  0  0  0999 V2000
    0.9362    0.0863   -0.2429 C   0  0  0  0  0  0  0  0  0  0  0  0
    0.3986   -1.2952   -0.5463 C   0  0  0  0  0  0  0  0  0  0  0  0
    0.9038   -2.3393    0.4361 C   0  0  0  0  0  0  0  0  0  0  0  0
    0.4885   -2.2909    1.9243 C   0  0  0  0  0  0  0  0  0  0  0  0
   -1.0585   -2.2726    1.9844 C   0  0  0  0  0  0  0  0  0  0  0  0
    0.9967   -3.6025    2.6278 C   0  0  0  0  0  0  0  0  0  0  0  0
    2.4057   -3.8233    2.7265 O   0  0  0  0  0  0  0  0  0  0  0  0
    3.1521   -4.0778    1.5542 N   0  3  0  0  0  0  0  0  0  0  0  0
    2.5462   -4.5342    0.5812 O   0  0  0  0  0  0  0  0  0  0  0  0
    4.3375   -3.8037    1.6767 O   0  5  0  0  0  0  0  0  0  0  0  0
    1.0380   -1.0496    2.6890 C   0  0  0  0  0  0  0  0  0  0  0  0
    2.4397   -0.8763    2.5039 O   0  0  0  0  0  0  0  0  0  0  0  0
    3.2400   -1.4070    3.5474 N   0  3  0  0  0  0  0  0  0  0  0  0
    2.6449   -1.8848    4.5225 O   0  0  0  0  0  0  0  0  0  0  0  0
    4.4344   -1.3792    3.2950 O   0  5  0  0  0  0  0  0  0  0  0  0
    0.4378    0.5207    0.6185 H   0  0  0  0  0  0  0  0  0  0  0  0
    0.7355    0.7760   -1.0602 H   0  0  0  0  0  0  0  0  0  0  0  0
    2.0159    0.0535   -0.0551 H   0  0  0  0  0  0  0  0  0  0  0  0
   -0.6924   -1.2976   -0.6040 H   0  0  0  0  0  0  0  0  0  0  0  0
    0.7614   -1.5931   -1.5384 H   0  0  0  0  0  0  0  0  0  0  0  0
    0.5839   -3.3140    0.0395 H   0  0  0  0  0  0  0  0  0  0  0  0
    1.9907   -2.2739    0.3692 H   0  0  0  0  0  0  0  0  0  0  0  0
   -1.4746   -3.2082    1.5919 H   0  0  0  0  0  0  0  0  0  0  0  0
   -1.4292   -2.1366    3.0046 H   0  0  0  0  0  0  0  0  0  0  0  0
   -1.4820   -1.4576    1.3868 H   0  0  0  0  0  0  0  0  0  0  0  0
    0.6836   -3.4848    3.6773 H   0  0  0  0  0  0  0  0  0  0  0  0
    0.4768   -4.5041    2.2904 H   0  0  0  0  0  0  0  0  0  0  0  0
    0.5634   -0.1409    2.3233 H   0  0  0  0  0  0  0  0  0  0  0  0
    0.7271   -1.0249    3.7400 H   0  0  0  0  0  0  0  0  0  0  0  0
  1  2  1  0  0  0  0
  1 16  1  0  0  0  0
  1 17  1  0  0  0  0
  1 18  1  0  0  0  0
  2  3  1  0  0  0  0
  2 19  1  0  0  0  0
  2 20  1  0  0  0  0
  3  4  1  0  0  0  0
  3 21  1  0  0  0  0
  3 22  1  0  0  0  0
  4  5  1  0  0  0  0
  4  6  1  0  0  0  0
  4 11  1  0  0  0  0
  5 23  1  0  0  0  0
  5 24  1  0  0  0  0
  5 25  1  0  0  0  0
  6  7  1  0  0  0  0
  6 26  1  0  0  0  0
  6 27  1  0  0  0  0
  7  8  1  0  0  0  0
  8  9  2  0  0  0  0
  8 10  1  0  0  0  0
 11 12  1  0  0  0  0
 11 28  1  0  0  0  0
 11 29  1  0  0  0  0
 12 13  1  0  0  0  0
 13 14  2  0  0  0  0
 13 15  1  0  0  0  0
M  CHG  4   8   1  10  -1  13   1  15  -1
M  END
>  <DRUGBANK_ID>
DB13408

>  <COMMON_NAME>
Methylpropylpropanediol dinitrate

>  <CAS_NUMBER>
10605-24-0

>  <UNII>
C317706XA7

>  <SYNONYMS>
2-methyl-2-propylpropane-1,3-diyl dinitrate

$$$$
