
 OpenBabel10282417193D

 53 55  0  0  0  0  0  0  0  0999 V2000
    1.0426   -0.6633   -9.4401 C   0  0  0  0  0  0  0  0  0  0  0  0
    0.5374    0.1116   -8.2334 C   0  0  0  0  0  0  0  0  0  0  0  0
   -0.5942   -0.6383   -7.5494 C   0  0  0  0  0  0  0  0  0  0  0  0
   -0.2900   -1.9101   -7.0118 N   0  0  0  0  0  0  0  0  0  0  0  0
   -0.3415   -2.2745   -5.6796 C   0  0  0  0  0  0  0  0  0  0  0  0
   -0.0195   -3.4345   -5.4543 O   0  0  0  0  0  0  0  0  0  0  0  0
   -0.7803   -1.2671   -4.5450 C   0  0  1  0  0  0  0  0  0  0  0  0
   -0.2712    0.1801   -4.4095 C   0  0  0  0  0  0  0  0  0  0  0  0
   -1.7037    0.7671   -4.6642 C   0  0  1  0  0  0  0  0  0  0  0  0
   -2.2170   -0.7084   -4.4657 C   0  0  0  0  0  0  0  0  0  0  0  0
   -2.0785    1.6282   -3.6834 F   0  0  0  0  0  0  0  0  0  0  0  0
   -2.1358    1.5241   -6.0378 C   0  0  0  0  0  0  0  0  0  0  0  0
   -1.4355    2.6157   -6.5949 C   0  0  0  0  0  0  0  0  0  0  0  0
   -1.7751    3.1506   -7.8513 C   0  0  0  0  0  0  0  0  0  0  0  0
   -2.8527    2.6600   -8.5900 C   0  0  0  0  0  0  0  0  0  0  0  0
   -3.6337    1.6760   -7.9885 C   0  0  0  0  0  0  0  0  0  0  0  0
   -3.2268    1.0658   -6.8038 C   0  0  0  0  0  0  0  0  0  0  0  0
   -3.1489    3.1235  -10.0034 C   0  0  0  0  0  0  0  0  0  0  0  0
   -2.9323    2.1824  -11.1301 N   0  0  0  0  0  0  0  0  0  0  0  0
   -3.7176    0.9347  -11.0890 C   0  0  0  0  0  0  0  0  0  0  0  0
   -2.8515   -0.0714  -10.3872 C   0  0  0  0  0  0  0  0  0  0  0  0
   -1.4885    0.3727  -10.8171 C   0  0  0  0  0  0  0  0  0  0  0  0
   -1.5312    1.8034  -11.2772 C   0  0  0  0  0  0  0  0  0  0  0  0
   -1.0054    4.1236   -8.3603 F   0  0  0  0  0  0  0  0  0  0  0  0
    1.7068    0.4065   -7.3215 C   0  0  0  0  0  0  0  0  0  0  0  0
    1.5795   -1.5535   -9.1240 H   0  0  0  0  0  0  0  0  0  0  0  0
    1.6770   -0.0136  -10.0483 H   0  0  0  0  0  0  0  0  0  0  0  0
    0.2496   -1.0558  -10.0746 H   0  0  0  0  0  0  0  0  0  0  0  0
    0.1557    1.1039   -8.5180 H   0  0  0  0  0  0  0  0  0  0  0  0
   -0.8486   -0.0523   -6.7121 H   0  0  0  0  0  0  0  0  0  0  0  0
   -1.4920   -0.7588   -8.1488 H   0  0  0  0  0  0  0  0  0  0  0  0
   -0.0797   -2.6637   -7.6575 H   0  0  0  0  0  0  0  0  0  0  0  0
   -0.5565   -1.7948   -3.6029 H   0  0  0  0  0  0  0  0  0  0  0  0
    0.5502    0.4469   -5.0541 H   0  0  0  0  0  0  0  0  0  0  0  0
    0.0809    0.4153   -3.3964 H   0  0  0  0  0  0  0  0  0  0  0  0
   -2.6942   -0.8268   -3.4868 H   0  0  0  0  0  0  0  0  0  0  0  0
   -2.8900   -1.1400   -5.2079 H   0  0  0  0  0  0  0  0  0  0  0  0
   -0.5587    3.0119   -6.0877 H   0  0  0  0  0  0  0  0  0  0  0  0
   -4.4794    1.2355   -8.5108 H   0  0  0  0  0  0  0  0  0  0  0  0
   -3.7211    0.1278   -6.5566 H   0  0  0  0  0  0  0  0  0  0  0  0
   -4.1931    3.4506  -10.0380 H   0  0  0  0  0  0  0  0  0  0  0  0
   -2.5594    4.0258  -10.2128 H   0  0  0  0  0  0  0  0  0  0  0  0
   -3.8713    0.5596  -12.1063 H   0  0  0  0  0  0  0  0  0  0  0  0
   -4.7036    1.0574  -10.6383 H   0  0  0  0  0  0  0  0  0  0  0  0
   -2.9005    0.0049   -9.3097 H   0  0  0  0  0  0  0  0  0  0  0  0
   -3.0674   -1.1276  -10.5609 H   0  0  0  0  0  0  0  0  0  0  0  0
   -0.9286    0.4312   -9.9165 H   0  0  0  0  0  0  0  0  0  0  0  0
   -1.0405   -0.3099  -11.5392 H   0  0  0  0  0  0  0  0  0  0  0  0
   -0.8402    2.4208  -10.6829 H   0  0  0  0  0  0  0  0  0  0  0  0
   -1.1688    1.8600  -12.3082 H   0  0  0  0  0  0  0  0  0  0  0  0
    2.5091    0.8922   -7.8786 H   0  0  0  0  0  0  0  0  0  0  0  0
    1.4236    1.1167   -6.5462 H   0  0  0  0  0  0  0  0  0  0  0  0
    2.0752   -0.5189   -6.8749 H   0  0  0  0  0  0  0  0  0  0  0  0
  1  2  1  0  0  0  0
  1 26  1  0  0  0  0
  1 27  1  0  0  0  0
  1 28  1  0  0  0  0
  2  3  1  0  0  0  0
  2 25  1  0  0  0  0
  2 29  1  0  0  0  0
  3  4  1  0  0  0  0
  3 30  1  0  0  0  0
  3 31  1  0  0  0  0
  4  5  1  0  0  0  0
  4 32  1  0  0  0  0
  5  6  2  0  0  0  0
  7  8  1  0  0  0  0
  7 10  1  0  0  0  0
  7 33  1  1  0  0  0
  7  5  1  0  0  0  0
  8  9  1  0  0  0  0
  8 34  1  0  0  0  0
  8 35  1  0  0  0  0
  9 10  1  0  0  0  0
  9 11  1  1  0  0  0
  9 12  1  0  0  0  0
 10 36  1  0  0  0  0
 10 37  1  0  0  0  0
 12 13  2  0  0  0  0
 12 17  1  0  0  0  0
 13 14  1  0  0  0  0
 13 38  1  0  0  0  0
 14 15  2  0  0  0  0
 14 24  1  0  0  0  0
 15 16  1  0  0  0  0
 15 18  1  0  0  0  0
 16 17  2  0  0  0  0
 16 39  1  0  0  0  0
 17 40  1  0  0  0  0
 18 19  1  0  0  0  0
 18 41  1  0  0  0  0
 18 42  1  0  0  0  0
 19 20  1  0  0  0  0
 19 23  1  0  0  0  0
 20 21  1  0  0  0  0
 20 43  1  0  0  0  0
 20 44  1  0  0  0  0
 21 22  1  0  0  0  0
 21 45  1  0  0  0  0
 21 46  1  0  0  0  0
 22 23  1  0  0  0  0
 22 47  1  0  0  0  0
 22 48  1  0  0  0  0
 23 49  1  0  0  0  0
 23 50  1  0  0  0  0
 25 51  1  0  0  0  0
 25 52  1  0  0  0  0
 25 53  1  0  0  0  0
M  END
>  <DRUGBANK_ID>
DB12360

>  <COMMON_NAME>
PF-03654764

>  <CAS_NUMBER>
935840-35-0

>  <UNII>
FPI2G03BJ1

$$$$
