PFH
 OpenBabel10282417173D

 53 57  0  0  0  0  0  0  0  0999 V2000
    1.2514   -1.3902   -0.1247 C   0  0  0  0  0  0  0  0  0  0  0  0
   -1.2509    1.3849   -0.3352 C   0  0  0  0  0  0  0  0  0  0  0  0
    0.0586    0.6924   -0.4976 C   0  0  0  0  0  0  0  0  0  0  0  0
   -2.2352   -0.6520    0.0106 C   0  0  0  0  0  0  0  0  0  0  0  0
    0.5676    4.2807    1.8402 C   0  0  0  0  0  0  0  0  0  0  0  0
   -2.0691    4.9348    0.6132 C   0  0  0  0  0  0  0  0  0  0  0  0
   -0.7795    3.8053   -1.0639 C   0  0  0  0  0  0  0  0  0  0  0  0
   -2.3256    3.4075    0.7319 C   0  0  0  0  0  0  0  0  0  0  0  0
    0.9522    2.0518    3.5867 C   0  0  0  0  0  0  0  0  0  0  0  0
    4.9521    1.3298    0.0322 C   0  0  0  0  0  0  0  0  0  0  0  0
    3.5701    1.5302   -0.1230 O   0  0  0  0  0  0  0  0  0  0  0  0
    2.6334    0.5454   -0.3220 C   0  0  0  0  0  0  0  0  0  0  0  0
    2.5566   -0.8217   -0.1203 C   0  0  0  0  0  0  0  0  0  0  0  0
    3.4931   -1.8024    0.0902 O   0  0  0  0  0  0  0  0  0  0  0  0
    4.8540   -1.4556    0.0453 C   0  0  0  0  0  0  0  0  0  0  0  0
    1.4202    1.1890   -0.6998 C   0  0  0  0  0  0  0  0  0  0  0  0
    0.0371   -0.6797   -0.2397 C   0  0  0  0  0  0  0  0  0  0  0  0
   -1.0971   -1.3560   -0.0418 N   0  0  0  0  0  0  0  0  0  0  0  0
   -2.3618    0.6749   -0.0655 N   0  0  0  0  0  0  0  0  0  0  0  0
   -1.4686    2.7602   -0.3114 N   0  0  0  0  0  0  0  0  0  0  0  0
   -0.7256    5.0312   -0.0940 C   0  0  2  0  0  0  0  0  0  0  0  0
    0.3573    5.2258    0.8771 O   0  0  0  0  0  0  0  0  0  0  0  0
    0.7684    2.9881    1.4576 C   0  0  0  0  0  0  0  0  0  0  0  0
    0.9209    1.8740    2.2675 C   0  0  0  0  0  0  0  0  0  0  0  0
    1.1109    0.9201    4.3862 C   0  0  0  0  0  0  0  0  0  0  0  0
    0.8050    3.3805    4.0784 C   0  0  0  0  0  0  0  0  0  0  0  0
    0.6361    4.4910    3.1858 C   0  0  0  0  0  0  0  0  0  0  0  0
    0.8078    3.4993    5.4486 C   0  0  0  0  0  0  0  0  0  0  0  0
    0.9632    2.3708    6.2734 C   0  0  0  0  0  0  0  0  0  0  0  0
    1.1187    1.0832    5.7460 C   0  0  0  0  0  0  0  0  0  0  0  0
   -0.6881    5.9338   -0.7189 H   0  0  0  0  0  0  0  0  0  0  0  0
    1.1793   -2.4685    0.0337 H   0  0  0  0  0  0  0  0  0  0  0  0
   -3.1533   -1.2208    0.1206 H   0  0  0  0  0  0  0  0  0  0  0  0
   -2.0607    5.4531    1.5801 H   0  0  0  0  0  0  0  0  0  0  0  0
   -2.8515    5.3982   -0.0002 H   0  0  0  0  0  0  0  0  0  0  0  0
   -1.4299    4.0397   -1.9184 H   0  0  0  0  0  0  0  0  0  0  0  0
    0.1881    3.5336   -1.4730 H   0  0  0  0  0  0  0  0  0  0  0  0
   -2.0643    3.0888    1.7495 H   0  0  0  0  0  0  0  0  0  0  0  0
   -3.3923    3.2144    0.5800 H   0  0  0  0  0  0  0  0  0  0  0  0
    5.1663    0.8678    0.9943 H   0  0  0  0  0  0  0  0  0  0  0  0
    5.3185    0.8458   -0.8676 H   0  0  0  0  0  0  0  0  0  0  0  0
    5.5276    2.2604    0.0659 H   0  0  0  0  0  0  0  0  0  0  0  0
    5.0618   -0.9533   -0.8970 H   0  0  0  0  0  0  0  0  0  0  0  0
    5.0812   -0.9367    0.9726 H   0  0  0  0  0  0  0  0  0  0  0  0
    5.5414   -2.3042    0.0501 H   0  0  0  0  0  0  0  0  0  0  0  0
    1.5912    2.2334   -0.9482 H   0  0  0  0  0  0  0  0  0  0  0  0
    0.7012    2.8867    0.4243 H   0  0  0  0  0  0  0  0  0  0  0  0
    0.9753    0.8679    1.8626 H   0  0  0  0  0  0  0  0  0  0  0  0
    1.2221   -0.0755    3.9448 H   0  0  0  0  0  0  0  0  0  0  0  0
    0.5223    5.5016    3.5623 H   0  0  0  0  0  0  0  0  0  0  0  0
    0.6720    4.4831    5.8866 H   0  0  0  0  0  0  0  0  0  0  0  0
    0.9599    2.5010    7.3457 H   0  0  0  0  0  0  0  0  0  0  0  0
    1.2377    0.2172    6.3894 H   0  0  0  0  0  0  0  0  0  0  0  0
  1 13  1  0  0  0  0
  1 17  2  0  0  0  0
  1 32  1  0  0  0  0
  2  3  1  0  0  0  0
  2 20  1  0  0  0  0
  2 19  2  0  0  0  0
  3 16  2  0  0  0  0
  3 17  1  0  0  0  0
  4 18  2  0  0  0  0
  4 19  1  0  0  0  0
  4 33  1  0  0  0  0
  5 27  2  0  0  0  0
  5 23  1  0  0  0  0
  5 22  1  0  0  0  0
  6 21  1  0  0  0  0
  6  8  1  0  0  0  0
  6 34  1  0  0  0  0
  6 35  1  0  0  0  0
  7 21  1  0  0  0  0
  7 20  1  0  0  0  0
  7 36  1  0  0  0  0
  7 37  1  0  0  0  0
  8 20  1  0  0  0  0
  8 38  1  0  0  0  0
  8 39  1  0  0  0  0
  9 25  2  0  0  0  0
  9 26  1  0  0  0  0
  9 24  1  0  0  0  0
 10 11  1  0  0  0  0
 10 40  1  0  0  0  0
 10 41  1  0  0  0  0
 10 42  1  0  0  0  0
 11 12  1  0  0  0  0
 12 13  2  0  0  0  0
 12 16  1  0  0  0  0
 13 14  1  0  0  0  0
 14 15  1  0  0  0  0
 15 43  1  0  0  0  0
 15 44  1  0  0  0  0
 15 45  1  0  0  0  0
 16 46  1  0  0  0  0
 17 18  1  0  0  0  0
 21 22  1  0  0  0  0
 21 31  1  6  0  0  0
 23 24  2  0  0  0  0
 23 47  1  0  0  0  0
 24 48  1  0  0  0  0
 25 30  1  0  0  0  0
 25 49  1  0  0  0  0
 26 28  2  0  0  0  0
 26 27  1  0  0  0  0
 27 50  1  0  0  0  0
 28 29  1  0  0  0  0
 28 51  1  0  0  0  0
 29 30  2  0  0  0  0
 29 52  1  0  0  0  0
 30 53  1  0  0  0  0
M  END
>  <DRUGBANK_ID>
DB08389

>  <COMMON_NAME>
6,7-DIMETHOXY-4-[(3R)-3-(2-NAPHTHYLOXY)PYRROLIDIN-1-YL]QUINAZOLINE

$$$$
