MSD
 OpenBabel10282417173D

 45 47  0  0  0  0  0  0  0  0999 V2000
    0.6195    0.2773    0.4589 C   0  0  0  0  0  0  0  0  0  0  0  0
   -0.0964   -0.7457    1.0294 C   0  0  0  0  0  0  0  0  0  0  0  0
   -1.4596   -0.7161    1.2385 N   0  0  0  0  0  0  0  0  0  0  0  0
   -2.2035    0.2566    0.6749 C   0  0  0  0  0  0  0  0  0  0  0  0
   -1.5469    1.4060    0.2426 C   0  0  0  0  0  0  0  0  0  0  0  0
   -0.1249    1.4152    0.1635 C   0  0  0  0  0  0  0  0  0  0  0  0
   -3.5707    0.0282    0.3151 N   0  0  0  0  0  0  0  0  0  0  0  0
   -4.2645   -1.1476    0.1058 C   0  0  0  0  0  0  0  0  0  0  0  0
   -5.9256   -1.0662   -0.1991 S   0  0  0  0  0  0  0  0  0  0  0  0
   -3.6467   -2.3700   -0.0386 N   0  0  0  0  0  0  0  0  0  0  0  0
   -2.2193   -2.7297   -0.0645 C   0  0  2  0  0  0  0  0  0  0  0  0
   -1.1149   -2.0255   -0.9687 C   0  0  0  0  0  0  0  0  0  0  0  0
   -1.5705   -3.3584   -1.2522 C   0  0  2  0  0  0  0  0  0  0  0  0
   -2.3075   -3.7088   -2.4946 C   0  0  0  0  0  0  0  0  0  0  0  0
   -3.1187   -2.8736   -3.3344 C   0  0  0  0  0  0  0  0  0  0  0  0
   -3.7840   -3.4126   -4.4165 C   0  0  0  0  0  0  0  0  0  0  0  0
   -3.6619   -4.7480   -4.7244 C   0  0  0  0  0  0  0  0  0  0  0  0
   -2.8600   -5.5919   -3.9530 C   0  0  0  0  0  0  0  0  0  0  0  0
   -2.1916   -5.0764   -2.8470 C   0  0  0  0  0  0  0  0  0  0  0  0
   -1.4233   -5.9501   -2.1092 O   0  0  0  0  0  0  0  0  0  0  0  0
   -2.7772   -7.0211   -4.3490 C   0  0  0  0  0  0  0  0  0  0  0  0
   -3.4112   -7.4007   -5.3323 O   0  0  0  0  0  0  0  0  0  0  0  0
   -1.9275   -7.9792   -3.5528 C   0  0  0  0  0  0  0  0  0  0  0  0
   -3.4707   -1.5377   -3.3531 O   0  0  0  0  0  0  0  0  0  0  0  0
    1.9943    0.1116    0.1388 C   0  0  0  0  0  0  0  0  0  0  0  0
    3.1373   -0.0611   -0.1119 N   0  0  0  0  0  0  0  0  0  0  0  0
   -2.6452   -0.7017   -2.6392 C   0  0  0  0  0  0  0  0  0  0  0  0
   -1.9331   -3.0140    0.9423 H   0  0  0  0  0  0  0  0  0  0  0  0
   -0.6781   -3.9562   -1.0345 H   0  0  0  0  0  0  0  0  0  0  0  0
    0.3369   -1.7577    1.0405 H   0  0  0  0  0  0  0  0  0  0  0  0
   -2.0951    2.2781   -0.0967 H   0  0  0  0  0  0  0  0  0  0  0  0
    0.4001    2.3033   -0.1730 H   0  0  0  0  0  0  0  0  0  0  0  0
   -4.0968    0.8302   -0.0248 H   0  0  0  0  0  0  0  0  0  0  0  0
   -4.3041   -3.1323   -0.2231 H   0  0  0  0  0  0  0  0  0  0  0  0
   -1.3028   -0.9908   -1.1018 H   0  0  0  0  0  0  0  0  0  0  0  0
   -0.0559   -1.9206   -1.1855 H   0  0  0  0  0  0  0  0  0  0  0  0
   -4.4025   -2.7438   -5.0113 H   0  0  0  0  0  0  0  0  0  0  0  0
   -4.2148   -5.1118   -5.5802 H   0  0  0  0  0  0  0  0  0  0  0  0
   -1.0219   -5.6134   -1.2990 H   0  0  0  0  0  0  0  0  0  0  0  0
   -0.8773   -7.6683   -3.5802 H   0  0  0  0  0  0  0  0  0  0  0  0
   -2.2977   -8.0531   -2.5243 H   0  0  0  0  0  0  0  0  0  0  0  0
   -1.9865   -8.9737   -3.9927 H   0  0  0  0  0  0  0  0  0  0  0  0
   -2.8976   -1.0268   -1.6655 H   0  0  0  0  0  0  0  0  0  0  0  0
   -1.6034   -0.8333   -2.9509 H   0  0  0  0  0  0  0  0  0  0  0  0
   -2.8684    0.3589   -2.5185 H   0  0  0  0  0  0  0  0  0  0  0  0
  1  2  2  0  0  0  0
  1  6  1  0  0  0  0
  1 25  1  0  0  0  0
  2  3  1  0  0  0  0
  2 30  1  0  0  0  0
  3  4  2  0  0  0  0
  4  5  1  0  0  0  0
  4  7  1  0  0  0  0
  5  6  2  0  0  0  0
  5 31  1  0  0  0  0
  6 32  1  0  0  0  0
  7  8  1  0  0  0  0
  7 33  1  0  0  0  0
  8  9  2  0  0  0  0
  8 10  1  0  0  0  0
 10 34  1  0  0  0  0
 11 10  1  0  0  0  0
 11 12  1  0  0  0  0
 11 13  1  0  0  0  0
 11 28  1  1  0  0  0
 12 13  1  0  0  0  0
 12 35  1  0  0  0  0
 12 36  1  0  0  0  0
 13 29  1  1  0  0  0
 13 14  1  0  0  0  0
 14 15  2  0  0  0  0
 14 19  1  0  0  0  0
 15 16  1  0  0  0  0
 15 24  1  0  0  0  0
 16 17  2  0  0  0  0
 16 37  1  0  0  0  0
 17 18  1  0  0  0  0
 17 38  1  0  0  0  0
 18 19  2  0  0  0  0
 18 21  1  0  0  0  0
 19 20  1  0  0  0  0
 20 39  1  0  0  0  0
 21 22  2  0  0  0  0
 21 23  1  0  0  0  0
 23 40  1  0  0  0  0
 23 41  1  0  0  0  0
 23 42  1  0  0  0  0
 24 27  1  0  0  0  0
 25 26  3  0  0  0  0
 27 43  1  0  0  0  0
 27 44  1  0  0  0  0
 27 45  1  0  0  0  0
M  END
>  <DRUGBANK_ID>
DB08212

>  <COMMON_NAME>
1-[2-(3-ACETYL-2-HYDROXY-6-METHOXY-PHENYL)-CYCLOPROPYL]-3-(5-CYANO-PYRIDIN-2-YL)-THIOUREA

$$$$
