
 OpenBabel10282417103D

 44 46  0  0  1  0  0  0  0  0999 V2000
    1.1920   -0.0176    0.0494 O   0  0  0  0  0  0  0  0  0  0  0  0
    2.5448   -0.0261   -0.0973 C   0  0  0  0  0  0  0  0  0  0  0  0
    3.4374   -0.0863    1.1196 C   0  0  2  0  0  0  0  0  0  0  0  0
    3.0314    0.0499   -1.2407 O   0  0  0  0  0  0  0  0  0  0  0  0
    4.2740    1.2090    1.3416 C   0  0  0  0  0  0  0  0  0  0  0  0
    3.6518    2.4688    1.4270 O   0  0  0  0  0  0  0  0  0  0  0  0
    4.3128   -1.3124    1.1650 C   0  0  0  0  0  0  0  0  0  0  0  0
    5.6483   -1.2066    1.5672 C   0  0  0  0  0  0  0  0  0  0  0  0
    3.6983   -2.5684    1.0669 C   0  0  0  0  0  0  0  0  0  0  0  0
    4.4320   -3.7003    1.3707 C   0  0  0  0  0  0  0  0  0  0  0  0
    5.7803   -3.5811    1.7119 C   0  0  0  0  0  0  0  0  0  0  0  0
    6.3850   -2.3364    1.8267 C   0  0  0  0  0  0  0  0  0  0  0  0
   -1.0663    2.2116    0.9375 C   0  0  2  0  0  0  0  0  0  0  0  0
   -1.0166    0.6553    0.9507 C   0  0  0  0  0  0  0  0  0  0  0  0
   -0.0908    2.7609   -0.0996 C   0  0  0  0  0  0  0  0  0  0  0  0
    1.2024    2.8501    0.6753 C   0  0  0  0  0  0  0  0  0  0  0  0
    0.8709    2.4326    2.1176 C   0  0  2  0  0  0  0  0  0  0  0  0
    0.9921    0.9356    2.3864 C   0  0  0  0  0  0  0  0  0  0  0  0
    0.3971    0.0692    1.2766 C   0  0  2  0  0  0  0  0  0  0  0  0
   -0.5226    2.8203    2.1613 N   0  0  0  0  0  0  0  0  0  0  0  0
   -1.1707    2.4998    3.4175 C   0  0  0  0  0  0  0  0  0  0  0  0
    2.8658   -0.3837    1.9897 H   0  0  0  0  0  0  0  0  0  0  0  0
    4.7691    1.1408    2.3152 H   0  0  0  0  0  0  0  0  0  0  0  0
    5.0317    1.2992    0.5590 H   0  0  0  0  0  0  0  0  0  0  0  0
    3.6574    2.8515    0.5287 H   0  0  0  0  0  0  0  0  0  0  0  0
    6.1366   -0.2510    1.7342 H   0  0  0  0  0  0  0  0  0  0  0  0
    2.6419   -2.6613    0.8130 H   0  0  0  0  0  0  0  0  0  0  0  0
    3.9480   -4.6710    1.3601 H   0  0  0  0  0  0  0  0  0  0  0  0
    6.3706   -4.4681    1.8982 H   0  0  0  0  0  0  0  0  0  0  0  0
    7.4160   -2.2194    2.1394 H   0  0  0  0  0  0  0  0  0  0  0  0
   -2.0733    2.5798    0.7335 H   0  0  0  0  0  0  0  0  0  0  0  0
   -1.7185    0.3104    1.7201 H   0  0  0  0  0  0  0  0  0  0  0  0
   -1.3847    0.2807   -0.0117 H   0  0  0  0  0  0  0  0  0  0  0  0
    0.0194    2.1088   -0.9747 H   0  0  0  0  0  0  0  0  0  0  0  0
   -0.3462    3.7618   -0.4570 H   0  0  0  0  0  0  0  0  0  0  0  0
    1.6238    3.8597    0.6445 H   0  0  0  0  0  0  0  0  0  0  0  0
    1.8980    2.2058    0.1547 H   0  0  0  0  0  0  0  0  0  0  0  0
    1.5026    2.9594    2.8434 H   0  0  0  0  0  0  0  0  0  0  0  0
    0.5761    0.5936    3.3402 H   0  0  0  0  0  0  0  0  0  0  0  0
    2.0342    0.8648    2.6056 H   0  0  0  0  0  0  0  0  0  0  0  0
    0.2592   -0.9725    1.5952 H   0  0  0  0  0  0  0  0  0  0  0  0
   -1.2381    1.4301    3.6341 H   0  0  0  0  0  0  0  0  0  0  0  0
   -0.6229    2.9627    4.2492 H   0  0  0  0  0  0  0  0  0  0  0  0
   -2.1817    2.9036    3.4186 H   0  0  0  0  0  0  0  0  0  0  0  0
  2  1  1  0  0  0  0
  2  4  2  0  0  0  0
  3  2  1  0  0  0  0
  3  7  1  0  0  0  0
  3  5  1  0  0  0  0
  3 22  1  1  0  0  0
  5 23  1  0  0  0  0
  5 24  1  0  0  0  0
  6  5  1  0  0  0  0
  6 25  1  0  0  0  0
  7  9  1  0  0  0  0
  8  7  2  0  0  0  0
  8 12  1  0  0  0  0
  8 26  1  0  0  0  0
  9 10  2  0  0  0  0
  9 27  1  0  0  0  0
 10 11  1  0  0  0  0
 10 28  1  0  0  0  0
 11 12  2  0  0  0  0
 11 29  1  0  0  0  0
 12 30  1  0  0  0  0
 13 20  1  0  0  0  0
 13 31  1  6  0  0  0
 14 13  1  0  0  0  0
 14 32  1  0  0  0  0
 14 33  1  0  0  0  0
 15 13  1  0  0  0  0
 15 34  1  0  0  0  0
 15 35  1  0  0  0  0
 16 15  1  0  0  0  0
 16 36  1  0  0  0  0
 16 37  1  0  0  0  0
 17 16  1  0  0  0  0
 17 20  1  0  0  0  0
 17 38  1  1  0  0  0
 18 17  1  0  0  0  0
 18 19  1  0  0  0  0
 18 39  1  0  0  0  0
 18 40  1  0  0  0  0
 19  1  1  0  0  0  0
 19 14  1  0  0  0  0
 19 41  1  1  0  0  0
 20 21  1  0  0  0  0
 21 42  1  0  0  0  0
 21 43  1  0  0  0  0
 21 44  1  0  0  0  0
M  END
>  <DRUGBANK_ID>
DB00424

>  <SECONDARY_ACCESSION_NUMBERS>
APRD00607

>  <COMMON_NAME>
Hyoscyamine

>  <CAS_NUMBER>
101-31-5

>  <UNII>
PX44XO846X

>  <SYNONYMS>
(−)-atropine; (−)-hyoscyamine; (S)-(−)-hyoscyamine; (S)-atropine; [3(S)-endo]-α-(hydroxymethyl)benzeneacetic acid 8-methyl-8-azabicyclo[3.2.1]oct-3-yl ester; Daturin; Daturine; Duboisine; Hyoscyamin; Hyoscyamine; Hyoscyaminum; L-Hyoscyamine; L-Tropine tropate; Tropine-L-tropate

$$$$
