
 OpenBabel10282417133D

 48 48  0  0  0  0  0  0  0  0999 V2000
    0.2897    1.4942    0.0447 C   0  0  0  0  0  0  0  0  0  0  0  0
   -1.1376    1.0151    0.0223 C   0  0  0  0  0  0  0  0  0  0  0  0
   -1.3389   -0.4531    0.0033 C   0  0  0  0  0  0  0  0  0  0  0  0
   -0.3846   -1.4017    0.0062 C   0  0  0  0  0  0  0  0  0  0  0  0
    1.0449   -1.0552    0.0113 C   0  0  0  0  0  0  0  0  0  0  0  0
    1.4178    0.4335   -0.0137 C   0  0  0  0  0  0  0  0  0  0  0  0
    2.0868    0.6766   -1.4004 C   0  0  0  0  0  0  0  0  0  0  0  0
    2.2353    0.7343    1.2823 C   0  0  0  0  0  0  0  0  0  0  0  0
   -0.8717   -2.8324   -0.0075 C   0  0  0  0  0  0  0  0  0  0  0  0
    2.0352   -1.9841    0.0029 C   0  0  0  0  0  0  0  0  0  0  0  0
    3.4753   -1.7170   -0.0306 C   0  0  0  0  0  0  0  0  0  0  0  0
    4.4653   -2.6264   -0.0063 C   0  0  0  0  0  0  0  0  0  0  0  0
    5.8543   -2.1580   -0.0041 C   0  0  0  0  0  0  0  0  0  0  0  0
    6.9090   -2.9878    0.0035 C   0  0  0  0  0  0  0  0  0  0  0  0
    8.3144   -2.6465    0.0083 C   0  0  0  0  0  0  0  0  0  0  0  0
    9.2794   -3.6001    0.0099 C   0  0  0  0  0  0  0  0  0  0  0  0
   10.6900   -3.2299    0.0119 C   0  0  0  0  0  0  0  0  0  0  0  0
   11.7290   -4.0784    0.0126 C   0  0  0  0  0  0  0  0  0  0  0  0
    8.9012   -5.0670    0.0084 C   0  0  0  0  0  0  0  0  0  0  0  0
    4.0827   -4.0743    0.0104 C   0  0  0  0  0  0  0  0  0  0  0  0
    0.4039    2.1216    0.9392 H   0  0  0  0  0  0  0  0  0  0  0  0
    0.4187    2.2212   -0.7693 H   0  0  0  0  0  0  0  0  0  0  0  0
   -1.6400    1.4187    0.9094 H   0  0  0  0  0  0  0  0  0  0  0  0
   -1.6381    1.4576   -0.8464 H   0  0  0  0  0  0  0  0  0  0  0  0
   -2.3873   -0.7491   -0.0069 H   0  0  0  0  0  0  0  0  0  0  0  0
    2.4598    1.6969   -1.5000 H   0  0  0  0  0  0  0  0  0  0  0  0
    2.9115    0.0173   -1.6754 H   0  0  0  0  0  0  0  0  0  0  0  0
    1.3412    0.4989   -2.1915 H   0  0  0  0  0  0  0  0  0  0  0  0
    1.6036    0.5128    2.1573 H   0  0  0  0  0  0  0  0  0  0  0  0
    3.1388    0.1566    1.4674 H   0  0  0  0  0  0  0  0  0  0  0  0
    2.5378    1.7823    1.3330 H   0  0  0  0  0  0  0  0  0  0  0  0
   -1.4840   -3.0301    0.8803 H   0  0  0  0  0  0  0  0  0  0  0  0
   -1.4841   -3.0156   -0.8985 H   0  0  0  0  0  0  0  0  0  0  0  0
   -0.0866   -3.5866   -0.0147 H   0  0  0  0  0  0  0  0  0  0  0  0
    1.7799   -3.0342    0.0148 H   0  0  0  0  0  0  0  0  0  0  0  0
    3.8149   -0.6915   -0.0874 H   0  0  0  0  0  0  0  0  0  0  0  0
    6.0355   -1.0837   -0.0023 H   0  0  0  0  0  0  0  0  0  0  0  0
    6.6993   -4.0438    0.0051 H   0  0  0  0  0  0  0  0  0  0  0  0
    8.5697   -1.5886    0.0092 H   0  0  0  0  0  0  0  0  0  0  0  0
   10.9182   -2.1642    0.0125 H   0  0  0  0  0  0  0  0  0  0  0  0
   12.7499   -3.7138    0.0139 H   0  0  0  0  0  0  0  0  0  0  0  0
   11.6222   -5.1560    0.0119 H   0  0  0  0  0  0  0  0  0  0  0  0
    8.3110   -5.3028    0.9020 H   0  0  0  0  0  0  0  0  0  0  0  0
    8.3134   -5.3019   -0.8870 H   0  0  0  0  0  0  0  0  0  0  0  0
    9.7355   -5.7649    0.0092 H   0  0  0  0  0  0  0  0  0  0  0  0
    3.4856   -4.2836    0.9050 H   0  0  0  0  0  0  0  0  0  0  0  0
    3.4836   -4.2941   -0.8813 H   0  0  0  0  0  0  0  0  0  0  0  0
    4.9097   -4.7769    0.0095 H   0  0  0  0  0  0  0  0  0  0  0  0
  1  2  1  0  0  0  0
  1  6  1  0  0  0  0
  1 21  1  0  0  0  0
  1 22  1  0  0  0  0
  2  3  1  0  0  0  0
  2 23  1  0  0  0  0
  2 24  1  0  0  0  0
  3  4  2  0  0  0  0
  3 25  1  0  0  0  0
  4  5  1  0  0  0  0
  4  9  1  0  0  0  0
  5 10  2  0  0  0  0
  5  6  1  0  0  0  0
  6  7  1  0  0  0  0
  6  8  1  0  0  0  0
  7 26  1  0  0  0  0
  7 27  1  0  0  0  0
  7 28  1  0  0  0  0
  8 29  1  0  0  0  0
  8 30  1  0  0  0  0
  8 31  1  0  0  0  0
  9 32  1  0  0  0  0
  9 33  1  0  0  0  0
  9 34  1  0  0  0  0
 10 11  1  0  0  0  0
 10 35  1  0  0  0  0
 11 12  2  0  0  0  0
 11 36  1  0  0  0  0
 12 13  1  0  0  0  0
 12 20  1  0  0  0  0
 13 14  2  0  0  0  0
 13 37  1  0  0  0  0
 14 15  1  0  0  0  0
 14 38  1  0  0  0  0
 15 16  2  0  0  0  0
 15 39  1  0  0  0  0
 16 17  1  0  0  0  0
 16 19  1  0  0  0  0
 17 18  2  0  0  0  0
 17 40  1  0  0  0  0
 18 41  1  0  0  0  0
 18 42  1  0  0  0  0
 19 43  1  0  0  0  0
 19 44  1  0  0  0  0
 19 45  1  0  0  0  0
 20 46  1  0  0  0  0
 20 47  1  0  0  0  0
 20 48  1  0  0  0  0
M  END
>  <DRUGBANK_ID>
DB02914

>  <SECONDARY_ACCESSION_NUMBERS>
EXPT00525

>  <COMMON_NAME>
Anhydrovitamin A

>  <CAS_NUMBER>
1224-78-8

>  <UNII>
235BBF3K97

>  <SYNONYMS>
Anhydro-retinol

$$$$
