
 OpenBabel10282417183D

 28 29  0  0  0  0  0  0  0  0999 V2000
    0.7101    0.0212    0.0669 C   0  0  0  0  0  0  0  0  0  0  0  0
   -0.1629    1.2312    0.2190 C   0  0  0  0  0  0  0  0  0  0  0  0
   -1.5098    0.7195   -0.2824 C   0  0  0  0  0  0  0  0  0  0  0  0
   -1.4981   -0.7840    0.0302 C   0  0  2  0  0  0  0  0  0  0  0  0
   -0.0955   -1.0923    0.0876 N   0  0  0  0  0  0  0  0  0  0  0  0
    1.9278    0.0017   -0.0177 O   0  0  0  0  0  0  0  0  0  0  0  0
   -2.3256   -1.5799   -1.0229 C   0  0  0  0  0  0  0  0  0  0  0  0
   -1.8991   -1.5383   -2.3358 N   0  0  0  0  0  0  0  0  0  0  0  0
   -3.4485   -2.0002   -0.7377 O   0  0  0  0  0  0  0  0  0  0  0  0
   -0.6006   -1.9859   -2.7702 C   0  0  0  0  0  0  0  0  0  0  0  0
   -0.2550   -0.9536   -4.1930 S   0  0  0  0  0  0  0  0  0  0  0  0
   -1.9823   -1.0306   -4.7317 C   0  0  0  0  0  0  0  0  0  0  0  0
   -2.8271   -1.2830   -3.4582 C   0  0  1  0  0  0  0  0  0  0  0  0
   -3.7737   -2.4511   -3.7625 C   0  0  0  0  0  0  0  0  0  0  0  0
   -5.0903   -2.1312   -3.7916 O   0  0  0  0  0  0  0  0  0  0  0  0
   -3.3858   -3.5829   -4.0230 O   0  0  0  0  0  0  0  0  0  0  0  0
   -0.2017    1.5034    1.2790 H   0  0  0  0  0  0  0  0  0  0  0  0
    0.2061    2.0723   -0.3726 H   0  0  0  0  0  0  0  0  0  0  0  0
   -2.3496    1.2421    0.1872 H   0  0  0  0  0  0  0  0  0  0  0  0
   -1.5814    0.9093   -1.3607 H   0  0  0  0  0  0  0  0  0  0  0  0
   -1.9119   -0.9735    1.0273 H   0  0  0  0  0  0  0  0  0  0  0  0
    0.3000   -2.0241    0.0806 H   0  0  0  0  0  0  0  0  0  0  0  0
    0.1797   -1.9326   -2.0223 H   0  0  0  0  0  0  0  0  0  0  0  0
   -0.6931   -3.0324   -3.0803 H   0  0  0  0  0  0  0  0  0  0  0  0
   -2.0560   -1.8417   -5.4633 H   0  0  0  0  0  0  0  0  0  0  0  0
   -2.2518   -0.0973   -5.2326 H   0  0  0  0  0  0  0  0  0  0  0  0
   -3.4137   -0.3888   -3.2117 H   0  0  0  0  0  0  0  0  0  0  0  0
   -5.3379   -1.2384   -3.4849 H   0  0  0  0  0  0  0  0  0  0  0  0
  1  2  1  0  0  0  0
  1  5  1  0  0  0  0
  1  6  2  0  0  0  0
  2  3  1  0  0  0  0
  2 17  1  0  0  0  0
  2 18  1  0  0  0  0
  3  4  1  0  0  0  0
  3 19  1  0  0  0  0
  3 20  1  0  0  0  0
  4  5  1  0  0  0  0
  4 21  1  1  0  0  0
  4  7  1  0  0  0  0
  5 22  1  0  0  0  0
  7  8  1  0  0  0  0
  7  9  2  0  0  0  0
  8 10  1  0  0  0  0
  8 13  1  0  0  0  0
 10 11  1  0  0  0  0
 10 23  1  0  0  0  0
 10 24  1  0  0  0  0
 11 12  1  0  0  0  0
 12 13  1  0  0  0  0
 12 25  1  0  0  0  0
 12 26  1  0  0  0  0
 13 14  1  0  0  0  0
 13 27  1  1  0  0  0
 14 15  1  0  0  0  0
 14 16  2  0  0  0  0
 15 28  1  0  0  0  0
M  END
>  <DRUGBANK_ID>
DB11364

>  <COMMON_NAME>
Pidotimod

>  <CAS_NUMBER>
121808-62-6

>  <UNII>
785363R681

>  <SYNONYMS>
Pidotimod

$$$$
