5288600
 OpenBabel10282417133D

 40 42  0  0  0  0  0  0  0  0999 V2000
    3.0169    5.0597   -0.9170 O   0  0  0  0  0  0  0  0  0  0  0  0
    3.6763    1.1309    2.0141 O   0  0  0  0  0  0  0  0  0  0  0  0
   -0.2589    1.4039   -1.5546 O   0  0  0  0  0  0  0  0  0  0  0  0
    6.4563    4.8864    2.4265 O   0  0  0  0  0  0  0  0  0  0  0  0
    1.0832    1.5731   -3.4640 N   0  0  0  0  0  0  0  0  0  0  0  0
    2.0834    2.0857   -1.4826 C   0  0  0  0  0  0  0  0  0  0  0  0
    3.0780    2.2472   -2.5384 C   0  0  0  0  0  0  0  0  0  0  0  0
    2.4046    1.9387   -3.7218 C   0  0  0  0  0  0  0  0  0  0  0  0
    3.2018    3.0655    0.5169 C   0  0  0  0  0  0  0  0  0  0  0  0
    2.0970    2.4228   -0.1865 C   0  0  0  0  0  0  0  0  0  0  0  0
    0.8054    1.6297   -2.1145 C   0  0  0  0  0  0  0  0  0  0  0  0
    4.4059    2.6376   -2.5637 C   0  0  0  0  0  0  0  0  0  0  0  0
    3.5817    4.3701    0.1348 C   0  0  0  0  0  0  0  0  0  0  0  0
    3.8821    2.4201    1.5648 C   0  0  0  0  0  0  0  0  0  0  0  0
    3.0185    2.0055   -4.9524 C   0  0  0  0  0  0  0  0  0  0  0  0
    5.0489    2.7096   -3.7993 C   0  0  0  0  0  0  0  0  0  0  0  0
    4.6976    4.9828    0.7181 C   0  0  0  0  0  0  0  0  0  0  0  0
    4.9058    3.1209    2.2352 C   0  0  0  0  0  0  0  0  0  0  0  0
    4.3607    2.3942   -4.9826 C   0  0  0  0  0  0  0  0  0  0  0  0
    5.3606    4.3705    1.7795 C   0  0  0  0  0  0  0  0  0  0  0  0
    1.5903    5.1455   -0.9318 C   0  0  0  0  0  0  0  0  0  0  0  0
    2.8059    0.2722    1.2703 C   0  0  0  0  0  0  0  0  0  0  0  0
    7.0261    6.0829    1.8910 C   0  0  0  0  0  0  0  0  0  0  0  0
    0.3977    1.3086   -4.1532 H   0  0  0  0  0  0  0  0  0  0  0  0
    1.1917    2.3306    0.4127 H   0  0  0  0  0  0  0  0  0  0  0  0
    4.9507    2.8987   -1.6640 H   0  0  0  0  0  0  0  0  0  0  0  0
    2.4866    1.7606   -5.8626 H   0  0  0  0  0  0  0  0  0  0  0  0
    6.0936    3.0101   -3.8392 H   0  0  0  0  0  0  0  0  0  0  0  0
    5.0154    5.9442    0.3287 H   0  0  0  0  0  0  0  0  0  0  0  0
    5.3708    2.6784    3.1153 H   0  0  0  0  0  0  0  0  0  0  0  0
    4.8857    2.4492   -5.9324 H   0  0  0  0  0  0  0  0  0  0  0  0
    1.2959    5.6441   -1.8569 H   0  0  0  0  0  0  0  0  0  0  0  0
    1.0458    4.2078   -0.9846 H   0  0  0  0  0  0  0  0  0  0  0  0
    1.2287    5.6791   -0.0541 H   0  0  0  0  0  0  0  0  0  0  0  0
    1.7654    0.5930    1.3862 H   0  0  0  0  0  0  0  0  0  0  0  0
    3.1086    0.1930    0.2181 H   0  0  0  0  0  0  0  0  0  0  0  0
    2.8366   -0.7425    1.6701 H   0  0  0  0  0  0  0  0  0  0  0  0
    7.3413    5.9506    0.8492 H   0  0  0  0  0  0  0  0  0  0  0  0
    6.3306    6.9234    1.9857 H   0  0  0  0  0  0  0  0  0  0  0  0
    7.9217    6.3324    2.4712 H   0  0  0  0  0  0  0  0  0  0  0  0
  1 13  1  0  0  0  0
  1 21  1  0  0  0  0
  2 14  1  0  0  0  0
  2 22  1  0  0  0  0
  3 11  2  0  0  0  0
  4 20  1  0  0  0  0
  4 23  1  0  0  0  0
  5  8  1  0  0  0  0
  5 11  1  0  0  0  0
  5 24  1  0  0  0  0
  6  7  1  0  0  0  0
  6 10  2  0  0  0  0
  6 11  1  0  0  0  0
  7  8  1  0  0  0  0
  7 12  2  0  0  0  0
  8 15  2  0  0  0  0
  9 10  1  0  0  0  0
  9 13  2  0  0  0  0
  9 14  1  0  0  0  0
 10 25  1  0  0  0  0
 12 16  1  0  0  0  0
 12 26  1  0  0  0  0
 13 17  1  0  0  0  0
 14 18  2  0  0  0  0
 15 19  1  0  0  0  0
 15 27  1  0  0  0  0
 16 19  2  0  0  0  0
 16 28  1  0  0  0  0
 17 20  2  0  0  0  0
 17 29  1  0  0  0  0
 18 20  1  0  0  0  0
 18 30  1  0  0  0  0
 19 31  1  0  0  0  0
 21 32  1  0  0  0  0
 21 33  1  0  0  0  0
 21 34  1  0  0  0  0
 22 35  1  0  0  0  0
 22 36  1  0  0  0  0
 22 37  1  0  0  0  0
 23 38  1  0  0  0  0
 23 39  1  0  0  0  0
 23 40  1  0  0  0  0
M  END
>  <DRUGBANK_ID>
DB03083

>  <SECONDARY_ACCESSION_NUMBERS>
EXPT01830

>  <COMMON_NAME>
IC261

$$$$
