
 OpenBabel10282417223D

 96 99  0  0  0  0  0  0  0  0999 V2000
   -2.3339   -1.6320   -5.2108 C   0  0  2  0  0  0  0  0  0  0  0  0
   -3.0464   -0.8413   -5.1010 H   0  0  0  0  0  0  0  0  0  0  0  0
   -0.9446   -1.2500   -4.6480 C   0  0  2  0  0  0  0  0  0  0  0  0
   -0.4438   -2.6142   -4.1180 C   0  0  0  0  0  0  0  0  0  0  0  0
    0.8442   -3.0126   -3.9363 C   0  0  0  0  0  0  0  0  0  0  0  0
    1.1409   -4.4039   -3.4008 C   0  0  0  0  0  0  0  0  0  0  0  0
    1.7849   -4.6847   -2.3202 C   0  0  0  0  0  0  0  0  0  0  0  0
    1.8585   -5.9565   -2.1606 C   0  0  0  0  0  0  0  0  0  0  0  0
    1.2623   -6.5811   -3.1545 C   0  0  0  0  0  0  0  0  0  0  0  0
    1.1362   -8.0837   -3.3454 C   0  0  0  0  0  0  0  0  0  0  0  0
    1.6740   -8.9334   -2.4291 C   0  0  0  0  0  0  0  0  0  0  0  0
    2.4316   -8.6158   -1.1617 N   0  0  0  0  0  0  0  0  0  0  0  0
    3.0820   -9.6605   -0.7275 C   0  0  0  0  0  0  0  0  0  0  0  0
    2.8663  -10.8509   -1.6339 C   0  0  2  0  0  0  0  0  0  0  0  0
    1.6286  -10.4786   -2.4837 C   0  0  2  0  0  0  0  0  0  0  0  0
    1.6468  -11.0512   -3.8916 C   0  0  0  0  0  0  0  0  0  0  0  0
    0.7275  -10.8591   -2.0501 H   0  0  0  0  0  0  0  0  0  0  0  0
    3.7200  -11.0084   -2.2595 H   0  0  0  0  0  0  0  0  0  0  0  0
    2.6612  -12.1386   -0.8528 C   0  0  0  0  0  0  0  0  0  0  0  0
    1.1683  -12.3591   -0.6705 C   0  0  0  0  0  0  0  0  0  0  0  0
    0.5019  -12.4658   -2.0324 C   0  0  0  0  0  0  0  0  0  0  0  0
   -0.1983  -13.6484   -2.3895 O   0  0  0  0  0  0  0  0  0  0  0  0
    0.5713  -11.4966   -2.8515 O   0  0  0  0  0  0  0  0  0  0  0  0
    3.9433   -9.6781    0.5248 C   0  0  0  0  0  0  0  0  0  0  0  0
    3.0820   -9.6605   -0.7275 C   0  0  0  0  0  0  0  0  0  0  0  0
    3.9365  -10.0103   -1.9350 C   0  0  0  0  0  0  0  0  0  0  0  0
    3.6194  -11.1478   -2.7237 O   0  0  0  0  0  0  0  0  0  0  0  0
    2.5040  -11.9584   -2.3844 C   0  0  0  0  0  0  0  0  0  0  0  0
    4.9348   -9.2848   -2.2386 O   0  0  0  0  0  0  0  0  0  0  0  0
    4.5828  -10.8205    0.8946 C   0  0  0  0  0  0  0  0  0  0  0  0
    5.3618  -10.9359    1.9781 N   0  5  0  0  0  0  0  0  0  0  0  0
    5.8686  -12.2286    1.9806 C   0  0  0  0  0  0  0  0  0  0  0  0
   -4.1468   -3.4223   -4.3723 C   0  0  0  0  0  0  0  0  0  0  0  0
   -2.7320   -2.8713   -4.4423 C   0  0  0  0  0  0  0  0  0  0  0  0
   -1.7011   -3.4059   -3.8468 N   0  0  0  0  0  0  0  0  0  0  0  0
    5.3828  -12.8013    0.9331 C   0  0  0  0  0  0  0  0  0  0  0  0
    5.6688  -14.2350    0.5170 C   0  0  0  0  0  0  0  0  0  0  0  0
    4.6232  -11.9896    0.2907 C   0  0  0  0  0  0  0  0  0  0  0  0
    3.8755  -12.3307   -0.9879 C   0  0  0  0  0  0  0  0  0  0  0  0
    3.9960  -13.6735   -1.5739 N   0  0  0  0  0  0  0  0  0  0  0  0
    3.2728  -14.0033   -2.8105 C   0  0  0  0  0  0  0  0  0  0  0  0
    4.2678  -14.4000   -3.8889 C   0  0  0  0  0  0  0  0  0  0  0  0
    5.2109  -15.8434   -3.3382 S   0  0  0  0  0  0  0  0  0  0  0  0
    4.2536  -17.0079   -3.0741 O   0  0  0  0  0  0  0  0  0  0  0  0
    6.2128  -16.2428   -4.4240 O   0  0  0  0  0  0  0  0  0  0  0  0
    6.0522  -15.4597   -1.8997 O   0  0  0  0  0  0  0  0  0  0  0  0
    3.1460  -11.4551   -1.5503 O   0  0  0  0  0  0  0  0  0  0  0  0
    0.7894   -5.6238   -3.9632 N   0  5  0  0  0  0  0  0  0  0  0  0
    2.5386   -6.6448   -0.9884 C   0  0  0  0  0  0  0  0  0  0  0  0
    2.3740   -3.6556   -1.3692 C   0  0  0  0  0  0  0  0  0  0  0  0
    2.2222   -2.1725   -1.6653 C   0  0  0  0  0  0  0  0  0  0  0  0
    2.9935   -4.0353   -0.3265 O   0  0  0  0  0  0  0  0  0  0  0  0
   -1.0601   -0.2275   -3.5293 C   0  0  0  0  0  0  0  0  0  0  0  0
   -0.2934   -0.7932   -5.3638 H   0  0  0  0  0  0  0  0  0  0  0  0
   -2.2460   -1.9292   -6.6989 C   0  0  0  0  0  0  0  0  0  0  0  0
   -1.2065   -3.0119   -6.9388 C   0  0  0  0  0  0  0  0  0  0  0  0
    0.9718   -0.0708   -0.0647 Pd  0  2  0  0  0  0  0  0  0  0  0  0
    1.6483   -2.3467   -4.1704 H   0  0  0  0  0  0  0  0  0  0  0  0
    0.6245   -8.4733   -4.2006 H   0  0  0  0  0  0  0  0  0  0  0  0
    1.6488  -12.1200   -3.8419 H   0  0  0  0  0  0  0  0  0  0  0  0
    0.7785  -10.7204   -4.4223 H   0  0  0  0  0  0  0  0  0  0  0  0
    2.5257  -10.7161   -4.4016 H   0  0  0  0  0  0  0  0  0  0  0  0
    3.0803  -12.9628   -1.3913 H   0  0  0  0  0  0  0  0  0  0  0  0
    3.1303  -12.0635    0.1060 H   0  0  0  0  0  0  0  0  0  0  0  0
    1.0057  -13.2633   -0.1220 H   0  0  0  0  0  0  0  0  0  0  0  0
    0.7493  -11.5349   -0.1319 H   0  0  0  0  0  0  0  0  0  0  0  0
   -0.2530  -14.4110   -1.7450 H   0  0  0  0  0  0  0  0  0  0  0  0
    2.2940  -10.3775   -0.6285 H   0  0  0  0  0  0  0  0  0  0  0  0
    2.6624   -8.6850   -0.8581 H   0  0  0  0  0  0  0  0  0  0  0  0
    2.6381  -12.3557   -1.4000 H   0  0  0  0  0  0  0  0  0  0  0  0
    1.6122  -11.3678   -2.4122 H   0  0  0  0  0  0  0  0  0  0  0  0
    2.4211  -12.7626   -3.0853 H   0  0  0  0  0  0  0  0  0  0  0  0
   -4.9407   -2.9254   -4.8897 H   0  0  0  0  0  0  0  0  0  0  0  0
    6.7195  -14.3567    0.3555 H   0  0  0  0  0  0  0  0  0  0  0  0
    5.3472  -14.9016    1.2897 H   0  0  0  0  0  0  0  0  0  0  0  0
    5.1410  -14.4560   -0.3872 H   0  0  0  0  0  0  0  0  0  0  0  0
    4.5814  -14.3762   -1.1225 H   0  0  0  0  0  0  0  0  0  0  0  0
    2.6035  -14.8175   -2.6258 H   0  0  0  0  0  0  0  0  0  0  0  0
    2.7153  -13.1501   -3.1360 H   0  0  0  0  0  0  0  0  0  0  0  0
    3.7414  -14.6401   -4.7890 H   0  0  0  0  0  0  0  0  0  0  0  0
    4.9371  -13.5859   -4.0735 H   0  0  0  0  0  0  0  0  0  0  0  0
    6.5732  -16.2571   -1.5955 H   0  0  0  0  0  0  0  0  0  0  0  0
    3.5721   -6.3688   -0.9635 H   0  0  0  0  0  0  0  0  0  0  0  0
    2.0671   -6.3444   -0.0760 H   0  0  0  0  0  0  0  0  0  0  0  0
    2.4553   -7.7056   -1.1005 H   0  0  0  0  0  0  0  0  0  0  0  0
    1.6925   -1.7012   -0.8640 H   0  0  0  0  0  0  0  0  0  0  0  0
    3.1903   -1.7274   -1.7634 H   0  0  0  0  0  0  0  0  0  0  0  0
    1.6769   -2.0448   -2.5771 H   0  0  0  0  0  0  0  0  0  0  0  0
   -0.1505   -0.2206   -2.9658 H   0  0  0  0  0  0  0  0  0  0  0  0
   -1.2278    0.7430   -3.9477 H   0  0  0  0  0  0  0  0  0  0  0  0
   -1.8759   -0.4846   -2.8866 H   0  0  0  0  0  0  0  0  0  0  0  0
   -3.1986   -2.2648   -7.0524 H   0  0  0  0  0  0  0  0  0  0  0  0
   -1.9635   -1.0408   -7.2240 H   0  0  0  0  0  0  0  0  0  0  0  0
   -1.4890   -3.9003   -6.4137 H   0  0  0  0  0  0  0  0  0  0  0  0
   -1.1447   -3.2212   -7.9863 H   0  0  0  0  0  0  0  0  0  0  0  0
   -0.2539   -2.6763   -6.5853 H   0  0  0  0  0  0  0  0  0  0  0  0
  1  2  1  1  0  0  0
  1 34  1  0  0  0  0
  1 55  1  0  0  0  0
  3  1  1  0  0  0  0
  3 54  1  6  0  0  0
  3 53  1  0  0  0  0
  4  3  1  0  0  0  0
  4 35  1  0  0  0  0
  5  4  2  0  0  0  0
  5 58  1  0  0  0  0
  6  5  1  0  0  0  0
  6 48  1  0  0  0  0
  7  6  2  0  0  0  0
  7 50  1  0  0  0  0
  8  7  1  0  0  0  0
  8 49  1  0  0  0  0
  9  8  2  0  0  0  0
  9 10  1  0  0  0  0
 10 11  2  0  0  0  0
 10 59  1  0  0  0  0
 11 12  1  0  0  0  0
 12 13  2  0  0  0  0
 13 14  1  0  0  0  0
 14 15  1  0  0  0  0
 14 19  1  0  0  0  0
 14 18  1  6  0  0  0
 15 11  1  0  0  0  0
 15 16  1  0  0  0  0
 15 17  1  1  0  0  0
 16 60  1  0  0  0  0
 16 61  1  0  0  0  0
 16 62  1  0  0  0  0
 19 20  1  0  0  0  0
 19 63  1  0  0  0  0
 19 64  1  0  0  0  0
 20 21  1  0  0  0  0
 20 65  1  0  0  0  0
 20 66  1  0  0  0  0
 21 22  1  0  0  0  0
 21 23  2  0  0  0  0
 22 67  1  0  0  0  0
 24 13  1  0  0  0  0
 24 25  1  0  0  0  0
 24 30  2  0  0  0  0
 25 26  1  0  0  0  0
 25 68  1  0  0  0  0
 25 69  1  0  0  0  0
 26 27  1  0  0  0  0
 26 29  2  0  0  0  0
 27 28  1  0  0  0  0
 28 70  1  0  0  0  0
 28 71  1  0  0  0  0
 28 72  1  0  0  0  0
 30 31  1  0  0  0  0
 31 32  1  0  0  0  0
 32 36  1  0  0  0  0
 33 32  2  0  0  0  0
 33 73  1  0  0  0  0
 34 33  1  0  0  0  0
 34 35  2  0  0  0  0
 36 37  1  0  0  0  0
 36 38  2  0  0  0  0
 37 74  1  0  0  0  0
 37 75  1  0  0  0  0
 37 76  1  0  0  0  0
 38 39  1  0  0  0  0
 38 30  1  0  0  0  0
 39 40  1  0  0  0  0
 39 47  2  0  0  0  0
 40 41  1  0  0  0  0
 40 77  1  0  0  0  0
 41 42  1  0  0  0  0
 41 78  1  0  0  0  0
 41 79  1  0  0  0  0
 42 43  1  0  0  0  0
 42 80  1  0  0  0  0
 42 81  1  0  0  0  0
 43 44  2  0  0  0  0
 43 45  2  0  0  0  0
 43 46  1  0  0  0  0
 46 82  1  0  0  0  0
 48  9  1  0  0  0  0
 49 83  1  0  0  0  0
 49 84  1  0  0  0  0
 49 85  1  0  0  0  0
 50 51  1  0  0  0  0
 50 52  2  0  0  0  0
 51 86  1  0  0  0  0
 51 87  1  0  0  0  0
 51 88  1  0  0  0  0
 53 89  1  0  0  0  0
 53 90  1  0  0  0  0
 53 91  1  0  0  0  0
 55 56  1  0  0  0  0
 55 92  1  0  0  0  0
 55 93  1  0  0  0  0
 56 94  1  0  0  0  0
 56 95  1  0  0  0  0
 56 96  1  0  0  0  0
M  CHG  3  31  -1  48  -1  57   2
M  END
>  <DRUGBANK_ID>
DB15575

>  <COMMON_NAME>
Padeliporfin

>  <CAS_NUMBER>
759457-82-4

>  <UNII>
EEO29FZT86

>  <SYNONYMS>
Padeliporfin

$$$$
