
 OpenBabel10282417133D

 59 61  0  0  0  0  0  0  0  0999 V2000
    0.3676   -1.1565    4.8980 P   0  0  3  0  0  0  0  0  0  0  0  0
    2.0532   -1.6114    7.1190 P   0  0  3  0  0  0  0  0  0  0  0  0
    0.5015   -4.4931    3.2211 F   0  0  0  0  0  0  0  0  0  0  0  0
    3.0282   -2.8793    9.3438 O   0  0  0  0  0  0  0  0  0  0  0  0
    2.0767   -1.4215    1.8451 O   0  0  0  0  0  0  0  0  0  0  0  0
    4.6005   -5.1150   10.2558 O   0  0  0  0  0  0  0  0  0  0  0  0
    2.0948   -6.0724   10.1578 O   0  0  0  0  0  0  0  0  0  0  0  0
    1.1422   -0.2745    3.7463 O   0  0  0  0  0  0  0  0  0  0  0  0
    3.5270   -2.1594    6.6457 O   0  0  0  0  0  0  0  0  0  0  0  0
   -2.1389   -3.3839    1.7340 O   0  0  0  0  0  0  0  0  0  0  0  0
   -1.5537   -0.2090    2.1378 O   0  0  0  0  0  0  0  0  0  0  0  0
    1.4893   -2.2597    5.6175 O   0  0  0  0  0  0  0  0  0  0  0  0
    4.5101   -2.6918    3.0329 O   0  0  0  0  0  0  0  0  0  0  0  0
    0.6132   -4.0004    7.1278 O   0  0  0  0  0  0  0  0  0  0  0  0
    0.1660   -2.2341    3.5598 O   0  0  0  0  0  0  0  0  0  0  0  0
    2.6240   -0.2141    6.3425 O   0  0  0  0  0  0  0  0  0  0  0  0
    0.5480   -0.1920    6.0958 O   0  0  0  0  0  0  0  0  0  0  0  0
    2.5579   -1.0312    8.4629 O   0  0  0  0  0  0  0  0  0  0  0  0
   -2.9321   -1.5568    8.3681 O   0  0  0  0  0  0  0  0  0  0  0  0
    0.5921   -3.2493    9.3216 N   0  0  0  0  0  0  0  0  0  0  0  0
   -1.1588   -2.8419    7.8048 N   0  0  0  0  0  0  0  0  0  0  0  0
    3.9442   -4.9230    8.9985 C   0  0  1  0  0  0  0  0  0  0  0  0
    2.4201   -5.0867    9.1895 C   0  0  2  0  0  0  0  0  0  0  0  0
    4.0912   -3.4836    8.5942 C   0  0  1  0  0  0  0  0  0  0  0  0
    1.9657   -3.7377    9.7066 C   0  0  1  0  0  0  0  0  0  0  0  0
   -0.9438   -2.6850    2.0464 C   0  0  1  0  0  0  0  0  0  0  0  0
    0.6467   -3.6033    2.1527 C   0  0  1  0  0  0  0  0  0  0  0  0
   -0.5271   -1.1339    1.7202 C   0  0  2  0  0  0  0  0  0  0  0  0
    2.0658   -2.6747    2.5523 C   0  0  1  0  0  0  0  0  0  0  0  0
    4.0544   -3.3524    7.0706 C   0  0  0  0  0  0  0  0  0  0  0  0
    0.9736   -0.5815    2.3100 C   0  0  2  0  0  0  0  0  0  0  0  0
    3.3740   -3.4716    2.6335 C   0  0  0  0  0  0  0  0  0  0  0  0
    0.0435   -3.4296    8.0670 C   0  0  0  0  0  0  0  0  0  0  0  0
   -0.1963   -2.6574   10.3083 C   0  0  0  0  0  0  0  0  0  0  0  0
   -1.3809   -2.0971   10.0587 C   0  0  0  0  0  0  0  0  0  0  0  0
   -1.9150   -2.1076    8.6845 C   0  0  0  0  0  0  0  0  0  0  0  0
    0.8102   -4.1716    1.2510 H   0  0  0  0  0  0  0  0  0  0  0  0
   -1.5636   -2.9552    6.8911 H   0  0  0  0  0  0  0  0  0  0  0  0
    4.4014   -4.3348   10.8080 H   0  0  0  0  0  0  0  0  0  0  0  0
    2.6356   -5.8509   10.9415 H   0  0  0  0  0  0  0  0  0  0  0  0
   -1.9319   -4.2202    1.3105 H   0  0  0  0  0  0  0  0  0  0  0  0
   -1.4521   -0.0054    3.0834 H   0  0  0  0  0  0  0  0  0  0  0  0
    4.4829   -1.8368    2.5679 H   0  0  0  0  0  0  0  0  0  0  0  0
    0.1105   -3.0841    4.0982 H   0  0  0  0  0  0  0  0  0  0  0  0
    1.8609    0.3994    6.2722 H   0  0  0  0  0  0  0  0  0  0  0  0
    4.3649   -5.6028    8.2532 H   0  0  0  0  0  0  0  0  0  0  0  0
    1.9605   -5.3445    8.2387 H   0  0  0  0  0  0  0  0  0  0  0  0
    5.0103   -2.9881    8.9410 H   0  0  0  0  0  0  0  0  0  0  0  0
    1.9967   -3.6941   10.7997 H   0  0  0  0  0  0  0  0  0  0  0  0
   -1.4690   -2.4681    3.0351 H   0  0  0  0  0  0  0  0  0  0  0  0
   -0.4567   -1.1287    0.6371 H   0  0  0  0  0  0  0  0  0  0  0  0
    2.1447   -2.3711    3.6052 H   0  0  0  0  0  0  0  0  0  0  0  0
    3.5050   -4.1315    6.5498 H   0  0  0  0  0  0  0  0  0  0  0  0
    5.0841   -3.3688    6.6784 H   0  0  0  0  0  0  0  0  0  0  0  0
    1.1010    0.4017    1.8427 H   0  0  0  0  0  0  0  0  0  0  0  0
    3.2805   -4.2379    3.4193 H   0  0  0  0  0  0  0  0  0  0  0  0
    3.5844   -3.9266    1.6786 H   0  0  0  0  0  0  0  0  0  0  0  0
    0.1811   -2.6867   11.3267 H   0  0  0  0  0  0  0  0  0  0  0  0
   -2.0036   -1.6358   10.8141 H   0  0  0  0  0  0  0  0  0  0  0  0
  1  8  1  0  0  0  0
  1 12  1  0  0  0  0
  1 15  1  0  0  0  0
  1 17  2  0  0  0  0
  2  9  1  0  0  0  0
  2 12  1  0  0  0  0
  2 16  1  0  0  0  0
  2 18  2  0  0  0  0
  4 24  1  0  0  0  0
  4 25  1  0  0  0  0
  5 29  1  0  0  0  0
  5 31  1  0  0  0  0
  6 39  1  0  0  0  0
  7 40  1  0  0  0  0
  9 30  1  0  0  0  0
 10 41  1  0  0  0  0
 11 42  1  0  0  0  0
 13 32  1  0  0  0  0
 13 43  1  0  0  0  0
 14 33  2  0  0  0  0
 15 44  1  0  0  0  0
 16 45  1  0  0  0  0
 19 36  2  0  0  0  0
 20 33  1  0  0  0  0
 20 34  1  0  0  0  0
 21 33  1  0  0  0  0
 21 36  1  0  0  0  0
 21 38  1  0  0  0  0
 22  6  1  0  0  0  0
 22 23  1  0  0  0  0
 22 24  1  0  0  0  0
 22 46  1  6  0  0  0
 23  7  1  0  0  0  0
 23 25  1  0  0  0  0
 23 47  1  6  0  0  0
 24 30  1  0  0  0  0
 24 48  1  1  0  0  0
 25 49  1  1  0  0  0
 25 20  1  0  0  0  0
 26 10  1  0  0  0  0
 26 27  1  0  0  0  0
 26 28  1  0  0  0  0
 26 50  1  1  0  0  0
 27 29  1  0  0  0  0
 27 37  1  6  0  0  0
 27  3  1  0  0  0  0
 28 31  1  0  0  0  0
 28 51  1  6  0  0  0
 28 11  1  0  0  0  0
 29 32  1  0  0  0  0
 29 52  1  1  0  0  0
 30 53  1  0  0  0  0
 30 54  1  0  0  0  0
 31 55  1  6  0  0  0
 31  8  1  0  0  0  0
 32 56  1  0  0  0  0
 32 57  1  0  0  0  0
 34 35  2  0  0  0  0
 34 58  1  0  0  0  0
 35 36  1  0  0  0  0
 35 59  1  0  0  0  0
M  END
>  <DRUGBANK_ID>
DB04097

>  <SECONDARY_ACCESSION_NUMBERS>
EXPT03174

>  <COMMON_NAME>
Uridine-5'-diphosphate-4-deoxy-4-fluoro-alpha-D-galactose

>  <SYNONYMS>
UDP-4-fluoro-4-deoxy-alpha-D-glucose

$$$$
