3AS
 OpenBabel10282417163D

 46 49  0  0  0  0  0  0  0  0999 V2000
   -2.6339    1.2999    0.0483 C   0  0  0  0  0  0  0  0  0  0  0  0
   -3.0475    0.0890   -0.4851 C   0  0  0  0  0  0  0  0  0  0  0  0
   -2.1516   -0.9951   -0.5357 C   0  0  0  0  0  0  0  0  0  0  0  0
   -0.8486   -0.8445   -0.0384 C   0  0  0  0  0  0  0  0  0  0  0  0
   -0.0404   -1.9485   -0.0745 O   0  0  0  0  0  0  0  0  0  0  0  0
    1.1509   -1.9060    0.7282 C   0  0  1  0  0  0  0  0  0  0  0  0
    2.0471   -3.0980    0.3855 C   0  0  0  0  0  0  0  0  0  0  0  0
    3.2708   -3.2780    1.0590 C   0  0  0  0  0  0  0  0  0  0  0  0
    4.1927   -4.2285    0.6119 C   0  0  0  0  0  0  0  0  0  0  0  0
    3.8644   -5.0701   -0.4374 C   0  0  0  0  0  0  0  0  0  0  0  0
    4.8081   -5.9540   -0.8703 O   0  0  0  0  0  0  0  0  0  0  0  0
    2.6106   -5.0019   -1.0355 C   0  0  0  0  0  0  0  0  0  0  0  0
    1.7217   -3.9969   -0.6424 C   0  0  0  0  0  0  0  0  0  0  0  0
    1.8982   -0.5842    0.5062 C   0  0  2  0  0  0  0  0  0  0  0  0
    1.0061    0.6105    0.8601 C   0  0  2  0  0  0  0  0  0  0  0  0
   -0.4215    0.3935    0.4416 C   0  0  0  0  0  0  0  0  0  0  0  0
   -1.3382    1.4546    0.5136 C   0  0  0  0  0  0  0  0  0  0  0  0
    1.6458    1.7842    0.1090 C   0  0  0  0  0  0  0  0  0  0  0  0
    2.3613    1.1695   -1.0803 C   0  0  0  0  0  0  0  0  0  0  0  0
    3.6526    1.5734   -1.0850 F   0  0  0  0  0  0  0  0  0  0  0  0
    1.8099    1.5791   -2.2434 F   0  0  0  0  0  0  0  0  0  0  0  0
    2.2813   -0.3367   -0.9612 C   0  0  0  0  0  0  0  0  0  0  0  0
   -2.6437   -2.3377   -1.0128 C   0  0  0  0  0  0  0  0  0  0  0  0
   -3.6985   -2.8093   -0.1687 O   0  0  0  0  0  0  0  0  0  0  0  0
   -3.2550   -3.0329    1.1683 C   0  0  0  0  0  0  0  0  0  0  0  0
   -3.4656    2.3744    0.1392 O   0  0  0  0  0  0  0  0  0  0  0  0
    0.8445   -2.0138    1.7780 H   0  0  0  0  0  0  0  0  0  0  0  0
    2.8083   -0.5349    1.1191 H   0  0  0  0  0  0  0  0  0  0  0  0
    1.0137    0.7809    1.9445 H   0  0  0  0  0  0  0  0  0  0  0  0
   -4.0706   -0.0507   -0.8234 H   0  0  0  0  0  0  0  0  0  0  0  0
    3.5368   -2.6551    1.9082 H   0  0  0  0  0  0  0  0  0  0  0  0
    5.1758   -4.2969    1.0736 H   0  0  0  0  0  0  0  0  0  0  0  0
    4.4744   -6.3998   -1.6648 H   0  0  0  0  0  0  0  0  0  0  0  0
    2.3173   -5.6951   -1.8146 H   0  0  0  0  0  0  0  0  0  0  0  0
    0.7765   -3.9099   -1.1763 H   0  0  0  0  0  0  0  0  0  0  0  0
   -1.0416    2.4211    0.9146 H   0  0  0  0  0  0  0  0  0  0  0  0
    2.3655    2.2861    0.7639 H   0  0  0  0  0  0  0  0  0  0  0  0
    0.9269    2.5378   -0.2262 H   0  0  0  0  0  0  0  0  0  0  0  0
    1.5325   -0.7299   -1.6575 H   0  0  0  0  0  0  0  0  0  0  0  0
    3.2370   -0.8123   -1.2038 H   0  0  0  0  0  0  0  0  0  0  0  0
   -3.0349   -2.2351   -2.0318 H   0  0  0  0  0  0  0  0  0  0  0  0
   -1.8555   -3.0974   -1.0642 H   0  0  0  0  0  0  0  0  0  0  0  0
   -2.4252   -3.7455    1.1875 H   0  0  0  0  0  0  0  0  0  0  0  0
   -2.9513   -2.0956    1.6461 H   0  0  0  0  0  0  0  0  0  0  0  0
   -4.0907   -3.4348    1.7439 H   0  0  0  0  0  0  0  0  0  0  0  0
   -4.3367    2.1271   -0.2114 H   0  0  0  0  0  0  0  0  0  0  0  0
  1  2  1  0  0  0  0
  2  3  2  0  0  0  0
  2 30  1  0  0  0  0
  3 23  1  0  0  0  0
  4  3  1  0  0  0  0
  4  5  1  0  0  0  0
  6  5  1  0  0  0  0
  6  7  1  0  0  0  0
  6 27  1  1  0  0  0
  7  8  1  0  0  0  0
  8  9  2  0  0  0  0
  8 31  1  0  0  0  0
  9 32  1  0  0  0  0
 10  9  1  0  0  0  0
 10 11  1  0  0  0  0
 11 33  1  0  0  0  0
 12 10  2  0  0  0  0
 12 34  1  0  0  0  0
 13  7  2  0  0  0  0
 13 12  1  0  0  0  0
 13 35  1  0  0  0  0
 14 22  1  0  0  0  0
 14  6  1  0  0  0  0
 14 28  1  1  0  0  0
 15 16  1  0  0  0  0
 15 14  1  0  0  0  0
 15 29  1  1  0  0  0
 16  4  2  0  0  0  0
 17  1  2  0  0  0  0
 17 16  1  0  0  0  0
 17 36  1  0  0  0  0
 18 19  1  0  0  0  0
 18 15  1  0  0  0  0
 18 37  1  0  0  0  0
 18 38  1  0  0  0  0
 19 20  1  0  0  0  0
 19 22  1  0  0  0  0
 21 19  1  0  0  0  0
 22 39  1  0  0  0  0
 22 40  1  0  0  0  0
 23 24  1  0  0  0  0
 23 41  1  0  0  0  0
 23 42  1  0  0  0  0
 24 25  1  0  0  0  0
 25 43  1  0  0  0  0
 25 44  1  0  0  0  0
 25 45  1  0  0  0  0
 26  1  1  0  0  0  0
 26 46  1  0  0  0  0
M  END
>  <DRUGBANK_ID>
DB07036

>  <COMMON_NAME>
(3aS,4R,9bR)-2,2-difluoro-4-(4-hydroxyphenyl)-6-(methoxymethyl)-1,2,3,3a,4,9b-hexahydrocyclopenta[c]chromen-8-ol

$$$$
