
 OpenBabel10282417213D

  5  4  0  0  0  0  0  0  0  0999 V2000
    1.0794   -0.0646    0.0674 I   0  0  0  0  0  0  0  0  0  0  0  0
    3.8600    1.8954   -0.0886 I   0  0  0  0  0  0  0  0  0  0  0  0
    3.1899   -0.1048    0.0091 C   0  0  0  0  0  0  0  0  0  0  0  0
    3.5546   -0.6897   -0.8403 H   0  0  0  0  0  0  0  0  0  0  0  0
    3.8600   -0.9095    1.8428 I   0  0  0  0  0  0  0  0  0  0  0  0
  1  3  1  0  0  0  0
  3  4  1  0  0  0  0
  3  2  1  0  0  0  0
  5  3  1  0  0  0  0
M  END
>  <DRUGBANK_ID>
DB13813

>  <COMMON_NAME>
Iodoform

>  <CAS_NUMBER>
75-47-8

>  <UNII>
KXI2J76489

>  <SYNONYMS>
carbon triiodide; Iodoform; Jodoform; methyl triiodide; triiodomethane

$$$$
