
 OpenBabel10282417223D

 55 58  0  0  1  0  0  0  0  0999 V2000
    1.5605    0.9147    0.7809 C   0  0  0  0  0  0  0  0  0  0  0  0
    1.4121    0.5723    2.1616 N   0  0  0  0  0  0  0  0  0  0  0  0
    0.3353    0.0032    2.7891 C   0  0  0  0  0  0  0  0  0  0  0  0
    0.4485   -0.1336    4.0004 O   0  0  0  0  0  0  0  0  0  0  0  0
   -0.9794   -0.5115    1.9999 C   0  0  2  0  0  0  0  0  0  0  0  0
   -1.1340   -1.3976    0.5665 C   0  0  0  0  0  0  0  0  0  0  0  0
   -0.6733   -2.7171    0.8833 N   0  0  0  0  0  0  0  0  0  0  0  0
    0.6916   -2.4330    1.2676 C   0  0  0  0  0  0  0  0  0  0  0  0
    0.8253   -2.8269    2.6736 C   0  0  0  0  0  0  0  0  0  0  0  0
    0.5768   -4.3203    2.5980 C   0  0  3  0  0  0  0  0  0  0  0  0
   -0.7960   -4.7826    2.1555 C   0  0  0  0  0  0  0  0  0  0  0  0
   -1.5443   -3.5562    1.7377 C   0  0  0  0  0  0  0  0  0  0  0  0
    1.4333   -4.9263    1.6109 O   0  0  0  0  0  0  0  0  0  0  0  0
    2.8070   -4.6346    1.7326 C   0  0  0  0  0  0  0  0  0  0  0  0
    3.2942   -5.0491    3.1254 C   0  0  0  0  0  0  0  0  0  0  0  0
    2.2527   -4.9990    4.2300 C   0  0  0  0  0  0  0  0  0  0  0  0
    0.9435   -4.7375    3.9368 C   0  0  0  0  0  0  0  0  0  0  0  0
   -0.0858   -4.5012    5.2764 S   0  0  0  0  0  0  0  0  0  0  0  0
    1.1661   -4.9630    6.2908 C   0  0  0  0  0  0  0  0  0  0  0  0
    1.0067   -5.0827    7.5801 F   0  0  0  0  0  0  0  0  0  0  0  0
    2.3524   -5.2053    5.6309 C   0  0  0  0  0  0  0  0  0  0  0  0
   -1.9094    0.6534    1.8018 C   0  0  0  0  0  0  0  0  0  0  0  0
   -3.2027    0.1623    1.1810 C   0  0  0  0  0  0  0  0  0  0  0  0
   -3.6143   -1.1882    1.1484 C   0  0  0  0  0  0  0  0  0  0  0  0
   -4.4725   -1.6966    0.1908 C   0  0  0  0  0  0  0  0  0  0  0  0
   -5.2382   -0.7842   -0.4944 C   0  0  0  0  0  0  0  0  0  0  0  0
   -5.0144    0.5873   -0.3074 C   0  0  0  0  0  0  0  0  0  0  0  0
   -3.9531    1.0494    0.4592 C   0  0  0  0  0  0  0  0  0  0  0  0
   -3.6510    2.3506    0.5153 F   0  0  0  0  0  0  0  0  0  0  0  0
    0.6659    0.6709    0.2231 H   0  0  0  0  0  0  0  0  0  0  0  0
    2.4070    0.3569    0.3722 H   0  0  0  0  0  0  0  0  0  0  0  0
    1.7395    1.9857    0.7194 H   0  0  0  0  0  0  0  0  0  0  0  0
    2.2277    0.6555    2.7660 H   0  0  0  0  0  0  0  0  0  0  0  0
   -1.4633   -1.1023    2.7992 H   0  0  0  0  0  0  0  0  0  0  0  0
   -0.8288   -0.5368   -0.0551 H   0  0  0  0  0  0  0  0  0  0  0  0
   -0.6851   -1.7109   -0.4091 H   0  0  0  0  0  0  0  0  0  0  0  0
    0.9426   -1.3942    1.1644 H   0  0  0  0  0  0  0  0  0  0  0  0
    1.4194   -2.7905    0.5458 H   0  0  0  0  0  0  0  0  0  0  0  0
    0.0980   -2.3750    3.3654 H   0  0  0  0  0  0  0  0  0  0  0  0
    1.7956   -2.4834    3.0579 H   0  0  0  0  0  0  0  0  0  0  0  0
   -1.3483   -5.3354    2.9252 H   0  0  0  0  0  0  0  0  0  0  0  0
   -0.7347   -5.4609    1.2965 H   0  0  0  0  0  0  0  0  0  0  0  0
   -1.8888   -3.0893    2.6729 H   0  0  0  0  0  0  0  0  0  0  0  0
   -2.4473   -3.8920    1.2096 H   0  0  0  0  0  0  0  0  0  0  0  0
    3.2765   -5.2279    0.9428 H   0  0  0  0  0  0  0  0  0  0  0  0
    3.0647   -3.5952    1.4661 H   0  0  0  0  0  0  0  0  0  0  0  0
    3.5847   -6.0922    3.0204 H   0  0  0  0  0  0  0  0  0  0  0  0
    4.1591   -4.4293    3.3680 H   0  0  0  0  0  0  0  0  0  0  0  0
    3.2483   -5.5129    6.1354 H   0  0  0  0  0  0  0  0  0  0  0  0
   -2.0766    1.1992    2.7322 H   0  0  0  0  0  0  0  0  0  0  0  0
   -1.3731    1.3182    1.1114 H   0  0  0  0  0  0  0  0  0  0  0  0
   -3.1637   -1.9164    1.7951 H   0  0  0  0  0  0  0  0  0  0  0  0
   -4.5498   -2.7725    0.0303 H   0  0  0  0  0  0  0  0  0  0  0  0
   -6.0393   -1.1474   -1.1258 H   0  0  0  0  0  0  0  0  0  0  0  0
   -5.6638    1.3160   -0.7661 H   0  0  0  0  0  0  0  0  0  0  0  0
  1  2  1  0  0  0  0
  1 30  1  0  0  0  0
  1 31  1  0  0  0  0
  1 32  1  0  0  0  0
  2  3  1  0  0  0  0
  2 33  1  0  0  0  0
  3  4  2  0  0  0  0
  5 22  1  0  0  0  0
  5 34  1  1  0  0  0
  5  6  1  0  0  0  0
  5  3  1  0  0  0  0
  6  7  1  0  0  0  0
  6 35  1  0  0  0  0
  6 36  1  0  0  0  0
  7  8  1  0  0  0  0
  7 12  1  0  0  0  0
  8  9  1  0  0  0  0
  8 37  1  0  0  0  0
  8 38  1  0  0  0  0
  9 10  1  0  0  0  0
  9 39  1  0  0  0  0
  9 40  1  0  0  0  0
 10 11  1  0  0  0  0
 10 13  1  0  0  0  0
 10 17  1  0  0  0  0
 11 12  1  0  0  0  0
 11 41  1  0  0  0  0
 11 42  1  0  0  0  0
 12 43  1  0  0  0  0
 12 44  1  0  0  0  0
 13 14  1  0  0  0  0
 14 15  1  0  0  0  0
 14 45  1  0  0  0  0
 14 46  1  0  0  0  0
 15 16  1  0  0  0  0
 15 47  1  0  0  0  0
 15 48  1  0  0  0  0
 16 17  2  0  0  0  0
 16 21  1  0  0  0  0
 17 18  1  0  0  0  0
 18 19  1  0  0  0  0
 19 20  1  0  0  0  0
 19 21  2  0  0  0  0
 21 49  1  0  0  0  0
 22 23  1  0  0  0  0
 22 50  1  0  0  0  0
 22 51  1  0  0  0  0
 23 24  2  0  0  0  0
 23 28  1  0  0  0  0
 24 25  1  0  0  0  0
 24 52  1  0  0  0  0
 25 26  2  0  0  0  0
 25 53  1  0  0  0  0
 26 27  1  0  0  0  0
 26 54  1  0  0  0  0
 27 28  2  0  0  0  0
 27 55  1  0  0  0  0
 28 29  1  0  0  0  0
M  END
>  <DRUGBANK_ID>
DB15208

>  <COMMON_NAME>
NOP-1A

>  <CAS_NUMBER>
1283095-70-4

>  <UNII>
DQY244459T

$$$$
