
 OpenBabel10282417213D

 54 56  0  0  0  0  0  0  0  0999 V2000
    1.1429   -0.6844    0.3781 C   0  0  0  0  0  0  0  0  0  0  0  0
    4.1991    1.5025   -0.0138 C   0  0  0  0  0  0  0  0  0  0  0  0
    3.5685    2.1429    1.0115 C   0  0  0  0  0  0  0  0  0  0  0  0
    3.5327    1.2683   -1.2140 C   0  0  0  0  0  0  0  0  0  0  0  0
    2.2453    2.4528    0.8075 C   0  0  0  0  0  0  0  0  0  0  0  0
    2.1939    1.5157   -1.3570 C   0  0  0  0  0  0  0  0  0  0  0  0
    0.4756    1.3293    2.4877 C   0  0  0  0  0  0  0  0  0  0  0  0
   -0.1342    3.5123   -0.6025 C   0  0  0  0  0  0  0  0  0  0  0  0
   -0.5135    1.3181   -2.0939 C   0  0  0  0  0  0  0  0  0  0  0  0
   -0.4837    2.7581    1.9564 C   0  0  0  0  0  0  0  0  0  0  0  0
   -2.7938    2.4060   -0.1799 C   0  0  0  0  0  0  0  0  0  0  0  0
   -2.4383    4.5025    1.1227 C   0  0  0  0  0  0  0  0  0  0  0  0
    0.2435    4.3394   -1.8043 C   0  0  0  0  0  0  0  0  0  0  0  0
   -0.1376    2.4764   -3.2313 C   0  0  0  0  0  0  0  0  0  0  0  0
   -2.7624    3.1494   -1.5409 C   0  0  0  0  0  0  0  0  0  0  0  0
   -2.3653    5.2495   -0.3021 C   0  0  0  0  0  0  0  0  0  0  0  0
    0.6303   -0.0970    1.7224 C   0  0  3  0  0  0  0  0  0  0  0  0
    1.4614    1.9081   -0.2720 C   0  0  0  0  0  0  0  0  0  0  0  0
   -1.2030    0.6230    0.7483 C   0  0  0  0  0  0  0  0  0  0  0  0
   -0.1445    1.7889   -0.4859 C   0  0  0  0  0  0  0  0  0  0  0  0
   -2.0379    3.0289    1.2406 N   0  0  0  0  0  0  0  0  0  0  0  0
   -2.3625    0.5618    1.0616 O   0  0  0  0  0  0  0  0  0  0  0  0
   -0.3616    3.8645   -2.9740 O   0  0  0  0  0  0  0  0  0  0  0  0
   -2.9048    4.5527   -1.4599 O   0  0  0  0  0  0  0  0  0  0  0  0
   -0.6586   -0.3844    1.4684 O   0  0  0  0  0  0  0  0  0  0  0  0
    0.6596   -0.3004   -0.5236 H   0  0  0  0  0  0  0  0  0  0  0  0
    0.7868   -1.7190    0.2319 H   0  0  0  0  0  0  0  0  0  0  0  0
    2.2127   -0.6494    0.2662 H   0  0  0  0  0  0  0  0  0  0  0  0
    5.2062    1.1564    0.1311 H   0  0  0  0  0  0  0  0  0  0  0  0
    4.0047    2.3332    1.9940 H   0  0  0  0  0  0  0  0  0  0  0  0
    3.9825    0.7445   -2.0383 H   0  0  0  0  0  0  0  0  0  0  0  0
    1.9234    3.0245    1.6786 H   0  0  0  0  0  0  0  0  0  0  0  0
    1.7372    1.2284   -2.2833 H   0  0  0  0  0  0  0  0  0  0  0  0
    0.0777    1.2147    3.4934 H   0  0  0  0  0  0  0  0  0  0  0  0
    1.5345    1.5169    2.7414 H   0  0  0  0  0  0  0  0  0  0  0  0
   -1.1353    3.6497   -0.4871 H   0  0  0  0  0  0  0  0  0  0  0  0
    0.0942    4.2276    0.2086 H   0  0  0  0  0  0  0  0  0  0  0  0
   -0.0722    0.3428   -2.3707 H   0  0  0  0  0  0  0  0  0  0  0  0
   -1.5718    1.0015   -2.2120 H   0  0  0  0  0  0  0  0  0  0  0  0
   -0.1734    3.6439    2.5630 H   0  0  0  0  0  0  0  0  0  0  0  0
    0.2230    3.0543    1.2548 H   0  0  0  0  0  0  0  0  0  0  0  0
   -3.8316    2.2111    0.0760 H   0  0  0  0  0  0  0  0  0  0  0  0
   -2.5057    1.4111   -0.5551 H   0  0  0  0  0  0  0  0  0  0  0  0
   -3.4869    4.5073    1.4112 H   0  0  0  0  0  0  0  0  0  0  0  0
   -1.8587    5.0763    1.8543 H   0  0  0  0  0  0  0  0  0  0  0  0
   -0.0814    5.3937   -1.6959 H   0  0  0  0  0  0  0  0  0  0  0  0
    1.3212    4.4243   -1.8231 H   0  0  0  0  0  0  0  0  0  0  0  0
    0.9176    2.4761   -3.4784 H   0  0  0  0  0  0  0  0  0  0  0  0
   -0.6954    2.2942   -4.1583 H   0  0  0  0  0  0  0  0  0  0  0  0
   -1.7817    2.9822   -1.8770 H   0  0  0  0  0  0  0  0  0  0  0  0
   -3.1010    2.6399   -2.4743 H   0  0  0  0  0  0  0  0  0  0  0  0
   -2.7316    6.2677   -0.4509 H   0  0  0  0  0  0  0  0  0  0  0  0
   -1.3160    5.5586   -0.3529 H   0  0  0  0  0  0  0  0  0  0  0  0
    1.0414   -0.7817    2.4688 H   0  0  0  0  0  0  0  0  0  0  0  0
  1 26  1  0  0  0  0
  1 27  1  0  0  0  0
  1 28  1  0  0  0  0
  2 29  1  0  0  0  0
  3  2  2  0  0  0  0
  3 30  1  0  0  0  0
  4  2  1  0  0  0  0
  4 31  1  0  0  0  0
  5  3  1  0  0  0  0
  5 32  1  0  0  0  0
  6  4  2  0  0  0  0
  6 33  1  0  0  0  0
  7 34  1  0  0  0  0
  7 35  1  0  0  0  0
  8 36  1  0  0  0  0
  8 37  1  0  0  0  0
  9 38  1  0  0  0  0
  9 39  1  0  0  0  0
 10  7  1  0  0  0  0
 10 40  1  0  0  0  0
 10 41  1  0  0  0  0
 11 42  1  0  0  0  0
 11 43  1  0  0  0  0
 12 44  1  0  0  0  0
 12 45  1  0  0  0  0
 13  8  1  0  0  0  0
 13 46  1  0  0  0  0
 13 47  1  0  0  0  0
 14  9  1  0  0  0  0
 14 48  1  0  0  0  0
 14 49  1  0  0  0  0
 15 11  1  0  0  0  0
 15 50  1  0  0  0  0
 15 51  1  0  0  0  0
 16 12  1  0  0  0  0
 16 52  1  0  0  0  0
 16 53  1  0  0  0  0
 17  1  1  0  0  0  0
 17  7  1  0  0  0  0
 17 54  1  0  0  0  0
 18  5  2  0  0  0  0
 18  6  1  0  0  0  0
 20  8  1  0  0  0  0
 20  9  1  0  0  0  0
 20 18  1  0  0  0  0
 20 19  1  0  0  0  0
 21 10  1  0  0  0  0
 21 11  1  0  0  0  0
 21 12  1  0  0  0  0
 22 19  2  0  0  0  0
 23 13  1  0  0  0  0
 23 14  1  0  0  0  0
 24 15  1  0  0  0  0
 24 16  1  0  0  0  0
 25 17  1  0  0  0  0
 25 19  1  0  0  0  0
M  END
>  <DRUGBANK_ID>
DB13825

>  <COMMON_NAME>
Fedrilate

>  <CAS_NUMBER>
23271-74-1

>  <UNII>
NT86R8M7J5

>  <SYNONYMS>
Fedrilate

$$$$
