
 OpenBabel10282417183D

 43 46  0  0  1  0  0  0  0  0999 V2000
    1.1042   -0.0298    0.0911 C   0  0  0  0  0  0  0  0  0  0  0  0
    0.4060    1.3120    0.3185 C   0  0  1  0  0  0  0  0  0  0  0  0
    0.9442    2.3856   -0.6297 C   0  0  0  0  0  0  0  0  0  0  0  0
    0.6022    2.1493   -1.9150 F   0  0  0  0  0  0  0  0  0  0  0  0
    0.4895    3.6134   -0.2996 F   0  0  0  0  0  0  0  0  0  0  0  0
    2.2975    2.4311   -0.5799 F   0  0  0  0  0  0  0  0  0  0  0  0
   -1.0443    1.2264    0.3625 O   0  0  0  0  0  0  0  0  0  0  0  0
   -1.7200    0.9708   -0.7980 C   0  0  0  0  0  0  0  0  0  0  0  0
   -1.4593   -0.1842   -1.5368 C   0  0  0  0  0  0  0  0  0  0  0  0
   -2.1386   -0.4637   -2.7122 C   0  0  0  0  0  0  0  0  0  0  0  0
   -3.2058    0.3331   -3.1058 C   0  0  0  0  0  0  0  0  0  0  0  0
   -3.5579    1.4312   -2.3117 C   0  0  0  0  0  0  0  0  0  0  0  0
   -2.7776    1.8033   -1.1899 C   0  0  0  0  0  0  0  0  0  0  0  0
   -3.0934    3.1200   -0.5223 C   0  0  0  0  0  0  0  0  0  0  0  0
   -3.0597    4.1463   -1.4238 F   0  0  0  0  0  0  0  0  0  0  0  0
   -4.3464    3.1519    0.0122 F   0  0  0  0  0  0  0  0  0  0  0  0
   -2.2484    3.4909    0.4759 F   0  0  0  0  0  0  0  0  0  0  0  0
   -3.9324   -0.0371   -4.2919 C   0  0  0  0  0  0  0  0  0  0  0  0
   -4.4284   -1.2130   -4.6167 N   0  0  0  0  0  0  0  0  0  0  0  0
   -4.8987   -0.9838   -5.8803 C   0  0  0  0  0  0  0  0  0  0  0  0
   -4.6859    0.2575   -6.3474 N   0  0  0  0  0  0  0  0  0  0  0  0
   -4.0460    0.8941   -5.2776 O   0  0  0  0  0  0  0  0  0  0  0  0
   -5.6603   -1.9924   -6.5827 C   0  0  0  0  0  0  0  0  0  0  0  0
   -6.8310   -2.4890   -5.9856 C   0  0  0  0  0  0  0  0  0  0  0  0
   -7.6355   -3.4368   -6.6262 C   0  0  0  0  0  0  0  0  0  0  0  0
   -7.2274   -3.8252   -7.9023 C   0  0  0  0  0  0  0  0  0  0  0  0
   -6.0829   -3.3355   -8.5250 C   0  0  0  0  0  0  0  0  0  0  0  0
   -5.2487   -2.4428   -7.8429 C   0  0  0  0  0  0  0  0  0  0  0  0
   -5.9736   -3.8212   -9.8031 N   0  0  0  0  0  0  0  0  0  0  0  0
   -7.0304   -4.5808   -9.9723 C   0  0  0  0  0  0  0  0  0  0  0  0
   -7.7566   -4.6965   -8.8207 N   0  0  0  0  0  0  0  0  0  0  0  0
    1.0838   -0.3148   -0.9642 H   0  0  0  0  0  0  0  0  0  0  0  0
    0.6330   -0.8226    0.6819 H   0  0  0  0  0  0  0  0  0  0  0  0
    2.1663    0.0192    0.3446 H   0  0  0  0  0  0  0  0  0  0  0  0
    0.6816    1.6208    1.3358 H   0  0  0  0  0  0  0  0  0  0  0  0
   -0.7446   -0.9286   -1.2202 H   0  0  0  0  0  0  0  0  0  0  0  0
   -1.8464   -1.3338   -3.2988 H   0  0  0  0  0  0  0  0  0  0  0  0
   -4.4495    2.0075   -2.5618 H   0  0  0  0  0  0  0  0  0  0  0  0
   -7.1294   -2.1188   -5.0048 H   0  0  0  0  0  0  0  0  0  0  0  0
   -8.5422   -3.8097   -6.1628 H   0  0  0  0  0  0  0  0  0  0  0  0
   -4.3295   -2.1026   -8.3065 H   0  0  0  0  0  0  0  0  0  0  0  0
   -7.3104   -5.0726  -10.8939 H   0  0  0  0  0  0  0  0  0  0  0  0
   -8.5614   -5.2900   -8.6829 H   0  0  0  0  0  0  0  0  0  0  0  0
  1 32  1  0  0  0  0
  1 33  1  0  0  0  0
  1 34  1  0  0  0  0
  2  1  1  0  0  0  0
  2  3  1  0  0  0  0
  2  7  1  0  0  0  0
  2 35  1  1  0  0  0
  3  4  1  0  0  0  0
  3  5  1  0  0  0  0
  3  6  1  0  0  0  0
  7  8  1  0  0  0  0
  8  9  2  0  0  0  0
  8 13  1  0  0  0  0
  9 10  1  0  0  0  0
  9 36  1  0  0  0  0
 10 11  2  0  0  0  0
 10 37  1  0  0  0  0
 11 12  1  0  0  0  0
 11 18  1  0  0  0  0
 12 13  2  0  0  0  0
 12 38  1  0  0  0  0
 13 14  1  0  0  0  0
 14 15  1  0  0  0  0
 14 16  1  0  0  0  0
 14 17  1  0  0  0  0
 18 19  2  0  0  0  0
 18 22  1  0  0  0  0
 19 20  1  0  0  0  0
 20 21  2  0  0  0  0
 20 23  1  0  0  0  0
 21 22  1  0  0  0  0
 23 24  2  0  0  0  0
 23 28  1  0  0  0  0
 24 25  1  0  0  0  0
 24 39  1  0  0  0  0
 25 26  2  0  0  0  0
 25 40  1  0  0  0  0
 26 27  1  0  0  0  0
 26 31  1  0  0  0  0
 27 28  2  0  0  0  0
 27 29  1  0  0  0  0
 28 41  1  0  0  0  0
 29 30  2  0  0  0  0
 30 31  1  0  0  0  0
 30 42  1  0  0  0  0
 31 43  1  0  0  0  0
M  END
>  <DRUGBANK_ID>
DB11819

>  <COMMON_NAME>
ASP-4058

>  <CAS_NUMBER>
952565-91-2

>  <UNII>
01J7526K2Q

$$$$
