
 OpenBabel10282417183D

 58 61  0  0  0  0  0  0  0  0999 V2000
   -1.9100   -1.3550    0.0130 O   0  0  0  0  0  0  0  0  0  0  0  0
   -0.9171   -0.6256   -0.0046 C   0  0  0  0  0  0  0  0  0  0  0  0
    0.3585   -1.0482   -0.0386 N   0  0  0  0  0  0  0  0  0  0  0  0
   -0.9974    1.1130    0.0140 S   0  0  0  0  0  0  0  0  0  0  0  0
    0.8199    1.3040    0.0083 C   0  0  3  0  0  0  0  0  0  0  0  0
    1.3424    2.0663   -1.2181 C   0  0  0  0  0  0  0  0  0  0  0  0
    1.0270    3.5418   -1.3189 C   0  0  0  0  0  0  0  0  0  0  0  0
    1.5919    4.4275   -0.3963 C   0  0  0  0  0  0  0  0  0  0  0  0
    1.3470    5.8124   -0.4578 C   0  0  0  0  0  0  0  0  0  0  0  0
    0.4096    6.3120   -1.3629 C   0  0  0  0  0  0  0  0  0  0  0  0
   -0.3503    7.4472   -1.1535 O   0  0  0  0  0  0  0  0  0  0  0  0
   -0.2880    8.1085    0.1282 C   0  0  0  0  0  0  0  0  0  0  0  0
   -1.0155    7.4558    1.3391 C   0  0  0  0  0  0  0  0  0  0  0  0
   -0.5218    6.1210    1.6877 N   0  0  0  0  0  0  0  0  0  0  0  0
    0.2639    5.8959    2.8048 C   0  0  0  0  0  0  0  0  0  0  0  0
   -0.2045    6.3303    4.0073 C   0  0  0  0  0  0  0  0  0  0  0  0
    0.4818    5.9843    5.1452 C   0  0  0  0  0  0  0  0  0  0  0  0
    0.0144    6.3227    6.4055 O   0  0  0  0  0  0  0  0  0  0  0  0
   -1.2461    6.8784    6.5032 C   0  0  0  0  0  0  0  0  0  0  0  0
   -2.3919    6.2304    6.0236 C   0  0  0  0  0  0  0  0  0  0  0  0
   -3.6415    6.8465    6.1114 C   0  0  0  0  0  0  0  0  0  0  0  0
   -3.7722    8.0761    6.7536 C   0  0  0  0  0  0  0  0  0  0  0  0
   -4.9454    8.7682    6.8947 O   0  0  0  0  0  0  0  0  0  0  0  0
   -6.0858    8.2216    6.2344 C   0  0  0  0  0  0  0  0  0  0  0  0
   -2.6348    8.6826    7.3008 C   0  0  0  0  0  0  0  0  0  0  0  0
   -1.3662    8.1145    7.1302 C   0  0  0  0  0  0  0  0  0  0  0  0
    1.6491    5.3191    5.1120 N   0  0  0  0  0  0  0  0  0  0  0  0
    2.0758    4.9891    3.8864 C   0  0  0  0  0  0  0  0  0  0  0  0
    1.4207    5.2152    2.7325 N   0  0  0  0  0  0  0  0  0  0  0  0
   -1.0557    4.9586    1.0029 C   0  0  0  0  0  0  0  0  0  0  0  0
   -0.0772    5.4573   -2.3641 C   0  0  0  0  0  0  0  0  0  0  0  0
    0.1999    4.0749   -2.3182 C   0  0  0  0  0  0  0  0  0  0  0  0
    1.3556   -0.1190   -0.0106 C   0  0  0  0  0  0  0  0  0  0  0  0
    2.5412   -0.4205   -0.0021 O   0  0  0  0  0  0  0  0  0  0  0  0
    0.5715   -2.0348   -0.0497 H   0  0  0  0  0  0  0  0  0  0  0  0
    1.1281    1.7620    0.9548 H   0  0  0  0  0  0  0  0  0  0  0  0
    2.4396    2.0079   -1.2085 H   0  0  0  0  0  0  0  0  0  0  0  0
    1.0435    1.5545   -2.1415 H   0  0  0  0  0  0  0  0  0  0  0  0
    2.0596    4.0300    0.5055 H   0  0  0  0  0  0  0  0  0  0  0  0
    1.6660    6.3995    0.3988 H   0  0  0  0  0  0  0  0  0  0  0  0
    0.7460    8.3728    0.3677 H   0  0  0  0  0  0  0  0  0  0  0  0
   -0.7998    9.0704   -0.0245 H   0  0  0  0  0  0  0  0  0  0  0  0
   -0.8901    8.1480    2.1867 H   0  0  0  0  0  0  0  0  0  0  0  0
   -2.0962    7.4025    1.1627 H   0  0  0  0  0  0  0  0  0  0  0  0
   -1.1421    6.8568    4.0199 H   0  0  0  0  0  0  0  0  0  0  0  0
   -2.3177    5.2729    5.5135 H   0  0  0  0  0  0  0  0  0  0  0  0
   -4.4922    6.3326    5.6775 H   0  0  0  0  0  0  0  0  0  0  0  0
   -5.9190    8.1309    5.1544 H   0  0  0  0  0  0  0  0  0  0  0  0
   -6.3614    7.2553    6.6700 H   0  0  0  0  0  0  0  0  0  0  0  0
   -6.9286    8.9039    6.3799 H   0  0  0  0  0  0  0  0  0  0  0  0
   -2.7342    9.6054    7.8675 H   0  0  0  0  0  0  0  0  0  0  0  0
   -0.4803    8.6398    7.4774 H   0  0  0  0  0  0  0  0  0  0  0  0
    3.0374    4.4866    3.8151 H   0  0  0  0  0  0  0  0  0  0  0  0
   -2.1369    4.8519    1.0617 H   0  0  0  0  0  0  0  0  0  0  0  0
   -0.9405    5.0710   -0.0574 H   0  0  0  0  0  0  0  0  0  0  0  0
   -0.5428    4.0346    1.2834 H   0  0  0  0  0  0  0  0  0  0  0  0
   -0.7981    5.8338   -3.0860 H   0  0  0  0  0  0  0  0  0  0  0  0
   -0.3196    3.4132   -3.0089 H   0  0  0  0  0  0  0  0  0  0  0  0
  1  2  2  0  0  0  0
  2  3  1  0  0  0  0
  2  4  1  0  0  0  0
  3 33  1  0  0  0  0
  3 35  1  0  0  0  0
  4  5  1  0  0  0  0
  5  6  1  0  0  0  0
  5 33  1  0  0  0  0
  5 36  1  0  0  0  0
  6  7  1  0  0  0  0
  6 37  1  0  0  0  0
  6 38  1  0  0  0  0
  7  8  2  0  0  0  0
  7 32  1  0  0  0  0
  8  9  1  0  0  0  0
  8 39  1  0  0  0  0
  9 10  2  0  0  0  0
  9 40  1  0  0  0  0
 10 11  1  0  0  0  0
 10 31  1  0  0  0  0
 11 12  1  0  0  0  0
 12 13  1  0  0  0  0
 12 41  1  0  0  0  0
 12 42  1  0  0  0  0
 13 14  1  0  0  0  0
 13 43  1  0  0  0  0
 13 44  1  0  0  0  0
 14 15  1  0  0  0  0
 14 30  1  0  0  0  0
 15 16  2  0  0  0  0
 15 29  1  0  0  0  0
 16 17  1  0  0  0  0
 16 45  1  0  0  0  0
 17 18  1  0  0  0  0
 17 27  2  0  0  0  0
 18 19  1  0  0  0  0
 19 20  2  0  0  0  0
 19 26  1  0  0  0  0
 20 21  1  0  0  0  0
 20 46  1  0  0  0  0
 21 22  2  0  0  0  0
 21 47  1  0  0  0  0
 22 23  1  0  0  0  0
 22 25  1  0  0  0  0
 23 24  1  0  0  0  0
 24 48  1  0  0  0  0
 24 49  1  0  0  0  0
 24 50  1  0  0  0  0
 25 26  2  0  0  0  0
 25 51  1  0  0  0  0
 26 52  1  0  0  0  0
 27 28  1  0  0  0  0
 28 29  2  0  0  0  0
 28 53  1  0  0  0  0
 30 54  1  0  0  0  0
 30 55  1  0  0  0  0
 30 56  1  0  0  0  0
 31 32  2  0  0  0  0
 31 57  1  0  0  0  0
 32 58  1  0  0  0  0
 33 34  2  0  0  0  0
M  END
>  <DRUGBANK_ID>
DB09198

>  <COMMON_NAME>
Lobeglitazone

>  <CAS_NUMBER>
607723-33-1

>  <UNII>
MY89F08K5D

>  <SYNONYMS>
Lobeglitazone

$$$$
