
 OpenBabel10282417113D

 33 34  0  0  0  0  0  0  0  0999 V2000
    0.9434    1.4266    0.0055 C   0  0  0  0  0  0  0  0  0  0  0  0
    2.1629    0.7431   -0.0228 C   0  0  0  0  0  0  0  0  0  0  0  0
   -0.2127   -0.7320    0.0069 C   0  0  0  0  0  0  0  0  0  0  0  0
   -0.2237    0.6626    0.0037 C   0  0  0  0  0  0  0  0  0  0  0  0
    1.0323   -1.3948    0.0232 C   0  0  0  0  0  0  0  0  0  0  0  0
    2.2180   -0.6505   -0.0119 C   0  0  0  0  0  0  0  0  0  0  0  0
   -1.5367    1.0619   -0.0154 N   0  0  0  0  0  0  0  0  0  0  0  0
   -2.3503   -0.0284   -0.1261 C   0  0  0  0  0  0  0  0  0  0  0  0
   -2.9403   -2.8995    1.1974 C   0  0  0  0  0  0  0  0  0  0  0  0
   -1.5739   -1.1686   -0.0317 C   0  0  0  0  0  0  0  0  0  0  0  0
   -2.0641   -2.5847   -0.0204 C   0  0  0  0  0  0  0  0  0  0  0  0
   -5.4583   -2.5862    1.0917 C   0  0  0  0  0  0  0  0  0  0  0  0
   -4.1819   -2.1383    1.2152 N   0  0  0  0  0  0  0  0  0  0  0  0
   -6.3905   -1.7853    1.0267 O   0  0  0  0  0  0  0  0  0  0  0  0
   -5.6638   -4.0697    1.0657 C   0  0  0  0  0  0  0  0  0  0  0  0
    3.3672   -1.3974   -0.0451 O   0  0  0  0  0  0  0  0  0  0  0  0
    4.5866   -0.6656   -0.1022 C   0  0  0  0  0  0  0  0  0  0  0  0
    0.9152    2.5107   -0.0005 H   0  0  0  0  0  0  0  0  0  0  0  0
    3.0644    1.3446   -0.0615 H   0  0  0  0  0  0  0  0  0  0  0  0
    1.0760   -2.4799    0.0273 H   0  0  0  0  0  0  0  0  0  0  0  0
   -1.8523    2.0219   -0.0056 H   0  0  0  0  0  0  0  0  0  0  0  0
   -3.4182    0.1036   -0.2379 H   0  0  0  0  0  0  0  0  0  0  0  0
   -3.1576   -3.9696    1.2055 H   0  0  0  0  0  0  0  0  0  0  0  0
   -2.4125   -2.6566    2.1253 H   0  0  0  0  0  0  0  0  0  0  0  0
   -2.6092   -2.7864   -0.9502 H   0  0  0  0  0  0  0  0  0  0  0  0
   -1.2084   -3.2716   -0.0039 H   0  0  0  0  0  0  0  0  0  0  0  0
   -4.1134   -1.1310    1.2826 H   0  0  0  0  0  0  0  0  0  0  0  0
   -5.1725   -4.4983    0.1884 H   0  0  0  0  0  0  0  0  0  0  0  0
   -5.2562   -4.5062    1.9823 H   0  0  0  0  0  0  0  0  0  0  0  0
   -6.7317   -4.2929    1.0199 H   0  0  0  0  0  0  0  0  0  0  0  0
    4.6422   -0.0642   -1.0165 H   0  0  0  0  0  0  0  0  0  0  0  0
    4.7089   -0.0409    0.7892 H   0  0  0  0  0  0  0  0  0  0  0  0
    5.4141   -1.3800   -0.1238 H   0  0  0  0  0  0  0  0  0  0  0  0
  1  4  2  0  0  0  0
  1 18  1  0  0  0  0
  2  1  1  0  0  0  0
  2  6  2  0  0  0  0
  2 19  1  0  0  0  0
  4  3  1  0  0  0  0
  4  7  1  0  0  0  0
  5  3  2  0  0  0  0
  5 20  1  0  0  0  0
  6  5  1  0  0  0  0
  7 21  1  0  0  0  0
  8  7  1  0  0  0  0
  8 22  1  0  0  0  0
  9 11  1  0  0  0  0
  9 23  1  0  0  0  0
  9 24  1  0  0  0  0
 10  3  1  0  0  0  0
 10  8  2  0  0  0  0
 11 10  1  0  0  0  0
 11 25  1  0  0  0  0
 11 26  1  0  0  0  0
 13  9  1  0  0  0  0
 13 12  1  0  0  0  0
 13 27  1  0  0  0  0
 14 12  2  0  0  0  0
 15 12  1  0  0  0  0
 15 28  1  0  0  0  0
 15 29  1  0  0  0  0
 15 30  1  0  0  0  0
 16  6  1  0  0  0  0
 16 17  1  0  0  0  0
 17 31  1  0  0  0  0
 17 32  1  0  0  0  0
 17 33  1  0  0  0  0
M  END
>  <DRUGBANK_ID>
DB01065

>  <SECONDARY_ACCESSION_NUMBERS>
APRD00742; DB08189

>  <COMMON_NAME>
Melatonin

>  <CAS_NUMBER>
73-31-4

>  <UNII>
JL5DK93RCL

>  <SYNONYMS>
5-methoxy-N-acetyltryptamine; Melatonin; Melatonina; MÃ©latonine; N-[2-(5-methoxyindol-3-yl)ethyl]acetamide; N-Acetyl-5-methoxytryptamine

$$$$
