
 OpenBabel10282417203D

 68 71  0  0  0  0  0  0  0  0999 V2000
    1.0843    0.0581   -0.0384 C   0  0  0  0  0  0  0  0  0  0  0  0
    0.5652   -0.1317    1.3916 C   0  0  0  0  0  0  0  0  0  0  0  0
    1.2574    0.8041    2.4007 C   0  0  0  0  0  0  0  0  0  0  0  0
   -0.9753   -0.1421    1.3828 C   0  0  0  0  0  0  0  0  0  0  0  0
   -1.6714   -1.3629    1.3878 C   0  0  0  0  0  0  0  0  0  0  0  0
   -1.0912   -2.6059    1.4959 O   0  0  0  0  0  0  0  0  0  0  0  0
   -3.0624   -1.4095    1.2520 C   0  0  0  0  0  0  0  0  0  0  0  0
   -3.6374   -2.6556    1.2224 O   0  0  0  0  0  0  0  0  0  0  0  0
   -3.8275   -0.2446    1.1431 C   0  0  0  0  0  0  0  0  0  0  0  0
   -5.3062   -0.4019    0.9122 C   0  0  0  0  0  0  0  0  0  0  0  0
   -5.9127   -1.4622    0.8533 O   0  0  0  0  0  0  0  0  0  0  0  0
   -3.1789    1.0392    1.2171 C   0  0  0  0  0  0  0  0  0  0  0  0
   -3.8272    2.3196    1.1999 C   0  0  0  0  0  0  0  0  0  0  0  0
   -5.2003    2.3389    1.1406 O   0  0  0  0  0  0  0  0  0  0  0  0
   -3.1519    3.5660    1.3134 C   0  0  0  0  0  0  0  0  0  0  0  0
   -1.7697    3.5603    1.4109 C   0  0  0  0  0  0  0  0  0  0  0  0
   -0.8988    4.7885    1.5557 C   0  0  0  0  0  0  0  0  0  0  0  0
   -1.1307    2.3335    1.2875 C   0  0  0  0  0  0  0  0  0  0  0  0
   -1.7523    1.0653    1.2990 C   0  0  0  0  0  0  0  0  0  0  0  0
   -3.8770    4.8447    1.3008 C   0  0  0  0  0  0  0  0  0  0  0  0
   -4.8072    5.1551    2.3202 C   0  0  0  0  0  0  0  0  0  0  0  0
   -5.0485    4.2027    3.2814 O   0  0  0  0  0  0  0  0  0  0  0  0
   -5.5631    6.3628    2.3713 C   0  0  0  0  0  0  0  0  0  0  0  0
   -5.3194    7.3159    1.3199 C   0  0  0  0  0  0  0  0  0  0  0  0
   -4.3602    6.9831    0.3249 C   0  0  0  0  0  0  0  0  0  0  0  0
   -3.6599    5.7746    0.2794 C   0  0  0  0  0  0  0  0  0  0  0  0
   -2.6691    5.5775   -0.8496 C   0  0  0  0  0  0  0  0  0  0  0  0
   -6.0440    8.5551    1.2778 C   0  0  0  0  0  0  0  0  0  0  0  0
   -5.7243    9.6467    0.2504 C   0  0  0  0  0  0  0  0  0  0  0  0
   -6.8726    9.8808   -0.7354 C   0  0  0  0  0  0  0  0  0  0  0  0
   -5.2432   10.9334    0.9330 C   0  0  0  0  0  0  0  0  0  0  0  0
   -7.0486    8.7573    2.2345 C   0  0  0  0  0  0  0  0  0  0  0  0
   -7.8926    9.8413    2.2880 O   0  0  0  0  0  0  0  0  0  0  0  0
   -7.2799    7.8485    3.2631 C   0  0  0  0  0  0  0  0  0  0  0  0
   -8.2636    8.1902    4.1554 O   0  0  0  0  0  0  0  0  0  0  0  0
   -6.5431    6.6741    3.3777 C   0  0  0  0  0  0  0  0  0  0  0  0
   -6.8258    5.8083    4.5762 C   0  0  0  0  0  0  0  0  0  0  0  0
   -7.6689    6.0328    5.4351 O   0  0  0  0  0  0  0  0  0  0  0  0
    0.7546    1.0047   -0.4766 H   0  0  0  0  0  0  0  0  0  0  0  0
    0.7215   -0.7446   -0.6926 H   0  0  0  0  0  0  0  0  0  0  0  0
    2.1781    0.0376   -0.0637 H   0  0  0  0  0  0  0  0  0  0  0  0
    0.9277   -1.1119    1.7107 H   0  0  0  0  0  0  0  0  0  0  0  0
    1.2301    1.8660    2.1696 H   0  0  0  0  0  0  0  0  0  0  0  0
    0.8265    0.6829    3.3986 H   0  0  0  0  0  0  0  0  0  0  0  0
    2.3296    0.5924    2.4399 H   0  0  0  0  0  0  0  0  0  0  0  0
   -0.1465   -2.5468    1.6933 H   0  0  0  0  0  0  0  0  0  0  0  0
   -2.9090   -3.2979    1.3106 H   0  0  0  0  0  0  0  0  0  0  0  0
   -5.9081    0.4931    0.7531 H   0  0  0  0  0  0  0  0  0  0  0  0
   -5.5650    3.2377    1.0757 H   0  0  0  0  0  0  0  0  0  0  0  0
   -0.2996    4.7360    2.4688 H   0  0  0  0  0  0  0  0  0  0  0  0
   -0.2282    4.8649    0.6918 H   0  0  0  0  0  0  0  0  0  0  0  0
   -1.4566    5.7253    1.6174 H   0  0  0  0  0  0  0  0  0  0  0  0
   -0.0720    2.4316    1.1206 H   0  0  0  0  0  0  0  0  0  0  0  0
   -4.4616    3.4299    3.2225 H   0  0  0  0  0  0  0  0  0  0  0  0
   -4.1253    7.6638   -0.4880 H   0  0  0  0  0  0  0  0  0  0  0  0
   -3.1590    5.6614   -1.8212 H   0  0  0  0  0  0  0  0  0  0  0  0
   -1.8723    6.3283   -0.7760 H   0  0  0  0  0  0  0  0  0  0  0  0
   -2.1837    4.5990   -0.8486 H   0  0  0  0  0  0  0  0  0  0  0  0
   -4.8781    9.3659   -0.3778 H   0  0  0  0  0  0  0  0  0  0  0  0
   -7.7872   10.2478   -0.2685 H   0  0  0  0  0  0  0  0  0  0  0  0
   -6.5851   10.6222   -1.4872 H   0  0  0  0  0  0  0  0  0  0  0  0
   -7.1320    8.9501   -1.2517 H   0  0  0  0  0  0  0  0  0  0  0  0
   -4.3621   10.7310    1.5539 H   0  0  0  0  0  0  0  0  0  0  0  0
   -4.9645   11.6837    0.1868 H   0  0  0  0  0  0  0  0  0  0  0  0
   -5.9945   11.3859    1.5820 H   0  0  0  0  0  0  0  0  0  0  0  0
   -7.7151   10.4601    1.5692 H   0  0  0  0  0  0  0  0  0  0  0  0
   -8.6116    9.0491    3.8484 H   0  0  0  0  0  0  0  0  0  0  0  0
   -6.2299    4.9103    4.7340 H   0  0  0  0  0  0  0  0  0  0  0  0
  1  2  1  0  0  0  0
  1 39  1  0  0  0  0
  1 40  1  0  0  0  0
  1 41  1  0  0  0  0
  2  3  1  0  0  0  0
  2  4  1  0  0  0  0
  2 42  1  0  0  0  0
  3 43  1  0  0  0  0
  3 44  1  0  0  0  0
  3 45  1  0  0  0  0
  4  5  2  0  0  0  0
  4 19  1  0  0  0  0
  5  6  1  0  0  0  0
  5  7  1  0  0  0  0
  6 46  1  0  0  0  0
  7  8  1  0  0  0  0
  7  9  2  0  0  0  0
  8 47  1  0  0  0  0
  9 10  1  0  0  0  0
  9 12  1  0  0  0  0
 10 11  2  0  0  0  0
 10 48  1  0  0  0  0
 12 13  2  0  0  0  0
 12 19  1  0  0  0  0
 13 14  1  0  0  0  0
 13 15  1  0  0  0  0
 14 49  1  0  0  0  0
 15 16  2  0  0  0  0
 15 20  1  0  0  0  0
 16 17  1  0  0  0  0
 16 18  1  0  0  0  0
 17 50  1  0  0  0  0
 17 51  1  0  0  0  0
 17 52  1  0  0  0  0
 18 19  2  0  0  0  0
 18 53  1  0  0  0  0
 20 21  2  0  0  0  0
 20 26  1  0  0  0  0
 21 22  1  0  0  0  0
 21 23  1  0  0  0  0
 22 54  1  0  0  0  0
 23 24  2  0  0  0  0
 23 36  1  0  0  0  0
 24 25  1  0  0  0  0
 24 28  1  0  0  0  0
 25 26  2  0  0  0  0
 25 55  1  0  0  0  0
 26 27  1  0  0  0  0
 27 56  1  0  0  0  0
 27 57  1  0  0  0  0
 27 58  1  0  0  0  0
 28 29  1  0  0  0  0
 28 32  2  0  0  0  0
 29 30  1  0  0  0  0
 29 31  1  0  0  0  0
 29 59  1  0  0  0  0
 30 60  1  0  0  0  0
 30 61  1  0  0  0  0
 30 62  1  0  0  0  0
 31 63  1  0  0  0  0
 31 64  1  0  0  0  0
 31 65  1  0  0  0  0
 32 33  1  0  0  0  0
 32 34  1  0  0  0  0
 33 66  1  0  0  0  0
 34 35  1  0  0  0  0
 34 36  2  0  0  0  0
 35 67  1  0  0  0  0
 36 37  1  0  0  0  0
 37 38  2  0  0  0  0
 37 68  1  0  0  0  0
M  END
>  <DRUGBANK_ID>
DB13044

>  <COMMON_NAME>
Gossypol

>  <CAS_NUMBER>
303-45-7

>  <UNII>
KAV15B369O

$$$$
