
 OpenBabel10282417103D

 33 35  0  0  0  0  0  0  0  0999 V2000
   -0.3939    0.7126   -0.0184 C   0  0  0  0  0  0  0  0  0  0  0  0
   -2.3782   -0.4365    0.0277 N   0  0  0  0  0  0  0  0  0  0  0  0
   -2.4340    1.5442   -1.1042 O   0  0  0  0  0  0  0  0  0  0  0  0
   -0.1158   -0.6585   -0.0198 C   0  0  0  0  0  0  0  0  0  0  0  0
    0.6756    1.5947   -0.0176 C   0  0  0  0  0  0  0  0  0  0  0  0
   -1.3792   -1.3763    0.0018 C   0  0  0  0  0  0  0  0  0  0  0  0
    1.1589   -1.2014   -0.0133 C   0  0  0  0  0  0  0  0  0  0  0  0
    1.9857    1.0717   -0.0092 C   0  0  0  0  0  0  0  0  0  0  0  0
   -1.4849   -2.5923    0.0003 O   0  0  0  0  0  0  0  0  0  0  0  0
    2.2269   -0.3144   -0.0072 C   0  0  0  0  0  0  0  0  0  0  0  0
   -2.3731    1.7237    1.2765 C   0  0  0  0  0  0  0  0  0  0  0  0
   -2.1259    1.3000    2.5978 C   0  0  0  0  0  0  0  0  0  0  0  0
   -3.0625    2.9470    1.1185 C   0  0  0  0  0  0  0  0  0  0  0  0
   -2.6525    2.0124    3.6997 C   0  0  0  0  0  0  0  0  0  0  0  0
   -3.4667    3.7167    2.2145 C   0  0  0  0  0  0  0  0  0  0  0  0
   -3.3167    3.2258    3.5079 C   0  0  0  0  0  0  0  0  0  0  0  0
   -2.5082    1.3897    5.3462 S   0  0  0  0  0  0  0  0  0  0  0  0
   -4.0075    4.1673    4.7810 Cl  0  0  0  0  0  0  0  0  0  0  0  0
   -3.8211    0.9952    5.8004 O   0  0  0  0  0  0  0  0  0  0  0  0
   -1.8953    0.9264    0.0515 C   0  0  3  0  0  0  0  0  0  0  0  0
   -1.6270   -0.0423    5.2040 N   0  0  0  0  0  0  0  0  0  0  0  0
   -1.6449    2.2691    6.0982 O   0  0  0  0  0  0  0  0  0  0  0  0
   -3.3485   -0.7168    0.0233 H   0  0  0  0  0  0  0  0  0  0  0  0
   -2.0171    1.1665   -1.8896 H   0  0  0  0  0  0  0  0  0  0  0  0
    0.5241    2.6696   -0.0032 H   0  0  0  0  0  0  0  0  0  0  0  0
    1.3093   -2.2768   -0.0043 H   0  0  0  0  0  0  0  0  0  0  0  0
    2.8403    1.7469    0.0039 H   0  0  0  0  0  0  0  0  0  0  0  0
    3.2463   -0.6978    0.0009 H   0  0  0  0  0  0  0  0  0  0  0  0
   -1.5284    0.4060    2.7568 H   0  0  0  0  0  0  0  0  0  0  0  0
   -3.3019    3.3301    0.1261 H   0  0  0  0  0  0  0  0  0  0  0  0
   -3.9182    4.6932    2.0456 H   0  0  0  0  0  0  0  0  0  0  0  0
   -0.6593    0.1445    4.9468 H   0  0  0  0  0  0  0  0  0  0  0  0
   -1.6664   -0.5166    6.1115 H   0  0  0  0  0  0  0  0  0  0  0  0
  1  4  1  0  0  0  0
  1  5  2  0  0  0  0
  2  6  1  0  0  0  0
  2 23  1  0  0  0  0
  3 24  1  0  0  0  0
  4  7  2  0  0  0  0
  4  6  1  0  0  0  0
  5  8  1  0  0  0  0
  5 25  1  0  0  0  0
  6  9  2  0  0  0  0
  7 10  1  0  0  0  0
  7 26  1  0  0  0  0
  8 10  2  0  0  0  0
  8 27  1  0  0  0  0
 10 28  1  0  0  0  0
 11 12  2  0  0  0  0
 11 13  1  0  0  0  0
 12 14  1  0  0  0  0
 12 29  1  0  0  0  0
 13 15  2  0  0  0  0
 13 30  1  0  0  0  0
 14 16  2  0  0  0  0
 14 17  1  0  0  0  0
 15 16  1  0  0  0  0
 15 31  1  0  0  0  0
 16 18  1  0  0  0  0
 17 22  2  0  0  0  0
 17 19  2  0  0  0  0
 17 21  1  0  0  0  0
 20  1  1  0  0  0  0
 20  2  1  0  0  0  0
 20  3  1  0  0  0  0
 20 11  1  0  0  0  0
 21 32  1  0  0  0  0
 21 33  1  0  0  0  0
M  END
>  <DRUGBANK_ID>
DB00310

>  <SECONDARY_ACCESSION_NUMBERS>
APRD00127

>  <COMMON_NAME>
Chlorthalidone

>  <CAS_NUMBER>
77-36-1

>  <UNII>
Q0MQD1073Q

>  <SYNONYMS>
1-keto-3-(3'-sulfamyl-4'-chlorophenyl)-3-hydroxyisoindoline; 1-oxo-3-(3-sulfamyl-4-chlorophenyl)-3-hydroxyisoindoline; 2-chloro-5-(1-hydroxy-3-oxo-1-isoindolinyl)benzenesulfonamide; 2-chloro-5-(2,3-dihydro-1-hydroxy-3-oxo-1H-isoindol-1-yl)benzenesulfonamide; 3-(4'-chloro-3'-sulfamoylphenyl)-3-hydroxyphthalimidine; 3-hydroxy-3-(4-chloro-3-sulfamylphenyl)phthalimidine; Chlorphthalidolone; Chlortalidone; Chlortalidonum; Chlorthalidone; Clortalidona; Phthalamodine; Phthalamudine

$$$$
