
 OpenBabel10282417113D

126129  0  0  1  0  0  0  0  0999 V2000
   -0.9079   -3.1380   -1.0124 C   0  0  0  0  0  0  0  0  0  0  0  0
   -0.2798   -0.9943   -0.8430 C   0  0  0  0  0  0  0  0  0  0  0  0
    0.7253    1.2101   -0.9061 C   0  0  2  0  0  0  0  0  0  0  0  0
    0.9764    2.2565   -2.4579 C   0  0  0  0  0  0  0  0  0  0  0  0
    1.8865    3.3874   -3.0527 C   0  0  0  0  0  0  0  0  0  0  0  0
    3.3450    3.2591   -2.6812 C   0  0  2  0  0  0  0  0  0  0  0  0
    3.4394    3.2734   -1.1694 C   0  0  1  0  0  0  0  0  0  0  0  0
    2.5411    2.1573   -0.5824 C   0  0  0  0  0  0  0  0  0  0  0  0
    4.7794    3.0527   -0.6814 O   0  0  0  0  0  0  0  0  0  0  0  0
    4.1097    4.3249   -3.2363 O   0  0  0  0  0  0  0  0  0  0  0  0
    5.2288    1.7580   -1.0590 C   0  0  0  0  0  0  0  0  0  0  0  0
   -2.5092   -5.3738   -1.4457 C   0  0  2  0  0  0  0  0  0  0  0  0
    1.0312   -1.4964   -0.3245 C   0  0  0  0  0  0  0  0  0  0  0  0
   -3.9959   -8.1462   -2.2287 C   0  0  1  0  0  0  0  0  0  0  0  0
   -5.3870   -9.7893   -3.6971 C   0  0  2  0  0  0  0  0  0  0  0  0
   -4.8853  -10.8606   -5.2682 C   0  0  0  0  0  0  0  0  0  0  0  0
   -4.6123   -9.9880   -4.2921 C   0  0  0  0  0  0  0  0  0  0  0  0
   -4.8095   -8.3655   -4.2026 C   0  0  1  0  0  0  0  0  0  0  0  0
   -3.2769   -7.7944   -3.7331 C   0  0  0  0  0  0  0  0  0  0  0  0
   -3.3169   -6.7582   -2.2305 C   0  0  0  0  0  0  0  0  0  0  0  0
   -5.0661   -6.9749   -1.4569 C   0  0  0  0  0  0  0  0  0  0  0  0
   -2.2891   -7.3562   -1.3070 C   0  0  0  0  0  0  0  0  0  0  0  0
   -2.4034   -7.8620    0.0644 C   0  0  2  0  0  0  0  0  0  0  0  0
   -2.1597   -9.3025    0.2801 C   0  0  0  0  0  0  0  0  0  0  0  0
   -3.5707   -7.2199    0.8037 C   0  0  0  0  0  0  0  0  0  0  0  0
   -3.4511   -5.7293    0.9511 C   0  0  1  0  0  0  0  0  0  0  0  0
   -2.1716   -5.5657    1.8882 C   0  0  2  0  0  0  0  0  0  0  0  0
   -2.1359   -6.0791    3.1183 C   0  0  2  0  0  0  0  0  0  0  0  0
   -0.8753   -5.5532    3.7884 C   0  0  0  0  0  0  0  0  0  0  0  0
   -0.7694   -4.0382    3.8222 C   0  0  2  0  0  0  0  0  0  0  0  0
   -0.5085   -3.4800    2.4517 C   0  0  2  0  0  0  0  0  0  0  0  0
   -1.7237   -3.7545    2.6043 O   0  0  0  0  0  0  0  0  0  0  0  0
   -3.0792   -6.9588    3.6044 O   0  0  0  0  0  0  0  0  0  0  0  0
   -3.3445   -4.5186    0.3570 O   0  0  0  0  0  0  0  0  0  0  0  0
   -2.3497   -3.9936    1.0313 C   0  0  0  0  0  0  0  0  0  0  0  0
   -2.4549   -8.0103    4.1087 C   0  0  0  0  0  0  0  0  0  0  0  0
    0.3812   -4.2534    1.7285 O   0  0  0  0  0  0  0  0  0  0  0  0
   -0.6739   -1.9559    2.3777 C   0  0  0  0  0  0  0  0  0  0  0  0
    0.7316   -1.1444    2.6497 C   0  0  0  0  0  0  0  0  0  0  0  0
    0.6435    0.1323    3.0369 N   0  0  0  0  0  0  0  0  0  0  0  0
    1.8157    0.8711    3.6566 C   0  0  0  0  0  0  0  0  0  0  0  0
   -0.5571    0.4530    1.9963 C   0  0  1  0  0  0  0  0  0  0  0  0
    0.3735    1.8098    1.4066 C   0  0  0  0  0  0  0  0  0  0  0  0
    1.4799    2.6386    1.9625 C   0  0  0  0  0  0  0  0  0  0  0  0
    2.5175    1.7170    2.6028 C   0  0  0  0  0  0  0  0  0  0  0  0
    1.7090   -1.8408    2.5031 O   0  0  0  0  0  0  0  0  0  0  0  0
   -1.7146   -1.4908    2.9087 O   0  0  0  0  0  0  0  0  0  0  0  0
    0.1619   -2.9791    3.9472 C   0  0  0  0  0  0  0  0  0  0  0  0
   -1.6246   -1.1914    0.6522 C   0  0  0  0  0  0  0  0  0  0  0  0
   -2.0125    0.4900    0.8261 O   0  0  0  0  0  0  0  0  0  0  0  0
   -2.0558   -3.1907   -0.4714 O   0  0  0  0  0  0  0  0  0  0  0  0
   -5.1294  -10.5904   -2.5627 C   0  0  0  0  0  0  0  0  0  0  0  0
   -6.6029  -10.3287   -5.4646 O   0  0  0  0  0  0  0  0  0  0  0  0
   -3.7248  -10.6817   -3.5717 O   0  0  0  0  0  0  0  0  0  0  0  0
   -6.2044   -8.3550   -4.8398 C   0  0  0  0  0  0  0  0  0  0  0  0
   -5.8536   -8.1179   -6.2344 C   0  0  0  0  0  0  0  0  0  0  0  0
   -6.1867   -8.8970   -7.2660 C   0  0  0  0  0  0  0  0  0  0  0  0
   -0.6415    0.6747   -0.5105 H   0  0  0  0  0  0  0  0  0  0  0  0
    0.6976    2.9596   -0.5971 H   0  0  0  0  0  0  0  0  0  0  0  0
   -0.0254    2.5325   -2.7054 H   0  0  0  0  0  0  0  0  0  0  0  0
    1.3077    1.3571   -2.8832 H   0  0  0  0  0  0  0  0  0  0  0  0
    1.5341    4.3597   -2.7101 H   0  0  0  0  0  0  0  0  0  0  0  0
    1.7976    3.3522   -4.1469 H   0  0  0  0  0  0  0  0  0  0  0  0
    3.7304    2.3217   -3.0745 H   0  0  0  0  0  0  0  0  0  0  0  0
    3.1195    4.2552   -0.8559 H   0  0  0  0  0  0  0  0  0  0  0  0
    2.9806    1.3695   -1.1408 H   0  0  0  0  0  0  0  0  0  0  0  0
    2.7064    2.2258    0.4807 H   0  0  0  0  0  0  0  0  0  0  0  0
    3.7729    5.1738   -2.8893 H   0  0  0  0  0  0  0  0  0  0  0  0
    4.5837    1.0004   -0.6326 H   0  0  0  0  0  0  0  0  0  0  0  0
    5.2162    1.6640   -2.1357 H   0  0  0  0  0  0  0  0  0  0  0  0
    6.2242    1.5867   -0.6968 H   0  0  0  0  0  0  0  0  0  0  0  0
   -1.3681   -4.5024   -0.6586 H   0  0  0  0  0  0  0  0  0  0  0  0
    2.1914   -0.0227   -0.1825 H   0  0  0  0  0  0  0  0  0  0  0  0
    2.2908   -0.5512    0.6823 H   0  0  0  0  0  0  0  0  0  0  0  0
    2.6899   -0.9820   -0.5555 H   0  0  0  0  0  0  0  0  0  0  0  0
   -4.9343   -9.5688   -2.5433 H   0  0  0  0  0  0  0  0  0  0  0  0
   -6.4310  -10.9742   -4.7063 H   0  0  0  0  0  0  0  0  0  0  0  0
   -4.8926  -11.2537   -6.3542 H   0  0  0  0  0  0  0  0  0  0  0  0
   -4.1699  -10.1858   -5.4414 H   0  0  0  0  0  0  0  0  0  0  0  0
   -4.8889   -7.5242   -3.7632 H   0  0  0  0  0  0  0  0  0  0  0  0
   -2.6042   -8.6794   -3.6666 H   0  0  0  0  0  0  0  0  0  0  0  0
   -5.0778   -5.9896   -1.5376 H   0  0  0  0  0  0  0  0  0  0  0  0
   -5.8180   -7.5035   -2.0955 H   0  0  0  0  0  0  0  0  0  0  0  0
   -5.1162   -7.4492   -0.5053 H   0  0  0  0  0  0  0  0  0  0  0  0
   -1.8870   -7.4112   -2.3123 H   0  0  0  0  0  0  0  0  0  0  0  0
   -1.7119   -6.6034   -0.8438 H   0  0  0  0  0  0  0  0  0  0  0  0
   -1.4582   -7.5076    0.4680 H   0  0  0  0  0  0  0  0  0  0  0  0
   -1.6201   -9.7440   -0.5480 H   0  0  0  0  0  0  0  0  0  0  0  0
   -1.5661   -9.4436    1.1867 H   0  0  0  0  0  0  0  0  0  0  0  0
   -3.1070   -9.7888    0.4039 H   0  0  0  0  0  0  0  0  0  0  0  0
   -4.3567   -7.9675    1.0032 H   0  0  0  0  0  0  0  0  0  0  0  0
   -4.1052   -7.1144    1.7461 H   0  0  0  0  0  0  0  0  0  0  0  0
   -4.4825   -5.5839    0.6622 H   0  0  0  0  0  0  0  0  0  0  0  0
   -1.3138   -5.8766    1.0918 H   0  0  0  0  0  0  0  0  0  0  0  0
   -3.1805   -6.0405    3.3589 H   0  0  0  0  0  0  0  0  0  0  0  0
   -0.6427   -6.3648    4.4375 H   0  0  0  0  0  0  0  0  0  0  0  0
    0.1677   -5.5237    3.4993 H   0  0  0  0  0  0  0  0  0  0  0  0
   -1.1212   -3.8555    4.8009 H   0  0  0  0  0  0  0  0  0  0  0  0
   -3.0398   -4.0978    2.3064 H   0  0  0  0  0  0  0  0  0  0  0  0
   -1.1912   -4.5131    1.2526 H   0  0  0  0  0  0  0  0  0  0  0  0
   -1.9126   -2.9494    1.1720 H   0  0  0  0  0  0  0  0  0  0  0  0
   -1.9375   -8.4730    3.2938 H   0  0  0  0  0  0  0  0  0  0  0  0
   -1.7739   -7.6679    4.8599 H   0  0  0  0  0  0  0  0  0  0  0  0
   -3.1889   -8.6541    4.5313 H   0  0  0  0  0  0  0  0  0  0  0  0
    0.4068   -3.7931    0.8879 H   0  0  0  0  0  0  0  0  0  0  0  0
    2.0404    1.3079    4.6366 H   0  0  0  0  0  0  0  0  0  0  0  0
    2.0571   -0.0581    4.1655 H   0  0  0  0  0  0  0  0  0  0  0  0
   -0.7502    1.6305    3.0321 H   0  0  0  0  0  0  0  0  0  0  0  0
    0.0372    2.5014    0.6654 H   0  0  0  0  0  0  0  0  0  0  0  0
    0.5799    0.9116    0.9036 H   0  0  0  0  0  0  0  0  0  0  0  0
    1.5356    3.7093    2.1235 H   0  0  0  0  0  0  0  0  0  0  0  0
    1.5384    3.4247    1.1838 H   0  0  0  0  0  0  0  0  0  0  0  0
    3.4678    2.2424    2.6570 H   0  0  0  0  0  0  0  0  0  0  0  0
    2.9293    0.8847    2.0675 H   0  0  0  0  0  0  0  0  0  0  0  0
   -0.0269   -1.9113    3.9580 H   0  0  0  0  0  0  0  0  0  0  0  0
    0.5616   -2.9914    4.8179 H   0  0  0  0  0  0  0  0  0  0  0  0
    0.8453   -3.3042    3.1868 H   0  0  0  0  0  0  0  0  0  0  0  0
   -6.2474  -12.1653   -2.6656 H   0  0  0  0  0  0  0  0  0  0  0  0
   -5.9854  -12.1705   -3.3267 H   0  0  0  0  0  0  0  0  0  0  0  0
   -5.4198  -12.4484   -3.0497 H   0  0  0  0  0  0  0  0  0  0  0  0
   -6.2400  -10.9971   -6.1484 H   0  0  0  0  0  0  0  0  0  0  0  0
   -6.8324   -9.2208   -4.6489 H   0  0  0  0  0  0  0  0  0  0  0  0
   -6.8357   -7.7093   -4.3433 H   0  0  0  0  0  0  0  0  0  0  0  0
   -5.2977   -7.2256   -6.4126 H   0  0  0  0  0  0  0  0  0  0  0  0
   -5.9449   -8.6857   -8.2639 H   0  0  0  0  0  0  0  0  0  0  0  0
   -6.7544   -9.8036   -7.1992 H   0  0  0  0  0  0  0  0  0  0  0  0
  1  2  2  0  0  0  0
  1 13  1  0  0  0  0
  1 12  1  0  0  0  0
  2 58  1  0  0  0  0
  3  2  1  0  0  0  0
  3  4  1  0  0  0  0
  3  8  1  0  0  0  0
  3 59  1  1  0  0  0
  4  5  1  0  0  0  0
  4 60  1  0  0  0  0
  4 61  1  0  0  0  0
  5  6  1  0  0  0  0
  5 62  1  0  0  0  0
  5 63  1  0  0  0  0
  6  7  1  0  0  0  0
  6 10  1  0  0  0  0
  6 64  1  6  0  0  0
  7  8  1  0  0  0  0
  7  9  1  0  0  0  0
  7 65  1  1  0  0  0
  8 66  1  0  0  0  0
  8 67  1  0  0  0  0
  9 11  1  0  0  0  0
 10 68  1  0  0  0  0
 11 69  1  0  0  0  0
 11 70  1  0  0  0  0
 11 71  1  0  0  0  0
 12 14  1  0  0  0  0
 12 51  1  0  0  0  0
 12 72  1  1  0  0  0
 13 73  1  0  0  0  0
 13 74  1  0  0  0  0
 13 75  1  0  0  0  0
 14 15  1  0  0  0  0
 14 76  1  1  0  0  0
 14 52  1  0  0  0  0
 15 16  1  0  0  0  0
 15 77  1  1  0  0  0
 15 53  1  0  0  0  0
 16 17  1  0  0  0  0
 16 78  1  0  0  0  0
 16 79  1  0  0  0  0
 17 18  1  0  0  0  0
 17 54  2  0  0  0  0
 18 19  1  0  0  0  0
 18 55  1  0  0  0  0
 18 80  1  1  0  0  0
 19 20  2  0  0  0  0
 19 81  1  0  0  0  0
 20 22  1  0  0  0  0
 20 21  1  0  0  0  0
 21 82  1  0  0  0  0
 21 83  1  0  0  0  0
 21 84  1  0  0  0  0
 22 23  1  0  0  0  0
 22 85  1  0  0  0  0
 22 86  1  0  0  0  0
 23 25  1  0  0  0  0
 23 24  1  0  0  0  0
 23 87  1  1  0  0  0
 24 88  1  0  0  0  0
 24 89  1  0  0  0  0
 24 90  1  0  0  0  0
 25 26  1  0  0  0  0
 25 91  1  0  0  0  0
 25 92  1  0  0  0  0
 26 27  1  0  0  0  0
 26 93  1  1  0  0  0
 26 34  1  0  0  0  0
 27 28  1  0  0  0  0
 27 32  1  0  0  0  0
 27 94  1  6  0  0  0
 28 29  1  0  0  0  0
 28 33  1  0  0  0  0
 28 95  1  1  0  0  0
 29 30  1  0  0  0  0
 29 96  1  0  0  0  0
 29 97  1  0  0  0  0
 30 31  1  0  0  0  0
 30 98  1  1  0  0  0
 30 48  1  0  0  0  0
 31 32  1  0  0  0  0
 31 38  1  0  0  0  0
 31 37  1  6  0  0  0
 33 36  1  0  0  0  0
 34 35  1  0  0  0  0
 35 99  1  0  0  0  0
 35100  1  0  0  0  0
 35101  1  0  0  0  0
 36102  1  0  0  0  0
 36103  1  0  0  0  0
 36104  1  0  0  0  0
 37105  1  0  0  0  0
 38 39  1  0  0  0  0
 38 47  2  0  0  0  0
 39 40  1  0  0  0  0
 39 46  2  0  0  0  0
 41 40  1  0  0  0  0
 41 45  1  0  0  0  0
 41106  1  0  0  0  0
 41107  1  0  0  0  0
 42 40  1  0  0  0  0
 42 43  1  0  0  0  0
 42 49  1  0  0  0  0
 42108  1  1  0  0  0
 43 44  1  0  0  0  0
 43109  1  0  0  0  0
 43110  1  0  0  0  0
 44 45  1  0  0  0  0
 44111  1  0  0  0  0
 44112  1  0  0  0  0
 45113  1  0  0  0  0
 45114  1  0  0  0  0
 48115  1  0  0  0  0
 48116  1  0  0  0  0
 48117  1  0  0  0  0
 49 51  1  0  0  0  0
 49 50  2  0  0  0  0
 52118  1  0  0  0  0
 52119  1  0  0  0  0
 52120  1  0  0  0  0
 53121  1  0  0  0  0
 55 56  1  0  0  0  0
 55122  1  0  0  0  0
 55123  1  0  0  0  0
 56 57  2  0  0  0  0
 56124  1  0  0  0  0
 57125  1  0  0  0  0
 57126  1  0  0  0  0
M  END
>  <DRUGBANK_ID>
DB00864

>  <SECONDARY_ACCESSION_NUMBERS>
APRD00276; EXPT01437

>  <COMMON_NAME>
Tacrolimus

>  <CAS_NUMBER>
104987-11-3

>  <UNII>
Y5L2157C4J

>  <SYNONYMS>
Anhydrous tacrolimus; Tacrolimus; Tacrolimus anhydrous; Tacrolimus, anhydrous

$$$$
