
 OpenBabel10282417203D

 47 48  0  0  0  0  0  0  0  0999 V2000
    0.7015   -0.3789   -0.4915 C   0  0  0  0  0  0  0  0  0  0  0  0
    0.8906    1.2815    1.0452 N   0  3  0  0  0  0  0  0  0  0  0  0
    1.4951    3.1074    0.4688 C   0  0  0  0  0  0  0  0  0  0  0  0
   -1.1319    1.0591    0.1188 C   0  0  0  0  0  0  0  0  0  0  0  0
    1.1841    1.2725    2.5009 C   0  0  0  0  0  0  0  0  0  0  0  0
    0.6399   -0.0172    3.0466 C   0  0  0  0  0  0  0  0  0  0  0  0
    1.0274   -1.2715    2.5466 O   0  0  0  0  0  0  0  0  0  0  0  0
    0.7092   -1.1712    1.2211 C   0  0  3  0  0  0  0  0  0  0  0  0
   -1.3225   -1.3523    1.0136 C   0  0  0  0  0  0  0  0  0  0  0  0
   -2.5651    0.0066    1.6489 C   0  0  0  0  0  0  0  0  0  0  0  0
   -2.4783   -0.1120    2.9892 C   0  0  0  0  0  0  0  0  0  0  0  0
   -2.3826    1.1081    3.7301 C   0  0  0  0  0  0  0  0  0  0  0  0
   -2.1460    2.4383    3.2826 C   0  0  0  0  0  0  0  0  0  0  0  0
   -2.1333    2.6844    1.9835 C   0  0  0  0  0  0  0  0  0  0  0  0
   -2.8067    1.6365    1.2324 C   0  0  0  0  0  0  0  0  0  0  0  0
    2.0193    0.2480    0.3516 C   0  0  0  0  0  0  0  0  0  0  0  0
    0.5426    1.3623   -0.4374 C   0  0  0  0  0  0  0  0  0  0  0  0
    0.2004    2.3473   -1.3310 C   0  0  0  0  0  0  0  0  0  0  0  0
    1.5525    2.3561   -1.8588 C   0  0  0  0  0  0  0  0  0  0  0  0
    2.7215    1.3843   -1.6474 C   0  0  0  0  0  0  0  0  0  0  0  0
    2.8837    0.2810   -0.7188 C   0  0  0  0  0  0  0  0  0  0  0  0
    0.5037   -0.0879   -1.6066 H   0  0  0  0  0  0  0  0  0  0  0  0
   -0.0156   -1.0968   -0.4429 H   0  0  0  0  0  0  0  0  0  0  0  0
    1.8246   -1.2923   -0.3157 H   0  0  0  0  0  0  0  0  0  0  0  0
    1.0936    3.8263   -0.5744 H   0  0  0  0  0  0  0  0  0  0  0  0
    0.9686    3.7147    1.1566 H   0  0  0  0  0  0  0  0  0  0  0  0
    2.5161    2.7864    0.4011 H   0  0  0  0  0  0  0  0  0  0  0  0
   -1.0347    0.1675    0.6095 H   0  0  0  0  0  0  0  0  0  0  0  0
   -1.1493    2.1082    0.4064 H   0  0  0  0  0  0  0  0  0  0  0  0
   -1.4680    0.8152   -0.8824 H   0  0  0  0  0  0  0  0  0  0  0  0
    2.2693    1.3437    2.4334 H   0  0  0  0  0  0  0  0  0  0  0  0
    0.6852    2.1870    2.8710 H   0  0  0  0  0  0  0  0  0  0  0  0
    0.8417   -0.0532    4.0798 H   0  0  0  0  0  0  0  0  0  0  0  0
   -0.4078    0.0053    2.9146 H   0  0  0  0  0  0  0  0  0  0  0  0
    0.8797   -2.2206    0.6446 H   0  0  0  0  0  0  0  0  0  0  0  0
   -1.5660   -1.3315   -0.1329 H   0  0  0  0  0  0  0  0  0  0  0  0
   -1.6533   -2.3304    1.3662 H   0  0  0  0  0  0  0  0  0  0  0  0
   -2.3368   -1.1025    3.4065 H   0  0  0  0  0  0  0  0  0  0  0  0
   -2.5481    1.0185    4.7787 H   0  0  0  0  0  0  0  0  0  0  0  0
   -2.2259    3.3620    3.8359 H   0  0  0  0  0  0  0  0  0  0  0  0
   -1.3968    3.4688    1.6089 H   0  0  0  0  0  0  0  0  0  0  0  0
   -2.7133    2.1401    0.0982 H   0  0  0  0  0  0  0  0  0  0  0  0
   -0.3104    1.2103    1.1031 H   0  0  0  0  0  0  0  0  0  0  0  0
   -0.4049    3.2267   -0.5833 H   0  0  0  0  0  0  0  0  0  0  0  0
    2.0961    3.3378   -1.8812 H   0  0  0  0  0  0  0  0  0  0  0  0
    3.7060    1.6311   -2.0208 H   0  0  0  0  0  0  0  0  0  0  0  0
    2.7409   -0.5879   -1.4527 H   0  0  0  0  0  0  0  0  0  0  0  0
  1  2  1  0  0  0  0
  1 22  1  0  0  0  0
  1 23  1  0  0  0  0
  1 24  1  0  0  0  0
  2  3  1  0  0  0  0
  2  4  1  0  0  0  0
  2  5  1  0  0  0  0
  3 25  1  0  0  0  0
  3 26  1  0  0  0  0
  3 27  1  0  0  0  0
  4 28  1  0  0  0  0
  4 29  1  0  0  0  0
  4 30  1  0  0  0  0
  5  6  1  0  0  0  0
  5 31  1  0  0  0  0
  5 32  1  0  0  0  0
  6  7  1  0  0  0  0
  6 33  1  0  0  0  0
  6 34  1  0  0  0  0
  7  8  1  0  0  0  0
  8  9  1  0  0  0  0
  8 16  1  0  0  0  0
  8 35  1  0  0  0  0
  9 10  1  0  0  0  0
  9 36  1  0  0  0  0
  9 37  1  0  0  0  0
 10 11  2  0  0  0  0
 10 15  1  0  0  0  0
 11 12  1  0  0  0  0
 11 38  1  0  0  0  0
 12 13  2  0  0  0  0
 12 39  1  0  0  0  0
 13 14  1  0  0  0  0
 13 40  1  0  0  0  0
 14 15  2  0  0  0  0
 14 41  1  0  0  0  0
 15 42  1  0  0  0  0
 16 17  2  0  0  0  0
 16 21  1  0  0  0  0
 17 18  1  0  0  0  0
 17 43  1  0  0  0  0
 18 19  2  0  0  0  0
 18 44  1  0  0  0  0
 19 20  1  0  0  0  0
 19 45  1  0  0  0  0
 20 21  2  0  0  0  0
 20 46  1  0  0  0  0
 21 47  1  0  0  0  0
M  CHG  1   2   1
M  END
>  <DRUGBANK_ID>
DB13630

>  <COMMON_NAME>
Bibenzonium

>  <CAS_NUMBER>
59866-76-1

>  <UNII>
34YTZ517S2

$$$$
