
 OpenBabel10282417173D

 44 45  0  0  0  0  0  0  0  0999 V2000
    1.3215   -0.2302   -0.0018 C   0  0  0  0  0  0  0  0  0  0  0  0
    0.4255   -1.2868    0.0168 C   0  0  0  0  0  0  0  0  0  0  0  0
   -5.1413    3.2493    0.4116 C   0  0  0  0  0  0  0  0  0  0  0  0
   -4.6990    4.2187   -0.5212 C   0  0  0  0  0  0  0  0  0  0  0  0
   -4.6403    1.9342    0.3677 C   0  0  0  0  0  0  0  0  0  0  0  0
    0.8175    1.0594   -0.1110 C   0  0  0  0  0  0  0  0  0  0  0  0
   -0.9641   -1.0452   -0.0671 C   0  0  0  0  0  0  0  0  0  0  0  0
   -0.6413    2.3177    3.3665 C   0  0  0  0  0  0  0  0  0  0  0  0
   -0.0836    3.5098    2.5869 C   0  0  0  0  0  0  0  0  0  0  0  0
   -1.9739    4.8963    2.4474 C   0  0  0  0  0  0  0  0  0  0  0  0
   -2.3384    4.3584    1.0822 C   0  0  0  0  0  0  0  0  0  0  0  0
   -3.3451    2.5224   -1.6060 C   0  0  0  0  0  0  0  0  0  0  0  0
   -3.7412    3.8810   -1.5033 C   0  0  0  0  0  0  0  0  0  0  0  0
   -3.7220    1.5540   -0.6354 C   0  0  0  0  0  0  0  0  0  0  0  0
   -0.5824    1.3162   -0.1932 C   0  0  0  0  0  0  0  0  0  0  0  0
   -1.5145    0.2594   -0.1923 C   0  0  0  0  0  0  0  0  0  0  0  0
   -0.9346    2.7552   -0.1749 C   0  0  0  0  0  0  0  0  0  0  0  0
   -2.8961    4.9805   -2.1709 C   0  0  0  0  0  0  0  0  0  0  0  0
   -1.5557    4.8572   -1.9826 F   0  0  0  0  0  0  0  0  0  0  0  0
   -3.0522    5.0309   -3.5161 F   0  0  0  0  0  0  0  0  0  0  0  0
   -3.1777    6.2341   -1.7002 F   0  0  0  0  0  0  0  0  0  0  0  0
   -2.9222    0.3777   -0.4497 N   0  0  0  0  0  0  0  0  0  0  0  0
   -2.0333    2.0177    3.1898 O   0  0  0  0  0  0  0  0  0  0  0  0
   -0.1392    3.6151   -0.5993 O   0  0  0  0  0  0  0  0  0  0  0  0
   -0.6100    4.8099    2.7933 O   0  0  0  0  0  0  0  0  0  0  0  0
   -1.9818    3.0138    0.6637 O   0  0  0  0  0  0  0  0  0  0  0  0
    2.3957   -0.4012    0.0632 H   0  0  0  0  0  0  0  0  0  0  0  0
    0.8107   -2.3046    0.0682 H   0  0  0  0  0  0  0  0  0  0  0  0
   -5.5988    3.5965    1.3467 H   0  0  0  0  0  0  0  0  0  0  0  0
   -4.8321    5.2764   -0.2566 H   0  0  0  0  0  0  0  0  0  0  0  0
   -4.7926    1.3019    1.2450 H   0  0  0  0  0  0  0  0  0  0  0  0
    1.5263    1.8894   -0.1306 H   0  0  0  0  0  0  0  0  0  0  0  0
   -1.6146   -1.9173   -0.0442 H   0  0  0  0  0  0  0  0  0  0  0  0
   -0.1487    1.4256    2.9691 H   0  0  0  0  0  0  0  0  0  0  0  0
   -0.4379    2.4415    4.4225 H   0  0  0  0  0  0  0  0  0  0  0  0
   -0.3556    3.2463    1.6289 H   0  0  0  0  0  0  0  0  0  0  0  0
    0.9888    3.5389    2.3798 H   0  0  0  0  0  0  0  0  0  0  0  0
   -2.3271    5.9376    2.4665 H   0  0  0  0  0  0  0  0  0  0  0  0
   -2.5696    4.4230    3.2286 H   0  0  0  0  0  0  0  0  0  0  0  0
   -2.1419    5.0841    0.2981 H   0  0  0  0  0  0  0  0  0  0  0  0
   -3.3961    4.3179    1.2788 H   0  0  0  0  0  0  0  0  0  0  0  0
   -2.5169    2.2752   -2.2710 H   0  0  0  0  0  0  0  0  0  0  0  0
   -3.4506   -0.3957   -0.0548 H   0  0  0  0  0  0  0  0  0  0  0  0
   -2.5759    2.6692    3.6551 H   0  0  0  0  0  0  0  0  0  0  0  0
  1 27  1  0  0  0  0
  2  1  2  0  0  0  0
  2 28  1  0  0  0  0
  3 29  1  0  0  0  0
  4  3  2  0  0  0  0
  4 30  1  0  0  0  0
  5  3  1  0  0  0  0
  5 31  1  0  0  0  0
  6  1  1  0  0  0  0
  6 32  1  0  0  0  0
  7  2  1  0  0  0  0
  7 33  1  0  0  0  0
  8 34  1  0  0  0  0
  8 35  1  0  0  0  0
  9  8  1  0  0  0  0
  9 36  1  0  0  0  0
  9 37  1  0  0  0  0
 10 38  1  0  0  0  0
 10 39  1  0  0  0  0
 11 10  1  0  0  0  0
 11 40  1  0  0  0  0
 11 41  1  0  0  0  0
 12 42  1  0  0  0  0
 13  4  1  0  0  0  0
 13 12  2  0  0  0  0
 14  5  2  0  0  0  0
 14 12  1  0  0  0  0
 15  6  2  0  0  0  0
 16  7  2  0  0  0  0
 16 15  1  0  0  0  0
 17 15  1  0  0  0  0
 18 13  1  0  0  0  0
 19 18  1  0  0  0  0
 20 18  1  0  0  0  0
 21 18  1  0  0  0  0
 22 14  1  0  0  0  0
 22 16  1  0  0  0  0
 22 43  1  0  0  0  0
 23  8  1  0  0  0  0
 23 44  1  0  0  0  0
 24 17  2  0  0  0  0
 25  9  1  0  0  0  0
 25 10  1  0  0  0  0
 26 11  1  0  0  0  0
 26 17  1  0  0  0  0
M  END
>  <DRUGBANK_ID>
DB08984

>  <COMMON_NAME>
Etofenamate

>  <CAS_NUMBER>
30544-47-9

>  <UNII>
KZF0XM66JC

>  <SYNONYMS>
Etofenamate; Etofenamato; Etofenamatum

$$$$
