
 OpenBabel10282417213D

 44 47  0  0  1  0  0  0  0  0999 V2000
    1.1555   -0.0271    0.3093 C   0  0  0  0  0  0  0  0  0  0  0  0
    0.8005   -1.3891    0.8762 C   0  0  0  0  0  0  0  0  0  0  0  0
    1.6788   -2.4471    0.5553 C   0  0  0  0  0  0  0  0  0  0  0  0
    1.2157   -3.7393    0.6372 C   0  0  0  0  0  0  0  0  0  0  0  0
   -0.1741   -3.9539    0.8496 C   0  0  0  0  0  0  0  0  0  0  0  0
   -1.1424   -2.9313    1.1774 C   0  0  0  0  0  0  0  0  0  0  0  0
   -0.5578   -1.6463    1.3279 C   0  0  0  0  0  0  0  0  0  0  0  0
   -2.8684   -3.2183    0.8675 C   0  0  2  0  0  0  0  0  0  0  0  0
   -3.5354   -2.2334    1.7886 C   0  0  0  0  0  0  0  0  0  0  0  0
   -5.0288   -2.4254    1.8740 C   0  0  0  0  0  0  0  0  0  0  0  0
   -5.4882   -3.8753    1.7008 C   0  0  0  0  0  0  0  0  0  0  0  0
   -4.3902   -4.9617    1.6230 C   0  0  0  0  0  0  0  0  0  0  0  0
   -2.9658   -4.7175    0.9224 C   0  0  2  0  0  0  0  0  0  0  0  0
   -1.9594   -4.6566   -0.5113 C   0  0  2  0  0  0  0  0  0  0  0  0
   -0.7130   -5.1876    0.2524 C   0  0  0  0  0  0  0  0  0  0  0  0
   -2.0109   -3.2856   -1.5988 N   0  0  0  0  0  0  0  0  0  0  0  0
   -3.2940   -2.5446   -1.5746 C   0  0  0  0  0  0  0  0  0  0  0  0
   -3.8946   -3.2620   -0.5506 C   0  0  0  0  0  0  0  0  0  0  0  0
   -1.1004   -2.1444   -1.4399 C   0  0  0  0  0  0  0  0  0  0  0  0
    0.7975    0.7718    0.9566 H   0  0  0  0  0  0  0  0  0  0  0  0
    0.6981    0.0904   -0.6854 H   0  0  0  0  0  0  0  0  0  0  0  0
    2.2371    0.0884    0.1655 H   0  0  0  0  0  0  0  0  0  0  0  0
    2.6305   -2.2628    0.0459 H   0  0  0  0  0  0  0  0  0  0  0  0
    1.8412   -4.5502    0.2443 H   0  0  0  0  0  0  0  0  0  0  0  0
   -1.1897   -0.7765    1.4806 H   0  0  0  0  0  0  0  0  0  0  0  0
   -3.3550   -1.2379    1.3529 H   0  0  0  0  0  0  0  0  0  0  0  0
   -3.0823   -2.2157    2.7830 H   0  0  0  0  0  0  0  0  0  0  0  0
   -5.4909   -1.8001    1.0929 H   0  0  0  0  0  0  0  0  0  0  0  0
   -5.3876   -2.0024    2.8108 H   0  0  0  0  0  0  0  0  0  0  0  0
   -6.1872   -4.1144    2.5061 H   0  0  0  0  0  0  0  0  0  0  0  0
   -6.1256   -3.9556    0.8055 H   0  0  0  0  0  0  0  0  0  0  0  0
   -4.1719   -5.2768    2.6499 H   0  0  0  0  0  0  0  0  0  0  0  0
   -4.8911   -5.8546    1.1978 H   0  0  0  0  0  0  0  0  0  0  0  0
   -3.3995   -5.4796    0.2489 H   0  0  0  0  0  0  0  0  0  0  0  0
   -2.2211   -5.4806   -1.1920 H   0  0  0  0  0  0  0  0  0  0  0  0
   -0.9597   -5.8444    1.1109 H   0  0  0  0  0  0  0  0  0  0  0  0
   -0.0239   -5.7668   -0.3655 H   0  0  0  0  0  0  0  0  0  0  0  0
   -3.8547   -2.5457   -2.5314 H   0  0  0  0  0  0  0  0  0  0  0  0
   -3.3604   -1.4961   -1.2006 H   0  0  0  0  0  0  0  0  0  0  0  0
   -4.0773   -4.2705   -1.0063 H   0  0  0  0  0  0  0  0  0  0  0  0
   -4.9497   -2.9811   -0.4149 H   0  0  0  0  0  0  0  0  0  0  0  0
   -1.5328   -1.2780   -0.8820 H   0  0  0  0  0  0  0  0  0  0  0  0
   -0.2218   -2.4762   -0.9711 H   0  0  0  0  0  0  0  0  0  0  0  0
   -0.7283   -1.6874   -2.3572 H   0  0  0  0  0  0  0  0  0  0  0  0
  1  2  1  0  0  0  0
  1 20  1  0  0  0  0
  1 21  1  0  0  0  0
  1 22  1  0  0  0  0
  2  3  2  0  0  0  0
  2  7  1  0  0  0  0
  3  4  1  0  0  0  0
  3 23  1  0  0  0  0
  4  5  2  0  0  0  0
  4 24  1  0  0  0  0
  5  6  1  0  0  0  0
  5 15  1  0  0  0  0
  6  7  2  0  0  0  0
  7 25  1  0  0  0  0
  8  6  1  6  0  0  0
  8  9  1  0  0  0  0
  8 13  1  0  0  0  0
  8 18  1  0  0  0  0
  9 10  1  0  0  0  0
  9 26  1  0  0  0  0
  9 27  1  0  0  0  0
 10 11  1  0  0  0  0
 10 28  1  0  0  0  0
 10 29  1  0  0  0  0
 11 12  1  0  0  0  0
 11 30  1  0  0  0  0
 11 31  1  0  0  0  0
 12 32  1  0  0  0  0
 12 33  1  0  0  0  0
 13 12  1  0  0  0  0
 13 14  1  0  0  0  0
 13 34  1  6  0  0  0
 14 15  1  0  0  0  0
 14 16  1  0  0  0  0
 14 35  1  6  0  0  0
 15 36  1  0  0  0  0
 15 37  1  0  0  0  0
 16 17  1  0  0  0  0
 16 19  1  0  0  0  0
 17 18  1  0  0  0  0
 17 38  1  0  0  0  0
 17 39  1  0  0  0  0
 18 40  1  0  0  0  0
 18 41  1  0  0  0  0
 19 42  1  0  0  0  0
 19 43  1  0  0  0  0
 19 44  1  0  0  0  0
M  END
>  <DRUGBANK_ID>
DB13810

>  <COMMON_NAME>
Dimemorfan

>  <CAS_NUMBER>
36309-01-0

>  <UNII>
623OAC38YU

>  <SYNONYMS>
Dimemorfan; Dimemorfano

$$$$
