
 OpenBabel10282417153D

 46 49  0  0  0  0  0  0  0  0999 V2000
   -2.9549   -0.2410    0.0096 N   0  0  0  0  0  0  0  0  0  0  0  0
   -2.5836    1.0448    0.0183 C   0  0  0  0  0  0  0  0  0  0  0  0
   -1.3080    1.4351    0.0142 N   0  0  0  0  0  0  0  0  0  0  0  0
   -2.0153   -1.1866    0.0037 C   0  0  0  0  0  0  0  0  0  0  0  0
   -0.6831   -0.8911    0.0041 C   0  0  0  0  0  0  0  0  0  0  0  0
   -0.3723    0.4573    0.0108 C   0  0  0  0  0  0  0  0  0  0  0  0
    0.9964    0.8113   -0.0031 N   0  0  0  0  0  0  0  0  0  0  0  0
    2.0093   -0.1284   -0.0838 C   0  0  0  0  0  0  0  0  0  0  0  0
    1.6291   -1.5958   -0.0149 C   0  0  0  0  0  0  0  0  0  0  0  0
    0.3308   -1.9233    0.0037 C   0  0  0  0  0  0  0  0  0  0  0  0
    2.5535   -2.6485   -0.0303 O   0  0  0  0  0  0  0  0  0  0  0  0
    3.1817    0.2269   -0.2323 O   0  0  0  0  0  0  0  0  0  0  0  0
    1.3496    2.2182   -0.0004 C   0  0  0  0  0  0  0  0  0  0  0  0
   -3.5590    2.0079    0.0427 N   0  0  0  0  0  0  0  0  0  0  0  0
   -4.9784    1.6813   -0.0012 C   0  0  0  0  0  0  0  0  0  0  0  0
   -5.4121    0.9100    1.2518 C   0  0  0  0  0  0  0  0  0  0  0  0
   -6.8304    0.3894    1.1184 C   0  0  0  0  0  0  0  0  0  0  0  0
   -7.0017   -0.3450   -0.0914 O   0  0  0  0  0  0  0  0  0  0  0  0
   -6.7855    0.4575   -1.2497 C   0  0  0  0  0  0  0  0  0  0  0  0
   -5.3572    0.9638   -1.3020 C   0  0  0  0  0  0  0  0  0  0  0  0
    3.8937   -2.3753    0.0338 C   0  0  0  0  0  0  0  0  0  0  0  0
    4.6896   -2.8001   -1.0310 C   0  0  0  0  0  0  0  0  0  0  0  0
    6.0492   -2.4894   -1.0316 C   0  0  0  0  0  0  0  0  0  0  0  0
    6.5889   -1.7486    0.0193 C   0  0  0  0  0  0  0  0  0  0  0  0
    5.8087   -1.3447    1.0947 C   0  0  0  0  0  0  0  0  0  0  0  0
    4.4675   -1.6988    1.1154 C   0  0  0  0  0  0  0  0  0  0  0  0
    3.7040   -1.3026    2.1460 F   0  0  0  0  0  0  0  0  0  0  0  0
    7.8879   -1.4242   -0.0080 F   0  0  0  0  0  0  0  0  0  0  0  0
   -2.3930   -2.2039    0.0007 H   0  0  0  0  0  0  0  0  0  0  0  0
    0.0154   -2.9619    0.0142 H   0  0  0  0  0  0  0  0  0  0  0  0
    0.9544    2.6976   -0.8997 H   0  0  0  0  0  0  0  0  0  0  0  0
    0.9569    2.6932    0.9027 H   0  0  0  0  0  0  0  0  0  0  0  0
    2.4357    2.3592    0.0020 H   0  0  0  0  0  0  0  0  0  0  0  0
   -3.2379    2.9620   -0.0167 H   0  0  0  0  0  0  0  0  0  0  0  0
   -5.5308    2.6320    0.0083 H   0  0  0  0  0  0  0  0  0  0  0  0
   -4.7683    0.0441    1.4271 H   0  0  0  0  0  0  0  0  0  0  0  0
   -5.3127    1.5415    2.1424 H   0  0  0  0  0  0  0  0  0  0  0  0
   -7.0442   -0.2897    1.9507 H   0  0  0  0  0  0  0  0  0  0  0  0
   -7.5593    1.2049    1.1584 H   0  0  0  0  0  0  0  0  0  0  0  0
   -7.5028    1.2843   -1.2639 H   0  0  0  0  0  0  0  0  0  0  0  0
   -6.9787   -0.1681   -2.1274 H   0  0  0  0  0  0  0  0  0  0  0  0
   -5.2107    1.6266   -2.1626 H   0  0  0  0  0  0  0  0  0  0  0  0
   -4.7165    0.0954   -1.4773 H   0  0  0  0  0  0  0  0  0  0  0  0
    4.2508   -3.3404   -1.8653 H   0  0  0  0  0  0  0  0  0  0  0  0
    6.6884   -2.8007   -1.8517 H   0  0  0  0  0  0  0  0  0  0  0  0
    6.2272   -0.7396    1.8886 H   0  0  0  0  0  0  0  0  0  0  0  0
  1  4  2  0  0  0  0
  1  2  1  0  0  0  0
  2 14  1  0  0  0  0
  2  3  2  0  0  0  0
  3  6  1  0  0  0  0
  4 29  1  0  0  0  0
  5  4  1  0  0  0  0
  5 10  1  0  0  0  0
  5  6  2  0  0  0  0
  6  7  1  0  0  0  0
  7  8  1  0  0  0  0
  7 13  1  0  0  0  0
  8  9  1  0  0  0  0
  8 12  2  0  0  0  0
  9 10  2  0  0  0  0
  9 11  1  0  0  0  0
 10 30  1  0  0  0  0
 11 21  1  0  0  0  0
 13 31  1  0  0  0  0
 13 32  1  0  0  0  0
 13 33  1  0  0  0  0
 14 15  1  0  0  0  0
 14 34  1  0  0  0  0
 15 16  1  0  0  0  0
 15 20  1  0  0  0  0
 15 35  1  0  0  0  0
 16 17  1  0  0  0  0
 16 36  1  0  0  0  0
 16 37  1  0  0  0  0
 17 18  1  0  0  0  0
 17 38  1  0  0  0  0
 17 39  1  0  0  0  0
 18 19  1  0  0  0  0
 19 20  1  0  0  0  0
 19 40  1  0  0  0  0
 19 41  1  0  0  0  0
 20 42  1  0  0  0  0
 20 43  1  0  0  0  0
 21 22  2  0  0  0  0
 22 23  1  0  0  0  0
 22 44  1  0  0  0  0
 23 24  2  0  0  0  0
 23 45  1  0  0  0  0
 24 25  1  0  0  0  0
 24 28  1  0  0  0  0
 25 26  2  0  0  0  0
 25 46  1  0  0  0  0
 26 21  1  0  0  0  0
 26 27  1  0  0  0  0
M  END
>  <DRUGBANK_ID>
DB06518

>  <COMMON_NAME>
R-1487

>  <CAS_NUMBER>
449811-92-1

>  <UNII>
IO0DCY55NQ

$$$$
