
 OpenBabel10282417143D

 24 24  0  0  1  0  0  0  0  0999 V2000
    0.8731   -1.3369    2.0153 N   0  0  0  0  0  0  0  0  0  0  0  0
    0.4651   -1.1820    0.6026 C   0  0  2  0  0  0  0  0  0  0  0  0
    1.1174    0.0721   -0.0191 C   0  0  0  0  0  0  0  0  0  0  0  0
    2.5379   -0.0492   -0.0393 O   0  0  0  0  0  0  0  0  0  0  0  0
   -1.0720   -1.1418    0.5612 C   0  0  0  0  0  0  0  0  0  0  0  0
   -1.6427   -1.0662   -0.8315 C   0  0  0  0  0  0  0  0  0  0  0  0
   -1.9776   -2.2342   -1.5220 C   0  0  0  0  0  0  0  0  0  0  0  0
   -2.5310   -2.1607   -2.8005 C   0  0  0  0  0  0  0  0  0  0  0  0
   -2.7468   -0.9170   -3.3956 C   0  0  0  0  0  0  0  0  0  0  0  0
   -2.4030    0.2499   -2.7218 C   0  0  0  0  0  0  0  0  0  0  0  0
   -1.8406    0.1781   -1.4490 C   0  0  0  0  0  0  0  0  0  0  0  0
    0.6388   -0.4930    2.5379 H   0  0  0  0  0  0  0  0  0  0  0  0
    1.8753   -1.4772    2.0955 H   0  0  0  0  0  0  0  0  0  0  0  0
    0.8234   -2.0660    0.0609 H   0  0  0  0  0  0  0  0  0  0  0  0
    0.8102    0.2186   -1.0573 H   0  0  0  0  0  0  0  0  0  0  0  0
    0.8553    0.9759    0.5427 H   0  0  0  0  0  0  0  0  0  0  0  0
    2.8122   -0.3562    0.8374 H   0  0  0  0  0  0  0  0  0  0  0  0
   -1.4714   -2.0441    1.0473 H   0  0  0  0  0  0  0  0  0  0  0  0
   -1.4578   -0.3013    1.1536 H   0  0  0  0  0  0  0  0  0  0  0  0
   -1.8177   -3.2096   -1.0656 H   0  0  0  0  0  0  0  0  0  0  0  0
   -2.8009   -3.0706   -3.3264 H   0  0  0  0  0  0  0  0  0  0  0  0
   -3.1832   -0.8606   -4.3894 H   0  0  0  0  0  0  0  0  0  0  0  0
   -2.5753    1.2202   -3.1809 H   0  0  0  0  0  0  0  0  0  0  0  0
   -1.5466    1.0965   -0.9485 H   0  0  0  0  0  0  0  0  0  0  0  0
  1 12  1  0  0  0  0
  1 13  1  0  0  0  0
  2  5  1  0  0  0  0
  2 14  1  6  0  0  0
  2  3  1  0  0  0  0
  2  1  1  0  0  0  0
  3  4  1  0  0  0  0
  3 15  1  0  0  0  0
  3 16  1  0  0  0  0
  4 17  1  0  0  0  0
  5  6  1  0  0  0  0
  5 18  1  0  0  0  0
  5 19  1  0  0  0  0
  6  7  2  0  0  0  0
  6 11  1  0  0  0  0
  7  8  1  0  0  0  0
  7 20  1  0  0  0  0
  8  9  2  0  0  0  0
  8 21  1  0  0  0  0
  9 10  1  0  0  0  0
  9 22  1  0  0  0  0
 10 11  2  0  0  0  0
 10 23  1  0  0  0  0
 11 24  1  0  0  0  0
M  END
>  <DRUGBANK_ID>
DB04484

>  <SECONDARY_ACCESSION_NUMBERS>
EXPT02590

>  <COMMON_NAME>
L-phenylalaninol

>  <CAS_NUMBER>
3182-95-4

>  <UNII>
9GE9QOP0ET

$$$$
