
 OpenBabel10282417113D

 62 64  0  0  0  0  0  0  0  0999 V2000
   -1.4764    0.0198   -0.2083 C   0  0  0  0  0  0  0  0  0  0  0  0
   -0.6214    1.1778    0.3638 C   0  0  0  0  0  0  0  0  0  0  0  0
    0.7867    1.1042   -0.0757 C   0  0  0  0  0  0  0  0  0  0  0  0
    1.4758   -0.0909    0.3399 N   0  0  0  0  0  0  0  0  0  0  0  0
    0.7313   -1.2724   -0.1104 C   0  0  0  0  0  0  0  0  0  0  0  0
   -0.7416   -1.2511    0.3335 C   0  0  0  0  0  0  0  0  0  0  0  0
   -2.8853    0.0755    0.4738 C   0  0  0  0  0  0  0  0  0  0  0  0
   -1.6035    0.0107   -1.7664 N   0  0  0  0  0  0  0  0  0  0  0  0
   -1.3114   -1.1321   -2.5502 C   0  0  0  0  0  0  0  0  0  0  0  0
   -2.3557    1.0838   -2.3683 C   0  0  0  0  0  0  0  0  0  0  0  0
   -1.8973    2.4051   -2.3653 C   0  0  0  0  0  0  0  0  0  0  0  0
   -2.6045    3.4309   -2.9939 C   0  0  0  0  0  0  0  0  0  0  0  0
   -3.7453    3.1289   -3.7209 C   0  0  0  0  0  0  0  0  0  0  0  0
   -4.1930    1.8114   -3.7820 C   0  0  0  0  0  0  0  0  0  0  0  0
   -3.5469    0.8097   -3.0513 C   0  0  0  0  0  0  0  0  0  0  0  0
   -1.3483   -1.0461   -4.0667 C   0  0  0  0  0  0  0  0  0  0  0  0
    0.0366   -1.1544   -4.6766 C   0  0  0  0  0  0  0  0  0  0  0  0
   -0.9474   -2.2275   -2.1095 O   0  0  0  0  0  0  0  0  0  0  0  0
   -3.7040    1.2222    0.1914 O   0  0  0  0  0  0  0  0  0  0  0  0
   -3.2136    2.4722    0.6461 C   0  0  0  0  0  0  0  0  0  0  0  0
    2.8096   -0.0477   -0.2994 C   0  0  0  0  0  0  0  0  0  0  0  0
    2.8687    0.0646   -1.8727 C   0  0  0  0  0  0  0  0  0  0  0  0
    2.4322    1.3338   -2.4390 N   0  0  0  0  0  0  0  0  0  0  0  0
    2.8806    2.5510   -1.9855 C   0  0  0  0  0  0  0  0  0  0  0  0
    2.0271    3.4526   -2.5812 N   0  0  0  0  0  0  0  0  0  0  0  0
    1.1301    2.7982   -3.3720 N   0  0  0  0  0  0  0  0  0  0  0  0
    1.3406    1.5422   -3.2593 N   0  0  0  0  0  0  0  0  0  0  0  0
    3.7771    2.7714   -1.2107 O   0  0  0  0  0  0  0  0  0  0  0  0
    2.2096    4.8707   -2.4974 C   0  0  0  0  0  0  0  0  0  0  0  0
    2.6047    5.4784   -3.8256 C   0  0  0  0  0  0  0  0  0  0  0  0
   -0.8544    2.1431   -0.0372 H   0  0  0  0  0  0  0  0  0  0  0  0
   -0.6924    1.2546    1.4530 H   0  0  0  0  0  0  0  0  0  0  0  0
    0.6678    1.1121   -1.1468 H   0  0  0  0  0  0  0  0  0  0  0  0
    1.3121    2.0189    0.2223 H   0  0  0  0  0  0  0  0  0  0  0  0
    1.2163   -2.1893    0.2343 H   0  0  0  0  0  0  0  0  0  0  0  0
    0.7872   -1.2889   -1.1943 H   0  0  0  0  0  0  0  0  0  0  0  0
   -0.7745   -1.2750    1.4299 H   0  0  0  0  0  0  0  0  0  0  0  0
   -1.2622   -2.1661    0.0312 H   0  0  0  0  0  0  0  0  0  0  0  0
   -3.4646   -0.8019    0.1598 H   0  0  0  0  0  0  0  0  0  0  0  0
   -2.7799    0.0016    1.5640 H   0  0  0  0  0  0  0  0  0  0  0  0
   -0.9714    2.6878   -1.8876 H   0  0  0  0  0  0  0  0  0  0  0  0
   -2.2372    4.4522   -2.9352 H   0  0  0  0  0  0  0  0  0  0  0  0
   -4.2800    3.9168   -4.2427 H   0  0  0  0  0  0  0  0  0  0  0  0
   -5.0422    1.5582   -4.4093 H   0  0  0  0  0  0  0  0  0  0  0  0
   -3.9678   -0.1926   -3.0393 H   0  0  0  0  0  0  0  0  0  0  0  0
   -1.9518   -1.9024   -4.3895 H   0  0  0  0  0  0  0  0  0  0  0  0
   -1.8184   -0.1501   -4.4554 H   0  0  0  0  0  0  0  0  0  0  0  0
    0.5684   -2.0538   -4.3532 H   0  0  0  0  0  0  0  0  0  0  0  0
   -0.0378   -1.1588   -5.7671 H   0  0  0  0  0  0  0  0  0  0  0  0
    0.6535   -0.3054   -4.4010 H   0  0  0  0  0  0  0  0  0  0  0  0
   -2.9175    2.4410    1.6969 H   0  0  0  0  0  0  0  0  0  0  0  0
   -2.3860    2.8146    0.0515 H   0  0  0  0  0  0  0  0  0  0  0  0
   -3.9308    3.2653    0.4427 H   0  0  0  0  0  0  0  0  0  0  0  0
    3.3542    0.7892    0.1566 H   0  0  0  0  0  0  0  0  0  0  0  0
    3.3508   -0.9423    0.0260 H   0  0  0  0  0  0  0  0  0  0  0  0
    3.9218   -0.0218   -2.1434 H   0  0  0  0  0  0  0  0  0  0  0  0
    2.3445   -0.7662   -2.3558 H   0  0  0  0  0  0  0  0  0  0  0  0
    1.3151    5.3428   -2.0790 H   0  0  0  0  0  0  0  0  0  0  0  0
    3.0276    5.0472   -1.7903 H   0  0  0  0  0  0  0  0  0  0  0  0
    1.7768    5.4332   -4.5387 H   0  0  0  0  0  0  0  0  0  0  0  0
    2.8903    6.5251   -3.6871 H   0  0  0  0  0  0  0  0  0  0  0  0
    3.4576    4.9449   -4.2591 H   0  0  0  0  0  0  0  0  0  0  0  0
  1  2  1  0  0  0  0
  1  6  1  0  0  0  0
  1  7  1  0  0  0  0
  1  8  1  0  0  0  0
  2  3  1  0  0  0  0
  2 31  1  0  0  0  0
  2 32  1  0  0  0  0
  3  4  1  0  0  0  0
  3 33  1  0  0  0  0
  3 34  1  0  0  0  0
  4  5  1  0  0  0  0
  4 21  1  0  0  0  0
  5  6  1  0  0  0  0
  5 35  1  0  0  0  0
  5 36  1  0  0  0  0
  6 37  1  0  0  0  0
  6 38  1  0  0  0  0
  7 19  1  0  0  0  0
  7 39  1  0  0  0  0
  7 40  1  0  0  0  0
  8  9  1  0  0  0  0
  8 10  1  0  0  0  0
  9 16  1  0  0  0  0
  9 18  2  0  0  0  0
 10 11  2  0  0  0  0
 10 15  1  0  0  0  0
 11 12  1  0  0  0  0
 11 41  1  0  0  0  0
 12 13  2  0  0  0  0
 12 42  1  0  0  0  0
 13 14  1  0  0  0  0
 13 43  1  0  0  0  0
 14 15  2  0  0  0  0
 14 44  1  0  0  0  0
 15 45  1  0  0  0  0
 16 17  1  0  0  0  0
 16 46  1  0  0  0  0
 16 47  1  0  0  0  0
 17 48  1  0  0  0  0
 17 49  1  0  0  0  0
 17 50  1  0  0  0  0
 19 20  1  0  0  0  0
 20 51  1  0  0  0  0
 20 52  1  0  0  0  0
 20 53  1  0  0  0  0
 21 22  1  0  0  0  0
 21 54  1  0  0  0  0
 21 55  1  0  0  0  0
 22 23  1  0  0  0  0
 22 56  1  0  0  0  0
 22 57  1  0  0  0  0
 23 24  1  0  0  0  0
 23 27  1  0  0  0  0
 24 25  1  0  0  0  0
 24 28  2  0  0  0  0
 25 26  1  0  0  0  0
 25 29  1  0  0  0  0
 26 27  2  0  0  0  0
 29 30  1  0  0  0  0
 29 58  1  0  0  0  0
 29 59  1  0  0  0  0
 30 60  1  0  0  0  0
 30 61  1  0  0  0  0
 30 62  1  0  0  0  0
M  END
>  <DRUGBANK_ID>
DB00802

>  <SECONDARY_ACCESSION_NUMBERS>
APRD00726

>  <COMMON_NAME>
Alfentanil

>  <CAS_NUMBER>
71195-58-9

>  <UNII>
1N74HM2BS7

>  <SYNONYMS>
Alfentanil; Alfentanilo; Alfentanilum; Alfentanyl; N-(1-(2-(4-Ethyl-5-oxo-2-tetrazolin-1-yl)ethyl)-4-(methoxymethyl)-4-piperidyl)propionanilide

$$$$
