
 OpenBabel10282417213D

199202  0  0  1  0  0  0  0  0999 V2000
   10.7358    0.3134    7.9726 C   0  0  0  0  0  0  0  0  0  0  0  0
   10.4128    2.4028    8.2982 C   0  0  0  0  0  0  0  0  0  0  0  0
    8.7321    2.7242    7.6170 C   0  0  1  0  0  0  0  0  0  0  0  0
    9.6324    3.9147    5.9197 C   0  0  0  0  0  0  0  0  0  0  0  0
    9.2208    2.2124    4.7246 C   0  0  2  0  0  0  0  0  0  0  0  0
    8.9862    1.1963    4.0104 C   0  0  0  0  0  0  0  0  0  0  0  0
    9.1782   -0.0706    5.1754 C   0  0  1  0  0  0  0  0  0  0  0  0
   11.1941    0.0399    4.4336 O   0  0  0  0  0  0  0  0  0  0  0  0
   11.8576    1.5975    5.8905 C   0  0  2  0  0  0  0  0  0  0  0  0
   11.3218    1.5372    7.3331 O   0  0  0  0  0  0  0  0  0  0  0  0
    9.1695    1.2851    7.7904 C   0  0  2  0  0  0  0  0  0  0  0  0
    7.3888   -0.0073    7.5518 C   0  0  0  0  0  0  0  0  0  0  0  0
    7.2865   -0.1846    8.9184 O   0  0  0  0  0  0  0  0  0  0  0  0
    8.2657    2.5837    6.0724 C   0  0  2  0  0  0  0  0  0  0  0  0
    6.9726    2.7840    6.1547 O   0  0  0  0  0  0  0  0  0  0  0  0
    9.3879    3.5177    4.2028 C   0  0  2  0  0  0  0  0  0  0  0  0
    8.7063    1.9462    2.7355 O   0  0  0  0  0  0  0  0  0  0  0  0
    8.1276   -0.0330    3.7066 C   0  0  1  0  0  0  0  0  0  0  0  0
    9.8650   -0.3529    3.6617 C   0  0  0  0  0  0  0  0  0  0  0  0
   10.7161    1.3685    4.8937 C   0  0  0  0  0  0  0  0  0  0  0  0
   10.1765    2.3257    6.4072 C   0  0  0  0  0  0  0  0  0  0  0  0
   11.1394    3.8754    7.6942 C   0  0  0  0  0  0  0  0  0  0  0  0
   11.2378    4.8165    6.7126 C   0  0  0  0  0  0  0  0  0  0  0  0
   12.1265    4.5583    5.5202 C   0  0  0  0  0  0  0  0  0  0  0  0
   11.9208    3.1589    3.6194 C   0  0  0  0  0  0  0  0  0  0  0  0
    7.2827   -0.0921    5.7676 C   0  0  0  0  0  0  0  0  0  0  0  0
    6.6081   -1.2693    6.1485 O   0  0  0  0  0  0  0  0  0  0  0  0
    7.2768    1.3515    6.9432 O   0  0  0  0  0  0  0  0  0  0  0  0
   11.0706    2.0345    3.7041 C   0  0  1  0  0  0  0  0  0  0  0  0
   12.6655    2.9209    4.9501 N   0  0  0  0  0  0  0  0  0  0  0  0
   13.8670    3.3322    4.6725 C   0  0  0  0  0  0  0  0  0  0  0  0
   14.2161    4.6996    5.2149 C   0  0  0  0  0  0  0  0  0  0  0  0
   14.3600    2.2371    4.5499 O   0  0  0  0  0  0  0  0  0  0  0  0
    8.3754    0.7101    6.5173 C   0  0  2  0  0  0  0  0  0  0  0  0
    6.0946    0.6261    6.8096 O   0  0  0  0  0  0  0  0  0  0  0  0
    5.5339    1.8387    5.3546 C   0  0  2  0  0  0  0  0  0  0  0  0
    5.8537    1.1973    4.0926 O   0  0  0  0  0  0  0  0  0  0  0  0
    7.1076    1.3097    3.9758 C   0  0  1  0  0  0  0  0  0  0  0  0
    8.0754    0.4149    2.0529 C   0  0  0  0  0  0  0  0  0  0  0  0
    7.9215    3.0099    3.7030 C   0  0  1  0  0  0  0  0  0  0  0  0
    8.0498    3.9864    2.5423 O   0  0  0  0  0  0  0  0  0  0  0  0
    7.7152    4.1477    5.0883 C   0  0  1  0  0  0  0  0  0  0  0  0
    8.2186    5.6436    5.5431 O   0  0  0  0  0  0  0  0  0  0  0  0
    5.8384    3.8566    5.4449 C   0  0  2  0  0  0  0  0  0  0  0  0
    6.0758    4.0755    7.1875 O   0  0  0  0  0  0  0  0  0  0  0  0
   10.9775    2.9882    5.0098 C   0  0  0  0  0  0  0  0  0  0  0  0
   10.8656    4.3853    4.1472 O   0  0  0  0  0  0  0  0  0  0  0  0
   12.2559    1.2825    4.4788 N   0  0  0  0  0  0  0  0  0  0  0  0
   11.0404   -0.1116    5.8362 C   0  0  0  0  0  0  0  0  0  0  0  0
   11.3524   -1.7191    4.3830 C   0  0  0  0  0  0  0  0  0  0  0  0
   12.7239   -1.9157    4.5066 N   0  0  0  0  0  0  0  0  0  0  0  0
   12.8620   -3.0833    5.3438 C   0  0  0  0  0  0  0  0  0  0  0  0
   13.8886   -3.2391    5.9710 O   0  0  0  0  0  0  0  0  0  0  0  0
   11.4170   -3.9419    5.7839 C   0  0  0  0  0  0  0  0  0  0  0  0
   10.0068   -3.3862    6.5521 C   0  0  0  0  0  0  0  0  0  0  0  0
    9.8027   -2.0585    6.5005 O   0  0  0  0  0  0  0  0  0  0  0  0
   11.2346   -1.9286    6.7358 C   0  0  0  0  0  0  0  0  0  0  0  0
   12.3342   -1.4151    7.4376 C   0  0  0  0  0  0  0  0  0  0  0  0
   12.8229   -2.3539    8.2202 O   0  0  0  0  0  0  0  0  0  0  0  0
   11.6632   -3.1442    8.6142 C   0  0  0  0  0  0  0  0  0  0  0  0
   10.0249   -2.5544    9.0044 C   0  0  0  0  0  0  0  0  0  0  0  0
    9.4992   -1.2714    9.0238 O   0  0  0  0  0  0  0  0  0  0  0  0
   10.6834   -0.3779    9.5841 C   0  0  0  0  0  0  0  0  0  0  0  0
   12.1251   -0.1222    9.7042 C   0  0  0  0  0  0  0  0  0  0  0  0
   12.4809   -1.1433   10.5116 O   0  0  0  0  0  0  0  0  0  0  0  0
   11.2800   -1.8827   11.0122 C   0  0  0  0  0  0  0  0  0  0  0  0
    9.8511   -1.3853   11.2838 C   0  0  0  0  0  0  0  0  0  0  0  0
    9.3121    0.0664   11.0448 O   0  0  0  0  0  0  0  0  0  0  0  0
   10.3419    1.1752   11.1091 C   0  0  0  0  0  0  0  0  0  0  0  0
   11.6865    1.0196   11.7470 C   0  0  0  0  0  0  0  0  0  0  0  0
   12.1396   -0.0441   12.5966 O   0  0  0  0  0  0  0  0  0  0  0  0
   11.0752   -0.8120   13.2388 C   0  0  0  0  0  0  0  0  0  0  0  0
    9.6747   -0.3706   13.4920 C   0  0  0  0  0  0  0  0  0  0  0  0
    9.1571    1.0022   13.2733 O   0  0  0  0  0  0  0  0  0  0  0  0
   10.1814    2.0743   13.3157 C   0  0  0  0  0  0  0  0  0  0  0  0
   11.4954    2.0096   14.0195 C   0  0  0  0  0  0  0  0  0  0  0  0
   11.9610    0.9257   14.8826 O   0  0  0  0  0  0  0  0  0  0  0  0
   10.8934    0.1461   15.5157 C   0  0  0  0  0  0  0  0  0  0  0  0
    9.5035    0.6047   15.7806 C   0  0  0  0  0  0  0  0  0  0  0  0
    8.9926    1.9872   15.5698 O   0  0  0  0  0  0  0  0  0  0  0  0
   10.0310    3.1130   15.6438 C   0  0  0  0  0  0  0  0  0  0  0  0
   11.4650    3.1476   16.4888 C   0  0  0  0  0  0  0  0  0  0  0  0
   11.8431    1.9288   17.2307 O   0  0  0  0  0  0  0  0  0  0  0  0
   10.7157    1.1214   17.8272 C   0  0  0  0  0  0  0  0  0  0  0  0
    9.3048    1.5248   18.1763 C   0  0  0  0  0  0  0  0  0  0  0  0
    8.6371    2.8915   17.9703 O   0  0  0  0  0  0  0  0  0  0  0  0
    9.6442    3.8727   17.9218 C   0  0  0  0  0  0  0  0  0  0  0  0
   10.7972    4.1343   19.0199 C   0  0  0  0  0  0  0  0  0  0  0  0
   11.4236    2.9871   19.5999 O   0  0  0  0  0  0  0  0  0  0  0  0
   10.4422    2.1901   20.3190 C   0  0  0  0  0  0  0  0  0  0  0  0
    9.8989    0.0157    8.2537 H   0  0  0  0  0  0  0  0  0  0  0  0
   12.0608    0.4049    7.9843 H   0  0  0  0  0  0  0  0  0  0  0  0
   10.1992   -0.4521    7.3590 H   0  0  0  0  0  0  0  0  0  0  0  0
   11.0462    2.4781    9.1112 H   0  0  0  0  0  0  0  0  0  0  0  0
   11.3372    2.8413    6.9028 H   0  0  0  0  0  0  0  0  0  0  0  0
    7.7033    2.6139    8.2979 H   0  0  0  0  0  0  0  0  0  0  0  0
    8.0040    4.4957    6.4417 H   0  0  0  0  0  0  0  0  0  0  0  0
    9.8183    4.8222    5.5250 H   0  0  0  0  0  0  0  0  0  0  0  0
    9.3418    3.1214    2.9882 H   0  0  0  0  0  0  0  0  0  0  0  0
    7.5869    1.4526    2.8364 H   0  0  0  0  0  0  0  0  0  0  0  0
    9.7949    1.0973    3.1550 H   0  0  0  0  0  0  0  0  0  0  0  0
    8.5500   -1.3503    4.9535 H   0  0  0  0  0  0  0  0  0  0  0  0
   12.9495    1.3138    6.3748 H   0  0  0  0  0  0  0  0  0  0  0  0
    8.9232    1.8284    9.0488 H   0  0  0  0  0  0  0  0  0  0  0  0
    6.8653    0.9875    5.9700 H   0  0  0  0  0  0  0  0  0  0  0  0
    8.1165   -1.1475    6.9475 H   0  0  0  0  0  0  0  0  0  0  0  0
    8.2620   -0.1452    8.9711 H   0  0  0  0  0  0  0  0  0  0  0  0
    8.5958    3.9911    7.3458 H   0  0  0  0  0  0  0  0  0  0  0  0
    7.0780    2.4206    5.3247 H   0  0  0  0  0  0  0  0  0  0  0  0
    9.3861    4.6239    3.5802 H   0  0  0  0  0  0  0  0  0  0  0  0
    7.3864   -0.7567    3.5662 H   0  0  0  0  0  0  0  0  0  0  0  0
    9.9424   -1.2689    4.7753 H   0  0  0  0  0  0  0  0  0  0  0  0
   10.6867   -0.1297    2.9196 H   0  0  0  0  0  0  0  0  0  0  0  0
   12.1889    0.3364    5.4129 H   0  0  0  0  0  0  0  0  0  0  0  0
    9.4476    1.8091    6.2924 H   0  0  0  0  0  0  0  0  0  0  0  0
   10.1312    1.3764    6.6632 H   0  0  0  0  0  0  0  0  0  0  0  0
   10.4196    4.1192    8.5767 H   0  0  0  0  0  0  0  0  0  0  0  0
   12.2816    3.1505    7.9086 H   0  0  0  0  0  0  0  0  0  0  0  0
   10.2305    5.1336    6.9408 H   0  0  0  0  0  0  0  0  0  0  0  0
   11.6454    5.4941    7.2737 H   0  0  0  0  0  0  0  0  0  0  0  0
   11.9298    5.5438    5.0186 H   0  0  0  0  0  0  0  0  0  0  0  0
   12.7612    4.0011    6.3368 H   0  0  0  0  0  0  0  0  0  0  0  0
   12.6513    2.4030    3.0264 H   0  0  0  0  0  0  0  0  0  0  0  0
   10.9479    3.3099    2.6415 H   0  0  0  0  0  0  0  0  0  0  0  0
    6.1370   -1.0658    5.3836 H   0  0  0  0  0  0  0  0  0  0  0  0
   11.2896    1.4031    2.7560 H   0  0  0  0  0  0  0  0  0  0  0  0
   11.7880    4.0200    4.4918 H   0  0  0  0  0  0  0  0  0  0  0  0
   14.6056    4.4484    6.1794 H   0  0  0  0  0  0  0  0  0  0  0  0
   14.6806    5.0363    4.3636 H   0  0  0  0  0  0  0  0  0  0  0  0
   13.5142    5.5672    5.4862 H   0  0  0  0  0  0  0  0  0  0  0  0
    8.8553   -0.1504    7.3555 H   0  0  0  0  0  0  0  0  0  0  0  0
    4.5618    1.7266    5.4456 H   0  0  0  0  0  0  0  0  0  0  0  0
    7.7948    1.1733    4.9316 H   0  0  0  0  0  0  0  0  0  0  0  0
    9.5694    0.3435    1.9112 H   0  0  0  0  0  0  0  0  0  0  0  0
    8.1890   -0.6596    2.0017 H   0  0  0  0  0  0  0  0  0  0  0  0
    8.3456    1.1503    1.2306 H   0  0  0  0  0  0  0  0  0  0  0  0
    9.6657    2.3499    3.5355 H   0  0  0  0  0  0  0  0  0  0  0  0
    7.2180    3.9201    2.8912 H   0  0  0  0  0  0  0  0  0  0  0  0
    8.5676    3.6228    6.3787 H   0  0  0  0  0  0  0  0  0  0  0  0
    8.8927    5.6402    4.8909 H   0  0  0  0  0  0  0  0  0  0  0  0
    6.3638    4.2526    4.5343 H   0  0  0  0  0  0  0  0  0  0  0  0
    6.5051    3.1509    7.4420 H   0  0  0  0  0  0  0  0  0  0  0  0
   13.2452    1.2357    4.8502 H   0  0  0  0  0  0  0  0  0  0  0  0
   11.5521   -0.0444    6.6215 H   0  0  0  0  0  0  0  0  0  0  0  0
   10.1908    0.2820    6.0557 H   0  0  0  0  0  0  0  0  0  0  0  0
   10.4574   -2.5310    4.5580 H   0  0  0  0  0  0  0  0  0  0  0  0
   11.1095   -1.5871    3.3370 H   0  0  0  0  0  0  0  0  0  0  0  0
   13.1263   -0.9609    4.8083 H   0  0  0  0  0  0  0  0  0  0  0  0
   10.9011   -4.1440    4.8883 H   0  0  0  0  0  0  0  0  0  0  0  0
   11.7800   -4.7521    6.3780 H   0  0  0  0  0  0  0  0  0  0  0  0
    9.4002   -4.0247    7.1373 H   0  0  0  0  0  0  0  0  0  0  0  0
   10.1944   -2.9599    7.4461 H   0  0  0  0  0  0  0  0  0  0  0  0
   11.7242   -2.0637    5.9584 H   0  0  0  0  0  0  0  0  0  0  0  0
   11.4819   -1.4434    5.9838 H   0  0  0  0  0  0  0  0  0  0  0  0
   12.9753   -0.4780    7.0673 H   0  0  0  0  0  0  0  0  0  0  0  0
   11.2967   -1.3830    7.8290 H   0  0  0  0  0  0  0  0  0  0  0  0
   11.5235   -3.8230    7.8618 H   0  0  0  0  0  0  0  0  0  0  0  0
   11.8191   -4.0860    8.9851 H   0  0  0  0  0  0  0  0  0  0  0  0
    9.2668   -3.1256    9.5051 H   0  0  0  0  0  0  0  0  0  0  0  0
   11.0529   -2.4189    9.3891 H   0  0  0  0  0  0  0  0  0  0  0  0
   11.6880   -0.7092    8.9578 H   0  0  0  0  0  0  0  0  0  0  0  0
   10.1847    0.9749    9.3415 H   0  0  0  0  0  0  0  0  0  0  0  0
   12.6151    0.9117    9.4686 H   0  0  0  0  0  0  0  0  0  0  0  0
   11.1317    0.2446    9.8965 H   0  0  0  0  0  0  0  0  0  0  0  0
   10.2775   -1.8110   10.4923 H   0  0  0  0  0  0  0  0  0  0  0  0
   11.5348   -2.9007   11.1704 H   0  0  0  0  0  0  0  0  0  0  0  0
    9.0983   -2.0330   11.7326 H   0  0  0  0  0  0  0  0  0  0  0  0
   10.8839   -1.3726   11.7488 H   0  0  0  0  0  0  0  0  0  0  0  0
   11.4897    0.9984   10.8510 H   0  0  0  0  0  0  0  0  0  0  0  0
   10.1069    2.0247   10.4709 H   0  0  0  0  0  0  0  0  0  0  0  0
   12.3910    1.9271   11.6851 H   0  0  0  0  0  0  0  0  0  0  0  0
   10.6001    1.3323   11.9465 H   0  0  0  0  0  0  0  0  0  0  0  0
   10.0876   -0.6658   12.6867 H   0  0  0  0  0  0  0  0  0  0  0  0
   11.3448   -1.8899   13.4394 H   0  0  0  0  0  0  0  0  0  0  0  0
    8.9445   -1.0562   13.9782 H   0  0  0  0  0  0  0  0  0  0  0  0
   10.6986   -0.3861   13.9971 H   0  0  0  0  0  0  0  0  0  0  0  0
   11.2375    1.6784   13.1405 H   0  0  0  0  0  0  0  0  0  0  0  0
    9.9420    2.9436   12.6462 H   0  0  0  0  0  0  0  0  0  0  0  0
   12.1964    2.8747   13.9414 H   0  0  0  0  0  0  0  0  0  0  0  0
   10.4274    2.3037   14.2177 H   0  0  0  0  0  0  0  0  0  0  0  0
    9.8923    0.2376   14.9763 H   0  0  0  0  0  0  0  0  0  0  0  0
   11.1671   -0.9316   15.7151 H   0  0  0  0  0  0  0  0  0  0  0  0
    8.7674   -0.0911   16.2650 H   0  0  0  0  0  0  0  0  0  0  0  0
   10.5198    0.5682   16.2967 H   0  0  0  0  0  0  0  0  0  0  0  0
   11.0243    2.6566   15.4864 H   0  0  0  0  0  0  0  0  0  0  0  0
    9.7684    3.9319   14.9166 H   0  0  0  0  0  0  0  0  0  0  0  0
   12.1858    3.8938   16.1959 H   0  0  0  0  0  0  0  0  0  0  0  0
   11.3659    3.9823   17.0949 H   0  0  0  0  0  0  0  0  0  0  0  0
    9.7322    1.2316   17.2677 H   0  0  0  0  0  0  0  0  0  0  0  0
   10.9904    0.0424   18.0047 H   0  0  0  0  0  0  0  0  0  0  0  0
    8.5827    0.8525   18.5907 H   0  0  0  0  0  0  0  0  0  0  0  0
   10.2933    1.5288   18.7091 H   0  0  0  0  0  0  0  0  0  0  0  0
   10.0564    3.0460   17.4749 H   0  0  0  0  0  0  0  0  0  0  0  0
    9.5359    4.7797   17.2400 H   0  0  0  0  0  0  0  0  0  0  0  0
   11.6334    4.7839   18.6512 H   0  0  0  0  0  0  0  0  0  0  0  0
   10.2164    4.6234   19.7568 H   0  0  0  0  0  0  0  0  0  0  0  0
    9.5684    2.6130   20.7578 H   0  0  0  0  0  0  0  0  0  0  0  0
    9.4453    2.2559   19.7564 H   0  0  0  0  0  0  0  0  0  0  0  0
   10.7645    1.0809   20.3463 H   0  0  0  0  0  0  0  0  0  0  0  0
  1  2  1  0  0  0  0
  1 91  1  0  0  0  0
  1 92  1  0  0  0  0
  1 93  1  0  0  0  0
  2 94  1  0  0  0  0
  2 95  1  0  0  0  0
  3  4  1  0  0  0  0
  3 96  1  1  0  0  0
  3  2  1  0  0  0  0
  4 97  1  0  0  0  0
  4 98  1  0  0  0  0
  5  4  1  0  0  0  0
  5  6  1  0  0  0  0
  5 99  1  6  0  0  0
  5 46  1  0  0  0  0
  6100  1  0  0  0  0
  6101  1  0  0  0  0
  7  6  1  0  0  0  0
  7102  1  6  0  0  0
  7  8  1  0  0  0  0
  9 10  1  0  0  0  0
  9103  1  1  0  0  0
  9  8  1  0  0  0  0
 11 10  1  0  0  0  0
 11104  1  1  0  0  0
 11 12  1  0  0  0  0
 12 13  1  0  0  0  0
 12105  1  0  0  0  0
 12106  1  0  0  0  0
 13107  1  0  0  0  0
 14 11  1  0  0  0  0
 14 15  1  0  0  0  0
 14 16  1  0  0  0  0
 14108  1  1  0  0  0
 15109  1  0  0  0  0
 16 17  1  0  0  0  0
 16 29  1  0  0  0  0
 16110  1  6  0  0  0
 18 17  1  0  0  0  0
 18 19  1  0  0  0  0
 18 26  1  0  0  0  0
 18111  1  6  0  0  0
 19 20  1  0  0  0  0
 19112  1  0  0  0  0
 19113  1  0  0  0  0
 20 21  1  0  0  0  0
 20 25  1  0  0  0  0
 20114  1  0  0  0  0
 21 22  1  0  0  0  0
 21115  1  0  0  0  0
 21116  1  0  0  0  0
 22 23  1  0  0  0  0
 22117  1  0  0  0  0
 22118  1  0  0  0  0
 23 24  1  0  0  0  0
 23119  1  0  0  0  0
 23120  1  0  0  0  0
 24 25  1  0  0  0  0
 24121  1  0  0  0  0
 24122  1  0  0  0  0
 25123  1  0  0  0  0
 25124  1  0  0  0  0
 26 27  1  0  0  0  0
 26 28  2  0  0  0  0
 27125  1  0  0  0  0
 29  9  1  0  0  0  0
 29126  1  6  0  0  0
 29 30  1  0  0  0  0
 30 31  1  0  0  0  0
 30127  1  0  0  0  0
 31 32  1  0  0  0  0
 31 33  2  0  0  0  0
 32128  1  0  0  0  0
 32129  1  0  0  0  0
 32130  1  0  0  0  0
 34  7  1  0  0  0  0
 34  3  1  0  0  0  0
 34131  1  1  0  0  0
 34 35  1  0  0  0  0
 36 37  1  0  0  0  0
 36132  1  1  0  0  0
 36 35  1  0  0  0  0
 38 37  1  0  0  0  0
 38 39  1  0  0  0  0
 38133  1  1  0  0  0
 39134  1  0  0  0  0
 39135  1  0  0  0  0
 39136  1  0  0  0  0
 40 38  1  0  0  0  0
 40 41  1  0  0  0  0
 40 42  1  0  0  0  0
 40137  1  1  0  0  0
 41138  1  0  0  0  0
 42 43  1  0  0  0  0
 42 44  1  0  0  0  0
 42139  1  1  0  0  0
 43140  1  0  0  0  0
 44 36  1  0  0  0  0
 44 45  1  0  0  0  0
 44141  1  6  0  0  0
 45142  1  0  0  0  0
 46 47  2  0  0  0  0
 46 48  1  0  0  0  0
 48 49  1  0  0  0  0
 48143  1  0  0  0  0
 49 50  1  0  0  0  0
 49144  1  0  0  0  0
 49145  1  0  0  0  0
 50 51  1  0  0  0  0
 50146  1  0  0  0  0
 50147  1  0  0  0  0
 51 52  1  0  0  0  0
 51148  1  0  0  0  0
 52 53  2  0  0  0  0
 52 54  1  0  0  0  0
 54 55  1  0  0  0  0
 54149  1  0  0  0  0
 54150  1  0  0  0  0
 55 56  1  0  0  0  0
 55151  1  0  0  0  0
 55152  1  0  0  0  0
 56 57  1  0  0  0  0
 57 58  1  0  0  0  0
 57153  1  0  0  0  0
 57154  1  0  0  0  0
 58 59  1  0  0  0  0
 58155  1  0  0  0  0
 58156  1  0  0  0  0
 59 60  1  0  0  0  0
 60 61  1  0  0  0  0
 60157  1  0  0  0  0
 60158  1  0  0  0  0
 61 62  1  0  0  0  0
 61159  1  0  0  0  0
 61160  1  0  0  0  0
 62 63  1  0  0  0  0
 63 64  1  0  0  0  0
 63161  1  0  0  0  0
 63162  1  0  0  0  0
 64 65  1  0  0  0  0
 64163  1  0  0  0  0
 64164  1  0  0  0  0
 65 66  1  0  0  0  0
 66 67  1  0  0  0  0
 66165  1  0  0  0  0
 66166  1  0  0  0  0
 67 68  1  0  0  0  0
 67167  1  0  0  0  0
 67168  1  0  0  0  0
 68 69  1  0  0  0  0
 69 70  1  0  0  0  0
 69169  1  0  0  0  0
 69170  1  0  0  0  0
 70 71  1  0  0  0  0
 70171  1  0  0  0  0
 70172  1  0  0  0  0
 71 72  1  0  0  0  0
 72 73  1  0  0  0  0
 72173  1  0  0  0  0
 72174  1  0  0  0  0
 73 74  1  0  0  0  0
 73175  1  0  0  0  0
 73176  1  0  0  0  0
 74 75  1  0  0  0  0
 75 76  1  0  0  0  0
 75177  1  0  0  0  0
 75178  1  0  0  0  0
 76 77  1  0  0  0  0
 76179  1  0  0  0  0
 76180  1  0  0  0  0
 77 78  1  0  0  0  0
 78 79  1  0  0  0  0
 78181  1  0  0  0  0
 78182  1  0  0  0  0
 79 80  1  0  0  0  0
 79183  1  0  0  0  0
 79184  1  0  0  0  0
 80 81  1  0  0  0  0
 81 82  1  0  0  0  0
 81185  1  0  0  0  0
 81186  1  0  0  0  0
 82 83  1  0  0  0  0
 82187  1  0  0  0  0
 82188  1  0  0  0  0
 83 84  1  0  0  0  0
 84 85  1  0  0  0  0
 84189  1  0  0  0  0
 84190  1  0  0  0  0
 85 86  1  0  0  0  0
 85191  1  0  0  0  0
 85192  1  0  0  0  0
 86 87  1  0  0  0  0
 87 88  1  0  0  0  0
 87193  1  0  0  0  0
 87194  1  0  0  0  0
 88 89  1  0  0  0  0
 88195  1  0  0  0  0
 88196  1  0  0  0  0
 89 90  1  0  0  0  0
 90197  1  0  0  0  0
 90198  1  0  0  0  0
 90199  1  0  0  0  0
M  END
>  <DRUGBANK_ID>
DB14829

>  <COMMON_NAME>
Uproleselan

>  <CAS_NUMBER>
1983970-12-2

>  <UNII>
PE952ANF83

$$$$
