
 OpenBabel10282417133D

 54 57  0  0  0  0  0  0  0  0999 V2000
    2.7383    0.7153    0.0475 N   0  0  0  0  0  0  0  0  0  0  0  0
    3.2061   -0.5941    0.1279 C   0  0  0  0  0  0  0  0  0  0  0  0
    2.0478   -1.3553    0.1895 C   0  0  0  0  0  0  0  0  0  0  0  0
    0.9131   -0.5577    0.0977 C   0  0  0  0  0  0  0  0  0  0  0  0
   -0.4419   -0.9029    0.0524 C   0  0  0  0  0  0  0  0  0  0  0  0
   -1.3613    0.1266    0.0159 C   0  0  0  0  0  0  0  0  0  0  0  0
   -0.9327    1.4540    0.0144 C   0  0  0  0  0  0  0  0  0  0  0  0
    0.4349    1.7989    0.0168 C   0  0  0  0  0  0  0  0  0  0  0  0
    1.3532    0.7506    0.0533 C   0  0  0  0  0  0  0  0  0  0  0  0
    4.6421   -0.9297    0.0159 C   0  0  0  0  0  0  0  0  0  0  0  0
    5.5006   -0.0622   -0.0733 O   0  0  0  0  0  0  0  0  0  0  0  0
    5.0641   -2.2526   -0.0509 N   0  0  0  0  0  0  0  0  0  0  0  0
    4.2762   -3.4871   -0.0185 C   0  0  2  0  0  0  0  0  0  0  0  0
    4.4751   -4.3334    1.2402 C   0  0  0  0  0  0  0  0  0  0  0  0
    4.0265   -5.4789    1.3114 O   0  0  0  0  0  0  0  0  0  0  0  0
    5.1496   -3.7431    2.2973 N   0  0  0  0  0  0  0  0  0  0  0  0
    4.8717   -2.4166    2.8618 C   0  0  0  0  0  0  0  0  0  0  0  0
    4.3222   -2.5197    4.2829 C   0  0  0  0  0  0  0  0  0  0  0  0
    5.2047   -3.4089    5.1546 C   0  0  3  0  0  0  0  0  0  0  0  0
    5.4832   -4.7593    4.4935 C   0  0  0  0  0  0  0  0  0  0  0  0
    6.0136   -4.5896    3.0833 C   0  0  0  0  0  0  0  0  0  0  0  0
    6.4291   -2.7389    5.4543 O   0  0  0  0  0  0  0  0  0  0  0  0
    4.2518   -4.2981   -1.3406 C   0  0  0  0  0  0  0  0  0  0  0  0
    4.2223   -3.4919   -2.6317 C   0  0  0  0  0  0  0  0  0  0  0  0
    4.6033   -4.0455   -3.8481 C   0  0  0  0  0  0  0  0  0  0  0  0
    4.6224   -3.2486   -5.0057 C   0  0  0  0  0  0  0  0  0  0  0  0
    4.2826   -1.8973   -4.9533 C   0  0  0  0  0  0  0  0  0  0  0  0
    3.8688   -1.3357   -3.7756 C   0  0  0  0  0  0  0  0  0  0  0  0
    3.7824   -2.1667   -2.6728 C   0  0  0  0  0  0  0  0  0  0  0  0
    4.3173   -1.1411   -6.0557 F   0  0  0  0  0  0  0  0  0  0  0  0
   -3.0354   -0.2639   -0.0146 Cl  0  0  0  0  0  0  0  0  0  0  0  0
    3.3434    1.5198   -0.0596 H   0  0  0  0  0  0  0  0  0  0  0  0
    1.8612   -2.4103    0.1986 H   0  0  0  0  0  0  0  0  0  0  0  0
   -0.7422   -1.9480    0.0611 H   0  0  0  0  0  0  0  0  0  0  0  0
   -1.6765    2.2442    0.0099 H   0  0  0  0  0  0  0  0  0  0  0  0
    0.7517    2.8343    0.0057 H   0  0  0  0  0  0  0  0  0  0  0  0
    6.0640   -2.3635   -0.1707 H   0  0  0  0  0  0  0  0  0  0  0  0
    3.2594   -3.2428    0.1115 H   0  0  0  0  0  0  0  0  0  0  0  0
    4.1335   -1.8731    2.2793 H   0  0  0  0  0  0  0  0  0  0  0  0
    5.8123   -1.8542    2.8530 H   0  0  0  0  0  0  0  0  0  0  0  0
    3.3075   -2.9364    4.2443 H   0  0  0  0  0  0  0  0  0  0  0  0
    4.2487   -1.5135    4.7144 H   0  0  0  0  0  0  0  0  0  0  0  0
    4.7048   -3.5780    6.1133 H   0  0  0  0  0  0  0  0  0  0  0  0
    6.2214   -5.3206    5.0735 H   0  0  0  0  0  0  0  0  0  0  0  0
    4.5543   -5.3411    4.4577 H   0  0  0  0  0  0  0  0  0  0  0  0
    6.1420   -5.5591    2.5907 H   0  0  0  0  0  0  0  0  0  0  0  0
    6.9947   -4.1023    3.0823 H   0  0  0  0  0  0  0  0  0  0  0  0
    6.9147   -2.5658    4.6309 H   0  0  0  0  0  0  0  0  0  0  0  0
    5.1085   -4.9815   -1.3496 H   0  0  0  0  0  0  0  0  0  0  0  0
    3.3514   -4.9325   -1.3347 H   0  0  0  0  0  0  0  0  0  0  0  0
    4.8775   -5.0949   -3.9091 H   0  0  0  0  0  0  0  0  0  0  0  0
    4.9086   -3.6744   -5.9588 H   0  0  0  0  0  0  0  0  0  0  0  0
    3.5933   -0.2890   -3.6938 H   0  0  0  0  0  0  0  0  0  0  0  0
    3.3419   -1.7215   -1.8166 H   0  0  0  0  0  0  0  0  0  0  0  0
  1  2  1  0  0  0  0
  1  9  1  0  0  0  0
  1 32  1  0  0  0  0
  2  3  2  0  0  0  0
  2 10  1  0  0  0  0
  3  4  1  0  0  0  0
  3 33  1  0  0  0  0
  4  5  1  0  0  0  0
  4  9  2  0  0  0  0
  5  6  2  0  0  0  0
  5 34  1  0  0  0  0
  6  7  1  0  0  0  0
  6 31  1  0  0  0  0
  7  8  2  0  0  0  0
  7 35  1  0  0  0  0
  8  9  1  0  0  0  0
  8 36  1  0  0  0  0
 10 11  2  0  0  0  0
 10 12  1  0  0  0  0
 12 37  1  0  0  0  0
 13 12  1  0  0  0  0
 13 38  1  1  0  0  0
 13 23  1  0  0  0  0
 13 14  1  0  0  0  0
 14 15  2  0  0  0  0
 14 16  1  0  0  0  0
 16 17  1  0  0  0  0
 16 21  1  0  0  0  0
 17 18  1  0  0  0  0
 17 39  1  0  0  0  0
 17 40  1  0  0  0  0
 18 19  1  0  0  0  0
 18 41  1  0  0  0  0
 18 42  1  0  0  0  0
 19 20  1  0  0  0  0
 19 22  1  0  0  0  0
 19 43  1  0  0  0  0
 20 21  1  0  0  0  0
 20 44  1  0  0  0  0
 20 45  1  0  0  0  0
 21 46  1  0  0  0  0
 21 47  1  0  0  0  0
 22 48  1  0  0  0  0
 23 24  1  0  0  0  0
 23 49  1  0  0  0  0
 23 50  1  0  0  0  0
 24 25  1  0  0  0  0
 24 29  2  0  0  0  0
 25 26  2  0  0  0  0
 25 51  1  0  0  0  0
 26 27  1  0  0  0  0
 26 52  1  0  0  0  0
 27 28  2  0  0  0  0
 27 30  1  0  0  0  0
 28 29  1  0  0  0  0
 28 53  1  0  0  0  0
 29 54  1  0  0  0  0
M  END
>  <DRUGBANK_ID>
DB03383

>  <SECONDARY_ACCESSION_NUMBERS>
EXPT00907

>  <COMMON_NAME>
CP-320626

>  <CAS_NUMBER>
186430-23-9

>  <UNII>
FKX709RK3Q

$$$$
