6OB
 OpenBabel10282417163D

 52 51  0  0  0  0  0  0  0  0999 V2000
    3.1806    0.6344   -3.0118 C   0  0  1  0  0  0  0  0  0  0  0  0
   -1.4796   -3.8173   -6.6980 C   0  0  0  0  0  0  0  0  0  0  0  0
   -1.9958   -2.9739   -5.5426 C   0  0  0  0  0  0  0  0  0  0  0  0
   -1.4587   -3.4885   -4.2042 C   0  0  0  0  0  0  0  0  0  0  0  0
    0.0683   -3.4426   -4.1463 C   0  0  0  0  0  0  0  0  0  0  0  0
    0.5929   -2.0373   -4.4068 C   0  0  0  0  0  0  0  0  0  0  0  0
    0.1829   -1.1300   -3.2836 C   0  0  0  0  0  0  0  0  0  0  0  0
    1.0415   -0.5595   -2.4322 C   0  0  0  0  0  0  0  0  0  0  0  0
    2.5433   -0.6740   -2.5576 C   0  0  0  0  0  0  0  0  0  0  0  0
    2.6414    1.0492   -4.3690 C   0  0  0  0  0  0  0  0  0  0  0  0
    3.3757    1.4540   -5.4198 C   0  0  0  0  0  0  0  0  0  0  0  0
    2.8058    2.0416   -6.6835 C   0  0  0  0  0  0  0  0  0  0  0  0
    3.3154    3.4644   -6.9636 C   0  0  0  0  0  0  0  0  0  0  0  0
    3.8861    3.7089   -8.0322 O   0  0  0  0  0  0  0  0  0  0  0  0
    3.1307    4.5850   -5.9432 C   0  0  0  0  0  0  0  0  0  0  0  0
    1.6732    4.9876   -5.6955 C   0  0  0  0  0  0  0  0  0  0  0  0
    0.8494    3.9619   -4.9242 C   0  0  0  0  0  0  0  0  0  0  0  0
    1.4913    3.5736   -3.6088 C   0  0  0  0  0  0  0  0  0  0  0  0
    1.4702    4.6015   -2.5472 C   0  0  0  0  0  0  0  0  0  0  0  0
    0.9096    4.4796   -1.4625 O   0  0  0  0  0  0  0  0  0  0  0  0
    2.1828    5.6896   -2.8677 O   0  0  0  0  0  0  0  0  0  0  0  0
    2.9759    1.6491   -2.0278 O   0  0  0  0  0  0  0  0  0  0  0  0
    4.2631    0.5066   -3.0796 H   0  0  0  0  0  0  0  0  0  0  0  0
   -1.7900   -4.8578   -6.5668 H   0  0  0  0  0  0  0  0  0  0  0  0
   -1.8642   -3.4450   -7.6489 H   0  0  0  0  0  0  0  0  0  0  0  0
   -0.3869   -3.7975   -6.7684 H   0  0  0  0  0  0  0  0  0  0  0  0
   -3.0888   -2.9856   -5.5243 H   0  0  0  0  0  0  0  0  0  0  0  0
   -1.7208   -1.9250   -5.7041 H   0  0  0  0  0  0  0  0  0  0  0  0
   -1.7952   -4.5156   -4.0312 H   0  0  0  0  0  0  0  0  0  0  0  0
   -1.8839   -2.8917   -3.3886 H   0  0  0  0  0  0  0  0  0  0  0  0
    0.5054   -4.1254   -4.8829 H   0  0  0  0  0  0  0  0  0  0  0  0
    0.4204   -3.8063   -3.1723 H   0  0  0  0  0  0  0  0  0  0  0  0
    0.2554   -1.6122   -5.3556 H   0  0  0  0  0  0  0  0  0  0  0  0
    1.6692   -2.1221   -4.5424 H   0  0  0  0  0  0  0  0  0  0  0  0
   -0.8825   -0.9409   -3.1471 H   0  0  0  0  0  0  0  0  0  0  0  0
    0.6352    0.0667   -1.6393 H   0  0  0  0  0  0  0  0  0  0  0  0
    2.8502   -1.4194   -3.2912 H   0  0  0  0  0  0  0  0  0  0  0  0
    2.9459   -1.0129   -1.6017 H   0  0  0  0  0  0  0  0  0  0  0  0
    1.5555    1.0769   -4.4631 H   0  0  0  0  0  0  0  0  0  0  0  0
    4.4580    1.4180   -5.3462 H   0  0  0  0  0  0  0  0  0  0  0  0
    3.1000    1.4077   -7.5255 H   0  0  0  0  0  0  0  0  0  0  0  0
    1.7152    2.0256   -6.7218 H   0  0  0  0  0  0  0  0  0  0  0  0
    3.6859    4.3432   -5.0317 H   0  0  0  0  0  0  0  0  0  0  0  0
    3.6497    5.4714   -6.3355 H   0  0  0  0  0  0  0  0  0  0  0  0
    1.6540    5.9265   -5.1315 H   0  0  0  0  0  0  0  0  0  0  0  0
    1.1802    5.2119   -6.6461 H   0  0  0  0  0  0  0  0  0  0  0  0
   -0.1694    4.3156   -4.7507 H   0  0  0  0  0  0  0  0  0  0  0  0
    0.7071    3.0746   -5.5389 H   0  0  0  0  0  0  0  0  0  0  0  0
    0.9573    2.7023   -3.2194 H   0  0  0  0  0  0  0  0  0  0  0  0
    2.5457    3.3232   -3.7241 H   0  0  0  0  0  0  0  0  0  0  0  0
    2.0435    6.3227   -2.1388 H   0  0  0  0  0  0  0  0  0  0  0  0
    2.0438    1.6487   -1.7491 H   0  0  0  0  0  0  0  0  0  0  0  0
  1  9  1  0  0  0  0
  1 10  1  0  0  0  0
  1 23  1  6  0  0  0
  1 22  1  0  0  0  0
  2  3  1  0  0  0  0
  2 24  1  0  0  0  0
  2 25  1  0  0  0  0
  2 26  1  0  0  0  0
  3  4  1  0  0  0  0
  3 27  1  0  0  0  0
  3 28  1  0  0  0  0
  4  5  1  0  0  0  0
  4 29  1  0  0  0  0
  4 30  1  0  0  0  0
  5  6  1  0  0  0  0
  5 31  1  0  0  0  0
  5 32  1  0  0  0  0
  6  7  1  0  0  0  0
  6 33  1  0  0  0  0
  6 34  1  0  0  0  0
  7  8  2  0  0  0  0
  7 35  1  0  0  0  0
  8  9  1  0  0  0  0
  8 36  1  0  0  0  0
  9 37  1  0  0  0  0
  9 38  1  0  0  0  0
 10 11  2  0  0  0  0
 10 39  1  0  0  0  0
 11 12  1  0  0  0  0
 11 40  1  0  0  0  0
 12 13  1  0  0  0  0
 12 41  1  0  0  0  0
 12 42  1  0  0  0  0
 13 14  2  0  0  0  0
 13 15  1  0  0  0  0
 15 16  1  0  0  0  0
 15 43  1  0  0  0  0
 15 44  1  0  0  0  0
 16 17  1  0  0  0  0
 16 45  1  0  0  0  0
 16 46  1  0  0  0  0
 17 18  1  0  0  0  0
 17 47  1  0  0  0  0
 17 48  1  0  0  0  0
 18 19  1  0  0  0  0
 18 49  1  0  0  0  0
 18 50  1  0  0  0  0
 19 20  2  0  0  0  0
 19 21  1  0  0  0  0
 21 51  1  0  0  0  0
 22 52  1  0  0  0  0
M  END
>  <DRUGBANK_ID>
DB07208

>  <COMMON_NAME>
(8E,10S,12Z)-10-hydroxy-6-oxooctadeca-8,12-dienoic acid

$$$$
