722
 OpenBabel10282417103D

 60 61  0  0  1  0  0  0  0  0999 V2000
    1.0937    0.2191    0.1089 O   0  0  0  0  0  0  0  0  0  0  0  0
    0.8574    2.3647    1.7511 O   0  0  0  0  0  0  0  0  0  0  0  0
    0.3663    3.5140   -0.1316 O   0  0  0  0  0  0  0  0  0  0  0  0
    2.4702   -4.4091    3.8380 O   0  0  0  0  0  0  0  0  0  0  0  0
    2.4085   -2.2537    4.4730 O   0  0  0  0  0  0  0  0  0  0  0  0
    3.1061    1.2792   -0.1987 N   0  0  0  0  0  0  0  0  0  0  0  0
    2.6726   -1.5563    1.7624 N   0  0  0  0  0  0  0  0  0  0  0  0
    5.0677   -4.1468   -2.5245 N   0  0  0  0  0  0  0  0  0  0  0  0
    2.6283    2.6199    0.1149 C   0  0  1  0  0  0  0  0  0  0  0  0
    3.0238    3.4528   -1.1064 C   0  0  0  0  0  0  0  0  0  0  0  0
    4.1913    1.3619   -1.1836 C   0  0  0  0  0  0  0  0  0  0  0  0
    4.3272    2.8307   -1.5743 C   0  0  0  0  0  0  0  0  0  0  0  0
    3.0533   -1.1438    0.4009 C   0  0  2  0  0  0  0  0  0  0  0  0
    2.3189    0.1581    0.0404 C   0  0  0  0  0  0  0  0  0  0  0  0
    2.6553   -2.2646   -0.5604 C   0  0  0  0  0  0  0  0  0  0  0  0
    3.3859   -2.7485    2.2667 C   0  0  1  0  0  0  0  0  0  0  0  0
    3.0826   -1.9500   -1.9808 C   0  0  0  0  0  0  0  0  0  0  0  0
    1.1673    2.8514    0.5238 C   0  0  0  0  0  0  0  0  0  0  0  0
    4.9214   -2.5133    2.2286 C   0  0  0  0  0  0  0  0  0  0  0  0
    4.6077   -1.7939   -2.0908 C   0  0  0  0  0  0  0  0  0  0  0  0
    5.4131   -1.3780    3.1351 C   0  0  0  0  0  0  0  0  0  0  0  0
    2.7280   -3.0960    3.6347 C   0  0  0  0  0  0  0  0  0  0  0  0
    5.4041   -3.0238   -1.6755 C   0  0  0  0  0  0  0  0  0  0  0  0
    5.2571   -1.7186    4.5894 C   0  0  0  0  0  0  0  0  0  0  0  0
    5.3125   -3.0578    5.0188 C   0  0  0  0  0  0  0  0  0  0  0  0
    4.9665   -0.7230    5.5254 C   0  0  0  0  0  0  0  0  0  0  0  0
    5.0174   -3.4074    6.3250 C   0  0  0  0  0  0  0  0  0  0  0  0
    4.7958   -1.0679    6.8662 C   0  0  0  0  0  0  0  0  0  0  0  0
    4.7885   -2.4085    7.2567 C   0  0  0  0  0  0  0  0  0  0  0  0
    1.4910    1.7007    2.0860 H   0  0  0  0  0  0  0  0  0  0  0  0
    2.4749   -4.9645    3.0384 H   0  0  0  0  0  0  0  0  0  0  0  0
    2.8034   -0.8015    2.4395 H   0  0  0  0  0  0  0  0  0  0  0  0
    5.5459   -4.9809   -2.1944 H   0  0  0  0  0  0  0  0  0  0  0  0
    4.0702   -4.3467   -2.4546 H   0  0  0  0  0  0  0  0  0  0  0  0
    3.2549    2.9454    0.9579 H   0  0  0  0  0  0  0  0  0  0  0  0
    2.2710    3.3666   -1.8986 H   0  0  0  0  0  0  0  0  0  0  0  0
    3.1402    4.5138   -0.8653 H   0  0  0  0  0  0  0  0  0  0  0  0
    3.9557    0.7762   -2.0749 H   0  0  0  0  0  0  0  0  0  0  0  0
    5.1224    1.0111   -0.7288 H   0  0  0  0  0  0  0  0  0  0  0  0
    4.4809    2.9625   -2.6528 H   0  0  0  0  0  0  0  0  0  0  0  0
    5.1858    3.2857   -1.0685 H   0  0  0  0  0  0  0  0  0  0  0  0
    4.1155   -0.9091    0.3908 H   0  0  0  0  0  0  0  0  0  0  0  0
    3.1166   -3.2174   -0.2851 H   0  0  0  0  0  0  0  0  0  0  0  0
    1.5750   -2.4502   -0.5117 H   0  0  0  0  0  0  0  0  0  0  0  0
    3.1651   -3.6136    1.6347 H   0  0  0  0  0  0  0  0  0  0  0  0
    2.7279   -2.7474   -2.6396 H   0  0  0  0  0  0  0  0  0  0  0  0
    2.5745   -1.0408   -2.3172 H   0  0  0  0  0  0  0  0  0  0  0  0
    5.4651   -3.4459    2.4081 H   0  0  0  0  0  0  0  0  0  0  0  0
    5.2524   -2.2650    1.2159 H   0  0  0  0  0  0  0  0  0  0  0  0
    4.8609   -1.4829   -3.1083 H   0  0  0  0  0  0  0  0  0  0  0  0
    4.9643   -0.9928   -1.4462 H   0  0  0  0  0  0  0  0  0  0  0  0
    6.4727   -1.1753    2.9392 H   0  0  0  0  0  0  0  0  0  0  0  0
    4.8826   -0.4479    2.8861 H   0  0  0  0  0  0  0  0  0  0  0  0
    6.4734   -2.7972   -1.7302 H   0  0  0  0  0  0  0  0  0  0  0  0
    5.2054   -3.2903   -0.6345 H   0  0  0  0  0  0  0  0  0  0  0  0
    5.4442   -3.8792    4.3233 H   0  0  0  0  0  0  0  0  0  0  0  0
    4.8075    0.3088    5.2188 H   0  0  0  0  0  0  0  0  0  0  0  0
    4.9301   -4.4574    6.5857 H   0  0  0  0  0  0  0  0  0  0  0  0
    4.6259   -0.2933    7.6067 H   0  0  0  0  0  0  0  0  0  0  0  0
    4.5664   -2.6806    8.2822 H   0  0  0  0  0  0  0  0  0  0  0  0
  1 14  2  0  0  0  0
  2 18  1  0  0  0  0
  2 30  1  0  0  0  0
  3 18  2  0  0  0  0
  4 22  1  0  0  0  0
  4 31  1  0  0  0  0
  5 22  2  0  0  0  0
  6  9  1  0  0  0  0
  6 11  1  0  0  0  0
  6 14  1  0  0  0  0
  7 32  1  0  0  0  0
  8 23  1  0  0  0  0
  8 33  1  0  0  0  0
  8 34  1  0  0  0  0
  9 10  1  0  0  0  0
  9 35  1  1  0  0  0
  9 18  1  0  0  0  0
 10 12  1  0  0  0  0
 10 36  1  0  0  0  0
 10 37  1  0  0  0  0
 11 12  1  0  0  0  0
 11 38  1  0  0  0  0
 11 39  1  0  0  0  0
 12 40  1  0  0  0  0
 12 41  1  0  0  0  0
 13  7  1  0  0  0  0
 13 14  1  0  0  0  0
 13 15  1  0  0  0  0
 13 42  1  6  0  0  0
 15 17  1  0  0  0  0
 15 43  1  0  0  0  0
 15 44  1  0  0  0  0
 16  7  1  0  0  0  0
 16 19  1  0  0  0  0
 16 22  1  0  0  0  0
 16 45  1  6  0  0  0
 17 20  1  0  0  0  0
 17 46  1  0  0  0  0
 17 47  1  0  0  0  0
 19 21  1  0  0  0  0
 19 48  1  0  0  0  0
 19 49  1  0  0  0  0
 20 23  1  0  0  0  0
 20 50  1  0  0  0  0
 20 51  1  0  0  0  0
 21 24  1  0  0  0  0
 21 52  1  0  0  0  0
 21 53  1  0  0  0  0
 23 54  1  0  0  0  0
 23 55  1  0  0  0  0
 24 25  2  0  0  0  0
 24 26  1  0  0  0  0
 25 27  1  0  0  0  0
 25 56  1  0  0  0  0
 26 28  2  0  0  0  0
 26 57  1  0  0  0  0
 27 29  2  0  0  0  0
 27 58  1  0  0  0  0
 28 29  1  0  0  0  0
 28 59  1  0  0  0  0
 29 60  1  0  0  0  0
M  END
>  <DRUGBANK_ID>
DB00722

>  <SECONDARY_ACCESSION_NUMBERS>
APRD00560

>  <COMMON_NAME>
Lisinopril

>  <CAS_NUMBER>
76547-98-3

>  <UNII>
7Q3P4BS2FD

>  <SYNONYMS>
(S)-1-(N(2)-(1-Carboxy-3-phenylpropyl)-L-lysyl)-L-proline; [N2-[(S)-1-carboxy-3-phenylpropyl]-L-lysyl-L-proline; Lisinopril; Lisinopril anhydrous; Lisinoprilum

$$$$
