LL1
 OpenBabel10282417173D

 24 26  0  0  0  0  0  0  0  0999 V2000
   -0.1813   -0.7588    0.0086 C   0  0  0  0  0  0  0  0  0  0  0  0
    1.0519   -1.4379    0.0085 C   0  0  0  0  0  0  0  0  0  0  0  0
    2.2356   -0.6929    0.0046 C   0  0  0  0  0  0  0  0  0  0  0  0
    2.1999    0.7013    0.0015 C   0  0  0  0  0  0  0  0  0  0  0  0
    0.9849    1.3967    0.0022 C   0  0  0  0  0  0  0  0  0  0  0  0
   -0.1858    0.6297    0.0024 C   0  0  0  0  0  0  0  0  0  0  0  0
   -1.5088    0.9801   -0.0059 N   0  0  0  0  0  0  0  0  0  0  0  0
   -2.3590   -0.0633   -0.0375 N   0  0  0  0  0  0  0  0  0  0  0  0
   -1.5573   -1.1385   -0.0035 C   0  0  0  0  0  0  0  0  0  0  0  0
   -2.0875   -2.4958    0.0022 C   0  0  0  0  0  0  0  0  0  0  0  0
   -1.7623   -3.3729    1.0383 C   0  0  0  0  0  0  0  0  0  0  0  0
   -2.2527   -4.6658    0.9809 C   0  0  0  0  0  0  0  0  0  0  0  0
   -3.0180   -5.1335   -0.0278 N   0  0  0  0  0  0  0  0  0  0  0  0
   -3.3204   -4.2630   -1.0161 C   0  0  0  0  0  0  0  0  0  0  0  0
   -2.8905   -2.9469   -1.0444 C   0  0  0  0  0  0  0  0  0  0  0  0
    1.0861   -2.5232   -0.0005 H   0  0  0  0  0  0  0  0  0  0  0  0
    3.1917   -1.2109   -0.0013 H   0  0  0  0  0  0  0  0  0  0  0  0
    3.1350    1.2579   -0.0055 H   0  0  0  0  0  0  0  0  0  0  0  0
    0.9627    2.4813   -0.0044 H   0  0  0  0  0  0  0  0  0  0  0  0
   -1.8965    1.9153   -0.0006 H   0  0  0  0  0  0  0  0  0  0  0  0
   -1.1459   -3.0600    1.8739 H   0  0  0  0  0  0  0  0  0  0  0  0
   -2.0336   -5.3829    1.7668 H   0  0  0  0  0  0  0  0  0  0  0  0
   -3.9332   -4.6688   -1.8159 H   0  0  0  0  0  0  0  0  0  0  0  0
   -3.1604   -2.2963   -1.8689 H   0  0  0  0  0  0  0  0  0  0  0  0
  1  2  1  0  0  0  0
  2  3  2  0  0  0  0
  2 16  1  0  0  0  0
  3 17  1  0  0  0  0
  4  3  1  0  0  0  0
  4 18  1  0  0  0  0
  5  4  2  0  0  0  0
  5 19  1  0  0  0  0
  6  1  2  0  0  0  0
  6  5  1  0  0  0  0
  7  6  1  0  0  0  0
  7  8  1  0  0  0  0
  7 20  1  0  0  0  0
  8  9  2  0  0  0  0
  9  1  1  0  0  0  0
  9 10  1  0  0  0  0
 10 15  1  0  0  0  0
 11 10  2  0  0  0  0
 11 12  1  0  0  0  0
 11 21  1  0  0  0  0
 12 13  2  0  0  0  0
 12 22  1  0  0  0  0
 13 14  1  0  0  0  0
 14 23  1  0  0  0  0
 15 14  2  0  0  0  0
 15 24  1  0  0  0  0
M  END
>  <DRUGBANK_ID>
DB08113

>  <COMMON_NAME>
3-pyridin-4-yl-1H-indazole

$$$$
