
 OpenBabel10282417103D

 16 15  0  0  0  0  0  0  0  0999 V2000
    0.8912   -0.0839   -0.1167 C   0  0  2  0  0  0  0  0  0  0  0  0
    0.3716    1.3138    0.2721 C   0  0  1  0  0  0  0  0  0  0  0  0
    0.4493   -0.4269   -1.5335 C   0  0  0  0  0  0  0  0  0  0  0  0
    0.3988   -1.4035    1.0877 S   0  0  0  0  0  0  0  0  0  0  0  0
    0.9738    2.3829   -0.6406 C   0  0  0  0  0  0  0  0  0  0  0  0
   -1.4726    1.4328    0.3562 S   0  0  0  0  0  0  0  0  0  0  0  0
   -0.3369   -1.5141   -1.6771 O   0  0  0  0  0  0  0  0  0  0  0  0
    0.7069    0.2830   -2.4978 O   0  0  0  0  0  0  0  0  0  0  0  0
    0.1012    3.1695   -1.3080 O   0  0  0  0  0  0  0  0  0  0  0  0
    2.1845    2.5379   -0.7493 O   0  0  0  0  0  0  0  0  0  0  0  0
    1.9878   -0.0960   -0.1159 H   0  0  0  0  0  0  0  0  0  0  0  0
    0.7278    1.5699    1.2791 H   0  0  0  0  0  0  0  0  0  0  0  0
   -0.9252   -1.1674    1.0764 H   0  0  0  0  0  0  0  0  0  0  0  0
   -1.7335    1.0042   -0.8910 H   0  0  0  0  0  0  0  0  0  0  0  0
   -0.4344   -2.0406   -0.8569 H   0  0  0  0  0  0  0  0  0  0  0  0
   -0.8385    2.9620   -1.1326 H   0  0  0  0  0  0  0  0  0  0  0  0
  1  2  1  0  0  0  0
  1  3  1  0  0  0  0
  1  4  1  0  0  0  0
  1 11  1  6  0  0  0
  2  5  1  0  0  0  0
  2  6  1  0  0  0  0
  2 12  1  1  0  0  0
  3  7  1  0  0  0  0
  3  8  2  0  0  0  0
  4 13  1  0  0  0  0
  5  9  1  0  0  0  0
  5 10  2  0  0  0  0
  6 14  1  0  0  0  0
  7 15  1  0  0  0  0
  9 16  1  0  0  0  0
M  END
>  <DRUGBANK_ID>
DB00566

>  <SECONDARY_ACCESSION_NUMBERS>
APRD01236

>  <COMMON_NAME>
Succimer

>  <CAS_NUMBER>
304-55-2

>  <UNII>
DX1U2629QE

>  <SYNONYMS>
DIM-SA; DMS; DMS-A; DMSA; meso-2,3-Dimercaptobernsteins√§ure; meso-2,3-dimercaptosuccinic acid; meso-dimercaptosuccinic acid; Succimer; succimero

$$$$
