
 OpenBabel10282417143D

 54 55  0  0  0  0  0  0  0  0999 V2000
    2.2237    0.0318    0.0096 C   0  0  0  0  0  0  0  0  0  0  0  0
   -4.6396    0.2695    4.6511 C   0  0  0  0  0  0  0  0  0  0  0  0
   -2.6851   -1.7422   -0.3988 C   0  0  0  0  0  0  0  0  0  0  0  0
   -4.4834    1.1914    5.8512 C   0  0  0  0  0  0  0  0  0  0  0  0
   -3.6836   -1.7229    0.7985 C   0  0  0  0  0  0  0  0  0  0  0  0
    0.3331   -2.6204   -0.0111 C   0  0  0  0  0  0  0  0  0  0  0  0
   -1.9916   -0.0975    3.1017 C   0  0  0  0  0  0  0  0  0  0  0  0
   -2.6034    2.0436   -0.1317 C   0  0  0  0  0  0  0  0  0  0  0  0
   -5.2713    1.9316    2.7654 C   0  0  0  0  0  0  0  0  0  0  0  0
    0.7422   -0.0521   -0.1492 C   0  0  0  0  0  0  0  0  0  0  0  0
   -4.3800    1.1212    3.4422 C   0  0  0  0  0  0  0  0  0  0  0  0
   -1.4094   -0.6945   -0.4999 C   0  0  0  0  0  0  0  0  0  0  0  0
   -0.0733   -1.1706   -0.2017 C   0  0  0  0  0  0  0  0  0  0  0  0
   -3.0786    1.2682    2.8353 C   0  0  0  0  0  0  0  0  0  0  0  0
   -3.2992    2.1632    1.5808 C   0  0  0  0  0  0  0  0  0  0  0  0
   -1.3655    0.7887   -0.4890 C   0  0  0  0  0  0  0  0  0  0  0  0
   -5.5303    2.2801    5.8489 C   0  0  0  0  0  0  0  0  0  0  0  0
   -4.0020   -0.3423    0.7790 C   0  0  0  0  0  0  0  0  0  0  0  0
   -0.2164   -3.3144    1.2229 C   0  0  0  0  0  0  0  0  0  0  0  0
   -1.0724    0.0254    4.2050 C   0  0  0  0  0  0  0  0  0  0  0  0
   -4.6370    2.6189    1.7393 N   0  0  0  0  0  0  0  0  0  0  0  0
   -0.0284    1.0919   -0.2707 N   0  0  0  0  0  0  0  0  0  0  0  0
   -6.5886    2.2358    6.4538 O   0  0  0  0  0  0  0  0  0  0  0  0
   -5.2610    3.3113    5.0224 O   0  0  0  0  0  0  0  0  0  0  0  0
   -5.0234    0.2693    0.4509 O   0  0  0  0  0  0  0  0  0  0  0  0
   -2.7995    0.0119    1.0749 O   0  0  0  0  0  0  0  0  0  0  0  0
   -0.9574   -4.2888    1.2186 O   0  0  0  0  0  0  0  0  0  0  0  0
    0.2252   -2.8128    2.3946 O   0  0  0  0  0  0  0  0  0  0  0  0
   -0.8362   -0.8300    5.0365 O   0  0  0  0  0  0  0  0  0  0  0  0
   -0.4024    1.1744    4.0731 O   0  0  0  0  0  0  0  0  0  0  0  0
    2.6400    0.5637   -0.8505 H   0  0  0  0  0  0  0  0  0  0  0  0
    2.5169    0.5517    0.9267 H   0  0  0  0  0  0  0  0  0  0  0  0
    2.6884   -0.9599    0.0286 H   0  0  0  0  0  0  0  0  0  0  0  0
   -5.5951   -0.2730    4.6229 H   0  0  0  0  0  0  0  0  0  0  0  0
   -3.8880   -0.5293    4.7369 H   0  0  0  0  0  0  0  0  0  0  0  0
   -3.2752   -1.5142   -1.2796 H   0  0  0  0  0  0  0  0  0  0  0  0
   -2.3161   -2.7613   -0.3906 H   0  0  0  0  0  0  0  0  0  0  0  0
   -4.5644    0.6201    6.7773 H   0  0  0  0  0  0  0  0  0  0  0  0
   -3.4846    1.6464    5.8385 H   0  0  0  0  0  0  0  0  0  0  0  0
   -4.6340   -2.2205    0.7244 H   0  0  0  0  0  0  0  0  0  0  0  0
   -3.2762   -1.9761    1.7897 H   0  0  0  0  0  0  0  0  0  0  0  0
   -0.0355   -3.1743   -0.8823 H   0  0  0  0  0  0  0  0  0  0  0  0
    1.4191   -2.7540   -0.0063 H   0  0  0  0  0  0  0  0  0  0  0  0
   -2.5144   -1.0633    3.2384 H   0  0  0  0  0  0  0  0  0  0  0  0
   -1.2745   -0.3128    2.2848 H   0  0  0  0  0  0  0  0  0  0  0  0
   -3.4179    1.8272   -0.8577 H   0  0  0  0  0  0  0  0  0  0  0  0
   -2.1454    3.0153   -0.3276 H   0  0  0  0  0  0  0  0  0  0  0  0
   -6.3319    2.0957    2.9491 H   0  0  0  0  0  0  0  0  0  0  0  0
   -5.1860    3.1305    1.0542 H   0  0  0  0  0  0  0  0  0  0  0  0
    0.3213    2.0222   -0.0831 H   0  0  0  0  0  0  0  0  0  0  0  0
   -6.1259    3.6392    4.6964 H   0  0  0  0  0  0  0  0  0  0  0  0
   -2.1706    0.7671    1.2109 H   0  0  0  0  0  0  0  0  0  0  0  0
   -0.1935   -3.3584    3.0973 H   0  0  0  0  0  0  0  0  0  0  0  0
    0.1334    1.1984    4.8770 H   0  0  0  0  0  0  0  0  0  0  0  0
  1 31  1  0  0  0  0
  1 32  1  0  0  0  0
  1 33  1  0  0  0  0
  2 34  1  0  0  0  0
  2 35  1  0  0  0  0
  3 36  1  0  0  0  0
  3 37  1  0  0  0  0
  4  2  1  0  0  0  0
  4 38  1  0  0  0  0
  4 39  1  0  0  0  0
  5  3  1  0  0  0  0
  5 40  1  0  0  0  0
  5 41  1  0  0  0  0
  6 42  1  0  0  0  0
  6 43  1  0  0  0  0
  7 44  1  0  0  0  0
  7 45  1  0  0  0  0
  8 46  1  0  0  0  0
  8 47  1  0  0  0  0
  9 48  1  0  0  0  0
 10  1  1  0  0  0  0
 11  2  1  0  0  0  0
 11  9  2  0  0  0  0
 12  3  1  0  0  0  0
 13  6  1  0  0  0  0
 13 10  2  0  0  0  0
 13 12  1  0  0  0  0
 14  7  1  0  0  0  0
 14 11  1  0  0  0  0
 15  8  1  0  0  0  0
 15 14  2  0  0  0  0
 16  8  1  0  0  0  0
 16 12  2  0  0  0  0
 17  4  1  0  0  0  0
 18  5  1  0  0  0  0
 19  6  1  0  0  0  0
 20  7  1  0  0  0  0
 21  9  1  0  0  0  0
 21 15  1  0  0  0  0
 21 49  1  0  0  0  0
 22 10  1  0  0  0  0
 22 16  1  0  0  0  0
 22 50  1  0  0  0  0
 23 17  2  0  0  0  0
 24 17  1  0  0  0  0
 24 51  1  0  0  0  0
 25 18  2  0  0  0  0
 26 18  1  0  0  0  0
 26 52  1  0  0  0  0
 27 19  2  0  0  0  0
 28 19  1  0  0  0  0
 28 53  1  0  0  0  0
 29 20  2  0  0  0  0
 30 20  1  0  0  0  0
 30 54  1  0  0  0  0
M  END
>  <DRUGBANK_ID>
DB04517

>  <SECONDARY_ACCESSION_NUMBERS>
EXPT01256

>  <COMMON_NAME>
Dipyrromethane Cofactor

$$$$
