
 OpenBabel10282417223D

 32 33  0  0  0  0  0  0  0  0999 V2000
    1.3704   -0.2024   -0.0185 C   0  0  0  0  0  0  0  0  0  0  0  0
    0.5100   -1.3039    0.0148 C   0  0  0  0  0  0  0  0  0  0  0  0
   -0.8729   -1.1171   -0.0071 C   0  0  0  0  0  0  0  0  0  0  0  0
   -1.4010    0.1684   -0.0233 C   0  0  0  0  0  0  0  0  0  0  0  0
   -0.5467    1.2658   -0.0530 C   0  0  0  0  0  0  0  0  0  0  0  0
    0.8440    1.0925   -0.0999 C   0  0  0  0  0  0  0  0  0  0  0  0
    0.4428    6.2942   -0.5616 C   0  0  0  0  0  0  0  0  0  0  0  0
    1.1254    5.7080   -1.6231 C   0  0  0  0  0  0  0  0  0  0  0  0
    1.4958    4.3679   -1.5452 C   0  0  0  0  0  0  0  0  0  0  0  0
    1.2519    3.6372   -0.3692 C   0  0  0  0  0  0  0  0  0  0  0  0
    0.5523    4.2056    0.7153 C   0  0  0  0  0  0  0  0  0  0  0  0
    0.1549    5.5560    0.6024 C   0  0  0  0  0  0  0  0  0  0  0  0
    1.7703    2.2486   -0.3050 C   0  0  0  0  0  0  0  0  0  0  0  0
    2.9711    2.0604   -0.4821 O   0  0  0  0  0  0  0  0  0  0  0  0
    0.4275    3.5400    1.9461 N   0  0  0  0  0  0  0  0  0  0  0  0
   -0.5795    6.2358    1.7323 C   0  0  0  0  0  0  0  0  0  0  0  0
   -1.8686    5.5347    2.0664 C   0  0  0  0  0  0  0  0  0  0  0  0
   -2.0922    4.9276    3.1105 O   0  0  0  0  0  0  0  0  0  0  0  0
   -2.7726    5.5387    1.0706 O   0  0  0  0  0  0  0  0  0  0  0  0
    2.4477   -0.3620   -0.0003 H   0  0  0  0  0  0  0  0  0  0  0  0
    0.9181   -2.3114    0.0344 H   0  0  0  0  0  0  0  0  0  0  0  0
   -1.5422   -1.9730   -0.0085 H   0  0  0  0  0  0  0  0  0  0  0  0
   -2.4757    0.3280   -0.0348 H   0  0  0  0  0  0  0  0  0  0  0  0
   -1.0008    2.2509   -0.0385 H   0  0  0  0  0  0  0  0  0  0  0  0
    0.1369    7.3365   -0.6415 H   0  0  0  0  0  0  0  0  0  0  0  0
    1.3799    6.3006   -2.4995 H   0  0  0  0  0  0  0  0  0  0  0  0
    1.9816    3.8958   -2.3968 H   0  0  0  0  0  0  0  0  0  0  0  0
    0.5296    2.5309    1.9518 H   0  0  0  0  0  0  0  0  0  0  0  0
   -0.2950    3.8364    2.5971 H   0  0  0  0  0  0  0  0  0  0  0  0
    0.0711    6.2297    2.6155 H   0  0  0  0  0  0  0  0  0  0  0  0
   -0.7991    7.2861    1.5164 H   0  0  0  0  0  0  0  0  0  0  0  0
   -3.5096    4.9776    1.3905 H   0  0  0  0  0  0  0  0  0  0  0  0
  1  2  2  0  0  0  0
  1 20  1  0  0  0  0
  2  3  1  0  0  0  0
  2 21  1  0  0  0  0
  3  4  2  0  0  0  0
  3 22  1  0  0  0  0
  4  5  1  0  0  0  0
  4 23  1  0  0  0  0
  5  6  2  0  0  0  0
  5 24  1  0  0  0  0
  6  1  1  0  0  0  0
  7  8  2  0  0  0  0
  7 25  1  0  0  0  0
  8  9  1  0  0  0  0
  8 26  1  0  0  0  0
  9 10  2  0  0  0  0
  9 27  1  0  0  0  0
 10 13  1  0  0  0  0
 10 11  1  0  0  0  0
 11 12  2  0  0  0  0
 11 15  1  0  0  0  0
 12  7  1  0  0  0  0
 12 16  1  0  0  0  0
 13  6  1  0  0  0  0
 13 14  2  0  0  0  0
 15 28  1  0  0  0  0
 15 29  1  0  0  0  0
 16 17  1  0  0  0  0
 16 30  1  0  0  0  0
 16 31  1  0  0  0  0
 17 18  2  0  0  0  0
 17 19  1  0  0  0  0
 19 32  1  0  0  0  0
M  END
>  <DRUGBANK_ID>
DB15911

>  <COMMON_NAME>
Amfenac

>  <CAS_NUMBER>
51579-82-9

>  <UNII>
28O5C1J38A

>  <SYNONYMS>
(2-Amino-3-benzoylphenyl)acetic acid; Amfenac; Amfenaco; Amfenacum

$$$$
