BN3
 OpenBabel10282417143D

 43 44  0  0  0  0  0  0  0  0999 V2000
    1.1954   -1.4708    0.0052 C   0  0  0  0  0  0  0  0  0  0  0  0
   -0.0150   -2.1847    0.0022 C   0  0  0  0  0  0  0  0  0  0  0  0
   -1.2498   -1.5142   -0.0003 C   0  0  0  0  0  0  0  0  0  0  0  0
   -1.2206   -0.0906   -0.0024 C   0  0  0  0  0  0  0  0  0  0  0  0
   -2.6111    0.9503    0.0002 Cl  0  0  0  0  0  0  0  0  0  0  0  0
   -0.0038    0.6114   -0.0028 C   0  0  0  0  0  0  0  0  0  0  0  0
    1.1961   -0.0799    0.0017 C   0  0  0  0  0  0  0  0  0  0  0  0
   -2.5807   -3.6718    0.0205 N   0  0  0  0  0  0  0  0  0  0  0  0
   -2.5599   -2.2674    0.0022 C   0  0  0  0  0  0  0  0  0  0  0  0
   -3.5788   -1.6092   -0.0319 O   0  0  0  0  0  0  0  0  0  0  0  0
   -3.7477   -5.7077   -0.1467 N   0  0  0  0  0  0  0  0  0  0  0  0
   -5.0095   -6.4029   -0.1603 C   0  0  0  0  0  0  0  0  0  0  0  0
   -5.2440   -7.3633    0.7979 C   0  0  0  0  0  0  0  0  0  0  0  0
   -6.5495   -7.8584    0.9056 C   0  0  0  0  0  0  0  0  0  0  0  0
   -7.5284   -7.7835   -0.0564 C   0  0  0  0  0  0  0  0  0  0  0  0
   -8.6146   -8.6157   -0.1116 O   0  0  0  0  0  0  0  0  0  0  0  0
   -8.7808   -9.7242    0.8202 C   0  0  0  0  0  0  0  0  0  0  0  0
   -7.8218  -10.9405    0.6688 C   0  0  0  0  0  0  0  0  0  0  0  0
   -6.3643  -10.7081    1.0766 C   0  0  0  0  0  0  0  0  0  0  0  0
   -7.3154   -6.8123   -1.0091 C   0  0  0  0  0  0  0  0  0  0  0  0
   -6.0880   -6.0942   -1.0330 C   0  0  0  0  0  0  0  0  0  0  0  0
   -3.8037   -4.3275    0.0727 C   0  0  0  0  0  0  0  0  0  0  0  0
   -4.8619   -3.7762    0.3276 O   0  0  0  0  0  0  0  0  0  0  0  0
    2.6835    0.7820    0.0035 Cl  0  0  0  0  0  0  0  0  0  0  0  0
   -5.9244   -4.9144   -2.2873 Cl  0  0  0  0  0  0  0  0  0  0  0  0
   -6.2339  -10.3337    2.5768 C   0  0  0  0  0  0  0  0  0  0  0  0
   -5.0423  -10.6295    3.1242 O   0  0  0  0  0  0  0  0  0  0  0  0
   -7.0715   -9.7534    3.2528 O   0  0  0  0  0  0  0  0  0  0  0  0
    2.1414   -2.0079    0.0105 H   0  0  0  0  0  0  0  0  0  0  0  0
    0.0560   -3.2659    0.0015 H   0  0  0  0  0  0  0  0  0  0  0  0
   -0.0032    1.7006   -0.0047 H   0  0  0  0  0  0  0  0  0  0  0  0
   -1.7445   -4.2170   -0.0190 H   0  0  0  0  0  0  0  0  0  0  0  0
   -2.9681   -6.1968    0.2723 H   0  0  0  0  0  0  0  0  0  0  0  0
   -4.5096   -7.6879    1.5318 H   0  0  0  0  0  0  0  0  0  0  0  0
   -6.8241   -8.3620    1.7943 H   0  0  0  0  0  0  0  0  0  0  0  0
   -8.8505   -9.3611    1.8492 H   0  0  0  0  0  0  0  0  0  0  0  0
   -9.7886  -10.1239    0.6246 H   0  0  0  0  0  0  0  0  0  0  0  0
   -8.1842  -11.7760    1.2828 H   0  0  0  0  0  0  0  0  0  0  0  0
   -7.8531  -11.2767   -0.3757 H   0  0  0  0  0  0  0  0  0  0  0  0
   -5.7425  -11.5839    0.8792 H   0  0  0  0  0  0  0  0  0  0  0  0
   -5.9444   -9.9815    0.3774 H   0  0  0  0  0  0  0  0  0  0  0  0
   -8.0962   -6.5874   -1.7284 H   0  0  0  0  0  0  0  0  0  0  0  0
   -4.4915  -11.2059    2.5733 H   0  0  0  0  0  0  0  0  0  0  0  0
  1  2  1  0  0  0  0
  1  7  2  0  0  0  0
  1 29  1  0  0  0  0
  2  3  2  0  0  0  0
  2 30  1  0  0  0  0
  3  4  1  0  0  0  0
  3  9  1  0  0  0  0
  4  5  1  0  0  0  0
  4  6  2  0  0  0  0
  6  7  1  0  0  0  0
  6 31  1  0  0  0  0
  7 24  1  0  0  0  0
  8  9  1  0  0  0  0
  8 22  1  0  0  0  0
  8 32  1  0  0  0  0
  9 10  2  0  0  0  0
 11 12  1  0  0  0  0
 11 22  1  0  0  0  0
 11 33  1  0  0  0  0
 12 13  2  0  0  0  0
 12 21  1  0  0  0  0
 13 14  1  0  0  0  0
 13 34  1  0  0  0  0
 14 15  2  0  0  0  0
 14 35  1  0  0  0  0
 15 16  1  0  0  0  0
 15 20  1  0  0  0  0
 16 17  1  0  0  0  0
 17 18  1  0  0  0  0
 17 36  1  0  0  0  0
 17 37  1  0  0  0  0
 18 19  1  0  0  0  0
 18 38  1  0  0  0  0
 18 39  1  0  0  0  0
 19 26  1  0  0  0  0
 19 40  1  0  0  0  0
 19 41  1  0  0  0  0
 20 21  2  0  0  0  0
 20 42  1  0  0  0  0
 21 25  1  0  0  0  0
 22 23  2  0  0  0  0
 26 27  1  0  0  0  0
 26 28  2  0  0  0  0
 27 43  1  0  0  0  0
M  END
>  <DRUGBANK_ID>
DB04643

>  <COMMON_NAME>
4-{3-CHLORO-4-[3-(2,4-DICHLORO-BENZOYL)-UREIDO]-PHENOXY}-BUTYRIC ACID

$$$$
