R88
 OpenBabel10282417173D

 47 49  0  0  0  0  0  0  0  0999 V2000
    3.1791    0.1055    0.2243 C   0  0  0  0  0  0  0  0  0  0  0  0
    4.7002    0.1326    0.2196 C   0  0  0  0  0  0  0  0  0  0  0  0
    5.2718    1.2020    0.1914 O   0  0  0  0  0  0  0  0  0  0  0  0
    5.5667   -1.0958    0.1606 C   0  0  0  0  0  0  0  0  0  0  0  0
    5.7713   -1.7211   -1.0629 C   0  0  0  0  0  0  0  0  0  0  0  0
    6.4643   -2.9642   -1.1520 C   0  0  0  0  0  0  0  0  0  0  0  0
    7.0427   -3.5425   -0.0380 C   0  0  0  0  0  0  0  0  0  0  0  0
    7.2618   -5.7648   -1.0296 C   0  0  0  0  0  0  0  0  0  0  0  0
    5.8212   -6.2348   -1.1027 C   0  0  0  0  0  0  0  0  0  0  0  0
    5.0335   -6.1364   -2.1963 C   0  0  0  0  0  0  0  0  0  0  0  0
    3.5658   -6.5469   -2.2755 C   0  0  0  0  0  0  0  0  0  0  0  0
    2.6659   -5.4264   -2.6098 N   0  0  0  0  0  0  0  0  0  0  0  0
    1.2507   -5.7845   -2.6101 C   0  0  0  0  0  0  0  0  0  0  0  0
    2.7552   -4.4326   -1.5883 C   0  0  0  0  0  0  0  0  0  0  0  0
    2.2699   -3.0447   -1.8280 C   0  0  0  0  0  0  0  0  0  0  0  0
    7.0883   -2.7566    1.1172 C   0  0  0  0  0  0  0  0  0  0  0  0
    6.3137   -1.5700    1.2388 C   0  0  0  0  0  0  0  0  0  0  0  0
    2.4370   -1.0517    0.4194 C   0  0  0  0  0  0  0  0  0  0  0  0
    1.0218   -1.0500    0.3194 C   0  0  0  0  0  0  0  0  0  0  0  0
    0.3257    0.1240    0.0979 C   0  0  0  0  0  0  0  0  0  0  0  0
    7.5128   -4.8280    0.0441 O   0  0  0  0  0  0  0  0  0  0  0  0
    3.7100   -3.3589   -1.7319 C   0  0  0  0  0  0  0  0  0  0  0  0
   -1.5595    0.0812   -0.0363 Br  0  0  0  0  0  0  0  0  0  0  0  0
    1.0347    1.3102    0.0017 C   0  0  0  0  0  0  0  0  0  0  0  0
    2.4488    1.2973    0.0444 C   0  0  0  0  0  0  0  0  0  0  0  0
    5.2113   -1.3622   -1.9265 H   0  0  0  0  0  0  0  0  0  0  0  0
    6.3686   -3.5372   -2.0701 H   0  0  0  0  0  0  0  0  0  0  0  0
    7.6320   -5.3739   -1.9835 H   0  0  0  0  0  0  0  0  0  0  0  0
    7.8762   -6.6526   -0.8176 H   0  0  0  0  0  0  0  0  0  0  0  0
    5.4239   -6.6808   -0.1935 H   0  0  0  0  0  0  0  0  0  0  0  0
    5.4389   -5.6804   -3.0983 H   0  0  0  0  0  0  0  0  0  0  0  0
    3.4687   -7.3056   -3.0545 H   0  0  0  0  0  0  0  0  0  0  0  0
    3.2679   -6.9890   -1.3172 H   0  0  0  0  0  0  0  0  0  0  0  0
    0.9445   -6.1673   -1.6281 H   0  0  0  0  0  0  0  0  0  0  0  0
    0.6468   -4.8788   -2.7873 H   0  0  0  0  0  0  0  0  0  0  0  0
    1.0156   -6.4887   -3.3999 H   0  0  0  0  0  0  0  0  0  0  0  0
    2.6790   -4.8008   -0.5607 H   0  0  0  0  0  0  0  0  0  0  0  0
    1.9880   -2.5890   -2.7618 H   0  0  0  0  0  0  0  0  0  0  0  0
    1.6629   -2.7808   -1.0024 H   0  0  0  0  0  0  0  0  0  0  0  0
    7.7217   -3.0722    1.9431 H   0  0  0  0  0  0  0  0  0  0  0  0
    6.3088   -1.0310    2.1812 H   0  0  0  0  0  0  0  0  0  0  0  0
    2.9462   -1.9949    0.5898 H   0  0  0  0  0  0  0  0  0  0  0  0
    0.4642   -1.9873    0.3543 H   0  0  0  0  0  0  0  0  0  0  0  0
    4.2173   -3.3294   -0.7855 H   0  0  0  0  0  0  0  0  0  0  0  0
    4.2605   -3.3047   -2.6635 H   0  0  0  0  0  0  0  0  0  0  0  0
    0.4981    2.2495   -0.1017 H   0  0  0  0  0  0  0  0  0  0  0  0
    2.9747    2.2436   -0.0573 H   0  0  0  0  0  0  0  0  0  0  0  0
  1  2  1  0  0  0  0
  1 18  2  0  0  0  0
  1 25  1  0  0  0  0
  2  3  2  0  0  0  0
  2  4  1  0  0  0  0
  4  5  2  0  0  0  0
  4 17  1  0  0  0  0
  5  6  1  0  0  0  0
  5 26  1  0  0  0  0
  6  7  2  0  0  0  0
  6 27  1  0  0  0  0
  7 16  1  0  0  0  0
  7 21  1  0  0  0  0
  8  9  1  0  0  0  0
  8 21  1  0  0  0  0
  8 28  1  0  0  0  0
  8 29  1  0  0  0  0
  9 10  2  0  0  0  0
  9 30  1  0  0  0  0
 10 11  1  0  0  0  0
 10 31  1  0  0  0  0
 11 12  1  0  0  0  0
 11 32  1  0  0  0  0
 11 33  1  0  0  0  0
 12 13  1  0  0  0  0
 12 14  1  0  0  0  0
 13 34  1  0  0  0  0
 13 35  1  0  0  0  0
 13 36  1  0  0  0  0
 14 15  1  0  0  0  0
 14 22  1  0  0  0  0
 14 37  1  0  0  0  0
 15 22  1  0  0  0  0
 15 38  1  0  0  0  0
 15 39  1  0  0  0  0
 16 17  2  0  0  0  0
 16 40  1  0  0  0  0
 17 41  1  0  0  0  0
 18 19  1  0  0  0  0
 18 42  1  0  0  0  0
 19 20  2  0  0  0  0
 19 43  1  0  0  0  0
 20 23  1  0  0  0  0
 20 24  1  0  0  0  0
 22 44  1  0  0  0  0
 22 45  1  0  0  0  0
 24 25  2  0  0  0  0
 24 46  1  0  0  0  0
 25 47  1  0  0  0  0
M  END
>  <DRUGBANK_ID>
DB08458

>  <COMMON_NAME>
(4-BROMOPHENYL)[4-({(2E)-4-[CYCLOPROPYL(METHYL)AMINO]BUT-2-ENYL}OXY)PHENYL]METHANONE

$$$$
