
 OpenBabel10282417233D

 30 30  0  0  1  0  0  0  0  0999 V2000
    1.0608   -0.3554   -0.0625 N   0  0  0  0  0  0  0  0  0  0  0  0
    0.4826   -0.3221    1.3141 C   0  0  1  0  0  0  0  0  0  0  0  0
    1.0003    0.8912    2.0887 C   0  0  0  0  0  0  0  0  0  0  0  0
    0.5895    2.2215    1.5218 C   0  0  0  0  0  0  0  0  0  0  0  0
    0.9625    3.3447    2.2224 C   0  0  0  0  0  0  0  0  0  0  0  0
    0.4367    4.5546    1.8148 C   0  0  0  0  0  0  0  0  0  0  0  0
   -0.2235    4.7092    0.5721 C   0  0  0  0  0  0  0  0  0  0  0  0
   -0.3920    5.8700   -0.1503 O   0  0  0  0  0  0  0  0  0  0  0  0
    0.2467    7.3649    0.4416 P   0  0  0  0  0  0  0  0  0  0  0  0
   -1.0440    7.3965    1.4314 O   0  0  0  0  0  0  0  0  0  0  0  0
    1.4699    6.6163    1.1884 O   0  0  0  0  0  0  0  0  0  0  0  0
    0.8184    8.7028    0.9713 O   0  0  0  0  0  0  0  0  0  0  0  0
   -0.6158    3.5982   -0.1069 C   0  0  0  0  0  0  0  0  0  0  0  0
   -1.3540    3.6278   -1.2490 O   0  0  0  0  0  0  0  0  0  0  0  0
   -0.2192    2.3839    0.3758 C   0  0  0  0  0  0  0  0  0  0  0  0
   -1.0925   -0.4091    1.3867 C   0  0  0  0  0  0  0  0  0  0  0  0
   -1.5575   -1.5633    1.9215 O   0  0  0  0  0  0  0  0  0  0  0  0
   -1.8990    0.4390    1.0749 O   0  0  0  0  0  0  0  0  0  0  0  0
    0.7959    0.4899   -0.5749 H   0  0  0  0  0  0  0  0  0  0  0  0
    2.0728   -0.2122    0.0130 H   0  0  0  0  0  0  0  0  0  0  0  0
    0.8815   -1.2125    1.8070 H   0  0  0  0  0  0  0  0  0  0  0  0
    0.6502    0.8333    3.1294 H   0  0  0  0  0  0  0  0  0  0  0  0
    2.1007    0.8650    2.1338 H   0  0  0  0  0  0  0  0  0  0  0  0
    1.6239    3.3008    3.0869 H   0  0  0  0  0  0  0  0  0  0  0  0
    0.6635    5.3733    2.4943 H   0  0  0  0  0  0  0  0  0  0  0  0
   -1.6912    8.0085    1.0221 H   0  0  0  0  0  0  0  0  0  0  0  0
    1.9971    6.0604    0.5921 H   0  0  0  0  0  0  0  0  0  0  0  0
   -1.6389    4.5469   -1.3812 H   0  0  0  0  0  0  0  0  0  0  0  0
   -0.6221    1.5697   -0.2054 H   0  0  0  0  0  0  0  0  0  0  0  0
   -0.8807   -2.2184    2.1423 H   0  0  0  0  0  0  0  0  0  0  0  0
  1 19  1  0  0  0  0
  1 20  1  0  0  0  0
  2  1  1  0  0  0  0
  2  3  1  0  0  0  0
  2 16  1  0  0  0  0
  2 21  1  1  0  0  0
  3  4  1  0  0  0  0
  3 22  1  0  0  0  0
  3 23  1  0  0  0  0
  4  5  2  0  0  0  0
  4 15  1  0  0  0  0
  5  6  1  0  0  0  0
  5 24  1  0  0  0  0
  6  7  2  0  0  0  0
  6 25  1  0  0  0  0
  7  8  1  0  0  0  0
  7 13  1  0  0  0  0
  8  9  1  0  0  0  0
  9 10  1  0  0  0  0
  9 11  1  0  0  0  0
  9 12  2  0  0  0  0
 10 26  1  0  0  0  0
 11 27  1  0  0  0  0
 13 14  1  0  0  0  0
 13 15  2  0  0  0  0
 14 28  1  0  0  0  0
 15 29  1  0  0  0  0
 16 17  1  0  0  0  0
 16 18  2  0  0  0  0
 17 30  1  0  0  0  0
M  END
>  <DRUGBANK_ID>
DB16683

>  <COMMON_NAME>
Foslevodopa

>  <CAS_NUMBER>
97321-87-4

>  <UNII>
37NQZ0J76I

>  <SYNONYMS>
3-hydroxy-O-phosphono-L-tyrosine; Foslevodopa; Levodopa-4'-monophosphate

$$$$
