
 OpenBabel10282417153D

 30 30  0  0  0  0  0  0  0  0999 V2000
    1.1795    0.0003    0.0566 O   0  5  0  0  0  0  0  0  0  0  0  0
    3.1025   -0.8130    0.7471 O   0  0  0  0  0  0  0  0  0  0  0  0
    4.5837   -0.9339   -1.7327 N   0  0  0  0  0  0  0  0  0  0  0  0
    5.9495   -4.2551   -1.6132 N   0  0  0  0  0  0  0  0  0  0  0  0
    2.4222   -0.0591    0.0400 N   0  3  0  0  0  0  0  0  0  0  0  0
    5.6853   -1.4397   -2.5439 C   0  0  0  0  0  0  0  0  0  0  0  0
    6.8333   -1.9565   -1.6837 C   0  0  0  0  0  0  0  0  0  0  0  0
    4.1721    0.3881   -1.6904 C   0  0  0  0  0  0  0  0  0  0  0  0
    6.4370   -3.1394   -0.8072 C   0  0  0  0  0  0  0  0  0  0  0  0
    3.1185    0.8457   -0.8690 C   0  0  0  0  0  0  0  0  0  0  0  0
    4.7143    1.3391   -2.5684 C   0  0  0  0  0  0  0  0  0  0  0  0
    3.2258    3.0817   -1.8002 C   0  0  0  0  0  0  0  0  0  0  0  0
    2.6595    2.1743   -0.9055 C   0  0  0  0  0  0  0  0  0  0  0  0
    4.2548    2.6536   -2.6318 C   0  0  0  0  0  0  0  0  0  0  0  0
    2.7293    4.4875   -1.9063 C   0  0  0  0  0  0  0  0  0  0  0  0
    4.2594   -1.5403   -0.9788 H   0  0  0  0  0  0  0  0  0  0  0  0
    5.6321   -5.0013   -0.9966 H   0  0  0  0  0  0  0  0  0  0  0  0
    5.1187   -3.9730   -2.1339 H   0  0  0  0  0  0  0  0  0  0  0  0
    5.2894   -2.2231   -3.1960 H   0  0  0  0  0  0  0  0  0  0  0  0
    6.1056   -0.7066   -3.2317 H   0  0  0  0  0  0  0  0  0  0  0  0
    7.6571   -2.2544   -2.3464 H   0  0  0  0  0  0  0  0  0  0  0  0
    7.2223   -1.1464   -1.0530 H   0  0  0  0  0  0  0  0  0  0  0  0
    7.3055   -3.4674   -0.2276 H   0  0  0  0  0  0  0  0  0  0  0  0
    5.6688   -2.8400   -0.0870 H   0  0  0  0  0  0  0  0  0  0  0  0
    5.5087    1.0919   -3.2621 H   0  0  0  0  0  0  0  0  0  0  0  0
    1.8501    2.4926   -0.2511 H   0  0  0  0  0  0  0  0  0  0  0  0
    4.7075    3.3278   -3.3560 H   0  0  0  0  0  0  0  0  0  0  0  0
    3.5480    5.1884   -1.7175 H   0  0  0  0  0  0  0  0  0  0  0  0
    2.3247    4.6619   -2.9084 H   0  0  0  0  0  0  0  0  0  0  0  0
    1.9366    4.6815   -1.1787 H   0  0  0  0  0  0  0  0  0  0  0  0
  1  5  1  0  0  0  0
  2  5  2  0  0  0  0
  3  6  1  0  0  0  0
  3  8  1  0  0  0  0
  3 16  1  0  0  0  0
  4  9  1  0  0  0  0
  4 17  1  0  0  0  0
  4 18  1  0  0  0  0
  5 10  1  0  0  0  0
  6  7  1  0  0  0  0
  6 19  1  0  0  0  0
  6 20  1  0  0  0  0
  7  9  1  0  0  0  0
  7 21  1  0  0  0  0
  7 22  1  0  0  0  0
  8 10  2  0  0  0  0
  8 11  1  0  0  0  0
  9 23  1  0  0  0  0
  9 24  1  0  0  0  0
 10 13  1  0  0  0  0
 11 14  2  0  0  0  0
 11 25  1  0  0  0  0
 12 13  2  0  0  0  0
 12 14  1  0  0  0  0
 12 15  1  0  0  0  0
 13 26  1  0  0  0  0
 14 27  1  0  0  0  0
 15 28  1  0  0  0  0
 15 29  1  0  0  0  0
 15 30  1  0  0  0  0
M  CHG  2   1  -1   5   1
M  END
>  <DRUGBANK_ID>
DB05492

>  <SECONDARY_ACCESSION_NUMBERS>
DB08290

>  <COMMON_NAME>
Epicept NP-1

$$$$
