
 OpenBabel10282417173D

 49 52  0  0  0  0  0  0  0  0999 V2000
   -1.2903   -0.6700    0.2517 C   0  0  0  0  0  0  0  0  0  0  0  0
   -1.2248    0.7154   -0.0004 N   0  0  0  0  0  0  0  0  0  0  0  0
   -2.4037    1.3918   -0.3001 C   0  0  0  0  0  0  0  0  0  0  0  0
   -3.6265    0.8348   -0.3514 C   0  0  0  0  0  0  0  0  0  0  0  0
   -3.7007   -0.6243   -0.1071 C   0  0  0  0  0  0  0  0  0  0  0  0
   -2.4468   -1.3676    0.2015 C   0  0  0  0  0  0  0  0  0  0  0  0
   -0.0231   -1.4488    0.5119 C   0  0  0  0  0  0  0  0  0  0  0  0
    1.1650   -0.7574    0.2844 N   0  0  0  0  0  0  0  0  0  0  0  0
    1.1988    0.6334    0.6463 C   0  0  2  0  0  0  0  0  0  0  0  0
    0.0776    1.4179   -0.0556 C   0  0  0  0  0  0  0  0  0  0  0  0
    2.2269   -1.4432   -0.4191 C   0  0  1  0  0  0  0  0  0  0  0  0
    3.4670   -0.6366   -0.7264 C   0  0  0  0  0  0  0  0  0  0  0  0
    3.5599    0.7241   -0.1005 C   0  0  0  0  0  0  0  0  0  0  0  0
    2.4165    1.3246    0.4449 O   0  0  0  0  0  0  0  0  0  0  0  0
   -0.0369   -2.6432    0.8207 O   0  0  0  0  0  0  0  0  0  0  0  0
   -2.5702   -2.7322    0.3855 O   0  0  0  0  0  0  0  0  0  0  0  0
   -4.7618   -1.2534   -0.1555 O   0  0  0  0  0  0  0  0  0  0  0  0
   -4.8046    1.6963   -0.6463 C   0  0  0  0  0  0  0  0  0  0  0  0
   -6.0178    1.0587   -0.6390 N   0  0  0  0  0  0  0  0  0  0  0  0
   -4.6772    2.8938   -0.8693 O   0  0  0  0  0  0  0  0  0  0  0  0
   -7.2573    1.7242   -0.9869 C   0  0  0  0  0  0  0  0  0  0  0  0
   -7.8985    1.1497   -2.2250 C   0  0  0  0  0  0  0  0  0  0  0  0
   -7.7651   -0.2041   -2.5703 C   0  0  0  0  0  0  0  0  0  0  0  0
   -8.5198   -0.7457   -3.6076 C   0  0  0  0  0  0  0  0  0  0  0  0
   -9.2338    0.1009   -4.4429 C   0  0  0  0  0  0  0  0  0  0  0  0
   -9.3243    1.4579   -4.1743 C   0  0  0  0  0  0  0  0  0  0  0  0
   -8.7300    1.9517   -3.0178 C   0  0  0  0  0  0  0  0  0  0  0  0
   -8.9711    3.2226   -2.6646 F   0  0  0  0  0  0  0  0  0  0  0  0
   -9.8260   -0.4030   -5.5326 F   0  0  0  0  0  0  0  0  0  0  0  0
    0.9960    0.6641    1.7266 H   0  0  0  0  0  0  0  0  0  0  0  0
    2.6273   -2.7283    0.3060 C   0  0  0  0  0  0  0  0  0  0  0  0
   -2.2636    2.4557   -0.4876 H   0  0  0  0  0  0  0  0  0  0  0  0
   -0.0006    2.4086    0.4120 H   0  0  0  0  0  0  0  0  0  0  0  0
    0.3630    1.5882   -1.1020 H   0  0  0  0  0  0  0  0  0  0  0  0
    1.7818   -1.7185   -1.3887 H   0  0  0  0  0  0  0  0  0  0  0  0
    3.5762   -0.5500   -1.8165 H   0  0  0  0  0  0  0  0  0  0  0  0
    4.3737   -1.1867   -0.4401 H   0  0  0  0  0  0  0  0  0  0  0  0
    4.3343    0.7035    0.6744 H   0  0  0  0  0  0  0  0  0  0  0  0
    3.9365    1.4179   -0.8623 H   0  0  0  0  0  0  0  0  0  0  0  0
   -3.5199   -2.9468    0.3071 H   0  0  0  0  0  0  0  0  0  0  0  0
   -6.0479    0.0640   -0.4212 H   0  0  0  0  0  0  0  0  0  0  0  0
   -7.9426    1.5909   -0.1419 H   0  0  0  0  0  0  0  0  0  0  0  0
   -7.0745    2.7956   -1.1133 H   0  0  0  0  0  0  0  0  0  0  0  0
   -7.0762   -0.8571   -2.0421 H   0  0  0  0  0  0  0  0  0  0  0  0
   -8.5369   -1.8182   -3.7718 H   0  0  0  0  0  0  0  0  0  0  0  0
   -9.8664    2.1150   -4.8433 H   0  0  0  0  0  0  0  0  0  0  0  0
    2.5951   -2.5692    1.3892 H   0  0  0  0  0  0  0  0  0  0  0  0
    1.9436   -3.5441    0.0512 H   0  0  0  0  0  0  0  0  0  0  0  0
    3.6253   -3.0746    0.0332 H   0  0  0  0  0  0  0  0  0  0  0  0
  1  2  1  0  0  0  0
  1  6  2  0  0  0  0
  1  7  1  0  0  0  0
  2  3  1  0  0  0  0
  2 10  1  0  0  0  0
  3  4  2  0  0  0  0
  3 32  1  0  0  0  0
  4  5  1  0  0  0  0
  4 18  1  0  0  0  0
  5  6  1  0  0  0  0
  5 17  2  0  0  0  0
  6 16  1  0  0  0  0
  7  8  1  0  0  0  0
  7 15  2  0  0  0  0
  8  9  1  0  0  0  0
  8 11  1  0  0  0  0
  9 10  1  0  0  0  0
  9 14  1  0  0  0  0
  9 30  1  1  0  0  0
 10 33  1  0  0  0  0
 10 34  1  0  0  0  0
 11 12  1  0  0  0  0
 11 35  1  6  0  0  0
 11 31  1  0  0  0  0
 12 13  1  0  0  0  0
 12 36  1  0  0  0  0
 12 37  1  0  0  0  0
 13 14  1  0  0  0  0
 13 38  1  0  0  0  0
 13 39  1  0  0  0  0
 16 40  1  0  0  0  0
 18 19  1  0  0  0  0
 18 20  2  0  0  0  0
 19 21  1  0  0  0  0
 19 41  1  0  0  0  0
 21 22  1  0  0  0  0
 21 42  1  0  0  0  0
 21 43  1  0  0  0  0
 22 23  2  0  0  0  0
 22 27  1  0  0  0  0
 23 24  1  0  0  0  0
 23 44  1  0  0  0  0
 24 25  2  0  0  0  0
 24 45  1  0  0  0  0
 25 26  1  0  0  0  0
 25 29  1  0  0  0  0
 26 27  2  0  0  0  0
 26 46  1  0  0  0  0
 27 28  1  0  0  0  0
 31 47  1  0  0  0  0
 31 48  1  0  0  0  0
 31 49  1  0  0  0  0
M  END
>  <DRUGBANK_ID>
DB08930

>  <COMMON_NAME>
Dolutegravir

>  <CAS_NUMBER>
1051375-16-6

>  <UNII>
DKO1W9H7M1

>  <SYNONYMS>
Dolutegravir

$$$$
