
 OpenBabel10282417193D

 57 59  0  0  1  0  0  0  0  0999 V2000
    2.7329   -0.2596    0.0357 C   0  0  0  0  0  0  0  0  0  0  0  0
    1.2698   -0.0262   -0.0155 C   0  0  0  0  0  0  0  0  0  0  0  0
    0.6550    1.2773   -0.0000 C   0  0  0  0  0  0  0  0  0  0  0  0
   -0.7220    1.2445   -0.1623 C   0  0  0  0  0  0  0  0  0  0  0  0
   -1.1095   -0.3237   -0.7348 S   0  0  0  0  0  0  0  0  0  0  0  0
    0.3240   -1.0255   -0.1320 C   0  0  0  0  0  0  0  0  0  0  0  0
    0.4831   -2.5249   -0.0488 C   0  0  0  0  0  0  0  0  0  0  0  0
   -0.0995   -3.1727    1.2180 C   0  0  0  0  0  0  0  0  0  0  0  0
   -1.6132   -3.0049    1.3010 C   0  0  1  0  0  0  0  0  0  0  0  0
   -2.3340   -4.2392    1.8611 C   0  0  0  0  0  0  0  0  0  0  0  0
   -3.7970   -3.9594    2.0823 C   0  0  0  0  0  0  0  0  0  0  0  0
   -4.7008   -5.0928    2.2527 C   0  0  0  0  0  0  0  0  0  0  0  0
   -4.2989   -6.2509    2.2460 O   0  0  0  0  0  0  0  0  0  0  0  0
   -6.0061   -4.7694    2.4460 N   0  0  0  0  0  0  0  0  0  0  0  0
   -6.4535   -3.4846    2.4559 C   0  0  0  0  0  0  0  0  0  0  0  0
   -5.6614   -2.4723    2.2921 N   0  0  0  0  0  0  0  0  0  0  0  0
   -4.3180   -2.7202    2.1429 C   0  0  0  0  0  0  0  0  0  0  0  0
   -3.4167   -1.6866    2.0778 N   0  0  0  0  0  0  0  0  0  0  0  0
   -1.9955   -1.8349    2.2047 C   0  0  0  0  0  0  0  0  0  0  0  0
   -7.7822   -3.3223    2.6549 N   0  0  0  0  0  0  0  0  0  0  0  0
   -1.6330    2.3968   -0.0879 C   0  0  0  0  0  0  0  0  0  0  0  0
   -1.2034    3.5525   -0.0124 O   0  0  0  0  0  0  0  0  0  0  0  0
   -3.0091    2.2826   -0.0478 N   0  0  0  0  0  0  0  0  0  0  0  0
   -3.8325    1.0858   -0.0781 C   0  0  1  0  0  0  0  0  0  0  0  0
   -4.8093    1.0299    1.0954 C   0  0  0  0  0  0  0  0  0  0  0  0
   -5.8623    2.0979    1.2313 C   0  0  0  0  0  0  0  0  0  0  0  0
   -6.9543    1.9493    0.2133 C   0  0  0  0  0  0  0  0  0  0  0  0
   -7.9214    1.2370    0.2888 O   0  0  0  0  0  0  0  0  0  0  0  0
   -6.6908    2.6392   -0.9085 O   0  0  0  0  0  0  0  0  0  0  0  0
   -4.3604    0.7224   -1.4686 C   0  0  0  0  0  0  0  0  0  0  0  0
   -4.5217   -0.4070   -1.9004 O   0  0  0  0  0  0  0  0  0  0  0  0
   -4.8053    1.7648   -2.1892 O   0  0  0  0  0  0  0  0  0  0  0  0
    3.1839    0.1797   -0.8592 H   0  0  0  0  0  0  0  0  0  0  0  0
    3.1662    0.1823    0.9328 H   0  0  0  0  0  0  0  0  0  0  0  0
    2.9792   -1.3237    0.0257 H   0  0  0  0  0  0  0  0  0  0  0  0
    1.1981    2.2094    0.1120 H   0  0  0  0  0  0  0  0  0  0  0  0
    0.0447   -2.9921   -0.9380 H   0  0  0  0  0  0  0  0  0  0  0  0
    1.5436   -2.7909   -0.0704 H   0  0  0  0  0  0  0  0  0  0  0  0
    0.1484   -4.2419    1.1906 H   0  0  0  0  0  0  0  0  0  0  0  0
    0.3804   -2.7664    2.1175 H   0  0  0  0  0  0  0  0  0  0  0  0
   -2.0120   -2.8591    0.2856 H   0  0  0  0  0  0  0  0  0  0  0  0
   -2.2104   -5.0655    1.1532 H   0  0  0  0  0  0  0  0  0  0  0  0
   -1.8815   -4.5308    2.8150 H   0  0  0  0  0  0  0  0  0  0  0  0
   -6.6315   -5.5431    2.5787 H   0  0  0  0  0  0  0  0  0  0  0  0
   -3.7957   -0.7778    1.9384 H   0  0  0  0  0  0  0  0  0  0  0  0
   -1.7526   -2.0464    3.2520 H   0  0  0  0  0  0  0  0  0  0  0  0
   -1.4852   -0.9008    1.9677 H   0  0  0  0  0  0  0  0  0  0  0  0
   -8.4208   -4.0862    2.8130 H   0  0  0  0  0  0  0  0  0  0  0  0
   -8.1539   -2.3808    2.6845 H   0  0  0  0  0  0  0  0  0  0  0  0
   -3.4806    3.1791   -0.1084 H   0  0  0  0  0  0  0  0  0  0  0  0
   -3.1971    0.2528    0.1621 H   0  0  0  0  0  0  0  0  0  0  0  0
   -5.3066    0.0535    1.0942 H   0  0  0  0  0  0  0  0  0  0  0  0
   -4.1976    1.0965    2.0111 H   0  0  0  0  0  0  0  0  0  0  0  0
   -6.3384    1.9785    2.2111 H   0  0  0  0  0  0  0  0  0  0  0  0
   -5.4167    3.0935    1.2098 H   0  0  0  0  0  0  0  0  0  0  0  0
   -7.2710    2.2336   -1.5837 H   0  0  0  0  0  0  0  0  0  0  0  0
   -5.4181    1.3439   -2.8277 H   0  0  0  0  0  0  0  0  0  0  0  0
  1  2  1  0  0  0  0
  1 33  1  0  0  0  0
  1 34  1  0  0  0  0
  1 35  1  0  0  0  0
  2  3  1  0  0  0  0
  2  6  2  0  0  0  0
  3  4  2  0  0  0  0
  3 36  1  0  0  0  0
  4  5  1  0  0  0  0
  4 21  1  0  0  0  0
  5  6  1  0  0  0  0
  6  7  1  0  0  0  0
  7  8  1  0  0  0  0
  7 37  1  0  0  0  0
  7 38  1  0  0  0  0
  8 39  1  0  0  0  0
  8 40  1  0  0  0  0
  9  8  1  0  0  0  0
  9 10  1  0  0  0  0
  9 19  1  0  0  0  0
  9 41  1  6  0  0  0
 10 11  1  0  0  0  0
 10 42  1  0  0  0  0
 10 43  1  0  0  0  0
 11 12  1  0  0  0  0
 11 17  2  0  0  0  0
 12 13  2  0  0  0  0
 12 14  1  0  0  0  0
 14 15  1  0  0  0  0
 14 44  1  0  0  0  0
 15 16  2  0  0  0  0
 15 20  1  0  0  0  0
 16 17  1  0  0  0  0
 17 18  1  0  0  0  0
 18 19  1  0  0  0  0
 18 45  1  0  0  0  0
 19 46  1  0  0  0  0
 19 47  1  0  0  0  0
 20 48  1  0  0  0  0
 20 49  1  0  0  0  0
 21 22  2  0  0  0  0
 21 23  1  0  0  0  0
 23 50  1  0  0  0  0
 24 23  1  0  0  0  0
 24 25  1  0  0  0  0
 24 30  1  0  0  0  0
 24 51  1  1  0  0  0
 25 26  1  0  0  0  0
 25 52  1  0  0  0  0
 25 53  1  0  0  0  0
 26 27  1  0  0  0  0
 26 54  1  0  0  0  0
 26 55  1  0  0  0  0
 27 28  2  0  0  0  0
 27 29  1  0  0  0  0
 29 56  1  0  0  0  0
 30 31  2  0  0  0  0
 30 32  1  0  0  0  0
 32 57  1  0  0  0  0
M  END
>  <DRUGBANK_ID>
DB12757

>  <COMMON_NAME>
Pelitrexol

>  <CAS_NUMBER>
446022-33-9

>  <UNII>
DHT6E8M4KP

>  <SYNONYMS>
Pelitrexol

$$$$
