
 OpenBabel10282417193D

 49 52  0  0  0  0  0  0  0  0999 V2000
    2.5386   -1.6243    0.0341 C   0  0  0  0  0  0  0  0  0  0  0  0
    1.6002   -0.4799    0.0154 C   0  0  0  0  0  0  0  0  0  0  0  0
    0.1826   -0.5224   -0.0038 C   0  0  0  0  0  0  0  0  0  0  0  0
   -0.7710   -1.5531   -0.0205 C   0  0  0  0  0  0  0  0  0  0  0  0
   -2.1276   -1.2173   -0.0006 C   0  0  0  0  0  0  0  0  0  0  0  0
   -2.5331    0.1194    0.0253 C   0  0  0  0  0  0  0  0  0  0  0  0
   -1.5984    1.1655    0.0229 C   0  0  0  0  0  0  0  0  0  0  0  0
   -0.2519    0.7989    0.0089 C   0  0  0  0  0  0  0  0  0  0  0  0
    0.8221    1.6460    0.0157 O   0  0  0  0  0  0  0  0  0  0  0  0
    1.9393    0.8572    0.0030 C   0  0  0  0  0  0  0  0  0  0  0  0
    3.2763    1.4955   -0.0057 C   0  0  0  0  0  0  0  0  0  0  0  0
    3.4699    2.3519   -1.1600 N   0  0  0  0  0  0  0  0  0  0  0  0
    3.8414    3.7084   -0.8393 C   0  0  0  0  0  0  0  0  0  0  0  0
    3.4454    1.7904   -2.4297 C   0  0  0  0  0  0  0  0  0  0  0  0
    3.2406    0.5900   -2.6287 O   0  0  0  0  0  0  0  0  0  0  0  0
    3.6741    2.6245   -3.6534 C   0  0  0  0  0  0  0  0  0  0  0  0
    4.0187    3.9171   -3.7393 C   0  0  0  0  0  0  0  0  0  0  0  0
    4.2250    4.6620   -4.9622 C   0  0  0  0  0  0  0  0  0  0  0  0
    3.2747    4.6109   -5.9580 C   0  0  0  0  0  0  0  0  0  0  0  0
    3.4837    5.3435   -7.1119 C   0  0  0  0  0  0  0  0  0  0  0  0
    4.6274    6.1395   -7.2150 C   0  0  0  0  0  0  0  0  0  0  0  0
    5.5307    6.2719   -6.2269 N   0  0  0  0  0  0  0  0  0  0  0  0
    5.3060    5.5300   -5.1167 C   0  0  0  0  0  0  0  0  0  0  0  0
    4.9141    6.7459   -8.4398 N   0  0  0  0  0  0  0  0  0  0  0  0
    4.1861    6.4135   -9.5537 C   0  0  0  0  0  0  0  0  0  0  0  0
    4.6755    6.3040  -10.6765 O   0  0  0  0  0  0  0  0  0  0  0  0
    2.7159    6.2549   -9.2721 C   0  0  0  0  0  0  0  0  0  0  0  0
    2.5185    5.1757   -8.2386 C   0  0  0  0  0  0  0  0  0  0  0  0
    2.3754   -2.2237    0.9338 H   0  0  0  0  0  0  0  0  0  0  0  0
    2.3994   -2.2489   -0.8513 H   0  0  0  0  0  0  0  0  0  0  0  0
    3.5832   -1.3003    0.0475 H   0  0  0  0  0  0  0  0  0  0  0  0
   -0.4548   -2.5908   -0.0433 H   0  0  0  0  0  0  0  0  0  0  0  0
   -2.8695   -2.0124   -0.0015 H   0  0  0  0  0  0  0  0  0  0  0  0
   -3.5964    0.3490    0.0485 H   0  0  0  0  0  0  0  0  0  0  0  0
   -1.9056    2.2039    0.0397 H   0  0  0  0  0  0  0  0  0  0  0  0
    3.3954    2.0642    0.9226 H   0  0  0  0  0  0  0  0  0  0  0  0
    4.0795    0.7532   -0.0155 H   0  0  0  0  0  0  0  0  0  0  0  0
    4.8501    3.8925   -1.2232 H   0  0  0  0  0  0  0  0  0  0  0  0
    3.0826    4.3709   -1.2627 H   0  0  0  0  0  0  0  0  0  0  0  0
    3.8772    3.8993    0.2329 H   0  0  0  0  0  0  0  0  0  0  0  0
    3.5476    2.0381   -4.5659 H   0  0  0  0  0  0  0  0  0  0  0  0
    4.1614    4.5740   -2.9068 H   0  0  0  0  0  0  0  0  0  0  0  0
    2.3793    4.0054   -5.8464 H   0  0  0  0  0  0  0  0  0  0  0  0
    6.0441    5.6476   -4.3248 H   0  0  0  0  0  0  0  0  0  0  0  0
    5.8392    7.1365   -8.5456 H   0  0  0  0  0  0  0  0  0  0  0  0
    2.3633    7.2206   -8.8858 H   0  0  0  0  0  0  0  0  0  0  0  0
    2.1563    6.0345  -10.1834 H   0  0  0  0  0  0  0  0  0  0  0  0
    1.4957    5.2239   -7.8476 H   0  0  0  0  0  0  0  0  0  0  0  0
    2.6731    4.1841   -8.6803 H   0  0  0  0  0  0  0  0  0  0  0  0
  1  2  1  0  0  0  0
  1 29  1  0  0  0  0
  1 30  1  0  0  0  0
  1 31  1  0  0  0  0
  2  3  1  0  0  0  0
  2 10  2  0  0  0  0
  3  4  2  0  0  0  0
  3  8  1  0  0  0  0
  4  5  1  0  0  0  0
  4 32  1  0  0  0  0
  5  6  2  0  0  0  0
  5 33  1  0  0  0  0
  6  7  1  0  0  0  0
  6 34  1  0  0  0  0
  7  8  2  0  0  0  0
  7 35  1  0  0  0  0
  8  9  1  0  0  0  0
  9 10  1  0  0  0  0
 10 11  1  0  0  0  0
 11 12  1  0  0  0  0
 11 36  1  0  0  0  0
 11 37  1  0  0  0  0
 12 13  1  0  0  0  0
 12 14  1  0  0  0  0
 13 38  1  0  0  0  0
 13 39  1  0  0  0  0
 13 40  1  0  0  0  0
 14 15  2  0  0  0  0
 14 16  1  0  0  0  0
 16 17  2  0  0  0  0
 16 41  1  0  0  0  0
 17 18  1  0  0  0  0
 17 42  1  0  0  0  0
 18 19  2  0  0  0  0
 18 23  1  0  0  0  0
 19 20  1  0  0  0  0
 19 43  1  0  0  0  0
 20 21  2  0  0  0  0
 20 28  1  0  0  0  0
 21 22  1  0  0  0  0
 21 24  1  0  0  0  0
 22 23  2  0  0  0  0
 23 44  1  0  0  0  0
 24 25  1  0  0  0  0
 24 45  1  0  0  0  0
 25 26  2  0  0  0  0
 25 27  1  0  0  0  0
 27 28  1  0  0  0  0
 27 46  1  0  0  0  0
 27 47  1  0  0  0  0
 28 48  1  0  0  0  0
 28 49  1  0  0  0  0
M  END
>  <DRUGBANK_ID>
DB12658

>  <COMMON_NAME>
AFN-1252

>  <CAS_NUMBER>
620175-39-5

>  <UNII>
T3O718IKKM

$$$$
