
 OpenBabel10282417193D

 53 56  0  0  0  0  0  0  0  0999 V2000
    0.9906    0.0829    0.1382 C   0  0  0  0  0  0  0  0  0  0  0  0
    0.5120    1.2295    0.9940 C   0  0  0  0  0  0  0  0  0  0  0  0
    0.9908    2.5145    0.4803 N   0  0  0  0  0  0  0  0  0  0  0  0
   -0.0128    3.4987    0.0671 C   0  0  0  0  0  0  0  0  0  0  0  0
    0.0344    4.7555    0.8902 C   0  0  0  0  0  0  0  0  0  0  0  0
    0.3471    5.9878    0.3025 C   0  0  0  0  0  0  0  0  0  0  0  0
    0.4304    7.1503    1.0574 C   0  0  0  0  0  0  0  0  0  0  0  0
    0.0747    7.1100    2.3975 C   0  0  0  0  0  0  0  0  0  0  0  0
   -0.2974    5.8998    2.9850 C   0  0  0  0  0  0  0  0  0  0  0  0
   -0.2471    4.7151    2.2544 C   0  0  0  0  0  0  0  0  0  0  0  0
    2.3725    2.6905    0.3569 C   0  0  0  0  0  0  0  0  0  0  0  0
    3.1821    1.8797    0.8203 O   0  0  0  0  0  0  0  0  0  0  0  0
    2.9072    3.9597   -0.2946 C   0  0  0  0  0  0  0  0  0  0  0  0
    2.4908    4.2135   -1.6504 N   0  0  0  0  0  0  0  0  0  0  0  0
    2.0442    3.2677   -2.6019 C   0  0  0  0  0  0  0  0  0  0  0  0
    1.6870    3.9825   -3.7239 C   0  0  0  0  0  0  0  0  0  0  0  0
    1.1937    3.2829   -4.7801 C   0  0  0  0  0  0  0  0  0  0  0  0
    1.0428    1.9426   -4.7328 N   0  0  0  0  0  0  0  0  0  0  0  0
    1.3843    1.3171   -3.5799 C   0  0  0  0  0  0  0  0  0  0  0  0
    1.8939    1.9396   -2.4809 N   0  0  0  0  0  0  0  0  0  0  0  0
    1.2215   -0.1546   -3.5712 C   0  0  0  0  0  0  0  0  0  0  0  0
    1.9968   -0.9747   -4.4018 C   0  0  0  0  0  0  0  0  0  0  0  0
    1.9145   -2.3739   -4.3268 C   0  0  0  0  0  0  0  0  0  0  0  0
    1.1019   -2.9846   -3.3749 C   0  0  0  0  0  0  0  0  0  0  0  0
    0.3148   -2.1963   -2.5526 C   0  0  0  0  0  0  0  0  0  0  0  0
    0.2909   -0.8110   -2.7483 C   0  0  0  0  0  0  0  0  0  0  0  0
    1.9145    5.3413   -3.5092 N   0  0  0  0  0  0  0  0  0  0  0  0
    2.4583    5.4945   -2.2284 C   0  0  0  0  0  0  0  0  0  0  0  0
    2.7838    6.5601   -1.7064 O   0  0  0  0  0  0  0  0  0  0  0  0
    1.6378    6.4122   -4.4169 C   0  0  0  0  0  0  0  0  0  0  0  0
    0.6945    0.3693   -0.8524 H   0  0  0  0  0  0  0  0  0  0  0  0
    0.5334   -0.8728    0.4027 H   0  0  0  0  0  0  0  0  0  0  0  0
    2.0731   -0.0495    0.0912 H   0  0  0  0  0  0  0  0  0  0  0  0
   -0.5848    1.2194    0.9749 H   0  0  0  0  0  0  0  0  0  0  0  0
    0.8454    1.1010    2.0235 H   0  0  0  0  0  0  0  0  0  0  0  0
    0.0923    3.7254   -0.9948 H   0  0  0  0  0  0  0  0  0  0  0  0
   -1.0217    3.0788    0.1555 H   0  0  0  0  0  0  0  0  0  0  0  0
    0.5664    6.0538   -0.7541 H   0  0  0  0  0  0  0  0  0  0  0  0
    0.7506    8.0764    0.5860 H   0  0  0  0  0  0  0  0  0  0  0  0
    0.0820    8.0233    2.9832 H   0  0  0  0  0  0  0  0  0  0  0  0
   -0.6349    5.8782    4.0158 H   0  0  0  0  0  0  0  0  0  0  0  0
   -0.4437    3.7638    2.7428 H   0  0  0  0  0  0  0  0  0  0  0  0
    2.6575    4.8072    0.3535 H   0  0  0  0  0  0  0  0  0  0  0  0
    4.0024    3.9381   -0.2862 H   0  0  0  0  0  0  0  0  0  0  0  0
    0.9024    3.7561   -5.7072 H   0  0  0  0  0  0  0  0  0  0  0  0
    2.6697   -0.5214   -5.1255 H   0  0  0  0  0  0  0  0  0  0  0  0
    2.5082   -2.9882   -4.9974 H   0  0  0  0  0  0  0  0  0  0  0  0
    1.0618   -4.0672   -3.2885 H   0  0  0  0  0  0  0  0  0  0  0  0
   -0.2752   -2.6477   -1.7576 H   0  0  0  0  0  0  0  0  0  0  0  0
   -0.4517   -0.2374   -2.1993 H   0  0  0  0  0  0  0  0  0  0  0  0
    0.9047    7.0881   -3.9641 H   0  0  0  0  0  0  0  0  0  0  0  0
    2.5635    6.9689   -4.5827 H   0  0  0  0  0  0  0  0  0  0  0  0
    1.2528    6.0387   -5.3673 H   0  0  0  0  0  0  0  0  0  0  0  0
  1  2  1  0  0  0  0
  1 31  1  0  0  0  0
  1 32  1  0  0  0  0
  1 33  1  0  0  0  0
  2  3  1  0  0  0  0
  2 34  1  0  0  0  0
  2 35  1  0  0  0  0
  3  4  1  0  0  0  0
  3 11  1  0  0  0  0
  4  5  1  0  0  0  0
  4 36  1  0  0  0  0
  4 37  1  0  0  0  0
  5  6  2  0  0  0  0
  5 10  1  0  0  0  0
  6  7  1  0  0  0  0
  6 38  1  0  0  0  0
  7  8  2  0  0  0  0
  7 39  1  0  0  0  0
  8  9  1  0  0  0  0
  8 40  1  0  0  0  0
  9 10  2  0  0  0  0
  9 41  1  0  0  0  0
 10 42  1  0  0  0  0
 11 12  2  0  0  0  0
 11 13  1  0  0  0  0
 13 14  1  0  0  0  0
 13 43  1  0  0  0  0
 13 44  1  0  0  0  0
 14 15  1  0  0  0  0
 14 28  1  0  0  0  0
 15 16  1  0  0  0  0
 15 20  2  0  0  0  0
 16 17  2  0  0  0  0
 16 27  1  0  0  0  0
 17 18  1  0  0  0  0
 17 45  1  0  0  0  0
 18 19  2  0  0  0  0
 19 20  1  0  0  0  0
 19 21  1  0  0  0  0
 21 22  2  0  0  0  0
 21 26  1  0  0  0  0
 22 23  1  0  0  0  0
 22 46  1  0  0  0  0
 23 24  2  0  0  0  0
 23 47  1  0  0  0  0
 24 25  1  0  0  0  0
 24 48  1  0  0  0  0
 25 26  2  0  0  0  0
 25 49  1  0  0  0  0
 26 50  1  0  0  0  0
 27 28  1  0  0  0  0
 27 30  1  0  0  0  0
 28 29  2  0  0  0  0
 30 51  1  0  0  0  0
 30 52  1  0  0  0  0
 30 53  1  0  0  0  0
M  END
>  <DRUGBANK_ID>
DB12666

>  <COMMON_NAME>
Emapunil

>  <CAS_NUMBER>
226954-04-7

>  <UNII>
OG837L732J

>  <SYNONYMS>
Emapunil

$$$$
