
 OpenBabel10282417233D

 51 53  0  0  0  0  0  0  0  0999 V2000
    1.0168   -0.0696    0.0147 C   0  0  0  0  0  0  0  0  0  0  0  0
    0.4940   -0.1164   -1.3080 O   0  0  0  0  0  0  0  0  0  0  0  0
    0.9714    0.8951   -2.0920 C   0  0  0  0  0  0  0  0  0  0  0  0
    2.3246    1.2171   -2.1782 C   0  0  0  0  0  0  0  0  0  0  0  0
    2.7715    2.2147   -3.0456 C   0  0  0  0  0  0  0  0  0  0  0  0
    1.8767    2.8626   -3.8893 C   0  0  0  0  0  0  0  0  0  0  0  0
    2.2310    3.8145   -4.8084 O   0  0  0  0  0  0  0  0  0  0  0  0
    3.5719    4.2891   -4.7508 C   0  0  0  0  0  0  0  0  0  0  0  0
    0.5339    2.4387   -3.8910 C   0  0  0  0  0  0  0  0  0  0  0  0
   -0.3482    2.7379   -5.0683 C   0  0  0  0  0  0  0  0  0  0  0  0
   -0.8293    1.5101   -5.7502 N   0  0  0  0  0  0  0  0  0  0  0  0
   -2.1743    1.1160   -5.7409 C   0  0  0  0  0  0  0  0  0  0  0  0
   -2.5765    0.0356   -6.2101 O   0  0  0  0  0  0  0  0  0  0  0  0
   -3.1881    2.0832   -5.1556 C   0  0  0  0  0  0  0  0  0  0  0  0
   -3.1062    2.1784   -3.8013 F   0  0  0  0  0  0  0  0  0  0  0  0
    0.1166    0.7478   -6.5374 C   0  0  0  0  0  0  0  0  0  0  0  0
    1.2914    0.2605   -5.9268 C   0  0  0  0  0  0  0  0  0  0  0  0
    2.1700   -0.6256   -6.5473 C   0  0  0  0  0  0  0  0  0  0  0  0
    1.8686   -1.0868   -7.8119 C   0  0  0  0  0  0  0  0  0  0  0  0
    0.7227   -0.6062   -8.4594 C   0  0  0  0  0  0  0  0  0  0  0  0
   -0.1206    0.3687   -7.8706 C   0  0  0  0  0  0  0  0  0  0  0  0
   -1.1097    0.8436   -8.7238 O   0  0  0  0  0  0  0  0  0  0  0  0
   -1.8043    2.0120   -8.4746 C   0  0  0  0  0  0  0  0  0  0  0  0
   -1.2225    3.2253   -8.0974 C   0  0  0  0  0  0  0  0  0  0  0  0
   -2.0321    4.2936   -7.6737 C   0  0  0  0  0  0  0  0  0  0  0  0
   -3.4241    4.1929   -7.7378 C   0  0  0  0  0  0  0  0  0  0  0  0
   -4.0083    3.0131   -8.1981 C   0  0  0  0  0  0  0  0  0  0  0  0
   -3.2008    1.9229   -8.5437 C   0  0  0  0  0  0  0  0  0  0  0  0
    0.0672    1.5146   -2.9381 C   0  0  0  0  0  0  0  0  0  0  0  0
    0.6188   -0.9231    0.5679 H   0  0  0  0  0  0  0  0  0  0  0  0
    0.6949    0.8529    0.5079 H   0  0  0  0  0  0  0  0  0  0  0  0
    2.1069   -0.1556    0.0387 H   0  0  0  0  0  0  0  0  0  0  0  0
    3.0658    0.6708   -1.6080 H   0  0  0  0  0  0  0  0  0  0  0  0
    3.8378    2.4010   -3.0904 H   0  0  0  0  0  0  0  0  0  0  0  0
    3.8196    4.6562   -3.7491 H   0  0  0  0  0  0  0  0  0  0  0  0
    4.2702    3.5089   -5.0712 H   0  0  0  0  0  0  0  0  0  0  0  0
    3.6684    5.1292   -5.4448 H   0  0  0  0  0  0  0  0  0  0  0  0
   -1.1708    3.3663   -4.7243 H   0  0  0  0  0  0  0  0  0  0  0  0
    0.1859    3.3360   -5.8119 H   0  0  0  0  0  0  0  0  0  0  0  0
   -3.0538    3.0872   -5.5470 H   0  0  0  0  0  0  0  0  0  0  0  0
   -4.2005    1.7699   -5.4314 H   0  0  0  0  0  0  0  0  0  0  0  0
    1.5321    0.4778   -4.9010 H   0  0  0  0  0  0  0  0  0  0  0  0
    3.0410   -0.9873   -6.0042 H   0  0  0  0  0  0  0  0  0  0  0  0
    2.5194   -1.8191   -8.2832 H   0  0  0  0  0  0  0  0  0  0  0  0
    0.4785   -1.0160   -9.4365 H   0  0  0  0  0  0  0  0  0  0  0  0
   -0.1435    3.3050   -7.9961 H   0  0  0  0  0  0  0  0  0  0  0  0
   -1.5803    5.1712   -7.2127 H   0  0  0  0  0  0  0  0  0  0  0  0
   -4.0514    4.9909   -7.3430 H   0  0  0  0  0  0  0  0  0  0  0  0
   -5.0905    2.9057   -8.2002 H   0  0  0  0  0  0  0  0  0  0  0  0
   -3.6605    0.9564   -8.7431 H   0  0  0  0  0  0  0  0  0  0  0  0
   -0.9737    1.1937   -2.9458 H   0  0  0  0  0  0  0  0  0  0  0  0
  1  2  1  0  0  0  0
  1 30  1  0  0  0  0
  1 31  1  0  0  0  0
  1 32  1  0  0  0  0
  2  3  1  0  0  0  0
  3  4  2  0  0  0  0
  3 29  1  0  0  0  0
  4  5  1  0  0  0  0
  4 33  1  0  0  0  0
  5  6  2  0  0  0  0
  5 34  1  0  0  0  0
  6  7  1  0  0  0  0
  6  9  1  0  0  0  0
  7  8  1  0  0  0  0
  8 35  1  0  0  0  0
  8 36  1  0  0  0  0
  8 37  1  0  0  0  0
  9 10  1  0  0  0  0
  9 29  2  0  0  0  0
 10 11  1  0  0  0  0
 10 38  1  0  0  0  0
 10 39  1  0  0  0  0
 11 12  1  0  0  0  0
 11 16  1  0  0  0  0
 12 13  2  0  0  0  0
 12 14  1  0  0  0  0
 14 15  1  0  0  0  0
 14 40  1  0  0  0  0
 14 41  1  0  0  0  0
 16 17  2  0  0  0  0
 16 21  1  0  0  0  0
 17 18  1  0  0  0  0
 17 42  1  0  0  0  0
 18 19  2  0  0  0  0
 18 43  1  0  0  0  0
 19 20  1  0  0  0  0
 19 44  1  0  0  0  0
 20 21  2  0  0  0  0
 20 45  1  0  0  0  0
 21 22  1  0  0  0  0
 22 23  1  0  0  0  0
 23 24  2  0  0  0  0
 23 28  1  0  0  0  0
 24 25  1  0  0  0  0
 24 46  1  0  0  0  0
 25 26  2  0  0  0  0
 25 47  1  0  0  0  0
 26 27  1  0  0  0  0
 26 48  1  0  0  0  0
 27 28  2  0  0  0  0
 27 49  1  0  0  0  0
 28 50  1  0  0  0  0
 29 51  1  0  0  0  0
M  ISO  1  15  18
M  END
>  <DRUGBANK_ID>
DB17020

>  <COMMON_NAME>
PBR-06 F-18

>  <CAS_NUMBER>
1003581-94-9

>  <UNII>
41TIZ5663Z

>  <SYNONYMS>
Acetamide, n-((2,5-dimethoxyphenyl)methyl)-2-(fluoro-18f)-n-(2-phenoxyphenyl)-

$$$$
