
 OpenBabel10282417143D

 26 27  0  0  0  0  0  0  0  0999 V2000
   -1.4284   -3.2731    0.0069 N   0  0  0  0  0  0  0  0  0  0  0  0
   -2.3938   -2.7819    0.9003 C   0  0  0  0  0  0  0  0  0  0  0  0
   -3.6995   -3.2102    0.7610 N   0  0  0  0  0  0  0  0  0  0  0  0
   -0.0335   -2.8217    0.1622 C   0  0  1  0  0  0  0  0  0  0  0  0
   -1.7749   -4.2366   -0.9165 C   0  0  0  0  0  0  0  0  0  0  0  0
    0.4533   -3.2221    1.4547 O   0  0  0  0  0  0  0  0  0  0  0  0
   -2.9581   -4.8363   -0.8826 C   0  0  0  0  0  0  0  0  0  0  0  0
   -3.9760   -4.1830   -0.0508 C   0  0  0  0  0  0  0  0  0  0  0  0
    1.2899   -4.7058   -0.1446 O   0  0  0  0  0  0  0  0  0  0  0  0
    1.2854   -4.3682    1.2495 C   0  0  2  0  0  0  0  0  0  0  0  0
   -2.1009   -1.9643    1.7793 O   0  0  0  0  0  0  0  0  0  0  0  0
    1.0035   -3.4463   -0.7682 C   0  0  0  0  0  0  0  0  0  0  0  0
   -5.2682   -4.6002   -0.1803 N   0  0  0  0  0  0  0  0  0  0  0  0
    1.5547   -5.6058    3.3570 O   0  0  0  0  0  0  0  0  0  0  0  0
    0.8214   -5.5431    2.1263 C   0  0  0  0  0  0  0  0  0  0  0  0
   -0.0183   -1.7280    0.0986 H   0  0  0  0  0  0  0  0  0  0  0  0
   -1.0529   -4.5597   -1.6525 H   0  0  0  0  0  0  0  0  0  0  0  0
   -3.2044   -5.6960   -1.4860 H   0  0  0  0  0  0  0  0  0  0  0  0
    2.3107   -4.0892    1.5238 H   0  0  0  0  0  0  0  0  0  0  0  0
    0.6906   -3.5916   -1.8039 H   0  0  0  0  0  0  0  0  0  0  0  0
    1.9334   -2.8684   -0.7847 H   0  0  0  0  0  0  0  0  0  0  0  0
   -5.5475   -5.2594   -0.8944 H   0  0  0  0  0  0  0  0  0  0  0  0
   -5.9940   -4.0351    0.2430 H   0  0  0  0  0  0  0  0  0  0  0  0
    2.4996   -5.6637    3.1345 H   0  0  0  0  0  0  0  0  0  0  0  0
   -0.2348   -5.4351    2.3941 H   0  0  0  0  0  0  0  0  0  0  0  0
    0.9535   -6.5019    1.6172 H   0  0  0  0  0  0  0  0  0  0  0  0
  2  1  1  0  0  0  0
  3  2  1  0  0  0  0
  4 16  1  6  0  0  0
  4  1  1  0  0  0  0
  5  1  1  0  0  0  0
  5 17  1  0  0  0  0
  6  4  1  0  0  0  0
  7  5  2  0  0  0  0
  7 18  1  0  0  0  0
  8  7  1  0  0  0  0
  8  3  2  0  0  0  0
  9 12  1  0  0  0  0
 10  6  1  0  0  0  0
 10  9  1  0  0  0  0
 10 19  1  1  0  0  0
 10 15  1  0  0  0  0
 11  2  2  0  0  0  0
 12  4  1  0  0  0  0
 12 20  1  0  0  0  0
 12 21  1  0  0  0  0
 13  8  1  0  0  0  0
 13 22  1  0  0  0  0
 13 23  1  0  0  0  0
 14 15  1  0  0  0  0
 14 24  1  0  0  0  0
 15 25  1  0  0  0  0
 15 26  1  0  0  0  0
M  END
>  <DRUGBANK_ID>
DB04961

>  <COMMON_NAME>
Troxacitabine

>  <CAS_NUMBER>
145918-75-8

>  <UNII>
60KQZ0388Y

>  <SYNONYMS>
(-)-ODDC; Troxacitabina; Troxacitabine; Troxacitabinum

$$$$
