1173
 OpenBabel10282417113D

 43 44  0  0  1  0  0  0  0  0999 V2000
    1.1084   -0.0947   -0.3251 O   0  0  0  0  0  0  0  0  0  0  0  0
    2.4446   -1.8748    1.6483 N   0  0  0  0  0  0  0  0  0  0  0  0
    0.5206    0.5105   -1.4656 C   0  0  3  0  0  0  0  0  0  0  0  0
    0.6968    2.0337   -1.4674 C   0  0  0  0  0  0  0  0  0  0  0  0
   -0.9541    0.0649   -1.5759 C   0  0  0  0  0  0  0  0  0  0  0  0
    2.5321   -0.1721   -0.2593 C   0  0  0  0  0  0  0  0  0  0  0  0
    1.0721    2.8265   -0.3564 C   0  0  0  0  0  0  0  0  0  0  0  0
    2.9426   -0.5581    1.1898 C   0  0  0  0  0  0  0  0  0  0  0  0
    0.4877    2.6942   -2.7004 C   0  0  0  0  0  0  0  0  0  0  0  0
   -1.6658    0.2619   -2.7696 C   0  0  0  0  0  0  0  0  0  0  0  0
   -1.6393   -0.5984   -0.5389 C   0  0  0  0  0  0  0  0  0  0  0  0
    1.2974    4.2022   -0.5430 C   0  0  0  0  0  0  0  0  0  0  0  0
    1.3344    2.3401    1.0422 C   0  0  0  0  0  0  0  0  0  0  0  0
    0.6063    4.0727   -2.8346 C   0  0  0  0  0  0  0  0  0  0  0  0
    1.0442    4.8232   -1.7599 C   0  0  0  0  0  0  0  0  0  0  0  0
   -2.9857   -0.1554   -2.9327 C   0  0  0  0  0  0  0  0  0  0  0  0
   -2.9296   -1.1084   -0.7320 C   0  0  0  0  0  0  0  0  0  0  0  0
    2.9615   -2.1722    2.9817 C   0  0  0  0  0  0  0  0  0  0  0  0
    0.9801   -1.9211    1.7132 C   0  0  0  0  0  0  0  0  0  0  0  0
   -3.6125   -0.8694   -1.9158 C   0  0  0  0  0  0  0  0  0  0  0  0
    1.0332    0.0863   -2.3416 H   0  0  0  0  0  0  0  0  0  0  0  0
    2.9056   -0.9072   -0.9763 H   0  0  0  0  0  0  0  0  0  0  0  0
    2.9851    0.7960   -0.5049 H   0  0  0  0  0  0  0  0  0  0  0  0
    4.0393   -0.5411    1.2321 H   0  0  0  0  0  0  0  0  0  0  0  0
    2.6105    0.2044    1.9055 H   0  0  0  0  0  0  0  0  0  0  0  0
    0.2245    2.1385   -3.5944 H   0  0  0  0  0  0  0  0  0  0  0  0
   -1.2035    0.7468   -3.6227 H   0  0  0  0  0  0  0  0  0  0  0  0
   -1.1750   -0.7432    0.4277 H   0  0  0  0  0  0  0  0  0  0  0  0
    1.6712    4.7982    0.2866 H   0  0  0  0  0  0  0  0  0  0  0  0
    2.4164    2.3429    1.2272 H   0  0  0  0  0  0  0  0  0  0  0  0
    0.8589    2.9881    1.7817 H   0  0  0  0  0  0  0  0  0  0  0  0
    0.9194    1.3593    1.2559 H   0  0  0  0  0  0  0  0  0  0  0  0
    0.3738    4.5448   -3.7840 H   0  0  0  0  0  0  0  0  0  0  0  0
    1.1919    5.8924   -1.8633 H   0  0  0  0  0  0  0  0  0  0  0  0
   -3.5067    0.0570   -3.8590 H   0  0  0  0  0  0  0  0  0  0  0  0
   -3.4010   -1.7007    0.0523 H   0  0  0  0  0  0  0  0  0  0  0  0
    2.6057   -1.4569    3.7331 H   0  0  0  0  0  0  0  0  0  0  0  0
    2.6401   -3.1753    3.2813 H   0  0  0  0  0  0  0  0  0  0  0  0
    4.0547   -2.1709    2.9826 H   0  0  0  0  0  0  0  0  0  0  0  0
    0.5580   -1.1086    2.3206 H   0  0  0  0  0  0  0  0  0  0  0  0
    0.5460   -1.9059    0.7170 H   0  0  0  0  0  0  0  0  0  0  0  0
    0.6300   -2.8731    2.1220 H   0  0  0  0  0  0  0  0  0  0  0  0
   -4.6246   -1.2332   -2.0569 H   0  0  0  0  0  0  0  0  0  0  0  0
  1  3  1  0  0  0  0
  1  6  1  0  0  0  0
  2  8  1  0  0  0  0
  2 18  1  0  0  0  0
  2 19  1  0  0  0  0
  3  4  1  0  0  0  0
  3  5  1  0  0  0  0
  3 21  1  0  0  0  0
  4  7  1  0  0  0  0
  4  9  2  0  0  0  0
  5 10  2  0  0  0  0
  5 11  1  0  0  0  0
  6  8  1  0  0  0  0
  6 22  1  0  0  0  0
  6 23  1  0  0  0  0
  7 12  2  0  0  0  0
  7 13  1  0  0  0  0
  8 24  1  0  0  0  0
  8 25  1  0  0  0  0
  9 14  1  0  0  0  0
  9 26  1  0  0  0  0
 10 16  1  0  0  0  0
 10 27  1  0  0  0  0
 11 17  2  0  0  0  0
 11 28  1  0  0  0  0
 12 15  1  0  0  0  0
 12 29  1  0  0  0  0
 13 30  1  0  0  0  0
 13 31  1  0  0  0  0
 13 32  1  0  0  0  0
 14 15  2  0  0  0  0
 14 33  1  0  0  0  0
 15 34  1  0  0  0  0
 16 20  2  0  0  0  0
 16 35  1  0  0  0  0
 17 20  1  0  0  0  0
 17 36  1  0  0  0  0
 18 37  1  0  0  0  0
 18 38  1  0  0  0  0
 18 39  1  0  0  0  0
 19 40  1  0  0  0  0
 19 41  1  0  0  0  0
 19 42  1  0  0  0  0
 20 43  1  0  0  0  0
M  END
>  <DRUGBANK_ID>
DB01173

>  <SECONDARY_ACCESSION_NUMBERS>
APRD00097

>  <COMMON_NAME>
Orphenadrine

>  <CAS_NUMBER>
83-98-7

>  <UNII>
AL805O9OG9

>  <SYNONYMS>
2-(phenyl-o-tolylmethoxy)ethyldimethylamine; 2-methyldiphenhydramine; beta-Dimethylaminoethyl 2-methylbenzhydryl ether; Dimethyl-[2-(phenyl-o-tolyl-methoxy)-ethyl]-amine; N,N-Dimethyl-2-(alpha-2-tolylbenzoyloxy)ethylamine; N,N-dimethyl-2-(phenyl(o-tolyl)methoxy)ethanamine; N,N-dimethyl-2-[(o-methyl-α-phenylbenzyl)oxy]ethylamine; o-methyldiphenhydramine; o-monomethyldiphenhydramine; Orfenadrina; Orphenadrine; Orphenadrinum; phenyl-o-tolylmethyl dimethyaminoethyl ether; β-dimethylaminoethyl 2-methylbenzhydryl ether

$$$$
