
 OpenBabel10282417133D

 22 23  0  0  0  0  0  0  0  0999 V2000
    1.0605    0.0117    0.0680 N   0  0  0  0  0  0  0  0  0  0  0  0
    0.3831    1.1707   -0.2588 C   0  0  0  0  0  0  0  0  0  0  0  0
    0.8107    1.9739   -1.3208 C   0  0  0  0  0  0  0  0  0  0  0  0
    0.1402    3.1562   -1.6696 C   0  0  0  0  0  0  0  0  0  0  0  0
    0.6111    3.9090   -2.7371 N   0  0  0  0  0  0  0  0  0  0  0  0
   -0.9798    3.5459   -0.9093 C   0  0  0  0  0  0  0  0  0  0  0  0
   -1.7203    4.7930   -1.2279 C   0  0  0  0  0  0  0  0  0  0  0  0
   -1.4083    5.5330   -2.1592 O   0  0  0  0  0  0  0  0  0  0  0  0
   -2.7946    5.1043   -0.4341 N   0  0  0  0  0  0  0  0  0  0  0  0
   -3.1998    4.3213    0.6277 N   0  0  0  0  0  0  0  0  0  0  0  0
   -2.5687    3.1549    0.9752 C   0  0  0  0  0  0  0  0  0  0  0  0
   -2.9551    2.4803    1.9265 O   0  0  0  0  0  0  0  0  0  0  0  0
   -1.4083    2.7503    0.1573 C   0  0  0  0  0  0  0  0  0  0  0  0
   -0.7362    1.5607    0.4716 C   0  0  0  0  0  0  0  0  0  0  0  0
    0.5515   -0.8155    0.3528 H   0  0  0  0  0  0  0  0  0  0  0  0
    2.0575   -0.0613   -0.0840 H   0  0  0  0  0  0  0  0  0  0  0  0
    1.6700    1.6595   -1.9082 H   0  0  0  0  0  0  0  0  0  0  0  0
    0.1015    4.7628   -2.9790 H   0  0  0  0  0  0  0  0  0  0  0  0
    1.3967    3.6337   -3.3054 H   0  0  0  0  0  0  0  0  0  0  0  0
   -3.3013    5.9573   -0.6499 H   0  0  0  0  0  0  0  0  0  0  0  0
   -4.0017    4.6101    1.1795 H   0  0  0  0  0  0  0  0  0  0  0  0
   -1.0680    0.9567    1.3145 H   0  0  0  0  0  0  0  0  0  0  0  0
  1  2  1  0  0  0  0
  1 15  1  0  0  0  0
  1 16  1  0  0  0  0
  2  3  2  0  0  0  0
  2 14  1  0  0  0  0
  3  4  1  0  0  0  0
  3 17  1  0  0  0  0
  4  5  1  0  0  0  0
  4  6  2  0  0  0  0
  5 18  1  0  0  0  0
  5 19  1  0  0  0  0
  6  7  1  0  0  0  0
  6 13  1  0  0  0  0
  7  8  2  0  0  0  0
  7  9  1  0  0  0  0
  9 10  1  0  0  0  0
  9 20  1  0  0  0  0
 10 11  1  0  0  0  0
 10 21  1  0  0  0  0
 11 12  2  0  0  0  0
 11 13  1  0  0  0  0
 13 14  2  0  0  0  0
 14 22  1  0  0  0  0
M  END
>  <DRUGBANK_ID>
DB04169

>  <SECONDARY_ACCESSION_NUMBERS>
EXPT01263

>  <COMMON_NAME>
3,5-Diaminophthalhydrazide

$$$$
