
 OpenBabel10282417133D

 18 17  0  0  1  0  0  0  0  0999 V2000
    3.1487   -2.8232    0.3228 O   0  0  0  0  0  0  0  0  0  0  0  0
    2.5407   -1.9129    1.2447 C   0  0  0  0  0  0  0  0  0  0  0  0
    1.0109   -2.0546    1.3009 C   0  0  2  0  0  0  0  0  0  0  0  0
    0.4285   -0.7383    1.3062 O   0  0  0  0  0  0  0  0  0  0  0  0
    0.4971   -2.7953    2.5508 C   0  0  1  0  0  0  0  0  0  0  0  0
   -0.9432   -2.7592    2.5113 O   0  0  0  0  0  0  0  0  0  0  0  0
    0.9316   -4.2632    2.6489 C   0  0  0  0  0  0  0  0  0  0  0  0
    2.3282   -4.4315    2.8330 O   0  0  0  0  0  0  0  0  0  0  0  0
    2.4791   -3.3994   -0.0778 H   0  0  0  0  0  0  0  0  0  0  0  0
    2.9999   -2.1002    2.2194 H   0  0  0  0  0  0  0  0  0  0  0  0
    2.8328   -0.8969    0.9581 H   0  0  0  0  0  0  0  0  0  0  0  0
    0.6331   -2.5489    0.3978 H   0  0  0  0  0  0  0  0  0  0  0  0
   -0.5285   -0.8683    1.1599 H   0  0  0  0  0  0  0  0  0  0  0  0
    0.8121   -2.2554    3.4527 H   0  0  0  0  0  0  0  0  0  0  0  0
   -1.2094   -1.9162    2.9222 H   0  0  0  0  0  0  0  0  0  0  0  0
    0.4372   -4.7182    3.5150 H   0  0  0  0  0  0  0  0  0  0  0  0
    0.6039   -4.8363    1.7747 H   0  0  0  0  0  0  0  0  0  0  0  0
    2.7767   -4.3736    1.9694 H   0  0  0  0  0  0  0  0  0  0  0  0
  1  2  1  0  0  0  0
  1  9  1  0  0  0  0
  2 10  1  0  0  0  0
  2 11  1  0  0  0  0
  3  5  1  0  0  0  0
  3 12  1  6  0  0  0
  3  4  1  0  0  0  0
  3  2  1  0  0  0  0
  4 13  1  0  0  0  0
  5  6  1  0  0  0  0
  5  7  1  0  0  0  0
  5 14  1  1  0  0  0
  6 15  1  0  0  0  0
  7  8  1  0  0  0  0
  7 16  1  0  0  0  0
  7 17  1  0  0  0  0
  8 18  1  0  0  0  0
M  END
>  <DRUGBANK_ID>
DB03278

>  <SECONDARY_ACCESSION_NUMBERS>
EXPT01285

>  <COMMON_NAME>
D-Treitol

$$$$
