
 OpenBabel10282417123D

 45 47  0  0  1  0  0  0  0  0999 V2000
    1.1474   -0.0193    0.8232 C   0  0  0  0  0  0  0  0  0  0  0  0
   -0.7458    9.0769    1.4860 C   0  0  0  0  0  0  0  0  0  0  0  0
    0.3676    8.2757    1.2495 C   0  0  0  0  0  0  0  0  0  0  0  0
   -1.8065    9.1469    0.5686 C   0  0  0  0  0  0  0  0  0  0  0  0
    0.0291    5.7286   -2.5316 C   0  0  0  0  0  0  0  0  0  0  0  0
   -2.0715    7.2760   -2.5317 C   0  0  0  0  0  0  0  0  0  0  0  0
   -0.2390    0.8410   -1.6266 C   0  0  0  0  0  0  0  0  0  0  0  0
    0.4495    0.9170    1.7370 C   0  0  1  0  0  0  0  0  0  0  0  0
   -0.8870    6.7851   -2.0048 C   0  0  0  0  0  0  0  0  0  0  0  0
    0.4370    7.5168    0.0926 C   0  0  0  0  0  0  0  0  0  0  0  0
   -1.7216    8.3527   -0.5818 C   0  0  0  0  0  0  0  0  0  0  0  0
    0.0706    4.4322   -1.7242 C   0  0  0  0  0  0  0  0  0  0  0  0
    0.9802   -0.0555   -1.9220 C   0  0  0  0  0  0  0  0  0  0  0  0
   -0.6304    7.5194   -0.8179 C   0  0  0  0  0  0  0  0  0  0  0  0
    0.9065    2.3556    1.3571 C   0  0  1  0  0  0  0  0  0  0  0  0
    0.4214    2.9459   -0.0825 C   0  0  0  0  0  0  0  0  0  0  0  0
   -0.2900    3.2077   -2.2243 C   0  0  0  0  0  0  0  0  0  0  0  0
    1.5414    6.7967   -0.1489 F   0  0  0  0  0  0  0  0  0  0  0  0
    0.4912    3.1232    2.5390 N   0  0  0  0  0  0  0  0  0  0  0  0
   -2.5804    8.1983   -1.6468 N   0  0  0  0  0  0  0  0  0  0  0  0
    0.5021    4.2534   -0.3995 N   0  0  0  0  0  0  0  0  0  0  0  0
    0.0106    2.2580   -1.2644 N   0  0  0  0  0  0  0  0  0  0  0  0
   -0.9721    0.7563    1.6413 O   0  0  0  0  0  0  0  0  0  0  0  0
    1.0309   -1.2508   -1.7375 O   0  0  0  0  0  0  0  0  0  0  0  0
    2.1302    0.6083   -2.1911 O   0  0  0  0  0  0  0  0  0  0  0  0
   -0.7997    2.8437   -3.3967 O   0  0  0  0  0  0  0  0  0  0  0  0
    0.7385    0.5934    2.7446 H   0  0  0  0  0  0  0  0  0  0  0  0
    2.0085    2.3717    1.3396 H   0  0  0  0  0  0  0  0  0  0  0  0
    1.2457    0.6104   -0.0245 H   0  0  0  0  0  0  0  0  0  0  0  0
    0.5537   -0.9034    0.5940 H   0  0  0  0  0  0  0  0  0  0  0  0
    2.2067   -0.2150    0.9743 H   0  0  0  0  0  0  0  0  0  0  0  0
   -0.7846    9.6646    2.3989 H   0  0  0  0  0  0  0  0  0  0  0  0
    1.1918    8.2224    1.9514 H   0  0  0  0  0  0  0  0  0  0  0  0
   -2.6628    9.7847    0.7603 H   0  0  0  0  0  0  0  0  0  0  0  0
    1.0344    6.1388   -2.6919 H   0  0  0  0  0  0  0  0  0  0  0  0
   -0.3277    5.4972   -3.5463 H   0  0  0  0  0  0  0  0  0  0  0  0
   -2.6139    7.0409   -3.4399 H   0  0  0  0  0  0  0  0  0  0  0  0
   -0.8813    0.4314   -0.8448 H   0  0  0  0  0  0  0  0  0  0  0  0
   -0.8445    0.8008   -2.5346 H   0  0  0  0  0  0  0  0  0  0  0  0
    0.7780    4.0916    2.4774 H   0  0  0  0  0  0  0  0  0  0  0  0
   -0.5161    3.0578    2.6545 H   0  0  0  0  0  0  0  0  0  0  0  0
   -3.4615    8.6848   -1.7524 H   0  0  0  0  0  0  0  0  0  0  0  0
   -1.3197    1.4026    1.0036 H   0  0  0  0  0  0  0  0  0  0  0  0
    2.8324   -0.0465   -1.9741 H   0  0  0  0  0  0  0  0  0  0  0  0
   -0.9173    3.6378   -3.9432 H   0  0  0  0  0  0  0  0  0  0  0  0
  1 29  1  0  0  0  0
  1 30  1  0  0  0  0
  1 31  1  0  0  0  0
  2 32  1  0  0  0  0
  3  2  2  0  0  0  0
  3 33  1  0  0  0  0
  4  2  1  0  0  0  0
  4 34  1  0  0  0  0
  5 35  1  0  0  0  0
  5 36  1  0  0  0  0
  6 37  1  0  0  0  0
  7 38  1  0  0  0  0
  7 39  1  0  0  0  0
  8  1  1  0  0  0  0
  8 23  1  0  0  0  0
  8 27  1  1  0  0  0
  9  5  1  0  0  0  0
  9  6  2  0  0  0  0
 10  3  1  0  0  0  0
 11  4  2  0  0  0  0
 12  5  1  0  0  0  0
 13  7  1  0  0  0  0
 14  9  1  0  0  0  0
 14 10  2  0  0  0  0
 14 11  1  0  0  0  0
 15  8  1  0  0  0  0
 15 19  1  0  0  0  0
 15 28  1  6  0  0  0
 16 15  1  0  0  0  0
 17 12  2  0  0  0  0
 18 10  1  0  0  0  0
 19 40  1  0  0  0  0
 19 41  1  0  0  0  0
 20  6  1  0  0  0  0
 20 11  1  0  0  0  0
 20 42  1  0  0  0  0
 21 12  1  0  0  0  0
 21 16  2  0  0  0  0
 22  7  1  0  0  0  0
 22 16  1  0  0  0  0
 22 17  1  0  0  0  0
 23 43  1  0  0  0  0
 24 13  2  0  0  0  0
 25 13  1  0  0  0  0
 25 44  1  0  0  0  0
 26 17  1  0  0  0  0
 26 45  1  0  0  0  0
M  END
>  <DRUGBANK_ID>
DB01674

>  <SECONDARY_ACCESSION_NUMBERS>
EXPT00211

>  <COMMON_NAME>
[2-(1-Amino-2-Hydroxy-Propyl)-4-(4-Fluoro-1h-Indol-3-Ylmethyl)-5-Hydroxy-Imidazol-1-Yl]-Acetic Acid

$$$$
