13U
 OpenBabel10282417163D

 65 67  0  0  0  0  0  0  0  0999 V2000
    0.9662   -0.0897    0.0072 O   0  0  0  0  0  0  0  0  0  0  0  0
    2.1665   -0.2562   -0.0862 C   0  0  0  0  0  0  0  0  0  0  0  0
    2.9401    0.6382   -0.7590 N   0  0  0  0  0  0  0  0  0  0  0  0
    4.3912    0.7120   -0.7650 C   0  0  0  0  0  0  0  0  0  0  0  0
    4.8890    1.1378   -2.1010 C   0  0  0  0  0  0  0  0  0  0  0  0
    4.8388    2.4410   -2.6342 C   0  0  0  0  0  0  0  0  0  0  0  0
    5.5235    2.7869   -3.7650 C   0  0  0  0  0  0  0  0  0  0  0  0
    6.1214    1.7800   -4.4894 C   0  0  0  0  0  0  0  0  0  0  0  0
    6.6031    2.1202   -5.8443 C   0  0  0  0  0  0  0  0  0  0  0  0
    7.0308    1.2141   -6.6615 N   0  0  0  0  0  0  0  0  0  0  0  0
    6.5742    3.3997   -6.3059 N   0  0  0  0  0  0  0  0  0  0  0  0
    6.1497    0.4659   -3.9881 C   0  0  0  0  0  0  0  0  0  0  0  0
    5.5216    0.1420   -2.8069 C   0  0  0  0  0  0  0  0  0  0  0  0
    2.9294   -1.3726    0.5741 C   0  0  2  0  0  0  0  0  0  0  0  0
    2.3349   -2.6977    0.1419 C   0  0  0  0  0  0  0  0  0  0  0  0
    3.0454   -3.6496    1.0892 C   0  0  0  0  0  0  0  0  0  0  0  0
    3.2508   -2.8297    2.3765 C   0  0  0  0  0  0  0  0  0  0  0  0
    2.9382   -1.4508    2.0175 N   0  0  0  0  0  0  0  0  0  0  0  0
    2.8898   -0.4388    2.9635 C   0  0  0  0  0  0  0  0  0  0  0  0
    3.0305   -0.7093    4.1629 O   0  0  0  0  0  0  0  0  0  0  0  0
    2.5599    1.0322    2.5763 C   0  0  0  0  0  0  0  0  0  0  0  0
    3.6611    1.6841    1.8449 N   0  0  0  0  0  0  0  0  0  0  0  0
    3.3291    3.0550    1.3944 C   0  0  0  0  0  0  0  0  0  0  0  0
    3.9991    3.4633    0.0846 C   0  0  0  0  0  0  0  0  0  0  0  0
    5.5517    3.5387    0.0805 C   0  0  0  0  0  0  0  0  0  0  0  0
    6.0717    4.9092   -0.2797 C   0  0  0  0  0  0  0  0  0  0  0  0
    5.6344    5.9649    0.7218 C   0  0  0  0  0  0  0  0  0  0  0  0
    4.1277    6.2191    0.8399 C   0  0  0  0  0  0  0  0  0  0  0  0
    3.3905    5.5046    2.0023 C   0  0  0  0  0  0  0  0  0  0  0  0
    3.7551    4.0754    2.4204 C   0  0  0  0  0  0  0  0  0  0  0  0
    3.9645   -1.4413    0.2627 H   0  0  0  0  0  0  0  0  0  0  0  0
    2.3988    1.4786   -0.9154 H   0  0  0  0  0  0  0  0  0  0  0  0
    4.8072    1.3417    0.0060 H   0  0  0  0  0  0  0  0  0  0  0  0
    4.9112   -0.1853   -0.4399 H   0  0  0  0  0  0  0  0  0  0  0  0
    4.3546    3.3018   -2.1984 H   0  0  0  0  0  0  0  0  0  0  0  0
    5.5362    3.8366   -4.0337 H   0  0  0  0  0  0  0  0  0  0  0  0
    6.9952    0.2882   -6.2350 H   0  0  0  0  0  0  0  0  0  0  0  0
    6.0747    4.1523   -5.8565 H   0  0  0  0  0  0  0  0  0  0  0  0
    6.7353    3.5039   -7.2978 H   0  0  0  0  0  0  0  0  0  0  0  0
    6.6560   -0.3468   -4.4835 H   0  0  0  0  0  0  0  0  0  0  0  0
    5.5156   -0.8743   -2.4208 H   0  0  0  0  0  0  0  0  0  0  0  0
    1.2511   -2.7151    0.2989 H   0  0  0  0  0  0  0  0  0  0  0  0
    2.5341   -2.9042   -0.9159 H   0  0  0  0  0  0  0  0  0  0  0  0
    2.4703   -4.5622    1.2519 H   0  0  0  0  0  0  0  0  0  0  0  0
    4.0148   -3.9331    0.6570 H   0  0  0  0  0  0  0  0  0  0  0  0
    2.6048   -3.1572    3.1912 H   0  0  0  0  0  0  0  0  0  0  0  0
    4.2991   -2.8922    2.6980 H   0  0  0  0  0  0  0  0  0  0  0  0
    1.6205    1.0566    2.0198 H   0  0  0  0  0  0  0  0  0  0  0  0
    2.3740    1.5906    3.5003 H   0  0  0  0  0  0  0  0  0  0  0  0
    4.5104    1.6673    2.4088 H   0  0  0  0  0  0  0  0  0  0  0  0
    2.2496    3.1062    1.1948 H   0  0  0  0  0  0  0  0  0  0  0  0
    3.5997    2.7934   -0.6390 H   0  0  0  0  0  0  0  0  0  0  0  0
    3.5282    4.3229   -0.3814 H   0  0  0  0  0  0  0  0  0  0  0  0
    5.9796    3.1782    1.0191 H   0  0  0  0  0  0  0  0  0  0  0  0
    6.0316    2.8796   -0.6463 H   0  0  0  0  0  0  0  0  0  0  0  0
    7.1696    4.8533   -0.2901 H   0  0  0  0  0  0  0  0  0  0  0  0
    5.7804    5.1768   -1.3047 H   0  0  0  0  0  0  0  0  0  0  0  0
    6.0495    5.7055    1.6990 H   0  0  0  0  0  0  0  0  0  0  0  0
    6.1090    6.8957    0.3998 H   0  0  0  0  0  0  0  0  0  0  0  0
    3.9850    7.2892    1.0103 H   0  0  0  0  0  0  0  0  0  0  0  0
    3.6223    6.0892   -0.1261 H   0  0  0  0  0  0  0  0  0  0  0  0
    3.5485    6.1139    2.8933 H   0  0  0  0  0  0  0  0  0  0  0  0
    2.3149    5.5246    1.7820 H   0  0  0  0  0  0  0  0  0  0  0  0
    3.2507    3.8327    3.3593 H   0  0  0  0  0  0  0  0  0  0  0  0
    4.8280    3.9898    2.6220 H   0  0  0  0  0  0  0  0  0  0  0  0
  1  2  2  0  0  0  0
  2  3  1  0  0  0  0
  3  4  1  0  0  0  0
  3 32  1  0  0  0  0
  4  5  1  0  0  0  0
  4 33  1  0  0  0  0
  4 34  1  0  0  0  0
  5  6  2  0  0  0  0
  5 13  1  0  0  0  0
  6  7  1  0  0  0  0
  6 35  1  0  0  0  0
  7  8  2  0  0  0  0
  7 36  1  0  0  0  0
  8  9  1  0  0  0  0
  8 12  1  0  0  0  0
  9 10  2  0  0  0  0
  9 11  1  0  0  0  0
 10 37  1  0  0  0  0
 11 38  1  0  0  0  0
 11 39  1  0  0  0  0
 12 13  2  0  0  0  0
 12 40  1  0  0  0  0
 13 41  1  0  0  0  0
 14  2  1  0  0  0  0
 14 15  1  0  0  0  0
 14 18  1  0  0  0  0
 14 31  1  6  0  0  0
 15 16  1  0  0  0  0
 15 42  1  0  0  0  0
 15 43  1  0  0  0  0
 16 17  1  0  0  0  0
 16 44  1  0  0  0  0
 16 45  1  0  0  0  0
 17 18  1  0  0  0  0
 17 46  1  0  0  0  0
 17 47  1  0  0  0  0
 18 19  1  0  0  0  0
 19 20  2  0  0  0  0
 19 21  1  0  0  0  0
 21 22  1  0  0  0  0
 21 48  1  0  0  0  0
 21 49  1  0  0  0  0
 22 23  1  0  0  0  0
 22 50  1  0  0  0  0
 23 24  1  0  0  0  0
 23 30  1  0  0  0  0
 23 51  1  0  0  0  0
 24 25  1  0  0  0  0
 24 52  1  0  0  0  0
 24 53  1  0  0  0  0
 25 26  1  0  0  0  0
 25 54  1  0  0  0  0
 25 55  1  0  0  0  0
 26 27  1  0  0  0  0
 26 56  1  0  0  0  0
 26 57  1  0  0  0  0
 27 28  1  0  0  0  0
 27 58  1  0  0  0  0
 27 59  1  0  0  0  0
 28 29  1  0  0  0  0
 28 60  1  0  0  0  0
 28 61  1  0  0  0  0
 29 30  1  0  0  0  0
 29 62  1  0  0  0  0
 29 63  1  0  0  0  0
 30 64  1  0  0  0  0
 30 65  1  0  0  0  0
M  END
>  <DRUGBANK_ID>
DB06858

>  <COMMON_NAME>
N-cyclooctylglycyl-N-(4-carbamimidoylbenzyl)-L-prolinamide

$$$$
