
 OpenBabel10282417243D

 42 45  0  0  0  0  0  0  0  0999 V2000
    1.7649    0.0091    0.5910 C   0  0  0  0  0  0  0  0  0  0  0  0
    0.8690   -1.5554    0.9666 C   0  0  0  0  0  0  0  0  0  0  0  0
    1.3368   -2.8219    0.9075 N   0  0  0  0  0  0  0  0  0  0  0  0
    0.1908   -3.8848    1.2896 N   0  0  0  0  0  0  0  0  0  0  0  0
   -0.5718   -3.8092    0.2474 C   0  0  0  0  0  0  0  0  0  0  0  0
   -2.1967   -4.3090    0.1049 C   0  0  0  0  0  0  0  0  0  0  0  0
   -2.5422   -5.4520   -0.1753 O   0  0  0  0  0  0  0  0  0  0  0  0
   -3.0877   -3.0010    0.3945 N   0  0  0  0  0  0  0  0  0  0  0  0
   -2.3254   -1.2975    0.9986 C   0  0  0  0  0  0  0  0  0  0  0  0
   -0.9097    0.0546    1.1294 C   0  0  0  0  0  0  0  0  0  0  0  0
   -0.3196    0.9871   -0.1569 N   0  0  0  0  0  0  0  0  0  0  0  0
   -0.1333   -0.3049   -0.5696 C   0  0  0  0  0  0  0  0  0  0  0  0
    1.1835   -1.3857   -1.2846 N   0  0  0  0  0  0  0  0  0  0  0  0
    0.5583   -3.0277   -1.5621 C   0  0  0  0  0  0  0  0  0  0  0  0
   -1.2536   -2.7152   -1.4500 C   0  0  0  0  0  0  0  0  0  0  0  0
   -1.8478   -1.4400   -0.0997 C   0  0  0  0  0  0  0  0  0  0  0  0
   -3.2937   -1.0415    0.1346 C   0  0  0  0  0  0  0  0  0  0  0  0
    1.4793   -4.5083   -0.7099 C   0  0  0  0  0  0  0  0  0  0  0  0
    2.0897   -4.9815    0.8400 C   0  0  0  0  0  0  0  0  0  0  0  0
    2.2978   -6.2678    1.2493 C   0  0  0  0  0  0  0  0  0  0  0  0
    1.9713   -7.1539    0.2623 C   0  0  0  0  0  0  0  0  0  0  0  0
    1.1637   -6.8480   -0.8578 C   0  0  0  0  0  0  0  0  0  0  0  0
    0.9674   -5.5752   -1.3360 C   0  0  0  0  0  0  0  0  0  0  0  0
   -0.2404   -1.9034   -0.0329 C   0  0  0  0  0  0  0  0  0  0  0  0
   -1.6212   -0.2857   -1.1942 C   0  0  0  0  0  0  0  0  0  0  0  0
    1.3574    0.6043    1.4255 H   0  0  0  0  0  0  0  0  0  0  0  0
    1.5068    0.5248   -0.6486 H   0  0  0  0  0  0  0  0  0  0  0  0
    2.7497    0.0670    0.1706 H   0  0  0  0  0  0  0  0  0  0  0  0
    2.2181   -3.0036    0.2776 H   0  0  0  0  0  0  0  0  0  0  0  0
   -4.0513   -3.1704   -0.0877 H   0  0  0  0  0  0  0  0  0  0  0  0
    0.0963    1.0653    0.6502 H   0  0  0  0  0  0  0  0  0  0  0  0
    2.0294   -1.4620   -0.5511 H   0  0  0  0  0  0  0  0  0  0  0  0
   -1.6048   -2.7262   -0.1089 H   0  0  0  0  0  0  0  0  0  0  0  0
   -3.7040   -0.0296   -0.1464 H   0  0  0  0  0  0  0  0  0  0  0  0
    2.0898   -4.3469    1.8442 H   0  0  0  0  0  0  0  0  0  0  0  0
    2.7670   -6.4939    2.2006 H   0  0  0  0  0  0  0  0  0  0  0  0
    2.3763   -8.1438    0.3148 H   0  0  0  0  0  0  0  0  0  0  0  0
    0.7237   -7.6207   -1.4598 H   0  0  0  0  0  0  0  0  0  0  0  0
    0.3068   -5.2509   -2.1065 H   0  0  0  0  0  0  0  0  0  0  0  0
   -2.4515   -0.6164   -1.7922 H   0  0  0  0  0  0  0  0  0  0  0  0
   -2.2411    0.3551    0.0856 H   0  0  0  0  0  0  0  0  0  0  0  0
   -2.0469    0.8662   -0.3127 H   0  0  0  0  0  0  0  0  0  0  0  0
  1  2  1  0  0  0  0
  1 26  1  0  0  0  0
  1 27  1  0  0  0  0
  1 28  1  0  0  0  0
  2  3  1  0  0  0  0
  2 24  2  0  0  0  0
  3  4  1  0  0  0  0
  3 29  1  0  0  0  0
  4  5  2  0  0  0  0
  5  6  1  0  0  0  0
  5 24  1  0  0  0  0
  6  7  2  0  0  0  0
  6  8  1  0  0  0  0
  8  9  1  0  0  0  0
  8 30  1  0  0  0  0
  9 10  2  0  0  0  0
  9 17  1  0  0  0  0
 10 11  1  0  0  0  0
 10 31  1  0  0  0  0
 11 12  2  0  0  0  0
 12 13  1  0  0  0  0
 12 16  1  0  0  0  0
 13 14  1  0  0  0  0
 13 32  1  0  0  0  0
 14 15  2  0  0  0  0
 14 18  1  0  0  0  0
 15 16  1  0  0  0  0
 15 33  1  0  0  0  0
 16 17  2  0  0  0  0
 17 34  1  0  0  0  0
 18 19  2  0  0  0  0
 18 23  1  0  0  0  0
 19 20  1  0  0  0  0
 19 35  1  0  0  0  0
 20 21  2  0  0  0  0
 20 36  1  0  0  0  0
 21 22  1  0  0  0  0
 21 37  1  0  0  0  0
 22 23  2  0  0  0  0
 22 38  1  0  0  0  0
 23 39  1  0  0  0  0
 24 25  1  0  0  0  0
 25 40  1  0  0  0  0
 25 41  1  0  0  0  0
 25 42  1  0  0  0  0
M  END
>  <DRUGBANK_ID>
DB18041

>  <COMMON_NAME>
Bezuclastinib

>  <CAS_NUMBER>
1616385-51-3

>  <UNII>
2ROQ545LAG

>  <SYNONYMS>
3,4-dimethyl-n-(2-phenyl-1h-pyrrolo(2,3-b)pyridin-5-yl)-1h-pyrazole-5-carboxamide; 3,4-dimethyl-N-(2-phenyl-1H-pyrrolo[2,3-b]pyridin-5-yl)-1H-pyrazole-5- carboxamide

$$$$
