
 OpenBabel10282417203D

 52 54  0  0  0  0  0  0  0  0999 V2000
    1.0659    0.0723    0.0909 C   0  0  0  0  0  0  0  0  0  0  0  0
    0.4235   -0.9863    0.0888 O   0  0  0  0  0  0  0  0  0  0  0  0
    0.3027    1.4131    0.0726 C   0  0  0  0  0  0  0  0  0  0  0  0
   -0.5598    1.5342   -1.1307 N   0  0  0  0  0  0  0  0  0  0  0  0
   -1.3057    2.7905   -1.0818 C   0  0  0  0  0  0  0  0  0  0  0  0
    0.2395    1.4889   -2.3534 C   0  0  0  0  0  0  0  0  0  0  0  0
    4.2847   -1.3451   -0.9569 C   0  0  0  0  0  0  0  0  0  0  0  0
    3.2441   -1.0829   -0.0603 C   0  0  0  0  0  0  0  0  0  0  0  0
    2.9475   -2.0364    0.9144 C   0  0  0  0  0  0  0  0  0  0  0  0
    3.6074   -3.2516    1.0540 C   0  0  0  0  0  0  0  0  0  0  0  0
    4.6387   -3.5201    0.1563 C   0  0  0  0  0  0  0  0  0  0  0  0
    4.9722   -2.5753   -0.8332 C   0  0  0  0  0  0  0  0  0  0  0  0
    4.7010    3.6758    0.0621 C   0  0  0  0  0  0  0  0  0  0  0  0
    4.0561    3.2503    1.2238 C   0  0  0  0  0  0  0  0  0  0  0  0
    3.3142    2.0684    1.2151 C   0  0  0  0  0  0  0  0  0  0  0  0
    3.2300    1.3104    0.0385 C   0  0  0  0  0  0  0  0  0  0  0  0
    3.9025    1.7189   -1.1170 C   0  0  0  0  0  0  0  0  0  0  0  0
    4.6259    2.9134   -1.1046 C   0  0  0  0  0  0  0  0  0  0  0  0
    3.8631    0.8278   -2.3261 C   0  0  0  0  0  0  0  0  0  0  0  0
    2.4710    0.1203   -0.0077 N   0  0  0  0  0  0  0  0  0  0  0  0
    4.7007   -0.4276   -2.0873 C   0  0  0  0  0  0  0  0  0  0  0  0
    3.2729   -4.1822    2.0674 N   0  0  0  0  0  0  0  0  0  0  0  0
    2.3103   -4.0916    3.0568 C   0  0  0  0  0  0  0  0  0  0  0  0
    2.1596   -4.9863    3.8852 O   0  0  0  0  0  0  0  0  0  0  0  0
    1.5817   -2.9575    3.0298 O   0  0  0  0  0  0  0  0  0  0  0  0
    0.5199   -2.6842    3.9490 C   0  0  0  0  0  0  0  0  0  0  0  0
   -0.6204   -3.6606    3.7772 C   0  0  0  0  0  0  0  0  0  0  0  0
   -0.3206    1.4145    0.9759 H   0  0  0  0  0  0  0  0  0  0  0  0
    0.9600    2.2790    0.1356 H   0  0  0  0  0  0  0  0  0  0  0  0
   -0.6380    3.6596   -1.0588 H   0  0  0  0  0  0  0  0  0  0  0  0
   -1.9588    2.8838   -1.9567 H   0  0  0  0  0  0  0  0  0  0  0  0
   -1.9510    2.8243   -0.1980 H   0  0  0  0  0  0  0  0  0  0  0  0
    0.9919    2.2859   -2.3756 H   0  0  0  0  0  0  0  0  0  0  0  0
    0.7374    0.5209   -2.4491 H   0  0  0  0  0  0  0  0  0  0  0  0
   -0.3903    1.5838   -3.2435 H   0  0  0  0  0  0  0  0  0  0  0  0
    2.1712   -1.7355    1.5940 H   0  0  0  0  0  0  0  0  0  0  0  0
    5.2046   -4.4479    0.2009 H   0  0  0  0  0  0  0  0  0  0  0  0
    5.7794   -2.8059   -1.5283 H   0  0  0  0  0  0  0  0  0  0  0  0
    5.2780    4.5975    0.0675 H   0  0  0  0  0  0  0  0  0  0  0  0
    4.1385    3.8386    2.1348 H   0  0  0  0  0  0  0  0  0  0  0  0
    2.8290    1.7356    2.1299 H   0  0  0  0  0  0  0  0  0  0  0  0
    5.1451    3.2487   -1.9984 H   0  0  0  0  0  0  0  0  0  0  0  0
    2.8316    0.5519   -2.5587 H   0  0  0  0  0  0  0  0  0  0  0  0
    4.2274    1.3665   -3.2064 H   0  0  0  0  0  0  0  0  0  0  0  0
    5.7391   -0.1273   -1.9042 H   0  0  0  0  0  0  0  0  0  0  0  0
    4.6761   -1.0117   -3.0155 H   0  0  0  0  0  0  0  0  0  0  0  0
    3.7868   -5.0518    2.1034 H   0  0  0  0  0  0  0  0  0  0  0  0
    0.9123   -2.6501    4.9682 H   0  0  0  0  0  0  0  0  0  0  0  0
    0.1571   -1.6751    3.7073 H   0  0  0  0  0  0  0  0  0  0  0  0
   -0.2877   -4.6841    3.9603 H   0  0  0  0  0  0  0  0  0  0  0  0
   -1.4336   -3.4302    4.4690 H   0  0  0  0  0  0  0  0  0  0  0  0
   -1.0016   -3.6274    2.7509 H   0  0  0  0  0  0  0  0  0  0  0  0
  1  3  1  0  0  0  0
  1  2  2  0  0  0  0
  3  4  1  0  0  0  0
  3 28  1  0  0  0  0
  3 29  1  0  0  0  0
  4  5  1  0  0  0  0
  4  6  1  0  0  0  0
  5 30  1  0  0  0  0
  5 31  1  0  0  0  0
  5 32  1  0  0  0  0
  6 33  1  0  0  0  0
  6 34  1  0  0  0  0
  6 35  1  0  0  0  0
  7  8  2  0  0  0  0
  7 21  1  0  0  0  0
  8  9  1  0  0  0  0
  9 10  2  0  0  0  0
  9 36  1  0  0  0  0
 10 11  1  0  0  0  0
 10 22  1  0  0  0  0
 11 12  2  0  0  0  0
 11 37  1  0  0  0  0
 12  7  1  0  0  0  0
 12 38  1  0  0  0  0
 13 14  2  0  0  0  0
 13 39  1  0  0  0  0
 14 15  1  0  0  0  0
 14 40  1  0  0  0  0
 15 16  2  0  0  0  0
 15 41  1  0  0  0  0
 16 20  1  0  0  0  0
 16 17  1  0  0  0  0
 17 18  2  0  0  0  0
 17 19  1  0  0  0  0
 18 13  1  0  0  0  0
 18 42  1  0  0  0  0
 19 21  1  0  0  0  0
 19 43  1  0  0  0  0
 19 44  1  0  0  0  0
 20  8  1  0  0  0  0
 20  1  1  0  0  0  0
 21 45  1  0  0  0  0
 21 46  1  0  0  0  0
 22 23  1  0  0  0  0
 22 47  1  0  0  0  0
 23 24  2  0  0  0  0
 23 25  1  0  0  0  0
 25 26  1  0  0  0  0
 26 27  1  0  0  0  0
 26 48  1  0  0  0  0
 26 49  1  0  0  0  0
 27 50  1  0  0  0  0
 27 51  1  0  0  0  0
 27 52  1  0  0  0  0
M  END
>  <DRUGBANK_ID>
DB13635

>  <COMMON_NAME>
Tiracizine

>  <CAS_NUMBER>
83275-56-3

>  <UNII>
9UUO2T61K7

>  <SYNONYMS>
Tiracizina; Tiracizine; Tiracizinum

$$$$
