1NB
 OpenBabel10282417163D

 28 28  0  0  0  0  0  0  0  0999 V2000
    0.9920    0.0129   -0.0071 C   0  0  1  0  0  0  0  0  0  0  0  0
    0.6744   -1.1443   -0.9813 C   0  0  1  0  0  0  0  0  0  0  0  0
    1.4686   -2.3613   -0.4944 C   0  0  0  0  0  0  0  0  0  0  0  0
   -0.6051    1.8641    0.5224 C   0  0  0  0  0  0  0  0  0  0  0  0
    1.5564   -0.5562    2.3012 O   0  0  0  0  0  0  0  0  0  0  0  0
   -0.8200   -2.5195   -2.2964 O   0  0  0  0  0  0  0  0  0  0  0  0
    0.4684   -3.2305    0.2800 C   0  0  0  0  0  0  0  0  0  0  0  0
   -0.7522   -1.7084   -1.1141 C   0  0  1  0  0  0  0  0  0  0  0  0
    0.4004    1.3521   -0.4578 C   0  0  0  0  0  0  0  0  0  0  0  0
   -0.9262   -2.6273    0.0810 C   0  0  0  0  0  0  0  0  0  0  0  0
   -0.4348    2.9760    1.2431 C   0  0  0  0  0  0  0  0  0  0  0  0
    0.6905   -0.3255    1.4518 C   0  0  0  0  0  0  0  0  0  0  0  0
    2.0864    0.1412   -0.0447 H   0  0  0  0  0  0  0  0  0  0  0  0
    1.0153   -0.8378   -1.9804 H   0  0  0  0  0  0  0  0  0  0  0  0
   -1.5431   -0.9583   -1.2006 H   0  0  0  0  0  0  0  0  0  0  0  0
    1.8970   -2.8964   -1.3472 H   0  0  0  0  0  0  0  0  0  0  0  0
    2.3143   -2.0806    0.1428 H   0  0  0  0  0  0  0  0  0  0  0  0
   -1.4577    1.2231    0.7357 H   0  0  0  0  0  0  0  0  0  0  0  0
   -0.1367   -3.2124   -2.2418 H   0  0  0  0  0  0  0  0  0  0  0  0
    0.5012   -4.2505   -0.1114 H   0  0  0  0  0  0  0  0  0  0  0  0
    0.7206   -3.2704    1.3442 H   0  0  0  0  0  0  0  0  0  0  0  0
    1.2268    2.0700   -0.5741 H   0  0  0  0  0  0  0  0  0  0  0  0
   -0.0562    1.2722   -1.4501 H   0  0  0  0  0  0  0  0  0  0  0  0
   -1.2483   -2.0659    0.9614 H   0  0  0  0  0  0  0  0  0  0  0  0
   -1.6750   -3.4107   -0.0730 H   0  0  0  0  0  0  0  0  0  0  0  0
   -1.1296    3.2187    2.0397 H   0  0  0  0  0  0  0  0  0  0  0  0
    0.4102    3.6377    1.0799 H   0  0  0  0  0  0  0  0  0  0  0  0
   -0.3697   -0.4124    1.7273 H   0  0  0  0  0  0  0  0  0  0  0  0
  1 12  1  0  0  0  0
  1 13  1  6  0  0  0
  1  9  1  0  0  0  0
  1  2  1  0  0  0  0
  2  3  1  0  0  0  0
  2  8  1  0  0  0  0
  2 14  1  6  0  0  0
  3  7  1  0  0  0  0
  3 16  1  0  0  0  0
  3 17  1  0  0  0  0
  4  9  1  0  0  0  0
  4 11  2  0  0  0  0
  4 18  1  0  0  0  0
  5 12  2  0  0  0  0
  6 19  1  0  0  0  0
  7 10  1  0  0  0  0
  7 20  1  0  0  0  0
  7 21  1  0  0  0  0
  8  6  1  0  0  0  0
  8 10  1  0  0  0  0
  8 15  1  6  0  0  0
  9 22  1  0  0  0  0
  9 23  1  0  0  0  0
 10 24  1  0  0  0  0
 10 25  1  0  0  0  0
 11 26  1  0  0  0  0
 11 27  1  0  0  0  0
 12 28  1  0  0  0  0
M  END
>  <DRUGBANK_ID>
DB06901

>  <COMMON_NAME>
2-(2-HYDROXY-CYCLOPENTYL)-PENT-4-ENAL

$$$$
