
 OpenBabel10282417103D

196201  0  0  0  0  0  0  0  0999 V2000
   -3.0343   -3.8249    8.3052 C   0  0  0  0  0  0  0  0  0  0  0  0
   -2.7254   -3.2156    6.0335 C   0  0  0  0  0  0  0  0  0  0  0  0
   -4.1018   -3.3235    5.8649 C   0  0  0  0  0  0  0  0  0  0  0  0
   -4.8797   -3.6175    6.9712 C   0  0  0  0  0  0  0  0  0  0  0  0
   -4.3768   -3.8508    8.1979 N   0  0  0  0  0  0  0  0  0  0  0  0
   -5.1609   -5.9308   17.4217 C   0  0  0  0  0  0  0  0  0  0  0  0
   -5.2194   -5.2574   16.2360 C   0  0  0  0  0  0  0  0  0  0  0  0
   -6.1145   -4.0255   16.3429 C   0  0  0  0  0  0  0  0  0  0  0  0
   -6.7810   -3.4238   17.3895 C   0  0  0  0  0  0  0  0  0  0  0  0
   -6.6037   -4.1004   18.5329 C   0  0  0  0  0  0  0  0  0  0  0  0
   -5.8635   -5.3257   18.5315 C   0  0  0  0  0  0  0  0  0  0  0  0
   -4.3419   -7.1167   17.4974 C   0  0  0  0  0  0  0  0  0  0  0  0
   -3.4810   -7.6075   16.4705 C   0  0  0  0  0  0  0  0  0  0  0  0
   -3.3608   -6.9116   15.2793 C   0  0  0  0  0  0  0  0  0  0  0  0
   -4.2704   -5.8014   15.1933 C   0  0  0  0  0  0  0  0  0  0  0  0
   -2.2943   -7.3752   14.2121 C   0  0  0  0  0  0  0  0  0  0  0  0
   -2.2991   -6.8519   12.7168 C   0  0  2  0  0  0  0  0  0  0  0  0
   -1.0945   -4.7164   11.8236 N   0  0  0  0  0  0  0  0  0  0  0  0
   -1.8614   -5.4094   12.6974 C   0  0  0  0  0  0  0  0  0  0  0  0
   -2.4125   -4.7478   13.6357 O   0  0  0  0  0  0  0  0  0  0  0  0
   -0.8348   -3.2447   12.0099 C   0  0  1  0  0  0  0  0  0  0  0  0
   -0.0476   -2.6621   10.8870 C   0  0  0  0  0  0  0  0  0  0  0  0
   -0.7839   -2.4207    9.7536 N   0  0  0  0  0  0  0  0  0  0  0  0
   -0.2524   -2.2307    8.4223 C   0  0  1  0  0  0  0  0  0  0  0  0
    1.2654   -2.2663    8.4423 C   0  0  0  0  0  0  0  0  0  0  0  0
    1.8727   -1.0336    8.4375 N   0  0  0  0  0  0  0  0  0  0  0  0
    3.3178   -0.9092    8.5687 C   0  0  2  0  0  0  0  0  0  0  0  0
    4.0533   -1.2198    7.2657 C   0  0  0  0  0  0  0  0  0  0  0  0
    3.5905   -0.6615    6.0586 N   0  0  0  0  0  0  0  0  0  0  0  0
    4.2805   -1.0669    4.8004 C   0  0  2  0  0  0  0  0  0  0  0  0
    3.6845   -0.4097    3.4210 C   0  0  0  0  0  0  0  0  0  0  0  0
   -2.0477   -2.3186   12.1148 C   0  0  0  0  0  0  0  0  0  0  0  0
    1.1508   -2.4577   11.0376 O   0  0  0  0  0  0  0  0  0  0  0  0
   -0.6787   -3.3768    7.4900 C   0  0  0  0  0  0  0  0  0  0  0  0
    3.8960   -1.7760    9.7108 C   0  0  0  0  0  0  0  0  0  0  0  0
    1.8606   -3.3341    8.5661 O   0  0  0  0  0  0  0  0  0  0  0  0
    5.1092   -1.8605    7.3377 O   0  0  0  0  0  0  0  0  0  0  0  0
    2.6351    0.4283    6.0330 C   0  0  0  0  0  0  0  0  0  0  0  0
    3.5795    0.8237    3.3142 O   0  0  0  0  0  0  0  0  0  0  0  0
    3.2432   -1.0706    2.3081 N   0  0  0  0  0  0  0  0  0  0  0  0
    2.1326   -4.3940    1.3642 N   0  0  0  0  0  0  0  0  0  0  0  0
    3.5140   -2.4146    1.8799 C   0  0  1  0  0  0  0  0  0  0  0  0
    2.3250   -3.3441    2.2074 C   0  0  0  0  0  0  0  0  0  0  0  0
    7.3372   -2.2600    0.0559 N   0  0  0  0  0  0  0  0  0  0  0  0
    6.0022   -1.7926    0.4003 C   0  0  0  0  0  0  0  0  0  0  0  0
    4.5389   -2.6783    0.6569 C   0  0  0  0  0  0  0  0  0  0  0  0
    5.9479   -0.5632    0.5236 O   0  0  0  0  0  0  0  0  0  0  0  0
    1.6710   -3.1765    3.2410 O   0  0  0  0  0  0  0  0  0  0  0  0
    1.0114   -5.3107    1.4454 C   0  0  2  0  0  0  0  0  0  0  0  0
    0.6630   -5.5802   -0.0195 C   0  0  0  0  0  0  0  0  0  0  0  0
    0.3815   -4.4545   -0.7937 N   0  0  0  0  0  0  0  0  0  0  0  0
   -0.1055   -4.5995   -2.1684 C   0  0  2  0  0  0  0  0  0  0  0  0
    1.0688   -4.8884   -3.1434 C   0  0  0  0  0  0  0  0  0  0  0  0
   -0.1771   -4.7395    2.1998 C   0  0  0  0  0  0  0  0  0  0  0  0
    0.6628   -6.7347   -0.4313 O   0  0  0  0  0  0  0  0  0  0  0  0
    4.4583   -2.6266    4.8626 C   0  0  0  0  0  0  0  0  0  0  0  0
    1.7430   -3.9533   -3.5883 O   0  0  0  0  0  0  0  0  0  0  0  0
   -3.6705   -7.0005   12.2014 N   0  0  0  0  0  0  0  0  0  0  0  0
   -3.9267   -7.6615   11.0388 C   0  0  0  0  0  0  0  0  0  0  0  0
   -5.3765   -7.8376   10.6703 C   0  0  0  0  0  0  0  0  0  0  0  0
   -3.0254   -8.1071   10.3351 O   0  0  0  0  0  0  0  0  0  0  0  0
    0.6953   -7.3894   -3.6129 C   0  0  1  0  0  0  0  0  0  0  0  0
    3.0192   -8.0188   -3.4223 C   0  0  0  0  0  0  0  0  0  0  0  0
    2.9159   -6.4972   -3.4027 C   0  0  0  0  0  0  0  0  0  0  0  0
    1.4954   -6.2032   -3.2403 N   0  0  0  0  0  0  0  0  0  0  0  0
    1.6140   -8.4995   -3.0997 C   0  0  0  0  0  0  0  0  0  0  0  0
   -0.7296   -7.6963   -3.0723 C   0  0  0  0  0  0  0  0  0  0  0  0
   -1.2812   -7.2364   -2.0777 O   0  0  0  0  0  0  0  0  0  0  0  0
   -2.6204   -2.3528   13.4561 C   0  0  0  0  0  0  0  0  0  0  0  0
   -3.9741   -2.4689   13.4421 C   0  0  0  0  0  0  0  0  0  0  0  0
   -4.4199   -2.6902   14.6825 C   0  0  0  0  0  0  0  0  0  0  0  0
   -3.5638   -2.8118   15.9033 C   0  0  0  0  0  0  0  0  0  0  0  0
   -2.2304   -2.9725   15.8027 C   0  0  0  0  0  0  0  0  0  0  0  0
   -1.7641   -2.5791   14.6018 C   0  0  0  0  0  0  0  0  0  0  0  0
   -3.8731   -2.6480   17.6170 Cl  0  0  0  0  0  0  0  0  0  0  0  0
   -2.1635   -3.4667    7.2796 C   0  0  0  0  0  0  0  0  0  0  0  0
    5.3012   -1.5874    9.8794 O   0  0  0  0  0  0  0  0  0  0  0  0
    5.4485   -3.2677    3.9469 C   0  0  0  0  0  0  0  0  0  0  0  0
    5.1526   -4.5509    3.3507 C   0  0  0  0  0  0  0  0  0  0  0  0
    6.4445   -2.4537    3.4917 C   0  0  0  0  0  0  0  0  0  0  0  0
    7.1790   -2.9827    2.4780 C   0  0  0  0  0  0  0  0  0  0  0  0
    6.8580   -4.2444    1.7984 C   0  0  0  0  0  0  0  0  0  0  0  0
    5.8294   -5.0305    2.2444 C   0  0  0  0  0  0  0  0  0  0  0  0
    7.2988   -4.6806    0.5405 O   0  0  0  0  0  0  0  0  0  0  0  0
   -1.4043   -5.6268    2.2112 C   0  0  0  0  0  0  0  0  0  0  0  0
   -1.0754   -6.9407    2.9162 C   0  0  0  0  0  0  0  0  0  0  0  0
   -2.4843   -4.8824    2.9779 C   0  0  0  0  0  0  0  0  0  0  0  0
   -1.5689   -8.5003   -3.7534 N   0  0  0  0  0  0  0  0  0  0  0  0
   -1.3578  -10.9079   -3.7423 C   0  0  0  0  0  0  0  0  0  0  0  0
   -2.1923  -11.8726   -4.2217 N   0  0  0  0  0  0  0  0  0  0  0  0
   -1.2170   -9.6190   -4.5826 C   0  0  1  0  0  0  0  0  0  0  0  0
   -2.0860   -9.5429   -5.8135 C   0  0  0  0  0  0  0  0  0  0  0  0
   -0.7715  -11.0802   -2.6765 O   0  0  0  0  0  0  0  0  0  0  0  0
   -1.0210   -3.4737   -2.6596 C   0  0  0  0  0  0  0  0  0  0  0  0
   -1.5770   -3.7628   -4.0785 C   0  0  0  0  0  0  0  0  0  0  0  0
   -2.4579   -5.0179   -4.2034 C   0  0  0  0  0  0  0  0  0  0  0  0
   -3.6393   -5.0408   -3.2466 C   0  0  0  0  0  0  0  0  0  0  0  0
   -4.5203   -3.9278   -3.5829 N   0  0  0  0  0  0  0  0  0  0  0  0
   -5.6510   -3.8111   -2.6691 C   0  0  0  0  0  0  0  0  0  0  0  0
   -5.1913   -3.5361   -1.2373 C   0  0  0  0  0  0  0  0  0  0  0  0
   -6.5186   -2.6532   -3.1589 C   0  0  0  0  0  0  0  0  0  0  0  0
   -2.6720   -4.1114    9.2875 H   0  0  0  0  0  0  0  0  0  0  0  0
   -2.0907   -2.9727    5.1847 H   0  0  0  0  0  0  0  0  0  0  0  0
   -4.5570   -3.1902    4.8909 H   0  0  0  0  0  0  0  0  0  0  0  0
   -5.9592   -3.6936    6.8959 H   0  0  0  0  0  0  0  0  0  0  0  0
   -5.9113   -3.0773   15.8997 H   0  0  0  0  0  0  0  0  0  0  0  0
   -6.9620   -2.3282   17.3438 H   0  0  0  0  0  0  0  0  0  0  0  0
   -6.8782   -3.5717   19.4336 H   0  0  0  0  0  0  0  0  0  0  0  0
   -5.7267   -5.7715   19.5026 H   0  0  0  0  0  0  0  0  0  0  0  0
   -4.3770   -7.6841   18.4233 H   0  0  0  0  0  0  0  0  0  0  0  0
   -2.9340   -8.5395   16.6252 H   0  0  0  0  0  0  0  0  0  0  0  0
   -4.2636   -5.2436   14.2692 H   0  0  0  0  0  0  0  0  0  0  0  0
   -2.3821   -8.4689   14.1365 H   0  0  0  0  0  0  0  0  0  0  0  0
   -1.2790   -7.1919   14.6114 H   0  0  0  0  0  0  0  0  0  0  0  0
   -1.5864   -7.4047   12.0974 H   0  0  0  0  0  0  0  0  0  0  0  0
   -0.3250   -5.2291   11.3959 H   0  0  0  0  0  0  0  0  0  0  0  0
   -0.1624   -3.1233   12.8621 H   0  0  0  0  0  0  0  0  0  0  0  0
   -1.7900   -2.3799    9.8243 H   0  0  0  0  0  0  0  0  0  0  0  0
   -0.6389   -1.2676    8.0724 H   0  0  0  0  0  0  0  0  0  0  0  0
    1.3341   -0.2140    8.2004 H   0  0  0  0  0  0  0  0  0  0  0  0
    3.5501    0.1417    8.7715 H   0  0  0  0  0  0  0  0  0  0  0  0
    5.2502   -0.5531    4.9103 H   0  0  0  0  0  0  0  0  0  0  0  0
   -1.8514   -1.2508   11.9706 H   0  0  0  0  0  0  0  0  0  0  0  0
   -2.8133   -2.6318   11.3886 H   0  0  0  0  0  0  0  0  0  0  0  0
   -0.3265   -4.3469    7.8669 H   0  0  0  0  0  0  0  0  0  0  0  0
   -0.1706   -3.2292    6.5268 H   0  0  0  0  0  0  0  0  0  0  0  0
    3.4038   -1.5112   10.6476 H   0  0  0  0  0  0  0  0  0  0  0  0
    3.7581   -2.8469    9.5414 H   0  0  0  0  0  0  0  0  0  0  0  0
    1.6635    0.0149    6.2854 H   0  0  0  0  0  0  0  0  0  0  0  0
    2.9471    1.2110    6.7286 H   0  0  0  0  0  0  0  0  0  0  0  0
    2.4768    0.8877    5.0690 H   0  0  0  0  0  0  0  0  0  0  0  0
    2.7610   -0.4793    1.6470 H   0  0  0  0  0  0  0  0  0  0  0  0
    2.8490   -4.6554    0.7039 H   0  0  0  0  0  0  0  0  0  0  0  0
    4.0028   -2.7435    2.7258 H   0  0  0  0  0  0  0  0  0  0  0  0
    8.0859   -1.5885    0.2953 H   0  0  0  0  0  0  0  0  0  0  0  0
    7.8499   -3.0277    0.5190 H   0  0  0  0  0  0  0  0  0  0  0  0
    4.6842   -3.7588    0.5955 H   0  0  0  0  0  0  0  0  0  0  0  0
    3.9126   -2.4834   -0.2136 H   0  0  0  0  0  0  0  0  0  0  0  0
    1.3823   -6.2385    1.9001 H   0  0  0  0  0  0  0  0  0  0  0  0
    0.3375   -3.5496   -0.3460 H   0  0  0  0  0  0  0  0  0  0  0  0
   -0.7785   -5.4094   -2.0899 H   0  0  0  0  0  0  0  0  0  0  0  0
    0.0921   -4.6095    3.2545 H   0  0  0  0  0  0  0  0  0  0  0  0
   -0.4215   -3.7444    1.8040 H   0  0  0  0  0  0  0  0  0  0  0  0
    4.8723   -3.0284    5.7766 H   0  0  0  0  0  0  0  0  0  0  0  0
    3.4671   -3.0705    4.8011 H   0  0  0  0  0  0  0  0  0  0  0  0
   -4.4364   -6.6475   12.7655 H   0  0  0  0  0  0  0  0  0  0  0  0
   -5.5457   -7.3626    9.7003 H   0  0  0  0  0  0  0  0  0  0  0  0
   -5.5847   -8.9089   10.5866 H   0  0  0  0  0  0  0  0  0  0  0  0
   -6.0683   -7.4071   11.3999 H   0  0  0  0  0  0  0  0  0  0  0  0
    0.6731   -7.4016   -4.7176 H   0  0  0  0  0  0  0  0  0  0  0  0
    3.7460   -8.3989   -2.6969 H   0  0  0  0  0  0  0  0  0  0  0  0
    3.3236   -8.3772   -4.4123 H   0  0  0  0  0  0  0  0  0  0  0  0
    3.4581   -6.0617   -2.5571 H   0  0  0  0  0  0  0  0  0  0  0  0
    3.3220   -6.0656   -4.3266 H   0  0  0  0  0  0  0  0  0  0  0  0
    1.4884   -8.5800   -2.0140 H   0  0  0  0  0  0  0  0  0  0  0  0
    1.4191   -9.4869   -3.5182 H   0  0  0  0  0  0  0  0  0  0  0  0
   -4.6374   -2.5519   12.5686 H   0  0  0  0  0  0  0  0  0  0  0  0
   -5.4592   -2.9766   14.4548 H   0  0  0  0  0  0  0  0  0  0  0  0
   -1.6062   -3.3548   16.6098 H   0  0  0  0  0  0  0  0  0  0  0  0
   -0.6994   -2.7056   14.5316 H   0  0  0  0  0  0  0  0  0  0  0  0
    5.6887   -1.9899    9.0678 H   0  0  0  0  0  0  0  0  0  0  0  0
    4.1978   -5.0223    3.5736 H   0  0  0  0  0  0  0  0  0  0  0  0
    6.5251   -1.3728    3.6863 H   0  0  0  0  0  0  0  0  0  0  0  0
    7.7667   -2.1239    2.1359 H   0  0  0  0  0  0  0  0  0  0  0  0
    5.4297   -5.8175    1.5952 H   0  0  0  0  0  0  0  0  0  0  0  0
    7.2859   -4.1179   -0.2748 H   0  0  0  0  0  0  0  0  0  0  0  0
   -1.7468   -5.8089    1.1888 H   0  0  0  0  0  0  0  0  0  0  0  0
   -0.7122   -6.7586    3.9365 H   0  0  0  0  0  0  0  0  0  0  0  0
   -1.9594   -7.5764    2.9711 H   0  0  0  0  0  0  0  0  0  0  0  0
   -0.2959   -7.4971    2.3883 H   0  0  0  0  0  0  0  0  0  0  0  0
   -2.6855   -3.8991    2.5366 H   0  0  0  0  0  0  0  0  0  0  0  0
   -3.4111   -5.4543    3.0127 H   0  0  0  0  0  0  0  0  0  0  0  0
   -2.1422   -4.7302    4.0022 H   0  0  0  0  0  0  0  0  0  0  0  0
   -2.4476   -8.5424   -3.2457 H   0  0  0  0  0  0  0  0  0  0  0  0
   -2.3045  -12.7162   -3.6751 H   0  0  0  0  0  0  0  0  0  0  0  0
   -2.7547  -11.7700   -5.0532 H   0  0  0  0  0  0  0  0  0  0  0  0
   -0.1726   -9.5487   -4.8847 H   0  0  0  0  0  0  0  0  0  0  0  0
   -1.9540   -8.5760   -6.3108 H   0  0  0  0  0  0  0  0  0  0  0  0
   -1.8144  -10.3380   -6.5091 H   0  0  0  0  0  0  0  0  0  0  0  0
   -3.1459   -9.6340   -5.5497 H   0  0  0  0  0  0  0  0  0  0  0  0
   -1.8556   -3.3640   -1.9526 H   0  0  0  0  0  0  0  0  0  0  0  0
   -0.5025   -2.5113   -2.6514 H   0  0  0  0  0  0  0  0  0  0  0  0
   -2.1434   -2.8926   -4.4213 H   0  0  0  0  0  0  0  0  0  0  0  0
   -0.7471   -3.8725   -4.7839 H   0  0  0  0  0  0  0  0  0  0  0  0
   -2.8056   -5.1543   -5.2341 H   0  0  0  0  0  0  0  0  0  0  0  0
   -1.8422   -5.8847   -4.0178 H   0  0  0  0  0  0  0  0  0  0  0  0
   -4.1770   -5.9935   -3.3137 H   0  0  0  0  0  0  0  0  0  0  0  0
   -3.2561   -4.9735   -2.2256 H   0  0  0  0  0  0  0  0  0  0  0  0
   -3.9976   -3.0534   -3.5713 H   0  0  0  0  0  0  0  0  0  0  0  0
   -6.2414   -4.7332   -2.7084 H   0  0  0  0  0  0  0  0  0  0  0  0
   -4.5850   -2.6240   -1.1876 H   0  0  0  0  0  0  0  0  0  0  0  0
   -6.0519   -3.4202   -0.5752 H   0  0  0  0  0  0  0  0  0  0  0  0
   -4.5938   -4.3572   -0.8304 H   0  0  0  0  0  0  0  0  0  0  0  0
   -6.8657   -2.8205   -4.1848 H   0  0  0  0  0  0  0  0  0  0  0  0
   -7.3984   -2.5439   -2.5180 H   0  0  0  0  0  0  0  0  0  0  0  0
   -5.9687   -1.7041   -3.1410 H   0  0  0  0  0  0  0  0  0  0  0  0
  1  5  1  0  0  0  0
  1102  1  0  0  0  0
  2  3  2  0  0  0  0
  2 76  1  0  0  0  0
  2103  1  0  0  0  0
  3  4  1  0  0  0  0
  3104  1  0  0  0  0
  4  5  2  0  0  0  0
  4105  1  0  0  0  0
  6  7  2  0  0  0  0
  6 11  1  0  0  0  0
  6 12  1  0  0  0  0
  7  8  1  0  0  0  0
  7 15  1  0  0  0  0
  8  9  2  0  0  0  0
  8106  1  0  0  0  0
  9 10  1  0  0  0  0
  9107  1  0  0  0  0
 10 11  2  0  0  0  0
 10108  1  0  0  0  0
 11109  1  0  0  0  0
 12 13  2  0  0  0  0
 12110  1  0  0  0  0
 13 14  1  0  0  0  0
 13111  1  0  0  0  0
 14 15  2  0  0  0  0
 14 16  1  0  0  0  0
 15112  1  0  0  0  0
 16 17  1  0  0  0  0
 16113  1  0  0  0  0
 16114  1  0  0  0  0
 17 19  1  0  0  0  0
 17 58  1  0  0  0  0
 17115  1  6  0  0  0
 18 19  1  0  0  0  0
 18116  1  0  0  0  0
 19 20  2  0  0  0  0
 21 32  1  0  0  0  0
 21117  1  1  0  0  0
 21 22  1  0  0  0  0
 21 18  1  0  0  0  0
 22 23  1  0  0  0  0
 22 33  2  0  0  0  0
 23 24  1  0  0  0  0
 23118  1  0  0  0  0
 24 25  1  0  0  0  0
 24 34  1  0  0  0  0
 24119  1  6  0  0  0
 25 26  1  0  0  0  0
 25 36  2  0  0  0  0
 26120  1  0  0  0  0
 27 35  1  0  0  0  0
 27121  1  1  0  0  0
 27 28  1  0  0  0  0
 27 26  1  0  0  0  0
 28 29  1  0  0  0  0
 28 37  2  0  0  0  0
 29 38  1  0  0  0  0
 30 56  1  0  0  0  0
 30122  1  1  0  0  0
 30 31  1  0  0  0  0
 30 29  1  0  0  0  0
 31 39  2  0  0  0  0
 31 40  1  0  0  0  0
 32123  1  0  0  0  0
 32124  1  0  0  0  0
 34 76  1  0  0  0  0
 34125  1  0  0  0  0
 34126  1  0  0  0  0
 35 77  1  0  0  0  0
 35127  1  0  0  0  0
 35128  1  0  0  0  0
 38129  1  0  0  0  0
 38130  1  0  0  0  0
 38131  1  0  0  0  0
 40 42  1  0  0  0  0
 40132  1  0  0  0  0
 41133  1  0  0  0  0
 42 43  1  0  0  0  0
 42 46  1  0  0  0  0
 42134  1  1  0  0  0
 43 41  1  0  0  0  0
 43 48  2  0  0  0  0
 44 45  1  0  0  0  0
 44135  1  0  0  0  0
 44136  1  0  0  0  0
 45 46  1  0  0  0  0
 45 47  2  0  0  0  0
 46137  1  0  0  0  0
 46138  1  0  0  0  0
 49 54  1  0  0  0  0
 49139  1  1  0  0  0
 49 41  1  0  0  0  0
 49 50  1  0  0  0  0
 50 51  1  0  0  0  0
 50 55  2  0  0  0  0
 51140  1  0  0  0  0
 52 94  1  0  0  0  0
 52141  1  6  0  0  0
 52 53  1  0  0  0  0
 52 51  1  0  0  0  0
 53 57  2  0  0  0  0
 53 65  1  0  0  0  0
 54 85  1  0  0  0  0
 54142  1  0  0  0  0
 54143  1  0  0  0  0
 56 78  1  0  0  0  0
 56144  1  0  0  0  0
 56145  1  0  0  0  0
 58 59  1  0  0  0  0
 58146  1  0  0  0  0
 59 60  1  0  0  0  0
 59 61  2  0  0  0  0
 60147  1  0  0  0  0
 60148  1  0  0  0  0
 60149  1  0  0  0  0
 62 66  1  0  0  0  0
 62150  1  6  0  0  0
 62 67  1  0  0  0  0
 63 64  1  0  0  0  0
 63 66  1  0  0  0  0
 63151  1  0  0  0  0
 63152  1  0  0  0  0
 64 65  1  0  0  0  0
 64153  1  0  0  0  0
 64154  1  0  0  0  0
 65 62  1  0  0  0  0
 66155  1  0  0  0  0
 66156  1  0  0  0  0
 67 68  2  0  0  0  0
 67 88  1  0  0  0  0
 69 32  1  0  0  0  0
 69 70  1  0  0  0  0
 70 71  2  0  0  0  0
 70157  1  0  0  0  0
 71 72  1  0  0  0  0
 71158  1  0  0  0  0
 72 73  2  0  0  0  0
 72 75  1  0  0  0  0
 73 74  1  0  0  0  0
 73159  1  0  0  0  0
 74 69  2  0  0  0  0
 74160  1  0  0  0  0
 76  1  2  0  0  0  0
 77161  1  0  0  0  0
 78 80  1  0  0  0  0
 78 79  2  0  0  0  0
 79162  1  0  0  0  0
 80 81  2  0  0  0  0
 80163  1  0  0  0  0
 81 82  1  0  0  0  0
 81164  1  0  0  0  0
 82 83  2  0  0  0  0
 82 84  1  0  0  0  0
 83 79  1  0  0  0  0
 83165  1  0  0  0  0
 84166  1  0  0  0  0
 85 86  1  0  0  0  0
 85 87  1  0  0  0  0
 85167  1  0  0  0  0
 86168  1  0  0  0  0
 86169  1  0  0  0  0
 86170  1  0  0  0  0
 87171  1  0  0  0  0
 87172  1  0  0  0  0
 87173  1  0  0  0  0
 88174  1  0  0  0  0
 89 90  1  0  0  0  0
 89 91  1  0  0  0  0
 90175  1  0  0  0  0
 90176  1  0  0  0  0
 91 88  1  0  0  0  0
 91 92  1  0  0  0  0
 91177  1  6  0  0  0
 92178  1  0  0  0  0
 92179  1  0  0  0  0
 92180  1  0  0  0  0
 93 89  2  0  0  0  0
 94 95  1  0  0  0  0
 94181  1  0  0  0  0
 94182  1  0  0  0  0
 95 96  1  0  0  0  0
 95183  1  0  0  0  0
 95184  1  0  0  0  0
 96 97  1  0  0  0  0
 96185  1  0  0  0  0
 96186  1  0  0  0  0
 97 98  1  0  0  0  0
 97187  1  0  0  0  0
 97188  1  0  0  0  0
 98 99  1  0  0  0  0
 98189  1  0  0  0  0
 99100  1  0  0  0  0
 99101  1  0  0  0  0
 99190  1  0  0  0  0
100191  1  0  0  0  0
100192  1  0  0  0  0
100193  1  0  0  0  0
101194  1  0  0  0  0
101195  1  0  0  0  0
101196  1  0  0  0  0
M  END
>  <DRUGBANK_ID>
DB00106

>  <SECONDARY_ACCESSION_NUMBERS>
BTD00051; BIOD00051

>  <COMMON_NAME>
Abarelix

>  <CAS_NUMBER>
183552-38-7

>  <UNII>
W486SJ5824

>  <SYNONYMS>
Abarelix

$$$$
