
 OpenBabel10282417183D

 23 23  0  0  0  0  0  0  0  0999 V2000
    1.3440   -0.2250    0.0360 C   0  0  0  0  0  0  0  0  0  0  0  0
    0.5020   -1.2510   -0.0040 C   0  0  0  0  0  0  0  0  0  0  0  0
    0.8920    1.0800   -0.0700 C   0  0  0  0  0  0  0  0  0  0  0  0
    3.2529   -0.5619    0.2480 As  0  0  0  0  0  0  0  0  0  0  0  0
   -0.8560   -1.0420    0.0030 C   0  0  0  0  0  0  0  0  0  0  0  0
   -0.5090    1.2150    0.0750 C   0  0  0  0  0  0  0  0  0  0  0  0
    4.1653    0.1213   -1.2092 O   0  0  0  0  0  0  0  0  0  0  0  0
    3.8560    0.2580    1.7928 O   0  0  0  0  0  0  0  0  0  0  0  0
    3.5176   -2.1932    0.3495 O   0  0  0  0  0  0  0  0  0  0  0  0
   -1.3730    0.2230   -0.0410 C   0  0  0  0  0  0  0  0  0  0  0  0
   -2.8131    0.4658   -0.2084 N   0  0  0  0  0  0  0  0  0  0  0  0
   -3.3264    1.8426   -0.2505 C   0  0  0  0  0  0  0  0  0  0  0  0
   -4.7665    2.0854   -0.4179 N   0  0  0  0  0  0  0  0  0  0  0  0
   -2.5251    2.8231   -0.1420 O   0  0  0  0  0  0  0  0  0  0  0  0
    0.8845   -2.2496   -0.0420 H   0  0  0  0  0  0  0  0  0  0  0  0
    1.5432    1.9107   -0.2456 H   0  0  0  0  0  0  0  0  0  0  0  0
   -1.5185   -1.8813    0.0435 H   0  0  0  0  0  0  0  0  0  0  0  0
   -0.8953    2.1885    0.2939 H   0  0  0  0  0  0  0  0  0  0  0  0
    3.8393   -0.3219   -2.0443 H   0  0  0  0  0  0  0  0  0  0  0  0
    3.6962    1.2433    1.7315 H   0  0  0  0  0  0  0  0  0  0  0  0
   -3.4562   -0.3211   -0.2954 H   0  0  0  0  0  0  0  0  0  0  0  0
   -5.1226    3.0407   -0.4470 H   0  0  0  0  0  0  0  0  0  0  0  0
   -5.4096    1.2985   -0.5049 H   0  0  0  0  0  0  0  0  0  0  0  0
  1  2  2  0  0  0  0
  1  3  1  0  0  0  0
  1  4  1  0  0  0  0
  2  5  1  0  0  0  0
  2 15  1  0  0  0  0
  3  6  2  0  0  0  0
  3 16  1  0  0  0  0
  4  7  1  0  0  0  0
  4  8  1  0  0  0  0
  4  9  2  0  0  0  0
  5 10  2  0  0  0  0
  5 17  1  0  0  0  0
  6 10  1  0  0  0  0
  6 18  1  0  0  0  0
  7 19  1  0  0  0  0
  8 20  1  0  0  0  0
 10 11  1  0  0  0  0
 11 12  1  0  0  0  0
 11 21  1  0  0  0  0
 12 13  1  0  0  0  0
 12 14  2  0  0  0  0
 13 22  1  0  0  0  0
 13 23  1  0  0  0  0
M  END
>  <DRUGBANK_ID>
DB11382

>  <COMMON_NAME>
Carbarsone

>  <CAS_NUMBER>
121-59-5

>  <UNII>
8PK70TXE1T

>  <SYNONYMS>
Carbarson; Carbarsone; Carbarsonum; Pentarsone; Phenarsone

$$$$
