A25
 OpenBabel10282417163D

 41 43  0  0  0  0  0  0  0  0999 V2000
   -0.5539    1.6716   -0.1362 C   0  0  0  0  0  0  0  0  0  0  0  0
    0.0903    0.9522    0.8440 C   0  0  0  0  0  0  0  0  0  0  0  0
    0.2261   -0.4825    0.3190 C   0  0  0  0  0  0  0  0  0  0  0  0
    0.6509   -0.6917   -0.9759 C   0  0  0  0  0  0  0  0  0  0  0  0
    0.7732    0.3946   -1.7704 C   0  0  0  0  0  0  0  0  0  0  0  0
    0.1697    1.5867   -1.3465 C   0  0  0  0  0  0  0  0  0  0  0  0
    1.8083    0.1888   -3.1183 Cl  0  0  0  0  0  0  0  0  0  0  0  0
    1.0830    2.2551    1.0423 O   0  0  0  0  0  0  0  0  0  0  0  0
    2.4692    2.9808    1.2861 C   0  0  0  0  0  0  0  0  0  0  0  0
   -0.6899   -1.7908    0.5786 N   0  0  0  0  0  0  0  0  0  0  0  0
   -0.3383   -3.1469    0.1891 C   0  0  0  0  0  0  0  0  0  0  0  0
    0.9383   -3.6167    0.1916 N   0  0  0  0  0  0  0  0  0  0  0  0
   -1.2428   -3.9879   -0.2161 O   0  0  0  0  0  0  0  0  0  0  0  0
    2.0308   -2.8763    0.6535 C   0  0  0  0  0  0  0  0  0  0  0  0
    3.0668   -2.6885   -0.2580 N   0  0  0  0  0  0  0  0  0  0  0  0
    3.7821   -1.5586   -0.0606 C   0  0  0  0  0  0  0  0  0  0  0  0
    3.4533   -0.8708    1.0548 C   0  0  0  0  0  0  0  0  0  0  0  0
    2.5420   -1.0615    2.0439 N   0  0  0  0  0  0  0  0  0  0  0  0
    1.7946   -2.1334    1.7997 C   0  0  0  0  0  0  0  0  0  0  0  0
    4.5191   -0.9587   -1.1044 O   0  0  0  0  0  0  0  0  0  0  0  0
    5.2429    0.3382   -0.9929 C   0  0  0  0  0  0  0  0  0  0  0  0
    4.5187    1.6239   -1.4518 C   0  0  0  0  0  0  0  0  0  0  0  0
    3.5362    2.0631    0.9148 C   0  0  0  0  0  0  0  0  0  0  0  0
    3.3248    1.9016   -0.5913 C   0  0  0  0  0  0  0  0  0  0  0  0
   -1.0359    2.6049    0.1532 H   0  0  0  0  0  0  0  0  0  0  0  0
    0.8254   -1.6795   -1.3831 H   0  0  0  0  0  0  0  0  0  0  0  0
    0.5087    2.5203   -1.7848 H   0  0  0  0  0  0  0  0  0  0  0  0
    2.6370    3.3349    2.3180 H   0  0  0  0  0  0  0  0  0  0  0  0
    2.6920    3.8725    0.6430 H   0  0  0  0  0  0  0  0  0  0  0  0
   -1.6591   -1.6561    0.2753 H   0  0  0  0  0  0  0  0  0  0  0  0
    1.1816   -4.4405   -0.3344 H   0  0  0  0  0  0  0  0  0  0  0  0
    3.8161    0.0996    0.9550 H   0  0  0  0  0  0  0  0  0  0  0  0
    0.8663   -2.2077    2.3726 H   0  0  0  0  0  0  0  0  0  0  0  0
    5.6746    0.5088    0.0014 H   0  0  0  0  0  0  0  0  0  0  0  0
    6.0996    0.2726   -1.6742 H   0  0  0  0  0  0  0  0  0  0  0  0
    5.1588    2.5217   -1.4297 H   0  0  0  0  0  0  0  0  0  0  0  0
    4.1872    1.5516   -2.4973 H   0  0  0  0  0  0  0  0  0  0  0  0
    3.1073    1.3550    1.6236 H   0  0  0  0  0  0  0  0  0  0  0  0
    4.5904    2.1360    1.2235 H   0  0  0  0  0  0  0  0  0  0  0  0
    2.8055    2.7644   -1.0369 H   0  0  0  0  0  0  0  0  0  0  0  0
    2.6777    1.0568   -0.6994 H   0  0  0  0  0  0  0  0  0  0  0  0
  1  2  1  0  0  0  0
  1  6  2  0  0  0  0
  1 25  1  0  0  0  0
  2  8  1  0  0  0  0
  2  3  2  0  0  0  0
  3  4  1  0  0  0  0
  3 10  1  0  0  0  0
  4  5  2  0  0  0  0
  4 26  1  0  0  0  0
  5  6  1  0  0  0  0
  5  7  1  0  0  0  0
  6 27  1  0  0  0  0
  8  9  1  0  0  0  0
  9 23  1  0  0  0  0
  9 28  1  0  0  0  0
  9 29  1  0  0  0  0
 10 11  1  0  0  0  0
 10 30  1  0  0  0  0
 11 13  2  0  0  0  0
 11 12  1  0  0  0  0
 12 14  1  0  0  0  0
 12 31  1  0  0  0  0
 14 19  1  0  0  0  0
 14 15  2  0  0  0  0
 15 16  1  0  0  0  0
 16 17  2  0  0  0  0
 16 20  1  0  0  0  0
 17 18  1  0  0  0  0
 17 32  1  0  0  0  0
 18 19  2  0  0  0  0
 19 33  1  0  0  0  0
 20 21  1  0  0  0  0
 21 22  1  0  0  0  0
 21 34  1  0  0  0  0
 21 35  1  0  0  0  0
 22 24  1  0  0  0  0
 22 36  1  0  0  0  0
 22 37  1  0  0  0  0
 23 24  1  0  0  0  0
 23 38  1  0  0  0  0
 23 39  1  0  0  0  0
 24 40  1  0  0  0  0
 24 41  1  0  0  0  0
M  END
>  <DRUGBANK_ID>
DB07311

>  <COMMON_NAME>
18-CHLORO-11,12,13,14-TETRAHYDRO-1H,10H-8,4-(AZENO)-9,15,1,3,6-BENZODIOXATRIAZACYCLOHEPTADECIN-2-ONE

$$$$
