
 OpenBabel10282417193D

 43 45  0  0  0  0  0  0  0  0999 V2000
    1.3839    0.0440    0.4502 C   0  0  0  0  0  0  0  0  0  0  0  0
    0.7616    1.1745   -0.3221 C   0  0  0  0  0  0  0  0  0  0  0  0
    0.0892    1.1022   -1.5045 C   0  0  0  0  0  0  0  0  0  0  0  0
   -0.2423    2.4657   -2.0145 C   0  0  0  0  0  0  0  0  0  0  0  0
   -0.9312    3.1504   -3.1409 C   0  0  0  0  0  0  0  0  0  0  0  0
   -0.7947    4.5659   -3.2318 C   0  0  0  0  0  0  0  0  0  0  0  0
   -0.0529    5.3159   -2.3294 C   0  0  0  0  0  0  0  0  0  0  0  0
    0.5821    4.6968   -1.2603 C   0  0  0  0  0  0  0  0  0  0  0  0
    0.4663    3.2995   -1.0929 C   0  0  0  0  0  0  0  0  0  0  0  0
    1.0188    2.4959   -0.1011 N   0  0  0  0  0  0  0  0  0  0  0  0
    1.8566    2.8745    1.0214 C   0  0  0  0  0  0  0  0  0  0  0  0
    1.2078    2.3955    2.2974 C   0  0  0  0  0  0  0  0  0  0  0  0
    1.6607    1.5569    3.0629 O   0  0  0  0  0  0  0  0  0  0  0  0
   -0.0194    2.9170    2.5000 O   0  0  0  0  0  0  0  0  0  0  0  0
   -1.7868    2.6541   -4.2117 N   0  0  0  0  0  0  0  0  0  0  0  0
   -2.2503    1.4010   -4.5075 C   0  0  0  0  0  0  0  0  0  0  0  0
   -2.9294    1.0804   -5.4923 O   0  0  0  0  0  0  0  0  0  0  0  0
   -1.7744    0.4095   -3.6052 C   0  0  0  0  0  0  0  0  0  0  0  0
    0.4043   -0.4426   -2.2750 S   0  0  0  0  0  0  0  0  0  0  0  0
   -0.5796   -1.8265   -1.6043 C   0  0  0  0  0  0  0  0  0  0  0  0
   -0.9679   -2.0372   -0.2744 C   0  0  0  0  0  0  0  0  0  0  0  0
   -0.5147   -3.2127    0.3440 C   0  0  0  0  0  0  0  0  0  0  0  0
    0.0957   -4.2171   -0.4190 C   0  0  0  0  0  0  0  0  0  0  0  0
    0.1841   -4.1057   -1.8009 C   0  0  0  0  0  0  0  0  0  0  0  0
   -0.1672   -2.9080   -2.3919 C   0  0  0  0  0  0  0  0  0  0  0  0
    0.8251   -5.5695    0.3506 Cl  0  0  0  0  0  0  0  0  0  0  0  0
    1.2299   -0.9386    0.0151 H   0  0  0  0  0  0  0  0  0  0  0  0
    0.9162   -0.0490    1.4261 H   0  0  0  0  0  0  0  0  0  0  0  0
    2.4705    0.1241    0.4505 H   0  0  0  0  0  0  0  0  0  0  0  0
   -1.2829    5.1148   -4.0404 H   0  0  0  0  0  0  0  0  0  0  0  0
    0.0262    6.3958   -2.4557 H   0  0  0  0  0  0  0  0  0  0  0  0
    1.1694    5.3055   -0.5756 H   0  0  0  0  0  0  0  0  0  0  0  0
    2.8132    2.3515    0.8786 H   0  0  0  0  0  0  0  0  0  0  0  0
    2.0514    3.9436    1.0460 H   0  0  0  0  0  0  0  0  0  0  0  0
   -0.3841    2.4383    3.2730 H   0  0  0  0  0  0  0  0  0  0  0  0
   -2.1290    3.3195   -4.8940 H   0  0  0  0  0  0  0  0  0  0  0  0
   -0.7221    0.5693   -3.8728 H   0  0  0  0  0  0  0  0  0  0  0  0
   -2.1019    0.6926   -2.5967 H   0  0  0  0  0  0  0  0  0  0  0  0
   -2.0020   -0.6326   -3.7947 H   0  0  0  0  0  0  0  0  0  0  0  0
   -1.4321   -1.2639    0.3348 H   0  0  0  0  0  0  0  0  0  0  0  0
   -0.5393   -3.2986    1.4297 H   0  0  0  0  0  0  0  0  0  0  0  0
    0.6454   -4.8675   -2.4201 H   0  0  0  0  0  0  0  0  0  0  0  0
    0.1312   -2.7265   -3.4253 H   0  0  0  0  0  0  0  0  0  0  0  0
  1  2  1  0  0  0  0
  1 27  1  0  0  0  0
  1 28  1  0  0  0  0
  1 29  1  0  0  0  0
  2  3  2  0  0  0  0
  2 10  1  0  0  0  0
  3  4  1  0  0  0  0
  3 19  1  0  0  0  0
  4  5  2  0  0  0  0
  4  9  1  0  0  0  0
  5  6  1  0  0  0  0
  5 15  1  0  0  0  0
  6  7  2  0  0  0  0
  6 30  1  0  0  0  0
  7  8  1  0  0  0  0
  7 31  1  0  0  0  0
  8  9  2  0  0  0  0
  8 32  1  0  0  0  0
  9 10  1  0  0  0  0
 10 11  1  0  0  0  0
 11 12  1  0  0  0  0
 11 33  1  0  0  0  0
 11 34  1  0  0  0  0
 12 13  2  0  0  0  0
 12 14  1  0  0  0  0
 14 35  1  0  0  0  0
 15 16  1  0  0  0  0
 15 36  1  0  0  0  0
 16 17  2  0  0  0  0
 16 18  1  0  0  0  0
 18 37  1  0  0  0  0
 18 38  1  0  0  0  0
 18 39  1  0  0  0  0
 19 20  1  0  0  0  0
 20 21  2  0  0  0  0
 20 25  1  0  0  0  0
 21 22  1  0  0  0  0
 21 40  1  0  0  0  0
 22 23  2  0  0  0  0
 22 41  1  0  0  0  0
 23 24  1  0  0  0  0
 23 26  1  0  0  0  0
 24 25  2  0  0  0  0
 24 42  1  0  0  0  0
 25 43  1  0  0  0  0
M  END
>  <DRUGBANK_ID>
DB11946

>  <COMMON_NAME>
AZD-1981

>  <CAS_NUMBER>
802904-66-1

>  <UNII>
2AD53WQ2CX

$$$$
