
 OpenBabel10282417123D

 47 49  0  0  0  0  0  0  0  0999 V2000
   10.6096    0.4580   -6.7960 S   0  0  0  0  0  0  0  0  0  0  0  0
    9.5333   -5.8391   -4.5886 O   0  0  0  0  0  0  0  0  0  0  0  0
    9.2793    0.9345   -7.1220 O   0  0  0  0  0  0  0  0  0  0  0  0
   11.5430    1.2426   -6.0343 O   0  0  0  0  0  0  0  0  0  0  0  0
    7.0745   -1.0300   -0.8681 N   0  0  0  0  0  0  0  0  0  0  0  0
    8.7532   -4.8107   -2.7695 N   0  0  0  0  0  0  0  0  0  0  0  0
   11.3295    0.0930   -8.2642 N   0  0  0  0  0  0  0  0  0  0  0  0
    6.9782   -3.4310   -1.5904 C   0  0  1  0  0  0  0  0  0  0  0  0
    6.9195   -2.4174   -0.4233 C   0  0  0  0  0  0  0  0  0  0  0  0
    8.4370   -3.7557   -1.8392 C   0  0  0  0  0  0  0  0  0  0  0  0
    6.0496   -0.2223   -1.3267 C   0  0  0  0  0  0  0  0  0  0  0  0
    6.2101   -4.7037   -1.3396 C   0  0  0  0  0  0  0  0  0  0  0  0
    6.6286    0.9864   -1.7267 C   0  0  0  0  0  0  0  0  0  0  0  0
    8.2657   -0.3448   -0.9227 C   0  0  0  0  0  0  0  0  0  0  0  0
    8.0211    0.8947   -1.4702 C   0  0  0  0  0  0  0  0  0  0  0  0
    4.6688   -0.4496   -1.4434 C   0  0  0  0  0  0  0  0  0  0  0  0
    5.8104    1.9964   -2.2699 C   0  0  0  0  0  0  0  0  0  0  0  0
    9.3993   -4.7714   -3.9877 C   0  0  0  0  0  0  0  0  0  0  0  0
    3.8763    0.5703   -1.9824 C   0  0  0  0  0  0  0  0  0  0  0  0
    4.4365    1.7757   -2.3944 C   0  0  0  0  0  0  0  0  0  0  0  0
    9.8788   -3.4898   -4.6272 C   0  0  0  0  0  0  0  0  0  0  0  0
    9.8421   -2.2278   -4.0323 C   0  0  0  0  0  0  0  0  0  0  0  0
   10.4199   -3.5274   -5.9150 C   0  0  0  0  0  0  0  0  0  0  0  0
   10.4241   -1.1015   -6.0113 C   0  0  0  0  0  0  0  0  0  0  0  0
    9.9116   -1.0491   -4.7406 C   0  0  0  0  0  0  0  0  0  0  0  0
   10.7904   -2.3326   -6.5644 C   0  0  0  0  0  0  0  0  0  0  0  0
    8.5285   -5.7599   -2.4837 H   0  0  0  0  0  0  0  0  0  0  0  0
   10.7061   -0.4827   -8.8283 H   0  0  0  0  0  0  0  0  0  0  0  0
   11.5364    0.9753   -8.7356 H   0  0  0  0  0  0  0  0  0  0  0  0
    6.5643   -2.9606   -2.4967 H   0  0  0  0  0  0  0  0  0  0  0  0
    5.9723   -2.4843    0.1168 H   0  0  0  0  0  0  0  0  0  0  0  0
    7.7181   -2.6059    0.3073 H   0  0  0  0  0  0  0  0  0  0  0  0
    9.0596   -3.8786   -0.9485 H   0  0  0  0  0  0  0  0  0  0  0  0
    8.6954   -2.8297   -2.2590 H   0  0  0  0  0  0  0  0  0  0  0  0
    5.1643   -4.4848   -1.1228 H   0  0  0  0  0  0  0  0  0  0  0  0
    6.2391   -5.3332   -2.2372 H   0  0  0  0  0  0  0  0  0  0  0  0
    6.6593   -5.2588   -0.5133 H   0  0  0  0  0  0  0  0  0  0  0  0
    9.1962   -0.7867   -0.5916 H   0  0  0  0  0  0  0  0  0  0  0  0
    8.7568    1.6643   -1.6684 H   0  0  0  0  0  0  0  0  0  0  0  0
    4.2167   -1.3851   -1.1318 H   0  0  0  0  0  0  0  0  0  0  0  0
    6.2433    2.9388   -2.5931 H   0  0  0  0  0  0  0  0  0  0  0  0
    2.8045    0.4173   -2.0853 H   0  0  0  0  0  0  0  0  0  0  0  0
    3.8052    2.5532   -2.8176 H   0  0  0  0  0  0  0  0  0  0  0  0
    9.8781   -2.0395   -2.9774 H   0  0  0  0  0  0  0  0  0  0  0  0
   10.5940   -4.4853   -6.4042 H   0  0  0  0  0  0  0  0  0  0  0  0
    9.6544   -0.1135   -4.2480 H   0  0  0  0  0  0  0  0  0  0  0  0
   11.3543   -2.3860   -7.4886 H   0  0  0  0  0  0  0  0  0  0  0  0
  1  3  2  0  0  0  0
  1  4  2  0  0  0  0
  1  7  1  0  0  0  0
  1 24  1  0  0  0  0
  2 18  2  0  0  0  0
  5  9  1  0  0  0  0
  5 11  1  0  0  0  0
  5 14  1  0  0  0  0
  6 10  1  0  0  0  0
  6 18  1  0  0  0  0
  6 27  1  0  0  0  0
  7 28  1  0  0  0  0
  7 29  1  0  0  0  0
  8 12  1  0  0  0  0
  8 30  1  6  0  0  0
  8 10  1  0  0  0  0
  8  9  1  0  0  0  0
  9 31  1  0  0  0  0
  9 32  1  0  0  0  0
 10 33  1  0  0  0  0
 10 34  1  0  0  0  0
 11 13  1  0  0  0  0
 11 16  2  0  0  0  0
 12 35  1  0  0  0  0
 12 36  1  0  0  0  0
 12 37  1  0  0  0  0
 13 15  1  0  0  0  0
 13 17  2  0  0  0  0
 14 15  2  0  0  0  0
 14 38  1  0  0  0  0
 15 39  1  0  0  0  0
 16 19  1  0  0  0  0
 16 40  1  0  0  0  0
 17 20  1  0  0  0  0
 17 41  1  0  0  0  0
 18 21  1  0  0  0  0
 19 20  2  0  0  0  0
 19 42  1  0  0  0  0
 20 43  1  0  0  0  0
 21 22  2  0  0  0  0
 21 23  1  0  0  0  0
 22 25  1  0  0  0  0
 22 44  1  0  0  0  0
 23 26  2  0  0  0  0
 23 45  1  0  0  0  0
 24 25  2  0  0  0  0
 24 26  1  0  0  0  0
 25 46  1  0  0  0  0
 26 47  1  0  0  0  0
M  END
>  <DRUGBANK_ID>
DB02479

>  <SECONDARY_ACCESSION_NUMBERS>
EXPT02859

>  <COMMON_NAME>
(R)-N-(3-Indol-1-Yl-2-Methyl-Propyl)-4-Sulfamoyl-Benzamide

$$$$
