
 OpenBabel10282417123D

  9  9  0  0  0  0  0  0  0  0999 V2000
   -1.1977   -0.0502   -0.0003 C   0  0  0  0  0  0  0  0  0  0  0  0
    0.9282   -0.6565   -0.0009 C   0  0  0  0  0  0  0  0  0  0  0  0
   -0.3820   -1.1496    0.0027 C   0  0  0  0  0  0  0  0  0  0  0  0
   -0.9557   -3.0757    0.0108 I   0  0  0  0  0  0  0  0  0  0  0  0
   -0.3514    1.0227   -0.0010 N   0  0  0  0  0  0  0  0  0  0  0  0
    0.9516    0.6813   -0.0028 N   0  0  0  0  0  0  0  0  0  0  0  0
   -2.2708    0.0745   -0.0008 H   0  0  0  0  0  0  0  0  0  0  0  0
    1.8653   -1.1980   -0.0020 H   0  0  0  0  0  0  0  0  0  0  0  0
   -0.5888    2.0096   -0.0002 H   0  0  0  0  0  0  0  0  0  0  0  0
  1  7  1  0  0  0  0
  2  8  1  0  0  0  0
  3  1  2  0  0  0  0
  3  2  1  0  0  0  0
  4  3  1  0  0  0  0
  5  1  1  0  0  0  0
  5  9  1  0  0  0  0
  6  2  2  0  0  0  0
  6  5  1  0  0  0  0
M  END
>  <DRUGBANK_ID>
DB02721

>  <SECONDARY_ACCESSION_NUMBERS>
EXPT02726

>  <COMMON_NAME>
4-Iodopyrazole

>  <CAS_NUMBER>
3469-69-0

>  <UNII>
F33UJD465Q

$$$$
