739
 OpenBabel10282417113D

 50 53  0  0  1  0  0  0  0  0999 V2000
    1.0432   -1.0093   -0.4473 S   0  0  0  0  0  0  0  0  0  0  0  0
   -2.7279    1.1269   -0.3460 O   0  0  0  0  0  0  0  0  0  0  0  0
   -2.7027   -0.3540   -2.6828 O   0  0  0  0  0  0  0  0  0  0  0  0
   -0.5080    3.6343    0.9173 O   0  0  0  0  0  0  0  0  0  0  0  0
    1.0856    2.6689    2.1374 O   0  0  0  0  0  0  0  0  0  0  0  0
   -0.7880    0.4156    0.7048 N   0  0  0  0  0  0  0  0  0  0  0  0
   -1.8389   -2.0363   -1.3527 N   0  0  0  0  0  0  0  0  0  0  0  0
   -2.1358   -3.8424   -2.7890 N   0  0  0  0  0  0  0  0  0  0  0  0
   -0.4331   -1.0101    0.5956 C   0  0  1  0  0  0  0  0  0  0  0  0
   -1.8003   -1.3045   -0.0484 C   0  0  1  0  0  0  0  0  0  0  0  0
    0.2073    1.3989    0.2317 C   0  0  2  0  0  0  0  0  0  0  0  0
    1.5531    0.6447    0.0647 C   0  0  0  0  0  0  0  0  0  0  0  0
   -1.9678    0.2635    0.0118 C   0  0  0  0  0  0  0  0  0  0  0  0
   -1.4104   -3.3978   -1.5896 C   0  0  0  0  0  0  0  0  0  0  0  0
   -2.5029   -1.5340   -2.4589 C   0  0  0  0  0  0  0  0  0  0  0  0
   -3.0485   -2.7544   -3.1826 C   0  0  1  0  0  0  0  0  0  0  0  0
    2.4315    1.1542   -1.0755 C   0  0  0  0  0  0  0  0  0  0  0  0
    2.3742    0.4104    1.3379 C   0  0  0  0  0  0  0  0  0  0  0  0
    0.3296    2.6059    1.1779 C   0  0  0  0  0  0  0  0  0  0  0  0
    0.0676   -3.4695   -1.9832 C   0  0  0  0  0  0  0  0  0  0  0  0
   -1.6262   -4.3400   -0.4053 C   0  0  0  0  0  0  0  0  0  0  0  0
   -3.3401   -2.6552   -4.6627 C   0  0  0  0  0  0  0  0  0  0  0  0
   -3.8571   -3.7677   -5.3509 C   0  0  0  0  0  0  0  0  0  0  0  0
   -3.2972   -1.4299   -5.3449 C   0  0  0  0  0  0  0  0  0  0  0  0
   -4.3450   -3.6394   -6.6552 C   0  0  0  0  0  0  0  0  0  0  0  0
   -3.8470   -1.2867   -6.6161 C   0  0  0  0  0  0  0  0  0  0  0  0
   -4.3511   -2.3953   -7.2813 C   0  0  0  0  0  0  0  0  0  0  0  0
   -0.3007   -1.4910    1.5692 H   0  0  0  0  0  0  0  0  0  0  0  0
   -1.1847    3.4729    0.2310 H   0  0  0  0  0  0  0  0  0  0  0  0
   -2.6676   -4.6877   -2.6063 H   0  0  0  0  0  0  0  0  0  0  0  0
   -2.5114   -1.7831    0.6427 H   0  0  0  0  0  0  0  0  0  0  0  0
   -0.1182    1.7738   -0.7516 H   0  0  0  0  0  0  0  0  0  0  0  0
   -4.0181   -2.9452   -2.6959 H   0  0  0  0  0  0  0  0  0  0  0  0
    2.8099    2.1553   -0.8597 H   0  0  0  0  0  0  0  0  0  0  0  0
    3.3015    0.4995   -1.2290 H   0  0  0  0  0  0  0  0  0  0  0  0
    1.8893    1.1950   -2.0293 H   0  0  0  0  0  0  0  0  0  0  0  0
    3.1735   -0.3259    1.1908 H   0  0  0  0  0  0  0  0  0  0  0  0
    2.8785    1.3265    1.6531 H   0  0  0  0  0  0  0  0  0  0  0  0
    1.7469    0.0589    2.1672 H   0  0  0  0  0  0  0  0  0  0  0  0
    0.6863   -3.3398   -1.0960 H   0  0  0  0  0  0  0  0  0  0  0  0
    0.3731   -4.4479   -2.3599 H   0  0  0  0  0  0  0  0  0  0  0  0
    0.3290   -2.7090   -2.7310 H   0  0  0  0  0  0  0  0  0  0  0  0
   -2.6803   -4.4125   -0.1242 H   0  0  0  0  0  0  0  0  0  0  0  0
   -1.2604   -5.3470   -0.6409 H   0  0  0  0  0  0  0  0  0  0  0  0
   -1.0683   -3.9957    0.4740 H   0  0  0  0  0  0  0  0  0  0  0  0
   -3.9113   -4.7398   -4.8656 H   0  0  0  0  0  0  0  0  0  0  0  0
   -2.8720   -0.5386   -4.8936 H   0  0  0  0  0  0  0  0  0  0  0  0
   -4.7523   -4.5041   -7.1719 H   0  0  0  0  0  0  0  0  0  0  0  0
   -3.8957   -0.2982   -7.0649 H   0  0  0  0  0  0  0  0  0  0  0  0
   -4.7466   -2.2841   -8.2861 H   0  0  0  0  0  0  0  0  0  0  0  0
  1  9  1  0  0  0  0
  1 12  1  0  0  0  0
  2 13  2  0  0  0  0
  3 15  2  0  0  0  0
  4 19  1  0  0  0  0
  4 29  1  0  0  0  0
  5 19  2  0  0  0  0
  6  9  1  0  0  0  0
  6 11  1  0  0  0  0
  6 13  1  0  0  0  0
  7 14  1  0  0  0  0
  7 15  1  0  0  0  0
  8 14  1  0  0  0  0
  8 16  1  0  0  0  0
  8 30  1  0  0  0  0
  9 10  1  0  0  0  0
  9 28  1  1  0  0  0
 10 13  1  0  0  0  0
 10 31  1  1  0  0  0
 10  7  1  0  0  0  0
 11 12  1  0  0  0  0
 11 32  1  6  0  0  0
 11 19  1  0  0  0  0
 12 17  1  0  0  0  0
 12 18  1  0  0  0  0
 14 20  1  0  0  0  0
 14 21  1  0  0  0  0
 15 16  1  0  0  0  0
 16 22  1  0  0  0  0
 16 33  1  1  0  0  0
 17 34  1  0  0  0  0
 17 35  1  0  0  0  0
 17 36  1  0  0  0  0
 18 37  1  0  0  0  0
 18 38  1  0  0  0  0
 18 39  1  0  0  0  0
 20 40  1  0  0  0  0
 20 41  1  0  0  0  0
 20 42  1  0  0  0  0
 21 43  1  0  0  0  0
 21 44  1  0  0  0  0
 21 45  1  0  0  0  0
 22 23  2  0  0  0  0
 22 24  1  0  0  0  0
 23 25  1  0  0  0  0
 23 46  1  0  0  0  0
 24 26  2  0  0  0  0
 24 47  1  0  0  0  0
 25 27  2  0  0  0  0
 25 48  1  0  0  0  0
 26 27  1  0  0  0  0
 26 49  1  0  0  0  0
 27 50  1  0  0  0  0
M  END
>  <DRUGBANK_ID>
DB00739

>  <SECONDARY_ACCESSION_NUMBERS>
APRD01012

>  <COMMON_NAME>
Hetacillin

>  <CAS_NUMBER>
3511-16-8

>  <UNII>
TN4JSC48CV

>  <SYNONYMS>
(2S,5R,6R)-6-[(4R)-2,2-dimethyl-5-oxo-4-phenylimidazolidin-1-yl]-3,3-dimethyl-7-oxo-4-thia-1-azabicyclo[3.2.0]heptane-2-carboxylic acid; 6β-[(4R)-2,2-dimethyl-5-oxo-4-phenylimidazolidin-1-yl]penicillanic acid; Hetacilina; Hetacillin; Hétacilline; Hetacillinum

$$$$
