
 OpenBabel10282417133D

 28 29  0  0  0  0  0  0  0  0999 V2000
    0.9829   -0.1719   -0.0753 C   0  0  0  0  0  0  0  0  0  0  0  0
    0.5692   -1.1482   -1.0692 N   0  0  0  0  0  0  0  0  0  0  0  0
   -0.0576   -0.6802   -2.1818 N   0  0  0  0  0  0  0  0  0  0  0  0
   -0.2486   -1.7516   -2.9714 C   0  0  0  0  0  0  0  0  0  0  0  0
   -0.8567   -1.6395   -4.3086 C   0  0  0  0  0  0  0  0  0  0  0  0
   -2.0293   -2.3427   -4.6630 C   0  0  0  0  0  0  0  0  0  0  0  0
   -2.6064   -2.2512   -5.9640 C   0  0  0  0  0  0  0  0  0  0  0  0
   -3.8654   -3.0325   -6.2004 C   0  0  0  0  0  0  0  0  0  0  0  0
   -4.4550   -2.9514   -7.4081 O   0  0  0  0  0  0  0  0  0  0  0  0
   -4.3530   -3.7262   -5.3161 O   0  0  0  0  0  0  0  0  0  0  0  0
   -1.9662   -1.4466   -6.9160 C   0  0  0  0  0  0  0  0  0  0  0  0
   -2.5216   -1.2181   -8.5389 Cl  0  0  0  0  0  0  0  0  0  0  0  0
   -0.7943   -0.7620   -6.5778 C   0  0  0  0  0  0  0  0  0  0  0  0
   -0.2554   -0.8553   -5.2933 C   0  0  0  0  0  0  0  0  0  0  0  0
    0.8848   -0.1938   -5.0485 F   0  0  0  0  0  0  0  0  0  0  0  0
    0.2493   -2.9034   -2.3184 C   0  0  0  0  0  0  0  0  0  0  0  0
    0.2569   -4.6318   -3.0530 Br  0  0  0  0  0  0  0  0  0  0  0  0
    0.7510   -2.5108   -1.0937 C   0  0  0  0  0  0  0  0  0  0  0  0
    1.3724   -3.3288   -0.0296 C   0  0  0  0  0  0  0  0  0  0  0  0
    0.5313   -4.3026    0.4074 F   0  0  0  0  0  0  0  0  0  0  0  0
    2.4931   -3.9594   -0.4676 F   0  0  0  0  0  0  0  0  0  0  0  0
    1.7360   -2.6169    1.0661 F   0  0  0  0  0  0  0  0  0  0  0  0
    0.5870   -0.4412    0.9068 H   0  0  0  0  0  0  0  0  0  0  0  0
    0.5881    0.8130   -0.3520 H   0  0  0  0  0  0  0  0  0  0  0  0
    2.0749   -0.1172   -0.0578 H   0  0  0  0  0  0  0  0  0  0  0  0
   -2.5121   -2.9769   -3.9169 H   0  0  0  0  0  0  0  0  0  0  0  0
   -4.0267   -2.3844   -8.0791 H   0  0  0  0  0  0  0  0  0  0  0  0
   -0.2824   -0.1473   -7.3142 H   0  0  0  0  0  0  0  0  0  0  0  0
  1  2  1  0  0  0  0
  1 23  1  0  0  0  0
  1 24  1  0  0  0  0
  1 25  1  0  0  0  0
  2  3  1  0  0  0  0
  2 18  1  0  0  0  0
  3  4  2  0  0  0  0
  4  5  1  0  0  0  0
  4 16  1  0  0  0  0
  5  6  2  0  0  0  0
  5 14  1  0  0  0  0
  6  7  1  0  0  0  0
  6 26  1  0  0  0  0
  7  8  1  0  0  0  0
  7 11  2  0  0  0  0
  8  9  1  0  0  0  0
  8 10  2  0  0  0  0
  9 27  1  0  0  0  0
 11 12  1  0  0  0  0
 11 13  1  0  0  0  0
 13 14  2  0  0  0  0
 13 28  1  0  0  0  0
 14 15  1  0  0  0  0
 16 17  1  0  0  0  0
 16 18  2  0  0  0  0
 18 19  1  0  0  0  0
 19 20  1  0  0  0  0
 19 21  1  0  0  0  0
 19 22  1  0  0  0  0
M  END
>  <DRUGBANK_ID>
DB03272

>  <SECONDARY_ACCESSION_NUMBERS>
EXPT02434

>  <COMMON_NAME>
4-Bromo-3-(5'-Carboxy-4'-Chloro-2'-Fluorophenyl)-1-Methyl-5-Trifluoromethyl-Pyrazol

$$$$
