M22
 OpenBabel10282417173D

 41 44  0  0  0  0  0  0  0  0999 V2000
    0.1669    1.1345   -0.0242 C   0  0  0  0  0  0  0  0  0  0  0  0
   -0.4148   -0.1436   -0.0957 C   0  0  0  0  0  0  0  0  0  0  0  0
    0.3875   -1.2850   -0.0241 C   0  0  0  0  0  0  0  0  0  0  0  0
    1.7691   -1.1905    0.0357 C   0  0  0  0  0  0  0  0  0  0  0  0
    2.3782    0.0575    0.0609 C   0  0  0  0  0  0  0  0  0  0  0  0
    1.5777    1.2122    0.0567 C   0  0  0  0  0  0  0  0  0  0  0  0
   -2.5312    2.0203    1.0949 C   0  0  0  0  0  0  0  0  0  0  0  0
   -1.8168    2.4814   -0.0129 C   0  0  0  0  0  0  0  0  0  0  0  0
   -2.4928    3.0404   -1.1028 C   0  0  0  0  0  0  0  0  0  0  0  0
   -3.8951    3.0435   -1.1260 C   0  0  0  0  0  0  0  0  0  0  0  0
   -4.6114    2.4738   -0.0674 C   0  0  0  0  0  0  0  0  0  0  0  0
   -3.9234    1.9608    1.0315 C   0  0  0  0  0  0  0  0  0  0  0  0
   -0.4478    2.3803   -0.0790 O   0  0  0  0  0  0  0  0  0  0  0  0
   -4.7909    1.1366    2.2691 Cl  0  0  0  0  0  0  0  0  0  0  0  0
    3.7447   -0.0055    0.0566 O   0  0  0  0  0  0  0  0  0  0  0  0
    4.4803    1.2212    0.0125 C   0  0  0  0  0  0  0  0  0  0  0  0
    4.2986    2.0445   -1.2264 C   0  0  0  0  0  0  0  0  0  0  0  0
    3.9565    1.5116   -2.4100 N   0  0  0  0  0  0  0  0  0  0  0  0
    3.8590    2.5740   -3.2252 N   0  0  0  0  0  0  0  0  0  0  0  0
    4.4218    3.4553   -1.3001 C   0  0  0  0  0  0  0  0  0  0  0  0
    4.1579    3.7672   -2.6265 C   0  0  0  0  0  0  0  0  0  0  0  0
    4.2231    5.0685   -3.1265 C   0  0  0  0  0  0  0  0  0  0  0  0
    4.5657    6.0765   -2.2185 C   0  0  0  0  0  0  0  0  0  0  0  0
    4.8054    5.7934   -0.8728 C   0  0  0  0  0  0  0  0  0  0  0  0
    4.7290    4.4836   -0.3935 C   0  0  0  0  0  0  0  0  0  0  0  0
   -2.0780   -0.5353   -0.3629 Cl  0  0  0  0  0  0  0  0  0  0  0  0
   -4.6009    3.6100   -2.2371 C   0  0  0  0  0  0  0  0  0  0  0  0
   -5.1813    4.0847   -3.1258 N   0  0  0  0  0  0  0  0  0  0  0  0
   -0.0759   -2.2668   -0.0575 H   0  0  0  0  0  0  0  0  0  0  0  0
    2.3640   -2.1000    0.0251 H   0  0  0  0  0  0  0  0  0  0  0  0
    2.0330    2.1986    0.0684 H   0  0  0  0  0  0  0  0  0  0  0  0
   -2.0048    1.5700    1.9321 H   0  0  0  0  0  0  0  0  0  0  0  0
   -1.9290    3.4346   -1.9463 H   0  0  0  0  0  0  0  0  0  0  0  0
   -5.6979    2.4148   -0.1026 H   0  0  0  0  0  0  0  0  0  0  0  0
    4.2503    1.7985    0.9166 H   0  0  0  0  0  0  0  0  0  0  0  0
    5.5445    0.9624    0.0857 H   0  0  0  0  0  0  0  0  0  0  0  0
    3.5953    2.4159   -4.1910 H   0  0  0  0  0  0  0  0  0  0  0  0
    4.0348    5.2909   -4.1712 H   0  0  0  0  0  0  0  0  0  0  0  0
    4.6479    7.1025   -2.5695 H   0  0  0  0  0  0  0  0  0  0  0  0
    5.0649    6.5967   -0.1878 H   0  0  0  0  0  0  0  0  0  0  0  0
    4.9180    4.2703    0.6546 H   0  0  0  0  0  0  0  0  0  0  0  0
  1  2  2  0  0  0  0
  1  6  1  0  0  0  0
  1 13  1  0  0  0  0
  2  3  1  0  0  0  0
  2 26  1  0  0  0  0
  3  4  2  0  0  0  0
  3 29  1  0  0  0  0
  4  5  1  0  0  0  0
  4 30  1  0  0  0  0
  5  6  2  0  0  0  0
  5 15  1  0  0  0  0
  6 31  1  0  0  0  0
  7  8  2  0  0  0  0
  7 12  1  0  0  0  0
  7 32  1  0  0  0  0
  8  9  1  0  0  0  0
  8 13  1  0  0  0  0
  9 10  2  0  0  0  0
  9 33  1  0  0  0  0
 10 11  1  0  0  0  0
 10 27  1  0  0  0  0
 11 12  2  0  0  0  0
 11 34  1  0  0  0  0
 12 14  1  0  0  0  0
 15 16  1  0  0  0  0
 16 17  1  0  0  0  0
 16 35  1  0  0  0  0
 16 36  1  0  0  0  0
 17 18  2  0  0  0  0
 17 20  1  0  0  0  0
 18 19  1  0  0  0  0
 19 21  1  0  0  0  0
 19 37  1  0  0  0  0
 20 21  2  0  0  0  0
 20 25  1  0  0  0  0
 21 22  1  0  0  0  0
 22 23  2  0  0  0  0
 22 38  1  0  0  0  0
 23 24  1  0  0  0  0
 23 39  1  0  0  0  0
 24 25  2  0  0  0  0
 24 40  1  0  0  0  0
 25 41  1  0  0  0  0
 27 28  3  0  0  0  0
M  END
>  <DRUGBANK_ID>
DB08154

>  <COMMON_NAME>
3-chloro-5-[2-chloro-5-(1H-indazol-3-ylmethoxy)phenoxy]benzonitrile

$$$$
