
 OpenBabel10282417183D

 44 45  0  0  0  0  0  0  0  0999 V2000
    3.7731    3.6657   -0.5141 C   0  0  0  0  0  0  0  0  0  0  0  0
    2.8636    2.5280   -0.0605 C   0  0  0  0  0  0  0  0  0  0  0  0
    2.8592    2.5491    1.4585 C   0  0  0  0  0  0  0  0  0  0  0  0
    1.4102    2.5220   -0.6083 C   0  0  2  0  0  0  0  0  0  0  0  0
    1.4777    2.0239   -2.0516 C   0  0  0  0  0  0  0  0  0  0  0  0
    1.6838    3.1743   -3.0895 C   0  0  0  0  0  0  0  0  0  0  0  0
    1.1041    4.6202   -2.8360 C   0  0  1  0  0  0  0  0  0  0  0  0
   -0.2049    5.0871   -3.5116 C   0  0  0  0  0  0  0  0  0  0  0  0
    1.0775    4.9844   -1.3551 C   0  0  0  0  0  0  0  0  0  0  0  0
    0.5889    3.8321   -0.4743 C   0  0  1  0  0  0  0  0  0  0  0  0
   -0.8614    3.6333   -0.6645 O   0  0  0  0  0  0  0  0  0  0  0  0
   -1.3700    3.0711   -1.7722 C   0  0  0  0  0  0  0  0  0  0  0  0
   -0.7759    2.5321   -2.7111 O   0  0  0  0  0  0  0  0  0  0  0  0
   -2.7721    3.1767   -2.0832 C   0  0  0  0  0  0  0  0  0  0  0  0
   -3.2335    2.1809   -2.9762 C   0  0  0  0  0  0  0  0  0  0  0  0
   -4.5192    2.2088   -3.4543 C   0  0  0  0  0  0  0  0  0  0  0  0
   -5.3351    3.2633   -3.0681 C   0  0  0  0  0  0  0  0  0  0  0  0
   -4.8430    4.3204   -2.2781 C   0  0  0  0  0  0  0  0  0  0  0  0
   -3.5397    4.2921   -1.7990 C   0  0  0  0  0  0  0  0  0  0  0  0
   -2.9956    5.3558   -1.1431 O   0  0  0  0  0  0  0  0  0  0  0  0
    3.8703    3.7506   -1.5943 H   0  0  0  0  0  0  0  0  0  0  0  0
    4.7863    3.5463   -0.1276 H   0  0  0  0  0  0  0  0  0  0  0  0
    3.4270    4.6087   -0.0934 H   0  0  0  0  0  0  0  0  0  0  0  0
    3.3344    1.5851   -0.3763 H   0  0  0  0  0  0  0  0  0  0  0  0
    2.3234    1.6880    1.8639 H   0  0  0  0  0  0  0  0  0  0  0  0
    3.8895    2.5234    1.8252 H   0  0  0  0  0  0  0  0  0  0  0  0
    2.3911    3.4649    1.8288 H   0  0  0  0  0  0  0  0  0  0  0  0
    0.8522    1.7631   -0.0343 H   0  0  0  0  0  0  0  0  0  0  0  0
    2.2362    1.2475   -2.1984 H   0  0  0  0  0  0  0  0  0  0  0  0
    0.6132    1.3679   -2.1997 H   0  0  0  0  0  0  0  0  0  0  0  0
    2.7703    3.2949   -3.1141 H   0  0  0  0  0  0  0  0  0  0  0  0
    1.4477    2.8334   -4.1008 H   0  0  0  0  0  0  0  0  0  0  0  0
    1.8388    5.2969   -3.2965 H   0  0  0  0  0  0  0  0  0  0  0  0
   -0.0661    5.2230   -4.5806 H   0  0  0  0  0  0  0  0  0  0  0  0
   -1.0772    4.4566   -3.4790 H   0  0  0  0  0  0  0  0  0  0  0  0
   -0.5644    6.0118   -3.0407 H   0  0  0  0  0  0  0  0  0  0  0  0
    2.0829    5.3212   -1.1133 H   0  0  0  0  0  0  0  0  0  0  0  0
    0.4885    5.8877   -1.1523 H   0  0  0  0  0  0  0  0  0  0  0  0
    0.6661    4.1722    0.5662 H   0  0  0  0  0  0  0  0  0  0  0  0
   -2.5511    1.4109   -3.3482 H   0  0  0  0  0  0  0  0  0  0  0  0
   -4.8523    1.4162   -4.1165 H   0  0  0  0  0  0  0  0  0  0  0  0
   -6.3641    3.2683   -3.4080 H   0  0  0  0  0  0  0  0  0  0  0  0
   -5.4934    5.1598   -2.0626 H   0  0  0  0  0  0  0  0  0  0  0  0
   -3.6621    6.0462   -1.0045 H   0  0  0  0  0  0  0  0  0  0  0  0
  1  2  1  0  0  0  0
  1 21  1  0  0  0  0
  1 22  1  0  0  0  0
  1 23  1  0  0  0  0
  2  3  1  0  0  0  0
  2 24  1  0  0  0  0
  3 25  1  0  0  0  0
  3 26  1  0  0  0  0
  3 27  1  0  0  0  0
  4  5  1  0  0  0  0
  4 10  1  0  0  0  0
  4 28  1  1  0  0  0
  4  2  1  0  0  0  0
  5  6  1  0  0  0  0
  5 29  1  0  0  0  0
  5 30  1  0  0  0  0
  6  7  1  0  0  0  0
  6 31  1  0  0  0  0
  6 32  1  0  0  0  0
  7  9  1  0  0  0  0
  7 33  1  6  0  0  0
  7  8  1  0  0  0  0
  8 34  1  0  0  0  0
  8 35  1  0  0  0  0
  8 36  1  0  0  0  0
  9 10  1  0  0  0  0
  9 37  1  0  0  0  0
  9 38  1  0  0  0  0
 10 11  1  0  0  0  0
 10 39  1  1  0  0  0
 11 12  1  0  0  0  0
 12 13  2  0  0  0  0
 12 14  1  0  0  0  0
 14 15  2  0  0  0  0
 14 19  1  0  0  0  0
 15 16  1  0  0  0  0
 15 40  1  0  0  0  0
 16 17  2  0  0  0  0
 16 41  1  0  0  0  0
 17 18  1  0  0  0  0
 17 42  1  0  0  0  0
 18 19  2  0  0  0  0
 18 43  1  0  0  0  0
 19 20  1  0  0  0  0
 20 44  1  0  0  0  0
M  END
>  <DRUGBANK_ID>
DB11201

>  <COMMON_NAME>
Menthyl salicylate

>  <CAS_NUMBER>
89-46-3

>  <UNII>
43XOA705ZD

>  <SYNONYMS>
1-Menthyl salicylate; Menthyl salicylate, (+/-)-

$$$$
