
 OpenBabel10282417183D

 32 32  0  0  0  0  0  0  0  0999 V2000
    0.4303    0.0117   -0.1814 C   0  0  0  0  0  0  0  0  0  0  0  0
   -0.4749    1.4044    1.6057 C   0  0  0  0  0  0  0  0  0  0  0  0
    2.3812   -5.0445   -1.3352 C   0  0  0  0  0  0  0  0  0  0  0  0
    3.3244   -5.9813   -0.5584 C   0  0  0  0  0  0  0  0  0  0  0  0
    3.4115   -1.3598   -1.0379 C   0  0  0  0  0  0  0  0  0  0  0  0
    0.7815   -0.6233    2.2309 C   0  0  0  0  0  0  0  0  0  0  0  0
    2.4267   -3.5959   -0.8730 C   0  0  0  0  0  0  0  0  0  0  0  0
    3.1407   -2.6156   -1.5957 C   0  0  0  0  0  0  0  0  0  0  0  0
    3.1172   -1.1079    0.3048 C   0  0  0  0  0  0  0  0  0  0  0  0
    3.0018   -6.1411    0.8943 C   0  0  0  0  0  0  0  0  0  0  0  0
    1.8552   -3.1748    0.3644 C   0  0  0  0  0  0  0  0  0  0  0  0
    2.2343   -1.9592    0.9964 C   0  0  0  0  0  0  0  0  0  0  0  0
    3.9312   -2.8877   -3.5406 I   0  0  0  0  0  0  0  0  0  0  0  0
    3.7767    0.8183    1.0942 I   0  0  0  0  0  0  0  0  0  0  0  0
    0.2122   -4.3140    1.3303 I   0  0  0  0  0  0  0  0  0  0  0  0
    1.6552   -1.5805    2.2208 N   0  0  0  0  0  0  0  0  0  0  0  0
    0.2230    0.1835    1.2465 N   0  0  0  0  0  0  0  0  0  0  0  0
    2.3317   -7.0519    1.3832 O   0  0  0  0  0  0  0  0  0  0  0  0
    3.4145   -5.0939    1.6300 O   0  0  0  0  0  0  0  0  0  0  0  0
   -0.1321    0.7114   -0.7990 H   0  0  0  0  0  0  0  0  0  0  0  0
    0.1945   -1.0056   -0.4990 H   0  0  0  0  0  0  0  0  0  0  0  0
    1.4442    0.2647   -0.4603 H   0  0  0  0  0  0  0  0  0  0  0  0
   -1.4481    1.1595    2.0348 H   0  0  0  0  0  0  0  0  0  0  0  0
    0.1060    2.0052    2.3125 H   0  0  0  0  0  0  0  0  0  0  0  0
   -0.6444    2.0320    0.7242 H   0  0  0  0  0  0  0  0  0  0  0  0
    1.3502   -5.4102   -1.3604 H   0  0  0  0  0  0  0  0  0  0  0  0
    2.7013   -5.1252   -2.3792 H   0  0  0  0  0  0  0  0  0  0  0  0
    3.2748   -6.9818   -1.0049 H   0  0  0  0  0  0  0  0  0  0  0  0
    4.3678   -5.6559   -0.6378 H   0  0  0  0  0  0  0  0  0  0  0  0
    3.8115   -0.5599   -1.6580 H   0  0  0  0  0  0  0  0  0  0  0  0
    0.3977   -0.3572    3.2353 H   0  0  0  0  0  0  0  0  0  0  0  0
    2.7572   -4.9887    2.3556 H   0  0  0  0  0  0  0  0  0  0  0  0
  1 20  1  0  0  0  0
  1 21  1  0  0  0  0
  1 22  1  0  0  0  0
  2 23  1  0  0  0  0
  2 24  1  0  0  0  0
  2 25  1  0  0  0  0
  3 26  1  0  0  0  0
  3 27  1  0  0  0  0
  4  3  1  0  0  0  0
  4 28  1  0  0  0  0
  4 29  1  0  0  0  0
  5 30  1  0  0  0  0
  6 31  1  0  0  0  0
  7  3  1  0  0  0  0
  8  5  2  0  0  0  0
  8  7  1  0  0  0  0
  9  5  1  0  0  0  0
 10  4  1  0  0  0  0
 11  7  2  0  0  0  0
 12  9  2  0  0  0  0
 12 11  1  0  0  0  0
 13  8  1  0  0  0  0
 14  9  1  0  0  0  0
 15 11  1  0  0  0  0
 16  6  2  3  0  0  0
 16 12  1  0  0  0  0
 17  1  1  0  0  0  0
 17  2  1  0  0  0  0
 17  6  1  0  0  0  0
 18 10  2  0  0  0  0
 19 10  1  0  0  0  0
 19 32  1  0  0  0  0
M  END
>  <DRUGBANK_ID>
DB09333

>  <COMMON_NAME>
Iopodic acid

>  <CAS_NUMBER>
5587-89-3

>  <UNII>
F604ZKI910

>  <SYNONYMS>
Ipodate

$$$$
