
 OpenBabel10282417213D

243249  0  0  1  0  0  0  0  0999 V2000
    6.2846    4.7743    6.3448 C   0  0  0  0  0  0  0  0  0  0  0  0
    5.6385    6.0635    5.5938 C   0  0  0  0  0  0  0  0  0  0  0  0
    3.9217    6.2310    5.6453 C   0  0  2  0  0  0  0  0  0  0  0  0
    3.5634    4.2387    5.6605 C   0  0  0  0  0  0  0  0  0  0  0  0
    4.0341    5.3830    6.4712 C   0  0  2  0  0  0  0  0  0  0  0  0
    2.4346    5.3174    4.3509 N   0  0  0  0  0  0  0  0  0  0  0  0
    1.8233    4.0022    3.4750 C   0  0  0  0  0  0  0  0  0  0  0  0
    0.6486    3.5780    3.4356 O   0  0  0  0  0  0  0  0  0  0  0  0
    2.8495    3.0117    2.9195 C   0  0  2  0  0  0  0  0  0  0  0  0
    2.1668    2.1733    1.9171 N   0  0  0  0  0  0  0  0  0  0  0  0
    3.3941    2.1215    4.0330 C   0  0  0  0  0  0  0  0  0  0  0  0
    4.4018    1.1576    3.4874 C   0  0  0  0  0  0  0  0  0  0  0  0
    5.4665    0.6534    4.2140 C   0  0  0  0  0  0  0  0  0  0  0  0
    6.4476   -0.1294    3.6368 C   0  0  0  0  0  0  0  0  0  0  0  0
    6.2934   -0.4746    2.2977 C   0  0  0  0  0  0  0  0  0  0  0  0
    7.1744   -1.2863    1.6534 O   0  0  0  0  0  0  0  0  0  0  0  0
    5.2361    0.0116    1.5577 C   0  0  0  0  0  0  0  0  0  0  0  0
    4.3160    0.8018    2.1707 C   0  0  0  0  0  0  0  0  0  0  0  0
    4.7995    5.1249    9.6167 C   0  0  0  0  0  0  0  0  0  0  0  0
    4.7650    5.0033    7.4293 O   0  0  0  0  0  0  0  0  0  0  0  0
    5.2457    5.0640   12.7335 N   0  0  0  0  0  0  0  0  0  0  0  0
    5.6698    5.2229   16.4527 C   0  0  0  0  0  0  0  0  0  0  0  0
    6.0762    5.9521   20.2165 C   0  0  0  0  0  0  0  0  0  0  0  0
    6.8405    7.1340   24.6119 S   0  0  0  0  0  0  0  0  0  0  0  0
    7.8849    8.5851   28.9371 S   0  0  0  0  0  0  0  0  0  0  0  0
    9.0092    9.9138   32.6688 C   0  0  0  0  0  0  0  0  0  0  0  0
   10.8130    9.8777   34.7118 C   0  0  0  0  0  0  0  0  0  0  0  0
   10.0957    8.8158   34.3599 N   0  0  0  0  0  0  0  0  0  0  0  0
   10.0431    8.5992   32.9128 C   0  0  0  0  0  0  0  0  0  0  0  0
   10.6970    9.3227   32.1323 O   0  0  0  0  0  0  0  0  0  0  0  0
    9.1102    7.5151   32.3628 C   0  0  2  0  0  0  0  0  0  0  0  0
    9.8585    6.5218   31.6339 C   0  0  0  0  0  0  0  0  0  0  0  0
    9.0328    5.3443   31.0831 C   0  0  0  0  0  0  0  0  0  0  0  0
    7.9171    5.7072   30.1109 C   0  0  0  0  0  0  0  0  0  0  0  0
    8.6181    6.2817   28.6092 N   0  0  0  0  0  0  0  0  0  0  0  0
    8.4516    6.0142   27.5138 C   0  0  0  0  0  0  0  0  0  0  0  0
    9.1013    6.7344   26.5087 N   0  0  0  0  0  0  0  0  0  0  0  0
    7.6926    4.9935   27.3836 N   0  0  0  0  0  0  0  0  0  0  0  0
    8.4686    7.7743   30.9632 N   0  0  0  0  0  0  0  0  0  0  0  0
    8.2155    7.3280   29.6537 C   0  0  0  0  0  0  0  0  0  0  0  0
    9.0888    7.0488   30.0520 O   0  0  0  0  0  0  0  0  0  0  0  0
    6.4604    8.5455   28.5706 C   0  0  0  0  0  0  0  0  0  0  0  0
    6.0733    9.5642   29.9002 C   0  0  0  0  0  0  0  0  0  0  0  0
    5.1472   10.1650   29.0028 C   0  0  0  0  0  0  0  0  0  0  0  0
    4.2061   11.0923   29.3044 C   0  0  0  0  0  0  0  0  0  0  0  0
    3.4333   11.3755   28.1933 N   0  0  0  0  0  0  0  0  0  0  0  0
    3.9156   10.6209   27.2334 C   0  0  0  0  0  0  0  0  0  0  0  0
    4.9523    9.8512   27.6698 N   0  0  0  0  0  0  0  0  0  0  0  0
    7.6510    9.2284   27.7539 N   0  0  0  0  0  0  0  0  0  0  0  0
    7.4144    8.7646   26.6517 C   0  0  0  0  0  0  0  0  0  0  0  0
    6.3664    8.2732   26.3170 O   0  0  0  0  0  0  0  0  0  0  0  0
    8.1316    9.3827   25.4985 C   0  0  2  0  0  0  0  0  0  0  0  0
    7.1131   10.0434   24.5850 C   0  0  0  0  0  0  0  0  0  0  0  0
    8.9031    8.3824   24.7264 N   0  0  0  0  0  0  0  0  0  0  0  0
    8.6094    8.1623   23.3250 C   0  0  0  0  0  0  0  0  0  0  0  0
    7.7194    8.8005   22.7296 O   0  0  0  0  0  0  0  0  0  0  0  0
    9.4019    7.1077   22.5537 C   0  0  0  0  0  0  0  0  0  0  0  0
    8.4909    6.0836   22.0070 N   0  0  0  0  0  0  0  0  0  0  0  0
    7.7208    5.2864   22.9454 C   0  0  0  0  0  0  0  0  0  0  0  0
    8.4240    5.8776   20.5719 C   0  0  0  0  0  0  0  0  0  0  0  0
    9.1075    6.5500   19.7821 O   0  0  0  0  0  0  0  0  0  0  0  0
    7.4839    4.7882   20.0085 C   0  0  2  0  0  0  0  0  0  0  0  0
    8.2632    3.7640   19.2583 C   0  0  0  0  0  0  0  0  0  0  0  0
    9.3087    3.0244   20.0362 C   0  0  0  0  0  0  0  0  0  0  0  0
    9.4972    3.1463   21.3752 C   0  0  0  0  0  0  0  0  0  0  0  0
   10.5930    2.3867   21.7926 N   0  0  0  0  0  0  0  0  0  0  0  0
   11.1467    1.7930   20.6513 C   0  0  0  0  0  0  0  0  0  0  0  0
   10.3519    2.1719   19.5628 C   0  0  0  0  0  0  0  0  0  0  0  0
   10.6976    1.7608   18.2766 C   0  0  0  0  0  0  0  0  0  0  0  0
   11.8292    1.0182   18.0955 C   0  0  0  0  0  0  0  0  0  0  0  0
   12.6192    0.6619   19.1701 C   0  0  0  0  0  0  0  0  0  0  0  0
   12.2955    1.0266   20.4728 C   0  0  0  0  0  0  0  0  0  0  0  0
    6.5038    5.4084   19.0378 N   0  0  0  0  0  0  0  0  0  0  0  0
    6.4666    5.0416   17.8199 C   0  0  0  0  0  0  0  0  0  0  0  0
    7.1549    4.1444   17.2724 O   0  0  0  0  0  0  0  0  0  0  0  0
    5.3444    6.3415   17.0172 C   0  0  2  0  0  0  0  0  0  0  0  0
    4.1139    4.5986   16.3113 C   0  0  0  0  0  0  0  0  0  0  0  0
    5.1629    3.3704   15.5829 C   0  0  0  0  0  0  0  0  0  0  0  0
    4.9996    2.1551   16.0953 O   0  0  0  0  0  0  0  0  0  0  0  0
    6.0137    3.5881   14.6639 O   0  0  0  0  0  0  0  0  0  0  0  0
    6.1365    6.5031   15.6089 N   0  0  0  0  0  0  0  0  0  0  0  0
    5.9306    6.0550   14.3214 C   0  0  0  0  0  0  0  0  0  0  0  0
    4.9362    5.5786   14.2431 O   0  0  0  0  0  0  0  0  0  0  0  0
    6.5662    6.6137   13.1496 C   0  0  0  0  0  0  0  0  0  0  0  0
    7.4909    7.6625   13.6838 C   0  0  0  0  0  0  0  0  0  0  0  0
    8.2100    8.3446   12.5431 C   0  0  0  0  0  0  0  0  0  0  0  0
    7.1962    8.9986   11.6043 C   0  0  0  0  0  0  0  0  0  0  0  0
    7.2601   10.4249   11.3908 N   0  0  0  0  0  0  0  0  0  0  0  0
    6.3255    8.3130   11.0476 O   0  0  0  0  0  0  0  0  0  0  0  0
    7.3053    5.6093   12.3848 N   0  0  0  0  0  0  0  0  0  0  0  0
    7.0303    5.3954   10.9701 C   0  0  0  0  0  0  0  0  0  0  0  0
    6.1503    6.0521   10.3854 O   0  0  0  0  0  0  0  0  0  0  0  0
    7.8231    4.3339   10.1863 C   0  0  2  0  0  0  0  0  0  0  0  0
    8.5658    5.0247    9.0592 C   0  0  0  0  0  0  0  0  0  0  0  0
    9.4925    6.0492    9.6425 C   0  0  0  0  0  0  0  0  0  0  0  0
   10.1812    7.0723    9.0386 C   0  0  0  0  0  0  0  0  0  0  0  0
   10.9760    7.7216    9.9393 N   0  0  0  0  0  0  0  0  0  0  0  0
   11.7951    8.8848    9.6749 C   0  0  0  0  0  0  0  0  0  0  0  0
   10.8247    7.1133   11.1672 C   0  0  0  0  0  0  0  0  0  0  0  0
    9.9016    6.0680   11.0104 C   0  0  0  0  0  0  0  0  0  0  0  0
    9.5739    5.3083   12.1445 C   0  0  0  0  0  0  0  0  0  0  0  0
   10.1106    5.6053   13.3807 C   0  0  0  0  0  0  0  0  0  0  0  0
   11.0283    6.6391   13.4827 C   0  0  0  0  0  0  0  0  0  0  0  0
   11.4088    7.4080   12.3972 C   0  0  0  0  0  0  0  0  0  0  0  0
    6.9925    3.3141    9.6394 N   0  0  0  0  0  0  0  0  0  0  0  0
    6.8709    3.0978    8.2364 C   0  0  0  0  0  0  0  0  0  0  0  0
    7.5573    3.7131    7.4495 O   0  0  0  0  0  0  0  0  0  0  0  0
    5.8446    2.2467    8.2413 C   0  0  0  0  0  0  0  0  0  0  0  0
    5.1352    3.5142   10.3972 N   0  0  0  0  0  0  0  0  0  0  0  0
    5.3892    4.2324   13.1152 C   0  0  0  0  0  0  0  0  0  0  0  0
    5.3124    3.5930   11.1995 O   0  0  0  0  0  0  0  0  0  0  0  0
    5.1457    1.3035    8.8310 C   0  0  0  0  0  0  0  0  0  0  0  0
    4.2072    0.3039    8.2685 C   0  0  0  0  0  0  0  0  0  0  0  0
    6.1559    0.6907    9.7430 C   0  0  0  0  0  0  0  0  0  0  0  0
   11.9928    9.2277   35.8342 C   0  0  0  0  0  0  0  0  0  0  0  0
   13.2045    9.3897   35.5694 O   0  0  0  0  0  0  0  0  0  0  0  0
   11.5344    8.5149   37.0155 N   0  0  0  0  0  0  0  0  0  0  0  0
   10.1191    8.4097   37.3335 C   0  0  0  0  0  0  0  0  0  0  0  0
   12.5183    7.8753   37.9150 C   0  0  1  0  0  0  0  0  0  0  0  0
   13.3179    6.8337   37.1466 C   0  0  1  0  0  0  0  0  0  0  0  0
   14.0522    7.4809   35.9998 C   0  0  0  0  0  0  0  0  0  0  0  0
   14.3209    6.1728   38.0700 C   0  0  0  0  0  0  0  0  0  0  0  0
   13.6022    5.5011   39.2165 C   0  0  0  0  0  0  0  0  0  0  0  0
   13.4757    8.9428   38.4748 C   0  0  0  0  0  0  0  0  0  0  0  0
   13.5498    9.1453   39.9008 N   0  0  0  0  0  0  0  0  0  0  0  0
   14.1731    9.6201   37.6990 O   0  0  0  0  0  0  0  0  0  0  0  0
    5.9473    4.6960    7.3955 H   0  0  0  0  0  0  0  0  0  0  0  0
    7.2166    4.9420    6.4459 H   0  0  0  0  0  0  0  0  0  0  0  0
    5.9686    3.8352    5.8620 H   0  0  0  0  0  0  0  0  0  0  0  0
    5.7392    6.8753    6.1142 H   0  0  0  0  0  0  0  0  0  0  0  0
    5.9869    5.9628    4.6056 H   0  0  0  0  0  0  0  0  0  0  0  0
    3.4595    6.3552    6.3244 H   0  0  0  0  0  0  0  0  0  0  0  0
    2.7514    4.1381    6.2362 H   0  0  0  0  0  0  0  0  0  0  0  0
    3.5842    3.8957    4.6507 H   0  0  0  0  0  0  0  0  0  0  0  0
    4.2848    3.7490    6.3360 H   0  0  0  0  0  0  0  0  0  0  0  0
    3.6823    6.4299    4.3902 H   0  0  0  0  0  0  0  0  0  0  0  0
    1.3625    5.9183    4.3333 H   0  0  0  0  0  0  0  0  0  0  0  0
    3.6587    3.5437    2.4518 H   0  0  0  0  0  0  0  0  0  0  0  0
    1.7522    1.3475    2.3602 H   0  0  0  0  0  0  0  0  0  0  0  0
    2.8555    1.9351    1.2451 H   0  0  0  0  0  0  0  0  0  0  0  0
    3.8964    2.6636    4.7977 H   0  0  0  0  0  0  0  0  0  0  0  0
    2.5832    1.6057    4.5077 H   0  0  0  0  0  0  0  0  0  0  0  0
    5.5435    0.8183    5.3479 H   0  0  0  0  0  0  0  0  0  0  0  0
    7.2870   -0.4738    4.2162 H   0  0  0  0  0  0  0  0  0  0  0  0
    7.9400   -1.6517    2.1551 H   0  0  0  0  0  0  0  0  0  0  0  0
    5.1440   -0.2312    0.5160 H   0  0  0  0  0  0  0  0  0  0  0  0
    3.5491    1.0707    1.6155 H   0  0  0  0  0  0  0  0  0  0  0  0
    5.1876    4.6119   10.7654 H   0  0  0  0  0  0  0  0  0  0  0  0
    4.9633    4.3866   14.5527 H   0  0  0  0  0  0  0  0  0  0  0  0
    5.9670    6.0737   22.5921 H   0  0  0  0  0  0  0  0  0  0  0  0
    5.9500    5.9863   22.5978 H   0  0  0  0  0  0  0  0  0  0  0  0
   10.0139   10.8529   34.7711 H   0  0  0  0  0  0  0  0  0  0  0  0
    9.3726   11.1624   34.6783 H   0  0  0  0  0  0  0  0  0  0  0  0
   11.5066   10.3626   34.0894 H   0  0  0  0  0  0  0  0  0  0  0  0
    9.5027    8.3062   35.0035 H   0  0  0  0  0  0  0  0  0  0  0  0
    8.5199    7.0976   33.1856 H   0  0  0  0  0  0  0  0  0  0  0  0
   10.3422    7.0436   30.7975 H   0  0  0  0  0  0  0  0  0  0  0  0
   10.5857    6.1864   32.2871 H   0  0  0  0  0  0  0  0  0  0  0  0
    9.6896    4.6814   30.5663 H   0  0  0  0  0  0  0  0  0  0  0  0
    8.5551    4.8562   31.8961 H   0  0  0  0  0  0  0  0  0  0  0  0
    7.3896    5.0075   29.7293 H   0  0  0  0  0  0  0  0  0  0  0  0
    7.2901    6.4540   30.6289 H   0  0  0  0  0  0  0  0  0  0  0  0
    9.3397    7.3468   28.9998 H   0  0  0  0  0  0  0  0  0  0  0  0
    8.9497    6.4152   25.5422 H   0  0  0  0  0  0  0  0  0  0  0  0
    9.6626    7.5713   26.6746 H   0  0  0  0  0  0  0  0  0  0  0  0
    7.5575    4.6745   26.4312 H   0  0  0  0  0  0  0  0  0  0  0  0
    7.4613    8.8444   31.6003 H   0  0  0  0  0  0  0  0  0  0  0  0
    6.1100    7.8224   28.6929 H   0  0  0  0  0  0  0  0  0  0  0  0
    5.6430    9.0275   30.7358 H   0  0  0  0  0  0  0  0  0  0  0  0
    6.8244   10.2683   30.3107 H   0  0  0  0  0  0  0  0  0  0  0  0
    4.0793   11.5399   30.2755 H   0  0  0  0  0  0  0  0  0  0  0  0
    3.5397   10.6096   26.2267 H   0  0  0  0  0  0  0  0  0  0  0  0
    5.4836    9.1688   27.1200 H   0  0  0  0  0  0  0  0  0  0  0  0
    8.3448    9.8552   28.2219 H   0  0  0  0  0  0  0  0  0  0  0  0
    8.7941   10.1256   25.8863 H   0  0  0  0  0  0  0  0  0  0  0  0
    7.6440   10.3987   23.7169 H   0  0  0  0  0  0  0  0  0  0  0  0
    6.3540    9.3385   24.2681 H   0  0  0  0  0  0  0  0  0  0  0  0
    6.6421   10.8691   25.0692 H   0  0  0  0  0  0  0  0  0  0  0  0
    9.6177    7.8420   25.2067 H   0  0  0  0  0  0  0  0  0  0  0  0
   10.1226    6.6442   23.2035 H   0  0  0  0  0  0  0  0  0  0  0  0
    9.9225    7.5878   21.7378 H   0  0  0  0  0  0  0  0  0  0  0  0
    6.8130    5.2828   22.6922 H   0  0  0  0  0  0  0  0  0  0  0  0
    7.8886    4.2577   22.8414 H   0  0  0  0  0  0  0  0  0  0  0  0
    7.8745    5.5857   23.9488 H   0  0  0  0  0  0  0  0  0  0  0  0
    6.9459    4.3195   20.8313 H   0  0  0  0  0  0  0  0  0  0  0  0
    7.5530    3.0591   18.8445 H   0  0  0  0  0  0  0  0  0  0  0  0
    8.7311    4.3080   18.4491 H   0  0  0  0  0  0  0  0  0  0  0  0
    8.9004    3.7424   22.0003 H   0  0  0  0  0  0  0  0  0  0  0  0
   10.9362    2.2827   22.7542 H   0  0  0  0  0  0  0  0  0  0  0  0
   10.0870    2.0267   17.4363 H   0  0  0  0  0  0  0  0  0  0  0  0
   12.1011    0.7116   17.1054 H   0  0  0  0  0  0  0  0  0  0  0  0
   13.5081    0.0858   18.9908 H   0  0  0  0  0  0  0  0  0  0  0  0
   12.9096    0.7336   21.3029 H   0  0  0  0  0  0  0  0  0  0  0  0
    5.8296    6.2057   19.3302 H   0  0  0  0  0  0  0  0  0  0  0  0
    4.6990    6.4979   17.4263 H   0  0  0  0  0  0  0  0  0  0  0  0
    3.8071    4.2415   17.1222 H   0  0  0  0  0  0  0  0  0  0  0  0
    3.7608    5.1117   15.5187 H   0  0  0  0  0  0  0  0  0  0  0  0
    4.4025    1.9927   16.8642 H   0  0  0  0  0  0  0  0  0  0  0  0
    6.7820    7.0941   15.8647 H   0  0  0  0  0  0  0  0  0  0  0  0
    5.8259    7.0664   12.4987 H   0  0  0  0  0  0  0  0  0  0  0  0
    6.9280    8.3960   14.2411 H   0  0  0  0  0  0  0  0  0  0  0  0
    8.2058    7.1984   14.3474 H   0  0  0  0  0  0  0  0  0  0  0  0
    8.8867    9.0826   12.9296 H   0  0  0  0  0  0  0  0  0  0  0  0
    8.7712    7.6118   11.9968 H   0  0  0  0  0  0  0  0  0  0  0  0
    6.5799   10.8791   10.7655 H   0  0  0  0  0  0  0  0  0  0  0  0
    7.9686   11.0057   11.8401 H   0  0  0  0  0  0  0  0  0  0  0  0
    7.9931    5.0714   12.8922 H   0  0  0  0  0  0  0  0  0  0  0  0
    8.5342    3.8528   10.8259 H   0  0  0  0  0  0  0  0  0  0  0  0
    9.1387    4.2904    8.4990 H   0  0  0  0  0  0  0  0  0  0  0  0
    7.8605    5.4949    8.3866 H   0  0  0  0  0  0  0  0  0  0  0  0
   10.1145    7.3303    8.0031 H   0  0  0  0  0  0  0  0  0  0  0  0
   11.4473    9.7138   10.2682 H   0  0  0  0  0  0  0  0  0  0  0  0
   12.8197    8.6720    9.9284 H   0  0  0  0  0  0  0  0  0  0  0  0
   11.7328    9.1433    8.6326 H   0  0  0  0  0  0  0  0  0  0  0  0
    8.8603    4.4974   12.0668 H   0  0  0  0  0  0  0  0  0  0  0  0
    9.8333    5.0360   14.2521 H   0  0  0  0  0  0  0  0  0  0  0  0
   11.4653    6.8522   14.4391 H   0  0  0  0  0  0  0  0  0  0  0  0
   12.1260    8.2002   12.5014 H   0  0  0  0  0  0  0  0  0  0  0  0
    6.3458    2.7820   10.3007 H   0  0  0  0  0  0  0  0  0  0  0  0
    6.4427    1.2974    7.1355 H   0  0  0  0  0  0  0  0  0  0  0  0
    4.5960    3.3716    8.3670 H   0  0  0  0  0  0  0  0  0  0  0  0
    4.5413    1.9996    9.3744 H   0  0  0  0  0  0  0  0  0  0  0  0
    4.7644   -0.4337    7.7208 H   0  0  0  0  0  0  0  0  0  0  0  0
    3.6878   -0.1760    9.0825 H   0  0  0  0  0  0  0  0  0  0  0  0
    3.4878    0.7658    7.6154 H   0  0  0  0  0  0  0  0  0  0  0  0
    6.8367    1.4210   10.1341 H   0  0  0  0  0  0  0  0  0  0  0  0
    5.6473    0.2233   10.5581 H   0  0  0  0  0  0  0  0  0  0  0  0
    6.7253   -0.0347    9.1963 H   0  0  0  0  0  0  0  0  0  0  0  0
    9.8064    7.3843   37.3486 H   0  0  0  0  0  0  0  0  0  0  0  0
    9.9130    8.8669   38.2847 H   0  0  0  0  0  0  0  0  0  0  0  0
    9.5649    8.8913   36.5761 H   0  0  0  0  0  0  0  0  0  0  0  0
   12.0005    7.3972   38.7312 H   0  0  0  0  0  0  0  0  0  0  0  0
   12.6452    6.0848   36.7556 H   0  0  0  0  0  0  0  0  0  0  0  0
   14.7186    8.2451   36.3753 H   0  0  0  0  0  0  0  0  0  0  0  0
   14.6068    6.7706   35.4437 H   0  0  0  0  0  0  0  0  0  0  0  0
   13.3413    7.8970   35.3224 H   0  0  0  0  0  0  0  0  0  0  0  0
   14.8893    5.4406   37.5213 H   0  0  0  0  0  0  0  0  0  0  0  0
   14.9970    6.9200   38.4568 H   0  0  0  0  0  0  0  0  0  0  0  0
   12.9288    4.7531   38.8332 H   0  0  0  0  0  0  0  0  0  0  0  0
   14.3132    5.0358   39.8742 H   0  0  0  0  0  0  0  0  0  0  0  0
   13.0373    6.2310   39.7714 H   0  0  0  0  0  0  0  0  0  0  0  0
   14.1875    9.8572   40.2822 H   0  0  0  0  0  0  0  0  0  0  0  0
   12.9854    8.6000   40.5537 H   0  0  0  0  0  0  0  0  0  0  0  0
  1  2  1  0  0  0  0
  1127  1  0  0  0  0
  1128  1  0  0  0  0
  1129  1  0  0  0  0
  2130  1  0  0  0  0
  2131  1  0  0  0  0
  3132  1  1  0  0  0
  3  4  1  0  0  0  0
  3  2  1  0  0  0  0
  4133  1  0  0  0  0
  4134  1  0  0  0  0
  4135  1  0  0  0  0
  5 19  1  0  0  0  0
  5136  1  6  0  0  0
  5  6  1  0  0  0  0
  5  3  1  0  0  0  0
  6  7  1  0  0  0  0
  6137  1  0  0  0  0
  7  8  2  0  0  0  0
  9 11  1  0  0  0  0
  9138  1  6  0  0  0
  9 10  1  0  0  0  0
  9  7  1  0  0  0  0
 10139  1  0  0  0  0
 10140  1  0  0  0  0
 11 12  1  0  0  0  0
 11141  1  0  0  0  0
 11142  1  0  0  0  0
 12 13  2  0  0  0  0
 12 18  1  0  0  0  0
 13 14  1  0  0  0  0
 13143  1  0  0  0  0
 14 15  2  0  0  0  0
 14144  1  0  0  0  0
 15 16  1  0  0  0  0
 15 17  1  0  0  0  0
 16145  1  0  0  0  0
 17 18  2  0  0  0  0
 17146  1  0  0  0  0
 18147  1  0  0  0  0
 19 20  2  0  0  0  0
 19 21  1  0  0  0  0
 21148  1  0  0  0  0
 22 21  1  0  0  0  0
 22 23  1  0  0  0  0
 22110  1  0  0  0  0
 22149  1  0  0  0  0
 23 24  1  0  0  0  0
 23150  1  0  0  0  0
 23151  1  0  0  0  0
 24 25  1  0  0  0  0
 25 26  1  0  0  0  0
 26152  1  0  0  0  0
 26153  1  0  0  0  0
 27 26  1  0  0  0  0
 27 28  1  0  0  0  0
 27115  1  0  0  0  0
 27154  1  0  0  0  0
 28 29  1  0  0  0  0
 28155  1  0  0  0  0
 29 30  2  0  0  0  0
 31 29  1  0  0  0  0
 31 39  1  0  0  0  0
 31156  1  1  0  0  0
 31 32  1  0  0  0  0
 32 33  1  0  0  0  0
 32157  1  0  0  0  0
 32158  1  0  0  0  0
 33 34  1  0  0  0  0
 33159  1  0  0  0  0
 33160  1  0  0  0  0
 34 35  1  0  0  0  0
 34161  1  0  0  0  0
 34162  1  0  0  0  0
 35 36  1  0  0  0  0
 35163  1  0  0  0  0
 36 37  1  0  0  0  0
 36 38  2  0  0  0  0
 37164  1  0  0  0  0
 37165  1  0  0  0  0
 38166  1  0  0  0  0
 39 40  1  0  0  0  0
 39167  1  0  0  0  0
 40 41  2  0  0  0  0
 42 40  1  0  0  0  0
 42 43  1  0  0  0  0
 42 49  1  0  0  0  0
 42168  1  0  0  0  0
 43 44  1  0  0  0  0
 43169  1  0  0  0  0
 43170  1  0  0  0  0
 44 45  2  0  0  0  0
 44 48  1  0  0  0  0
 45 46  1  0  0  0  0
 45171  1  0  0  0  0
 46 47  2  0  0  0  0
 47 48  1  0  0  0  0
 47172  1  0  0  0  0
 48173  1  0  0  0  0
 49 50  1  0  0  0  0
 49174  1  0  0  0  0
 50 51  2  0  0  0  0
 52 50  1  0  0  0  0
 52 54  1  0  0  0  0
 52175  1  1  0  0  0
 52 53  1  0  0  0  0
 53176  1  0  0  0  0
 53177  1  0  0  0  0
 53178  1  0  0  0  0
 54 55  1  0  0  0  0
 54179  1  0  0  0  0
 55 56  2  0  0  0  0
 55 57  1  0  0  0  0
 57 58  1  0  0  0  0
 57180  1  0  0  0  0
 57181  1  0  0  0  0
 58 59  1  0  0  0  0
 58 60  1  0  0  0  0
 59182  1  0  0  0  0
 59183  1  0  0  0  0
 59184  1  0  0  0  0
 60 61  2  0  0  0  0
 62 60  1  0  0  0  0
 62 73  1  0  0  0  0
 62185  1  1  0  0  0
 62 63  1  0  0  0  0
 63 64  1  0  0  0  0
 63186  1  0  0  0  0
 63187  1  0  0  0  0
 64 65  2  0  0  0  0
 64 68  1  0  0  0  0
 65 66  1  0  0  0  0
 65188  1  0  0  0  0
 66 67  1  0  0  0  0
 66189  1  0  0  0  0
 67 68  2  0  0  0  0
 67 72  1  0  0  0  0
 68 69  1  0  0  0  0
 69 70  2  0  0  0  0
 69190  1  0  0  0  0
 70 71  1  0  0  0  0
 70191  1  0  0  0  0
 71 72  2  0  0  0  0
 71192  1  0  0  0  0
 72193  1  0  0  0  0
 73 74  1  0  0  0  0
 73194  1  0  0  0  0
 74 75  2  0  0  0  0
 76 74  1  0  0  0  0
 76 81  1  0  0  0  0
 76195  1  1  0  0  0
 76 77  1  0  0  0  0
 77 78  1  0  0  0  0
 77196  1  0  0  0  0
 77197  1  0  0  0  0
 78 79  1  0  0  0  0
 78 80  2  0  0  0  0
 79198  1  0  0  0  0
 81 82  1  0  0  0  0
 81199  1  0  0  0  0
 82 83  2  0  0  0  0
 84 82  1  0  0  0  0
 84 85  1  0  0  0  0
 84 90  1  0  0  0  0
 84200  1  0  0  0  0
 85 86  1  0  0  0  0
 85201  1  0  0  0  0
 85202  1  0  0  0  0
 86 87  1  0  0  0  0
 86203  1  0  0  0  0
 86204  1  0  0  0  0
 87 88  1  0  0  0  0
 87 89  2  0  0  0  0
 88205  1  0  0  0  0
 88206  1  0  0  0  0
 90 91  1  0  0  0  0
 90207  1  0  0  0  0
 91 92  2  0  0  0  0
 93 91  1  0  0  0  0
 93105  1  0  0  0  0
 93208  1  1  0  0  0
 93 94  1  0  0  0  0
 94 95  1  0  0  0  0
 94209  1  0  0  0  0
 94210  1  0  0  0  0
 95 96  2  0  0  0  0
 95100  1  0  0  0  0
 96 97  1  0  0  0  0
 96211  1  0  0  0  0
 97 98  1  0  0  0  0
 97 99  1  0  0  0  0
 98212  1  0  0  0  0
 98213  1  0  0  0  0
 98214  1  0  0  0  0
 99100  2  0  0  0  0
 99104  1  0  0  0  0
100101  1  0  0  0  0
101102  2  0  0  0  0
101215  1  0  0  0  0
102103  1  0  0  0  0
102216  1  0  0  0  0
103104  2  0  0  0  0
103217  1  0  0  0  0
104218  1  0  0  0  0
105106  1  0  0  0  0
105219  1  0  0  0  0
106107  2  0  0  0  0
108106  1  0  0  0  0
108109  1  0  0  0  0
108112  1  0  0  0  0
108220  1  0  0  0  0
109110  1  0  0  0  0
109221  1  0  0  0  0
110111  2  0  0  0  0
112113  1  0  0  0  0
112114  1  0  0  0  0
112222  1  0  0  0  0
113223  1  0  0  0  0
113224  1  0  0  0  0
113225  1  0  0  0  0
114226  1  0  0  0  0
114227  1  0  0  0  0
114228  1  0  0  0  0
115116  2  0  0  0  0
115117  1  0  0  0  0
117118  1  0  0  0  0
118229  1  0  0  0  0
118230  1  0  0  0  0
118231  1  0  0  0  0
119117  1  0  0  0  0
119120  1  0  0  0  0
119124  1  0  0  0  0
119232  1  1  0  0  0
120121  1  0  0  0  0
120122  1  0  0  0  0
120233  1  6  0  0  0
121234  1  0  0  0  0
121235  1  0  0  0  0
121236  1  0  0  0  0
122123  1  0  0  0  0
122237  1  0  0  0  0
122238  1  0  0  0  0
123239  1  0  0  0  0
123240  1  0  0  0  0
123241  1  0  0  0  0
124125  1  0  0  0  0
124126  2  0  0  0  0
125242  1  0  0  0  0
125243  1  0  0  0  0
M  END
>  <DRUGBANK_ID>
DB14803

>  <COMMON_NAME>
AMY-101

>  <CAS_NUMBER>
1427001-89-5

>  <UNII>
4Z4DFR9BX7

>  <SYNONYMS>
AMY 101; Compstatin 40; Cp40; S3,S13-Cyclo(D-tyrolsyl-L-isoleucyl-L-cysteinyl-L-valyl-1-methyl-L-tryptophyl-L-glutaminyl-L-aspartyl-L-tryptophyl-N-methyl-L-glycyl-L-alanyl-L-histidyl-L-arginyl-L-cysteinyl-N-methyl-L-isoleucinamide)

$$$$
