
 OpenBabel10282417193D

  3  2  0  0  0  0  0  0  0  0999 V2000
    0.9399   -0.0892   -0.0350 O   0  0  0  0  0  0  0  0  0  0  0  0
    2.4752   -0.0892   -0.0350 Cl  0  0  0  0  0  4  0  0  0  0  0  0
    4.0104   -0.0892   -0.0350 O   0  0  0  0  0  0  0  0  0  0  0  0
  2  1  2  0  0  0  0
  2  3  2  0  0  0  0
M  RAD  1   2   2
M  END
>  <DRUGBANK_ID>
DB12453

>  <COMMON_NAME>
Chlorine dioxide

>  <CAS_NUMBER>
10049-04-4

>  <UNII>
8061YMS4RM

$$$$
