
 OpenBabel10282417113D

 27 28  0  0  0  0  0  0  0  0999 V2000
   -1.6810   -1.1300   -0.4020 O   0  0  0  0  0  0  0  0  0  0  0  0
   -1.5490    1.3610   -0.1900 O   0  0  0  0  0  0  0  0  0  0  0  0
   -0.1880    1.1670    0.4460 C   0  0  0  0  0  0  0  0  0  0  0  0
    0.3348    2.0727    1.1682 O   0  0  0  0  0  0  0  0  0  0  0  0
   -0.3900   -1.3440    0.3930 C   0  0  0  0  0  0  0  0  0  0  0  0
   -0.1232   -2.3621    1.1053 O   0  0  0  0  0  0  0  0  0  0  0  0
    0.5260   -0.1380    0.1930 C   0  0  0  0  0  0  0  0  0  0  0  0
    1.3060   -0.1650   -1.1260 C   0  0  0  0  0  0  0  0  0  0  0  0
    1.8710   -0.2540    0.9170 C   0  0  0  0  0  0  0  0  0  0  0  0
    2.5050    0.3820   -0.3330 C   0  0  0  0  0  0  0  0  0  0  0  0
   -4.5898   -0.3165   -0.1346 H   0  0  0  0  0  0  0  0  0  0  0  0
   -4.7923   -0.5252   -0.6665 H   0  0  0  0  0  0  0  0  0  0  0  0
   -2.4000    0.1210    0.1030 Pt  0  0  0  0  0  0  0  0  0  0  0  0
   -2.6655   -0.9446    1.6794 H   0  0  0  0  0  0  0  0  0  0  0  0
   -1.8041   -0.1229    2.6166 H   0  0  0  0  0  0  0  0  0  0  0  0
   -2.7042   -0.0376    2.1444 N   0  0  0  0  0  0  0  0  0  0  0  0
   -3.1877    0.7948    2.4818 H   0  0  0  0  0  0  0  0  0  0  0  0
   -4.2232    0.2987   -0.8609 N   0  0  0  0  0  0  0  0  0  0  0  0
   -4.7057    1.1322   -0.5249 H   0  0  0  0  0  0  0  0  0  0  0  0
    1.3775   -1.0488   -1.7250 H   0  0  0  0  0  0  0  0  0  0  0  0
    0.9310    0.4927   -1.8821 H   0  0  0  0  0  0  0  0  0  0  0  0
    2.0242    0.1465    1.8973 H   0  0  0  0  0  0  0  0  0  0  0  0
    2.1864   -1.2563    1.1191 H   0  0  0  0  0  0  0  0  0  0  0  0
    3.5148    0.1770   -0.6215 H   0  0  0  0  0  0  0  0  0  0  0  0
    2.5741    1.4494   -0.3058 H   0  0  0  0  0  0  0  0  0  0  0  0
   -3.2706   -0.8628    2.3406 H   0  0  0  0  0  0  0  0  0  0  0  0
   -4.0701    0.3766   -1.8663 H   0  0  0  0  0  0  0  0  0  0  0  0
  1  5  1  0  0  0  0
  3  2  1  0  0  0  0
  3  4  2  0  0  0  0
  5  7  1  0  0  0  0
  5  6  2  0  0  0  0
  7  3  1  0  0  0  0
  7  8  1  0  0  0  0
  7  9  1  0  0  0  0
  8 10  1  0  0  0  0
  8 20  1  0  0  0  0
  8 21  1  0  0  0  0
  9 10  1  0  0  0  0
  9 22  1  0  0  0  0
  9 23  1  0  0  0  0
 10 24  1  0  0  0  0
 10 25  1  0  0  0  0
 13  1  1  0  0  0  0
 13  2  1  0  0  0  0
 13 18  1  0  0  0  0
 13 16  1  0  0  0  0
 16 14  1  0  0  0  0
 16 15  1  0  0  0  0
 16 17  1  0  0  0  0
 16 26  1  0  0  0  0
 18 11  1  0  0  0  0
 18 12  1  0  0  0  0
 18 19  1  0  0  0  0
 18 27  1  0  0  0  0
M  END
>  <DRUGBANK_ID>
DB00958

>  <SECONDARY_ACCESSION_NUMBERS>
APRD00466

>  <COMMON_NAME>
Carboplatin

>  <CAS_NUMBER>
41575-94-4

>  <UNII>
BG3F62OND5

>  <SYNONYMS>
Carboplatin; Carboplatine; Carboplatino; CBDCA; cis-(1,1-cyclobutanedicarboxylato)diammineplatinum(II); cis-diammine(1,1-cyclobutanedicarboxylato)platinum; cis-diammine(1,1-cyclobutanedicarboxylato)platinum(II)

$$$$
