
 OpenBabel10282417203D

 45 48  0  0  0  0  0  0  0  0999 V2000
    0.9463   -0.0173    0.0127 C   0  0  0  0  0  0  0  0  0  0  0  0
    0.4493   -1.0564   -0.8265 O   0  0  0  0  0  0  0  0  0  0  0  0
    0.8429   -1.0265   -2.1405 C   0  0  0  0  0  0  0  0  0  0  0  0
    2.1580   -0.7502   -2.5293 C   0  0  0  0  0  0  0  0  0  0  0  0
    2.5231   -0.7738   -3.8830 C   0  0  0  0  0  0  0  0  0  0  0  0
    1.5918   -1.1459   -4.8517 C   0  0  0  0  0  0  0  0  0  0  0  0
    1.9176   -1.1259   -6.2989 C   0  0  0  0  0  0  0  0  0  0  0  0
    3.0412   -0.8802   -6.6965 O   0  0  0  0  0  0  0  0  0  0  0  0
    0.7982   -1.3487   -7.2397 C   0  0  0  0  0  0  0  0  0  0  0  0
    0.9413   -1.2350   -8.6245 C   0  0  0  0  0  0  0  0  0  0  0  0
   -0.1742   -1.3829   -9.4608 C   0  0  0  0  0  0  0  0  0  0  0  0
   -1.4388   -1.5870   -8.9147 C   0  0  0  0  0  0  0  0  0  0  0  0
   -1.5667   -1.7472   -7.5379 C   0  0  0  0  0  0  0  0  0  0  0  0
   -0.4342   -1.6866   -6.7097 C   0  0  0  0  0  0  0  0  0  0  0  0
   -0.5828   -2.0379   -5.3859 O   0  0  0  0  0  0  0  0  0  0  0  0
    0.3122   -1.5259   -4.4642 C   0  0  0  0  0  0  0  0  0  0  0  0
   -0.1092   -1.4009   -3.1126 C   0  0  0  0  0  0  0  0  0  0  0  0
   -1.5816   -1.5526   -2.7261 C   0  0  0  0  0  0  0  0  0  0  0  0
   -2.5039   -0.4821   -3.2149 N   0  0  0  0  0  0  0  0  0  0  0  0
   -2.0851    0.8469   -2.7564 C   0  0  0  0  0  0  0  0  0  0  0  0
   -2.9989    1.9370   -3.3306 C   0  0  0  0  0  0  0  0  0  0  0  0
   -3.0560    1.9096   -4.8584 C   0  0  0  0  0  0  0  0  0  0  0  0
   -3.4757    0.5311   -5.3371 C   0  0  0  0  0  0  0  0  0  0  0  0
   -2.5812   -0.4849   -4.6707 C   0  0  0  0  0  0  0  0  0  0  0  0
    0.5549   -0.1897    1.0218 H   0  0  0  0  0  0  0  0  0  0  0  0
    0.5819    0.9581   -0.3247 H   0  0  0  0  0  0  0  0  0  0  0  0
    2.0365   -0.0231    0.0899 H   0  0  0  0  0  0  0  0  0  0  0  0
    2.9262   -0.5341   -1.7934 H   0  0  0  0  0  0  0  0  0  0  0  0
    3.5427   -0.5325   -4.1729 H   0  0  0  0  0  0  0  0  0  0  0  0
    1.9221   -1.0601   -9.0569 H   0  0  0  0  0  0  0  0  0  0  0  0
   -0.0571   -1.3439  -10.5410 H   0  0  0  0  0  0  0  0  0  0  0  0
   -2.3150   -1.6643   -9.5564 H   0  0  0  0  0  0  0  0  0  0  0  0
   -2.5577   -1.9253   -7.1281 H   0  0  0  0  0  0  0  0  0  0  0  0
   -1.9312   -2.5383   -3.0619 H   0  0  0  0  0  0  0  0  0  0  0  0
   -1.6951   -1.5934   -1.6350 H   0  0  0  0  0  0  0  0  0  0  0  0
   -1.0561    1.0668   -3.0687 H   0  0  0  0  0  0  0  0  0  0  0  0
   -2.1112    0.8852   -1.6623 H   0  0  0  0  0  0  0  0  0  0  0  0
   -2.6339    2.9140   -3.0022 H   0  0  0  0  0  0  0  0  0  0  0  0
   -4.0119    1.8017   -2.9366 H   0  0  0  0  0  0  0  0  0  0  0  0
   -3.7503    2.6585   -5.2456 H   0  0  0  0  0  0  0  0  0  0  0  0
   -2.0620    2.1511   -5.2637 H   0  0  0  0  0  0  0  0  0  0  0  0
   -4.5240    0.3126   -5.1272 H   0  0  0  0  0  0  0  0  0  0  0  0
   -3.3293    0.4661   -6.4245 H   0  0  0  0  0  0  0  0  0  0  0  0
   -2.8582   -1.4842   -5.0152 H   0  0  0  0  0  0  0  0  0  0  0  0
   -1.6075   -0.1708   -5.0423 H   0  0  0  0  0  0  0  0  0  0  0  0
  1  2  1  0  0  0  0
  1 25  1  0  0  0  0
  1 26  1  0  0  0  0
  1 27  1  0  0  0  0
  2  3  1  0  0  0  0
  3  4  2  0  0  0  0
  3 17  1  0  0  0  0
  4  5  1  0  0  0  0
  4 28  1  0  0  0  0
  5  6  2  0  0  0  0
  5 29  1  0  0  0  0
  6  7  1  0  0  0  0
  6 16  1  0  0  0  0
  7  8  2  0  0  0  0
  7  9  1  0  0  0  0
  9 10  2  0  0  0  0
  9 14  1  0  0  0  0
 10 11  1  0  0  0  0
 10 30  1  0  0  0  0
 11 12  2  0  0  0  0
 11 31  1  0  0  0  0
 12 13  1  0  0  0  0
 12 32  1  0  0  0  0
 13 14  2  0  0  0  0
 13 33  1  0  0  0  0
 14 15  1  0  0  0  0
 15 16  1  0  0  0  0
 16 17  2  0  0  0  0
 17 18  1  0  0  0  0
 18 19  1  0  0  0  0
 18 34  1  0  0  0  0
 18 35  1  0  0  0  0
 19 20  1  0  0  0  0
 19 24  1  0  0  0  0
 20 21  1  0  0  0  0
 20 36  1  0  0  0  0
 20 37  1  0  0  0  0
 21 22  1  0  0  0  0
 21 38  1  0  0  0  0
 21 39  1  0  0  0  0
 22 23  1  0  0  0  0
 22 40  1  0  0  0  0
 22 41  1  0  0  0  0
 23 24  1  0  0  0  0
 23 42  1  0  0  0  0
 23 43  1  0  0  0  0
 24 44  1  0  0  0  0
 24 45  1  0  0  0  0
M  END
>  <DRUGBANK_ID>
DB13579

>  <COMMON_NAME>
Mepixanox

>  <CAS_NUMBER>
17854-59-0

>  <UNII>
7419T4YQQW

>  <SYNONYMS>
Mepixanox

$$$$
