Cytidine monophosphate.mol
 OpenBabel10282417133D

 35 36  0  0  0  0  0  0  0  0999 V2000
    0.9337   -0.0395   -0.0266 C   0  0  0  0  0  0  0  0  0  0  0  0
    0.5196    0.4183    1.4159 C   0  0  2  0  0  0  0  0  0  0  0  0
   -0.8447    1.0850    1.4249 C   0  0  1  0  0  0  0  0  0  0  0  0
   -1.5972    0.4868    2.4916 O   0  0  0  0  0  0  0  0  0  0  0  0
   -0.6007    2.5695    1.7363 C   0  0  1  0  0  0  0  0  0  0  0  0
   -1.8058    3.1146    2.2384 O   0  0  0  0  0  0  0  0  0  0  0  0
    0.8314    2.6632    2.4527 C   0  0  1  0  0  0  0  0  0  0  0  0
    1.4877    1.3864    2.0549 O   0  0  0  0  0  0  0  0  0  0  0  0
    1.6800    3.9988    2.2238 N   0  0  0  0  0  0  0  0  0  0  0  0
    0.8471    5.1336    2.3137 C   0  0  0  0  0  0  0  0  0  0  0  0
   -0.1564    5.0435    3.0603 O   0  0  0  0  0  0  0  0  0  0  0  0
    1.0492    6.2674    1.5728 N   0  0  0  0  0  0  0  0  0  0  0  0
    2.1149    6.3853    0.8347 C   0  0  0  0  0  0  0  0  0  0  0  0
    2.1351    7.4109   -0.0820 N   0  0  0  0  0  0  0  0  0  0  0  0
    3.2441    5.4010    0.9500 C   0  0  0  0  0  0  0  0  0  0  0  0
    3.0061    4.2492    1.6700 C   0  0  0  0  0  0  0  0  0  0  0  0
    1.1880    2.5397   -0.5816 P   0  0  0  0  0  0  0  0  0  0  0  0
   -0.1671    3.0374   -0.9258 O   0  0  0  0  0  0  0  0  0  0  0  0
    0.6113    0.9630   -0.9991 O   0  0  0  0  0  0  0  0  0  0  0  0
    2.4784    1.9173    0.0723 O   0  0  0  0  0  0  0  0  0  0  0  0
    1.7647    4.1164   -0.1641 O   0  0  0  0  0  0  0  0  0  0  0  0
    0.4308   -0.9636   -0.3359 H   0  0  0  0  0  0  0  0  0  0  0  0
    2.0080   -0.2662   -0.0952 H   0  0  0  0  0  0  0  0  0  0  0  0
    0.5363   -0.4940    2.0302 H   0  0  0  0  0  0  0  0  0  0  0  0
   -1.4221    0.8949    0.5072 H   0  0  0  0  0  0  0  0  0  0  0  0
   -1.3117    0.9141    3.3137 H   0  0  0  0  0  0  0  0  0  0  0  0
   -0.5067    3.2040    0.8946 H   0  0  0  0  0  0  0  0  0  0  0  0
   -1.8046    3.1127    3.1972 H   0  0  0  0  0  0  0  0  0  0  0  0
    0.6626    2.6150    3.5257 H   0  0  0  0  0  0  0  0  0  0  0  0
    2.7879    7.5090   -0.8475 H   0  0  0  0  0  0  0  0  0  0  0  0
    1.4686    8.1655    0.0491 H   0  0  0  0  0  0  0  0  0  0  0  0
    3.8810    5.3971    0.0474 H   0  0  0  0  0  0  0  0  0  0  0  0
    3.6571    3.4035    1.4409 H   0  0  0  0  0  0  0  0  0  0  0  0
    2.4396    1.6268    1.0070 H   0  0  0  0  0  0  0  0  0  0  0  0
    2.4390    4.1769   -0.8665 H   0  0  0  0  0  0  0  0  0  0  0  0
  1 19  1  0  0  0  0
  1 22  1  0  0  0  0
  1 23  1  0  0  0  0
  2  1  1  0  0  0  0
  2  3  1  0  0  0  0
  2  8  1  0  0  0  0
  2 24  1  1  0  0  0
  3  4  1  0  0  0  0
  3  5  1  0  0  0  0
  3 25  1  6  0  0  0
  4 26  1  0  0  0  0
  5  6  1  0  0  0  0
  5  7  1  0  0  0  0
  5 27  1  6  0  0  0
  6 28  1  0  0  0  0
  7  8  1  0  0  0  0
  7 29  1  1  0  0  0
  7  9  1  0  0  0  0
  9 10  1  0  0  0  0
  9 16  1  0  0  0  0
 10 11  2  0  0  0  0
 10 12  1  0  0  0  0
 12 13  2  0  0  0  0
 13 14  1  0  0  0  0
 13 15  1  0  0  0  0
 14 30  1  0  0  0  0
 14 31  1  0  0  0  0
 15 16  2  0  0  0  0
 15 32  1  0  0  0  0
 16 33  1  0  0  0  0
 17 18  2  0  0  0  0
 17 19  1  0  0  0  0
 17 20  1  0  0  0  0
 17 21  1  0  0  0  0
 20 34  1  0  0  0  0
 21 35  1  0  0  0  0
M  END
>  <DRUGBANK_ID>
DB03403

>  <SECONDARY_ACCESSION_NUMBERS>
EXPT00796

>  <COMMON_NAME>
Cytidine-5'-Monophosphate

>  <CAS_NUMBER>
63-37-6

>  <UNII>
F469818O25

>  <SYNONYMS>
5'-CMP; CMP; Cytidine monophosphate; cytidylate; Cytidylic acid; pC

$$$$
