
 OpenBabel10282417133D

 45 46  0  0  0  0  0  0  0  0999 V2000
   -3.5868   -3.5367   -2.6595 S   0  0  0  0  0  0  0  0  0  0  0  0
    0.8733   -5.7423    1.5801 S   0  0  0  0  0  0  0  0  0  0  0  0
   -2.0587   -6.5344    0.7988 O   0  0  0  0  0  0  0  0  0  0  0  0
   -4.1948   -5.8346    0.9850 O   0  0  0  0  0  0  0  0  0  0  0  0
   -4.0902    1.1479   -2.0950 O   0  0  0  0  0  0  0  0  0  0  0  0
   -0.4822   -0.8256    1.6826 O   0  0  0  0  0  0  0  0  0  0  0  0
   -1.2395   -1.4603   -2.5296 O   0  0  0  0  0  0  0  0  0  0  0  0
   -3.3280   -3.2813    0.0134 N   0  0  0  0  0  0  0  0  0  0  0  0
   -2.1115   -0.2955    0.2426 N   0  0  0  0  0  0  0  0  0  0  0  0
   -0.9317   -2.5861   -1.4939 N   0  0  0  0  0  0  0  0  0  0  0  0
   -0.6258   -3.7640    2.1956 N   0  0  0  0  0  0  0  0  0  0  0  0
   -0.1941   -5.3391    3.9733 N   0  0  0  0  0  0  0  0  0  0  0  0
   -3.2562   -5.0732   -1.8828 C   0  0  0  0  0  0  0  0  0  0  0  0
   -2.7613   -4.6091   -0.5234 C   0  0  2  0  0  0  0  0  0  0  0  0
   -3.5450   -2.2837   -1.0567 C   0  0  1  0  0  0  0  0  0  0  0  0
   -2.9061   -0.6137   -0.9246 C   0  0  1  0  0  0  0  0  0  0  0  0
   -4.6903   -5.5520   -1.9365 C   0  0  0  0  0  0  0  0  0  0  0  0
   -2.2123   -5.7684   -2.8162 C   0  0  0  0  0  0  0  0  0  0  0  0
   -3.0473   -5.6899    0.4963 C   0  0  0  0  0  0  0  0  0  0  0  0
   -4.0147    0.4029   -1.1168 C   0  0  0  0  0  0  0  0  0  0  0  0
   -1.0919   -1.1072    0.6585 C   0  0  0  0  0  0  0  0  0  0  0  0
   -0.7599   -2.3792   -0.1450 C   0  0  0  0  0  0  0  0  0  0  0  0
   -0.2619   -3.5514    0.8061 C   0  0  0  0  0  0  0  0  0  0  0  0
    0.4861   -4.6174    0.3443 C   0  0  0  0  0  0  0  0  0  0  0  0
   -0.0752   -4.8552    2.7157 C   0  0  0  0  0  0  0  0  0  0  0  0
   -2.4926   -1.3653   -3.5009 C   0  0  0  0  0  0  0  0  0  0  0  0
   -4.6068   -2.0378   -1.0733 H   0  0  0  0  0  0  0  0  0  0  0  0
   -4.2633   -3.5286    0.3500 H   0  0  0  0  0  0  0  0  0  0  0  0
   -1.8611    0.6778    0.4337 H   0  0  0  0  0  0  0  0  0  0  0  0
    0.3383   -6.1475    4.2900 H   0  0  0  0  0  0  0  0  0  0  0  0
   -0.6232   -4.8025    4.7182 H   0  0  0  0  0  0  0  0  0  0  0  0
   -1.1662   -6.2522    0.5154 H   0  0  0  0  0  0  0  0  0  0  0  0
   -1.6913   -4.5682   -0.6470 H   0  0  0  0  0  0  0  0  0  0  0  0
   -2.2401   -0.1687   -1.6696 H   0  0  0  0  0  0  0  0  0  0  0  0
   -4.8345   -6.4992   -1.4303 H   0  0  0  0  0  0  0  0  0  0  0  0
   -5.3452   -4.8151   -1.4375 H   0  0  0  0  0  0  0  0  0  0  0  0
   -5.0415   -5.6529   -2.9726 H   0  0  0  0  0  0  0  0  0  0  0  0
   -1.2955   -5.1667   -2.9657 H   0  0  0  0  0  0  0  0  0  0  0  0
   -1.8683   -6.7455   -2.4590 H   0  0  0  0  0  0  0  0  0  0  0  0
   -2.6119   -5.9241   -3.8304 H   0  0  0  0  0  0  0  0  0  0  0  0
   -4.7735    0.4224   -0.3350 H   0  0  0  0  0  0  0  0  0  0  0  0
    0.7500   -4.8152   -0.6788 H   0  0  0  0  0  0  0  0  0  0  0  0
   -2.3954   -1.9782   -4.4019 H   0  0  0  0  0  0  0  0  0  0  0  0
   -3.5416   -1.4434   -3.1085 H   0  0  0  0  0  0  0  0  0  0  0  0
   -2.6920   -0.3198   -3.7697 H   0  0  0  0  0  0  0  0  0  0  0  0
  1 13  1  0  0  0  0
  1 15  1  0  0  0  0
  2 24  1  0  0  0  0
  2 25  1  0  0  0  0
  3 19  1  0  0  0  0
  3 32  1  0  0  0  0
  4 19  2  0  0  0  0
  5 20  2  0  0  0  0
  6 21  2  0  0  0  0
  7 10  1  0  0  0  0
  7 26  1  0  0  0  0
  8 14  1  0  0  0  0
  8 15  1  0  0  0  0
  8 28  1  0  0  0  0
  9 21  1  0  0  0  0
  9 29  1  0  0  0  0
 10 22  2  0  0  0  0
 11 23  1  0  0  0  0
 11 25  2  0  0  0  0
 12 25  1  0  0  0  0
 12 30  1  0  0  0  0
 12 31  1  0  0  0  0
 13 14  1  0  0  0  0
 13 17  1  0  0  0  0
 13 18  1  0  0  0  0
 14 19  1  0  0  0  0
 14 33  1  6  0  0  0
 15 27  1  1  0  0  0
 16 20  1  0  0  0  0
 16 34  1  6  0  0  0
 16 15  1  0  0  0  0
 16  9  1  0  0  0  0
 17 35  1  0  0  0  0
 17 36  1  0  0  0  0
 17 37  1  0  0  0  0
 18 38  1  0  0  0  0
 18 39  1  0  0  0  0
 18 40  1  0  0  0  0
 20 41  1  0  0  0  0
 21 22  1  0  0  0  0
 22 23  1  0  0  0  0
 23 24  2  0  0  0  0
 24 42  1  0  0  0  0
 26 43  1  0  0  0  0
 26 44  1  0  0  0  0
 26 45  1  0  0  0  0
M  END
>  <DRUGBANK_ID>
DB03437

>  <SECONDARY_ACCESSION_NUMBERS>
EXPT02521

>  <COMMON_NAME>
(2R,4S)-2-[(1R)-1-{[(2Z)-2-(2-Amino-1,3-thiazol-4-yl)-2-(methoxyimino)acetyl]amino}-2-oxoethyl]-5,5-dimethyl-1,3-thiazolidine-4-carboxylic acid

$$$$
