
 OpenBabel10282417193D

 32 32  0  0  1  0  0  0  0  0999 V2000
   -0.9314    0.7881    1.2421 C   0  0  0  0  0  0  0  0  0  0  0  0
    0.4369    1.1609    0.6724 C   0  0  1  0  0  0  0  0  0  0  0  0
    0.3407    2.2968   -0.3505 C   0  0  0  0  0  0  0  0  0  0  0  0
    0.6734    3.6265    0.3805 C   0  0  3  0  0  0  0  0  0  0  0  0
    1.0218    3.1870    1.8290 C   0  0  0  0  0  0  0  0  0  0  0  0
    1.4022    1.7048    1.7369 C   0  0  2  0  0  0  0  0  0  0  0  0
    2.8665    1.5282    1.3358 C   0  0  0  0  0  0  0  0  0  0  0  0
    1.8847    4.3353   -0.2855 C   0  0  0  0  0  0  0  0  0  0  0  0
    1.6215    4.7902   -1.7028 C   0  0  0  0  0  0  0  0  0  0  0  0
    1.6203    5.9499   -2.0898 O   0  0  0  0  0  0  0  0  0  0  0  0
    1.3609    3.7857   -2.5570 O   0  0  0  0  0  0  0  0  0  0  0  0
   -0.5187    4.6176    0.3851 C   0  0  0  0  0  0  0  0  0  0  0  0
   -1.7340    4.0501    0.9582 N   0  0  0  0  0  0  0  0  0  0  0  0
   -1.7508    1.0770    0.5769 H   0  0  0  0  0  0  0  0  0  0  0  0
   -1.1100    1.2360    2.2237 H   0  0  0  0  0  0  0  0  0  0  0  0
   -0.9934   -0.2982    1.3615 H   0  0  0  0  0  0  0  0  0  0  0  0
    0.8469    0.2717    0.1777 H   0  0  0  0  0  0  0  0  0  0  0  0
    1.0843    2.0684   -1.1189 H   0  0  0  0  0  0  0  0  0  0  0  0
   -0.6199    2.3295   -0.8747 H   0  0  0  0  0  0  0  0  0  0  0  0
    1.8057    3.7995    2.2882 H   0  0  0  0  0  0  0  0  0  0  0  0
    0.1513    3.2750    2.4919 H   0  0  0  0  0  0  0  0  0  0  0  0
    1.2545    1.2124    2.7051 H   0  0  0  0  0  0  0  0  0  0  0  0
    3.0229    1.6580    0.2614 H   0  0  0  0  0  0  0  0  0  0  0  0
    3.5071    2.2418    1.8646 H   0  0  0  0  0  0  0  0  0  0  0  0
    3.2071    0.5193    1.5839 H   0  0  0  0  0  0  0  0  0  0  0  0
    2.1541    5.2250    0.2995 H   0  0  0  0  0  0  0  0  0  0  0  0
    2.7833    3.7120   -0.2992 H   0  0  0  0  0  0  0  0  0  0  0  0
    1.1381    4.1957   -3.4168 H   0  0  0  0  0  0  0  0  0  0  0  0
   -0.2495    5.5134    0.9582 H   0  0  0  0  0  0  0  0  0  0  0  0
   -0.7466    4.9423   -0.6356 H   0  0  0  0  0  0  0  0  0  0  0  0
   -2.4991    4.7155    0.8749 H   0  0  0  0  0  0  0  0  0  0  0  0
   -2.0153    3.2342    0.4182 H   0  0  0  0  0  0  0  0  0  0  0  0
  1 14  1  0  0  0  0
  1 15  1  0  0  0  0
  1 16  1  0  0  0  0
  2  3  1  0  0  0  0
  2  6  1  0  0  0  0
  2 17  1  6  0  0  0
  2  1  1  0  0  0  0
  3  4  1  0  0  0  0
  3 18  1  0  0  0  0
  3 19  1  0  0  0  0
  4  5  1  0  0  0  0
  4  8  1  0  0  0  0
  4 12  1  0  0  0  0
  5  6  1  0  0  0  0
  5 20  1  0  0  0  0
  5 21  1  0  0  0  0
  6 22  1  1  0  0  0
  6  7  1  0  0  0  0
  7 23  1  0  0  0  0
  7 24  1  0  0  0  0
  7 25  1  0  0  0  0
  8  9  1  0  0  0  0
  8 26  1  0  0  0  0
  8 27  1  0  0  0  0
  9 10  2  0  0  0  0
  9 11  1  0  0  0  0
 11 28  1  0  0  0  0
 12 13  1  0  0  0  0
 12 29  1  0  0  0  0
 12 30  1  0  0  0  0
 13 31  1  0  0  0  0
 13 32  1  0  0  0  0
M  END
>  <DRUGBANK_ID>
DB12032

>  <COMMON_NAME>
Atagabalin

>  <CAS_NUMBER>
223445-75-8

>  <UNII>
JT7957Q2FB

>  <SYNONYMS>
Atagabalin

$$$$
