1580
 OpenBabel10282417113D

 42 42  0  0  1  0  0  0  0  0999 V2000
    1.1465   -0.2221    0.4422 O   0  0  0  0  0  0  0  0  0  0  0  0
    1.9442    2.1450    2.0908 O   0  0  0  0  0  0  0  0  0  0  0  0
    2.7325    2.2713   -0.9189 O   0  0  0  0  0  0  0  0  0  0  0  0
   -1.6145    3.0053    1.4612 N   0  0  0  0  0  0  0  0  0  0  0  0
   -0.1966    3.1448    1.7975 C   0  0  0  0  0  0  0  0  0  0  0  0
    0.5670    1.7954    1.9937 C   0  0  3  0  0  0  0  0  0  0  0  0
   -2.2987    4.2991    1.3647 C   0  0  0  0  0  0  0  0  0  0  0  0
    0.2247    0.7708    0.8893 C   0  0  0  0  0  0  0  0  0  0  0  0
   -1.9185    5.0966    0.1114 C   0  0  0  0  0  0  0  0  0  0  0  0
   -3.7922    3.9835    1.3382 C   0  0  0  0  0  0  0  0  0  0  0  0
    2.4263   -0.0424    0.0031 C   0  0  0  0  0  0  0  0  0  0  0  0
    3.1380    1.1086   -0.3307 C   0  0  0  0  0  0  0  0  0  0  0  0
    3.1447   -1.2504    0.0764 C   0  0  0  0  0  0  0  0  0  0  0  0
    4.5259    1.1128   -0.0927 C   0  0  0  0  0  0  0  0  0  0  0  0
    4.5357   -1.2644    0.1733 C   0  0  0  0  0  0  0  0  0  0  0  0
    5.2220   -0.0618    0.1852 C   0  0  0  0  0  0  0  0  0  0  0  0
    1.3804    2.4698   -1.2895 C   0  0  0  0  0  0  0  0  0  0  0  0
    0.8185    1.5165   -2.3289 C   0  0  0  0  0  0  0  0  0  0  0  0
   -0.0393    0.4884   -2.2704 C   0  0  0  0  0  0  0  0  0  0  0  0
    2.4667    1.3354    1.9669 H   0  0  0  0  0  0  0  0  0  0  0  0
   -1.7319    2.5267    0.5683 H   0  0  0  0  0  0  0  0  0  0  0  0
   -0.0623    3.7426    2.7059 H   0  0  0  0  0  0  0  0  0  0  0  0
    0.3005    3.7483    1.0289 H   0  0  0  0  0  0  0  0  0  0  0  0
    0.2808    1.3491    2.9491 H   0  0  0  0  0  0  0  0  0  0  0  0
   -2.0850    4.8963    2.2583 H   0  0  0  0  0  0  0  0  0  0  0  0
   -0.2382    1.2662    0.0499 H   0  0  0  0  0  0  0  0  0  0  0  0
   -0.6577    0.2087    1.2248 H   0  0  0  0  0  0  0  0  0  0  0  0
   -2.1419    4.5405   -0.8065 H   0  0  0  0  0  0  0  0  0  0  0  0
   -2.4814    6.0360    0.0765 H   0  0  0  0  0  0  0  0  0  0  0  0
   -0.8563    5.3600    0.0929 H   0  0  0  0  0  0  0  0  0  0  0  0
   -4.0794    3.3852    2.2103 H   0  0  0  0  0  0  0  0  0  0  0  0
   -4.3806    4.9053    1.3536 H   0  0  0  0  0  0  0  0  0  0  0  0
   -4.0664    3.4186    0.4388 H   0  0  0  0  0  0  0  0  0  0  0  0
    2.6045   -2.1944    0.1165 H   0  0  0  0  0  0  0  0  0  0  0  0
    5.0696    2.0560   -0.1213 H   0  0  0  0  0  0  0  0  0  0  0  0
    5.0664   -2.2033    0.3045 H   0  0  0  0  0  0  0  0  0  0  0  0
    6.2940   -0.0372    0.3596 H   0  0  0  0  0  0  0  0  0  0  0  0
    0.8368    2.5835   -0.3827 H   0  0  0  0  0  0  0  0  0  0  0  0
    1.2917    3.4900   -1.6818 H   0  0  0  0  0  0  0  0  0  0  0  0
    1.1877    1.7601   -3.3200 H   0  0  0  0  0  0  0  0  0  0  0  0
   -0.2983   -0.0716   -3.1654 H   0  0  0  0  0  0  0  0  0  0  0  0
   -0.5170    0.0577   -1.3918 H   0  0  0  0  0  0  0  0  0  0  0  0
  1  8  1  0  0  0  0
  1 11  1  0  0  0  0
  2  6  1  0  0  0  0
  2 20  1  0  0  0  0
  3 12  1  0  0  0  0
  3 17  1  0  0  0  0
  4  5  1  0  0  0  0
  4  7  1  0  0  0  0
  4 21  1  0  0  0  0
  5  6  1  0  0  0  0
  5 22  1  0  0  0  0
  5 23  1  0  0  0  0
  6  8  1  0  0  0  0
  6 24  1  0  0  0  0
  7  9  1  0  0  0  0
  7 10  1  0  0  0  0
  7 25  1  0  0  0  0
  8 26  1  0  0  0  0
  8 27  1  0  0  0  0
  9 28  1  0  0  0  0
  9 29  1  0  0  0  0
  9 30  1  0  0  0  0
 10 31  1  0  0  0  0
 10 32  1  0  0  0  0
 10 33  1  0  0  0  0
 11 12  1  0  0  0  0
 11 13  2  0  0  0  0
 12 14  2  0  0  0  0
 13 15  1  0  0  0  0
 13 34  1  0  0  0  0
 14 16  1  0  0  0  0
 14 35  1  0  0  0  0
 15 16  2  0  0  0  0
 15 36  1  0  0  0  0
 16 37  1  0  0  0  0
 17 18  1  0  0  0  0
 17 38  1  0  0  0  0
 17 39  1  0  0  0  0
 18 19  2  0  0  0  0
 18 40  1  0  0  0  0
 19 41  1  0  0  0  0
 19 42  1  0  0  0  0
M  END
>  <DRUGBANK_ID>
DB01580

>  <COMMON_NAME>
Oxprenolol

>  <CAS_NUMBER>
6452-71-7

>  <UNII>
519MXN9YZR

>  <SYNONYMS>
Oxprenolol; Oxprenololum

$$$$
