
 OpenBabel10282417123D

 44 44  0  0  0  0  0  0  0  0999 V2000
    3.0807    0.2357   -1.3020 O   0  0  0  0  0  0  0  0  0  0  0  0
    4.5176    0.0683   -1.5282 C   0  0  0  0  0  0  0  0  0  0  0  0
    5.0802   -1.2295   -0.9772 C   0  0  0  0  0  0  0  0  0  0  0  0
    4.6121   -2.5719   -1.5217 C   0  0  0  0  0  0  0  0  0  0  0  0
    5.3457    1.2839   -1.0098 C   0  0  0  0  0  0  0  0  0  0  0  0
    5.3351    1.3476    0.4686 C   0  0  0  0  0  0  0  0  0  0  0  0
    3.4428   -1.3893    1.9727 C   0  0  2  0  0  0  0  0  0  0  0  0
    2.5359   -1.3067    0.6865 C   0  0  2  0  0  0  0  0  0  0  0  0
    2.3477    0.0753   -0.0235 C   0  0  1  0  0  0  0  0  0  0  0  0
    2.3921    1.2820    0.9341 C   0  0  0  0  0  0  0  0  0  0  0  0
    3.0294    1.2356    2.1488 C   0  0  0  0  0  0  0  0  0  0  0  0
    3.6447   -0.0466    2.7019 C   0  0  0  0  0  0  0  0  0  0  0  0
    3.6136    2.5508    2.6409 C   0  0  0  0  0  0  0  0  0  0  0  0
    4.6180    2.4394    3.5473 O   0  0  0  0  0  0  0  0  0  0  0  0
    3.3782    3.6363    2.1330 O   0  0  0  0  0  0  0  0  0  0  0  0
    4.7141   -2.1841    1.8334 N   0  0  0  0  0  0  0  0  0  0  0  0
    1.2610   -1.9329    0.9556 N   0  0  0  0  0  0  0  0  0  0  0  0
    0.3808   -1.2815    1.7791 C   0  0  0  0  0  0  0  0  0  0  0  0
   -0.9237   -1.9556    1.9376 C   0  0  0  0  0  0  0  0  0  0  0  0
    0.6016   -0.2380    2.3401 O   0  0  0  0  0  0  0  0  0  0  0  0
    4.6749    0.0466   -2.6110 H   0  0  0  0  0  0  0  0  0  0  0  0
    6.1649   -1.2363   -0.8305 H   0  0  0  0  0  0  0  0  0  0  0  0
    4.7006   -1.1461    0.0022 H   0  0  0  0  0  0  0  0  0  0  0  0
    5.1036   -2.7949   -2.4636 H   0  0  0  0  0  0  0  0  0  0  0  0
    4.8554   -3.3679   -0.7999 H   0  0  0  0  0  0  0  0  0  0  0  0
    3.5347   -2.6336   -1.7014 H   0  0  0  0  0  0  0  0  0  0  0  0
    6.4026    1.2449   -1.2538 H   0  0  0  0  0  0  0  0  0  0  0  0
    4.8698    2.2021   -1.3721 H   0  0  0  0  0  0  0  0  0  0  0  0
    5.7411    0.5005    1.0129 H   0  0  0  0  0  0  0  0  0  0  0  0
    5.5230    2.3035    0.9473 H   0  0  0  0  0  0  0  0  0  0  0  0
    4.3104    1.2202    0.5337 H   0  0  0  0  0  0  0  0  0  0  0  0
    2.9066   -2.0266    2.6799 H   0  0  0  0  0  0  0  0  0  0  0  0
    2.8956   -2.0019   -0.0488 H   0  0  0  0  0  0  0  0  0  0  0  0
    1.3088    0.0851   -0.4005 H   0  0  0  0  0  0  0  0  0  0  0  0
    2.1549    2.2399    0.4626 H   0  0  0  0  0  0  0  0  0  0  0  0
    3.3238   -0.1706    3.7401 H   0  0  0  0  0  0  0  0  0  0  0  0
    4.7299    0.0858    2.7683 H   0  0  0  0  0  0  0  0  0  0  0  0
    4.9052    1.5658    3.8552 H   0  0  0  0  0  0  0  0  0  0  0  0
    5.0528   -2.5582    2.7143 H   0  0  0  0  0  0  0  0  0  0  0  0
    5.4950   -1.6127    1.4992 H   0  0  0  0  0  0  0  0  0  0  0  0
    1.1170   -2.8741    0.6146 H   0  0  0  0  0  0  0  0  0  0  0  0
   -1.0777   -2.0341    3.0138 H   0  0  0  0  0  0  0  0  0  0  0  0
   -1.6653   -1.3034    1.4738 H   0  0  0  0  0  0  0  0  0  0  0  0
   -0.9290   -2.9404    1.4735 H   0  0  0  0  0  0  0  0  0  0  0  0
  2  1  1  0  0  0  0
  2 21  1  0  0  0  0
  3  2  1  0  0  0  0
  3 22  1  0  0  0  0
  3 23  1  0  0  0  0
  4  3  1  0  0  0  0
  4 24  1  0  0  0  0
  4 25  1  0  0  0  0
  4 26  1  0  0  0  0
  5  2  1  0  0  0  0
  5 27  1  0  0  0  0
  5 28  1  0  0  0  0
  6  5  1  0  0  0  0
  6 29  1  0  0  0  0
  6 30  1  0  0  0  0
  6 31  1  0  0  0  0
  7 32  1  1  0  0  0
  7 16  1  0  0  0  0
  8  7  1  0  0  0  0
  8 33  1  6  0  0  0
  8 17  1  0  0  0  0
  9  8  1  0  0  0  0
  9 34  1  6  0  0  0
  9  1  1  0  0  0  0
 10  9  1  0  0  0  0
 10 35  1  0  0  0  0
 11 10  2  0  0  0  0
 12  7  1  0  0  0  0
 12 11  1  0  0  0  0
 12 36  1  0  0  0  0
 12 37  1  0  0  0  0
 13 11  1  0  0  0  0
 14 13  1  0  0  0  0
 14 38  1  0  0  0  0
 15 13  2  0  0  0  0
 16 39  1  0  0  0  0
 16 40  1  0  0  0  0
 17 41  1  0  0  0  0
 18 17  1  0  0  0  0
 19 18  1  0  0  0  0
 19 42  1  0  0  0  0
 19 43  1  0  0  0  0
 19 44  1  0  0  0  0
 20 18  2  0  0  0  0
M  END
>  <DRUGBANK_ID>
DB02600

>  <SECONDARY_ACCESSION_NUMBERS>
EXPT01528

>  <COMMON_NAME>
Oseltamivir acid

>  <CAS_NUMBER>
187227-45-8

>  <UNII>
K6106LV5Q8

>  <SYNONYMS>
Oseltamivir carboxylate; Oseltamivir free acid

$$$$
