
 OpenBabel10282417203D

 31 33  0  0  0  0  0  0  0  0999 V2000
    1.0736    0.0849   -0.0427 C   0  0  0  0  0  0  0  0  0  0  0  0
    3.1606   -4.2252  -10.2184 C   0  0  0  0  0  0  0  0  0  0  0  0
    1.7307   -4.4674  -10.3336 C   0  0  0  0  0  0  0  0  0  0  0  0
    3.6740   -3.5219   -9.1901 C   0  0  0  0  0  0  0  0  0  0  0  0
    1.1180   -2.0425   -4.1273 C   0  0  0  0  0  0  0  0  0  0  0  0
    2.0273   -0.0314   -5.0961 C   0  0  0  0  0  0  0  0  0  0  0  0
    0.7797   -1.3383   -2.9636 C   0  0  0  0  0  0  0  0  0  0  0  0
    1.6607    0.6910   -3.9450 C   0  0  0  0  0  0  0  0  0  0  0  0
    0.9080   -3.9674   -9.3925 C   0  0  0  0  0  0  0  0  0  0  0  0
    0.8383   -2.6398   -7.2476 C   0  0  0  0  0  0  0  0  0  0  0  0
    1.6866   -1.3860   -5.2274 C   0  0  0  0  0  0  0  0  0  0  0  0
    1.0224    0.0346   -2.8869 C   0  0  0  0  0  0  0  0  0  0  0  0
    1.8606   -2.0914   -6.4909 C   0  0  0  0  0  0  0  0  0  0  0  0
    2.8137   -2.9928   -8.1852 C   0  0  0  0  0  0  0  0  0  0  0  0
    3.0747   -2.2925   -7.0981 N   0  0  0  0  0  0  0  0  0  0  0  0
    1.4499   -3.2365   -8.3279 N   0  0  0  0  0  0  0  0  0  0  0  0
   -1.0006    0.8145   -1.4558 O   0  0  0  0  0  0  0  0  0  0  0  0
    1.0732    2.2518   -1.4890 O   0  0  0  0  0  0  0  0  0  0  0  0
    0.4420    0.9425   -1.4641 S   0  0  0  0  0  0  0  0  0  0  0  0
    0.6924   -0.9374   -0.0267 H   0  0  0  0  0  0  0  0  0  0  0  0
    0.7173    0.6055    0.8513 H   0  0  0  0  0  0  0  0  0  0  0  0
    2.1640    0.0959   -0.0610 H   0  0  0  0  0  0  0  0  0  0  0  0
    3.8100   -4.6300  -10.9900 H   0  0  0  0  0  0  0  0  0  0  0  0
    1.3694   -5.0487  -11.1773 H   0  0  0  0  0  0  0  0  0  0  0  0
    4.7384   -3.3436   -9.0993 H   0  0  0  0  0  0  0  0  0  0  0  0
    0.9259   -3.1119   -4.1739 H   0  0  0  0  0  0  0  0  0  0  0  0
    2.5542    0.4777   -5.9018 H   0  0  0  0  0  0  0  0  0  0  0  0
    0.2883   -1.8659   -2.1516 H   0  0  0  0  0  0  0  0  0  0  0  0
    1.8448    1.7640   -3.9054 H   0  0  0  0  0  0  0  0  0  0  0  0
   -0.1649   -4.1136   -9.4210 H   0  0  0  0  0  0  0  0  0  0  0  0
   -0.2348   -2.6577   -7.1193 H   0  0  0  0  0  0  0  0  0  0  0  0
  1 20  1  0  0  0  0
  1 21  1  0  0  0  0
  1 22  1  0  0  0  0
  2 23  1  0  0  0  0
  3  2  1  0  0  0  0
  3 24  1  0  0  0  0
  4  2  2  0  0  0  0
  4 25  1  0  0  0  0
  5 26  1  0  0  0  0
  6 27  1  0  0  0  0
  7  5  1  0  0  0  0
  7 28  1  0  0  0  0
  8  6  2  0  0  0  0
  8 29  1  0  0  0  0
  9  3  2  0  0  0  0
  9 30  1  0  0  0  0
 10 31  1  0  0  0  0
 11  5  2  0  0  0  0
 11  6  1  0  0  0  0
 12  7  2  0  0  0  0
 12  8  1  0  0  0  0
 13 10  2  0  0  0  0
 13 11  1  0  0  0  0
 14  4  1  0  0  0  0
 15 13  1  0  0  0  0
 15 14  2  0  0  0  0
 16  9  1  0  0  0  0
 16 10  1  0  0  0  0
 16 14  1  0  0  0  0
 19  1  1  0  0  0  0
 19 12  1  0  0  0  0
 19 17  2  0  0  0  0
 19 18  2  0  0  0  0
M  END
>  <DRUGBANK_ID>
DB13593

>  <COMMON_NAME>
Zolimidine

>  <CAS_NUMBER>
1222-57-7

>  <UNII>
YCF001N8QB

>  <SYNONYMS>
Zolimidine

$$$$
