772
 OpenBabel10282417123D

 24 25  0  0  0  0  0  0  0  0999 V2000
    2.4304    0.7692   -0.0559 C   0  0  0  0  0  0  0  0  0  0  0  0
    1.1928    1.3900    0.0570 C   0  0  0  0  0  0  0  0  0  0  0  0
    0.0208    0.6307    0.0871 C   0  0  0  0  0  0  0  0  0  0  0  0
    0.0636   -0.7895    0.0867 C   0  0  0  0  0  0  0  0  0  0  0  0
    1.3635   -1.3887    0.0666 C   0  0  0  0  0  0  0  0  0  0  0  0
    2.5181   -0.6171   -0.0599 C   0  0  0  0  0  0  0  0  0  0  0  0
   -1.2060    1.3060    0.0545 C   0  0  0  0  0  0  0  0  0  0  0  0
   -2.3709    0.5951   -0.1536 C   0  0  0  0  0  0  0  0  0  0  0  0
   -2.2936   -0.7842   -0.0560 C   0  0  0  0  0  0  0  0  0  0  0  0
   -1.1165   -1.4769    0.0798 N   0  0  0  0  0  0  0  0  0  0  0  0
    1.4867   -2.7471    0.2661 O   0  0  0  0  0  0  0  0  0  0  0  0
    2.5182   -3.8204   -0.3478 P   0  0  0  0  0  0  0  0  0  0  0  0
    2.0361   -5.2300   -0.3743 O   0  0  0  0  0  0  0  0  0  0  0  0
    2.8439   -3.2084   -1.7951 O   0  0  0  0  0  0  0  0  0  0  0  0
   -3.5138   -1.5330   -0.0052 C   0  0  0  0  0  0  0  0  0  0  0  0
   -4.5615   -2.0618    0.0676 N   0  0  0  0  0  0  0  0  0  0  0  0
    3.9513   -3.5630    0.3328 O   0  0  0  0  0  0  0  0  0  0  0  0
    3.3333    1.3697   -0.1192 H   0  0  0  0  0  0  0  0  0  0  0  0
    1.1486    2.4781    0.0671 H   0  0  0  0  0  0  0  0  0  0  0  0
    3.4957   -1.0829   -0.1167 H   0  0  0  0  0  0  0  0  0  0  0  0
   -1.2600    2.3893    0.1567 H   0  0  0  0  0  0  0  0  0  0  0  0
   -3.3043    1.1123   -0.3643 H   0  0  0  0  0  0  0  0  0  0  0  0
    2.0584   -2.7778   -2.1770 H   0  0  0  0  0  0  0  0  0  0  0  0
    4.6993   -3.6317   -0.2969 H   0  0  0  0  0  0  0  0  0  0  0  0
  1  2  2  0  0  0  0
  1  6  1  0  0  0  0
  1 18  1  0  0  0  0
  2  3  1  0  0  0  0
  2 19  1  0  0  0  0
  3  4  1  0  0  0  0
  3  7  2  0  0  0  0
  4  5  1  0  0  0  0
  4 10  2  0  0  0  0
  5  6  2  0  0  0  0
  5 11  1  0  0  0  0
  6 20  1  0  0  0  0
  7  8  1  0  0  0  0
  7 21  1  0  0  0  0
  8  9  2  0  0  0  0
  8 22  1  0  0  0  0
  9 10  1  0  0  0  0
  9 15  1  0  0  0  0
 11 12  1  0  0  0  0
 12 13  2  0  0  0  0
 12 14  1  0  0  0  0
 12 17  1  0  0  0  0
 14 23  1  0  0  0  0
 15 16  3  0  0  0  0
 17 24  1  0  0  0  0
M  END
>  <DRUGBANK_ID>
DB02762

>  <SECONDARY_ACCESSION_NUMBERS>
EXPT00300

>  <COMMON_NAME>
RU79072

$$$$
