
 OpenBabel10282417163D

 21 22  0  0  0  0  0  0  0  0999 V2000
    0.7028    1.2128    0.1219 C   0  0  0  0  0  0  0  0  0  0  0  0
    1.4347    0.0338    0.0677 C   0  0  0  0  0  0  0  0  0  0  0  0
    0.7575   -1.1748    0.0234 C   0  0  0  0  0  0  0  0  0  0  0  0
   -0.6299   -1.1473    0.0342 C   0  0  0  0  0  0  0  0  0  0  0  0
   -1.3725   -0.0126    0.0563 N   0  0  0  0  0  0  0  0  0  0  0  0
   -0.6889    1.1515    0.0605 C   0  0  0  0  0  0  0  0  0  0  0  0
   -1.4788    2.3812   -0.0691 C   0  0  0  0  0  0  0  0  0  0  0  0
   -1.3165    3.2370   -1.0900 C   0  0  0  0  0  0  0  0  0  0  0  0
   -2.1114    4.7719   -1.2501 S   0  0  0  0  0  0  0  0  0  0  0  0
   -0.3929    3.0503   -2.2538 C   0  0  0  0  0  0  0  0  0  0  0  0
    0.3331    2.1020   -2.4839 O   0  0  0  0  0  0  0  0  0  0  0  0
   -0.4160    4.1455   -3.0594 N   0  0  0  0  0  0  0  0  0  0  0  0
   -1.1809    5.1776   -2.6617 C   0  0  0  0  0  0  0  0  0  0  0  0
   -1.1877    6.3112   -3.2536 N   0  0  0  0  0  0  0  0  0  0  0  0
    1.2184    2.1672    0.1111 H   0  0  0  0  0  0  0  0  0  0  0  0
    2.5188    0.0696    0.0231 H   0  0  0  0  0  0  0  0  0  0  0  0
    1.2990   -2.1127   -0.0255 H   0  0  0  0  0  0  0  0  0  0  0  0
   -1.1963   -2.0743    0.0111 H   0  0  0  0  0  0  0  0  0  0  0  0
   -2.1974    2.5569    0.7265 H   0  0  0  0  0  0  0  0  0  0  0  0
    0.1919    4.1520   -3.8595 H   0  0  0  0  0  0  0  0  0  0  0  0
   -0.5335    6.3014   -4.0404 H   0  0  0  0  0  0  0  0  0  0  0  0
  1  2  1  0  0  0  0
  1  6  2  0  0  0  0
  1 15  1  0  0  0  0
  2  3  2  0  0  0  0
  2 16  1  0  0  0  0
  3  4  1  0  0  0  0
  3 17  1  0  0  0  0
  4  5  2  0  0  0  0
  4 18  1  0  0  0  0
  5  6  1  0  0  0  0
  6  7  1  0  0  0  0
  7  8  2  0  0  0  0
  7 19  1  0  0  0  0
  8  9  1  0  0  0  0
  8 10  1  0  0  0  0
  9 13  1  0  0  0  0
 10 11  2  0  0  0  0
 10 12  1  0  0  0  0
 12 13  1  0  0  0  0
 12 20  1  0  0  0  0
 13 14  2  0  0  0  0
 14 21  1  0  0  0  0
M  END
>  <DRUGBANK_ID>
DB07529

>  <COMMON_NAME>
(5E)-2-Amino-5-(2-pyridinylmethylene)-1,3-thiazol-4(5H)-one

$$$$
