NNC
 OpenBabel10282417173D

 37 39  0  0  0  0  0  0  0  0999 V2000
    1.7344    1.1629   -0.0036 C   0  0  0  0  0  0  0  0  0  0  0  0
    0.3302    1.2179   -0.0397 C   0  0  0  0  0  0  0  0  0  0  0  0
   -0.4195    0.0414   -0.0368 C   0  0  0  0  0  0  0  0  0  0  0  0
   -2.1359    0.0840   -0.0170 Cl  0  0  0  0  0  0  0  0  0  0  0  0
    0.2163   -1.1855   -0.0372 C   0  0  0  0  0  0  0  0  0  0  0  0
    1.6017   -1.2338    0.0088 C   0  0  0  0  0  0  0  0  0  0  0  0
    2.3821   -0.0773    0.0689 C   0  0  0  0  0  0  0  0  0  0  0  0
    3.7717   -0.1217    0.3268 N   0  0  0  0  0  0  0  0  0  0  0  0
    4.5005   -1.2298    0.7105 C   0  0  0  0  0  0  0  0  0  0  0  0
    5.8547   -1.1009    1.6744 S   0  0  0  0  0  0  0  0  0  0  0  0
    4.0561   -2.4065    0.2078 O   0  0  0  0  0  0  0  0  0  0  0  0
    4.7714   -3.6573    0.0997 C   0  0  0  0  0  0  0  0  0  0  0  0
    5.5763   -3.7379   -1.2107 C   0  0  0  0  0  0  0  0  0  0  0  0
    6.5451   -2.6618   -1.3747 N   0  0  0  0  0  0  0  0  0  0  0  0
    7.8988   -2.8134   -1.2785 C   0  0  0  0  0  0  0  0  0  0  0  0
    8.5416   -3.8374   -1.1289 O   0  0  0  0  0  0  0  0  0  0  0  0
    8.4797   -1.4686   -1.3627 C   0  0  0  0  0  0  0  0  0  0  0  0
    9.7848   -1.0277   -1.3427 C   0  0  0  0  0  0  0  0  0  0  0  0
    9.9948    0.3587   -1.3258 C   0  0  0  0  0  0  0  0  0  0  0  0
    8.9126    1.2594   -1.2479 C   0  0  0  0  0  0  0  0  0  0  0  0
    7.6011    0.7897   -1.2954 C   0  0  0  0  0  0  0  0  0  0  0  0
    7.4326   -0.5752   -1.4396 C   0  0  0  0  0  0  0  0  0  0  0  0
    6.2222   -1.3588   -1.6609 C   0  0  0  0  0  0  0  0  0  0  0  0
    5.1899   -0.8750   -2.0572 O   0  0  0  0  0  0  0  0  0  0  0  0
    2.2902    2.0980    0.0184 H   0  0  0  0  0  0  0  0  0  0  0  0
   -0.1785    2.1781   -0.0440 H   0  0  0  0  0  0  0  0  0  0  0  0
   -0.3324   -2.1215   -0.0490 H   0  0  0  0  0  0  0  0  0  0  0  0
    2.0210   -2.2270    0.0120 H   0  0  0  0  0  0  0  0  0  0  0  0
    4.2699    0.7587    0.3662 H   0  0  0  0  0  0  0  0  0  0  0  0
    5.3655   -3.8485    0.9954 H   0  0  0  0  0  0  0  0  0  0  0  0
    3.9962   -4.4368    0.0710 H   0  0  0  0  0  0  0  0  0  0  0  0
    6.0995   -4.7009   -1.2249 H   0  0  0  0  0  0  0  0  0  0  0  0
    4.8915   -3.7000   -2.0646 H   0  0  0  0  0  0  0  0  0  0  0  0
   10.6115   -1.7286   -1.3595 H   0  0  0  0  0  0  0  0  0  0  0  0
   11.0091    0.7509   -1.3608 H   0  0  0  0  0  0  0  0  0  0  0  0
    9.1014    2.3291   -1.1735 H   0  0  0  0  0  0  0  0  0  0  0  0
    6.7530    1.4610   -1.2089 H   0  0  0  0  0  0  0  0  0  0  0  0
  1  2  1  0  0  0  0
  1  7  2  0  0  0  0
  1 25  1  0  0  0  0
  2  3  2  0  0  0  0
  2 26  1  0  0  0  0
  3  4  1  0  0  0  0
  3  5  1  0  0  0  0
  5  6  2  0  0  0  0
  5 27  1  0  0  0  0
  6  7  1  0  0  0  0
  6 28  1  0  0  0  0
  7  8  1  0  0  0  0
  8  9  1  0  0  0  0
  8 29  1  0  0  0  0
  9 10  2  0  0  0  0
  9 11  1  0  0  0  0
 11 12  1  0  0  0  0
 12 13  1  0  0  0  0
 12 30  1  0  0  0  0
 12 31  1  0  0  0  0
 13 14  1  0  0  0  0
 13 32  1  0  0  0  0
 13 33  1  0  0  0  0
 14 15  1  0  0  0  0
 14 23  1  0  0  0  0
 15 16  2  0  0  0  0
 15 17  1  0  0  0  0
 17 18  1  0  0  0  0
 17 22  2  0  0  0  0
 18 19  2  0  0  0  0
 18 34  1  0  0  0  0
 19 20  1  0  0  0  0
 19 35  1  0  0  0  0
 20 21  2  0  0  0  0
 20 36  1  0  0  0  0
 21 22  1  0  0  0  0
 21 37  1  0  0  0  0
 22 23  1  0  0  0  0
 23 24  2  0  0  0  0
M  END
>  <DRUGBANK_ID>
DB08282

>  <COMMON_NAME>
O-[2-(1,3-dioxo-1,3-dihydro-2H-isoindol-2-yl)ethyl] (4-chlorophenyl)thiocarbamate

$$$$
