
 OpenBabel10282417133D

 18 17  0  0  0  0  0  0  0  0999 V2000
    1.0494    0.0519   -0.0201 O   0  0  0  0  0  0  0  0  0  0  0  0
    0.4209   -0.2018    1.2305 N   0  0  0  0  0  0  0  0  0  0  0  0
    1.4408   -0.4064    2.4090 C   0  0  0  0  0  0  0  0  0  0  0  0
    1.3142    0.5261    3.6486 C   0  0  0  0  0  0  0  0  0  0  0  0
   -0.3076    0.5685    4.3886 P   0  0  0  0  0  0  0  0  0  0  0  0
   -0.7740    2.0001    3.8475 O   0  0  0  0  0  0  0  0  0  0  0  0
   -1.0647   -0.5517    3.5638 O   0  0  0  0  0  0  0  0  0  0  0  0
   -0.6415    0.4000    5.8263 O   0  0  0  0  0  0  0  0  0  0  0  0
   -0.9676   -0.2385    0.9613 C   0  0  0  0  0  0  0  0  0  0  0  0
   -1.5306    0.0094   -0.1232 O   0  0  0  0  0  0  0  0  0  0  0  0
    1.9939   -0.0912    0.1047 H   0  0  0  0  0  0  0  0  0  0  0  0
    1.4126   -1.4550    2.7387 H   0  0  0  0  0  0  0  0  0  0  0  0
    2.4556   -0.2724    1.9994 H   0  0  0  0  0  0  0  0  0  0  0  0
    2.0706    0.3193    4.4203 H   0  0  0  0  0  0  0  0  0  0  0  0
    1.5434    1.5360    3.2867 H   0  0  0  0  0  0  0  0  0  0  0  0
   -0.6208    2.6572    4.5631 H   0  0  0  0  0  0  0  0  0  0  0  0
   -0.4855   -1.1339    3.0357 H   0  0  0  0  0  0  0  0  0  0  0  0
   -1.6552   -0.5571    1.7366 H   0  0  0  0  0  0  0  0  0  0  0  0
  1  2  1  0  0  0  0
  1 11  1  0  0  0  0
  2  3  1  0  0  0  0
  2  9  1  0  0  0  0
  3  4  1  0  0  0  0
  3 12  1  0  0  0  0
  3 13  1  0  0  0  0
  4  5  1  0  0  0  0
  4 14  1  0  0  0  0
  4 15  1  0  0  0  0
  5  6  1  0  0  0  0
  5  7  1  0  0  0  0
  5  8  2  0  0  0  0
  6 16  1  0  0  0  0
  7 17  1  0  0  0  0
  9 10  2  0  0  0  0
  9 18  1  0  0  0  0
M  END
>  <DRUGBANK_ID>
DB03135

>  <SECONDARY_ACCESSION_NUMBERS>
EXPT00020

>  <COMMON_NAME>
[2(Formyl-Hydroxy-Amino)-Ethyl]-Phosphonic Acid

>  <UNII>
8Y97C7OS7S

$$$$
