5I5
 OpenBabel10282417163D

 32 34  0  0  0  0  0  0  0  0999 V2000
    3.9914    0.2454    4.2886 N   0  0  0  0  0  0  0  0  0  0  0  0
    4.9749    0.3619    3.3763 C   0  0  0  0  0  0  0  0  0  0  0  0
    4.6831    0.8975    2.1171 C   0  0  0  0  0  0  0  0  0  0  0  0
    3.3642    1.2862    1.8979 C   0  0  0  0  0  0  0  0  0  0  0  0
    2.3586    1.1970    2.7819 N   0  0  0  0  0  0  0  0  0  0  0  0
    2.7558    0.6614    3.9481 C   0  0  0  0  0  0  0  0  0  0  0  0
    5.3786    1.1941    0.9209 C   0  0  0  0  0  0  0  0  0  0  0  0
    4.5010    1.7281    0.0124 C   0  0  0  0  0  0  0  0  0  0  0  0
    3.2800    1.8371    0.6332 N   0  0  0  0  0  0  0  0  0  0  0  0
    7.3544    0.9137    0.5460 I   0  0  0  0  0  0  0  0  0  0  0  0
    6.2428   -0.0415    3.7316 N   0  0  0  0  0  0  0  0  0  0  0  0
    1.7031    4.9383    0.2171 C   0  0  1  0  0  0  0  0  0  0  0  0
    1.6882    3.6798    1.0748 C   0  0  2  0  0  0  0  0  0  0  0  0
    2.0868    2.5356    0.1331 C   0  0  1  0  0  0  0  0  0  0  0  0
    2.3434    3.1199   -1.1676 O   0  0  0  0  0  0  0  0  0  0  0  0
    2.5119    4.5435   -1.0126 C   0  0  2  0  0  0  0  0  0  0  0  0
    0.3777    5.3411   -0.1399 O   0  0  0  0  0  0  0  0  0  0  0  0
    0.4095    3.4476    1.6666 O   0  0  0  0  0  0  0  0  0  0  0  0
    4.0024    4.8244   -0.8700 C   0  0  0  0  0  0  0  0  0  0  0  0
    2.1497    5.7827    0.7514 H   0  0  0  0  0  0  0  0  0  0  0  0
    2.4203    3.8001    1.8810 H   0  0  0  0  0  0  0  0  0  0  0  0
    1.3167    1.7658    0.0062 H   0  0  0  0  0  0  0  0  0  0  0  0
    2.1367    5.0345   -1.9180 H   0  0  0  0  0  0  0  0  0  0  0  0
    1.9913    0.5554    4.7121 H   0  0  0  0  0  0  0  0  0  0  0  0
    4.6539    2.0778   -0.9998 H   0  0  0  0  0  0  0  0  0  0  0  0
    6.9765   -0.0219    3.0409 H   0  0  0  0  0  0  0  0  0  0  0  0
    6.3691   -0.4977    4.6189 H   0  0  0  0  0  0  0  0  0  0  0  0
   -0.0840    4.5601   -0.4979 H   0  0  0  0  0  0  0  0  0  0  0  0
    0.1911    4.2421    2.1847 H   0  0  0  0  0  0  0  0  0  0  0  0
    4.3802    4.4821    0.0986 H   0  0  0  0  0  0  0  0  0  0  0  0
    4.5607    4.2871   -1.6448 H   0  0  0  0  0  0  0  0  0  0  0  0
    4.2262    5.8897   -0.9562 H   0  0  0  0  0  0  0  0  0  0  0  0
  1  6  2  0  0  0  0
  1  2  1  0  0  0  0
  2 11  1  0  0  0  0
  2  3  2  0  0  0  0
  3  4  1  0  0  0  0
  3  7  1  0  0  0  0
  4  5  2  0  0  0  0
  4  9  1  0  0  0  0
  5  6  1  0  0  0  0
  6 24  1  0  0  0  0
  7  8  2  0  0  0  0
  7 10  1  0  0  0  0
  8  9  1  0  0  0  0
  8 25  1  0  0  0  0
 11 26  1  0  0  0  0
 11 27  1  0  0  0  0
 12 17  1  0  0  0  0
 12 13  1  0  0  0  0
 12 16  1  0  0  0  0
 12 20  1  1  0  0  0
 13 14  1  0  0  0  0
 13 21  1  1  0  0  0
 13 18  1  0  0  0  0
 14 15  1  0  0  0  0
 14 22  1  6  0  0  0
 14  9  1  0  0  0  0
 15 16  1  0  0  0  0
 16 23  1  6  0  0  0
 16 19  1  0  0  0  0
 17 28  1  0  0  0  0
 18 29  1  0  0  0  0
 19 30  1  0  0  0  0
 19 31  1  0  0  0  0
 19 32  1  0  0  0  0
M  END
>  <DRUGBANK_ID>
DB07173

>  <COMMON_NAME>
7-(5-DEOXY-BETA-D-RIBOFURANOSYL)-5-IODO-7H-PYRROLO[2,3-D]PYRIMIDIN-4-AMINE

$$$$
