D27
 OpenBabel10282417163D

 41 42  0  0  0  0  0  0  0  0999 V2000
    1.3968   -0.3107    0.0253 C   0  0  0  0  0  0  0  0  0  0  0  0
    0.4669   -1.3736   -0.0084 C   0  0  0  0  0  0  0  0  0  0  0  0
    2.8701   -0.4913    0.1546 C   0  0  0  0  0  0  0  0  0  0  0  0
    0.8749   -2.7448   -0.0424 N   0  0  0  0  0  0  0  0  0  0  0  0
    0.0163   -3.8279   -0.0941 C   0  0  0  0  0  0  0  0  0  0  0  0
    0.6535   -5.1676   -0.1335 C   0  0  0  0  0  0  0  0  0  0  0  0
    0.3663   -9.7434   -1.5208 C   0  0  0  0  0  0  0  0  0  0  0  0
   -0.1746   -6.2341   -0.1664 C   0  0  0  0  0  0  0  0  0  0  0  0
    1.4988  -10.1356   -0.7761 C   0  0  0  0  0  0  0  0  0  0  0  0
   -0.2459   -8.5026   -1.2012 C   0  0  0  0  0  0  0  0  0  0  0  0
    3.6993    0.4112    0.2188 O   0  0  0  0  0  0  0  0  0  0  0  0
   -1.2095   -3.7768   -0.1116 O   0  0  0  0  0  0  0  0  0  0  0  0
    0.3062   -7.6124   -0.2694 C   0  0  0  0  0  0  0  0  0  0  0  0
    1.9613   -9.2682    0.2408 C   0  0  0  0  0  0  0  0  0  0  0  0
    3.2599   -1.7783    0.2544 O   0  0  0  0  0  0  0  0  0  0  0  0
    1.3669   -8.0398    0.5105 C   0  0  0  0  0  0  0  0  0  0  0  0
   -0.3036  -10.3084   -2.5822 O   0  0  0  0  0  0  0  0  0  0  0  0
    0.9247    1.0254    0.0001 C   0  0  0  0  0  0  0  0  0  0  0  0
    2.3229  -11.2329   -0.7987 O   0  0  0  0  0  0  0  0  0  0  0  0
   -0.8976   -1.0396   -0.0185 C   0  0  0  0  0  0  0  0  0  0  0  0
    0.3414  -11.2650   -3.3894 C   0  0  0  0  0  0  0  0  0  0  0  0
    1.9134  -12.4215   -1.4245 C   0  0  0  0  0  0  0  0  0  0  0  0
   -0.4433    1.3117    0.0258 C   0  0  0  0  0  0  0  0  0  0  0  0
   -1.3539    0.2739   -0.0057 C   0  0  0  0  0  0  0  0  0  0  0  0
    1.8846   -2.8912   -0.0320 H   0  0  0  0  0  0  0  0  0  0  0  0
    1.7311   -5.2528   -0.1626 H   0  0  0  0  0  0  0  0  0  0  0  0
   -1.2568   -6.1043   -0.1809 H   0  0  0  0  0  0  0  0  0  0  0  0
   -1.1473   -8.2113   -1.7437 H   0  0  0  0  0  0  0  0  0  0  0  0
    2.8314   -9.5521    0.8312 H   0  0  0  0  0  0  0  0  0  0  0  0
    4.2306   -1.7290    0.4036 H   0  0  0  0  0  0  0  0  0  0  0  0
    1.7528   -7.4165    1.3129 H   0  0  0  0  0  0  0  0  0  0  0  0
    1.6216    1.8624   -0.0316 H   0  0  0  0  0  0  0  0  0  0  0  0
   -1.6790   -1.7874   -0.0182 H   0  0  0  0  0  0  0  0  0  0  0  0
    1.3708  -10.9595   -3.6063 H   0  0  0  0  0  0  0  0  0  0  0  0
    0.2034  -12.2320   -2.9121 H   0  0  0  0  0  0  0  0  0  0  0  0
   -0.1427  -11.4401   -4.3529 H   0  0  0  0  0  0  0  0  0  0  0  0
    0.8785  -12.6556   -1.1574 H   0  0  0  0  0  0  0  0  0  0  0  0
    2.1447  -12.3312   -2.4837 H   0  0  0  0  0  0  0  0  0  0  0  0
    2.5160  -13.2891   -1.1502 H   0  0  0  0  0  0  0  0  0  0  0  0
   -0.8069    2.3340    0.0850 H   0  0  0  0  0  0  0  0  0  0  0  0
   -2.4255    0.4564   -0.0241 H   0  0  0  0  0  0  0  0  0  0  0  0
  1  2  1  0  0  0  0
  1  3  1  0  0  0  0
  1 18  2  0  0  0  0
  2  4  1  0  0  0  0
  2 20  2  0  0  0  0
  3 11  2  0  0  0  0
  3 15  1  0  0  0  0
  4  5  1  0  0  0  0
  4 25  1  0  0  0  0
  5  6  1  0  0  0  0
  5 12  2  0  0  0  0
  6  8  2  0  0  0  0
  6 26  1  0  0  0  0
  7  9  1  0  0  0  0
  7 10  2  0  0  0  0
  7 17  1  0  0  0  0
  8 13  1  0  0  0  0
  8 27  1  0  0  0  0
  9 14  2  0  0  0  0
  9 19  1  0  0  0  0
 10 13  1  0  0  0  0
 10 28  1  0  0  0  0
 13 16  2  0  0  0  0
 14 16  1  0  0  0  0
 14 29  1  0  0  0  0
 15 30  1  0  0  0  0
 16 31  1  0  0  0  0
 17 21  1  0  0  0  0
 18 23  1  0  0  0  0
 18 32  1  0  0  0  0
 19 22  1  0  0  0  0
 20 24  1  0  0  0  0
 20 33  1  0  0  0  0
 21 34  1  0  0  0  0
 21 35  1  0  0  0  0
 21 36  1  0  0  0  0
 22 37  1  0  0  0  0
 22 38  1  0  0  0  0
 22 39  1  0  0  0  0
 23 24  2  0  0  0  0
 23 40  1  0  0  0  0
 24 41  1  0  0  0  0
M  END
>  <DRUGBANK_ID>
DB07615

>  <COMMON_NAME>
Tranilast

>  <CAS_NUMBER>
53902-12-8

>  <UNII>
HVF50SMY6E

>  <SYNONYMS>
N-(3,4-Dimethoxycinnamoyl)anthranilic acid; Tranilast; Tranilastum

$$$$
