
 OpenBabel10282417203D

 68 68  0  0  0  0  0  0  0  0999 V2000
    1.0019    0.2179    0.0316 C   0  0  0  0  0  0  0  0  0  0  0  0
    0.5746   -0.5374   -1.2151 C   0  0  0  0  0  0  0  0  0  0  0  0
    1.0842   -1.9774   -1.1570 C   0  0  0  0  0  0  0  0  0  0  0  0
    0.5188   -2.7126    0.0645 C   0  0  0  0  0  0  0  0  0  0  0  0
   -1.0114   -2.7304    0.0042 C   0  0  0  0  0  0  0  0  0  0  0  0
   -1.4488   -3.4159   -1.2974 C   0  0  0  0  0  0  0  0  0  0  0  0
   -0.8225   -4.8208   -1.3790 C   0  0  0  0  0  0  0  0  0  0  0  0
   -1.2778   -5.6218   -0.1897 C   0  0  0  0  0  0  0  0  0  0  0  0
   -2.7718   -5.6540   -0.2774 C   0  0  0  0  0  0  0  0  0  0  0  0
   -3.3129   -6.3473   -1.5139 C   0  0  0  0  0  0  0  0  0  0  0  0
   -4.2536   -4.6688    3.5421 C   0  0  0  0  0  0  0  0  0  0  0  0
   -3.7960   -5.9339    3.3949 C   0  0  0  0  0  0  0  0  0  0  0  0
   -5.0651   -4.0999    2.5466 C   0  0  0  0  0  0  0  0  0  0  0  0
   -3.0388   -7.8474   -1.4243 C   0  0  0  0  0  0  0  0  0  0  0  0
   -4.1777   -6.6171    2.2525 C   0  0  0  0  0  0  0  0  0  0  0  0
   -5.5483   -4.8628    1.4568 C   0  0  0  0  0  0  0  0  0  0  0  0
   -3.5252   -8.5718   -0.1441 C   0  0  0  0  0  0  0  0  0  0  0  0
   -5.6730   -9.2598   -1.2044 C   0  0  0  0  0  0  0  0  0  0  0  0
   -5.6308   -9.3816    1.3275 C   0  0  0  0  0  0  0  0  0  0  0  0
   -5.1735  -10.7246   -1.3701 C   0  0  0  0  0  0  0  0  0  0  0  0
   -5.4744   -8.9877    2.8069 C   0  0  0  0  0  0  0  0  0  0  0  0
   -5.7003   -7.1096    0.2306 C   0  0  0  0  0  0  0  0  0  0  0  0
   -5.1346   -6.1738    1.3021 C   0  0  0  0  0  0  0  0  0  0  0  0
   -5.0686   -8.5374    0.1048 N   0  3  0  0  0  0  0  0  0  0  0  0
   -5.7034  -11.5640   -0.3512 O   0  0  0  0  0  0  0  0  0  0  0  0
   -6.3659   -7.9930    3.2820 O   0  0  0  0  0  0  0  0  0  0  0  0
    0.5929   -0.2280    0.9443 H   0  0  0  0  0  0  0  0  0  0  0  0
    0.6492    1.2486    0.0002 H   0  0  0  0  0  0  0  0  0  0  0  0
    2.0925    0.2068    0.1124 H   0  0  0  0  0  0  0  0  0  0  0  0
   -0.5178   -0.5022   -1.3114 H   0  0  0  0  0  0  0  0  0  0  0  0
    0.9606   -0.0477   -2.1127 H   0  0  0  0  0  0  0  0  0  0  0  0
    0.8170   -2.4912   -2.0893 H   0  0  0  0  0  0  0  0  0  0  0  0
    2.1763   -2.0038   -1.1289 H   0  0  0  0  0  0  0  0  0  0  0  0
    0.9313   -3.7266    0.1054 H   0  0  0  0  0  0  0  0  0  0  0  0
    0.8538   -2.2709    1.0046 H   0  0  0  0  0  0  0  0  0  0  0  0
   -1.4131   -3.2261    0.8962 H   0  0  0  0  0  0  0  0  0  0  0  0
   -1.4446   -1.7281    0.0614 H   0  0  0  0  0  0  0  0  0  0  0  0
   -2.5436   -3.4167   -1.3501 H   0  0  0  0  0  0  0  0  0  0  0  0
   -1.1758   -2.8515   -2.1895 H   0  0  0  0  0  0  0  0  0  0  0  0
   -1.1062   -5.3047   -2.3134 H   0  0  0  0  0  0  0  0  0  0  0  0
    0.2654   -4.8257   -1.4133 H   0  0  0  0  0  0  0  0  0  0  0  0
   -0.8674   -6.6341   -0.1650 H   0  0  0  0  0  0  0  0  0  0  0  0
   -0.9864   -5.1968    0.7806 H   0  0  0  0  0  0  0  0  0  0  0  0
   -2.9667   -6.2285    0.5861 H   0  0  0  0  0  0  0  0  0  0  0  0
   -3.2617   -4.6902   -0.1004 H   0  0  0  0  0  0  0  0  0  0  0  0
   -4.3565   -6.0990   -1.6648 H   0  0  0  0  0  0  0  0  0  0  0  0
   -2.8974   -5.9455   -2.4387 H   0  0  0  0  0  0  0  0  0  0  0  0
   -3.9635   -4.1118    4.4321 H   0  0  0  0  0  0  0  0  0  0  0  0
   -3.1554   -6.4431    4.1163 H   0  0  0  0  0  0  0  0  0  0  0  0
   -5.3307   -3.0562    2.6394 H   0  0  0  0  0  0  0  0  0  0  0  0
   -3.3859   -8.3346   -2.3365 H   0  0  0  0  0  0  0  0  0  0  0  0
   -1.9488   -7.9770   -1.4582 H   0  0  0  0  0  0  0  0  0  0  0  0
   -3.6464   -7.5341    2.1491 H   0  0  0  0  0  0  0  0  0  0  0  0
   -6.2271   -4.3878    0.7483 H   0  0  0  0  0  0  0  0  0  0  0  0
   -3.2195   -9.6187   -0.1648 H   0  0  0  0  0  0  0  0  0  0  0  0
   -2.9605   -8.2199    0.7057 H   0  0  0  0  0  0  0  0  0  0  0  0
   -6.7599   -9.2205   -1.1070 H   0  0  0  0  0  0  0  0  0  0  0  0
   -5.3834   -8.6594   -2.0718 H   0  0  0  0  0  0  0  0  0  0  0  0
   -6.7039   -9.4784    1.1297 H   0  0  0  0  0  0  0  0  0  0  0  0
   -5.0960  -10.3151    1.2847 H   0  0  0  0  0  0  0  0  0  0  0  0
   -5.5127  -11.1271   -2.3264 H   0  0  0  0  0  0  0  0  0  0  0  0
   -4.0836  -10.8245   -1.3831 H   0  0  0  0  0  0  0  0  0  0  0  0
   -5.7467   -9.8518    3.4131 H   0  0  0  0  0  0  0  0  0  0  0  0
   -4.4301   -8.8543    3.1011 H   0  0  0  0  0  0  0  0  0  0  0  0
   -5.7509   -6.6765   -0.7673 H   0  0  0  0  0  0  0  0  0  0  0  0
   -6.7612   -7.2762    0.4516 H   0  0  0  0  0  0  0  0  0  0  0  0
   -4.9715  -11.8666    0.2196 H   0  0  0  0  0  0  0  0  0  0  0  0
   -6.3933   -7.1979    2.7311 H   0  0  0  0  0  0  0  0  0  0  0  0
  1 27  1  0  0  0  0
  1 28  1  0  0  0  0
  1 29  1  0  0  0  0
  2  1  1  0  0  0  0
  2 30  1  0  0  0  0
  2 31  1  0  0  0  0
  3  2  1  0  0  0  0
  3 32  1  0  0  0  0
  3 33  1  0  0  0  0
  4  3  1  0  0  0  0
  4 34  1  0  0  0  0
  4 35  1  0  0  0  0
  5  4  1  0  0  0  0
  5 36  1  0  0  0  0
  5 37  1  0  0  0  0
  6  5  1  0  0  0  0
  6 38  1  0  0  0  0
  6 39  1  0  0  0  0
  7  6  1  0  0  0  0
  7 40  1  0  0  0  0
  7 41  1  0  0  0  0
  8  7  1  0  0  0  0
  8 42  1  0  0  0  0
  8 43  1  0  0  0  0
  9  8  1  0  0  0  0
  9 44  1  0  0  0  0
  9 45  1  0  0  0  0
 10  9  1  0  0  0  0
 10 46  1  0  0  0  0
 10 47  1  0  0  0  0
 11 48  1  0  0  0  0
 12 11  2  0  0  0  0
 12 49  1  0  0  0  0
 13 11  1  0  0  0  0
 13 50  1  0  0  0  0
 14 10  1  0  0  0  0
 14 51  1  0  0  0  0
 14 52  1  0  0  0  0
 15 12  1  0  0  0  0
 15 53  1  0  0  0  0
 16 13  2  0  0  0  0
 16 54  1  0  0  0  0
 17 14  1  0  0  0  0
 17 55  1  0  0  0  0
 17 56  1  0  0  0  0
 18 57  1  0  0  0  0
 18 58  1  0  0  0  0
 19 59  1  0  0  0  0
 19 60  1  0  0  0  0
 20 18  1  0  0  0  0
 20 61  1  0  0  0  0
 20 62  1  0  0  0  0
 21 19  1  0  0  0  0
 21 63  1  0  0  0  0
 21 64  1  0  0  0  0
 22 65  1  0  0  0  0
 22 66  1  0  0  0  0
 23 15  2  0  0  0  0
 23 16  1  0  0  0  0
 23 22  1  0  0  0  0
 24 17  1  0  0  0  0
 24 18  1  0  0  0  0
 24 19  1  0  0  0  0
 24 22  1  0  0  0  0
 25 20  1  0  0  0  0
 25 67  1  0  0  0  0
 26 21  1  0  0  0  0
 26 68  1  0  0  0  0
M  CHG  1  24   1
M  END
>  <DRUGBANK_ID>
DB13565

>  <COMMON_NAME>
Benzoxonium

>  <CAS_NUMBER>
23884-64-2

>  <UNII>
D95EHT6Y2L

$$$$
