C26
 OpenBabel10282417163D

 31 30  0  0  0  0  0  0  0  0999 V2000
    4.6187   -2.8263   -1.9593 O   0  0  0  0  0  0  0  0  0  0  0  0
    4.9249   -1.5303   -1.3802 S   0  0  0  0  0  0  0  0  0  0  0  0
    6.2065   -0.9415   -1.6738 O   0  0  0  0  0  0  0  0  0  0  0  0
    3.7006   -0.5632   -1.8453 O   0  0  0  0  0  0  0  0  0  0  0  0
    4.7797   -1.5653    0.2341 O   0  0  0  0  0  0  0  0  0  0  0  0
    4.3560   -0.4603    1.0267 C   0  0  0  0  0  0  0  0  0  0  0  0
    5.0569    0.9372    1.0150 C   0  0  2  0  0  0  0  0  0  0  0  0
    4.5667    1.8903   -0.1181 C   0  0  0  0  0  0  0  0  0  0  0  0
    5.3984    1.7817   -1.3794 C   0  0  0  0  0  0  0  0  0  0  0  0
    6.5949    0.9465    1.1443 C   0  0  0  0  0  0  0  0  0  0  0  0
    7.1465    2.3967    1.1775 C   0  0  0  0  0  0  0  0  0  0  0  0
    6.6349    3.1941    2.3732 C   0  0  0  0  0  0  0  0  0  0  0  0
    7.0893    2.5426    3.6615 C   0  0  0  0  0  0  0  0  0  0  0  0
    4.6655    1.3934    1.9385 H   0  0  0  0  0  0  0  0  0  0  0  0
    3.9198   -0.0607   -2.6587 H   0  0  0  0  0  0  0  0  0  0  0  0
    3.2821   -0.2985    0.8817 H   0  0  0  0  0  0  0  0  0  0  0  0
    4.4421   -0.8335    2.0593 H   0  0  0  0  0  0  0  0  0  0  0  0
    3.5174    1.6626   -0.3362 H   0  0  0  0  0  0  0  0  0  0  0  0
    4.5847    2.9350    0.2103 H   0  0  0  0  0  0  0  0  0  0  0  0
    5.2356    0.7931   -1.6659 H   0  0  0  0  0  0  0  0  0  0  0  0
    5.0631    2.3143   -2.2643 H   0  0  0  0  0  0  0  0  0  0  0  0
    6.4854    1.8028   -1.2825 H   0  0  0  0  0  0  0  0  0  0  0  0
    6.9100    0.4013    2.0410 H   0  0  0  0  0  0  0  0  0  0  0  0
    7.0654    0.4001    0.3233 H   0  0  0  0  0  0  0  0  0  0  0  0
    8.2412    2.3775    1.1621 H   0  0  0  0  0  0  0  0  0  0  0  0
    6.8722    2.9649    0.2838 H   0  0  0  0  0  0  0  0  0  0  0  0
    7.0052    4.2231    2.3102 H   0  0  0  0  0  0  0  0  0  0  0  0
    5.5419    3.2747    2.3590 H   0  0  0  0  0  0  0  0  0  0  0  0
    8.1815    2.4868    3.6796 H   0  0  0  0  0  0  0  0  0  0  0  0
    6.7369    3.1075    4.5239 H   0  0  0  0  0  0  0  0  0  0  0  0
    6.6959    1.5266    3.7605 H   0  0  0  0  0  0  0  0  0  0  0  0
  1  2  2  0  0  0  0
  2  3  2  0  0  0  0
  2  4  1  0  0  0  0
  2  5  1  0  0  0  0
  4 15  1  0  0  0  0
  5  6  1  0  0  0  0
  6 16  1  0  0  0  0
  6 17  1  0  0  0  0
  7 10  1  0  0  0  0
  7 14  1  1  0  0  0
  7  8  1  0  0  0  0
  7  6  1  0  0  0  0
  8  9  1  0  0  0  0
  8 18  1  0  0  0  0
  8 19  1  0  0  0  0
  9 20  1  0  0  0  0
  9 21  1  0  0  0  0
  9 22  1  0  0  0  0
 10 11  1  0  0  0  0
 10 23  1  0  0  0  0
 10 24  1  0  0  0  0
 11 12  1  0  0  0  0
 11 25  1  0  0  0  0
 11 26  1  0  0  0  0
 12 13  1  0  0  0  0
 12 27  1  0  0  0  0
 12 28  1  0  0  0  0
 13 29  1  0  0  0  0
 13 30  1  0  0  0  0
 13 31  1  0  0  0  0
M  END
>  <DRUGBANK_ID>
DB07518

>  <COMMON_NAME>
(2R)-2-ETHYL-1-HEXANESULFONIC ACID

$$$$
