
 OpenBabel10282417133D

 63 62  0  0  0  0  0  0  0  0999 V2000
    1.0112   -0.1681   -0.1220 C   0  0  0  0  0  0  0  0  0  0  0  0
    0.5665   -0.3515    1.3199 C   0  0  0  0  0  0  0  0  0  0  0  0
    1.0644    0.8092    2.1822 C   0  0  0  0  0  0  0  0  0  0  0  0
    0.5100    2.1488    1.6850 C   0  0  0  0  0  0  0  0  0  0  0  0
   -1.0225    2.1420    1.7066 C   0  0  0  0  0  0  0  0  0  0  0  0
   -1.5255    1.9293    3.1373 C   0  0  0  0  0  0  0  0  0  0  0  0
   -1.0165    3.0606    4.0355 C   0  0  0  0  0  0  0  0  0  0  0  0
   -1.5312    4.4032    3.5081 C   0  0  0  0  0  0  0  0  0  0  0  0
   -3.0622    4.3906    3.5072 C   0  0  0  0  0  0  0  0  0  0  0  0
   -3.5646    4.1510    4.9353 C   0  0  0  0  0  0  0  0  0  0  0  0
   -3.0660    5.2761    5.8420 C   0  0  0  0  0  0  0  0  0  0  0  0
   -3.5838    6.6084    5.3057 C   0  0  0  0  0  0  0  0  0  0  0  0
   -5.1204    6.5838    5.2881 C   0  0  0  0  0  0  0  0  0  0  0  0
   -5.6619    6.5028    6.7117 C   0  0  0  0  0  0  0  0  0  0  0  0
   -5.0945    7.6033    7.6090 C   0  0  0  0  0  0  0  0  0  0  0  0
   -5.4762    9.0156    7.2185 C   0  0  0  0  0  0  0  0  0  0  0  0
   -6.1651    9.6906    7.9824 O   0  0  0  0  0  0  0  0  0  0  0  0
   -4.8807    9.6783    5.7022 S   0  0  0  0  0  0  0  0  0  0  0  0
   -5.9480   11.0843    5.2866 C   0  0  0  0  0  0  0  0  0  0  0  0
   -7.4770   10.9189    5.2675 C   0  0  0  0  0  0  0  0  0  0  0  0
   -8.0635   10.5372    6.5365 N   0  0  0  0  0  0  0  0  0  0  0  0
   -8.6993   11.4219    7.3719 C   0  0  0  0  0  0  0  0  0  0  0  0
   -8.9839   10.8853    8.7581 C   0  0  0  0  0  0  0  0  0  0  0  0
   -9.0374   12.5502    7.0309 O   0  0  0  0  0  0  0  0  0  0  0  0
    0.6141    0.7526   -0.5621 H   0  0  0  0  0  0  0  0  0  0  0  0
    0.6582   -0.9909   -0.7440 H   0  0  0  0  0  0  0  0  0  0  0  0
    2.1029   -0.1187   -0.1688 H   0  0  0  0  0  0  0  0  0  0  0  0
   -0.5260   -0.4368    1.3610 H   0  0  0  0  0  0  0  0  0  0  0  0
    0.9471   -1.2955    1.7189 H   0  0  0  0  0  0  0  0  0  0  0  0
    0.7829    0.6326    3.2278 H   0  0  0  0  0  0  0  0  0  0  0  0
    2.1578    0.8428    2.1840 H   0  0  0  0  0  0  0  0  0  0  0  0
    0.9198    2.9623    2.2930 H   0  0  0  0  0  0  0  0  0  0  0  0
    0.8635    2.3830    0.6782 H   0  0  0  0  0  0  0  0  0  0  0  0
   -1.3996    3.0747    1.2747 H   0  0  0  0  0  0  0  0  0  0  0  0
   -1.4421    1.3759    1.0500 H   0  0  0  0  0  0  0  0  0  0  0  0
   -2.6180    1.8611    3.1373 H   0  0  0  0  0  0  0  0  0  0  0  0
   -1.2157    0.9643    3.5460 H   0  0  0  0  0  0  0  0  0  0  0  0
   -1.3203    2.8760    5.0699 H   0  0  0  0  0  0  0  0  0  0  0  0
    0.0737    3.0821    4.1024 H   0  0  0  0  0  0  0  0  0  0  0  0
   -1.1200    5.2193    4.1090 H   0  0  0  0  0  0  0  0  0  0  0  0
   -1.1618    4.6289    2.5043 H   0  0  0  0  0  0  0  0  0  0  0  0
   -3.4385    5.3221    3.0749 H   0  0  0  0  0  0  0  0  0  0  0  0
   -3.4768    3.6322    2.8386 H   0  0  0  0  0  0  0  0  0  0  0  0
   -4.6532    4.0651    4.9353 H   0  0  0  0  0  0  0  0  0  0  0  0
   -3.2525    3.1856    5.3389 H   0  0  0  0  0  0  0  0  0  0  0  0
   -3.3828    5.0978    6.8730 H   0  0  0  0  0  0  0  0  0  0  0  0
   -1.9739    5.3054    5.9126 H   0  0  0  0  0  0  0  0  0  0  0  0
   -3.1596    7.4115    5.9118 H   0  0  0  0  0  0  0  0  0  0  0  0
   -3.2037    6.8414    4.3065 H   0  0  0  0  0  0  0  0  0  0  0  0
   -5.5304    7.4397    4.7566 H   0  0  0  0  0  0  0  0  0  0  0  0
   -5.5184    5.7625    4.6868 H   0  0  0  0  0  0  0  0  0  0  0  0
   -6.7552    6.5261    6.6936 H   0  0  0  0  0  0  0  0  0  0  0  0
   -5.4057    5.5266    7.1485 H   0  0  0  0  0  0  0  0  0  0  0  0
   -5.4830    7.4266    8.6198 H   0  0  0  0  0  0  0  0  0  0  0  0
   -4.0078    7.5487    7.7272 H   0  0  0  0  0  0  0  0  0  0  0  0
   -5.6445   11.9066    5.9354 H   0  0  0  0  0  0  0  0  0  0  0  0
   -5.6550   11.3674    4.2641 H   0  0  0  0  0  0  0  0  0  0  0  0
   -7.9074   11.8780    4.9557 H   0  0  0  0  0  0  0  0  0  0  0  0
   -7.7816   10.1705    4.5288 H   0  0  0  0  0  0  0  0  0  0  0  0
   -7.6514    9.7421    7.0078 H   0  0  0  0  0  0  0  0  0  0  0  0
   -8.5882   11.5858    9.4994 H   0  0  0  0  0  0  0  0  0  0  0  0
  -10.0640   10.7855    8.8858 H   0  0  0  0  0  0  0  0  0  0  0  0
   -8.5290    9.9073    8.9437 H   0  0  0  0  0  0  0  0  0  0  0  0
  1  2  1  0  0  0  0
  1 25  1  0  0  0  0
  1 26  1  0  0  0  0
  1 27  1  0  0  0  0
  2  3  1  0  0  0  0
  2 28  1  0  0  0  0
  2 29  1  0  0  0  0
  3  4  1  0  0  0  0
  3 30  1  0  0  0  0
  3 31  1  0  0  0  0
  4  5  1  0  0  0  0
  4 32  1  0  0  0  0
  4 33  1  0  0  0  0
  5  6  1  0  0  0  0
  5 34  1  0  0  0  0
  5 35  1  0  0  0  0
  6  7  1  0  0  0  0
  6 36  1  0  0  0  0
  6 37  1  0  0  0  0
  7  8  1  0  0  0  0
  7 38  1  0  0  0  0
  7 39  1  0  0  0  0
  8  9  1  0  0  0  0
  8 40  1  0  0  0  0
  8 41  1  0  0  0  0
  9 10  1  0  0  0  0
  9 42  1  0  0  0  0
  9 43  1  0  0  0  0
 10 11  1  0  0  0  0
 10 44  1  0  0  0  0
 10 45  1  0  0  0  0
 11 12  1  0  0  0  0
 11 46  1  0  0  0  0
 11 47  1  0  0  0  0
 12 13  1  0  0  0  0
 12 48  1  0  0  0  0
 12 49  1  0  0  0  0
 13 14  1  0  0  0  0
 13 50  1  0  0  0  0
 13 51  1  0  0  0  0
 14 15  1  0  0  0  0
 14 52  1  0  0  0  0
 14 53  1  0  0  0  0
 15 16  1  0  0  0  0
 15 54  1  0  0  0  0
 15 55  1  0  0  0  0
 16 17  2  0  0  0  0
 16 18  1  0  0  0  0
 18 19  1  0  0  0  0
 19 20  1  0  0  0  0
 19 56  1  0  0  0  0
 19 57  1  0  0  0  0
 20 21  1  0  0  0  0
 20 58  1  0  0  0  0
 20 59  1  0  0  0  0
 21 22  1  0  0  0  0
 21 60  1  0  0  0  0
 22 23  1  0  0  0  0
 22 24  2  0  0  0  0
 23 61  1  0  0  0  0
 23 62  1  0  0  0  0
 23 63  1  0  0  0  0
M  END
>  <DRUGBANK_ID>
DB02990

>  <SECONDARY_ACCESSION_NUMBERS>
EXPT03058

>  <COMMON_NAME>
S-(2-Acetamidoethyl) hexadecanethioate

>  <SYNONYMS>
C16-fatty-acyl-substrate-mimic; S-palmitoyl-N-acetylcysteamine

$$$$
