
 OpenBabel10282417123D

 55 59  0  0  0  0  0  0  0  0999 V2000
    2.3742    0.9216    0.0136 F   0  0  0  0  0  0  0  0  0  0  0  0
    1.2168    0.2501    0.0008 C   0  0  0  0  0  0  0  0  0  0  0  0
    1.2381   -1.1406   -0.0071 C   0  0  0  0  0  0  0  0  0  0  0  0
    0.0373   -1.8443   -0.0347 C   0  0  0  0  0  0  0  0  0  0  0  0
   -1.1878   -1.1573   -0.0331 C   0  0  0  0  0  0  0  0  0  0  0  0
   -1.1708    0.2460   -0.0184 C   0  0  0  0  0  0  0  0  0  0  0  0
   -2.3232    0.9345   -0.0042 F   0  0  0  0  0  0  0  0  0  0  0  0
    0.0216    0.9540   -0.0042 C   0  0  0  0  0  0  0  0  0  0  0  0
   -2.4528   -1.8942   -0.0292 C   0  0  0  0  0  0  0  0  0  0  0  0
   -3.3398   -1.7134   -1.1160 C   0  0  0  0  0  0  0  0  0  0  0  0
   -4.5564   -2.3788   -1.1558 C   0  0  0  0  0  0  0  0  0  0  0  0
   -4.8389   -3.2281   -0.0869 C   0  0  0  0  0  0  0  0  0  0  0  0
   -3.9989   -3.4740    0.9836 C   0  0  0  0  0  0  0  0  0  0  0  0
   -2.8014   -2.7710    1.0340 C   0  0  0  0  0  0  0  0  0  0  0  0
   -1.9037   -3.0477    2.2074 C   0  0  0  0  0  0  0  0  0  0  0  0
   -2.7279   -3.3124    3.4528 C   0  0  0  0  0  0  0  0  0  0  0  0
   -3.7157   -4.4283    3.2302 C   0  0  0  0  0  0  0  0  0  0  0  0
   -3.9341   -5.2590    4.1197 O   0  0  0  0  0  0  0  0  0  0  0  0
   -4.3750   -4.3981    2.0094 N   0  0  0  0  0  0  0  0  0  0  0  0
   -5.4330   -5.3451    1.7579 C   0  0  0  0  0  0  0  0  0  0  0  0
   -6.6077   -5.3496    2.5423 C   0  0  0  0  0  0  0  0  0  0  0  0
   -6.9069   -4.1808    3.7869 Cl  0  0  0  0  0  0  0  0  0  0  0  0
   -7.6480   -6.2538    2.2778 C   0  0  0  0  0  0  0  0  0  0  0  0
   -7.5484   -7.1590    1.2247 C   0  0  0  0  0  0  0  0  0  0  0  0
   -6.3998   -7.1752    0.4404 C   0  0  0  0  0  0  0  0  0  0  0  0
   -5.3421   -6.2951    0.7132 C   0  0  0  0  0  0  0  0  0  0  0  0
   -3.9317   -6.4613   -0.2872 Cl  0  0  0  0  0  0  0  0  0  0  0  0
   -5.5472   -2.2059   -2.2983 C   0  0  0  0  0  0  0  0  0  0  0  0
   -6.8925   -1.6315   -1.8179 C   0  0  0  0  0  0  0  0  0  0  0  0
   -7.7543   -2.6482   -1.0664 C   0  0  0  0  0  0  0  0  0  0  0  0
   -7.9159   -3.9026   -1.8071 N   0  0  0  0  0  0  0  0  0  0  0  0
   -6.6745   -4.4999   -2.3029 C   0  0  0  0  0  0  0  0  0  0  0  0
   -5.7913   -3.5168   -3.0679 C   0  0  0  0  0  0  0  0  0  0  0  0
    2.1853   -1.6697    0.0101 H   0  0  0  0  0  0  0  0  0  0  0  0
    0.0540   -2.9332   -0.0414 H   0  0  0  0  0  0  0  0  0  0  0  0
    0.0133    2.0367    0.0087 H   0  0  0  0  0  0  0  0  0  0  0  0
   -3.0704   -1.0383   -1.9287 H   0  0  0  0  0  0  0  0  0  0  0  0
   -5.7736   -3.7454   -0.0573 H   0  0  0  0  0  0  0  0  0  0  0  0
   -1.2470   -2.1991    2.4153 H   0  0  0  0  0  0  0  0  0  0  0  0
   -1.2840   -3.9195    1.9636 H   0  0  0  0  0  0  0  0  0  0  0  0
   -3.2834   -2.4167    3.7559 H   0  0  0  0  0  0  0  0  0  0  0  0
   -2.0613   -3.6000    4.2711 H   0  0  0  0  0  0  0  0  0  0  0  0
   -8.5484   -6.2479    2.8897 H   0  0  0  0  0  0  0  0  0  0  0  0
   -8.3594   -7.8554    1.0222 H   0  0  0  0  0  0  0  0  0  0  0  0
   -6.3268   -7.8834   -0.3829 H   0  0  0  0  0  0  0  0  0  0  0  0
   -5.1162   -1.4865   -3.0096 H   0  0  0  0  0  0  0  0  0  0  0  0
   -6.7246   -0.7469   -1.1909 H   0  0  0  0  0  0  0  0  0  0  0  0
   -7.4629   -1.2932   -2.6927 H   0  0  0  0  0  0  0  0  0  0  0  0
   -7.3737   -2.8202   -0.0563 H   0  0  0  0  0  0  0  0  0  0  0  0
   -8.7402   -2.2155   -0.8720 H   0  0  0  0  0  0  0  0  0  0  0  0
   -8.4023   -4.5785   -1.2183 H   0  0  0  0  0  0  0  0  0  0  0  0
   -6.9078   -5.3599   -2.9384 H   0  0  0  0  0  0  0  0  0  0  0  0
   -6.1119   -4.9477   -1.4902 H   0  0  0  0  0  0  0  0  0  0  0  0
   -6.2896   -3.2873   -4.0184 H   0  0  0  0  0  0  0  0  0  0  0  0
   -4.8352   -3.9933   -3.3215 H   0  0  0  0  0  0  0  0  0  0  0  0
  1  2  1  0  0  0  0
  2  3  2  0  0  0  0
  2  8  1  0  0  0  0
  3  4  1  0  0  0  0
  3 34  1  0  0  0  0
  4  5  2  0  0  0  0
  4 35  1  0  0  0  0
  5  6  1  0  0  0  0
  5  9  1  0  0  0  0
  6  7  1  0  0  0  0
  6  8  2  0  0  0  0
  8 36  1  0  0  0  0
  9 10  2  0  0  0  0
  9 14  1  0  0  0  0
 10 11  1  0  0  0  0
 10 37  1  0  0  0  0
 11 12  2  0  0  0  0
 11 28  1  0  0  0  0
 12 13  1  0  0  0  0
 12 38  1  0  0  0  0
 13 14  2  0  0  0  0
 13 19  1  0  0  0  0
 14 15  1  0  0  0  0
 15 16  1  0  0  0  0
 15 39  1  0  0  0  0
 15 40  1  0  0  0  0
 16 17  1  0  0  0  0
 16 41  1  0  0  0  0
 16 42  1  0  0  0  0
 17 18  2  0  0  0  0
 17 19  1  0  0  0  0
 19 20  1  0  0  0  0
 20 21  2  0  0  0  0
 20 26  1  0  0  0  0
 21 22  1  0  0  0  0
 21 23  1  0  0  0  0
 23 24  2  0  0  0  0
 23 43  1  0  0  0  0
 24 25  1  0  0  0  0
 24 44  1  0  0  0  0
 25 26  2  0  0  0  0
 25 45  1  0  0  0  0
 26 27  1  0  0  0  0
 28 29  1  0  0  0  0
 28 33  1  0  0  0  0
 28 46  1  0  0  0  0
 29 30  1  0  0  0  0
 29 47  1  0  0  0  0
 29 48  1  0  0  0  0
 30 31  1  0  0  0  0
 30 49  1  0  0  0  0
 30 50  1  0  0  0  0
 31 32  1  0  0  0  0
 31 51  1  0  0  0  0
 32 33  1  0  0  0  0
 32 52  1  0  0  0  0
 32 53  1  0  0  0  0
 33 54  1  0  0  0  0
 33 55  1  0  0  0  0
M  END
>  <DRUGBANK_ID>
DB01948

>  <SECONDARY_ACCESSION_NUMBERS>
EXPT00157

>  <COMMON_NAME>
1-(2,6-Dichlorophenyl)-5-(2,4-Difluorophenyl)-7-Piperidin-4-Yl-3,4-Dihydroquinolin-2(1h)-One

$$$$
