
 OpenBabel10282417153D

 65 67  0  0  0  0  0  0  0  0999 V2000
    1.2068    0.6182    0.0291 C   0  0  0  0  0  0  0  0  0  0  0  0
    0.6009    0.3511    1.4116 C   0  0  0  0  0  0  0  0  0  0  0  0
    1.0354    1.5860    2.2033 C   0  0  0  0  0  0  0  0  0  0  0  0
   -0.9318    0.1408    1.3524 C   0  0  0  0  0  0  0  0  0  0  0  0
   -1.4227   -1.1765    0.9666 O   0  0  0  0  0  0  0  0  0  0  0  0
   -1.1057   -1.6582   -0.2719 C   0  0  0  0  0  0  0  0  0  0  0  0
    0.2057   -1.9934   -0.5845 C   0  0  0  0  0  0  0  0  0  0  0  0
    0.5822   -2.1353   -1.9039 C   0  0  0  0  0  0  0  0  0  0  0  0
   -0.3765   -2.4462   -2.8407 C   0  0  0  0  0  0  0  0  0  0  0  0
    0.1365   -2.6531   -4.2204 C   0  0  0  0  0  0  0  0  0  0  0  0
   -0.3995   -3.8358   -4.8395 N   0  0  0  0  0  0  0  0  0  0  0  0
   -1.3042   -4.1534   -5.7935 C   0  0  0  0  0  0  0  0  0  0  0  0
   -1.4834   -5.3478   -5.9766 O   0  0  0  0  0  0  0  0  0  0  0  0
   -1.9858   -3.1844   -6.4948 N   0  0  0  0  0  0  0  0  0  0  0  0
   -1.7904   -1.7755   -6.3289 C   0  0  0  0  0  0  0  0  0  0  0  0
   -1.2994   -1.0468   -7.5331 C   0  0  0  0  0  0  0  0  0  0  0  0
   -1.5978    0.3132   -7.6447 C   0  0  0  0  0  0  0  0  0  0  0  0
   -1.1849    1.0023   -8.7693 C   0  0  0  0  0  0  0  0  0  0  0  0
   -0.4417    0.3395   -9.7429 C   0  0  0  0  0  0  0  0  0  0  0  0
   -0.0980    0.9969  -10.8553 F   0  0  0  0  0  0  0  0  0  0  0  0
   -0.0702   -0.9930   -9.6037 C   0  0  0  0  0  0  0  0  0  0  0  0
   -0.5076   -1.6972   -8.4966 C   0  0  0  0  0  0  0  0  0  0  0  0
   -3.0745   -3.5821   -7.4559 C   0  0  0  0  0  0  0  0  0  0  0  0
   -3.7722   -2.4164   -8.2215 C   0  0  0  0  0  0  0  0  0  0  0  0
   -4.5779   -1.4866   -7.3027 C   0  0  0  0  0  0  0  0  0  0  0  0
   -5.5196   -2.2215   -6.4582 N   0  0  0  0  0  0  0  0  0  0  0  0
   -6.0558   -1.3187   -5.4362 C   0  0  0  0  0  0  0  0  0  0  0  0
   -4.9282   -3.4016   -5.7970 C   0  0  0  0  0  0  0  0  0  0  0  0
   -4.2182   -4.3345   -6.7722 C   0  0  0  0  0  0  0  0  0  0  0  0
   -1.7329   -2.4109   -2.4759 C   0  0  0  0  0  0  0  0  0  0  0  0
   -2.0989   -1.9255   -1.2102 C   0  0  0  0  0  0  0  0  0  0  0  0
    1.0320    1.6388   -0.3119 H   0  0  0  0  0  0  0  0  0  0  0  0
    0.7474    0.0749   -0.7726 H   0  0  0  0  0  0  0  0  0  0  0  0
    2.2765    0.3858    0.0296 H   0  0  0  0  0  0  0  0  0  0  0  0
    1.0389   -0.5393    1.8859 H   0  0  0  0  0  0  0  0  0  0  0  0
    0.7048    2.4965    1.6896 H   0  0  0  0  0  0  0  0  0  0  0  0
    0.6595    1.6072    3.2258 H   0  0  0  0  0  0  0  0  0  0  0  0
    2.1337    1.6194    2.2381 H   0  0  0  0  0  0  0  0  0  0  0  0
   -1.3198    0.2688    2.3734 H   0  0  0  0  0  0  0  0  0  0  0  0
   -1.4143    0.9207    0.7513 H   0  0  0  0  0  0  0  0  0  0  0  0
    0.9948   -1.9341    0.1506 H   0  0  0  0  0  0  0  0  0  0  0  0
    1.6119   -1.9537   -2.2101 H   0  0  0  0  0  0  0  0  0  0  0  0
    0.0068   -1.6703   -4.6213 H   0  0  0  0  0  0  0  0  0  0  0  0
    1.2244   -2.7229   -4.3194 H   0  0  0  0  0  0  0  0  0  0  0  0
   -0.0579   -4.6874   -4.4079 H   0  0  0  0  0  0  0  0  0  0  0  0
   -2.6101   -1.4057   -5.7184 H   0  0  0  0  0  0  0  0  0  0  0  0
   -1.0184   -1.4491   -5.7129 H   0  0  0  0  0  0  0  0  0  0  0  0
   -2.1808    0.8098   -6.8716 H   0  0  0  0  0  0  0  0  0  0  0  0
   -1.4513    2.0443   -8.8950 H   0  0  0  0  0  0  0  0  0  0  0  0
    0.5300   -1.4825  -10.3619 H   0  0  0  0  0  0  0  0  0  0  0  0
   -0.2900   -2.7626   -8.4123 H   0  0  0  0  0  0  0  0  0  0  0  0
   -2.5978   -4.2484   -8.1884 H   0  0  0  0  0  0  0  0  0  0  0  0
   -4.4574   -2.8301   -8.9690 H   0  0  0  0  0  0  0  0  0  0  0  0
   -3.0751   -1.8440   -8.8315 H   0  0  0  0  0  0  0  0  0  0  0  0
   -5.0744   -0.7240   -7.9121 H   0  0  0  0  0  0  0  0  0  0  0  0
   -3.9642   -0.8588   -6.6645 H   0  0  0  0  0  0  0  0  0  0  0  0
   -6.8822   -1.8009   -4.9086 H   0  0  0  0  0  0  0  0  0  0  0  0
   -5.2923   -1.0304   -4.7007 H   0  0  0  0  0  0  0  0  0  0  0  0
   -6.4429   -0.4021   -5.8935 H   0  0  0  0  0  0  0  0  0  0  0  0
   -4.2191   -3.1037   -5.0135 H   0  0  0  0  0  0  0  0  0  0  0  0
   -5.7242   -3.9674   -5.3025 H   0  0  0  0  0  0  0  0  0  0  0  0
   -4.9281   -4.6863   -7.5338 H   0  0  0  0  0  0  0  0  0  0  0  0
   -3.8697   -5.2304   -6.2513 H   0  0  0  0  0  0  0  0  0  0  0  0
   -2.5046   -2.7223   -3.1771 H   0  0  0  0  0  0  0  0  0  0  0  0
   -3.1472   -1.7852   -0.9597 H   0  0  0  0  0  0  0  0  0  0  0  0
  1  2  1  0  0  0  0
  1 32  1  0  0  0  0
  1 33  1  0  0  0  0
  1 34  1  0  0  0  0
  2  3  1  0  0  0  0
  2  4  1  0  0  0  0
  2 35  1  0  0  0  0
  3 36  1  0  0  0  0
  3 37  1  0  0  0  0
  3 38  1  0  0  0  0
  4  5  1  0  0  0  0
  4 39  1  0  0  0  0
  4 40  1  0  0  0  0
  5  6  1  0  0  0  0
  6  7  2  0  0  0  0
  6 31  1  0  0  0  0
  7  8  1  0  0  0  0
  7 41  1  0  0  0  0
  8  9  2  0  0  0  0
  8 42  1  0  0  0  0
  9 10  1  0  0  0  0
  9 30  1  0  0  0  0
 10 11  1  0  0  0  0
 10 43  1  0  0  0  0
 10 44  1  0  0  0  0
 11 12  1  0  0  0  0
 11 45  1  0  0  0  0
 12 13  2  0  0  0  0
 12 14  1  0  0  0  0
 14 15  1  0  0  0  0
 14 23  1  0  0  0  0
 15 16  1  0  0  0  0
 15 46  1  0  0  0  0
 15 47  1  0  0  0  0
 16 17  2  0  0  0  0
 16 22  1  0  0  0  0
 17 18  1  0  0  0  0
 17 48  1  0  0  0  0
 18 19  2  0  0  0  0
 18 49  1  0  0  0  0
 19 20  1  0  0  0  0
 19 21  1  0  0  0  0
 21 22  2  0  0  0  0
 21 50  1  0  0  0  0
 22 51  1  0  0  0  0
 23 24  1  0  0  0  0
 23 29  1  0  0  0  0
 23 52  1  0  0  0  0
 24 25  1  0  0  0  0
 24 53  1  0  0  0  0
 24 54  1  0  0  0  0
 25 26  1  0  0  0  0
 25 55  1  0  0  0  0
 25 56  1  0  0  0  0
 26 27  1  0  0  0  0
 26 28  1  0  0  0  0
 27 57  1  0  0  0  0
 27 58  1  0  0  0  0
 27 59  1  0  0  0  0
 28 29  1  0  0  0  0
 28 60  1  0  0  0  0
 28 61  1  0  0  0  0
 29 62  1  0  0  0  0
 29 63  1  0  0  0  0
 30 31  2  0  0  0  0
 30 64  1  0  0  0  0
 31 65  1  0  0  0  0
M  END
>  <DRUGBANK_ID>
DB05316

>  <COMMON_NAME>
Pimavanserin

>  <CAS_NUMBER>
706779-91-1

>  <UNII>
JZ963P0DIK

>  <SYNONYMS>
Pimavanserin

$$$$
