
 OpenBabel10282417173D

 41 43  0  0  0  0  0  0  0  0999 V2000
   -0.6918    1.1108   -0.0049 C   0  0  0  0  0  0  0  0  0  0  0  0
    0.6884    1.2324   -0.0042 C   0  0  0  0  0  0  0  0  0  0  0  0
    1.4490    0.0719   -0.0187 C   0  0  0  0  0  0  0  0  0  0  0  0
    0.8049   -1.1584   -0.0180 C   0  0  0  0  0  0  0  0  0  0  0  0
   -0.5868   -1.1980    0.0317 C   0  0  0  0  0  0  0  0  0  0  0  0
   -1.3450   -0.0733    0.0104 N   0  0  0  0  0  0  0  0  0  0  0  0
   -1.3037   -2.4771    0.0940 C   0  0  0  0  0  0  0  0  0  0  0  0
   -2.1819   -2.8138   -0.9539 C   0  0  0  0  0  0  0  0  0  0  0  0
   -2.8527   -4.0400   -1.0251 C   0  0  0  0  0  0  0  0  0  0  0  0
   -2.6327   -4.9642    0.0062 C   0  0  0  0  0  0  0  0  0  0  0  0
   -1.7729   -4.6487    1.0731 C   0  0  0  0  0  0  0  0  0  0  0  0
   -1.1221   -3.4119    1.1211 C   0  0  0  0  0  0  0  0  0  0  0  0
   -0.1089   -3.0918    2.4906 Cl  0  0  0  0  0  0  0  0  0  0  0  0
   -3.7330   -4.3624   -2.0996 N   0  0  0  0  0  0  0  0  0  0  0  0
   -4.0327   -3.5309   -3.1799 C   0  0  0  0  0  0  0  0  0  0  0  0
   -4.9986   -4.0077   -4.2055 C   0  0  0  0  0  0  0  0  0  0  0  0
   -3.5450   -2.4261   -3.4122 O   0  0  0  0  0  0  0  0  0  0  0  0
   -4.6766   -3.7597   -5.5599 C   0  0  0  0  0  0  0  0  0  0  0  0
   -5.5442   -4.1355   -6.5958 C   0  0  0  0  0  0  0  0  0  0  0  0
   -6.7605   -4.7387   -6.2774 C   0  0  0  0  0  0  0  0  0  0  0  0
   -7.1081   -4.9556   -4.9366 C   0  0  0  0  0  0  0  0  0  0  0  0
   -6.2362   -4.5787   -3.9026 C   0  0  0  0  0  0  0  0  0  0  0  0
   -6.7884   -4.7948   -2.2815 Cl  0  0  0  0  0  0  0  0  0  0  0  0
   -7.8368   -5.3345   -7.5728 S   0  0  0  0  0  0  0  0  0  0  0  0
   -8.3004   -3.9198   -8.5365 C   0  0  0  0  0  0  0  0  0  0  0  0
   -7.0249   -6.2034   -8.4071 O   0  0  0  0  0  0  0  0  0  0  0  0
   -9.0371   -5.8325   -6.9336 O   0  0  0  0  0  0  0  0  0  0  0  0
   -1.3273    1.9922   -0.0084 H   0  0  0  0  0  0  0  0  0  0  0  0
    1.1608    2.2076    0.0080 H   0  0  0  0  0  0  0  0  0  0  0  0
    2.5333    0.1157   -0.0193 H   0  0  0  0  0  0  0  0  0  0  0  0
    1.3802   -2.0782   -0.0340 H   0  0  0  0  0  0  0  0  0  0  0  0
   -2.3067   -2.0629   -1.7260 H   0  0  0  0  0  0  0  0  0  0  0  0
   -3.1158   -5.9386    0.0155 H   0  0  0  0  0  0  0  0  0  0  0  0
   -1.6062   -5.3681    1.8731 H   0  0  0  0  0  0  0  0  0  0  0  0
   -4.2025   -5.2601   -2.0440 H   0  0  0  0  0  0  0  0  0  0  0  0
   -3.7363   -3.2639   -5.8092 H   0  0  0  0  0  0  0  0  0  0  0  0
   -5.2489   -3.9700   -7.6305 H   0  0  0  0  0  0  0  0  0  0  0  0
   -8.0576   -5.4261   -4.6881 H   0  0  0  0  0  0  0  0  0  0  0  0
   -7.4139   -3.4736   -8.9887 H   0  0  0  0  0  0  0  0  0  0  0  0
   -8.9730   -4.2616   -9.3299 H   0  0  0  0  0  0  0  0  0  0  0  0
   -8.8250   -3.2029   -7.9034 H   0  0  0  0  0  0  0  0  0  0  0  0
  1  2  1  0  0  0  0
  1  6  2  0  0  0  0
  1 28  1  0  0  0  0
  2  3  2  0  0  0  0
  2 29  1  0  0  0  0
  3  4  1  0  0  0  0
  3 30  1  0  0  0  0
  4  5  2  0  0  0  0
  4 31  1  0  0  0  0
  5  6  1  0  0  0  0
  5  7  1  0  0  0  0
  7  8  2  0  0  0  0
  7 12  1  0  0  0  0
  8  9  1  0  0  0  0
  8 32  1  0  0  0  0
  9 10  2  0  0  0  0
  9 14  1  0  0  0  0
 10 11  1  0  0  0  0
 10 33  1  0  0  0  0
 11 12  2  0  0  0  0
 11 34  1  0  0  0  0
 12 13  1  0  0  0  0
 14 15  1  0  0  0  0
 14 35  1  0  0  0  0
 15 16  1  0  0  0  0
 15 17  2  0  0  0  0
 16 18  1  0  0  0  0
 16 22  2  0  0  0  0
 18 19  2  0  0  0  0
 18 36  1  0  0  0  0
 19 20  1  0  0  0  0
 19 37  1  0  0  0  0
 20 21  2  0  0  0  0
 20 24  1  0  0  0  0
 21 22  1  0  0  0  0
 21 38  1  0  0  0  0
 22 23  1  0  0  0  0
 24 25  1  0  0  0  0
 24 26  2  0  0  0  0
 24 27  2  0  0  0  0
 25 39  1  0  0  0  0
 25 40  1  0  0  0  0
 25 41  1  0  0  0  0
M  END
>  <DRUGBANK_ID>
DB08828

>  <COMMON_NAME>
Vismodegib

>  <CAS_NUMBER>
879085-55-9

>  <UNII>
25X868M3DS

>  <SYNONYMS>
2-chloro-N-(4-chloro-3-pyridin-2-yl)phenyl)-4-(methylsulfonyl)benzamide; Benzamide, 2-chloro-N-(4-chloro-3-(2-pyridinyl)phenyl)-4-(methylsulfonyl)-; Vismodegib; Vismod√©gib; Vismodegibum

$$$$
