PM4
 OpenBabel10282417173D

 61 60  0  0  0  0  0  0  0  0999 V2000
    1.9802   -1.0323   -1.8248 O   0  0  0  0  0  0  0  0  0  0  0  0
    0.6830   -0.0990   -1.5500 P   0  0  2  0  0  0  0  0  0  0  0  0
    1.0690    1.2462   -1.0322 O   0  0  0  0  0  0  0  0  0  0  0  0
   -0.1078   -0.9555   -0.4418 O   0  0  0  0  0  0  0  0  0  0  0  0
   -0.4410   -0.5488    0.8757 C   0  0  0  0  0  0  0  0  0  0  0  0
    0.5071   -1.3690    1.7113 C   0  0  0  0  0  0  0  0  0  0  0  0
    1.9003   -1.0058    1.1911 C   0  0  0  0  0  0  0  0  0  0  0  0
    0.4121   -0.8999    3.1475 C   0  0  0  0  0  0  0  0  0  0  0  0
    0.2240   -2.9028    1.5537 C   0  0  1  0  0  0  0  0  0  0  0  0
   -0.9106   -3.3687    2.2951 O   0  0  0  0  0  0  0  0  0  0  0  0
   -0.0746   -3.4421    0.1467 C   0  0  0  0  0  0  0  0  0  0  0  0
    0.8071   -4.0509   -0.4765 O   0  0  0  0  0  0  0  0  0  0  0  0
   -1.3093   -3.2594   -0.4484 N   0  0  0  0  0  0  0  0  0  0  0  0
   -2.4486   -2.3587   -0.3131 C   0  0  0  0  0  0  0  0  0  0  0  0
   -2.5115   -1.0849   -1.2104 C   0  0  0  0  0  0  0  0  0  0  0  0
   -2.5328   -1.3053   -2.6960 C   0  0  0  0  0  0  0  0  0  0  0  0
   -3.4502   -0.7967   -3.3495 O   0  0  0  0  0  0  0  0  0  0  0  0
   -1.5169   -1.8852   -3.3977 N   0  0  0  0  0  0  0  0  0  0  0  0
   -0.3167   -2.6859   -3.1382 C   0  0  0  0  0  0  0  0  0  0  0  0
   -0.3711   -4.2250   -3.1461 C   0  0  0  0  0  0  0  0  0  0  0  0
   -0.7166   -5.0814   -4.6388 S   0  0  0  0  0  0  0  0  0  0  0  0
   -2.0353   -4.1571   -5.3244 C   0  0  0  0  0  0  0  0  0  0  0  0
   -2.8180   -3.5341   -4.6550 O   0  0  0  0  0  0  0  0  0  0  0  0
   -2.1978   -4.2772   -6.8121 C   0  0  0  0  0  0  0  0  0  0  0  0
   -1.0527   -3.6907   -7.6391 C   0  0  0  0  0  0  0  0  0  0  0  0
    0.3101   -4.3682   -7.4305 C   0  0  0  0  0  0  0  0  0  0  0  0
    0.2273   -5.8986   -7.5507 C   0  0  0  0  0  0  0  0  0  0  0  0
   -0.1367   -6.2912   -8.9637 C   0  0  0  0  0  0  0  0  0  0  0  0
   -0.0940   -0.3246   -2.7008 H   0  0  0  0  0  0  0  0  0  0  0  0
    1.1042   -3.4542    1.9164 H   0  0  0  0  0  0  0  0  0  0  0  0
    1.9512   -1.7905   -2.4365 H   0  0  0  0  0  0  0  0  0  0  0  0
   -0.4411    0.5381    0.9531 H   0  0  0  0  0  0  0  0  0  0  0  0
   -1.4548   -0.7967    1.2148 H   0  0  0  0  0  0  0  0  0  0  0  0
    1.9882    0.0868    1.1029 H   0  0  0  0  0  0  0  0  0  0  0  0
    2.7268   -1.3931    1.7737 H   0  0  0  0  0  0  0  0  0  0  0  0
    2.0415   -1.4540    0.2186 H   0  0  0  0  0  0  0  0  0  0  0  0
   -0.5168   -1.2124    3.6285 H   0  0  0  0  0  0  0  0  0  0  0  0
    1.2644   -1.2912    3.7063 H   0  0  0  0  0  0  0  0  0  0  0  0
    0.4438    0.1942    3.1780 H   0  0  0  0  0  0  0  0  0  0  0  0
   -0.7649   -3.1820    3.2306 H   0  0  0  0  0  0  0  0  0  0  0  0
   -1.3961   -3.7029   -1.3194 H   0  0  0  0  0  0  0  0  0  0  0  0
   -3.3171   -2.9577   -0.5927 H   0  0  0  0  0  0  0  0  0  0  0  0
   -2.5648   -2.1638    0.7469 H   0  0  0  0  0  0  0  0  0  0  0  0
   -3.4067   -0.5288   -0.9029 H   0  0  0  0  0  0  0  0  0  0  0  0
   -1.8094   -0.2570   -1.1192 H   0  0  0  0  0  0  0  0  0  0  0  0
   -1.8571   -1.9607   -4.3508 H   0  0  0  0  0  0  0  0  0  0  0  0
    0.4614   -2.3317   -3.8248 H   0  0  0  0  0  0  0  0  0  0  0  0
    0.0241   -2.4163   -2.1588 H   0  0  0  0  0  0  0  0  0  0  0  0
    0.5925   -4.5868   -2.7634 H   0  0  0  0  0  0  0  0  0  0  0  0
   -1.1334   -4.6872   -2.5317 H   0  0  0  0  0  0  0  0  0  0  0  0
   -2.3901   -5.3315   -7.0236 H   0  0  0  0  0  0  0  0  0  0  0  0
   -3.1222   -3.7469   -7.0662 H   0  0  0  0  0  0  0  0  0  0  0  0
   -1.3315   -3.7827   -8.6948 H   0  0  0  0  0  0  0  0  0  0  0  0
   -0.9541   -2.6152   -7.4491 H   0  0  0  0  0  0  0  0  0  0  0  0
    1.0384   -3.9799   -8.1491 H   0  0  0  0  0  0  0  0  0  0  0  0
    0.7317   -4.0639   -6.4663 H   0  0  0  0  0  0  0  0  0  0  0  0
    1.1753   -6.3503   -7.2422 H   0  0  0  0  0  0  0  0  0  0  0  0
   -0.5273   -6.3456   -6.8966 H   0  0  0  0  0  0  0  0  0  0  0  0
    0.6199   -5.9111   -9.6518 H   0  0  0  0  0  0  0  0  0  0  0  0
   -0.2067   -7.3763   -9.0519 H   0  0  0  0  0  0  0  0  0  0  0  0
   -1.1092   -5.8783   -9.2506 H   0  0  0  0  0  0  0  0  0  0  0  0
  1 31  1  0  0  0  0
  2  4  1  0  0  0  0
  2 29  1  6  0  0  0
  2  3  2  0  0  0  0
  2  1  1  0  0  0  0
  4  5  1  0  0  0  0
  5  6  1  0  0  0  0
  5 32  1  0  0  0  0
  5 33  1  0  0  0  0
  6  7  1  0  0  0  0
  6  8  1  0  0  0  0
  6  9  1  0  0  0  0
  7 34  1  0  0  0  0
  7 35  1  0  0  0  0
  7 36  1  0  0  0  0
  8 37  1  0  0  0  0
  8 38  1  0  0  0  0
  8 39  1  0  0  0  0
  9 10  1  0  0  0  0
  9 11  1  0  0  0  0
  9 30  1  1  0  0  0
 10 40  1  0  0  0  0
 11 12  2  0  0  0  0
 11 13  1  0  0  0  0
 13 14  1  0  0  0  0
 13 41  1  0  0  0  0
 14 15  1  0  0  0  0
 14 42  1  0  0  0  0
 14 43  1  0  0  0  0
 15 16  1  0  0  0  0
 15 44  1  0  0  0  0
 15 45  1  0  0  0  0
 16 17  2  0  0  0  0
 16 18  1  0  0  0  0
 18 19  1  0  0  0  0
 18 46  1  0  0  0  0
 19 20  1  0  0  0  0
 19 47  1  0  0  0  0
 19 48  1  0  0  0  0
 20 21  1  0  0  0  0
 20 49  1  0  0  0  0
 20 50  1  0  0  0  0
 21 22  1  0  0  0  0
 22 23  2  0  0  0  0
 22 24  1  0  0  0  0
 24 25  1  0  0  0  0
 24 51  1  0  0  0  0
 24 52  1  0  0  0  0
 25 26  1  0  0  0  0
 25 53  1  0  0  0  0
 25 54  1  0  0  0  0
 26 27  1  0  0  0  0
 26 55  1  0  0  0  0
 26 56  1  0  0  0  0
 27 28  1  0  0  0  0
 27 57  1  0  0  0  0
 27 58  1  0  0  0  0
 28 59  1  0  0  0  0
 28 60  1  0  0  0  0
 28 61  1  0  0  0  0
M  END
>  <DRUGBANK_ID>
DB08404

>  <COMMON_NAME>
S-(2-{[N-(2-HYDROXY-4-{[HYDROXY(OXIDO)PHOSPHINO]OXY}-3,3-DIMETHYLBUTANOYL)-BETA-ALANYL]AMINO}ETHYL) HEXANETHIOATE

$$$$
