
 OpenBabel10282417123D

 60 62  0  0  0  0  0  0  0  0999 V2000
    1.0958    0.0282   -0.0055 P   0  0  1  0  0  0  0  0  0  0  0  0
   -0.1472   -0.6524   -2.5498 P   0  0  2  0  0  0  0  0  0  0  0  0
   -3.3752   -0.7661   -1.5608 O   0  0  0  0  0  0  0  0  0  0  0  0
    3.7110   -0.5451    2.2486 O   0  0  0  0  0  0  0  0  0  0  0  0
   -4.1174   -0.0649    1.4180 O   0  0  0  0  0  0  0  0  0  0  0  0
   -3.3785   -2.6534    1.5422 O   0  0  0  0  0  0  0  0  0  0  0  0
    1.1966   -0.9385    1.3294 O   0  0  0  0  0  0  0  0  0  0  0  0
    1.8245    3.3680    1.9399 O   0  0  0  0  0  0  0  0  0  0  0  0
    3.6285    2.4008   -0.3045 O   0  0  0  0  0  0  0  0  0  0  0  0
   -0.5500    0.8921   -2.4865 O   0  0  0  0  0  0  0  0  0  0  0  0
    2.6321    1.4742    3.8568 O   0  0  0  0  0  0  0  0  0  0  0  0
    0.8292   -0.9312   -1.2878 O   0  0  0  0  0  0  0  0  0  0  0  0
    5.8859   -1.3081   -0.1756 O   0  0  0  0  0  0  0  0  0  0  0  0
   -0.5606   -2.9148   -0.8228 O   0  0  0  0  0  0  0  0  0  0  0  0
   -0.6342    0.0282   -0.0055 O   0  0  0  0  0  0  0  0  0  0  0  0
    0.8893   -1.1060   -3.6740 O   0  0  0  0  0  0  0  0  0  0  0  0
    2.6441    0.0282   -0.0055 O   0  0  0  0  0  0  0  0  0  0  0  0
   -1.3858   -1.4199   -2.7813 O   0  0  0  0  0  0  0  0  0  0  0  0
   -1.0417   -5.4002   -4.5050 O   0  0  0  0  0  0  0  0  0  0  0  0
   -2.7495   -3.2371   -1.5912 N   0  0  0  0  0  0  0  0  0  0  0  0
   -0.8443   -4.2150   -2.5924 N   0  0  0  0  0  0  0  0  0  0  0  0
   -2.8673   -0.3068    0.7479 C   0  0  1  0  0  0  0  0  0  0  0  0
   -2.7681   -1.8327    0.5489 C   0  0  2  0  0  0  0  0  0  0  0  0
   -2.8584    0.3312   -0.7432 C   0  0  1  0  0  0  0  0  0  0  0  0
   -3.3738   -2.0693   -0.8372 C   0  0  1  0  0  0  0  0  0  0  0  0
    2.1239    2.0095    1.6095 C   0  0  1  0  0  0  0  0  0  0  0  0
    3.5932    1.7879    1.0129 C   0  0  1  0  0  0  0  0  0  0  0  0
    1.8399    1.0316    2.7520 C   0  0  1  0  0  0  0  0  0  0  0  0
    4.3095    0.2092    1.1495 C   0  0  1  0  0  0  0  0  0  0  0  0
    2.1837   -0.4332    2.3598 C   0  0  2  0  0  0  0  0  0  0  0  0
   -1.6093    1.3264   -1.5266 C   0  0  0  0  0  0  0  0  0  0  0  0
    5.5318    0.0581    0.1686 C   0  0  0  0  0  0  0  0  0  0  0  0
   -1.3656   -3.4548   -1.5842 C   0  0  0  0  0  0  0  0  0  0  0  0
   -3.5357   -4.0702   -2.3832 C   0  0  0  0  0  0  0  0  0  0  0  0
   -3.0117   -4.8785   -3.3131 C   0  0  0  0  0  0  0  0  0  0  0  0
   -1.5556   -4.8583   -3.5659 C   0  0  0  0  0  0  0  0  0  0  0  0
    0.1490   -4.1734   -2.7332 H   0  0  0  0  0  0  0  0  0  0  0  0
   -4.8307   -0.3383    0.8223 H   0  0  0  0  0  0  0  0  0  0  0  0
   -4.2861   -2.3400    1.6710 H   0  0  0  0  0  0  0  0  0  0  0  0
    2.3704    3.6167    2.6989 H   0  0  0  0  0  0  0  0  0  0  0  0
    2.8784    2.0890   -0.8455 H   0  0  0  0  0  0  0  0  0  0  0  0
    3.5642    1.3382    3.5996 H   0  0  0  0  0  0  0  0  0  0  0  0
    5.3336   -1.9221    0.3434 H   0  0  0  0  0  0  0  0  0  0  0  0
   -0.7428   -0.9289   -0.2298 H   0  0  0  0  0  0  0  0  0  0  0  0
    1.1660   -2.0204   -3.4192 H   0  0  0  0  0  0  0  0  0  0  0  0
   -2.1179    0.0623    1.4598 H   0  0  0  0  0  0  0  0  0  0  0  0
   -1.7316   -2.1201    0.6361 H   0  0  0  0  0  0  0  0  0  0  0  0
   -3.6347    1.1064   -0.6511 H   0  0  0  0  0  0  0  0  0  0  0  0
   -4.4378   -2.3131   -0.7246 H   0  0  0  0  0  0  0  0  0  0  0  0
    1.3421    1.9340    0.8564 H   0  0  0  0  0  0  0  0  0  0  0  0
    4.2469    2.4183    1.6061 H   0  0  0  0  0  0  0  0  0  0  0  0
    0.7833    1.0828    3.0451 H   0  0  0  0  0  0  0  0  0  0  0  0
    4.0424   -0.6766    0.5553 H   0  0  0  0  0  0  0  0  0  0  0  0
    1.9863   -1.0838    3.2170 H   0  0  0  0  0  0  0  0  0  0  0  0
   -1.0313    1.8663   -0.7557 H   0  0  0  0  0  0  0  0  0  0  0  0
   -2.1174    2.1701   -2.0037 H   0  0  0  0  0  0  0  0  0  0  0  0
    5.2533    0.5047   -0.8100 H   0  0  0  0  0  0  0  0  0  0  0  0
    6.4125    0.5520    0.5460 H   0  0  0  0  0  0  0  0  0  0  0  0
   -4.6047   -4.0684   -2.1986 H   0  0  0  0  0  0  0  0  0  0  0  0
   -3.5799   -5.5491   -3.9422 H   0  0  0  0  0  0  0  0  0  0  0  0
  1 15  1  0  0  0  0
  1 17  2  6  0  0  0
  1 12  1  0  0  0  0
  1  7  1  0  0  0  0
  2 10  1  0  0  0  0
  2 12  1  0  0  0  0
  2 16  1  0  0  0  0
  2 18  2  1  0  0  0
  3 24  1  0  0  0  0
  3 25  1  0  0  0  0
  4 29  1  0  0  0  0
  4 30  1  0  0  0  0
  5 38  1  0  0  0  0
  6 39  1  0  0  0  0
  8 40  1  0  0  0  0
  9 41  1  0  0  0  0
 10 31  1  0  0  0  0
 11 42  1  0  0  0  0
 13 32  1  0  0  0  0
 13 43  1  0  0  0  0
 14 33  2  0  0  0  0
 15 44  1  0  0  0  0
 16 45  1  0  0  0  0
 19 36  2  0  0  0  0
 20 33  1  0  0  0  0
 20 34  1  0  0  0  0
 21 33  1  0  0  0  0
 21 36  1  0  0  0  0
 21 37  1  0  0  0  0
 22  5  1  0  0  0  0
 22 23  1  0  0  0  0
 22 24  1  0  0  0  0
 22 46  1  1  0  0  0
 23  6  1  0  0  0  0
 23 25  1  0  0  0  0
 23 47  1  6  0  0  0
 24 31  1  0  0  0  0
 24 48  1  1  0  0  0
 25 49  1  1  0  0  0
 25 20  1  0  0  0  0
 26  8  1  0  0  0  0
 26 27  1  0  0  0  0
 26 28  1  0  0  0  0
 26 50  1  6  0  0  0
 27  9  1  0  0  0  0
 27 29  1  0  0  0  0
 27 51  1  1  0  0  0
 28 11  1  0  0  0  0
 28 30  1  0  0  0  0
 28 52  1  1  0  0  0
 29 32  1  0  0  0  0
 29 53  1  6  0  0  0
 30  7  1  0  0  0  0
 30 54  1  1  0  0  0
 31 55  1  0  0  0  0
 31 56  1  0  0  0  0
 32 57  1  0  0  0  0
 32 58  1  0  0  0  0
 34 35  2  0  0  0  0
 34 59  1  0  0  0  0
 35 36  1  0  0  0  0
 35 60  1  0  0  0  0
M  END
>  <DRUGBANK_ID>
DB02421

>  <SECONDARY_ACCESSION_NUMBERS>
EXPT03175

>  <COMMON_NAME>
Uridine-5'-diphosphate-mannose

$$$$
