
 OpenBabel10282417183D

 45 49  0  0  0  0  0  0  0  0999 V2000
    1.0911   -0.1233   -0.0690 C   0  0  0  0  0  0  0  0  0  0  0  0
    0.6288    0.3354   -1.4496 C   0  0  0  0  0  0  0  0  0  0  0  0
    1.0823   -0.4990   -2.6318 C   0  0  0  0  0  0  0  0  0  0  0  0
    1.5240   -0.0322   -3.9034 C   0  0  0  0  0  0  0  0  0  0  0  0
    1.7168   -1.1716   -4.6564 C   0  0  0  0  0  0  0  0  0  0  0  0
    1.4146   -2.2448   -3.8707 N   0  0  0  0  0  0  0  0  0  0  0  0
    1.0267   -1.8501   -2.6172 N   0  0  0  0  0  0  0  0  0  0  0  0
    1.4939   -3.6420   -4.2636 C   0  0  0  0  0  0  0  0  0  0  0  0
    0.1694   -4.4060   -4.2965 C   0  0  0  0  0  0  0  0  0  0  0  0
    0.5673   -5.8855   -4.3288 C   0  0  0  0  0  0  0  0  0  0  0  0
    2.0287   -5.9538   -3.8857 C   0  0  0  0  0  0  0  0  0  0  0  0
    2.3919   -4.5441   -3.4177 C   0  0  0  0  0  0  0  0  0  0  0  0
    2.1654   -1.1141   -6.0049 C   0  0  0  0  0  0  0  0  0  0  0  0
    2.1770   -2.0074   -6.9574 N   0  0  0  0  0  0  0  0  0  0  0  0
    2.6690   -1.3869   -8.1001 N   0  0  0  0  0  0  0  0  0  0  0  0
    2.9536   -0.1362   -7.7949 C   0  0  0  0  0  0  0  0  0  0  0  0
    2.6407    0.0763   -6.4860 N   0  0  0  0  0  0  0  0  0  0  0  0
    2.7560    1.2749   -5.6761 C   0  0  0  0  0  0  0  0  0  0  0  0
    1.7262    1.3258   -4.5147 C   0  0  0  0  0  0  0  0  0  0  0  0
    3.4383    0.8776   -8.6748 C   0  0  0  0  0  0  0  0  0  0  0  0
    4.6102    1.5997   -8.5610 C   0  0  0  0  0  0  0  0  0  0  0  0
    4.6853    2.6557   -9.5170 C   0  0  0  0  0  0  0  0  0  0  0  0
    3.5819    2.6817  -10.3405 C   0  0  0  0  0  0  0  0  0  0  0  0
    2.4791    1.4255   -9.9792 S   0  0  0  0  0  0  0  0  0  0  0  0
    0.7327   -1.1300    0.1663 H   0  0  0  0  0  0  0  0  0  0  0  0
    0.6982    0.5484    0.7073 H   0  0  0  0  0  0  0  0  0  0  0  0
    2.1821   -0.1135    0.0163 H   0  0  0  0  0  0  0  0  0  0  0  0
   -0.4679    0.3792   -1.4465 H   0  0  0  0  0  0  0  0  0  0  0  0
    0.9699    1.3715   -1.5804 H   0  0  0  0  0  0  0  0  0  0  0  0
    1.9030   -3.6686   -5.2784 H   0  0  0  0  0  0  0  0  0  0  0  0
   -0.4301   -4.2048   -3.4023 H   0  0  0  0  0  0  0  0  0  0  0  0
   -0.4358   -4.1404   -5.1700 H   0  0  0  0  0  0  0  0  0  0  0  0
   -0.0764   -6.4775   -3.6695 H   0  0  0  0  0  0  0  0  0  0  0  0
    0.4605   -6.3028   -5.3379 H   0  0  0  0  0  0  0  0  0  0  0  0
    2.1828   -6.6979   -3.0976 H   0  0  0  0  0  0  0  0  0  0  0  0
    2.6559   -6.2519   -4.7361 H   0  0  0  0  0  0  0  0  0  0  0  0
    3.4556   -4.3358   -3.5739 H   0  0  0  0  0  0  0  0  0  0  0  0
    2.1762   -4.4380   -2.3497 H   0  0  0  0  0  0  0  0  0  0  0  0
    2.6371    2.1485   -6.3252 H   0  0  0  0  0  0  0  0  0  0  0  0
    3.7800    1.2681   -5.2829 H   0  0  0  0  0  0  0  0  0  0  0  0
    0.7660    1.6618   -4.9289 H   0  0  0  0  0  0  0  0  0  0  0  0
    2.0469    2.0676   -3.7779 H   0  0  0  0  0  0  0  0  0  0  0  0
    5.3671    1.4062   -7.8092 H   0  0  0  0  0  0  0  0  0  0  0  0
    5.5010    3.3650   -9.5911 H   0  0  0  0  0  0  0  0  0  0  0  0
    3.3663    3.3735  -11.1429 H   0  0  0  0  0  0  0  0  0  0  0  0
  1  2  1  0  0  0  0
  1 25  1  0  0  0  0
  1 26  1  0  0  0  0
  1 27  1  0  0  0  0
  2  3  1  0  0  0  0
  2 28  1  0  0  0  0
  2 29  1  0  0  0  0
  3  4  1  0  0  0  0
  3  7  2  0  0  0  0
  4  5  2  0  0  0  0
  4 19  1  0  0  0  0
  5  6  1  0  0  0  0
  5 13  1  0  0  0  0
  6  7  1  0  0  0  0
  6  8  1  0  0  0  0
  8  9  1  0  0  0  0
  8 12  1  0  0  0  0
  8 30  1  0  0  0  0
  9 10  1  0  0  0  0
  9 31  1  0  0  0  0
  9 32  1  0  0  0  0
 10 11  1  0  0  0  0
 10 33  1  0  0  0  0
 10 34  1  0  0  0  0
 11 12  1  0  0  0  0
 11 35  1  0  0  0  0
 11 36  1  0  0  0  0
 12 37  1  0  0  0  0
 12 38  1  0  0  0  0
 13 14  2  0  0  0  0
 13 17  1  0  0  0  0
 14 15  1  0  0  0  0
 15 16  2  0  0  0  0
 16 17  1  0  0  0  0
 16 20  1  0  0  0  0
 17 18  1  0  0  0  0
 18 19  1  0  0  0  0
 18 39  1  0  0  0  0
 18 40  1  0  0  0  0
 19 41  1  0  0  0  0
 19 42  1  0  0  0  0
 20 21  2  0  0  0  0
 20 24  1  0  0  0  0
 21 22  1  0  0  0  0
 21 43  1  0  0  0  0
 22 23  2  0  0  0  0
 22 44  1  0  0  0  0
 23 24  1  0  0  0  0
 23 45  1  0  0  0  0
M  END
>  <DRUGBANK_ID>
DB11681

>  <COMMON_NAME>
Tofimilast

>  <CAS_NUMBER>
185954-27-2

>  <UNII>
5D7022962A

>  <SYNONYMS>
Tofimilast

$$$$
