
 OpenBabel10282417173D

 51 54  0  0  0  0  0  0  0  0999 V2000
   -0.3753   -0.0043   -0.0166 C   0  0  0  0  0  0  0  0  0  0  0  0
    8.3650   -0.7167   -0.8203 C   0  0  0  0  0  0  0  0  0  0  0  0
    7.3172   -1.8243   -2.7581 C   0  0  0  0  0  0  0  0  0  0  0  0
    9.1624   -1.4170   -4.3588 C   0  0  0  0  0  0  0  0  0  0  0  0
   10.1027   -1.9316   -5.2653 C   0  0  0  0  0  0  0  0  0  0  0  0
   10.8157   -3.0627   -4.8297 C   0  0  0  0  0  0  0  0  0  0  0  0
    9.3764   -3.2741   -2.8703 C   0  0  0  0  0  0  0  0  0  0  0  0
    3.9062    0.0151    0.0397 C   0  0  0  0  0  0  0  0  0  0  0  0
    4.5854    0.6191    1.1032 C   0  0  0  0  0  0  0  0  0  0  0  0
    5.9254    0.6743    1.2806 N   0  0  0  0  0  0  0  0  0  0  0  0
    4.6870   -0.5972   -0.9611 C   0  0  0  0  0  0  0  0  0  0  0  0
    7.9626   -0.0360    0.2823 N   0  0  0  0  0  0  0  0  0  0  0  0
    7.2390   -1.0805   -1.5335 C   0  0  0  0  0  0  0  0  0  0  0  0
    6.0952   -0.5844   -0.8213 C   0  0  0  0  0  0  0  0  0  0  0  0
    6.6032    0.0584    0.3019 C   0  0  0  0  0  0  0  0  0  0  0  0
    2.4375    0.0093   -0.0016 C   0  0  0  0  0  0  0  0  0  0  0  0
    8.6832   -2.1536   -3.2726 C   0  0  0  0  0  0  0  0  0  0  0  0
   10.4881   -3.6904   -3.6052 C   0  0  0  0  0  0  0  0  0  0  0  0
    8.9998   -3.9545   -1.7809 F   0  0  0  0  0  0  0  0  0  0  0  0
    8.5528   -0.2606   -4.5689 F   0  0  0  0  0  0  0  0  0  0  0  0
   10.2301   -1.5405   -6.6588 N   0  0  0  0  0  0  0  0  0  0  0  0
    9.2656   -0.5545   -7.6175 S   0  0  0  0  0  0  0  0  0  0  0  0
    9.9482    0.7064   -7.6971 O   0  0  0  0  0  0  0  0  0  0  0  0
    9.0273   -1.3040   -8.8519 O   0  0  0  0  0  0  0  0  0  0  0  0
    7.6525   -0.2881   -6.8954 C   0  0  0  0  0  0  0  0  0  0  0  0
    6.7767   -1.5352   -6.6769 C   0  0  0  0  0  0  0  0  0  0  0  0
    7.3647   -2.8474   -6.1755 C   0  0  0  0  0  0  0  0  0  0  0  0
    1.7096    1.2122   -0.0031 C   0  0  0  0  0  0  0  0  0  0  0  0
    0.3113    1.2068   -0.0128 C   0  0  0  0  0  0  0  0  0  0  0  0
    0.3235   -1.2085   -0.0206 C   0  0  0  0  0  0  0  0  0  0  0  0
    1.7221   -1.2000   -0.0122 C   0  0  0  0  0  0  0  0  0  0  0  0
   -2.0954   -0.0121   -0.0115 Cl  0  0  0  0  0  0  0  0  0  0  0  0
    6.3006   -2.1308   -3.3900 O   0  0  0  0  0  0  0  0  0  0  0  0
    9.4110   -0.9048   -1.0122 H   0  0  0  0  0  0  0  0  0  0  0  0
   11.5919   -3.5175   -5.4462 H   0  0  0  0  0  0  0  0  0  0  0  0
    4.0294    1.0979    1.9076 H   0  0  0  0  0  0  0  0  0  0  0  0
    4.2115   -1.0721   -1.8174 H   0  0  0  0  0  0  0  0  0  0  0  0
    8.5657    0.3355    0.9973 H   0  0  0  0  0  0  0  0  0  0  0  0
   11.0489   -4.5543   -3.2555 H   0  0  0  0  0  0  0  0  0  0  0  0
   10.9628   -1.9757   -7.2250 H   0  0  0  0  0  0  0  0  0  0  0  0
    7.7764    0.4181   -6.0765 H   0  0  0  0  0  0  0  0  0  0  0  0
    7.1030    0.3693   -7.5846 H   0  0  0  0  0  0  0  0  0  0  0  0
    5.9668   -1.2476   -5.9945 H   0  0  0  0  0  0  0  0  0  0  0  0
    6.3203   -1.7774   -7.6372 H   0  0  0  0  0  0  0  0  0  0  0  0
    7.4962   -2.7807   -5.1190 H   0  0  0  0  0  0  0  0  0  0  0  0
    6.7080   -3.7160   -6.2301 H   0  0  0  0  0  0  0  0  0  0  0  0
    8.3091   -3.1239   -6.6388 H   0  0  0  0  0  0  0  0  0  0  0  0
    2.2306    2.1683   -0.0060 H   0  0  0  0  0  0  0  0  0  0  0  0
   -0.2315    2.1483   -0.0196 H   0  0  0  0  0  0  0  0  0  0  0  0
   -0.2094   -2.1557   -0.0280 H   0  0  0  0  0  0  0  0  0  0  0  0
    2.2542   -2.1500    0.0006 H   0  0  0  0  0  0  0  0  0  0  0  0
  1 30  1  0  0  0  0
  1 32  1  0  0  0  0
  2 12  1  0  0  0  0
  2 13  2  0  0  0  0
  2 34  1  0  0  0  0
  3 17  1  0  0  0  0
  3 33  2  0  0  0  0
  4  5  2  0  0  0  0
  4 20  1  0  0  0  0
  5  6  1  0  0  0  0
  5 21  1  0  0  0  0
  6 18  2  0  0  0  0
  6 35  1  0  0  0  0
  7 19  1  0  0  0  0
  8  9  2  0  0  0  0
  8 11  1  0  0  0  0
  8 16  1  0  0  0  0
  9 10  1  0  0  0  0
  9 36  1  0  0  0  0
 11 14  2  0  0  0  0
 11 37  1  0  0  0  0
 12 38  1  0  0  0  0
 13  3  1  0  0  0  0
 14 13  1  0  0  0  0
 14 15  1  0  0  0  0
 15 10  2  0  0  0  0
 15 12  1  0  0  0  0
 16 28  2  0  0  0  0
 16 31  1  0  0  0  0
 17  4  1  0  0  0  0
 17  7  2  0  0  0  0
 18  7  1  0  0  0  0
 18 39  1  0  0  0  0
 21 22  1  0  0  0  0
 21 40  1  0  0  0  0
 23 22  2  0  0  0  0
 24 22  2  0  0  0  0
 25 22  1  0  0  0  0
 25 26  1  0  0  0  0
 25 41  1  0  0  0  0
 25 42  1  0  0  0  0
 26 27  1  0  0  0  0
 26 43  1  0  0  0  0
 26 44  1  0  0  0  0
 27 45  1  0  0  0  0
 27 46  1  0  0  0  0
 27 47  1  0  0  0  0
 28 29  1  0  0  0  0
 28 48  1  0  0  0  0
 29  1  2  0  0  0  0
 29 49  1  0  0  0  0
 30 31  2  0  0  0  0
 30 50  1  0  0  0  0
 31 51  1  0  0  0  0
M  END
>  <DRUGBANK_ID>
DB08881

>  <SECONDARY_ACCESSION_NUMBERS>
DB05238

>  <COMMON_NAME>
Vemurafenib

>  <CAS_NUMBER>
918504-65-1

>  <UNII>
207SMY3FQT

>  <SYNONYMS>
Vémurafénib; Vemurafenib; Vemurafenibum

$$$$
