
 OpenBabel10282417123D

 28 28  0  0  1  0  0  0  0  0999 V2000
    2.8296   -0.4750   -0.0207 O   0  0  0  0  0  0  0  0  0  0  0  0
    1.5186   -0.1382   -0.4135 C   0  0  1  0  0  0  0  0  0  0  0  0
    0.5767   -1.2459    0.0117 C   0  0  0  0  0  0  0  0  0  0  0  0
   -0.8570   -0.8526   -0.3217 C   0  0  1  0  0  0  0  0  0  0  0  0
   -1.7472   -1.8523    0.1689 O   0  0  0  0  0  0  0  0  0  0  0  0
   -1.2181    0.5294    0.2528 C   0  0  2  0  0  0  0  0  0  0  0  0
   -2.4798    0.9911   -0.2244 O   0  0  0  0  0  0  0  0  0  0  0  0
   -0.1373    1.5532   -0.0958 C   0  0  1  0  0  0  0  0  0  0  0  0
   -0.3958    2.8580    0.6801 C   0  0  0  0  0  0  0  0  0  0  0  0
    0.6413    3.8233    0.4619 O   0  0  0  0  0  0  0  0  0  0  0  0
    2.1990    3.1965    0.8784 P   0  0  0  0  0  0  0  0  0  0  0  0
    2.7519    4.6364    0.3246 O   0  0  0  0  0  0  0  0  0  0  0  0
    1.8987    3.7529    2.3935 O   0  0  0  0  0  0  0  0  0  0  0  0
    3.5932    2.6355    1.2513 O   0  0  0  0  0  0  0  0  0  0  0  0
    1.1505    1.0480    0.2678 O   0  0  0  0  0  0  0  0  0  0  0  0
    3.3986    0.2870   -0.2303 H   0  0  0  0  0  0  0  0  0  0  0  0
    1.5054    0.0244   -1.4969 H   0  0  0  0  0  0  0  0  0  0  0  0
    0.8474   -2.1967   -0.4607 H   0  0  0  0  0  0  0  0  0  0  0  0
    0.6722   -1.4227    1.0928 H   0  0  0  0  0  0  0  0  0  0  0  0
   -0.9851   -0.8311   -1.4096 H   0  0  0  0  0  0  0  0  0  0  0  0
   -1.7077   -1.8500    1.1422 H   0  0  0  0  0  0  0  0  0  0  0  0
   -1.3073    0.4377    1.3434 H   0  0  0  0  0  0  0  0  0  0  0  0
   -2.4601    1.0095   -1.1976 H   0  0  0  0  0  0  0  0  0  0  0  0
   -0.1249    1.7921   -1.1662 H   0  0  0  0  0  0  0  0  0  0  0  0
   -1.3446    3.3163    0.3872 H   0  0  0  0  0  0  0  0  0  0  0  0
   -0.4510    2.6483    1.7539 H   0  0  0  0  0  0  0  0  0  0  0  0
    3.1992    4.5594   -0.5309 H   0  0  0  0  0  0  0  0  0  0  0  0
    0.9818    3.6418    2.6855 H   0  0  0  0  0  0  0  0  0  0  0  0
  1 16  1  0  0  0  0
  2  1  1  0  0  0  0
  2  3  1  0  0  0  0
  2 15  1  0  0  0  0
  2 17  1  6  0  0  0
  3  4  1  0  0  0  0
  3 18  1  0  0  0  0
  3 19  1  0  0  0  0
  4  5  1  0  0  0  0
  4  6  1  0  0  0  0
  4 20  1  6  0  0  0
  5 21  1  0  0  0  0
  6  7  1  0  0  0  0
  6  8  1  0  0  0  0
  6 22  1  1  0  0  0
  7 23  1  0  0  0  0
  8  9  1  0  0  0  0
  8 15  1  0  0  0  0
  8 24  1  6  0  0  0
  9 10  1  0  0  0  0
  9 25  1  0  0  0  0
  9 26  1  0  0  0  0
 10 11  1  0  0  0  0
 11 12  1  0  0  0  0
 11 13  1  0  0  0  0
 11 14  2  0  0  0  0
 12 27  1  0  0  0  0
 13 28  1  0  0  0  0
M  END
>  <DRUGBANK_ID>
DB02604

>  <SECONDARY_ACCESSION_NUMBERS>
EXPT01099

>  <COMMON_NAME>
2-Deoxy-Glucose-6-Phosphate

>  <UNII>
ZFR70WJ2SL

$$$$
