248
 OpenBabel10282417103D

 70 73  0  0  1  0  0  0  0  0999 V2000
   -0.7902   -0.1621   -0.3091 O   0  0  0  0  0  0  0  0  0  0  0  0
   -0.6359    1.8754   -1.6298 O   0  0  0  0  0  0  0  0  0  0  0  0
   -3.2123   -3.1540   -0.7529 N   0  0  0  0  0  0  0  0  0  0  0  0
   -0.1223   -0.5608   -3.6325 N   0  0  0  0  0  0  0  0  0  0  0  0
   -2.4536    1.4654   -0.1701 N   0  0  0  0  0  0  0  0  0  0  0  0
   -1.6951    3.5909   -1.1141 N   0  0  0  0  0  0  0  0  0  0  0  0
   -4.9268    4.5765   -0.3385 N   0  0  0  0  0  0  0  0  0  0  0  0
   -3.0047   -2.7186   -1.5703 C   0  0  2  0  0  0  0  0  0  0  0  0
   -2.2832   -3.9714   -1.3694 C   0  0  1  0  0  0  0  0  0  0  0  0
   -3.3957   -1.8831    0.5356 C   0  0  0  0  0  0  0  0  0  0  0  0
   -2.9383   -0.7526    0.0718 C   0  0  2  0  0  0  0  0  0  0  0  0
   -0.7969   -3.6070   -1.5049 C   0  0  0  0  0  0  0  0  0  0  0  0
   -2.1926   -2.3663    0.2057 C   0  0  0  0  0  0  0  0  0  0  0  0
   -2.8340   -2.3533   -3.3203 C   0  0  0  0  0  0  0  0  0  0  0  0
   -1.5064   -2.1702   -3.5214 C   0  0  0  0  0  0  0  0  0  0  0  0
   -0.5372   -2.5306   -2.5763 C   0  0  0  0  0  0  0  0  0  0  0  0
   -4.8863   -2.3605   -1.2327 C   0  0  0  0  0  0  0  0  0  0  0  0
   -1.9373    0.2015   -0.1576 C   0  0  0  0  0  0  0  0  0  0  0  0
   -1.1589   -1.1140   -4.3331 C   0  0  0  0  0  0  0  0  0  0  0  0
   -3.3880   -2.5505   -4.7046 C   0  0  0  0  0  0  0  0  0  0  0  0
    0.2154   -1.3744   -2.5566 C   0  0  0  0  0  0  0  0  0  0  0  0
   -1.8979   -0.7751   -5.4724 C   0  0  0  0  0  0  0  0  0  0  0  0
   -2.9450   -1.6604   -5.7517 C   0  0  0  0  0  0  0  0  0  0  0  0
   -4.9627   -0.8783   -1.7433 C   0  0  0  0  0  0  0  0  0  0  0  0
   -3.8684    1.6149    0.5891 C   0  0  0  0  0  0  0  0  0  0  0  0
   -1.6146    2.2496   -0.9799 C   0  0  0  0  0  0  0  0  0  0  0  0
   -4.0383    2.6046    1.6685 C   0  0  0  0  0  0  0  0  0  0  0  0
   -5.4577   -0.4918   -2.9187 C   0  0  0  0  0  0  0  0  0  0  0  0
   -3.9496    3.9560    1.1438 C   0  0  0  0  0  0  0  0  0  0  0  0
   -2.7923    4.2497   -0.7779 C   0  0  0  0  0  0  0  0  0  0  0  0
   -4.2686    5.9891   -1.2959 C   0  0  0  0  0  0  0  0  0  0  0  0
   -5.0941    3.4118   -1.6102 C   0  0  0  0  0  0  0  0  0  0  0  0
   -2.7357    5.6664    0.4290 C   0  0  0  0  0  0  0  0  0  0  0  0
   -3.6851   -3.6767   -2.2721 H   0  0  0  0  0  0  0  0  0  0  0  0
   -2.7819   -4.9090   -1.0454 H   0  0  0  0  0  0  0  0  0  0  0  0
    0.2692    0.3502   -3.8127 H   0  0  0  0  0  0  0  0  0  0  0  0
   -1.3154    4.0838   -1.9015 H   0  0  0  0  0  0  0  0  0  0  0  0
   -3.6955   -2.0070    1.6723 H   0  0  0  0  0  0  0  0  0  0  0  0
   -2.4608   -1.5277    1.5549 H   0  0  0  0  0  0  0  0  0  0  0  0
   -3.9686   -0.5198    0.3670 H   0  0  0  0  0  0  0  0  0  0  0  0
   -0.3070   -4.5679   -1.4448 H   0  0  0  0  0  0  0  0  0  0  0  0
   -0.3120   -3.1208   -0.6711 H   0  0  0  0  0  0  0  0  0  0  0  0
   -2.3978   -3.3626    0.9410 H   0  0  0  0  0  0  0  0  0  0  0  0
   -1.1342   -2.2695    0.4429 H   0  0  0  0  0  0  0  0  0  0  0  0
   -5.1934   -2.9686   -2.0842 H   0  0  0  0  0  0  0  0  0  0  0  0
   -5.3692   -2.5745   -0.3006 H   0  0  0  0  0  0  0  0  0  0  0  0
   -4.1336   -3.2705   -5.1057 H   0  0  0  0  0  0  0  0  0  0  0  0
    0.8423   -0.9828   -1.7702 H   0  0  0  0  0  0  0  0  0  0  0  0
   -1.6372    0.0558   -6.1163 H   0  0  0  0  0  0  0  0  0  0  0  0
   -3.4373   -1.5534   -6.7337 H   0  0  0  0  0  0  0  0  0  0  0  0
   -4.5957   -0.0298   -1.2019 H   0  0  0  0  0  0  0  0  0  0  0  0
   -4.6627    1.6188   -0.1297 H   0  0  0  0  0  0  0  0  0  0  0  0
   -4.2164    0.7832    1.2054 H   0  0  0  0  0  0  0  0  0  0  0  0
   -5.0123    2.6796    2.1197 H   0  0  0  0  0  0  0  0  0  0  0  0
   -3.2134    2.4331    2.3970 H   0  0  0  0  0  0  0  0  0  0  0  0
   -5.5248    0.5620   -3.1741 H   0  0  0  0  0  0  0  0  0  0  0  0
   -5.7477   -1.2521   -3.6231 H   0  0  0  0  0  0  0  0  0  0  0  0
   -3.9211    4.6032    2.0447 H   0  0  0  0  0  0  0  0  0  0  0  0
   -2.7692    3.7740    1.0647 H   0  0  0  0  0  0  0  0  0  0  0  0
   -3.2369    4.3846   -1.7675 H   0  0  0  0  0  0  0  0  0  0  0  0
   -3.3903    3.3682   -0.5269 H   0  0  0  0  0  0  0  0  0  0  0  0
   -3.1622    5.9750   -1.6874 H   0  0  0  0  0  0  0  0  0  0  0  0
   -4.7470    6.0522   -2.2665 H   0  0  0  0  0  0  0  0  0  0  0  0
   -4.1805    6.9587   -0.7759 H   0  0  0  0  0  0  0  0  0  0  0  0
   -4.1833    2.9408   -2.1195 H   0  0  0  0  0  0  0  0  0  0  0  0
   -5.6196    2.5418   -1.2438 H   0  0  0  0  0  0  0  0  0  0  0  0
   -5.5708    3.8748   -2.4777 H   0  0  0  0  0  0  0  0  0  0  0  0
   -2.3547    6.5739    0.0140 H   0  0  0  0  0  0  0  0  0  0  0  0
   -3.7819    5.9929    0.9107 H   0  0  0  0  0  0  0  0  0  0  0  0
   -2.0920    5.4286    1.2668 H   0  0  0  0  0  0  0  0  0  0  0  0
  1 18  2  0  0  0  0
  2 26  2  0  0  0  0
  3  9  1  0  0  0  0
  3 13  1  0  0  0  0
  3 17  1  0  0  0  0
  4 19  1  0  0  0  0
  4 21  1  0  0  0  0
  4 36  1  0  0  0  0
  5 18  1  0  0  0  0
  5 25  1  0  0  0  0
  5 26  1  0  0  0  0
  6 26  1  0  0  0  0
  6 30  1  0  0  0  0
  6 37  1  0  0  0  0
  7 29  1  0  0  0  0
  7 31  1  0  0  0  0
  7 32  1  0  0  0  0
  8  9  1  0  0  0  0
  8 10  1  0  0  0  0
  8 14  1  0  0  0  0
  8 34  1  1  0  0  0
  9 12  1  0  0  0  0
  9 35  1  6  0  0  0
 10 11  1  0  0  0  0
 10 38  1  0  0  0  0
 10 39  1  0  0  0  0
 11 13  1  0  0  0  0
 11 40  1  6  0  0  0
 11 18  1  0  0  0  0
 12 16  1  0  0  0  0
 12 41  1  0  0  0  0
 12 42  1  0  0  0  0
 13 43  1  0  0  0  0
 13 44  1  0  0  0  0
 14 15  2  0  0  0  0
 14 20  1  0  0  0  0
 15 16  1  0  0  0  0
 15 19  1  0  0  0  0
 16 21  2  0  0  0  0
 17 24  1  0  0  0  0
 17 45  1  0  0  0  0
 17 46  1  0  0  0  0
 19 22  2  0  0  0  0
 20 23  2  0  0  0  0
 20 47  1  0  0  0  0
 21 48  1  0  0  0  0
 22 23  1  0  0  0  0
 22 49  1  0  0  0  0
 23 50  1  0  0  0  0
 24 28  2  0  0  0  0
 24 51  1  0  0  0  0
 25 27  1  0  0  0  0
 25 52  1  0  0  0  0
 25 53  1  0  0  0  0
 27 29  1  0  0  0  0
 27 54  1  0  0  0  0
 27 55  1  0  0  0  0
 28 56  1  0  0  0  0
 28 57  1  0  0  0  0
 29 58  1  0  0  0  0
 29 59  1  0  0  0  0
 30 33  1  0  0  0  0
 30 60  1  0  0  0  0
 30 61  1  0  0  0  0
 31 62  1  0  0  0  0
 31 63  1  0  0  0  0
 31 64  1  0  0  0  0
 32 65  1  0  0  0  0
 32 66  1  0  0  0  0
 32 67  1  0  0  0  0
 33 68  1  0  0  0  0
 33 69  1  0  0  0  0
 33 70  1  0  0  0  0
M  END
>  <DRUGBANK_ID>
DB00248

>  <SECONDARY_ACCESSION_NUMBERS>
APRD00836

>  <COMMON_NAME>
Cabergoline

>  <CAS_NUMBER>
81409-90-7

>  <UNII>
LL60K9J05T

>  <SYNONYMS>
(8R)-6-allyl-N-[3-(dimethylamino)propyl]-N-(ethylcarbamoyl)ergoline-8-carboxamide; (8β)-N-[3-(dimethylamino)propyl]-N-[(ethylamino)carbonyl]-6-(2-propenyl)-ergoline-8-carboxamide; 1-((6-allylergolin-8β-yl)carbonyl)-1-(3-(dimethylamino)propyl)-3-ethylurea; 1-[(6-allylergoline-8β-yl)carbonyl]-1-[3-(dimethylamino)propyl]-3-ethylurea; 1-ethyl-3-(3'-dimethylamionpropyl)-2-(6'-allylergoline-8'β-carbonyl)urea; Cabergolina; Cabergoline; Cabergolinum

$$$$
