
 OpenBabel10282417143D

 92 94  0  0  1  0  0  0  0  0999 V2000
   -9.8933    2.9047    2.9109 C   0  0  2  0  0  0  0  0  0  0  0  0
   -8.6908    3.6399    3.0634 O   0  0  0  0  0  0  0  0  0  0  0  0
   -9.5445    1.5462    2.3337 C   0  0  1  0  0  0  0  0  0  0  0  0
   -7.5832    2.9591    2.4730 C   0  0  1  0  0  0  0  0  0  0  0  0
   -8.1415    1.7947    1.6638 C   0  0  1  0  0  0  0  0  0  0  0  0
   -9.5993    0.6830    3.4931 O   0  0  0  0  0  0  0  0  0  0  0  0
   -9.1207    3.0774    7.9881 C   0  0  0  0  0  0  0  0  0  0  0  0
  -10.1823    3.0779    6.8851 C   0  0  0  0  0  0  0  0  0  0  0  0
   -8.1884    1.9548    7.8938 N   0  0  0  0  0  0  0  0  0  0  0  0
   -6.8663    2.0697    7.5810 C   0  0  0  0  0  0  0  0  0  0  0  0
   -6.4690    3.2442    7.5797 O   0  0  0  0  0  0  0  0  0  0  0  0
   -5.2147    0.7006    5.9748 C   0  0  0  0  0  0  0  0  0  0  0  0
   -5.9041    0.8634    7.3149 C   0  0  0  0  0  0  0  0  0  0  0  0
   -4.3441    1.6063    5.3640 N   0  0  0  0  0  0  0  0  0  0  0  0
   -2.3733    0.6314    4.9498 O   0  0  0  0  0  0  0  0  0  0  0  0
   -3.0096    1.6461    5.1141 C   0  0  0  0  0  0  0  0  0  0  0  0
   -3.2434    5.6049    4.9228 C   0  0  0  0  0  0  0  0  0  0  0  0
   -4.5502    3.8097    5.8043 C   0  0  0  0  0  0  0  0  0  0  0  0
   -3.1654    4.3277    5.7705 C   0  0  0  0  0  0  0  0  0  0  0  0
   -2.6398    4.6363    7.1901 C   0  0  0  0  0  0  0  0  0  0  0  0
   -2.3767    3.1315    5.0855 C   0  0  1  0  0  0  0  0  0  0  0  0
   -1.1036    3.0108    5.7177 O   0  0  0  0  0  0  0  0  0  0  0  0
   -4.1209    6.5593    5.5463 O   0  0  0  0  0  0  0  0  0  0  0  0
   -6.0725    6.7129    4.1652 O   0  0  0  0  0  0  0  0  0  0  0  0
   -6.2535    4.7217    2.9080 O   0  0  0  0  0  0  0  0  0  0  0  0
   -6.4772    7.1527    6.4437 O   0  0  0  0  0  0  0  0  0  0  0  0
   -5.3114    5.3987    7.2741 O   0  0  0  0  0  0  0  0  0  0  0  0
   -7.5974    6.7505    2.0438 O   0  0  0  0  0  0  0  0  0  0  0  0
   -8.2689    5.6681    4.3098 O   0  0  0  0  0  0  0  0  0  0  0  0
   -5.6919    6.0558    5.7196 P   0  0  3  0  0  0  0  0  0  0  0  0
   -7.1195    6.0148    3.2491 P   0  0  3  0  0  0  0  0  0  0  0  0
   -6.6306    3.8989    1.8192 C   0  0  0  0  0  0  0  0  0  0  0  0
   -7.2335    0.6683    1.5918 O   0  0  0  0  0  0  0  0  0  0  0  0
   -5.3650    0.7615    2.8470 O   0  0  0  0  0  0  0  0  0  0  0  0
   -7.5147    1.0949    3.9535 O   0  0  0  0  0  0  0  0  0  0  0  0
   -6.7756   -0.0201    3.1115 P   0  0  0  0  0  0  0  0  0  0  0  0
   -6.3657   -0.6362    4.4715 O   0  0  0  0  0  0  0  0  0  0  0  0
  -10.7958    3.6300    2.0978 N   0  0  0  0  0  0  0  0  0  0  0  0
  -12.0142    3.1570    1.7386 C   0  0  0  0  0  0  0  0  0  0  0  0
  -10.5897    4.8488    1.5458 C   0  0  0  0  0  0  0  0  0  0  0  0
  -12.5082    4.1556    0.9362 C   0  0  0  0  0  0  0  0  0  0  0  0
  -12.5800    1.9817    2.0580 N   0  0  0  0  0  0  0  0  0  0  0  0
  -11.6206    5.2086    0.8249 N   0  0  0  0  0  0  0  0  0  0  0  0
  -13.7673    3.9316    0.3917 C   0  0  0  0  0  0  0  0  0  0  0  0
  -13.7869    1.8689    1.4666 C   0  0  0  0  0  0  0  0  0  0  0  0
  -14.4019    2.7675    0.6653 N   0  0  0  0  0  0  0  0  0  0  0  0
  -14.3481    4.8730   -0.4165 N   0  0  0  0  0  0  0  0  0  0  0  0
  -11.3445    1.6875    6.8636 S   0  0  0  0  0  0  0  0  0  0  0  0
   -9.1348   -0.0359    6.2429 C   0  0  0  0  0  0  0  0  0  0  0  0
  -10.5834    0.1411    6.5021 C   0  0  0  0  0  0  0  0  0  0  0  0
  -11.3023   -0.8538    6.4565 O   0  0  0  0  0  0  0  0  0  0  0  0
   -7.7984   -1.9257    6.9781 O   0  0  0  0  0  0  0  0  0  0  0  0
   -8.4962   -0.9415    7.2415 C   0  0  0  0  0  0  0  0  0  0  0  0
   -8.5297   -0.4635    8.5048 O   0  0  0  0  0  0  0  0  0  0  0  0
  -10.3703    2.8593    3.8998 H   0  0  0  0  0  0  0  0  0  0  0  0
  -10.2427    1.0737    1.6463 H   0  0  0  0  0  0  0  0  0  0  0  0
   -6.9251    2.7095    3.3016 H   0  0  0  0  0  0  0  0  0  0  0  0
   -8.3201    2.1478    0.6408 H   0  0  0  0  0  0  0  0  0  0  0  0
   -9.5499    1.2859    4.2876 H   0  0  0  0  0  0  0  0  0  0  0  0
   -9.5949    3.0231    8.9713 H   0  0  0  0  0  0  0  0  0  0  0  0
   -8.5810    4.0314    7.9353 H   0  0  0  0  0  0  0  0  0  0  0  0
  -10.8099    3.9695    7.0524 H   0  0  0  0  0  0  0  0  0  0  0  0
   -9.7342    3.2281    5.9013 H   0  0  0  0  0  0  0  0  0  0  0  0
   -8.5237    1.0985    8.3185 H   0  0  0  0  0  0  0  0  0  0  0  0
   -6.0715    0.9946    5.3975 H   0  0  0  0  0  0  0  0  0  0  0  0
   -4.7872   -0.2855    5.7880 H   0  0  0  0  0  0  0  0  0  0  0  0
   -6.4952   -0.0356    7.3100 H   0  0  0  0  0  0  0  0  0  0  0  0
   -5.1775    0.7617    8.1068 H   0  0  0  0  0  0  0  0  0  0  0  0
   -4.9153    2.1402    4.7353 H   0  0  0  0  0  0  0  0  0  0  0  0
   -3.6426    5.3912    3.9216 H   0  0  0  0  0  0  0  0  0  0  0  0
   -2.2544    6.0474    4.7880 H   0  0  0  0  0  0  0  0  0  0  0  0
   -4.7912    3.7202    4.7423 H   0  0  0  0  0  0  0  0  0  0  0  0
   -4.5148    3.1235    6.6490 H   0  0  0  0  0  0  0  0  0  0  0  0
   -5.5899    4.0465    5.9515 H   0  0  0  0  0  0  0  0  0  0  0  0
   -1.5923    4.9421    7.1546 H   0  0  0  0  0  0  0  0  0  0  0  0
   -3.1610    5.4521    7.6954 H   0  0  0  0  0  0  0  0  0  0  0  0
   -2.7334    3.7564    7.8385 H   0  0  0  0  0  0  0  0  0  0  0  0
   -2.2167    3.3697    4.0295 H   0  0  0  0  0  0  0  0  0  0  0  0
   -1.2909    2.6604    6.6115 H   0  0  0  0  0  0  0  0  0  0  0  0
   -5.7550    6.0068    7.8973 H   0  0  0  0  0  0  0  0  0  0  0  0
   -9.1335    6.0603    4.0738 H   0  0  0  0  0  0  0  0  0  0  0  0
   -5.7299    3.3747    1.4826 H   0  0  0  0  0  0  0  0  0  0  0  0
   -7.0708    4.4675    1.0047 H   0  0  0  0  0  0  0  0  0  0  0  0
   -4.6389    0.1226    2.6849 H   0  0  0  0  0  0  0  0  0  0  0  0
   -8.3198    0.6067    3.7480 H   0  0  0  0  0  0  0  0  0  0  0  0
   -9.6783    5.4117    1.6904 H   0  0  0  0  0  0  0  0  0  0  0  0
  -14.3302    0.9452    1.6534 H   0  0  0  0  0  0  0  0  0  0  0  0
  -13.8450    5.7396   -0.5627 H   0  0  0  0  0  0  0  0  0  0  0  0
  -15.2768    4.7152   -0.7618 H   0  0  0  0  0  0  0  0  0  0  0  0
   -8.9971   -0.5534    5.2938 H   0  0  0  0  0  0  0  0  0  0  0  0
   -8.6319    0.9137    6.0744 H   0  0  0  0  0  0  0  0  0  0  0  0
   -7.8276   -0.9494    8.9996 H   0  0  0  0  0  0  0  0  0  0  0  0
  1 38  1  0  0  0  0
  1 55  1  1  0  0  0
  2  1  1  0  0  0  0
  3  1  1  0  0  0  0
  3  6  1  0  0  0  0
  3 56  1  6  0  0  0
  4  2  1  0  0  0  0
  4 32  1  0  0  0  0
  4 57  1  1  0  0  0
  5  3  1  0  0  0  0
  5  4  1  0  0  0  0
  5 33  1  0  0  0  0
  5 58  1  6  0  0  0
  6 59  1  0  0  0  0
  7  8  1  0  0  0  0
  7 60  1  0  0  0  0
  7 61  1  0  0  0  0
  8 48  1  0  0  0  0
  8 62  1  0  0  0  0
  8 63  1  0  0  0  0
  9  7  1  0  0  0  0
  9 64  1  0  0  0  0
 10  9  1  0  0  0  0
 10 11  2  0  0  0  0
 12 14  1  0  0  0  0
 12 65  1  0  0  0  0
 12 66  1  0  0  0  0
 13 10  1  0  0  0  0
 13 12  1  0  0  0  0
 13 67  1  0  0  0  0
 13 68  1  0  0  0  0
 14 69  1  0  0  0  0
 16 14  1  0  0  0  0
 16 15  2  0  0  0  0
 17 23  1  0  0  0  0
 17 70  1  0  0  0  0
 17 71  1  0  0  0  0
 18 72  1  0  0  0  0
 18 73  1  0  0  0  0
 18 74  1  0  0  0  0
 19 17  1  0  0  0  0
 19 18  1  0  0  0  0
 19 20  1  0  0  0  0
 20 75  1  0  0  0  0
 20 76  1  0  0  0  0
 20 77  1  0  0  0  0
 21 22  1  0  0  0  0
 21 78  1  6  0  0  0
 21 19  1  0  0  0  0
 21 16  1  0  0  0  0
 22 79  1  0  0  0  0
 23 30  1  0  0  0  0
 24 31  1  0  0  0  0
 27 80  1  0  0  0  0
 29 81  1  0  0  0  0
 30 24  1  0  0  0  0
 30 26  2  0  0  0  0
 30 27  1  0  0  0  0
 31 25  1  0  0  0  0
 31 28  2  0  0  0  0
 31 29  1  0  0  0  0
 32 25  1  0  0  0  0
 32 82  1  0  0  0  0
 32 83  1  0  0  0  0
 33 36  1  0  0  0  0
 34 84  1  0  0  0  0
 35 85  1  0  0  0  0
 36 34  1  0  0  0  0
 36 35  1  0  0  0  0
 36 37  2  0  0  0  0
 39 38  1  0  0  0  0
 40 38  1  0  0  0  0
 40 86  1  0  0  0  0
 41 39  2  0  0  0  0
 42 39  1  0  0  0  0
 43 40  2  0  0  0  0
 43 41  1  0  0  0  0
 44 41  1  0  0  0  0
 45 42  2  0  0  0  0
 45 87  1  0  0  0  0
 46 44  2  0  0  0  0
 46 45  1  0  0  0  0
 47 44  1  0  0  0  0
 47 88  1  0  0  0  0
 47 89  1  0  0  0  0
 48 50  1  0  0  0  0
 49 53  1  0  0  0  0
 49 90  1  0  0  0  0
 49 91  1  0  0  0  0
 50 49  1  0  0  0  0
 50 51  2  0  0  0  0
 53 52  2  0  0  0  0
 53 54  1  0  0  0  0
 54 92  1  0  0  0  0
M  END
>  <DRUGBANK_ID>
DB04524

>  <SECONDARY_ACCESSION_NUMBERS>
EXPT02180

>  <COMMON_NAME>
Malonyl-CoA

>  <CAS_NUMBER>
524-14-1

>  <UNII>
LNB9YCJ9F9

>  <SYNONYMS>
Coenzyme A, S-(hydrogen propanedioate); Malonyl coenzyme A; S-(Hydrogen malonyl)coenzyme A

$$$$
