
 OpenBabel10282417233D

 66 71  0  0  1  0  0  0  0  0999 V2000
    0.7509   -3.6183   -0.7253 C   0  0  0  0  0  0  0  0  0  0  0  0
   -0.4341   -4.8375    0.2327 C   0  0  2  0  0  0  0  0  0  0  0  0
   -0.8845   -6.9019    0.3207 C   0  0  0  0  0  0  0  0  0  0  0  0
   -2.3198   -8.3975    0.9985 C   0  0  0  0  0  0  0  0  0  0  0  0
   -2.9314   -8.1211    2.4221 C   0  0  0  0  0  0  0  0  0  0  0  0
   -2.1098   -7.0368    2.0600 C   0  0  2  0  0  0  0  0  0  0  0  0
   -1.5409   -6.1389    2.9218 N   0  0  0  0  0  0  0  0  0  0  0  0
   -1.0697   -6.4430    4.1546 C   0  0  0  0  0  0  0  0  0  0  0  0
   -1.0098   -5.5170    5.0501 N   0  0  0  0  0  0  0  0  0  0  0  0
   -1.2918   -4.2333    4.6109 C   0  0  0  0  0  0  0  0  0  0  0  0
   -1.3999   -3.8813    3.3373 C   0  0  0  0  0  0  0  0  0  0  0  0
   -2.1034   -4.9628    2.7895 C   0  0  0  0  0  0  0  0  0  0  0  0
   -3.2440   -4.7894    2.3982 O   0  0  0  0  0  0  0  0  0  0  0  0
   -1.2356   -3.1051    5.5105 C   0  0  0  0  0  0  0  0  0  0  0  0
   -2.3555   -2.2577    5.6746 C   0  0  0  0  0  0  0  0  0  0  0  0
   -2.2125   -1.0584    6.3601 C   0  0  0  0  0  0  0  0  0  0  0  0
   -3.4579    0.1304    6.3363 Cl  0  0  0  0  0  0  0  0  0  0  0  0
   -1.0414   -0.8153    7.0649 C   0  0  0  0  0  0  0  0  0  0  0  0
   -0.0251   -1.7850    7.0987 C   0  0  0  0  0  0  0  0  0  0  0  0
   -0.0667   -2.8690    6.2223 C   0  0  0  0  0  0  0  0  0  0  0  0
    1.0889   -3.6601    5.9836 N   0  0  0  0  0  0  0  0  0  0  0  0
    1.7047   -3.8880    4.7690 C   0  0  0  0  0  0  0  0  0  0  0  0
    2.8376   -4.5929    5.0741 C   0  0  0  0  0  0  0  0  0  0  0  0
    4.0329   -5.0905    3.9749 Cl  0  0  0  0  0  0  0  0  0  0  0  0
    2.8776   -4.8110    6.4215 N   0  0  0  0  0  0  0  0  0  0  0  0
    1.8254   -4.2085    6.9743 N   0  0  0  0  0  0  0  0  0  0  0  0
   -3.0219   -6.4488    0.4793 C   0  0  0  0  0  0  0  0  0  0  0  0
   -2.9007   -5.2068    0.0963 C   0  0  0  0  0  0  0  0  0  0  0  0
   -3.6078   -4.7661   -0.9444 C   0  0  0  0  0  0  0  0  0  0  0  0
   -3.9368   -5.5923   -1.9649 C   0  0  0  0  0  0  0  0  0  0  0  0
   -3.4970   -6.8477   -1.8955 C   0  0  0  0  0  0  0  0  0  0  0  0
   -3.1815   -7.2439   -0.6810 N   0  0  0  0  0  0  0  0  0  0  0  0
   -3.9630   -3.4085   -0.8556 C   0  0  0  0  0  0  0  0  0  0  0  0
   -3.1483   -2.3268   -0.7659 C   0  0  0  0  0  0  0  0  0  0  0  0
   -1.7747   -2.4669   -0.8352 N   0  0  0  0  0  0  0  0  0  0  0  0
   -1.2303   -3.0176    0.3112 C   0  0  0  0  0  0  0  0  0  0  0  0
   -1.0738   -2.0957    1.1381 O   0  0  0  0  0  0  0  0  0  0  0  0
   -4.0189   -1.2460   -0.6072 C   0  0  0  0  0  0  0  0  0  0  0  0
   -5.3075   -1.6335   -0.6006 N   0  0  0  0  0  0  0  0  0  0  0  0
   -5.2358   -2.9883   -0.6651 N   0  0  0  0  0  0  0  0  0  0  0  0
   -6.3875   -3.8835   -0.6755 C   0  0  0  0  0  0  0  0  0  0  0  0
   -7.1746   -3.7272    0.4134 F   0  0  0  0  0  0  0  0  0  0  0  0
   -7.1393   -3.6861   -1.7887 F   0  0  0  0  0  0  0  0  0  0  0  0
    1.7918   -3.2716   -0.4025 H   0  0  0  0  0  0  0  0  0  0  0  0
    0.5050   -2.5232   -1.1625 H   0  0  0  0  0  0  0  0  0  0  0  0
    0.6240   -4.0551   -1.6659 H   0  0  0  0  0  0  0  0  0  0  0  0
    0.1046   -4.3193    1.1373 H   0  0  0  0  0  0  0  0  0  0  0  0
   -1.0877   -7.5676   -0.5794 H   0  0  0  0  0  0  0  0  0  0  0  0
   -0.0522   -7.6502    0.5369 H   0  0  0  0  0  0  0  0  0  0  0  0
   -2.5197   -9.5105    1.2638 H   0  0  0  0  0  0  0  0  0  0  0  0
   -3.2059   -8.7102    0.3174 H   0  0  0  0  0  0  0  0  0  0  0  0
   -2.5559   -8.8102    3.2077 H   0  0  0  0  0  0  0  0  0  0  0  0
   -3.9755   -7.8427    2.5541 H   0  0  0  0  0  0  0  0  0  0  0  0
   -1.0951   -7.7010    2.1016 H   0  0  0  0  0  0  0  0  0  0  0  0
   -0.7739   -7.4970    4.3407 H   0  0  0  0  0  0  0  0  0  0  0  0
   -1.5227   -2.9180    2.9004 H   0  0  0  0  0  0  0  0  0  0  0  0
   -3.3290   -2.5229    5.2638 H   0  0  0  0  0  0  0  0  0  0  0  0
   -0.9227    0.1278    7.5938 H   0  0  0  0  0  0  0  0  0  0  0  0
    0.8181   -1.6407    7.7617 H   0  0  0  0  0  0  0  0  0  0  0  0
    1.3347   -3.5027    3.8331 H   0  0  0  0  0  0  0  0  0  0  0  0
   -2.4106   -4.4982    0.6680 H   0  0  0  0  0  0  0  0  0  0  0  0
   -4.4959   -5.2050   -2.7744 H   0  0  0  0  0  0  0  0  0  0  0  0
   -3.4690   -7.5584   -2.7075 H   0  0  0  0  0  0  0  0  0  0  0  0
   -1.4442   -3.0790   -1.5499 H   0  0  0  0  0  0  0  0  0  0  0  0
   -3.7613   -0.1989   -0.5439 H   0  0  0  0  0  0  0  0  0  0  0  0
   -6.0629   -4.9302   -0.6895 H   0  0  0  0  0  0  0  0  0  0  0  0
  1 44  1  0  0  0  0
  1 45  1  0  0  0  0
  1 46  1  0  0  0  0
  2  3  1  0  0  0  0
  2 36  1  0  0  0  0
  2 47  1  1  0  0  0
  2  1  1  0  0  0  0
  3  4  1  0  0  0  0
  3 48  1  0  0  0  0
  3 49  1  0  0  0  0
  4  5  1  0  0  0  0
  4 50  1  0  0  0  0
  4 51  1  0  0  0  0
  5 52  1  0  0  0  0
  5 53  1  0  0  0  0
  6  5  1  0  0  0  0
  6 27  1  0  0  0  0
  6 54  1  6  0  0  0
  6  7  1  0  0  0  0
  7  8  1  0  0  0  0
  7 12  1  0  0  0  0
  8  9  2  0  0  0  0
  8 55  1  0  0  0  0
  9 10  1  0  0  0  0
 10 11  2  0  0  0  0
 10 14  1  0  0  0  0
 11 12  1  0  0  0  0
 11 56  1  0  0  0  0
 12 13  2  0  0  0  0
 14 15  2  0  0  0  0
 14 20  1  0  0  0  0
 15 16  1  0  0  0  0
 15 57  1  0  0  0  0
 16 17  1  0  0  0  0
 16 18  2  0  0  0  0
 18 19  1  0  0  0  0
 18 58  1  0  0  0  0
 19 20  2  0  0  0  0
 19 59  1  0  0  0  0
 20 21  1  0  0  0  0
 21 22  1  0  0  0  0
 21 26  1  0  0  0  0
 22 23  2  0  0  0  0
 22 60  1  0  0  0  0
 23 24  1  0  0  0  0
 23 25  1  0  0  0  0
 25 26  2  0  0  0  0
 27 28  2  0  0  0  0
 27 32  1  0  0  0  0
 28 29  1  0  0  0  0
 28 61  1  0  0  0  0
 29 30  2  0  0  0  0
 29 33  1  0  0  0  0
 30 31  1  0  0  0  0
 30 62  1  0  0  0  0
 31 32  2  0  0  0  0
 31 63  1  0  0  0  0
 33 34  2  0  0  0  0
 33 40  1  0  0  0  0
 34 35  1  0  0  0  0
 34 38  1  0  0  0  0
 35 36  1  0  0  0  0
 35 64  1  0  0  0  0
 36 37  2  0  0  0  0
 38 39  2  0  0  0  0
 38 65  1  0  0  0  0
 39 40  1  0  0  0  0
 40 41  1  0  0  0  0
 41 42  1  0  0  0  0
 41 43  1  0  0  0  0
 41 66  1  0  0  0  0
M  END
>  <DRUGBANK_ID>
DB16233

>  <COMMON_NAME>
Milvexian

>  <CAS_NUMBER>
1802425-99-5

>  <UNII>
0W79NDQ608

>  <SYNONYMS>
Milvexian

$$$$
