AD1
 OpenBabel10282417163D

 22 23  0  0  0  0  0  0  0  0999 V2000
    2.4867    0.0327    0.0106 C   0  0  0  0  0  0  0  0  0  0  0  0
    1.5340    1.1474    0.0186 N   0  0  0  0  0  0  0  0  0  0  0  0
    2.0486    2.5003   -0.0039 C   0  0  0  0  0  0  0  0  0  0  0  0
    0.2211    0.7379   -0.0031 C   0  0  0  0  0  0  0  0  0  0  0  0
   -0.9047    1.4582   -0.0047 C   0  0  0  0  0  0  0  0  0  0  0  0
   -2.2144    0.7633   -0.0047 C   0  0  0  0  0  0  0  0  0  0  0  0
   -3.2602    1.3994    0.0023 O   0  0  0  0  0  0  0  0  0  0  0  0
   -2.2178   -0.7690   -0.0056 C   0  0  0  0  0  0  0  0  0  0  0  0
   -3.2570   -1.4142   -0.0002 O   0  0  0  0  0  0  0  0  0  0  0  0
   -0.9141   -1.4542   -0.0094 C   0  0  0  0  0  0  0  0  0  0  0  0
    0.1939   -0.7104   -0.0137 C   0  0  0  0  0  0  0  0  0  0  0  0
    1.6035   -1.2335    0.0058 C   0  0  2  0  0  0  0  0  0  0  0  0
    1.7994   -2.0132    1.1811 O   0  0  0  0  0  0  0  0  0  0  0  0
    1.8151   -1.8494   -0.8741 H   0  0  0  0  0  0  0  0  0  0  0  0
    3.1319    0.0714    0.8949 H   0  0  0  0  0  0  0  0  0  0  0  0
    3.1039    0.0692   -0.8936 H   0  0  0  0  0  0  0  0  0  0  0  0
    1.7132    3.0294   -0.9015 H   0  0  0  0  0  0  0  0  0  0  0  0
    1.7152    3.0509    0.8808 H   0  0  0  0  0  0  0  0  0  0  0  0
    3.1448    2.5055   -0.0058 H   0  0  0  0  0  0  0  0  0  0  0  0
   -0.9264    2.5391    0.0027 H   0  0  0  0  0  0  0  0  0  0  0  0
   -0.9023   -2.5363    0.0004 H   0  0  0  0  0  0  0  0  0  0  0  0
    1.3761   -1.5343    1.9161 H   0  0  0  0  0  0  0  0  0  0  0  0
  1  2  1  0  0  0  0
  1 12  1  0  0  0  0
  1 15  1  0  0  0  0
  1 16  1  0  0  0  0
  2  4  1  0  0  0  0
  3  2  1  0  0  0  0
  3 17  1  0  0  0  0
  3 18  1  0  0  0  0
  3 19  1  0  0  0  0
  4 11  1  0  0  0  0
  4  5  2  0  0  0  0
  5  6  1  0  0  0  0
  5 20  1  0  0  0  0
  6  8  1  0  0  0  0
  6  7  2  0  0  0  0
  8  9  2  0  0  0  0
 10  8  1  0  0  0  0
 10 21  1  0  0  0  0
 11 10  2  0  0  0  0
 12 11  1  0  0  0  0
 12 13  1  0  0  0  0
 12 14  1  6  0  0  0
 13 22  1  0  0  0  0
M  END
>  <DRUGBANK_ID>
DB07339

>  <COMMON_NAME>
(3S)-3-hydroxy-1-methyl-2,3-dihydro-1H-indole-5,6-dione

$$$$
