
 OpenBabel10282417153D

 50 54  0  0  0  0  0  0  0  0999 V2000
    5.0316    3.3158    0.9294 C   0  0  0  0  0  0  0  0  0  0  0  0
    5.7327    4.3101    1.6781 C   0  0  0  0  0  0  0  0  0  0  0  0
    5.7690    5.6729    1.0516 C   0  0  3  0  0  0  0  0  0  0  0  0
    4.8934    5.9352   -0.1718 C   0  0  0  0  0  0  0  0  0  0  0  0
    4.3363    4.8672   -0.8694 N   0  0  0  0  0  0  0  0  0  0  0  0
    4.3596    3.6385   -0.2227 C   0  0  0  0  0  0  0  0  0  0  0  0
    3.7238    2.4756   -0.5597 N   0  0  0  0  0  0  0  0  0  0  0  0
    4.2366    1.4706    0.2235 C   0  0  0  0  0  0  0  0  0  0  0  0
    4.9849    1.9739    1.1796 N   0  0  0  0  0  0  0  0  0  0  0  0
    6.3016    4.0739    2.7489 O   0  0  0  0  0  0  0  0  0  0  0  0
    4.7284    7.0987   -0.5579 O   0  0  0  0  0  0  0  0  0  0  0  0
    7.2347    5.9418    0.6780 C   0  0  0  0  0  0  0  0  0  0  0  0
    7.4947    7.3645    0.1904 C   0  0  0  0  0  0  0  0  0  0  0  0
    7.0178    8.3862    1.2114 C   0  0  0  0  0  0  0  0  0  0  0  0
    3.8686    0.0399    0.0354 C   0  0  1  0  0  0  0  0  0  0  0  0
    4.4620   -0.6267   -1.2452 C   0  0  0  0  0  0  0  0  0  0  0  0
    4.4535   -0.8465    1.1702 C   0  0  2  0  0  0  0  0  0  0  0  0
    5.8362   -1.2221    0.5928 C   0  0  0  0  0  0  0  0  0  0  0  0
    5.2307   -1.8462   -0.6737 C   0  0  1  0  0  0  0  0  0  0  0  0
    3.6843   -2.1534    1.1154 C   0  0  1  0  0  0  0  0  0  0  0  0
    4.1964   -2.8196   -0.1223 C   0  0  2  0  0  0  0  0  0  0  0  0
    4.4272   -3.3715    1.1784 O   0  0  0  0  0  0  0  0  0  0  0  0
    2.6438   -2.1270    1.3904 H   0  0  0  0  0  0  0  0  0  0  0  0
    3.5660   -3.3369   -0.8241 H   0  0  0  0  0  0  0  0  0  0  0  0
    5.9434   -2.3037   -1.3625 H   0  0  0  0  0  0  0  0  0  0  0  0
    4.4762   -0.3926    2.1631 H   0  0  0  0  0  0  0  0  0  0  0  0
    3.7520    5.1669   -2.1831 C   0  0  0  0  0  0  0  0  0  0  0  0
    4.4657    4.4950   -3.3662 C   0  0  0  0  0  0  0  0  0  0  0  0
    4.3908    2.9868   -3.3239 C   0  0  0  0  0  0  0  0  0  0  0  0
    5.3882    6.3375    1.8355 H   0  0  0  0  0  0  0  0  0  0  0  0
    3.0887    2.3229   -1.3246 H   0  0  0  0  0  0  0  0  0  0  0  0
    7.8760    5.7512    1.5483 H   0  0  0  0  0  0  0  0  0  0  0  0
    7.5546    5.2300   -0.0958 H   0  0  0  0  0  0  0  0  0  0  0  0
    8.5655    7.4912    0.0035 H   0  0  0  0  0  0  0  0  0  0  0  0
    7.0114    7.5351   -0.7778 H   0  0  0  0  0  0  0  0  0  0  0  0
    7.5618    8.2558    2.1513 H   0  0  0  0  0  0  0  0  0  0  0  0
    7.1688    9.4007    0.8411 H   0  0  0  0  0  0  0  0  0  0  0  0
    5.9504    8.2908    1.4339 H   0  0  0  0  0  0  0  0  0  0  0  0
    2.7738   -0.0236    0.0084 H   0  0  0  0  0  0  0  0  0  0  0  0
    3.6638   -0.9500   -1.9241 H   0  0  0  0  0  0  0  0  0  0  0  0
    5.1368    0.0365   -1.7987 H   0  0  0  0  0  0  0  0  0  0  0  0
    6.3766   -1.9421    1.2162 H   0  0  0  0  0  0  0  0  0  0  0  0
    6.4890   -0.3674    0.3866 H   0  0  0  0  0  0  0  0  0  0  0  0
    2.6829    4.9415   -2.1465 H   0  0  0  0  0  0  0  0  0  0  0  0
    3.8218    6.2450   -2.3870 H   0  0  0  0  0  0  0  0  0  0  0  0
    3.9985    4.8362   -4.2970 H   0  0  0  0  0  0  0  0  0  0  0  0
    5.5185    4.7991   -3.3968 H   0  0  0  0  0  0  0  0  0  0  0  0
    3.3484    2.6794   -3.1954 H   0  0  0  0  0  0  0  0  0  0  0  0
    4.7717    2.5021   -4.2203 H   0  0  0  0  0  0  0  0  0  0  0  0
    5.0243    2.6177   -2.5159 H   0  0  0  0  0  0  0  0  0  0  0  0
  1  2  1  0  0  0  0
  1  6  2  0  0  0  0
  1  9  1  0  0  0  0
  2  3  1  0  0  0  0
  2 10  2  0  0  0  0
  3  4  1  0  0  0  0
  3 12  1  0  0  0  0
  3 30  1  0  0  0  0
  4  5  1  0  0  0  0
  4 11  2  0  0  0  0
  5  6  1  0  0  0  0
  5 27  1  0  0  0  0
  6  7  1  0  0  0  0
  7  8  1  0  0  0  0
  7 31  1  0  0  0  0
  8  9  2  0  0  0  0
 12 13  1  0  0  0  0
 12 32  1  0  0  0  0
 12 33  1  0  0  0  0
 13 14  1  0  0  0  0
 13 34  1  0  0  0  0
 13 35  1  0  0  0  0
 14 36  1  0  0  0  0
 14 37  1  0  0  0  0
 14 38  1  0  0  0  0
 15 17  1  0  0  0  0
 15 39  1  6  0  0  0
 15  8  1  0  0  0  0
 16 15  1  0  0  0  0
 16 19  1  0  0  0  0
 16 40  1  0  0  0  0
 16 41  1  0  0  0  0
 17 18  1  0  0  0  0
 17 20  1  0  0  0  0
 17 26  1  1  0  0  0
 18 19  1  0  0  0  0
 18 42  1  0  0  0  0
 18 43  1  0  0  0  0
 19 25  1  6  0  0  0
 20 22  1  0  0  0  0
 20 23  1  1  0  0  0
 21 19  1  0  0  0  0
 21 20  1  0  0  0  0
 21 24  1  6  0  0  0
 22 21  1  0  0  0  0
 27 28  1  0  0  0  0
 27 44  1  0  0  0  0
 27 45  1  0  0  0  0
 28 29  1  0  0  0  0
 28 46  1  0  0  0  0
 28 47  1  0  0  0  0
 29 48  1  0  0  0  0
 29 49  1  0  0  0  0
 29 50  1  0  0  0  0
M  END
>  <DRUGBANK_ID>
DB06471

>  <COMMON_NAME>
Naxifylline

>  <CAS_NUMBER>
166374-49-8

>  <UNII>
B3G45WC37L

>  <SYNONYMS>
8-((2S,5,6-exo)-5,6-epoxy-2-norbonyl)-1,3-dipropylxanthine; Naxifylline

$$$$
