
 OpenBabel10282417143D

 42 44  0  0  1  0  0  0  0  0999 V2000
   11.0395   -3.2837    5.8844 C   0  0  0  0  0  0  0  0  0  0  0  0
    9.5308   -2.2354    4.1980 C   0  0  0  0  0  0  0  0  0  0  0  0
   11.4859   -2.0598    6.2370 C   0  0  0  0  0  0  0  0  0  0  0  0
    9.9497   -1.0117    4.5366 C   0  0  0  0  0  0  0  0  0  0  0  0
    9.1725   -4.5822    4.8132 C   0  0  0  0  0  0  0  0  0  0  0  0
    4.0495   -4.2752    1.5181 C   0  0  0  0  0  0  0  0  0  0  0  0
    1.6669   -4.3981    0.3888 C   0  0  0  0  0  0  0  0  0  0  0  0
    7.0897   -4.8008    0.3814 C   0  0  0  0  0  0  0  0  0  0  0  0
    2.1506   -5.3297   -1.4636 C   0  0  0  0  0  0  0  0  0  0  0  0
    9.8770   -3.4223    4.9807 C   0  0  0  0  0  0  0  0  0  0  0  0
    3.0241   -4.6395    0.4641 C   0  0  0  0  0  0  0  0  0  0  0  0
   10.8295   -0.8385    5.7042 C   0  0  0  0  0  0  0  0  0  0  0  0
    4.7392   -5.4598    2.2816 C   0  0  1  0  0  0  0  0  0  0  0  0
    8.1436   -4.8117    3.8011 C   0  0  0  0  0  0  0  0  0  0  0  0
    6.7177   -6.1272   -0.2326 C   0  0  0  0  0  0  0  0  0  0  0  0
    6.2170   -5.1442    2.7590 C   0  0  0  0  0  0  0  0  0  0  0  0
    8.3975   -4.6472    2.4595 C   0  0  0  0  0  0  0  0  0  0  0  0
    3.8368   -5.8624    3.3831 N   0  0  0  0  0  0  0  0  0  0  0  0
    1.1355   -4.8150   -0.8078 N   0  0  0  0  0  0  0  0  0  0  0  0
    3.3112   -5.2451   -0.7422 N   0  0  0  0  0  0  0  0  0  0  0  0
    6.7858   -5.1326    3.9892 N   0  0  0  0  0  0  0  0  0  0  0  0
    7.2115   -4.8871    1.8196 N   0  0  0  0  0  0  0  0  0  0  0  0
   11.0421    0.2765    6.1837 O   0  0  0  0  0  0  0  0  0  0  0  0
    5.6921   -6.0828   -0.9770 O   0  0  0  0  0  0  0  0  0  0  0  0
    7.4410   -7.1183    0.0454 O   0  5  0  0  0  0  0  0  0  0  0  0
    9.4828   -4.2799    1.7794 O   0  0  0  0  0  0  0  0  0  0  0  0
    4.7982   -6.3298    1.6167 H   0  0  0  0  0  0  0  0  0  0  0  0
   11.5657   -4.1611    6.2513 H   0  0  0  0  0  0  0  0  0  0  0  0
    8.8879   -2.3252    3.3327 H   0  0  0  0  0  0  0  0  0  0  0  0
   12.3255   -1.8866    6.9017 H   0  0  0  0  0  0  0  0  0  0  0  0
    9.6460   -0.1352    3.9823 H   0  0  0  0  0  0  0  0  0  0  0  0
    9.4621   -5.4540    5.4001 H   0  0  0  0  0  0  0  0  0  0  0  0
    3.5522   -3.6177    2.2439 H   0  0  0  0  0  0  0  0  0  0  0  0
    4.7732   -3.6115    1.0474 H   0  0  0  0  0  0  0  0  0  0  0  0
    1.0498   -3.9220    1.1362 H   0  0  0  0  0  0  0  0  0  0  0  0
    6.3978   -3.9944    0.1429 H   0  0  0  0  0  0  0  0  0  0  0  0
    8.0431   -4.4833   -0.0456 H   0  0  0  0  0  0  0  0  0  0  0  0
    2.1164   -5.7764   -2.4496 H   0  0  0  0  0  0  0  0  0  0  0  0
    4.2370   -6.6804    3.8338 H   0  0  0  0  0  0  0  0  0  0  0  0
    3.8192   -5.1178    4.0725 H   0  0  0  0  0  0  0  0  0  0  0  0
    4.2229   -5.5968   -1.0486 H   0  0  0  0  0  0  0  0  0  0  0  0
   10.2167   -4.2156    2.4116 H   0  0  0  0  0  0  0  0  0  0  0  0
  1 28  1  0  0  0  0
  2 29  1  0  0  0  0
  3  1  2  0  0  0  0
  3 30  1  0  0  0  0
  4  2  2  0  0  0  0
  4 31  1  0  0  0  0
  5 32  1  0  0  0  0
  6 33  1  0  0  0  0
  6 34  1  0  0  0  0
  7 35  1  0  0  0  0
  8 36  1  0  0  0  0
  8 37  1  0  0  0  0
  9 38  1  0  0  0  0
 10  1  1  0  0  0  0
 10  2  1  0  0  0  0
 10  5  2  0  0  0  0
 11  6  1  0  0  0  0
 11  7  2  0  0  0  0
 12  3  1  0  0  0  0
 12  4  1  0  0  0  0
 13 18  1  0  0  0  0
 13 27  1  6  0  0  0
 13 16  1  0  0  0  0
 13  6  1  0  0  0  0
 14  5  1  0  0  0  0
 15  8  1  0  0  0  0
 17 14  2  0  0  0  0
 18 39  1  0  0  0  0
 18 40  1  0  0  0  0
 19  7  1  0  0  0  0
 19  9  2  0  0  0  0
 20  9  1  0  0  0  0
 20 11  1  0  0  0  0
 20 41  1  0  0  0  0
 21 14  1  0  0  0  0
 21 16  2  0  0  0  0
 22  8  1  0  0  0  0
 22 16  1  0  0  0  0
 22 17  1  0  0  0  0
 23 12  2  0  0  0  0
 24 15  2  0  0  0  0
 25 15  1  0  0  0  0
 26 17  1  0  0  0  0
 26 42  1  0  0  0  0
M  CHG  1  25  -1
M  END
>  <DRUGBANK_ID>
DB04667

>  <COMMON_NAME>
CHROMOPHORE (HIS-TYR-GLY)

$$$$
