4813
 OpenBabel10282417143D

 25 26  0  0  0  0  0  0  0  0999 V2000
   -2.2551   -1.3921   -0.0004 Cl  0  0  0  0  0  0  0  0  0  0  0  0
    3.2538    7.2151    2.3371 Cl  0  0  0  0  0  0  0  0  0  0  0  0
    3.0392   -0.5323    0.0166 Cl  0  0  0  0  0  0  0  0  0  0  0  0
    4.4535    4.8131   -2.3083 Cl  0  0  0  0  0  0  0  0  0  0  0  0
   -0.3822    3.7785    0.0271 S   0  0  0  0  0  0  0  0  0  0  0  0
   -2.4430    1.5698   -0.0150 O   0  0  0  0  0  0  0  0  0  0  0  0
    0.7118    5.6839    2.1360 O   0  0  0  0  0  0  0  0  0  0  0  0
   -0.0574    2.0093    0.0222 C   0  0  0  0  0  0  0  0  0  0  0  0
    1.2105    4.6006    0.0337 C   0  0  0  0  0  0  0  0  0  0  0  0
   -1.1473    1.1116    0.0030 C   0  0  0  0  0  0  0  0  0  0  0  0
    1.5642    5.4697    1.0818 C   0  0  0  0  0  0  0  0  0  0  0  0
    1.2325    1.4670    0.0467 C   0  0  0  0  0  0  0  0  0  0  0  0
    2.1033    4.4403   -1.0349 C   0  0  0  0  0  0  0  0  0  0  0  0
   -0.9364   -0.2762    0.0069 C   0  0  0  0  0  0  0  0  0  0  0  0
    2.7974    6.1364    1.0679 C   0  0  0  0  0  0  0  0  0  0  0  0
    1.4332    0.0859    0.0281 C   0  0  0  0  0  0  0  0  0  0  0  0
    3.3410    5.0869   -1.0245 C   0  0  0  0  0  0  0  0  0  0  0  0
    0.3563   -0.7920    0.0157 C   0  0  0  0  0  0  0  0  0  0  0  0
    3.6920    5.9397    0.0178 C   0  0  0  0  0  0  0  0  0  0  0  0
   -2.4281    2.5424   -0.0424 H   0  0  0  0  0  0  0  0  0  0  0  0
   -0.0971    5.1632    1.9882 H   0  0  0  0  0  0  0  0  0  0  0  0
    2.1146    2.0969    0.0829 H   0  0  0  0  0  0  0  0  0  0  0  0
    1.8518    3.7903   -1.8710 H   0  0  0  0  0  0  0  0  0  0  0  0
    0.5234   -1.8648    0.0159 H   0  0  0  0  0  0  0  0  0  0  0  0
    4.6518    6.4493    0.0117 H   0  0  0  0  0  0  0  0  0  0  0  0
  1 14  1  0  0  0  0
  2 15  1  0  0  0  0
  3 16  1  0  0  0  0
  4 17  1  0  0  0  0
  5  8  1  0  0  0  0
  5  9  1  0  0  0  0
  6 10  1  0  0  0  0
  6 20  1  0  0  0  0
  7 11  1  0  0  0  0
  7 21  1  0  0  0  0
  8 10  2  0  0  0  0
  8 12  1  0  0  0  0
  9 11  2  0  0  0  0
  9 13  1  0  0  0  0
 10 14  1  0  0  0  0
 11 15  1  0  0  0  0
 12 16  2  0  0  0  0
 12 22  1  0  0  0  0
 13 17  2  0  0  0  0
 13 23  1  0  0  0  0
 14 18  2  0  0  0  0
 15 19  2  0  0  0  0
 16 18  1  0  0  0  0
 17 19  1  0  0  0  0
 18 24  1  0  0  0  0
 19 25  1  0  0  0  0
M  END
>  <DRUGBANK_ID>
DB04813

>  <COMMON_NAME>
Bithionol

>  <CAS_NUMBER>
97-18-7

>  <UNII>
AMT77LS62O

>  <SYNONYMS>
2-Hydroxy-3,5-dichlorophenyl sulfide; 2-Hydroxy-3,5-dichlorophenyl sulphide; 2,2'-Dihydroxy-3,3',5,5'-tetrachlorodiphenyl sulfide; 2,2'-Dihydroxy-3,3',5,5'-tetrachlorodiphenylsulfide; 2,2'-sulfanediylbis(4,6-dichlorophenol); 2,2'-Thiobis(4,6-dichlorophenol); Bis(3,5-dichloro-2-hydroxyphenyl) sulfide; Bithionol; Bithionol sulfide; Bithionolate; Bithionolum; Bitionol

$$$$
