
 OpenBabel10282417123D

 52 53  0  0  0  0  0  0  0  0999 V2000
   -2.1010    3.4119    1.7201 P   0  0  0  0  0  0  0  0  0  0  0  0
   -0.9803    1.4117   -0.3380 O   0  0  0  0  0  0  0  0  0  0  0  0
   -2.4227    2.0072   -3.5154 O   0  0  0  0  0  0  0  0  0  0  0  0
   -0.5547    3.7937   -2.9957 O   0  0  0  0  0  0  0  0  0  0  0  0
   -0.5215    3.2288    1.6108 O   0  0  0  0  0  0  0  0  0  0  0  0
   -0.5116    0.0320   -2.6192 O   0  0  0  0  0  0  0  0  0  0  0  0
   -4.4873   -1.3288   -0.8797 O   0  0  0  0  0  0  0  0  0  0  0  0
   -2.5678    3.1733    3.2106 O   0  0  0  0  0  0  0  0  0  0  0  0
   -2.6694    2.0378    1.1937 O   0  0  0  0  0  0  0  0  0  0  0  0
   -2.7099    4.6609    1.1999 O   0  0  0  0  0  0  0  0  0  0  0  0
    2.6588   -3.5661   -1.5112 O   0  0  0  0  0  0  0  0  0  0  0  0
    2.4318   -0.4723   -2.5183 O   0  0  0  0  0  0  0  0  0  0  0  0
    2.4679   -1.6880   -4.4027 O   0  0  0  0  0  0  0  0  0  0  0  0
    0.2147   -4.3378   -0.5107 O   0  0  0  0  0  0  0  0  0  0  0  0
   -3.2446    0.5802   -0.6628 N   0  0  0  0  0  0  0  0  0  0  0  0
   -2.3246   -1.1372   -1.6565 N   0  0  0  0  0  0  0  0  0  0  0  0
    1.5328   -3.7686   -2.4128 N   0  0  0  0  0  0  0  0  0  0  0  0
   -2.0766    1.1478   -1.2534 C   0  0  1  0  0  0  0  0  0  0  0  0
   -2.3270    2.3467   -2.1362 C   0  0  1  0  0  0  0  0  0  0  0  0
   -1.1905    3.3062   -1.8178 C   0  0  1  0  0  0  0  0  0  0  0  0
   -0.2779    2.5837   -0.8133 C   0  0  1  0  0  0  0  0  0  0  0  0
   -1.5492   -0.0560   -1.9719 C   0  0  0  0  0  0  0  0  0  0  0  0
    0.1149    3.5175    0.3644 C   0  0  0  0  0  0  0  0  0  0  0  0
   -3.4692   -0.7120   -1.0542 C   0  0  0  0  0  0  0  0  0  0  0  0
   -1.9286   -2.5185   -1.6033 C   0  0  0  0  0  0  0  0  0  0  0  0
   -1.6146   -3.0585   -2.9811 C   0  0  0  0  0  0  0  0  0  0  0  0
   -0.3153   -2.4954   -3.5743 C   0  0  0  0  0  0  0  0  0  0  0  0
    0.9232   -2.4267   -2.6325 C   0  0  2  0  0  0  0  0  0  0  0  0
    1.9817   -1.4970   -3.2954 C   0  0  0  0  0  0  0  0  0  0  0  0
    0.6842   -4.7664   -1.7724 C   0  0  0  0  0  0  0  0  0  0  0  0
   -3.8715    1.0737   -0.0406 H   0  0  0  0  0  0  0  0  0  0  0  0
   -1.5212    1.7664   -3.8092 H   0  0  0  0  0  0  0  0  0  0  0  0
    0.3394    3.4361   -3.1163 H   0  0  0  0  0  0  0  0  0  0  0  0
   -3.3911    3.7043    3.2280 H   0  0  0  0  0  0  0  0  0  0  0  0
   -2.0743    1.3477    1.5722 H   0  0  0  0  0  0  0  0  0  0  0  0
    3.3742   -3.3626   -2.1511 H   0  0  0  0  0  0  0  0  0  0  0  0
    1.9886   -0.3739   -1.6555 H   0  0  0  0  0  0  0  0  0  0  0  0
    1.0276   -4.1342   -0.0192 H   0  0  0  0  0  0  0  0  0  0  0  0
   -3.2737    2.8172   -1.8440 H   0  0  0  0  0  0  0  0  0  0  0  0
   -1.6298    4.1817   -1.3331 H   0  0  0  0  0  0  0  0  0  0  0  0
    0.6459    2.2579   -1.3190 H   0  0  0  0  0  0  0  0  0  0  0  0
   -0.0631    4.5671    0.1045 H   0  0  0  0  0  0  0  0  0  0  0  0
    1.1953    3.4484    0.5401 H   0  0  0  0  0  0  0  0  0  0  0  0
   -1.0812   -2.5352   -0.9155 H   0  0  0  0  0  0  0  0  0  0  0  0
   -2.6908   -3.1331   -1.1065 H   0  0  0  0  0  0  0  0  0  0  0  0
   -1.6090   -4.1457   -2.9634 H   0  0  0  0  0  0  0  0  0  0  0  0
   -2.4524   -2.8309   -3.6478 H   0  0  0  0  0  0  0  0  0  0  0  0
   -0.0558   -3.0257   -4.4940 H   0  0  0  0  0  0  0  0  0  0  0  0
   -0.5619   -1.5103   -3.9741 H   0  0  0  0  0  0  0  0  0  0  0  0
    0.6946   -1.9699   -1.6614 H   0  0  0  0  0  0  0  0  0  0  0  0
   -0.1553   -5.0578   -2.3954 H   0  0  0  0  0  0  0  0  0  0  0  0
    1.2092   -5.7135   -1.6309 H   0  0  0  0  0  0  0  0  0  0  0  0
  1  5  1  0  0  0  0
  1  8  1  0  0  0  0
  1  9  1  0  0  0  0
  1 10  2  0  0  0  0
  2 21  1  0  0  0  0
  3 32  1  0  0  0  0
  4 33  1  0  0  0  0
  5 23  1  0  0  0  0
  6 22  2  0  0  0  0
  7 24  2  0  0  0  0
  8 34  1  0  0  0  0
  9 35  1  0  0  0  0
 11 17  1  0  0  0  0
 11 36  1  0  0  0  0
 12 29  1  0  0  0  0
 12 37  1  0  0  0  0
 13 29  2  0  0  0  0
 14 30  1  0  0  0  0
 14 38  1  0  0  0  0
 15 24  1  0  0  0  0
 15 31  1  0  0  0  0
 16 22  1  0  0  0  0
 16 24  1  0  0  0  0
 16 25  1  0  0  0  0
 17 30  1  0  0  0  0
 18  2  1  1  0  0  0
 18 15  1  0  0  0  0
 18 19  1  0  0  0  0
 18 22  1  0  0  0  0
 19  3  1  0  0  0  0
 19 20  1  0  0  0  0
 19 39  1  1  0  0  0
 20 21  1  0  0  0  0
 20 40  1  1  0  0  0
 20  4  1  0  0  0  0
 21 41  1  6  0  0  0
 21 23  1  0  0  0  0
 23 42  1  0  0  0  0
 23 43  1  0  0  0  0
 25 26  1  0  0  0  0
 25 44  1  0  0  0  0
 25 45  1  0  0  0  0
 26 27  1  0  0  0  0
 26 46  1  0  0  0  0
 26 47  1  0  0  0  0
 27 28  1  0  0  0  0
 27 48  1  0  0  0  0
 27 49  1  0  0  0  0
 28 17  1  0  0  0  0
 28 29  1  0  0  0  0
 28 50  1  1  0  0  0
 30 51  1  0  0  0  0
 30 52  1  0  0  0  0
M  END
>  <DRUGBANK_ID>
DB02666

>  <SECONDARY_ACCESSION_NUMBERS>
EXPT02810

>  <COMMON_NAME>
(C8-R)-hydantocidin 5'-phosphate

$$$$
