
 OpenBabel10282417183D

 54 57  0  0  1  0  0  0  0  0999 V2000
    1.0358    0.0350   -0.0330 C   0  0  0  0  0  0  0  0  0  0  0  0
    0.5801   -0.5982   -1.3369 C   0  0  0  0  0  0  0  0  0  0  0  0
    1.1083   -1.9972   -1.4393 C   0  0  0  0  0  0  0  0  0  0  0  0
    2.4798   -2.2656   -1.3034 C   0  0  0  0  0  0  0  0  0  0  0  0
    2.9681   -3.5650   -1.3258 C   0  0  0  0  0  0  0  0  0  0  0  0
    2.0995   -4.6195   -1.5654 C   0  0  0  0  0  0  0  0  0  0  0  0
    0.7166   -4.3369   -1.6648 C   0  0  0  0  0  0  0  0  0  0  0  0
    0.2235   -3.0453   -1.6266 C   0  0  0  0  0  0  0  0  0  0  0  0
    2.6850   -6.0150   -1.7179 C   0  0  0  0  0  0  0  0  0  0  0  0
    2.1744   -6.8986   -0.6303 C   0  0  0  0  0  0  0  0  0  0  0  0
    0.7699   -7.1359   -0.7521 C   0  0  0  0  0  0  0  0  0  0  0  0
    0.0302   -7.4286    0.3326 C   0  0  0  0  0  0  0  0  0  0  0  0
    0.8391   -7.6819    1.3695 C   0  0  0  0  0  0  0  0  0  0  0  0
    2.2737   -7.5762    1.6055 C   0  0  0  0  0  0  0  0  0  0  0  0
    2.9826   -7.2056    0.5021 C   0  0  0  0  0  0  0  0  0  0  0  0
    2.5362   -8.1534    3.0109 C   0  0  1  0  0  0  0  0  0  0  0  0
    1.9222   -7.0683    3.9879 C   0  0  1  0  0  0  0  0  0  0  0  0
    0.5556   -7.5181    4.4924 C   0  0  2  0  0  0  0  0  0  0  0  0
    0.5445   -9.1748    4.8003 C   0  0  1  0  0  0  0  0  0  0  0  0
    1.6977  -10.2106    4.0869 C   0  0  2  0  0  0  0  0  0  0  0  0
    2.9300   -9.3110    3.8172 O   0  0  0  0  0  0  0  0  0  0  0  0
    1.4706  -11.2221    2.6501 C   0  0  0  0  0  0  0  0  0  0  0  0
    2.7594  -11.6774    2.2079 O   0  0  0  0  0  0  0  0  0  0  0  0
    0.7971   -9.2311    6.2275 O   0  0  0  0  0  0  0  0  0  0  0  0
   -0.4847   -6.7852    3.7868 O   0  0  0  0  0  0  0  0  0  0  0  0
    2.6909   -6.7111    5.1598 O   0  0  0  0  0  0  0  0  0  0  0  0
    1.7086   -9.0715    2.3091 O   0  0  0  0  0  0  0  0  0  0  0  0
    0.3685   -8.8246    2.0813 C   0  0  0  0  0  0  0  0  0  0  0  0
    0.6890   -0.5538    0.8246 H   0  0  0  0  0  0  0  0  0  0  0  0
    0.6462    1.0498    0.0545 H   0  0  0  0  0  0  0  0  0  0  0  0
    2.1276    0.0887    0.0283 H   0  0  0  0  0  0  0  0  0  0  0  0
   -0.5174   -0.6038   -1.3638 H   0  0  0  0  0  0  0  0  0  0  0  0
    0.9213   -0.0257   -2.2053 H   0  0  0  0  0  0  0  0  0  0  0  0
    3.1885   -1.4554   -1.1698 H   0  0  0  0  0  0  0  0  0  0  0  0
    4.0258   -3.7480   -1.1627 H   0  0  0  0  0  0  0  0  0  0  0  0
   -0.0483   -5.0954   -1.7562 H   0  0  0  0  0  0  0  0  0  0  0  0
   -0.8460   -2.8832   -1.7426 H   0  0  0  0  0  0  0  0  0  0  0  0
    2.3936   -6.4368   -2.6831 H   0  0  0  0  0  0  0  0  0  0  0  0
    3.7769   -6.0011   -1.6713 H   0  0  0  0  0  0  0  0  0  0  0  0
    0.2090   -7.0038   -1.6599 H   0  0  0  0  0  0  0  0  0  0  0  0
   -1.0053   -7.7263    0.3378 H   0  0  0  0  0  0  0  0  0  0  0  0
    4.0663   -7.1934    0.4562 H   0  0  0  0  0  0  0  0  0  0  0  0
    1.8812   -6.1149    3.4404 H   0  0  0  0  0  0  0  0  0  0  0  0
    0.3686   -7.0509    5.4632 H   0  0  0  0  0  0  0  0  0  0  0  0
   -0.4661   -9.5855    4.6833 H   0  0  0  0  0  0  0  0  0  0  0  0
    1.9635  -10.9720    4.8286 H   0  0  0  0  0  0  0  0  0  0  0  0
    0.6763  -11.9713    2.7075 H   0  0  0  0  0  0  0  0  0  0  0  0
    1.1899  -10.8074    1.6679 H   0  0  0  0  0  0  0  0  0  0  0  0
    3.1843  -10.8358    1.9129 H   0  0  0  0  0  0  0  0  0  0  0  0
    1.5430   -8.6236    6.4055 H   0  0  0  0  0  0  0  0  0  0  0  0
   -0.8469   -7.1503    2.9667 H   0  0  0  0  0  0  0  0  0  0  0  0
    2.1709   -5.9988    5.5951 H   0  0  0  0  0  0  0  0  0  0  0  0
   -0.2858   -8.7823    2.9095 H   0  0  0  0  0  0  0  0  0  0  0  0
   -0.0906   -9.5783    1.4502 H   0  0  0  0  0  0  0  0  0  0  0  0
  1  2  1  0  0  0  0
  1 29  1  0  0  0  0
  1 30  1  0  0  0  0
  1 31  1  0  0  0  0
  2  3  1  0  0  0  0
  2 32  1  0  0  0  0
  2 33  1  0  0  0  0
  3  4  2  0  0  0  0
  3  8  1  0  0  0  0
  4  5  1  0  0  0  0
  4 34  1  0  0  0  0
  5  6  2  0  0  0  0
  5 35  1  0  0  0  0
  6  7  1  0  0  0  0
  6  9  1  0  0  0  0
  7  8  2  0  0  0  0
  7 36  1  0  0  0  0
  8 37  1  0  0  0  0
  9 38  1  0  0  0  0
  9 39  1  0  0  0  0
  9 10  1  0  0  0  0
 10 11  2  0  0  0  0
 10 15  1  0  0  0  0
 11 12  1  0  0  0  0
 11 40  1  0  0  0  0
 12 13  2  0  0  0  0
 12 41  1  0  0  0  0
 13 14  1  0  0  0  0
 13 28  1  0  0  0  0
 14 15  2  0  0  0  0
 15 42  1  0  0  0  0
 16 14  1  1  0  0  0
 16 17  1  0  0  0  0
 16 21  1  0  0  0  0
 16 27  1  0  0  0  0
 17 18  1  0  0  0  0
 17 26  1  0  0  0  0
 17 43  1  6  0  0  0
 18 19  1  0  0  0  0
 18 44  1  1  0  0  0
 18 25  1  0  0  0  0
 19 20  1  0  0  0  0
 19 24  1  0  0  0  0
 19 45  1  6  0  0  0
 20 21  1  0  0  0  0
 20 46  1  1  0  0  0
 20 22  1  0  0  0  0
 22 23  1  0  0  0  0
 22 47  1  0  0  0  0
 22 48  1  0  0  0  0
 23 49  1  0  0  0  0
 24 50  1  0  0  0  0
 25 51  1  0  0  0  0
 26 52  1  0  0  0  0
 27 28  1  0  0  0  0
 28 53  1  0  0  0  0
 28 54  1  0  0  0  0
M  END
>  <DRUGBANK_ID>
DB11824

>  <COMMON_NAME>
Tofogliflozin

>  <CAS_NUMBER>
903565-83-3

>  <UNII>
554245W62T

>  <SYNONYMS>
Tofogliflozin; Tofogliflozin anhydrous

$$$$
