
 OpenBabel10282417183D

 21 20  0  0  0  0  0  0  0  0999 V2000
    0.9615   -0.0661   -0.0973 N   0  3  0  0  0  0  0  0  0  0  0  0
    0.3506    1.4351    2.4706 O   0  0  0  0  0  0  0  0  0  0  0  0
    0.4346   -0.6603    1.2395 C   0  0  0  0  0  0  0  0  0  0  0  0
    0.8713    0.1133    2.4945 C   0  0  0  0  0  0  0  0  0  0  0  0
    0.4347    1.3515   -0.3216 C   0  0  0  0  0  0  0  0  0  0  0  0
    0.4386   -0.9464   -1.2307 C   0  0  0  0  0  0  0  0  0  0  0  0
    2.4800   -0.0578   -0.1452 C   0  0  0  0  0  0  0  0  0  0  0  0
    1.0051    2.0255    2.8959 H   0  0  0  0  0  0  0  0  0  0  0  0
   -0.6593   -0.6635    1.1600 H   0  0  0  0  0  0  0  0  0  0  0  0
    0.7944   -1.6950    1.2883 H   0  0  0  0  0  0  0  0  0  0  0  0
    0.4825   -0.3910    3.3845 H   0  0  0  0  0  0  0  0  0  0  0  0
    1.9590    0.1564    2.5857 H   0  0  0  0  0  0  0  0  0  0  0  0
    0.6406    1.6333   -1.3586 H   0  0  0  0  0  0  0  0  0  0  0  0
   -0.6425    1.3591   -0.1333 H   0  0  0  0  0  0  0  0  0  0  0  0
    0.9673    2.0434    0.3341 H   0  0  0  0  0  0  0  0  0  0  0  0
    0.8026   -0.5433   -2.1806 H   0  0  0  0  0  0  0  0  0  0  0  0
    0.8147   -1.9624   -1.0802 H   0  0  0  0  0  0  0  0  0  0  0  0
   -0.6549   -0.9316   -1.2030 H   0  0  0  0  0  0  0  0  0  0  0  0
    2.8592    0.6118    0.6307 H   0  0  0  0  0  0  0  0  0  0  0  0
    2.8374   -1.0784    0.0178 H   0  0  0  0  0  0  0  0  0  0  0  0
    2.7928    0.3064   -1.1283 H   0  0  0  0  0  0  0  0  0  0  0  0
  1  5  1  0  0  0  0
  1  6  1  0  0  0  0
  1  7  1  0  0  0  0
  2  4  1  0  0  0  0
  2  8  1  0  0  0  0
  3  1  1  0  0  0  0
  3  9  1  0  0  0  0
  3 10  1  0  0  0  0
  4  3  1  0  0  0  0
  4 11  1  0  0  0  0
  4 12  1  0  0  0  0
  5 13  1  0  0  0  0
  5 14  1  0  0  0  0
  5 15  1  0  0  0  0
  6 16  1  0  0  0  0
  6 17  1  0  0  0  0
  6 18  1  0  0  0  0
  7 19  1  0  0  0  0
  7 20  1  0  0  0  0
  7 21  1  0  0  0  0
M  ISO  1   7  11
M  CHG  1   1   1
M  END
>  <DRUGBANK_ID>
DB09563

>  <COMMON_NAME>
Choline C-11

>  <CAS_NUMBER>
94793-58-5

>  <UNII>
M4AS4XGD4Q

>  <SYNONYMS>
(11)C-choline; Choline C11

$$$$
