PTU
 OpenBabel10282417133D

 24 24  0  0  0  0  0  0  0  0999 V2000
    0.9855    0.1118   -0.1489 N   0  0  0  0  0  0  0  0  0  0  0  0
    0.4122   -0.9051   -0.8512 C   0  0  0  0  0  0  0  0  0  0  0  0
   -1.3433   -1.0281   -0.8552 S   0  0  0  0  0  0  0  0  0  0  0  0
    1.0395   -1.8223   -1.5146 N   0  0  0  0  0  0  0  0  0  0  0  0
    2.4471   -1.8998   -1.4531 C   0  0  0  0  0  0  0  0  0  0  0  0
    3.1027   -1.9070   -0.2132 C   0  0  0  0  0  0  0  0  0  0  0  0
    4.4905   -1.8741   -0.1255 C   0  0  0  0  0  0  0  0  0  0  0  0
    5.2504   -1.9695   -1.2841 C   0  0  0  0  0  0  0  0  0  0  0  0
    4.6166   -2.0880   -2.5222 C   0  0  0  0  0  0  0  0  0  0  0  0
    3.2193   -2.0128   -2.6109 C   0  0  0  0  0  0  0  0  0  0  0  0
   -1.9558    0.2760    0.2422 C   0  0  0  0  0  0  0  0  0  0  0  0
   -1.5887    0.0724    1.7057 C   0  0  0  0  0  0  0  0  0  0  0  0
    0.4752    0.8051    0.3599 H   0  0  0  0  0  0  0  0  0  0  0  0
    1.9906    0.1997   -0.1507 H   0  0  0  0  0  0  0  0  0  0  0  0
    2.5141   -1.8886    0.7002 H   0  0  0  0  0  0  0  0  0  0  0  0
    4.9642   -1.7858    0.8472 H   0  0  0  0  0  0  0  0  0  0  0  0
    6.3350   -1.9669   -1.2190 H   0  0  0  0  0  0  0  0  0  0  0  0
    5.2141   -2.2363   -3.4183 H   0  0  0  0  0  0  0  0  0  0  0  0
    2.7409   -2.0463   -3.5868 H   0  0  0  0  0  0  0  0  0  0  0  0
   -1.6268    1.2547   -0.1222 H   0  0  0  0  0  0  0  0  0  0  0  0
   -3.0503    0.2744    0.1684 H   0  0  0  0  0  0  0  0  0  0  0  0
   -0.5125    0.0587    1.8876 H   0  0  0  0  0  0  0  0  0  0  0  0
   -1.9938    0.8941    2.3060 H   0  0  0  0  0  0  0  0  0  0  0  0
   -1.9969   -0.8652    2.0931 H   0  0  0  0  0  0  0  0  0  0  0  0
  1  2  1  0  0  0  0
  1 13  1  0  0  0  0
  1 14  1  0  0  0  0
  2  3  1  0  0  0  0
  2  4  2  0  0  0  0
  3 11  1  0  0  0  0
  4  5  1  0  0  0  0
  5  6  2  0  0  0  0
  5 10  1  0  0  0  0
  6  7  1  0  0  0  0
  6 15  1  0  0  0  0
  7  8  2  0  0  0  0
  7 16  1  0  0  0  0
  8  9  1  0  0  0  0
  8 17  1  0  0  0  0
  9 10  2  0  0  0  0
  9 18  1  0  0  0  0
 10 19  1  0  0  0  0
 11 12  1  0  0  0  0
 11 20  1  0  0  0  0
 11 21  1  0  0  0  0
 12 22  1  0  0  0  0
 12 23  1  0  0  0  0
 12 24  1  0  0  0  0
M  END
>  <DRUGBANK_ID>
DB03707

>  <SECONDARY_ACCESSION_NUMBERS>
EXPT02689

>  <COMMON_NAME>
S-Ethyl-N-Phenyl-Isothiourea

$$$$
