BAN
 OpenBabel10282417163D

 56 57  0  0  0  0  0  0  0  0999 V2000
   -0.1184   -0.1754    0.9282 O   0  0  0  0  0  0  0  0  0  0  0  0
   -0.0139   -0.9941    2.0417 N   0  0  0  0  0  0  0  0  0  0  0  0
    1.1527   -0.9202    2.7506 C   0  0  0  0  0  0  0  0  0  0  0  0
    1.1310   -1.1069    3.9578 O   0  0  0  0  0  0  0  0  0  0  0  0
    2.4349   -0.6868    1.9563 C   0  0  1  0  0  0  0  0  0  0  0  0
    2.6629   -1.9243    0.9619 C   0  0  0  0  0  0  0  0  0  0  0  0
    1.9499   -2.1030   -0.3513 C   0  0  0  0  0  0  0  0  0  0  0  0
    1.4203   -3.1151   -1.0968 C   0  0  0  0  0  0  0  0  0  0  0  0
    2.0739   -1.0827   -1.1772 C   0  0  0  0  0  0  0  0  0  0  0  0
    0.7372   -2.8662   -2.3628 C   0  0  0  0  0  0  0  0  0  0  0  0
    1.0076   -0.7006   -2.0358 C   0  0  0  0  0  0  0  0  0  0  0  0
    0.4729   -1.6096   -2.8257 C   0  0  0  0  0  0  0  0  0  0  0  0
    2.8269    0.8513    1.7288 C   0  0  0  0  0  0  0  0  0  0  0  0
    3.4483    1.4439    2.6292 O   0  0  0  0  0  0  0  0  0  0  0  0
    2.5430    1.6752    0.6565 N   0  0  0  0  0  0  0  0  0  0  0  0
    1.7876    1.4564   -0.5740 C   0  0  1  0  0  0  0  0  0  0  0  0
    0.3183    2.0229   -0.5537 C   0  0  0  0  0  0  0  0  0  0  0  0
    2.5543    1.2741   -2.2042 C   0  0  0  0  0  0  0  0  0  0  0  0
    3.1745    0.3421   -2.7853 O   0  0  0  0  0  0  0  0  0  0  0  0
    2.4343    2.2704   -3.0537 N   0  0  0  0  0  0  0  0  0  0  0  0
    2.4843    3.4647   -2.3516 C   0  0  0  0  0  0  0  0  0  0  0  0
    3.9153    3.9113   -2.1819 C   0  0  0  0  0  0  0  0  0  0  0  0
    4.1981    4.9720   -2.7593 O   0  0  0  0  0  0  0  0  0  0  0  0
    5.1814    2.1053   -0.6564 C   0  0  0  0  0  0  0  0  0  0  0  0
    5.2101    0.8630   -1.2766 C   0  0  0  0  0  0  0  0  0  0  0  0
    5.3901   -0.3909   -0.5846 C   0  0  0  0  0  0  0  0  0  0  0  0
    5.7430   -0.4040    0.7673 C   0  0  0  0  0  0  0  0  0  0  0  0
    5.9437    0.8437    1.3570 C   0  0  0  0  0  0  0  0  0  0  0  0
    5.6557    2.0697    0.6630 C   0  0  0  0  0  0  0  0  0  0  0  0
    5.7302   -1.6319    1.6505 N   0  3  0  0  0  0  0  0  0  0  0  0
    5.7431   -1.4490    2.8779 O   0  5  0  0  0  0  0  0  0  0  0  0
    5.5953   -2.7517    1.1302 O   0  0  0  0  0  0  0  0  0  0  0  0
    4.8435    3.3600   -1.2965 N   0  0  0  0  0  0  0  0  0  0  0  0
    3.1883   -0.9097    2.7464 H   0  0  0  0  0  0  0  0  0  0  0  0
    1.5039    0.5074   -0.2325 H   0  0  0  0  0  0  0  0  0  0  0  0
    0.4340    0.5698    1.2280 H   0  0  0  0  0  0  0  0  0  0  0  0
   -0.8854   -1.0773    2.5455 H   0  0  0  0  0  0  0  0  0  0  0  0
    3.6816   -1.8313    0.6435 H   0  0  0  0  0  0  0  0  0  0  0  0
    2.6111   -2.8506    1.5374 H   0  0  0  0  0  0  0  0  0  0  0  0
    1.5905   -4.1246   -0.7741 H   0  0  0  0  0  0  0  0  0  0  0  0
    2.9123   -0.4570   -0.8747 H   0  0  0  0  0  0  0  0  0  0  0  0
    0.3782   -3.6611   -2.9843 H   0  0  0  0  0  0  0  0  0  0  0  0
    0.7301    0.3021   -2.3439 H   0  0  0  0  0  0  0  0  0  0  0  0
   -0.0114   -1.2256   -3.7181 H   0  0  0  0  0  0  0  0  0  0  0  0
    2.9945    2.5800    0.7325 H   0  0  0  0  0  0  0  0  0  0  0  0
    0.1746    2.9405   -1.1059 H   0  0  0  0  0  0  0  0  0  0  0  0
   -0.4063    1.3040   -0.9767 H   0  0  0  0  0  0  0  0  0  0  0  0
   -0.0355    2.2025    0.4693 H   0  0  0  0  0  0  0  0  0  0  0  0
    2.9599    2.0854   -3.9147 H   0  0  0  0  0  0  0  0  0  0  0  0
    1.7558    4.0853   -2.8665 H   0  0  0  0  0  0  0  0  0  0  0  0
    2.1234    3.3937   -1.3371 H   0  0  0  0  0  0  0  0  0  0  0  0
    5.0634    0.8376   -2.3497 H   0  0  0  0  0  0  0  0  0  0  0  0
    5.1246   -1.3026   -1.1305 H   0  0  0  0  0  0  0  0  0  0  0  0
    6.1933    0.8869    2.4164 H   0  0  0  0  0  0  0  0  0  0  0  0
    5.6911    2.9784    1.2591 H   0  0  0  0  0  0  0  0  0  0  0  0
    5.6148    4.0145   -1.2413 H   0  0  0  0  0  0  0  0  0  0  0  0
  1  2  1  0  0  0  0
  1 36  1  0  0  0  0
  2  3  1  0  0  0  0
  2 37  1  0  0  0  0
  3  4  2  0  0  0  0
  3  5  1  0  0  0  0
  5  6  1  0  0  0  0
  5 13  1  0  0  0  0
  5 34  1  1  0  0  0
  6  7  1  0  0  0  0
  6 38  1  0  0  0  0
  6 39  1  0  0  0  0
  7  8  2  0  0  0  0
  7  9  1  0  0  0  0
  8 10  1  0  0  0  0
  8 40  1  0  0  0  0
  9 11  2  0  0  0  0
  9 41  1  0  0  0  0
 10 12  2  0  0  0  0
 10 42  1  0  0  0  0
 11 12  1  0  0  0  0
 11 43  1  0  0  0  0
 12 44  1  0  0  0  0
 13 14  2  0  0  0  0
 13 15  1  0  0  0  0
 15 16  1  0  0  0  0
 15 45  1  0  0  0  0
 16 17  1  0  0  0  0
 16 18  1  0  0  0  0
 16 35  1  1  0  0  0
 17 46  1  0  0  0  0
 17 47  1  0  0  0  0
 17 48  1  0  0  0  0
 18 19  2  0  0  0  0
 18 20  1  0  0  0  0
 20 21  1  0  0  0  0
 20 49  1  0  0  0  0
 21 22  1  0  0  0  0
 21 50  1  0  0  0  0
 21 51  1  0  0  0  0
 22 23  2  0  0  0  0
 22 33  1  0  0  0  0
 24 25  1  0  0  0  0
 24 29  2  0  0  0  0
 24 33  1  0  0  0  0
 25 26  2  0  0  0  0
 25 52  1  0  0  0  0
 26 27  1  0  0  0  0
 26 53  1  0  0  0  0
 27 28  2  0  0  0  0
 27 30  1  0  0  0  0
 28 29  1  0  0  0  0
 28 54  1  0  0  0  0
 29 55  1  0  0  0  0
 30 31  1  0  0  0  0
 30 32  2  0  0  0  0
 33 56  1  0  0  0  0
M  CHG  2  30   1  31  -1
M  END
>  <DRUGBANK_ID>
DB07434

>  <COMMON_NAME>
HONH-BENZYLMALONYL-L-ALANYLGLYCINE-P-NITROANILIDE

$$$$
