
 OpenBabel10282417133D

106112  0  0  1  0  0  0  0  0999 V2000
   -3.3049   -2.5072    1.3531 C   0  0  0  0  0  0  0  0  0  0  0  0
   -0.0941    0.8112   -1.7775 C   0  0  0  0  0  0  0  0  0  0  0  0
    0.7981   -0.8924    6.4201 C   0  0  0  0  0  0  0  0  0  0  0  0
   -0.3287    4.0061    2.5418 C   0  0  0  0  0  0  0  0  0  0  0  0
   -4.3158   -1.2610    4.2729 C   0  0  0  0  0  0  0  0  0  0  0  0
   -3.0273    0.2465    3.2283 C   0  0  0  0  0  0  0  0  0  0  0  0
   -2.5775   -3.2013    0.2341 C   0  0  0  0  0  0  0  0  0  0  0  0
    7.3205   -7.9238   -1.2832 C   0  0  0  0  0  0  0  0  0  0  0  0
    6.2874   -7.0630   -1.6305 C   0  0  0  0  0  0  0  0  0  0  0  0
    7.3058   -8.5865   -0.0529 C   0  0  0  0  0  0  0  0  0  0  0  0
    0.4145    3.0795    0.2464 C   0  0  0  0  0  0  0  0  0  0  0  0
   -1.1500    3.7842    0.1279 C   0  0  0  0  0  0  0  0  0  0  0  0
    1.9732   -5.0361   -0.6510 C   0  0  0  0  0  0  0  0  0  0  0  0
   -0.6683   -2.5393    3.2835 C   0  0  0  0  0  0  0  0  0  0  0  0
   -0.3932   -0.3286    1.5631 C   0  0  0  0  0  0  0  0  0  0  0  0
   -1.4487   -4.8351    1.7321 C   0  0  0  0  0  0  0  0  0  0  0  0
    0.0036    2.2843   -2.0356 C   0  0  2  0  0  0  0  0  0  0  0  0
    0.1387   -1.8916    5.5324 C   0  0  1  0  0  0  0  0  0  0  0  0
   -0.8707    2.3762    2.3949 C   0  0  1  0  0  0  0  0  0  0  0  0
    5.2406   -6.8657   -0.7341 C   0  0  0  0  0  0  0  0  0  0  0  0
    3.0424   -5.7864   -0.2074 C   0  0  0  0  0  0  0  0  0  0  0  0
    0.8233   -5.0087    0.1144 C   0  0  0  0  0  0  0  0  0  0  0  0
   -1.8344   -1.9295    4.0970 C   0  0  1  0  0  0  0  0  0  0  0  0
    0.9283    2.9646   -1.0730 C   0  0  0  0  0  0  0  0  0  0  0  0
    6.2545   -8.3914    0.8349 C   0  0  0  0  0  0  0  0  0  0  0  0
   -1.6414    0.0511    0.8028 C   0  0  1  0  0  0  0  0  0  0  0  0
   -0.2312   -5.3206    2.5021 C   0  0  1  0  0  0  0  0  0  0  0  0
   -2.0596    3.0214   -0.7843 C   0  0  1  0  0  0  0  0  0  0  0  0
    0.5503   -3.3049    3.6609 C   0  0  1  0  0  0  0  0  0  0  0  0
    0.1212    0.2688    2.9621 C   0  0  1  0  0  0  0  0  0  0  0  0
    5.2162   -7.5279    0.4981 C   0  0  0  0  0  0  0  0  0  0  0  0
    0.8506   -5.5300    1.4604 C   0  0  0  0  0  0  0  0  0  0  0  0
    3.0125   -6.4324    1.0278 C   0  0  0  0  0  0  0  0  0  0  0  0
    4.1639   -5.9527   -1.1232 C   0  0  0  0  0  0  0  0  0  0  0  0
    4.0982   -7.3156    1.4277 C   0  0  0  0  0  0  0  0  0  0  0  0
    1.9352   -6.2730    1.8812 C   0  0  0  0  0  0  0  0  0  0  0  0
   -0.9969   -1.0443    4.9070 C   0  0  2  0  0  0  0  0  0  0  0  0
   -1.6158    1.5276    0.9580 C   0  0  1  0  0  0  0  0  0  0  0  0
   -0.3406   -4.2488   -0.5282 C   0  0  2  0  0  0  0  0  0  0  0  0
   -1.1657   -3.7453    0.6139 C   0  0  1  0  0  0  0  0  0  0  0  0
   -3.0498   -1.1451    3.6073 N   0  0  0  0  0  0  0  0  0  0  0  0
    2.1509    3.2662   -1.2594 O   0  0  0  0  0  0  0  0  0  0  0  0
    6.2408   -9.0428    2.0316 O   0  0  0  0  0  0  0  0  0  0  0  0
   -1.8332   -0.5615   -0.4889 O   0  0  0  0  0  0  0  0  0  0  0  0
    4.1789   -5.3653   -2.1981 O   0  0  0  0  0  0  0  0  0  0  0  0
    4.0106   -7.8628    2.5222 O   0  0  0  0  0  0  0  0  0  0  0  0
    1.8527   -6.8473    3.1208 O   0  0  0  0  0  0  0  0  0  0  0  0
   -1.0802   -4.9928   -1.4426 O   0  0  0  0  0  0  0  0  0  0  0  0
   -0.1961   -2.7217    0.8961 O   0  0  0  0  0  0  0  0  0  0  0  0
   -1.3605    2.7882   -2.0280 O   0  0  0  0  0  0  0  0  0  0  0  0
    1.1263   -2.5297    4.7143 O   0  0  0  0  0  0  0  0  0  0  0  0
    0.3229    1.6568    2.7883 O   0  0  0  0  0  0  0  0  0  0  0  0
    0.1680   -4.6527    3.7655 O   0  0  0  0  0  0  0  0  0  0  0  0
   -2.6115    2.0124    0.0813 O   0  0  0  0  0  0  0  0  0  0  0  0
   -0.6109    0.1616    4.2000 O   0  0  0  0  0  0  0  0  0  0  0  0
    0.4660    2.4110   -3.0053 H   0  0  0  0  0  0  0  0  0  0  0  0
   -0.3079   -2.7369    6.0628 H   0  0  0  0  0  0  0  0  0  0  0  0
   -1.6244    2.3597    3.1762 H   0  0  0  0  0  0  0  0  0  0  0  0
   -2.2600   -2.8332    4.5429 H   0  0  0  0  0  0  0  0  0  0  0  0
   -2.6224   -0.2401    1.1092 H   0  0  0  0  0  0  0  0  0  0  0  0
   -0.5432   -6.2934    2.8954 H   0  0  0  0  0  0  0  0  0  0  0  0
   -2.9859    3.5509   -1.0350 H   0  0  0  0  0  0  0  0  0  0  0  0
    1.3687   -3.2810    2.9106 H   0  0  0  0  0  0  0  0  0  0  0  0
    1.1053   -0.1809    3.1633 H   0  0  0  0  0  0  0  0  0  0  0  0
   -1.6697   -0.7245    5.7086 H   0  0  0  0  0  0  0  0  0  0  0  0
   -0.7950    1.4594    0.3355 H   0  0  0  0  0  0  0  0  0  0  0  0
    0.0840   -3.3706   -1.0738 H   0  0  0  0  0  0  0  0  0  0  0  0
   -3.6179   -3.1336    2.1908 H   0  0  0  0  0  0  0  0  0  0  0  0
   -4.0994   -1.7957    1.1102 H   0  0  0  0  0  0  0  0  0  0  0  0
   -2.5308   -1.9114    1.7505 H   0  0  0  0  0  0  0  0  0  0  0  0
   -0.4764    0.1425   -2.5464 H   0  0  0  0  0  0  0  0  0  0  0  0
    0.6177    0.3321   -1.0923 H   0  0  0  0  0  0  0  0  0  0  0  0
   -1.0204    0.8762   -1.2784 H   0  0  0  0  0  0  0  0  0  0  0  0
    0.0623   -0.6012    7.1744 H   0  0  0  0  0  0  0  0  0  0  0  0
    1.6987   -1.3102    6.8460 H   0  0  0  0  0  0  0  0  0  0  0  0
    1.0737    0.0053    5.8502 H   0  0  0  0  0  0  0  0  0  0  0  0
   -1.0345    4.7889    2.2454 H   0  0  0  0  0  0  0  0  0  0  0  0
    0.0594    4.1997    3.5375 H   0  0  0  0  0  0  0  0  0  0  0  0
    0.5581    4.3702    2.0045 H   0  0  0  0  0  0  0  0  0  0  0  0
   -4.3103   -0.6263    5.1606 H   0  0  0  0  0  0  0  0  0  0  0  0
   -5.0935   -0.8765    3.5875 H   0  0  0  0  0  0  0  0  0  0  0  0
   -4.5598   -2.2950    4.4743 H   0  0  0  0  0  0  0  0  0  0  0  0
   -2.8892    1.0237    3.9692 H   0  0  0  0  0  0  0  0  0  0  0  0
   -2.1236    0.2922    2.7297 H   0  0  0  0  0  0  0  0  0  0  0  0
   -3.7871    0.5479    2.4808 H   0  0  0  0  0  0  0  0  0  0  0  0
   -3.2569   -3.9892   -0.0567 H   0  0  0  0  0  0  0  0  0  0  0  0
   -2.4895   -2.5431   -0.6169 H   0  0  0  0  0  0  0  0  0  0  0  0
    8.1418   -8.0760   -1.9767 H   0  0  0  0  0  0  0  0  0  0  0  0
    6.2952   -6.5481   -2.5904 H   0  0  0  0  0  0  0  0  0  0  0  0
    8.1227   -9.2524    0.2004 H   0  0  0  0  0  0  0  0  0  0  0  0
    1.2101    3.3907    0.9196 H   0  0  0  0  0  0  0  0  0  0  0  0
    0.6018    2.0357    0.5751 H   0  0  0  0  0  0  0  0  0  0  0  0
   -1.8355    3.7896    1.0128 H   0  0  0  0  0  0  0  0  0  0  0  0
   -1.1188    4.8204   -0.1680 H   0  0  0  0  0  0  0  0  0  0  0  0
    2.0182   -4.4859   -1.5923 H   0  0  0  0  0  0  0  0  0  0  0  0
   -1.2157   -3.0284    2.5702 H   0  0  0  0  0  0  0  0  0  0  0  0
    0.0168   -1.8269    2.8978 H   0  0  0  0  0  0  0  0  0  0  0  0
   -0.9135   -1.1869    1.8100 H   0  0  0  0  0  0  0  0  0  0  0  0
    0.4642   -0.5975    0.9278 H   0  0  0  0  0  0  0  0  0  0  0  0
   -2.1951   -4.5399    2.4807 H   0  0  0  0  0  0  0  0  0  0  0  0
   -1.9394   -5.6653    1.2186 H   0  0  0  0  0  0  0  0  0  0  0  0
    7.0205   -9.6035    2.1469 H   0  0  0  0  0  0  0  0  0  0  0  0
   -1.1326   -1.1944   -0.7160 H   0  0  0  0  0  0  0  0  0  0  0  0
    2.6556   -7.3925    3.2821 H   0  0  0  0  0  0  0  0  0  0  0  0
   -1.6924   -5.5105   -0.9035 H   0  0  0  0  0  0  0  0  0  0  0  0
    0.6917   -3.0710    1.1204 H   0  0  0  0  0  0  0  0  0  0  0  0
  1 68  1  0  0  0  0
  1 69  1  0  0  0  0
  1 70  1  0  0  0  0
  2 71  1  0  0  0  0
  2 72  1  0  0  0  0
  2 73  1  0  0  0  0
  3 74  1  0  0  0  0
  3 75  1  0  0  0  0
  3 76  1  0  0  0  0
  4 77  1  0  0  0  0
  4 78  1  0  0  0  0
  4 79  1  0  0  0  0
  5 80  1  0  0  0  0
  5 81  1  0  0  0  0
  5 82  1  0  0  0  0
  6 83  1  0  0  0  0
  6 84  1  0  0  0  0
  6 85  1  0  0  0  0
  7  1  1  0  0  0  0
  7 86  1  0  0  0  0
  7 87  1  0  0  0  0
  8 88  1  0  0  0  0
  9  8  2  0  0  0  0
  9 89  1  0  0  0  0
 10  8  1  0  0  0  0
 10 90  1  0  0  0  0
 11 91  1  0  0  0  0
 11 92  1  0  0  0  0
 12 11  1  0  0  0  0
 12 93  1  0  0  0  0
 12 94  1  0  0  0  0
 13 95  1  0  0  0  0
 14 96  1  0  0  0  0
 14 97  1  0  0  0  0
 15 98  1  0  0  0  0
 15 99  1  0  0  0  0
 16100  1  0  0  0  0
 16101  1  0  0  0  0
 17  2  1  0  0  0  0
 17 56  1  6  0  0  0
 18  3  1  0  0  0  0
 18 57  1  1  0  0  0
 19  4  1  0  0  0  0
 19 58  1  1  0  0  0
 20  9  1  0  0  0  0
 21 13  2  0  0  0  0
 22 13  1  0  0  0  0
 23 14  1  0  0  0  0
 23 41  1  0  0  0  0
 23 59  1  1  0  0  0
 24 11  1  0  0  0  0
 24 17  1  0  0  0  0
 25 10  2  0  0  0  0
 26 15  1  0  0  0  0
 26 44  1  0  0  0  0
 26 60  1  1  0  0  0
 27 16  1  0  0  0  0
 27 53  1  0  0  0  0
 27 61  1  1  0  0  0
 28 12  1  0  0  0  0
 28 62  1  6  0  0  0
 28 54  1  0  0  0  0
 29 14  1  0  0  0  0
 29 63  1  6  0  0  0
 29 53  1  0  0  0  0
 30 15  1  0  0  0  0
 30 64  1  1  0  0  0
 30 55  1  0  0  0  0
 31 20  2  0  0  0  0
 31 25  1  0  0  0  0
 32 22  2  0  0  0  0
 32 27  1  0  0  0  0
 33 21  1  0  0  0  0
 34 20  1  0  0  0  0
 34 21  1  0  0  0  0
 35 31  1  0  0  0  0
 35 33  1  0  0  0  0
 36 32  1  0  0  0  0
 36 33  2  0  0  0  0
 37 18  1  0  0  0  0
 37 23  1  0  0  0  0
 37 55  1  0  0  0  0
 37 65  1  1  0  0  0
 38 19  1  0  0  0  0
 38 26  1  0  0  0  0
 38 66  1  6  0  0  0
 38 54  1  0  0  0  0
 39 22  1  0  0  0  0
 39 48  1  0  0  0  0
 39 67  1  6  0  0  0
 40 16  1  0  0  0  0
 40 39  1  0  0  0  0
 40 49  1  1  0  0  0
 40  7  1  0  0  0  0
 41  5  1  0  0  0  0
 41  6  1  0  0  0  0
 42 24  2  0  0  0  0
 43 25  1  0  0  0  0
 43102  1  0  0  0  0
 44103  1  0  0  0  0
 45 34  2  0  0  0  0
 46 35  2  0  0  0  0
 47 36  1  0  0  0  0
 47104  1  0  0  0  0
 48105  1  0  0  0  0
 49106  1  0  0  0  0
 50 17  1  0  0  0  0
 50 28  1  0  0  0  0
 51 18  1  0  0  0  0
 51 29  1  0  0  0  0
 52 19  1  0  0  0  0
 52 30  1  0  0  0  0
M  END
>  <DRUGBANK_ID>
DB03219

>  <SECONDARY_ACCESSION_NUMBERS>
EXPT01268

>  <COMMON_NAME>
11-Deoxy-Beta-Rhodomycin

$$$$
