213
 OpenBabel10282417103D

 41 43  0  0  1  0  0  0  0  0999 V2000
    1.0384   -0.2088   -0.2689 S   0  0  3  0  0  0  0  0  0  0  0  0
   -1.7081   -8.2640   -1.4879 F   0  0  0  0  0  0  0  0  0  0  0  0
   -1.9049   -8.2750    0.7025 F   0  0  0  0  0  0  0  0  0  0  0  0
    1.0961    2.2733    0.2798 O   0  0  0  0  0  0  0  0  0  0  0  0
   -2.7711   -6.5268   -0.4726 O   0  0  0  0  0  0  0  0  0  0  0  0
    0.3913    0.3444   -1.5060 O   0  0  0  0  0  0  0  0  0  0  0  0
    2.3437    5.1827   -0.0777 O   0  0  0  0  0  0  0  0  0  0  0  0
   -0.7631   -2.1229   -0.3349 N   0  0  0  0  0  0  0  0  0  0  0  0
    1.2959   -2.8610    0.0815 N   0  0  0  0  0  0  0  0  0  0  0  0
    4.6162    1.6649    0.0540 N   0  0  0  0  0  0  0  0  0  0  0  0
   -0.8870   -3.4731   -0.2773 C   0  0  0  0  0  0  0  0  0  0  0  0
    0.5530   -1.8053   -0.1562 C   0  0  0  0  0  0  0  0  0  0  0  0
    0.4264   -3.8984   -0.0895 C   0  0  0  0  0  0  0  0  0  0  0  0
    2.8015    0.0280   -0.1437 C   0  0  0  0  0  0  0  0  0  0  0  0
    3.2620    1.5086   -0.0418 C   0  0  0  0  0  0  0  0  0  0  0  0
   -1.9764   -4.3345   -0.3892 C   0  0  0  0  0  0  0  0  0  0  0  0
    0.7076   -5.2579   -0.0937 C   0  0  0  0  0  0  0  0  0  0  0  0
    2.3653    2.6339   -0.0289 C   0  0  0  0  0  0  0  0  0  0  0  0
   -1.6816   -5.7038   -0.3620 C   0  0  0  0  0  0  0  0  0  0  0  0
   -0.3570   -6.1465   -0.2373 C   0  0  0  0  0  0  0  0  0  0  0  0
    2.9057    3.9308   -0.0519 C   0  0  0  0  0  0  0  0  0  0  0  0
    4.2969    4.0528    0.0436 C   0  0  0  0  0  0  0  0  0  0  0  0
    5.0931    2.9248    0.1242 C   0  0  0  0  0  0  0  0  0  0  0  0
   -0.1308    2.8086   -0.1495 C   0  0  0  0  0  0  0  0  0  0  0  0
   -2.5198   -7.9275   -0.4552 C   0  0  0  0  0  0  0  0  0  0  0  0
    0.9652    5.3363   -0.3030 C   0  0  0  0  0  0  0  0  0  0  0  0
   -1.5050   -1.4394   -0.4791 H   0  0  0  0  0  0  0  0  0  0  0  0
    3.1653   -0.4985    0.7497 H   0  0  0  0  0  0  0  0  0  0  0  0
    3.2751   -0.4321   -1.0176 H   0  0  0  0  0  0  0  0  0  0  0  0
   -2.9930   -3.9664   -0.4993 H   0  0  0  0  0  0  0  0  0  0  0  0
    1.7297   -5.5966    0.0060 H   0  0  0  0  0  0  0  0  0  0  0  0
   -0.0979   -7.1989   -0.2371 H   0  0  0  0  0  0  0  0  0  0  0  0
    4.7508    5.0394    0.0917 H   0  0  0  0  0  0  0  0  0  0  0  0
    6.1695    3.0217    0.2474 H   0  0  0  0  0  0  0  0  0  0  0  0
   -0.4776    3.4218    0.6758 H   0  0  0  0  0  0  0  0  0  0  0  0
   -0.0982    3.2453   -1.1454 H   0  0  0  0  0  0  0  0  0  0  0  0
   -0.9104    2.0443   -0.2191 H   0  0  0  0  0  0  0  0  0  0  0  0
   -3.4553   -8.4817   -0.5416 H   0  0  0  0  0  0  0  0  0  0  0  0
    0.6950    4.9044   -1.2676 H   0  0  0  0  0  0  0  0  0  0  0  0
    0.4438    4.9806    0.5793 H   0  0  0  0  0  0  0  0  0  0  0  0
    0.6530    6.3801   -0.3712 H   0  0  0  0  0  0  0  0  0  0  0  0
  1  6  2  0  0  0  0
  1 12  1  0  0  0  0
  1 14  1  0  0  0  0
  2 25  1  0  0  0  0
  3 25  1  0  0  0  0
  4 18  1  0  0  0  0
  4 24  1  0  0  0  0
  5 19  1  0  0  0  0
  5 25  1  0  0  0  0
  7 21  1  0  0  0  0
  7 26  1  0  0  0  0
  8 11  1  0  0  0  0
  8 12  1  0  0  0  0
  8 27  1  0  0  0  0
  9 12  2  0  0  0  0
  9 13  1  0  0  0  0
 10 15  2  0  0  0  0
 10 23  1  0  0  0  0
 11 13  2  0  0  0  0
 11 16  1  0  0  0  0
 13 17  1  0  0  0  0
 14 15  1  0  0  0  0
 14 28  1  0  0  0  0
 14 29  1  0  0  0  0
 15 18  1  0  0  0  0
 16 19  2  0  0  0  0
 16 30  1  0  0  0  0
 17 20  2  0  0  0  0
 17 31  1  0  0  0  0
 18 21  2  0  0  0  0
 19 20  1  0  0  0  0
 20 32  1  0  0  0  0
 21 22  1  0  0  0  0
 22 23  2  0  0  0  0
 22 33  1  0  0  0  0
 23 34  1  0  0  0  0
 24 35  1  0  0  0  0
 24 36  1  0  0  0  0
 24 37  1  0  0  0  0
 25 38  1  0  0  0  0
 26 39  1  0  0  0  0
 26 40  1  0  0  0  0
 26 41  1  0  0  0  0
M  END
>  <DRUGBANK_ID>
DB00213

>  <SECONDARY_ACCESSION_NUMBERS>
APRD00073

>  <COMMON_NAME>
Pantoprazole

>  <CAS_NUMBER>
102625-70-7

>  <UNII>
D8TST4O562

>  <SYNONYMS>
Pantoprazol; Pantoprazole; Pantoprazolum

$$$$
