
 OpenBabel10282417133D

 27 27  0  0  1  0  0  0  0  0999 V2000
    0.7667    1.4381   -0.1083 C   0  0  1  0  0  0  0  0  0  0  0  0
    1.4599    0.1341    0.3458 C   0  0  1  0  0  0  0  0  0  0  0  0
   -0.7151    1.4163    0.2944 C   0  0  2  0  0  0  0  0  0  0  0  0
    0.7514   -1.0758   -0.2764 C   0  0  1  0  0  0  0  0  0  0  0  0
   -1.4626    0.1605   -0.2020 C   0  0  1  0  0  0  0  0  0  0  0  0
   -0.7364   -1.1471    0.2083 C   0  0  1  0  0  0  0  0  0  0  0  0
    1.4276    2.5870    0.4625 O   0  0  0  0  0  0  0  0  0  0  0  0
    2.8304    0.1471   -0.1004 O   0  0  0  0  0  0  0  0  0  0  0  0
   -1.3648    2.6054   -0.2045 O   0  0  0  0  0  0  0  0  0  0  0  0
    0.9198   -0.8397   -1.6953 O   0  0  0  0  0  0  0  0  0  0  0  0
   -2.7986    0.2608    0.3321 O   0  0  0  0  0  0  0  0  0  0  0  0
   -0.1383   -3.1138   -1.8591 O   0  5  0  0  0  0  0  0  0  0  0  0
   -2.8483   -2.9053   -1.8347 O   0  5  0  0  0  0  0  0  0  0  0  0
   -1.4343   -2.2776   -3.5248 O   0  0  0  0  0  0  0  0  0  0  0  0
   -1.4544   -2.3244   -0.2468 O   0  0  0  0  0  0  0  0  0  0  0  0
   -1.4438   -2.2997   -1.9766 P   0  0  0  0  0  0  0  0  0  0  0  0
    0.8551    1.5793   -1.1929 H   0  0  0  0  0  0  0  0  0  0  0  0
    1.4844    0.0641    1.4382 H   0  0  0  0  0  0  0  0  0  0  0  0
   -0.7972    1.4834    1.3870 H   0  0  0  0  0  0  0  0  0  0  0  0
    1.2947   -1.9996   -0.0526 H   0  0  0  0  0  0  0  0  0  0  0  0
   -1.5826    0.2229   -1.2890 H   0  0  0  0  0  0  0  0  0  0  0  0
   -0.7382   -1.2318    1.3016 H   0  0  0  0  0  0  0  0  0  0  0  0
    1.4213    2.4673    1.4276 H   0  0  0  0  0  0  0  0  0  0  0  0
    2.7536   -0.1052   -1.0484 H   0  0  0  0  0  0  0  0  0  0  0  0
   -2.1638    2.2928   -0.6728 H   0  0  0  0  0  0  0  0  0  0  0  0
    0.6981   -1.7245   -2.1177 H   0  0  0  0  0  0  0  0  0  0  0  0
   -3.3548   -0.2619   -0.2844 H   0  0  0  0  0  0  0  0  0  0  0  0
  1  7  1  0  0  0  0
  1 17  1  6  0  0  0
  2  1  1  0  0  0  0
  2  8  1  0  0  0  0
  2 18  1  1  0  0  0
  3  1  1  0  0  0  0
  3 19  1  1  0  0  0
  3  9  1  0  0  0  0
  4  2  1  0  0  0  0
  4 10  1  0  0  0  0
  4 20  1  1  0  0  0
  5  3  1  0  0  0  0
  5 21  1  6  0  0  0
  5 11  1  0  0  0  0
  6  4  1  0  0  0  0
  6  5  1  0  0  0  0
  6 15  1  0  0  0  0
  6 22  1  1  0  0  0
  7 23  1  0  0  0  0
  8 24  1  0  0  0  0
  9 25  1  0  0  0  0
 10 26  1  0  0  0  0
 11 27  1  0  0  0  0
 16 12  1  0  0  0  0
 16 13  1  0  0  0  0
 16 14  2  0  0  0  0
 16 15  1  0  0  0  0
M  CHG  2  12  -1  13  -1
M  END
>  <DRUGBANK_ID>
DB03542

>  <SECONDARY_ACCESSION_NUMBERS>
EXPT02036

>  <COMMON_NAME>
L-Myo-Inositol-1-Phosphate

$$$$
