
 OpenBabel10282417103D

 49 52  0  0  0  0  0  0  0  0999 V2000
   -0.6293   -2.5688    9.6161 O   0  0  0  0  0  0  0  0  0  0  0  0
   -6.0164   -6.7807    2.2725 O   0  0  0  0  0  0  0  0  0  0  0  0
   -1.0067   -2.9033    6.2234 C   0  0  2  0  0  0  0  0  0  0  0  0
    0.3044   -3.1037    6.8673 C   0  0  2  0  0  0  0  0  0  0  0  0
   -1.4695   -3.1845    4.8654 C   0  0  1  0  0  0  0  0  0  0  0  0
   -1.2481   -4.6816    4.6815 C   0  0  1  0  0  0  0  0  0  0  0  0
   -2.5165   -5.3520    3.8563 C   0  0  2  0  0  0  0  0  0  0  0  0
    0.9212   -4.4104    6.0776 C   0  0  0  0  0  0  0  0  0  0  0  0
    0.3450   -4.6721    4.5666 C   0  0  0  0  0  0  0  0  0  0  0  0
   -0.9368   -3.0475    8.3235 C   0  0  2  0  0  0  0  0  0  0  0  0
   -1.3841   -1.5336    6.8010 C   0  0  0  0  0  0  0  0  0  0  0  0
   -2.9318   -2.9729    4.8981 C   0  0  0  0  0  0  0  0  0  0  0  0
   -2.1986   -2.0665    7.8828 C   0  0  0  0  0  0  0  0  0  0  0  0
   -3.2266   -4.5589    2.8053 C   0  0  0  0  0  0  0  0  0  0  0  0
   -3.4592   -3.1563    3.4615 C   0  0  0  0  0  0  0  0  0  0  0  0
    1.0898   -1.9229    6.0156 C   0  0  0  0  0  0  0  0  0  0  0  0
   -4.2663   -5.3615    4.6483 C   0  0  0  0  0  0  0  0  0  0  0  0
   -1.6017   -6.2570    2.8759 C   0  0  0  0  0  0  0  0  0  0  0  0
   -5.6563   -4.9817    3.7301 C   0  0  0  0  0  0  0  0  0  0  0  0
   -3.9988   -5.4691    2.0766 C   0  0  0  0  0  0  0  0  0  0  0  0
   -5.3821   -5.8203    2.5724 C   0  0  0  0  0  0  0  0  0  0  0  0
   -1.4717   -2.1950    9.9738 H   0  0  0  0  0  0  0  0  0  0  0  0
   -1.5029   -3.8032    6.6468 H   0  0  0  0  0  0  0  0  0  0  0  0
   -1.0196   -2.5168    4.1352 H   0  0  0  0  0  0  0  0  0  0  0  0
   -1.2951   -5.3449    5.5592 H   0  0  0  0  0  0  0  0  0  0  0  0
    2.0119   -4.2506    5.9404 H   0  0  0  0  0  0  0  0  0  0  0  0
    0.8586   -5.3420    6.6437 H   0  0  0  0  0  0  0  0  0  0  0  0
    0.7085   -3.8815    3.8762 H   0  0  0  0  0  0  0  0  0  0  0  0
    0.8141   -5.5837    4.1745 H   0  0  0  0  0  0  0  0  0  0  0  0
   -1.4355   -4.0360    8.4572 H   0  0  0  0  0  0  0  0  0  0  0  0
   -1.6896   -0.7956    6.0738 H   0  0  0  0  0  0  0  0  0  0  0  0
   -0.5897   -1.0274    7.3888 H   0  0  0  0  0  0  0  0  0  0  0  0
   -3.2753   -2.0259    5.3050 H   0  0  0  0  0  0  0  0  0  0  0  0
   -3.2089   -3.6635    5.7077 H   0  0  0  0  0  0  0  0  0  0  0  0
   -3.0980   -2.5711    7.4953 H   0  0  0  0  0  0  0  0  0  0  0  0
   -2.5444   -1.2631    8.5403 H   0  0  0  0  0  0  0  0  0  0  0  0
   -2.9618   -2.4133    2.8467 H   0  0  0  0  0  0  0  0  0  0  0  0
   -4.4870   -2.8424    3.5672 H   0  0  0  0  0  0  0  0  0  0  0  0
    0.7923   -1.9940    4.9476 H   0  0  0  0  0  0  0  0  0  0  0  0
    0.9025   -0.8701    6.2396 H   0  0  0  0  0  0  0  0  0  0  0  0
    2.1717   -2.0663    5.9338 H   0  0  0  0  0  0  0  0  0  0  0  0
   -4.5016   -4.5286    5.3298 H   0  0  0  0  0  0  0  0  0  0  0  0
   -4.4799   -6.2004    5.3108 H   0  0  0  0  0  0  0  0  0  0  0  0
   -1.4250   -7.2794    3.1955 H   0  0  0  0  0  0  0  0  0  0  0  0
   -1.7990   -6.2051    1.7905 H   0  0  0  0  0  0  0  0  0  0  0  0
   -0.5963   -5.8091    2.7639 H   0  0  0  0  0  0  0  0  0  0  0  0
   -5.7767   -3.9833    3.2648 H   0  0  0  0  0  0  0  0  0  0  0  0
   -6.6402   -5.1305    4.1823 H   0  0  0  0  0  0  0  0  0  0  0  0
   -3.6527   -6.5199    1.9634 H   0  0  0  0  0  0  0  0  0  0  0  0
  1 22  1  0  0  0  0
  2 21  2  0  0  0  0
  3  4  1  0  0  0  0
  3  5  1  0  0  0  0
  3 11  1  0  0  0  0
  3 23  1  1  0  0  0
  4  8  1  0  0  0  0
  4 10  1  0  0  0  0
  4 16  1  6  0  0  0
  5  6  1  0  0  0  0
  5 12  1  0  0  0  0
  5 24  1  6  0  0  0
  6  7  1  0  0  0  0
  6  9  1  0  0  0  0
  6 25  1  1  0  0  0
  7 14  1  0  0  0  0
  7 17  1  0  0  0  0
  7 18  1  6  0  0  0
  8  9  1  0  0  0  0
  8 26  1  0  0  0  0
  8 27  1  0  0  0  0
  9 28  1  0  0  0  0
  9 29  1  0  0  0  0
 10  1  1  0  0  0  0
 10 13  1  0  0  0  0
 10 30  1  1  0  0  0
 11 13  1  0  0  0  0
 11 31  1  0  0  0  0
 11 32  1  0  0  0  0
 12 15  1  0  0  0  0
 12 33  1  0  0  0  0
 12 34  1  0  0  0  0
 13 35  1  0  0  0  0
 13 36  1  0  0  0  0
 14 15  1  0  0  0  0
 14 20  2  0  0  0  0
 15 37  1  0  0  0  0
 15 38  1  0  0  0  0
 16 39  1  0  0  0  0
 16 40  1  0  0  0  0
 16 41  1  0  0  0  0
 17 19  1  0  0  0  0
 17 42  1  0  0  0  0
 17 43  1  0  0  0  0
 18 44  1  0  0  0  0
 18 45  1  0  0  0  0
 18 46  1  0  0  0  0
 19 21  1  0  0  0  0
 19 47  1  0  0  0  0
 19 48  1  0  0  0  0
 20 21  1  0  0  0  0
 20 49  1  0  0  0  0
M  END
>  <DRUGBANK_ID>
DB00624

>  <SECONDARY_ACCESSION_NUMBERS>
APRD00433; DB05720; DB05275

>  <COMMON_NAME>
Testosterone

>  <CAS_NUMBER>
58-22-0

>  <UNII>
3XMK78S47O

>  <SYNONYMS>
17beta-hydroxy-4-androsten-3-one; 4-androsten-17β-ol-3-one; Testosteron; Testosterona; Testosterone; Testostérone; Testosteronum; Virosterone

$$$$
