
 OpenBabel10282417143D

104109  0  0  0  0  0  0  0  0999 V2000
    2.6908    0.7761   -0.0100 C   0  0  1  0  0  0  0  0  0  0  0  0
   -1.4516    0.1015    0.2799 C   0  0  1  0  0  0  0  0  0  0  0  0
    2.1324   -0.5868   -0.5135 C   0  0  2  0  0  0  0  0  0  0  0  0
    4.0968    0.5967   -0.5464 C   0  0  2  0  0  0  0  0  0  0  0  0
    4.4647   -0.9754   -0.2757 C   0  0  1  0  0  0  0  0  0  0  0  0
   -0.1233    0.3559   -0.4758 C   0  0  2  0  0  0  0  0  0  0  0  0
    0.7722   -0.8048    0.0058 C   0  0  1  0  0  0  0  0  0  0  0  0
    5.5481   -1.3147    0.8108 N   0  3  0  0  0  0  0  0  0  0  0  0
   -4.0621    1.2681   -0.0563 C   0  0  2  0  0  0  0  0  0  0  0  0
   -4.5180   -0.0698   -0.6663 C   0  0  2  0  0  0  0  0  0  0  0  0
    3.1065   -1.6471   -0.0363 C   0  0  0  0  0  0  0  0  0  0  0  0
   -2.4760    1.1748   -0.2849 C   0  0  0  0  0  0  0  0  0  0  0  0
   -2.1352   -1.2130   -0.2766 C   0  0  2  0  0  0  0  0  0  0  0  0
   -4.6281    1.7888    1.2395 N   0  0  0  0  0  0  0  0  0  0  0  0
    1.9145    1.9187   -0.6740 C   0  0  0  0  0  0  0  0  0  0  0  0
    4.9749    1.6051   -0.0493 O   0  0  0  0  0  0  0  0  0  0  0  0
   -3.6940   -1.3108   -0.1248 C   0  0  0  0  0  0  0  0  0  0  0  0
    0.4571    1.8112   -0.2609 C   0  0  0  0  0  0  0  0  0  0  0  0
   -4.3821    0.0377   -2.1882 O   0  0  0  0  0  0  0  0  0  0  0  0
    0.1219   -2.2003   -0.1882 C   0  0  0  0  0  0  0  0  0  0  0  0
    5.9336    2.2571   -0.7834 C   0  0  0  0  0  0  0  0  0  0  0  0
   -3.7499    0.8323   -3.1223 C   0  0  0  0  0  0  0  0  0  0  0  0
   -1.3477   -2.3651    0.2776 C   0  0  0  0  0  0  0  0  0  0  0  0
   -3.7175    0.4520   -4.2803 O   0  0  0  0  0  0  0  0  0  0  0  0
    6.8340    2.8053   -0.2210 O   0  0  0  0  0  0  0  0  0  0  0  0
    7.5961   -1.4109   -0.9799 C   0  0  0  0  0  0  0  0  0  0  0  0
    6.9860   -0.7600    0.3116 C   0  0  0  0  0  0  0  0  0  0  0  0
    8.2310   -0.8621   -2.0512 C   0  0  0  0  0  0  0  0  0  0  0  0
    2.7066    1.0590    1.5080 C   0  0  0  0  0  0  0  0  0  0  0  0
   -0.7581   -0.0154    1.8503 C   0  0  0  0  0  0  0  0  0  0  0  0
    5.7037   -2.8424    1.0175 C   0  0  0  0  0  0  0  0  0  0  0  0
    5.0793   -0.7013    2.1593 C   0  0  0  0  0  0  0  0  0  0  0  0
   -4.1117    3.1454    1.5989 C   0  0  0  0  0  0  0  0  0  0  0  0
   -4.4190    0.9054    2.3701 C   0  0  0  0  0  0  0  0  0  0  0  0
    5.9204    2.0473   -2.3071 C   0  0  0  0  0  0  0  0  0  0  0  0
   -2.9868    2.1352   -2.7973 C   0  0  0  0  0  0  0  0  0  0  0  0
    5.8759   -1.0626    3.3836 C   0  0  0  0  0  0  0  0  0  0  0  0
    6.5719   -3.1172    2.2458 C   0  0  0  0  0  0  0  0  0  0  0  0
    5.9919    0.5932   -2.6189 C   0  0  0  0  0  0  0  0  0  0  0  0
   -2.6087    3.3361    1.7233 C   0  0  0  0  0  0  0  0  0  0  0  0
   -2.9673    0.9133    2.5487 C   0  0  0  0  0  0  0  0  0  0  0  0
   -2.1211    2.2442    2.6663 C   0  0  0  0  0  0  0  0  0  0  0  0
    5.9053   -2.5711    3.4964 C   0  0  0  0  0  0  0  0  0  0  0  0
   -1.9995   -1.2560   -1.3722 H   0  0  0  0  0  0  0  0  0  0  0  0
   -0.2481    0.2583   -1.5625 H   0  0  0  0  0  0  0  0  0  0  0  0
    2.0741   -0.6048   -1.6087 H   0  0  0  0  0  0  0  0  0  0  0  0
    1.0333   -0.7487    1.0567 H   0  0  0  0  0  0  0  0  0  0  0  0
    3.9143    0.7668   -1.6101 H   0  0  0  0  0  0  0  0  0  0  0  0
    4.8260   -1.4780   -1.1736 H   0  0  0  0  0  0  0  0  0  0  0  0
   -4.5295    1.9876   -0.7392 H   0  0  0  0  0  0  0  0  0  0  0  0
   -5.5909   -0.2497   -0.4850 H   0  0  0  0  0  0  0  0  0  0  0  0
    2.9108   -1.9499    0.9975 H   0  0  0  0  0  0  0  0  0  0  0  0
    2.9710   -2.5489   -0.6445 H   0  0  0  0  0  0  0  0  0  0  0  0
   -2.0705    2.1533   -0.4404 H   0  0  0  0  0  0  0  0  0  0  0  0
   -2.4380    0.7495   -1.2755 H   0  0  0  0  0  0  0  0  0  0  0  0
    1.9688    1.8722   -1.7664 H   0  0  0  0  0  0  0  0  0  0  0  0
    2.3212    2.8938   -0.3725 H   0  0  0  0  0  0  0  0  0  0  0  0
   -3.9271   -1.5095    0.9248 H   0  0  0  0  0  0  0  0  0  0  0  0
   -4.0423   -2.2053   -0.6620 H   0  0  0  0  0  0  0  0  0  0  0  0
   -0.1214    2.5692   -0.7964 H   0  0  0  0  0  0  0  0  0  0  0  0
    0.3990    2.1638    0.7703 H   0  0  0  0  0  0  0  0  0  0  0  0
    0.7069   -2.9517    0.3458 H   0  0  0  0  0  0  0  0  0  0  0  0
    0.1578   -2.4126   -1.2585 H   0  0  0  0  0  0  0  0  0  0  0  0
   -1.4525   -2.3767    1.3685 H   0  0  0  0  0  0  0  0  0  0  0  0
   -1.7576   -3.3157   -0.0681 H   0  0  0  0  0  0  0  0  0  0  0  0
    7.4102   -2.4653   -1.1373 H   0  0  0  0  0  0  0  0  0  0  0  0
    6.8313    0.3050    0.2280 H   0  0  0  0  0  0  0  0  0  0  0  0
    7.6679   -0.8666    1.1497 H   0  0  0  0  0  0  0  0  0  0  0  0
    8.2387   -1.3890   -3.0157 H   0  0  0  0  0  0  0  0  0  0  0  0
    8.4913    0.1971   -2.1762 H   0  0  0  0  0  0  0  0  0  0  0  0
    2.9173    0.1641    2.0608 H   0  0  0  0  0  0  0  0  0  0  0  0
    3.4145    1.8517    1.7741 H   0  0  0  0  0  0  0  0  0  0  0  0
    1.7716    1.3603    1.9616 H   0  0  0  0  0  0  0  0  0  0  0  0
   -0.2847   -0.9647    2.1017 H   0  0  0  0  0  0  0  0  0  0  0  0
   -0.0327    0.7783    1.9288 H   0  0  0  0  0  0  0  0  0  0  0  0
   -1.1405    0.0905    2.8549 H   0  0  0  0  0  0  0  0  0  0  0  0
    6.1420   -3.2700    0.1174 H   0  0  0  0  0  0  0  0  0  0  0  0
    4.7131   -3.2937    1.1342 H   0  0  0  0  0  0  0  0  0  0  0  0
    4.1007   -1.1462    2.3678 H   0  0  0  0  0  0  0  0  0  0  0  0
    5.0351    0.3798    2.0668 H   0  0  0  0  0  0  0  0  0  0  0  0
   -4.5347    3.8935    0.9323 H   0  0  0  0  0  0  0  0  0  0  0  0
   -4.4671    3.3621    2.6127 H   0  0  0  0  0  0  0  0  0  0  0  0
   -4.8110    1.1290    3.3599 H   0  0  0  0  0  0  0  0  0  0  0  0
   -4.7463   -0.1159    2.1320 H   0  0  0  0  0  0  0  0  0  0  0  0
    5.1052    2.5321   -2.8243 H   0  0  0  0  0  0  0  0  0  0  0  0
    6.8842    2.4516   -2.6523 H   0  0  0  0  0  0  0  0  0  0  0  0
   -3.5206    2.8171   -2.1351 H   0  0  0  0  0  0  0  0  0  0  0  0
   -1.9590    1.9582   -2.4549 H   0  0  0  0  0  0  0  0  0  0  0  0
   -2.7598    2.7070   -3.6957 H   0  0  0  0  0  0  0  0  0  0  0  0
    5.3879   -0.6391    4.2739 H   0  0  0  0  0  0  0  0  0  0  0  0
    6.8698   -0.6177    3.3184 H   0  0  0  0  0  0  0  0  0  0  0  0
    7.5567   -2.6512    2.1374 H   0  0  0  0  0  0  0  0  0  0  0  0
    6.7466   -4.1881    2.3536 H   0  0  0  0  0  0  0  0  0  0  0  0
    5.1914   -0.1148   -2.4689 H   0  0  0  0  0  0  0  0  0  0  0  0
    6.4245    0.3192   -3.5719 H   0  0  0  0  0  0  0  0  0  0  0  0
    6.6036    0.3607   -1.7857 H   0  0  0  0  0  0  0  0  0  0  0  0
   -2.0882    3.3754    0.7617 H   0  0  0  0  0  0  0  0  0  0  0  0
   -2.3178    4.3181    2.1103 H   0  0  0  0  0  0  0  0  0  0  0  0
   -2.7557    0.6118    1.5799 H   0  0  0  0  0  0  0  0  0  0  0  0
   -2.7575   -0.0458    3.0307 H   0  0  0  0  0  0  0  0  0  0  0  0
   -1.0453    2.2341    2.4433 H   0  0  0  0  0  0  0  0  0  0  0  0
   -2.1409    2.5330    3.7092 H   0  0  0  0  0  0  0  0  0  0  0  0
    6.4341   -2.8682    4.4032 H   0  0  0  0  0  0  0  0  0  0  0  0
    4.8812   -2.9681    3.5710 H   0  0  0  0  0  0  0  0  0  0  0  0
  1 29  1  1  0  0  0
  2  6  1  0  0  0  0
  2 30  1  1  0  0  0
  3  1  1  0  0  0  0
  3 46  1  6  0  0  0
  4  1  1  0  0  0  0
  4 48  1  6  0  0  0
  4 16  1  0  0  0  0
  5  4  1  0  0  0  0
  5  8  1  0  0  0  0
  5 11  1  0  0  0  0
  5 49  1  6  0  0  0
  6 18  1  0  0  0  0
  6 45  1  6  0  0  0
  6  7  1  0  0  0  0
  7  3  1  0  0  0  0
  7 47  1  1  0  0  0
  9 12  1  0  0  0  0
  9 14  1  0  0  0  0
  9 50  1  6  0  0  0
 10 17  1  0  0  0  0
 10  9  1  0  0  0  0
 10 51  1  1  0  0  0
 10 19  1  0  0  0  0
 11  3  1  0  0  0  0
 11 52  1  0  0  0  0
 11 53  1  0  0  0  0
 12  2  1  0  0  0  0
 12 54  1  0  0  0  0
 12 55  1  0  0  0  0
 13  2  1  0  0  0  0
 13 44  1  6  0  0  0
 15  1  1  0  0  0  0
 15 56  1  0  0  0  0
 15 57  1  0  0  0  0
 17 13  1  0  0  0  0
 17 58  1  0  0  0  0
 17 59  1  0  0  0  0
 18 15  1  0  0  0  0
 18 60  1  0  0  0  0
 18 61  1  0  0  0  0
 20  7  1  0  0  0  0
 20 62  1  0  0  0  0
 20 63  1  0  0  0  0
 21 16  1  0  0  0  0
 22 19  1  0  0  0  0
 23 20  1  0  0  0  0
 23 13  1  0  0  0  0
 23 64  1  0  0  0  0
 23 65  1  0  0  0  0
 24 22  2  0  0  0  0
 25 21  2  0  0  0  0
 26 27  1  0  0  0  0
 26 66  1  0  0  0  0
 27  8  1  0  0  0  0
 27 67  1  0  0  0  0
 27 68  1  0  0  0  0
 28 26  2  0  0  0  0
 28 69  1  0  0  0  0
 28 70  1  0  0  0  0
 29 71  1  0  0  0  0
 29 72  1  0  0  0  0
 29 73  1  0  0  0  0
 30 74  1  0  0  0  0
 30 75  1  0  0  0  0
 30 76  1  0  0  0  0
 31  8  1  0  0  0  0
 31 77  1  0  0  0  0
 31 78  1  0  0  0  0
 32  8  1  0  0  0  0
 32 79  1  0  0  0  0
 32 80  1  0  0  0  0
 33 14  1  0  0  0  0
 33 81  1  0  0  0  0
 33 82  1  0  0  0  0
 34 14  1  0  0  0  0
 34 83  1  0  0  0  0
 34 84  1  0  0  0  0
 35 21  1  0  0  0  0
 35 85  1  0  0  0  0
 35 86  1  0  0  0  0
 36 22  1  0  0  0  0
 36 87  1  0  0  0  0
 36 88  1  0  0  0  0
 36 89  1  0  0  0  0
 37 32  1  0  0  0  0
 37 90  1  0  0  0  0
 37 91  1  0  0  0  0
 38 31  1  0  0  0  0
 38 92  1  0  0  0  0
 38 93  1  0  0  0  0
 39 35  1  0  0  0  0
 39 94  1  0  0  0  0
 39 95  1  0  0  0  0
 39 96  1  0  0  0  0
 40 33  1  0  0  0  0
 40 97  1  0  0  0  0
 40 98  1  0  0  0  0
 41 34  1  0  0  0  0
 41 99  1  0  0  0  0
 41100  1  0  0  0  0
 42 40  1  0  0  0  0
 42 41  1  0  0  0  0
 42101  1  0  0  0  0
 42102  1  0  0  0  0
 43 38  1  0  0  0  0
 43 37  1  0  0  0  0
 43103  1  0  0  0  0
 43104  1  0  0  0  0
M  CHG  1   8   1
M  END
>  <DRUGBANK_ID>
DB04834

>  <COMMON_NAME>
Rapacuronium

>  <CAS_NUMBER>
465499-11-0

>  <UNII>
GG1LBM463S

$$$$
