
 OpenBabel10282417133D

 27 26  0  0  0  0  0  0  0  0999 V2000
    1.0279    0.0181   -0.0210 C   0  0  0  0  0  0  0  0  0  0  0  0
    0.5535   -0.3650   -1.3979 C   0  0  0  0  0  0  0  0  0  0  0  0
    0.9069    0.3931   -2.4679 N   0  0  0  0  0  0  0  0  0  0  0  0
    1.7549    1.5605   -2.4424 C   0  0  0  0  0  0  0  0  0  0  0  0
    2.9951    1.3280   -3.2995 C   0  0  0  0  0  0  0  0  0  0  0  0
    2.6756    1.2164   -4.7968 C   0  0  0  0  0  0  0  0  0  0  0  0
    1.9407    2.4462   -5.3583 C   0  0  1  0  0  0  0  0  0  0  0  0
    2.7753    3.7345   -5.1888 C   0  0  0  0  0  0  0  0  0  0  0  0
    3.0933    4.3667   -6.3397 O   0  0  0  0  0  0  0  0  0  0  0  0
   -0.1906   -1.4056   -1.5896 N   0  0  0  0  0  0  0  0  0  0  0  0
    3.1276    4.1827   -4.1033 O   0  0  0  0  0  0  0  0  0  0  0  0
    1.5781    2.2005   -6.7641 N   0  0  0  0  0  0  0  0  0  0  0  0
    0.6627   -0.6713    0.7402 H   0  0  0  0  0  0  0  0  0  0  0  0
    0.6684    1.0264    0.2076 H   0  0  0  0  0  0  0  0  0  0  0  0
    2.1224    0.0170   -0.0093 H   0  0  0  0  0  0  0  0  0  0  0  0
    0.5385    0.0696   -3.3570 H   0  0  0  0  0  0  0  0  0  0  0  0
    1.1776    2.4286   -2.7705 H   0  0  0  0  0  0  0  0  0  0  0  0
    2.0838    1.8063   -1.4297 H   0  0  0  0  0  0  0  0  0  0  0  0
    3.7027    2.1452   -3.1287 H   0  0  0  0  0  0  0  0  0  0  0  0
    3.5202    0.4241   -2.9664 H   0  0  0  0  0  0  0  0  0  0  0  0
    3.6131    1.0506   -5.3422 H   0  0  0  0  0  0  0  0  0  0  0  0
    2.0689    0.3139   -4.9565 H   0  0  0  0  0  0  0  0  0  0  0  0
    0.9927    2.6035   -4.8347 H   0  0  0  0  0  0  0  0  0  0  0  0
    2.7196    3.9216   -7.1205 H   0  0  0  0  0  0  0  0  0  0  0  0
   -0.3786   -1.8779   -0.6996 H   0  0  0  0  0  0  0  0  0  0  0  0
    0.9880    2.9383   -7.1398 H   0  0  0  0  0  0  0  0  0  0  0  0
    2.3785    1.9791   -7.3476 H   0  0  0  0  0  0  0  0  0  0  0  0
  1  2  1  0  0  0  0
  1 13  1  0  0  0  0
  1 14  1  0  0  0  0
  1 15  1  0  0  0  0
  2 10  2  0  0  0  0
  2  3  1  0  0  0  0
  3  4  1  0  0  0  0
  3 16  1  0  0  0  0
  4  5  1  0  0  0  0
  4 17  1  0  0  0  0
  4 18  1  0  0  0  0
  5  6  1  0  0  0  0
  5 19  1  0  0  0  0
  5 20  1  0  0  0  0
  6  7  1  0  0  0  0
  6 21  1  0  0  0  0
  6 22  1  0  0  0  0
  7  8  1  0  0  0  0
  7 12  1  0  0  0  0
  7 23  1  1  0  0  0
  8  9  1  0  0  0  0
  8 11  2  0  0  0  0
  9 24  1  0  0  0  0
 10 25  1  0  0  0  0
 12 26  1  0  0  0  0
 12 27  1  0  0  0  0
M  END
>  <DRUGBANK_ID>
DB03305

>  <SECONDARY_ACCESSION_NUMBERS>
EXPT01862

>  <COMMON_NAME>
N(G)-Iminoethylornithine

>  <CAS_NUMBER>
36889-13-1

>  <UNII>
XQ6P9GL3YT

>  <SYNONYMS>
L-NIO; N(G)-Iminoethylornithine; N5-(1-Iminoethyl)-L-ornithine

$$$$
