1074
 OpenBabel10282417113D

 55 57  0  0  1  0  0  0  0  0999 V2000
    1.3112   -0.2819    0.2426 N   0  0  0  0  0  0  0  0  0  0  0  0
    0.1211    2.4578   -2.3198 C   0  0  0  0  0  0  0  0  0  0  0  0
    0.8497    3.7735   -1.8892 C   0  0  0  0  0  0  0  0  0  0  0  0
    0.0767    2.2957   -3.8895 C   0  0  0  0  0  0  0  0  0  0  0  0
    0.7471    1.1867   -1.6761 C   0  0  0  0  0  0  0  0  0  0  0  0
    1.0060    3.8937   -0.3683 C   0  0  0  0  0  0  0  0  0  0  0  0
    0.1297    5.0313   -2.4025 C   0  0  0  0  0  0  0  0  0  0  0  0
   -1.2991    1.7760   -4.3589 C   0  0  0  0  0  0  0  0  0  0  0  0
    1.2112    1.4127   -4.4480 C   0  0  0  0  0  0  0  0  0  0  0  0
    0.6353    0.9598   -0.1553 C   0  0  3  0  0  0  0  0  0  0  0  0
    1.6009    5.1710    0.1618 C   0  0  0  0  0  0  0  0  0  0  0  0
    0.8045    6.3046   -1.8954 C   0  0  0  0  0  0  0  0  0  0  0  0
   -1.3454    1.6199   -5.8796 C   0  0  0  0  0  0  0  0  0  0  0  0
    1.1418    1.2457   -5.9562 C   0  0  0  0  0  0  0  0  0  0  0  0
    0.8584    6.3647   -0.3752 C   0  0  0  0  0  0  0  0  0  0  0  0
   -0.2235    0.7164   -6.3790 C   0  0  0  0  0  0  0  0  0  0  0  0
   -0.7997    1.0652    0.3426 C   0  0  0  0  0  0  0  0  0  0  0  0
   -1.5957   -0.1380   -0.1221 C   0  0  0  0  0  0  0  0  0  0  0  0
    0.5959   -1.4565   -0.2300 C   0  0  0  0  0  0  0  0  0  0  0  0
   -0.8529   -1.4212    0.2519 C   0  0  0  0  0  0  0  0  0  0  0  0
    2.2639   -0.2768   -0.0961 H   0  0  0  0  0  0  0  0  0  0  0  0
   -0.9216    2.5418   -1.9891 H   0  0  0  0  0  0  0  0  0  0  0  0
    1.8583    3.7452   -2.3203 H   0  0  0  0  0  0  0  0  0  0  0  0
    0.1932    3.2742   -4.3629 H   0  0  0  0  0  0  0  0  0  0  0  0
    1.8071    1.1307   -1.9511 H   0  0  0  0  0  0  0  0  0  0  0  0
    0.2497    0.3398   -2.1643 H   0  0  0  0  0  0  0  0  0  0  0  0
    0.0427    3.7213    0.1277 H   0  0  0  0  0  0  0  0  0  0  0  0
    1.7573    3.1828   -0.0561 H   0  0  0  0  0  0  0  0  0  0  0  0
    0.1345    5.0705   -3.4946 H   0  0  0  0  0  0  0  0  0  0  0  0
   -0.9224    5.0128   -2.0901 H   0  0  0  0  0  0  0  0  0  0  0  0
   -1.5288    0.8147   -3.8837 H   0  0  0  0  0  0  0  0  0  0  0  0
   -2.0865    2.4778   -4.0548 H   0  0  0  0  0  0  0  0  0  0  0  0
    2.1812    1.8373   -4.1669 H   0  0  0  0  0  0  0  0  0  0  0  0
    1.1620    0.4016   -4.0291 H   0  0  0  0  0  0  0  0  0  0  0  0
    1.2137    1.6570    0.4294 H   0  0  0  0  0  0  0  0  0  0  0  0
    1.5716    5.1456    1.2584 H   0  0  0  0  0  0  0  0  0  0  0  0
    2.6575    5.2025   -0.1280 H   0  0  0  0  0  0  0  0  0  0  0  0
    0.2697    7.1778   -2.2762 H   0  0  0  0  0  0  0  0  0  0  0  0
    1.8260    6.3401   -2.2946 H   0  0  0  0  0  0  0  0  0  0  0  0
   -2.3155    1.2100   -6.1817 H   0  0  0  0  0  0  0  0  0  0  0  0
   -1.2551    2.6070   -6.3506 H   0  0  0  0  0  0  0  0  0  0  0  0
    1.9229    0.5444   -6.2711 H   0  0  0  0  0  0  0  0  0  0  0  0
    1.3475    2.2051   -6.4428 H   0  0  0  0  0  0  0  0  0  0  0  0
   -0.1571    6.3790    0.0381 H   0  0  0  0  0  0  0  0  0  0  0  0
    1.3683    7.2728   -0.0438 H   0  0  0  0  0  0  0  0  0  0  0  0
   -0.3672   -0.2934   -5.9737 H   0  0  0  0  0  0  0  0  0  0  0  0
   -0.2629    0.6350   -7.4697 H   0  0  0  0  0  0  0  0  0  0  0  0
   -1.2880    1.9832   -0.0016 H   0  0  0  0  0  0  0  0  0  0  0  0
   -0.8010    1.1323    1.4373 H   0  0  0  0  0  0  0  0  0  0  0  0
   -2.5875   -0.1133    0.3374 H   0  0  0  0  0  0  0  0  0  0  0  0
   -1.7482   -0.0866   -1.2068 H   0  0  0  0  0  0  0  0  0  0  0  0
    1.1042   -2.3392    0.1702 H   0  0  0  0  0  0  0  0  0  0  0  0
    0.6595   -1.5331   -1.3196 H   0  0  0  0  0  0  0  0  0  0  0  0
   -0.8556   -1.5065    1.3455 H   0  0  0  0  0  0  0  0  0  0  0  0
   -1.3881   -2.2818   -0.1540 H   0  0  0  0  0  0  0  0  0  0  0  0
  1 10  1  0  0  0  0
  1 19  1  0  0  0  0
  1 21  1  0  0  0  0
  2  3  1  0  0  0  0
  2  4  1  0  0  0  0
  2  5  1  0  0  0  0
  2 22  1  0  0  0  0
  3  6  1  0  0  0  0
  3  7  1  0  0  0  0
  3 23  1  0  0  0  0
  4  8  1  0  0  0  0
  4  9  1  0  0  0  0
  4 24  1  0  0  0  0
  5 10  1  0  0  0  0
  5 25  1  0  0  0  0
  5 26  1  0  0  0  0
  6 11  1  0  0  0  0
  6 27  1  0  0  0  0
  6 28  1  0  0  0  0
  7 12  1  0  0  0  0
  7 29  1  0  0  0  0
  7 30  1  0  0  0  0
  8 13  1  0  0  0  0
  8 31  1  0  0  0  0
  8 32  1  0  0  0  0
  9 14  1  0  0  0  0
  9 33  1  0  0  0  0
  9 34  1  0  0  0  0
 10 17  1  0  0  0  0
 10 35  1  0  0  0  0
 11 15  1  0  0  0  0
 11 36  1  0  0  0  0
 11 37  1  0  0  0  0
 12 15  1  0  0  0  0
 12 38  1  0  0  0  0
 12 39  1  0  0  0  0
 13 16  1  0  0  0  0
 13 40  1  0  0  0  0
 13 41  1  0  0  0  0
 14 16  1  0  0  0  0
 14 42  1  0  0  0  0
 14 43  1  0  0  0  0
 15 44  1  0  0  0  0
 15 45  1  0  0  0  0
 16 46  1  0  0  0  0
 16 47  1  0  0  0  0
 17 18  1  0  0  0  0
 17 48  1  0  0  0  0
 17 49  1  0  0  0  0
 18 20  1  0  0  0  0
 18 50  1  0  0  0  0
 18 51  1  0  0  0  0
 19 20  1  0  0  0  0
 19 52  1  0  0  0  0
 19 53  1  0  0  0  0
 20 54  1  0  0  0  0
 20 55  1  0  0  0  0
M  END
>  <DRUGBANK_ID>
DB01074

>  <SECONDARY_ACCESSION_NUMBERS>
APRD00107

>  <COMMON_NAME>
Perhexiline

>  <CAS_NUMBER>
6621-47-2

>  <UNII>
KU65374X44

>  <SYNONYMS>
Perhexilene; Perhexilina; Perhexiline; Perhexilinum

$$$$
