F21
 OpenBabel10282417163D

 40 42  0  0  0  0  0  0  0  0999 V2000
    1.0382    1.2311    0.2762 C   0  0  0  0  0  0  0  0  0  0  0  0
   -0.3339    1.3273   -0.3712 C   0  0  0  0  0  0  0  0  0  0  0  0
   -1.4051   -0.0408    0.1125 S   0  0  0  0  0  0  0  0  0  0  0  0
   -0.2681   -1.3649   -0.3923 C   0  0  0  0  0  0  0  0  0  0  0  0
    1.0987   -1.2434    0.2834 C   0  0  0  0  0  0  0  0  0  0  0  0
    1.8359    0.0219   -0.1041 N   0  0  0  0  0  0  0  0  0  0  0  0
    3.4338   -0.0020    0.6070 S   0  0  0  0  0  0  0  0  0  0  0  0
    3.2664    0.0938    2.0393 O   0  0  0  0  0  0  0  0  0  0  0  0
    4.1308   -1.1307    0.0163 O   0  0  0  0  0  0  0  0  0  0  0  0
    4.2540    1.4897    0.0670 C   0  0  0  0  0  0  0  0  0  0  0  0
    3.7737    2.7373    0.4854 C   0  0  0  0  0  0  0  0  0  0  0  0
    4.3850    3.9122    0.0551 C   0  0  0  0  0  0  0  0  0  0  0  0
    3.8039    5.2742    0.3467 C   0  0  0  0  0  0  0  0  0  0  0  0
    4.7865    6.2575    0.7888 N   0  0  0  0  0  0  0  0  0  0  0  0
    6.1705    6.0098    0.3393 C   0  0  1  0  0  0  0  0  0  0  0  0
    7.0270    5.3836    1.4745 C   0  0  0  0  0  0  0  0  0  0  0  0
    6.3824    5.4366    2.6726 F   0  0  0  0  0  0  0  0  0  0  0  0
    6.2797    5.1414   -0.9419 C   0  0  0  0  0  0  0  0  0  0  0  0
    5.5713    3.8336   -0.6876 C   0  0  0  0  0  0  0  0  0  0  0  0
    6.0998    2.5903   -1.0482 C   0  0  0  0  0  0  0  0  0  0  0  0
    5.4312    1.4153   -0.6853 C   0  0  0  0  0  0  0  0  0  0  0  0
    6.6124    6.9878    0.1081 H   0  0  0  0  0  0  0  0  0  0  0  0
    1.5461    2.1032   -0.1257 H   0  0  0  0  0  0  0  0  0  0  0  0
    0.9664    1.3086    1.3671 H   0  0  0  0  0  0  0  0  0  0  0  0
   -0.8008    2.2704   -0.0673 H   0  0  0  0  0  0  0  0  0  0  0  0
   -0.2398    1.3426   -1.4621 H   0  0  0  0  0  0  0  0  0  0  0  0
   -0.1669   -1.3287   -1.4815 H   0  0  0  0  0  0  0  0  0  0  0  0
   -0.7334   -2.3175   -0.1247 H   0  0  0  0  0  0  0  0  0  0  0  0
    1.6945   -2.1096   -0.0262 H   0  0  0  0  0  0  0  0  0  0  0  0
    0.9842   -1.2828    1.3741 H   0  0  0  0  0  0  0  0  0  0  0  0
    2.9246    2.8135    1.1566 H   0  0  0  0  0  0  0  0  0  0  0  0
    3.0190    5.2030    1.1076 H   0  0  0  0  0  0  0  0  0  0  0  0
    3.3213    5.6358   -0.5710 H   0  0  0  0  0  0  0  0  0  0  0  0
    4.4792    7.1957    0.5455 H   0  0  0  0  0  0  0  0  0  0  0  0
    7.2794    4.3358    1.2889 H   0  0  0  0  0  0  0  0  0  0  0  0
    7.9611    5.9392    1.5926 H   0  0  0  0  0  0  0  0  0  0  0  0
    5.8073    5.6471   -1.7931 H   0  0  0  0  0  0  0  0  0  0  0  0
    7.3331    4.9729   -1.1925 H   0  0  0  0  0  0  0  0  0  0  0  0
    7.0469    2.5280   -1.5788 H   0  0  0  0  0  0  0  0  0  0  0  0
    5.8602    0.4518   -0.9543 H   0  0  0  0  0  0  0  0  0  0  0  0
  1  2  1  0  0  0  0
  1  6  1  0  0  0  0
  1 23  1  0  0  0  0
  1 24  1  0  0  0  0
  2  3  1  0  0  0  0
  2 25  1  0  0  0  0
  2 26  1  0  0  0  0
  3  4  1  0  0  0  0
  4  5  1  0  0  0  0
  4 27  1  0  0  0  0
  4 28  1  0  0  0  0
  5  6  1  0  0  0  0
  5 29  1  0  0  0  0
  5 30  1  0  0  0  0
  6  7  1  0  0  0  0
  7  8  2  0  0  0  0
  7  9  2  0  0  0  0
  7 10  1  0  0  0  0
 10 11  1  0  0  0  0
 10 21  2  0  0  0  0
 11 12  2  0  0  0  0
 11 31  1  0  0  0  0
 12 13  1  0  0  0  0
 12 19  1  0  0  0  0
 13 14  1  0  0  0  0
 13 32  1  0  0  0  0
 13 33  1  0  0  0  0
 14 15  1  0  0  0  0
 14 34  1  0  0  0  0
 15 18  1  0  0  0  0
 15 22  1  6  0  0  0
 15 16  1  0  0  0  0
 16 17  1  0  0  0  0
 16 35  1  0  0  0  0
 16 36  1  0  0  0  0
 18 19  1  0  0  0  0
 18 37  1  0  0  0  0
 18 38  1  0  0  0  0
 19 20  2  0  0  0  0
 20 21  1  0  0  0  0
 20 39  1  0  0  0  0
 21 40  1  0  0  0  0
M  END
>  <DRUGBANK_ID>
DB07739

>  <COMMON_NAME>
(3R)-3-(FLUOROMETHYL)-7-(THIOMORPHOLIN-4-YLSULFONYL)-1,2,3,4-TETRAHYDROISOQUINOLINE

$$$$
