
 OpenBabel10282417233D

 36 38  0  0  0  0  0  0  0  0999 V2000
   -2.4730   -0.0140   -0.0040 N   0  0  0  0  0  4  0  0  0  0  0  0
   -1.6020   -1.2020    0.0020 N   0  0  0  0  0  0  0  0  0  0  0  0
   -0.2450    0.6960    0.0010 C   0  0  0  0  0  0  0  0  0  0  0  0
   -0.1930   -0.7080    0.0010 C   0  0  0  0  0  0  0  0  0  0  0  0
   -1.6610    1.1170    0.0020 C   0  0  0  0  0  0  0  0  0  0  0  0
    0.9490    1.4160    0.0000 C   0  0  0  0  0  0  0  0  0  0  0  0
    0.9690   -1.3340    0.0000 C   0  0  0  0  0  0  0  0  0  0  0  0
    2.1450    0.7060   -0.0010 C   0  0  0  0  0  0  0  0  0  0  0  0
    2.1140   -0.6750   -0.0010 C   0  0  0  0  0  0  0  0  0  0  0  0
   -4.6429   -0.0248   -0.0195 Ru  0  0  0  0  0  0  0  0  0  0  0  0
   -4.6252   -0.0244   -2.4994 Cl  0  0  0  0  0  0  0  0  0  0  0  0
   -4.6306   -2.5048   -0.0198 Cl  0  0  0  0  0  0  0  0  0  0  0  0
   -7.1228   -0.0372   -0.0372 Cl  0  0  0  0  0  0  0  0  0  0  0  0
   -4.6606   -0.0253    2.4604 Cl  0  0  0  0  0  0  0  0  0  0  0  0
   -4.6537    2.1452   -0.0192 N   0  0  0  0  0  4  0  0  0  0  0  0
   -5.2646    3.0100    1.0050 N   0  0  0  0  0  0  0  0  0  0  0  0
   -4.3029    4.3768   -0.6232 C   0  0  0  0  0  0  0  0  0  0  0  0
   -5.0163    4.4216    0.5863 C   0  0  0  0  0  0  0  0  0  0  0  0
   -4.0864    2.9630   -0.9927 C   0  0  0  0  0  0  0  0  0  0  0  0
   -3.9393    5.5745   -1.2375 C   0  0  0  0  0  0  0  0  0  0  0  0
   -5.3364    5.5803    1.1313 C   0  0  0  0  0  0  0  0  0  0  0  0
   -4.3021    6.7668   -0.6200 C   0  0  0  0  0  0  0  0  0  0  0  0
   -5.0036    6.7287    0.5693 C   0  0  0  0  0  0  0  0  0  0  0  0
    1.0791    0.0430   -0.0435 Na  0  3  0  0  0  0  0  0  0  0  0  0
   -1.9039   -2.1763    0.0061 H   0  0  0  0  0  0  0  0  0  0  0  0
   -2.0073    2.1294    0.0066 H   0  0  0  0  0  0  0  0  0  0  0  0
    0.9453    2.4860    0.0000 H   0  0  0  0  0  0  0  0  0  0  0  0
    0.9840   -2.4039   -0.0000 H   0  0  0  0  0  0  0  0  0  0  0  0
    3.0808    1.2249   -0.0018 H   0  0  0  0  0  0  0  0  0  0  0  0
    3.0342   -1.2210   -0.0018 H   0  0  0  0  0  0  0  0  0  0  0  0
   -5.7623    2.7031    1.8407 H   0  0  0  0  0  0  0  0  0  0  0  0
   -3.5751    2.6219   -1.8686 H   0  0  0  0  0  0  0  0  0  0  0  0
   -3.3957    5.5763   -2.1591 H   0  0  0  0  0  0  0  0  0  0  0  0
   -5.8800    5.5898    2.0529 H   0  0  0  0  0  0  0  0  0  0  0  0
   -4.0402    7.7052   -1.0624 H   0  0  0  0  0  0  0  0  0  0  0  0
   -5.2826    7.6461    1.0442 H   0  0  0  0  0  0  0  0  0  0  0  0
  1 10  1  0  0  0  0
  2  1  1  0  0  0  0
  2 25  1  0  0  0  0
  3  5  1  0  0  0  0
  4  2  1  0  0  0  0
  4  3  1  0  0  0  0
  5  1  2  0  0  0  0
  5 26  1  0  0  0  0
  6  3  2  0  0  0  0
  6 27  1  0  0  0  0
  7  4  2  0  0  0  0
  7 28  1  0  0  0  0
  8  6  1  0  0  0  0
  8  9  2  0  0  0  0
  8 29  1  0  0  0  0
  9  7  1  0  0  0  0
  9 30  1  0  0  0  0
 10 15  1  0  0  0  0
 11 10  1  0  0  0  0
 12 10  1  0  0  0  0
 13 10  1  0  0  0  0
 14 10  1  0  0  0  0
 16 15  1  0  0  0  0
 16 31  1  0  0  0  0
 17 19  1  0  0  0  0
 18 16  1  0  0  0  0
 18 17  1  0  0  0  0
 19 15  2  0  0  0  0
 19 32  1  0  0  0  0
 20 17  2  0  0  0  0
 20 33  1  0  0  0  0
 21 18  2  0  0  0  0
 21 34  1  0  0  0  0
 22 20  1  0  0  0  0
 22 23  2  0  0  0  0
 22 35  1  0  0  0  0
 23 21  1  0  0  0  0
 23 36  1  0  0  0  0
M  CHG  1  24   1
M  END
>  <DRUGBANK_ID>
DB17145

>  <COMMON_NAME>
IT-139

>  <CAS_NUMBER>
197723-00-5

>  <UNII>
7OSJ9KS483

>  <SYNONYMS>
Ruthenate(1-), tetrachlorobis(1h-indazole-.kappa.n2)-, sodium (1:1), (oc-6-11)-; Sodium hydride; tetrachloro-bis(1h-indazol-2-yl)ruthenium; Sodium Trans-[Tetrachlorobis(1H-Indazole)Ruthenate(iii)]

$$$$
